0:0:0
     RDKit          3D

 98106  0  0  1  0  0  0  0  0999 V2000
  -29.6290  -20.6720   21.3550 C   0  0  0  0  0  0  0  0  0  0  0  0
  -29.0640  -23.1300   21.1850 C   0  0  0  0  0  0  0  0  0  0  0  0
  -29.5310  -21.8550   20.6750 N   0  0  0  0  0  0  0  0  0  0  0  0
  -29.0450  -20.5070   22.5480 N   0  0  0  0  0  4  0  0  0  0  0  0
  -28.8740  -23.2790   22.3960 O   0  0  0  0  0  0  0  0  0  0  0  0
  -29.7860  -21.7500   19.7040 H   0  0  0  0  0  0  0  0  0  0  0  0
  -29.0470  -19.6040   22.9980 H   0  0  0  0  0  0  0  0  0  0  0  0
  -28.6440  -21.3090   23.0190 H   0  0  0  0  0  0  0  0  0  0  0  0
  -31.7430  -19.9050   20.3560 C   0  0  0  0  0  3  0  0  0  0  0  0
  -32.2640  -17.5510   20.0310 C   0  0  0  0  0  3  0  0  0  0  0  0
  -30.4610  -19.5660   20.8360 C   0  0  0  0  0  0  0  0  0  0  0  0
  -30.9740  -17.1590   20.4840 C   0  0  0  0  0  0  0  0  0  0  0  0
  -32.6370  -18.9030   19.9600 C   0  0  0  0  0  0  0  0  0  0  0  0
  -30.0840  -18.1890   20.8970 C   0  0  0  0  0  0  0  0  0  0  0  0
  -33.8760  -19.2410   19.5280 F   0  0  0  0  0  0  0  0  0  0  0  0
  -28.8700  -17.8340   21.3840 F   0  0  0  0  0  0  0  0  0  0  0  0
  -31.0950  -14.6910   19.9880 C   0  0  0  0  0  0  0  0  0  0  0  0
  -30.6530  -12.5210   18.9090 C   0  0  0  0  0  2  0  0  0  0  0  0
  -29.6540  -12.7160   17.7520 C   0  0  0  0  0  2  0  0  0  0  0  0
  -28.2080  -12.5970   18.2680 C   0  0  0  0  0  2  0  0  0  0  0  0
  -27.9500  -13.4560   19.5360 C   0  0  0  0  0  3  0  0  0  0  0  0
  -29.0700  -13.2820   20.5860 C   0  0  0  0  0  2  0  0  0  0  0  0
  -30.3590  -13.5450   19.9310 N   0  0  0  0  0  0  0  0  0  0  0  0
  -32.1850  -14.7630   19.4220 O   0  0  0  0  0  0  0  0  0  0  0  0
  -30.5310  -15.7790   20.5620 N   0  0  0  0  0  0  0  0  0  0  0  0
  -29.6270  -15.6360   20.9880 H   0  0  0  0  0  0  0  0  0  0  0  0
  -25.6230  -14.0750   20.4350 C   0  0  0  0  0  0  0  0  0  0  0  0
  -24.5650  -13.3090   20.8460 C   0  0  0  0  0  0  0  0  0  0  0  0
  -24.9920  -11.9520   20.7270 C   0  0  0  0  0  0  0  0  0  0  0  0
  -26.6290  -13.1850   20.0980 N   0  0  0  0  0  0  0  0  0  0  0  0
  -26.2570  -11.9010   20.3290 N   0  0  0  0  0  0  0  0  0  0  0  0
  -24.2500  -10.6970   20.9150 C   0  0  0  0  0  0  0  0  0  0  0  0
  -24.6680   -9.7240   21.8480 C   0  0  0  0  0  3  0  0  0  0  0  0
  -23.9270   -8.5340   22.0240 C   0  0  0  0  0  3  0  0  0  0  0  0
  -22.7540   -8.3100   21.2640 C   0  0  0  0  0  0  0  0  0  0  0  0
  -22.3550   -9.2720   20.3190 C   0  0  0  0  0  3  0  0  0  0  0  0
  -23.0960  -10.4520   20.1430 C   0  0  0  0  0  3  0  0  0  0  0  0
  -21.9870   -7.1730   21.3480 O   0  0  0  0  0  0  0  0  0  0  0  0
  -21.8530   -6.4810   22.5240 C   0  0  0  0  0  0  0  0  0  0  0  0
  -21.3070   -7.0770   23.6820 C   0  0  0  0  0  3  0  0  0  0  0  0
  -21.1230   -6.3090   24.8490 C   0  0  0  0  0  3  0  0  0  0  0  0
  -21.4730   -4.9460   24.8580 C   0  0  0  0  0  0  0  0  0  0  0  0
  -22.0110   -4.3490   23.7060 C   0  0  0  0  0  3  0  0  0  0  0  0
  -22.1960   -5.1130   22.5400 C   0  0  0  0  0  0  0  0  0  0  0  0
  -22.6950   -4.5280   21.4250 F   0  0  0  0  0  0  0  0  0  0  0  0
  -21.2890   -4.2070   25.9780 F   0  0  0  0  0  0  0  0  0  0  0  0
  -23.2000  -13.8040   21.2350 C   0  0  0  0  0  0  0  0  0  0  0  0
  -22.5240  -13.0900   22.1280 N   0  0  0  0  0  0  0  0  0  0  0  0
  -22.7480  -14.8540   20.7820 O   0  0  0  0  0  0  0  0  0  0  0  0
  -22.9060  -12.2380   22.5120 H   0  0  0  0  0  0  0  0  0  0  0  0
  -21.6110  -13.3990   22.4310 H   0  0  0  0  0  0  0  0  0  0  0  0
  -25.8070  -15.4490   20.3030 N   0  0  0  0  0  0  0  0  0  0  0  0
  -25.0680  -16.1160   20.4970 H   0  0  0  0  0  0  0  0  0  0  0  0
  -26.6460  -15.8840   19.9390 H   0  0  0  0  0  0  0  0  0  0  0  0
  -28.8460  -24.2790   20.1540 C   0  0  0  0  0  2  0  0  0  0  0  0
  -27.2010  -25.6750   21.6300 C   0  0  0  0  0  1  0  0  0  0  0  0
  -28.4770  -25.6970   20.7260 C   0  0  0  0  0  3  0  0  0  0  0  0
  -28.4680  -26.7210   19.6730 O   0  0  0  0  0  0  0  0  0  0  0  0
  -24.6090  -31.6530   23.0270 C   0  0  0  0  0  0  0  0  0  0  0  0
  -27.3490  -27.5270   19.6150 C   0  0  0  0  0  0  0  0  0  0  0  0
  -23.4290  -30.3180   21.3100 C   0  0  0  0  0  3  0  0  0  0  0  0
  -24.9160  -28.9560   19.7420 C   0  0  0  0  0  0  0  0  0  0  0  0
  -25.9340  -30.7930   21.0980 C   0  0  0  0  0  2  0  0  0  0  0  0
  -26.0640  -29.4770   20.3550 C   0  0  0  0  0  0  0  0  0  0  0  0
  -27.2880  -28.7700   20.2900 C   0  0  0  0  0  3  0  0  0  0  0  0
  -26.2000  -27.0490   18.9500 C   0  0  0  0  0  3  0  0  0  0  0  0
  -24.9820  -27.7460   19.0300 C   0  0  0  0  0  3  0  0  0  0  0  0
  -23.6370  -29.7490   19.8820 C   0  0  0  0  0  2  0  0  0  0  0  0
  -24.6760  -30.9320   21.8710 N   0  0  0  0  0  0  0  0  0  0  0  0
  -23.5270  -31.8450   23.6000 O   0  0  0  0  0  0  0  0  0  0  0  0
  -22.8360  -29.2100   22.2080 C   0  0  0  0  0  0  0  0  0  0  0  0
  -21.5130  -28.9970   22.1040 N   0  0  0  0  0  0  0  0  0  0  0  0
  -23.5610  -28.5490   22.9580 O   0  0  0  0  0  0  0  0  0  0  0  0
  -20.9880  -29.5890   21.4770 H   0  0  0  0  0  0  0  0  0  0  0  0
  -18.1850  -27.6870   22.6240 C   0  0  0  0  0  0  0  0  0  0  0  0
  -20.7460  -27.9800   22.8230 C   0  0  0  0  0  3  0  0  0  0  0  0
  -20.8550  -26.6050   22.1260 C   0  0  0  0  0  2  0  0  0  0  0  0
  -19.7210  -26.3420   21.1280 C   0  0  0  0  0  2  0  0  0  0  0  0
  -18.3610  -26.4010   21.8330 C   0  0  0  0  0  2  0  0  0  0  0  0
  -19.3040  -28.4360   23.0740 C   0  0  0  0  0  0  0  0  0  0  0  0
  -19.0830  -29.6400   23.7760 C   0  0  0  0  0  3  0  0  0  0  0  0
  -17.7750  -30.0980   24.0290 C   0  0  0  0  0  3  0  0  0  0  0  0
  -16.6720  -29.3440   23.5950 C   0  0  0  0  0  3  0  0  0  0  0  0
  -16.8780  -28.1400   22.8970 C   0  0  0  0  0  3  0  0  0  0  0  0
  -25.8810  -32.2920   23.6680 C   0  0  0  0  0  3  0  0  0  0  0  0
  -26.4370  -31.4710   24.8960 C   0  0  1  0  0  0  0  0  0  0  0  0
  -25.3650  -31.1440   25.9620 C   0  0  0  0  0  1  0  0  0  0  0  0
  -27.0560  -30.1350   24.4220 C   0  0  0  0  0  1  0  0  0  0  0  0
  -27.5720  -32.2630   25.5870 C   0  0  0  0  0  1  0  0  0  0  0  0
  -25.5350  -33.6610   24.0710 N   0  0  0  0  0  0  0  0  0  0  0  0
  -25.8450  -34.7610   23.3720 C   0  0  0  0  0  0  0  0  0  0  0  0
  -26.5230  -34.7300   22.3400 O   0  0  0  0  0  0  0  0  0  0  0  0
  -24.9360  -33.7590   24.8770 H   0  0  0  0  0  0  0  0  0  0  0  0
  -24.0780  -36.5280   23.0910 C   0  0  0  0  0  1  0  0  0  0  0  0
  -25.3180  -36.1080   23.8980 C   0  0  0  0  0  3  0  0  0  0  0  0
  -27.4130  -37.0000   24.8150 C   0  0  0  0  0  1  0  0  0  0  0  0
  -26.3250  -37.1900   23.8580 N   0  0  0  0  0  0  0  0  0  0  0  0
  -25.8950  -38.0920   24.0440 H   0  0  0  0  0  0  0  0  0  0  0  0
  1  4  2  0
  2  5  2  0
  3  2  1  0
  3  1  1  0
  4  7  1  0
  4  8  1  0
  6  3  1  0
  9 11  1  0
 10 12  2  0
 11 14  2  0
 11  1  1  0
 12 25  1  0
 12 14  1  0
 13 10  1  0
 13  9  2  0
 14 16  1  0
 15 13  1  0
 17 25  1  0
 18 23  1  0
 19 20  1  0
 19 18  1  0
 21 20  1  0
 21 30  1  0
 21 22  1  0
 23 17  1  0
 23 22  1  0
 24 17  2  0
 25 26  1  0
 27 28  2  0
 28 47  1  0
 29 28  1  0
 29 32  1  0
 30 31  1  0
 30 27  1  0
 31 29  2  0
 32 33  1  0
 33 34  2  0
 35 38  1  0
 35 34  1  0
 36 35  2  0
 37 36  1  0
 37 32  2  0
 38 39  1  0
 39 44  2  0
 39 40  1  0
 40 41  2  0
 41 42  1  0
 42 46  1  0
 43 42  2  0
 44 43  1  0
 45 44  1  0
 47 48  1  0
 48 51  1  0
 48 50  1  0
 49 47  2  0
 52 27  1  0
 52 53  1  0
 54 52  1  0
 55 57  1  0
 55  2  1  0
 57 56  1  0
 58 57  1  0
 59 70  2  0
 60 58  1  0
 60 65  1  0
 61 69  1  0
 61 71  1  0
 62 68  1  0
 62 64  1  0
 63 69  1  0
 64 63  1  0
 65 64  2  0
 66 67  1  0
 66 60  2  0
 67 62  2  0
 68 61  1  0
 69 59  1  0
 71 73  2  0
 72 71  1  0
 74 72  1  0
 75 84  2  0
 75 80  1  0
 76 72  1  0
 76 80  1  0
 77 76  1  0
 78 79  1  0
 78 77  1  0
 79 75  1  0
 80 81  2  0
 81 82  1  0
 83 82  2  0
 84 83  1  0
 85 59  1  0
 85 90  1  0
 85 86  1  0
 86 89  1  1
 86 87  1  0
 88 86  1  0
 90 93  1  0
 91 95  1  0
 91 90  1  0
 92 91  2  0
 95 94  1  0
 97 95  1  0
 97 98  1  0
 97 96  1  0
M  ISO  4  17 100  25 100  57 101  58 101
M  END
>  <TORSDO>  (1) 
F 19

>  <SCORE>  (1) 
-12.644

>  <name>  (1) 
0

>  <ligand_id>  (1) 
0

>  <original_smiles>  (1) 
[H]c1c([H])c([H])c2c(c1[H])C([H])([H])C([H])([H])C([H])([H])C2([H])N([H])C(=O)C1([H])N(C(=O)C([H])(N([H])C(=O)C([H])(N([H])C([H])([H])[H])C([H])([H])[H])C(C([H])([H])[H])(C([H])([H])[H])C([H])([H])[H])C([H])([H])c2c([H])c(OC([H])(C([H])([H])[H])C([H])([H])C(=O)N([H])C(c3c([H])c(F)c([H])c(N([H])C(=O)N4C([H])([H])C([H])([H])C([H])([H])C([H])(n5nc(-c6c([H])c([H])c(Oc7c([H])c([H])c(F)c([H])c7F)c([H])c6[H])c(C(=O)N([H])[H])c5N([H])[H])C4([H])[H])c3F)=[N+]([H])[H])c([H])c([H])c2C1([H])[H]

>  <smiles>  (1) 
[H]c1c([H])c([H])c2c(c1[H])C([H])([H])C([H])([H])C([H])([H])C2([H])N([H])C(=O)C1([H])N(C(=O)C([H])(N([H])C(=O)C([H])(N([H])C([H])([H])[H])C([H])([H])[H])C(C([H])([H])[H])(C([H])([H])[H])C([H])([H])[H])C([H])([H])c2c([H])c(OC([H])(C([H])([H])[H])C([H])([H])C(=O)N([H])C(c3c([H])c(F)c([H])c(N([H])C(=O)N4C([H])([H])C([H])([H])C([H])([H])C([H])(n5nc(-c6c([H])c([H])c(Oc7c([H])c([H])c(F)c([H])c7F)c([H])c6[H])c(C(=O)N([H])[H])c5N([H])[H])C4([H])[H])c3F)=[N+]([H])[H])c([H])c([H])c2C1([H])[H]

$$$$
1:0:0
     RDKit          3D

 83 86  0  0  1  0  0  0  0  0999 V2000
  -28.1460  -23.2280   20.5360 C   0  0  0  0  0 15  0  0  0  0  0  0
  -28.8130  -21.4200   19.8980 C   0  0  0  0  0  2  0  0  0  0  0  0
  -28.9610  -21.4690   18.6730 O   0  0  0  0  0  0  0  0  0  0  0  0
  -29.3310  -19.5510   20.4970 C   0  0  0  0  0 15  0  0  0  0  0  0
  -30.1180  -16.1640   20.0940 C   0  0  0  0  0  0  0  0  0  0  0  0
  -30.3310  -13.5260   19.2570 C   0  0  0  0  0  2  0  0  0  0  0  0
  -29.4610  -12.8880   18.1200 C   0  0  0  0  0  2  0  0  0  0  0  0
  -28.0940  -12.4290   18.6400 C   0  0  0  0  0  2  0  0  0  0  0  0
  -27.5400  -13.4520   19.6480 C   0  0  0  0  0  3  0  0  0  0  0  0
  -28.5720  -13.9560   20.6970 C   0  0  0  0  0  2  0  0  0  0  0  0
  -29.6310  -14.7320   19.9650 N   0  0  0  0  0  0  0  0  0  0  0  0
  -31.3650  -16.0130   20.0360 O   0  0  0  0  0  0  0  0  0  0  0  0
  -29.3770  -17.6550   20.1040 N   0  0  0  0  0  2  0  0  0  0  0  0
  -28.4120  -17.4210   19.9120 H   0  0  0  0  0  0  0  0  0  0  0  0
  -25.2070  -13.9260   20.5010 C   0  0  0  0  0  0  0  0  0  0  0  0
  -24.1660  -13.1320   20.8850 C   0  0  0  0  0  0  0  0  0  0  0  0
  -24.6490  -11.7880   20.8250 C   0  0  0  0  0  0  0  0  0  0  0  0
  -26.2540  -13.0720   20.2200 N   0  0  0  0  0  0  0  0  0  0  0  0
  -25.9360  -11.7740   20.4780 N   0  0  0  0  0  0  0  0  0  0  0  0
  -23.9330  -10.5180   21.0200 C   0  0  0  0  0  0  0  0  0  0  0  0
  -24.3840   -9.5450   21.9390 C   0  0  0  0  0  3  0  0  0  0  0  0
  -23.6620   -8.3470   22.1270 C   0  0  0  0  0  3  0  0  0  0  0  0
  -22.4720   -8.1120   21.3970 C   0  0  0  0  0  0  0  0  0  0  0  0
  -22.0390   -9.0720   20.4680 C   0  0  0  0  0  3  0  0  0  0  0  0
  -22.7610  -10.2630   20.2780 C   0  0  0  0  0  3  0  0  0  0  0  0
  -21.7200   -6.9650   21.4950 O   0  0  0  0  0  0  0  0  0  0  0  0
  -21.6930   -6.2170   22.6460 C   0  0  0  0  0  0  0  0  0  0  0  0
  -21.2820   -6.7650   23.8800 C   0  0  0  0  0  3  0  0  0  0  0  0
  -21.2030   -5.9440   25.0230 C   0  0  0  0  0  3  0  0  0  0  0  0
  -21.5240   -4.5760   24.9320 C   0  0  0  0  0  0  0  0  0  0  0  0
  -21.9280   -4.0270   23.7020 C   0  0  0  0  0  3  0  0  0  0  0  0
  -22.0090   -4.8450   22.5620 C   0  0  0  0  0  0  0  0  0  0  0  0
  -22.3770   -4.3080   21.3740 F   0  0  0  0  0  0  0  0  0  0  0  0
  -21.4420   -3.7850   26.0270 F   0  0  0  0  0  0  0  0  0  0  0  0
  -22.7720  -13.5950   21.1870 C   0  0  0  0  0  0  0  0  0  0  0  0
  -22.0680  -12.8900   22.0620 N   0  0  0  0  0  0  0  0  0  0  0  0
  -22.3190  -14.6220   20.6810 O   0  0  0  0  0  0  0  0  0  0  0  0
  -22.4500  -12.0610   22.4930 H   0  0  0  0  0  0  0  0  0  0  0  0
  -21.1330  -13.1830   22.3080 H   0  0  0  0  0  0  0  0  0  0  0  0
  -25.3460  -15.3010   20.3300 N   0  0  0  0  0  0  0  0  0  0  0  0
  -24.5730  -15.9430   20.4650 H   0  0  0  0  0  0  0  0  0  0  0  0
  -26.1780  -15.7510   19.9750 H   0  0  0  0  0  0  0  0  0  0  0  0
  -28.1740  -25.1240   20.2160 O   0  0  0  0  0  1  0  0  0  0  0  0
  -24.6390  -31.8260   23.0970 C   0  0  0  0  0  0  0  0  0  0  0  0
  -27.2140  -26.4600   20.2500 C   0  0  0  0  0  0  0  0  0  0  0  0
  -23.4860  -30.3850   21.4810 C   0  0  0  0  0  3  0  0  0  0  0  0
  -24.9580  -28.6650   20.1320 C   0  0  0  0  0  0  0  0  0  0  0  0
  -26.0790  -30.4610   21.4090 C   0  0  0  0  0  2  0  0  0  0  0  0
  -26.1550  -28.9850   20.7820 C   0  0  0  0  0  0  0  0  0  0  0  0
  -27.2560  -27.9220   20.7930 C   0  0  0  0  0  3  0  0  0  0  0  0
  -25.9720  -26.4300   19.5400 C   0  0  0  0  0  3  0  0  0  0  0  0
  -24.9220  -27.4170   19.4840 C   0  0  0  0  0  3  0  0  0  0  0  0
  -23.7580  -29.6450   20.1360 C   0  0  0  0  0  2  0  0  0  0  0  0
  -24.7610  -30.9330   22.0470 N   0  0  0  0  0  0  0  0  0  0  0  0
  -23.5340  -32.1370   23.5790 O   0  0  0  0  0  0  0  0  0  0  0  0
  -22.7420  -29.4440   22.4690 C   0  0  0  0  0  0  0  0  0  0  0  0
  -21.4040  -29.3180   22.3580 N   0  0  0  0  0  0  0  0  0  0  0  0
  -23.3870  -28.8200   23.3150 O   0  0  0  0  0  0  0  0  0  0  0  0
  -20.9290  -29.8700   21.6580 H   0  0  0  0  0  0  0  0  0  0  0  0
  -18.0010  -28.1510   22.9260 C   0  0  0  0  0  0  0  0  0  0  0  0
  -20.5700  -28.3950   23.1430 C   0  0  0  0  0  3  0  0  0  0  0  0
  -20.6430  -26.9590   22.5710 C   0  0  0  0  0  2  0  0  0  0  0  0
  -19.5230  -26.6500   21.5730 C   0  0  0  0  0  2  0  0  0  0  0  0
  -18.1530  -26.8040   22.2380 C   0  0  0  0  0  2  0  0  0  0  0  0
  -19.1340  -28.9050   23.3350 C   0  0  0  0  0  0  0  0  0  0  0  0
  -18.9310  -30.1610   23.9470 C   0  0  0  0  0  3  0  0  0  0  0  0
  -17.6320  -30.6640   24.1480 C   0  0  0  0  0  3  0  0  0  0  0  0
  -16.5160  -29.9100   23.7490 C   0  0  0  0  0  3  0  0  0  0  0  0
  -16.7010  -28.6530   23.1440 C   0  0  0  0  0  3  0  0  0  0  0  0
  -25.8780  -32.5130   23.7490 C   0  0  0  0  0  3  0  0  0  0  0  0
  -25.5240  -33.9110   24.0790 N   0  0  0  0  0  0  0  0  0  0  0  0
  -25.8480  -34.9890   23.3510 C   0  0  0  0  0  0  0  0  0  0  0  0
  -26.5260  -34.9130   22.3240 O   0  0  0  0  0  0  0  0  0  0  0  0
  -24.9170  -34.0420   24.8740 H   0  0  0  0  0  0  0  0  0  0  0  0
  -24.0990  -36.7810   23.0330 C   0  0  0  0  0  1  0  0  0  0  0  0
  -25.3470  -36.3700   23.8320 C   0  0  0  0  0  3  0  0  0  0  0  0
  -27.4700  -37.2800   24.6720 C   0  0  0  0  0  1  0  0  0  0  0  0
  -26.3660  -37.4400   23.7310 N   0  0  0  0  0  0  0  0  0  0  0  0
  -25.9470  -38.3530   23.8870 H   0  0  0  0  0  0  0  0  0  0  0  0
  -26.3730  -31.7770   25.0570 C   0  0  1  0  0  0  0  0  0  0  0  0
  -25.2590  -31.5490   26.1070 C   0  0  0  0  0  1  0  0  0  0  0  0
  -26.9820  -30.3970   24.7250 C   0  0  0  0  0  1  0  0  0  0  0  0
  -27.4990  -32.5990   25.7270 C   0  0  0  0  0  1  0  0  0  0  0  0
  3  2  2  0
  5 13  1  0
  6 11  1  0
  7  8  1  0
  7  6  1  0
  9  8  1  0
  9 18  1  0
  9 10  1  0
 11  5  1  0
 11 10  1  0
 12  5  2  0
 14 13  1  0
 15 16  2  0
 16 35  1  0
 17 16  1  0
 17 20  1  0
 18 19  1  0
 18 15  1  0
 19 17  2  0
 20 21  1  0
 21 22  2  0
 23 26  1  0
 23 22  1  0
 24 23  2  0
 25 24  1  0
 25 20  2  0
 26 27  1  0
 27 28  1  0
 28 29  2  0
 30 29  1  0
 30 34  1  0
 31 30  2  0
 32 27  2  0
 32 31  1  0
 33 32  1  0
 35 36  1  0
 36 39  1  0
 36 38  1  0
 37 35  2  0
 40 41  1  0
 40 15  1  0
 42 40  1  0
 43 45  1  0
 44 55  2  0
 45 50  1  0
 46 54  1  0
 46 56  1  0
 47 53  1  0
 47 49  1  0
 48 54  1  0
 49 50  2  0
 49 48  1  0
 51 45  2  0
 52 51  1  0
 52 47  2  0
 53 46  1  0
 54 44  1  0
 56 58  2  0
 57 56  1  0
 59 57  1  0
 60 69  2  0
 60 65  1  0
 61 57  1  0
 61 65  1  0
 62 61  1  0
 63 64  1  0
 63 62  1  0
 64 60  1  0
 65 66  2  0
 66 67  1  0
 68 67  2  0
 69 68  1  0
 70 44  1  0
 70 71  1  0
 70 80  1  0
 71 74  1  0
 72 76  1  0
 72 71  1  0
 73 72  2  0
 76 75  1  0
 78 76  1  0
 78 79  1  0
 78 77  1  0
 80 83  1  1
 80 81  1  0
 82 80  1  0
M  ISO  4   1 101   5 100  13 100  43 101
M  END
>  <TORSDO>  (2) 
F 18

>  <SCORE>  (2) 
-16.206

>  <name>  (2) 
1

>  <ligand_id>  (2) 
1

>  <original_smiles>  (2) 
[H]c1c([H])c([H])c2c(c1[H])C([H])([H])C([H])([H])C([H])([H])C2([H])N([H])C(=O)C1([H])N(C(=O)C([H])(N([H])C(=O)C([H])(N([H])C([H])([H])[H])C([H])([H])[H])C(C([H])([H])[H])(C([H])([H])[H])C([H])([H])[H])C([H])([H])c2c([H])c(OC([H])([H])C(=O)C([H])([H])N([H])C(=O)N3C([H])([H])C([H])([H])C([H])([H])C([H])(n4nc(-c5c([H])c([H])c(Oc6c([H])c([H])c(F)c([H])c6F)c([H])c5[H])c(C(=O)N([H])[H])c4N([H])[H])C3([H])[H])c([H])c([H])c2C1([H])[H]

>  <smiles>  (2) 
[H]c1c([H])c([H])c2c(c1[H])C([H])([H])C([H])([H])C([H])([H])C2([H])N([H])C(=O)C1([H])N(C(=O)C([H])(N([H])C(=O)C([H])(N([H])C([H])([H])[H])C([H])([H])[H])C(C([H])([H])[H])(C([H])([H])[H])C([H])([H])[H])C([H])([H])c2c([H])c(OC([H])([H])C(=O)C([H])([H])N([H])C(=O)N3C([H])([H])C([H])([H])C([H])([H])C([H])(n4nc(-c5c([H])c([H])c(Oc6c([H])c([H])c(F)c([H])c6F)c([H])c5[H])c(C(=O)N([H])[H])c4N([H])[H])C3([H])[H])c([H])c([H])c2C1([H])[H]

$$$$
2:0:0
     RDKit          3D

 94102  0  0  1  0  0  0  0  0999 V2000
  -29.6200  -21.8120   20.4770 C   0  0  0  0  0  2  0  0  0  0  0  0
  -29.1230  -23.0370   21.2670 C   0  0  0  0  0  0  0  0  0  0  0  0
  -28.5880  -22.9090   22.3770 O   0  0  0  0  0  0  0  0  0  0  0  0
  -29.3400  -24.4380   20.6240 C   0  0  0  0  0  0  0  0  0  0  0  0
  -30.4770  -24.8650   20.3820 O   0  0  0  0  0  0  0  0  0  0  0  0
  -28.0820  -25.2500   20.2940 C   0  0  0  0  0  2  0  0  0  0  0  0
  -28.3410  -26.6580   20.1110 O   0  0  0  0  0  0  0  0  0  0  0  0
  -24.6220  -31.8710   23.2120 C   0  0  0  0  0  0  0  0  0  0  0  0
  -27.1940  -27.4280   20.0800 C   0  0  0  0  0  0  0  0  0  0  0  0
  -23.3870  -30.4840   21.5830 C   0  0  0  0  0  3  0  0  0  0  0  0
  -24.8110  -28.9560   20.1240 C   0  0  0  0  0  0  0  0  0  0  0  0
  -25.9110  -30.8370   21.3440 C   0  0  0  0  0  2  0  0  0  0  0  0
  -25.9820  -29.4690   20.6970 C   0  0  0  0  0  0  0  0  0  0  0  0
  -27.1800  -28.7130   20.6690 C   0  0  0  0  0  3  0  0  0  0  0  0
  -26.0060  -26.9420   19.4860 C   0  0  0  0  0  3  0  0  0  0  0  0
  -24.8190  -27.6930   19.5140 C   0  0  0  0  0  3  0  0  0  0  0  0
  -23.5730  -29.8200   20.1940 C   0  0  0  0  0  2  0  0  0  0  0  0
  -24.6600  -31.0770   22.1050 N   0  0  0  0  0  0  0  0  0  0  0  0
  -23.5500  -32.1410   23.7710 O   0  0  0  0  0  0  0  0  0  0  0  0
  -22.7480  -29.4550   22.5440 C   0  0  0  0  0  0  0  0  0  0  0  0
  -21.4210  -29.2750   22.4360 N   0  0  0  0  0  0  0  0  0  0  0  0
  -23.4440  -28.8210   23.3430 O   0  0  0  0  0  0  0  0  0  0  0  0
  -20.9170  -29.8440   21.7680 H   0  0  0  0  0  0  0  0  0  0  0  0
  -18.0550  -28.0730   22.9630 C   0  0  0  0  0  0  0  0  0  0  0  0
  -20.6140  -28.3340   23.2130 C   0  0  0  0  0  3  0  0  0  0  0  0
  -20.7130  -26.9020   22.6360 C   0  0  0  0  0  2  0  0  0  0  0  0
  -19.6030  -26.5780   21.6310 C   0  0  0  0  0  2  0  0  0  0  0  0
  -18.2270  -26.7220   22.2870 C   0  0  0  0  0  2  0  0  0  0  0  0
  -19.1760  -28.8350   23.3850 C   0  0  0  0  0  0  0  0  0  0  0  0
  -18.9610  -30.1000   23.9750 C   0  0  0  0  0  3  0  0  0  0  0  0
  -17.6590  -30.6010   24.1480 C   0  0  0  0  0  3  0  0  0  0  0  0
  -16.5520  -29.8350   23.7430 C   0  0  0  0  0  3  0  0  0  0  0  0
  -16.7500  -28.5730   23.1560 C   0  0  0  0  0  3  0  0  0  0  0  0
  -25.9190  -32.4950   23.8150 C   0  0  0  0  0  3  0  0  0  0  0  0
  -25.6150  -33.8890   24.1650 N   0  0  0  0  0  0  0  0  0  0  0  0
  -25.9360  -34.9480   23.4110 C   0  0  0  0  0  0  0  0  0  0  0  0
  -26.5900  -34.8540   22.3690 O   0  0  0  0  0  0  0  0  0  0  0  0
  -25.0340  -34.0350   24.9780 H   0  0  0  0  0  0  0  0  0  0  0  0
  -24.2060  -36.7450   23.0940 C   0  0  0  0  0  1  0  0  0  0  0  0
  -25.4550  -36.3320   23.8880 C   0  0  0  0  0  3  0  0  0  0  0  0
  -27.6040  -37.2040   24.6980 C   0  0  0  0  0  1  0  0  0  0  0  0
  -26.4880  -37.3860   23.7720 N   0  0  0  0  0  0  0  0  0  0  0  0
  -26.0840  -38.3040   23.9370 H   0  0  0  0  0  0  0  0  0  0  0  0
  -26.4620  -31.7080   25.0700 C   0  0  1  0  0  0  0  0  0  0  0  0
  -25.3950  -31.4610   26.1620 C   0  0  0  0  0  1  0  0  0  0  0  0
  -27.0330  -30.3360   24.6460 C   0  0  0  0  0  1  0  0  0  0  0  0
  -27.6290  -32.4920   25.7150 C   0  0  0  0  0  1  0  0  0  0  0  0
  -29.5740  -20.5140   21.1840 N   0  0  0  0  0  0  0  0  0  0  0  0
  -29.3890  -20.5310   22.1870 H   0  0  0  0  0  0  0  0  0  0  0  0
  -30.0840  -19.3380   19.0980 C   0  0  0  0  0  3  0  0  0  0  0  0
  -30.2760  -18.1490   18.3810 C   0  0  0  0  0  3  0  0  0  0  0  0
  -29.8220  -18.0530   21.1540 C   0  0  0  0  0  3  0  0  0  0  0  0
  -29.8300  -19.3120   20.4890 C   0  0  0  0  0  0  0  0  0  0  0  0
  -30.0400  -16.8380   20.4390 C   0  0  0  0  0  0  0  0  0  0  0  0
  -30.2300  -16.9090   19.0340 C   0  0  0  0  0  0  0  0  0  0  0  0
  -30.3210  -15.7910   18.2760 F   0  0  0  0  0  0  0  0  0  0  0  0
  -30.7270  -14.4910   20.7260 C   0  0  0  0  0  0  0  0  0  0  0  0
  -30.4890  -12.2940   19.6470 C   0  0  0  0  0  2  0  0  0  0  0  0
  -29.6120  -12.4520   18.3850 C   0  0  0  0  0  2  0  0  0  0  0  0
  -28.1150  -12.3460   18.7320 C   0  0  0  0  0  2  0  0  0  0  0  0
  -27.7110  -13.2220   19.9480 C   0  0  0  0  0  3  0  0  0  0  0  0
  -28.7040  -13.0350   21.1170 C   0  0  0  0  0  2  0  0  0  0  0  0
  -30.0630  -13.3080   20.6230 N   0  0  0  0  0  0  0  0  0  0  0  0
  -31.8990  -14.6340   20.3580 O   0  0  0  0  0  0  0  0  0  0  0  0
  -29.9880  -15.5580   21.0940 N   0  0  0  0  0  0  0  0  0  0  0  0
  -29.1430  -15.3600   21.6070 H   0  0  0  0  0  0  0  0  0  0  0  0
  -25.2800  -13.8460   20.5300 C   0  0  0  0  0  0  0  0  0  0  0  0
  -24.1930  -13.0830   20.8620 C   0  0  0  0  0  0  0  0  0  0  0  0
  -24.6510  -11.7300   20.8850 C   0  0  0  0  0  0  0  0  0  0  0  0
  -26.3320  -12.9580   20.3650 N   0  0  0  0  0  0  0  0  0  0  0  0
  -25.9550  -11.6830   20.6370 N   0  0  0  0  0  0  0  0  0  0  0  0
  -23.9150  -10.4730   21.0690 C   0  0  0  0  0  0  0  0  0  0  0  0
  -24.3180   -9.5130   22.0240 C   0  0  0  0  0  3  0  0  0  0  0  0
  -23.5820   -8.3210   22.1960 C   0  0  0  0  0  3  0  0  0  0  0  0
  -22.4290   -8.0780   21.4120 C   0  0  0  0  0  0  0  0  0  0  0  0
  -22.0460   -9.0280   20.4470 C   0  0  0  0  0  3  0  0  0  0  0  0
  -22.7830  -10.2100   20.2750 C   0  0  0  0  0  3  0  0  0  0  0  0
  -21.6700   -6.9350   21.4880 O   0  0  0  0  0  0  0  0  0  0  0  0
  -21.6010   -6.1930   22.6410 C   0  0  0  0  0  0  0  0  0  0  0  0
  -21.1760   -6.7520   23.8640 C   0  0  0  0  0  3  0  0  0  0  0  0
  -21.0600   -5.9370   25.0080 C   0  0  0  0  0  3  0  0  0  0  0  0
  -21.3550   -4.5640   24.9280 C   0  0  0  0  0  0  0  0  0  0  0  0
  -21.7720   -4.0040   23.7090 C   0  0  0  0  0  3  0  0  0  0  0  0
  -21.8930   -4.8160   22.5670 C   0  0  0  0  0  0  0  0  0  0  0  0
  -22.2780   -4.2690   21.3910 F   0  0  0  0  0  0  0  0  0  0  0  0
  -21.2310   -3.7790   26.0240 F   0  0  0  0  0  0  0  0  0  0  0  0
  -22.7840  -13.5680   21.0550 C   0  0  0  0  0  0  0  0  0  0  0  0
  -22.0110  -12.8970   21.9010 N   0  0  0  0  0  0  0  0  0  0  0  0
  -22.3770  -14.5800   20.4900 O   0  0  0  0  0  0  0  0  0  0  0  0
  -22.3500  -12.0820   22.3900 H   0  0  0  0  0  0  0  0  0  0  0  0
  -21.0640  -13.2110   22.0660 H   0  0  0  0  0  0  0  0  0  0  0  0
  -25.4570  -15.2120   20.3370 N   0  0  0  0  0  0  0  0  0  0  0  0
  -24.6880  -15.8700   20.4110 H   0  0  0  0  0  0  0  0  0  0  0  0
  -26.3270  -15.6460   20.0600 H   0  0  0  0  0  0  0  0  0  0  0  0
  1 48  1  0
  1  2  1  0
  2  3  2  0
  4  2  1  0
  5  4  2  0
  6  4  1  0
  7  6  1  0
  8 19  2  0
  9  7  1  0
  9 14  1  0
 10 18  1  0
 10 20  1  0
 11 17  1  0
 11 13  1  0
 12 18  1  0
 13 12  1  0
 14 13  2  0
 15 16  1  0
 15  9  2  0
 16 11  2  0
 17 10  1  0
 18  8  1  0
 20 22  2  0
 21 20  1  0
 23 21  1  0
 24 33  2  0
 24 29  1  0
 25 21  1  0
 25 29  1  0
 26 25  1  0
 27 28  1  0
 27 26  1  0
 28 24  1  0
 29 30  2  0
 30 31  1  0
 32 31  2  0
 33 32  1  0
 34  8  1  0
 34 35  1  0
 34 44  1  0
 35 38  1  0
 36 40  1  0
 36 35  1  0
 37 36  2  0
 40 39  1  0
 42 40  1  0
 42 43  1  0
 42 41  1  0
 44 47  1  1
 44 45  1  0
 46 44  1  0
 48 49  1  0
 50 53  1  0
 51 55  1  0
 51 50  2  0
 53 52  2  0
 53 48  1  0
 54 65  1  0
 54 52  1  0
 55 54  2  0
 56 55  1  0
 57 65  1  0
 58 63  1  0
 59 60  1  0
 59 58  1  0
 61 60  1  0
 61 70  1  0
 61 62  1  0
 63 57  1  0
 63 62  1  0
 64 57  2  0
 65 66  1  0
 67 68  2  0
 68 69  1  0
 68 87  1  0
 69 72  1  0
 70 67  1  0
 70 71  1  0
 71 69  2  0
 72 73  1  0
 73 74  2  0
 75 78  1  0
 75 74  1  0
 76 75  2  0
 77 76  1  0
 77 72  2  0
 78 79  1  0
 79 80  1  0
 80 81  2  0
 82 81  1  0
 82 86  1  0
 83 82  2  0
 84 79  2  0
 84 83  1  0
 85 84  1  0
 87 88  1  0
 88 91  1  0
 88 90  1  0
 89 87  2  0
 92 93  1  0
 92 67  1  0
 94 92  1  0
M  ISO  4   6 101   7 101  57 100  65 100
M  END
>  <TORSDO>  (3) 
F 21

>  <SCORE>  (3) 
-13.360

>  <name>  (3) 
2

>  <ligand_id>  (3) 
2

>  <original_smiles>  (3) 
[H]c1c([H])c([H])c2c(c1[H])C([H])([H])C([H])([H])C([H])([H])C2([H])N([H])C(=O)C1([H])N(C(=O)C([H])(N([H])C(=O)C([H])(N([H])C([H])([H])[H])C([H])([H])[H])C(C([H])([H])[H])(C([H])([H])[H])C([H])([H])[H])C([H])([H])c2c([H])c(OC([H])([H])C(=O)C(=O)C([H])([H])N([H])c3c([H])c([H])c(F)c(N([H])C(=O)N4C([H])([H])C([H])([H])C([H])([H])C([H])(n5nc(-c6c([H])c([H])c(Oc7c([H])c([H])c(F)c([H])c7F)c([H])c6[H])c(C(=O)N([H])[H])c5N([H])[H])C4([H])[H])c3[H])c([H])c([H])c2C1([H])[H]

>  <smiles>  (3) 
[H]c1c([H])c([H])c2c(c1[H])C([H])([H])C([H])([H])C([H])([H])C2([H])N([H])C(=O)C1([H])N(C(=O)C([H])(N([H])C(=O)C([H])(N([H])C([H])([H])[H])C([H])([H])[H])C(C([H])([H])[H])(C([H])([H])[H])C([H])([H])[H])C([H])([H])c2c([H])c(OC([H])([H])C(=O)C(=O)C([H])([H])N([H])c3c([H])c([H])c(F)c(N([H])C(=O)N4C([H])([H])C([H])([H])C([H])([H])C([H])(n5nc(-c6c([H])c([H])c(Oc7c([H])c([H])c(F)c([H])c7F)c([H])c6[H])c(C(=O)N([H])[H])c5N([H])[H])C4([H])[H])c3[H])c([H])c([H])c2C1([H])[H]

$$$$
3:0:0
     RDKit          3D

 96104  0  0  1  0  0  0  0  0999 V2000
  -28.9140  -23.5110   20.5130 C   0  0  0  0  0  0  0  0  0  0  0  0
  -28.6490  -22.2360   20.9250 N   0  0  0  0  0  0  0  0  0  0  0  0
  -29.4780  -23.7670   19.4480 O   0  0  0  0  0  0  0  0  0  0  0  0
  -28.0660  -22.2290   21.7530 H   0  0  0  0  0  0  0  0  0  0  0  0
  -30.4720  -20.5960   20.5990 C   0  0  0  0  0  3  0  0  0  0  0  0
  -30.6940  -19.2050   20.2950 C   0  0  0  0  0  0  0  0  0  0  0  0
  -29.5420  -18.5160   19.9660 C   0  0  0  0  0  0  0  0  0  0  0  0
  -29.1620  -21.0150   20.5500 C   0  0  0  0  0  0  0  0  0  0  0  0
  -28.1630  -19.6110   20.1640 S   0  0  0  0  0  0  0  0  0  0  0  0
  -32.3020  -17.7270   21.5500 C   0  0  0  0  0  1  0  0  0  0  0  0
  -32.0700  -18.5980   20.3100 C   0  0  0  0  0  2  0  0  0  0  0  0
  -28.2180  -17.0190   18.3820 C   0  0  0  0  0  1  0  0  0  0  0  0
  -29.4310  -17.1100   19.3250 C   0  0  0  0  0  3  0  0  0  0  0  0
  -30.2820  -14.8060   19.9230 C   0  0  0  0  0  0  0  0  0  0  0  0
  -30.0550  -12.5740   18.8960 C   0  0  0  0  0  2  0  0  0  0  0  0
  -29.0160  -12.6860   17.7590 C   0  0  0  0  0  2  0  0  0  0  0  0
  -27.5930  -12.4580   18.3030 C   0  0  0  0  0  2  0  0  0  0  0  0
  -27.2980  -13.2920   19.5810 C   0  0  0  0  0  3  0  0  0  0  0  0
  -28.4520  -13.1940   20.6060 C   0  0  0  0  0  2  0  0  0  0  0  0
  -29.6960  -13.5710   19.9230 N   0  0  0  0  0  0  0  0  0  0  0  0
  -31.4070  -14.9820   19.4490 O   0  0  0  0  0  0  0  0  0  0  0  0
  -29.4640  -15.8730   20.1720 N   0  0  0  0  0  0  0  0  0  0  0  0
  -28.6020  -15.6490   20.6440 H   0  0  0  0  0  0  0  0  0  0  0  0
  -24.9590  -13.7590   20.5370 C   0  0  0  0  0  0  0  0  0  0  0  0
  -23.9600  -12.9270   20.9650 C   0  0  0  0  0  0  0  0  0  0  0  0
  -24.4680  -11.5980   20.8310 C   0  0  0  0  0  0  0  0  0  0  0  0
  -26.0110  -12.9340   20.1710 N   0  0  0  0  0  0  0  0  0  0  0  0
  -25.7260  -11.6270   20.4070 N   0  0  0  0  0  0  0  0  0  0  0  0
  -23.8100  -10.3000   21.0260 C   0  0  0  0  0  0  0  0  0  0  0  0
  -24.3120   -9.3490   21.9420 C   0  0  0  0  0  3  0  0  0  0  0  0
  -23.6500   -8.1150   22.1270 C   0  0  0  0  0  3  0  0  0  0  0  0
  -22.4740   -7.8240   21.3960 C   0  0  0  0  0  0  0  0  0  0  0  0
  -21.9920   -8.7650   20.4690 C   0  0  0  0  0  3  0  0  0  0  0  0
  -22.6550   -9.9900   20.2830 C   0  0  0  0  0  3  0  0  0  0  0  0
  -21.7800   -6.6430   21.4920 O   0  0  0  0  0  0  0  0  0  0  0  0
  -21.7510   -5.9160   22.6560 C   0  0  0  0  0  0  0  0  0  0  0  0
  -21.2350   -6.4540   23.8560 C   0  0  0  0  0  3  0  0  0  0  0  0
  -21.1600   -5.6500   25.0110 C   0  0  0  0  0  3  0  0  0  0  0  0
  -21.5890   -4.3100   24.9670 C   0  0  0  0  0  0  0  0  0  0  0  0
  -22.0960   -3.7720   23.7710 C   0  0  0  0  0  3  0  0  0  0  0  0
  -22.1730   -4.5720   22.6180 C   0  0  0  0  0  0  0  0  0  0  0  0
  -22.6430   -4.0420   21.4640 F   0  0  0  0  0  0  0  0  0  0  0  0
  -21.5080   -3.5360   26.0740 F   0  0  0  0  0  0  0  0  0  0  0  0
  -22.5770  -13.3340   21.3830 C   0  0  0  0  0  0  0  0  0  0  0  0
  -21.9570  -12.5690   22.2760 N   0  0  0  0  0  0  0  0  0  0  0  0
  -22.0560  -14.3620   20.9550 O   0  0  0  0  0  0  0  0  0  0  0  0
  -22.3940  -11.7360   22.6440 H   0  0  0  0  0  0  0  0  0  0  0  0
  -21.0340  -12.8210   22.5970 H   0  0  0  0  0  0  0  0  0  0  0  0
  -25.0550  -15.1410   20.4090 N   0  0  0  0  0  0  0  0  0  0  0  0
  -24.2750  -15.7560   20.6140 H   0  0  0  0  0  0  0  0  0  0  0  0
  -25.8480  -15.6290   20.0140 H   0  0  0  0  0  0  0  0  0  0  0  0
  -28.2610  -25.8660   21.3560 C   0  0  0  0  0  3  0  0  0  0  0  0
  -28.4320  -24.5110   21.5010 C   0  0  0  0  0  0  0  0  0  0  0  0
  -28.1200  -24.0290   22.7200 O   0  0  0  0  0  0  0  0  0  0  0  0
  -27.8480  -24.7590   23.2600 H   0  0  0  0  0  0  0  0  0  0  0  0
  -28.4060  -26.7440   20.2860 O   0  0  0  0  0  0  0  0  0  0  0  0
  -24.6290  -32.0330   23.2960 C   0  0  0  0  0  0  0  0  0  0  0  0
  -27.3290  -27.6150   20.1790 C   0  0  0  0  0  0  0  0  0  0  0  0
  -23.4460  -30.6320   21.6380 C   0  0  0  0  0  3  0  0  0  0  0  0
  -24.9280  -29.1340   20.1850 C   0  0  0  0  0  0  0  0  0  0  0  0
  -25.9720  -31.0160   21.4520 C   0  0  0  0  0  2  0  0  0  0  0  0
  -26.0810  -29.6530   20.7890 C   0  0  0  0  0  0  0  0  0  0  0  0
  -27.2880  -28.9020   20.7830 C   0  0  0  0  0  3  0  0  0  0  0  0
  -26.1630  -27.1330   19.5520 C   0  0  0  0  0  3  0  0  0  0  0  0
  -24.9680  -27.8780   19.5570 C   0  0  0  0  0  3  0  0  0  0  0  0
  -23.6690  -29.9750   20.2480 C   0  0  0  0  0  2  0  0  0  0  0  0
  -24.7000  -31.2420   22.1870 N   0  0  0  0  0  0  0  0  0  0  0  0
  -23.5420  -32.2850   23.8370 O   0  0  0  0  0  0  0  0  0  0  0  0
  -22.8060  -29.5920   22.5870 C   0  0  0  0  0  0  0  0  0  0  0  0
  -21.4940  -29.3520   22.4210 N   0  0  0  0  0  0  0  0  0  0  0  0
  -23.4880  -29.0050   23.4310 O   0  0  0  0  0  0  0  0  0  0  0  0
  -21.0020  -29.8800   21.7140 H   0  0  0  0  0  0  0  0  0  0  0  0
  -18.1780  -27.9560   22.7730 C   0  0  0  0  0  0  0  0  0  0  0  0
  -20.6940  -28.3860   23.1750 C   0  0  0  0  0  3  0  0  0  0  0  0
  -20.9180  -26.9480   22.6510 C   0  0  0  0  0  2  0  0  0  0  0  0
  -19.8990  -26.5280   21.5880 C   0  0  0  0  0  2  0  0  0  0  0  0
  -18.4760  -26.6030   22.1500 C   0  0  0  0  0  2  0  0  0  0  0  0
  -19.2200  -28.8000   23.2400 C   0  0  0  0  0  0  0  0  0  0  0  0
  -18.8890  -30.0630   23.7780 C   0  0  0  0  0  3  0  0  0  0  0  0
  -17.5480  -30.4830   23.8560 C   0  0  0  0  0  3  0  0  0  0  0  0
  -16.5200  -29.6370   23.4080 C   0  0  0  0  0  3  0  0  0  0  0  0
  -16.8350  -28.3750   22.8720 C   0  0  0  0  0  3  0  0  0  0  0  0
  -25.9040  -32.6780   23.9230 C   0  0  0  0  0  3  0  0  0  0  0  0
  -25.5850  -34.0780   24.2350 N   0  0  0  0  0  0  0  0  0  0  0  0
  -25.9120  -35.1230   23.4610 C   0  0  0  0  0  0  0  0  0  0  0  0
  -26.5830  -35.0090   22.4320 O   0  0  0  0  0  0  0  0  0  0  0  0
  -24.9930  -34.2400   25.0350 H   0  0  0  0  0  0  0  0  0  0  0  0
  -24.1730  -36.8980   23.0770 C   0  0  0  0  0  1  0  0  0  0  0  0
  -25.4140  -36.5150   23.8980 C   0  0  0  0  0  3  0  0  0  0  0  0
  -27.5380  -37.4280   24.7260 C   0  0  0  0  0  1  0  0  0  0  0  0
  -26.4410  -37.5730   23.7720 N   0  0  0  0  0  0  0  0  0  0  0  0
  -26.0280  -38.4930   23.9010 H   0  0  0  0  0  0  0  0  0  0  0  0
  -26.4120  -31.9240   25.2130 C   0  0  1  0  0  0  0  0  0  0  0  0
  -25.3100  -31.6890   26.2710 C   0  0  0  0  0  1  0  0  0  0  0  0
  -27.0090  -30.5460   24.8410 C   0  0  0  0  0  1  0  0  0  0  0  0
  -27.5490  -32.7320   25.8800 C   0  0  0  0  0  1  0  0  0  0  0  0
  1  2  1  0
  1 53  1  0
  2  4  1  0
  3  1  2  0
  6 11  1  0
  6  5  1  0
  7  9  1  0
  7  6  2  0
  8  5  2  0
  8  2  1  0
  9  8  1  0
 11 10  1  0
 13 12  1  0
 13  7  1  0
 13 22  1  0
 14 22  1  0
 15 20  1  0
 16 17  1  0
 16 15  1  0
 18 17  1  0
 18 27  1  0
 18 19  1  0
 20 14  1  0
 20 19  1  0
 21 14  2  0
 22 23  1  0
 24 25  2  0
 25 44  1  0
 26 25  1  0
 26 29  1  0
 27 28  1  0
 27 24  1  0
 28 26  2  0
 29 30  1  0
 30 31  2  0
 32 35  1  0
 32 31  1  0
 33 32  2  0
 34 33  1  0
 34 29  2  0
 35 36  1  0
 36 37  1  0
 37 38  2  0
 39 38  1  0
 39 43  1  0
 40 39  2  0
 41 36  2  0
 41 40  1  0
 42 41  1  0
 44 45  1  0
 45 48  1  0
 45 47  1  0
 46 44  2  0
 49 24  1  0
 49 50  1  0
 51 49  1  0
 52 53  2  0
 53 54  1  0
 54 55  1  0
 56 52  1  0
 57 68  2  0
 58 56  1  0
 58 63  1  0
 59 67  1  0
 59 69  1  0
 60 66  1  0
 60 62  1  0
 61 67  1  0
 62 61  1  0
 63 62  2  0
 64 65  1  0
 64 58  2  0
 65 60  2  0
 66 59  1  0
 67 57  1  0
 69 71  2  0
 70 69  1  0
 72 70  1  0
 73 82  2  0
 73 78  1  0
 74 70  1  0
 74 78  1  0
 75 74  1  0
 76 77  1  0
 76 75  1  0
 77 73  1  0
 78 79  2  0
 79 80  1  0
 81 80  2  0
 82 81  1  0
 83 57  1  0
 83 84  1  0
 83 93  1  0
 84 87  1  0
 85 89  1  0
 85 84  1  0
 86 85  2  0
 89 88  1  0
 91 89  1  0
 91 92  1  0
 91 90  1  0
 93 96  1  1
 93 94  1  0
 95 93  1  0
M  ISO  4  14 100  22 100  52 101  56 101
M  END
>  <TORSDO>  (4) 
F 21

>  <SCORE>  (4) 
-12.946

>  <name>  (4) 
3

>  <ligand_id>  (4) 
3

>  <original_smiles>  (4) 
[H]OC(C(=O)N([H])c1sc(C([H])(N([H])C(=O)N2C([H])([H])C([H])([H])C([H])([H])C([H])(n3nc(-c4c([H])c([H])c(Oc5c([H])c([H])c(F)c([H])c5F)c([H])c4[H])c(C(=O)N([H])[H])c3N([H])[H])C2([H])[H])C([H])([H])[H])c(C([H])([H])C([H])([H])[H])c1[H])=C([H])Oc1c([H])c([H])c2c(c1[H])C([H])([H])N(C(=O)C([H])(N([H])C(=O)C([H])(N([H])C([H])([H])[H])C([H])([H])[H])C(C([H])([H])[H])(C([H])([H])[H])C([H])([H])[H])C([H])(C(=O)N([H])C1([H])c3c([H])c([H])c([H])c([H])c3C([H])([H])C([H])([H])C1([H])[H])C2([H])[H]

>  <smiles>  (4) 
[H]OC(C(=O)N([H])c1sc(C([H])(N([H])C(=O)N2C([H])([H])C([H])([H])C([H])([H])C([H])(n3nc(-c4c([H])c([H])c(Oc5c([H])c([H])c(F)c([H])c5F)c([H])c4[H])c(C(=O)N([H])[H])c3N([H])[H])C2([H])[H])C([H])([H])[H])c(C([H])([H])C([H])([H])[H])c1[H])=C([H])Oc1c([H])c([H])c2c(c1[H])C([H])([H])N(C(=O)C([H])(N([H])C(=O)C([H])(N([H])C([H])([H])[H])C([H])([H])[H])C(C([H])([H])[H])(C([H])([H])[H])C([H])([H])[H])C([H])(C(=O)N([H])C1([H])c3c([H])c([H])c([H])c([H])c3C([H])([H])C([H])([H])C1([H])[H])C2([H])[H]

$$$$
4:0:0
     RDKit          3D

 99107  0  0  1  0  0  0  0  0999 V2000
  -30.2920  -20.9230   21.3400 C   0  0  0  0  0  0  0  0  0  0  0  0
  -29.1600  -20.3930   20.8600 N   0  0  0  0  0  0  0  0  0  0  0  0
  -31.1340  -20.2840   21.9750 O   0  0  0  0  0  0  0  0  0  0  0  0
  -28.5300  -21.0820   20.4740 H   0  0  0  0  0  0  0  0  0  0  0  0
  -28.3370  -17.7580   18.3510 C   0  0  0  0  0  3  0  0  0  0  0  0
  -28.8830  -16.6100   18.9500 C   0  0  0  0  0  3  0  0  0  0  0  0
  -29.5220  -17.9300   20.8970 C   0  0  0  0  0  3  0  0  0  0  0  0
  -28.3720  -19.0050   19.0090 C   0  0  0  0  0  0  0  0  0  0  0  0
  -29.4490  -16.6790   20.2460 C   0  0  0  0  0  0  0  0  0  0  0  0
  -29.0270  -19.1020   20.2680 C   0  0  0  0  0  0  0  0  0  0  0  0
  -30.5640  -14.5150   20.4100 C   0  0  0  0  0  0  0  0  0  0  0  0
  -30.2740  -12.3710   19.2530 C   0  0  0  0  0  2  0  0  0  0  0  0
  -29.3120  -12.6130   18.0710 C   0  0  0  0  0  2  0  0  0  0  0  0
  -27.8450  -12.4680   18.5210 C   0  0  0  0  0  2  0  0  0  0  0  0
  -27.5250  -13.2580   19.8180 C   0  0  0  0  0  3  0  0  0  0  0  0
  -28.6050  -13.0140   20.9000 C   0  0  0  0  0  2  0  0  0  0  0  0
  -29.9240  -13.3210   20.3180 N   0  0  0  0  0  0  0  0  0  0  0  0
  -31.6680  -14.7430   19.9100 O   0  0  0  0  0  0  0  0  0  0  0  0
  -29.8310  -15.5010   20.9460 N   0  0  0  0  0  0  0  0  0  0  0  0
  -29.1150  -15.1550   21.5660 H   0  0  0  0  0  0  0  0  0  0  0  0
  -25.1320  -13.8300   20.5710 C   0  0  0  0  0  0  0  0  0  0  0  0
  -24.0790  -13.0360   20.9420 C   0  0  0  0  0  0  0  0  0  0  0  0
  -24.5620  -11.6930   20.8920 C   0  0  0  0  0  0  0  0  0  0  0  0
  -26.1860  -12.9640   20.3150 N   0  0  0  0  0  0  0  0  0  0  0  0
  -25.8460  -11.6760   20.5640 N   0  0  0  0  0  0  0  0  0  0  0  0
  -23.8630  -10.4160   21.0840 C   0  0  0  0  0  0  0  0  0  0  0  0
  -24.3260   -9.4450   22.0010 C   0  0  0  0  0  3  0  0  0  0  0  0
  -23.6250   -8.2330   22.1740 C   0  0  0  0  0  3  0  0  0  0  0  0
  -22.4470   -7.9810   21.4290 C   0  0  0  0  0  0  0  0  0  0  0  0
  -22.0060   -8.9400   20.5010 C   0  0  0  0  0  3  0  0  0  0  0  0
  -22.7070  -10.1420   20.3260 C   0  0  0  0  0  3  0  0  0  0  0  0
  -21.7190   -6.8200   21.5120 O   0  0  0  0  0  0  0  0  0  0  0  0
  -21.6940   -6.0620   22.6550 C   0  0  0  0  0  0  0  0  0  0  0  0
  -21.2580   -6.5910   23.8890 C   0  0  0  0  0  3  0  0  0  0  0  0
  -21.1880   -5.7600   25.0260 C   0  0  0  0  0  3  0  0  0  0  0  0
  -21.5440   -4.4020   24.9280 C   0  0  0  0  0  0  0  0  0  0  0  0
  -21.9750   -3.8720   23.6990 C   0  0  0  0  0  3  0  0  0  0  0  0
  -22.0470   -4.7020   22.5660 C   0  0  0  0  0  0  0  0  0  0  0  0
  -22.4450   -4.1820   21.3760 F   0  0  0  0  0  0  0  0  0  0  0  0
  -21.4660   -3.6010   26.0160 F   0  0  0  0  0  0  0  0  0  0  0  0
  -22.6770  -13.4880   21.2430 C   0  0  0  0  0  0  0  0  0  0  0  0
  -21.9720  -12.7600   22.1010 N   0  0  0  0  0  0  0  0  0  0  0  0
  -22.2160  -14.5190   20.7550 O   0  0  0  0  0  0  0  0  0  0  0  0
  -22.3610  -11.9280   22.5180 H   0  0  0  0  0  0  0  0  0  0  0  0
  -21.0410  -13.0500   22.3630 H   0  0  0  0  0  0  0  0  0  0  0  0
  -25.2820  -15.2060   20.4130 N   0  0  0  0  0  0  0  0  0  0  0  0
  -24.5400  -15.8710   20.6060 H   0  0  0  0  0  0  0  0  0  0  0  0
  -26.1440  -15.6580   20.1310 H   0  0  0  0  0  0  0  0  0  0  0  0
  -27.7200  -20.1700   18.3570 C   0  0  0  0  0  0  0  0  0  0  0  0
  -28.2710  -20.6130   17.0200 C   0  0  0  0  0  1  0  0  0  0  0  0
  -26.7700  -20.8120   18.8940 N   0  0  0  0  0  0  0  0  0  0  0  0
  -26.4850  -20.4030   19.7790 H   0  0  0  0  0  0  0  0  0  0  0  0
  -30.6650  -22.5930   19.5110 C   0  0  0  0  0  1  0  0  0  0  0  0
  -30.5190  -22.4160   21.0410 C   0  0  0  0  0  3  0  0  0  0  0  0
  -29.4430  -23.3310   21.6910 C   0  0  0  0  0  2  0  0  0  0  0  0
  -29.5190  -24.8030   21.2590 C   0  0  0  0  0  0  0  0  0  0  0  0
  -30.4700  -25.5110   21.6070 O   0  0  0  0  0  0  0  0  0  0  0  0
  -28.3790  -25.3440   20.3760 C   0  0  0  0  0  2  0  0  0  0  0  0
  -28.4460  -26.7730   20.2860 O   0  0  0  0  0  0  0  0  0  0  0  0
  -24.5920  -31.9130   23.2760 C   0  0  0  0  0  0  0  0  0  0  0  0
  -27.2530  -27.4630   20.2490 C   0  0  0  0  0  0  0  0  0  0  0  0
  -23.3850  -30.4970   21.6420 C   0  0  0  0  0  3  0  0  0  0  0  0
  -24.8420  -28.9470   20.2370 C   0  0  0  0  0  0  0  0  0  0  0  0
  -25.9070  -30.8670   21.4390 C   0  0  0  0  0  2  0  0  0  0  0  0
  -25.9990  -29.4920   20.8100 C   0  0  0  0  0  0  0  0  0  0  0  0
  -27.2050  -28.7610   20.8040 C   0  0  0  0  0  3  0  0  0  0  0  0
  -26.0790  -26.9250   19.6690 C   0  0  0  0  0  3  0  0  0  0  0  0
  -24.8770  -27.6620   19.6650 C   0  0  0  0  0  3  0  0  0  0  0  0
  -23.5950  -29.8000   20.2710 C   0  0  0  0  0  2  0  0  0  0  0  0
  -24.6460  -31.1070   22.1780 N   0  0  0  0  0  0  0  0  0  0  0  0
  -23.5130  -32.1860   23.8170 O   0  0  0  0  0  0  0  0  0  0  0  0
  -22.7340  -29.4860   22.6120 C   0  0  0  0  0  0  0  0  0  0  0  0
  -21.4110  -29.2940   22.4780 N   0  0  0  0  0  0  0  0  0  0  0  0
  -23.4140  -28.8740   23.4390 O   0  0  0  0  0  0  0  0  0  0  0  0
  -20.9220  -29.8360   21.7790 H   0  0  0  0  0  0  0  0  0  0  0  0
  -18.0430  -28.0810   22.9630 C   0  0  0  0  0  0  0  0  0  0  0  0
  -20.5950  -28.3640   23.2560 C   0  0  0  0  0  3  0  0  0  0  0  0
  -20.7170  -26.9230   22.7060 C   0  0  0  0  0  2  0  0  0  0  0  0
  -19.6280  -26.5760   21.6850 C   0  0  0  0  0  2  0  0  0  0  0  0
  -18.2380  -26.7240   22.3110 C   0  0  0  0  0  2  0  0  0  0  0  0
  -19.1520  -28.8580   23.3930 C   0  0  0  0  0  0  0  0  0  0  0  0
  -18.9180  -30.1300   23.9610 C   0  0  0  0  0  3  0  0  0  0  0  0
  -17.6080  -30.6230   24.1070 C   0  0  0  0  0  3  0  0  0  0  0  0
  -16.5140  -29.8430   23.6940 C   0  0  0  0  0  3  0  0  0  0  0  0
  -16.7320  -28.5740   23.1270 C   0  0  0  0  0  3  0  0  0  0  0  0
  -25.8800  -32.5460   23.8900 C   0  0  0  0  0  3  0  0  0  0  0  0
  -25.5720  -33.9470   24.2050 N   0  0  0  0  0  0  0  0  0  0  0  0
  -25.9050  -34.9920   23.4340 C   0  0  0  0  0  0  0  0  0  0  0  0
  -26.5760  -34.8770   22.4050 O   0  0  0  0  0  0  0  0  0  0  0  0
  -24.9760  -34.1100   25.0030 H   0  0  0  0  0  0  0  0  0  0  0  0
  -24.1810  -36.7840   23.0550 C   0  0  0  0  0  1  0  0  0  0  0  0
  -25.4170  -36.3840   23.8760 C   0  0  0  0  0  3  0  0  0  0  0  0
  -27.5470  -37.2740   24.7100 C   0  0  0  0  0  1  0  0  0  0  0  0
  -26.4500  -37.4360   23.7600 N   0  0  0  0  0  0  0  0  0  0  0  0
  -26.0410  -38.3560   23.9030 H   0  0  0  0  0  0  0  0  0  0  0  0
  -26.4000  -31.7870   25.1720 C   0  0  1  0  0  0  0  0  0  0  0  0
  -25.3110  -31.5610   26.2460 C   0  0  0  0  0  1  0  0  0  0  0  0
  -26.9820  -30.4050   24.7910 C   0  0  0  0  0  1  0  0  0  0  0  0
  -27.5530  -32.5860   25.8250 C   0  0  0  0  0  1  0  0  0  0  0  0
  1  3  2  0
  2  1  1  0
  4  2  1  0
  5  6  2  0
  5  8  1  0
  6  9  1  0
  8 10  2  0
  9  7  2  0
  9 19  1  0
 10  2  1  0
 10  7  1  0
 11 19  1  0
 12 17  1  0
 13 14  1  0
 13 12  1  0
 15 14  1  0
 15 24  1  0
 15 16  1  0
 17 11  1  0
 17 16  1  0
 18 11  2  0
 19 20  1  0
 21 22  2  0
 22 41  1  0
 23 22  1  0
 23 26  1  0
 24 25  1  0
 24 21  1  0
 25 23  2  0
 26 27  1  0
 27 28  2  0
 29 32  1  0
 29 28  1  0
 30 29  2  0
 31 30  1  0
 31 26  2  0
 32 33  1  0
 33 34  1  0
 34 35  2  0
 36 35  1  0
 36 40  1  0
 37 36  2  0
 38 33  2  0
 38 37  1  0
 39 38  1  0
 41 42  1  0
 42 45  1  0
 42 44  1  0
 43 41  2  0
 46 21  1  0
 46 47  1  0
 48 46  1  0
 49 51  2  0
 49  8  1  0
 50 49  1  0
 51 52  1  0
 54 53  1  0
 54  1  1  0
 54 55  1  0
 56 57  2  0
 56 55  1  0
 58 56  1  0
 59 58  1  0
 60 71  2  0
 61 59  1  0
 61 66  1  0
 62 70  1  0
 62 72  1  0
 63 69  1  0
 63 65  1  0
 64 70  1  0
 65 64  1  0
 66 65  2  0
 67 61  2  0
 68 67  1  0
 68 63  2  0
 69 62  1  0
 70 60  1  0
 72 74  2  0
 73 72  1  0
 75 73  1  0
 76 85  2  0
 76 81  1  0
 77 73  1  0
 77 81  1  0
 78 77  1  0
 79 80  1  0
 79 78  1  0
 80 76  1  0
 81 82  2  0
 82 83  1  0
 84 83  2  0
 85 84  1  0
 86 60  1  0
 86 87  1  0
 86 96  1  0
 87 90  1  0
 88 92  1  0
 88 87  1  0
 89 88  2  0
 92 91  1  0
 94 92  1  0
 94 95  1  0
 94 93  1  0
 96 99  1  1
 96 97  1  0
 98 96  1  0
M  ISO  4  11 100  19 100  58 101  59 101
M  END
>  <TORSDO>  (5) 
F 22

>  <SCORE>  (5) 
-13.974

>  <name>  (5) 
4

>  <ligand_id>  (5) 
4

>  <original_smiles>  (5) 
[H]N=C(c1c([H])c([H])c(N([H])C(=O)N2C([H])([H])C([H])([H])C([H])([H])C([H])(n3nc(-c4c([H])c([H])c(Oc5c([H])c([H])c(F)c([H])c5F)c([H])c4[H])c(C(=O)N([H])[H])c3N([H])[H])C2([H])[H])c([H])c1N([H])C(=O)C([H])(C([H])([H])[H])C([H])([H])C(=O)C([H])([H])Oc1c([H])c([H])c2c(c1[H])C([H])([H])N(C(=O)C([H])(N([H])C(=O)C([H])(N([H])C([H])([H])[H])C([H])([H])[H])C(C([H])([H])[H])(C([H])([H])[H])C([H])([H])[H])C([H])(C(=O)N([H])C1([H])c3c([H])c([H])c([H])c([H])c3C([H])([H])C([H])([H])C1([H])[H])C2([H])[H])C([H])([H])[H]

>  <smiles>  (5) 
[H]N=C(c1c([H])c([H])c(N([H])C(=O)N2C([H])([H])C([H])([H])C([H])([H])C([H])(n3nc(-c4c([H])c([H])c(Oc5c([H])c([H])c(F)c([H])c5F)c([H])c4[H])c(C(=O)N([H])[H])c3N([H])[H])C2([H])[H])c([H])c1N([H])C(=O)C([H])(C([H])([H])[H])C([H])([H])C(=O)C([H])([H])Oc1c([H])c([H])c2c(c1[H])C([H])([H])N(C(=O)C([H])(N([H])C(=O)C([H])(N([H])C([H])([H])[H])C([H])([H])[H])C(C([H])([H])[H])(C([H])([H])[H])C([H])([H])[H])C([H])(C(=O)N([H])C1([H])c3c([H])c([H])c([H])c([H])c3C([H])([H])C([H])([H])C1([H])[H])C2([H])[H])C([H])([H])[H]

$$$$
5:0:0
     RDKit          3D

 97105  0  0  1  0  0  0  0  0999 V2000
  -29.8220  -22.9410   21.4990 C   0  0  0  0  0  0  0  0  0  0  0  0
  -28.9300  -21.9720   21.2400 N   0  0  0  0  0  0  0  0  0  0  0  0
  -30.9990  -22.7470   21.8160 O   0  0  0  0  0  0  0  0  0  0  0  0
  -27.9940  -22.3120   21.0680 H   0  0  0  0  0  0  0  0  0  0  0  0
  -30.4390  -18.5150   20.9150 C   0  0  0  0  0  3  0  0  0  0  0  0
  -30.3290  -19.8810   21.2460 C   0  0  0  0  0  3  0  0  0  0  0  0
  -28.0320  -19.8810   20.4390 C   0  0  0  0  0  3  0  0  0  0  0  0
  -29.3480  -17.8250   20.3370 C   0  0  0  0  0  0  0  0  0  0  0  0
  -29.1240  -20.5830   20.9960 C   0  0  0  0  0  0  0  0  0  0  0  0
  -28.1410  -18.5190   20.1030 C   0  0  0  0  0  0  0  0  0  0  0  0
  -27.0740  -17.8880   19.5560 F   0  0  0  0  0  0  0  0  0  0  0  0
  -30.7260  -14.4790   20.4630 C   0  0  0  0  0  0  0  0  0  0  0  0
  -30.3700  -12.3330   19.3140 C   0  0  0  0  0  2  0  0  0  0  0  0
  -29.4300  -12.5470   18.1120 C   0  0  0  0  0  2  0  0  0  0  0  0
  -27.9590  -12.4060   18.5460 C   0  0  0  0  0  2  0  0  0  0  0  0
  -27.6190  -13.2480   19.8020 C   0  0  0  0  0  3  0  0  0  0  0  0
  -28.6820  -13.0650   20.9100 C   0  0  0  0  0  2  0  0  0  0  0  0
  -30.0040  -13.3350   20.3220 N   0  0  0  0  0  0  0  0  0  0  0  0
  -31.8950  -14.5920   20.0950 O   0  0  0  0  0  0  0  0  0  0  0  0
  -29.5020  -16.4000   19.9000 C   0  0  0  0  0  0  0  0  0  0  0  0
  -30.0490  -15.5780   20.8120 N   0  0  0  0  0  0  0  0  0  0  0  0
  -29.1500  -16.0660   18.7630 O   0  0  0  0  0  0  0  0  0  0  0  0
  -30.4340  -16.0890   21.5880 H   0  0  0  0  0  0  0  0  0  0  0  0
  -25.2220  -13.8650   20.4950 C   0  0  0  0  0  0  0  0  0  0  0  0
  -24.1510  -13.0940   20.8610 C   0  0  0  0  0  0  0  0  0  0  0  0
  -24.6140  -11.7440   20.8430 C   0  0  0  0  0  0  0  0  0  0  0  0
  -26.2680  -12.9800   20.2800 N   0  0  0  0  0  0  0  0  0  0  0  0
  -25.9060  -11.7020   20.5480 N   0  0  0  0  0  0  0  0  0  0  0  0
  -23.8900  -10.4830   21.0330 C   0  0  0  0  0  0  0  0  0  0  0  0
  -24.3200   -9.5190   21.9710 C   0  0  0  0  0  3  0  0  0  0  0  0
  -23.5950   -8.3210   22.1500 C   0  0  0  0  0  3  0  0  0  0  0  0
  -22.4270   -8.0780   21.3880 C   0  0  0  0  0  0  0  0  0  0  0  0
  -22.0170   -9.0310   20.4390 C   0  0  0  0  0  3  0  0  0  0  0  0
  -22.7430  -10.2200   20.2580 C   0  0  0  0  0  3  0  0  0  0  0  0
  -21.6760   -6.9320   21.4760 O   0  0  0  0  0  0  0  0  0  0  0  0
  -21.6240   -6.1920   22.6290 C   0  0  0  0  0  0  0  0  0  0  0  0
  -21.1840   -6.7480   23.8510 C   0  0  0  0  0  3  0  0  0  0  0  0
  -21.0760   -5.9340   24.9960 C   0  0  0  0  0  3  0  0  0  0  0  0
  -21.4010   -4.5660   24.9230 C   0  0  0  0  0  0  0  0  0  0  0  0
  -21.8360   -4.0100   23.7060 C   0  0  0  0  0  3  0  0  0  0  0  0
  -21.9430   -4.8200   22.5630 C   0  0  0  0  0  0  0  0  0  0  0  0
  -22.3400   -4.2750   21.3880 F   0  0  0  0  0  0  0  0  0  0  0  0
  -21.2910   -3.7830   26.0220 F   0  0  0  0  0  0  0  0  0  0  0  0
  -22.7510  -13.5710   21.1160 C   0  0  0  0  0  0  0  0  0  0  0  0
  -22.0170  -12.8780   21.9790 N   0  0  0  0  0  0  0  0  0  0  0  0
  -22.3160  -14.5930   20.5870 O   0  0  0  0  0  0  0  0  0  0  0  0
  -22.3830  -12.0500   22.4250 H   0  0  0  0  0  0  0  0  0  0  0  0
  -21.0780  -13.1780   22.1980 H   0  0  0  0  0  0  0  0  0  0  0  0
  -25.3860  -15.2350   20.3100 N   0  0  0  0  0  0  0  0  0  0  0  0
  -24.6140  -15.8850   20.4050 H   0  0  0  0  0  0  0  0  0  0  0  0
  -26.2290  -15.6780   19.9670 H   0  0  0  0  0  0  0  0  0  0  0  0
  -29.2090  -24.2520   21.3540 C   0  0  0  0  0  3  0  0  0  0  0  0
  -29.8810  -25.4200   21.4590 C   0  0  0  0  0  0  0  0  0  0  0  0
  -31.1890  -25.5390   21.7430 O   0  0  0  0  0  0  0  0  0  0  0  0
  -31.5330  -24.6580   21.8620 H   0  0  0  0  0  0  0  0  0  0  0  0
  -29.2450  -26.7840   21.2520 C   0  0  0  0  0  2  0  0  0  0  0  0
  -28.4330  -26.7620   20.0780 O   0  0  0  0  0  0  0  0  0  0  0  0
  -24.6200  -31.8930   23.2160 C   0  0  0  0  0  0  0  0  0  0  0  0
  -27.2890  -27.5180   20.1120 C   0  0  0  0  0  0  0  0  0  0  0  0
  -23.4110  -30.4920   21.5700 C   0  0  0  0  0  3  0  0  0  0  0  0
  -24.8700  -28.9740   20.1300 C   0  0  0  0  0  0  0  0  0  0  0  0
  -25.9260  -30.8830   21.3560 C   0  0  0  0  0  2  0  0  0  0  0  0
  -26.0190  -29.5150   20.7190 C   0  0  0  0  0  0  0  0  0  0  0  0
  -27.2300  -28.7950   20.7170 C   0  0  0  0  0  3  0  0  0  0  0  0
  -26.1310  -26.9890   19.5070 C   0  0  0  0  0  3  0  0  0  0  0  0
  -24.9180  -27.7050   19.5240 C   0  0  0  0  0  3  0  0  0  0  0  0
  -23.6170  -29.8170   20.1840 C   0  0  0  0  0  2  0  0  0  0  0  0
  -24.6700  -31.1040   22.1060 N   0  0  0  0  0  0  0  0  0  0  0  0
  -23.5430  -32.1530   23.7690 O   0  0  0  0  0  0  0  0  0  0  0  0
  -22.7750  -29.4600   22.5290 C   0  0  0  0  0  0  0  0  0  0  0  0
  -21.4500  -29.2790   22.4160 N   0  0  0  0  0  0  0  0  0  0  0  0
  -23.4700  -28.8280   23.3280 O   0  0  0  0  0  0  0  0  0  0  0  0
  -20.9510  -29.8410   21.7410 H   0  0  0  0  0  0  0  0  0  0  0  0
  -18.0810  -28.0900   22.9400 C   0  0  0  0  0  0  0  0  0  0  0  0
  -20.6420  -28.3350   23.1880 C   0  0  0  0  0  3  0  0  0  0  0  0
  -20.7330  -26.9090   22.5950 C   0  0  0  0  0  2  0  0  0  0  0  0
  -19.6200  -26.6020   21.5890 C   0  0  0  0  0  2  0  0  0  0  0  0
  -18.2450  -26.7470   22.2480 C   0  0  0  0  0  2  0  0  0  0  0  0
  -19.2070  -28.8420   23.3660 C   0  0  0  0  0  0  0  0  0  0  0  0
  -18.9990  -30.1010   23.9700 C   0  0  0  0  0  3  0  0  0  0  0  0
  -17.6990  -30.6060   24.1540 C   0  0  0  0  0  3  0  0  0  0  0  0
  -16.5870  -29.8480   23.7480 C   0  0  0  0  0  3  0  0  0  0  0  0
  -16.7790  -28.5930   23.1440 C   0  0  0  0  0  3  0  0  0  0  0  0
  -25.9100  -32.5250   23.8310 C   0  0  0  0  0  3  0  0  0  0  0  0
  -26.4460  -31.7440   25.0930 C   0  0  1  0  0  0  0  0  0  0  0  0
  -25.3680  -31.4880   26.1700 C   0  0  0  0  0  1  0  0  0  0  0  0
  -27.0300  -30.3740   24.6780 C   0  0  0  0  0  1  0  0  0  0  0  0
  -27.6010  -32.5360   25.7500 C   0  0  0  0  0  1  0  0  0  0  0  0
  -25.6010  -33.9190   24.1730 N   0  0  0  0  0  0  0  0  0  0  0  0
  -25.9140  -34.9760   23.4120 C   0  0  0  0  0  0  0  0  0  0  0  0
  -26.5680  -34.8810   22.3680 O   0  0  0  0  0  0  0  0  0  0  0  0
  -25.0210  -34.0670   24.9860 H   0  0  0  0  0  0  0  0  0  0  0  0
  -24.1710  -36.7560   23.0800 C   0  0  0  0  0  1  0  0  0  0  0  0
  -25.4220  -36.3580   23.8800 C   0  0  0  0  0  3  0  0  0  0  0  0
  -27.5580  -37.2540   24.6940 C   0  0  0  0  0  1  0  0  0  0  0  0
  -26.4460  -37.4190   23.7620 N   0  0  0  0  0  0  0  0  0  0  0  0
  -26.0350  -38.3360   23.9180 H   0  0  0  0  0  0  0  0  0  0  0  0
  1  3  2  0
  2  1  1  0
  4  2  1  0
  5  6  1  0
  7  9  1  0
  8  5  2  0
  9  2  1  0
  9  6  2  0
 10  8  1  0
 10  7  2  0
 11 10  1  0
 12 21  1  0
 13 18  1  0
 14 15  1  0
 14 13  1  0
 16 15  1  0
 16 27  1  0
 16 17  1  0
 18 12  1  0
 18 17  1  0
 19 12  2  0
 20  8  1  0
 20 21  1  0
 21 23  1  0
 22 20  2  0
 24 25  2  0
 25 44  1  0
 26 25  1  0
 26 29  1  0
 27 24  1  0
 27 28  1  0
 28 26  2  0
 29 30  1  0
 30 31  2  0
 32 35  1  0
 32 31  1  0
 33 32  2  0
 34 33  1  0
 34 29  2  0
 35 36  1  0
 36 37  1  0
 37 38  2  0
 39 38  1  0
 39 43  1  0
 40 39  2  0
 41 36  2  0
 41 40  1  0
 42 41  1  0
 44 45  1  0
 45 48  1  0
 45 47  1  0
 46 44  2  0
 49 50  1  0
 49 24  1  0
 51 49  1  0
 52 53  2  0
 52  1  1  0
 53 54  1  0
 54 55  1  0
 56 53  1  0
 57 59  1  0
 57 56  1  0
 58 69  2  0
 59 64  1  0
 60 68  1  0
 60 70  1  0
 61 67  1  0
 61 63  1  0
 62 68  1  0
 63 62  1  0
 64 63  2  0
 65 66  1  0
 65 59  2  0
 66 61  2  0
 67 60  1  0
 68 58  1  0
 70 72  2  0
 71 70  1  0
 73 71  1  0
 74 83  2  0
 74 79  1  0
 75 71  1  0
 75 79  1  0
 76 75  1  0
 77 78  1  0
 77 76  1  0
 78 74  1  0
 79 80  2  0
 80 81  1  0
 82 81  2  0
 83 82  1  0
 84 58  1  0
 84 89  1  0
 84 85  1  0
 85 88  1  1
 85 86  1  0
 87 85  1  0
 89 92  1  0
 90 94  1  0
 90 89  1  0
 91 90  2  0
 94 93  1  0
 96 94  1  0
 96 97  1  0
 96 95  1  0
M  ISO  4  12 100  21 100  56 101  57 101
M  END
>  <TORSDO>  (6) 
F 20

>  <SCORE>  (6) 
-14.683

>  <name>  (6) 
5

>  <ligand_id>  (6) 
5

>  <original_smiles>  (6) 
[H]OC(=C([H])C(=O)N([H])c1c([H])c([H])c(C(=O)N([H])C(=O)N2C([H])([H])C([H])([H])C([H])([H])C([H])(n3nc(-c4c([H])c([H])c(Oc5c([H])c([H])c(F)c([H])c5F)c([H])c4[H])c(C(=O)N([H])[H])c3N([H])[H])C2([H])[H])c(F)c1[H])C([H])([H])Oc1c([H])c([H])c2c(c1[H])C([H])([H])N(C(=O)C([H])(N([H])C(=O)C([H])(N([H])C([H])([H])[H])C([H])([H])[H])C(C([H])([H])[H])(C([H])([H])[H])C([H])([H])[H])C([H])(C(=O)N([H])C1([H])c3c([H])c([H])c([H])c([H])c3C([H])([H])C([H])([H])C1([H])[H])C2([H])[H]

>  <smiles>  (6) 
[H]OC(=C([H])C(=O)N([H])c1c([H])c([H])c(C(=O)N([H])C(=O)N2C([H])([H])C([H])([H])C([H])([H])C([H])(n3nc(-c4c([H])c([H])c(Oc5c([H])c([H])c(F)c([H])c5F)c([H])c4[H])c(C(=O)N([H])[H])c3N([H])[H])C2([H])[H])c(F)c1[H])C([H])([H])Oc1c([H])c([H])c2c(c1[H])C([H])([H])N(C(=O)C([H])(N([H])C(=O)C([H])(N([H])C([H])([H])[H])C([H])([H])[H])C(C([H])([H])[H])(C([H])([H])[H])C([H])([H])[H])C([H])(C(=O)N([H])C1([H])c3c([H])c([H])c([H])c([H])c3C([H])([H])C([H])([H])C1([H])[H])C2([H])[H]

$$$$
6:0:0
     RDKit          3D

 97105  0  0  1  0  0  0  0  0999 V2000
  -30.1840  -19.1080   20.6240 C   0  0  0  0  0  0  0  0  0  0  0  0
  -29.4090  -21.4950   21.2170 C   0  0  0  0  0  0  0  0  0  0  0  0
  -29.6880  -20.3560   20.3650 N   0  0  0  0  0  0  0  0  0  0  0  0
  -30.3980  -18.6760   21.8690 N   0  0  0  0  0  4  0  0  0  0  0  0
  -29.5710  -21.4660   22.4430 O   0  0  0  0  0  0  0  0  0  0  0  0
  -29.5700  -20.4680   19.3700 H   0  0  0  0  0  0  0  0  0  0  0  0
  -30.8950  -17.8090   22.0000 H   0  0  0  0  0  0  0  0  0  0  0  0
  -30.1940  -19.2610   22.6640 H   0  0  0  0  0  0  0  0  0  0  0  0
  -30.9250  -19.0030   18.2950 C   0  0  0  0  0  3  0  0  0  0  0  0
  -31.4360  -18.4150   17.1280 C   0  0  0  0  0  3  0  0  0  0  0  0
  -31.2690  -16.2590   18.2030 C   0  0  0  0  0  3  0  0  0  0  0  0
  -30.6220  -18.2570   19.4710 C   0  0  0  0  0  0  0  0  0  0  0  0
  -30.8620  -16.8270   19.4430 C   0  0  0  0  0  0  0  0  0  0  0  0
  -31.5860  -17.0270   17.0720 C   0  0  0  0  0  0  0  0  0  0  0  0
  -32.0620  -16.4270   15.9570 F   0  0  0  0  0  0  0  0  0  0  0  0
  -31.4650  -14.7230   20.5760 C   0  0  0  0  0  0  0  0  0  0  0  0
  -31.1350  -12.4930   19.5740 C   0  0  0  0  0  2  0  0  0  0  0  0
  -30.2690  -12.5350   18.2910 C   0  0  0  0  0  2  0  0  0  0  0  0
  -28.7610  -12.7040   18.5850 C   0  0  0  0  0  2  0  0  0  0  0  0
  -28.4080  -13.5710   19.8280 C   0  0  0  0  0  3  0  0  0  0  0  0
  -29.3930  -13.3660   21.0000 C   0  0  0  0  0  2  0  0  0  0  0  0
  -30.7380  -13.5780   20.4810 N   0  0  0  0  0  0  0  0  0  0  0  0
  -32.6780  -14.7520   20.3570 O   0  0  0  0  0  0  0  0  0  0  0  0
  -30.7530  -15.8900   20.5550 N   0  0  0  0  0  0  0  0  0  0  0  0
  -29.8420  -15.8480   20.9890 H   0  0  0  0  0  0  0  0  0  0  0  0
  -26.0070  -14.2680   20.4540 C   0  0  0  0  0  0  0  0  0  0  0  0
  -24.8890  -13.5340   20.7510 C   0  0  0  0  0  0  0  0  0  0  0  0
  -25.2950  -12.1690   20.7310 C   0  0  0  0  0  0  0  0  0  0  0  0
  -27.0250  -13.3470   20.2540 N   0  0  0  0  0  0  0  0  0  0  0  0
  -26.5980  -12.0790   20.4960 N   0  0  0  0  0  0  0  0  0  0  0  0
  -24.4990  -10.9370   20.8600 C   0  0  0  0  0  0  0  0  0  0  0  0
  -24.8320   -9.9390   21.8050 C   0  0  0  0  0  3  0  0  0  0  0  0
  -24.0370   -8.7790   21.9260 C   0  0  0  0  0  3  0  0  0  0  0  0
  -22.8990   -8.6070   21.1070 C   0  0  0  0  0  0  0  0  0  0  0  0
  -22.5830   -9.5880   20.1550 C   0  0  0  0  0  3  0  0  0  0  0  0
  -23.3760  -10.7430   20.0270 C   0  0  0  0  0  3  0  0  0  0  0  0
  -22.0950   -7.4940   21.1310 O   0  0  0  0  0  0  0  0  0  0  0  0
  -21.8940   -6.7750   22.2820 C   0  0  0  0  0  0  0  0  0  0  0  0
  -21.3880   -7.3730   23.4540 C   0  0  0  0  0  3  0  0  0  0  0  0
  -21.1310   -6.5840   24.5920 C   0  0  0  0  0  3  0  0  0  0  0  0
  -21.3730   -5.1980   24.5610 C   0  0  0  0  0  0  0  0  0  0  0  0
  -21.8680   -4.5980   23.3910 C   0  0  0  0  0  3  0  0  0  0  0  0
  -22.1250   -5.3840   22.2540 C   0  0  0  0  0  0  0  0  0  0  0  0
  -22.5810   -4.7960   21.1220 F   0  0  0  0  0  0  0  0  0  0  0  0
  -21.1290   -4.4400   25.6570 F   0  0  0  0  0  0  0  0  0  0  0  0
  -23.5000  -14.0690   20.9540 C   0  0  0  0  0  0  0  0  0  0  0  0
  -22.7170  -13.4120   21.8040 N   0  0  0  0  0  0  0  0  0  0  0  0
  -23.1140  -15.0950   20.3990 O   0  0  0  0  0  0  0  0  0  0  0  0
  -23.0380  -12.5740   22.2660 H   0  0  0  0  0  0  0  0  0  0  0  0
  -21.7870  -13.7610   21.9890 H   0  0  0  0  0  0  0  0  0  0  0  0
  -26.2270  -15.6360   20.3330 N   0  0  0  0  0  0  0  0  0  0  0  0
  -25.4560  -16.2810   20.4770 H   0  0  0  0  0  0  0  0  0  0  0  0
  -27.1250  -16.0740   20.4950 H   0  0  0  0  0  0  0  0  0  0  0  0
  -28.9030  -22.7370   20.4320 C   0  0  0  0  0  2  0  0  0  0  0  0
  -29.0490  -24.1900   21.0130 C   0  0  0  0  0  2  0  0  0  0  0  0
  -27.9900  -25.1370   20.3510 C   0  0  0  0  0  2  0  0  0  0  0  0
  -28.2440  -26.5680   20.2250 O   0  0  0  0  0  0  0  0  0  0  0  0
  -24.5350  -31.8720   23.1940 C   0  0  0  0  0  0  0  0  0  0  0  0
  -27.1130  -27.3720   20.1280 C   0  0  0  0  0  0  0  0  0  0  0  0
  -23.3040  -30.4780   21.5680 C   0  0  0  0  0  3  0  0  0  0  0  0
  -24.7340  -28.9320   20.1260 C   0  0  0  0  0  0  0  0  0  0  0  0
  -25.8360  -30.8170   21.3390 C   0  0  0  0  0  2  0  0  0  0  0  0
  -25.9070  -29.4420   20.7020 C   0  0  0  0  0  0  0  0  0  0  0  0
  -27.1010  -28.6780   20.6850 C   0  0  0  0  0  3  0  0  0  0  0  0
  -25.9240  -26.9000   19.5210 C   0  0  0  0  0  3  0  0  0  0  0  0
  -24.7460  -27.6660   19.5230 C   0  0  0  0  0  3  0  0  0  0  0  0
  -23.4940  -29.7970   20.1860 C   0  0  0  0  0  2  0  0  0  0  0  0
  -24.5780  -31.0720   22.0910 N   0  0  0  0  0  0  0  0  0  0  0  0
  -23.4610  -32.1450   23.7480 O   0  0  0  0  0  0  0  0  0  0  0  0
  -22.6550  -29.4640   22.5390 C   0  0  0  0  0  0  0  0  0  0  0  0
  -21.3320  -29.2620   22.4100 N   0  0  0  0  0  0  0  0  0  0  0  0
  -23.3400  -28.8580   23.3680 O   0  0  0  0  0  0  0  0  0  0  0  0
  -20.8370  -29.8070   21.7160 H   0  0  0  0  0  0  0  0  0  0  0  0
  -17.9730  -28.0040   22.8740 C   0  0  0  0  0  0  0  0  0  0  0  0
  -20.5190  -28.3210   23.1830 C   0  0  0  0  0  3  0  0  0  0  0  0
  -20.6650  -26.8800   22.6370 C   0  0  0  0  0  2  0  0  0  0  0  0
  -19.5910  -26.5150   21.6120 C   0  0  0  0  0  2  0  0  0  0  0  0
  -18.1950  -26.6430   22.2300 C   0  0  0  0  0  2  0  0  0  0  0  0
  -19.0680  -28.7980   23.3070 C   0  0  0  0  0  0  0  0  0  0  0  0
  -18.8150  -30.0700   23.8650 C   0  0  0  0  0  3  0  0  0  0  0  0
  -17.4980  -30.5460   24.0020 C   0  0  0  0  0  3  0  0  0  0  0  0
  -16.4150  -29.7490   23.5890 C   0  0  0  0  0  3  0  0  0  0  0  0
  -16.6560  -28.4810   23.0290 C   0  0  0  0  0  3  0  0  0  0  0  0
  -25.8290  -32.5020   23.7980 C   0  0  0  0  0  3  0  0  0  0  0  0
  -26.3720  -31.7160   25.0540 C   0  0  1  0  0  0  0  0  0  0  0  0
  -25.3030  -31.4570   26.1420 C   0  0  0  0  0  1  0  0  0  0  0  0
  -26.9500  -30.3490   24.6260 C   0  0  0  0  0  1  0  0  0  0  0  0
  -27.5420  -32.5010   25.6930 C   0  0  0  0  0  1  0  0  0  0  0  0
  -25.5270  -33.8960   24.1500 N   0  0  0  0  0  0  0  0  0  0  0  0
  -25.8660  -34.9580   23.4110 C   0  0  0  0  0  0  0  0  0  0  0  0
  -26.5380  -34.8680   22.3780 O   0  0  0  0  0  0  0  0  0  0  0  0
  -24.9300  -34.0410   24.9510 H   0  0  0  0  0  0  0  0  0  0  0  0
  -24.1610  -36.7750   23.0690 C   0  0  0  0  0  1  0  0  0  0  0  0
  -25.3850  -36.3420   23.8910 C   0  0  0  0  0  3  0  0  0  0  0  0
  -27.5150  -37.1880   24.7700 C   0  0  0  0  0  1  0  0  0  0  0  0
  -26.4300  -37.3880   23.8130 N   0  0  0  0  0  0  0  0  0  0  0  0
  -26.0320  -38.3090   23.9810 H   0  0  0  0  0  0  0  0  0  0  0  0
  1  4  2  0
  2  5  2  0
  3  1  1  0
  3  2  1  0
  4  7  1  0
  4  8  1  0
  6  3  1  0
  9 12  1  0
 10  9  2  0
 11 13  1  0
 12  1  1  0
 13 12  2  0
 13 24  1  0
 14 10  1  0
 14 11  2  0
 15 14  1  0
 17 22  1  0
 18 19  1  0
 18 17  1  0
 20 19  1  0
 20 29  1  0
 20 21  1  0
 22 16  1  0
 22 21  1  0
 23 16  2  0
 24 16  1  0
 24 25  1  0
 26 27  2  0
 27 46  1  0
 28 27  1  0
 28 31  1  0
 29 26  1  0
 29 30  1  0
 30 28  2  0
 31 32  1  0
 32 33  2  0
 34 37  1  0
 34 33  1  0
 35 34  2  0
 36 35  1  0
 36 31  2  0
 37 38  1  0
 38 39  1  0
 39 40  2  0
 41 40  1  0
 41 45  1  0
 42 41  2  0
 43 38  2  0
 43 42  1  0
 44 43  1  0
 46 47  1  0
 47 50  1  0
 47 49  1  0
 48 46  2  0
 51 26  1  0
 51 52  1  0
 51 53  1  0
 54 55  1  0
 54  2  1  0
 56 55  1  0
 57 56  1  0
 58 69  2  0
 59 57  1  0
 59 64  1  0
 60 68  1  0
 60 70  1  0
 61 67  1  0
 61 63  1  0
 62 68  1  0
 63 62  1  0
 64 63  2  0
 65 66  1  0
 65 59  2  0
 66 61  2  0
 67 60  1  0
 68 58  1  0
 70 72  2  0
 71 70  1  0
 73 71  1  0
 74 83  2  0
 74 79  1  0
 75 71  1  0
 75 79  1  0
 76 75  1  0
 77 78  1  0
 77 76  1  0
 78 74  1  0
 79 80  2  0
 80 81  1  0
 82 81  2  0
 83 82  1  0
 84 58  1  0
 84 89  1  0
 84 85  1  0
 85 88  1  1
 85 86  1  0
 87 85  1  0
 89 92  1  0
 90 94  1  0
 90 89  1  0
 91 90  2  0
 94 93  1  0
 96 94  1  0
 96 97  1  0
 96 95  1  0
M  ISO  4  16 100  24 100  56 101  57 101
M  END
>  <TORSDO>  (7) 
F 20

>  <SCORE>  (7) 
-13.366

>  <name>  (7) 
6

>  <ligand_id>  (7) 
6

>  <original_smiles>  (7) 
[H]c1c([H])c([H])c2c(c1[H])C([H])([H])C([H])([H])C([H])([H])C2([H])N([H])C(=O)C1([H])N(C(=O)C([H])(N([H])C(=O)C([H])(N([H])C([H])([H])[H])C([H])([H])[H])C(C([H])([H])[H])(C([H])([H])[H])C([H])([H])[H])C([H])([H])c2c([H])c(OC([H])([H])C([H])([H])C([H])([H])C(=O)N([H])C(c3c([H])c([H])c(F)c([H])c3N([H])C(=O)N3C([H])([H])C([H])([H])C([H])([H])C([H])(n4nc(-c5c([H])c([H])c(Oc6c([H])c([H])c(F)c([H])c6F)c([H])c5[H])c(C(=O)N([H])[H])c4N([H])[H])C3([H])[H])=[N+]([H])[H])c([H])c([H])c2C1([H])[H]

>  <smiles>  (7) 
[H]c1c([H])c([H])c2c(c1[H])C([H])([H])C([H])([H])C([H])([H])C2([H])N([H])C(=O)C1([H])N(C(=O)C([H])(N([H])C(=O)C([H])(N([H])C([H])([H])[H])C([H])([H])[H])C(C([H])([H])[H])(C([H])([H])[H])C([H])([H])[H])C([H])([H])c2c([H])c(OC([H])([H])C([H])([H])C([H])([H])C(=O)N([H])C(c3c([H])c([H])c(F)c([H])c3N([H])C(=O)N3C([H])([H])C([H])([H])C([H])([H])C([H])(n4nc(-c5c([H])c([H])c(Oc6c([H])c([H])c(F)c([H])c6F)c([H])c5[H])c(C(=O)N([H])[H])c4N([H])[H])C3([H])[H])=[N+]([H])[H])c([H])c([H])c2C1([H])[H]

$$$$
7:0:0
     RDKit          3D

 96100  0  0  1  0  0  0  0  0999 V2000
  -28.0970  -10.7850   23.1990 C   0  0  0  0  0  2  0  0  0  0  0  0
  -27.7390   -9.3090   22.4870 C   0  0  0  0  0  3  0  0  0  0  0  0
  -26.5460  -10.0680   19.9030 C   0  0  0  0  0  1  0  0  0  0  0  0
  -28.1580  -12.3580   22.6150 C   0  0  0  0  0  3  0  0  0  0  0  0
  -27.4140  -12.8400   21.1830 C   0  0  1  0  0  0  0  0  0  0  0  0
  -27.0910   -8.8890   20.9890 C   0  0  0  0  0  0  0  0  0  0  0  0
  -26.9710   -7.5800   20.6610 F   0  0  0  0  0  0  0  0  0  0  0  0
  -30.6920  -11.9210   23.4000 C   0  0  0  0  0  1  0  0  0  0  0  0
  -29.6990  -12.8810   22.7050 C   0  0  0  0  0  3  0  0  0  0  0  0
  -31.7100  -12.7130   19.3740 C   0  0  0  0  0  0  0  0  0  0  0  0
  -30.9120  -10.9550   17.6600 C   0  0  0  0  0  2  0  0  0  0  0  0
  -29.6780  -11.3850   16.7770 C   0  0  0  0  0  2  0  0  0  0  0  0
  -28.3550  -11.7160   17.5130 C   0  0  0  0  0  2  0  0  0  0  0  0
  -28.7260  -12.5670   18.7230 C   0  0  0  0  0  3  0  0  0  0  0  0
  -29.7590  -11.5120   19.4760 C   0  0  0  0  0  2  0  0  0  0  0  0
  -30.9640  -11.6780   18.9440 N   0  0  0  0  0  0  0  0  0  0  0  0
  -32.6780  -12.9960   18.6610 O   0  0  0  0  0  0  0  0  0  0  0  0
  -30.5200  -13.7600   21.5830 C   0  0  0  0  0  0  0  0  0  0  0  0
  -31.3750  -13.5080   20.4860 N   0  0  0  0  0  0  0  0  0  0  0  0
  -30.5870  -14.9500   21.8970 O   0  0  0  0  0  0  0  0  0  0  0  0
  -31.9550  -14.3270   20.4130 H   0  0  0  0  0  0  0  0  0  0  0  0
  -26.0570  -13.7940   19.8030 C   0  0  0  0  0  3  0  0  0  0  0  0
  -25.0370  -13.1300   20.9710 C   0  0  0  0  0  3  0  0  0  0  0  0
  -25.6650  -11.6970   21.6480 C   0  0  0  0  0  2  0  0  0  0  0  0
  -27.5570  -12.9040   19.4830 N   0  0  2  0  0  4  0  0  0  0  0  0
  -27.6710  -11.6700   20.4370 N   0  0  0  0  0  2  0  0  0  0  0  0
  -24.3790  -10.4770   21.5600 C   0  0  0  0  0  0  0  0  0  0  0  0
  -24.1610   -9.3920   22.4990 C   0  0  0  0  0  3  0  0  0  0  0  0
  -23.3480   -8.2290   22.3450 C   0  0  0  0  0  3  0  0  0  0  0  0
  -22.4610   -8.0900   21.2650 C   0  0  0  0  0  0  0  0  0  0  0  0
  -22.6370   -9.0530   20.2430 C   0  0  0  0  0  3  0  0  0  0  0  0
  -23.5920  -10.1340   20.3630 C   0  0  0  0  0  3  0  0  0  0  0  0
  -21.4720   -7.1040   21.2050 O   0  0  0  0  0  0  0  0  0  0  0  0
  -21.0680   -6.3820   22.3280 C   0  0  0  0  0  0  0  0  0  0  0  0
  -20.3870   -6.9920   23.4110 C   0  0  0  0  0  3  0  0  0  0  0  0
  -19.9950   -6.2380   24.5390 C   0  0  0  0  0  3  0  0  0  0  0  0
  -20.2590   -4.8560   24.5930 C   0  0  0  0  0  0  0  0  0  0  0  0
  -20.9030   -4.2310   23.5110 C   0  0  0  0  0  3  0  0  0  0  0  0
  -21.2970   -4.9840   22.3860 C   0  0  0  0  0  0  0  0  0  0  0  0
  -21.9000   -4.3510   21.3520 F   0  0  0  0  0  0  0  0  0  0  0  0
  -19.8890   -4.1310   25.6770 F   0  0  0  0  0  0  0  0  0  0  0  0
  -23.8680  -13.6690   21.6740 C   0  0  0  0  0  0  0  0  0  0  0  0
  -23.2630  -12.9080   22.5910 N   0  0  0  0  0  0  0  0  0  0  0  0
  -23.5070  -14.7970   21.4350 O   0  0  0  0  0  0  0  0  0  0  0  0
  -23.5280  -11.9460   22.7410 H   0  0  0  0  0  0  0  0  0  0  0  0
  -22.4650  -13.2750   23.0920 H   0  0  0  0  0  0  0  0  0  0  0  0
  -26.2780  -15.1140   19.6300 N   0  0  0  0  0  0  0  0  0  0  0  0
  -26.7790  -15.3340   20.5040 H   0  0  0  0  0  0  0  0  0  0  0  0
  -26.9790  -15.2500   18.9130 H   0  0  0  0  0  0  0  0  0  0  0  0
  -27.8600  -14.5700   20.6660 N   0  0  0  0  0  2  0  0  0  0  0  0
  -28.4330  -14.8670   21.4520 H   0  0  0  0  0  0  0  0  0  0  0  0
  -28.0400  -16.2680   19.6060 C   0  0  0  0  0 15  0  0  0  0  0  0
  -29.2460  -17.9680   18.9320 C   0  0  0  0  0  2  0  0  0  0  0  0
  -30.4170  -17.6280   19.1250 O   0  0  0  0  0  0  0  0  0  0  0  0
  -29.3480  -19.9780   18.0730 C   0  0  0  0  0 15  0  0  0  0  0  0
  -30.4640  -21.4880   17.1920 O   0  0  0  0  0  1  0  0  0  0  0  0
  -33.2830  -28.5790   19.9570 C   0  0  0  0  0  0  0  0  0  0  0  0
  -30.6730  -23.1770   17.1470 C   0  0  0  0  0  0  0  0  0  0  0  0
  -30.9230  -28.0780   19.5500 C   0  0  0  0  0  3  0  0  0  0  0  0
  -30.3130  -26.2470   17.7640 C   0  0  0  0  0  0  0  0  0  0  0  0
  -32.6450  -27.0200   17.9430 C   0  0  0  0  0  2  0  0  0  0  0  0
  -31.6250  -25.8010   17.6170 C   0  0  0  0  0  0  0  0  0  0  0  0
  -31.7890  -24.3050   17.2780 C   0  0  0  0  0  3  0  0  0  0  0  0
  -29.5070  -23.9760   17.0120 C   0  0  0  0  0  3  0  0  0  0  0  0
  -29.3100  -25.3560   17.3530 C   0  0  0  0  0  3  0  0  0  0  0  0
  -29.9930  -27.6270   18.3810 C   0  0  0  0  0  2  0  0  0  0  0  0
  -32.3580  -27.9230   19.1570 N   0  0  0  0  0  0  0  0  0  0  0  0
  -32.9470  -29.1970   20.9860 O   0  0  0  0  0  0  0  0  0  0  0  0
  -30.5980  -27.2920   20.8510 C   0  0  0  0  0  0  0  0  0  0  0  0
  -29.4430  -27.5550   21.4950 N   0  0  0  0  0  0  0  0  0  0  0  0
  -31.3900  -26.4410   21.2630 O   0  0  0  0  0  0  0  0  0  0  0  0
  -28.8430  -28.2790   21.1230 H   0  0  0  0  0  0  0  0  0  0  0  0
  -26.7490  -27.3640   23.9290 C   0  0  0  0  0  0  0  0  0  0  0  0
  -28.9560  -26.8400   22.6830 C   0  0  0  0  0  3  0  0  0  0  0  0
  -28.2870  -25.5030   22.2870 C   0  0  0  0  0  2  0  0  0  0  0  0
  -26.7710  -25.6230   22.0930 C   0  0  0  0  0  2  0  0  0  0  0  0
  -26.1020  -26.1010   23.3840 C   0  0  0  0  0  2  0  0  0  0  0  0
  -28.0820  -27.7200   23.5870 C   0  0  0  0  0  0  0  0  0  0  0  0
  -28.6210  -28.9170   24.1030 C   0  0  0  0  0  3  0  0  0  0  0  0
  -27.8560  -29.7520   24.9390 C   0  0  0  0  0  3  0  0  0  0  0  0
  -26.5410  -29.3910   25.2800 C   0  0  0  0  0  3  0  0  0  0  0  0
  -25.9930  -28.1970   24.7800 C   0  0  0  0  0  3  0  0  0  0  0  0
  -34.8070  -28.6040   19.6280 C   0  0  0  0  0  3  0  0  0  0  0  0
  -35.3220  -29.9720   19.8790 N   0  0  0  0  0  0  0  0  0  0  0  0
  -35.5120  -30.9240   18.9550 C   0  0  0  0  0  0  0  0  0  0  0  0
  -35.3000  -30.7300   17.7570 O   0  0  0  0  0  0  0  0  0  0  0  0
  -35.4630  -30.2200   20.8470 H   0  0  0  0  0  0  0  0  0  0  0  0
  -34.8470  -33.2980   19.5040 C   0  0  0  0  0  1  0  0  0  0  0  0
  -36.0210  -32.3080   19.4250 C   0  0  0  0  0  3  0  0  0  0  0  0
  -38.3550  -32.1700   18.6630 C   0  0  0  0  0  1  0  0  0  0  0  0
  -37.0820  -32.8780   18.5640 N   0  0  0  0  0  0  0  0  0  0  0  0
  -37.2470  -33.8550   18.7960 H   0  0  0  0  0  0  0  0  0  0  0  0
  -35.6420  -27.5750   20.4880 C   0  0  1  0  0  0  0  0  0  0  0  0
  -35.4110  -27.7010   22.0130 C   0  0  0  0  0  1  0  0  0  0  0  0
  -35.3180  -26.1180   20.0990 C   0  0  0  0  0  1  0  0  0  0  0  0
  -37.1530  -27.7670   20.2170 C   0  0  0  0  0  1  0  0  0  0  0  0
  2  1  1  0
  3  6  1  0
  4  9  1  0
  4  1  1  0
  5 50  1  1
  5  4  1  0
  6  2  2  0
  7  6  1  0
  9  8  1  0
 10 19  1  0
 11 16  1  0
 12 13  1  0
 12 11  1  0
 14 13  1  0
 14 15  1  0
 14 25  1  0
 16 10  1  0
 16 15  1  0
 17 10  2  0
 18 20  2  0
 18  9  1  0
 19 18  1  0
 21 19  1  0
 22 47  1  0
 22 23  1  0
 23 24  1  0
 23 42  1  0
 25 22  1  6
 25 26  1  0
 25  5  1  0
 26  5  1  0
 27 24  1  0
 27 28  1  0
 29 28  2  0
 30 29  1  0
 31 32  1  0
 31 30  2  0
 32 27  2  0
 33 30  1  0
 33 34  1  0
 34 39  2  0
 34 35  1  0
 35 36  2  0
 36 37  1  0
 37 41  1  0
 38 37  2  0
 39 38  1  0
 40 39  1  0
 42 43  1  0
 43 45  1  0
 43 46  1  0
 44 42  2  0
 47 48  1  0
 49 47  1  0
 50 51  1  0
 53 54  2  0
 57 68  2  0
 58 56  1  0
 58 63  1  0
 59 69  1  0
 60 66  1  0
 61 67  1  0
 62 60  1  0
 62 61  1  0
 63 62  2  0
 64 58  2  0
 64 65  1  0
 65 60  2  0
 66 59  1  0
 67 59  1  0
 67 57  1  0
 69 71  2  0
 69 70  1  0
 72 70  1  0
 73 82  1  0
 74 70  1  0
 74 78  1  0
 75 74  1  0
 76 75  1  0
 76 77  1  0
 77 73  1  0
 78 73  2  0
 78 79  1  0
 79 80  2  0
 80 81  1  0
 82 81  2  0
 83 84  1  0
 83 57  1  0
 83 93  1  0
 84 87  1  0
 85 89  1  0
 85 84  1  0
 86 85  2  0
 89 88  1  0
 91 90  1  0
 91 92  1  0
 91 89  1  0
 93 94  1  1
 95 93  1  0
 96 93  1  0
M  ISO  4  10 100  19 100  55 101  56 101
M  END
>  <TORSDO>  (8) 
F 21

>  <SCORE>  (8) 
2.167

>  <name>  (8) 
7

>  <ligand_id>  (8) 
7

>  <original_smiles>  (8) 
[H]c1c([H])c([H])c2c(c1[H])C([H])([H])C([H])([H])C([H])([H])C2([H])N([H])C(=O)C1([H])N(C(=O)C([H])(N([H])C(=O)C([H])(N([H])C([H])([H])[H])C([H])([H])[H])C(C([H])([H])[H])(C([H])([H])[H])C([H])([H])[H])C([H])([H])c2c([H])c(OC([H])([H])C(=O)C([H])([H])N([H])c3c([H])c(F)c([H])c([H])c3C([H])(C(=O)N([H])C(=O)N3C([H])([H])C([H])([H])C([H])([H])C([H])(n4nc(-c5c([H])c([H])c(Oc6c([H])c([H])c(F)c([H])c6F)c([H])c5[H])c(C(=O)N([H])[H])c4N([H])[H])C3([H])[H])C([H])([H])[H])c([H])c([H])c2C1([H])[H]

>  <smiles>  (8) 
[H]c1c([H])c([H])c2c(c1[H])C([H])([H])C([H])([H])C([H])([H])C2([H])N([H])C(=O)C1([H])N(C(=O)C([H])(N([H])C(=O)C([H])(N([H])C([H])([H])[H])C([H])([H])[H])C(C([H])([H])[H])(C([H])([H])[H])C([H])([H])[H])C([H])([H])c2c([H])c(OC([H])([H])C(=O)C([H])([H])N([H])c3c([H])c(F)c([H])c([H])c3C([H])(C(=O)N([H])C(=O)N3C([H])([H])C([H])([H])C([H])([H])C([H])(n4nc(-c5c([H])c([H])c(Oc6c([H])c([H])c(F)c([H])c6F)c([H])c5[H])c(C(=O)N([H])[H])c4N([H])[H])C3([H])[H])C([H])([H])[H])c([H])c([H])c2C1([H])[H]

$$$$
8:0:0
     RDKit          3D

 98106  0  0  1  0  0  0  0  0999 V2000
  -29.2210  -21.9220   19.5500 C   0  0  0  0  0  0  0  0  0  0  0  0
  -29.0280  -20.6850   20.0880 N   0  0  0  0  0  0  0  0  0  0  0  0
  -30.2970  -22.3170   19.0860 O   0  0  0  0  0  0  0  0  0  0  0  0
  -28.2690  -20.6310   20.7520 H   0  0  0  0  0  0  0  0  0  0  0  0
  -30.5660  -16.9400   18.6740 C   0  0  0  0  0  3  0  0  0  0  0  0
  -29.7550  -18.3110   20.5200 C   0  0  0  0  0  3  0  0  0  0  0  0
  -30.3610  -18.0180   17.7880 C   0  0  0  0  0  0  0  0  0  0  0  0
  -30.2590  -17.0520   20.0530 C   0  0  0  0  0  0  0  0  0  0  0  0
  -29.5870  -19.4310   19.6430 C   0  0  0  0  0  0  0  0  0  0  0  0
  -29.8560  -19.2400   18.2670 C   0  0  0  0  0  0  0  0  0  0  0  0
  -29.5830  -20.2220   17.3760 F   0  0  0  0  0  0  0  0  0  0  0  0
  -31.1310  -14.7850   20.6350 C   0  0  0  0  0  0  0  0  0  0  0  0
  -30.8790  -12.5920   19.5460 C   0  0  0  0  0  2  0  0  0  0  0  0
  -30.0070  -12.8060   18.2900 C   0  0  0  0  0  2  0  0  0  0  0  0
  -28.5030  -12.7550   18.6260 C   0  0  0  0  0  2  0  0  0  0  0  0
  -28.1260  -13.5650   19.8970 C   0  0  0  0  0  3  0  0  0  0  0  0
  -29.1170  -13.3110   21.0550 C   0  0  0  0  0  2  0  0  0  0  0  0
  -30.4670  -13.5930   20.5480 N   0  0  0  0  0  0  0  0  0  0  0  0
  -32.3110  -14.9060   20.2970 O   0  0  0  0  0  0  0  0  0  0  0  0
  -30.3770  -15.8870   20.9060 N   0  0  0  0  0  0  0  0  0  0  0  0
  -29.5960  -15.7250   21.5240 H   0  0  0  0  0  0  0  0  0  0  0  0
  -25.7110  -14.2220   20.4800 C   0  0  0  0  0  0  0  0  0  0  0  0
  -24.6030  -13.4710   20.7730 C   0  0  0  0  0  0  0  0  0  0  0  0
  -25.0320  -12.1070   20.7570 C   0  0  0  0  0  0  0  0  0  0  0  0
  -26.7430  -13.3160   20.2970 N   0  0  0  0  0  0  0  0  0  0  0  0
  -26.3360  -12.0390   20.5160 N   0  0  0  0  0  0  0  0  0  0  0  0
  -24.2630  -10.8620   20.8970 C   0  0  0  0  0  0  0  0  0  0  0  0
  -24.6190   -9.8780   21.8430 C   0  0  0  0  0  3  0  0  0  0  0  0
  -23.8550   -8.6960   21.9740 C   0  0  0  0  0  3  0  0  0  0  0  0
  -22.7220   -8.4910   21.1520 C   0  0  0  0  0  0  0  0  0  0  0  0
  -22.3860   -9.4660   20.1940 C   0  0  0  0  0  3  0  0  0  0  0  0
  -23.1490  -10.6370   20.0620 C   0  0  0  0  0  3  0  0  0  0  0  0
  -21.9360   -7.3650   21.1860 O   0  0  0  0  0  0  0  0  0  0  0  0
  -21.7850   -6.6300   22.3350 C   0  0  0  0  0  0  0  0  0  0  0  0
  -21.2810   -7.1980   23.5260 C   0  0  0  0  0  3  0  0  0  0  0  0
  -21.0810   -6.3890   24.6620 C   0  0  0  0  0  3  0  0  0  0  0  0
  -21.3730   -5.0130   24.6100 C   0  0  0  0  0  0  0  0  0  0  0  0
  -21.8730   -4.4440   23.4230 C   0  0  0  0  0  3  0  0  0  0  0  0
  -22.0760   -5.2510   22.2890 C   0  0  0  0  0  0  0  0  0  0  0  0
  -22.5410   -4.6930   21.1450 F   0  0  0  0  0  0  0  0  0  0  0  0
  -21.1720   -4.2340   25.6980 F   0  0  0  0  0  0  0  0  0  0  0  0
  -23.2060  -13.9790   20.9760 C   0  0  0  0  0  0  0  0  0  0  0  0
  -22.4220  -13.3030   21.8060 N   0  0  0  0  0  0  0  0  0  0  0  0
  -22.8190  -15.0150   20.4360 O   0  0  0  0  0  0  0  0  0  0  0  0
  -22.7560  -12.4710   22.2710 H   0  0  0  0  0  0  0  0  0  0  0  0
  -21.4810  -13.6260   21.9840 H   0  0  0  0  0  0  0  0  0  0  0  0
  -25.9280  -15.5880   20.3390 N   0  0  0  0  0  0  0  0  0  0  0  0
  -25.1880  -16.2770   20.4210 H   0  0  0  0  0  0  0  0  0  0  0  0
  -26.8320  -16.0010   20.1700 H   0  0  0  0  0  0  0  0  0  0  0  0
  -32.0120  -18.5270   15.9470 C   0  0  0  0  0  1  0  0  0  0  0  0
  -30.6780  -17.8670   16.3080 C   0  0  0  0  0  2  0  0  0  0  0  0
  -27.9760  -22.8240   19.5960 C   0  0  0  0  0  0  0  0  0  0  0  0
  -26.8340  -22.3590   19.9060 N   0  0  0  0  0  0  0  0  0  0  0  0
  -26.8740  -21.3660   20.1100 H   0  0  0  0  0  0  0  0  0  0  0  0
  -28.0530  -24.3200   19.1790 C   0  0  0  0  0  2  0  0  0  0  0  0
  -27.4320  -25.0910   21.6120 C   0  0  0  0  0  1  0  0  0  0  0  0
  -28.2640  -25.3540   20.3440 C   0  0  0  0  0  3  0  0  0  0  0  0
  -28.2360  -26.7700   20.0020 O   0  0  0  0  0  0  0  0  0  0  0  0
  -24.5240  -31.9610   23.2850 C   0  0  0  0  0  0  0  0  0  0  0  0
  -27.0600  -27.5030   20.0850 C   0  0  0  0  0  0  0  0  0  0  0  0
  -23.2690  -30.5770   21.6630 C   0  0  0  0  0  3  0  0  0  0  0  0
  -24.6790  -29.0430   20.1960 C   0  0  0  0  0  0  0  0  0  0  0  0
  -25.7970  -30.9160   21.4060 C   0  0  0  0  0  2  0  0  0  0  0  0
  -25.8600  -29.5490   20.7550 C   0  0  0  0  0  0  0  0  0  0  0  0
  -27.0570  -28.7880   20.6880 C   0  0  0  0  0  3  0  0  0  0  0  0
  -25.8500  -27.0200   19.5460 C   0  0  0  0  0  3  0  0  0  0  0  0
  -24.6710  -27.7780   19.5910 C   0  0  0  0  0  3  0  0  0  0  0  0
  -23.4420  -29.9060   20.2760 C   0  0  0  0  0  2  0  0  0  0  0  0
  -24.5510  -31.1630   22.1790 N   0  0  0  0  0  0  0  0  0  0  0  0
  -23.4550  -32.2390   23.8520 O   0  0  0  0  0  0  0  0  0  0  0  0
  -22.6300  -29.5580   22.6320 C   0  0  0  0  0  0  0  0  0  0  0  0
  -21.3090  -29.3570   22.5000 N   0  0  0  0  0  0  0  0  0  0  0  0
  -23.3170  -28.9540   23.4590 O   0  0  0  0  0  0  0  0  0  0  0  0
  -20.8220  -29.8860   21.7920 H   0  0  0  0  0  0  0  0  0  0  0  0
  -17.9600  -28.0780   22.9540 C   0  0  0  0  0  0  0  0  0  0  0  0
  -20.5010  -28.4170   23.2760 C   0  0  0  0  0  3  0  0  0  0  0  0
  -20.6590  -26.9750   22.7360 C   0  0  0  0  0  2  0  0  0  0  0  0
  -19.5910  -26.5970   21.7080 C   0  0  0  0  0  2  0  0  0  0  0  0
  -18.1910  -26.7190   22.3150 C   0  0  0  0  0  2  0  0  0  0  0  0
  -19.0440  -28.8830   23.3900 C   0  0  0  0  0  0  0  0  0  0  0  0
  -18.7760  -30.1540   23.9440 C   0  0  0  0  0  3  0  0  0  0  0  0
  -17.4530  -30.6190   24.0690 C   0  0  0  0  0  3  0  0  0  0  0  0
  -16.3820  -29.8110   23.6510 C   0  0  0  0  0  3  0  0  0  0  0  0
  -16.6350  -28.5420   23.0990 C   0  0  0  0  0  3  0  0  0  0  0  0
  -25.8260  -32.5760   23.8840 C   0  0  0  0  0  3  0  0  0  0  0  0
  -25.5470  -33.9830   24.2150 N   0  0  0  0  0  0  0  0  0  0  0  0
  -25.8900  -35.0250   23.4480 C   0  0  0  0  0  0  0  0  0  0  0  0
  -26.5410  -34.9040   22.4070 O   0  0  0  0  0  0  0  0  0  0  0  0
  -24.9600  -34.1500   25.0160 H   0  0  0  0  0  0  0  0  0  0  0  0
  -24.1830  -36.8440   23.1050 C   0  0  0  0  0  1  0  0  0  0  0  0
  -25.4280  -36.4240   23.9010 C   0  0  0  0  0  3  0  0  0  0  0  0
  -27.5840  -37.2810   24.7010 C   0  0  0  0  0  1  0  0  0  0  0  0
  -26.4740  -37.4610   23.7720 N   0  0  0  0  0  0  0  0  0  0  0  0
  -26.0850  -38.3880   23.9230 H   0  0  0  0  0  0  0  0  0  0  0  0
  -26.3550  -31.7990   25.1510 C   0  0  1  0  0  0  0  0  0  0  0  0
  -25.2730  -31.5640   26.2300 C   0  0  0  0  0  1  0  0  0  0  0  0
  -26.9240  -30.4190   24.7450 C   0  0  0  0  0  1  0  0  0  0  0  0
  -27.5210  -32.5800   25.8040 C   0  0  0  0  0  1  0  0  0  0  0  0
  1 52  1  0
  1  2  1  0
  2  4  1  0
  3  1  2  0
  5  8  1  0
  7 10  1  0
  7  5  2  0
  8  6  2  0
  8 20  1  0
  9  2  1  0
  9  6  1  0
 10  9  2  0
 11 10  1  0
 12 20  1  0
 13 18  1  0
 14 15  1  0
 14 13  1  0
 16 15  1  0
 16 25  1  0
 16 17  1  0
 18 12  1  0
 18 17  1  0
 19 12  2  0
 20 21  1  0
 22 23  2  0
 23 42  1  0
 24 23  1  0
 24 27  1  0
 25 22  1  0
 25 26  1  0
 26 24  2  0
 27 28  1  0
 28 29  2  0
 30 33  1  0
 30 29  1  0
 31 30  2  0
 32 31  1  0
 32 27  2  0
 33 34  1  0
 34 35  1  0
 35 36  2  0
 37 36  1  0
 37 41  1  0
 38 37  2  0
 39 34  2  0
 39 38  1  0
 40 39  1  0
 42 43  1  0
 43 46  1  0
 43 45  1  0
 44 42  2  0
 47 48  1  0
 47 22  1  0
 49 47  1  0
 50 51  1  0
 51  7  1  0
 52 53  2  0
 53 54  1  0
 55 52  1  0
 55 57  1  0
 57 56  1  0
 58 60  1  0
 58 57  1  0
 59 70  2  0
 60 65  1  0
 61 69  1  0
 61 71  1  0
 62 68  1  0
 62 64  1  0
 63 69  1  0
 64 63  1  0
 65 64  2  0
 66 67  1  0
 66 60  2  0
 67 62  2  0
 68 61  1  0
 69 59  1  0
 71 73  2  0
 72 71  1  0
 74 72  1  0
 75 84  2  0
 75 80  1  0
 76 72  1  0
 76 80  1  0
 77 76  1  0
 78 79  1  0
 78 77  1  0
 79 75  1  0
 80 81  2  0
 81 82  1  0
 83 82  2  0
 84 83  1  0
 85 59  1  0
 85 86  1  0
 85 95  1  0
 86 89  1  0
 87 91  1  0
 87 86  1  0
 88 87  2  0
 91 90  1  0
 93 91  1  0
 93 94  1  0
 93 92  1  0
 95 98  1  1
 95 96  1  0
 97 95  1  0
M  ISO  4  12 100  20 100  57 101  58 101
M  END
>  <TORSDO>  (9) 
F 21

>  <SCORE>  (9) 
-13.153

>  <name>  (9) 
8

>  <ligand_id>  (9) 
8

>  <original_smiles>  (9) 
[H]N=C(C(=O)N([H])c1c([H])c(N([H])C(=O)N2C([H])([H])C([H])([H])C([H])([H])C([H])(n3nc(-c4c([H])c([H])c(Oc5c([H])c([H])c(F)c([H])c5F)c([H])c4[H])c(C(=O)N([H])[H])c3N([H])[H])C2([H])[H])c([H])c(C([H])([H])C([H])([H])[H])c1F)C([H])([H])C([H])(Oc1c([H])c([H])c2c(c1[H])C([H])([H])N(C(=O)C([H])(N([H])C(=O)C([H])(N([H])C([H])([H])[H])C([H])([H])[H])C(C([H])([H])[H])(C([H])([H])[H])C([H])([H])[H])C([H])(C(=O)N([H])C1([H])c3c([H])c([H])c([H])c([H])c3C([H])([H])C([H])([H])C1([H])[H])C2([H])[H])C([H])([H])[H]

>  <smiles>  (9) 
[H]N=C(C(=O)N([H])c1c([H])c(N([H])C(=O)N2C([H])([H])C([H])([H])C([H])([H])C([H])(n3nc(-c4c([H])c([H])c(Oc5c([H])c([H])c(F)c([H])c5F)c([H])c4[H])c(C(=O)N([H])[H])c3N([H])[H])C2([H])[H])c([H])c(C([H])([H])C([H])([H])[H])c1F)C([H])([H])C([H])(Oc1c([H])c([H])c2c(c1[H])C([H])([H])N(C(=O)C([H])(N([H])C(=O)C([H])(N([H])C([H])([H])[H])C([H])([H])[H])C(C([H])([H])[H])(C([H])([H])[H])C([H])([H])[H])C([H])(C(=O)N([H])C1([H])c3c([H])c([H])c([H])c([H])c3C([H])([H])C([H])([H])C1([H])[H])C2([H])[H])C([H])([H])[H]

$$$$
9:0:0
     RDKit          3D

 94102  0  0  1  0  0  0  0  0999 V2000
  -30.6640  -21.0410   19.6660 C   0  0  0  0  0  0  0  0  0  0  0  0
  -29.7080  -21.9720   19.8330 N   0  0  0  0  0  0  0  0  0  0  0  0
  -31.7650  -21.3380   19.1820 O   0  0  0  0  0  0  0  0  0  0  0  0
  -28.8230  -21.6790   20.2300 H   0  0  0  0  0  0  0  0  0  0  0  0
  -28.9280  -17.6930   20.4380 C   0  0  0  0  0  3  0  0  0  0  0  0
  -31.3200  -17.5320   20.6600 C   0  0  0  0  0  3  0  0  0  0  0  0
  -30.0640  -16.8910   20.6850 C   0  0  0  0  0  0  0  0  0  0  0  0
  -29.0820  -19.0630   20.1340 C   0  0  0  0  0  0  0  0  0  0  0  0
  -30.3900  -19.6110   20.1090 C   0  0  0  0  0  0  0  0  0  0  0  0
  -31.4790  -18.8430   20.3820 N   0  0  0  0  0  0  0  0  0  0  0  0
  -27.9880  -19.8120   19.8490 F   0  0  0  0  0  0  0  0  0  0  0  0
  -30.6480  -14.4830   20.4600 C   0  0  0  0  0  0  0  0  0  0  0  0
  -30.3630  -12.3270   19.3080 C   0  0  0  0  0  2  0  0  0  0  0  0
  -29.4190  -12.5510   18.1070 C   0  0  0  0  0  2  0  0  0  0  0  0
  -27.9420  -12.4190   18.5340 C   0  0  0  0  0  2  0  0  0  0  0  0
  -27.6110  -13.2380   19.8100 C   0  0  0  0  0  3  0  0  0  0  0  0
  -28.6670  -12.9920   20.9130 C   0  0  0  0  0  2  0  0  0  0  0  0
  -29.9940  -13.2960   20.3490 N   0  0  0  0  0  0  0  0  0  0  0  0
  -31.7790  -14.6720   20.0050 O   0  0  0  0  0  0  0  0  0  0  0  0
  -29.9020  -15.4920   20.9530 N   0  0  0  0  0  0  0  0  0  0  0  0
  -28.9900  -15.2020   21.2740 H   0  0  0  0  0  0  0  0  0  0  0  0
  -25.2130  -13.8500   20.5140 C   0  0  0  0  0  0  0  0  0  0  0  0
  -24.1440  -13.0790   20.8890 C   0  0  0  0  0  0  0  0  0  0  0  0
  -24.6030  -11.7280   20.8620 C   0  0  0  0  0  0  0  0  0  0  0  0
  -26.2570  -12.9670   20.2870 N   0  0  0  0  0  0  0  0  0  0  0  0
  -25.8940  -11.6850   20.5520 N   0  0  0  0  0  0  0  0  0  0  0  0
  -23.8760  -10.4670   21.0560 C   0  0  0  0  0  0  0  0  0  0  0  0
  -24.3170   -9.4960   21.9820 C   0  0  0  0  0  3  0  0  0  0  0  0
  -23.5920   -8.3000   22.1640 C   0  0  0  0  0  3  0  0  0  0  0  0
  -22.4110   -8.0650   21.4190 C   0  0  0  0  0  0  0  0  0  0  0  0
  -21.9900   -9.0240   20.4820 C   0  0  0  0  0  3  0  0  0  0  0  0
  -22.7150  -10.2120   20.2990 C   0  0  0  0  0  3  0  0  0  0  0  0
  -21.6580   -6.9200   21.5100 O   0  0  0  0  0  0  0  0  0  0  0  0
  -21.6300   -6.1640   22.6560 C   0  0  0  0  0  0  0  0  0  0  0  0
  -21.2380   -6.7100   23.8970 C   0  0  0  0  0  3  0  0  0  0  0  0
  -21.1550   -5.8830   25.0350 C   0  0  0  0  0  3  0  0  0  0  0  0
  -21.4570   -4.5120   24.9320 C   0  0  0  0  0  0  0  0  0  0  0  0
  -21.8420   -3.9660   23.6960 C   0  0  0  0  0  3  0  0  0  0  0  0
  -21.9260   -4.7900   22.5600 C   0  0  0  0  0  0  0  0  0  0  0  0
  -22.2770   -4.2550   21.3660 F   0  0  0  0  0  0  0  0  0  0  0  0
  -21.3700   -3.7150   26.0230 F   0  0  0  0  0  0  0  0  0  0  0  0
  -22.7460  -13.5590   21.1580 C   0  0  0  0  0  0  0  0  0  0  0  0
  -22.0170  -12.8670   22.0260 N   0  0  0  0  0  0  0  0  0  0  0  0
  -22.3110  -14.5850   20.6360 O   0  0  0  0  0  0  0  0  0  0  0  0
  -22.3820  -12.0370   22.4710 H   0  0  0  0  0  0  0  0  0  0  0  0
  -21.0800  -13.1740   22.2500 H   0  0  0  0  0  0  0  0  0  0  0  0
  -25.3780  -15.2190   20.3260 N   0  0  0  0  0  0  0  0  0  0  0  0
  -24.6000  -15.8650   20.4000 H   0  0  0  0  0  0  0  0  0  0  0  0
  -26.2040  -15.6380   19.9220 H   0  0  0  0  0  0  0  0  0  0  0  0
  -29.8360  -23.3570   19.3490 C   0  0  0  0  0  2  0  0  0  0  0  0
  -28.7730  -24.3230   19.9030 C   0  0  0  0  0  0  0  0  0  0  0  0
  -28.0280  -24.0010   20.8360 O   0  0  0  0  0  0  0  0  0  0  0  0
  -28.6890  -25.7060   19.2240 C   0  0  0  0  0  2  0  0  0  0  0  0
  -28.4340  -26.7600   20.1680 O   0  0  0  0  0  0  0  0  0  0  0  0
  -24.5870  -31.8880   23.2440 C   0  0  0  0  0  0  0  0  0  0  0  0
  -27.2350  -27.4450   20.1490 C   0  0  0  0  0  0  0  0  0  0  0  0
  -23.3780  -30.4820   21.6060 C   0  0  0  0  0  3  0  0  0  0  0  0
  -24.8280  -28.9430   20.1790 C   0  0  0  0  0  0  0  0  0  0  0  0
  -25.9020  -30.8420   21.4030 C   0  0  0  0  0  2  0  0  0  0  0  0
  -25.9850  -29.4690   20.7640 C   0  0  0  0  0  0  0  0  0  0  0  0
  -27.1850  -28.7230   20.7530 C   0  0  0  0  0  3  0  0  0  0  0  0
  -26.0510  -26.9240   19.5770 C   0  0  0  0  0  3  0  0  0  0  0  0
  -24.8550  -27.6680   19.5870 C   0  0  0  0  0  3  0  0  0  0  0  0
  -23.5830  -29.8000   20.2260 C   0  0  0  0  0  2  0  0  0  0  0  0
  -24.6410  -31.0860   22.1420 N   0  0  0  0  0  0  0  0  0  0  0  0
  -23.5070  -32.1590   23.7870 O   0  0  0  0  0  0  0  0  0  0  0  0
  -22.7300  -29.4620   22.5690 C   0  0  0  0  0  0  0  0  0  0  0  0
  -21.4050  -29.2790   22.4430 N   0  0  0  0  0  0  0  0  0  0  0  0
  -23.4150  -28.8370   23.3830 O   0  0  0  0  0  0  0  0  0  0  0  0
  -20.9150  -29.8370   21.7580 H   0  0  0  0  0  0  0  0  0  0  0  0
  -18.0320  -28.0840   22.9360 C   0  0  0  0  0  0  0  0  0  0  0  0
  -20.5890  -28.3420   23.2120 C   0  0  0  0  0  3  0  0  0  0  0  0
  -20.6930  -26.9100   22.6380 C   0  0  0  0  0  2  0  0  0  0  0  0
  -19.5930  -26.5850   21.6220 C   0  0  0  0  0  2  0  0  0  0  0  0
  -18.2100  -26.7320   22.2640 C   0  0  0  0  0  2  0  0  0  0  0  0
  -19.1500  -28.8460   23.3660 C   0  0  0  0  0  0  0  0  0  0  0  0
  -18.9300  -30.1110   23.9530 C   0  0  0  0  0  3  0  0  0  0  0  0
  -17.6260  -30.6140   24.1140 C   0  0  0  0  0  3  0  0  0  0  0  0
  -16.5220  -29.8460   23.7010 C   0  0  0  0  0  3  0  0  0  0  0  0
  -16.7260  -28.5840   23.1180 C   0  0  0  0  0  3  0  0  0  0  0  0
  -25.8750  -32.5180   23.8620 C   0  0  0  0  0  3  0  0  0  0  0  0
  -26.3960  -31.7470   25.1360 C   0  0  1  0  0  0  0  0  0  0  0  0
  -25.3080  -31.5090   26.2090 C   0  0  0  0  0  1  0  0  0  0  0  0
  -26.9760  -30.3690   24.7380 C   0  0  0  0  0  1  0  0  0  0  0  0
  -27.5510  -32.5390   25.7920 C   0  0  0  0  0  1  0  0  0  0  0  0
  -25.5670  -33.9160   24.1910 N   0  0  0  0  0  0  0  0  0  0  0  0
  -25.9030  -34.9670   23.4310 C   0  0  0  0  0  0  0  0  0  0  0  0
  -26.5750  -34.8610   22.4010 O   0  0  0  0  0  0  0  0  0  0  0  0
  -24.9720  -34.0740   24.9910 H   0  0  0  0  0  0  0  0  0  0  0  0
  -24.1800  -36.7620   23.0660 C   0  0  0  0  0  1  0  0  0  0  0  0
  -25.4160  -36.3570   23.8840 C   0  0  0  0  0  3  0  0  0  0  0  0
  -27.5500  -37.2380   24.7230 C   0  0  0  0  0  1  0  0  0  0  0  0
  -26.4530  -37.4070   23.7730 N   0  0  0  0  0  0  0  0  0  0  0  0
  -26.0500  -38.3290   23.9120 H   0  0  0  0  0  0  0  0  0  0  0  0
  1  2  1  0
  1  9  1  0
  2  4  1  0
  3  1  2  0
  5  7  1  0
  6  7  2  0
  7 20  1  0
  8  5  2  0
  9  8  1  0
  9 10  2  0
 10  6  1  0
 11  8  1  0
 12 20  1  0
 13 18  1  0
 14 15  1  0
 14 13  1  0
 16 15  1  0
 16 25  1  0
 16 17  1  0
 18 12  1  0
 18 17  1  0
 19 12  2  0
 20 21  1  0
 22 23  2  0
 23 42  1  0
 24 23  1  0
 24 27  1  0
 25 22  1  0
 25 26  1  0
 26 24  2  0
 27 28  1  0
 28 29  2  0
 30 33  1  0
 30 29  1  0
 31 30  2  0
 32 31  1  0
 32 27  2  0
 33 34  1  0
 34 35  1  0
 35 36  2  0
 37 36  1  0
 37 41  1  0
 38 37  2  0
 39 34  2  0
 39 38  1  0
 40 39  1  0
 42 43  1  0
 43 46  1  0
 43 45  1  0
 44 42  2  0
 47 48  1  0
 47 22  1  0
 49 47  1  0
 50  2  1  0
 50 51  1  0
 51 52  2  0
 53 51  1  0
 53 54  1  0
 55 66  2  0
 56 54  1  0
 56 61  1  0
 57 65  1  0
 57 67  1  0
 58 64  1  0
 58 60  1  0
 59 65  1  0
 60 59  1  0
 61 60  2  0
 62 63  1  0
 62 56  2  0
 63 58  2  0
 64 57  1  0
 65 55  1  0
 67 69  2  0
 68 67  1  0
 70 68  1  0
 71 80  2  0
 71 76  1  0
 72 68  1  0
 72 76  1  0
 73 72  1  0
 74 75  1  0
 74 73  1  0
 75 71  1  0
 76 77  2  0
 77 78  1  0
 79 78  2  0
 80 79  1  0
 81 55  1  0
 81 86  1  0
 81 82  1  0
 82 85  1  1
 82 83  1  0
 84 82  1  0
 86 89  1  0
 87 91  1  0
 87 86  1  0
 88 87  2  0
 91 90  1  0
 93 91  1  0
 93 94  1  0
 93 92  1  0
M  ISO  4  12 100  20 100  53 101  54 101
M  END
>  <TORSDO>  (10) 
F 20

>  <SCORE>  (10) 
-14.124

>  <name>  (10) 
9

>  <ligand_id>  (10) 
9

>  <original_smiles>  (10) 
[H]c1nc(C(=O)N([H])C([H])([H])C(=O)C([H])([H])Oc2c([H])c([H])c3c(c2[H])C([H])([H])N(C(=O)C([H])(N([H])C(=O)C([H])(N([H])C([H])([H])[H])C([H])([H])[H])C(C([H])([H])[H])(C([H])([H])[H])C([H])([H])[H])C([H])(C(=O)N([H])C2([H])c4c([H])c([H])c([H])c([H])c4C([H])([H])C([H])([H])C2([H])[H])C3([H])[H])c(F)c([H])c1N([H])C(=O)N1C([H])([H])C([H])([H])C([H])([H])C([H])(n2nc(-c3c([H])c([H])c(Oc4c([H])c([H])c(F)c([H])c4F)c([H])c3[H])c(C(=O)N([H])[H])c2N([H])[H])C1([H])[H]

>  <smiles>  (10) 
[H]c1nc(C(=O)N([H])C([H])([H])C(=O)C([H])([H])Oc2c([H])c([H])c3c(c2[H])C([H])([H])N(C(=O)C([H])(N([H])C(=O)C([H])(N([H])C([H])([H])[H])C([H])([H])[H])C(C([H])([H])[H])(C([H])([H])[H])C([H])([H])[H])C([H])(C(=O)N([H])C2([H])c4c([H])c([H])c([H])c([H])c4C([H])([H])C([H])([H])C2([H])[H])C3([H])[H])c(F)c([H])c1N([H])C(=O)N1C([H])([H])C([H])([H])C([H])([H])C([H])(n2nc(-c3c([H])c([H])c(Oc4c([H])c([H])c(F)c([H])c4F)c([H])c3[H])c(C(=O)N([H])[H])c2N([H])[H])C1([H])[H]

$$$$
10:0:0
     RDKit          3D

 95103  0  0  1  0  0  0  0  0999 V2000
  -28.7800  -18.0410   20.8800 C   0  0  0  0  0  3  0  0  0  0  0  0
  -30.7200  -19.4430   19.6960 C   0  0  0  0  0  0  0  0  0  0  0  0
  -29.8860  -17.3120   20.3450 C   0  0  0  0  0  0  0  0  0  0  0  0
  -29.5960  -20.1730   20.2260 C   0  0  0  0  0  0  0  0  0  0  0  0
  -28.6370  -22.6060   20.4800 C   0  0  0  0  0  0  0  0  0  0  0  0
  -28.6360  -19.4080   20.8250 N   0  0  0  0  0  0  0  0  0  0  0  0
  -30.8530  -18.0690   19.7480 N   0  0  0  0  0  0  0  0  0  0  0  0
  -29.5460  -21.6470   20.0860 N   0  0  0  0  0  0  0  0  0  0  0  0
  -27.6070  -22.2990   21.0840 O   0  0  0  0  0  0  0  0  0  0  0  0
  -30.3310  -22.0590   19.6020 H   0  0  0  0  0  0  0  0  0  0  0  0
  -30.6500  -14.8010   20.0330 C   0  0  0  0  0  0  0  0  0  0  0  0
  -30.4250  -12.5590   18.9550 C   0  0  0  0  0  2  0  0  0  0  0  0
  -29.4120  -12.6760   17.7940 C   0  0  0  0  0  2  0  0  0  0  0  0
  -27.9670  -12.4890   18.3020 C   0  0  0  0  0  2  0  0  0  0  0  0
  -27.6690  -13.3320   19.5700 C   0  0  0  0  0  3  0  0  0  0  0  0
  -28.7890  -13.1790   20.6220 C   0  0  0  0  0  2  0  0  0  0  0  0
  -30.0560  -13.5610   19.9780 N   0  0  0  0  0  0  0  0  0  0  0  0
  -31.7910  -14.9650   19.5840 O   0  0  0  0  0  0  0  0  0  0  0  0
  -29.8520  -15.8400   20.4670 N   0  0  0  0  0  0  0  0  0  0  0  0
  -28.9950  -15.5000   20.8740 H   0  0  0  0  0  0  0  0  0  0  0  0
  -25.3250  -13.9050   20.4490 C   0  0  0  0  0  0  0  0  0  0  0  0
  -24.2810  -13.1210   20.8570 C   0  0  0  0  0  0  0  0  0  0  0  0
  -24.7380  -11.7710   20.7550 C   0  0  0  0  0  0  0  0  0  0  0  0
  -26.3510  -13.0330   20.1240 N   0  0  0  0  0  0  0  0  0  0  0  0
  -26.0070  -11.7420   20.3680 N   0  0  0  0  0  0  0  0  0  0  0  0
  -24.0220  -10.5030   20.9460 C   0  0  0  0  0  0  0  0  0  0  0  0
  -24.4570   -9.5430   21.8860 C   0  0  0  0  0  3  0  0  0  0  0  0
  -23.7400   -8.3400   22.0640 C   0  0  0  0  0  3  0  0  0  0  0  0
  -22.5740   -8.0880   21.3020 C   0  0  0  0  0  0  0  0  0  0  0  0
  -22.1590   -9.0380   20.3520 C   0  0  0  0  0  3  0  0  0  0  0  0
  -22.8760  -10.2310   20.1720 C   0  0  0  0  0  3  0  0  0  0  0  0
  -21.8300   -6.9370   21.3900 O   0  0  0  0  0  0  0  0  0  0  0  0
  -21.7050   -6.2490   22.5700 C   0  0  0  0  0  0  0  0  0  0  0  0
  -21.1120   -6.8290   23.7130 C   0  0  0  0  0  3  0  0  0  0  0  0
  -20.9420   -6.0630   24.8830 C   0  0  0  0  0  3  0  0  0  0  0  0
  -21.3530   -4.7160   24.9110 C   0  0  0  0  0  0  0  0  0  0  0  0
  -21.9390   -4.1360   23.7730 C   0  0  0  0  0  3  0  0  0  0  0  0
  -22.1120   -4.8990   22.6050 C   0  0  0  0  0  0  0  0  0  0  0  0
  -22.6570   -4.3280   21.5040 F   0  0  0  0  0  0  0  0  0  0  0  0
  -21.1830   -3.9780   26.0330 F   0  0  0  0  0  0  0  0  0  0  0  0
  -22.9030  -13.5890   21.2240 C   0  0  0  0  0  0  0  0  0  0  0  0
  -22.2190  -12.8580   22.0990 N   0  0  0  0  0  0  0  0  0  0  0  0
  -22.4420  -14.6370   20.7720 O   0  0  0  0  0  0  0  0  0  0  0  0
  -22.6050  -12.0100   22.4850 H   0  0  0  0  0  0  0  0  0  0  0  0
  -21.2970  -13.1520   22.3860 H   0  0  0  0  0  0  0  0  0  0  0  0
  -25.4800  -15.2800   20.3020 N   0  0  0  0  0  0  0  0  0  0  0  0
  -24.7080  -15.9210   20.4560 H   0  0  0  0  0  0  0  0  0  0  0  0
  -26.2720  -15.7200   19.8530 H   0  0  0  0  0  0  0  0  0  0  0  0
  -28.1460  -25.1030   20.4240 C   0  0  0  0  0  3  0  0  0  0  0  0
  -28.9770  -24.0360   20.1320 C   0  0  0  0  0  0  0  0  0  0  0  0
  -30.1420  -24.2770   19.5120 O   0  0  0  0  0  0  0  0  0  0  0  0
  -30.1900  -25.2150   19.3740 H   0  0  0  0  0  0  0  0  0  0  0  0
  -28.3560  -26.4850   20.1560 O   0  0  0  0  0  0  0  0  0  0  0  0
  -24.6370  -31.9320   23.1940 C   0  0  0  0  0  0  0  0  0  0  0  0
  -27.2500  -27.3590   20.1410 C   0  0  0  0  0  0  0  0  0  0  0  0
  -23.4280  -30.5170   21.5700 C   0  0  0  0  0  3  0  0  0  0  0  0
  -24.8780  -28.9680   20.1380 C   0  0  0  0  0  0  0  0  0  0  0  0
  -25.9650  -30.8470   21.3650 C   0  0  0  0  0  2  0  0  0  0  0  0
  -26.0490  -29.4630   20.7260 C   0  0  0  0  0  0  0  0  0  0  0  0
  -27.2380  -28.6690   20.7200 C   0  0  0  0  0  3  0  0  0  0  0  0
  -26.0590  -26.9260   19.5190 C   0  0  0  0  0  3  0  0  0  0  0  0
  -24.8850  -27.7050   19.5250 C   0  0  0  0  0  3  0  0  0  0  0  0
  -23.6360  -29.8370   20.1920 C   0  0  0  0  0  2  0  0  0  0  0  0
  -24.6960  -31.1170   22.0990 N   0  0  0  0  0  0  0  0  0  0  0  0
  -23.5560  -32.2050   23.7370 O   0  0  0  0  0  0  0  0  0  0  0  0
  -22.7790  -29.5020   22.5420 C   0  0  0  0  0  0  0  0  0  0  0  0
  -21.4570  -29.2990   22.4130 N   0  0  0  0  0  0  0  0  0  0  0  0
  -23.4650  -28.9000   23.3720 O   0  0  0  0  0  0  0  0  0  0  0  0
  -20.9620  -29.8390   21.7160 H   0  0  0  0  0  0  0  0  0  0  0  0
  -18.0950  -28.0710   22.9380 C   0  0  0  0  0  0  0  0  0  0  0  0
  -20.6520  -28.3570   23.1920 C   0  0  0  0  0  3  0  0  0  0  0  0
  -20.7660  -26.9240   22.6240 C   0  0  0  0  0  2  0  0  0  0  0  0
  -19.6610  -26.5850   21.6170 C   0  0  0  0  0  2  0  0  0  0  0  0
  -18.2810  -26.7190   22.2680 C   0  0  0  0  0  2  0  0  0  0  0  0
  -19.2070  -28.8460   23.3580 C   0  0  0  0  0  0  0  0  0  0  0  0
  -18.9780  -30.1090   23.9450 C   0  0  0  0  0  3  0  0  0  0  0  0
  -17.6690  -30.5970   24.1170 C   0  0  0  0  0  3  0  0  0  0  0  0
  -16.5710  -29.8180   23.7120 C   0  0  0  0  0  3  0  0  0  0  0  0
  -16.7850  -28.5570   23.1290 C   0  0  0  0  0  3  0  0  0  0  0  0
  -25.9210  -32.5750   23.8020 C   0  0  0  0  0  3  0  0  0  0  0  0
  -26.4630  -31.8030   25.0680 C   0  0  1  0  0  0  0  0  0  0  0  0
  -25.3830  -31.5380   26.1440 C   0  0  0  0  0  1  0  0  0  0  0  0
  -27.0670  -30.4400   24.6610 C   0  0  0  0  0  1  0  0  0  0  0  0
  -27.6040  -32.6130   25.7250 C   0  0  0  0  0  1  0  0  0  0  0  0
  -25.6000  -33.9680   24.1450 N   0  0  0  0  0  0  0  0  0  0  0  0
  -25.9130  -35.0300   23.3910 C   0  0  0  0  0  0  0  0  0  0  0  0
  -26.5730  -34.9410   22.3510 O   0  0  0  0  0  0  0  0  0  0  0  0
  -25.0130  -34.1110   24.9530 H   0  0  0  0  0  0  0  0  0  0  0  0
  -24.1820  -36.8230   23.0500 C   0  0  0  0  0  1  0  0  0  0  0  0
  -25.4180  -36.4120   23.8650 C   0  0  0  0  0  3  0  0  0  0  0  0
  -27.5340  -37.3030   24.7360 C   0  0  0  0  0  1  0  0  0  0  0  0
  -26.4480  -37.4690   23.7730 N   0  0  0  0  0  0  0  0  0  0  0  0
  -26.0360  -38.3870   23.9140 H   0  0  0  0  0  0  0  0  0  0  0  0
  -31.6700  -20.2030   17.4690 C   0  0  0  0  0  1  0  0  0  0  0  0
  -31.8660  -20.1520   18.9900 C   0  0  0  0  0  2  0  0  0  0  0  0
  2  7  2  0
  2  4  1  0
  3 19  1  0
  3  1  2  0
  4  6  2  0
  5  9  2  0
  6  1  1  0
  7  3  1  0
  8  4  1  0
  8  5  1  0
 10  8  1  0
 11 19  1  0
 12 17  1  0
 13 14  1  0
 13 12  1  0
 15 14  1  0
 15 24  1  0
 15 16  1  0
 17 11  1  0
 17 16  1  0
 18 11  2  0
 19 20  1  0
 21 22  2  0
 22 41  1  0
 23 22  1  0
 23 26  1  0
 24 25  1  0
 24 21  1  0
 25 23  2  0
 26 27  1  0
 27 28  2  0
 29 32  1  0
 29 28  1  0
 30 29  2  0
 31 30  1  0
 31 26  2  0
 32 33  1  0
 33 38  2  0
 33 34  1  0
 34 35  2  0
 35 36  1  0
 36 40  1  0
 37 36  2  0
 38 37  1  0
 39 38  1  0
 41 42  1  0
 42 45  1  0
 42 44  1  0
 43 41  2  0
 46 21  1  0
 46 47  1  0
 48 46  1  0
 50 49  2  0
 50  5  1  0
 51 50  1  0
 52 51  1  0
 53 49  1  0
 54 65  2  0
 55 53  1  0
 55 60  1  0
 56 64  1  0
 56 66  1  0
 57 63  1  0
 57 59  1  0
 58 64  1  0
 59 58  1  0
 60 59  2  0
 61 62  1  0
 61 55  2  0
 62 57  2  0
 63 56  1  0
 64 54  1  0
 66 68  2  0
 67 66  1  0
 69 67  1  0
 70 79  2  0
 70 75  1  0
 71 67  1  0
 71 75  1  0
 72 71  1  0
 73 74  1  0
 73 72  1  0
 74 70  1  0
 75 76  2  0
 76 77  1  0
 78 77  2  0
 79 78  1  0
 80 54  1  0
 80 85  1  0
 80 81  1  0
 81 84  1  1
 81 82  1  0
 83 81  1  0
 85 88  1  0
 86 90  1  0
 86 85  1  0
 87 86  2  0
 90 89  1  0
 92 90  1  0
 92 93  1  0
 92 91  1  0
 94 95  1  0
 95  2  1  0
M  ISO  4  11 100  19 100  49 101  53 101
M  END
>  <TORSDO>  (11) 
F 19

>  <SCORE>  (11) 
-14.275

>  <name>  (11) 
10

>  <ligand_id>  (11) 
10

>  <original_smiles>  (11) 
[H]OC(C(=O)N([H])c1nc([H])c(N([H])C(=O)N2C([H])([H])C([H])([H])C([H])([H])C([H])(n3nc(-c4c([H])c([H])c(Oc5c([H])c([H])c(F)c([H])c5F)c([H])c4[H])c(C(=O)N([H])[H])c3N([H])[H])C2([H])[H])nc1C([H])([H])C([H])([H])[H])=C([H])Oc1c([H])c([H])c2c(c1[H])C([H])([H])N(C(=O)C([H])(N([H])C(=O)C([H])(N([H])C([H])([H])[H])C([H])([H])[H])C(C([H])([H])[H])(C([H])([H])[H])C([H])([H])[H])C([H])(C(=O)N([H])C1([H])c3c([H])c([H])c([H])c([H])c3C([H])([H])C([H])([H])C1([H])[H])C2([H])[H]

>  <smiles>  (11) 
[H]OC(C(=O)N([H])c1nc([H])c(N([H])C(=O)N2C([H])([H])C([H])([H])C([H])([H])C([H])(n3nc(-c4c([H])c([H])c(Oc5c([H])c([H])c(F)c([H])c5F)c([H])c4[H])c(C(=O)N([H])[H])c3N([H])[H])C2([H])[H])nc1C([H])([H])C([H])([H])[H])=C([H])Oc1c([H])c([H])c2c(c1[H])C([H])([H])N(C(=O)C([H])(N([H])C(=O)C([H])(N([H])C([H])([H])[H])C([H])([H])[H])C(C([H])([H])[H])(C([H])([H])[H])C([H])([H])[H])C([H])(C(=O)N([H])C1([H])c3c([H])c([H])c([H])c([H])c3C([H])([H])C([H])([H])C1([H])[H])C2([H])[H]

$$$$
11:0:0
     RDKit          3D

100108  0  0  1  0  0  0  0  0999 V2000
  -29.2410  -23.0210   20.4570 C   0  0  0  0  0  0  0  0  0  0  0  0
  -28.8490  -21.7400   20.2120 N   0  0  0  0  0  0  0  0  0  0  0  0
  -30.3200  -23.2910   20.9880 O   0  0  0  0  0  0  0  0  0  0  0  0
  -27.9990  -21.6340   19.6740 H   0  0  0  0  0  0  0  0  0  0  0  0
  -30.4230  -20.4190   21.6270 C   0  0  0  0  0  3  0  0  0  0  0  0
  -29.4200  -19.2040   20.0140 C   0  0  0  0  0  0  0  0  0  0  0  0
  -29.5290  -20.5230   20.5980 C   0  0  0  0  0  0  0  0  0  0  0  0
  -30.3550  -18.4240   20.6760 C   0  0  0  0  0  0  0  0  0  0  0  0
  -30.9300  -19.1570   21.6800 O   0  0  0  0  0  0  0  0  0  0  0  0
  -28.6150  -18.6520   18.8930 C   0  0  0  0  0  0  0  0  0  0  0  0
  -27.7940  -19.6310   18.0690 C   0  0  0  0  0  1  0  0  0  0  0  0
  -28.5800  -17.4500   18.6180 O   0  0  0  0  0  0  0  0  0  0  0  0
  -31.0590  -17.0990   20.4100 C   0  0  0  0  0  2  0  0  0  0  0  0
  -30.9380  -14.6670   20.0780 C   0  0  0  0  0  0  0  0  0  0  0  0
  -30.5290  -12.4860   19.0070 C   0  0  0  0  0  2  0  0  0  0  0  0
  -29.5450  -12.6640   17.8340 C   0  0  0  0  0  2  0  0  0  0  0  0
  -28.0960  -12.5200   18.3350 C   0  0  0  0  0  2  0  0  0  0  0  0
  -27.8100  -13.3870   19.5910 C   0  0  0  0  0  3  0  0  0  0  0  0
  -28.9190  -13.2450   20.6590 C   0  0  0  0  0  2  0  0  0  0  0  0
  -30.2080  -13.5160   20.0120 N   0  0  0  0  0  0  0  0  0  0  0  0
  -32.0680  -14.7330   19.5900 O   0  0  0  0  0  0  0  0  0  0  0  0
  -30.3480  -15.8000   20.5280 N   0  0  0  0  0  0  0  0  0  0  0  0
  -29.4070  -15.7750   20.8900 H   0  0  0  0  0  0  0  0  0  0  0  0
  -25.4680  -13.9850   20.4590 C   0  0  0  0  0  0  0  0  0  0  0  0
  -24.4150  -13.2120   20.8630 C   0  0  0  0  0  0  0  0  0  0  0  0
  -24.8580  -11.8570   20.7660 C   0  0  0  0  0  0  0  0  0  0  0  0
  -26.4890  -13.1040   20.1430 N   0  0  0  0  0  0  0  0  0  0  0  0
  -26.1290  -11.8170   20.3870 N   0  0  0  0  0  0  0  0  0  0  0  0
  -24.1280  -10.5970   20.9570 C   0  0  0  0  0  0  0  0  0  0  0  0
  -24.5520   -9.6300   21.8950 C   0  0  0  0  0  3  0  0  0  0  0  0
  -23.8200   -8.4370   22.0750 C   0  0  0  0  0  3  0  0  0  0  0  0
  -22.6510   -8.1990   21.3140 C   0  0  0  0  0  0  0  0  0  0  0  0
  -22.2470   -9.1530   20.3640 C   0  0  0  0  0  3  0  0  0  0  0  0
  -22.9790  -10.3380   20.1830 C   0  0  0  0  0  3  0  0  0  0  0  0
  -21.8920   -7.0570   21.4030 O   0  0  0  0  0  0  0  0  0  0  0  0
  -21.7840   -6.3540   22.5740 C   0  0  0  0  0  0  0  0  0  0  0  0
  -21.2160   -6.9230   23.7350 C   0  0  0  0  0  3  0  0  0  0  0  0
  -21.0600   -6.1420   24.8980 C   0  0  0  0  0  3  0  0  0  0  0  0
  -21.4600   -4.7930   24.9000 C   0  0  0  0  0  0  0  0  0  0  0  0
  -22.0200   -4.2230   23.7430 C   0  0  0  0  0  3  0  0  0  0  0  0
  -22.1780   -5.0010   22.5830 C   0  0  0  0  0  0  0  0  0  0  0  0
  -22.6990   -4.4400   21.4650 F   0  0  0  0  0  0  0  0  0  0  0  0
  -21.3030   -4.0400   26.0140 F   0  0  0  0  0  0  0  0  0  0  0  0
  -23.0400  -13.6950   21.2270 C   0  0  0  0  0  0  0  0  0  0  0  0
  -22.3500  -12.9720   22.1020 N   0  0  0  0  0  0  0  0  0  0  0  0
  -22.5910  -14.7450   20.7710 O   0  0  0  0  0  0  0  0  0  0  0  0
  -22.7280  -12.1210   22.4900 H   0  0  0  0  0  0  0  0  0  0  0  0
  -21.4290  -13.2750   22.3900 H   0  0  0  0  0  0  0  0  0  0  0  0
  -25.6400  -15.3590   20.3120 N   0  0  0  0  0  0  0  0  0  0  0  0
  -24.8850  -16.0170   20.4680 H   0  0  0  0  0  0  0  0  0  0  0  0
  -26.4720  -15.7920   19.9340 H   0  0  0  0  0  0  0  0  0  0  0  0
  -28.2910  -24.1940   20.0660 C   0  0  0  0  0  2  0  0  0  0  0  0
  -28.0260  -25.4400   22.2880 C   0  0  0  0  0  0  0  0  0  0  0  0
  -28.2510  -25.4730   20.9430 C   0  0  0  0  0  0  0  0  0  0  0  0
  -28.0650  -26.6300   23.1630 C   0  0  0  0  0  0  0  0  0  0  0  0
  -26.8270  -26.9340   23.9990 C   0  0  0  0  0  1  0  0  0  0  0  0
  -29.0450  -27.3730   23.2520 O   0  0  0  0  0  0  0  0  0  0  0  0
  -27.7610  -24.2940   22.9330 O   0  0  0  0  0  0  0  0  0  0  0  0
  -27.7550  -23.6000   22.2920 H   0  0  0  0  0  0  0  0  0  0  0  0
  -28.4160  -26.6720   20.2370 O   0  0  0  0  0  0  0  0  0  0  0  0
  -24.6020  -31.9330   23.1560 C   0  0  0  0  0  0  0  0  0  0  0  0
  -27.2980  -27.4840   20.1250 C   0  0  0  0  0  0  0  0  0  0  0  0
  -23.4160  -30.5030   21.5230 C   0  0  0  0  0  3  0  0  0  0  0  0
  -24.8920  -28.9850   20.0940 C   0  0  0  0  0  0  0  0  0  0  0  0
  -25.9360  -30.9000   21.3170 C   0  0  0  0  0  2  0  0  0  0  0  0
  -26.0440  -29.5290   20.6750 C   0  0  0  0  0  0  0  0  0  0  0  0
  -27.2550  -28.7930   20.6710 C   0  0  0  0  0  3  0  0  0  0  0  0
  -26.1330  -26.9720   19.5170 C   0  0  0  0  0  3  0  0  0  0  0  0
  -24.9360  -27.7110   19.5020 C   0  0  0  0  0  3  0  0  0  0  0  0
  -23.6300  -29.8200   20.1440 C   0  0  0  0  0  2  0  0  0  0  0  0
  -24.6690  -31.1260   22.0580 N   0  0  0  0  0  0  0  0  0  0  0  0
  -23.5160  -32.1910   23.6960 O   0  0  0  0  0  0  0  0  0  0  0  0
  -22.7790  -29.4780   22.4910 C   0  0  0  0  0  0  0  0  0  0  0  0
  -21.4550  -29.2860   22.3760 N   0  0  0  0  0  0  0  0  0  0  0  0
  -23.4730  -28.8600   23.3010 O   0  0  0  0  0  0  0  0  0  0  0  0
  -20.9550  -29.8360   21.6910 H   0  0  0  0  0  0  0  0  0  0  0  0
  -18.0900  -28.0830   22.9160 C   0  0  0  0  0  0  0  0  0  0  0  0
  -20.6520  -28.3400   23.1520 C   0  0  0  0  0  3  0  0  0  0  0  0
  -20.7470  -26.9130   22.5620 C   0  0  0  0  0  2  0  0  0  0  0  0
  -19.6290  -26.5970   21.5640 C   0  0  0  0  0  2  0  0  0  0  0  0
  -18.2560  -26.7390   22.2290 C   0  0  0  0  0  2  0  0  0  0  0  0
  -19.2150  -28.8430   23.3340 C   0  0  0  0  0  0  0  0  0  0  0  0
  -19.0040  -30.1020   23.9350 C   0  0  0  0  0  3  0  0  0  0  0  0
  -17.7020  -30.6010   24.1260 C   0  0  0  0  0  3  0  0  0  0  0  0
  -16.5930  -29.8380   23.7250 C   0  0  0  0  0  3  0  0  0  0  0  0
  -16.7870  -28.5820   23.1230 C   0  0  0  0  0  3  0  0  0  0  0  0
  -25.8770  -32.5860   23.7710 C   0  0  0  0  0  3  0  0  0  0  0  0
  -25.5430  -33.9760   24.1070 N   0  0  0  0  0  0  0  0  0  0  0  0
  -25.8710  -35.0400   23.3640 C   0  0  0  0  0  0  0  0  0  0  0  0
  -26.5580  -34.9550   22.3410 O   0  0  0  0  0  0  0  0  0  0  0  0
  -24.9400  -34.1150   24.9050 H   0  0  0  0  0  0  0  0  0  0  0  0
  -24.1510  -36.8330   22.9720 C   0  0  0  0  0  1  0  0  0  0  0  0
  -25.3590  -36.4160   23.8280 C   0  0  0  0  0  3  0  0  0  0  0  0
  -27.4430  -37.3000   24.7760 C   0  0  0  0  0  1  0  0  0  0  0  0
  -26.3880  -37.4770   23.7820 N   0  0  0  0  0  0  0  0  0  0  0  0
  -25.9680  -38.3920   23.9200 H   0  0  0  0  0  0  0  0  0  0  0  0
  -26.4180  -31.8210   25.0410 C   0  0  1  0  0  0  0  0  0  0  0  0
  -25.3310  -31.5330   26.1020 C   0  0  0  0  0  1  0  0  0  0  0  0
  -27.0510  -30.4740   24.6290 C   0  0  0  0  0  1  0  0  0  0  0  0
  -27.5360  -32.6500   25.7160 C   0  0  0  0  0  1  0  0  0  0  0  0
  1  3  2  0
  2  1  1  0
  2  7  1  0
  4  2  1  0
  5  9  1  0
  6  7  1  0
  6  8  2  0
  7  5  2  0
  8  9  1  0
 10  6  1  0
 11 10  1  0
 12 10  2  0
 13 22  1  0
 13  8  1  0
 14 22  1  0
 15 20  1  0
 16 17  1  0
 16 15  1  0
 18 17  1  0
 18 27  1  0
 18 19  1  0
 20 14  1  0
 20 19  1  0
 21 14  2  0
 22 23  1  0
 24 25  2  0
 25 44  1  0
 26 25  1  0
 26 29  1  0
 27 28  1  0
 27 24  1  0
 28 26  2  0
 29 30  1  0
 30 31  2  0
 32 35  1  0
 32 31  1  0
 33 32  2  0
 34 33  1  0
 34 29  2  0
 35 36  1  0
 36 41  2  0
 36 37  1  0
 37 38  2  0
 38 39  1  0
 39 43  1  0
 40 39  2  0
 41 40  1  0
 42 41  1  0
 44 45  1  0
 45 48  1  0
 45 47  1  0
 46 44  2  0
 49 24  1  0
 49 50  1  0
 51 49  1  0
 52  1  1  0
 52 54  1  0
 53 58  1  0
 53 55  1  0
 54 53  2  0
 55 57  2  0
 55 56  1  0
 59 58  1  0
 60 54  1  0
 61 72  2  0
 62 60  1  0
 62 67  1  0
 63 71  1  0
 63 73  1  0
 64 70  1  0
 64 66  1  0
 65 71  1  0
 66 65  1  0
 67 66  2  0
 68 62  2  0
 69 68  1  0
 69 64  2  0
 70 63  1  0
 71 61  1  0
 73 75  2  0
 74 73  1  0
 76 74  1  0
 77 86  2  0
 77 82  1  0
 78 74  1  0
 78 82  1  0
 79 78  1  0
 80 81  1  0
 80 79  1  0
 81 77  1  0
 82 83  2  0
 83 84  1  0
 85 84  2  0
 86 85  1  0
 87 61  1  0
 87 88  1  0
 87 97  1  0
 88 91  1  0
 89 93  1  0
 89 88  1  0
 90 89  2  0
 93 92  1  0
 95 93  1  0
 95 96  1  0
 95 94  1  0
 97100  1  1
 97 98  1  0
 99 97  1  0
M  ISO  4  14 100  22 100  54 101  60 101
M  END
>  <TORSDO>  (12) 
F 23

>  <SCORE>  (12) 
-13.376

>  <name>  (12) 
11

>  <ligand_id>  (12) 
11

>  <original_smiles>  (12) 
[H]OC(C(=O)C([H])([H])[H])=C(Oc1c([H])c([H])c2c(c1[H])C([H])([H])N(C(=O)C([H])(N([H])C(=O)C([H])(N([H])C([H])([H])[H])C([H])([H])[H])C(C([H])([H])[H])(C([H])([H])[H])C([H])([H])[H])C([H])(C(=O)N([H])C1([H])c3c([H])c([H])c([H])c([H])c3C([H])([H])C([H])([H])C1([H])[H])C2([H])[H])C([H])([H])C(=O)N([H])c1c([H])oc(C([H])([H])N([H])C(=O)N2C([H])([H])C([H])([H])C([H])([H])C([H])(n3nc(-c4c([H])c([H])c(Oc5c([H])c([H])c(F)c([H])c5F)c([H])c4[H])c(C(=O)N([H])[H])c3N([H])[H])C2([H])[H])c1C(=O)C([H])([H])[H]

>  <smiles>  (12) 
[H]OC(C(=O)C([H])([H])[H])=C(Oc1c([H])c([H])c2c(c1[H])C([H])([H])N(C(=O)C([H])(N([H])C(=O)C([H])(N([H])C([H])([H])[H])C([H])([H])[H])C(C([H])([H])[H])(C([H])([H])[H])C([H])([H])[H])C([H])(C(=O)N([H])C1([H])c3c([H])c([H])c([H])c([H])c3C([H])([H])C([H])([H])C1([H])[H])C2([H])[H])C([H])([H])C(=O)N([H])c1c([H])oc(C([H])([H])N([H])C(=O)N2C([H])([H])C([H])([H])C([H])([H])C([H])(n3nc(-c4c([H])c([H])c(Oc5c([H])c([H])c(F)c([H])c5F)c([H])c4[H])c(C(=O)N([H])[H])c3N([H])[H])C2([H])[H])c1C(=O)C([H])([H])[H]

$$$$
12:0:0
     RDKit          3D

 94103  0  0  1  0  0  0  0  0999 V2000
  -24.9380  -23.1140   20.4930 C   0  0  0  0  0  0  0  0  0  0  0  0
  -25.4450  -21.7600   20.6290 N   0  0  0  0  0  0  0  0  0  0  0  0
  -23.7730  -23.1630   20.1700 O   0  0  0  0  0  0  0  0  0  0  0  0
  -24.7010  -21.0030   20.7960 H   0  0  0  0  0  0  0  0  0  0  0  0
  -26.6250  -20.9870   20.1820 C   0  0  0  0  0  2  0  0  0  0  0  0
  -27.6630  -18.5530   19.8600 C   0  0  0  0  0  3  0  0  0  0  0  0
  -25.2360  -18.9070   19.7010 C   0  0  0  0  0  3  0  0  0  0  0  0
  -26.3100  -16.6120   19.5750 C   0  0  0  0  0  0  0  0  0  0  0  0
  -26.4840  -19.4420   19.9630 C   0  0  0  0  0  0  0  0  0  0  0  0
  -27.6960  -17.0930   19.6780 C   0  0  0  0  0  0  0  0  0  0  0  0
  -25.1670  -17.5240   19.5440 C   0  0  0  0  0  0  0  0  0  0  0  0
  -23.9190  -17.0090   19.4380 F   0  0  0  0  0  0  0  0  0  0  0  0
  -30.2840  -15.8120   20.1490 C   0  0  0  0  0  0  0  0  0  0  0  0
  -31.4440  -13.5540   20.3700 C   0  0  0  0  0  2  0  0  0  0  0  0
  -30.9260  -12.4220   19.4700 C   0  0  0  0  0  2  0  0  0  0  0  0
  -29.5250  -11.8980   19.8730 C   0  0  0  0  0  2  0  0  0  0  0  0
  -28.5990  -13.0950   20.2030 C   0  0  0  0  0  3  0  0  0  0  0  0
  -29.2070  -13.9220   21.3230 C   0  0  0  0  0  2  0  0  0  0  0  0
  -30.3620  -14.5320   20.6780 N   0  0  0  0  0  0  0  0  0  0  0  0
  -31.4380  -16.3140   19.8410 O   0  0  0  0  0  0  0  0  0  0  0  0
  -29.0180  -16.2540   19.5240 N   0  0  0  0  0  0  0  0  0  0  0  0
  -29.1360  -16.1290   18.5420 H   0  0  0  0  0  0  0  0  0  0  0  0
  -26.1820  -13.5930   20.7610 C   0  0  0  0  0  0  0  0  0  0  0  0
  -25.1600  -12.7600   21.1730 C   0  0  0  0  0  0  0  0  0  0  0  0
  -25.7240  -11.4700   21.2480 C   0  0  0  0  0  0  0  0  0  0  0  0
  -27.2680  -12.7530   20.6190 N   0  0  0  0  0  0  0  0  0  0  0  0
  -27.0160  -11.4820   20.9770 N   0  0  0  0  0  0  0  0  0  0  0  0
  -25.0920  -10.1740   21.4730 C   0  0  0  0  0  0  0  0  0  0  0  0
  -25.1770   -9.5150   22.7150 C   0  0  0  0  0  3  0  0  0  0  0  0
  -24.5340   -8.2720   22.8890 C   0  0  0  0  0  3  0  0  0  0  0  0
  -23.8020   -7.7040   21.8200 C   0  0  0  0  0  0  0  0  0  0  0  0
  -23.7540   -8.3560   20.5790 C   0  0  0  0  0  3  0  0  0  0  0  0
  -24.4000   -9.5860   20.3990 C   0  0  0  0  0  3  0  0  0  0  0  0
  -23.1490   -6.4990   21.8970 O   0  0  0  0  0  0  0  0  0  0  0  0
  -22.2650   -6.2290   22.9090 C   0  0  0  0  0  0  0  0  0  0  0  0
  -21.1770   -7.0840   23.1920 C   0  0  0  0  0  3  0  0  0  0  0  0
  -20.2540   -6.7340   24.1960 C   0  0  0  0  0  3  0  0  0  0  0  0
  -20.4080   -5.5280   24.9060 C   0  0  0  0  0  0  0  0  0  0  0  0
  -21.4910   -4.6760   24.6220 C   0  0  0  0  0  3  0  0  0  0  0  0
  -22.4150   -5.0260   23.6240 C   0  0  0  0  0  0  0  0  0  0  0  0
  -23.4490   -4.1970   23.3370 F   0  0  0  0  0  0  0  0  0  0  0  0
  -19.5150   -5.1800   25.8600 F   0  0  0  0  0  0  0  0  0  0  0  0
  -23.7330  -13.1980   21.3660 C   0  0  0  0  0  0  0  0  0  0  0  0
  -23.0120  -12.4830   22.2470 N   0  0  0  0  0  0  0  0  0  0  0  0
  -23.2650  -14.1690   20.8080 O   0  0  0  0  0  0  0  0  0  0  0  0
  -23.4030  -11.6970   22.7290 H   0  0  0  0  0  0  0  0  0  0  0  0
  -22.0580  -12.7520   22.4320 H   0  0  0  0  0  0  0  0  0  0  0  0
  -26.2270  -14.9330   20.4990 N   0  0  0  0  0  4  0  0  0  0  0  0
  -25.4040  -15.4620   20.7730 H   0  0  0  0  0  0  0  0  0  0  0  0
  -27.0720  -15.4920   20.4310 H   0  0  0  0  0  0  0  0  0  0  0  0
  -25.5060  -24.6730   20.7500 C   0  0  0  0  0  2  0  0  0  0  0  0
  -27.7760  -24.6360   19.7230 C   0  0  0  0  0  1  0  0  0  0  0  0
  -26.5050  -25.5620   19.7850 C   0  0  0  0  0  3  0  0  0  0  0  0
  -26.8930  -27.1820   19.7320 O   0  0  0  0  0  0  0  0  0  0  0  0
  -27.8590  -31.7130   25.0400 C   0  0  0  0  0  0  0  0  0  0  0  0
  -26.1590  -28.2290   20.2390 C   0  0  0  0  0  3  0  0  0  0  0  0
  -25.9960  -30.1510   24.8360 C   0  0  0  0  0  3  0  0  0  0  0  0
  -25.3020  -29.4490   22.5240 C   0  0  0  0  0  3  0  0  0  0  0  0
  -26.9240  -31.2420   22.7300 C   0  0  0  0  0  2  0  0  0  0  0  0
  -26.3810  -30.0720   21.8960 C   0  0  0  0  0  0  0  0  0  0  0  0
  -26.8170  -29.4120   20.7000 C   0  0  0  0  0  3  0  0  0  0  0  0
  -24.8280  -27.9890   20.6470 C   0  0  0  0  0  2  0  0  0  0  0  0
  -24.4850  -28.6070   21.8410 C   0  0  0  0  0  2  0  0  0  0  0  0
  -24.9150  -29.6680   23.9240 C   0  0  0  0  0  2  0  0  0  0  0  0
  -27.0630  -31.0150   24.1990 N   0  0  0  0  0  0  0  0  0  0  0  0
  -27.7860  -31.5550   26.2680 O   0  0  0  0  0  0  0  0  0  0  0  0
  -26.6060  -28.9310   25.5880 C   0  0  0  0  0  0  0  0  0  0  0  0
  -26.3660  -28.8130   26.8980 N   0  0  0  0  0  0  0  0  0  0  0  0
  -27.1680  -28.0690   24.8790 O   0  0  0  0  0  0  0  0  0  0  0  0
  -25.7130  -29.5090   27.3690 H   0  0  0  0  0  0  0  0  0  0  0  0
  -26.5720  -27.3720   30.2010 C   0  0  0  0  0  0  0  0  0  0  0  0
  -26.7610  -27.5380   27.6050 C   0  0  0  0  0  3  0  0  0  0  0  0
  -25.7940  -26.3370   27.5840 C   0  0  0  0  0  2  0  0  0  0  0  0
  -24.5790  -26.5070   28.6070 C   0  0  0  0  0  2  0  0  0  0  0  0
  -25.2370  -26.5730   30.0480 C   0  0  0  0  0  2  0  0  0  0  0  0
  -27.2110  -27.9060   29.0230 C   0  0  0  0  0  0  0  0  0  0  0  0
  -28.3420  -28.8220   29.1590 C   0  0  0  0  0  3  0  0  0  0  0  0
  -28.8320  -29.1930   30.4140 C   0  0  0  0  0  3  0  0  0  0  0  0
  -28.2860  -28.5730   31.5780 C   0  0  0  0  0  3  0  0  0  0  0  0
  -27.1810  -27.6570   31.5010 C   0  0  0  0  0  3  0  0  0  0  0  0
  -28.8480  -32.7270   24.4570 C   0  0  0  0  0  3  0  0  0  0  0  0
  -30.0840  -31.9880   23.8280 C   0  0  1  0  0  0  0  0  0  0  0  0
  -30.9630  -31.2570   24.8820 C   0  0  0  0  0  1  0  0  0  0  0  0
  -29.6230  -30.9480   22.7710 C   0  0  0  0  0  1  0  0  0  0  0  0
  -30.9210  -33.0250   23.0700 C   0  0  0  0  0  1  0  0  0  0  0  0
  -29.1990  -33.6750   25.5300 N   0  0  0  0  0  0  0  0  0  0  0  0
  -28.5250  -34.8000   25.7720 C   0  0  0  0  0  0  0  0  0  0  0  0
  -27.5560  -35.1610   25.0970 O   0  0  0  0  0  0  0  0  0  0  0  0
  -29.8950  -33.3910   26.2100 H   0  0  0  0  0  0  0  0  0  0  0  0
  -28.3460  -35.1890   28.2440 C   0  0  0  0  0  1  0  0  0  0  0  0
  -29.0050  -35.6760   26.9480 C   0  0  0  0  0  3  0  0  0  0  0  0
  -29.5420  -37.7150   25.6920 C   0  0  0  0  0  1  0  0  0  0  0  0
  -28.7500  -37.1190   26.7640 N   0  0  0  0  0  0  0  0  0  0  0  0
  -28.9460  -37.6340   27.6200 H   0  0  0  0  0  0  0  0  0  0  0  0
  1  2  1  0
  1 51  1  0
  2  4  1  0
  3  1  2  0
  5  2  1  0
  6  9  1  0
  7  9  2  0
  8 10  1  0
  8 48  1  0
  9  5  1  0
 10  6  2  0
 11  8  2  0
 11  7  1  0
 12 11  1  0
 13 19  1  0
 14 19  1  0
 15 16  1  0
 15 14  1  0
 17 16  1  0
 17 26  1  0
 17 18  1  0
 19 18  1  0
 20 13  2  0
 21 10  1  0
 21 13  1  0
 22 21  1  0
 23 24  2  0
 24 25  1  0
 24 43  1  0
 25 28  1  0
 26 23  1  0
 26 27  1  0
 27 25  2  0
 28 29  1  0
 29 30  2  0
 31 34  1  0
 31 30  1  0
 32 31  2  0
 33 32  1  0
 33 28  2  0
 34 35  1  0
 35 36  2  0
 35 40  1  0
 36 37  1  0
 37 38  2  0
 38 42  1  0
 39 38  1  0
 40 39  2  0
 41 40  1  0
 43 44  1  0
 44 47  1  0
 44 46  1  0
 45 43  2  0
 48 23  1  0
 48 49  1  0
 50 48  1  0
 53 52  1  0
 53 51  1  0
 54 53  1  0
 55 66  2  0
 56 54  1  0
 56 62  1  0
 56 61  1  0
 57 67  1  0
 58 63  1  0
 58 64  1  0
 59 65  1  0
 60 58  1  0
 60 59  1  0
 61 60  2  0
 62 63  1  0
 64 57  1  0
 65 57  1  0
 65 55  1  0
 67 68  1  0
 68 70  1  0
 69 67  2  0
 71 80  1  0
 72 68  1  0
 72 76  1  0
 73 72  1  0
 73 74  1  0
 74 75  1  0
 75 71  1  0
 76 77  1  0
 76 71  2  0
 77 78  2  0
 78 79  1  0
 80 79  2  0
 81 55  1  0
 81 86  1  0
 82 81  1  0
 82 83  1  1
 84 82  1  0
 85 82  1  0
 86 87  1  0
 86 89  1  0
 87 91  1  0
 88 87  2  0
 91 90  1  0
 92 93  1  0
 93 91  1  0
 93 94  1  0
M  ISO  4  13 100  21 100  53 101  54 101
M  END
>  <TORSDO>  (13) 
F 20

>  <SCORE>  (13) 
-3.275

>  <name>  (13) 
12

>  <ligand_id>  (13) 
12

>  <original_smiles>  (13) 
[H]c1c([H])c([H])c2c(c1[H])C([H])([H])C([H])([H])C([H])([H])C2([H])N([H])C(=O)C1([H])N(C(=O)C([H])(N([H])C(=O)C([H])(N([H])C([H])([H])[H])C([H])([H])[H])C(C([H])([H])[H])(C([H])([H])[H])C([H])([H])[H])C([H])([H])c2c([H])c(OC([H])(C([H])([H])[H])C([H])([H])C(=O)N([H])C([H])([H])c3c([H])c(F)c([H])c(N([H])C(=O)N4C([H])([H])C([H])([H])C([H])([H])C([H])(n5nc(-c6c([H])c([H])c(Oc7c([H])c([H])c(F)c([H])c7F)c([H])c6[H])c(C(=O)N([H])[H])c5N([H])[H])C4([H])[H])c3[H])c([H])c([H])c2C1([H])[H]

>  <smiles>  (13) 
[H]c1c([H])c([H])c2c(c1[H])C([H])([H])C([H])([H])C([H])([H])C2([H])N([H])C(=O)C1([H])N(C(=O)C([H])(N([H])C(=O)C([H])(N([H])C([H])([H])[H])C([H])([H])[H])C(C([H])([H])[H])(C([H])([H])[H])C([H])([H])[H])C([H])([H])c2c([H])c(OC([H])(C([H])([H])[H])C([H])([H])C(=O)N([H])C([H])([H])c3c([H])c(F)c([H])c(N([H])C(=O)N4C([H])([H])C([H])([H])C([H])([H])C([H])(n5nc(-c6c([H])c([H])c(Oc7c([H])c([H])c(F)c([H])c7F)c([H])c6[H])c(C(=O)N([H])[H])c5N([H])[H])C4([H])[H])c3[H])c([H])c([H])c2C1([H])[H]

$$$$
13:0:0
     RDKit          3D

 94102  0  0  1  0  0  0  0  0999 V2000
  -29.6650  -20.6480   21.8020 C   0  0  0  0  0  3  0  0  0  0  0  0
  -29.3710  -19.6710   19.8180 C   0  0  0  0  0  0  0  0  0  0  0  0
  -29.2040  -20.9330   20.5470 C   0  0  0  0  0  0  0  0  0  0  0  0
  -29.9660  -18.7220   20.6740 C   0  0  0  0  0  0  0  0  0  0  0  0
  -30.1250  -19.3470   21.8890 O   0  0  0  0  0  0  0  0  0  0  0  0
  -29.0420  -19.3150   18.4080 C   0  0  0  0  0  0  0  0  0  0  0  0
  -29.2160  -18.1820   17.9500 O   0  0  0  0  0  0  0  0  0  0  0  0
  -28.0300  -19.9390   16.1210 C   0  0  0  0  0  1  0  0  0  0  0  0
  -28.4480  -20.4190   17.5230 C   0  0  0  0  0  2  0  0  0  0  0  0
  -28.5350  -22.1700   20.1700 N   0  0  0  0  0  0  0  0  0  0  0  0
  -27.5450  -22.1730   20.4060 H   0  0  0  0  0  0  0  0  0  0  0  0
  -29.0790  -23.5890   20.0830 C   0  0  0  0  0  2  0  0  0  0  0  0
  -27.7260  -24.7930   21.8980 C   0  0  0  0  0  1  0  0  0  0  0  0
  -28.0300  -24.7980   20.3890 C   0  0  0  0  0  3  0  0  0  0  0  0
  -28.2840  -26.2490   20.0290 O   0  0  0  0  0  0  0  0  0  0  0  0
  -24.4400  -31.5990   23.1290 C   0  0  0  0  0  0  0  0  0  0  0  0
  -27.1820  -27.1410   19.9830 C   0  0  0  0  0  0  0  0  0  0  0  0
  -23.2880  -30.2120   21.4450 C   0  0  0  0  0  3  0  0  0  0  0  0
  -24.7900  -28.7400   19.9840 C   0  0  0  0  0  0  0  0  0  0  0  0
  -25.8250  -30.5880   21.2940 C   0  0  0  0  0  2  0  0  0  0  0  0
  -25.9470  -29.2280   20.6080 C   0  0  0  0  0  0  0  0  0  0  0  0
  -27.1480  -28.4420   20.5960 C   0  0  0  0  0  3  0  0  0  0  0  0
  -26.0060  -26.7390   19.3100 C   0  0  0  0  0  3  0  0  0  0  0  0
  -24.8260  -27.5060   19.3210 C   0  0  0  0  0  3  0  0  0  0  0  0
  -23.5320  -29.5840   20.0490 C   0  0  0  0  0  2  0  0  0  0  0  0
  -24.5360  -30.8160   22.0130 N   0  0  0  0  0  0  0  0  0  0  0  0
  -23.3450  -31.8360   23.6600 O   0  0  0  0  0  0  0  0  0  0  0  0
  -22.6450  -29.1530   22.3720 C   0  0  0  0  0  0  0  0  0  0  0  0
  -21.3240  -28.9480   22.2320 N   0  0  0  0  0  0  0  0  0  0  0  0
  -23.3320  -28.5210   23.1790 O   0  0  0  0  0  0  0  0  0  0  0  0
  -20.8270  -29.5190   21.5620 H   0  0  0  0  0  0  0  0  0  0  0  0
  -17.9690  -27.6710   22.7040 C   0  0  0  0  0  0  0  0  0  0  0  0
  -20.5240  -27.9630   22.9630 C   0  0  0  0  0  3  0  0  0  0  0  0
  -20.6460  -26.5600   22.3270 C   0  0  0  0  0  2  0  0  0  0  0  0
  -19.5350  -26.2510   21.3180 C   0  0  0  0  0  2  0  0  0  0  0  0
  -18.1610  -26.3480   21.9840 C   0  0  0  0  0  2  0  0  0  0  0  0
  -19.0770  -28.4350   23.1530 C   0  0  0  0  0  0  0  0  0  0  0  0
  -18.8410  -29.6720   23.7930 C   0  0  0  0  0  3  0  0  0  0  0  0
  -17.5290  -30.1430   23.9870 C   0  0  0  0  0  3  0  0  0  0  0  0
  -16.4340  -29.3760   23.5500 C   0  0  0  0  0  3  0  0  0  0  0  0
  -16.6550  -28.1400   22.9160 C   0  0  0  0  0  3  0  0  0  0  0  0
  -25.7000  -32.2480   23.7800 C   0  0  0  0  0  3  0  0  0  0  0  0
  -25.3570  -33.6380   24.1190 N   0  0  0  0  0  0  0  0  0  0  0  0
  -25.6780  -34.7040   23.3750 C   0  0  0  0  0  0  0  0  0  0  0  0
  -26.3610  -34.6230   22.3500 O   0  0  0  0  0  0  0  0  0  0  0  0
  -24.7510  -33.7730   24.9140 H   0  0  0  0  0  0  0  0  0  0  0  0
  -23.9340  -36.4780   23.0000 C   0  0  0  0  0  1  0  0  0  0  0  0
  -25.1590  -36.0790   23.8380 C   0  0  0  0  0  3  0  0  0  0  0  0
  -27.2470  -36.9930   24.7550 C   0  0  0  0  0  1  0  0  0  0  0  0
  -26.1800  -37.1480   23.7690 N   0  0  0  0  0  0  0  0  0  0  0  0
  -25.7570  -38.0620   23.9000 H   0  0  0  0  0  0  0  0  0  0  0  0
  -26.2030  -31.4760   25.0610 C   0  0  1  0  0  0  0  0  0  0  0  0
  -25.0920  -31.2080   26.1040 C   0  0  0  0  0  1  0  0  0  0  0  0
  -26.8200  -30.1120   24.6710 C   0  0  0  0  0  1  0  0  0  0  0  0
  -27.3250  -32.2860   25.7510 C   0  0  0  0  0  1  0  0  0  0  0  0
  -30.7100  -17.3210   20.5260 C   0  0  0  0  0  2  0  0  0  0  0  0
  -30.8230  -14.7410   20.6420 C   0  0  0  0  0  0  0  0  0  0  0  0
  -30.5730  -12.5110   19.5510 C   0  0  0  0  0  2  0  0  0  0  0  0
  -29.6890  -12.6530   18.2920 C   0  0  0  0  0  2  0  0  0  0  0  0
  -28.1990  -12.5100   18.6600 C   0  0  0  0  0  2  0  0  0  0  0  0
  -27.8030  -13.3630   19.8970 C   0  0  0  0  0  3  0  0  0  0  0  0
  -28.8180  -13.2190   21.0520 C   0  0  0  0  0  2  0  0  0  0  0  0
  -30.1410  -13.5520   20.5140 N   0  0  0  0  0  0  0  0  0  0  0  0
  -32.0270  -14.7750   20.3740 O   0  0  0  0  0  0  0  0  0  0  0  0
  -30.1310  -15.9340   20.8220 N   0  0  0  0  0  0  0  0  0  0  0  0
  -29.1360  -15.8760   20.9780 H   0  0  0  0  0  0  0  0  0  0  0  0
  -25.3930  -13.9770   20.5210 C   0  0  0  0  0  0  0  0  0  0  0  0
  -24.3060  -13.2150   20.8490 C   0  0  0  0  0  0  0  0  0  0  0  0
  -24.7580  -11.8590   20.8470 C   0  0  0  0  0  0  0  0  0  0  0  0
  -26.4370  -13.0870   20.3330 N   0  0  0  0  0  0  0  0  0  0  0  0
  -26.0600  -11.8080   20.5940 N   0  0  0  0  0  0  0  0  0  0  0  0
  -24.0120  -10.6050   21.0120 C   0  0  0  0  0  0  0  0  0  0  0  0
  -24.3860   -9.6430   21.9770 C   0  0  0  0  0  3  0  0  0  0  0  0
  -23.6390   -8.4550   22.1320 C   0  0  0  0  0  3  0  0  0  0  0  0
  -22.5040   -8.2210   21.3190 C   0  0  0  0  0  0  0  0  0  0  0  0
  -22.1500   -9.1710   20.3440 C   0  0  0  0  0  3  0  0  0  0  0  0
  -22.8970  -10.3500   20.1900 C   0  0  0  0  0  3  0  0  0  0  0  0
  -21.7350   -7.0820   21.3790 O   0  0  0  0  0  0  0  0  0  0  0  0
  -21.6110   -6.3560   22.5360 C   0  0  0  0  0  0  0  0  0  0  0  0
  -21.0320   -6.9060   23.7010 C   0  0  0  0  0  3  0  0  0  0  0  0
  -20.8600   -6.1040   24.8470 C   0  0  0  0  0  3  0  0  0  0  0  0
  -21.2590   -4.7530   24.8280 C   0  0  0  0  0  0  0  0  0  0  0  0
  -21.8310   -4.2030   23.6680 C   0  0  0  0  0  3  0  0  0  0  0  0
  -22.0040   -5.0030   22.5240 C   0  0  0  0  0  0  0  0  0  0  0  0
  -22.5360   -4.4630   21.4010 F   0  0  0  0  0  0  0  0  0  0  0  0
  -21.0880   -3.9810   25.9260 F   0  0  0  0  0  0  0  0  0  0  0  0
  -22.9020  -13.7070   21.0520 C   0  0  0  0  0  0  0  0  0  0  0  0
  -22.1310  -13.0340   21.8980 N   0  0  0  0  0  0  0  0  0  0  0  0
  -22.4960  -14.7270   20.4960 O   0  0  0  0  0  0  0  0  0  0  0  0
  -22.4720  -12.2130   22.3760 H   0  0  0  0  0  0  0  0  0  0  0  0
  -21.1880  -13.3500   22.0760 H   0  0  0  0  0  0  0  0  0  0  0  0
  -25.5750  -15.3460   20.3460 N   0  0  0  0  0  0  0  0  0  0  0  0
  -24.8050  -16.0020   20.4260 H   0  0  0  0  0  0  0  0  0  0  0  0
  -26.4300  -15.7790   20.0200 H   0  0  0  0  0  0  0  0  0  0  0  0
  1  5  1  0
  2  3  1  0
  2  4  2  0
  3  1  2  0
  4  5  1  0
  6  2  1  0
  7  6  2  0
  8  9  1  0
  9  6  1  0
 10 11  1  0
 10  3  1  0
 12 10  1  0
 12 14  1  0
 14 13  1  0
 15 14  1  0
 16 27  2  0
 17 15  1  0
 17 22  1  0
 18 26  1  0
 18 28  1  0
 19 25  1  0
 19 21  1  0
 20 26  1  0
 21 20  1  0
 22 21  2  0
 23 24  1  0
 23 17  2  0
 24 19  2  0
 25 18  1  0
 26 16  1  0
 28 30  2  0
 29 28  1  0
 31 29  1  0
 32 41  2  0
 32 37  1  0
 33 29  1  0
 33 37  1  0
 34 33  1  0
 35 36  1  0
 35 34  1  0
 36 32  1  0
 37 38  2  0
 38 39  1  0
 40 39  2  0
 41 40  1  0
 42 16  1  0
 42 43  1  0
 42 52  1  0
 43 46  1  0
 44 48  1  0
 44 43  1  0
 45 44  2  0
 48 47  1  0
 50 48  1  0
 50 51  1  0
 50 49  1  0
 52 55  1  1
 52 53  1  0
 54 52  1  0
 56  4  1  0
 56 65  1  0
 57 65  1  0
 58 63  1  0
 59 60  1  0
 59 58  1  0
 61 60  1  0
 61 70  1  0
 61 62  1  0
 63 57  1  0
 63 62  1  0
 64 57  2  0
 65 66  1  0
 67 68  2  0
 68 87  1  0
 69 68  1  0
 69 72  1  0
 70 67  1  0
 70 71  1  0
 71 69  2  0
 72 73  1  0
 73 74  2  0
 75 78  1  0
 75 74  1  0
 76 75  2  0
 77 76  1  0
 77 72  2  0
 78 79  1  0
 79 80  1  0
 80 81  2  0
 82 81  1  0
 82 86  1  0
 83 82  2  0
 84 79  2  0
 84 83  1  0
 85 84  1  0
 87 88  1  0
 88 91  1  0
 88 90  1  0
 89 87  2  0
 92 93  1  0
 92 67  1  0
 94 92  1  0
M  ISO  4  14 101  15 101  57 100  65 100
M  END
>  <TORSDO>  (14) 
F 22

>  <SCORE>  (14) 
-12.412

>  <name>  (14) 
13

>  <ligand_id>  (14) 
13

>  <original_smiles>  (14) 
[H]c1oc(C([H])([H])N([H])C(=O)N2C([H])([H])C([H])([H])C([H])([H])C([H])(n3nc(-c4c([H])c([H])c(Oc5c([H])c([H])c(F)c([H])c5F)c([H])c4[H])c(C(=O)N([H])[H])c3N([H])[H])C2([H])[H])c(C(=O)C([H])([H])C([H])([H])[H])c1N([H])C([H])([H])C([H])(Oc1c([H])c([H])c2c(c1[H])C([H])([H])N(C(=O)C([H])(N([H])C(=O)C([H])(N([H])C([H])([H])[H])C([H])([H])[H])C(C([H])([H])[H])(C([H])([H])[H])C([H])([H])[H])C([H])(C(=O)N([H])C1([H])c3c([H])c([H])c([H])c([H])c3C([H])([H])C([H])([H])C1([H])[H])C2([H])[H])C([H])([H])[H]

>  <smiles>  (14) 
[H]c1oc(C([H])([H])N([H])C(=O)N2C([H])([H])C([H])([H])C([H])([H])C([H])(n3nc(-c4c([H])c([H])c(Oc5c([H])c([H])c(F)c([H])c5F)c([H])c4[H])c(C(=O)N([H])[H])c3N([H])[H])C2([H])[H])c(C(=O)C([H])([H])C([H])([H])[H])c1N([H])C([H])([H])C([H])(Oc1c([H])c([H])c2c(c1[H])C([H])([H])N(C(=O)C([H])(N([H])C(=O)C([H])(N([H])C([H])([H])[H])C([H])([H])[H])C(C([H])([H])[H])(C([H])([H])[H])C([H])([H])[H])C([H])(C(=O)N([H])C1([H])c3c([H])c([H])c([H])c([H])c3C([H])([H])C([H])([H])C1([H])[H])C2([H])[H])C([H])([H])[H]

$$$$
14:0:0
     RDKit          3D

 91 99  0  0  1  0  0  0  0  0999 V2000
  -25.7100  -21.0290   18.7030 C   0  0  0  0  0  1  0  0  0  0  0  0
  -27.1690  -21.2860   18.5610 N   0  0  0  0  0  0  0  0  0  0  0  0
  -27.6070  -18.6810   21.1370 C   0  0  0  0  0  3  0  0  0  0  0  0
  -28.5470  -17.8090   20.5620 C   0  0  0  0  0  3  0  0  0  0  0  0
  -27.3570  -19.9560   20.5720 C   0  0  0  0  0  3  0  0  0  0  0  0
  -28.9170  -19.4180   18.7700 C   0  0  0  0  0  3  0  0  0  0  0  0
  -29.3080  -18.1930   19.4340 C   0  0  0  0  0  0  0  0  0  0  0  0
  -27.8990  -20.2950   19.2990 C   0  0  0  0  0  0  0  0  0  0  0  0
  -30.4830  -17.3230   18.9790 C   0  0  0  0  0  2  0  0  0  0  0  0
  -30.9030  -16.0940   19.4550 C   0  0  0  0  0  2  0  0  0  0  0  0
  -31.7280  -14.8660   19.0540 C   0  0  0  0  0  0  0  0  0  0  0  0
  -31.4480  -12.4640   18.4250 C   0  0  0  0  0  2  0  0  0  0  0  0
  -30.3050  -12.3480   17.3840 C   0  0  0  0  0  2  0  0  0  0  0  0
  -28.9220  -12.2750   18.0620 C   0  0  0  0  0  2  0  0  0  0  0  0
  -28.7730  -13.3270   19.1920 C   0  0  0  0  0  3  0  0  0  0  0  0
  -29.9980  -13.3440   20.1230 C   0  0  0  0  0  2  0  0  0  0  0  0
  -31.1610  -13.6350   19.2860 N   0  0  0  0  0  0  0  0  0  0  0  0
  -32.7840  -14.9210   18.4150 O   0  0  0  0  0  0  0  0  0  0  0  0
  -26.7870  -14.0690   20.6420 C   0  0  0  0  0  0  0  0  0  0  0  0
  -25.7090  -13.3820   21.1330 C   0  0  0  0  0  0  0  0  0  0  0  0
  -25.8740  -12.0250   20.7040 C   0  0  0  0  0  0  0  0  0  0  0  0
  -27.5420  -13.1330   19.9530 N   0  0  0  0  0  0  0  0  0  0  0  0
  -27.0160  -11.8850   20.0450 N   0  0  0  0  0  0  0  0  0  0  0  0
  -24.9810  -10.8670   20.8260 C   0  0  0  0  0  0  0  0  0  0  0  0
  -25.3000   -9.7780   21.6650 C   0  0  0  0  0  3  0  0  0  0  0  0
  -24.4190   -8.6820   21.7750 C   0  0  0  0  0  3  0  0  0  0  0  0
  -23.2010   -8.6750   21.0580 C   0  0  0  0  0  0  0  0  0  0  0  0
  -22.8950   -9.7570   20.2160 C   0  0  0  0  0  3  0  0  0  0  0  0
  -23.7750  -10.8460   20.0990 C   0  0  0  0  0  3  0  0  0  0  0  0
  -22.2880   -7.6500   21.0950 O   0  0  0  0  0  0  0  0  0  0  0  0
  -22.0230   -6.9620   22.2520 C   0  0  0  0  0  0  0  0  0  0  0  0
  -21.5070   -7.6040   23.3990 C   0  0  0  0  0  3  0  0  0  0  0  0
  -21.1840   -6.8500   24.5430 C   0  0  0  0  0  3  0  0  0  0  0  0
  -21.3680   -5.4540   24.5420 C   0  0  0  0  0  0  0  0  0  0  0  0
  -21.8770   -4.8120   23.4000 C   0  0  0  0  0  3  0  0  0  0  0  0
  -22.2010   -5.5640   22.2570 C   0  0  0  0  0  0  0  0  0  0  0  0
  -22.6730   -4.9380   21.1520 F   0  0  0  0  0  0  0  0  0  0  0  0
  -21.0490   -4.7260   25.6380 F   0  0  0  0  0  0  0  0  0  0  0  0
  -24.5420  -13.9720   21.8660 C   0  0  0  0  0  0  0  0  0  0  0  0
  -23.9430  -13.2090   22.7700 N   0  0  0  0  0  0  0  0  0  0  0  0
  -24.1750  -15.1310   21.6710 O   0  0  0  0  0  0  0  0  0  0  0  0
  -24.2450  -12.2650   22.9510 H   0  0  0  0  0  0  0  0  0  0  0  0
  -23.1690  -13.5740   23.3040 H   0  0  0  0  0  0  0  0  0  0  0  0
  -27.2050  -15.3940   20.7020 N   0  0  0  0  0  0  0  0  0  0  0  0
  -26.6970  -16.1310   21.1780 H   0  0  0  0  0  0  0  0  0  0  0  0
  -28.0840  -15.7040   20.3070 H   0  0  0  0  0  0  0  0  0  0  0  0
  -27.4550  -22.6710   17.9930 C   0  0  0  0  0  2  0  0  0  0  0  0
  -28.5950  -23.7170   18.3710 C   0  0  0  0  0  0  0  0  0  0  0  0
  -29.7430  -23.5190   17.9580 O   0  0  0  0  0  0  0  0  0  0  0  0
  -28.2470  -25.0240   19.2390 C   0  0  0  0  0  2  0  0  0  0  0  0
  -28.4760  -26.4060   18.6840 O   0  0  0  0  0  0  0  0  0  0  0  0
  -24.6860  -31.1320   22.6880 C   0  0  0  0  0  0  0  0  0  0  0  0
  -27.3830  -27.2700   18.8380 C   0  0  0  0  0  0  0  0  0  0  0  0
  -23.4860  -29.9230   20.8980 C   0  0  0  0  0  3  0  0  0  0  0  0
  -24.9460  -28.7160   19.1870 C   0  0  0  0  0  0  0  0  0  0  0  0
  -25.9920  -30.4400   20.6650 C   0  0  0  0  0  2  0  0  0  0  0  0
  -26.1180  -29.1790   19.8070 C   0  0  0  0  0  0  0  0  0  0  0  0
  -27.3470  -28.4630   19.6300 C   0  0  0  0  0  3  0  0  0  0  0  0
  -26.1870  -26.8740   18.2100 C   0  0  0  0  0  3  0  0  0  0  0  0
  -24.9780  -27.5570   18.4120 C   0  0  0  0  0  3  0  0  0  0  0  0
  -23.6650  -29.4720   19.4230 C   0  0  0  0  0  2  0  0  0  0  0  0
  -24.7510  -30.5010   21.4760 N   0  0  0  0  0  0  0  0  0  0  0  0
  -23.6070  -31.2580   23.3030 O   0  0  0  0  0  0  0  0  0  0  0  0
  -22.9330  -28.7260   21.7190 C   0  0  0  0  0  0  0  0  0  0  0  0
  -21.6150  -28.4810   21.6320 N   0  0  0  0  0  0  0  0  0  0  0  0
  -23.6990  -28.0080   22.3800 O   0  0  0  0  0  0  0  0  0  0  0  0
  -21.0380  -29.1440   21.1350 H   0  0  0  0  0  0  0  0  0  0  0  0
  -18.3640  -27.0050   21.9580 C   0  0  0  0  0  0  0  0  0  0  0  0
  -20.9050  -27.3540   22.2450 C   0  0  0  0  0  3  0  0  0  0  0  0
  -21.0500  -26.0540   21.4380 C   0  0  0  0  0  2  0  0  0  0  0  0
  -19.9740  -25.8620   20.3780 C   0  0  0  0  0  2  0  0  0  0  0  0
  -18.5770  -25.8240   21.0180 C   0  0  0  0  0  2  0  0  0  0  0  0
  -19.4430  -27.7320   22.5200 C   0  0  0  0  0  0  0  0  0  0  0  0
  -19.1790  -28.8240   23.3580 C   0  0  0  0  0  3  0  0  0  0  0  0
  -17.8730  -29.2430   23.6340 C   0  0  0  0  0  3  0  0  0  0  0  0
  -16.8040  -28.5210   23.0810 C   0  0  0  0  0  3  0  0  0  0  0  0
  -17.0400  -27.4060   22.2610 C   0  0  0  0  0  3  0  0  0  0  0  0
  -25.9540  -31.7420   23.3530 C   0  0  0  0  0  3  0  0  0  0  0  0
  -25.5770  -33.0390   23.9310 N   0  0  0  0  0  0  0  0  0  0  0  0
  -25.8200  -34.2270   23.3630 C   0  0  0  0  0  0  0  0  0  0  0  0
  -26.4650  -34.3470   22.3180 O   0  0  0  0  0  0  0  0  0  0  0  0
  -24.9920  -33.0140   24.7550 H   0  0  0  0  0  0  0  0  0  0  0  0
  -23.9800  -35.9380   23.3490 C   0  0  0  0  0  1  0  0  0  0  0  0
  -25.2630  -35.4820   24.0600 C   0  0  0  0  0  3  0  0  0  0  0  0
  -27.3590  -36.3410   25.0060 C   0  0  0  0  0  1  0  0  0  0  0  0
  -26.2310  -36.6000   24.1140 N   0  0  0  0  0  0  0  0  0  0  0  0
  -25.7740  -37.4560   24.4190 H   0  0  0  0  0  0  0  0  0  0  0  0
  -26.5790  -30.8050   24.4610 C   0  0  1  0  0  0  0  0  0  0  0  0
  -25.5610  -30.3320   25.5270 C   0  0  0  0  0  1  0  0  0  0  0  0
  -27.2130  -29.5490   23.8200 C   0  0  0  0  0  1  0  0  0  0  0  0
  -27.7200  -31.5530   25.1840 C   0  0  0  0  0  1  0  0  0  0  0  0
  2  1  1  0
  2  8  1  0
  4  3  2  0
  5  3  1  0
  6  8  1  0
  6  7  2  0
  7  4  1  0
  8  5  2  0
  9  7  1  0
  9 10  1  0
 11 17  1  0
 11 10  1  0
 12 17  1  0
 13 14  1  0
 13 12  1  0
 15 14  1  0
 15 22  1  0
 15 16  1  0
 17 16  1  0
 18 11  2  0
 19 44  1  0
 19 20  2  0
 20 39  1  0
 21 24  1  0
 21 20  1  0
 22 23  1  0
 22 19  1  0
 23 21  2  0
 24 25  1  0
 25 26  2  0
 27 30  1  0
 27 26  1  0
 28 27  2  0
 29 28  1  0
 29 24  2  0
 30 31  1  0
 31 36  2  0
 31 32  1  0
 32 33  2  0
 34 33  1  0
 34 38  1  0
 35 34  2  0
 36 35  1  0
 37 36  1  0
 39 40  1  0
 40 42  1  0
 40 43  1  0
 41 39  2  0
 44 45  1  0
 46 44  1  0
 47 48  1  0
 47  2  1  0
 48 50  1  0
 49 48  2  0
 51 53  1  0
 51 50  1  0
 52 63  2  0
 53 58  1  0
 54 62  1  0
 54 64  1  0
 55 61  1  0
 55 57  1  0
 56 62  1  0
 57 56  1  0
 58 57  2  0
 59 60  1  0
 59 53  2  0
 60 55  2  0
 61 54  1  0
 62 52  1  0
 64 66  2  0
 65 64  1  0
 67 65  1  0
 68 77  2  0
 68 73  1  0
 69 65  1  0
 69 73  1  0
 70 69  1  0
 71 72  1  0
 71 70  1  0
 72 68  1  0
 73 74  2  0
 74 75  1  0
 76 75  2  0
 77 76  1  0
 78 52  1  0
 78 79  1  0
 78 88  1  0
 79 82  1  0
 80 79  1  0
 80 84  1  0
 81 80  2  0
 84 83  1  0
 84 86  1  0
 86 87  1  0
 86 85  1  0
 88 91  1  1
 88 89  1  0
 90 88  1  0
M  ISO  4  10 100  11 100  50 101  51 101
M  END
>  <TORSDO>  (15) 
F 21

>  <SCORE>  (15) 
-6.477

>  <name>  (15) 
14

>  <ligand_id>  (15) 
14

>  <original_smiles>  (15) 
[H]C(C(=O)N1C([H])([H])C([H])([H])C([H])([H])C([H])(n2nc(-c3c([H])c([H])c(Oc4c([H])c([H])c(F)c([H])c4F)c([H])c3[H])c(C(=O)N([H])[H])c2N([H])[H])C1([H])[H])=C([H])c1c([H])c([H])c([H])c(N(C([H])([H])[H])C([H])([H])C(=O)C([H])([H])Oc2c([H])c([H])c3c(c2[H])C([H])([H])N(C(=O)C([H])(N([H])C(=O)C([H])(N([H])C([H])([H])[H])C([H])([H])[H])C(C([H])([H])[H])(C([H])([H])[H])C([H])([H])[H])C([H])(C(=O)N([H])C2([H])c4c([H])c([H])c([H])c([H])c4C([H])([H])C([H])([H])C2([H])[H])C3([H])[H])c1[H]

>  <smiles>  (15) 
[H]C(C(=O)N1C([H])([H])C([H])([H])C([H])([H])C([H])(n2nc(-c3c([H])c([H])c(Oc4c([H])c([H])c(F)c([H])c4F)c([H])c3[H])c(C(=O)N([H])[H])c2N([H])[H])C1([H])[H])=C([H])c1c([H])c([H])c([H])c(N(C([H])([H])[H])C([H])([H])C(=O)C([H])([H])Oc2c([H])c([H])c3c(c2[H])C([H])([H])N(C(=O)C([H])(N([H])C(=O)C([H])(N([H])C([H])([H])[H])C([H])([H])[H])C(C([H])([H])[H])(C([H])([H])[H])C([H])([H])[H])C([H])(C(=O)N([H])C2([H])c4c([H])c([H])c([H])c([H])c4C([H])([H])C([H])([H])C2([H])[H])C3([H])[H])c1[H]

$$$$
15:0:0
     RDKit          3D

 97105  0  0  1  0  0  0  0  0999 V2000
  -27.0820  -18.2040   20.3910 N   0  0  0  0  0  0  0  0  0  0  0  0
  -26.2430  -18.5150   20.8780 H   0  0  0  0  0  0  0  0  0  0  0  0
  -28.4230  -15.9210   20.4300 C   0  0  0  0  0  3  0  0  0  0  0  0
  -27.3600  -13.3950   20.7010 C   0  0  2  0  0  0  0  0  0  0  0  0
  -28.5640  -14.4880   20.7340 C   0  0  0  0  0  3  0  0  0  0  0  0
  -27.2550  -16.7080   20.5740 C   0  0  0  0  0  0  0  0  0  0  0  0
  -26.2700  -15.8150   21.1520 C   0  0  0  0  0  0  0  0  0  0  0  0
  -26.3620  -14.3370   21.3000 C   0  0  0  0  0  0  0  0  0  0  0  0
  -25.2980  -13.7650   21.9220 F   0  0  0  0  0  0  0  0  0  0  0  0
  -31.3020  -13.9460   20.8690 C   0  0  0  0  0  0  0  0  0  0  0  0
  -32.1990  -11.6510   20.2190 C   0  0  0  0  0  2  0  0  0  0  0  0
  -31.6250  -11.1860   18.8330 C   0  0  0  0  0  2  0  0  0  0  0  0
  -30.0990  -10.9860   18.7680 C   0  0  0  0  0  2  0  0  0  0  0  0
  -29.5530  -12.1580   19.4980 C   0  0  0  0  0  3  0  0  0  0  0  0
  -30.0470  -11.9890   20.9710 C   0  0  0  0  0  2  0  0  0  0  0  0
  -31.2930  -12.6050   20.8750 N   0  0  0  0  0  0  0  0  0  0  0  0
  -32.3810  -14.5080   20.5620 O   0  0  0  0  0  0  0  0  0  0  0  0
  -30.0400  -14.5230   21.2350 N   0  0  0  0  0  0  0  0  0  0  0  0
  -30.2630  -15.4620   21.5290 H   0  0  0  0  0  0  0  0  0  0  0  0
  -26.6760  -13.2340   18.9920 C   0  0  0  0  0  3  0  0  0  0  0  0
  -25.3090  -12.7060   19.9980 C   0  0  0  0  0  3  0  0  0  0  0  0
  -25.8330  -11.3680   21.1590 C   0  0  0  0  0  3  0  0  0  0  0  0
  -28.2250  -12.1510   19.5480 N   0  0  0  0  0  2  0  0  0  0  0  0
  -27.5680  -11.0640   20.9630 N   0  0  0  0  0  1  0  0  0  0  0  0
  -25.1140  -10.0090   21.1390 C   0  0  0  0  0  0  0  0  0  0  0  0
  -25.2620   -9.1520   22.2440 C   0  0  0  0  0  3  0  0  0  0  0  0
  -24.5440   -7.9400   22.3650 C   0  0  0  0  0  3  0  0  0  0  0  0
  -23.6580   -7.5060   21.3550 C   0  0  0  0  0  0  0  0  0  0  0  0
  -23.6200   -8.2560   20.1590 C   0  0  0  0  0  3  0  0  0  0  0  0
  -24.3530   -9.4730   20.0440 C   0  0  0  0  0  3  0  0  0  0  0  0
  -22.8710   -6.3750   21.4810 O   0  0  0  0  0  0  0  0  0  0  0  0
  -22.4050   -5.9590   22.7160 C   0  0  0  0  0  0  0  0  0  0  0  0
  -21.6450   -6.8090   23.5520 C   0  0  0  0  0  3  0  0  0  0  0  0
  -21.1580   -6.3400   24.7900 C   0  0  0  0  0  3  0  0  0  0  0  0
  -21.4150   -5.0180   25.1980 C   0  0  0  0  0  0  0  0  0  0  0  0
  -22.1580   -4.1630   24.3630 C   0  0  0  0  0  3  0  0  0  0  0  0
  -22.6460   -4.6300   23.1280 C   0  0  0  0  0  0  0  0  0  0  0  0
  -23.3450   -3.7880   22.3300 F   0  0  0  0  0  0  0  0  0  0  0  0
  -20.9460   -4.5660   26.3850 F   0  0  0  0  0  0  0  0  0  0  0  0
  -23.8960  -12.9510   19.7250 C   0  0  0  0  0  0  0  0  0  0  0  0
  -23.0210  -12.4170   20.5720 N   0  0  0  0  0  0  0  0  0  0  0  0
  -23.5800  -13.6140   18.7530 O   0  0  0  0  0  0  0  0  0  0  0  0
  -22.0330  -12.5610   20.4240 H   0  0  0  0  0  0  0  0  0  0  0  0
  -23.3190  -11.8920   21.3790 H   0  0  0  0  0  0  0  0  0  0  0  0
  -26.8370  -14.3850   18.2930 N   0  0  0  0  0  0  0  0  0  0  0  0
  -26.0610  -14.9840   18.0380 H   0  0  0  0  0  0  0  0  0  0  0  0
  -27.7040  -14.6510   17.8420 H   0  0  0  0  0  0  0  0  0  0  0  0
  -25.1210  -16.4380   21.6470 N   0  0  0  0  0  0  0  0  0  0  0  0
  -24.3390  -16.2790   21.0240 H   0  0  0  0  0  0  0  0  0  0  0  0
  -24.8350  -15.9790   22.5050 H   0  0  0  0  0  0  0  0  0  0  0  0
  -27.7670  -19.3990   19.5790 C   0  0  0  0  0  2  0  0  0  0  0  0
  -27.5330  -21.0540   19.8800 C   0  0  0  0  0  0  0  0  0  0  0  0
  -26.8070  -21.2930   20.8530 O   0  0  0  0  0  0  0  0  0  0  0  0
  -28.1570  -22.4660   19.0350 C   0  0  0  0  0  0  0  0  0  0  0  0
  -28.7710  -22.2530   17.9790 O   0  0  0  0  0  0  0  0  0  0  0  0
  -27.9850  -24.0800   19.5060 C   0  0  0  0  0  2  0  0  0  0  0  0
  -28.6190  -25.3850   18.8270 O   0  0  0  0  0  0  0  0  0  0  0  0
  -26.0890  -30.7230   23.1880 C   0  0  0  0  0  0  0  0  0  0  0  0
  -27.9160  -26.6340   18.9890 C   0  0  0  0  0  0  0  0  0  0  0  0
  -24.7340  -29.9890   21.2710 C   0  0  0  0  0  3  0  0  0  0  0  0
  -25.9680  -28.7200   19.4140 C   0  0  0  0  0  0  0  0  0  0  0  0
  -27.3020  -29.9490   21.1110 C   0  0  0  0  0  2  0  0  0  0  0  0
  -27.1850  -28.7870   20.1050 C   0  0  0  0  0  0  0  0  0  0  0  0
  -28.1810  -27.7610   19.8770 C   0  0  0  0  0  3  0  0  0  0  0  0
  -26.7410  -26.7320   18.2310 C   0  0  0  0  0  3  0  0  0  0  0  0
  -25.7720  -27.7270   18.4470 C   0  0  0  0  0  3  0  0  0  0  0  0
  -24.8780  -29.7230   19.7490 C   0  0  0  0  0  2  0  0  0  0  0  0
  -26.0660  -30.2280   21.9130 N   0  0  0  0  0  0  0  0  0  0  0  0
  -25.0430  -30.9820   23.8020 O   0  0  0  0  0  0  0  0  0  0  0  0
  -23.9340  -28.8370   21.9320 C   0  0  0  0  0  0  0  0  0  0  0  0
  -22.5930  -28.8830   21.8350 N   0  0  0  0  0  0  0  0  0  0  0  0
  -24.5220  -27.9150   22.5050 O   0  0  0  0  0  0  0  0  0  0  0  0
  -22.1810  -29.6740   21.3610 H   0  0  0  0  0  0  0  0  0  0  0  0
  -19.0810  -28.0720   22.2250 C   0  0  0  0  0  0  0  0  0  0  0  0
  -21.6580  -27.8800   22.3540 C   0  0  0  0  0  3  0  0  0  0  0  0
  -21.5130  -26.6920   21.3740 C   0  0  0  0  0  2  0  0  0  0  0  0
  -20.3420  -26.8550   20.4000 C   0  0  0  0  0  2  0  0  0  0  0  0
  -19.0210  -26.9860   21.1650 C   0  0  0  0  0  2  0  0  0  0  0  0
  -20.3200  -28.5020   22.7730 C   0  0  0  0  0  0  0  0  0  0  0  0
  -20.3180  -29.5370   23.7340 C   0  0  0  0  0  3  0  0  0  0  0  0
  -19.1130  -30.1360   24.1470 C   0  0  0  0  0  3  0  0  0  0  0  0
  -17.8900  -29.6980   23.6120 C   0  0  0  0  0  3  0  0  0  0  0  0
  -17.8760  -28.6650   22.6570 C   0  0  0  0  0  3  0  0  0  0  0  0
  -27.4310  -31.0100   23.9250 C   0  0  0  0  0  3  0  0  0  0  0  0
  -27.2290  -32.1920   24.7800 N   0  0  0  0  0  0  0  0  0  0  0  0
  -27.6420  -33.4320   24.4840 C   0  0  0  0  0  0  0  0  0  0  0  0
  -28.2990  -33.6900   23.4740 O   0  0  0  0  0  0  0  0  0  0  0  0
  -26.6500  -32.0630   25.5980 H   0  0  0  0  0  0  0  0  0  0  0  0
  -26.0840  -35.3650   24.8970 C   0  0  0  0  0  1  0  0  0  0  0  0
  -27.2680  -34.5640   25.4630 C   0  0  0  0  0  3  0  0  0  0  0  0
  -29.4510  -34.8560   26.5500 C   0  0  0  0  0  1  0  0  0  0  0  0
  -28.3920  -35.4800   25.7610 N   0  0  0  0  0  0  0  0  0  0  0  0
  -28.0660  -36.3030   26.2610 H   0  0  0  0  0  0  0  0  0  0  0  0
  -27.9360  -29.7900   24.7900 C   0  0  1  0  0  0  0  0  0  0  0  0
  -26.8650  -29.2250   25.7540 C   0  0  0  0  0  1  0  0  0  0  0  0
  -28.4060  -28.6290   23.8850 C   0  0  0  0  0  1  0  0  0  0  0  0
  -29.1640  -30.2160   25.6290 C   0  0  0  0  0  1  0  0  0  0  0  0
  1  6  1  0
  1  2  1  0
  3  6  2  0
  4 20  1  6
  4  5  1  0
  4  8  1  0
  5  3  1  0
  5 18  1  0
  6  7  1  0
  7  8  2  0
  7 48  1  0
  8  9  1  0
 10 16  1  0
 10 18  1  0
 11 16  1  0
 12 11  1  0
 13 12  1  0
 14 13  1  0
 14 23  1  0
 14 15  1  0
 16 15  1  0
 17 10  2  0
 18 19  1  0
 20 45  1  0
 20 21  1  0
 21 40  1  0
 21 22  1  0
 22 24  1  0
 23  4  1  0
 25 22  1  0
 25 26  1  0
 26 27  2  0
 28 31  1  0
 28 27  1  0
 29 28  2  0
 30 29  1  0
 30 25  2  0
 31 32  1  0
 32 37  2  0
 32 33  1  0
 33 34  2  0
 34 35  1  0
 35 39  1  0
 36 35  2  0
 37 36  1  0
 38 37  1  0
 40 41  1  0
 41 44  1  0
 42 40  2  0
 43 41  1  0
 46 45  1  0
 47 45  1  0
 48 50  1  0
 49 48  1  0
 51 52  1  0
 51  1  1  0
 52 53  2  0
 54 56  1  0
 54 52  1  0
 55 54  2  0
 57 59  1  0
 57 56  1  0
 58 69  2  0
 59 64  1  0
 60 68  1  0
 60 70  1  0
 61 67  1  0
 61 63  1  0
 62 68  1  0
 63 62  1  0
 64 63  2  0
 65 66  1  0
 65 59  2  0
 66 61  2  0
 67 60  1  0
 68 58  1  0
 70 72  2  0
 71 70  1  0
 73 71  1  0
 74 83  2  0
 74 79  1  0
 75 71  1  0
 75 79  1  0
 76 75  1  0
 77 78  1  0
 77 76  1  0
 78 74  1  0
 79 80  2  0
 80 81  1  0
 82 81  2  0
 83 82  1  0
 84 58  1  0
 84 85  1  0
 84 94  1  0
 85 88  1  0
 86 85  1  0
 86 90  1  0
 87 86  2  0
 90 89  1  0
 90 92  1  0
 92 93  1  0
 92 91  1  0
 94 97  1  1
 94 95  1  0
 96 94  1  0
M  ISO  4  10 100  18 100  56 101  57 101
M  END
>  <TORSDO>  (16) 
F 22

>  <SCORE>  (16) 
-1.882

>  <name>  (16) 
15

>  <ligand_id>  (16) 
15

>  <original_smiles>  (16) 
[H]c1c([H])c([H])c2c(c1[H])C([H])([H])C([H])([H])C([H])([H])C2([H])N([H])C(=O)C1([H])N(C(=O)C([H])(N([H])C(=O)C([H])(N([H])C([H])([H])[H])C([H])([H])[H])C(C([H])([H])[H])(C([H])([H])[H])C([H])([H])[H])C([H])([H])c2c([H])c(OC([H])([H])C(=O)C(=O)C([H])([H])N([H])c3c([H])c(N([H])C(=O)N4C([H])([H])C([H])([H])C([H])([H])C([H])(n5nc(-c6c([H])c([H])c(Oc7c([H])c([H])c(F)c([H])c7F)c([H])c6[H])c(C(=O)N([H])[H])c5N([H])[H])C4([H])[H])c([H])c(F)c3N([H])[H])c([H])c([H])c2C1([H])[H]

>  <smiles>  (16) 
[H]c1c([H])c([H])c2c(c1[H])C([H])([H])C([H])([H])C([H])([H])C2([H])N([H])C(=O)C1([H])N(C(=O)C([H])(N([H])C(=O)C([H])(N([H])C([H])([H])[H])C([H])([H])[H])C(C([H])([H])[H])(C([H])([H])[H])C([H])([H])[H])C([H])([H])c2c([H])c(OC([H])([H])C(=O)C(=O)C([H])([H])N([H])c3c([H])c(N([H])C(=O)N4C([H])([H])C([H])([H])C([H])([H])C([H])(n5nc(-c6c([H])c([H])c(Oc7c([H])c([H])c(F)c([H])c7F)c([H])c6[H])c(C(=O)N([H])[H])c5N([H])[H])C4([H])[H])c([H])c(F)c3N([H])[H])c([H])c([H])c2C1([H])[H]

$$$$
16:0:0
     RDKit          3D

 98106  0  0  1  0  0  0  0  0999 V2000
  -31.1850  -20.3230   21.1390 N   0  0  0  0  0  0  0  0  0  0  0  0
  -31.8350  -20.9890   20.7150 H   0  0  0  0  0  0  0  0  0  0  0  0
  -30.2590  -16.9570   18.7770 C   0  0  0  0  0  3  0  0  0  0  0  0
  -30.5380  -18.0090   20.9470 C   0  0  0  0  0  3  0  0  0  0  0  0
  -30.9330  -19.3140   18.8870 C   0  0  0  0  0  0  0  0  0  0  0  0
  -30.6030  -18.1560   18.1230 C   0  0  0  0  0  0  0  0  0  0  0  0
  -30.2570  -16.8590   20.1830 C   0  0  0  0  0  0  0  0  0  0  0  0
  -30.8940  -19.2260   20.3140 C   0  0  0  0  0  0  0  0  0  0  0  0
  -30.6330  -18.1280   16.5990 C   0  0  0  0  0  1  0  0  0  0  0  0
  -30.6990  -14.4950   20.4770 C   0  0  0  0  0  0  0  0  0  0  0  0
  -30.3490  -12.3420   19.3630 C   0  0  0  0  0  2  0  0  0  0  0  0
  -29.4310  -12.5820   18.1490 C   0  0  0  0  0  2  0  0  0  0  0  0
  -27.9510  -12.4640   18.5620 C   0  0  0  0  0  2  0  0  0  0  0  0
  -27.6100  -13.2960   19.8310 C   0  0  0  0  0  3  0  0  0  0  0  0
  -28.6600  -13.0840   20.9480 C   0  0  0  0  0  2  0  0  0  0  0  0
  -29.9930  -13.3390   20.3840 N   0  0  0  0  0  0  0  0  0  0  0  0
  -31.8640  -14.6000   20.0860 O   0  0  0  0  0  0  0  0  0  0  0  0
  -30.0030  -15.5990   20.8030 N   0  0  0  0  0  0  0  0  0  0  0  0
  -29.0980  -15.4670   21.2320 H   0  0  0  0  0  0  0  0  0  0  0  0
  -25.2050  -13.9030   20.5190 C   0  0  0  0  0  0  0  0  0  0  0  0
  -24.1330  -13.1330   20.8790 C   0  0  0  0  0  0  0  0  0  0  0  0
  -24.5940  -11.7800   20.8580 C   0  0  0  0  0  0  0  0  0  0  0  0
  -26.2540  -13.0220   20.3020 N   0  0  0  0  0  0  0  0  0  0  0  0
  -25.8880  -11.7400   20.5640 N   0  0  0  0  0  0  0  0  0  0  0  0
  -23.8640  -10.5200   21.0450 C   0  0  0  0  0  0  0  0  0  0  0  0
  -24.2940   -9.5530   21.9800 C   0  0  0  0  0  3  0  0  0  0  0  0
  -23.5640   -8.3570   22.1610 C   0  0  0  0  0  3  0  0  0  0  0  0
  -22.3910   -8.1200   21.4060 C   0  0  0  0  0  0  0  0  0  0  0  0
  -21.9820   -9.0740   20.4590 C   0  0  0  0  0  3  0  0  0  0  0  0
  -22.7110  -10.2610   20.2770 C   0  0  0  0  0  3  0  0  0  0  0  0
  -21.6360   -6.9750   21.4920 O   0  0  0  0  0  0  0  0  0  0  0  0
  -21.5920   -6.2280   22.6420 C   0  0  0  0  0  0  0  0  0  0  0  0
  -21.1820   -6.7800   23.8750 C   0  0  0  0  0  3  0  0  0  0  0  0
  -21.0840   -5.9600   25.0150 C   0  0  0  0  0  3  0  0  0  0  0  0
  -21.3840   -4.5870   24.9250 C   0  0  0  0  0  0  0  0  0  0  0  0
  -21.7870   -4.0350   23.6960 C   0  0  0  0  0  3  0  0  0  0  0  0
  -21.8870   -4.8540   22.5580 C   0  0  0  0  0  0  0  0  0  0  0  0
  -22.2530   -4.3110   21.3720 F   0  0  0  0  0  0  0  0  0  0  0  0
  -21.2850   -3.7970   26.0200 F   0  0  0  0  0  0  0  0  0  0  0  0
  -22.7330  -13.6130   21.1330 C   0  0  0  0  0  0  0  0  0  0  0  0
  -21.9960  -12.9220   21.9970 N   0  0  0  0  0  0  0  0  0  0  0  0
  -22.2980  -14.6330   20.5990 O   0  0  0  0  0  0  0  0  0  0  0  0
  -22.3610  -12.0980   22.4520 H   0  0  0  0  0  0  0  0  0  0  0  0
  -21.0530  -13.2200   22.2050 H   0  0  0  0  0  0  0  0  0  0  0  0
  -25.3720  -15.2730   20.3340 N   0  0  0  0  0  0  0  0  0  0  0  0
  -24.5980  -15.9220   20.4190 H   0  0  0  0  0  0  0  0  0  0  0  0
  -26.2280  -15.7160   20.0240 H   0  0  0  0  0  0  0  0  0  0  0  0
  -31.3830  -20.5720   18.2040 C   0  0  0  0  0  0  0  0  0  0  0  0
  -30.4170  -21.2200   17.2170 C   0  0  0  0  0  1  0  0  0  0  0  0
  -32.4600  -21.1260   18.4410 O   0  0  0  0  0  0  0  0  0  0  0  0
  -29.9890  -21.0760   21.5120 C   0  0  0  0  0  2  0  0  0  0  0  0
  -30.2410  -22.5900   21.5170 C   0  0  0  0  0  0  0  0  0  0  0  0
  -31.3500  -23.0450   21.2100 O   0  0  0  0  0  0  0  0  0  0  0  0
  -29.0840  -23.4910   21.9390 C   0  0  0  0  0  2  0  0  0  0  0  0
  -28.7060  -24.4740   20.8270 C   0  0  0  0  0  0  0  0  0  0  0  0
  -28.4360  -24.0910   19.6810 O   0  0  0  0  0  0  0  0  0  0  0  0
  -28.6320  -25.9560   21.2210 C   0  0  0  0  0  2  0  0  0  0  0  0
  -28.3820  -26.7740   20.0780 O   0  0  0  0  0  0  0  0  0  0  0  0
  -24.5640  -31.8980   23.2320 C   0  0  0  0  0  0  0  0  0  0  0  0
  -27.2100  -27.4830   20.1430 C   0  0  0  0  0  0  0  0  0  0  0  0
  -23.3520  -30.4870   21.6000 C   0  0  0  0  0  3  0  0  0  0  0  0
  -24.8030  -28.9440   20.1790 C   0  0  0  0  0  0  0  0  0  0  0  0
  -25.8710  -30.8600   21.3850 C   0  0  0  0  0  2  0  0  0  0  0  0
  -25.9600  -29.4870   20.7540 C   0  0  0  0  0  0  0  0  0  0  0  0
  -27.1690  -28.7600   20.7370 C   0  0  0  0  0  3  0  0  0  0  0  0
  -26.0400  -26.9410   19.5720 C   0  0  0  0  0  3  0  0  0  0  0  0
  -24.8340  -27.6660   19.5950 C   0  0  0  0  0  3  0  0  0  0  0  0
  -23.5550  -29.7940   20.2250 C   0  0  0  0  0  2  0  0  0  0  0  0
  -24.6140  -31.0960   22.1320 N   0  0  0  0  0  0  0  0  0  0  0  0
  -23.4850  -32.1700   23.7770 O   0  0  0  0  0  0  0  0  0  0  0  0
  -22.7070  -29.4680   22.5680 C   0  0  0  0  0  0  0  0  0  0  0  0
  -21.3840  -29.2820   22.4400 N   0  0  0  0  0  0  0  0  0  0  0  0
  -23.3930  -28.8510   23.3860 O   0  0  0  0  0  0  0  0  0  0  0  0
  -20.8920  -29.8290   21.7480 H   0  0  0  0  0  0  0  0  0  0  0  0
  -18.0160  -28.0800   22.9530 C   0  0  0  0  0  0  0  0  0  0  0  0
  -20.5730  -28.3450   23.2170 C   0  0  0  0  0  3  0  0  0  0  0  0
  -20.6800  -26.9130   22.6450 C   0  0  0  0  0  2  0  0  0  0  0  0
  -19.5750  -26.5840   21.6360 C   0  0  0  0  0  2  0  0  0  0  0  0
  -18.1930  -26.7300   22.2820 C   0  0  0  0  0  2  0  0  0  0  0  0
  -19.1340  -28.8480   23.3780 C   0  0  0  0  0  0  0  0  0  0  0  0
  -18.9130  -30.1140   23.9620 C   0  0  0  0  0  3  0  0  0  0  0  0
  -17.6080  -30.6110   24.1300 C   0  0  0  0  0  3  0  0  0  0  0  0
  -16.5040  -29.8410   23.7210 C   0  0  0  0  0  3  0  0  0  0  0  0
  -16.7100  -28.5780   23.1390 C   0  0  0  0  0  3  0  0  0  0  0  0
  -25.8540  -32.5330   23.8420 C   0  0  0  0  0  3  0  0  0  0  0  0
  -25.5430  -33.9290   24.1760 N   0  0  0  0  0  0  0  0  0  0  0  0
  -25.8690  -34.9810   23.4160 C   0  0  0  0  0  0  0  0  0  0  0  0
  -26.5330  -34.8820   22.3800 O   0  0  0  0  0  0  0  0  0  0  0  0
  -24.9610  -34.0830   24.9850 H   0  0  0  0  0  0  0  0  0  0  0  0
  -24.1360  -36.7700   23.0610 C   0  0  0  0  0  1  0  0  0  0  0  0
  -25.3770  -36.3680   23.8740 C   0  0  0  0  0  3  0  0  0  0  0  0
  -27.5070  -37.2530   24.7160 C   0  0  0  0  0  1  0  0  0  0  0  0
  -26.4070  -37.4240   23.7700 N   0  0  0  0  0  0  0  0  0  0  0  0
  -25.9980  -38.3400   23.9280 H   0  0  0  0  0  0  0  0  0  0  0  0
  -26.3890  -31.7620   25.1110 C   0  0  1  0  0  0  0  0  0  0  0  0
  -25.3070  -31.5160   26.1870 C   0  0  0  0  0  1  0  0  0  0  0  0
  -26.9780  -30.3890   24.7110 C   0  0  0  0  0  1  0  0  0  0  0  0
  -27.5390  -32.5640   25.7670 C   0  0  0  0  0  1  0  0  0  0  0  0
  1 51  1  0
  2  1  1  0
  3  7  1  0
  5  8  2  0
  6  3  2  0
  6  5  1  0
  7 18  1  0
  7  4  2  0
  8  4  1  0
  8  1  1  0
  9  6  1  0
 10 18  1  0
 11 16  1  0
 12 13  1  0
 12 11  1  0
 14 13  1  0
 14 23  1  0
 14 15  1  0
 16 10  1  0
 16 15  1  0
 17 10  2  0
 18 19  1  0
 20 21  2  0
 21 40  1  0
 22 21  1  0
 22 25  1  0
 23 20  1  0
 23 24  1  0
 24 22  2  0
 25 26  1  0
 26 27  2  0
 28 31  1  0
 28 27  1  0
 29 28  2  0
 30 29  1  0
 30 25  2  0
 31 32  1  0
 32 33  1  0
 33 34  2  0
 35 34  1  0
 35 39  1  0
 36 35  2  0
 37 32  2  0
 37 36  1  0
 38 37  1  0
 40 41  1  0
 41 44  1  0
 41 43  1  0
 42 40  2  0
 45 46  1  0
 45 20  1  0
 47 45  1  0
 48 50  2  0
 48  5  1  0
 49 48  1  0
 51 52  1  0
 52 54  1  0
 53 52  2  0
 55 57  1  0
 55 54  1  0
 56 55  2  0
 58 60  1  0
 58 57  1  0
 59 70  2  0
 60 65  1  0
 61 69  1  0
 61 71  1  0
 62 68  1  0
 62 64  1  0
 63 69  1  0
 64 63  1  0
 65 64  2  0
 66 67  1  0
 66 60  2  0
 67 62  2  0
 68 61  1  0
 69 59  1  0
 71 73  2  0
 72 71  1  0
 74 72  1  0
 75 84  2  0
 75 80  1  0
 76 72  1  0
 76 80  1  0
 77 76  1  0
 78 79  1  0
 78 77  1  0
 79 75  1  0
 80 81  2  0
 81 82  1  0
 83 82  2  0
 84 83  1  0
 85 59  1  0
 85 86  1  0
 85 95  1  0
 86 89  1  0
 87 91  1  0
 87 86  1  0
 88 87  2  0
 91 90  1  0
 93 91  1  0
 93 94  1  0
 93 92  1  0
 95 98  1  1
 95 96  1  0
 97 95  1  0
M  ISO  4  10 100  18 100  57 101  58 101
M  END
>  <TORSDO>  (17) 
F 23

>  <SCORE>  (17) 
-13.066

>  <name>  (17) 
16

>  <ligand_id>  (17) 
16

>  <original_smiles>  (17) 
[H]c1c([H])c([H])c2c(c1[H])C([H])([H])C([H])([H])C([H])([H])C2([H])N([H])C(=O)C1([H])N(C(=O)C([H])(N([H])C(=O)C([H])(N([H])C([H])([H])[H])C([H])([H])[H])C(C([H])([H])[H])(C([H])([H])[H])C([H])([H])[H])C([H])([H])c2c([H])c(OC([H])([H])C(=O)C([H])([H])C(=O)C([H])([H])N([H])c3c([H])c(N([H])C(=O)N4C([H])([H])C([H])([H])C([H])([H])C([H])(n5nc(-c6c([H])c([H])c(Oc7c([H])c([H])c(F)c([H])c7F)c([H])c6[H])c(C(=O)N([H])[H])c5N([H])[H])C4([H])[H])c([H])c(C([H])([H])[H])c3C(=O)C([H])([H])[H])c([H])c([H])c2C1([H])[H]

>  <smiles>  (17) 
[H]c1c([H])c([H])c2c(c1[H])C([H])([H])C([H])([H])C([H])([H])C2([H])N([H])C(=O)C1([H])N(C(=O)C([H])(N([H])C(=O)C([H])(N([H])C([H])([H])[H])C([H])([H])[H])C(C([H])([H])[H])(C([H])([H])[H])C([H])([H])[H])C([H])([H])c2c([H])c(OC([H])([H])C(=O)C([H])([H])C(=O)C([H])([H])N([H])c3c([H])c(N([H])C(=O)N4C([H])([H])C([H])([H])C([H])([H])C([H])(n5nc(-c6c([H])c([H])c(Oc7c([H])c([H])c(F)c([H])c7F)c([H])c6[H])c(C(=O)N([H])[H])c5N([H])[H])C4([H])[H])c([H])c(C([H])([H])[H])c3C(=O)C([H])([H])[H])c([H])c([H])c2C1([H])[H]

$$$$
17:0:0
     RDKit          3D

 97105  0  0  1  0  0  0  0  0999 V2000
  -30.5050  -14.6300   20.3000 C   0  0  0  0  0  0  0  0  0  0  0  0
  -30.3680  -12.2420   19.5340 C   0  0  0  0  0  2  0  0  0  0  0  0
  -29.4260  -12.1300   18.3150 C   0  0  0  0  0  2  0  0  0  0  0  0
  -27.9720  -11.9310   18.7800 C   0  0  0  0  0  2  0  0  0  0  0  0
  -27.5600  -12.9160   19.9060 C   0  0  0  0  0  3  0  0  0  0  0  0
  -28.6350  -13.0350   21.0120 C   0  0  0  0  0  2  0  0  0  0  0  0
  -29.9010  -13.3870   20.3600 N   0  0  0  0  0  0  0  0  0  0  0  0
  -31.6930  -14.6640   19.9750 O   0  0  0  0  0  0  0  0  0  0  0  0
  -31.3650  -17.6350   19.8710 C   0  0  0  0  0  3  0  0  0  0  0  0
  -30.7900  -20.0190   19.8710 C   0  0  0  0  0  0  0  0  0  0  0  0
  -31.7350  -18.9800   19.7490 C   0  0  0  0  0  0  0  0  0  0  0  0
  -30.0380  -17.2550   20.1660 C   0  0  0  0  0  0  0  0  0  0  0  0
  -29.4270  -19.6590   20.0440 C   0  0  0  0  0  0  0  0  0  0  0  0
  -29.1030  -18.3050   20.2220 N   0  0  0  0  0  0  0  0  0  0  0  0
  -29.7340  -15.7990   20.4030 N   0  0  0  0  0  0  0  0  0  0  0  0
  -33.0430  -19.2710   19.5520 F   0  0  0  0  0  0  0  0  0  0  0  0
  -28.7760  -15.6290   20.6570 H   0  0  0  0  0  0  0  0  0  0  0  0
  -25.1870  -13.4610   20.7090 C   0  0  0  0  0  0  0  0  0  0  0  0
  -24.1430  -12.6740   21.0990 C   0  0  0  0  0  0  0  0  0  0  0  0
  -24.6210  -11.3270   21.0510 C   0  0  0  0  0  0  0  0  0  0  0  0
  -26.2390  -12.6000   20.4420 N   0  0  0  0  0  0  0  0  0  0  0  0
  -25.9060  -11.3090   20.7080 N   0  0  0  0  0  0  0  0  0  0  0  0
  -23.9130  -10.0530   21.2540 C   0  0  0  0  0  0  0  0  0  0  0  0
  -24.3760   -9.0900   22.1790 C   0  0  0  0  0  3  0  0  0  0  0  0
  -23.6690   -7.8840   22.3710 C   0  0  0  0  0  3  0  0  0  0  0  0
  -22.4840   -7.6320   21.6410 C   0  0  0  0  0  0  0  0  0  0  0  0
  -22.0380   -8.5820   20.7060 C   0  0  0  0  0  3  0  0  0  0  0  0
  -22.7450   -9.7810   20.5110 C   0  0  0  0  0  3  0  0  0  0  0  0
  -21.7450   -6.4790   21.7440 O   0  0  0  0  0  0  0  0  0  0  0  0
  -21.7190   -5.7410   22.9010 C   0  0  0  0  0  0  0  0  0  0  0  0
  -21.2850   -6.2940   24.1270 C   0  0  0  0  0  3  0  0  0  0  0  0
  -21.2040   -5.4820   25.2760 C   0  0  0  0  0  3  0  0  0  0  0  0
  -21.5490   -4.1190   25.2030 C   0  0  0  0  0  0  0  0  0  0  0  0
  -21.9790   -3.5670   23.9840 C   0  0  0  0  0  3  0  0  0  0  0  0
  -22.0600   -4.3740   22.8370 C   0  0  0  0  0  0  0  0  0  0  0  0
  -22.4520   -3.8320   21.6590 F   0  0  0  0  0  0  0  0  0  0  0  0
  -21.4660   -3.3390   26.3050 F   0  0  0  0  0  0  0  0  0  0  0  0
  -22.7440  -13.1290   21.4100 C   0  0  0  0  0  0  0  0  0  0  0  0
  -22.0470  -12.4250   22.2930 N   0  0  0  0  0  0  0  0  0  0  0  0
  -22.2800  -14.1480   20.8990 O   0  0  0  0  0  0  0  0  0  0  0  0
  -22.4370  -11.5990   22.7240 H   0  0  0  0  0  0  0  0  0  0  0  0
  -21.1120  -12.7160   22.5400 H   0  0  0  0  0  0  0  0  0  0  0  0
  -25.3260  -14.8360   20.5360 N   0  0  0  0  0  0  0  0  0  0  0  0
  -24.5470  -15.4700   20.6670 H   0  0  0  0  0  0  0  0  0  0  0  0
  -26.1560  -15.2960   20.1850 H   0  0  0  0  0  0  0  0  0  0  0  0
  -28.4110  -20.6800   20.1720 N   0  0  0  0  0  0  0  0  0  0  0  0
  -27.5080  -20.3540   20.4950 H   0  0  0  0  0  0  0  0  0  0  0  0
  -28.2430  -21.9050   19.2820 C   0  0  0  0  0  2  0  0  0  0  0  0
  -27.9190  -23.3420   19.9170 C   0  0  0  0  0  0  0  0  0  0  0  0
  -27.6600  -23.4100   21.1220 O   0  0  0  0  0  0  0  0  0  0  0  0
  -27.7900  -24.6540   18.9950 C   0  0  0  0  0  2  0  0  0  0  0  0
  -27.9850  -26.0420   19.5930 O   0  0  0  0  0  0  0  0  0  0  0  0
  -24.6630  -31.5530   23.0550 C   0  0  0  0  0  0  0  0  0  0  0  0
  -26.9500  -27.0130   19.6100 C   0  0  0  0  0  0  0  0  0  0  0  0
  -23.3670  -30.3100   21.3760 C   0  0  0  0  0  3  0  0  0  0  0  0
  -24.6980  -28.8020   19.8030 C   0  0  0  0  0  0  0  0  0  0  0  0
  -25.9180  -30.4980   21.1450 C   0  0  0  0  0  2  0  0  0  0  0  0
  -25.9130  -29.1590   20.4030 C   0  0  0  0  0  0  0  0  0  0  0  0
  -27.0390  -28.2730   20.3060 C   0  0  0  0  0  3  0  0  0  0  0  0
  -25.7150  -26.7590   18.9640 C   0  0  0  0  0  3  0  0  0  0  0  0
  -24.6060  -27.6110   19.0790 C   0  0  0  0  0  3  0  0  0  0  0  0
  -23.5180  -29.7410   19.9460 C   0  0  0  0  0  2  0  0  0  0  0  0
  -24.6730  -30.8010   21.9150 N   0  0  0  0  0  0  0  0  0  0  0  0
  -23.6040  -31.8470   23.6270 O   0  0  0  0  0  0  0  0  0  0  0  0
  -22.6880  -29.2530   22.2820 C   0  0  0  0  0  0  0  0  0  0  0  0
  -21.3530  -29.1390   22.1920 N   0  0  0  0  0  0  0  0  0  0  0  0
  -23.3630  -28.5370   23.0290 O   0  0  0  0  0  0  0  0  0  0  0  0
  -20.8660  -29.7820   21.5840 H   0  0  0  0  0  0  0  0  0  0  0  0
  -17.9430  -28.0550   22.7440 C   0  0  0  0  0  0  0  0  0  0  0  0
  -20.5180  -28.1820   22.9250 C   0  0  0  0  0  3  0  0  0  0  0  0
  -20.5290  -26.7910   22.2500 C   0  0  0  0  0  2  0  0  0  0  0  0
  -19.3770  -26.5900   21.2590 C   0  0  0  0  0  2  0  0  0  0  0  0
  -18.0300  -26.7490   21.9680 C   0  0  0  0  0  2  0  0  0  0  0  0
  -19.1130  -28.7360   23.1760 C   0  0  0  0  0  0  0  0  0  0  0  0
  -18.9750  -29.9620   23.8630 C   0  0  0  0  0  3  0  0  0  0  0  0
  -17.7030  -30.5060   24.1170 C   0  0  0  0  0  3  0  0  0  0  0  0
  -16.5480  -29.8230   23.6970 C   0  0  0  0  0  3  0  0  0  0  0  0
  -16.6720  -28.5990   23.0150 C   0  0  0  0  0  3  0  0  0  0  0  0
  -25.9810  -32.1080   23.6750 C   0  0  0  0  0  3  0  0  0  0  0  0
  -25.7220  -33.4900   24.1070 N   0  0  0  0  0  0  0  0  0  0  0  0
  -26.0860  -34.5840   23.4250 C   0  0  0  0  0  0  0  0  0  0  0  0
  -26.7410  -34.5310   22.3820 O   0  0  0  0  0  0  0  0  0  0  0  0
  -25.1420  -33.6060   24.9230 H   0  0  0  0  0  0  0  0  0  0  0  0
  -24.4280  -36.4690   23.2170 C   0  0  0  0  0  1  0  0  0  0  0  0
  -25.6530  -35.9530   23.9860 C   0  0  0  0  0  3  0  0  0  0  0  0
  -27.8250  -36.6910   24.8690 C   0  0  0  0  0  1  0  0  0  0  0  0
  -26.7260  -36.9710   23.9500 N   0  0  0  0  0  0  0  0  0  0  0  0
  -26.3560  -37.8920   24.1740 H   0  0  0  0  0  0  0  0  0  0  0  0
  -26.5030  -31.2370   24.8850 C   0  0  1  0  0  0  0  0  0  0  0  0
  -25.4350  -30.9730   25.9750 C   0  0  0  0  0  1  0  0  0  0  0  0
  -27.0140  -29.8630   24.3890 C   0  0  0  0  0  1  0  0  0  0  0  0
  -27.7000  -31.9460   25.5590 C   0  0  0  0  0  1  0  0  0  0  0  0
  -31.3350  -21.4590   19.9050 C   0  0  0  0  0  2  0  0  0  0  0  0
  -31.6890  -20.9280   22.4400 C   0  0  0  0  0  1  0  0  0  0  0  0
  -33.2610  -22.4450   21.2320 C   0  0  0  0  0  1  0  0  0  0  0  0
  -30.9380  -23.2070   21.7440 C   0  0  0  0  0  1  0  0  0  0  0  0
  -31.7880  -21.9890   21.3160 C   0  0  1  0  0  0  0  0  0  0  0  0
  1  7  1  0
  1 15  1  0
  2  7  1  0
  3  4  1  0
  3  2  1  0
  5  4  1  0
  5 21  1  0
  5  6  1  0
  7  6  1  0
  8  1  2  0
  9 12  1  0
 10 93  1  0
 10 13  2  0
 11  9  2  0
 11 10  1  0
 12 14  2  0
 12 15  1  0
 13 46  1  0
 13 14  1  0
 15 17  1  0
 16 11  1  0
 18 19  2  0
 19 38  1  0
 20 19  1  0
 20 23  1  0
 21 22  1  0
 21 18  1  0
 22 20  2  0
 23 24  1  0
 24 25  2  0
 26 29  1  0
 26 25  1  0
 27 26  2  0
 28 27  1  0
 28 23  2  0
 29 30  1  0
 30 31  1  0
 31 32  2  0
 33 32  1  0
 33 37  1  0
 34 33  2  0
 35 30  2  0
 35 34  1  0
 36 35  1  0
 38 39  1  0
 39 42  1  0
 39 41  1  0
 40 38  2  0
 43 44  1  0
 43 18  1  0
 45 43  1  0
 46 47  1  0
 48 49  1  0
 48 46  1  0
 49 50  2  0
 51 52  1  0
 51 49  1  0
 52 54  1  0
 53 64  2  0
 54 59  1  0
 55 63  1  0
 55 65  1  0
 56 62  1  0
 56 58  1  0
 57 63  1  0
 58 57  1  0
 59 58  2  0
 60 61  1  0
 60 54  2  0
 61 56  2  0
 62 55  1  0
 63 53  1  0
 65 67  2  0
 66 65  1  0
 68 66  1  0
 69 78  2  0
 69 74  1  0
 70 66  1  0
 70 74  1  0
 71 70  1  0
 72 73  1  0
 72 71  1  0
 73 69  1  0
 74 75  2  0
 75 76  1  0
 77 76  2  0
 78 77  1  0
 79 53  1  0
 79 80  1  0
 79 89  1  0
 80 83  1  0
 81 85  1  0
 81 80  1  0
 82 81  2  0
 85 84  1  0
 87 85  1  0
 87 88  1  0
 87 86  1  0
 89 92  1  1
 89 90  1  0
 91 89  1  0
 93 97  1  0
 97 95  1  6
 97 96  1  0
 97 94  1  0
M  ISO  4   1 100  15 100  51 101  52 101
M  END
>  <TORSDO>  (18) 
F 21

>  <SCORE>  (18) 
-12.049

>  <name>  (18) 
17

>  <ligand_id>  (18) 
17

>  <original_smiles>  (18) 
[H]c1c([H])c([H])c2c(c1[H])C([H])([H])C([H])([H])C([H])([H])C2([H])N([H])C(=O)C1([H])N(C(=O)C([H])(N([H])C(=O)C([H])(N([H])C([H])([H])[H])C([H])([H])[H])C(C([H])([H])[H])(C([H])([H])[H])C([H])([H])[H])C([H])([H])c2c([H])c(OC([H])([H])C(=O)C([H])([H])N([H])c3nc(N([H])C(=O)N4C([H])([H])C([H])([H])C([H])([H])C([H])(n5nc(-c6c([H])c([H])c(Oc7c([H])c([H])c(F)c([H])c7F)c([H])c6[H])c(C(=O)N([H])[H])c5N([H])[H])C4([H])[H])c([H])c(F)c3C([H])([H])C(C([H])([H])[H])(C([H])([H])[H])C([H])([H])[H])c([H])c([H])c2C1([H])[H]

>  <smiles>  (18) 
[H]c1c([H])c([H])c2c(c1[H])C([H])([H])C([H])([H])C([H])([H])C2([H])N([H])C(=O)C1([H])N(C(=O)C([H])(N([H])C(=O)C([H])(N([H])C([H])([H])[H])C([H])([H])[H])C(C([H])([H])[H])(C([H])([H])[H])C([H])([H])[H])C([H])([H])c2c([H])c(OC([H])([H])C(=O)C([H])([H])N([H])c3nc(N([H])C(=O)N4C([H])([H])C([H])([H])C([H])([H])C([H])(n5nc(-c6c([H])c([H])c(Oc7c([H])c([H])c(F)c([H])c7F)c([H])c6[H])c(C(=O)N([H])[H])c5N([H])[H])C4([H])[H])c([H])c(F)c3C([H])([H])C(C([H])([H])[H])(C([H])([H])[H])C([H])([H])[H])c([H])c([H])c2C1([H])[H]

$$$$
18:0:0
     RDKit          3D

100108  0  0  1  0  0  0  0  0999 V2000
  -29.1290  -20.8280   20.8610 C   0  0  0  0  0  2  0  0  0  0  0  0
  -30.5850  -20.6950   20.8590 N   0  0  0  0  0  0  0  0  0  0  0  0
  -31.1240  -21.5560   20.8160 H   0  0  0  0  0  0  0  0  0  0  0  0
  -32.8180  -17.2060   20.0050 C   0  0  0  0  0  3  0  0  0  0  0  0
  -32.6510  -19.6020   20.3550 C   0  0  0  0  0  3  0  0  0  0  0  0
  -30.6510  -18.2150   20.5100 C   0  0  0  0  0  3  0  0  0  0  0  0
  -33.4410  -18.4690   20.0710 C   0  0  0  0  0  0  0  0  0  0  0  0
  -31.4250  -17.0670   20.2030 C   0  0  0  0  0  0  0  0  0  0  0  0
  -31.2630  -19.4950   20.5770 C   0  0  0  0  0  0  0  0  0  0  0  0
  -31.3930  -14.6660   19.6260 C   0  0  0  0  0  0  0  0  0  0  0  0
  -31.0280  -12.3150   18.9710 C   0  0  0  0  0  2  0  0  0  0  0  0
  -30.0370  -12.2390   17.7930 C   0  0  0  0  0  2  0  0  0  0  0  0
  -28.5850  -12.2040   18.3040 C   0  0  0  0  0  2  0  0  0  0  0  0
  -28.2910  -13.3140   19.3490 C   0  0  0  0  0  3  0  0  0  0  0  0
  -29.3890  -13.3560   20.4350 C   0  0  0  0  0  2  0  0  0  0  0  0
  -30.6900  -13.5100   19.7600 N   0  0  0  0  0  0  0  0  0  0  0  0
  -32.4570  -14.7230   19.0010 O   0  0  0  0  0  0  0  0  0  0  0  0
  -30.8190  -15.7770   20.1250 N   0  0  0  0  0  0  0  0  0  0  0  0
  -29.8710  -15.6860   20.4580 H   0  0  0  0  0  0  0  0  0  0  0  0
  -26.0320  -14.1290   20.2730 C   0  0  0  0  0  0  0  0  0  0  0  0
  -24.9240  -13.4520   20.7050 C   0  0  0  0  0  0  0  0  0  0  0  0
  -25.2390  -12.0650   20.5930 C   0  0  0  0  0  0  0  0  0  0  0  0
  -26.9600  -13.1570   19.9300 N   0  0  0  0  0  0  0  0  0  0  0  0
  -26.4900  -11.9080   20.1770 N   0  0  0  0  0  0  0  0  0  0  0  0
  -24.4060  -10.8740   20.8030 C   0  0  0  0  0  0  0  0  0  0  0  0
  -24.7600   -9.8780   21.7400 C   0  0  0  0  0  3  0  0  0  0  0  0
  -23.9310   -8.7520   21.9360 C   0  0  0  0  0  3  0  0  0  0  0  0
  -22.7320   -8.6150   21.1960 C   0  0  0  0  0  0  0  0  0  0  0  0
  -22.3960   -9.5980   20.2480 C   0  0  0  0  0  3  0  0  0  0  0  0
  -23.2250  -10.7150   20.0500 C   0  0  0  0  0  3  0  0  0  0  0  0
  -21.8790   -7.5440   21.3010 O   0  0  0  0  0  0  0  0  0  0  0  0
  -21.7060   -6.8760   22.4870 C   0  0  0  0  0  0  0  0  0  0  0  0
  -21.2620   -7.5330   23.6550 C   0  0  0  0  0  3  0  0  0  0  0  0
  -21.0310   -6.7960   24.8330 C   0  0  0  0  0  3  0  0  0  0  0  0
  -21.2330   -5.4020   24.8430 C   0  0  0  0  0  0  0  0  0  0  0  0
  -21.6710   -4.7450   23.6800 C   0  0  0  0  0  3  0  0  0  0  0  0
  -21.9030   -5.4800   22.5040 C   0  0  0  0  0  0  0  0  0  0  0  0
  -22.3030   -4.8390   21.3800 F   0  0  0  0  0  0  0  0  0  0  0  0
  -21.0050   -4.6930   25.9730 F   0  0  0  0  0  0  0  0  0  0  0  0
  -23.6100  -14.0550   21.1090 C   0  0  0  0  0  0  0  0  0  0  0  0
  -22.8990  -13.4160   22.0320 N   0  0  0  0  0  0  0  0  0  0  0  0
  -23.2260  -15.1270   20.6420 O   0  0  0  0  0  0  0  0  0  0  0  0
  -23.2200  -12.5440   22.4270 H   0  0  0  0  0  0  0  0  0  0  0  0
  -22.0190  -13.8020   22.3440 H   0  0  0  0  0  0  0  0  0  0  0  0
  -26.3240  -15.4820   20.1260 N   0  0  0  0  0  0  0  0  0  0  0  0
  -25.6370  -16.2060   20.3100 H   0  0  0  0  0  0  0  0  0  0  0  0
  -27.1830  -15.8430   19.7320 H   0  0  0  0  0  0  0  0  0  0  0  0
  -34.8930  -18.6340   19.8450 C   0  0  0  0  0  3  0  0  0  0  0  0
  -35.6960  -17.7110   19.5180 N   0  0  0  0  0  0  0  0  0  0  0  0
  -35.2240  -16.8190   19.4240 H   0  0  0  0  0  0  0  0  0  0  0  0
  -28.6500  -22.2950   21.0790 C   0  0  0  0  0  3  0  0  0  0  0  0
  -29.3410  -22.9860   22.2790 C   0  0  0  0  0  0  0  0  0  0  0  0
  -29.7430  -24.1520   22.2060 O   0  0  0  0  0  0  0  0  0  0  0  0
  -30.5270  -22.7320   24.5480 C   0  0  0  0  0  1  0  0  0  0  0  0
  -29.4460  -22.1990   23.5930 C   0  0  0  0  0  2  0  0  0  0  0  0
  -28.7650  -23.1400   19.7760 C   0  0  0  0  0  2  0  0  0  0  0  0
  -27.6060  -24.1230   19.5710 C   0  0  0  0  0  0  0  0  0  0  0  0
  -26.5120  -23.7200   19.1610 O   0  0  0  0  0  0  0  0  0  0  0  0
  -27.8570  -25.6090   19.8860 C   0  0  0  0  0  2  0  0  0  0  0  0
  -27.4530  -26.4590   18.8020 O   0  0  0  0  0  0  0  0  0  0  0  0
  -24.6870  -31.5460   22.9500 C   0  0  0  0  0  0  0  0  0  0  0  0
  -26.3860  -27.2790   19.0820 C   0  0  0  0  0  0  0  0  0  0  0  0
  -23.1190  -30.4630   21.3710 C   0  0  0  0  0  3  0  0  0  0  0  0
  -24.1880  -28.9710   19.5990 C   0  0  0  0  0  0  0  0  0  0  0  0
  -25.6130  -30.6170   20.8300 C   0  0  0  0  0  2  0  0  0  0  0  0
  -25.4650  -29.3230   20.0560 C   0  0  0  0  0  0  0  0  0  0  0  0
  -26.5680  -28.4830   19.7960 C   0  0  0  0  0  3  0  0  0  0  0  0
  -25.0980  -26.9340   18.6250 C   0  0  0  0  0  3  0  0  0  0  0  0
  -23.9980  -27.7750   18.8810 C   0  0  0  0  0  3  0  0  0  0  0  0
  -23.0590  -29.9260   19.9160 C   0  0  0  0  0  2  0  0  0  0  0  0
  -24.5020  -30.8800   21.7740 N   0  0  0  0  0  0  0  0  0  0  0  0
  -23.7290  -31.8500   23.6730 O   0  0  0  0  0  0  0  0  0  0  0  0
  -22.5010  -29.4030   22.3120 C   0  0  0  0  0  0  0  0  0  0  0  0
  -21.1660  -29.2750   22.2710 N   0  0  0  0  0  0  0  0  0  0  0  0
  -23.2160  -28.7000   23.0310 O   0  0  0  0  0  0  0  0  0  0  0  0
  -20.6500  -29.8910   21.6580 H   0  0  0  0  0  0  0  0  0  0  0  0
  -17.8100  -28.0370   22.7940 C   0  0  0  0  0  0  0  0  0  0  0  0
  -20.3710  -28.3150   23.0330 C   0  0  0  0  0  3  0  0  0  0  0  0
  -20.4780  -26.8970   22.4260 C   0  0  0  0  0  2  0  0  0  0  0  0
  -19.3620  -26.5840   21.4230 C   0  0  0  0  0  2  0  0  0  0  0  0
  -17.9890  -26.7020   22.0910 C   0  0  0  0  0  2  0  0  0  0  0  0
  -18.9280  -28.8010   23.2220 C   0  0  0  0  0  0  0  0  0  0  0  0
  -18.7090  -30.0510   23.8390 C   0  0  0  0  0  3  0  0  0  0  0  0
  -17.4030  -30.5390   24.0330 C   0  0  0  0  0  3  0  0  0  0  0  0
  -16.2990  -29.7730   23.6220 C   0  0  0  0  0  3  0  0  0  0  0  0
  -16.5040  -28.5240   23.0090 C   0  0  0  0  0  3  0  0  0  0  0  0
  -26.1100  -31.9760   23.4310 C   0  0  0  0  0  3  0  0  0  0  0  0
  -26.7570  -30.9570   24.4460 C   0  0  1  0  0  0  0  0  0  0  0  0
  -25.8370  -30.5910   25.6340 C   0  0  0  0  0  1  0  0  0  0  0  0
  -27.1420  -29.6440   23.7230 C   0  0  0  0  0  1  0  0  0  0  0  0
  -28.0690  -31.5450   25.0170 C   0  0  0  0  0  1  0  0  0  0  0  0
  -25.9870  -33.3080   24.0390 N   0  0  0  0  0  0  0  0  0  0  0  0
  -26.3520  -34.4510   23.4410 C   0  0  0  0  0  0  0  0  0  0  0  0
  -26.9000  -34.4830   22.3360 O   0  0  0  0  0  0  0  0  0  0  0  0
  -25.4980  -33.3590   24.9200 H   0  0  0  0  0  0  0  0  0  0  0  0
  -24.8070  -36.4280   23.5950 C   0  0  0  0  0  1  0  0  0  0  0  0
  -26.0610  -35.7660   24.1880 C   0  0  0  0  0  3  0  0  0  0  0  0
  -28.3420  -36.2740   24.9380 C   0  0  0  0  0  1  0  0  0  0  0  0
  -27.1900  -36.7210   24.1600 N   0  0  0  0  0  0  0  0  0  0  0  0
  -26.9040  -37.6290   24.5110 H   0  0  0  0  0  0  0  0  0  0  0  0
  1 51  1  0
  2  1  1  0
  3  2  1  0
  4  7  2  0
  4  8  1  0
  5  9  2  0
  6  9  1  0
  7  5  1  0
  8  6  2  0
  9  2  1  0
 10 16  1  0
 10 18  1  0
 11 16  1  0
 12 13  1  0
 12 11  1  0
 14 13  1  0
 14 23  1  0
 14 15  1  0
 16 15  1  0
 17 10  2  0
 18  8  1  0
 18 19  1  0
 20 21  2  0
 21 40  1  0
 22 21  1  0
 22 25  1  0
 23 24  1  0
 23 20  1  0
 24 22  2  0
 25 26  1  0
 26 27  2  0
 28 31  1  0
 28 27  1  0
 29 28  2  0
 30 29  1  0
 30 25  2  0
 31 32  1  0
 32 37  2  0
 32 33  1  0
 33 34  2  0
 34 35  1  0
 35 39  1  0
 36 35  2  0
 37 36  1  0
 38 37  1  0
 40 41  1  0
 41 44  1  0
 41 43  1  0
 42 40  2  0
 45 20  1  0
 45 46  1  0
 47 45  1  0
 48  7  1  0
 49 48  2  0
 50 49  1  0
 51 56  1  0
 51 52  1  0
 52 55  1  0
 53 52  2  0
 55 54  1  0
 57 56  1  0
 57 59  1  0
 58 57  2  0
 60 62  1  0
 60 59  1  0
 61 72  2  0
 62 67  1  0
 63 71  1  0
 63 73  1  0
 64 70  1  0
 64 66  1  0
 65 71  1  0
 66 65  1  0
 67 66  2  0
 68 69  1  0
 68 62  2  0
 69 64  2  0
 70 63  1  0
 71 61  1  0
 73 75  2  0
 74 73  1  0
 76 74  1  0
 77 86  2  0
 77 82  1  0
 78 74  1  0
 78 82  1  0
 79 78  1  0
 80 81  1  0
 80 79  1  0
 81 77  1  0
 82 83  2  0
 83 84  1  0
 85 84  2  0
 86 85  1  0
 87 61  1  0
 87 92  1  0
 87 88  1  0
 88 91  1  1
 88 89  1  0
 90 88  1  0
 92 95  1  0
 93 92  1  0
 93 97  1  0
 94 93  2  0
 97 96  1  0
 99 97  1  0
 99100  1  0
 99 98  1  0
M  ISO  4  10 100  18 100  59 101  60 101
M  END
>  <TORSDO>  (19) 
F 25

>  <SCORE>  (19) 
-10.746

>  <name>  (19) 
18

>  <ligand_id>  (19) 
18

>  <original_smiles>  (19) 
[H]N=C([H])c1c([H])c(N([H])C(=O)N2C([H])([H])C([H])([H])C([H])([H])C([H])(n3nc(-c4c([H])c([H])c(Oc5c([H])c([H])c(F)c([H])c5F)c([H])c4[H])c(C(=O)N([H])[H])c3N([H])[H])C2([H])[H])c([H])c(N([H])C([H])([H])C([H])(C(=O)C([H])([H])C([H])([H])[H])C([H])([H])C(=O)C([H])([H])Oc2c([H])c([H])c3c(c2[H])C([H])([H])N(C(=O)C([H])(N([H])C(=O)C([H])(N([H])C([H])([H])[H])C([H])([H])[H])C(C([H])([H])[H])(C([H])([H])[H])C([H])([H])[H])C([H])(C(=O)N([H])C2([H])c4c([H])c([H])c([H])c([H])c4C([H])([H])C([H])([H])C2([H])[H])C3([H])[H])c1[H]

>  <smiles>  (19) 
[H]N=C([H])c1c([H])c(N([H])C(=O)N2C([H])([H])C([H])([H])C([H])([H])C([H])(n3nc(-c4c([H])c([H])c(Oc5c([H])c([H])c(F)c([H])c5F)c([H])c4[H])c(C(=O)N([H])[H])c3N([H])[H])C2([H])[H])c([H])c(N([H])C([H])([H])C([H])(C(=O)C([H])([H])C([H])([H])[H])C([H])([H])C(=O)C([H])([H])Oc2c([H])c([H])c3c(c2[H])C([H])([H])N(C(=O)C([H])(N([H])C(=O)C([H])(N([H])C([H])([H])[H])C([H])([H])[H])C(C([H])([H])[H])(C([H])([H])[H])C([H])([H])[H])C([H])(C(=O)N([H])C2([H])c4c([H])c([H])c([H])c([H])c4C([H])([H])C([H])([H])C2([H])[H])C3([H])[H])c1[H]

$$$$
19:0:0
     RDKit          3D

 95103  0  0  1  0  0  0  0  0999 V2000
  -30.5830  -18.3530   21.9360 C   0  0  0  0  0  3  0  0  0  0  0  0
  -30.4970  -19.5920   22.6020 C   0  0  0  0  0  3  0  0  0  0  0  0
  -29.2250  -20.4960   20.7410 C   0  0  0  0  0  3  0  0  0  0  0  0
  -29.2860  -19.2540   20.0740 C   0  0  0  0  0  0  0  0  0  0  0  0
  -30.0040  -18.1740   20.6590 C   0  0  0  0  0  0  0  0  0  0  0  0
  -29.8470  -20.6850   21.9940 C   0  0  0  0  0  0  0  0  0  0  0  0
  -28.6350  -19.1850   18.7410 C   0  0  0  0  0  0  0  0  0  0  0  0
  -27.4610  -18.2260   18.6070 C   0  0  0  0  0  1  0  0  0  0  0  0
  -28.9560  -19.8980   17.7870 O   0  0  0  0  0  0  0  0  0  0  0  0
  -30.2500  -22.9330   22.0030 C   0  0  0  0  0  3  0  0  0  0  0  0
  -29.8080  -21.9230   22.6440 N   0  0  0  0  0  0  0  0  0  0  0  0
  -30.1870  -24.3530   22.5210 C   0  0  0  0  0  2  0  0  0  0  0  0
  -29.9760  -25.3320   21.3640 C   0  0  0  0  0  0  0  0  0  0  0  0
  -30.9280  -25.7160   20.6740 O   0  0  0  0  0  0  0  0  0  0  0  0
  -28.5440  -25.8150   21.1080 C   0  0  0  0  0  2  0  0  0  0  0  0
  -28.5350  -26.8730   20.1510 O   0  0  0  0  0  0  0  0  0  0  0  0
  -24.6270  -31.9040   23.2690 C   0  0  0  0  0  0  0  0  0  0  0  0
  -27.3570  -27.5690   20.1550 C   0  0  0  0  0  0  0  0  0  0  0  0
  -23.4450  -30.4960   21.6100 C   0  0  0  0  0  3  0  0  0  0  0  0
  -24.9280  -28.9960   20.1770 C   0  0  0  0  0  0  0  0  0  0  0  0
  -25.9580  -30.9140   21.4120 C   0  0  0  0  0  2  0  0  0  0  0  0
  -26.0710  -29.5500   20.7670 C   0  0  0  0  0  0  0  0  0  0  0  0
  -27.2920  -28.8430   20.7530 C   0  0  0  0  0  3  0  0  0  0  0  0
  -26.2030  -27.0160   19.5610 C   0  0  0  0  0  3  0  0  0  0  0  0
  -24.9870  -27.7270   19.5710 C   0  0  0  0  0  3  0  0  0  0  0  0
  -23.6660  -29.8270   20.2270 C   0  0  0  0  0  2  0  0  0  0  0  0
  -24.6940  -31.1180   22.1560 N   0  0  0  0  0  0  0  0  0  0  0  0
  -23.5410  -32.1510   23.8120 O   0  0  0  0  0  0  0  0  0  0  0  0
  -22.8090  -29.4580   22.5620 C   0  0  0  0  0  0  0  0  0  0  0  0
  -21.4880  -29.2600   22.4320 N   0  0  0  0  0  0  0  0  0  0  0  0
  -23.5030  -28.8330   23.3690 O   0  0  0  0  0  0  0  0  0  0  0  0
  -20.9910  -29.8190   21.7530 H   0  0  0  0  0  0  0  0  0  0  0  0
  -18.1290  -28.0220   22.9160 C   0  0  0  0  0  0  0  0  0  0  0  0
  -20.6830  -28.3040   23.1900 C   0  0  0  0  0  3  0  0  0  0  0  0
  -20.8020  -26.8820   22.5940 C   0  0  0  0  0  2  0  0  0  0  0  0
  -19.7020  -26.5610   21.5760 C   0  0  0  0  0  2  0  0  0  0  0  0
  -18.3190  -26.6830   22.2230 C   0  0  0  0  0  2  0  0  0  0  0  0
  -19.2390  -28.7900   23.3550 C   0  0  0  0  0  0  0  0  0  0  0  0
  -19.0090  -30.0450   23.9600 C   0  0  0  0  0  3  0  0  0  0  0  0
  -17.6990  -30.5300   24.1340 C   0  0  0  0  0  3  0  0  0  0  0  0
  -16.6020  -29.7590   23.7110 C   0  0  0  0  0  3  0  0  0  0  0  0
  -16.8180  -28.5070   23.1070 C   0  0  0  0  0  3  0  0  0  0  0  0
  -25.9030  -32.5470   23.8980 C   0  0  0  0  0  3  0  0  0  0  0  0
  -25.5820  -33.9440   24.2180 N   0  0  0  0  0  0  0  0  0  0  0  0
  -25.9150  -34.9930   23.4540 C   0  0  0  0  0  0  0  0  0  0  0  0
  -26.5960  -34.8880   22.4300 O   0  0  0  0  0  0  0  0  0  0  0  0
  -24.9820  -34.1000   25.0140 H   0  0  0  0  0  0  0  0  0  0  0  0
  -24.1830  -36.7720   23.0620 C   0  0  0  0  0  1  0  0  0  0  0  0
  -25.4130  -36.3810   23.8970 C   0  0  0  0  0  3  0  0  0  0  0  0
  -27.5230  -37.2850   24.7650 C   0  0  0  0  0  1  0  0  0  0  0  0
  -26.4400  -37.4390   23.7970 N   0  0  0  0  0  0  0  0  0  0  0  0
  -26.0260  -38.3580   23.9260 H   0  0  0  0  0  0  0  0  0  0  0  0
  -26.4190  -31.7830   25.1780 C   0  0  1  0  0  0  0  0  0  0  0  0
  -25.3210  -31.5300   26.2380 C   0  0  0  0  0  1  0  0  0  0  0  0
  -27.0220  -30.4130   24.7880 C   0  0  0  0  0  1  0  0  0  0  0  0
  -27.5560  -32.5910   25.8490 C   0  0  0  0  0  1  0  0  0  0  0  0
  -30.2940  -16.8810   19.8980 C   0  0  0  0  0  2  0  0  0  0  0  0
  -30.8950  -14.5610   20.3500 C   0  0  0  0  0  0  0  0  0  0  0  0
  -30.5510  -12.4150   19.2240 C   0  0  0  0  0  2  0  0  0  0  0  0
  -29.6070  -12.6590   18.0290 C   0  0  0  0  0  2  0  0  0  0  0  0
  -28.1350  -12.5300   18.4680 C   0  0  0  0  0  2  0  0  0  0  0  0
  -27.8150  -13.3550   19.7450 C   0  0  0  0  0  3  0  0  0  0  0  0
  -28.8810  -13.1250   20.8450 C   0  0  0  0  0  2  0  0  0  0  0  0
  -30.2070  -13.3940   20.2670 N   0  0  0  0  0  0  0  0  0  0  0  0
  -32.0360  -14.7030   19.9060 O   0  0  0  0  0  0  0  0  0  0  0  0
  -30.1490  -15.6330   20.6550 N   0  0  0  0  0  0  0  0  0  0  0  0
  -29.2480  -15.4530   21.0700 H   0  0  0  0  0  0  0  0  0  0  0  0
  -25.4230  -13.9650   20.4730 C   0  0  0  0  0  0  0  0  0  0  0  0
  -24.3560  -13.1920   20.8450 C   0  0  0  0  0  0  0  0  0  0  0  0
  -24.8120  -11.8390   20.8000 C   0  0  0  0  0  0  0  0  0  0  0  0
  -26.4650  -13.0830   20.2300 N   0  0  0  0  0  0  0  0  0  0  0  0
  -26.1010  -11.7990   20.4850 N   0  0  0  0  0  0  0  0  0  0  0  0
  -24.0850  -10.5770   20.9870 C   0  0  0  0  0  0  0  0  0  0  0  0
  -24.5100   -9.6130   21.9280 C   0  0  0  0  0  3  0  0  0  0  0  0
  -23.7840   -8.4140   22.1010 C   0  0  0  0  0  3  0  0  0  0  0  0
  -22.6200   -8.1720   21.3340 C   0  0  0  0  0  0  0  0  0  0  0  0
  -22.2160   -9.1250   20.3810 C   0  0  0  0  0  3  0  0  0  0  0  0
  -22.9430  -10.3140   20.2060 C   0  0  0  0  0  3  0  0  0  0  0  0
  -21.8660   -7.0270   21.4150 O   0  0  0  0  0  0  0  0  0  0  0  0
  -21.7910   -6.2970   22.5750 C   0  0  0  0  0  0  0  0  0  0  0  0
  -21.3150   -6.8590   23.7800 C   0  0  0  0  0  3  0  0  0  0  0  0
  -21.1890   -6.0550   24.9300 C   0  0  0  0  0  3  0  0  0  0  0  0
  -21.5260   -4.6890   24.8760 C   0  0  0  0  0  0  0  0  0  0  0  0
  -21.9950   -4.1260   23.6760 C   0  0  0  0  0  3  0  0  0  0  0  0
  -22.1230   -4.9280   22.5270 C   0  0  0  0  0  0  0  0  0  0  0  0
  -22.5550   -4.3770   21.3680 F   0  0  0  0  0  0  0  0  0  0  0  0
  -21.3970   -3.9130   25.9780 F   0  0  0  0  0  0  0  0  0  0  0  0
  -22.9620  -13.6700   21.1330 C   0  0  0  0  0  0  0  0  0  0  0  0
  -22.2390  -12.9700   21.9990 N   0  0  0  0  0  0  0  0  0  0  0  0
  -22.5230  -14.7000   20.6240 O   0  0  0  0  0  0  0  0  0  0  0  0
  -22.6090  -12.1360   22.4300 H   0  0  0  0  0  0  0  0  0  0  0  0
  -21.3030  -13.2690   22.2330 H   0  0  0  0  0  0  0  0  0  0  0  0
  -25.5920  -15.3350   20.3030 N   0  0  0  0  0  0  0  0  0  0  0  0
  -24.8250  -15.9910   20.4050 H   0  0  0  0  0  0  0  0  0  0  0  0
  -26.4380  -15.7640   19.9550 H   0  0  0  0  0  0  0  0  0  0  0  0
  1  2  1  0
  3  6  1  0
  4  5  1  0
  4  3  2  0
  5  1  2  0
  6  2  2  0
  6 11  1  0
  7  4  1  0
  8  7  1  0
  9  7  2  0
 10 12  1  0
 10 11  2  0
 13 12  1  0
 14 13  2  0
 15 13  1  0
 16 18  1  0
 16 15  1  0
 17 28  2  0
 18 23  1  0
 19 27  1  0
 19 29  1  0
 20 26  1  0
 20 22  1  0
 21 27  1  0
 22 21  1  0
 23 22  2  0
 24 25  1  0
 24 18  2  0
 25 20  2  0
 26 19  1  0
 27 17  1  0
 29 31  2  0
 30 29  1  0
 32 30  1  0
 33 42  2  0
 33 38  1  0
 34 30  1  0
 34 38  1  0
 35 34  1  0
 36 37  1  0
 36 35  1  0
 37 33  1  0
 38 39  2  0
 39 40  1  0
 41 40  2  0
 42 41  1  0
 43 17  1  0
 43 44  1  0
 43 53  1  0
 44 47  1  0
 45 49  1  0
 45 44  1  0
 46 45  2  0
 49 48  1  0
 51 49  1  0
 51 52  1  0
 51 50  1  0
 53 56  1  1
 53 54  1  0
 55 53  1  0
 57 66  1  0
 57  5  1  0
 58 66  1  0
 59 64  1  0
 60 61  1  0
 60 59  1  0
 62 61  1  0
 62 71  1  0
 62 63  1  0
 64 58  1  0
 64 63  1  0
 65 58  2  0
 66 67  1  0
 68 69  2  0
 69 88  1  0
 70 69  1  0
 70 73  1  0
 71 68  1  0
 71 72  1  0
 72 70  2  0
 73 74  1  0
 74 75  2  0
 76 79  1  0
 76 75  1  0
 77 76  2  0
 78 77  1  0
 78 73  2  0
 79 80  1  0
 80 81  1  0
 81 82  2  0
 83 82  1  0
 83 87  1  0
 84 83  2  0
 85 80  2  0
 85 84  1  0
 86 85  1  0
 88 89  1  0
 89 92  1  0
 89 91  1  0
 90 88  2  0
 93 94  1  0
 93 68  1  0
 95 93  1  0
M  ISO  4  15 101  16 101  58 100  66 100
M  END
>  <TORSDO>  (20) 
F 22

>  <SCORE>  (20) 
-12.913

>  <name>  (20) 
19

>  <ligand_id>  (20) 
19

>  <original_smiles>  (20) 
[H]C(=Nc1c([H])c([H])c(C([H])([H])N([H])C(=O)N2C([H])([H])C([H])([H])C([H])([H])C([H])(n3nc(-c4c([H])c([H])c(Oc5c([H])c([H])c(F)c([H])c5F)c([H])c4[H])c(C(=O)N([H])[H])c3N([H])[H])C2([H])[H])c(C(=O)C([H])([H])[H])c1[H])C([H])([H])C(=O)C([H])([H])Oc1c([H])c([H])c2c(c1[H])C([H])([H])N(C(=O)C([H])(N([H])C(=O)C([H])(N([H])C([H])([H])[H])C([H])([H])[H])C(C([H])([H])[H])(C([H])([H])[H])C([H])([H])[H])C([H])(C(=O)N([H])C1([H])c3c([H])c([H])c([H])c([H])c3C([H])([H])C([H])([H])C1([H])[H])C2([H])[H]

>  <smiles>  (20) 
[H]C(=Nc1c([H])c([H])c(C([H])([H])N([H])C(=O)N2C([H])([H])C([H])([H])C([H])([H])C([H])(n3nc(-c4c([H])c([H])c(Oc5c([H])c([H])c(F)c([H])c5F)c([H])c4[H])c(C(=O)N([H])[H])c3N([H])[H])C2([H])[H])c(C(=O)C([H])([H])[H])c1[H])C([H])([H])C(=O)C([H])([H])Oc1c([H])c([H])c2c(c1[H])C([H])([H])N(C(=O)C([H])(N([H])C(=O)C([H])(N([H])C([H])([H])[H])C([H])([H])[H])C(C([H])([H])[H])(C([H])([H])[H])C([H])([H])[H])C([H])(C(=O)N([H])C1([H])c3c([H])c([H])c([H])c([H])c3C([H])([H])C([H])([H])C1([H])[H])C2([H])[H]

$$$$
20:0:0
     RDKit          3D

 95104  0  0  1  0  0  0  0  0999 V2000
  -29.5740  -23.1740   21.5920 C   0  0  0  0  0  3  0  0  0  0  0  0
  -29.4810  -21.9270   19.1060 C   0  0  0  0  0  2  0  0  0  0  0  0
  -29.0750  -21.1660   20.3980 C   0  0  0  0  0  3  0  0  0  0  0  0
  -29.3780  -24.1120   20.3790 C   0  0  0  0  0  3  0  0  0  0  0  0
  -29.5170  -21.8880   21.5960 N   0  0  0  0  0  0  0  0  0  0  0  0
  -28.9690  -23.3280   19.1700 N   0  0  0  0  0  4  0  0  0  0  0  0
  -27.9630  -23.2670   19.1540 H   0  0  0  0  0  0  0  0  0  0  0  0
  -29.2510  -23.8250   18.3400 H   0  0  0  0  0  0  0  0  0  0  0  0
  -30.7890  -19.1790   20.3830 C   0  0  0  0  0  3  0  0  0  0  0  0
  -31.0940  -17.7890   20.4600 C   0  0  0  0  0  3  0  0  0  0  0  0
  -28.7380  -17.3060   20.7150 C   0  0  0  0  0  3  0  0  0  0  0  0
  -29.4520  -19.6550   20.4630 C   0  0  0  0  0  0  0  0  0  0  0  0
  -30.0650  -16.8260   20.6310 C   0  0  0  0  0  0  0  0  0  0  0  0
  -28.4330  -18.6840   20.6270 C   0  0  0  0  0  0  0  0  0  0  0  0
  -27.1330  -19.0610   20.7100 F   0  0  0  0  0  0  0  0  0  0  0  0
  -30.9410  -14.4960   20.0300 C   0  0  0  0  0  0  0  0  0  0  0  0
  -30.6220  -12.3410   18.8420 C   0  0  0  0  0  2  0  0  0  0  0  0
  -29.5660  -12.5570   17.7350 C   0  0  0  0  0  2  0  0  0  0  0  0
  -28.1340  -12.4040   18.2850 C   0  0  0  0  0  2  0  0  0  0  0  0
  -27.9100  -13.2020   19.5970 C   0  0  0  0  0  3  0  0  0  0  0  0
  -29.0550  -12.9220   20.5960 C   0  0  0  0  0  2  0  0  0  0  0  0
  -30.3260  -13.2810   19.9380 N   0  0  0  0  0  0  0  0  0  0  0  0
  -32.0010  -14.7520   19.4460 O   0  0  0  0  0  0  0  0  0  0  0  0
  -30.2460  -15.4010   20.7590 N   0  0  0  0  0  0  0  0  0  0  0  0
  -29.5070  -14.9470   21.2710 H   0  0  0  0  0  0  0  0  0  0  0  0
  -25.6160  -13.8180   20.5920 C   0  0  0  0  0  0  0  0  0  0  0  0
  -24.5600  -13.0470   21.0000 C   0  0  0  0  0  0  0  0  0  0  0  0
  -24.9640  -11.6900   20.8040 C   0  0  0  0  0  0  0  0  0  0  0  0
  -26.5990  -12.9290   20.1800 N   0  0  0  0  0  0  0  0  0  0  0  0
  -26.2140  -11.6410   20.3630 N   0  0  0  0  0  0  0  0  0  0  0  0
  -24.2120  -10.4390   20.9580 C   0  0  0  0  0  0  0  0  0  0  0  0
  -24.6420   -9.4250   21.8430 C   0  0  0  0  0  3  0  0  0  0  0  0
  -23.8940   -8.2360   21.9870 C   0  0  0  0  0  3  0  0  0  0  0  0
  -22.7020   -8.0540   21.2450 C   0  0  0  0  0  0  0  0  0  0  0  0
  -22.2910   -9.0570   20.3490 C   0  0  0  0  0  3  0  0  0  0  0  0
  -23.0390  -10.2370   20.2030 C   0  0  0  0  0  3  0  0  0  0  0  0
  -21.9260   -6.9210   21.3000 O   0  0  0  0  0  0  0  0  0  0  0  0
  -21.8020   -6.1890   22.4520 C   0  0  0  0  0  0  0  0  0  0  0  0
  -21.3230   -6.7610   23.6510 C   0  0  0  0  0  3  0  0  0  0  0  0
  -21.1440   -5.9570   24.7940 C   0  0  0  0  0  3  0  0  0  0  0  0
  -21.4350   -4.5810   24.7390 C   0  0  0  0  0  0  0  0  0  0  0  0
  -21.9080   -4.0080   23.5450 C   0  0  0  0  0  3  0  0  0  0  0  0
  -22.0890   -4.8100   22.4050 C   0  0  0  0  0  0  0  0  0  0  0  0
  -22.5240   -4.2480   21.2510 F   0  0  0  0  0  0  0  0  0  0  0  0
  -21.2560   -3.8060   25.8350 F   0  0  0  0  0  0  0  0  0  0  0  0
  -23.2160  -13.5390   21.4550 C   0  0  0  0  0  0  0  0  0  0  0  0
  -22.5590  -12.7960   22.3380 N   0  0  0  0  0  0  0  0  0  0  0  0
  -22.7620  -14.6130   21.0630 O   0  0  0  0  0  0  0  0  0  0  0  0
  -22.9410  -11.9260   22.6760 H   0  0  0  0  0  0  0  0  0  0  0  0
  -21.6610  -13.1050   22.6830 H   0  0  0  0  0  0  0  0  0  0  0  0
  -25.8170  -15.1930   20.5160 N   0  0  0  0  0  0  0  0  0  0  0  0
  -25.0870  -15.8570   20.7510 H   0  0  0  0  0  0  0  0  0  0  0  0
  -26.6290  -15.6280   20.0990 H   0  0  0  0  0  0  0  0  0  0  0  0
  -28.4020  -25.3040   20.7060 C   0  0  0  0  0  2  0  0  0  0  0  0
  -28.5010  -26.4900   19.8710 O   0  0  0  0  0  0  0  0  0  0  0  0
  -24.7040  -31.6890   23.0210 C   0  0  0  0  0  0  0  0  0  0  0  0
  -27.3690  -27.2880   19.8710 C   0  0  0  0  0  0  0  0  0  0  0  0
  -23.5160  -30.3310   21.3310 C   0  0  0  0  0  3  0  0  0  0  0  0
  -24.9860  -28.8250   19.8830 C   0  0  0  0  0  0  0  0  0  0  0  0
  -26.0480  -30.6830   21.1730 C   0  0  0  0  0  2  0  0  0  0  0  0
  -26.1410  -29.3260   20.4980 C   0  0  0  0  0  0  0  0  0  0  0  0
  -27.3400  -28.5680   20.4850 C   0  0  0  0  0  3  0  0  0  0  0  0
  -26.1980  -26.8150   19.2410 C   0  0  0  0  0  3  0  0  0  0  0  0
  -25.0110  -27.5720   19.2500 C   0  0  0  0  0  3  0  0  0  0  0  0
  -23.7430  -29.6870   19.9370 C   0  0  0  0  0  2  0  0  0  0  0  0
  -24.7740  -30.9150   21.9010 N   0  0  0  0  0  0  0  0  0  0  0  0
  -23.6160  -31.9490   23.5550 O   0  0  0  0  0  0  0  0  0  0  0  0
  -22.8500  -29.2880   22.2570 C   0  0  0  0  0  0  0  0  0  0  0  0
  -21.5220  -29.1330   22.1310 N   0  0  0  0  0  0  0  0  0  0  0  0
  -23.5260  -28.6220   23.0460 O   0  0  0  0  0  0  0  0  0  0  0  0
  -21.0380  -29.7220   21.4680 H   0  0  0  0  0  0  0  0  0  0  0  0
  -18.1210  -28.0340   22.6660 C   0  0  0  0  0  0  0  0  0  0  0  0
  -20.6930  -28.1800   22.8710 C   0  0  0  0  0  3  0  0  0  0  0  0
  -20.7230  -26.7840   22.2090 C   0  0  0  0  0  2  0  0  0  0  0  0
  -19.5800  -26.5640   21.2130 C   0  0  0  0  0  2  0  0  0  0  0  0
  -18.2250  -26.7210   21.9090 C   0  0  0  0  0  2  0  0  0  0  0  0
  -19.2800  -28.7260   23.1050 C   0  0  0  0  0  0  0  0  0  0  0  0
  -19.1290  -29.9590   23.7750 C   0  0  0  0  0  3  0  0  0  0  0  0
  -17.8500  -30.4980   24.0110 C   0  0  0  0  0  3  0  0  0  0  0  0
  -16.7050  -29.8010   23.5880 C   0  0  0  0  0  3  0  0  0  0  0  0
  -16.8420  -28.5700   22.9230 C   0  0  0  0  0  3  0  0  0  0  0  0
  -25.9820  -32.3020   23.6720 C   0  0  0  0  0  3  0  0  0  0  0  0
  -25.6590  -33.6780   24.0710 N   0  0  0  0  0  0  0  0  0  0  0  0
  -25.9900  -34.7700   23.3690 C   0  0  0  0  0  0  0  0  0  0  0  0
  -26.6700  -34.7260   22.3400 O   0  0  0  0  0  0  0  0  0  0  0  0
  -25.0540  -33.7870   24.8720 H   0  0  0  0  0  0  0  0  0  0  0  0
  -24.2590  -36.5730   23.0810 C   0  0  0  0  0  1  0  0  0  0  0  0
  -25.4870  -36.1300   23.8930 C   0  0  0  0  0  3  0  0  0  0  0  0
  -27.5990  -36.9790   24.8130 C   0  0  0  0  0  1  0  0  0  0  0  0
  -26.5160  -37.1910   23.8570 N   0  0  0  0  0  0  0  0  0  0  0  0
  -26.1020  -38.1010   24.0420 H   0  0  0  0  0  0  0  0  0  0  0  0
  -26.5100  -31.4730   24.9070 C   0  0  1  0  0  0  0  0  0  0  0  0
  -25.4220  -31.1710   25.9640 C   0  0  0  0  0  1  0  0  0  0  0  0
  -27.1080  -30.1240   24.4440 C   0  0  0  0  0  1  0  0  0  0  0  0
  -27.6540  -32.2460   25.6060 C   0  0  0  0  0  1  0  0  0  0  0  0
  1  5  2  0
  2  6  1  0
  2  3  1  0
  3 12  1  0
  3  5  1  0
  4 54  1  0
  4  1  1  0
  6  4  1  0
  7  6  1  0
  8  6  1  0
  9 10  2  0
  9 12  1  0
 10 13  1  0
 12 14  2  0
 13 11  2  0
 13 24  1  0
 14 15  1  0
 14 11  1  0
 16 24  1  0
 17 22  1  0
 18 19  1  0
 18 17  1  0
 20 19  1  0
 20 29  1  0
 20 21  1  0
 22 16  1  0
 22 21  1  0
 23 16  2  0
 24 25  1  0
 26 27  2  0
 27 46  1  0
 28 31  1  0
 28 27  1  0
 29 30  1  0
 29 26  1  0
 30 28  2  0
 31 32  1  0
 32 33  2  0
 34 37  1  0
 34 33  1  0
 35 34  2  0
 36 35  1  0
 36 31  2  0
 37 38  1  0
 38 39  1  0
 39 40  2  0
 41 40  1  0
 41 45  1  0
 42 41  2  0
 43 38  2  0
 43 42  1  0
 44 43  1  0
 46 47  1  0
 47 49  1  0
 47 50  1  0
 48 46  2  0
 51 26  1  0
 51 52  1  0
 53 51  1  0
 55 57  1  0
 55 54  1  0
 56 67  2  0
 57 62  1  0
 58 66  1  0
 58 68  1  0
 59 65  1  0
 59 61  1  0
 60 66  1  0
 61 60  1  0
 62 61  2  0
 63 64  1  0
 63 57  2  0
 64 59  2  0
 65 58  1  0
 66 56  1  0
 68 70  2  0
 69 68  1  0
 71 69  1  0
 72 81  2  0
 72 77  1  0
 73 69  1  0
 73 77  1  0
 74 73  1  0
 75 76  1  0
 75 74  1  0
 76 72  1  0
 77 78  2  0
 78 79  1  0
 80 79  2  0
 81 80  1  0
 82 56  1  0
 82 83  1  0
 82 92  1  0
 83 86  1  0
 84 88  1  0
 84 83  1  0
 85 84  2  0
 88 87  1  0
 90 88  1  0
 90 91  1  0
 90 89  1  0
 92 95  1  1
 92 93  1  0
 94 92  1  0
M  ISO  4  16 100  24 100  54 101  55 101
M  END
>  <TORSDO>  (21) 
F 18

>  <SCORE>  (21) 
-13.716

>  <name>  (21) 
20

>  <ligand_id>  (21) 
20

>  <original_smiles>  (21) 
[H]C1=NC([H])(c2c([H])c([H])c(N([H])C(=O)N3C([H])([H])C([H])([H])C([H])([H])C([H])(n4nc(-c5c([H])c([H])c(Oc6c([H])c([H])c(F)c([H])c6F)c([H])c5[H])c(C(=O)N([H])[H])c4N([H])[H])C3([H])[H])c([H])c2F)C([H])([H])[N+]([H])([H])C1([H])C([H])([H])Oc1c([H])c([H])c2c(c1[H])C([H])([H])N(C(=O)C([H])(N([H])C(=O)C([H])(N([H])C([H])([H])[H])C([H])([H])[H])C(C([H])([H])[H])(C([H])([H])[H])C([H])([H])[H])C([H])(C(=O)N([H])C1([H])c3c([H])c([H])c([H])c([H])c3C([H])([H])C([H])([H])C1([H])[H])C2([H])[H]

>  <smiles>  (21) 
[H]C1=NC([H])(c2c([H])c([H])c(N([H])C(=O)N3C([H])([H])C([H])([H])C([H])([H])C([H])(n4nc(-c5c([H])c([H])c(Oc6c([H])c([H])c(F)c([H])c6F)c([H])c5[H])c(C(=O)N([H])[H])c4N([H])[H])C3([H])[H])c([H])c2F)C([H])([H])[N+]([H])([H])C1([H])C([H])([H])Oc1c([H])c([H])c2c(c1[H])C([H])([H])N(C(=O)C([H])(N([H])C(=O)C([H])(N([H])C([H])([H])[H])C([H])([H])[H])C(C([H])([H])[H])(C([H])([H])[H])C([H])([H])[H])C([H])(C(=O)N([H])C1([H])c3c([H])c([H])c([H])c([H])c3C([H])([H])C([H])([H])C1([H])[H])C2([H])[H]

$$$$
21:0:0
     RDKit          3D

 95104  0  0  1  0  0  0  0  0999 V2000
  -30.7880  -23.4240   22.3480 C   0  0  0  0  0  2  0  0  0  0  0  0
  -30.9400  -22.0330   21.6990 C   0  0  0  0  0  2  0  0  0  0  0  0
  -29.6490  -24.2690   21.7390 C   0  0  0  0  0  2  0  0  0  0  0  0
  -29.6620  -21.5630   20.9740 C   0  0  0  0  0  3  0  0  0  0  0  0
  -29.4730  -24.0700   20.2120 C   0  0  1  0  0  0  0  0  0  0  0  0
  -30.7510  -24.5320   19.4720 C   0  0  0  0  0  1  0  0  0  0  0  0
  -29.2450  -22.5750   19.9190 N   0  0  0  0  0  4  0  0  0  0  0  0
  -28.2640  -22.4150   19.7520 H   0  0  0  0  0  0  0  0  0  0  0  0
  -29.7150  -22.3410   19.0610 H   0  0  0  0  0  0  0  0  0  0  0  0
  -28.5930  -19.1950   20.8160 C   0  0  0  0  0  3  0  0  0  0  0  0
  -30.9360  -19.3330   20.3000 C   0  0  0  0  0  3  0  0  0  0  0  0
  -28.6700  -17.7760   20.7560 C   0  0  0  0  0  3  0  0  0  0  0  0
  -31.0150  -17.9050   20.2380 C   0  0  0  0  0  3  0  0  0  0  0  0
  -29.7280  -20.0230   20.6210 C   0  0  0  0  0  0  0  0  0  0  0  0
  -29.8820  -17.0850   20.4930 C   0  0  0  0  0  0  0  0  0  0  0  0
  -30.6390  -14.6210   20.0390 C   0  0  0  0  0  0  0  0  0  0  0  0
  -30.3640  -12.4120   18.9250 C   0  0  0  0  0  2  0  0  0  0  0  0
  -29.3430  -12.5800   17.7770 C   0  0  0  0  0  2  0  0  0  0  0  0
  -27.8970  -12.4280   18.2920 C   0  0  0  0  0  2  0  0  0  0  0  0
  -27.6280  -13.2610   19.5730 C   0  0  0  0  0  3  0  0  0  0  0  0
  -28.7490  -13.0440   20.6150 C   0  0  0  0  0  2  0  0  0  0  0  0
  -30.0270  -13.3960   19.9720 N   0  0  0  0  0  0  0  0  0  0  0  0
  -31.7620  -14.8100   19.5640 O   0  0  0  0  0  0  0  0  0  0  0  0
  -29.8460  -15.6240   20.5260 N   0  0  0  0  0  0  0  0  0  0  0  0
  -28.9890  -15.2520   20.9060 H   0  0  0  0  0  0  0  0  0  0  0  0
  -25.2910  -13.8800   20.4470 C   0  0  0  0  0  0  0  0  0  0  0  0
  -24.2360  -13.1140   20.8650 C   0  0  0  0  0  0  0  0  0  0  0  0
  -24.6730  -11.7570   20.7710 C   0  0  0  0  0  0  0  0  0  0  0  0
  -26.3040  -12.9900   20.1290 N   0  0  0  0  0  0  0  0  0  0  0  0
  -25.9400  -11.7070   20.3820 N   0  0  0  0  0  0  0  0  0  0  0  0
  -23.9390  -10.5010   20.9730 C   0  0  0  0  0  0  0  0  0  0  0  0
  -24.3870   -9.5230   21.8880 C   0  0  0  0  0  3  0  0  0  0  0  0
  -23.6550   -8.3320   22.0780 C   0  0  0  0  0  3  0  0  0  0  0  0
  -22.4600   -8.1100   21.3520 C   0  0  0  0  0  0  0  0  0  0  0  0
  -22.0300   -9.0760   20.4270 C   0  0  0  0  0  3  0  0  0  0  0  0
  -22.7630  -10.2590   20.2340 C   0  0  0  0  0  3  0  0  0  0  0  0
  -21.6980   -6.9710   21.4530 O   0  0  0  0  0  0  0  0  0  0  0  0
  -21.6370   -6.2460   22.6160 C   0  0  0  0  0  0  0  0  0  0  0  0
  -21.2070   -6.8220   23.8320 C   0  0  0  0  0  3  0  0  0  0  0  0
  -21.0940   -6.0230   24.9870 C   0  0  0  0  0  3  0  0  0  0  0  0
  -21.4000   -4.6500   24.9280 C   0  0  0  0  0  0  0  0  0  0  0  0
  -21.8220   -4.0740   23.7180 C   0  0  0  0  0  3  0  0  0  0  0  0
  -21.9380   -4.8700   22.5640 C   0  0  0  0  0  0  0  0  0  0  0  0
  -22.3250   -4.3060   21.3950 F   0  0  0  0  0  0  0  0  0  0  0  0
  -21.2830   -3.8800   26.0350 F   0  0  0  0  0  0  0  0  0  0  0  0
  -22.8660  -13.6040   21.2350 C   0  0  0  0  0  0  0  0  0  0  0  0
  -22.1860  -12.9020   22.1360 N   0  0  0  0  0  0  0  0  0  0  0  0
  -22.4090  -14.6440   20.7610 O   0  0  0  0  0  0  0  0  0  0  0  0
  -22.5690  -12.0610   22.5400 H   0  0  0  0  0  0  0  0  0  0  0  0
  -21.2690  -13.2120   22.4240 H   0  0  0  0  0  0  0  0  0  0  0  0
  -25.4640  -15.2520   20.2910 N   0  0  0  0  0  0  0  0  0  0  0  0
  -24.7000  -15.9040   20.4370 H   0  0  0  0  0  0  0  0  0  0  0  0
  -26.2710  -15.6800   19.8570 H   0  0  0  0  0  0  0  0  0  0  0  0
  -28.2940  -25.0270   19.7140 C   0  0  0  0  0  2  0  0  0  0  0  0
  -28.4310  -26.4840   19.9490 O   0  0  0  0  0  0  0  0  0  0  0  0
  -24.5480  -31.6570   23.1200 C   0  0  0  0  0  0  0  0  0  0  0  0
  -27.2770  -27.2820   19.9200 C   0  0  0  0  0  0  0  0  0  0  0  0
  -23.3760  -30.2830   21.4350 C   0  0  0  0  0  3  0  0  0  0  0  0
  -24.8650  -28.8180   19.9600 C   0  0  0  0  0  0  0  0  0  0  0  0
  -25.9050  -30.6770   21.2580 C   0  0  0  0  0  2  0  0  0  0  0  0
  -26.0200  -29.3240   20.5690 C   0  0  0  0  0  0  0  0  0  0  0  0
  -27.2280  -28.5680   20.5380 C   0  0  0  0  0  3  0  0  0  0  0  0
  -26.0950  -26.8270   19.2880 C   0  0  0  0  0  3  0  0  0  0  0  0
  -24.9040  -27.5760   19.3110 C   0  0  0  0  0  3  0  0  0  0  0  0
  -23.6050  -29.6560   20.0350 C   0  0  0  0  0  2  0  0  0  0  0  0
  -24.6280  -30.8870   21.9950 N   0  0  0  0  0  0  0  0  0  0  0  0
  -23.4590  -31.8880   23.6650 O   0  0  0  0  0  0  0  0  0  0  0  0
  -22.7420  -29.2180   22.3630 C   0  0  0  0  0  0  0  0  0  0  0  0
  -21.4210  -29.0080   22.2270 N   0  0  0  0  0  0  0  0  0  0  0  0
  -23.4350  -28.5860   23.1620 O   0  0  0  0  0  0  0  0  0  0  0  0
  -20.9190  -29.5730   21.5570 H   0  0  0  0  0  0  0  0  0  0  0  0
  -18.0730  -27.7170   22.6900 C   0  0  0  0  0  0  0  0  0  0  0  0
  -20.6260  -28.0260   22.9660 C   0  0  0  0  0  3  0  0  0  0  0  0
  -20.7610  -26.6170   22.3430 C   0  0  0  0  0  2  0  0  0  0  0  0
  -19.6650  -26.3030   21.3210 C   0  0  0  0  0  2  0  0  0  0  0  0
  -18.2810  -26.3960   21.9690 C   0  0  0  0  0  2  0  0  0  0  0  0
  -19.1750  -28.4910   23.1440 C   0  0  0  0  0  0  0  0  0  0  0  0
  -18.9280  -29.7280   23.7770 C   0  0  0  0  0  3  0  0  0  0  0  0
  -17.6130  -30.1940   23.9600 C   0  0  0  0  0  3  0  0  0  0  0  0
  -16.5260  -29.4170   23.5220 C   0  0  0  0  0  3  0  0  0  0  0  0
  -16.7580  -28.1810   22.8930 C   0  0  0  0  0  3  0  0  0  0  0  0
  -25.8160  -32.2990   23.7620 C   0  0  0  0  0  3  0  0  0  0  0  0
  -25.4830  -33.6900   24.1040 N   0  0  0  0  0  0  0  0  0  0  0  0
  -25.7930  -34.7540   23.3520 C   0  0  0  0  0  0  0  0  0  0  0  0
  -26.4580  -34.6700   22.3150 O   0  0  0  0  0  0  0  0  0  0  0  0
  -24.8900  -33.8280   24.9080 H   0  0  0  0  0  0  0  0  0  0  0  0
  -24.0190  -36.5100   23.0350 C   0  0  0  0  0  1  0  0  0  0  0  0
  -25.2850  -36.1310   23.8210 C   0  0  0  0  0  3  0  0  0  0  0  0
  -27.4120  -37.0630   24.6170 C   0  0  0  0  0  1  0  0  0  0  0  0
  -26.2910  -37.2070   23.6920 N   0  0  0  0  0  0  0  0  0  0  0  0
  -25.8680  -38.1170   23.8460 H   0  0  0  0  0  0  0  0  0  0  0  0
  -26.3290  -31.5220   25.0350 C   0  0  1  0  0  0  0  0  0  0  0  0
  -25.2280  -31.2580   26.0890 C   0  0  0  0  0  1  0  0  0  0  0  0
  -26.9340  -30.1570   24.6340 C   0  0  0  0  0  1  0  0  0  0  0  0
  -27.4620  -32.3250   25.7190 C   0  0  0  0  0  1  0  0  0  0  0  0
  2  1  1  0
  3  1  1  0
  4 14  1  0
  4  2  1  0
  5  6  1  6
  5  3  1  0
  7  5  1  0
  7  4  1  0
  8  7  1  0
  9  7  1  0
 11 14  1  0
 12 10  1  0
 13 11  2  0
 13 15  1  0
 14 10  2  0
 15 24  1  0
 15 12  2  0
 16 24  1  0
 17 22  1  0
 18 19  1  0
 18 17  1  0
 20 19  1  0
 20 29  1  0
 20 21  1  0
 22 16  1  0
 22 21  1  0
 23 16  2  0
 24 25  1  0
 26 27  2  0
 27 46  1  0
 28 27  1  0
 28 31  1  0
 29 30  1  0
 29 26  1  0
 30 28  2  0
 31 32  1  0
 32 33  2  0
 34 37  1  0
 34 33  1  0
 35 34  2  0
 36 35  1  0
 36 31  2  0
 37 38  1  0
 38 39  1  0
 39 40  2  0
 41 40  1  0
 41 45  1  0
 42 41  2  0
 43 38  2  0
 43 42  1  0
 44 43  1  0
 46 47  1  0
 47 50  1  0
 47 49  1  0
 48 46  2  0
 51 52  1  0
 51 26  1  0
 53 51  1  0
 54 55  1  0
 54  5  1  0
 56 67  2  0
 57 55  1  0
 57 62  1  0
 58 66  1  0
 58 68  1  0
 59 65  1  0
 59 61  1  0
 60 66  1  0
 61 60  1  0
 62 61  2  0
 63 64  1  0
 63 57  2  0
 64 59  2  0
 65 58  1  0
 66 56  1  0
 68 70  2  0
 69 68  1  0
 71 69  1  0
 72 81  2  0
 72 77  1  0
 73 69  1  0
 73 77  1  0
 74 73  1  0
 75 76  1  0
 75 74  1  0
 76 72  1  0
 77 78  2  0
 78 79  1  0
 80 79  2  0
 81 80  1  0
 82 56  1  0
 82 83  1  0
 82 92  1  0
 83 86  1  0
 84 88  1  0
 84 83  1  0
 85 84  2  0
 88 87  1  0
 90 88  1  0
 90 91  1  0
 90 89  1  0
 92 95  1  1
 92 93  1  0
 94 92  1  0
M  ISO  4  16 100  24 100  54 101  55 101
M  END
>  <TORSDO>  (22) 
F 18

>  <SCORE>  (22) 
-13.863

>  <name>  (22) 
21

>  <ligand_id>  (22) 
21

>  <original_smiles>  (22) 
[H]c1c([H])c([H])c2c(c1[H])C([H])([H])C([H])([H])C([H])([H])C2([H])N([H])C(=O)C1([H])N(C(=O)C([H])(N([H])C(=O)C([H])(N([H])C([H])([H])[H])C([H])([H])[H])C(C([H])([H])[H])(C([H])([H])[H])C([H])([H])[H])C([H])([H])c2c([H])c(OC([H])([H])C3(C([H])([H])[H])C([H])([H])C([H])([H])C([H])([H])C([H])(c4c([H])c([H])c(N([H])C(=O)N5C([H])([H])C([H])([H])C([H])([H])C([H])(n6nc(-c7c([H])c([H])c(Oc8c([H])c([H])c(F)c([H])c8F)c([H])c7[H])c(C(=O)N([H])[H])c6N([H])[H])C5([H])[H])c([H])c4[H])[N+]3([H])[H])c([H])c([H])c2C1([H])[H]

>  <smiles>  (22) 
[H]c1c([H])c([H])c2c(c1[H])C([H])([H])C([H])([H])C([H])([H])C2([H])N([H])C(=O)C1([H])N(C(=O)C([H])(N([H])C(=O)C([H])(N([H])C([H])([H])[H])C([H])([H])[H])C(C([H])([H])[H])(C([H])([H])[H])C([H])([H])[H])C([H])([H])c2c([H])c(OC([H])([H])C3(C([H])([H])[H])C([H])([H])C([H])([H])C([H])([H])C([H])(c4c([H])c([H])c(N([H])C(=O)N5C([H])([H])C([H])([H])C([H])([H])C([H])(n6nc(-c7c([H])c([H])c(Oc8c([H])c([H])c(F)c([H])c8F)c([H])c7[H])c(C(=O)N([H])[H])c6N([H])[H])C5([H])[H])c([H])c4[H])[N+]3([H])[H])c([H])c([H])c2C1([H])[H]

$$$$
22:0:0
     RDKit          3D

 91 99  0  0  1  0  0  0  0  0999 V2000
  -28.8060  -17.9450   21.0800 C   0  0  0  0  0  3  0  0  0  0  0  0
  -28.7750  -19.3630   20.9580 C   0  0  0  0  0  3  0  0  0  0  0  0
  -30.8630  -17.9410   19.8730 C   0  0  0  0  0  3  0  0  0  0  0  0
  -29.8660  -17.1750   20.5310 C   0  0  0  0  0  0  0  0  0  0  0  0
  -29.8110  -20.0360   20.2790 C   0  0  0  0  0  0  0  0  0  0  0  0
  -30.8310  -19.3080   19.7550 N   0  0  0  0  0  0  0  0  0  0  0  0
  -29.8690  -21.4530   20.0920 N   0  0  0  0  0  0  0  0  0  0  0  0
  -30.6580  -21.8390   19.5840 H   0  0  0  0  0  0  0  0  0  0  0  0
  -30.6120  -14.7010   20.1710 C   0  0  0  0  0  0  0  0  0  0  0  0
  -30.3830  -12.4920   19.0450 C   0  0  0  0  0  2  0  0  0  0  0  0
  -29.4020  -12.6570   17.8630 C   0  0  0  0  0  2  0  0  0  0  0  0
  -27.9400  -12.4910   18.3280 C   0  0  0  0  0  2  0  0  0  0  0  0
  -27.6230  -13.3170   19.6020 C   0  0  0  0  0  3  0  0  0  0  0  0
  -28.7100  -13.1100   20.6810 C   0  0  0  0  0  2  0  0  0  0  0  0
  -30.0070  -13.4730   20.0820 N   0  0  0  0  0  0  0  0  0  0  0  0
  -31.7460  -14.8960   19.7250 O   0  0  0  0  0  0  0  0  0  0  0  0
  -29.8230  -15.7120   20.6530 N   0  0  0  0  0  0  0  0  0  0  0  0
  -28.9720  -15.3570   21.0630 H   0  0  0  0  0  0  0  0  0  0  0  0
  -25.2430  -13.9130   20.3700 C   0  0  0  0  0  0  0  0  0  0  0  0
  -24.1850  -13.1380   20.7630 C   0  0  0  0  0  0  0  0  0  0  0  0
  -24.6500  -11.7880   20.7210 C   0  0  0  0  0  0  0  0  0  0  0  0
  -26.2840  -13.0350   20.1130 N   0  0  0  0  0  0  0  0  0  0  0  0
  -25.9320  -11.7510   20.3840 N   0  0  0  0  0  0  0  0  0  0  0  0
  -23.9300  -10.5240   20.9270 C   0  0  0  0  0  0  0  0  0  0  0  0
  -24.3710   -9.5690   21.8680 C   0  0  0  0  0  3  0  0  0  0  0  0
  -23.6530   -8.3690   22.0610 C   0  0  0  0  0  3  0  0  0  0  0  0
  -22.4780   -8.1170   21.3130 C   0  0  0  0  0  0  0  0  0  0  0  0
  -22.0550   -9.0620   20.3620 C   0  0  0  0  0  3  0  0  0  0  0  0
  -22.7750  -10.2530   20.1660 C   0  0  0  0  0  3  0  0  0  0  0  0
  -21.7300   -6.9690   21.4150 O   0  0  0  0  0  0  0  0  0  0  0  0
  -21.6710   -6.2500   22.5820 C   0  0  0  0  0  0  0  0  0  0  0  0
  -21.2010   -6.8200   23.7850 C   0  0  0  0  0  3  0  0  0  0  0  0
  -21.0920   -6.0250   24.9440 C   0  0  0  0  0  3  0  0  0  0  0  0
  -21.4410   -4.6620   24.9010 C   0  0  0  0  0  0  0  0  0  0  0  0
  -21.9030   -4.0920   23.7020 C   0  0  0  0  0  3  0  0  0  0  0  0
  -22.0150   -4.8830   22.5450 C   0  0  0  0  0  0  0  0  0  0  0  0
  -22.4410   -4.3240   21.3870 F   0  0  0  0  0  0  0  0  0  0  0  0
  -21.3280   -3.8970   26.0110 F   0  0  0  0  0  0  0  0  0  0  0  0
  -22.7940  -13.6130   21.0660 C   0  0  0  0  0  0  0  0  0  0  0  0
  -22.0860  -12.9150   21.9470 N   0  0  0  0  0  0  0  0  0  0  0  0
  -22.3430  -14.6380   20.5560 O   0  0  0  0  0  0  0  0  0  0  0  0
  -22.4630  -12.0860   22.3810 H   0  0  0  0  0  0  0  0  0  0  0  0
  -21.1530  -13.2150   22.1910 H   0  0  0  0  0  0  0  0  0  0  0  0
  -25.4000  -15.2840   20.1880 N   0  0  0  0  0  0  0  0  0  0  0  0
  -24.6280  -15.9310   20.3020 H   0  0  0  0  0  0  0  0  0  0  0  0
  -26.2270  -15.7200   19.7990 H   0  0  0  0  0  0  0  0  0  0  0  0
  -28.8760  -22.4710   20.5660 C   0  0  0  0  0  2  0  0  0  0  0  0
  -29.1590  -23.9870   20.1970 C   0  0  0  0  0  0  0  0  0  0  0  0
  -30.1770  -24.2780   19.5580 O   0  0  0  0  0  0  0  0  0  0  0  0
  -28.1370  -25.1090   20.6450 C   0  0  0  0  0  2  0  0  0  0  0  0
  -28.4060  -26.5100   20.2190 O   0  0  0  0  0  0  0  0  0  0  0  0
  -24.6040  -31.8880   23.2000 C   0  0  0  0  0  0  0  0  0  0  0  0
  -27.2900  -27.3590   20.1740 C   0  0  0  0  0  0  0  0  0  0  0  0
  -23.4280  -30.4770   21.5500 C   0  0  0  0  0  3  0  0  0  0  0  0
  -24.9080  -28.9420   20.1380 C   0  0  0  0  0  0  0  0  0  0  0  0
  -25.9660  -30.8230   21.3890 C   0  0  0  0  0  2  0  0  0  0  0  0
  -26.0660  -29.4450   20.7450 C   0  0  0  0  0  0  0  0  0  0  0  0
  -27.2620  -28.6650   20.7530 C   0  0  0  0  0  3  0  0  0  0  0  0
  -26.1130  -26.9150   19.5300 C   0  0  0  0  0  3  0  0  0  0  0  0
  -24.9330  -27.6830   19.5210 C   0  0  0  0  0  3  0  0  0  0  0  0
  -23.6620  -29.8030   20.1730 C   0  0  0  0  0  2  0  0  0  0  0  0
  -24.6840  -31.0800   22.1040 N   0  0  0  0  0  0  0  0  0  0  0  0
  -23.5130  -32.1550   23.7260 O   0  0  0  0  0  0  0  0  0  0  0  0
  -22.7680  -29.4530   22.5050 C   0  0  0  0  0  0  0  0  0  0  0  0
  -21.4430  -29.2690   22.3710 N   0  0  0  0  0  0  0  0  0  0  0  0
  -23.4450  -28.8290   23.3250 O   0  0  0  0  0  0  0  0  0  0  0  0
  -20.9550  -29.8250   21.6830 H   0  0  0  0  0  0  0  0  0  0  0  0
  -18.0650  -28.0760   22.8720 C   0  0  0  0  0  0  0  0  0  0  0  0
  -20.6250  -28.3270   23.1360 C   0  0  0  0  0  3  0  0  0  0  0  0
  -20.7220  -26.9000   22.5470 C   0  0  0  0  0  2  0  0  0  0  0  0
  -19.6150  -26.5900   21.5330 C   0  0  0  0  0  2  0  0  0  0  0  0
  -18.2360  -26.7320   22.1840 C   0  0  0  0  0  2  0  0  0  0  0  0
  -19.1870  -28.8320   23.3050 C   0  0  0  0  0  0  0  0  0  0  0  0
  -18.9720  -30.0900   23.9090 C   0  0  0  0  0  3  0  0  0  0  0  0
  -17.6690  -30.5920   24.0840 C   0  0  0  0  0  3  0  0  0  0  0  0
  -16.5620  -29.8330   23.6660 C   0  0  0  0  0  3  0  0  0  0  0  0
  -16.7610  -28.5770   23.0660 C   0  0  0  0  0  3  0  0  0  0  0  0
  -25.8750  -32.5320   23.8340 C   0  0  0  0  0  3  0  0  0  0  0  0
  -26.3750  -31.7780   25.1270 C   0  0  1  0  0  0  0  0  0  0  0  0
  -25.2670  -31.5470   26.1810 C   0  0  0  0  0  1  0  0  0  0  0  0
  -26.9710  -30.3990   24.7600 C   0  0  0  0  0  1  0  0  0  0  0  0
  -27.5120  -32.5850   25.7970 C   0  0  0  0  0  1  0  0  0  0  0  0
  -25.5550  -33.9330   24.1440 N   0  0  0  0  0  0  0  0  0  0  0  0
  -25.8900  -34.9780   23.3770 C   0  0  0  0  0  0  0  0  0  0  0  0
  -26.5710  -34.8660   22.3540 O   0  0  0  0  0  0  0  0  0  0  0  0
  -24.9510  -34.0940   24.9370 H   0  0  0  0  0  0  0  0  0  0  0  0
  -24.1600  -36.7620   22.9810 C   0  0  0  0  0  1  0  0  0  0  0  0
  -25.3920  -36.3700   23.8130 C   0  0  0  0  0  3  0  0  0  0  0  0
  -27.5100  -37.2750   24.6650 C   0  0  0  0  0  1  0  0  0  0  0  0
  -26.4220  -37.4260   23.7020 N   0  0  0  0  0  0  0  0  0  0  0  0
  -26.0100  -38.3460   23.8310 H   0  0  0  0  0  0  0  0  0  0  0  0
  2  1  1  0
  3  4  1  0
  4 17  1  0
  4  1  2  0
  5  2  2  0
  6  3  2  0
  6  5  1  0
  7  5  1  0
  7 47  1  0
  8  7  1  0
  9 17  1  0
 10 15  1  0
 11 12  1  0
 11 10  1  0
 13 12  1  0
 13 22  1  0
 13 14  1  0
 15  9  1  0
 15 14  1  0
 16  9  2  0
 17 18  1  0
 19 20  2  0
 20 39  1  0
 21 20  1  0
 21 24  1  0
 22 19  1  0
 22 23  1  0
 23 21  2  0
 24 25  1  0
 25 26  2  0
 27 30  1  0
 27 26  1  0
 28 27  2  0
 29 28  1  0
 29 24  2  0
 30 31  1  0
 31 32  1  0
 32 33  2  0
 34 33  1  0
 34 38  1  0
 35 34  2  0
 36 31  2  0
 36 35  1  0
 37 36  1  0
 39 40  1  0
 40 43  1  0
 40 42  1  0
 41 39  2  0
 44 45  1  0
 44 19  1  0
 46 44  1  0
 48 47  1  0
 48 50  1  0
 49 48  2  0
 51 50  1  0
 52 63  2  0
 53 51  1  0
 53 58  1  0
 54 62  1  0
 54 64  1  0
 55 61  1  0
 55 57  1  0
 56 62  1  0
 57 58  2  0
 57 56  1  0
 59 53  2  0
 60 59  1  0
 60 55  2  0
 61 54  1  0
 62 52  1  0
 64 66  2  0
 65 64  1  0
 67 65  1  0
 68 77  2  0
 68 73  1  0
 69 65  1  0
 69 73  1  0
 70 69  1  0
 71 72  1  0
 71 70  1  0
 72 68  1  0
 73 74  2  0
 74 75  1  0
 76 75  2  0
 77 76  1  0
 78 52  1  0
 78 83  1  0
 78 79  1  0
 79 82  1  1
 79 80  1  0
 81 79  1  0
 83 86  1  0
 84 88  1  0
 84 83  1  0
 85 84  2  0
 88 87  1  0
 90 88  1  0
 90 91  1  0
 90 89  1  0
M  ISO  4   9 100  17 100  50 101  51 101
M  END
>  <TORSDO>  (23) 
F 19

>  <SCORE>  (23) 
-13.648

>  <name>  (23) 
22

>  <ligand_id>  (23) 
22

>  <original_smiles>  (23) 
[H]c1nc(N([H])C([H])([H])C(=O)C([H])([H])Oc2c([H])c([H])c3c(c2[H])C([H])([H])N(C(=O)C([H])(N([H])C(=O)C([H])(N([H])C([H])([H])[H])C([H])([H])[H])C(C([H])([H])[H])(C([H])([H])[H])C([H])([H])[H])C([H])(C(=O)N([H])C2([H])c4c([H])c([H])c([H])c([H])c4C([H])([H])C([H])([H])C2([H])[H])C3([H])[H])c([H])c([H])c1N([H])C(=O)N1C([H])([H])C([H])([H])C([H])([H])C([H])(n2nc(-c3c([H])c([H])c(Oc4c([H])c([H])c(F)c([H])c4F)c([H])c3[H])c(C(=O)N([H])[H])c2N([H])[H])C1([H])[H]

>  <smiles>  (23) 
[H]c1nc(N([H])C([H])([H])C(=O)C([H])([H])Oc2c([H])c([H])c3c(c2[H])C([H])([H])N(C(=O)C([H])(N([H])C(=O)C([H])(N([H])C([H])([H])[H])C([H])([H])[H])C(C([H])([H])[H])(C([H])([H])[H])C([H])([H])[H])C([H])(C(=O)N([H])C2([H])c4c([H])c([H])c([H])c([H])c4C([H])([H])C([H])([H])C2([H])[H])C3([H])[H])c([H])c([H])c1N([H])C(=O)N1C([H])([H])C([H])([H])C([H])([H])C([H])(n2nc(-c3c([H])c([H])c(Oc4c([H])c([H])c(F)c([H])c4F)c([H])c3[H])c(C(=O)N([H])[H])c2N([H])[H])C1([H])[H]

$$$$
23:0:0
     RDKit          3D

 95103  0  0  1  0  0  0  0  0999 V2000
  -28.5570  -20.2110   20.3400 N   0  0  0  0  0  0  0  0  0  0  0  0
  -27.6570  -19.8050   20.0960 H   0  0  0  0  0  0  0  0  0  0  0  0
  -31.5680  -17.3750   21.3420 C   0  0  0  0  0  3  0  0  0  0  0  0
  -30.8700  -19.6990   21.0180 C   0  0  0  0  0  3  0  0  0  0  0  0
  -30.2720  -16.9210   21.0070 C   0  0  0  0  0  0  0  0  0  0  0  0
  -29.5640  -19.2790   20.6840 C   0  0  0  0  0  0  0  0  0  0  0  0
  -31.8590  -18.7530   21.3500 C   0  0  0  0  0  0  0  0  0  0  0  0
  -29.2700  -17.8850   20.7050 C   0  0  0  0  0  0  0  0  0  0  0  0
  -33.1050  -19.1730   21.6770 F   0  0  0  0  0  0  0  0  0  0  0  0
  -28.0150  -17.4630   20.4050 F   0  0  0  0  0  0  0  0  0  0  0  0
  -30.6490  -14.5270   20.4080 C   0  0  0  0  0  0  0  0  0  0  0  0
  -30.3550  -12.3700   19.2340 C   0  0  0  0  0  2  0  0  0  0  0  0
  -29.3850  -12.5720   18.0520 C   0  0  0  0  0  2  0  0  0  0  0  0
  -27.9220  -12.4190   18.5110 C   0  0  0  0  0  2  0  0  0  0  0  0
  -27.6070  -13.2540   19.7790 C   0  0  0  0  0  3  0  0  0  0  0  0
  -28.6800  -13.0220   20.8650 C   0  0  0  0  0  2  0  0  0  0  0  0
  -29.9910  -13.3430   20.2790 N   0  0  0  0  0  0  0  0  0  0  0  0
  -31.7600  -14.7200   19.9060 O   0  0  0  0  0  0  0  0  0  0  0  0
  -29.9500  -15.5210   21.0020 N   0  0  0  0  0  0  0  0  0  0  0  0
  -29.0130  -15.2850   21.2920 H   0  0  0  0  0  0  0  0  0  0  0  0
  -25.2240  -13.8600   20.5410 C   0  0  0  0  0  0  0  0  0  0  0  0
  -24.1600  -13.0820   20.9220 C   0  0  0  0  0  0  0  0  0  0  0  0
  -24.6200  -11.7310   20.8640 C   0  0  0  0  0  0  0  0  0  0  0  0
  -26.2630  -12.9780   20.2800 N   0  0  0  0  0  0  0  0  0  0  0  0
  -25.9030  -11.6940   20.5300 N   0  0  0  0  0  0  0  0  0  0  0  0
  -23.8940  -10.4680   21.0520 C   0  0  0  0  0  0  0  0  0  0  0  0
  -24.3380   -9.4930   21.9730 C   0  0  0  0  0  3  0  0  0  0  0  0
  -23.6150   -8.2930   22.1490 C   0  0  0  0  0  3  0  0  0  0  0  0
  -22.4340   -8.0610   21.4060 C   0  0  0  0  0  0  0  0  0  0  0  0
  -22.0090   -9.0240   20.4730 C   0  0  0  0  0  3  0  0  0  0  0  0
  -22.7330  -10.2140   20.2950 C   0  0  0  0  0  3  0  0  0  0  0  0
  -21.6810   -6.9130   21.4910 O   0  0  0  0  0  0  0  0  0  0  0  0
  -21.6380   -6.1660   22.6400 C   0  0  0  0  0  0  0  0  0  0  0  0
  -21.1990   -6.7120   23.8670 C   0  0  0  0  0  3  0  0  0  0  0  0
  -21.1030   -5.8900   25.0070 C   0  0  0  0  0  3  0  0  0  0  0  0
  -21.4360   -4.5240   24.9230 C   0  0  0  0  0  0  0  0  0  0  0  0
  -21.8680   -3.9790   23.7010 C   0  0  0  0  0  3  0  0  0  0  0  0
  -21.9660   -4.7980   22.5630 C   0  0  0  0  0  0  0  0  0  0  0  0
  -22.3620   -4.2630   21.3830 F   0  0  0  0  0  0  0  0  0  0  0  0
  -21.3370   -3.7330   26.0160 F   0  0  0  0  0  0  0  0  0  0  0  0
  -22.7710  -13.5590   21.2300 C   0  0  0  0  0  0  0  0  0  0  0  0
  -22.0580  -12.8470   22.0980 N   0  0  0  0  0  0  0  0  0  0  0  0
  -22.3250  -14.5940   20.7380 O   0  0  0  0  0  0  0  0  0  0  0  0
  -22.4310  -12.0080   22.5150 H   0  0  0  0  0  0  0  0  0  0  0  0
  -21.1280  -13.1470   22.3490 H   0  0  0  0  0  0  0  0  0  0  0  0
  -25.3920  -15.2320   20.3850 N   0  0  0  0  0  0  0  0  0  0  0  0
  -24.6380  -15.8920   20.5380 H   0  0  0  0  0  0  0  0  0  0  0  0
  -26.2550  -15.6790   20.0940 H   0  0  0  0  0  0  0  0  0  0  0  0
  -28.8690  -21.5280   19.7260 C   0  0  0  0  0  2  0  0  0  0  0  0
  -28.6620  -22.7790   20.6230 C   0  0  0  0  0  0  0  0  0  0  0  0
  -28.5830  -22.6560   21.8520 O   0  0  0  0  0  0  0  0  0  0  0  0
  -28.5940  -24.1980   19.9510 C   0  0  0  0  0  0  0  0  0  0  0  0
  -28.8090  -24.3440   18.7400 O   0  0  0  0  0  0  0  0  0  0  0  0
  -28.2450  -25.4050   20.8530 C   0  0  0  0  0  2  0  0  0  0  0  0
  -28.3790  -26.6870   20.1900 O   0  0  0  0  0  0  0  0  0  0  0  0
  -24.5840  -31.9280   23.2040 C   0  0  0  0  0  0  0  0  0  0  0  0
  -27.2290  -27.4510   20.1730 C   0  0  0  0  0  0  0  0  0  0  0  0
  -23.3780  -30.5130   21.5690 C   0  0  0  0  0  3  0  0  0  0  0  0
  -24.8380  -28.9680   20.1550 C   0  0  0  0  0  0  0  0  0  0  0  0
  -25.9060  -30.8730   21.3710 C   0  0  0  0  0  2  0  0  0  0  0  0
  -25.9970  -29.4970   20.7400 C   0  0  0  0  0  0  0  0  0  0  0  0
  -27.2000  -28.7490   20.7370 C   0  0  0  0  0  3  0  0  0  0  0  0
  -26.0530  -26.9360   19.5880 C   0  0  0  0  0  3  0  0  0  0  0  0
  -24.8610  -27.6870   19.5750 C   0  0  0  0  0  3  0  0  0  0  0  0
  -23.5910  -29.8240   20.1940 C   0  0  0  0  0  2  0  0  0  0  0  0
  -24.6390  -31.1230   22.1040 N   0  0  0  0  0  0  0  0  0  0  0  0
  -23.5020  -32.2030   23.7450 O   0  0  0  0  0  0  0  0  0  0  0  0
  -22.7290  -29.4990   22.5360 C   0  0  0  0  0  0  0  0  0  0  0  0
  -21.4030  -29.3240   22.4150 N   0  0  0  0  0  0  0  0  0  0  0  0
  -23.4140  -28.8730   23.3480 O   0  0  0  0  0  0  0  0  0  0  0  0
  -20.9150  -29.8820   21.7300 H   0  0  0  0  0  0  0  0  0  0  0  0
  -18.0200  -28.1630   22.9420 C   0  0  0  0  0  0  0  0  0  0  0  0
  -20.5830  -28.3930   23.1900 C   0  0  0  0  0  3  0  0  0  0  0  0
  -20.6650  -26.9640   22.6060 C   0  0  0  0  0  2  0  0  0  0  0  0
  -19.5500  -26.6560   21.6000 C   0  0  0  0  0  2  0  0  0  0  0  0
  -18.1750  -26.8140   22.2570 C   0  0  0  0  0  2  0  0  0  0  0  0
  -19.1520  -28.9110   23.3610 C   0  0  0  0  0  0  0  0  0  0  0  0
  -18.9540  -30.1760   23.9580 C   0  0  0  0  0  3  0  0  0  0  0  0
  -17.6570  -30.6930   24.1370 C   0  0  0  0  0  3  0  0  0  0  0  0
  -16.5400  -29.9400   23.7340 C   0  0  0  0  0  3  0  0  0  0  0  0
  -16.7220  -28.6780   23.1420 C   0  0  0  0  0  3  0  0  0  0  0  0
  -25.8700  -32.5640   23.8210 C   0  0  0  0  0  3  0  0  0  0  0  0
  -25.5580  -33.9600   24.1560 N   0  0  0  0  0  0  0  0  0  0  0  0
  -25.8880  -35.0160   23.4020 C   0  0  0  0  0  0  0  0  0  0  0  0
  -26.5600  -34.9180   22.3700 O   0  0  0  0  0  0  0  0  0  0  0  0
  -24.9640  -34.1080   24.9580 H   0  0  0  0  0  0  0  0  0  0  0  0
  -24.1620  -36.8080   23.0400 C   0  0  0  0  0  1  0  0  0  0  0  0
  -25.3950  -36.3990   23.8620 C   0  0  0  0  0  3  0  0  0  0  0  0
  -27.5160  -37.2810   24.7260 C   0  0  0  0  0  1  0  0  0  0  0  0
  -26.4270  -37.4530   23.7670 N   0  0  0  0  0  0  0  0  0  0  0  0
  -26.0200  -38.3730   23.9150 H   0  0  0  0  0  0  0  0  0  0  0  0
  -26.3980  -31.7910   25.0910 C   0  0  1  0  0  0  0  0  0  0  0  0
  -25.3130  -31.5440   26.1640 C   0  0  0  0  0  1  0  0  0  0  0  0
  -26.9880  -30.4190   24.6890 C   0  0  0  0  0  1  0  0  0  0  0  0
  -27.5450  -32.5900   25.7530 C   0  0  0  0  0  1  0  0  0  0  0  0
  1  6  1  0
  2  1  1  0
  3  7  1  0
  4  7  2  0
  5  3  2  0
  6  8  2  0
  6  4  1  0
  7  9  1  0
  8  5  1  0
 10  8  1  0
 11 19  1  0
 12 17  1  0
 13 14  1  0
 13 12  1  0
 15 14  1  0
 15 24  1  0
 15 16  1  0
 17 11  1  0
 17 16  1  0
 18 11  2  0
 19  5  1  0
 19 20  1  0
 21 22  2  0
 22 41  1  0
 23 22  1  0
 23 26  1  0
 24 25  1  0
 24 21  1  0
 25 23  2  0
 26 27  1  0
 27 28  2  0
 29 32  1  0
 29 28  1  0
 30 29  2  0
 31 30  1  0
 31 26  2  0
 32 33  1  0
 33 34  1  0
 34 35  2  0
 36 35  1  0
 36 40  1  0
 37 36  2  0
 38 33  2  0
 38 37  1  0
 39 38  1  0
 41 42  1  0
 42 45  1  0
 42 44  1  0
 43 41  2  0
 46 47  1  0
 46 21  1  0
 48 46  1  0
 49  1  1  0
 49 50  1  0
 50 51  2  0
 52 50  1  0
 52 54  1  0
 53 52  2  0
 55 54  1  0
 56 67  2  0
 57 55  1  0
 57 62  1  0
 58 66  1  0
 58 68  1  0
 59 65  1  0
 59 61  1  0
 60 66  1  0
 61 60  1  0
 62 61  2  0
 63 57  2  0
 64 63  1  0
 64 59  2  0
 65 58  1  0
 66 56  1  0
 68 70  2  0
 69 68  1  0
 71 69  1  0
 72 81  2  0
 72 77  1  0
 73 69  1  0
 73 77  1  0
 74 73  1  0
 75 76  1  0
 75 74  1  0
 76 72  1  0
 77 78  2  0
 78 79  1  0
 80 79  2  0
 81 80  1  0
 82 56  1  0
 82 83  1  0
 82 92  1  0
 83 86  1  0
 84 88  1  0
 84 83  1  0
 85 84  2  0
 88 87  1  0
 90 88  1  0
 90 91  1  0
 90 89  1  0
 92 95  1  1
 92 93  1  0
 94 92  1  0
M  ISO  4  11 100  19 100  54 101  55 101
M  END
>  <TORSDO>  (24) 
F 21

>  <SCORE>  (24) 
-14.078

>  <name>  (24) 
23

>  <ligand_id>  (24) 
23

>  <original_smiles>  (24) 
[H]c1c([H])c([H])c2c(c1[H])C([H])([H])C([H])([H])C([H])([H])C2([H])N([H])C(=O)C1([H])N(C(=O)C([H])(N([H])C(=O)C([H])(N([H])C([H])([H])[H])C([H])([H])[H])C(C([H])([H])[H])(C([H])([H])[H])C([H])([H])[H])C([H])([H])c2c([H])c(OC([H])([H])C(=O)C(=O)C([H])([H])N([H])c3c([H])c(F)c([H])c(N([H])C(=O)N4C([H])([H])C([H])([H])C([H])([H])C([H])(n5nc(-c6c([H])c([H])c(Oc7c([H])c([H])c(F)c([H])c7F)c([H])c6[H])c(C(=O)N([H])[H])c5N([H])[H])C4([H])[H])c3F)c([H])c([H])c2C1([H])[H]

>  <smiles>  (24) 
[H]c1c([H])c([H])c2c(c1[H])C([H])([H])C([H])([H])C([H])([H])C2([H])N([H])C(=O)C1([H])N(C(=O)C([H])(N([H])C(=O)C([H])(N([H])C([H])([H])[H])C([H])([H])[H])C(C([H])([H])[H])(C([H])([H])[H])C([H])([H])[H])C([H])([H])c2c([H])c(OC([H])([H])C(=O)C(=O)C([H])([H])N([H])c3c([H])c(F)c([H])c(N([H])C(=O)N4C([H])([H])C([H])([H])C([H])([H])C([H])(n5nc(-c6c([H])c([H])c(Oc7c([H])c([H])c(F)c([H])c7F)c([H])c6[H])c(C(=O)N([H])[H])c5N([H])[H])C4([H])[H])c3F)c([H])c([H])c2C1([H])[H]

$$$$
24:0:0
     RDKit          3D

 98106  0  0  1  0  0  0  0  0999 V2000
  -31.2710  -20.2890   21.4450 N   0  0  0  0  0  0  0  0  0  0  0  0
  -31.9130  -20.8700   20.9080 H   0  0  0  0  0  0  0  0  0  0  0  0
  -30.5430  -17.9580   21.3120 C   0  0  0  0  0  3  0  0  0  0  0  0
  -30.1680  -18.2540   18.5290 C   0  0  0  0  0  3  0  0  0  0  0  0
  -30.8070  -19.2050   20.6900 C   0  0  0  0  0  0  0  0  0  0  0  0
  -30.1390  -16.8470   20.5340 C   0  0  0  0  0  0  0  0  0  0  0  0
  -30.6330  -19.3420   19.2910 C   0  0  0  0  0  0  0  0  0  0  0  0
  -29.9190  -17.0130   19.1440 C   0  0  0  0  0  0  0  0  0  0  0  0
  -29.4790  -15.9750   18.3920 F   0  0  0  0  0  0  0  0  0  0  0  0
  -30.6740  -14.5010   20.7200 C   0  0  0  0  0  0  0  0  0  0  0  0
  -30.4140  -12.3110   19.6460 C   0  0  0  0  0  2  0  0  0  0  0  0
  -29.5290  -12.4760   18.3930 C   0  0  0  0  0  2  0  0  0  0  0  0
  -28.0350  -12.3630   18.7590 C   0  0  0  0  0  2  0  0  0  0  0  0
  -27.6410  -13.2290   19.9870 C   0  0  0  0  0  3  0  0  0  0  0  0
  -28.6490  -13.0550   21.1450 C   0  0  0  0  0  2  0  0  0  0  0  0
  -29.9980  -13.3270   20.6230 N   0  0  0  0  0  0  0  0  0  0  0  0
  -31.8350  -14.6430   20.3240 O   0  0  0  0  0  0  0  0  0  0  0  0
  -29.9610  -15.5630   21.1260 N   0  0  0  0  0  0  0  0  0  0  0  0
  -29.0540  -15.3650   21.5170 H   0  0  0  0  0  0  0  0  0  0  0  0
  -25.2140  -13.8330   20.5940 C   0  0  0  0  0  0  0  0  0  0  0  0
  -24.1320  -13.0580   20.9210 C   0  0  0  0  0  0  0  0  0  0  0  0
  -24.5990  -11.7090   20.9210 C   0  0  0  0  0  0  0  0  0  0  0  0
  -26.2710  -12.9520   20.4130 N   0  0  0  0  0  0  0  0  0  0  0  0
  -25.9010  -11.6700   20.6680 N   0  0  0  0  0  0  0  0  0  0  0  0
  -23.8680  -10.4450   21.0910 C   0  0  0  0  0  0  0  0  0  0  0  0
  -24.2660   -9.4820   22.0440 C   0  0  0  0  0  3  0  0  0  0  0  0
  -23.5360   -8.2840   22.1980 C   0  0  0  0  0  3  0  0  0  0  0  0
  -22.3950   -8.0410   21.3980 C   0  0  0  0  0  0  0  0  0  0  0  0
  -22.0180   -8.9890   20.4310 C   0  0  0  0  0  3  0  0  0  0  0  0
  -22.7490  -10.1790   20.2760 C   0  0  0  0  0  3  0  0  0  0  0  0
  -21.6370   -6.8950   21.4650 O   0  0  0  0  0  0  0  0  0  0  0  0
  -21.5450   -6.1570   22.6180 C   0  0  0  0  0  0  0  0  0  0  0  0
  -21.0560   -6.7130   23.8200 C   0  0  0  0  0  3  0  0  0  0  0  0
  -20.9140   -5.9020   24.9640 C   0  0  0  0  0  3  0  0  0  0  0  0
  -21.2460   -4.5340   24.9050 C   0  0  0  0  0  0  0  0  0  0  0  0
  -21.7260   -3.9780   23.7060 C   0  0  0  0  0  3  0  0  0  0  0  0
  -21.8720   -4.7870   22.5660 C   0  0  0  0  0  0  0  0  0  0  0  0
  -22.3140   -4.2400   21.4070 F   0  0  0  0  0  0  0  0  0  0  0  0
  -21.1010   -3.7540   26.0010 F   0  0  0  0  0  0  0  0  0  0  0  0
  -22.7240  -13.5330   21.1340 C   0  0  0  0  0  0  0  0  0  0  0  0
  -21.9610  -12.8380   21.9690 N   0  0  0  0  0  0  0  0  0  0  0  0
  -22.3080  -14.5570   20.5970 O   0  0  0  0  0  0  0  0  0  0  0  0
  -22.3090  -12.0080   22.4300 H   0  0  0  0  0  0  0  0  0  0  0  0
  -21.0130  -13.1370   22.1490 H   0  0  0  0  0  0  0  0  0  0  0  0
  -25.3880  -15.2050   20.4210 N   0  0  0  0  0  0  0  0  0  0  0  0
  -24.6240  -15.8690   20.4680 H   0  0  0  0  0  0  0  0  0  0  0  0
  -26.2660  -15.6350   20.1550 H   0  0  0  0  0  0  0  0  0  0  0  0
  -30.9170  -20.5550   18.6540 N   0  0  0  0  0  0  0  0  0  0  0  0
  -30.9660  -20.5820   17.6400 H   0  0  0  0  0  0  0  0  0  0  0  0
  -31.5210  -21.2300   19.1080 H   0  0  0  0  0  0  0  0  0  0  0  0
  -30.2010  -21.1740   21.9100 C   0  0  0  0  0  2  0  0  0  0  0  0
  -30.5420  -22.6590   21.7020 C   0  0  0  0  0  0  0  0  0  0  0  0
  -31.6450  -22.9900   21.2510 O   0  0  0  0  0  0  0  0  0  0  0  0
  -29.4930  -23.6960   22.1230 C   0  0  0  0  0  2  0  0  0  0  0  0
  -28.9930  -24.5590   20.9540 C   0  0  0  0  0  0  0  0  0  0  0  0
  -28.8640  -24.1140   19.8040 O   0  0  0  0  0  0  0  0  0  0  0  0
  -28.5930  -26.0060   21.3060 C   0  0  0  0  0  2  0  0  0  0  0  0
  -28.3200  -26.7560   20.1170 O   0  0  0  0  0  0  0  0  0  0  0  0
  -24.5160  -31.8990   23.2590 C   0  0  0  0  0  0  0  0  0  0  0  0
  -27.1610  -27.4870   20.1660 C   0  0  0  0  0  0  0  0  0  0  0  0
  -23.3030  -30.4980   21.6170 C   0  0  0  0  0  3  0  0  0  0  0  0
  -24.7570  -28.9670   20.1820 C   0  0  0  0  0  0  0  0  0  0  0  0
  -25.8220  -30.8680   21.4070 C   0  0  0  0  0  2  0  0  0  0  0  0
  -25.9100  -29.4960   20.7760 C   0  0  0  0  0  0  0  0  0  0  0  0
  -27.1150  -28.7580   20.7760 C   0  0  0  0  0  3  0  0  0  0  0  0
  -26.0000  -26.9680   19.5600 C   0  0  0  0  0  3  0  0  0  0  0  0
  -24.7950  -27.6980   19.5730 C   0  0  0  0  0  3  0  0  0  0  0  0
  -23.5080  -29.8190   20.2350 C   0  0  0  0  0  2  0  0  0  0  0  0
  -24.5660  -31.1050   22.1550 N   0  0  0  0  0  0  0  0  0  0  0  0
  -23.4390  -32.1650   23.8090 O   0  0  0  0  0  0  0  0  0  0  0  0
  -22.6590  -29.4730   22.5780 C   0  0  0  0  0  0  0  0  0  0  0  0
  -21.3340  -29.2870   22.4530 N   0  0  0  0  0  0  0  0  0  0  0  0
  -23.3460  -28.8490   23.3910 O   0  0  0  0  0  0  0  0  0  0  0  0
  -20.8380  -29.8470   21.7730 H   0  0  0  0  0  0  0  0  0  0  0  0
  -17.9640  -28.0870   22.9440 C   0  0  0  0  0  0  0  0  0  0  0  0
  -20.5200  -28.3430   23.2180 C   0  0  0  0  0  3  0  0  0  0  0  0
  -20.6240  -26.9140   22.6370 C   0  0  0  0  0  2  0  0  0  0  0  0
  -19.5230  -26.5970   21.6200 C   0  0  0  0  0  2  0  0  0  0  0  0
  -18.1420  -26.7400   22.2630 C   0  0  0  0  0  2  0  0  0  0  0  0
  -19.0810  -28.8480   23.3780 C   0  0  0  0  0  0  0  0  0  0  0  0
  -18.8620  -30.1140   23.9670 C   0  0  0  0  0  3  0  0  0  0  0  0
  -17.5560  -30.6150   24.1290 C   0  0  0  0  0  3  0  0  0  0  0  0
  -16.4530  -29.8490   23.7160 C   0  0  0  0  0  3  0  0  0  0  0  0
  -16.6570  -28.5870   23.1280 C   0  0  0  0  0  3  0  0  0  0  0  0
  -25.8070  -32.5260   23.8730 C   0  0  0  0  0  3  0  0  0  0  0  0
  -25.5100  -33.9280   24.1920 N   0  0  0  0  0  0  0  0  0  0  0  0
  -25.8590  -34.9720   23.4280 C   0  0  0  0  0  0  0  0  0  0  0  0
  -26.5340  -34.8570   22.4010 O   0  0  0  0  0  0  0  0  0  0  0  0
  -24.9210  -34.0920   24.9940 H   0  0  0  0  0  0  0  0  0  0  0  0
  -24.1520  -36.7740   23.0350 C   0  0  0  0  0  1  0  0  0  0  0  0
  -25.3760  -36.3660   23.8700 C   0  0  0  0  0  3  0  0  0  0  0  0
  -27.5120  -37.2280   24.7210 C   0  0  0  0  0  1  0  0  0  0  0  0
  -26.4170  -37.4140   23.7720 N   0  0  0  0  0  0  0  0  0  0  0  0
  -26.0170  -38.3320   23.9320 H   0  0  0  0  0  0  0  0  0  0  0  0
  -26.3210  -31.7570   25.1520 C   0  0  1  0  0  0  0  0  0  0  0  0
  -25.2270  -31.5280   26.2190 C   0  0  0  0  0  1  0  0  0  0  0  0
  -26.8960  -30.3760   24.7580 C   0  0  0  0  0  1  0  0  0  0  0  0
  -27.4740  -32.5450   25.8140 C   0  0  0  0  0  1  0  0  0  0  0  0
  1 51  1  0
  2  1  1  0
  4  8  2  0
  4  7  1  0
  5  3  1  0
  5  1  1  0
  6 18  1  0
  6  3  2  0
  7  5  2  0
  8  6  1  0
  9  8  1  0
 10 18  1  0
 11 16  1  0
 12 13  1  0
 12 11  1  0
 14 13  1  0
 14 23  1  0
 14 15  1  0
 16 10  1  0
 16 15  1  0
 17 10  2  0
 18 19  1  0
 20 21  2  0
 21 40  1  0
 22 21  1  0
 22 25  1  0
 23 20  1  0
 23 24  1  0
 24 22  2  0
 25 26  1  0
 26 27  2  0
 28 31  1  0
 28 27  1  0
 29 28  2  0
 30 29  1  0
 30 25  2  0
 31 32  1  0
 32 33  1  0
 33 34  2  0
 35 34  1  0
 35 39  1  0
 36 35  2  0
 37 32  2  0
 37 36  1  0
 38 37  1  0
 40 41  1  0
 41 44  1  0
 41 43  1  0
 42 40  2  0
 45 46  1  0
 45 20  1  0
 47 45  1  0
 48 50  1  0
 48  7  1  0
 49 48  1  0
 52 51  1  0
 52 54  1  0
 53 52  2  0
 55 57  1  0
 55 54  1  0
 56 55  2  0
 58 60  1  0
 58 57  1  0
 59 70  2  0
 60 65  1  0
 61 69  1  0
 61 71  1  0
 62 68  1  0
 62 64  1  0
 63 69  1  0
 64 65  2  0
 64 63  1  0
 66 67  1  0
 66 60  2  0
 67 62  2  0
 68 61  1  0
 69 59  1  0
 71 73  2  0
 72 71  1  0
 74 72  1  0
 75 84  2  0
 75 80  1  0
 76 72  1  0
 76 80  1  0
 77 76  1  0
 78 79  1  0
 78 77  1  0
 79 75  1  0
 80 81  2  0
 81 82  1  0
 83 82  2  0
 84 83  1  0
 85 59  1  0
 85 86  1  0
 85 95  1  0
 86 89  1  0
 87 91  1  0
 87 86  1  0
 88 87  2  0
 91 90  1  0
 93 91  1  0
 93 94  1  0
 93 92  1  0
 95 98  1  1
 95 96  1  0
 97 95  1  0
M  ISO  4  10 100  18 100  57 101  58 101
M  END
>  <TORSDO>  (25) 
F 23

>  <SCORE>  (25) 
-12.943

>  <name>  (25) 
24

>  <ligand_id>  (25) 
24

>  <original_smiles>  (25) 
[H]c1c([H])c([H])c2c(c1[H])C([H])([H])C([H])([H])C([H])([H])C2([H])N([H])C(=O)C1([H])N(C(=O)C([H])(N([H])C(=O)C([H])(N([H])C([H])([H])[H])C([H])([H])[H])C(C([H])([H])[H])(C([H])([H])[H])C([H])([H])[H])C([H])([H])c2c([H])c(OC([H])([H])C(=O)C([H])([H])C(=O)C([H])([H])N([H])c3c([H])c(N([H])C(=O)N4C([H])([H])C([H])([H])C([H])([H])C([H])(n5nc(-c6c([H])c([H])c(Oc7c([H])c([H])c(F)c([H])c7F)c([H])c6[H])c(C(=O)N([H])[H])c5N([H])[H])C4([H])[H])c(F)c([H])c3N([H])[H])c([H])c([H])c2C1([H])[H]

>  <smiles>  (25) 
[H]c1c([H])c([H])c2c(c1[H])C([H])([H])C([H])([H])C([H])([H])C2([H])N([H])C(=O)C1([H])N(C(=O)C([H])(N([H])C(=O)C([H])(N([H])C([H])([H])[H])C([H])([H])[H])C(C([H])([H])[H])(C([H])([H])[H])C([H])([H])[H])C([H])([H])c2c([H])c(OC([H])([H])C(=O)C([H])([H])C(=O)C([H])([H])N([H])c3c([H])c(N([H])C(=O)N4C([H])([H])C([H])([H])C([H])([H])C([H])(n5nc(-c6c([H])c([H])c(Oc7c([H])c([H])c(F)c([H])c7F)c([H])c6[H])c(C(=O)N([H])[H])c5N([H])[H])C4([H])[H])c(F)c([H])c3N([H])[H])c([H])c([H])c2C1([H])[H]

$$$$
25:0:0
     RDKit          3D

 89 98  0  0  1  0  0  0  0  0999 V2000
  -27.6780  -22.5490   19.4600 C   0  0  0  0  0  2  0  0  0  0  0  0
  -28.5540  -21.9920   20.5580 C   0  0  0  0  0  3  0  0  0  0  0  0
  -28.7330  -23.5070   19.9450 C   0  0  0  0  0  3  0  0  0  0  0  0
  -30.3280  -19.8810   20.0800 C   0  0  0  0  0  3  0  0  0  0  0  0
  -28.0560  -19.4290   20.5340 C   0  0  0  0  0  3  0  0  0  0  0  0
  -30.6030  -18.4450   20.0490 C   0  0  0  0  0  3  0  0  0  0  0  0
  -28.3220  -18.0190   20.5140 C   0  0  0  0  0  3  0  0  0  0  0  0
  -29.0290  -20.4520   20.3380 C   0  0  0  0  0  0  0  0  0  0  0  0
  -29.6010  -17.4380   20.2820 C   0  0  0  0  0  0  0  0  0  0  0  0
  -30.5520  -14.8810   19.9820 C   0  0  0  0  0  0  0  0  0  0  0  0
  -30.3870  -12.5930   18.9370 C   0  0  0  0  0  2  0  0  0  0  0  0
  -29.3730  -12.6550   17.7700 C   0  0  0  0  0  2  0  0  0  0  0  0
  -27.9290  -12.4580   18.2750 C   0  0  0  0  0  2  0  0  0  0  0  0
  -27.6160  -13.3120   19.5310 C   0  0  0  0  0  3  0  0  0  0  0  0
  -28.7390  -13.1990   20.5870 C   0  0  0  0  0  2  0  0  0  0  0  0
  -29.9920  -13.6140   19.9380 N   0  0  0  0  0  0  0  0  0  0  0  0
  -31.7070  -15.0470   19.5770 O   0  0  0  0  0  0  0  0  0  0  0  0
  -29.6960  -15.9300   20.3400 N   0  0  0  0  0  0  0  0  0  0  0  0
  -28.8300  -15.5250   20.6610 H   0  0  0  0  0  0  0  0  0  0  0  0
  -25.2700  -13.8860   20.3940 C   0  0  0  0  0  0  0  0  0  0  0  0
  -24.2280  -13.1050   20.8110 C   0  0  0  0  0  0  0  0  0  0  0  0
  -24.6890  -11.7550   20.7330 C   0  0  0  0  0  0  0  0  0  0  0  0
  -26.3010  -13.0120   20.0880 N   0  0  0  0  0  0  0  0  0  0  0  0
  -25.9610  -11.7230   20.3530 N   0  0  0  0  0  0  0  0  0  0  0  0
  -23.9750  -10.4890   20.9420 C   0  0  0  0  0  0  0  0  0  0  0  0
  -24.4370   -9.5220   21.8620 C   0  0  0  0  0  3  0  0  0  0  0  0
  -23.7210   -8.3220   22.0570 C   0  0  0  0  0  3  0  0  0  0  0  0
  -22.5290   -8.0790   21.3340 C   0  0  0  0  0  0  0  0  0  0  0  0
  -22.0870   -9.0340   20.4010 C   0  0  0  0  0  3  0  0  0  0  0  0
  -22.8040  -10.2270   20.2040 C   0  0  0  0  0  3  0  0  0  0  0  0
  -21.7820   -6.9310   21.4400 O   0  0  0  0  0  0  0  0  0  0  0  0
  -21.7400   -6.2060   22.6040 C   0  0  0  0  0  0  0  0  0  0  0  0
  -21.3000   -6.7720   23.8200 C   0  0  0  0  0  3  0  0  0  0  0  0
  -21.2050   -5.9720   24.9760 C   0  0  0  0  0  3  0  0  0  0  0  0
  -21.5420   -4.6060   24.9180 C   0  0  0  0  0  0  0  0  0  0  0  0
  -21.9730   -4.0390   23.7060 C   0  0  0  0  0  3  0  0  0  0  0  0
  -22.0690   -4.8360   22.5520 C   0  0  0  0  0  0  0  0  0  0  0  0
  -22.4670   -4.2790   21.3830 F   0  0  0  0  0  0  0  0  0  0  0  0
  -21.4440   -3.8350   26.0270 F   0  0  0  0  0  0  0  0  0  0  0  0
  -22.8470  -13.5760   21.1640 C   0  0  0  0  0  0  0  0  0  0  0  0
  -22.1650  -12.8640   22.0550 N   0  0  0  0  0  0  0  0  0  0  0  0
  -22.3820  -14.6090   20.6850 O   0  0  0  0  0  0  0  0  0  0  0  0
  -22.5570  -12.0270   22.4630 H   0  0  0  0  0  0  0  0  0  0  0  0
  -21.2410  -13.1580   22.3340 H   0  0  0  0  0  0  0  0  0  0  0  0
  -25.4190  -15.2580   20.2200 N   0  0  0  0  0  0  0  0  0  0  0  0
  -24.6310  -15.8880   20.3360 H   0  0  0  0  0  0  0  0  0  0  0  0
  -26.1940  -15.6820   19.7310 H   0  0  0  0  0  0  0  0  0  0  0  0
  -28.2140  -24.9010   20.6340 C   0  0  0  0  0  2  0  0  0  0  0  0
  -28.3880  -26.3390   20.1520 O   0  0  0  0  0  0  0  0  0  0  0  0
  -24.6240  -31.8660   23.1660 C   0  0  0  0  0  0  0  0  0  0  0  0
  -27.2870  -27.2450   20.1510 C   0  0  0  0  0  0  0  0  0  0  0  0
  -23.4560  -30.4720   21.5010 C   0  0  0  0  0  3  0  0  0  0  0  0
  -24.9300  -28.9130   20.0990 C   0  0  0  0  0  0  0  0  0  0  0  0
  -26.0030  -30.7730   21.3630 C   0  0  0  0  0  2  0  0  0  0  0  0
  -26.0970  -29.3870   20.7150 C   0  0  0  0  0  0  0  0  0  0  0  0
  -27.2790  -28.5700   20.7220 C   0  0  0  0  0  3  0  0  0  0  0  0
  -26.0970  -26.8440   19.5090 C   0  0  0  0  0  3  0  0  0  0  0  0
  -24.9370  -27.6490   19.4830 C   0  0  0  0  0  3  0  0  0  0  0  0
  -23.6970  -29.7980   20.1240 C   0  0  0  0  0  2  0  0  0  0  0  0
  -24.7140  -31.0590   22.0660 N   0  0  0  0  0  0  0  0  0  0  0  0
  -23.5310  -32.1390   23.6820 O   0  0  0  0  0  0  0  0  0  0  0  0
  -22.7700  -29.4560   22.4470 C   0  0  0  0  0  0  0  0  0  0  0  0
  -21.4440  -29.2880   22.3090 N   0  0  0  0  0  0  0  0  0  0  0  0
  -23.4350  -28.8180   23.2690 O   0  0  0  0  0  0  0  0  0  0  0  0
  -20.9620  -29.8500   21.6190 H   0  0  0  0  0  0  0  0  0  0  0  0
  -18.0560  -28.1020   22.7730 C   0  0  0  0  0  0  0  0  0  0  0  0
  -20.6150  -28.3480   23.0650 C   0  0  0  0  0  3  0  0  0  0  0  0
  -20.7150  -26.9220   22.4740 C   0  0  0  0  0  2  0  0  0  0  0  0
  -19.6180  -26.6160   21.4480 C   0  0  0  0  0  2  0  0  0  0  0  0
  -18.2320  -26.7610   22.0820 C   0  0  0  0  0  2  0  0  0  0  0  0
  -19.1750  -28.8540   23.2210 C   0  0  0  0  0  0  0  0  0  0  0  0
  -18.9550  -30.1120   23.8260 C   0  0  0  0  0  3  0  0  0  0  0  0
  -17.6510  -30.6150   23.9890 C   0  0  0  0  0  3  0  0  0  0  0  0
  -16.5470  -29.8600   23.5570 C   0  0  0  0  0  3  0  0  0  0  0  0
  -16.7510  -28.6060   22.9540 C   0  0  0  0  0  3  0  0  0  0  0  0
  -25.8920  -32.5010   23.8180 C   0  0  0  0  0  3  0  0  0  0  0  0
  -25.5720  -33.8970   24.1500 N   0  0  0  0  0  0  0  0  0  0  0  0
  -25.9160  -34.9560   23.4040 C   0  0  0  0  0  0  0  0  0  0  0  0
  -26.5980  -34.8580   22.3790 O   0  0  0  0  0  0  0  0  0  0  0  0
  -24.9680  -34.0480   24.9440 H   0  0  0  0  0  0  0  0  0  0  0  0
  -24.1870  -36.7480   23.0370 C   0  0  0  0  0  1  0  0  0  0  0  0
  -25.4200  -36.3420   23.8610 C   0  0  0  0  0  3  0  0  0  0  0  0
  -27.5420  -37.2270   24.7230 C   0  0  0  0  0  1  0  0  0  0  0  0
  -26.4510  -37.3980   23.7660 N   0  0  0  0  0  0  0  0  0  0  0  0
  -26.0420  -38.3160   23.9140 H   0  0  0  0  0  0  0  0  0  0  0  0
  -26.3840  -31.7270   25.1030 C   0  0  1  0  0  0  0  0  0  0  0  0
  -25.2700  -31.4910   26.1500 C   0  0  0  0  0  1  0  0  0  0  0  0
  -26.9700  -30.3490   24.7200 C   0  0  0  0  0  1  0  0  0  0  0  0
  -27.5250  -32.5180   25.7860 C   0  0  0  0  0  1  0  0  0  0  0  0
  1  3  1  0
  1  2  1  0
  2  8  1  0
  3  2  1  0
  3 48  1  0
  4  8  1  0
  6  4  2  0
  6  9  1  0
  7  5  1  0
  8  5  2  0
  9 18  1  0
  9  7  2  0
 10 18  1  0
 11 16  1  0
 12 13  1  0
 12 11  1  0
 14 13  1  0
 14 23  1  0
 14 15  1  0
 16 10  1  0
 16 15  1  0
 17 10  2  0
 18 19  1  0
 20 21  2  0
 21 40  1  0
 22 21  1  0
 22 25  1  0
 23 24  1  0
 23 20  1  0
 24 22  2  0
 25 26  1  0
 26 27  2  0
 28 31  1  0
 28 27  1  0
 29 28  2  0
 30 29  1  0
 30 25  2  0
 31 32  1  0
 32 33  1  0
 33 34  2  0
 35 34  1  0
 35 39  1  0
 36 35  2  0
 37 32  2  0
 37 36  1  0
 38 37  1  0
 40 41  1  0
 41 44  1  0
 41 43  1  0
 42 40  2  0
 45 46  1  0
 45 20  1  0
 47 45  1  0
 49 48  1  0
 50 61  2  0
 51 49  1  0
 51 56  1  0
 52 60  1  0
 52 62  1  0
 53 59  1  0
 53 55  1  0
 54 60  1  0
 55 56  2  0
 55 54  1  0
 57 51  2  0
 58 57  1  0
 58 53  2  0
 59 52  1  0
 60 50  1  0
 62 64  2  0
 63 62  1  0
 65 63  1  0
 66 75  2  0
 66 71  1  0
 67 63  1  0
 67 71  1  0
 68 67  1  0
 69 70  1  0
 69 68  1  0
 70 66  1  0
 71 72  2  0
 72 73  1  0
 74 73  2  0
 75 74  1  0
 76 50  1  0
 76 77  1  0
 76 86  1  0
 77 80  1  0
 78 82  1  0
 78 77  1  0
 79 78  2  0
 82 81  1  0
 84 82  1  0
 84 85  1  0
 84 83  1  0
 86 89  1  1
 86 87  1  0
 88 86  1  0
M  ISO  4  10 100  18 100  48 101  49 101
M  END
>  <TORSDO>  (26) 
F 18

>  <SCORE>  (26) 
-14.443

>  <name>  (26) 
25

>  <ligand_id>  (26) 
25

>  <original_smiles>  (26) 
[H]c1c([H])c([H])c2c(c1[H])C([H])([H])C([H])([H])C([H])([H])C2([H])N([H])C(=O)C1([H])N(C(=O)C([H])(N([H])C(=O)C([H])(N([H])C([H])([H])[H])C([H])([H])[H])C(C([H])([H])[H])(C([H])([H])[H])C([H])([H])[H])C([H])([H])c2c([H])c(OC([H])([H])C3([H])C([H])([H])C3([H])c3c([H])c([H])c(N([H])C(=O)N4C([H])([H])C([H])([H])C([H])([H])C([H])(n5nc(-c6c([H])c([H])c(Oc7c([H])c([H])c(F)c([H])c7F)c([H])c6[H])c(C(=O)N([H])[H])c5N([H])[H])C4([H])[H])c([H])c3[H])c([H])c([H])c2C1([H])[H]

>  <smiles>  (26) 
[H]c1c([H])c([H])c2c(c1[H])C([H])([H])C([H])([H])C([H])([H])C2([H])N([H])C(=O)C1([H])N(C(=O)C([H])(N([H])C(=O)C([H])(N([H])C([H])([H])[H])C([H])([H])[H])C(C([H])([H])[H])(C([H])([H])[H])C([H])([H])[H])C([H])([H])c2c([H])c(OC([H])([H])C3([H])C([H])([H])C3([H])c3c([H])c([H])c(N([H])C(=O)N4C([H])([H])C([H])([H])C([H])([H])C([H])(n5nc(-c6c([H])c([H])c(Oc7c([H])c([H])c(F)c([H])c7F)c([H])c6[H])c(C(=O)N([H])[H])c5N([H])[H])C4([H])[H])c([H])c3[H])c([H])c([H])c2C1([H])[H]

$$$$
26:0:0
     RDKit          3D

 96104  0  0  1  0  0  0  0  0999 V2000
  -30.3390  -21.1920   20.9920 C   0  0  0  0  0  0  0  0  0  0  0  0
  -29.1540  -21.8200   21.0680 N   0  0  0  0  0  0  0  0  0  0  0  0
  -31.4050  -21.8050   21.1090 O   0  0  0  0  0  0  0  0  0  0  0  0
  -28.3400  -21.2360   20.9330 H   0  0  0  0  0  0  0  0  0  0  0  0
  -29.2100  -17.6720   21.2840 C   0  0  0  0  0  3  0  0  0  0  0  0
  -30.2970  -19.6770   20.8140 C   0  0  0  0  0  0  0  0  0  0  0  0
  -30.2650  -16.9060   20.7280 C   0  0  0  0  0  0  0  0  0  0  0  0
  -31.3660  -18.9110   20.2440 C   0  0  0  0  0  0  0  0  0  0  0  0
  -29.2150  -19.0280   21.3240 N   0  0  0  0  0  0  0  0  0  0  0  0
  -31.3370  -17.5550   20.1980 N   0  0  0  0  0  0  0  0  0  0  0  0
  -32.5240  -19.4580   19.6970 N   0  0  0  0  0  0  0  0  0  0  0  0
  -32.7520  -20.4100   19.9690 H   0  0  0  0  0  0  0  0  0  0  0  0
  -33.3330  -18.8560   19.5890 H   0  0  0  0  0  0  0  0  0  0  0  0
  -30.7820  -14.5160   20.1220 C   0  0  0  0  0  0  0  0  0  0  0  0
  -30.4220  -12.3980   18.9100 C   0  0  0  0  0  2  0  0  0  0  0  0
  -29.4080  -12.6560   17.7770 C   0  0  0  0  0  2  0  0  0  0  0  0
  -27.9620  -12.4970   18.2880 C   0  0  0  0  0  2  0  0  0  0  0  0
  -27.7030  -13.2760   19.6050 C   0  0  0  0  0  3  0  0  0  0  0  0
  -28.8250  -13.0050   20.6350 C   0  0  0  0  0  2  0  0  0  0  0  0
  -30.1140  -13.3340   20.0030 N   0  0  0  0  0  0  0  0  0  0  0  0
  -31.8780  -14.7100   19.5890 O   0  0  0  0  0  0  0  0  0  0  0  0
  -30.0970  -15.4860   20.7620 N   0  0  0  0  0  0  0  0  0  0  0  0
  -29.2540  -15.1660   21.2120 H   0  0  0  0  0  0  0  0  0  0  0  0
  -25.3500  -13.8510   20.4760 C   0  0  0  0  0  0  0  0  0  0  0  0
  -24.3070  -13.0610   20.8820 C   0  0  0  0  0  0  0  0  0  0  0  0
  -24.7690  -11.7130   20.7780 C   0  0  0  0  0  0  0  0  0  0  0  0
  -26.3810  -12.9810   20.1530 N   0  0  0  0  0  0  0  0  0  0  0  0
  -26.0370  -11.6890   20.3910 N   0  0  0  0  0  0  0  0  0  0  0  0
  -24.0580  -10.4420   20.9670 C   0  0  0  0  0  0  0  0  0  0  0  0
  -24.5060   -9.4770   21.8950 C   0  0  0  0  0  3  0  0  0  0  0  0
  -23.7950   -8.2710   22.0750 C   0  0  0  0  0  3  0  0  0  0  0  0
  -22.6220   -8.0210   21.3250 C   0  0  0  0  0  0  0  0  0  0  0  0
  -22.1910   -8.9750   20.3870 C   0  0  0  0  0  3  0  0  0  0  0  0
  -22.9040  -10.1730   20.2050 C   0  0  0  0  0  3  0  0  0  0  0  0
  -21.8840   -6.8650   21.4120 O   0  0  0  0  0  0  0  0  0  0  0  0
  -21.7910   -6.1560   22.5830 C   0  0  0  0  0  0  0  0  0  0  0  0
  -21.2740   -6.7340   23.7630 C   0  0  0  0  0  3  0  0  0  0  0  0
  -21.1310   -5.9490   24.9260 C   0  0  0  0  0  3  0  0  0  0  0  0
  -21.4950   -4.5890   24.9080 C   0  0  0  0  0  0  0  0  0  0  0  0
  -22.0050   -4.0120   23.7330 C   0  0  0  0  0  3  0  0  0  0  0  0
  -22.1490   -4.7940   22.5720 C   0  0  0  0  0  0  0  0  0  0  0  0
  -22.6210   -4.2270   21.4360 F   0  0  0  0  0  0  0  0  0  0  0  0
  -21.3500   -3.8340   26.0230 F   0  0  0  0  0  0  0  0  0  0  0  0
  -22.9270  -13.5230   21.2530 C   0  0  0  0  0  0  0  0  0  0  0  0
  -22.2510  -12.7920   22.1320 N   0  0  0  0  0  0  0  0  0  0  0  0
  -22.4580  -14.5670   20.7990 O   0  0  0  0  0  0  0  0  0  0  0  0
  -22.6440  -11.9470   22.5210 H   0  0  0  0  0  0  0  0  0  0  0  0
  -21.3290  -13.0820   22.4210 H   0  0  0  0  0  0  0  0  0  0  0  0
  -25.5010  -15.2270   20.3350 N   0  0  0  0  0  0  0  0  0  0  0  0
  -24.7320  -15.8680   20.5030 H   0  0  0  0  0  0  0  0  0  0  0  0
  -26.3110  -15.6790   19.9310 H   0  0  0  0  0  0  0  0  0  0  0  0
  -28.9410  -23.1750   21.6130 C   0  0  0  0  0  2  0  0  0  0  0  0
  -28.8630  -24.3040   20.5670 C   0  0  0  0  0  0  0  0  0  0  0  0
  -29.0390  -24.0930   19.3600 O   0  0  0  0  0  0  0  0  0  0  0  0
  -28.5470  -25.7110   21.1220 C   0  0  0  0  0  2  0  0  0  0  0  0
  -28.4860  -26.7170   20.0960 O   0  0  0  0  0  0  0  0  0  0  0  0
  -24.6130  -31.8580   23.1830 C   0  0  0  0  0  0  0  0  0  0  0  0
  -27.3250  -27.4530   20.1150 C   0  0  0  0  0  0  0  0  0  0  0  0
  -23.4340  -30.4510   21.5220 C   0  0  0  0  0  3  0  0  0  0  0  0
  -24.9160  -28.9280   20.1100 C   0  0  0  0  0  0  0  0  0  0  0  0
  -25.9570  -30.8320   21.3510 C   0  0  0  0  0  2  0  0  0  0  0  0
  -26.0630  -29.4640   20.7110 C   0  0  0  0  0  0  0  0  0  0  0  0
  -27.2730  -28.7330   20.7130 C   0  0  0  0  0  3  0  0  0  0  0  0
  -26.1650  -26.9270   19.5110 C   0  0  0  0  0  3  0  0  0  0  0  0
  -24.9620  -27.6560   19.5080 C   0  0  0  0  0  3  0  0  0  0  0  0
  -23.6640  -29.7750   20.1440 C   0  0  0  0  0  2  0  0  0  0  0  0
  -24.6840  -31.0620   22.0770 N   0  0  0  0  0  0  0  0  0  0  0  0
  -23.5240  -32.1200   23.7140 O   0  0  0  0  0  0  0  0  0  0  0  0
  -22.7800  -29.4230   22.4730 C   0  0  0  0  0  0  0  0  0  0  0  0
  -21.4530  -29.2560   22.3530 N   0  0  0  0  0  0  0  0  0  0  0  0
  -23.4630  -28.7780   23.2720 O   0  0  0  0  0  0  0  0  0  0  0  0
  -20.9630  -29.8280   21.6790 H   0  0  0  0  0  0  0  0  0  0  0  0
  -18.0660  -28.1220   22.8900 C   0  0  0  0  0  0  0  0  0  0  0  0
  -20.6320  -28.3160   23.1150 C   0  0  0  0  0  3  0  0  0  0  0  0
  -20.6910  -26.8990   22.4970 C   0  0  0  0  0  2  0  0  0  0  0  0
  -19.5620  -26.6310   21.4970 C   0  0  0  0  0  2  0  0  0  0  0  0
  -18.1970  -26.7890   22.1740 C   0  0  0  0  0  2  0  0  0  0  0  0
  -19.2090  -28.8470   23.3170 C   0  0  0  0  0  0  0  0  0  0  0  0
  -19.0320  -30.0980   23.9480 C   0  0  0  0  0  3  0  0  0  0  0  0
  -17.7430  -30.6240   24.1540 C   0  0  0  0  0  3  0  0  0  0  0  0
  -16.6140  -29.8960   23.7420 C   0  0  0  0  0  3  0  0  0  0  0  0
  -16.7760  -28.6470   23.1160 C   0  0  0  0  0  3  0  0  0  0  0  0
  -25.8880  -32.4940   23.8190 C   0  0  0  0  0  3  0  0  0  0  0  0
  -26.4060  -31.7170   25.0900 C   0  0  1  0  0  0  0  0  0  0  0  0
  -25.3070  -31.4560   26.1470 C   0  0  0  0  0  1  0  0  0  0  0  0
  -27.0080  -30.3510   24.6860 C   0  0  0  0  0  1  0  0  0  0  0  0
  -27.5410  -32.5180   25.7700 C   0  0  0  0  0  1  0  0  0  0  0  0
  -25.5660  -33.8870   24.1560 N   0  0  0  0  0  0  0  0  0  0  0  0
  -25.8980  -34.9460   23.4060 C   0  0  0  0  0  0  0  0  0  0  0  0
  -26.5780  -34.8540   22.3800 O   0  0  0  0  0  0  0  0  0  0  0  0
  -24.9640  -34.0320   24.9530 H   0  0  0  0  0  0  0  0  0  0  0  0
  -24.1660  -36.7320   23.0390 C   0  0  0  0  0  1  0  0  0  0  0  0
  -25.3950  -36.3270   23.8670 C   0  0  0  0  0  3  0  0  0  0  0  0
  -27.5070  -37.2200   24.7460 C   0  0  0  0  0  1  0  0  0  0  0  0
  -26.4250  -37.3860   23.7790 N   0  0  0  0  0  0  0  0  0  0  0  0
  -26.0110  -38.3030   23.9200 H   0  0  0  0  0  0  0  0  0  0  0  0
  1  2  1  0
  1  3  2  0
  2 52  1  0
  4  2  1  0
  5  9  1  0
  6  1  1  0
  6  9  2  0
  7 22  1  0
  7  5  2  0
  8  6  1  0
 10  8  2  0
 10  7  1  0
 11 12  1  0
 11  8  1  0
 13 11  1  0
 14 22  1  0
 15 20  1  0
 16 17  1  0
 16 15  1  0
 18 17  1  0
 18 27  1  0
 18 19  1  0
 20 14  1  0
 20 19  1  0
 21 14  2  0
 22 23  1  0
 24 25  2  0
 25 44  1  0
 26 25  1  0
 26 29  1  0
 27 28  1  0
 27 24  1  0
 28 26  2  0
 29 30  1  0
 30 31  2  0
 32 35  1  0
 32 31  1  0
 33 32  2  0
 34 33  1  0
 34 29  2  0
 35 36  1  0
 36 37  1  0
 37 38  2  0
 39 38  1  0
 39 43  1  0
 40 39  2  0
 41 36  2  0
 41 40  1  0
 42 41  1  0
 44 45  1  0
 45 48  1  0
 45 47  1  0
 46 44  2  0
 49 24  1  0
 49 50  1  0
 51 49  1  0
 53 55  1  0
 53 52  1  0
 54 53  2  0
 56 58  1  0
 56 55  1  0
 57 68  2  0
 58 63  1  0
 59 67  1  0
 59 69  1  0
 60 66  1  0
 60 62  1  0
 61 67  1  0
 62 63  2  0
 62 61  1  0
 64 58  2  0
 65 64  1  0
 65 60  2  0
 66 59  1  0
 67 57  1  0
 69 71  2  0
 70 69  1  0
 72 70  1  0
 73 82  2  0
 73 78  1  0
 74 70  1  0
 74 78  1  0
 75 74  1  0
 76 77  1  0
 76 75  1  0
 77 73  1  0
 78 79  2  0
 79 80  1  0
 81 80  2  0
 82 81  1  0
 83 57  1  0
 83 88  1  0
 83 84  1  0
 84 87  1  1
 84 85  1  0
 86 84  1  0
 88 91  1  0
 89 93  1  0
 89 88  1  0
 90 89  2  0
 93 92  1  0
 95 93  1  0
 95 96  1  0
 95 94  1  0
M  ISO  4  14 100  22 100  55 101  56 101
M  END
>  <TORSDO>  (27) 
F 20

>  <SCORE>  (27) 
-13.332

>  <name>  (27) 
26

>  <ligand_id>  (27) 
26

>  <original_smiles>  (27) 
[H]c1nc(C(=O)N([H])C([H])([H])C(=O)C([H])([H])Oc2c([H])c([H])c3c(c2[H])C([H])([H])N(C(=O)C([H])(N([H])C(=O)C([H])(N([H])C([H])([H])[H])C([H])([H])[H])C(C([H])([H])[H])(C([H])([H])[H])C([H])([H])[H])C([H])(C(=O)N([H])C2([H])c4c([H])c([H])c([H])c([H])c4C([H])([H])C([H])([H])C2([H])[H])C3([H])[H])c(N([H])[H])nc1N([H])C(=O)N1C([H])([H])C([H])([H])C([H])([H])C([H])(n2nc(-c3c([H])c([H])c(Oc4c([H])c([H])c(F)c([H])c4F)c([H])c3[H])c(C(=O)N([H])[H])c2N([H])[H])C1([H])[H]

>  <smiles>  (27) 
[H]c1nc(C(=O)N([H])C([H])([H])C(=O)C([H])([H])Oc2c([H])c([H])c3c(c2[H])C([H])([H])N(C(=O)C([H])(N([H])C(=O)C([H])(N([H])C([H])([H])[H])C([H])([H])[H])C(C([H])([H])[H])(C([H])([H])[H])C([H])([H])[H])C([H])(C(=O)N([H])C2([H])c4c([H])c([H])c([H])c([H])c4C([H])([H])C([H])([H])C2([H])[H])C3([H])[H])c(N([H])[H])nc1N([H])C(=O)N1C([H])([H])C([H])([H])C([H])([H])C([H])(n2nc(-c3c([H])c([H])c(Oc4c([H])c([H])c(F)c([H])c4F)c([H])c3[H])c(C(=O)N([H])[H])c2N([H])[H])C1([H])[H]

$$$$
27:0:0
     RDKit          3D

 93101  0  0  1  0  0  0  0  0999 V2000
  -29.0270  -22.7130   19.8300 C   0  0  0  0  0  0  0  0  0  0  0  0
  -28.0100  -21.1300   18.3280 C   0  0  0  0  0  1  0  0  0  0  0  0
  -28.1290  -22.4350   18.9540 N   0  0  0  0  0  0  0  0  0  0  0  0
  -29.2150  -24.1760   20.3230 C   0  0  0  0  0  0  0  0  0  0  0  0
  -30.1320  -24.5380   21.0700 O   0  0  0  0  0  0  0  0  0  0  0  0
  -28.1580  -25.1940   19.8150 C   0  0  0  0  0  2  0  0  0  0  0  0
  -28.3470  -26.5830   20.2130 O   0  0  0  0  0  0  0  0  0  0  0  0
  -24.5970  -31.8840   23.2460 C   0  0  0  0  0  0  0  0  0  0  0  0
  -27.2060  -27.3840   20.1630 C   0  0  0  0  0  0  0  0  0  0  0  0
  -23.3860  -30.4930   21.6050 C   0  0  0  0  0  3  0  0  0  0  0  0
  -24.8310  -28.9540   20.1730 C   0  0  0  0  0  0  0  0  0  0  0  0
  -25.9210  -30.8190   21.4160 C   0  0  0  0  0  2  0  0  0  0  0  0
  -25.9970  -29.4480   20.7710 C   0  0  0  0  0  0  0  0  0  0  0  0
  -27.1860  -28.6710   20.7650 C   0  0  0  0  0  3  0  0  0  0  0  0
  -26.0180  -26.9360   19.5340 C   0  0  0  0  0  3  0  0  0  0  0  0
  -24.8390  -27.6990   19.5500 C   0  0  0  0  0  3  0  0  0  0  0  0
  -23.5940  -29.8220   20.2220 C   0  0  0  0  0  2  0  0  0  0  0  0
  -24.6530  -31.0810   22.1460 N   0  0  0  0  0  0  0  0  0  0  0  0
  -23.5160  -32.1640   23.7820 O   0  0  0  0  0  0  0  0  0  0  0  0
  -22.7280  -29.4710   22.5610 C   0  0  0  0  0  0  0  0  0  0  0  0
  -21.4020  -29.2960   22.4340 N   0  0  0  0  0  0  0  0  0  0  0  0
  -23.4070  -28.8390   23.3750 O   0  0  0  0  0  0  0  0  0  0  0  0
  -20.9160  -29.8580   21.7480 H   0  0  0  0  0  0  0  0  0  0  0  0
  -18.0170  -28.1320   22.9400 C   0  0  0  0  0  0  0  0  0  0  0  0
  -20.5780  -28.3630   23.2040 C   0  0  0  0  0  3  0  0  0  0  0  0
  -20.6650  -26.9350   22.6200 C   0  0  0  0  0  2  0  0  0  0  0  0
  -19.5550  -26.6280   21.6080 C   0  0  0  0  0  2  0  0  0  0  0  0
  -18.1770  -26.7840   22.2590 C   0  0  0  0  0  2  0  0  0  0  0  0
  -19.1450  -28.8810   23.3690 C   0  0  0  0  0  0  0  0  0  0  0  0
  -18.9400  -30.1440   23.9660 C   0  0  0  0  0  3  0  0  0  0  0  0
  -17.6410  -30.6570   24.1400 C   0  0  0  0  0  3  0  0  0  0  0  0
  -16.5280  -29.9040   23.7270 C   0  0  0  0  0  3  0  0  0  0  0  0
  -16.7170  -28.6450   23.1330 C   0  0  0  0  0  3  0  0  0  0  0  0
  -25.8860  -32.5090   23.8650 C   0  0  0  0  0  3  0  0  0  0  0  0
  -26.4000  -31.7340   25.1400 C   0  0  1  0  0  0  0  0  0  0  0  0
  -25.3060  -31.4980   26.2080 C   0  0  0  0  0  1  0  0  0  0  0  0
  -26.9780  -30.3540   24.7460 C   0  0  0  0  0  1  0  0  0  0  0  0
  -27.5530  -32.5240   25.8040 C   0  0  0  0  0  1  0  0  0  0  0  0
  -25.5830  -33.9090   24.1940 N   0  0  0  0  0  0  0  0  0  0  0  0
  -25.9150  -34.9580   23.4300 C   0  0  0  0  0  0  0  0  0  0  0  0
  -26.5790  -34.8490   22.3950 O   0  0  0  0  0  0  0  0  0  0  0  0
  -24.9940  -34.0660   24.9980 H   0  0  0  0  0  0  0  0  0  0  0  0
  -24.1920  -36.7550   23.0760 C   0  0  0  0  0  1  0  0  0  0  0  0
  -25.4340  -36.3480   23.8860 C   0  0  0  0  0  3  0  0  0  0  0  0
  -27.5730  -37.2280   24.7110 C   0  0  0  0  0  1  0  0  0  0  0  0
  -26.4710  -37.3960   23.7680 N   0  0  0  0  0  0  0  0  0  0  0  0
  -26.0680  -38.3190   23.9110 H   0  0  0  0  0  0  0  0  0  0  0  0
  -29.9860  -21.6240   20.4140 C   0  0  0  0  0  2  0  0  0  0  0  0
  -29.2500  -17.8830   21.0950 C   0  0  0  0  0  3  0  0  0  0  0  0
  -29.9020  -19.0920   20.7040 C   0  0  0  0  0  0  0  0  0  0  0  0
  -30.1280  -16.9010   20.7040 C   0  0  0  0  0  0  0  0  0  0  0  0
  -31.0750  -18.8600   20.1340 N   0  0  0  0  0  0  0  0  0  0  0  0
  -29.3490  -20.3730   20.8950 N   0  0  0  0  0  0  0  0  0  0  0  0
  -31.2310  -17.4610   20.1270 O   0  0  0  0  0  0  0  0  0  0  0  0
  -28.4450  -20.4520   21.3450 H   0  0  0  0  0  0  0  0  0  0  0  0
  -30.6440  -14.5320   20.3340 C   0  0  0  0  0  0  0  0  0  0  0  0
  -30.3490  -12.3580   19.1950 C   0  0  0  0  0  2  0  0  0  0  0  0
  -29.3910  -12.5630   18.0010 C   0  0  0  0  0  2  0  0  0  0  0  0
  -27.9230  -12.4180   18.4470 C   0  0  0  0  0  2  0  0  0  0  0  0
  -27.5980  -13.2490   19.7180 C   0  0  0  0  0  3  0  0  0  0  0  0
  -28.6690  -13.0290   20.8110 C   0  0  0  0  0  2  0  0  0  0  0  0
  -29.9860  -13.3410   20.2300 N   0  0  0  0  0  0  0  0  0  0  0  0
  -31.7800  -14.6910   19.8740 O   0  0  0  0  0  0  0  0  0  0  0  0
  -29.9160  -15.5550   20.8400 N   0  0  0  0  0  0  0  0  0  0  0  0
  -29.0270  -15.2890   21.2290 H   0  0  0  0  0  0  0  0  0  0  0  0
  -25.2100  -13.8550   20.4580 C   0  0  0  0  0  0  0  0  0  0  0  0
  -24.1460  -13.0830   20.8380 C   0  0  0  0  0  0  0  0  0  0  0  0
  -24.6050  -11.7300   20.7980 C   0  0  0  0  0  0  0  0  0  0  0  0
  -26.2510  -12.9740   20.2120 N   0  0  0  0  0  0  0  0  0  0  0  0
  -25.8920  -11.6910   20.4750 N   0  0  0  0  0  0  0  0  0  0  0  0
  -23.8810  -10.4680   20.9930 C   0  0  0  0  0  0  0  0  0  0  0  0
  -24.3100   -9.5080   21.9360 C   0  0  0  0  0  3  0  0  0  0  0  0
  -23.5850   -8.3100   22.1180 C   0  0  0  0  0  3  0  0  0  0  0  0
  -22.4180   -8.0640   21.3560 C   0  0  0  0  0  0  0  0  0  0  0  0
  -22.0080   -9.0140   20.4030 C   0  0  0  0  0  3  0  0  0  0  0  0
  -22.7330  -10.2030   20.2190 C   0  0  0  0  0  3  0  0  0  0  0  0
  -21.6670   -6.9180   21.4460 O   0  0  0  0  0  0  0  0  0  0  0  0
  -21.5930   -6.1960   22.6100 C   0  0  0  0  0  0  0  0  0  0  0  0
  -21.1250   -6.7670   23.8140 C   0  0  0  0  0  3  0  0  0  0  0  0
  -21.0000   -5.9690   24.9690 C   0  0  0  0  0  3  0  0  0  0  0  0
  -21.3320   -4.6030   24.9220 C   0  0  0  0  0  0  0  0  0  0  0  0
  -21.7930   -4.0310   23.7230 C   0  0  0  0  0  3  0  0  0  0  0  0
  -21.9200   -4.8250   22.5700 C   0  0  0  0  0  0  0  0  0  0  0  0
  -22.3440   -4.2640   21.4120 F   0  0  0  0  0  0  0  0  0  0  0  0
  -21.2050   -3.8350   26.0290 F   0  0  0  0  0  0  0  0  0  0  0  0
  -22.7520  -13.5600   21.1280 C   0  0  0  0  0  0  0  0  0  0  0  0
  -22.0320  -12.8610   21.9990 N   0  0  0  0  0  0  0  0  0  0  0  0
  -22.3100  -14.5890   20.6180 O   0  0  0  0  0  0  0  0  0  0  0  0
  -22.4020  -12.0300   22.4340 H   0  0  0  0  0  0  0  0  0  0  0  0
  -21.0990  -13.1660   22.2370 H   0  0  0  0  0  0  0  0  0  0  0  0
  -25.3720  -15.2260   20.2810 N   0  0  0  0  0  0  0  0  0  0  0  0
  -24.5990  -15.8730   20.3910 H   0  0  0  0  0  0  0  0  0  0  0  0
  -26.2050  -15.6670   19.9120 H   0  0  0  0  0  0  0  0  0  0  0  0
  1  4  1  0
  1 48  1  0
  2  3  1  0
  3  1  2  0
  4  5  2  0
  6  7  1  0
  6  4  1  0
  8 19  2  0
  9  7  1  0
  9 14  1  0
 10 18  1  0
 10 20  1  0
 11 17  1  0
 11 13  1  0
 12 18  1  0
 13 12  1  0
 14 13  2  0
 15 16  1  0
 15  9  2  0
 16 11  2  0
 17 10  1  0
 18  8  1  0
 20 22  2  0
 21 20  1  0
 23 21  1  0
 24 33  2  0
 24 29  1  0
 25 21  1  0
 25 29  1  0
 26 25  1  0
 27 28  1  0
 27 26  1  0
 28 24  1  0
 29 30  2  0
 30 31  1  0
 32 31  2  0
 33 32  1  0
 34  8  1  0
 34 39  1  0
 34 35  1  0
 35 38  1  1
 35 36  1  0
 37 35  1  0
 39 42  1  0
 40 44  1  0
 40 39  1  0
 41 40  2  0
 44 43  1  0
 46 44  1  0
 46 47  1  0
 46 45  1  0
 48 53  1  0
 50 53  1  0
 50 49  1  0
 51 64  1  0
 51 49  2  0
 52 50  2  0
 53 55  1  0
 54 52  1  0
 54 51  1  0
 56 64  1  0
 57 62  1  0
 58 59  1  0
 58 57  1  0
 60 59  1  0
 60 69  1  0
 60 61  1  0
 62 56  1  0
 62 61  1  0
 63 56  2  0
 64 65  1  0
 66 67  2  0
 67 86  1  0
 68 67  1  0
 68 71  1  0
 69 66  1  0
 69 70  1  0
 70 68  2  0
 71 72  1  0
 72 73  2  0
 74 77  1  0
 74 73  1  0
 75 74  2  0
 76 75  1  0
 76 71  2  0
 77 78  1  0
 78 79  1  0
 79 80  2  0
 81 80  1  0
 81 85  1  0
 82 81  2  0
 83 78  2  0
 83 82  1  0
 84 83  1  0
 86 87  1  0
 87 90  1  0
 87 89  1  0
 88 86  2  0
 91 92  1  0
 91 66  1  0
 93 91  1  0
M  ISO  4   6 101   7 101  56 100  64 100
M  END
>  <TORSDO>  (28) 
F 20

>  <SCORE>  (28) 
-13.940

>  <name>  (28) 
27

>  <ligand_id>  (28) 
27

>  <original_smiles>  (28) 
[H]c1c(N([H])C([H])([H])C(=NC([H])([H])[H])C(=O)C([H])([H])Oc2c([H])c([H])c3c(c2[H])C([H])([H])N(C(=O)C([H])(N([H])C(=O)C([H])(N([H])C([H])([H])[H])C([H])([H])[H])C(C([H])([H])[H])(C([H])([H])[H])C([H])([H])[H])C([H])(C(=O)N([H])C2([H])c4c([H])c([H])c([H])c([H])c4C([H])([H])C([H])([H])C2([H])[H])C3([H])[H])noc1N([H])C(=O)N1C([H])([H])C([H])([H])C([H])([H])C([H])(n2nc(-c3c([H])c([H])c(Oc4c([H])c([H])c(F)c([H])c4F)c([H])c3[H])c(C(=O)N([H])[H])c2N([H])[H])C1([H])[H]

>  <smiles>  (28) 
[H]c1c(N([H])C([H])([H])C(=NC([H])([H])[H])C(=O)C([H])([H])Oc2c([H])c([H])c3c(c2[H])C([H])([H])N(C(=O)C([H])(N([H])C(=O)C([H])(N([H])C([H])([H])[H])C([H])([H])[H])C(C([H])([H])[H])(C([H])([H])[H])C([H])([H])[H])C([H])(C(=O)N([H])C2([H])c4c([H])c([H])c([H])c([H])c4C([H])([H])C([H])([H])C2([H])[H])C3([H])[H])noc1N([H])C(=O)N1C([H])([H])C([H])([H])C([H])([H])C([H])(n2nc(-c3c([H])c([H])c(Oc4c([H])c([H])c(F)c([H])c4F)c([H])c3[H])c(C(=O)N([H])[H])c2N([H])[H])C1([H])[H]

$$$$
28:0:0
     RDKit          3D

 92100  0  0  1  0  0  0  0  0999 V2000
  -31.1110  -22.6150   20.6950 C   0  0  0  0  0  0  0  0  0  0  0  0
  -32.1320  -23.7230   20.9030 C   0  0  0  0  0  1  0  0  0  0  0  0
  -31.4970  -21.4160   20.9370 N   0  0  0  0  0  0  0  0  0  0  0  0
  -31.3470  -19.0990   20.1340 C   0  0  0  0  0  3  0  0  0  0  0  0
  -29.4530  -20.0540   21.1230 C   0  0  0  0  0  3  0  0  0  0  0  0
  -30.7460  -20.2570   20.7150 C   0  0  0  0  0  0  0  0  0  0  0  0
  -30.5000  -18.0200   20.0680 C   0  0  0  0  0  0  0  0  0  0  0  0
  -28.9360  -18.4240   20.7460 S   0  0  0  0  0  0  0  0  0  0  0  0
  -30.7880  -16.7010   19.3990 C   0  0  0  0  0  2  0  0  0  0  0  0
  -31.3550  -14.3740   20.0060 C   0  0  0  0  0  0  0  0  0  0  0  0
  -30.9160  -12.1850   18.9890 C   0  0  0  0  0  2  0  0  0  0  0  0
  -29.9700  -12.4260   17.7930 C   0  0  0  0  0  2  0  0  0  0  0  0
  -28.4970  -12.4020   18.2490 C   0  0  0  0  0  2  0  0  0  0  0  0
  -28.2370  -13.2900   19.4940 C   0  0  0  0  0  3  0  0  0  0  0  0
  -29.3000  -13.0400   20.5910 C   0  0  0  0  0  2  0  0  0  0  0  0
  -30.6290  -13.2240   19.9900 N   0  0  0  0  0  0  0  0  0  0  0  0
  -32.5090  -14.4450   19.5760 O   0  0  0  0  0  0  0  0  0  0  0  0
  -30.6290  -15.4870   20.2160 N   0  0  0  0  0  0  0  0  0  0  0  0
  -29.7110  -15.3360   20.6040 H   0  0  0  0  0  0  0  0  0  0  0  0
  -25.9050  -14.0750   20.2500 C   0  0  0  0  0  0  0  0  0  0  0  0
  -24.7920  -13.3830   20.6470 C   0  0  0  0  0  0  0  0  0  0  0  0
  -25.1550  -12.0010   20.6150 C   0  0  0  0  0  0  0  0  0  0  0  0
  -26.8790  -13.1180   20.0030 N   0  0  0  0  0  0  0  0  0  0  0  0
  -26.4310  -11.8670   20.2810 N   0  0  0  0  0  0  0  0  0  0  0  0
  -24.3440  -10.7950   20.8290 C   0  0  0  0  0  0  0  0  0  0  0  0
  -24.7060   -9.8210   21.7860 C   0  0  0  0  0  3  0  0  0  0  0  0
  -23.9000   -8.6810   21.9860 C   0  0  0  0  0  3  0  0  0  0  0  0
  -22.7190   -8.5030   21.2280 C   0  0  0  0  0  0  0  0  0  0  0  0
  -22.3750   -9.4640   20.2600 C   0  0  0  0  0  3  0  0  0  0  0  0
  -23.1810  -10.5960   20.0580 C   0  0  0  0  0  3  0  0  0  0  0  0
  -21.8900   -7.4130   21.3350 O   0  0  0  0  0  0  0  0  0  0  0  0
  -21.7530   -6.7260   22.5150 C   0  0  0  0  0  0  0  0  0  0  0  0
  -21.3050   -7.3570   23.6960 C   0  0  0  0  0  3  0  0  0  0  0  0
  -21.1120   -6.6010   24.8690 C   0  0  0  0  0  3  0  0  0  0  0  0
  -21.3550   -5.2140   24.8610 C   0  0  0  0  0  0  0  0  0  0  0  0
  -21.7940   -4.5830   23.6840 C   0  0  0  0  0  3  0  0  0  0  0  0
  -21.9890   -5.3370   22.5140 C   0  0  0  0  0  0  0  0  0  0  0  0
  -22.3930   -4.7210   21.3770 F   0  0  0  0  0  0  0  0  0  0  0  0
  -21.1610   -4.4850   25.9840 F   0  0  0  0  0  0  0  0  0  0  0  0
  -23.4390  -13.9600   20.9460 C   0  0  0  0  0  0  0  0  0  0  0  0
  -22.6890  -13.3310   21.8440 N   0  0  0  0  0  0  0  0  0  0  0  0
  -23.0580  -15.0040   20.4190 O   0  0  0  0  0  0  0  0  0  0  0  0
  -23.0110  -12.4850   22.2930 H   0  0  0  0  0  0  0  0  0  0  0  0
  -21.7810  -13.7010   22.0880 H   0  0  0  0  0  0  0  0  0  0  0  0
  -26.1650  -15.4280   20.0590 N   0  0  0  0  0  0  0  0  0  0  0  0
  -25.4510  -16.1380   20.1790 H   0  0  0  0  0  0  0  0  0  0  0  0
  -27.0320  -15.8020   19.6930 H   0  0  0  0  0  0  0  0  0  0  0  0
  -29.7420  -23.0550   20.1380 C   0  0  0  0  0  2  0  0  0  0  0  0
  -29.2160  -24.4140   20.6590 C   0  0  0  0  0  0  0  0  0  0  0  0
  -29.3750  -24.7800   21.8300 O   0  0  0  0  0  0  0  0  0  0  0  0
  -28.3940  -25.2620   19.6740 C   0  0  0  0  0  2  0  0  0  0  0  0
  -28.4360  -26.6610   20.0180 O   0  0  0  0  0  0  0  0  0  0  0  0
  -24.6240  -31.7620   23.1800 C   0  0  0  0  0  0  0  0  0  0  0  0
  -27.2560  -27.3830   19.9930 C   0  0  0  0  0  0  0  0  0  0  0  0
  -23.4150  -30.4060   21.5010 C   0  0  0  0  0  3  0  0  0  0  0  0
  -24.8650  -28.9050   20.0370 C   0  0  0  0  0  0  0  0  0  0  0  0
  -25.9430  -30.7590   21.3180 C   0  0  0  0  0  2  0  0  0  0  0  0
  -26.0240  -29.4050   20.6420 C   0  0  0  0  0  0  0  0  0  0  0  0
  -27.2190  -28.6500   20.6210 C   0  0  0  0  0  3  0  0  0  0  0  0
  -26.0810  -26.9100   19.3630 C   0  0  0  0  0  3  0  0  0  0  0  0
  -24.8890  -27.6560   19.3940 C   0  0  0  0  0  3  0  0  0  0  0  0
  -23.6240  -29.7640   20.1030 C   0  0  0  0  0  2  0  0  0  0  0  0
  -24.6790  -30.9900   22.0570 N   0  0  0  0  0  0  0  0  0  0  0  0
  -23.5430  -32.0230   23.7250 O   0  0  0  0  0  0  0  0  0  0  0  0
  -22.7610  -29.3600   22.4330 C   0  0  0  0  0  0  0  0  0  0  0  0
  -21.4370  -29.1780   22.2920 N   0  0  0  0  0  0  0  0  0  0  0  0
  -23.4400  -28.7180   23.2380 O   0  0  0  0  0  0  0  0  0  0  0  0
  -20.9510  -29.7510   21.6150 H   0  0  0  0  0  0  0  0  0  0  0  0
  -18.0610  -27.9750   22.7420 C   0  0  0  0  0  0  0  0  0  0  0  0
  -20.6170  -28.2220   23.0340 C   0  0  0  0  0  3  0  0  0  0  0  0
  -20.7220  -26.8060   22.4230 C   0  0  0  0  0  2  0  0  0  0  0  0
  -19.6250  -26.5100   21.3950 C   0  0  0  0  0  2  0  0  0  0  0  0
  -18.2400  -26.6410   22.0350 C   0  0  0  0  0  2  0  0  0  0  0  0
  -19.1780  -28.7250   23.1970 C   0  0  0  0  0  0  0  0  0  0  0  0
  -18.9590  -29.9740   23.8150 C   0  0  0  0  0  3  0  0  0  0  0  0
  -17.6540  -30.4740   23.9860 C   0  0  0  0  0  3  0  0  0  0  0  0
  -16.5510  -29.7210   23.5490 C   0  0  0  0  0  3  0  0  0  0  0  0
  -16.7550  -28.4740   22.9330 C   0  0  0  0  0  3  0  0  0  0  0  0
  -25.9120  -32.3710   23.8160 C   0  0  0  0  0  3  0  0  0  0  0  0
  -25.6160  -33.7690   24.1580 N   0  0  0  0  0  0  0  0  0  0  0  0
  -25.9760  -34.8250   23.4160 C   0  0  0  0  0  0  0  0  0  0  0  0
  -26.6640  -34.7240   22.3970 O   0  0  0  0  0  0  0  0  0  0  0  0
  -25.0090  -33.9230   24.9490 H   0  0  0  0  0  0  0  0  0  0  0  0
  -24.2830  -36.6460   23.0430 C   0  0  0  0  0  1  0  0  0  0  0  0
  -25.4970  -36.2140   23.8800 C   0  0  0  0  0  3  0  0  0  0  0  0
  -27.6200  -37.0600   24.7810 C   0  0  0  0  0  1  0  0  0  0  0  0
  -26.5480  -37.2530   23.8070 N   0  0  0  0  0  0  0  0  0  0  0  0
  -26.1510  -38.1770   23.9510 H   0  0  0  0  0  0  0  0  0  0  0  0
  -26.4130  -31.5800   25.0870 C   0  0  1  0  0  0  0  0  0  0  0  0
  -25.3100  -31.3370   26.1420 C   0  0  0  0  0  1  0  0  0  0  0  0
  -26.9890  -30.2030   24.6790 C   0  0  0  0  0  1  0  0  0  0  0  0
  -27.5630  -32.3560   25.7680 C   0  0  0  0  0  1  0  0  0  0  0  0
  1  2  1  0
  1  3  2  0
  4  6  1  0
  6  3  1  0
  6  5  2  0
  7  4  2  0
  7  8  1  0
  8  5  1  0
  9  7  1  0
  9 18  1  0
 10 18  1  0
 11 16  1  0
 12 13  1  0
 12 11  1  0
 14 13  1  0
 14 23  1  0
 14 15  1  0
 16 10  1  0
 16 15  1  0
 17 10  2  0
 18 19  1  0
 20 21  2  0
 21 40  1  0
 22 21  1  0
 22 25  1  0
 23 20  1  0
 23 24  1  0
 24 22  2  0
 25 26  1  0
 26 27  2  0
 28 31  1  0
 28 27  1  0
 29 28  2  0
 30 29  1  0
 30 25  2  0
 31 32  1  0
 32 33  1  0
 33 34  2  0
 35 34  1  0
 35 39  1  0
 36 35  2  0
 37 32  2  0
 37 36  1  0
 38 37  1  0
 40 41  1  0
 41 44  1  0
 41 43  1  0
 42 40  2  0
 45 46  1  0
 45 20  1  0
 47 45  1  0
 48 49  1  0
 48  1  1  0
 49 50  2  0
 51 52  1  0
 51 49  1  0
 53 64  2  0
 54 52  1  0
 54 59  1  0
 55 63  1  0
 55 65  1  0
 56 62  1  0
 56 58  1  0
 57 63  1  0
 58 57  1  0
 59 58  2  0
 60 61  1  0
 60 54  2  0
 61 56  2  0
 62 55  1  0
 63 53  1  0
 65 67  2  0
 66 65  1  0
 68 66  1  0
 69 78  2  0
 69 74  1  0
 70 66  1  0
 70 74  1  0
 71 70  1  0
 72 73  1  0
 72 71  1  0
 73 69  1  0
 74 75  2  0
 75 76  1  0
 77 76  2  0
 78 77  1  0
 79 53  1  0
 79 80  1  0
 79 89  1  0
 80 83  1  0
 81 85  1  0
 81 80  1  0
 82 81  2  0
 85 84  1  0
 87 85  1  0
 87 88  1  0
 87 86  1  0
 89 92  1  1
 89 90  1  0
 91 89  1  0
M  ISO  4  10 100  18 100  51 101  52 101
M  END
>  <TORSDO>  (29) 
F 21

>  <SCORE>  (29) 
-12.433

>  <name>  (29) 
28

>  <ligand_id>  (29) 
28

>  <original_smiles>  (29) 
[H]c1sc(C([H])([H])N([H])C(=O)N2C([H])([H])C([H])([H])C([H])([H])C([H])(n3nc(-c4c([H])c([H])c(Oc5c([H])c([H])c(F)c([H])c5F)c([H])c4[H])c(C(=O)N([H])[H])c3N([H])[H])C2([H])[H])c([H])c1N=C(C([H])([H])[H])C([H])([H])C(=O)C([H])([H])Oc1c([H])c([H])c2c(c1[H])C([H])([H])N(C(=O)C([H])(N([H])C(=O)C([H])(N([H])C([H])([H])[H])C([H])([H])[H])C(C([H])([H])[H])(C([H])([H])[H])C([H])([H])[H])C([H])(C(=O)N([H])C1([H])c3c([H])c([H])c([H])c([H])c3C([H])([H])C([H])([H])C1([H])[H])C2([H])[H]

>  <smiles>  (29) 
[H]c1sc(C([H])([H])N([H])C(=O)N2C([H])([H])C([H])([H])C([H])([H])C([H])(n3nc(-c4c([H])c([H])c(Oc5c([H])c([H])c(F)c([H])c5F)c([H])c4[H])c(C(=O)N([H])[H])c3N([H])[H])C2([H])[H])c([H])c1N=C(C([H])([H])[H])C([H])([H])C(=O)C([H])([H])Oc1c([H])c([H])c2c(c1[H])C([H])([H])N(C(=O)C([H])(N([H])C(=O)C([H])(N([H])C([H])([H])[H])C([H])([H])[H])C(C([H])([H])[H])(C([H])([H])[H])C([H])([H])[H])C([H])(C(=O)N([H])C1([H])c3c([H])c([H])c([H])c([H])c3C([H])([H])C([H])([H])C1([H])[H])C2([H])[H]

$$$$
29:0:0
     RDKit          3D

 97106  0  0  1  0  0  0  0  0999 V2000
  -28.3630  -23.9190   19.6520 C   0  0  0  0  0  0  0  0  0  0  0  0
  -29.7170  -23.2800   19.9890 C   0  0  0  0  0  2  0  0  0  0  0  0
  -29.2230  -20.8020   19.8950 C   0  0  0  0  0  3  0  0  0  0  0  0
  -27.6810  -20.7710   19.7000 C   0  0  0  0  0  3  0  0  0  0  0  0
  -27.1660  -19.5510   18.8690 C   0  0  0  0  0  1  0  0  0  0  0  0
  -27.2710  -23.2240   19.5730 N   0  0  0  0  0  0  0  0  0  0  0  0
  -29.5790  -21.9880   20.7260 N   0  0  0  0  0  4  0  0  0  0  0  0
  -27.3780  -21.9460   18.8930 O   0  0  0  0  0  0  0  0  0  0  0  0
  -28.9070  -22.0950   21.4680 H   0  0  0  0  0  0  0  0  0  0  0  0
  -30.4620  -21.7670   21.1560 H   0  0  0  0  0  0  0  0  0  0  0  0
  -31.4670  -19.8670   20.3250 C   0  0  0  0  0  3  0  0  0  0  0  0
  -31.9200  -17.5440   20.7470 C   0  0  0  0  0  3  0  0  0  0  0  0
  -32.3900  -18.8540   20.5630 C   0  0  0  0  0  0  0  0  0  0  0  0
  -30.0930  -19.5740   20.3050 C   0  0  0  0  0  0  0  0  0  0  0  0
  -30.5390  -17.2330   20.6300 C   0  0  0  0  0  0  0  0  0  0  0  0
  -33.8640  -19.1920   20.5650 C   0  0  0  0  0  1  0  0  0  0  0  0
  -29.6460  -18.2770   20.4510 N   0  0  0  0  0  0  0  0  0  0  0  0
  -30.7840  -14.7040   20.3100 C   0  0  0  0  0  0  0  0  0  0  0  0
  -30.4760  -12.4930   19.2460 C   0  0  0  0  0  2  0  0  0  0  0  0
  -29.5330  -12.6300   18.0330 C   0  0  0  0  0  2  0  0  0  0  0  0
  -28.0680  -12.4520   18.4940 C   0  0  0  0  0  2  0  0  0  0  0  0
  -27.7140  -13.3330   19.7260 C   0  0  0  0  0  3  0  0  0  0  0  0
  -28.7810  -13.2230   20.8350 C   0  0  0  0  0  2  0  0  0  0  0  0
  -30.0880  -13.5250   20.2310 N   0  0  0  0  0  0  0  0  0  0  0  0
  -31.9300  -14.7460   19.8660 O   0  0  0  0  0  0  0  0  0  0  0  0
  -30.1160  -15.8360   20.7130 N   0  0  0  0  0  0  0  0  0  0  0  0
  -29.1580  -15.6950   20.9910 H   0  0  0  0  0  0  0  0  0  0  0  0
  -25.3370  -13.9140   20.5290 C   0  0  0  0  0  0  0  0  0  0  0  0
  -24.2810  -13.1370   20.9090 C   0  0  0  0  0  0  0  0  0  0  0  0
  -24.7420  -11.7860   20.8400 C   0  0  0  0  0  0  0  0  0  0  0  0
  -26.3750  -13.0410   20.2430 N   0  0  0  0  0  0  0  0  0  0  0  0
  -26.0200  -11.7530   20.4870 N   0  0  0  0  0  0  0  0  0  0  0  0
  -24.0190  -10.5190   21.0230 C   0  0  0  0  0  0  0  0  0  0  0  0
  -24.4430   -9.5510   21.9590 C   0  0  0  0  0  3  0  0  0  0  0  0
  -23.7180   -8.3520   22.1320 C   0  0  0  0  0  3  0  0  0  0  0  0
  -22.5510   -8.1130   21.3660 C   0  0  0  0  0  0  0  0  0  0  0  0
  -22.1410   -9.0700   20.4200 C   0  0  0  0  0  3  0  0  0  0  0  0
  -22.8720  -10.2580   20.2470 C   0  0  0  0  0  3  0  0  0  0  0  0
  -21.8040   -6.9630   21.4390 O   0  0  0  0  0  0  0  0  0  0  0  0
  -21.7120   -6.2370   22.6000 C   0  0  0  0  0  0  0  0  0  0  0  0
  -21.1810   -6.7910   23.7830 C   0  0  0  0  0  3  0  0  0  0  0  0
  -21.0410   -5.9910   24.9360 C   0  0  0  0  0  3  0  0  0  0  0  0
  -21.4240   -4.6380   24.9030 C   0  0  0  0  0  0  0  0  0  0  0  0
  -21.9550   -4.0840   23.7270 C   0  0  0  0  0  3  0  0  0  0  0  0
  -22.0970   -4.8820   22.5760 C   0  0  0  0  0  0  0  0  0  0  0  0
  -22.5860   -4.3390   21.4360 F   0  0  0  0  0  0  0  0  0  0  0  0
  -21.2860   -3.8670   26.0090 F   0  0  0  0  0  0  0  0  0  0  0  0
  -22.8870  -13.6140   21.2230 C   0  0  0  0  0  0  0  0  0  0  0  0
  -22.1720  -12.8960   22.0870 N   0  0  0  0  0  0  0  0  0  0  0  0
  -22.4450  -14.6560   20.7440 O   0  0  0  0  0  0  0  0  0  0  0  0
  -22.5430  -12.0650   22.5190 H   0  0  0  0  0  0  0  0  0  0  0  0
  -21.2360  -13.1930   22.3310 H   0  0  0  0  0  0  0  0  0  0  0  0
  -25.4980  -15.2890   20.3730 N   0  0  0  0  0  0  0  0  0  0  0  0
  -24.7170  -15.9240   20.4790 H   0  0  0  0  0  0  0  0  0  0  0  0
  -26.3290  -15.7410   20.0080 H   0  0  0  0  0  0  0  0  0  0  0  0
  -28.4580  -25.4380   19.2300 C   0  0  0  0  0  2  0  0  0  0  0  0
  -28.3120  -26.5290   20.2070 O   0  0  0  0  0  0  0  0  0  0  0  0
  -24.5370  -31.8950   23.1990 C   0  0  0  0  0  0  0  0  0  0  0  0
  -27.1860  -27.3510   20.1580 C   0  0  0  0  0  0  0  0  0  0  0  0
  -23.3650  -30.4900   21.5500 C   0  0  0  0  0  3  0  0  0  0  0  0
  -24.8340  -28.9590   20.1310 C   0  0  0  0  0  0  0  0  0  0  0  0
  -25.9070  -30.8170   21.4030 C   0  0  0  0  0  2  0  0  0  0  0  0
  -25.9960  -29.4450   20.7460 C   0  0  0  0  0  0  0  0  0  0  0  0
  -27.1740  -28.6450   20.7580 C   0  0  0  0  0  3  0  0  0  0  0  0
  -25.9860  -26.8960   19.5670 C   0  0  0  0  0  3  0  0  0  0  0  0
  -24.8290  -27.6910   19.5430 C   0  0  0  0  0  3  0  0  0  0  0  0
  -23.5960  -29.8320   20.1670 C   0  0  0  0  0  2  0  0  0  0  0  0
  -24.6220  -31.0850   22.1070 N   0  0  0  0  0  0  0  0  0  0  0  0
  -23.4420  -32.1650   23.7170 O   0  0  0  0  0  0  0  0  0  0  0  0
  -22.7030  -29.4540   22.4930 C   0  0  0  0  0  0  0  0  0  0  0  0
  -21.3810  -29.2620   22.3510 N   0  0  0  0  0  0  0  0  0  0  0  0
  -23.3820  -28.8240   23.3090 O   0  0  0  0  0  0  0  0  0  0  0  0
  -20.8840  -29.8360   21.6830 H   0  0  0  0  0  0  0  0  0  0  0  0
  -18.0010  -28.0910   22.8380 C   0  0  0  0  0  0  0  0  0  0  0  0
  -20.5610  -28.3150   23.1070 C   0  0  0  0  0  3  0  0  0  0  0  0
  -20.6420  -26.8910   22.5090 C   0  0  0  0  0  2  0  0  0  0  0  0
  -19.5380  -26.5990   21.4880 C   0  0  0  0  0  2  0  0  0  0  0  0
  -18.1620  -26.7490   22.1450 C   0  0  0  0  0  2  0  0  0  0  0  0
  -19.1280  -28.8340   23.2780 C   0  0  0  0  0  0  0  0  0  0  0  0
  -18.9240  -30.0930   23.8800 C   0  0  0  0  0  3  0  0  0  0  0  0
  -17.6250  -30.6110   24.0500 C   0  0  0  0  0  3  0  0  0  0  0  0
  -16.5110  -29.8590   23.6360 C   0  0  0  0  0  3  0  0  0  0  0  0
  -16.6990  -28.6040   23.0320 C   0  0  0  0  0  3  0  0  0  0  0  0
  -25.8040  -32.5430   23.8330 C   0  0  0  0  0  3  0  0  0  0  0  0
  -25.4800  -33.9380   24.1590 N   0  0  0  0  0  0  0  0  0  0  0  0
  -25.8110  -34.9900   23.4000 C   0  0  0  0  0  0  0  0  0  0  0  0
  -26.4980  -34.8920   22.3790 O   0  0  0  0  0  0  0  0  0  0  0  0
  -24.8710  -34.0950   24.9500 H   0  0  0  0  0  0  0  0  0  0  0  0
  -24.0820  -36.7680   23.0130 C   0  0  0  0  0  1  0  0  0  0  0  0
  -25.3070  -36.3720   23.8510 C   0  0  0  0  0  3  0  0  0  0  0  0
  -27.4120  -37.2700   24.7430 C   0  0  0  0  0  1  0  0  0  0  0  0
  -26.3350  -37.4330   23.7670 N   0  0  0  0  0  0  0  0  0  0  0  0
  -25.9200  -38.3500   23.9120 H   0  0  0  0  0  0  0  0  0  0  0  0
  -26.3110  -31.7800   25.1170 C   0  0  1  0  0  0  0  0  0  0  0  0
  -25.2070  -31.5220   26.1710 C   0  0  0  0  0  1  0  0  0  0  0  0
  -26.9190  -30.4150   24.7280 C   0  0  0  0  0  1  0  0  0  0  0  0
  -27.4440  -32.5860   25.7910 C   0  0  0  0  0  1  0  0  0  0  0  0
  1  2  1  0
  2  7  1  0
  3 14  1  0
  3  7  1  0
  4  5  1  0
  4  3  1  0
  6  1  2  0
  7 10  1  0
  7  9  1  0
  8  6  1  0
  8  4  1  0
 11 13  1  0
 13 16  1  0
 13 12  2  0
 14 11  2  0
 14 17  1  0
 15 26  1  0
 15 12  1  0
 17 15  2  0
 18 26  1  0
 19 24  1  0
 20 21  1  0
 20 19  1  0
 22 21  1  0
 22 31  1  0
 22 23  1  0
 24 18  1  0
 24 23  1  0
 25 18  2  0
 26 27  1  0
 28 29  2  0
 29 48  1  0
 30 29  1  0
 30 33  1  0
 31 32  1  0
 31 28  1  0
 32 30  2  0
 33 34  1  0
 34 35  2  0
 36 39  1  0
 36 35  1  0
 37 36  2  0
 38 37  1  0
 38 33  2  0
 39 40  1  0
 40 41  1  0
 41 42  2  0
 43 42  1  0
 43 47  1  0
 44 43  2  0
 45 40  2  0
 45 44  1  0
 46 45  1  0
 48 49  1  0
 49 52  1  0
 49 51  1  0
 50 48  2  0
 53 54  1  0
 53 28  1  0
 55 53  1  0
 56  1  1  0
 56 57  1  0
 58 69  2  0
 59 57  1  0
 59 64  1  0
 60 68  1  0
 60 70  1  0
 61 67  1  0
 61 63  1  0
 62 68  1  0
 63 64  2  0
 63 62  1  0
 65 59  2  0
 66 65  1  0
 66 61  2  0
 67 60  1  0
 68 58  1  0
 70 72  2  0
 71 70  1  0
 73 71  1  0
 74 83  2  0
 74 79  1  0
 75 71  1  0
 75 79  1  0
 76 75  1  0
 77 78  1  0
 77 76  1  0
 78 74  1  0
 79 80  2  0
 80 81  1  0
 82 81  2  0
 83 82  1  0
 84 58  1  0
 84 85  1  0
 84 94  1  0
 85 88  1  0
 86 90  1  0
 86 85  1  0
 87 86  2  0
 90 89  1  0
 92 90  1  0
 92 93  1  0
 92 91  1  0
 94 97  1  1
 94 95  1  0
 96 94  1  0
M  ISO  4  18 100  26 100  56 101  57 101
M  END
>  <TORSDO>  (30) 
F 18

>  <SCORE>  (30) 
-15.119

>  <name>  (30) 
29

>  <ligand_id>  (30) 
29

>  <original_smiles>  (30) 
[H]c1c([H])c([H])c2c(c1[H])C([H])([H])C([H])([H])C([H])([H])C2([H])N([H])C(=O)C1([H])N(C(=O)C([H])(N([H])C(=O)C([H])(N([H])C([H])([H])[H])C([H])([H])[H])C(C([H])([H])[H])(C([H])([H])[H])C([H])([H])[H])C([H])([H])c2c([H])c(OC([H])([H])C3=NOC([H])(C([H])([H])[H])C([H])(c4nc(N([H])C(=O)N5C([H])([H])C([H])([H])C([H])([H])C([H])(n6nc(-c7c([H])c([H])c(Oc8c([H])c([H])c(F)c([H])c8F)c([H])c7[H])c(C(=O)N([H])[H])c6N([H])[H])C5([H])[H])c([H])c(C([H])([H])[H])c4[H])[N+]([H])([H])C3([H])[H])c([H])c([H])c2C1([H])[H]

>  <smiles>  (30) 
[H]c1c([H])c([H])c2c(c1[H])C([H])([H])C([H])([H])C([H])([H])C2([H])N([H])C(=O)C1([H])N(C(=O)C([H])(N([H])C(=O)C([H])(N([H])C([H])([H])[H])C([H])([H])[H])C(C([H])([H])[H])(C([H])([H])[H])C([H])([H])[H])C([H])([H])c2c([H])c(OC([H])([H])C3=NOC([H])(C([H])([H])[H])C([H])(c4nc(N([H])C(=O)N5C([H])([H])C([H])([H])C([H])([H])C([H])(n6nc(-c7c([H])c([H])c(Oc8c([H])c([H])c(F)c([H])c8F)c([H])c7[H])c(C(=O)N([H])[H])c6N([H])[H])C5([H])[H])c([H])c(C([H])([H])[H])c4[H])[N+]([H])([H])C3([H])[H])c([H])c([H])c2C1([H])[H]

$$$$
30:0:0
     RDKit          3D

 98106  0  0  1  0  0  0  0  0999 V2000
  -32.1290  -18.1400   21.6250 C   0  0  0  0  0  3  0  0  0  0  0  0
  -31.5030  -19.2320   21.0120 C   0  0  0  0  0  3  0  0  0  0  0  0
  -31.6290  -16.8460   21.4340 C   0  0  0  0  0  3  0  0  0  0  0  0
  -30.3670  -19.0640   20.1920 C   0  0  0  0  0  0  0  0  0  0  0  0
  -29.8530  -17.7330   20.0000 C   0  0  0  0  0  0  0  0  0  0  0  0
  -30.5010  -16.6070   20.6110 C   0  0  0  0  0  0  0  0  0  0  0  0
  -30.5710  -14.2200   19.8080 C   0  0  0  0  0  0  0  0  0  0  0  0
  -30.1580  -12.0130   18.7700 C   0  0  0  0  0  2  0  0  0  0  0  0
  -29.0920  -12.1490   17.6650 C   0  0  0  0  0  2  0  0  0  0  0  0
  -27.6800  -12.0010   18.2590 C   0  0  0  0  0  2  0  0  0  0  0  0
  -27.4630  -12.8840   19.5160 C   0  0  0  0  0  3  0  0  0  0  0  0
  -28.6370  -12.7470   20.5140 C   0  0  0  0  0  2  0  0  0  0  0  0
  -29.8820  -13.0440   19.7890 N   0  0  0  0  0  0  0  0  0  0  0  0
  -31.6070  -14.3630   19.1530 O   0  0  0  0  0  0  0  0  0  0  0  0
  -29.9970  -15.2590   20.4670 N   0  0  0  0  0  0  0  0  0  0  0  0
  -29.0830  -15.0770   20.8490 H   0  0  0  0  0  0  0  0  0  0  0  0
  -25.1920  -13.4820   20.5580 C   0  0  0  0  0  0  0  0  0  0  0  0
  -24.1650  -12.7110   21.0300 C   0  0  0  0  0  0  0  0  0  0  0  0
  -24.5830  -11.3560   20.8610 C   0  0  0  0  0  0  0  0  0  0  0  0
  -26.1780  -12.6000   20.1500 N   0  0  0  0  0  0  0  0  0  0  0  0
  -25.8220  -11.3110   20.3840 N   0  0  0  0  0  0  0  0  0  0  0  0
  -23.8520  -10.0990   21.0670 C   0  0  0  0  0  0  0  0  0  0  0  0
  -24.3900   -9.0530   21.8490 C   0  0  0  0  0  3  0  0  0  0  0  0
  -23.6600   -7.8600   22.0470 C   0  0  0  0  0  3  0  0  0  0  0  0
  -22.3790   -7.7070   21.4650 C   0  0  0  0  0  0  0  0  0  0  0  0
  -21.8590   -8.7430   20.6700 C   0  0  0  0  0  3  0  0  0  0  0  0
  -22.5880   -9.9270   20.4680 C   0  0  0  0  0  3  0  0  0  0  0  0
  -21.6090   -6.5760   21.5850 O   0  0  0  0  0  0  0  0  0  0  0  0
  -21.6290   -5.8090   22.7220 C   0  0  0  0  0  0  0  0  0  0  0  0
  -21.2770   -6.3370   23.9830 C   0  0  0  0  0  3  0  0  0  0  0  0
  -21.2430   -5.4960   25.1150 C   0  0  0  0  0  3  0  0  0  0  0  0
  -21.5510   -4.1300   24.9860 C   0  0  0  0  0  0  0  0  0  0  0  0
  -21.8970   -3.6010   23.7300 C   0  0  0  0  0  3  0  0  0  0  0  0
  -21.9330   -4.4380   22.6010 C   0  0  0  0  0  0  0  0  0  0  0  0
  -22.2460   -3.9180   21.3890 F   0  0  0  0  0  0  0  0  0  0  0  0
  -21.5120   -3.3200   26.0700 F   0  0  0  0  0  0  0  0  0  0  0  0
  -22.8300  -13.1990   21.5130 C   0  0  0  0  0  0  0  0  0  0  0  0
  -22.1950  -12.4560   22.4140 N   0  0  0  0  0  0  0  0  0  0  0  0
  -22.3630  -14.2700   21.1290 O   0  0  0  0  0  0  0  0  0  0  0  0
  -22.5880  -11.5880   22.7450 H   0  0  0  0  0  0  0  0  0  0  0  0
  -21.3050  -12.7630   22.7790 H   0  0  0  0  0  0  0  0  0  0  0  0
  -25.3590  -14.8520   20.4140 N   0  0  0  0  0  0  0  0  0  0  0  0
  -24.6140  -15.5040   20.6330 H   0  0  0  0  0  0  0  0  0  0  0  0
  -26.1420  -15.2840   19.9440 H   0  0  0  0  0  0  0  0  0  0  0  0
  -29.6740  -20.3560   19.6770 C   0  0  0  0  0  2  0  0  0  0  0  0
  -30.5660  -21.5580   19.2060 C   0  0  0  0  0  3  0  0  0  0  0  0
  -31.6030  -21.7930   20.1500 O   0  0  0  0  0  0  0  0  0  0  0  0
  -31.2080  -21.8880   21.0110 H   0  0  0  0  0  0  0  0  0  0  0  0
  -29.7380  -22.8790   19.0890 C   0  0  0  0  0  2  0  0  0  0  0  0
  -30.5140  -24.2140   18.9610 C   0  0  0  0  0  0  0  0  0  0  0  0
  -31.4690  -24.3370   18.1860 O   0  0  0  0  0  0  0  0  0  0  0  0
  -30.0060  -25.3980   19.8170 C   0  0  0  0  0  2  0  0  0  0  0  0
  -29.7630  -26.5980   19.0520 O   0  0  0  0  0  0  0  0  0  0  0  0
  -25.1300  -29.6360   23.5460 C   0  0  0  0  0  0  0  0  0  0  0  0
  -28.5110  -27.1360   19.2450 C   0  0  0  0  0  0  0  0  0  0  0  0
  -24.1990  -28.8340   21.4000 C   0  0  0  0  0  3  0  0  0  0  0  0
  -25.9120  -28.1820   19.6230 C   0  0  0  0  0  0  0  0  0  0  0  0
  -26.6410  -29.5830   21.5630 C   0  0  0  0  0  2  0  0  0  0  0  0
  -26.9580  -28.5920   20.4610 C   0  0  0  0  0  0  0  0  0  0  0  0
  -28.2640  -28.0800   20.2700 C   0  0  0  0  0  3  0  0  0  0  0  0
  -27.4500  -26.7380   18.4070 C   0  0  0  0  0  3  0  0  0  0  0  0
  -26.1530  -27.2560   18.5920 C   0  0  0  0  0  3  0  0  0  0  0  0
  -24.5470  -28.7780   19.8870 C   0  0  0  0  0  2  0  0  0  0  0  0
  -25.3380  -29.3440   22.2310 N   0  0  0  0  0  0  0  0  0  0  0  0
  -24.0070  -29.5280   24.0590 O   0  0  0  0  0  0  0  0  0  0  0  0
  -23.6930  -27.4430   21.8420 C   0  0  0  0  0  0  0  0  0  0  0  0
  -22.4610  -27.0950   21.4340 N   0  0  0  0  0  0  0  0  0  0  0  0
  -24.4090  -26.6930   22.5120 O   0  0  0  0  0  0  0  0  0  0  0  0
  -21.9340  -27.7690   20.8950 H   0  0  0  0  0  0  0  0  0  0  0  0
  -19.4700  -25.1810   20.7700 C   0  0  0  0  0  0  0  0  0  0  0  0
  -21.7960  -25.8210   21.6980 C   0  0  0  0  0  3  0  0  0  0  0  0
  -22.3530  -24.7020   20.7870 C   0  0  0  0  0  2  0  0  0  0  0  0
  -21.5530  -24.5240   19.4930 C   0  0  0  0  0  2  0  0  0  0  0  0
  -20.0930  -24.1850   19.8080 C   0  0  0  0  0  2  0  0  0  0  0  0
  -20.2700  -25.9600   21.6470 C   0  0  0  0  0  0  0  0  0  0  0  0
  -19.6430  -26.8960   22.4970 C   0  0  0  0  0  3  0  0  0  0  0  0
  -18.2450  -27.0590   22.4830 C   0  0  0  0  0  3  0  0  0  0  0  0
  -17.4560  -26.2730   21.6250 C   0  0  0  0  0  3  0  0  0  0  0  0
  -18.0680  -25.3340   20.7750 C   0  0  0  0  0  3  0  0  0  0  0  0
  -26.2870  -30.1440   24.4640 C   0  0  0  0  0  3  0  0  0  0  0  0
  -26.4070  -29.3420   25.8180 C   0  0  1  0  0  0  0  0  0  0  0  0
  -25.0820  -29.2590   26.6100 C   0  0  0  0  0  1  0  0  0  0  0  0
  -26.8900  -27.8960   25.5550 C   0  0  0  0  0  1  0  0  0  0  0  0
  -27.4690  -30.0030   26.7270 C   0  0  0  0  0  1  0  0  0  0  0  0
  -26.0520  -31.5710   24.7240 N   0  0  0  0  0  0  0  0  0  0  0  0
  -26.8220  -32.5650   24.2620 C   0  0  0  0  0  0  0  0  0  0  0  0
  -27.8600  -32.3670   23.6240 O   0  0  0  0  0  0  0  0  0  0  0  0
  -25.1910  -31.8080   25.1920 H   0  0  0  0  0  0  0  0  0  0  0  0
  -25.8880  -34.6720   23.2560 C   0  0  0  0  0  1  0  0  0  0  0  0
  -26.3700  -34.0080   24.5560 C   0  0  0  0  0  3  0  0  0  0  0  0
  -27.7500  -34.4330   26.5420 C   0  0  0  0  0  1  0  0  0  0  0  0
  -27.4240  -34.8400   25.1770 N   0  0  0  0  0  0  0  0  0  0  0  0
  -27.1450  -35.8170   25.1970 H   0  0  0  0  0  0  0  0  0  0  0  0
  -28.5760  -17.5250   19.1880 C   0  0  0  0  0  2  0  0  0  0  0  0
  -27.3230  -17.8460   20.0290 C   0  0  0  0  0  2  0  0  0  0  0  0
  -24.7920  -17.9010   20.1330 C   0  0  0  0  0  1  0  0  0  0  0  0
  -25.9860  -19.2560   18.3640 C   0  0  0  0  0  1  0  0  0  0  0  0
  -26.0200  -17.9750   19.2140 C   0  0  0  0  0  3  0  0  0  0  0  0
  2  1  2  0
  3  1  1  0
  4  2  1  0
  5  4  2  0
  5  6  1  0
  6  3  2  0
  7 15  1  0
  8 13  1  0
  9 10  1  0
  9  8  1  0
 11 10  1  0
 11 20  1  0
 11 12  1  0
 13  7  1  0
 13 12  1  0
 14  7  2  0
 15  6  1  0
 15 16  1  0
 17 18  2  0
 18 37  1  0
 19 18  1  0
 19 22  1  0
 20 21  1  0
 20 17  1  0
 21 19  2  0
 22 23  1  0
 23 24  2  0
 25 28  1  0
 25 24  1  0
 26 25  2  0
 27 26  1  0
 27 22  2  0
 28 29  1  0
 29 30  1  0
 30 31  2  0
 32 31  1  0
 32 36  1  0
 33 32  2  0
 34 29  2  0
 34 33  1  0
 35 34  1  0
 37 38  1  0
 38 40  1  0
 38 41  1  0
 39 37  2  0
 42 17  1  0
 42 43  1  0
 44 42  1  0
 45  4  1  0
 46 49  1  0
 46 45  1  0
 46 47  1  0
 47 48  1  0
 50 49  1  0
 50 52  1  0
 51 50  2  0
 53 55  1  0
 53 52  1  0
 54 65  2  0
 55 60  1  0
 56 66  1  0
 56 64  1  0
 57 63  1  0
 57 59  1  0
 58 64  1  0
 59 58  1  0
 60 59  2  0
 61 62  1  0
 61 55  2  0
 62 57  2  0
 63 56  1  0
 64 54  1  0
 66 68  2  0
 67 66  1  0
 69 67  1  0
 70 79  2  0
 70 75  1  0
 71 67  1  0
 72 71  1  0
 73 74  1  0
 73 72  1  0
 74 70  1  0
 75 71  1  0
 75 76  2  0
 77 76  1  0
 78 77  2  0
 79 78  1  0
 80 54  1  0
 80 85  1  0
 80 81  1  0
 81 82  1  1
 81 84  1  0
 83 81  1  0
 85 88  1  0
 86 90  1  0
 86 85  1  0
 87 86  2  0
 90 89  1  0
 90 92  1  0
 92 93  1  0
 92 91  1  0
 94  5  1  0
 94 95  1  0
 97 98  1  0
 98 95  1  0
 98 96  1  0
M  ISO  4   7 100  15 100  52 101  53 101
M  END
>  <TORSDO>  (31) 
F 25

>  <SCORE>  (31) 
-8.139

>  <name>  (31) 
30

>  <ligand_id>  (31) 
30

>  <original_smiles>  (31) 
[H]OC([H])(C([H])([H])C(=O)C([H])([H])Oc1c([H])c([H])c2c(c1[H])C([H])([H])N(C(=O)C([H])(N([H])C(=O)C([H])(N([H])C([H])([H])[H])C([H])([H])[H])C(C([H])([H])[H])(C([H])([H])[H])C([H])([H])[H])C([H])(C(=O)N([H])C1([H])c3c([H])c([H])c([H])c([H])c3C([H])([H])C([H])([H])C1([H])[H])C2([H])[H])C([H])([H])c1c([H])c([H])c([H])c(N([H])C(=O)N2C([H])([H])C([H])([H])C([H])([H])C([H])(n3nc(-c4c([H])c([H])c(Oc5c([H])c([H])c(F)c([H])c5F)c([H])c4[H])c(C(=O)N([H])[H])c3N([H])[H])C2([H])[H])c1C([H])([H])C([H])([H])C([H])(C([H])([H])[H])C([H])([H])[H]

>  <smiles>  (31) 
[H]OC([H])(C([H])([H])C(=O)C([H])([H])Oc1c([H])c([H])c2c(c1[H])C([H])([H])N(C(=O)C([H])(N([H])C(=O)C([H])(N([H])C([H])([H])[H])C([H])([H])[H])C(C([H])([H])[H])(C([H])([H])[H])C([H])([H])[H])C([H])(C(=O)N([H])C1([H])c3c([H])c([H])c([H])c([H])c3C([H])([H])C([H])([H])C1([H])[H])C2([H])[H])C([H])([H])c1c([H])c([H])c([H])c(N([H])C(=O)N2C([H])([H])C([H])([H])C([H])([H])C([H])(n3nc(-c4c([H])c([H])c(Oc5c([H])c([H])c(F)c([H])c5F)c([H])c4[H])c(C(=O)N([H])[H])c3N([H])[H])C2([H])[H])c1C([H])([H])C([H])([H])C([H])(C([H])([H])[H])C([H])([H])[H]

$$$$
31:0:0
     RDKit          3D

 94102  0  0  1  0  0  0  0  0999 V2000
  -29.0430  -21.9700   20.7740 C   0  0  0  0  0  0  0  0  0  0  0  0
  -29.2420  -20.7540   20.1930 N   0  0  0  0  0  0  0  0  0  0  0  0
  -29.1460  -22.1840   21.9870 O   0  0  0  0  0  0  0  0  0  0  0  0
  -28.9640  -20.7070   19.2210 H   0  0  0  0  0  0  0  0  0  0  0  0
  -29.5630  -18.2630   20.3520 C   0  0  0  0  0  3  0  0  0  0  0  0
  -31.0270  -19.7600   21.6010 C   0  0  0  0  0  3  0  0  0  0  0  0
  -31.4040  -17.3450   21.6670 C   0  0  0  0  0  3  0  0  0  0  0  0
  -29.9190  -19.5950   20.7360 C   0  0  0  0  0  0  0  0  0  0  0  0
  -30.3030  -17.1260   20.8100 C   0  0  0  0  0  0  0  0  0  0  0  0
  -31.7590  -18.6490   22.0600 C   0  0  0  0  0  0  0  0  0  0  0  0
  -32.8170  -18.8370   22.8850 F   0  0  0  0  0  0  0  0  0  0  0  0
  -30.6840  -14.7260   20.1300 C   0  0  0  0  0  0  0  0  0  0  0  0
  -30.4130  -12.5270   19.0240 C   0  0  0  0  0  2  0  0  0  0  0  0
  -29.4080  -12.6670   17.8610 C   0  0  0  0  0  2  0  0  0  0  0  0
  -27.9610  -12.4930   18.3620 C   0  0  0  0  0  2  0  0  0  0  0  0
  -27.6550  -13.3470   19.6230 C   0  0  0  0  0  3  0  0  0  0  0  0
  -28.7670  -13.1860   20.6830 C   0  0  0  0  0  2  0  0  0  0  0  0
  -30.0450  -13.5250   20.0400 N   0  0  0  0  0  0  0  0  0  0  0  0
  -31.8280  -14.8970   19.6970 O   0  0  0  0  0  0  0  0  0  0  0  0
  -29.9030  -15.7760   20.4940 N   0  0  0  0  0  0  0  0  0  0  0  0
  -28.9220  -15.5680   20.5910 H   0  0  0  0  0  0  0  0  0  0  0  0
  -25.3030  -13.9200   20.4890 C   0  0  0  0  0  0  0  0  0  0  0  0
  -24.2590  -13.1310   20.8890 C   0  0  0  0  0  0  0  0  0  0  0  0
  -24.7190  -11.7830   20.7850 C   0  0  0  0  0  0  0  0  0  0  0  0
  -26.3340  -13.0500   20.1690 N   0  0  0  0  0  0  0  0  0  0  0  0
  -25.9900  -11.7590   20.4050 N   0  0  0  0  0  0  0  0  0  0  0  0
  -24.0060  -10.5130   20.9670 C   0  0  0  0  0  0  0  0  0  0  0  0
  -24.4310   -9.5570   21.9160 C   0  0  0  0  0  3  0  0  0  0  0  0
  -23.7170   -8.3510   22.0850 C   0  0  0  0  0  3  0  0  0  0  0  0
  -22.5650   -8.0930   21.3050 C   0  0  0  0  0  0  0  0  0  0  0  0
  -22.1600   -9.0370   20.3460 C   0  0  0  0  0  3  0  0  0  0  0  0
  -22.8750  -10.2340   20.1750 C   0  0  0  0  0  3  0  0  0  0  0  0
  -21.8250   -6.9370   21.3840 O   0  0  0  0  0  0  0  0  0  0  0  0
  -21.6990   -6.2410   22.5590 C   0  0  0  0  0  0  0  0  0  0  0  0
  -21.1310   -6.8230   23.7130 C   0  0  0  0  0  3  0  0  0  0  0  0
  -20.9580   -6.0500   24.8790 C   0  0  0  0  0  3  0  0  0  0  0  0
  -21.3420   -4.6960   24.8900 C   0  0  0  0  0  0  0  0  0  0  0  0
  -21.9030   -4.1130   23.7400 C   0  0  0  0  0  3  0  0  0  0  0  0
  -22.0780   -4.8830   22.5760 C   0  0  0  0  0  0  0  0  0  0  0  0
  -22.5990   -4.3120   21.4640 F   0  0  0  0  0  0  0  0  0  0  0  0
  -21.1690   -3.9510   26.0070 F   0  0  0  0  0  0  0  0  0  0  0  0
  -22.8780  -13.5940   21.2540 C   0  0  0  0  0  0  0  0  0  0  0  0
  -22.1920  -12.8560   22.1190 N   0  0  0  0  0  0  0  0  0  0  0  0
  -22.4170  -14.6440   20.8080 O   0  0  0  0  0  0  0  0  0  0  0  0
  -22.5780  -12.0040   22.5000 H   0  0  0  0  0  0  0  0  0  0  0  0
  -21.2680  -13.1460   22.4050 H   0  0  0  0  0  0  0  0  0  0  0  0
  -25.4570  -15.2970   20.3510 N   0  0  0  0  0  0  0  0  0  0  0  0
  -24.6900  -15.9400   20.5180 H   0  0  0  0  0  0  0  0  0  0  0  0
  -26.2720  -15.7500   19.9610 H   0  0  0  0  0  0  0  0  0  0  0  0
  -28.6390  -23.1130   19.7670 C   0  0  0  0  0  0  0  0  0  0  0  0
  -29.0790  -23.1230   18.6120 O   0  0  0  0  0  0  0  0  0  0  0  0
  -27.6480  -24.2200   20.2200 C   0  0  0  0  0  2  0  0  0  0  0  0
  -28.2440  -25.5390   20.8190 C   0  0  0  0  0  2  0  0  0  0  0  0
  -28.1980  -26.7520   20.0190 O   0  0  0  0  0  0  0  0  0  0  0  0
  -24.4910  -31.9840   23.2390 C   0  0  0  0  0  0  0  0  0  0  0  0
  -27.0440  -27.5150   20.0870 C   0  0  0  0  0  0  0  0  0  0  0  0
  -23.2460  -30.5980   21.6150 C   0  0  0  0  0  3  0  0  0  0  0  0
  -24.6620  -29.0590   20.1520 C   0  0  0  0  0  0  0  0  0  0  0  0
  -25.7710  -30.9390   21.3670 C   0  0  0  0  0  2  0  0  0  0  0  0
  -25.8380  -29.5670   20.7180 C   0  0  0  0  0  0  0  0  0  0  0  0
  -27.0350  -28.8050   20.6770 C   0  0  0  0  0  3  0  0  0  0  0  0
  -25.8500  -27.0300   19.5150 C   0  0  0  0  0  3  0  0  0  0  0  0
  -24.6650  -27.7890   19.5460 C   0  0  0  0  0  3  0  0  0  0  0  0
  -23.4250  -29.9260   20.2280 C   0  0  0  0  0  2  0  0  0  0  0  0
  -24.5230  -31.1890   22.1320 N   0  0  0  0  0  0  0  0  0  0  0  0
  -23.4220  -32.2570   23.8030 O   0  0  0  0  0  0  0  0  0  0  0  0
  -22.6090  -29.5740   22.5830 C   0  0  0  0  0  0  0  0  0  0  0  0
  -21.2920  -29.3560   22.4450 N   0  0  0  0  0  0  0  0  0  0  0  0
  -23.2990  -28.9770   23.4140 O   0  0  0  0  0  0  0  0  0  0  0  0
  -20.7940  -29.8890   21.7450 H   0  0  0  0  0  0  0  0  0  0  0  0
  -17.9490  -28.0530   22.9000 C   0  0  0  0  0  0  0  0  0  0  0  0
  -20.4910  -28.4060   23.2190 C   0  0  0  0  0  3  0  0  0  0  0  0
  -20.6550  -26.9680   22.6750 C   0  0  0  0  0  2  0  0  0  0  0  0
  -19.5870  -26.5860   21.6460 C   0  0  0  0  0  2  0  0  0  0  0  0
  -18.1870  -26.6960   22.2580 C   0  0  0  0  0  2  0  0  0  0  0  0
  -19.0330  -28.8620   23.3370 C   0  0  0  0  0  0  0  0  0  0  0  0
  -18.7580  -30.1300   23.8940 C   0  0  0  0  0  3  0  0  0  0  0  0
  -17.4350  -30.5900   24.0210 C   0  0  0  0  0  3  0  0  0  0  0  0
  -16.3660  -29.7790   23.6020 C   0  0  0  0  0  3  0  0  0  0  0  0
  -16.6240  -28.5130   23.0470 C   0  0  0  0  0  3  0  0  0  0  0  0
  -25.7920  -32.6070   23.8360 C   0  0  0  0  0  3  0  0  0  0  0  0
  -26.3330  -31.8270   25.0960 C   0  0  1  0  0  0  0  0  0  0  0  0
  -25.2580  -31.5700   26.1780 C   0  0  0  0  0  1  0  0  0  0  0  0
  -26.9200  -30.4580   24.6800 C   0  0  0  0  0  1  0  0  0  0  0  0
  -27.4880  -32.6220   25.7480 C   0  0  0  0  0  1  0  0  0  0  0  0
  -25.4970  -34.0040   24.1780 N   0  0  0  0  0  0  0  0  0  0  0  0
  -25.8270  -35.0600   23.4200 C   0  0  0  0  0  0  0  0  0  0  0  0
  -26.4840  -34.9570   22.3810 O   0  0  0  0  0  0  0  0  0  0  0  0
  -24.9110  -34.1580   24.9860 H   0  0  0  0  0  0  0  0  0  0  0  0
  -24.1160  -36.8720   23.0850 C   0  0  0  0  0  1  0  0  0  0  0  0
  -25.3540  -36.4480   23.8910 C   0  0  0  0  0  3  0  0  0  0  0  0
  -27.4940  -37.3090   24.7310 C   0  0  0  0  0  1  0  0  0  0  0  0
  -26.3960  -37.4920   23.7850 N   0  0  0  0  0  0  0  0  0  0  0  0
  -25.9990  -38.4140   23.9370 H   0  0  0  0  0  0  0  0  0  0  0  0
  1  3  2  0
  2  8  1  0
  2  1  1  0
  4  2  1  0
  5  8  2  0
  5  9  1  0
  6 10  2  0
  7 10  1  0
  8  6  1  0
  9  7  2  0
 10 11  1  0
 12 20  1  0
 13 18  1  0
 14 15  1  0
 14 13  1  0
 16 15  1  0
 16 25  1  0
 16 17  1  0
 18 12  1  0
 18 17  1  0
 19 12  2  0
 20 21  1  0
 20  9  1  0
 22 23  2  0
 23 42  1  0
 24 23  1  0
 24 27  1  0
 25 26  1  0
 25 22  1  0
 26 24  2  0
 27 28  1  0
 28 29  2  0
 30 33  1  0
 30 29  1  0
 31 30  2  0
 32 31  1  0
 32 27  2  0
 33 34  1  0
 34 39  2  0
 34 35  1  0
 35 36  2  0
 36 37  1  0
 37 41  1  0
 38 37  2  0
 39 38  1  0
 40 39  1  0
 42 43  1  0
 43 46  1  0
 43 45  1  0
 44 42  2  0
 47 22  1  0
 47 48  1  0
 49 47  1  0
 50 52  1  0
 50  1  1  0
 51 50  2  0
 52 53  1  0
 54 56  1  0
 54 53  1  0
 55 66  2  0
 56 61  1  0
 57 65  1  0
 57 67  1  0
 58 64  1  0
 58 60  1  0
 59 65  1  0
 60 59  1  0
 61 60  2  0
 62 63  1  0
 62 56  2  0
 63 58  2  0
 64 57  1  0
 65 55  1  0
 67 69  2  0
 68 67  1  0
 70 68  1  0
 71 80  2  0
 71 76  1  0
 72 68  1  0
 72 76  1  0
 73 72  1  0
 74 75  1  0
 74 73  1  0
 75 71  1  0
 76 77  2  0
 77 78  1  0
 79 78  2  0
 80 79  1  0
 81 55  1  0
 81 86  1  0
 81 82  1  0
 82 85  1  1
 82 83  1  0
 84 82  1  0
 86 89  1  0
 87 91  1  0
 87 86  1  0
 88 87  2  0
 91 90  1  0
 93 91  1  0
 93 94  1  0
 93 92  1  0
M  ISO  4  12 100  20 100  53 101  54 101
M  END
>  <TORSDO>  (32) 
F 20

>  <SCORE>  (32) 
-13.446

>  <name>  (32) 
31

>  <ligand_id>  (32) 
31

>  <original_smiles>  (32) 
[H]c1c([H])c([H])c2c(c1[H])C([H])([H])C([H])([H])C([H])([H])C2([H])N([H])C(=O)C1([H])N(C(=O)C([H])(N([H])C(=O)C([H])(N([H])C([H])([H])[H])C([H])([H])[H])C(C([H])([H])[H])(C([H])([H])[H])C([H])([H])[H])C([H])([H])c2c([H])c(OC([H])([H])C([H])([H])C(=O)C(=O)N([H])c3c([H])c(F)c([H])c(N([H])C(=O)N4C([H])([H])C([H])([H])C([H])([H])C([H])(n5nc(-c6c([H])c([H])c(Oc7c([H])c([H])c(F)c([H])c7F)c([H])c6[H])c(C(=O)N([H])[H])c5N([H])[H])C4([H])[H])c3[H])c([H])c([H])c2C1([H])[H]

>  <smiles>  (32) 
[H]c1c([H])c([H])c2c(c1[H])C([H])([H])C([H])([H])C([H])([H])C2([H])N([H])C(=O)C1([H])N(C(=O)C([H])(N([H])C(=O)C([H])(N([H])C([H])([H])[H])C([H])([H])[H])C(C([H])([H])[H])(C([H])([H])[H])C([H])([H])[H])C([H])([H])c2c([H])c(OC([H])([H])C([H])([H])C(=O)C(=O)N([H])c3c([H])c(F)c([H])c(N([H])C(=O)N4C([H])([H])C([H])([H])C([H])([H])C([H])(n5nc(-c6c([H])c([H])c(Oc7c([H])c([H])c(F)c([H])c7F)c([H])c6[H])c(C(=O)N([H])[H])c5N([H])[H])C4([H])[H])c3[H])c([H])c([H])c2C1([H])[H]

$$$$
32:0:0
     RDKit          3D

 94 91  0  0  1  0  0  0  0  0999 V2000
  -26.1130  -14.7770   21.6890 C   0  0  0  0  0 15  0  0  0  0  0  0
  -25.9270  -11.0880   20.3520 C   0  0  0  0  0 15  0  0  0  0  0  0
  -23.7000  -14.0370   18.9210 C   0  0  0  0  0 15  0  0  0  0  0  0
  -26.8880  -12.7560   21.6440 C   0  0  0  0  0  1  0  0  0  0  0  0
  -24.6450  -15.5630   20.3270 C   0  0  0  0  0  1  0  0  0  0  0  0
  -24.2730  -11.8620   18.9380 C   0  0  0  0  0  1  0  0  0  0  0  0
  -23.7030  -11.0120   18.0490 F   0  0  0  0  0  0  0  0  0  0  0  0
  -30.1070  -13.2380   19.9940 C   0  0  0  0  0  0  0  0  0  0  0  0
  -30.0610  -11.5620   18.0770 C   0  0  0  0  0  2  0  0  0  0  0  0
  -28.8760  -11.7210   17.0360 C   0  0  0  0  0  2  0  0  0  0  0  0
  -27.4250  -11.8460   17.5880 C   0  0  0  0  0  2  0  0  0  0  0  0
  -27.5460  -12.5960   18.8950 C   0  0  0  0  0  3  0  0  0  0  0  0
  -28.4650  -11.5790   19.6670 C   0  0  0  0  0  2  0  0  0  0  0  0
  -29.7310  -12.0920   19.4070 N   0  0  0  0  0  0  0  0  0  0  0  0
  -31.0070  -13.8950   19.4160 O   0  0  0  0  0  0  0  0  0  0  0  0
  -28.4150  -12.9680   22.0590 C   0  0  0  0  0  0  0  0  0  0  0  0
  -29.4580  -13.5060   21.2320 N   0  0  0  0  0  0  0  0  0  0  0  0
  -28.6510  -12.8550   23.2640 O   0  0  0  0  0  0  0  0  0  0  0  0
  -30.0160  -14.1590   21.7560 H   0  0  0  0  0  0  0  0  0  0  0  0
  -25.6250  -13.6840   19.9300 C   0  0  0  0  0  0  0  0  0  0  0  0
  -24.2160  -13.1880   21.1020 C   0  0  0  0  0  0  0  0  0  0  0  0
  -24.2090  -11.9220   21.5500 C   0  0  0  0  0  2  0  0  0  0  0  0
  -26.1920  -13.1380   19.3570 N   0  0  0  0  0  2  0  0  0  0  0  0
  -24.8650  -13.0050   20.7170 N   0  0  0  0  0  2  0  0  0  0  0  0
  -23.5320  -10.4500   21.3740 C   0  0  0  0  0  3  0  0  0  0  0  0
  -24.0850   -9.3000   22.0440 C   0  0  0  0  0  3  0  0  0  0  0  0
  -23.3980   -8.0550   22.2260 C   0  0  0  0  0  3  0  0  0  0  0  0
  -22.0900   -7.8640   21.7280 C   0  0  0  0  0  0  0  0  0  0  0  0
  -21.5780   -8.9160   20.9300 C   0  0  0  0  0  3  0  0  0  0  0  0
  -22.2800  -10.1520   20.7450 C   0  0  0  0  0  3  0  0  0  0  0  0
  -21.3170   -6.7210   21.9330 O   0  0  0  0  0  0  0  0  0  0  0  0
  -21.4090   -5.9130   23.0580 C   0  0  0  0  0  0  0  0  0  0  0  0
  -21.2820   -6.4270   24.3700 C   0  0  0  0  0  3  0  0  0  0  0  0
  -21.3420   -5.5660   25.4900 C   0  0  0  0  0  3  0  0  0  0  0  0
  -21.5150   -4.1810   25.3130 C   0  0  0  0  0  0  0  0  0  0  0  0
  -21.6110   -3.6550   24.0150 C   0  0  0  0  0  3  0  0  0  0  0  0
  -21.5510   -4.5120   22.8970 C   0  0  0  0  0  0  0  0  0  0  0  0
  -21.6240   -3.9760   21.6560 F   0  0  0  0  0  0  0  0  0  0  0  0
  -21.5830   -3.3560   26.3870 F   0  0  0  0  0  0  0  0  0  0  0  0
  -22.6810  -13.6380   21.5920 C   0  0  0  0  0  0  0  0  0  0  0  0
  -22.0430  -12.9290   22.5430 N   0  0  0  0  0  0  0  0  0  0  0  0
  -22.0250  -14.5250   21.0640 O   0  0  0  0  0  0  0  0  0  0  0  0
  -22.4890  -12.1760   23.0420 H   0  0  0  0  0  0  0  0  0  0  0  0
  -21.1020  -13.1940   22.8000 H   0  0  0  0  0  0  0  0  0  0  0  0
  -26.2890  -14.7510   19.1520 N   0  0  0  0  0  4  0  0  0  0  0  0
  -25.9580  -15.7050   19.2760 H   0  0  0  0  0  0  0  0  0  0  0  0
  -26.7360  -14.5940   18.2610 H   0  0  0  0  0  0  0  0  0  0  0  0
  -24.9280  -17.1880   19.8050 N   0  0  0  0  0  0  0  0  0  0  0  0
  -24.3530  -17.2860   18.9710 H   0  0  0  0  0  0  0  0  0  0  0  0
  -25.6350  -18.8940   20.0080 C   0  0  0  0  0  1  0  0  0  0  0  0
  -26.0350  -20.6390   19.0880 C   0  0  0  0  0  2  0  0  0  0  0  0
  -26.3150  -20.3970   17.9090 O   0  0  0  0  0  0  0  0  0  0  0  0
  -26.1440  -22.6200   19.3900 C   0  0  0  0  0 15  0  0  0  0  0  0
  -26.8600  -24.2550   18.7280 O   0  0  0  0  0  1  0  0  0  0  0  0
  -24.8210  -30.9490   22.3260 C   0  0  0  0  0  0  0  0  0  0  0  0
  -26.4060  -25.7820   18.8090 C   0  0  0  0  0  0  0  0  0  0  0  0
  -23.4260  -29.7130   20.7500 C   0  0  0  0  0  3  0  0  0  0  0  0
  -24.5930  -28.1800   19.0170 C   0  0  0  0  0  0  0  0  0  0  0  0
  -25.9810  -29.7080   20.3660 C   0  0  0  0  0  2  0  0  0  0  0  0
  -25.8540  -28.3150   19.6000 C   0  0  0  0  0  0  0  0  0  0  0  0
  -26.7790  -27.1300   19.4660 C   0  0  0  0  0  3  0  0  0  0  0  0
  -25.2510  -25.9960   18.0600 C   0  0  0  0  0  3  0  0  0  0  0  0
  -24.3590  -27.0780   18.1930 C   0  0  0  0  0  3  0  0  0  0  0  0
  -23.4820  -29.1930   19.2890 C   0  0  0  0  0  2  0  0  0  0  0  0
  -24.7800  -30.1650   21.1910 N   0  0  0  0  0  0  0  0  0  0  0  0
  -23.7970  -31.2160   22.9800 O   0  0  0  0  0  0  0  0  0  0  0  0
  -22.8300  -28.6330   21.6960 C   0  0  0  0  0  0  0  0  0  0  0  0
  -21.4950  -28.4570   21.6980 N   0  0  0  0  0  0  0  0  0  0  0  0
  -23.5770  -27.9660   22.4170 O   0  0  0  0  0  0  0  0  0  0  0  0
  -20.9360  -29.0500   21.1000 H   0  0  0  0  0  0  0  0  0  0  0  0
  -18.2070  -27.0970   22.4230 C   0  0  0  0  0  0  0  0  0  0  0  0
  -20.7690  -27.4540   22.4860 C   0  0  0  0  0  3  0  0  0  0  0  0
  -20.8700  -26.0540   21.8340 C   0  0  0  0  0  2  0  0  0  0  0  0
  -19.6990  -25.7400   20.8980 C   0  0  0  0  0  2  0  0  0  0  0  0
  -18.3720  -25.7950   21.6590 C   0  0  0  0  0  2  0  0  0  0  0  0
  -19.3290  -27.8840   22.7990 C   0  0  0  0  0  0  0  0  0  0  0  0
  -19.1120  -29.0980   23.4840 C   0  0  0  0  0  3  0  0  0  0  0  0
  -17.8080  -29.5300   23.7920 C   0  0  0  0  0  3  0  0  0  0  0  0
  -16.7020  -28.7410   23.4270 C   0  0  0  0  0  3  0  0  0  0  0  0
  -16.9040  -27.5260   22.7480 C   0  0  0  0  0  3  0  0  0  0  0  0
  -26.1520  -31.5610   22.8550 C   0  0  0  0  0  3  0  0  0  0  0  0
  -26.9140  -30.6020   23.8530 C   0  0  1  0  0  0  0  0  0  0  0  0
  -26.0350  -30.0880   25.0190 C   0  0  0  0  0  1  0  0  0  0  0  0
  -27.4780  -29.3650   23.1250 C   0  0  0  0  0  1  0  0  0  0  0  0
  -28.1310  -31.3390   24.4590 C   0  0  0  0  0  1  0  0  0  0  0  0
  -25.8330  -32.8300   23.5440 N   0  0  0  0  0  0  0  0  0  0  0  0
  -25.9850  -34.0570   23.0280 C   0  0  0  0  0  0  0  0  0  0  0  0
  -26.4700  -34.2470   21.9100 O   0  0  0  0  0  0  0  0  0  0  0  0
  -25.3780  -32.7450   24.4420 H   0  0  0  0  0  0  0  0  0  0  0  0
  -24.1540  -35.7490   23.4200 C   0  0  0  0  0  1  0  0  0  0  0  0
  -25.5390  -35.2650   23.8830 C   0  0  0  0  0  3  0  0  0  0  0  0
  -27.7520  -36.1180   24.5280 C   0  0  0  0  0  1  0  0  0  0  0  0
  -26.4890  -36.3990   23.8510 N   0  0  0  0  0  0  0  0  0  0  0  0
  -26.0790  -37.2250   24.2790 H   0  0  0  0  0  0  0  0  0  0  0  0
  4 16  1  0
  7  6  1  0
  8 17  1  0
  9 14  1  0
 10 11  1  0
 10  9  1  0
 11 12  1  0
 12 23  1  0
 12 13  1  0
 14 13  1  0
 14  8  1  0
 15  8  2  0
 16 18  2  0
 17 19  1  0
 17 16  1  0
 20 24  1  0
 21 22  2  0
 21 40  1  0
 23 20  1  0
 24 21  1  0
 25 26  1  0
 26 27  2  0
 28 31  1  0
 28 27  1  0
 29 28  2  0
 30 29  1  0
 30 25  2  0
 31 32  1  0
 32 33  1  0
 33 34  2  0
 35 34  1  0
 35 39  1  0
 36 35  2  0
 37 32  2  0
 37 36  1  0
 38 37  1  0
 40 41  1  0
 41 44  1  0
 41 43  1  0
 42 40  2  0
 45 46  1  0
 45 20  2  0
 47 45  1  0
 48 50  1  0
 48  5  1  0
 49 48  1  0
 52 51  2  0
 54 56  1  0
 55 66  2  0
 56 61  1  0
 57 65  1  0
 57 67  1  0
 58 64  1  0
 58 60  1  0
 59 65  1  0
 60 59  1  0
 61 60  2  0
 62 63  1  0
 62 56  2  0
 63 58  2  0
 64 57  1  0
 65 55  1  0
 67 68  1  0
 67 69  2  0
 70 68  1  0
 71 80  2  0
 71 76  1  0
 72 68  1  0
 72 76  1  0
 73 72  1  0
 74 75  1  0
 74 73  1  0
 75 71  1  0
 76 77  2  0
 77 78  1  0
 79 78  2  0
 80 79  1  0
 81 55  1  0
 81 86  1  0
 81 82  1  0
 82 85  1  1
 82 83  1  0
 84 82  1  0
 86 89  1  0
 87 86  1  0
 87 91  1  0
 88 87  2  0
 91 90  1  0
 93 91  1  0
 93 94  1  0
 93 92  1  0
M  ISO  4   8 100  17 100  53 101  54 101
M  END
>  <TORSDO>  (33) 
F 20

>  <SCORE>  (33) 
2.823

>  <name>  (33) 
32

>  <ligand_id>  (33) 
32

>  <original_smiles>  (33) 
[H]c1c([H])c([H])c2c(c1[H])C([H])([H])C([H])([H])C([H])([H])C2([H])N([H])C(=O)C1([H])N(C(=O)C([H])(N([H])C(=O)C([H])(N([H])C([H])([H])[H])C([H])([H])[H])C(C([H])([H])[H])(C([H])([H])[H])C([H])([H])[H])C([H])([H])c2c([H])c(OC([H])([H])C(=O)C([H])([H])N([H])c3c([H])c(F)c([H])c(C(=O)N([H])C(=O)N4C([H])([H])C([H])([H])C([H])([H])C([H])(n5nc(-c6c([H])c([H])c(Oc7c([H])c([H])c(F)c([H])c7F)c([H])c6[H])c(C(=O)N([H])[H])c5N([H])[H])C4([H])[H])c3[H])c([H])c([H])c2C1([H])[H]

>  <smiles>  (33) 
[H]c1c([H])c([H])c2c(c1[H])C([H])([H])C([H])([H])C([H])([H])C2([H])N([H])C(=O)C1([H])N(C(=O)C([H])(N([H])C(=O)C([H])(N([H])C([H])([H])[H])C([H])([H])[H])C(C([H])([H])[H])(C([H])([H])[H])C([H])([H])[H])C([H])([H])c2c([H])c(OC([H])([H])C(=O)C([H])([H])N([H])c3c([H])c(F)c([H])c(C(=O)N([H])C(=O)N4C([H])([H])C([H])([H])C([H])([H])C([H])(n5nc(-c6c([H])c([H])c(Oc7c([H])c([H])c(F)c([H])c7F)c([H])c6[H])c(C(=O)N([H])[H])c5N([H])[H])C4([H])[H])c3[H])c([H])c([H])c2C1([H])[H]

$$$$
33:0:0
     RDKit          3D

 93 96  0  0  1  0  0  0  0  0999 V2000
  -27.2160  -18.4330   20.5630 C   0  0  0  0  0  2  0  0  0  0  0  0
  -28.3690  -18.3150   20.9940 O   0  0  0  0  0  0  0  0  0  0  0  0
  -26.8720  -22.1540   19.3220 C   0  0  0  0  0  1  0  0  0  0  0  0
  -27.3130  -20.5380   19.8620 C   0  0  0  0  0  2  0  0  0  0  0  0
  -28.6470  -20.6370   19.8990 O   0  0  0  0  0  0  0  0  0  0  0  0
  -28.9450  -19.8140   20.2920 H   0  0  0  0  0  0  0  0  0  0  0  0
  -27.3740  -23.8800   18.7100 O   0  0  0  0  0  1  0  0  0  0  0  0
  -25.8270  -31.0950   22.1830 C   0  0  0  0  0  0  0  0  0  0  0  0
  -26.9810  -25.5760   18.6700 C   0  0  0  0  0  0  0  0  0  0  0  0
  -24.3220  -29.9470   20.6250 C   0  0  0  0  0  3  0  0  0  0  0  0
  -25.3590  -28.3210   18.8270 C   0  0  0  0  0  0  0  0  0  0  0  0
  -26.8480  -29.7480   20.1680 C   0  0  0  0  0  2  0  0  0  0  0  0
  -26.6180  -28.3210   19.4180 C   0  0  0  0  0  0  0  0  0  0  0  0
  -27.4080  -26.9910   19.3020 C   0  0  0  0  0  3  0  0  0  0  0  0
  -25.8930  -26.0350   17.8560 C   0  0  0  0  0  3  0  0  0  0  0  0
  -25.1000  -27.2380   17.9680 C   0  0  0  0  0  3  0  0  0  0  0  0
  -24.3150  -29.4190   19.1520 C   0  0  0  0  0  2  0  0  0  0  0  0
  -25.7130  -30.3190   21.0360 N   0  0  0  0  0  0  0  0  0  0  0  0
  -24.8400  -31.3940   22.8800 O   0  0  0  0  0  0  0  0  0  0  0  0
  -23.7120  -28.8940   21.5920 C   0  0  0  0  0  0  0  0  0  0  0  0
  -22.3750  -28.7230   21.6050 N   0  0  0  0  0  0  0  0  0  0  0  0
  -24.4580  -28.2310   22.3160 O   0  0  0  0  0  0  0  0  0  0  0  0
  -21.8110  -29.3090   21.0050 H   0  0  0  0  0  0  0  0  0  0  0  0
  -19.1190  -27.2600   22.2900 C   0  0  0  0  0  0  0  0  0  0  0  0
  -21.6660  -27.7040   22.3910 C   0  0  0  0  0  3  0  0  0  0  0  0
  -21.8250  -26.3060   21.7500 C   0  0  0  0  0  2  0  0  0  0  0  0
  -20.6840  -25.9480   20.7930 C   0  0  0  0  0  2  0  0  0  0  0  0
  -19.3420  -25.9610   21.5310 C   0  0  0  0  0  2  0  0  0  0  0  0
  -20.2070  -28.0860   22.6790 C   0  0  0  0  0  0  0  0  0  0  0  0
  -19.9400  -29.2920   23.3600 C   0  0  0  0  0  3  0  0  0  0  0  0
  -18.6180  -29.6800   23.6490 C   0  0  0  0  0  3  0  0  0  0  0  0
  -17.5450  -28.8550   23.2710 C   0  0  0  0  0  3  0  0  0  0  0  0
  -17.7960  -27.6460   22.5980 C   0  0  0  0  0  3  0  0  0  0  0  0
  -27.1940  -31.6600   22.6830 C   0  0  0  0  0  3  0  0  0  0  0  0
  -28.0790  -30.5760   23.4170 C   0  0  1  0  0  0  0  0  0  0  0  0
  -27.3380  -29.8290   24.5510 C   0  0  0  0  0  1  0  0  0  0  0  0
  -28.6010  -29.5090   22.4340 C   0  0  0  0  0  1  0  0  0  0  0  0
  -29.3330  -31.2460   24.0270 C   0  0  0  0  0  1  0  0  0  0  0  0
  -26.9290  -32.7790   23.6220 N   0  0  0  0  0  0  0  0  0  0  0  0
  -27.1150  -34.0820   23.3700 C   0  0  0  0  0  0  0  0  0  0  0  0
  -27.5730  -34.4860   22.2990 O   0  0  0  0  0  0  0  0  0  0  0  0
  -26.4970  -32.5280   24.4980 H   0  0  0  0  0  0  0  0  0  0  0  0
  -25.3850  -35.7490   24.1530 C   0  0  0  0  0  1  0  0  0  0  0  0
  -26.7440  -35.1020   24.4730 C   0  0  0  0  0  3  0  0  0  0  0  0
  -28.9980  -35.6860   25.2630 C   0  0  0  0  0  1  0  0  0  0  0  0
  -27.7540  -36.1660   24.6680 N   0  0  0  0  0  0  0  0  0  0  0  0
  -27.3870  -36.9090   25.2570 H   0  0  0  0  0  0  0  0  0  0  0  0
  -26.5200  -16.3440   21.0510 C   0  0  0  0  0 15  0  0  0  0  0  0
  -27.4980  -11.1110   21.3330 C   0  0  0  0  0  2  0  0  0  0  0  0
  -25.8070  -10.3090   20.7360 C   0  0  0  0  0  3  0  0  0  0  0  0
  -24.8960  -13.2230   22.0010 C   0  0  0  0  0  1  0  0  0  0  0  0
  -26.4720  -14.1970   21.8230 C   0  0  0  0  0  2  0  0  0  0  0  0
  -27.8060  -12.9550   21.7060 C   0  0  0  0  0  3  0  0  0  0  0  0
  -24.3230  -11.4790   21.0470 C   0  0  0  0  0  1  0  0  0  0  0  0
  -23.0550  -11.0500   20.7770 F   0  0  0  0  0 15  0  0  0  0  0  0
  -30.7570  -13.4550   20.7820 C   0  0  0  0  0  0  0  0  0  0  0  0
  -32.1190  -11.3550   20.0010 C   0  0  0  0  0  2  0  0  0  0  0  0
  -31.4890  -10.5810   18.7630 C   0  0  0  0  0  2  0  0  0  0  0  0
  -29.9310  -10.4560   18.6780 C   0  0  0  0  0  2  0  0  0  0  0  0
  -29.3500  -11.6760   19.3450 C   0  0  0  0  0  3  0  0  0  0  0  0
  -30.0230  -11.3830   20.7680 C   0  0  0  0  0  2  0  0  0  0  0  0
  -31.1200  -12.1610   20.7190 N   0  0  0  0  0  0  0  0  0  0  0  0
  -31.6970  -14.1460   20.2570 O   0  0  0  0  0  0  0  0  0  0  0  0
  -29.2570  -15.1630   21.6800 C   0  0  0  0  0  1  0  0  0  0  0  0
  -29.3260  -13.7330   21.3840 N   0  0  0  0  0  0  0  0  0  0  0  0
  -26.9010  -12.7210   18.9670 C   0  0  0  0  0  3  0  0  0  0  0  0
  -25.7060  -12.0790   19.0890 C   0  0  0  0  0  3  0  0  0  0  0  0
  -26.4530  -11.2740   20.0310 C   0  0  1  0  0  0  0  0  0  0  0  0
  -27.9350  -11.8120   19.2330 N   0  0  0  0  0  0  0  0  0  0  0  0
  -27.3410  -10.7570   19.1630 N   0  0  0  0  0  2  0  0  0  0  0  0
  -25.4900   -9.9390   22.4540 C   0  0  0  0  0  3  0  0  0  0  0  0
  -25.7240   -8.4640   22.8480 C   0  0  0  0  0  2  0  0  0  0  0  0
  -24.9820   -7.1870   22.5630 C   0  0  0  0  0  3  0  0  0  0  0  0
  -23.6810   -7.1190   21.9780 C   0  0  0  0  0  0  0  0  0  0  0  0
  -23.2160   -8.4080   21.8480 C   0  0  0  0  0  2  0  0  0  0  0  0
  -23.9770   -9.4740   22.5790 C   0  0  0  0  0  2  0  0  0  0  0  0
  -22.8340   -6.0060   21.8280 O   0  0  0  0  0  0  0  0  0  0  0  0
  -22.3190   -5.3940   22.9700 C   0  0  0  0  0  0  0  0  0  0  0  0
  -21.7540   -6.1620   24.0160 C   0  0  0  0  0  3  0  0  0  0  0  0
  -21.3640   -5.5570   25.2280 C   0  0  0  0  0  3  0  0  0  0  0  0
  -21.5040   -4.1700   25.4090 C   0  0  0  0  0  0  0  0  0  0  0  0
  -21.9880   -3.3830   24.3480 C   0  0  0  0  0  3  0  0  0  0  0  0
  -22.3760   -3.9870   23.1340 C   0  0  0  0  0  0  0  0  0  0  0  0
  -22.8250   -3.1990   22.1270 F   0  0  0  0  0  0  0  0  0  0  0  0
  -21.1830   -3.5990   26.5950 F   0  0  0  0  0  0  0  0  0  0  0  0
  -24.1710  -12.6000   19.0570 C   0  0  0  0  0  0  0  0  0  0  0  0
  -23.0260  -11.9670   19.4590 N   0  0  0  0  0  0  0  0  0  0  0  0
  -23.9370  -13.7560   18.9210 O   0  0  0  0  0  0  0  0  0  0  0  0
  -23.0260  -10.9590   19.6150 H   0  0  0  0  0  0  0  0  0  0  0  0
  -22.1490  -12.4620   19.4600 H   0  0  0  0  0  0  0  0  0  0  0  0
  -27.2080  -13.9780   18.6180 N   0  0  0  0  0  0  0  0  0  0  0  0
  -26.5210  -14.5590   18.1560 H   0  0  0  0  0  0  0  0  0  0  0  0
  -28.1520  -14.2090   18.3360 H   0  0  0  0  0  0  0  0  0  0  0  0
  1  2  2  0
  3  4  1  0
  4  5  1  0
  5  6  1  0
  8 19  2  0
  9  7  1  0
  9 14  1  0
 10 18  1  0
 10 20  1  0
 11 17  1  0
 11 13  1  0
 12 18  1  0
 13 12  1  0
 14 13  2  0
 15 16  1  0
 15  9  2  0
 16 11  2  0
 17 10  1  0
 18  8  1  0
 20 21  1  0
 20 22  2  0
 23 21  1  0
 24 33  2  0
 24 29  1  0
 25 21  1  0
 25 29  1  0
 26 25  1  0
 27 28  1  0
 27 26  1  0
 28 24  1  0
 29 30  2  0
 30 31  1  0
 32 31  2  0
 33 32  1  0
 34  8  1  0
 34 35  1  0
 34 39  1  0
 35 38  1  1
 35 36  1  0
 37 35  1  0
 39 42  1  0
 40 39  1  0
 40 44  1  0
 41 40  2  0
 44 43  1  0
 44 46  1  0
 46 47  1  0
 46 45  1  0
 49 53  1  0
 50 54  1  0
 52 51  1  0
 53 52  1  0
 56 65  1  0
 57 62  1  0
 58 57  1  0
 59 58  1  0
 60 59  1  0
 60 61  1  0
 62 61  1  0
 62 56  1  0
 63 56  2  0
 65 64  1  0
 65 53  1  0
 66 91  1  0
 66 67  1  0
 66 69  1  0
 67 86  1  0
 67 68  1  0
 68 50  1  1
 68 49  1  0
 69 70  1  0
 69 60  1  0
 70 68  1  0
 71 50  1  0
 71 76  1  0
 71 72  1  0
 73 72  1  0
 74 73  2  0
 75 74  1  0
 75 76  1  0
 77 74  1  0
 77 78  1  0
 78 83  2  0
 78 79  1  0
 79 80  2  0
 80 81  1  0
 81 85  1  0
 82 81  2  0
 83 82  1  0
 84 83  1  0
 86 87  1  0
 87 90  1  0
 87 89  1  0
 88 86  2  0
 92 91  1  0
 93 91  1  0
M  ISO  4   3 101   7 101  56 100  65 100
M  END
>  <TORSDO>  (34) 
F 20

>  <SCORE>  (34) 
1.528

>  <name>  (34) 
33

>  <ligand_id>  (34) 
33

>  <original_smiles>  (34) 
[H]OC(C(=O)C([H])([H])c1c([H])c(F)c([H])c([H])c1N(C(=O)N1C([H])([H])C([H])([H])C([H])([H])C([H])(n2nc(-c3c([H])c([H])c(Oc4c([H])c([H])c(F)c([H])c4F)c([H])c3[H])c(C(=O)N([H])[H])c2N([H])[H])C1([H])[H])C([H])([H])[H])=C([H])Oc1c([H])c([H])c2c(c1[H])C([H])([H])N(C(=O)C([H])(N([H])C(=O)C([H])(N([H])C([H])([H])[H])C([H])([H])[H])C(C([H])([H])[H])(C([H])([H])[H])C([H])([H])[H])C([H])(C(=O)N([H])C1([H])c3c([H])c([H])c([H])c([H])c3C([H])([H])C([H])([H])C1([H])[H])C2([H])[H]

>  <smiles>  (34) 
[H]OC(C(=O)C([H])([H])c1c([H])c(F)c([H])c([H])c1N(C(=O)N1C([H])([H])C([H])([H])C([H])([H])C([H])(n2nc(-c3c([H])c([H])c(Oc4c([H])c([H])c(F)c([H])c4F)c([H])c3[H])c(C(=O)N([H])[H])c2N([H])[H])C1([H])[H])C([H])([H])[H])=C([H])Oc1c([H])c([H])c2c(c1[H])C([H])([H])N(C(=O)C([H])(N([H])C(=O)C([H])(N([H])C([H])([H])[H])C([H])([H])[H])C(C([H])([H])[H])(C([H])([H])[H])C([H])([H])[H])C([H])(C(=O)N([H])C1([H])c3c([H])c([H])c([H])c([H])c3C([H])([H])C([H])([H])C1([H])[H])C2([H])[H]

$$$$
34:0:0
     RDKit          3D

 96104  0  0  1  0  0  0  0  0999 V2000
  -28.7850  -21.4780   19.7780 C   0  0  0  0  0  0  0  0  0  0  0  0
  -29.4640  -20.4280   20.3190 N   0  0  0  0  0  0  0  0  0  0  0  0
  -28.2060  -21.3790   18.6910 O   0  0  0  0  0  0  0  0  0  0  0  0
  -30.1010  -20.6620   21.0690 H   0  0  0  0  0  0  0  0  0  0  0  0
  -27.7430  -18.7050   20.2300 C   0  0  0  0  0  3  0  0  0  0  0  0
  -28.2350  -16.3290   20.4400 C   0  0  0  0  0  3  0  0  0  0  0  0
  -30.0640  -17.9390   20.2680 C   0  0  0  0  0  0  0  0  0  0  0  0
  -29.1140  -19.0230   20.2090 C   0  0  0  0  0  0  0  0  0  0  0  0
  -29.6280  -16.5640   20.3870 C   0  0  0  0  0  0  0  0  0  0  0  0
  -27.3080  -17.3810   20.3590 C   0  0  0  0  0  0  0  0  0  0  0  0
  -31.5460  -18.2690   20.2240 C   0  0  0  0  0  1  0  0  0  0  0  0
  -25.9810  -17.1250   20.4610 F   0  0  0  0  0  0  0  0  0  0  0  0
  -30.8760  -14.3990   19.9250 C   0  0  0  0  0  0  0  0  0  0  0  0
  -30.4920  -12.1250   18.9890 C   0  0  0  0  0  2  0  0  0  0  0  0
  -29.5100  -12.1530   17.8000 C   0  0  0  0  0  2  0  0  0  0  0  0
  -28.0580  -12.0620   18.2990 C   0  0  0  0  0  2  0  0  0  0  0  0
  -27.7630  -13.0580   19.4520 C   0  0  0  0  0  3  0  0  0  0  0  0
  -28.8520  -12.9770   20.5460 C   0  0  0  0  0  2  0  0  0  0  0  0
  -30.1490  -13.2360   19.9040 N   0  0  0  0  0  0  0  0  0  0  0  0
  -31.9430  -14.4760   19.3040 O   0  0  0  0  0  0  0  0  0  0  0  0
  -31.4430  -15.7400   21.8110 C   0  0  0  0  0  1  0  0  0  0  0  0
  -30.4900  -15.4380   20.7390 N   0  0  0  0  0  0  0  0  0  0  0  0
  -25.4330  -13.7890   20.2490 C   0  0  0  0  0  0  0  0  0  0  0  0
  -24.3470  -13.0830   20.6860 C   0  0  0  0  0  0  0  0  0  0  0  0
  -24.7360  -11.7100   20.6540 C   0  0  0  0  0  0  0  0  0  0  0  0
  -26.4220  -12.8540   19.9940 N   0  0  0  0  0  0  0  0  0  0  0  0
  -26.0080  -11.5960   20.2910 N   0  0  0  0  0  0  0  0  0  0  0  0
  -23.9500  -10.4940   20.8870 C   0  0  0  0  0  0  0  0  0  0  0  0
  -24.3730   -9.5080   21.8040 C   0  0  0  0  0  3  0  0  0  0  0  0
  -23.5910   -8.3540   22.0270 C   0  0  0  0  0  3  0  0  0  0  0  0
  -22.3690   -8.1810   21.3320 C   0  0  0  0  0  0  0  0  0  0  0  0
  -21.9640   -9.1560   20.4040 C   0  0  0  0  0  3  0  0  0  0  0  0
  -22.7470  -10.3010   20.1800 C   0  0  0  0  0  3  0  0  0  0  0  0
  -21.5560   -7.0820   21.4670 O   0  0  0  0  0  0  0  0  0  0  0  0
  -21.5330   -6.3420   22.6230 C   0  0  0  0  0  0  0  0  0  0  0  0
  -21.2240   -6.9210   23.8730 C   0  0  0  0  0  3  0  0  0  0  0  0
  -21.1420   -6.1120   25.0220 C   0  0  0  0  0  3  0  0  0  0  0  0
  -21.3590   -4.7240   24.9250 C   0  0  0  0  0  0  0  0  0  0  0  0
  -21.6610   -4.1450   23.6800 C   0  0  0  0  0  3  0  0  0  0  0  0
  -21.7450   -4.9510   22.5310 C   0  0  0  0  0  0  0  0  0  0  0  0
  -22.0170   -4.3850   21.3310 F   0  0  0  0  0  0  0  0  0  0  0  0
  -21.2730   -3.9450   26.0270 F   0  0  0  0  0  0  0  0  0  0  0  0
  -22.9940  -13.6450   21.0190 C   0  0  0  0  0  0  0  0  0  0  0  0
  -22.2750  -13.0090   21.9380 N   0  0  0  0  0  0  0  0  0  0  0  0
  -22.5840  -14.6800   20.4980 O   0  0  0  0  0  0  0  0  0  0  0  0
  -22.6180  -12.1710   22.3840 H   0  0  0  0  0  0  0  0  0  0  0  0
  -21.3720  -13.3700   22.2060 H   0  0  0  0  0  0  0  0  0  0  0  0
  -25.6560  -15.1390   20.0260 N   0  0  0  0  0  0  0  0  0  0  0  0
  -24.9870  -15.8500   20.2990 H   0  0  0  0  0  0  0  0  0  0  0  0
  -26.5500  -15.5250   19.7540 H   0  0  0  0  0  0  0  0  0  0  0  0
  -28.7910  -22.7120   20.5880 C   0  0  0  0  0  3  0  0  0  0  0  0
  -28.3700  -23.9460   20.1660 C   0  0  0  0  0  0  0  0  0  0  0  0
  -27.9930  -24.2270   18.9050 O   0  0  0  0  0  0  0  0  0  0  0  0
  -28.0560  -23.4280   18.3920 H   0  0  0  0  0  0  0  0  0  0  0  0
  -28.2290  -25.2050   21.0720 C   0  0  0  0  0  2  0  0  0  0  0  0
  -28.3810  -26.5210   20.4650 O   0  0  0  0  0  0  0  0  0  0  0  0
  -24.5750  -31.9170   23.3210 C   0  0  0  0  0  0  0  0  0  0  0  0
  -27.2500  -27.3240   20.4410 C   0  0  0  0  0  0  0  0  0  0  0  0
  -23.4080  -30.4890   21.6800 C   0  0  0  0  0  3  0  0  0  0  0  0
  -24.8870  -28.8940   20.3380 C   0  0  0  0  0  0  0  0  0  0  0  0
  -25.9500  -30.8030   21.5520 C   0  0  0  0  0  2  0  0  0  0  0  0
  -26.0390  -29.4120   20.9460 C   0  0  0  0  0  0  0  0  0  0  0  0
  -27.2270  -28.6360   20.9860 C   0  0  0  0  0  3  0  0  0  0  0  0
  -26.0810  -26.8360   19.8240 C   0  0  0  0  0  3  0  0  0  0  0  0
  -24.9040  -27.6080   19.7740 C   0  0  0  0  0  3  0  0  0  0  0  0
  -23.6530  -29.7720   20.3260 C   0  0  0  0  0  2  0  0  0  0  0  0
  -24.6630  -31.0870   22.2420 N   0  0  0  0  0  0  0  0  0  0  0  0
  -23.4790  -32.2130   23.8170 O   0  0  0  0  0  0  0  0  0  0  0  0
  -22.7120  -29.5000   22.6440 C   0  0  0  0  0  0  0  0  0  0  0  0
  -21.3870  -29.3370   22.4870 N   0  0  0  0  0  0  0  0  0  0  0  0
  -23.3630  -28.8780   23.4870 O   0  0  0  0  0  0  0  0  0  0  0  0
  -20.9240  -29.8840   21.7740 H   0  0  0  0  0  0  0  0  0  0  0  0
  -17.9750  -28.2390   22.9510 C   0  0  0  0  0  0  0  0  0  0  0  0
  -20.5350  -28.4340   23.2580 C   0  0  0  0  0  3  0  0  0  0  0  0
  -20.6070  -26.9900   22.7040 C   0  0  0  0  0  2  0  0  0  0  0  0
  -19.5150  -26.6850   21.6740 C   0  0  0  0  0  2  0  0  0  0  0  0
  -18.1260  -26.8790   22.2890 C   0  0  0  0  0  2  0  0  0  0  0  0
  -19.1080  -28.9760   23.3900 C   0  0  0  0  0  0  0  0  0  0  0  0
  -18.9130  -30.2500   23.9660 C   0  0  0  0  0  3  0  0  0  0  0  0
  -17.6200  -30.7870   24.1090 C   0  0  0  0  0  3  0  0  0  0  0  0
  -16.5020  -30.0460   23.6870 C   0  0  0  0  0  3  0  0  0  0  0  0
  -16.6810  -28.7750   23.1130 C   0  0  0  0  0  3  0  0  0  0  0  0
  -25.8450  -32.5520   23.9680 C   0  0  0  0  0  3  0  0  0  0  0  0
  -26.3150  -31.8080   25.2770 C   0  0  1  0  0  0  0  0  0  0  0  0
  -25.1850  -31.5880   26.3090 C   0  0  0  0  0  1  0  0  0  0  0  0
  -26.9160  -30.4250   24.9330 C   0  0  0  0  0  1  0  0  0  0  0  0
  -27.4370  -32.6190   25.9670 C   0  0  0  0  0  1  0  0  0  0  0  0
  -25.5400  -33.9600   24.2530 N   0  0  0  0  0  0  0  0  0  0  0  0
  -25.8970  -34.9910   23.4730 C   0  0  0  0  0  0  0  0  0  0  0  0
  -26.5880  -34.8540   22.4600 O   0  0  0  0  0  0  0  0  0  0  0  0
  -24.9290  -34.1430   25.0360 H   0  0  0  0  0  0  0  0  0  0  0  0
  -24.1870  -36.7840   23.0390 C   0  0  0  0  0  1  0  0  0  0  0  0
  -25.4110  -36.3940   23.8820 C   0  0  0  0  0  3  0  0  0  0  0  0
  -27.5420  -37.2850   24.7200 C   0  0  0  0  0  1  0  0  0  0  0  0
  -26.4540  -37.4370   23.7580 N   0  0  0  0  0  0  0  0  0  0  0  0
  -26.0520  -38.3640   23.8760 H   0  0  0  0  0  0  0  0  0  0  0  0
  1  2  1  0
  1 51  1  0
  2  4  1  0
  3  1  2  0
  5 10  1  0
  7  9  2  0
  8  5  2  0
  8  7  1  0
  8  2  1  0
  9  6  1  0
  9 22  1  0
 10  6  2  0
 10 12  1  0
 11  7  1  0
 13 22  1  0
 14 19  1  0
 15 16  1  0
 15 14  1  0
 17 16  1  0
 17 26  1  0
 17 18  1  0
 19 13  1  0
 19 18  1  0
 20 13  2  0
 22 21  1  0
 23 24  2  0
 24 43  1  0
 25 24  1  0
 25 28  1  0
 26 23  1  0
 26 27  1  0
 27 25  2  0
 28 29  1  0
 29 30  2  0
 31 34  1  0
 31 30  1  0
 32 31  2  0
 33 32  1  0
 33 28  2  0
 34 35  1  0
 35 36  1  0
 36 37  2  0
 38 37  1  0
 38 42  1  0
 39 38  2  0
 40 35  2  0
 40 39  1  0
 41 40  1  0
 43 44  1  0
 44 47  1  0
 44 46  1  0
 45 43  2  0
 48 23  1  0
 48 49  1  0
 50 48  1  0
 52 51  2  0
 52 55  1  0
 53 52  1  0
 54 53  1  0
 56 55  1  0
 57 68  2  0
 58 56  1  0
 58 63  1  0
 59 67  1  0
 59 69  1  0
 60 62  1  0
 61 67  1  0
 62 63  2  0
 62 61  1  0
 64 58  2  0
 65 64  1  0
 65 60  2  0
 66 60  1  0
 66 59  1  0
 67 57  1  0
 69 71  2  0
 70 69  1  0
 72 70  1  0
 73 82  2  0
 73 78  1  0
 74 70  1  0
 74 78  1  0
 75 74  1  0
 76 77  1  0
 76 75  1  0
 77 73  1  0
 78 79  2  0
 79 80  1  0
 81 80  2  0
 82 81  1  0
 83 57  1  0
 83 88  1  0
 83 84  1  0
 84 87  1  1
 84 85  1  0
 86 84  1  0
 88 91  1  0
 89 93  1  0
 89 88  1  0
 90 89  2  0
 93 92  1  0
 95 96  1  0
 95 93  1  0
 95 94  1  0
M  ISO  4  13 100  22 100  55 101  56 101
M  END
>  <TORSDO>  (35) 
F 20

>  <SCORE>  (35) 
-14.040

>  <name>  (35) 
34

>  <ligand_id>  (35) 
34

>  <original_smiles>  (35) 
[H]OC(=C([H])C(=O)N([H])c1c([H])c(F)c([H])c(N(C(=O)N2C([H])([H])C([H])([H])C([H])([H])C([H])(n3nc(-c4c([H])c([H])c(Oc5c([H])c([H])c(F)c([H])c5F)c([H])c4[H])c(C(=O)N([H])[H])c3N([H])[H])C2([H])[H])C([H])([H])[H])c1C([H])([H])[H])C([H])([H])Oc1c([H])c([H])c2c(c1[H])C([H])([H])N(C(=O)C([H])(N([H])C(=O)C([H])(N([H])C([H])([H])[H])C([H])([H])[H])C(C([H])([H])[H])(C([H])([H])[H])C([H])([H])[H])C([H])(C(=O)N([H])C1([H])c3c([H])c([H])c([H])c([H])c3C([H])([H])C([H])([H])C1([H])[H])C2([H])[H]

>  <smiles>  (35) 
[H]OC(=C([H])C(=O)N([H])c1c([H])c(F)c([H])c(N(C(=O)N2C([H])([H])C([H])([H])C([H])([H])C([H])(n3nc(-c4c([H])c([H])c(Oc5c([H])c([H])c(F)c([H])c5F)c([H])c4[H])c(C(=O)N([H])[H])c3N([H])[H])C2([H])[H])C([H])([H])[H])c1C([H])([H])[H])C([H])([H])Oc1c([H])c([H])c2c(c1[H])C([H])([H])N(C(=O)C([H])(N([H])C(=O)C([H])(N([H])C([H])([H])[H])C([H])([H])[H])C(C([H])([H])[H])(C([H])([H])[H])C([H])([H])[H])C([H])(C(=O)N([H])C1([H])c3c([H])c([H])c([H])c([H])c3C([H])([H])C([H])([H])C1([H])[H])C2([H])[H]

$$$$
35:0:0
     RDKit          3D

 91 99  0  0  1  0  0  0  0  0999 V2000
  -29.2470  -21.1530   19.6180 C   0  0  0  0  0  0  0  0  0  0  0  0
  -28.9550  -22.2850   20.3720 N   0  0  0  0  0  0  0  0  0  0  0  0
  -29.2880  -21.2730   18.3910 O   0  0  0  0  0  0  0  0  0  0  0  0
  -28.8360  -22.1570   21.3690 H   0  0  0  0  0  0  0  0  0  0  0  0
  -28.9800  -18.4790   20.1480 C   0  0  0  0  0  3  0  0  0  0  0  0
  -31.1240  -18.0980   20.6030 C   0  0  0  0  0  3  0  0  0  0  0  0
  -29.9480  -17.4170   20.4180 C   0  0  0  0  0  0  0  0  0  0  0  0
  -29.6100  -19.7350   20.1660 C   0  0  0  0  0  0  0  0  0  0  0  0
  -30.9350  -19.4630   20.4550 O   0  0  0  0  0  0  0  0  0  0  0  0
  -30.5450  -14.8240   20.3730 C   0  0  0  0  0  0  0  0  0  0  0  0
  -30.3970  -12.5300   19.3760 C   0  0  0  0  0  2  0  0  0  0  0  0
  -29.4620  -12.5870   18.1470 C   0  0  0  0  0  2  0  0  0  0  0  0
  -27.9930  -12.3770   18.5820 C   0  0  0  0  0  2  0  0  0  0  0  0
  -27.6010  -13.2700   19.7920 C   0  0  0  0  0  3  0  0  0  0  0  0
  -28.6590  -13.2010   20.9140 C   0  0  0  0  0  2  0  0  0  0  0  0
  -29.9460  -13.5810   20.3200 N   0  0  0  0  0  0  0  0  0  0  0  0
  -31.7460  -14.9350   20.1040 O   0  0  0  0  0  0  0  0  0  0  0  0
  -29.7130  -15.9390   20.4860 N   0  0  0  0  0  0  0  0  0  0  0  0
  -28.7400  -15.6790   20.5520 H   0  0  0  0  0  0  0  0  0  0  0  0
  -25.2150  -13.8610   20.5210 C   0  0  0  0  0  0  0  0  0  0  0  0
  -24.1480  -13.0900   20.8900 C   0  0  0  0  0  0  0  0  0  0  0  0
  -24.6130  -11.7400   20.8590 C   0  0  0  0  0  0  0  0  0  0  0  0
  -26.2580  -12.9810   20.2820 N   0  0  0  0  0  0  0  0  0  0  0  0
  -25.9030  -11.6990   20.5510 N   0  0  0  0  0  0  0  0  0  0  0  0
  -23.8820  -10.4780   21.0480 C   0  0  0  0  0  0  0  0  0  0  0  0
  -24.3120   -9.5130   21.9850 C   0  0  0  0  0  3  0  0  0  0  0  0
  -23.5870   -8.3140   22.1650 C   0  0  0  0  0  3  0  0  0  0  0  0
  -22.4160   -8.0740   21.4080 C   0  0  0  0  0  0  0  0  0  0  0  0
  -22.0010   -9.0290   20.4640 C   0  0  0  0  0  3  0  0  0  0  0  0
  -22.7260  -10.2200   20.2830 C   0  0  0  0  0  3  0  0  0  0  0  0
  -21.6600   -6.9300   21.4980 O   0  0  0  0  0  0  0  0  0  0  0  0
  -21.6150   -6.1820   22.6470 C   0  0  0  0  0  0  0  0  0  0  0  0
  -21.1930   -6.7340   23.8760 C   0  0  0  0  0  3  0  0  0  0  0  0
  -21.0930   -5.9140   25.0170 C   0  0  0  0  0  3  0  0  0  0  0  0
  -21.4070   -4.5430   24.9300 C   0  0  0  0  0  0  0  0  0  0  0  0
  -21.8200   -3.9930   23.7040 C   0  0  0  0  0  3  0  0  0  0  0  0
  -21.9220   -4.8100   22.5660 C   0  0  0  0  0  0  0  0  0  0  0  0
  -22.3010   -4.2690   21.3820 F   0  0  0  0  0  0  0  0  0  0  0  0
  -21.3070   -3.7540   26.0250 F   0  0  0  0  0  0  0  0  0  0  0  0
  -22.7500  -13.5680   21.1530 C   0  0  0  0  0  0  0  0  0  0  0  0
  -22.0140  -12.8740   22.0130 N   0  0  0  0  0  0  0  0  0  0  0  0
  -22.3180  -14.5920   20.6250 O   0  0  0  0  0  0  0  0  0  0  0  0
  -22.3820  -12.0500   22.4660 H   0  0  0  0  0  0  0  0  0  0  0  0
  -21.0710  -13.1740   22.2190 H   0  0  0  0  0  0  0  0  0  0  0  0
  -25.3790  -15.2310   20.3400 N   0  0  0  0  0  0  0  0  0  0  0  0
  -24.6060  -15.8790   20.4600 H   0  0  0  0  0  0  0  0  0  0  0  0
  -26.1980  -15.6640   19.9360 H   0  0  0  0  0  0  0  0  0  0  0  0
  -28.8400  -23.7280   19.8360 C   0  0  0  0  0  2  0  0  0  0  0  0
  -26.8890  -24.5210   21.3440 C   0  0  0  0  0  1  0  0  0  0  0  0
  -28.2420  -24.9430   20.7330 C   0  0  0  0  0  3  0  0  0  0  0  0
  -28.3280  -26.3780   20.2320 O   0  0  0  0  0  0  0  0  0  0  0  0
  -24.5970  -31.8630   23.2290 C   0  0  0  0  0  0  0  0  0  0  0  0
  -27.2240  -27.2680   20.2010 C   0  0  0  0  0  0  0  0  0  0  0  0
  -23.4100  -30.4610   21.5800 C   0  0  0  0  0  3  0  0  0  0  0  0
  -24.8770  -28.9160   20.1570 C   0  0  0  0  0  0  0  0  0  0  0  0
  -25.9490  -30.7870   21.4030 C   0  0  0  0  0  2  0  0  0  0  0  0
  -26.0420  -29.3990   20.7680 C   0  0  0  0  0  0  0  0  0  0  0  0
  -27.2220  -28.5850   20.7740 C   0  0  0  0  0  3  0  0  0  0  0  0
  -26.0470  -26.8670   19.5380 C   0  0  0  0  0  3  0  0  0  0  0  0
  -24.8830  -27.6620   19.5310 C   0  0  0  0  0  3  0  0  0  0  0  0
  -23.6340  -29.7860   20.2010 C   0  0  0  0  0  2  0  0  0  0  0  0
  -24.6730  -31.0550   22.1300 N   0  0  0  0  0  0  0  0  0  0  0  0
  -23.5080  -32.1350   23.7580 O   0  0  0  0  0  0  0  0  0  0  0  0
  -22.7410  -29.4410   22.5350 C   0  0  0  0  0  0  0  0  0  0  0  0
  -21.4130  -29.2750   22.4150 N   0  0  0  0  0  0  0  0  0  0  0  0
  -23.4190  -28.8030   23.3440 O   0  0  0  0  0  0  0  0  0  0  0  0
  -20.9250  -29.8410   21.7370 H   0  0  0  0  0  0  0  0  0  0  0  0
  -18.0300  -28.0980   22.9200 C   0  0  0  0  0  0  0  0  0  0  0  0
  -20.5930  -28.3320   23.1790 C   0  0  0  0  0  3  0  0  0  0  0  0
  -20.6790  -26.9100   22.5800 C   0  0  0  0  0  2  0  0  0  0  0  0
  -19.5690  -26.6120   21.5670 C   0  0  0  0  0  2  0  0  0  0  0  0
  -18.1920  -26.7580   22.2230 C   0  0  0  0  0  2  0  0  0  0  0  0
  -19.1590  -28.8450   23.3540 C   0  0  0  0  0  0  0  0  0  0  0  0
  -18.9530  -30.1010   23.9640 C   0  0  0  0  0  3  0  0  0  0  0  0
  -17.6550  -30.6130   24.1430 C   0  0  0  0  0  3  0  0  0  0  0  0
  -16.5410  -29.8630   23.7260 C   0  0  0  0  0  3  0  0  0  0  0  0
  -16.7300  -28.6070   23.1240 C   0  0  0  0  0  3  0  0  0  0  0  0
  -25.8720  -32.5010   23.8650 C   0  0  0  0  0  3  0  0  0  0  0  0
  -26.3720  -31.7310   25.1480 C   0  0  1  0  0  0  0  0  0  0  0  0
  -25.2630  -31.4970   26.2010 C   0  0  0  0  0  1  0  0  0  0  0  0
  -26.9510  -30.3520   24.7550 C   0  0  0  0  0  1  0  0  0  0  0  0
  -27.5210  -32.5190   25.8180 C   0  0  0  0  0  1  0  0  0  0  0  0
  -25.5590  -33.9000   24.1900 N   0  0  0  0  0  0  0  0  0  0  0  0
  -25.8980  -34.9520   23.4330 C   0  0  0  0  0  0  0  0  0  0  0  0
  -26.5750  -34.8430   22.4070 O   0  0  0  0  0  0  0  0  0  0  0  0
  -24.9490  -34.0540   24.9800 H   0  0  0  0  0  0  0  0  0  0  0  0
  -24.1740  -36.7470   23.0670 C   0  0  0  0  0  1  0  0  0  0  0  0
  -25.4120  -36.3430   23.8840 C   0  0  0  0  0  3  0  0  0  0  0  0
  -27.5440  -37.2290   24.7190 C   0  0  0  0  0  1  0  0  0  0  0  0
  -26.4440  -37.3960   23.7720 N   0  0  0  0  0  0  0  0  0  0  0  0
  -26.0390  -38.3160   23.9190 H   0  0  0  0  0  0  0  0  0  0  0  0
  1  8  1  0
  1  2  1  0
  2  4  1  0
  3  1  2  0
  5  8  2  0
  5  7  1  0
  7 18  1  0
  7  6  2  0
  8  9  1  0
  9  6  1  0
 10 18  1  0
 11 16  1  0
 12 13  1  0
 12 11  1  0
 14 13  1  0
 14 23  1  0
 14 15  1  0
 16 10  1  0
 16 15  1  0
 17 10  2  0
 18 19  1  0
 20 21  2  0
 21 40  1  0
 22 21  1  0
 22 25  1  0
 23 20  1  0
 23 24  1  0
 24 22  2  0
 25 26  1  0
 26 27  2  0
 28 31  1  0
 28 27  1  0
 29 28  2  0
 30 29  1  0
 30 25  2  0
 31 32  1  0
 32 33  1  0
 33 34  2  0
 35 34  1  0
 35 39  1  0
 36 35  2  0
 37 32  2  0
 37 36  1  0
 38 37  1  0
 40 41  1  0
 41 44  1  0
 41 43  1  0
 42 40  2  0
 45 46  1  0
 45 20  1  0
 47 45  1  0
 48  2  1  0
 48 50  1  0
 50 49  1  0
 51 50  1  0
 52 63  2  0
 53 51  1  0
 53 58  1  0
 54 62  1  0
 54 64  1  0
 55 61  1  0
 55 57  1  0
 56 62  1  0
 57 58  2  0
 57 56  1  0
 59 53  2  0
 60 59  1  0
 60 55  2  0
 61 54  1  0
 62 52  1  0
 64 66  2  0
 65 64  1  0
 67 65  1  0
 68 77  2  0
 68 73  1  0
 69 65  1  0
 69 73  1  0
 70 69  1  0
 71 72  1  0
 71 70  1  0
 72 68  1  0
 73 74  2  0
 74 75  1  0
 76 75  2  0
 77 76  1  0
 78 52  1  0
 78 83  1  0
 78 79  1  0
 79 82  1  1
 79 80  1  0
 81 79  1  0
 83 86  1  0
 84 88  1  0
 84 83  1  0
 85 84  2  0
 88 87  1  0
 90 88  1  0
 90 91  1  0
 90 89  1  0
M  ISO  4  10 100  18 100  50 101  51 101
M  END
>  <TORSDO>  (36) 
F 19

>  <SCORE>  (36) 
-14.277

>  <name>  (36) 
35

>  <ligand_id>  (36) 
35

>  <original_smiles>  (36) 
[H]c1oc(C(=O)N([H])C([H])([H])C([H])(Oc2c([H])c([H])c3c(c2[H])C([H])([H])N(C(=O)C([H])(N([H])C(=O)C([H])(N([H])C([H])([H])[H])C([H])([H])[H])C(C([H])([H])[H])(C([H])([H])[H])C([H])([H])[H])C([H])(C(=O)N([H])C2([H])c4c([H])c([H])c([H])c([H])c4C([H])([H])C([H])([H])C2([H])[H])C3([H])[H])C([H])([H])[H])c([H])c1N([H])C(=O)N1C([H])([H])C([H])([H])C([H])([H])C([H])(n2nc(-c3c([H])c([H])c(Oc4c([H])c([H])c(F)c([H])c4F)c([H])c3[H])c(C(=O)N([H])[H])c2N([H])[H])C1([H])[H]

>  <smiles>  (36) 
[H]c1oc(C(=O)N([H])C([H])([H])C([H])(Oc2c([H])c([H])c3c(c2[H])C([H])([H])N(C(=O)C([H])(N([H])C(=O)C([H])(N([H])C([H])([H])[H])C([H])([H])[H])C(C([H])([H])[H])(C([H])([H])[H])C([H])([H])[H])C([H])(C(=O)N([H])C2([H])c4c([H])c([H])c([H])c([H])c4C([H])([H])C([H])([H])C2([H])[H])C3([H])[H])C([H])([H])[H])c([H])c1N([H])C(=O)N1C([H])([H])C([H])([H])C([H])([H])C([H])(n2nc(-c3c([H])c([H])c(Oc4c([H])c([H])c(F)c([H])c4F)c([H])c3[H])c(C(=O)N([H])[H])c2N([H])[H])C1([H])[H]

$$$$
36:0:0
     RDKit          3D

 99107  0  0  1  0  0  0  0  0999 V2000
  -30.6650  -20.8980   20.1220 C   0  0  0  0  0  0  0  0  0  0  0  0
  -31.1810  -21.7060   19.1950 N   0  0  0  0  0  4  0  0  0  0  0  0
  -29.7350  -21.3590   20.9740 N   0  0  0  0  0  0  0  0  0  0  0  0
  -31.8520  -21.3350   18.5390 H   0  0  0  0  0  0  0  0  0  0  0  0
  -30.8100  -22.6220   19.0100 H   0  0  0  0  0  0  0  0  0  0  0  0
  -29.3370  -20.6670   21.5910 H   0  0  0  0  0  0  0  0  0  0  0  0
  -32.6330  -19.5210   20.4280 C   0  0  0  0  0  3  0  0  0  0  0  0
  -32.6080  -17.1030   20.5410 C   0  0  0  0  0  3  0  0  0  0  0  0
  -31.2290  -19.5490   20.2760 C   0  0  0  0  0  0  0  0  0  0  0  0
  -30.4880  -18.3250   20.2680 C   0  0  0  0  0  0  0  0  0  0  0  0
  -31.2050  -17.0950   20.3520 C   0  0  0  0  0  0  0  0  0  0  0  0
  -33.3170  -18.3110   20.5810 C   0  0  0  0  0  0  0  0  0  0  0  0
  -28.9680  -18.3110   20.0930 C   0  0  0  0  0  1  0  0  0  0  0  0
  -34.6620  -18.3120   20.7510 F   0  0  0  0  0  0  0  0  0  0  0  0
  -31.0420  -14.8220   19.4750 C   0  0  0  0  0  0  0  0  0  0  0  0
  -30.7070  -12.5350   18.6180 C   0  0  0  0  0  2  0  0  0  0  0  0
  -29.6410  -12.5250   17.5070 C   0  0  0  0  0  2  0  0  0  0  0  0
  -28.2350  -12.3630   18.1150 C   0  0  0  0  0  2  0  0  0  0  0  0
  -27.9720  -13.3530   19.2820 C   0  0  0  0  0  3  0  0  0  0  0  0
  -29.1470  -13.3570   20.2880 C   0  0  0  0  0  2  0  0  0  0  0  0
  -30.3850  -13.6350   19.5410 N   0  0  0  0  0  0  0  0  0  0  0  0
  -32.0200  -14.9980   18.7390 O   0  0  0  0  0  0  0  0  0  0  0  0
  -30.5530  -15.8320   20.2140 N   0  0  0  0  0  0  0  0  0  0  0  0
  -29.6780  -15.6890   20.6960 H   0  0  0  0  0  0  0  0  0  0  0  0
  -25.7400  -13.9620   20.4140 C   0  0  0  0  0  0  0  0  0  0  0  0
  -24.7100  -13.1890   20.8790 C   0  0  0  0  0  0  0  0  0  0  0  0
  -25.1000  -11.8330   20.6530 C   0  0  0  0  0  0  0  0  0  0  0  0
  -26.6970  -13.0750   19.9390 N   0  0  0  0  0  0  0  0  0  0  0  0
  -26.3230  -11.7860   20.1380 N   0  0  0  0  0  0  0  0  0  0  0  0
  -24.3570  -10.5800   20.8450 C   0  0  0  0  0  0  0  0  0  0  0  0
  -24.7210   -9.6550   21.8490 C   0  0  0  0  0  3  0  0  0  0  0  0
  -23.9810   -8.4660   22.0270 C   0  0  0  0  0  3  0  0  0  0  0  0
  -22.8650   -8.1950   21.2000 C   0  0  0  0  0  0  0  0  0  0  0  0
  -22.5190   -9.1090   20.1900 C   0  0  0  0  0  3  0  0  0  0  0  0
  -23.2580  -10.2900   20.0090 C   0  0  0  0  0  3  0  0  0  0  0  0
  -22.1050   -7.0530   21.2820 O   0  0  0  0  0  0  0  0  0  0  0  0
  -21.7600   -6.5030   22.4890 C   0  0  0  0  0  0  0  0  0  0  0  0
  -20.9770   -7.2020   23.4320 C   0  0  0  0  0  3  0  0  0  0  0  0
  -20.5860   -6.5720   24.6310 C   0  0  0  0  0  3  0  0  0  0  0  0
  -20.9710   -5.2430   24.8850 C   0  0  0  0  0  0  0  0  0  0  0  0
  -21.7480   -4.5420   23.9470 C   0  0  0  0  0  3  0  0  0  0  0  0
  -22.1400   -5.1700   22.7520 C   0  0  0  0  0  0  0  0  0  0  0  0
  -22.8710   -4.4830   21.8400 F   0  0  0  0  0  0  0  0  0  0  0  0
  -20.5910   -4.6350   26.0340 F   0  0  0  0  0  0  0  0  0  0  0  0
  -23.3960  -13.6800   21.4110 C   0  0  0  0  0  0  0  0  0  0  0  0
  -22.7840  -12.9340   22.3240 N   0  0  0  0  0  0  0  0  0  0  0  0
  -22.9240  -14.7590   21.0550 O   0  0  0  0  0  0  0  0  0  0  0  0
  -23.1810  -12.0620   22.6370 H   0  0  0  0  0  0  0  0  0  0  0  0
  -21.9040  -13.2420   22.7120 H   0  0  0  0  0  0  0  0  0  0  0  0
  -25.9360  -15.3370   20.3400 N   0  0  0  0  0  0  0  0  0  0  0  0
  -25.2210  -15.9980   20.6260 H   0  0  0  0  0  0  0  0  0  0  0  0
  -26.7400  -15.7810   19.9140 H   0  0  0  0  0  0  0  0  0  0  0  0
  -28.3470  -22.8460   22.4010 C   0  0  0  0  0  1  0  0  0  0  0  0
  -29.3430  -22.7700   21.2250 C   0  0  0  0  0  3  0  0  0  0  0  0
  -28.7880  -23.5060   19.9910 C   0  0  0  0  0  0  0  0  0  0  0  0
  -28.3210  -22.9170   19.0130 O   0  0  0  0  0  0  0  0  0  0  0  0
  -28.8680  -25.0410   20.0290 C   0  0  0  0  0  2  0  0  0  0  0  0
  -27.9560  -25.7480   19.0140 C   0  0  0  0  0  2  0  0  0  0  0  0
  -27.9900  -27.1610   19.2650 O   0  0  0  0  0  0  0  0  0  0  0  0
  -24.6080  -31.8320   23.4210 C   0  0  0  0  0  0  0  0  0  0  0  0
  -26.8060  -27.8360   19.4930 C   0  0  0  0  0  0  0  0  0  0  0  0
  -23.1910  -30.6160   21.8060 C   0  0  0  0  0  3  0  0  0  0  0  0
  -24.4350  -29.2840   20.0230 C   0  0  0  0  0  0  0  0  0  0  0  0
  -25.6620  -31.0370   21.3060 C   0  0  0  0  0  2  0  0  0  0  0  0
  -25.6590  -29.7510   20.5090 C   0  0  0  0  0  0  0  0  0  0  0  0
  -26.8470  -29.0320   20.2480 C   0  0  0  0  0  3  0  0  0  0  0  0
  -25.5610  -27.3950   18.9880 C   0  0  0  0  0  3  0  0  0  0  0  0
  -24.3780  -28.1060   19.2600 C   0  0  0  0  0  3  0  0  0  0  0  0
  -23.2080  -30.1070   20.3400 C   0  0  0  0  0  2  0  0  0  0  0  0
  -24.5150  -31.1680   22.2350 N   0  0  0  0  0  0  0  0  0  0  0  0
  -23.6100  -32.0180   24.1300 O   0  0  0  0  0  0  0  0  0  0  0  0
  -22.6820  -29.4760   22.7150 C   0  0  0  0  0  0  0  0  0  0  0  0
  -21.4240  -29.0580   22.5020 N   0  0  0  0  0  0  0  0  0  0  0  0
  -23.4180  -28.9690   23.5650 O   0  0  0  0  0  0  0  0  0  0  0  0
  -20.8800  -29.5300   21.7940 H   0  0  0  0  0  0  0  0  0  0  0  0
  -18.3910  -27.0990   22.6000 C   0  0  0  0  0  0  0  0  0  0  0  0
  -20.7440  -27.9760   23.2120 C   0  0  0  0  0  3  0  0  0  0  0  0
  -21.2680  -26.5980   22.7510 C   0  0  0  0  0  2  0  0  0  0  0  0
  -20.4400  -25.9850   21.6160 C   0  0  0  0  0  2  0  0  0  0  0  0
  -18.9810  -25.8110   22.0470 C   0  0  0  0  0  2  0  0  0  0  0  0
  -19.2210  -28.1230   23.1310 C   0  0  0  0  0  0  0  0  0  0  0  0
  -18.6210  -29.3120   23.5960 C   0  0  0  0  0  3  0  0  0  0  0  0
  -17.2240  -29.4870   23.5440 C   0  0  0  0  0  3  0  0  0  0  0  0
  -16.4080  -28.4640   23.0300 C   0  0  0  0  0  3  0  0  0  0  0  0
  -16.9920  -27.2730   22.5620 C   0  0  0  0  0  3  0  0  0  0  0  0
  -25.9690  -32.4060   23.9320 C   0  0  0  0  0  3  0  0  0  0  0  0
  -25.7450  -33.8100   24.2980 N   0  0  0  0  0  0  0  0  0  0  0  0
  -26.0700  -34.8550   23.5280 C   0  0  0  0  0  0  0  0  0  0  0  0
  -26.6610  -34.7360   22.4520 O   0  0  0  0  0  0  0  0  0  0  0  0
  -25.2170  -33.9800   25.1410 H   0  0  0  0  0  0  0  0  0  0  0  0
  -24.4100  -36.7300   23.3000 C   0  0  0  0  0  1  0  0  0  0  0  0
  -25.6760  -36.2570   24.0320 C   0  0  0  0  0  3  0  0  0  0  0  0
  -27.8900  -37.0340   24.7560 C   0  0  0  0  0  1  0  0  0  0  0  0
  -26.7470  -37.2620   23.8740 N   0  0  0  0  0  0  0  0  0  0  0  0
  -26.3890  -38.1970   24.0490 H   0  0  0  0  0  0  0  0  0  0  0  0
  -26.5680  -31.5970   25.1480 C   0  0  1  0  0  0  0  0  0  0  0  0
  -25.5360  -31.2890   26.2590 C   0  0  0  0  0  1  0  0  0  0  0  0
  -27.1620  -30.2520   24.6670 C   0  0  0  0  0  1  0  0  0  0  0  0
  -27.7330  -32.3920   25.7860 C   0  0  0  0  0  1  0  0  0  0  0  0
  1  9  1  0
  1  3  1  0
  2  1  2  0
  3 54  1  0
  3  6  1  0
  4  2  1  0
  5  2  1  0
  7 12  1  0
  8 12  2  0
  9  7  2  0
 10  9  1  0
 10 11  2  0
 11  8  1  0
 12 14  1  0
 13 10  1  0
 15 21  1  0
 15 23  1  0
 16 21  1  0
 17 18  1  0
 17 16  1  0
 19 18  1  0
 19 28  1  0
 19 20  1  0
 21 20  1  0
 22 15  2  0
 23 11  1  0
 23 24  1  0
 25 26  2  0
 26 45  1  0
 27 30  1  0
 27 26  1  0
 28 29  1  0
 28 25  1  0
 29 27  2  0
 30 31  1  0
 31 32  2  0
 33 36  1  0
 33 32  1  0
 34 33  2  0
 35 34  1  0
 35 30  2  0
 36 37  1  0
 37 42  2  0
 37 38  1  0
 38 39  2  0
 39 40  1  0
 40 44  1  0
 41 40  2  0
 42 41  1  0
 43 42  1  0
 45 46  1  0
 46 48  1  0
 46 49  1  0
 47 45  2  0
 50 25  1  0
 50 51  1  0
 52 50  1  0
 54 53  1  0
 55 57  1  0
 55 54  1  0
 56 55  2  0
 58 59  1  0
 58 57  1  0
 59 61  1  0
 60 71  2  0
 61 66  1  0
 62 70  1  0
 62 72  1  0
 63 69  1  0
 63 65  1  0
 64 70  1  0
 65 64  1  0
 66 65  2  0
 67 68  1  0
 67 61  2  0
 68 63  2  0
 69 62  1  0
 70 60  1  0
 72 74  2  0
 73 72  1  0
 75 73  1  0
 76 81  1  0
 77 73  1  0
 78 77  1  0
 79 80  1  0
 79 78  1  0
 80 76  1  0
 81 77  1  0
 81 82  2  0
 83 82  1  0
 84 83  2  0
 85 76  2  0
 85 84  1  0
 86 60  1  0
 86 87  1  0
 86 96  1  0
 87 90  1  0
 88 92  1  0
 88 87  1  0
 89 88  2  0
 92 91  1  0
 94 92  1  0
 94 95  1  0
 94 93  1  0
 96 99  1  1
 96 97  1  0
 98 96  1  0
M  ISO  4  15 100  23 100  58 101  59 101
M  END
>  <TORSDO>  (37) 
F 21

>  <SCORE>  (37) 
-11.041

>  <name>  (37) 
36

>  <ligand_id>  (37) 
36

>  <original_smiles>  (37) 
[H]c1c([H])c([H])c2c(c1[H])C([H])([H])C([H])([H])C([H])([H])C2([H])N([H])C(=O)C1([H])N(C(=O)C([H])(N([H])C(=O)C([H])(N([H])C([H])([H])[H])C([H])([H])[H])C(C([H])([H])[H])(C([H])([H])[H])C([H])([H])[H])C([H])([H])c2c([H])c(OC([H])([H])C([H])([H])C(=O)C([H])([N+]([H])=C(c3c([H])c(F)c([H])c(N([H])C(=O)N4C([H])([H])C([H])([H])C([H])([H])C([H])(n5nc(-c6c([H])c([H])c(Oc7c([H])c([H])c(F)c([H])c7F)c([H])c6[H])c(C(=O)N([H])[H])c5N([H])[H])C4([H])[H])c3C([H])([H])[H])N([H])[H])C([H])([H])[H])c([H])c([H])c2C1([H])[H]

>  <smiles>  (37) 
[H]c1c([H])c([H])c2c(c1[H])C([H])([H])C([H])([H])C([H])([H])C2([H])N([H])C(=O)C1([H])N(C(=O)C([H])(N([H])C(=O)C([H])(N([H])C([H])([H])[H])C([H])([H])[H])C(C([H])([H])[H])(C([H])([H])[H])C([H])([H])[H])C([H])([H])c2c([H])c(OC([H])([H])C([H])([H])C(=O)C([H])([N+]([H])=C(c3c([H])c(F)c([H])c(N([H])C(=O)N4C([H])([H])C([H])([H])C([H])([H])C([H])(n5nc(-c6c([H])c([H])c(Oc7c([H])c([H])c(F)c([H])c7F)c([H])c6[H])c(C(=O)N([H])[H])c5N([H])[H])C4([H])[H])c3C([H])([H])[H])N([H])[H])C([H])([H])[H])c([H])c([H])c2C1([H])[H]

$$$$
37:0:0
     RDKit          3D

 95103  0  0  1  0  0  0  0  0999 V2000
  -30.2770  -19.5810   22.9930 C   0  0  0  0  0  3  0  0  0  0  0  0
  -30.3300  -18.3730   22.2940 C   0  0  0  0  0  3  0  0  0  0  0  0
  -29.9630  -20.7660   22.3170 C   0  0  0  0  0  3  0  0  0  0  0  0
  -30.0770  -18.3220   20.9060 C   0  0  0  0  0  0  0  0  0  0  0  0
  -29.6200  -19.5110   20.2270 C   0  0  0  0  0  0  0  0  0  0  0  0
  -29.6140  -20.7710   20.9420 C   0  0  0  0  0  0  0  0  0  0  0  0
  -29.0550  -19.3550   18.8320 C   0  0  0  0  0  0  0  0  0  0  0  0
  -28.3200  -18.4100   18.5250 O   0  0  0  0  0  0  0  0  0  0  0  0
  -29.0240  -19.9560   16.3070 C   0  0  0  0  0  1  0  0  0  0  0  0
  -29.4180  -20.3820   17.7390 C   0  0  0  0  0  2  0  0  0  0  0  0
  -29.2730  -22.0230   20.3620 N   0  0  0  0  0  0  0  0  0  0  0  0
  -29.1450  -22.1380   19.3610 H   0  0  0  0  0  0  0  0  0  0  0  0
  -29.4670  -23.2950   21.0920 C   0  0  0  0  0  2  0  0  0  0  0  0
  -29.1520  -24.5730   20.2800 C   0  0  0  0  0  0  0  0  0  0  0  0
  -28.9510  -24.5080   19.0610 O   0  0  0  0  0  0  0  0  0  0  0  0
  -29.1060  -25.9160   21.0520 C   0  0  0  0  0  2  0  0  0  0  0  0
  -29.0220  -27.0680   20.1920 O   0  0  0  0  0  0  0  0  0  0  0  0
  -24.7080  -31.8340   23.2990 C   0  0  0  0  0  0  0  0  0  0  0  0
  -27.8080  -27.7140   20.2090 C   0  0  0  0  0  0  0  0  0  0  0  0
  -23.6810  -30.4170   21.5520 C   0  0  0  0  0  3  0  0  0  0  0  0
  -25.3090  -29.0290   20.1600 C   0  0  0  0  0  0  0  0  0  0  0  0
  -26.1760  -30.9690   21.4710 C   0  0  0  0  0  2  0  0  0  0  0  0
  -26.3980  -29.6230   20.8110 C   0  0  0  0  0  0  0  0  0  0  0  0
  -27.6530  -28.9740   20.8340 C   0  0  0  0  0  3  0  0  0  0  0  0
  -26.7020  -27.1240   19.5660 C   0  0  0  0  0  3  0  0  0  0  0  0
  -25.4550  -27.7760   19.5390 C   0  0  0  0  0  3  0  0  0  0  0  0
  -24.0040  -29.7960   20.1660 C   0  0  0  0  0  2  0  0  0  0  0  0
  -24.8720  -31.0850   22.1720 N   0  0  0  0  0  0  0  0  0  0  0  0
  -23.5860  -32.0090   23.7950 O   0  0  0  0  0  0  0  0  0  0  0  0
  -23.0570  -29.3180   22.4430 C   0  0  0  0  0  0  0  0  0  0  0  0
  -21.7510  -29.0700   22.2570 N   0  0  0  0  0  0  0  0  0  0  0  0
  -23.7470  -28.6910   23.2510 O   0  0  0  0  0  0  0  0  0  0  0  0
  -21.2500  -29.6400   21.5900 H   0  0  0  0  0  0  0  0  0  0  0  0
  -18.4250  -27.7030   22.5990 C   0  0  0  0  0  0  0  0  0  0  0  0
  -20.9610  -28.0520   22.9470 C   0  0  0  0  0  3  0  0  0  0  0  0
  -21.1390  -26.6630   22.2900 C   0  0  0  0  0  2  0  0  0  0  0  0
  -20.0740  -26.3580   21.2300 C   0  0  0  0  0  2  0  0  0  0  0  0
  -18.6750  -26.4040   21.8490 C   0  0  0  0  0  2  0  0  0  0  0  0
  -19.5010  -28.4850   23.1000 C   0  0  0  0  0  0  0  0  0  0  0  0
  -19.2150  -29.7040   23.7530 C   0  0  0  0  0  3  0  0  0  0  0  0
  -17.8890  -30.1420   23.9150 C   0  0  0  0  0  3  0  0  0  0  0  0
  -16.8270  -29.3550   23.4350 C   0  0  0  0  0  3  0  0  0  0  0  0
  -17.0960  -28.1370   22.7840 C   0  0  0  0  0  3  0  0  0  0  0  0
  -25.9150  -32.5260   24.0070 C   0  0  0  0  0  3  0  0  0  0  0  0
  -25.5340  -33.9190   24.2730 N   0  0  0  0  0  0  0  0  0  0  0  0
  -25.8830  -34.9610   23.5060 C   0  0  0  0  0  0  0  0  0  0  0  0
  -26.6310  -34.8530   22.5300 O   0  0  0  0  0  0  0  0  0  0  0  0
  -24.8800  -34.0750   25.0250 H   0  0  0  0  0  0  0  0  0  0  0  0
  -24.1140  -36.6670   22.9710 C   0  0  0  0  0  1  0  0  0  0  0  0
  -25.3120  -36.3440   23.8790 C   0  0  0  0  0  3  0  0  0  0  0  0
  -27.3460  -37.3470   24.8210 C   0  0  0  0  0  1  0  0  0  0  0  0
  -26.3080  -37.4340   23.7960 N   0  0  0  0  0  0  0  0  0  0  0  0
  -25.8570  -38.3420   23.8800 H   0  0  0  0  0  0  0  0  0  0  0  0
  -26.3550  -31.7960   25.3340 C   0  0  1  0  0  0  0  0  0  0  0  0
  -25.1890  -31.5220   26.3100 C   0  0  0  0  0  1  0  0  0  0  0  0
  -27.0300  -30.4430   25.0100 C   0  0  0  0  0  1  0  0  0  0  0  0
  -27.4140  -32.6440   26.0790 C   0  0  0  0  0  1  0  0  0  0  0  0
  -30.4010  -17.0280   20.2270 C   0  0  0  0  0  3  0  0  0  0  0  0
  -30.5230  -15.8050   20.8010 C   0  0  0  0  0  3  0  0  0  0  0  0
  -31.0880  -14.6950   20.0360 C   0  0  0  0  0  0  0  0  0  0  0  0
  -30.6740  -12.5250   18.9530 C   0  0  0  0  0  2  0  0  0  0  0  0
  -29.6840  -12.7080   17.7850 C   0  0  0  0  0  2  0  0  0  0  0  0
  -28.2310  -12.6190   18.2790 C   0  0  0  0  0  2  0  0  0  0  0  0
  -27.9650  -13.4880   19.5360 C   0  0  0  0  0  3  0  0  0  0  0  0
  -29.0610  -13.2870   20.6010 C   0  0  0  0  0  2  0  0  0  0  0  0
  -30.3690  -13.5390   19.9740 N   0  0  0  0  0  0  0  0  0  0  0  0
  -32.1530  -14.8300   19.4280 O   0  0  0  0  0  0  0  0  0  0  0  0
  -25.6380  -14.1300   20.4280 C   0  0  0  0  0  0  0  0  0  0  0  0
  -24.5780  -13.3740   20.8430 C   0  0  0  0  0  0  0  0  0  0  0  0
  -24.9990  -12.0100   20.7380 C   0  0  0  0  0  0  0  0  0  0  0  0
  -26.6390  -13.2320   20.0910 N   0  0  0  0  0  0  0  0  0  0  0  0
  -26.2630  -11.9500   20.3420 N   0  0  0  0  0  0  0  0  0  0  0  0
  -24.2550  -10.7600   20.9310 C   0  0  0  0  0  0  0  0  0  0  0  0
  -24.6730   -9.7830   21.8630 C   0  0  0  0  0  3  0  0  0  0  0  0
  -23.9270   -8.5980   22.0410 C   0  0  0  0  0  3  0  0  0  0  0  0
  -22.7510   -8.3800   21.2870 C   0  0  0  0  0  0  0  0  0  0  0  0
  -22.3510   -9.3450   20.3460 C   0  0  0  0  0  3  0  0  0  0  0  0
  -23.0960  -10.5230   20.1660 C   0  0  0  0  0  3  0  0  0  0  0  0
  -21.9780   -7.2480   21.3740 O   0  0  0  0  0  0  0  0  0  0  0  0
  -21.8650   -6.5440   22.5450 C   0  0  0  0  0  0  0  0  0  0  0  0
  -21.3540   -7.1310   23.7230 C   0  0  0  0  0  3  0  0  0  0  0  0
  -21.1870   -6.3530   24.8850 C   0  0  0  0  0  3  0  0  0  0  0  0
  -21.5210   -4.9860   24.8720 C   0  0  0  0  0  0  0  0  0  0  0  0
  -22.0210   -4.3950   23.6990 C   0  0  0  0  0  3  0  0  0  0  0  0
  -22.1910   -5.1710   22.5380 C   0  0  0  0  0  0  0  0  0  0  0  0
  -22.6550   -4.5900   21.4060 F   0  0  0  0  0  0  0  0  0  0  0  0
  -21.3550   -4.2360   25.9890 F   0  0  0  0  0  0  0  0  0  0  0  0
  -23.2120  -13.8740   21.2160 C   0  0  0  0  0  0  0  0  0  0  0  0
  -22.5190  -13.1700   22.1000 N   0  0  0  0  0  0  0  0  0  0  0  0
  -22.7690  -14.9250   20.7520 O   0  0  0  0  0  0  0  0  0  0  0  0
  -22.8930  -12.3180   22.4920 H   0  0  0  0  0  0  0  0  0  0  0  0
  -21.6020  -13.4790   22.3790 H   0  0  0  0  0  0  0  0  0  0  0  0
  -25.8280  -15.5010   20.2880 N   0  0  0  0  0  0  0  0  0  0  0  0
  -25.0960  -16.1650   20.5140 H   0  0  0  0  0  0  0  0  0  0  0  0
  -26.6420  -15.9380   19.8670 H   0  0  0  0  0  0  0  0  0  0  0  0
  2  1  2  0
  3  1  1  0
  4  2  1  0
  5  4  2  0
  5  6  1  0
  6  3  2  0
  7  5  1  0
  8  7  2  0
  9 10  1  0
 10  7  1  0
 11  6  1  0
 11 13  1  0
 12 11  1  0
 14 16  1  0
 14 13  1  0
 15 14  2  0
 17 19  1  0
 17 16  1  0
 18 29  2  0
 19 24  1  0
 20 28  1  0
 20 30  1  0
 21 27  1  0
 21 23  1  0
 22 28  1  0
 23 24  2  0
 23 22  1  0
 25 19  2  0
 26 25  1  0
 26 21  2  0
 27 20  1  0
 28 18  1  0
 30 32  2  0
 31 30  1  0
 33 31  1  0
 34 43  2  0
 34 39  1  0
 35 31  1  0
 35 39  1  0
 36 35  1  0
 37 38  1  0
 37 36  1  0
 38 34  1  0
 39 40  2  0
 40 41  1  0
 42 41  2  0
 43 42  1  0
 44 18  1  0
 44 45  1  0
 44 54  1  0
 45 48  1  0
 46 50  1  0
 46 45  1  0
 47 46  2  0
 50 49  1  0
 52 50  1  0
 52 53  1  0
 52 51  1  0
 54 57  1  1
 54 55  1  0
 56 54  1  0
 58 59  2  0
 58  4  1  0
 60 59  1  0
 61 66  1  0
 62 63  1  0
 62 61  1  0
 64 63  1  0
 64 71  1  0
 64 65  1  0
 66 60  1  0
 66 65  1  0
 67 60  2  0
 68 69  2  0
 69 88  1  0
 70 69  1  0
 70 73  1  0
 71 72  1  0
 71 68  1  0
 72 70  2  0
 73 74  1  0
 74 75  2  0
 76 79  1  0
 76 75  1  0
 77 76  2  0
 78 77  1  0
 78 73  2  0
 79 80  1  0
 80 81  1  0
 81 82  2  0
 83 82  1  0
 83 87  1  0
 84 83  2  0
 85 80  2  0
 85 84  1  0
 86 85  1  0
 88 89  1  0
 89 92  1  0
 89 91  1  0
 90 88  2  0
 93 68  1  0
 93 94  1  0
 95 93  1  0
M  ISO  4  16 101  17 101  59 100  60 100
M  END
>  <TORSDO>  (38) 
F 23

>  <SCORE>  (38) 
-11.410

>  <name>  (38) 
37

>  <ligand_id>  (38) 
37

>  <original_smiles>  (38) 
[H]C(C(=O)N1C([H])([H])C([H])([H])C([H])([H])C([H])(n2nc(-c3c([H])c([H])c(Oc4c([H])c([H])c(F)c([H])c4F)c([H])c3[H])c(C(=O)N([H])[H])c2N([H])[H])C1([H])[H])=C([H])c1c([H])c([H])c([H])c(N([H])C([H])([H])C(=O)C([H])([H])Oc2c([H])c([H])c3c(c2[H])C([H])([H])N(C(=O)C([H])(N([H])C(=O)C([H])(N([H])C([H])([H])[H])C([H])([H])[H])C(C([H])([H])[H])(C([H])([H])[H])C([H])([H])[H])C([H])(C(=O)N([H])C2([H])c4c([H])c([H])c([H])c([H])c4C([H])([H])C([H])([H])C2([H])[H])C3([H])[H])c1C(=O)C([H])([H])C([H])([H])[H]

>  <smiles>  (38) 
[H]C(C(=O)N1C([H])([H])C([H])([H])C([H])([H])C([H])(n2nc(-c3c([H])c([H])c(Oc4c([H])c([H])c(F)c([H])c4F)c([H])c3[H])c(C(=O)N([H])[H])c2N([H])[H])C1([H])[H])=C([H])c1c([H])c([H])c([H])c(N([H])C([H])([H])C(=O)C([H])([H])Oc2c([H])c([H])c3c(c2[H])C([H])([H])N(C(=O)C([H])(N([H])C(=O)C([H])(N([H])C([H])([H])[H])C([H])([H])[H])C(C([H])([H])[H])(C([H])([H])[H])C([H])([H])[H])C([H])(C(=O)N([H])C2([H])c4c([H])c([H])c([H])c([H])c4C([H])([H])C([H])([H])C2([H])[H])C3([H])[H])c1C(=O)C([H])([H])C([H])([H])[H]

$$$$
38:0:0
     RDKit          3D

 97106  0  0  1  0  0  0  0  0999 V2000
  -30.4540  -21.9470   21.2680 C   0  0  0  0  0  2  0  0  0  0  0  0
  -29.9010  -23.3630   21.5620 C   0  0  0  0  0  2  0  0  0  0  0  0
  -28.6770  -23.3360   19.3610 C   0  0  0  0  0  2  0  0  0  0  0  0
  -29.4520  -21.1310   20.4290 C   0  0  0  0  0  3  0  0  0  0  0  0
  -29.1380  -21.8570   19.0770 C   0  0  2  0  0  0  0  0  0  0  0  0
  -29.5760  -24.2060   20.2940 C   0  0  2  0  0  0  0  0  0  0  0  0
  -30.3390  -21.8380   18.1030 C   0  0  0  0  0  1  0  0  0  0  0  0
  -27.9760  -21.1290   18.3640 C   0  0  0  0  0  1  0  0  0  0  0  0
  -31.0020  -19.0610   20.0020 C   0  0  0  0  0  3  0  0  0  0  0  0
  -31.2260  -17.6580   19.9970 C   0  0  0  0  0  3  0  0  0  0  0  0
  -28.7440  -18.6970   20.7830 C   0  0  0  0  0  3  0  0  0  0  0  0
  -29.7500  -19.6050   20.3830 C   0  0  0  0  0  0  0  0  0  0  0  0
  -28.9620  -17.3000   20.7980 C   0  0  0  0  0  0  0  0  0  0  0  0
  -30.2060  -16.7530   20.3910 C   0  0  0  0  0  0  0  0  0  0  0  0
  -27.8310  -16.3950   21.2640 C   0  0  0  0  0  1  0  0  0  0  0  0
  -30.8890  -14.4480   19.5260 C   0  0  0  0  0  0  0  0  0  0  0  0
  -30.4350  -12.3540   18.2830 C   0  0  0  0  0  2  0  0  0  0  0  0
  -29.3190  -12.6270   17.2520 C   0  0  0  0  0  2  0  0  0  0  0  0
  -27.9210  -12.4710   17.8870 C   0  0  0  0  0  2  0  0  0  0  0  0
  -27.7920  -13.2280   19.2360 C   0  0  0  0  0  3  0  0  0  0  0  0
  -28.9940  -12.9020   20.1520 C   0  0  0  0  0  2  0  0  0  0  0  0
  -30.2300  -13.2580   19.4270 N   0  0  0  0  0  0  0  0  0  0  0  0
  -31.8920  -14.7130   18.8560 O   0  0  0  0  0  0  0  0  0  0  0  0
  -30.3240  -15.3180   20.3920 N   0  0  0  0  0  0  0  0  0  0  0  0
  -29.6510  -14.8630   20.9880 H   0  0  0  0  0  0  0  0  0  0  0  0
  -25.5440  -13.8250   20.3410 C   0  0  0  0  0  0  0  0  0  0  0  0
  -24.5210  -13.0470   20.8140 C   0  0  0  0  0  0  0  0  0  0  0  0
  -24.9310  -11.6940   20.6110 C   0  0  0  0  0  0  0  0  0  0  0  0
  -26.5170  -12.9440   19.8910 N   0  0  0  0  0  0  0  0  0  0  0  0
  -26.1580  -11.6540   20.1060 N   0  0  0  0  0  0  0  0  0  0  0  0
  -24.2030  -10.4330   20.8160 C   0  0  0  0  0  0  0  0  0  0  0  0
  -24.6520   -9.4630   21.7380 C   0  0  0  0  0  3  0  0  0  0  0  0
  -23.9260   -8.2680   21.9310 C   0  0  0  0  0  3  0  0  0  0  0  0
  -22.7360   -8.0360   21.2000 C   0  0  0  0  0  0  0  0  0  0  0  0
  -22.3070   -8.9960   20.2660 C   0  0  0  0  0  3  0  0  0  0  0  0
  -23.0330  -10.1820   20.0720 C   0  0  0  0  0  3  0  0  0  0  0  0
  -21.9800   -6.8940   21.3010 O   0  0  0  0  0  0  0  0  0  0  0  0
  -21.8250   -6.2360   22.4960 C   0  0  0  0  0  0  0  0  0  0  0  0
  -21.3030   -6.8810   23.6380 C   0  0  0  0  0  3  0  0  0  0  0  0
  -21.0970   -6.1500   24.8260 C   0  0  0  0  0  3  0  0  0  0  0  0
  -21.4020   -4.7760   24.8700 C   0  0  0  0  0  0  0  0  0  0  0  0
  -21.9160   -4.1330   23.7310 C   0  0  0  0  0  3  0  0  0  0  0  0
  -22.1240   -4.8600   22.5460 C   0  0  0  0  0  0  0  0  0  0  0  0
  -22.6000   -4.2300   21.4450 F   0  0  0  0  0  0  0  0  0  0  0  0
  -21.1960   -4.0720   26.0070 F   0  0  0  0  0  0  0  0  0  0  0  0
  -23.1990  -13.5270   21.3360 C   0  0  0  0  0  0  0  0  0  0  0  0
  -22.6180  -12.8080   22.2910 N   0  0  0  0  0  0  0  0  0  0  0  0
  -22.6930  -14.5740   20.9330 O   0  0  0  0  0  0  0  0  0  0  0  0
  -23.0430  -11.9600   22.6360 H   0  0  0  0  0  0  0  0  0  0  0  0
  -21.7370  -13.1100   22.6820 H   0  0  0  0  0  0  0  0  0  0  0  0
  -25.7160  -15.2010   20.2370 N   0  0  0  0  0  0  0  0  0  0  0  0
  -24.9930  -15.8570   20.5100 H   0  0  0  0  0  0  0  0  0  0  0  0
  -26.5160  -15.6520   19.8120 H   0  0  0  0  0  0  0  0  0  0  0  0
  -31.8250  -25.1780   20.2230 C   0  0  0  0  0  1  0  0  0  0  0  0
  -30.7620  -24.5100   19.5490 O   0  0  0  0  0  0  0  0  0  0  0  0
  -28.8520  -25.5460   20.7050 C   0  0  0  0  0  2  0  0  0  0  0  0
  -28.6760  -26.5160   19.6530 O   0  0  0  0  0  0  0  0  0  0  0  0
  -24.8120  -31.5770   22.9410 C   0  0  0  0  0  0  0  0  0  0  0  0
  -27.5200  -27.2650   19.7210 C   0  0  0  0  0  0  0  0  0  0  0  0
  -23.6370  -30.2390   21.2250 C   0  0  0  0  0  3  0  0  0  0  0  0
  -25.1200  -28.7630   19.7620 C   0  0  0  0  0  0  0  0  0  0  0  0
  -26.1640  -30.6140   21.0790 C   0  0  0  0  0  2  0  0  0  0  0  0
  -26.2680  -29.2680   20.3870 C   0  0  0  0  0  0  0  0  0  0  0  0
  -27.4740  -28.5260   20.3650 C   0  0  0  0  0  3  0  0  0  0  0  0
  -26.3590  -26.7760   19.0940 C   0  0  0  0  0  3  0  0  0  0  0  0
  -25.1600  -27.5160   19.1130 C   0  0  0  0  0  3  0  0  0  0  0  0
  -23.8710  -29.6150   19.8220 C   0  0  0  0  0  2  0  0  0  0  0  0
  -24.8880  -30.8230   21.8070 N   0  0  0  0  0  0  0  0  0  0  0  0
  -23.7220  -31.8220   23.4770 O   0  0  0  0  0  0  0  0  0  0  0  0
  -22.9750  -29.1780   22.1340 C   0  0  0  0  0  0  0  0  0  0  0  0
  -21.6420  -29.0490   22.0350 N   0  0  0  0  0  0  0  0  0  0  0  0
  -23.6580  -28.4750   22.8830 O   0  0  0  0  0  0  0  0  0  0  0  0
  -21.1530  -29.6680   21.4030 H   0  0  0  0  0  0  0  0  0  0  0  0
  -18.2330  -28.0160   22.6430 C   0  0  0  0  0  0  0  0  0  0  0  0
  -20.8140  -28.0880   22.7620 C   0  0  0  0  0  3  0  0  0  0  0  0
  -20.7840  -26.7210   22.0410 C   0  0  0  0  0  2  0  0  0  0  0  0
  -19.6020  -26.5730   21.0770 C   0  0  0  0  0  2  0  0  0  0  0  0
  -18.2760  -26.7340   21.8270 C   0  0  0  0  0  2  0  0  0  0  0  0
  -19.4250  -28.6590   23.0690 C   0  0  0  0  0  0  0  0  0  0  0  0
  -19.3300  -29.8650   23.7960 C   0  0  0  0  0  3  0  0  0  0  0  0
  -18.0750  -30.4260   24.0990 C   0  0  0  0  0  3  0  0  0  0  0  0
  -16.8980  -29.7770   23.6900 C   0  0  0  0  0  3  0  0  0  0  0  0
  -16.9780  -28.5720   22.9670 C   0  0  0  0  0  3  0  0  0  0  0  0
  -26.0860  -32.1880   23.6050 C   0  0  0  0  0  3  0  0  0  0  0  0
  -26.6680  -31.2950   24.7700 C   0  0  1  0  0  0  0  0  0  0  0  0
  -25.6100  -30.8710   25.8150 C   0  0  0  0  0  1  0  0  0  0  0  0
  -27.3130  -30.0100   24.2020 C   0  0  0  0  0  1  0  0  0  0  0  0
  -27.7900  -32.0640   25.5080 C   0  0  0  0  0  1  0  0  0  0  0  0
  -25.7300  -33.5230   24.1020 N   0  0  0  0  0  0  0  0  0  0  0  0
  -26.0040  -34.6690   23.4640 C   0  0  0  0  0  0  0  0  0  0  0  0
  -26.6530  -34.7140   22.4150 O   0  0  0  0  0  0  0  0  0  0  0  0
  -25.1490  -33.5590   24.9260 H   0  0  0  0  0  0  0  0  0  0  0  0
  -24.2000  -36.4170   23.3470 C   0  0  0  0  0  1  0  0  0  0  0  0
  -25.4720  -35.9740   24.0880 C   0  0  0  0  0  3  0  0  0  0  0  0
  -27.5860  -36.8430   24.9840 C   0  0  0  0  0  1  0  0  0  0  0  0
  -26.4600  -37.0740   24.0820 N   0  0  0  0  0  0  0  0  0  0  0  0
  -26.0220  -37.9540   24.3420 H   0  0  0  0  0  0  0  0  0  0  0  0
  1  2  1  0
  3  6  1  0
  4 12  1  0
  4  1  1  0
  5  3  1  0
  5  4  1  0
  6 56  1  1
  6  2  1  0
  5  7  1  6
  8  5  1  0
  9 12  1  0
 10  9  2  0
 10 14  1  0
 11 13  1  0
 12 11  2  0
 13 15  1  0
 14 24  1  0
 14 13  2  0
 16 24  1  0
 17 22  1  0
 18 19  1  0
 18 17  1  0
 20 19  1  0
 20 29  1  0
 20 21  1  0
 22 16  1  0
 22 21  1  0
 23 16  2  0
 24 25  1  0
 26 27  2  0
 27 46  1  0
 28 27  1  0
 28 31  1  0
 29 30  1  0
 29 26  1  0
 30 28  2  0
 31 32  1  0
 32 33  2  0
 34 37  1  0
 34 33  1  0
 35 34  2  0
 36 35  1  0
 36 31  2  0
 37 38  1  0
 38 43  2  0
 38 39  1  0
 39 40  2  0
 40 41  1  0
 41 45  1  0
 42 41  2  0
 43 42  1  0
 44 43  1  0
 46 47  1  0
 47 49  1  0
 47 50  1  0
 48 46  2  0
 51 26  1  0
 51 52  1  0
 53 51  1  0
 55 54  1  0
 55  6  1  0
 57 59  1  0
 57 56  1  0
 58 69  2  0
 59 64  1  0
 60 68  1  0
 60 70  1  0
 61 67  1  0
 61 63  1  0
 62 68  1  0
 63 62  1  0
 64 63  2  0
 65 66  1  0
 65 59  2  0
 66 61  2  0
 67 60  1  0
 68 58  1  0
 70 72  2  0
 71 70  1  0
 73 71  1  0
 74 83  2  0
 74 79  1  0
 75 71  1  0
 75 79  1  0
 76 75  1  0
 77 78  1  0
 77 76  1  0
 78 74  1  0
 79 80  2  0
 80 81  1  0
 82 81  2  0
 83 82  1  0
 84 58  1  0
 84 89  1  0
 84 85  1  0
 85 88  1  1
 85 86  1  0
 87 85  1  0
 89 92  1  0
 90 94  1  0
 90 89  1  0
 91 90  2  0
 94 93  1  0
 96 94  1  0
 96 97  1  0
 96 95  1  0
M  ISO  4  16 100  24 100  56 101  57 101
M  END
>  <TORSDO>  (39) 
F 19

>  <SCORE>  (39) 
-11.493

>  <name>  (39) 
38

>  <ligand_id>  (39) 
38

>  <original_smiles>  (39) 
[H]c1c([H])c([H])c2c(c1[H])C([H])([H])C([H])([H])C([H])([H])C2([H])N([H])C(=O)C1([H])N(C(=O)C([H])(N([H])C(=O)C([H])(N([H])C([H])([H])[H])C([H])([H])[H])C(C([H])([H])[H])(C([H])([H])[H])C([H])([H])[H])C([H])([H])c2c([H])c(OC([H])([H])C3(OC([H])([H])[H])C([H])([H])C([H])([H])C([H])(c4c([H])c([H])c(N([H])C(=O)N5C([H])([H])C([H])([H])C([H])([H])C([H])(n6nc(-c7c([H])c([H])c(Oc8c([H])c([H])c(F)c([H])c8F)c([H])c7[H])c(C(=O)N([H])[H])c6N([H])[H])C5([H])[H])c(C([H])([H])[H])c4[H])C(C([H])([H])[H])(C([H])([H])[H])C3([H])[H])c([H])c([H])c2C1([H])[H]

>  <smiles>  (39) 
[H]c1c([H])c([H])c2c(c1[H])C([H])([H])C([H])([H])C([H])([H])C2([H])N([H])C(=O)C1([H])N(C(=O)C([H])(N([H])C(=O)C([H])(N([H])C([H])([H])[H])C([H])([H])[H])C(C([H])([H])[H])(C([H])([H])[H])C([H])([H])[H])C([H])([H])c2c([H])c(OC([H])([H])C3(OC([H])([H])[H])C([H])([H])C([H])([H])C([H])(c4c([H])c([H])c(N([H])C(=O)N5C([H])([H])C([H])([H])C([H])([H])C([H])(n6nc(-c7c([H])c([H])c(Oc8c([H])c([H])c(F)c([H])c8F)c([H])c7[H])c(C(=O)N([H])[H])c6N([H])[H])C5([H])[H])c(C([H])([H])[H])c4[H])C(C([H])([H])[H])(C([H])([H])[H])C3([H])[H])c([H])c([H])c2C1([H])[H]

$$$$
39:0:0
     RDKit          3D

 95103  0  0  1  0  0  0  0  0999 V2000
  -29.1220  -20.6310   20.7840 C   0  0  0  0  0  0  0  0  0  0  0  0
  -29.3820  -21.9100   20.4320 N   0  0  0  0  0  0  0  0  0  0  0  0
  -27.9210  -20.3450   21.2840 N   0  0  0  0  0  4  0  0  0  0  0  0
  -30.2680  -22.1130   19.9830 H   0  0  0  0  0  0  0  0  0  0  0  0
  -27.7490  -19.4140   21.6350 H   0  0  0  0  0  0  0  0  0  0  0  0
  -27.1800  -21.0200   21.3460 H   0  0  0  0  0  0  0  0  0  0  0  0
  -32.4730  -18.8630   20.7460 C   0  0  0  0  0  3  0  0  0  0  0  0
  -31.4980  -19.8780   20.7520 C   0  0  0  0  0  3  0  0  0  0  0  0
  -32.0940  -17.5090   20.6750 C   0  0  0  0  0  3  0  0  0  0  0  0
  -29.7520  -18.1780   20.6000 C   0  0  0  0  0  3  0  0  0  0  0  0
  -30.1270  -19.5500   20.6860 C   0  0  0  0  0  0  0  0  0  0  0  0
  -30.7270  -17.1410   20.5860 C   0  0  0  0  0  0  0  0  0  0  0  0
  -30.9760  -14.7100   20.0020 C   0  0  0  0  0  0  0  0  0  0  0  0
  -30.6300  -12.4990   18.9580 C   0  0  0  0  0  2  0  0  0  0  0  0
  -29.6300  -12.6390   17.7920 C   0  0  0  0  0  2  0  0  0  0  0  0
  -28.1830  -12.5000   18.3010 C   0  0  0  0  0  2  0  0  0  0  0  0
  -27.8960  -13.3910   19.5400 C   0  0  0  0  0  3  0  0  0  0  0  0
  -29.0070  -13.2440   20.6050 C   0  0  0  0  0  2  0  0  0  0  0  0
  -30.2970  -13.5310   19.9560 N   0  0  0  0  0  0  0  0  0  0  0  0
  -32.0750  -14.8490   19.4540 O   0  0  0  0  0  0  0  0  0  0  0  0
  -30.3130  -15.7630   20.5340 N   0  0  0  0  0  0  0  0  0  0  0  0
  -29.3740  -15.5610   20.8420 H   0  0  0  0  0  0  0  0  0  0  0  0
  -25.5620  -14.0120   20.4280 C   0  0  0  0  0  0  0  0  0  0  0  0
  -24.5050  -13.2450   20.8390 C   0  0  0  0  0  0  0  0  0  0  0  0
  -24.9350  -11.8870   20.7280 C   0  0  0  0  0  0  0  0  0  0  0  0
  -26.5720  -13.1210   20.0970 N   0  0  0  0  0  0  0  0  0  0  0  0
  -26.2020  -11.8360   20.3350 N   0  0  0  0  0  0  0  0  0  0  0  0
  -24.1970  -10.6320   20.9180 C   0  0  0  0  0  0  0  0  0  0  0  0
  -24.5940   -9.6800   21.8830 C   0  0  0  0  0  3  0  0  0  0  0  0
  -23.8580   -8.4890   22.0590 C   0  0  0  0  0  3  0  0  0  0  0  0
  -22.7090   -8.2420   21.2710 C   0  0  0  0  0  0  0  0  0  0  0  0
  -22.3310   -9.1820   20.2960 C   0  0  0  0  0  3  0  0  0  0  0  0
  -23.0680  -10.3650   20.1180 C   0  0  0  0  0  3  0  0  0  0  0  0
  -21.9470   -7.1020   21.3550 O   0  0  0  0  0  0  0  0  0  0  0  0
  -21.7760   -6.4360   22.5420 C   0  0  0  0  0  0  0  0  0  0  0  0
  -21.1540   -7.0440   23.6540 C   0  0  0  0  0  3  0  0  0  0  0  0
  -20.9370   -6.3010   24.8330 C   0  0  0  0  0  3  0  0  0  0  0  0
  -21.3300   -4.9520   24.8980 C   0  0  0  0  0  0  0  0  0  0  0  0
  -21.9450   -4.3430   23.7890 C   0  0  0  0  0  3  0  0  0  0  0  0
  -22.1640   -5.0820   22.6140 C   0  0  0  0  0  0  0  0  0  0  0  0
  -22.7380   -4.4860   21.5410 F   0  0  0  0  0  0  0  0  0  0  0  0
  -21.1150   -4.2350   26.0260 F   0  0  0  0  0  0  0  0  0  0  0  0
  -23.1380  -13.7370   21.2190 C   0  0  0  0  0  0  0  0  0  0  0  0
  -22.4470  -13.0130   22.0920 N   0  0  0  0  0  0  0  0  0  0  0  0
  -22.6950  -14.7960   20.7780 O   0  0  0  0  0  0  0  0  0  0  0  0
  -22.8200  -12.1550   22.4700 H   0  0  0  0  0  0  0  0  0  0  0  0
  -21.5320  -13.3220   22.3880 H   0  0  0  0  0  0  0  0  0  0  0  0
  -25.7430  -15.3850   20.2870 N   0  0  0  0  0  0  0  0  0  0  0  0
  -24.9900  -16.0440   20.4540 H   0  0  0  0  0  0  0  0  0  0  0  0
  -26.5620  -15.8150   19.8790 H   0  0  0  0  0  0  0  0  0  0  0  0
  -28.4970  -23.0960   20.6300 C   0  0  0  0  0  2  0  0  0  0  0  0
  -29.1160  -24.4650   20.2650 C   0  0  0  0  0  0  0  0  0  0  0  0
  -30.1110  -24.5390   19.5340 O   0  0  0  0  0  0  0  0  0  0  0  0
  -28.4450  -25.7130   20.8880 C   0  0  0  0  0  2  0  0  0  0  0  0
  -28.6320  -26.9360   20.1360 O   0  0  0  0  0  0  0  0  0  0  0  0
  -24.7130  -31.9540   23.3550 C   0  0  0  0  0  0  0  0  0  0  0  0
  -27.4880  -27.7060   20.1170 C   0  0  0  0  0  0  0  0  0  0  0  0
  -23.5590  -30.6040   21.6340 C   0  0  0  0  0  3  0  0  0  0  0  0
  -25.0670  -29.1670   20.1570 C   0  0  0  0  0  0  0  0  0  0  0  0
  -26.0810  -31.0250   21.4860 C   0  0  0  0  0  2  0  0  0  0  0  0
  -26.2060  -29.6880   20.7840 C   0  0  0  0  0  0  0  0  0  0  0  0
  -27.4250  -28.9660   20.7590 C   0  0  0  0  0  3  0  0  0  0  0  0
  -26.3350  -27.2080   19.4750 C   0  0  0  0  0  3  0  0  0  0  0  0
  -25.1260  -27.9280   19.4960 C   0  0  0  0  0  3  0  0  0  0  0  0
  -23.8020  -29.9940   20.2270 C   0  0  0  0  0  2  0  0  0  0  0  0
  -24.8020  -31.2060   22.2180 N   0  0  0  0  0  0  0  0  0  0  0  0
  -23.6190  -32.1770   23.8920 O   0  0  0  0  0  0  0  0  0  0  0  0
  -22.9190  -29.5250   22.5380 C   0  0  0  0  0  0  0  0  0  0  0  0
  -21.5990  -29.3240   22.3890 N   0  0  0  0  0  0  0  0  0  0  0  0
  -23.6060  -28.8740   23.3290 O   0  0  0  0  0  0  0  0  0  0  0  0
  -21.1050  -29.9040   21.7240 H   0  0  0  0  0  0  0  0  0  0  0  0
  -18.2380  -28.0670   22.8160 C   0  0  0  0  0  0  0  0  0  0  0  0
  -20.7930  -28.3360   23.1040 C   0  0  0  0  0  3  0  0  0  0  0  0
  -20.9110  -26.9410   22.4480 C   0  0  0  0  0  2  0  0  0  0  0  0
  -19.8130  -26.6650   21.4170 C   0  0  0  0  0  2  0  0  0  0  0  0
  -18.4290  -26.7590   22.0670 C   0  0  0  0  0  2  0  0  0  0  0  0
  -19.3490  -28.8150   23.2900 C   0  0  0  0  0  0  0  0  0  0  0  0
  -19.1160  -30.0420   23.9500 C   0  0  0  0  0  3  0  0  0  0  0  0
  -17.8060  -30.5190   24.1420 C   0  0  0  0  0  3  0  0  0  0  0  0
  -16.7100  -29.7660   23.6850 C   0  0  0  0  0  3  0  0  0  0  0  0
  -16.9270  -28.5420   23.0280 C   0  0  0  0  0  3  0  0  0  0  0  0
  -25.9770  -32.5840   24.0190 C   0  0  0  0  0  3  0  0  0  0  0  0
  -26.4510  -31.8090   25.3110 C   0  0  1  0  0  0  0  0  0  0  0  0
  -25.3190  -31.5540   26.3330 C   0  0  0  0  0  1  0  0  0  0  0  0
  -27.0630  -30.4400   24.9320 C   0  0  0  0  0  1  0  0  0  0  0  0
  -27.5660  -32.6110   26.0220 C   0  0  0  0  0  1  0  0  0  0  0  0
  -25.6590  -33.9810   24.3380 N   0  0  0  0  0  0  0  0  0  0  0  0
  -26.0160  -35.0320   23.5890 C   0  0  0  0  0  0  0  0  0  0  0  0
  -26.7200  -34.9270   22.5800 O   0  0  0  0  0  0  0  0  0  0  0  0
  -25.0400  -34.1370   25.1200 H   0  0  0  0  0  0  0  0  0  0  0  0
  -24.3040  -36.8270   23.1710 C   0  0  0  0  0  1  0  0  0  0  0  0
  -25.5140  -36.4220   24.0280 C   0  0  0  0  0  3  0  0  0  0  0  0
  -27.6130  -37.3090   24.9440 C   0  0  0  0  0  1  0  0  0  0  0  0
  -26.5520  -37.4730   23.9530 N   0  0  0  0  0  0  0  0  0  0  0  0
  -26.1410  -38.3940   24.0780 H   0  0  0  0  0  0  0  0  0  0  0  0
  1  3  2  0
  2 51  1  0
  2  1  1  0
  3  6  1  0
  3  5  1  0
  4  2  1  0
  7  8  1  0
  9  7  2  0
 10 11  1  0
 11  8  2  0
 11  1  1  0
 12 10  2  0
 12  9  1  0
 13 21  1  0
 14 19  1  0
 15 16  1  0
 15 14  1  0
 17 16  1  0
 17 26  1  0
 17 18  1  0
 19 13  1  0
 19 18  1  0
 20 13  2  0
 21 12  1  0
 21 22  1  0
 23 24  2  0
 24 43  1  0
 25 24  1  0
 25 28  1  0
 26 27  1  0
 26 23  1  0
 27 25  2  0
 28 29  1  0
 29 30  2  0
 31 34  1  0
 31 30  1  0
 32 31  2  0
 33 32  1  0
 33 28  2  0
 34 35  1  0
 35 40  2  0
 35 36  1  0
 36 37  2  0
 37 38  1  0
 38 42  1  0
 39 38  2  0
 40 39  1  0
 41 40  1  0
 43 44  1  0
 44 47  1  0
 44 46  1  0
 45 43  2  0
 48 23  1  0
 48 49  1  0
 50 48  1  0
 52 51  1  0
 52 54  1  0
 53 52  2  0
 55 54  1  0
 56 67  2  0
 57 55  1  0
 57 62  1  0
 58 66  1  0
 58 68  1  0
 59 65  1  0
 59 61  1  0
 60 66  1  0
 61 60  1  0
 62 61  2  0
 63 64  1  0
 63 57  2  0
 64 59  2  0
 65 58  1  0
 66 56  1  0
 68 70  2  0
 69 68  1  0
 71 69  1  0
 72 81  2  0
 72 77  1  0
 73 69  1  0
 73 77  1  0
 74 73  1  0
 75 76  1  0
 75 74  1  0
 76 72  1  0
 77 78  2  0
 78 79  1  0
 80 79  2  0
 81 80  1  0
 82 56  1  0
 82 87  1  0
 82 83  1  0
 83 86  1  1
 83 84  1  0
 85 83  1  0
 87 90  1  0
 88 92  1  0
 88 87  1  0
 89 88  2  0
 92 91  1  0
 94 92  1  0
 94 95  1  0
 94 93  1  0
M  ISO  4  13 100  21 100  54 101  55 101
M  END
>  <TORSDO>  (40) 
F 20

>  <SCORE>  (40) 
-13.565

>  <name>  (40) 
39

>  <ligand_id>  (40) 
39

>  <original_smiles>  (40) 
[H]c1c([H])c(C(N([H])C([H])([H])C(=O)C([H])([H])Oc2c([H])c([H])c3c(c2[H])C([H])([H])N(C(=O)C([H])(N([H])C(=O)C([H])(N([H])C([H])([H])[H])C([H])([H])[H])C(C([H])([H])[H])(C([H])([H])[H])C([H])([H])[H])C([H])(C(=O)N([H])C2([H])c4c([H])c([H])c([H])c([H])c4C([H])([H])C([H])([H])C2([H])[H])C3([H])[H])=[N+]([H])[H])c([H])c(N([H])C(=O)N2C([H])([H])C([H])([H])C([H])([H])C([H])(n3nc(-c4c([H])c([H])c(Oc5c([H])c([H])c(F)c([H])c5F)c([H])c4[H])c(C(=O)N([H])[H])c3N([H])[H])C2([H])[H])c1[H]

>  <smiles>  (40) 
[H]c1c([H])c(C(N([H])C([H])([H])C(=O)C([H])([H])Oc2c([H])c([H])c3c(c2[H])C([H])([H])N(C(=O)C([H])(N([H])C(=O)C([H])(N([H])C([H])([H])[H])C([H])([H])[H])C(C([H])([H])[H])(C([H])([H])[H])C([H])([H])[H])C([H])(C(=O)N([H])C2([H])c4c([H])c([H])c([H])c([H])c4C([H])([H])C([H])([H])C2([H])[H])C3([H])[H])=[N+]([H])[H])c([H])c(N([H])C(=O)N2C([H])([H])C([H])([H])C([H])([H])C([H])(n3nc(-c4c([H])c([H])c(Oc5c([H])c([H])c(F)c([H])c5F)c([H])c4[H])c(C(=O)N([H])[H])c3N([H])[H])C2([H])[H])c1[H]

$$$$
40:0:0
     RDKit          3D

 96104  0  0  1  0  0  0  0  0999 V2000
  -29.3090  -20.4270   19.9070 N   0  0  0  0  0  0  0  0  0  0  0  0
  -29.5030  -20.7400   18.9570 H   0  0  0  0  0  0  0  0  0  0  0  0
  -29.6440  -18.0850   20.5090 C   0  0  0  0  0  3  0  0  0  0  0  0
  -31.8240  -17.2430   21.1720 C   0  0  0  0  0  3  0  0  0  0  0  0
  -31.5740  -19.5930   20.5240 C   0  0  0  0  0  0  0  0  0  0  0  0
  -30.4790  -16.9780   20.8370 C   0  0  0  0  0  0  0  0  0  0  0  0
  -30.1730  -19.4000   20.3540 C   0  0  0  0  0  0  0  0  0  0  0  0
  -32.3700  -18.5230   20.9960 C   0  0  0  0  0  0  0  0  0  0  0  0
  -33.6940  -18.7000   21.2240 F   0  0  0  0  0  0  0  0  0  0  0  0
  -30.6600  -14.5700   20.2470 C   0  0  0  0  0  0  0  0  0  0  0  0
  -30.3280  -12.4180   19.0900 C   0  0  0  0  0  2  0  0  0  0  0  0
  -29.3600  -12.6250   17.9080 C   0  0  0  0  0  2  0  0  0  0  0  0
  -27.9030  -12.4490   18.3760 C   0  0  0  0  0  2  0  0  0  0  0  0
  -27.5840  -13.2950   19.6400 C   0  0  0  0  0  3  0  0  0  0  0  0
  -28.6630  -13.0940   20.7280 C   0  0  0  0  0  2  0  0  0  0  0  0
  -29.9720  -13.4010   20.1280 N   0  0  0  0  0  0  0  0  0  0  0  0
  -31.7750  -14.7170   19.7370 O   0  0  0  0  0  0  0  0  0  0  0  0
  -30.0000  -15.6180   20.8050 N   0  0  0  0  0  0  0  0  0  0  0  0
  -29.0400  -15.4510   21.0700 H   0  0  0  0  0  0  0  0  0  0  0  0
  -25.2070  -13.8870   20.4250 C   0  0  0  0  0  0  0  0  0  0  0  0
  -24.1550  -13.1060   20.8250 C   0  0  0  0  0  0  0  0  0  0  0  0
  -24.6210  -11.7570   20.7670 C   0  0  0  0  0  0  0  0  0  0  0  0
  -26.2470  -13.0110   20.1540 N   0  0  0  0  0  0  0  0  0  0  0  0
  -25.9000  -11.7260   20.4190 N   0  0  0  0  0  0  0  0  0  0  0  0
  -23.9080  -10.4900   20.9700 C   0  0  0  0  0  0  0  0  0  0  0  0
  -24.3560   -9.5300   21.9040 C   0  0  0  0  0  3  0  0  0  0  0  0
  -23.6410   -8.3260   22.0930 C   0  0  0  0  0  3  0  0  0  0  0  0
  -22.4660   -8.0740   21.3440 C   0  0  0  0  0  0  0  0  0  0  0  0
  -22.0410   -9.0210   20.3950 C   0  0  0  0  0  3  0  0  0  0  0  0
  -22.7570  -10.2160   20.2070 C   0  0  0  0  0  3  0  0  0  0  0  0
  -21.7230   -6.9240   21.4430 O   0  0  0  0  0  0  0  0  0  0  0  0
  -21.6650   -6.1980   22.6060 C   0  0  0  0  0  0  0  0  0  0  0  0
  -21.1980   -6.7620   23.8130 C   0  0  0  0  0  3  0  0  0  0  0  0
  -21.0920   -5.9610   24.9680 C   0  0  0  0  0  3  0  0  0  0  0  0
  -21.4440   -4.5990   24.9170 C   0  0  0  0  0  0  0  0  0  0  0  0
  -21.9020   -4.0350   23.7130 C   0  0  0  0  0  3  0  0  0  0  0  0
  -22.0100   -4.8320   22.5600 C   0  0  0  0  0  0  0  0  0  0  0  0
  -22.4320   -4.2780   21.3990 F   0  0  0  0  0  0  0  0  0  0  0  0
  -21.3330   -3.8300   26.0250 F   0  0  0  0  0  0  0  0  0  0  0  0
  -22.7630  -13.5740   21.1390 C   0  0  0  0  0  0  0  0  0  0  0  0
  -22.0580  -12.8630   22.0170 N   0  0  0  0  0  0  0  0  0  0  0  0
  -22.3070  -14.6020   20.6410 O   0  0  0  0  0  0  0  0  0  0  0  0
  -22.4290  -12.0270   22.4410 H   0  0  0  0  0  0  0  0  0  0  0  0
  -21.1250  -13.1590   22.2670 H   0  0  0  0  0  0  0  0  0  0  0  0
  -25.3620  -15.2580   20.2470 N   0  0  0  0  0  0  0  0  0  0  0  0
  -24.6030  -15.9150   20.4020 H   0  0  0  0  0  0  0  0  0  0  0  0
  -26.1930  -15.6970   19.8720 H   0  0  0  0  0  0  0  0  0  0  0  0
  -32.8620  -20.7830   18.6920 C   0  0  0  0  0  1  0  0  0  0  0  0
  -32.3000  -20.8760   20.1190 C   0  0  0  0  0  2  0  0  0  0  0  0
  -29.0830  -21.6370   20.7320 C   0  0  0  0  0  2  0  0  0  0  0  0
  -28.9210  -22.9150   19.8600 C   0  0  0  0  0  0  0  0  0  0  0  0
  -29.1960  -22.8510   18.6540 O   0  0  0  0  0  0  0  0  0  0  0  0
  -28.4330  -24.2730   20.4830 C   0  0  0  0  0  0  0  0  0  0  0  0
  -27.9450  -24.3220   21.6200 O   0  0  0  0  0  0  0  0  0  0  0  0
  -28.5770  -25.5400   19.5950 C   0  0  0  0  0  2  0  0  0  0  0  0
  -28.3900  -26.7890   20.2980 O   0  0  0  0  0  0  0  0  0  0  0  0
  -24.5310  -31.9710   23.2410 C   0  0  0  0  0  0  0  0  0  0  0  0
  -27.1990  -27.4940   20.2250 C   0  0  0  0  0  0  0  0  0  0  0  0
  -23.3380  -30.5620   21.5970 C   0  0  0  0  0  3  0  0  0  0  0  0
  -24.8030  -29.0150   20.1870 C   0  0  0  0  0  0  0  0  0  0  0  0
  -25.8620  -30.9220   21.4070 C   0  0  0  0  0  2  0  0  0  0  0  0
  -25.9520  -29.5410   20.7870 C   0  0  0  0  0  0  0  0  0  0  0  0
  -27.1480  -28.7840   20.8060 C   0  0  0  0  0  3  0  0  0  0  0  0
  -26.0260  -26.9840   19.6190 C   0  0  0  0  0  3  0  0  0  0  0  0
  -24.8390  -27.7400   19.5940 C   0  0  0  0  0  3  0  0  0  0  0  0
  -23.5510  -29.8630   20.2240 C   0  0  0  0  0  2  0  0  0  0  0  0
  -24.5960  -31.1680   22.1410 N   0  0  0  0  0  0  0  0  0  0  0  0
  -23.4460  -32.2450   23.7730 O   0  0  0  0  0  0  0  0  0  0  0  0
  -22.6790  -29.5480   22.5600 C   0  0  0  0  0  0  0  0  0  0  0  0
  -21.3550  -29.3660   22.4260 N   0  0  0  0  0  0  0  0  0  0  0  0
  -23.3570  -28.9270   23.3820 O   0  0  0  0  0  0  0  0  0  0  0  0
  -20.8700  -29.9190   21.7330 H   0  0  0  0  0  0  0  0  0  0  0  0
  -17.9740  -28.1980   22.9200 C   0  0  0  0  0  0  0  0  0  0  0  0
  -20.5330  -28.4300   23.1940 C   0  0  0  0  0  3  0  0  0  0  0  0
  -20.6230  -27.0010   22.6110 C   0  0  0  0  0  2  0  0  0  0  0  0
  -19.5190  -26.6950   21.5940 C   0  0  0  0  0  2  0  0  0  0  0  0
  -18.1380  -26.8490   22.2400 C   0  0  0  0  0  2  0  0  0  0  0  0
  -19.0990  -28.9460   23.3540 C   0  0  0  0  0  0  0  0  0  0  0  0
  -18.8920  -30.2110   23.9500 C   0  0  0  0  0  3  0  0  0  0  0  0
  -17.5920  -30.7230   24.1180 C   0  0  0  0  0  3  0  0  0  0  0  0
  -16.4810  -29.9700   23.7010 C   0  0  0  0  0  3  0  0  0  0  0  0
  -16.6720  -28.7110   23.1070 C   0  0  0  0  0  3  0  0  0  0  0  0
  -25.8120  -32.6060   23.8700 C   0  0  0  0  0  3  0  0  0  0  0  0
  -25.5010  -34.0080   24.1820 N   0  0  0  0  0  0  0  0  0  0  0  0
  -25.8520  -35.0530   23.4210 C   0  0  0  0  0  0  0  0  0  0  0  0
  -26.5400  -34.9380   22.4030 O   0  0  0  0  0  0  0  0  0  0  0  0
  -24.8820  -34.1680   24.9620 H   0  0  0  0  0  0  0  0  0  0  0  0
  -24.1380  -36.8500   23.0220 C   0  0  0  0  0  1  0  0  0  0  0  0
  -25.3630  -36.4470   23.8580 C   0  0  0  0  0  3  0  0  0  0  0  0
  -27.4860  -37.3300   24.7190 C   0  0  0  0  0  1  0  0  0  0  0  0
  -26.4020  -37.4950   23.7560 N   0  0  0  0  0  0  0  0  0  0  0  0
  -25.9960  -38.4180   23.8900 H   0  0  0  0  0  0  0  0  0  0  0  0
  -26.3130  -31.8470   25.1590 C   0  0  1  0  0  0  0  0  0  0  0  0
  -25.2070  -31.6110   26.2150 C   0  0  0  0  0  1  0  0  0  0  0  0
  -26.9070  -30.4700   24.7790 C   0  0  0  0  0  1  0  0  0  0  0  0
  -27.4520  -32.6490   25.8310 C   0  0  0  0  0  1  0  0  0  0  0  0
  1  7  1  0
  1 50  1  0
  2  1  1  0
  3  6  1  0
  5  8  2  0
  6  4  2  0
  7  3  2  0
  7  5  1  0
  8  4  1  0
  8  9  1  0
 10 18  1  0
 11 16  1  0
 12 13  1  0
 12 11  1  0
 14 13  1  0
 14 23  1  0
 14 15  1  0
 16 10  1  0
 16 15  1  0
 17 10  2  0
 18  6  1  0
 18 19  1  0
 20 21  2  0
 21 40  1  0
 22 21  1  0
 22 25  1  0
 23 24  1  0
 23 20  1  0
 24 22  2  0
 25 26  1  0
 26 27  2  0
 28 31  1  0
 28 27  1  0
 29 28  2  0
 30 29  1  0
 30 25  2  0
 31 32  1  0
 32 33  1  0
 33 34  2  0
 35 34  1  0
 35 39  1  0
 36 35  2  0
 37 32  2  0
 37 36  1  0
 38 37  1  0
 40 41  1  0
 41 44  1  0
 41 43  1  0
 42 40  2  0
 45 46  1  0
 45 20  1  0
 47 45  1  0
 48 49  1  0
 49  5  1  0
 51 53  1  0
 51 50  1  0
 52 51  2  0
 53 54  2  0
 55 56  1  0
 55 53  1  0
 57 68  2  0
 58 56  1  0
 58 63  1  0
 59 67  1  0
 59 69  1  0
 60 66  1  0
 60 62  1  0
 61 67  1  0
 62 63  2  0
 62 61  1  0
 64 58  2  0
 65 64  1  0
 65 60  2  0
 66 59  1  0
 67 57  1  0
 69 71  2  0
 70 69  1  0
 72 70  1  0
 73 82  2  0
 73 78  1  0
 74 70  1  0
 74 78  1  0
 75 74  1  0
 76 77  1  0
 76 75  1  0
 77 73  1  0
 78 79  2  0
 79 80  1  0
 81 80  2  0
 82 81  1  0
 83 57  1  0
 83 84  1  0
 83 93  1  0
 84 87  1  0
 85 89  1  0
 85 84  1  0
 86 85  2  0
 89 88  1  0
 91 89  1  0
 91 92  1  0
 91 90  1  0
 93 96  1  1
 93 94  1  0
 95 93  1  0
M  ISO  4  10 100  18 100  55 101  56 101
M  END
>  <TORSDO>  (41) 
F 22

>  <SCORE>  (41) 
-13.377

>  <name>  (41) 
40

>  <ligand_id>  (41) 
40

>  <original_smiles>  (41) 
[H]c1c([H])c([H])c2c(c1[H])C([H])([H])C([H])([H])C([H])([H])C2([H])N([H])C(=O)C1([H])N(C(=O)C([H])(N([H])C(=O)C([H])(N([H])C([H])([H])[H])C([H])([H])[H])C(C([H])([H])[H])(C([H])([H])[H])C([H])([H])[H])C([H])([H])c2c([H])c(OC([H])([H])C(=O)C(=O)C([H])([H])N([H])c3c([H])c(N([H])C(=O)N4C([H])([H])C([H])([H])C([H])([H])C([H])(n5nc(-c6c([H])c([H])c(Oc7c([H])c([H])c(F)c([H])c7F)c([H])c6[H])c(C(=O)N([H])[H])c5N([H])[H])C4([H])[H])c([H])c(F)c3C([H])([H])C([H])([H])[H])c([H])c([H])c2C1([H])[H]

>  <smiles>  (41) 
[H]c1c([H])c([H])c2c(c1[H])C([H])([H])C([H])([H])C([H])([H])C2([H])N([H])C(=O)C1([H])N(C(=O)C([H])(N([H])C(=O)C([H])(N([H])C([H])([H])[H])C([H])([H])[H])C(C([H])([H])[H])(C([H])([H])[H])C([H])([H])[H])C([H])([H])c2c([H])c(OC([H])([H])C(=O)C(=O)C([H])([H])N([H])c3c([H])c(N([H])C(=O)N4C([H])([H])C([H])([H])C([H])([H])C([H])(n5nc(-c6c([H])c([H])c(Oc7c([H])c([H])c(F)c([H])c7F)c([H])c6[H])c(C(=O)N([H])[H])c5N([H])[H])C4([H])[H])c([H])c(F)c3C([H])([H])C([H])([H])[H])c([H])c([H])c2C1([H])[H]

$$$$
41:0:0
     RDKit          3D

 94102  0  0  1  0  0  0  0  0999 V2000
  -28.7370  -23.1080   20.7030 C   0  0  0  0  0  0  0  0  0  0  0  0
  -28.5410  -21.7970   20.4110 N   0  0  0  0  0  0  0  0  0  0  0  0
  -29.5220  -23.4710   21.5820 O   0  0  0  0  0  0  0  0  0  0  0  0
  -27.8790  -21.5870   19.6770 H   0  0  0  0  0  0  0  0  0  0  0  0
  -29.0850  -20.6280   21.1420 C   0  0  0  0  0  2  0  0  0  0  0  0
  -30.6380  -17.2070   18.8810 C   0  0  0  0  0  3  0  0  0  0  0  0
  -30.7570  -18.5110   18.3700 C   0  0  0  0  0  3  0  0  0  0  0  0
  -29.4800  -18.0940   20.8270 C   0  0  0  0  0  3  0  0  0  0  0  0
  -29.5930  -19.4240   20.3160 C   0  0  0  0  0  0  0  0  0  0  0  0
  -30.0180  -16.9700   20.1330 C   0  0  0  0  0  0  0  0  0  0  0  0
  -30.2520  -19.6150   19.0800 C   0  0  0  0  0  0  0  0  0  0  0  0
  -30.4250  -20.8570   18.5680 F   0  0  0  0  0  0  0  0  0  0  0  0
  -30.6350  -14.5440   20.3500 C   0  0  0  0  0  0  0  0  0  0  0  0
  -30.3500  -12.3380   19.3030 C   0  0  0  0  0  2  0  0  0  0  0  0
  -29.4070  -12.5230   18.0960 C   0  0  0  0  0  2  0  0  0  0  0  0
  -27.9340  -12.3890   18.5320 C   0  0  0  0  0  2  0  0  0  0  0  0
  -27.6000  -13.2460   19.7840 C   0  0  0  0  0  3  0  0  0  0  0  0
  -28.6630  -13.0620   20.8910 C   0  0  0  0  0  2  0  0  0  0  0  0
  -29.9800  -13.3500   20.3060 N   0  0  0  0  0  0  0  0  0  0  0  0
  -31.8020  -14.6620   19.9680 O   0  0  0  0  0  0  0  0  0  0  0  0
  -29.8790  -15.6300   20.6570 N   0  0  0  0  0  0  0  0  0  0  0  0
  -29.0150  -15.4320   21.1390 H   0  0  0  0  0  0  0  0  0  0  0  0
  -25.2120  -13.8580   20.5210 C   0  0  0  0  0  0  0  0  0  0  0  0
  -24.1450  -13.0900   20.9020 C   0  0  0  0  0  0  0  0  0  0  0  0
  -24.6020  -11.7370   20.8700 C   0  0  0  0  0  0  0  0  0  0  0  0
  -26.2530  -12.9740   20.2790 N   0  0  0  0  0  0  0  0  0  0  0  0
  -25.8890  -11.6920   20.5490 N   0  0  0  0  0  0  0  0  0  0  0  0
  -23.8730  -10.4770   21.0680 C   0  0  0  0  0  0  0  0  0  0  0  0
  -24.3290   -9.4950   21.9770 C   0  0  0  0  0  3  0  0  0  0  0  0
  -23.6000   -8.3010   22.1670 C   0  0  0  0  0  3  0  0  0  0  0  0
  -22.4030   -8.0790   21.4440 C   0  0  0  0  0  0  0  0  0  0  0  0
  -21.9650   -9.0500   20.5250 C   0  0  0  0  0  3  0  0  0  0  0  0
  -22.6950  -10.2350   20.3350 C   0  0  0  0  0  3  0  0  0  0  0  0
  -21.6450   -6.9380   21.5420 O   0  0  0  0  0  0  0  0  0  0  0  0
  -21.6480   -6.1680   22.6780 C   0  0  0  0  0  0  0  0  0  0  0  0
  -21.3070   -6.7020   23.9410 C   0  0  0  0  0  3  0  0  0  0  0  0
  -21.2530   -5.8600   25.0690 C   0  0  0  0  0  3  0  0  0  0  0  0
  -21.5300   -4.4850   24.9370 C   0  0  0  0  0  0  0  0  0  0  0  0
  -21.8640   -3.9520   23.6800 C   0  0  0  0  0  3  0  0  0  0  0  0
  -21.9190   -4.7910   22.5530 C   0  0  0  0  0  0  0  0  0  0  0  0
  -22.2200   -4.2680   21.3400 F   0  0  0  0  0  0  0  0  0  0  0  0
  -21.4710   -3.6750   26.0190 F   0  0  0  0  0  0  0  0  0  0  0  0
  -22.7510  -13.5730   21.1840 C   0  0  0  0  0  0  0  0  0  0  0  0
  -22.0290  -12.8850   22.0610 N   0  0  0  0  0  0  0  0  0  0  0  0
  -22.3100  -14.5970   20.6630 O   0  0  0  0  0  0  0  0  0  0  0  0
  -22.3980  -12.0590   22.5100 H   0  0  0  0  0  0  0  0  0  0  0  0
  -21.0950  -13.1910   22.2910 H   0  0  0  0  0  0  0  0  0  0  0  0
  -25.3790  -15.2280   20.3370 N   0  0  0  0  0  0  0  0  0  0  0  0
  -24.6160  -15.8860   20.4510 H   0  0  0  0  0  0  0  0  0  0  0  0
  -26.2210  -15.6590   19.9770 H   0  0  0  0  0  0  0  0  0  0  0  0
  -27.8710  -24.1560   19.9510 C   0  0  0  0  0  2  0  0  0  0  0  0
  -30.0050  -25.3250   18.9710 C   0  0  0  0  0  1  0  0  0  0  0  0
  -28.5200  -25.4620   19.3500 C   0  0  0  0  0  3  0  0  0  0  0  0
  -28.3900  -26.6780   20.1290 O   0  0  0  0  0  0  0  0  0  0  0  0
  -24.6050  -31.8920   23.2250 C   0  0  0  0  0  0  0  0  0  0  0  0
  -27.2090  -27.4110   20.1150 C   0  0  0  0  0  0  0  0  0  0  0  0
  -23.3820  -30.4910   21.5980 C   0  0  0  0  0  3  0  0  0  0  0  0
  -24.8170  -28.9490   20.1580 C   0  0  0  0  0  0  0  0  0  0  0  0
  -25.9100  -30.8330   21.3810 C   0  0  0  0  0  2  0  0  0  0  0  0
  -25.9850  -29.4580   20.7390 C   0  0  0  0  0  0  0  0  0  0  0  0
  -27.1780  -28.6960   20.7190 C   0  0  0  0  0  3  0  0  0  0  0  0
  -26.0150  -26.9260   19.5320 C   0  0  0  0  0  3  0  0  0  0  0  0
  -24.8300  -27.6820   19.5510 C   0  0  0  0  0  3  0  0  0  0  0  0
  -23.5770  -29.8110   20.2170 C   0  0  0  0  0  2  0  0  0  0  0  0
  -24.6520  -31.0880   22.1240 N   0  0  0  0  0  0  0  0  0  0  0  0
  -23.5300  -32.1690   23.7730 O   0  0  0  0  0  0  0  0  0  0  0  0
  -22.7360  -29.4720   22.5660 C   0  0  0  0  0  0  0  0  0  0  0  0
  -21.4110  -29.2910   22.4500 N   0  0  0  0  0  0  0  0  0  0  0  0
  -23.4250  -28.8460   23.3760 O   0  0  0  0  0  0  0  0  0  0  0  0
  -20.9140  -29.8480   21.7680 H   0  0  0  0  0  0  0  0  0  0  0  0
  -18.0420  -28.0890   22.9650 C   0  0  0  0  0  0  0  0  0  0  0  0
  -20.5990  -28.3560   23.2290 C   0  0  0  0  0  3  0  0  0  0  0  0
  -20.7040  -26.9210   22.6610 C   0  0  0  0  0  2  0  0  0  0  0  0
  -19.6000  -26.5900   21.6510 C   0  0  0  0  0  2  0  0  0  0  0  0
  -18.2200  -26.7360   22.2980 C   0  0  0  0  0  2  0  0  0  0  0  0
  -19.1590  -28.8570   23.3870 C   0  0  0  0  0  0  0  0  0  0  0  0
  -18.9380  -30.1240   23.9700 C   0  0  0  0  0  3  0  0  0  0  0  0
  -17.6320  -30.6230   24.1370 C   0  0  0  0  0  3  0  0  0  0  0  0
  -16.5290  -29.8530   23.7300 C   0  0  0  0  0  3  0  0  0  0  0  0
  -16.7350  -28.5870   23.1500 C   0  0  0  0  0  3  0  0  0  0  0  0
  -25.8980  -32.5240   23.8310 C   0  0  0  0  0  3  0  0  0  0  0  0
  -26.4350  -31.7460   25.0950 C   0  0  1  0  0  0  0  0  0  0  0  0
  -25.3600  -31.5040   26.1790 C   0  0  0  0  0  1  0  0  0  0  0  0
  -27.0140  -30.3700   24.6870 C   0  0  0  0  0  1  0  0  0  0  0  0
  -27.5950  -32.5390   25.7420 C   0  0  0  0  0  1  0  0  0  0  0  0
  -25.5900  -33.9190   24.1720 N   0  0  0  0  0  0  0  0  0  0  0  0
  -25.9140  -34.9760   23.4150 C   0  0  0  0  0  0  0  0  0  0  0  0
  -26.5730  -34.8790   22.3760 O   0  0  0  0  0  0  0  0  0  0  0  0
  -25.0000  -34.0680   24.9760 H   0  0  0  0  0  0  0  0  0  0  0  0
  -24.1750  -36.7650   23.0980 C   0  0  0  0  0  1  0  0  0  0  0  0
  -25.4320  -36.3600   23.8860 C   0  0  0  0  0  3  0  0  0  0  0  0
  -27.5800  -37.2440   24.6820 C   0  0  0  0  0  1  0  0  0  0  0  0
  -26.4580  -37.4170   23.7610 N   0  0  0  0  0  0  0  0  0  0  0  0
  -26.0540  -38.3340   23.9230 H   0  0  0  0  0  0  0  0  0  0  0  0
  1  3  2  0
  2  1  1  0
  2  5  1  0
  4  2  1  0
  6 10  1  0
  7  6  2  0
  7 11  1  0
  9  8  1  0
  9  5  1  0
 10 21  1  0
 10  8  2  0
 11  9  2  0
 12 11  1  0
 13 21  1  0
 14 19  1  0
 15 16  1  0
 15 14  1  0
 17 16  1  0
 17 26  1  0
 17 18  1  0
 19 13  1  0
 19 18  1  0
 20 13  2  0
 21 22  1  0
 23 24  2  0
 24 43  1  0
 25 24  1  0
 25 28  1  0
 26 23  1  0
 26 27  1  0
 27 25  2  0
 28 29  1  0
 29 30  2  0
 31 34  1  0
 31 30  1  0
 32 31  2  0
 33 32  1  0
 33 28  2  0
 34 35  1  0
 35 36  1  0
 36 37  2  0
 38 37  1  0
 38 42  1  0
 39 38  2  0
 40 35  2  0
 40 39  1  0
 41 40  1  0
 43 44  1  0
 44 47  1  0
 44 46  1  0
 45 43  2  0
 48 49  1  0
 48 23  1  0
 50 48  1  0
 51  1  1  0
 53 52  1  0
 53 51  1  0
 53 54  1  0
 55 66  2  0
 56 54  1  0
 56 61  1  0
 57 65  1  0
 57 67  1  0
 58 64  1  0
 58 60  1  0
 59 65  1  0
 60 59  1  0
 61 60  2  0
 62 63  1  0
 62 56  2  0
 63 58  2  0
 64 57  1  0
 65 55  1  0
 67 69  2  0
 68 67  1  0
 70 68  1  0
 71 80  2  0
 71 76  1  0
 72 68  1  0
 72 76  1  0
 73 72  1  0
 74 75  1  0
 74 73  1  0
 75 71  1  0
 76 77  2  0
 77 78  1  0
 79 78  2  0
 80 79  1  0
 81 55  1  0
 81 86  1  0
 81 82  1  0
 82 85  1  1
 82 83  1  0
 84 82  1  0
 86 89  1  0
 87 91  1  0
 87 86  1  0
 88 87  2  0
 91 90  1  0
 93 91  1  0
 93 94  1  0
 93 92  1  0
M  ISO  4  13 100  21 100  53 101  54 101
M  END
>  <TORSDO>  (42) 
F 20

>  <SCORE>  (42) 
-13.946

>  <name>  (42) 
41

>  <ligand_id>  (42) 
41

>  <original_smiles>  (42) 
[H]c1c([H])c([H])c2c(c1[H])C([H])([H])C([H])([H])C([H])([H])C2([H])N([H])C(=O)C1([H])N(C(=O)C([H])(N([H])C(=O)C([H])(N([H])C([H])([H])[H])C([H])([H])[H])C(C([H])([H])[H])(C([H])([H])[H])C([H])([H])[H])C([H])([H])c2c([H])c(OC([H])(C([H])([H])[H])C([H])([H])C(=O)N([H])C([H])([H])c3c([H])c(N([H])C(=O)N4C([H])([H])C([H])([H])C([H])([H])C([H])(n5nc(-c6c([H])c([H])c(Oc7c([H])c([H])c(F)c([H])c7F)c([H])c6[H])c(C(=O)N([H])[H])c5N([H])[H])C4([H])[H])c([H])c([H])c3F)c([H])c([H])c2C1([H])[H]

>  <smiles>  (42) 
[H]c1c([H])c([H])c2c(c1[H])C([H])([H])C([H])([H])C([H])([H])C2([H])N([H])C(=O)C1([H])N(C(=O)C([H])(N([H])C(=O)C([H])(N([H])C([H])([H])[H])C([H])([H])[H])C(C([H])([H])[H])(C([H])([H])[H])C([H])([H])[H])C([H])([H])c2c([H])c(OC([H])(C([H])([H])[H])C([H])([H])C(=O)N([H])C([H])([H])c3c([H])c(N([H])C(=O)N4C([H])([H])C([H])([H])C([H])([H])C([H])(n5nc(-c6c([H])c([H])c(Oc7c([H])c([H])c(F)c([H])c7F)c([H])c6[H])c(C(=O)N([H])[H])c5N([H])[H])C4([H])[H])c([H])c([H])c3F)c([H])c([H])c2C1([H])[H]

$$$$
42:0:0
     RDKit          3D

100108  0  0  1  0  0  0  0  0999 V2000
  -29.2870  -20.8430   20.2670 C   0  0  0  0  0  0  0  0  0  0  0  0
  -29.8690  -21.9780   19.8000 N   0  0  0  0  0  0  0  0  0  0  0  0
  -28.0250  -20.9390   20.6890 N   0  0  0  0  0  4  0  0  0  0  0  0
  -30.6900  -21.8270   19.2230 H   0  0  0  0  0  0  0  0  0  0  0  0
  -27.5320  -20.1160   20.9970 H   0  0  0  0  0  0  0  0  0  0  0  0
  -27.4960  -21.7650   20.4380 H   0  0  0  0  0  0  0  0  0  0  0  0
  -32.2230  -18.6270   21.1440 C   0  0  0  0  0  3  0  0  0  0  0  0
  -31.4220  -19.7360   20.8310 C   0  0  0  0  0  3  0  0  0  0  0  0
  -31.7040  -17.3280   21.0490 C   0  0  0  0  0  3  0  0  0  0  0  0
  -30.0760  -19.5770   20.4250 C   0  0  0  0  0  0  0  0  0  0  0  0
  -30.3810  -17.0920   20.6030 C   0  0  0  0  0  0  0  0  0  0  0  0
  -29.5650  -18.2360   20.2990 C   0  0  0  0  0  0  0  0  0  0  0  0
  -28.2820  -18.0400   19.9070 F   0  0  0  0  0  0  0  0  0  0  0  0
  -30.5940  -14.5980   20.2460 C   0  0  0  0  0  0  0  0  0  0  0  0
  -30.2680  -12.4080   19.1610 C   0  0  0  0  0  2  0  0  0  0  0  0
  -29.3030  -12.5940   17.9710 C   0  0  0  0  0  2  0  0  0  0  0  0
  -27.8420  -12.4540   18.4360 C   0  0  0  0  0  2  0  0  0  0  0  0
  -27.5300  -13.2850   19.7110 C   0  0  0  0  0  3  0  0  0  0  0  0
  -28.6190  -13.1140   20.7940 C   0  0  0  0  0  2  0  0  0  0  0  0
  -29.9100  -13.4210   20.1680 N   0  0  0  0  0  0  0  0  0  0  0  0
  -31.7610  -14.6760   19.8560 O   0  0  0  0  0  0  0  0  0  0  0  0
  -29.8790  -15.7270   20.5250 N   0  0  0  0  0  0  0  0  0  0  0  0
  -28.8830  -15.6150   20.6340 H   0  0  0  0  0  0  0  0  0  0  0  0
  -25.1510  -13.8680   20.4800 C   0  0  0  0  0  0  0  0  0  0  0  0
  -24.0970  -13.0890   20.8700 C   0  0  0  0  0  0  0  0  0  0  0  0
  -24.5640  -11.7390   20.8230 C   0  0  0  0  0  0  0  0  0  0  0  0
  -26.1960  -12.9950   20.2250 N   0  0  0  0  0  0  0  0  0  0  0  0
  -25.8490  -11.7080   20.4910 N   0  0  0  0  0  0  0  0  0  0  0  0
  -23.8460  -10.4740   21.0190 C   0  0  0  0  0  0  0  0  0  0  0  0
  -24.2920   -9.5070   21.9470 C   0  0  0  0  0  3  0  0  0  0  0  0
  -23.5720   -8.3060   22.1330 C   0  0  0  0  0  3  0  0  0  0  0  0
  -22.3940   -8.0640   21.3890 C   0  0  0  0  0  0  0  0  0  0  0  0
  -21.9650   -9.0190   20.4500 C   0  0  0  0  0  3  0  0  0  0  0  0
  -22.6850  -10.2110   20.2640 C   0  0  0  0  0  3  0  0  0  0  0  0
  -21.6450   -6.9150   21.4850 O   0  0  0  0  0  0  0  0  0  0  0  0
  -21.6090   -6.1730   22.6370 C   0  0  0  0  0  0  0  0  0  0  0  0
  -21.1820   -6.7230   23.8650 C   0  0  0  0  0  3  0  0  0  0  0  0
  -21.0940   -5.9060   25.0100 C   0  0  0  0  0  3  0  0  0  0  0  0
  -21.4230   -4.5410   24.9290 C   0  0  0  0  0  0  0  0  0  0  0  0
  -21.8440   -3.9890   23.7060 C   0  0  0  0  0  3  0  0  0  0  0  0
  -21.9330   -4.8030   22.5630 C   0  0  0  0  0  0  0  0  0  0  0  0
  -22.3180   -4.2610   21.3820 F   0  0  0  0  0  0  0  0  0  0  0  0
  -21.3320   -3.7550   26.0270 F   0  0  0  0  0  0  0  0  0  0  0  0
  -22.7030  -13.5570   21.1690 C   0  0  0  0  0  0  0  0  0  0  0  0
  -21.9940  -12.8500   22.0410 N   0  0  0  0  0  0  0  0  0  0  0  0
  -22.2540  -14.5880   20.6670 O   0  0  0  0  0  0  0  0  0  0  0  0
  -22.3730  -12.0160   22.4640 H   0  0  0  0  0  0  0  0  0  0  0  0
  -21.0620  -13.1470   22.2910 H   0  0  0  0  0  0  0  0  0  0  0  0
  -25.3030  -15.2400   20.3040 N   0  0  0  0  0  0  0  0  0  0  0  0
  -24.5260  -15.8810   20.4280 H   0  0  0  0  0  0  0  0  0  0  0  0
  -26.1180  -15.6860   19.9020 H   0  0  0  0  0  0  0  0  0  0  0  0
  -29.7520  -23.4280   20.2030 C   0  0  0  0  0  3  0  0  0  0  0  0
  -30.7510  -24.2680   19.3790 C   0  0  2  0  0  0  0  0  0  0  0  0
  -31.0120  -25.4280   19.9830 F   0  0  0  0  0  0  0  0  0  0  0  0
  -30.2690  -24.5180   18.1600 F   0  0  0  0  0  0  0  0  0  0  0  0
  -31.8950  -23.5940   19.2490 F   0  0  0  0  0  0  0  0  0  0  0  0
  -28.3540  -24.1110   20.1640 C   0  0  0  0  0  0  0  0  0  0  0  0
  -27.3810  -23.6010   19.5980 O   0  0  0  0  0  0  0  0  0  0  0  0
  -28.1840  -25.4270   20.9780 C   0  0  0  0  0  2  0  0  0  0  0  0
  -28.3390  -26.6480   20.2100 O   0  0  0  0  0  0  0  0  0  0  0  0
  -24.5850  -31.9400   23.2380 C   0  0  0  0  0  0  0  0  0  0  0  0
  -27.2120  -27.4460   20.1930 C   0  0  0  0  0  0  0  0  0  0  0  0
  -23.3820  -30.5280   21.6050 C   0  0  0  0  0  3  0  0  0  0  0  0
  -24.8360  -28.9830   20.1860 C   0  0  0  0  0  0  0  0  0  0  0  0
  -25.9110  -30.8780   21.4070 C   0  0  0  0  0  2  0  0  0  0  0  0
  -25.9970  -29.5000   20.7740 C   0  0  0  0  0  0  0  0  0  0  0  0
  -27.1940  -28.7410   20.7690 C   0  0  0  0  0  3  0  0  0  0  0  0
  -26.0360  -26.9530   19.5920 C   0  0  0  0  0  3  0  0  0  0  0  0
  -24.8510  -27.7120   19.5890 C   0  0  0  0  0  3  0  0  0  0  0  0
  -23.5920  -29.8440   20.2280 C   0  0  0  0  0  2  0  0  0  0  0  0
  -24.6460  -31.1290   22.1440 N   0  0  0  0  0  0  0  0  0  0  0  0
  -23.5020  -32.2180   23.7730 O   0  0  0  0  0  0  0  0  0  0  0  0
  -22.7300  -29.5120   22.5700 C   0  0  0  0  0  0  0  0  0  0  0  0
  -21.4060  -29.3340   22.4420 N   0  0  0  0  0  0  0  0  0  0  0  0
  -23.4120  -28.8870   23.3850 O   0  0  0  0  0  0  0  0  0  0  0  0
  -20.9210  -29.8910   21.7510 H   0  0  0  0  0  0  0  0  0  0  0  0
  -18.0210  -28.1680   22.9530 C   0  0  0  0  0  0  0  0  0  0  0  0
  -20.5830  -28.4020   23.2140 C   0  0  0  0  0  3  0  0  0  0  0  0
  -20.6700  -26.9730   22.6310 C   0  0  0  0  0  2  0  0  0  0  0  0
  -19.5600  -26.6630   21.6240 C   0  0  0  0  0  2  0  0  0  0  0  0
  -18.1820  -26.8170   22.2740 C   0  0  0  0  0  2  0  0  0  0  0  0
  -19.1490  -28.9180   23.3780 C   0  0  0  0  0  0  0  0  0  0  0  0
  -18.9460  -30.1820   23.9740 C   0  0  0  0  0  3  0  0  0  0  0  0
  -17.6480  -30.6980   24.1460 C   0  0  0  0  0  3  0  0  0  0  0  0
  -16.5340  -29.9440   23.7380 C   0  0  0  0  0  3  0  0  0  0  0  0
  -16.7220  -28.6810   23.1490 C   0  0  0  0  0  3  0  0  0  0  0  0
  -25.8680  -32.5740   23.8580 C   0  0  0  0  0  3  0  0  0  0  0  0
  -25.5590  -33.9740   24.1790 N   0  0  0  0  0  0  0  0  0  0  0  0
  -25.8960  -35.0210   23.4140 C   0  0  0  0  0  0  0  0  0  0  0  0
  -26.5730  -34.9120   22.3890 O   0  0  0  0  0  0  0  0  0  0  0  0
  -24.9500  -34.1320   24.9680 H   0  0  0  0  0  0  0  0  0  0  0  0
  -24.1730  -36.8150   23.0310 C   0  0  0  0  0  1  0  0  0  0  0  0
  -25.4040  -36.4130   23.8590 C   0  0  0  0  0  3  0  0  0  0  0  0
  -27.5370  -37.2930   24.7030 C   0  0  0  0  0  1  0  0  0  0  0  0
  -26.4390  -37.4660   23.7540 N   0  0  0  0  0  0  0  0  0  0  0  0
  -26.0340  -38.3860   23.9030 H   0  0  0  0  0  0  0  0  0  0  0  0
  -26.3820  -31.8080   25.1390 C   0  0  1  0  0  0  0  0  0  0  0  0
  -25.2840  -31.5710   26.2030 C   0  0  0  0  0  1  0  0  0  0  0  0
  -26.9680  -30.4310   24.7490 C   0  0  0  0  0  1  0  0  0  0  0  0
  -27.5330  -32.6030   25.7970 C   0  0  0  0  0  1  0  0  0  0  0  0
  1 10  1  0
  1  3  2  0
  2 52  1  0
  2  1  1  0
  3  5  1  0
  4  2  1  0
  6  3  1  0
  8  7  2  0
  9  7  1  0
 10  8  1  0
 11  9  2  0
 12 10  2  0
 12 11  1  0
 13 12  1  0
 14 22  1  0
 15 20  1  0
 16 17  1  0
 16 15  1  0
 18 17  1  0
 18 27  1  0
 18 19  1  0
 20 14  1  0
 20 19  1  0
 21 14  2  0
 22 11  1  0
 22 23  1  0
 24 25  2  0
 25 44  1  0
 26 25  1  0
 26 29  1  0
 27 24  1  0
 27 28  1  0
 28 26  2  0
 29 30  1  0
 30 31  2  0
 32 35  1  0
 32 31  1  0
 33 32  2  0
 34 33  1  0
 34 29  2  0
 35 36  1  0
 36 37  1  0
 37 38  2  0
 39 38  1  0
 39 43  1  0
 40 39  2  0
 41 36  2  0
 41 40  1  0
 42 41  1  0
 44 45  1  0
 45 48  1  0
 45 47  1  0
 46 44  2  0
 49 50  1  0
 49 24  1  0
 51 49  1  0
 52 57  1  0
 53 54  1  1
 53 52  1  0
 55 53  1  0
 56 53  1  0
 57 59  1  0
 58 57  2  0
 60 59  1  0
 61 72  2  0
 62 60  1  0
 62 67  1  0
 63 71  1  0
 63 73  1  0
 64 70  1  0
 64 66  1  0
 65 71  1  0
 66 65  1  0
 67 66  2  0
 68 62  2  0
 69 68  1  0
 69 64  2  0
 70 63  1  0
 71 61  1  0
 73 75  2  0
 74 73  1  0
 76 74  1  0
 77 86  2  0
 77 82  1  0
 78 74  1  0
 78 82  1  0
 79 78  1  0
 80 81  1  0
 80 79  1  0
 81 77  1  0
 82 83  2  0
 83 84  1  0
 85 84  2  0
 86 85  1  0
 87 61  1  0
 87 88  1  0
 87 97  1  0
 88 91  1  0
 89 93  1  0
 89 88  1  0
 90 89  2  0
 93 92  1  0
 95 93  1  0
 95 96  1  0
 95 94  1  0
 97100  1  1
 97 98  1  0
 99 97  1  0
M  ISO  4  14 100  22 100  59 101  60 101
M  END
>  <TORSDO>  (43) 
F 21

>  <SCORE>  (43) 
-14.055

>  <name>  (43) 
42

>  <ligand_id>  (43) 
42

>  <original_smiles>  (43) 
[H]c1c([H])c(C(N([H])C([H])(C(=O)C([H])([H])Oc2c([H])c([H])c3c(c2[H])C([H])([H])N(C(=O)C([H])(N([H])C(=O)C([H])(N([H])C([H])([H])[H])C([H])([H])[H])C(C([H])([H])[H])(C([H])([H])[H])C([H])([H])[H])C([H])(C(=O)N([H])C2([H])c4c([H])c([H])c([H])c([H])c4C([H])([H])C([H])([H])C2([H])[H])C3([H])[H])C(F)(F)F)=[N+]([H])[H])c(F)c(N([H])C(=O)N2C([H])([H])C([H])([H])C([H])([H])C([H])(n3nc(-c4c([H])c([H])c(Oc5c([H])c([H])c(F)c([H])c5F)c([H])c4[H])c(C(=O)N([H])[H])c3N([H])[H])C2([H])[H])c1[H]

>  <smiles>  (43) 
[H]c1c([H])c(C(N([H])C([H])(C(=O)C([H])([H])Oc2c([H])c([H])c3c(c2[H])C([H])([H])N(C(=O)C([H])(N([H])C(=O)C([H])(N([H])C([H])([H])[H])C([H])([H])[H])C(C([H])([H])[H])(C([H])([H])[H])C([H])([H])[H])C([H])(C(=O)N([H])C2([H])c4c([H])c([H])c([H])c([H])c4C([H])([H])C([H])([H])C2([H])[H])C3([H])[H])C(F)(F)F)=[N+]([H])[H])c(F)c(N([H])C(=O)N2C([H])([H])C([H])([H])C([H])([H])C([H])(n3nc(-c4c([H])c([H])c(Oc5c([H])c([H])c(F)c([H])c5F)c([H])c4[H])c(C(=O)N([H])[H])c3N([H])[H])C2([H])[H])c1[H]

$$$$
43:0:0
     RDKit          3D

 94102  0  0  1  0  0  0  0  0999 V2000
  -29.2210  -21.9380   20.8450 C   0  0  0  0  0  2  0  0  0  0  0  0
  -28.2320  -22.9390   20.1960 C   0  0  0  0  0  0  0  0  0  0  0  0
  -27.4570  -22.5560   19.3120 O   0  0  0  0  0  0  0  0  0  0  0  0
  -28.1980  -24.4090   20.6890 C   0  0  0  0  0  2  0  0  0  0  0  0
  -29.8190  -25.4700   19.0310 C   0  0  0  0  0  1  0  0  0  0  0  0
  -28.3860  -25.4940   19.5830 C   0  0  0  0  0  3  0  0  0  0  0  0
  -28.2380  -26.8410   20.0880 O   0  0  0  0  0  0  0  0  0  0  0  0
  -24.4890  -31.9910   23.2310 C   0  0  0  0  0  0  0  0  0  0  0  0
  -27.0380  -27.5330   20.0750 C   0  0  0  0  0  0  0  0  0  0  0  0
  -23.2360  -30.6180   21.5960 C   0  0  0  0  0  3  0  0  0  0  0  0
  -24.6480  -29.0710   20.1330 C   0  0  0  0  0  0  0  0  0  0  0  0
  -25.7580  -30.9570   21.3470 C   0  0  0  0  0  2  0  0  0  0  0  0
  -25.8220  -29.5840   20.6990 C   0  0  0  0  0  0  0  0  0  0  0  0
  -27.0120  -28.8220   20.6650 C   0  0  0  0  0  3  0  0  0  0  0  0
  -25.8390  -27.0330   19.5120 C   0  0  0  0  0  3  0  0  0  0  0  0
  -24.6550  -27.7980   19.5380 C   0  0  0  0  0  3  0  0  0  0  0  0
  -23.4130  -29.9430   20.2060 C   0  0  0  0  0  2  0  0  0  0  0  0
  -24.5140  -31.2030   22.1180 N   0  0  0  0  0  0  0  0  0  0  0  0
  -23.4230  -32.2650   23.7990 O   0  0  0  0  0  0  0  0  0  0  0  0
  -22.5940  -29.5960   22.5610 C   0  0  0  0  0  0  0  0  0  0  0  0
  -21.2700  -29.4010   22.4350 N   0  0  0  0  0  0  0  0  0  0  0  0
  -23.2830  -28.9780   23.3750 O   0  0  0  0  0  0  0  0  0  0  0  0
  -20.7730  -29.9580   21.7530 H   0  0  0  0  0  0  0  0  0  0  0  0
  -17.9080  -28.1800   22.9290 C   0  0  0  0  0  0  0  0  0  0  0  0
  -20.4620  -28.4570   23.2050 C   0  0  0  0  0  3  0  0  0  0  0  0
  -20.5770  -27.0260   22.6310 C   0  0  0  0  0  2  0  0  0  0  0  0
  -19.4790  -26.6930   21.6150 C   0  0  0  0  0  2  0  0  0  0  0  0
  -18.0950  -26.8300   22.2560 C   0  0  0  0  0  2  0  0  0  0  0  0
  -19.0210  -28.9490   23.3600 C   0  0  0  0  0  0  0  0  0  0  0  0
  -18.7950  -30.2110   23.9490 C   0  0  0  0  0  3  0  0  0  0  0  0
  -17.4880  -30.7040   24.1160 C   0  0  0  0  0  3  0  0  0  0  0  0
  -16.3880  -29.9330   23.7000 C   0  0  0  0  0  3  0  0  0  0  0  0
  -16.5990  -28.6720   23.1140 C   0  0  0  0  0  3  0  0  0  0  0  0
  -25.7960  -32.6000   23.8330 C   0  0  0  0  0  3  0  0  0  0  0  0
  -25.5100  -34.0000   24.1770 N   0  0  0  0  0  0  0  0  0  0  0  0
  -25.8570  -35.0530   23.4230 C   0  0  0  0  0  0  0  0  0  0  0  0
  -26.5210  -34.9470   22.3870 O   0  0  0  0  0  0  0  0  0  0  0  0
  -24.9250  -34.1610   24.9830 H   0  0  0  0  0  0  0  0  0  0  0  0
  -24.1720  -36.8850   23.0690 C   0  0  0  0  0  1  0  0  0  0  0  0
  -25.3910  -36.4430   23.8930 C   0  0  0  0  0  3  0  0  0  0  0  0
  -27.5260  -37.2730   24.7750 C   0  0  0  0  0  1  0  0  0  0  0  0
  -26.4460  -37.4760   23.8130 N   0  0  0  0  0  0  0  0  0  0  0  0
  -26.0540  -38.4010   23.9680 H   0  0  0  0  0  0  0  0  0  0  0  0
  -26.3290  -31.8120   25.0910 C   0  0  1  0  0  0  0  0  0  0  0  0
  -25.2530  -31.5660   26.1730 C   0  0  0  0  0  1  0  0  0  0  0  0
  -26.9000  -30.4360   24.6720 C   0  0  0  0  0  1  0  0  0  0  0  0
  -27.4940  -32.5930   25.7440 C   0  0  0  0  0  1  0  0  0  0  0  0
  -28.9410  -20.5290   20.4970 N   0  0  0  0  0  0  0  0  0  0  0  0
  -28.1020  -20.3740   19.9420 H   0  0  0  0  0  0  0  0  0  0  0  0
  -29.4710  -18.1280   20.4340 C   0  0  0  0  0  3  0  0  0  0  0  0
  -31.6330  -17.3060   21.2070 C   0  0  0  0  0  3  0  0  0  0  0  0
  -31.1220  -19.6920   21.3070 C   0  0  0  0  0  3  0  0  0  0  0  0
  -30.3690  -17.0420   20.6390 C   0  0  0  0  0  0  0  0  0  0  0  0
  -29.8430  -19.4670   20.7490 C   0  0  0  0  0  0  0  0  0  0  0  0
  -32.0080  -18.6200   21.5350 C   0  0  0  0  0  0  0  0  0  0  0  0
  -33.2270  -18.8510   22.0750 F   0  0  0  0  0  0  0  0  0  0  0  0
  -30.7760  -14.6580   19.9900 C   0  0  0  0  0  0  0  0  0  0  0  0
  -30.4940  -12.4640   18.9100 C   0  0  0  0  0  2  0  0  0  0  0  0
  -29.4660  -12.6140   17.7710 C   0  0  0  0  0  2  0  0  0  0  0  0
  -28.0180  -12.4700   18.2890 C   0  0  0  0  0  2  0  0  0  0  0  0
  -27.7450  -13.3240   19.5550 C   0  0  0  0  0  3  0  0  0  0  0  0
  -28.8720  -13.1300   20.5950 C   0  0  0  0  0  2  0  0  0  0  0  0
  -30.1450  -13.4580   19.9320 N   0  0  0  0  0  0  0  0  0  0  0  0
  -31.9120  -14.8380   19.5390 O   0  0  0  0  0  0  0  0  0  0  0  0
  -29.9820  -15.6950   20.3360 N   0  0  0  0  0  0  0  0  0  0  0  0
  -28.9970  -15.4870   20.3940 H   0  0  0  0  0  0  0  0  0  0  0  0
  -25.4030  -13.9220   20.4420 C   0  0  0  0  0  0  0  0  0  0  0  0
  -24.3620  -13.1430   20.8690 C   0  0  0  0  0  0  0  0  0  0  0  0
  -24.8180  -11.7920   20.7810 C   0  0  0  0  0  0  0  0  0  0  0  0
  -26.4280  -13.0440   20.1220 N   0  0  0  0  0  0  0  0  0  0  0  0
  -26.0850  -11.7580   20.3870 N   0  0  0  0  0  0  0  0  0  0  0  0
  -24.1070  -10.5250   20.9990 C   0  0  0  0  0  0  0  0  0  0  0  0
  -24.5220   -9.6070   21.9880 C   0  0  0  0  0  3  0  0  0  0  0  0
  -23.8110   -8.4030   22.1880 C   0  0  0  0  0  3  0  0  0  0  0  0
  -22.6720   -8.1110   21.4020 C   0  0  0  0  0  0  0  0  0  0  0  0
  -22.2760   -9.0190   20.4030 C   0  0  0  0  0  3  0  0  0  0  0  0
  -22.9870  -10.2150   20.2010 C   0  0  0  0  0  3  0  0  0  0  0  0
  -21.9350   -6.9550   21.5100 O   0  0  0  0  0  0  0  0  0  0  0  0
  -21.7690   -6.3200   22.7150 C   0  0  0  0  0  0  0  0  0  0  0  0
  -21.1510   -6.9560   23.8140 C   0  0  0  0  0  3  0  0  0  0  0  0
  -20.9360   -6.2420   25.0100 C   0  0  0  0  0  3  0  0  0  0  0  0
  -21.3300   -4.8940   25.1060 C   0  0  0  0  0  0  0  0  0  0  0  0
  -21.9410   -4.2590   24.0100 C   0  0  0  0  0  3  0  0  0  0  0  0
  -22.1570   -4.9690   22.8160 C   0  0  0  0  0  0  0  0  0  0  0  0
  -22.7260   -4.3480   21.7570 F   0  0  0  0  0  0  0  0  0  0  0  0
  -21.1180   -4.2040   26.2520 F   0  0  0  0  0  0  0  0  0  0  0  0
  -22.9840  -13.6130   21.2400 C   0  0  0  0  0  0  0  0  0  0  0  0
  -22.3050  -12.8930   22.1260 N   0  0  0  0  0  0  0  0  0  0  0  0
  -22.5180  -14.6520   20.7760 O   0  0  0  0  0  0  0  0  0  0  0  0
  -22.6890  -12.0490   22.5280 H   0  0  0  0  0  0  0  0  0  0  0  0
  -21.3840  -13.1950   22.4130 H   0  0  0  0  0  0  0  0  0  0  0  0
  -25.5560  -15.2980   20.2850 N   0  0  0  0  0  0  0  0  0  0  0  0
  -24.8080  -15.9470   20.5060 H   0  0  0  0  0  0  0  0  0  0  0  0
  -26.3800  -15.7600   19.9230 H   0  0  0  0  0  0  0  0  0  0  0  0
  2  4  1  0
  2  1  1  0
  3  2  2  0
  6  5  1  0
  6  7  1  0
  6  4  1  0
  8 19  2  0
  9  7  1  0
  9 14  1  0
 10 18  1  0
 10 20  1  0
 11 17  1  0
 11 13  1  0
 12 18  1  0
 13 12  1  0
 14 13  2  0
 15 16  1  0
 15  9  2  0
 16 11  2  0
 17 10  1  0
 18  8  1  0
 20 22  2  0
 21 20  1  0
 23 21  1  0
 24 33  2  0
 24 29  1  0
 25 21  1  0
 25 29  1  0
 26 25  1  0
 27 28  1  0
 27 26  1  0
 28 24  1  0
 29 30  2  0
 30 31  1  0
 32 31  2  0
 33 32  1  0
 34  8  1  0
 34 35  1  0
 34 44  1  0
 35 38  1  0
 36 40  1  0
 36 35  1  0
 37 36  2  0
 40 39  1  0
 42 40  1  0
 42 43  1  0
 42 41  1  0
 44 47  1  1
 44 45  1  0
 46 44  1  0
 48 54  1  0
 48  1  1  0
 49 48  1  0
 50 53  2  0
 50 54  1  0
 51 55  2  0
 52 55  1  0
 53 51  1  0
 54 52  2  0
 55 56  1  0
 57 65  1  0
 58 63  1  0
 59 60  1  0
 59 58  1  0
 61 60  1  0
 61 70  1  0
 61 62  1  0
 63 57  1  0
 63 62  1  0
 64 57  2  0
 65 66  1  0
 65 53  1  0
 67 68  2  0
 68 87  1  0
 69 68  1  0
 69 72  1  0
 70 71  1  0
 70 67  1  0
 71 69  2  0
 72 73  1  0
 73 74  2  0
 75 78  1  0
 75 74  1  0
 76 75  2  0
 77 76  1  0
 77 72  2  0
 78 79  1  0
 79 84  2  0
 79 80  1  0
 80 81  2  0
 81 82  1  0
 82 86  1  0
 83 82  2  0
 84 83  1  0
 85 84  1  0
 87 88  1  0
 88 91  1  0
 88 90  1  0
 89 87  2  0
 92 67  1  0
 92 93  1  0
 94 92  1  0
M  ISO  4   6 101   7 101  57 100  65 100
M  END
>  <TORSDO>  (44) 
F 21

>  <SCORE>  (44) 
-13.189

>  <name>  (44) 
43

>  <ligand_id>  (44) 
43

>  <original_smiles>  (44) 
[H]c1c([H])c([H])c2c(c1[H])C([H])([H])C([H])([H])C([H])([H])C2([H])N([H])C(=O)C1([H])N(C(=O)C([H])(N([H])C(=O)C([H])(N([H])C([H])([H])[H])C([H])([H])[H])C(C([H])([H])[H])(C([H])([H])[H])C([H])([H])[H])C([H])([H])c2c([H])c(OC([H])(C([H])([H])[H])C([H])([H])C(=O)C([H])([H])N([H])c3c([H])c(F)c([H])c(N([H])C(=O)N4C([H])([H])C([H])([H])C([H])([H])C([H])(n5nc(-c6c([H])c([H])c(Oc7c([H])c([H])c(F)c([H])c7F)c([H])c6[H])c(C(=O)N([H])[H])c5N([H])[H])C4([H])[H])c3[H])c([H])c([H])c2C1([H])[H]

>  <smiles>  (44) 
[H]c1c([H])c([H])c2c(c1[H])C([H])([H])C([H])([H])C([H])([H])C2([H])N([H])C(=O)C1([H])N(C(=O)C([H])(N([H])C(=O)C([H])(N([H])C([H])([H])[H])C([H])([H])[H])C(C([H])([H])[H])(C([H])([H])[H])C([H])([H])[H])C([H])([H])c2c([H])c(OC([H])(C([H])([H])[H])C([H])([H])C(=O)C([H])([H])N([H])c3c([H])c(F)c([H])c(N([H])C(=O)N4C([H])([H])C([H])([H])C([H])([H])C([H])(n5nc(-c6c([H])c([H])c(Oc7c([H])c([H])c(F)c([H])c7F)c([H])c6[H])c(C(=O)N([H])[H])c5N([H])[H])C4([H])[H])c3[H])c([H])c([H])c2C1([H])[H]

$$$$
44:0:0
     RDKit          3D

 91 99  0  0  1  0  0  0  0  0999 V2000
  -29.1420  -23.0280   20.6620 C   0  0  0  0  0  3  0  0  0  0  0  0
  -29.5270  -21.8920   20.1990 N   0  0  0  0  0  0  0  0  0  0  0  0
  -30.4930  -19.6720   20.3850 C   0  0  0  0  0  3  0  0  0  0  0  0
  -31.2530  -18.7590   22.5110 C   0  0  0  0  0  3  0  0  0  0  0  0
  -30.2860  -20.9990   22.4110 C   0  0  0  0  0  3  0  0  0  0  0  0
  -31.0640  -18.6010   21.1210 C   0  0  0  0  0  0  0  0  0  0  0  0
  -30.1070  -20.8870   21.0070 C   0  0  0  0  0  0  0  0  0  0  0  0
  -30.8590  -19.9480   23.1510 C   0  0  0  0  0  0  0  0  0  0  0  0
  -31.0310  -20.0800   24.4870 F   0  0  0  0  0  0  0  0  0  0  0  0
  -31.4880  -17.3130   20.4020 C   0  0  0  0  0  2  0  0  0  0  0  0
  -31.1310  -15.9790   21.1200 C   0  0  0  0  0  2  0  0  0  0  0  0
  -31.7570  -14.7260   20.4600 C   0  0  0  0  0  0  0  0  0  0  0  0
  -31.3810  -12.5400   19.3670 C   0  0  0  0  0  2  0  0  0  0  0  0
  -30.4940  -12.7460   18.1210 C   0  0  0  0  0  2  0  0  0  0  0  0
  -29.0000  -12.7170   18.4980 C   0  0  0  0  0  2  0  0  0  0  0  0
  -28.6710  -13.6320   19.7090 C   0  0  0  0  0  3  0  0  0  0  0  0
  -29.6680  -13.3860   20.8640 C   0  0  0  0  0  2  0  0  0  0  0  0
  -31.0280  -13.5830   20.3410 N   0  0  0  0  0  0  0  0  0  0  0  0
  -32.8910  -14.8260   19.9780 O   0  0  0  0  0  0  0  0  0  0  0  0
  -26.3050  -14.4290   20.3350 C   0  0  0  0  0  0  0  0  0  0  0  0
  -25.1680  -13.7440   20.6700 C   0  0  0  0  0  0  0  0  0  0  0  0
  -25.5220  -12.3610   20.6570 C   0  0  0  0  0  0  0  0  0  0  0  0
  -27.2850  -13.4680   20.1420 N   0  0  0  0  0  0  0  0  0  0  0  0
  -26.8150  -12.2190   20.3920 N   0  0  0  0  0  0  0  0  0  0  0  0
  -24.6950  -11.1590   20.8250 C   0  0  0  0  0  0  0  0  0  0  0  0
  -25.0110  -10.1740   21.7860 C   0  0  0  0  0  3  0  0  0  0  0  0
  -24.1900   -9.0370   21.9420 C   0  0  0  0  0  3  0  0  0  0  0  0
  -23.0390   -8.8770   21.1360 C   0  0  0  0  0  0  0  0  0  0  0  0
  -22.7410   -9.8490   20.1650 C   0  0  0  0  0  3  0  0  0  0  0  0
  -23.5610  -10.9790   20.0080 C   0  0  0  0  0  3  0  0  0  0  0  0
  -22.1970   -7.7920   21.2000 O   0  0  0  0  0  0  0  0  0  0  0  0
  -21.9910   -7.1090   22.3710 C   0  0  0  0  0  0  0  0  0  0  0  0
  -21.5200   -7.7530   23.5360 C   0  0  0  0  0  3  0  0  0  0  0  0
  -21.2550   -7.0000   24.6980 C   0  0  0  0  0  3  0  0  0  0  0  0
  -21.4520   -5.6070   24.6950 C   0  0  0  0  0  0  0  0  0  0  0  0
  -21.9160   -4.9620   23.5340 C   0  0  0  0  0  3  0  0  0  0  0  0
  -22.1820   -5.7120   22.3740 C   0  0  0  0  0  0  0  0  0  0  0  0
  -22.6080   -5.0840   21.2520 F   0  0  0  0  0  0  0  0  0  0  0  0
  -21.1900   -4.8820   25.8080 F   0  0  0  0  0  0  0  0  0  0  0  0
  -23.8030  -14.3290   20.8960 C   0  0  0  0  0  0  0  0  0  0  0  0
  -23.0080  -13.7120   21.7640 N   0  0  0  0  0  0  0  0  0  0  0  0
  -23.4510  -15.3680   20.3400 O   0  0  0  0  0  0  0  0  0  0  0  0
  -23.3030  -12.8710   22.2360 H   0  0  0  0  0  0  0  0  0  0  0  0
  -22.0900  -14.0880   21.9600 H   0  0  0  0  0  0  0  0  0  0  0  0
  -26.5810  -15.7820   20.1600 N   0  0  0  0  0  0  0  0  0  0  0  0
  -25.8680  -16.4990   20.2470 H   0  0  0  0  0  0  0  0  0  0  0  0
  -27.4800  -16.1520   19.8750 H   0  0  0  0  0  0  0  0  0  0  0  0
  -28.4670  -24.1560   19.8970 C   0  0  0  0  0  0  0  0  0  0  0  0
  -28.1960  -24.0810   18.6910 O   0  0  0  0  0  0  0  0  0  0  0  0
  -28.1210  -25.4160   20.7140 C   0  0  0  0  0  2  0  0  0  0  0  0
  -28.1560  -26.6160   19.9180 O   0  0  0  0  0  0  0  0  0  0  0  0
  -24.5140  -31.7990   23.1700 C   0  0  0  0  0  0  0  0  0  0  0  0
  -27.0040  -27.3630   19.9690 C   0  0  0  0  0  0  0  0  0  0  0  0
  -23.2370  -30.4280   21.5520 C   0  0  0  0  0  3  0  0  0  0  0  0
  -24.6270  -28.8850   20.0680 C   0  0  0  0  0  0  0  0  0  0  0  0
  -25.7580  -30.7630   21.2740 C   0  0  0  0  0  2  0  0  0  0  0  0
  -25.8090  -29.3970   20.6210 C   0  0  0  0  0  0  0  0  0  0  0  0
  -27.0030  -28.6440   20.5640 C   0  0  0  0  0  3  0  0  0  0  0  0
  -25.8080  -26.8590   19.4140 C   0  0  0  0  0  3  0  0  0  0  0  0
  -24.6200  -27.6160   19.4620 C   0  0  0  0  0  3  0  0  0  0  0  0
  -23.3940  -29.7570   20.1600 C   0  0  0  0  0  2  0  0  0  0  0  0
  -24.5240  -31.0100   22.0570 N   0  0  0  0  0  0  0  0  0  0  0  0
  -23.4550  -32.0790   23.7480 O   0  0  0  0  0  0  0  0  0  0  0  0
  -22.6050  -29.4070   22.5230 C   0  0  0  0  0  0  0  0  0  0  0  0
  -21.2820  -29.2060   22.4010 N   0  0  0  0  0  0  0  0  0  0  0  0
  -23.2980  -28.7980   23.3410 O   0  0  0  0  0  0  0  0  0  0  0  0
  -20.7830  -29.7520   21.7120 H   0  0  0  0  0  0  0  0  0  0  0  0
  -17.9400  -27.9120   22.8540 C   0  0  0  0  0  0  0  0  0  0  0  0
  -20.4800  -28.2630   23.1790 C   0  0  0  0  0  3  0  0  0  0  0  0
  -20.6430  -26.8210   22.6470 C   0  0  0  0  0  2  0  0  0  0  0  0
  -19.5790  -26.4320   21.6170 C   0  0  0  0  0  2  0  0  0  0  0  0
  -18.1780  -26.5500   22.2240 C   0  0  0  0  0  2  0  0  0  0  0  0
  -19.0220  -28.7230   23.2870 C   0  0  0  0  0  0  0  0  0  0  0  0
  -18.7470  -29.9960   23.8340 C   0  0  0  0  0  3  0  0  0  0  0  0
  -17.4240  -30.4580   23.9520 C   0  0  0  0  0  3  0  0  0  0  0  0
  -16.3560  -29.6450   23.5360 C   0  0  0  0  0  3  0  0  0  0  0  0
  -16.6140  -28.3730   22.9940 C   0  0  0  0  0  3  0  0  0  0  0  0
  -25.8290  -32.4050   23.7530 C   0  0  0  0  0  3  0  0  0  0  0  0
  -25.5470  -33.7970   24.1260 N   0  0  0  0  0  0  0  0  0  0  0  0
  -25.8820  -34.8650   23.3880 C   0  0  0  0  0  0  0  0  0  0  0  0
  -26.5330  -34.7790   22.3430 O   0  0  0  0  0  0  0  0  0  0  0  0
  -24.9700  -33.9390   24.9430 H   0  0  0  0  0  0  0  0  0  0  0  0
  -24.1720  -36.6860   23.1100 C   0  0  0  0  0  1  0  0  0  0  0  0
  -25.4210  -36.2460   23.8900 C   0  0  0  0  0  3  0  0  0  0  0  0
  -27.5830  -37.0780   24.7010 C   0  0  0  0  0  1  0  0  0  0  0  0
  -26.4650  -37.2890   23.7860 N   0  0  0  0  0  0  0  0  0  0  0  0
  -26.0740  -38.2090   23.9710 H   0  0  0  0  0  0  0  0  0  0  0  0
  -26.3900  -31.6000   24.9890 C   0  0  1  0  0  0  0  0  0  0  0  0
  -25.3400  -31.3440   26.0940 C   0  0  0  0  0  1  0  0  0  0  0  0
  -26.9450  -30.2280   24.5380 C   0  0  0  0  0  1  0  0  0  0  0  0
  -27.5720  -32.3690   25.6250 C   0  0  0  0  0  1  0  0  0  0  0  0
  2  1  2  0
  2  7  1  0
  3  7  2  0
  3  6  1  0
  4  8  1  0
  5  8  2  0
  6  4  2  0
  7  5  1  0
  8  9  1  0
 10 11  1  0
 10  6  1  0
 12 11  1  0
 13 18  1  0
 14 15  1  0
 14 13  1  0
 16 15  1  0
 16 23  1  0
 16 17  1  0
 18 12  1  0
 18 17  1  0
 19 12  2  0
 20 21  2  0
 21 40  1  0
 22 21  1  0
 22 25  1  0
 23 20  1  0
 23 24  1  0
 24 22  2  0
 25 26  1  0
 26 27  2  0
 28 31  1  0
 28 27  1  0
 29 28  2  0
 30 29  1  0
 30 25  2  0
 31 32  1  0
 32 37  2  0
 32 33  1  0
 33 34  2  0
 35 34  1  0
 35 39  1  0
 36 35  2  0
 37 36  1  0
 38 37  1  0
 40 41  1  0
 41 44  1  0
 41 43  1  0
 42 40  2  0
 45 46  1  0
 45 20  1  0
 47 45  1  0
 48  1  1  0
 48 50  1  0
 49 48  2  0
 51 53  1  0
 51 50  1  0
 52 63  2  0
 53 58  1  0
 54 62  1  0
 54 64  1  0
 55 61  1  0
 55 57  1  0
 56 62  1  0
 57 56  1  0
 58 57  2  0
 59 60  1  0
 59 53  2  0
 60 55  2  0
 61 54  1  0
 62 52  1  0
 64 66  2  0
 65 64  1  0
 67 65  1  0
 68 77  2  0
 68 73  1  0
 69 65  1  0
 69 73  1  0
 70 69  1  0
 71 72  1  0
 71 70  1  0
 72 68  1  0
 73 74  2  0
 74 75  1  0
 76 75  2  0
 77 76  1  0
 78 52  1  0
 78 79  1  0
 78 88  1  0
 79 82  1  0
 80 84  1  0
 80 79  1  0
 81 80  2  0
 84 83  1  0
 86 84  1  0
 86 87  1  0
 86 85  1  0
 88 91  1  1
 88 89  1  0
 90 88  1  0
M  ISO  4  11 100  12 100  50 101  51 101
M  END
>  <TORSDO>  (45) 
F 21

>  <SCORE>  (45) 
-12.383

>  <name>  (45) 
44

>  <ligand_id>  (45) 
44

>  <original_smiles>  (45) 
[H]C(=Nc1c([H])c(F)c([H])c(C([H])([H])C([H])([H])C(=O)N2C([H])([H])C([H])([H])C([H])([H])C([H])(n3nc(-c4c([H])c([H])c(Oc5c([H])c([H])c(F)c([H])c5F)c([H])c4[H])c(C(=O)N([H])[H])c3N([H])[H])C2([H])[H])c1[H])C(=O)C([H])([H])Oc1c([H])c([H])c2c(c1[H])C([H])([H])N(C(=O)C([H])(N([H])C(=O)C([H])(N([H])C([H])([H])[H])C([H])([H])[H])C(C([H])([H])[H])(C([H])([H])[H])C([H])([H])[H])C([H])(C(=O)N([H])C1([H])c3c([H])c([H])c([H])c([H])c3C([H])([H])C([H])([H])C1([H])[H])C2([H])[H]

>  <smiles>  (45) 
[H]C(=Nc1c([H])c(F)c([H])c(C([H])([H])C([H])([H])C(=O)N2C([H])([H])C([H])([H])C([H])([H])C([H])(n3nc(-c4c([H])c([H])c(Oc5c([H])c([H])c(F)c([H])c5F)c([H])c4[H])c(C(=O)N([H])[H])c3N([H])[H])C2([H])[H])c1[H])C(=O)C([H])([H])Oc1c([H])c([H])c2c(c1[H])C([H])([H])N(C(=O)C([H])(N([H])C(=O)C([H])(N([H])C([H])([H])[H])C([H])([H])[H])C(C([H])([H])[H])(C([H])([H])[H])C([H])([H])[H])C([H])(C(=O)N([H])C1([H])c3c([H])c([H])c([H])c([H])c3C([H])([H])C([H])([H])C1([H])[H])C2([H])[H]

$$$$
45:0:0
     RDKit          3D

 94102  0  0  1  0  0  0  0  0999 V2000
  -28.5910  -22.1720   21.2730 C   0  0  0  0  0  0  0  0  0  0  0  0
  -29.4880  -22.6470   21.9790 O   0  0  0  0  0  0  0  0  0  0  0  0
  -27.6110  -23.0470   20.4790 C   0  0  0  0  0  2  0  0  0  0  0  0
  -28.2740  -24.3110   19.9200 C   0  0  0  0  0  0  0  0  0  0  0  0
  -28.6830  -24.3530   18.7530 O   0  0  0  0  0  0  0  0  0  0  0  0
  -28.3630  -25.5350   20.8460 C   0  0  0  0  0  2  0  0  0  0  0  0
  -28.4070  -26.7650   20.1060 O   0  0  0  0  0  0  0  0  0  0  0  0
  -24.5910  -31.8890   23.2290 C   0  0  0  0  0  0  0  0  0  0  0  0
  -27.2330  -27.4780   20.1240 C   0  0  0  0  0  0  0  0  0  0  0  0
  -23.3780  -30.4880   21.5890 C   0  0  0  0  0  3  0  0  0  0  0  0
  -24.8280  -28.9560   20.1570 C   0  0  0  0  0  0  0  0  0  0  0  0
  -25.8970  -30.8670   21.3660 C   0  0  0  0  0  2  0  0  0  0  0  0
  -25.9870  -29.4940   20.7310 C   0  0  0  0  0  0  0  0  0  0  0  0
  -27.1960  -28.7640   20.7060 C   0  0  0  0  0  3  0  0  0  0  0  0
  -26.0600  -26.9480   19.5470 C   0  0  0  0  0  3  0  0  0  0  0  0
  -24.8580  -27.6820   19.5600 C   0  0  0  0  0  3  0  0  0  0  0  0
  -23.5800  -29.8070   20.2080 C   0  0  0  0  0  2  0  0  0  0  0  0
  -24.6420  -31.0940   22.1220 N   0  0  0  0  0  0  0  0  0  0  0  0
  -23.5110  -32.1560   23.7760 O   0  0  0  0  0  0  0  0  0  0  0  0
  -22.7360  -29.4650   22.5530 C   0  0  0  0  0  0  0  0  0  0  0  0
  -21.4090  -29.2840   22.4340 N   0  0  0  0  0  0  0  0  0  0  0  0
  -23.4260  -28.8350   23.3580 O   0  0  0  0  0  0  0  0  0  0  0  0
  -20.9160  -29.8470   21.7560 H   0  0  0  0  0  0  0  0  0  0  0  0
  -18.0380  -28.0910   22.9460 C   0  0  0  0  0  0  0  0  0  0  0  0
  -20.5970  -28.3440   23.2050 C   0  0  0  0  0  3  0  0  0  0  0  0
  -20.6930  -26.9160   22.6200 C   0  0  0  0  0  2  0  0  0  0  0  0
  -19.5850  -26.5990   21.6110 C   0  0  0  0  0  2  0  0  0  0  0  0
  -18.2080  -26.7440   22.2640 C   0  0  0  0  0  2  0  0  0  0  0  0
  -19.1600  -28.8500   23.3740 C   0  0  0  0  0  0  0  0  0  0  0  0
  -18.9460  -30.1110   23.9700 C   0  0  0  0  0  3  0  0  0  0  0  0
  -17.6430  -30.6150   24.1430 C   0  0  0  0  0  3  0  0  0  0  0  0
  -16.5360  -29.8530   23.7310 C   0  0  0  0  0  3  0  0  0  0  0  0
  -16.7340  -28.5940   23.1400 C   0  0  0  0  0  3  0  0  0  0  0  0
  -25.8800  -32.5200   23.8450 C   0  0  0  0  0  3  0  0  0  0  0  0
  -25.5720  -33.9170   24.1830 N   0  0  0  0  0  0  0  0  0  0  0  0
  -25.9040  -34.9720   23.4250 C   0  0  0  0  0  0  0  0  0  0  0  0
  -26.5730  -34.8700   22.3920 O   0  0  0  0  0  0  0  0  0  0  0  0
  -24.9800  -34.0680   24.9860 H   0  0  0  0  0  0  0  0  0  0  0  0
  -24.1770  -36.7630   23.0760 C   0  0  0  0  0  1  0  0  0  0  0  0
  -25.4190  -36.3580   23.8870 C   0  0  0  0  0  3  0  0  0  0  0  0
  -27.5570  -37.2350   24.7150 C   0  0  0  0  0  1  0  0  0  0  0  0
  -26.4510  -37.4110   23.7760 N   0  0  0  0  0  0  0  0  0  0  0  0
  -26.0480  -38.3310   23.9300 H   0  0  0  0  0  0  0  0  0  0  0  0
  -26.4060  -31.7410   25.1100 C   0  0  1  0  0  0  0  0  0  0  0  0
  -25.3230  -31.4990   26.1870 C   0  0  0  0  0  1  0  0  0  0  0  0
  -26.9830  -30.3680   24.6980 C   0  0  0  0  0  1  0  0  0  0  0  0
  -27.5670  -32.5280   25.7640 C   0  0  0  0  0  1  0  0  0  0  0  0
  -28.4200  -20.6520   21.1460 C   0  0  0  0  0  2  0  0  0  0  0  0
  -29.0280  -20.1580   19.9190 N   0  0  0  0  0  0  0  0  0  0  0  0
  -29.3100  -20.8500   19.2310 H   0  0  0  0  0  0  0  0  0  0  0  0
  -30.5960  -17.0610   19.0010 C   0  0  0  0  0  3  0  0  0  0  0  0
  -30.3000  -18.4250   18.7680 C   0  0  0  0  0  0  0  0  0  0  0  0
  -29.9670  -16.7660   20.1920 C   0  0  0  0  0  0  0  0  0  0  0  0
  -29.5250  -18.8610   19.7980 C   0  0  0  0  0  0  0  0  0  0  0  0
  -29.2850  -17.8570   20.6980 O   0  0  0  0  0  0  0  0  0  0  0  0
  -30.7090  -19.1640   17.7080 F   0  0  0  0  0  0  0  0  0  0  0  0
  -30.6760  -14.4700   20.4410 C   0  0  0  0  0  0  0  0  0  0  0  0
  -30.3690  -12.2950   19.3520 C   0  0  0  0  0  2  0  0  0  0  0  0
  -29.4450  -12.5170   18.1350 C   0  0  0  0  0  2  0  0  0  0  0  0
  -27.9640  -12.4060   18.5490 C   0  0  0  0  0  2  0  0  0  0  0  0
  -27.6230  -13.2470   19.8100 C   0  0  0  0  0  3  0  0  0  0  0  0
  -28.6690  -13.0240   20.9280 C   0  0  0  0  0  2  0  0  0  0  0  0
  -30.0030  -13.2920   20.3680 N   0  0  0  0  0  0  0  0  0  0  0  0
  -31.8370  -14.6000   20.0440 O   0  0  0  0  0  0  0  0  0  0  0  0
  -29.9290  -15.5370   20.7910 N   0  0  0  0  0  0  0  0  0  0  0  0
  -29.0990  -15.3340   21.3260 H   0  0  0  0  0  0  0  0  0  0  0  0
  -25.2220  -13.8680   20.4990 C   0  0  0  0  0  0  0  0  0  0  0  0
  -24.1500  -13.1020   20.8700 C   0  0  0  0  0  0  0  0  0  0  0  0
  -24.6090  -11.7490   20.8560 C   0  0  0  0  0  0  0  0  0  0  0  0
  -26.2660  -12.9820   20.2820 N   0  0  0  0  0  0  0  0  0  0  0  0
  -25.8990  -11.7030   20.5530 N   0  0  0  0  0  0  0  0  0  0  0  0
  -23.8780  -10.4890   21.0540 C   0  0  0  0  0  0  0  0  0  0  0  0
  -24.3160   -9.5200   21.9840 C   0  0  0  0  0  3  0  0  0  0  0  0
  -23.5870   -8.3250   22.1670 C   0  0  0  0  0  3  0  0  0  0  0  0
  -22.4070   -8.0920   21.4220 C   0  0  0  0  0  0  0  0  0  0  0  0
  -21.9900   -9.0490   20.4800 C   0  0  0  0  0  3  0  0  0  0  0  0
  -22.7190  -10.2350   20.2960 C   0  0  0  0  0  3  0  0  0  0  0  0
  -21.6480   -6.9510   21.5160 O   0  0  0  0  0  0  0  0  0  0  0  0
  -21.6220   -6.1990   22.6630 C   0  0  0  0  0  0  0  0  0  0  0  0
  -21.2400   -6.7480   23.9070 C   0  0  0  0  0  3  0  0  0  0  0  0
  -21.1590   -5.9210   25.0450 C   0  0  0  0  0  3  0  0  0  0  0  0
  -21.4500   -4.5470   24.9420 C   0  0  0  0  0  0  0  0  0  0  0  0
  -21.8250   -3.9990   23.7030 C   0  0  0  0  0  3  0  0  0  0  0  0
  -21.9080   -4.8220   22.5660 C   0  0  0  0  0  0  0  0  0  0  0  0
  -22.2490   -4.2840   21.3700 F   0  0  0  0  0  0  0  0  0  0  0  0
  -21.3640   -3.7510   26.0320 F   0  0  0  0  0  0  0  0  0  0  0  0
  -22.7520  -13.5840   21.1320 C   0  0  0  0  0  0  0  0  0  0  0  0
  -22.0180  -12.8990   22.0010 N   0  0  0  0  0  0  0  0  0  0  0  0
  -22.3200  -14.6060   20.5980 O   0  0  0  0  0  0  0  0  0  0  0  0
  -22.3790  -12.0720   22.4540 H   0  0  0  0  0  0  0  0  0  0  0  0
  -21.0800  -13.2040   22.2160 H   0  0  0  0  0  0  0  0  0  0  0  0
  -25.3910  -15.2370   20.3110 N   0  0  0  0  0  0  0  0  0  0  0  0
  -24.6270  -15.8950   20.4230 H   0  0  0  0  0  0  0  0  0  0  0  0
  -26.2460  -15.6750   19.9940 H   0  0  0  0  0  0  0  0  0  0  0  0
  1  2  2  0
  3  1  1  0
  4  3  1  0
  4  6  1  0
  5  4  2  0
  7  9  1  0
  7  6  1  0
  8 19  2  0
  9 14  1  0
 10 18  1  0
 10 20  1  0
 11 17  1  0
 11 13  1  0
 12 18  1  0
 13 12  1  0
 14 13  2  0
 15 16  1  0
 15  9  2  0
 16 11  2  0
 17 10  1  0
 18  8  1  0
 20 22  2  0
 21 20  1  0
 23 21  1  0
 24 33  2  0
 24 29  1  0
 25 21  1  0
 25 29  1  0
 26 25  1  0
 27 28  1  0
 27 26  1  0
 28 24  1  0
 29 30  2  0
 30 31  1  0
 32 31  2  0
 33 32  1  0
 34  8  1  0
 34 35  1  0
 34 44  1  0
 35 38  1  0
 36 40  1  0
 36 35  1  0
 37 36  2  0
 40 39  1  0
 42 40  1  0
 42 43  1  0
 42 41  1  0
 44 47  1  1
 44 45  1  0
 46 44  1  0
 48  1  1  0
 49 48  1  0
 50 49  1  0
 51 53  2  0
 52 51  1  0
 52 54  2  0
 53 55  1  0
 53 65  1  0
 54 49  1  0
 54 55  1  0
 56 52  1  0
 57 65  1  0
 58 63  1  0
 59 60  1  0
 59 58  1  0
 61 60  1  0
 61 70  1  0
 61 62  1  0
 63 57  1  0
 63 62  1  0
 64 57  2  0
 65 66  1  0
 67 68  2  0
 68 87  1  0
 69 68  1  0
 69 72  1  0
 70 67  1  0
 70 71  1  0
 71 69  2  0
 72 73  1  0
 73 74  2  0
 75 78  1  0
 75 74  1  0
 76 75  2  0
 77 76  1  0
 77 72  2  0
 78 79  1  0
 79 80  1  0
 80 81  2  0
 82 81  1  0
 82 86  1  0
 83 82  2  0
 84 79  2  0
 84 83  1  0
 85 84  1  0
 87 88  1  0
 88 91  1  0
 88 90  1  0
 89 87  2  0
 92 93  1  0
 92 67  1  0
 94 92  1  0
M  ISO  4   6 101   7 101  57 100  65 100
M  END
>  <TORSDO>  (46) 
F 22

>  <SCORE>  (46) 
-13.267

>  <name>  (46) 
45

>  <ligand_id>  (46) 
45

>  <original_smiles>  (46) 
[H]c1c([H])c([H])c2c(c1[H])C([H])([H])C([H])([H])C([H])([H])C2([H])N([H])C(=O)C1([H])N(C(=O)C([H])(N([H])C(=O)C([H])(N([H])C([H])([H])[H])C([H])([H])[H])C(C([H])([H])[H])(C([H])([H])[H])C([H])([H])[H])C([H])([H])c2c([H])c(OC([H])([H])C(=O)C([H])([H])C(=O)C([H])([H])N([H])c3oc(N([H])C(=O)N4C([H])([H])C([H])([H])C([H])([H])C([H])(n5nc(-c6c([H])c([H])c(Oc7c([H])c([H])c(F)c([H])c7F)c([H])c6[H])c(C(=O)N([H])[H])c5N([H])[H])C4([H])[H])c([H])c3F)c([H])c([H])c2C1([H])[H]

>  <smiles>  (46) 
[H]c1c([H])c([H])c2c(c1[H])C([H])([H])C([H])([H])C([H])([H])C2([H])N([H])C(=O)C1([H])N(C(=O)C([H])(N([H])C(=O)C([H])(N([H])C([H])([H])[H])C([H])([H])[H])C(C([H])([H])[H])(C([H])([H])[H])C([H])([H])[H])C([H])([H])c2c([H])c(OC([H])([H])C(=O)C([H])([H])C(=O)C([H])([H])N([H])c3oc(N([H])C(=O)N4C([H])([H])C([H])([H])C([H])([H])C([H])(n5nc(-c6c([H])c([H])c(Oc7c([H])c([H])c(F)c([H])c7F)c([H])c6[H])c(C(=O)N([H])[H])c5N([H])[H])C4([H])[H])c([H])c3F)c([H])c([H])c2C1([H])[H]

$$$$
46:0:0
     RDKit          3D

 92100  0  0  1  0  0  0  0  0999 V2000
  -29.5350  -21.3560   20.8890 C   0  0  0  0  0  0  0  0  0  0  0  0
  -29.4530  -22.4460   20.0490 N   0  0  0  0  0  0  0  0  0  0  0  0
  -29.4560  -21.5400   22.1050 O   0  0  0  0  0  0  0  0  0  0  0  0
  -29.4910  -22.2020   19.0690 H   0  0  0  0  0  0  0  0  0  0  0  0
  -30.3060  -17.9040   19.1580 C   0  0  0  0  0  3  0  0  0  0  0  0
  -30.1820  -19.3580   19.1620 C   0  0  0  0  0  0  0  0  0  0  0  0
  -29.7410  -19.9030   20.3600 C   0  0  0  0  0  0  0  0  0  0  0  0
  -29.9740  -17.2390   20.3230 C   0  0  0  0  0  0  0  0  0  0  0  0
  -30.5180  -20.1650   17.9410 C   0  0  0  0  0  1  0  0  0  0  0  0
  -29.4850  -18.5190   21.4730 S   0  0  0  0  0  0  0  0  0  0  0  0
  -30.6260  -14.7820   20.1120 C   0  0  0  0  0  0  0  0  0  0  0  0
  -30.3940  -12.5380   19.0420 C   0  0  0  0  0  2  0  0  0  0  0  0
  -29.4010  -12.6530   17.8620 C   0  0  0  0  0  2  0  0  0  0  0  0
  -27.9490  -12.4710   18.3460 C   0  0  0  0  0  2  0  0  0  0  0  0
  -27.6320  -13.3190   19.6060 C   0  0  0  0  0  3  0  0  0  0  0  0
  -28.7350  -13.1770   20.6800 C   0  0  0  0  0  2  0  0  0  0  0  0
  -30.0130  -13.5500   20.0540 N   0  0  0  0  0  0  0  0  0  0  0  0
  -31.7630  -14.9280   19.6540 O   0  0  0  0  0  0  0  0  0  0  0  0
  -29.8920  -15.8590   20.5800 N   0  0  0  0  0  0  0  0  0  0  0  0
  -29.0720  -15.5800   21.1020 H   0  0  0  0  0  0  0  0  0  0  0  0
  -25.2630  -13.8940   20.4140 C   0  0  0  0  0  0  0  0  0  0  0  0
  -24.2130  -13.1120   20.8120 C   0  0  0  0  0  0  0  0  0  0  0  0
  -24.6820  -11.7630   20.7520 C   0  0  0  0  0  0  0  0  0  0  0  0
  -26.3030  -13.0220   20.1350 N   0  0  0  0  0  0  0  0  0  0  0  0
  -25.9620  -11.7340   20.4010 N   0  0  0  0  0  0  0  0  0  0  0  0
  -23.9670  -10.4960   20.9560 C   0  0  0  0  0  0  0  0  0  0  0  0
  -24.4180   -9.5350   21.8890 C   0  0  0  0  0  3  0  0  0  0  0  0
  -23.7030   -8.3330   22.0800 C   0  0  0  0  0  3  0  0  0  0  0  0
  -22.5240   -8.0810   21.3390 C   0  0  0  0  0  0  0  0  0  0  0  0
  -22.0920   -9.0310   20.3970 C   0  0  0  0  0  3  0  0  0  0  0  0
  -22.8060  -10.2250   20.2020 C   0  0  0  0  0  3  0  0  0  0  0  0
  -21.7800   -6.9310   21.4390 O   0  0  0  0  0  0  0  0  0  0  0  0
  -21.7260   -6.2080   22.6050 C   0  0  0  0  0  0  0  0  0  0  0  0
  -21.2710   -6.7790   23.8150 C   0  0  0  0  0  3  0  0  0  0  0  0
  -21.1640   -5.9820   24.9720 C   0  0  0  0  0  3  0  0  0  0  0  0
  -21.5020   -4.6160   24.9220 C   0  0  0  0  0  0  0  0  0  0  0  0
  -21.9510   -4.0460   23.7180 C   0  0  0  0  0  3  0  0  0  0  0  0
  -22.0610   -4.8400   22.5630 C   0  0  0  0  0  0  0  0  0  0  0  0
  -22.4720   -4.2800   21.4000 F   0  0  0  0  0  0  0  0  0  0  0  0
  -21.3930   -3.8490   26.0330 F   0  0  0  0  0  0  0  0  0  0  0  0
  -22.8250  -13.5790   21.1340 C   0  0  0  0  0  0  0  0  0  0  0  0
  -22.1280  -12.8720   22.0180 N   0  0  0  0  0  0  0  0  0  0  0  0
  -22.3660  -14.6090   20.6390 O   0  0  0  0  0  0  0  0  0  0  0  0
  -22.5130  -12.0400   22.4380 H   0  0  0  0  0  0  0  0  0  0  0  0
  -21.1990  -13.1710   22.2770 H   0  0  0  0  0  0  0  0  0  0  0  0
  -25.4150  -15.2670   20.2430 N   0  0  0  0  0  0  0  0  0  0  0  0
  -24.6500  -15.9160   20.3900 H   0  0  0  0  0  0  0  0  0  0  0  0
  -26.2440  -15.7120   19.8680 H   0  0  0  0  0  0  0  0  0  0  0  0
  -29.5320  -23.9600   20.3090 C   0  0  0  0  0  2  0  0  0  0  0  0
  -27.0730  -24.1410   19.7510 C   0  0  0  0  0  1  0  0  0  0  0  0
  -28.2140  -24.8860   20.4770 C   0  0  0  0  0  3  0  0  0  0  0  0
  -28.3460  -26.3850   20.1990 O   0  0  0  0  0  0  0  0  0  0  0  0
  -24.6170  -31.9020   23.2340 C   0  0  0  0  0  0  0  0  0  0  0  0
  -27.2400  -27.2830   20.1890 C   0  0  0  0  0  0  0  0  0  0  0  0
  -23.4240  -30.4920   21.6000 C   0  0  0  0  0  3  0  0  0  0  0  0
  -24.8810  -28.9480   20.1760 C   0  0  0  0  0  0  0  0  0  0  0  0
  -25.9680  -30.7950   21.4330 C   0  0  0  0  0  2  0  0  0  0  0  0
  -26.0510  -29.4100   20.7930 C   0  0  0  0  0  0  0  0  0  0  0  0
  -27.2280  -28.5880   20.8010 C   0  0  0  0  0  3  0  0  0  0  0  0
  -26.0670  -26.9480   19.4770 C   0  0  0  0  0  3  0  0  0  0  0  0
  -24.8960  -27.7200   19.5050 C   0  0  0  0  0  3  0  0  0  0  0  0
  -23.6430  -29.8190   20.2220 C   0  0  0  0  0  2  0  0  0  0  0  0
  -24.6880  -31.0840   22.1420 N   0  0  0  0  0  0  0  0  0  0  0  0
  -23.5330  -32.1840   23.7610 O   0  0  0  0  0  0  0  0  0  0  0  0
  -22.7580  -29.4770   22.5600 C   0  0  0  0  0  0  0  0  0  0  0  0
  -21.4320  -29.3020   22.4330 N   0  0  0  0  0  0  0  0  0  0  0  0
  -23.4340  -28.8500   23.3810 O   0  0  0  0  0  0  0  0  0  0  0  0
  -20.9450  -29.8580   21.7450 H   0  0  0  0  0  0  0  0  0  0  0  0
  -18.0510  -28.1110   22.9450 C   0  0  0  0  0  0  0  0  0  0  0  0
  -20.6120  -28.3630   23.2020 C   0  0  0  0  0  3  0  0  0  0  0  0
  -20.7060  -26.9310   22.6240 C   0  0  0  0  0  2  0  0  0  0  0  0
  -19.5990  -26.6160   21.6130 C   0  0  0  0  0  2  0  0  0  0  0  0
  -18.2200  -26.7640   22.2630 C   0  0  0  0  0  2  0  0  0  0  0  0
  -19.1740  -28.8690   23.3690 C   0  0  0  0  0  0  0  0  0  0  0  0
  -18.9630  -30.1320   23.9660 C   0  0  0  0  0  3  0  0  0  0  0  0
  -17.6610  -30.6370   24.1390 C   0  0  0  0  0  3  0  0  0  0  0  0
  -16.5510  -29.8750   23.7320 C   0  0  0  0  0  3  0  0  0  0  0  0
  -16.7470  -28.6140   23.1400 C   0  0  0  0  0  3  0  0  0  0  0  0
  -25.8980  -32.5380   23.8560 C   0  0  0  0  0  3  0  0  0  0  0  0
  -26.4140  -31.7720   25.1360 C   0  0  1  0  0  0  0  0  0  0  0  0
  -25.3190  -31.5340   26.2010 C   0  0  0  0  0  1  0  0  0  0  0  0
  -27.0050  -30.3940   24.7520 C   0  0  0  0  0  1  0  0  0  0  0  0
  -27.5580  -32.5760   25.8000 C   0  0  0  0  0  1  0  0  0  0  0  0
  -25.5830  -33.9360   24.1830 N   0  0  0  0  0  0  0  0  0  0  0  0
  -25.9110  -34.9900   23.4230 C   0  0  0  0  0  0  0  0  0  0  0  0
  -26.5800  -34.8900   22.3910 O   0  0  0  0  0  0  0  0  0  0  0  0
  -24.9810  -34.0870   24.9790 H   0  0  0  0  0  0  0  0  0  0  0  0
  -24.1780  -36.7820   23.0730 C   0  0  0  0  0  1  0  0  0  0  0  0
  -25.4190  -36.3770   23.8820 C   0  0  0  0  0  3  0  0  0  0  0  0
  -27.5510  -37.2670   24.7160 C   0  0  0  0  0  1  0  0  0  0  0  0
  -26.4490  -37.4310   23.7720 N   0  0  0  0  0  0  0  0  0  0  0  0
  -26.0390  -38.3490   23.9240 H   0  0  0  0  0  0  0  0  0  0  0  0
  1  3  2  0
  2 49  1  0
  2  1  1  0
  4  2  1  0
  5  6  1  0
  5  8  2  0
  6  7  2  0
  7  1  1  0
  7 10  1  0
  8 19  1  0
  8 10  1  0
  9  6  1  0
 11 19  1  0
 12 17  1  0
 13 14  1  0
 13 12  1  0
 15 14  1  0
 15 24  1  0
 15 16  1  0
 17 11  1  0
 17 16  1  0
 18 11  2  0
 19 20  1  0
 21 22  2  0
 22 41  1  0
 23 22  1  0
 23 26  1  0
 24 25  1  0
 24 21  1  0
 25 23  2  0
 26 27  1  0
 27 28  2  0
 29 32  1  0
 29 28  1  0
 30 29  2  0
 31 30  1  0
 31 26  2  0
 32 33  1  0
 33 34  1  0
 34 35  2  0
 36 35  1  0
 36 40  1  0
 37 36  2  0
 38 33  2  0
 38 37  1  0
 39 38  1  0
 41 42  1  0
 42 45  1  0
 42 44  1  0
 43 41  2  0
 46 47  1  0
 46 21  1  0
 48 46  1  0
 49 51  1  0
 51 50  1  0
 52 51  1  0
 53 64  2  0
 54 52  1  0
 54 59  1  0
 55 63  1  0
 55 65  1  0
 56 62  1  0
 56 58  1  0
 57 63  1  0
 58 59  2  0
 58 57  1  0
 60 61  1  0
 60 54  2  0
 61 56  2  0
 62 55  1  0
 63 53  1  0
 65 67  2  0
 66 65  1  0
 68 66  1  0
 69 78  2  0
 69 74  1  0
 70 66  1  0
 70 74  1  0
 71 70  1  0
 72 73  1  0
 72 71  1  0
 73 69  1  0
 74 75  2  0
 75 76  1  0
 77 76  2  0
 78 77  1  0
 79 53  1  0
 79 84  1  0
 79 80  1  0
 80 83  1  1
 80 81  1  0
 82 80  1  0
 84 87  1  0
 85 89  1  0
 85 84  1  0
 86 85  2  0
 89 88  1  0
 91 89  1  0
 91 92  1  0
 91 90  1  0
M  ISO  4  11 100  19 100  51 101  52 101
M  END
>  <TORSDO>  (47) 
F 19

>  <SCORE>  (47) 
-13.820

>  <name>  (47) 
46

>  <ligand_id>  (47) 
46

>  <original_smiles>  (47) 
[H]c1c([H])c([H])c2c(c1[H])C([H])([H])C([H])([H])C([H])([H])C2([H])N([H])C(=O)C1([H])N(C(=O)C([H])(N([H])C(=O)C([H])(N([H])C([H])([H])[H])C([H])([H])[H])C(C([H])([H])[H])(C([H])([H])[H])C([H])([H])[H])C([H])([H])c2c([H])c(OC([H])(C([H])([H])[H])C([H])([H])N([H])C(=O)c3sc(N([H])C(=O)N4C([H])([H])C([H])([H])C([H])([H])C([H])(n5nc(-c6c([H])c([H])c(Oc7c([H])c([H])c(F)c([H])c7F)c([H])c6[H])c(C(=O)N([H])[H])c5N([H])[H])C4([H])[H])c([H])c3C([H])([H])[H])c([H])c([H])c2C1([H])[H]

>  <smiles>  (47) 
[H]c1c([H])c([H])c2c(c1[H])C([H])([H])C([H])([H])C([H])([H])C2([H])N([H])C(=O)C1([H])N(C(=O)C([H])(N([H])C(=O)C([H])(N([H])C([H])([H])[H])C([H])([H])[H])C(C([H])([H])[H])(C([H])([H])[H])C([H])([H])[H])C([H])([H])c2c([H])c(OC([H])(C([H])([H])[H])C([H])([H])N([H])C(=O)c3sc(N([H])C(=O)N4C([H])([H])C([H])([H])C([H])([H])C([H])(n5nc(-c6c([H])c([H])c(Oc7c([H])c([H])c(F)c([H])c7F)c([H])c6[H])c(C(=O)N([H])[H])c5N([H])[H])C4([H])[H])c([H])c3C([H])([H])[H])c([H])c([H])c2C1([H])[H]

$$$$
47:0:0
     RDKit          3D

 97105  0  0  1  0  0  0  0  0999 V2000
  -29.5630  -21.4660   20.5740 C   0  0  0  0  0  0  0  0  0  0  0  0
  -29.7740  -21.4060   21.8410 N   0  0  0  0  0  0  0  0  0  0  0  0
  -29.8030  -18.8090   20.2260 C   0  0  0  0  0  3  0  0  0  0  0  0
  -30.9430  -17.8940   18.2970 C   0  0  0  0  0  3  0  0  0  0  0  0
  -30.0000  -20.1910   19.7790 C   0  0  0  0  0  0  0  0  0  0  0  0
  -30.2790  -17.6300   19.5160 C   0  0  0  0  0  0  0  0  0  0  0  0
  -31.1600  -19.2060   17.8390 C   0  0  0  0  0  0  0  0  0  0  0  0
  -30.7250  -20.3310   18.5720 C   0  0  0  0  0  0  0  0  0  0  0  0
  -31.8000  -19.3880   16.6600 F   0  0  0  0  0  0  0  0  0  0  0  0
  -31.0510  -21.5600   18.1030 F   0  0  0  0  0  0  0  0  0  0  0  0
  -30.8390  -15.0840   19.7870 C   0  0  0  0  0  0  0  0  0  0  0  0
  -30.6430  -12.7180   19.0090 C   0  0  0  0  0  2  0  0  0  0  0  0
  -29.6780  -12.6550   17.8050 C   0  0  0  0  0  2  0  0  0  0  0  0
  -28.2290  -12.4930   18.2980 C   0  0  0  0  0  2  0  0  0  0  0  0
  -27.8600  -13.5080   19.4130 C   0  0  0  0  0  3  0  0  0  0  0  0
  -28.9420  -13.5600   20.5160 C   0  0  0  0  0  2  0  0  0  0  0  0
  -30.2230  -13.8550   19.8630 N   0  0  0  0  0  0  0  0  0  0  0  0
  -32.0150  -15.1480   19.4300 O   0  0  0  0  0  0  0  0  0  0  0  0
  -30.0610  -16.2230   19.9570 N   0  0  0  0  0  0  0  0  0  0  0  0
  -29.1550  -16.0260   20.3520 H   0  0  0  0  0  0  0  0  0  0  0  0
  -25.5170  -14.1560   20.2520 C   0  0  0  0  0  0  0  0  0  0  0  0
  -24.4470  -13.4000   20.6560 C   0  0  0  0  0  0  0  0  0  0  0  0
  -24.8770  -12.0400   20.5860 C   0  0  0  0  0  0  0  0  0  0  0  0
  -26.5300  -13.2530   19.9600 N   0  0  0  0  0  0  0  0  0  0  0  0
  -26.1520  -11.9760   20.2260 N   0  0  0  0  0  0  0  0  0  0  0  0
  -24.1290  -10.7910   20.7900 C   0  0  0  0  0  0  0  0  0  0  0  0
  -24.5610   -9.8200   21.7190 C   0  0  0  0  0  3  0  0  0  0  0  0
  -23.8190   -8.6360   21.9130 C   0  0  0  0  0  3  0  0  0  0  0  0
  -22.6320   -8.4130   21.1760 C   0  0  0  0  0  0  0  0  0  0  0  0
  -22.2180   -9.3740   20.2370 C   0  0  0  0  0  3  0  0  0  0  0  0
  -22.9590  -10.5500   20.0420 C   0  0  0  0  0  3  0  0  0  0  0  0
  -21.8630   -7.2780   21.2750 O   0  0  0  0  0  0  0  0  0  0  0  0
  -21.8160   -6.5390   22.4300 C   0  0  0  0  0  0  0  0  0  0  0  0
  -21.3730   -7.0940   23.6500 C   0  0  0  0  0  3  0  0  0  0  0  0
  -21.2740   -6.2830   24.7970 C   0  0  0  0  0  3  0  0  0  0  0  0
  -21.6070   -4.9160   24.7260 C   0  0  0  0  0  0  0  0  0  0  0  0
  -22.0420   -4.3610   23.5100 C   0  0  0  0  0  3  0  0  0  0  0  0
  -22.1420   -5.1690   22.3650 C   0  0  0  0  0  0  0  0  0  0  0  0
  -22.5410   -4.6250   21.1910 F   0  0  0  0  0  0  0  0  0  0  0  0
  -21.5040   -4.1350   25.8260 F   0  0  0  0  0  0  0  0  0  0  0  0
  -23.0740  -13.9040   20.9920 C   0  0  0  0  0  0  0  0  0  0  0  0
  -22.3670  -13.2080   21.8750 N   0  0  0  0  0  0  0  0  0  0  0  0
  -22.6400  -14.9490   20.5110 O   0  0  0  0  0  0  0  0  0  0  0  0
  -22.7320  -12.3600   22.2840 H   0  0  0  0  0  0  0  0  0  0  0  0
  -21.4490  -13.5270   22.1470 H   0  0  0  0  0  0  0  0  0  0  0  0
  -25.7010  -15.5240   20.0840 N   0  0  0  0  0  0  0  0  0  0  0  0
  -24.9450  -16.1820   20.2330 H   0  0  0  0  0  0  0  0  0  0  0  0
  -26.5290  -15.9530   19.6880 H   0  0  0  0  0  0  0  0  0  0  0  0
  -28.7910  -22.6640   19.8030 C   0  0  0  0  0  0  0  0  0  0  0  0
  -27.8960  -22.2960   19.0340 O   0  0  0  0  0  0  0  0  0  0  0  0
  -28.1850  -25.1880   19.4260 C   0  0  0  0  0  3  0  0  0  0  0  0
  -29.0140  -24.2070   19.9660 C   0  0  0  0  0  0  0  0  0  0  0  0
  -30.1090  -24.5970   20.6360 O   0  0  0  0  0  0  0  0  0  0  0  0
  -30.1490  -25.5450   20.5680 H   0  0  0  0  0  0  0  0  0  0  0  0
  -28.3130  -26.6200   19.4660 O   0  0  0  0  0  0  0  0  0  0  0  0
  -24.6880  -31.7960   23.0780 C   0  0  0  0  0  0  0  0  0  0  0  0
  -27.1920  -27.4910   19.5210 C   0  0  0  0  0  0  0  0  0  0  0  0
  -23.4210  -30.4710   21.4280 C   0  0  0  0  0  3  0  0  0  0  0  0
  -24.8110  -29.0740   19.7970 C   0  0  0  0  0  0  0  0  0  0  0  0
  -25.9320  -30.8790   21.0920 C   0  0  0  0  0  2  0  0  0  0  0  0
  -26.0100  -29.5420   20.3500 C   0  0  0  0  0  0  0  0  0  0  0  0
  -27.2000  -28.7550   20.2120 C   0  0  0  0  0  3  0  0  0  0  0  0
  -25.9650  -27.1180   18.9240 C   0  0  0  0  0  3  0  0  0  0  0  0
  -24.7880  -27.8710   19.0820 C   0  0  0  0  0  3  0  0  0  0  0  0
  -23.5600  -29.9050   19.9920 C   0  0  0  0  0  2  0  0  0  0  0  0
  -24.7050  -31.0670   21.9220 N   0  0  0  0  0  0  0  0  0  0  0  0
  -23.6350  -31.9930   23.7020 O   0  0  0  0  0  0  0  0  0  0  0  0
  -22.8590  -29.3660   22.3580 C   0  0  0  0  0  0  0  0  0  0  0  0
  -21.5500  -29.0810   22.2510 N   0  0  0  0  0  0  0  0  0  0  0  0
  -23.6050  -28.7670   23.1380 O   0  0  0  0  0  0  0  0  0  0  0  0
  -20.9980  -29.6250   21.6030 H   0  0  0  0  0  0  0  0  0  0  0  0
  -18.3160  -27.5160   22.7130 C   0  0  0  0  0  0  0  0  0  0  0  0
  -20.8310  -28.0470   23.0000 C   0  0  0  0  0  3  0  0  0  0  0  0
  -21.0880  -26.6450   22.3960 C   0  0  0  0  0  2  0  0  0  0  0  0
  -20.0290  -26.2280   21.3710 C   0  0  0  0  0  2  0  0  0  0  0  0
  -18.6380  -26.2080   22.0090 C   0  0  0  0  0  2  0  0  0  0  0  0
  -19.3440  -28.3860   23.1640 C   0  0  0  0  0  0  0  0  0  0  0  0
  -18.9850  -29.6060   23.7780 C   0  0  0  0  0  3  0  0  0  0  0  0
  -17.6320  -29.9580   23.9480 C   0  0  0  0  0  3  0  0  0  0  0  0
  -16.6190  -29.0860   23.5120 C   0  0  0  0  0  3  0  0  0  0  0  0
  -16.9620  -27.8660   22.9030 C   0  0  0  0  0  3  0  0  0  0  0  0
  -25.9850  -32.4390   23.6540 C   0  0  0  0  0  3  0  0  0  0  0  0
  -25.6630  -33.8120   24.0720 N   0  0  0  0  0  0  0  0  0  0  0  0
  -25.9500  -34.9100   23.3620 C   0  0  0  0  0  0  0  0  0  0  0  0
  -26.5820  -34.8730   22.3010 O   0  0  0  0  0  0  0  0  0  0  0  0
  -25.1060  -33.9140   24.9090 H   0  0  0  0  0  0  0  0  0  0  0  0
  -24.1800  -36.6830   23.1680 C   0  0  0  0  0  1  0  0  0  0  0  0
  -25.4620  -36.2660   23.9100 C   0  0  0  0  0  3  0  0  0  0  0  0
  -27.6110  -37.1510   24.6990 C   0  0  0  0  0  1  0  0  0  0  0  0
  -26.4710  -37.3440   23.8050 N   0  0  0  0  0  0  0  0  0  0  0  0
  -26.0570  -38.2500   24.0090 H   0  0  0  0  0  0  0  0  0  0  0  0
  -26.5980  -31.6270   24.8590 C   0  0  1  0  0  0  0  0  0  0  0  0
  -25.5800  -31.3200   25.9820 C   0  0  0  0  0  1  0  0  0  0  0  0
  -27.1850  -30.2840   24.3700 C   0  0  0  0  0  1  0  0  0  0  0  0
  -27.7750  -32.4170   25.4800 C   0  0  0  0  0  1  0  0  0  0  0  0
  -29.7590  -22.4890   23.8720 C   0  0  0  0  0  1  0  0  0  0  0  0
  -29.1370  -22.4130   22.5880 O   0  0  0  0  0  0  0  0  0  0  0  0
  1  2  2  0
  2 97  1  0
  4  6  1  0
  5  3  1  0
  5  1  1  0
  6 19  1  0
  6  3  2  0
  7  4  2  0
  7  8  1  0
  8  5  2  0
  9  7  1  0
 10  8  1  0
 11 17  1  0
 11 19  1  0
 12 17  1  0
 13 14  1  0
 13 12  1  0
 15 14  1  0
 15 24  1  0
 15 16  1  0
 17 16  1  0
 18 11  2  0
 19 20  1  0
 21 22  2  0
 22 41  1  0
 23 22  1  0
 23 26  1  0
 24 25  1  0
 24 21  1  0
 25 23  2  0
 26 27  1  0
 27 28  2  0
 29 32  1  0
 29 28  1  0
 30 29  2  0
 31 30  1  0
 31 26  2  0
 32 33  1  0
 33 34  1  0
 34 35  2  0
 36 35  1  0
 36 40  1  0
 37 36  2  0
 38 33  2  0
 38 37  1  0
 39 38  1  0
 41 42  1  0
 42 45  1  0
 42 44  1  0
 43 41  2  0
 46 47  1  0
 46 21  1  0
 48 46  1  0
 49 52  1  0
 49  1  1  0
 50 49  2  0
 51 55  1  0
 51 52  2  0
 52 53  1  0
 54 53  1  0
 55 57  1  0
 56 67  2  0
 57 62  1  0
 58 66  1  0
 58 68  1  0
 59 65  1  0
 59 61  1  0
 60 66  1  0
 61 60  1  0
 62 61  2  0
 63 64  1  0
 63 57  2  0
 64 59  2  0
 65 58  1  0
 66 56  1  0
 68 70  2  0
 69 68  1  0
 71 69  1  0
 72 81  2  0
 72 77  1  0
 73 69  1  0
 73 77  1  0
 74 73  1  0
 75 76  1  0
 75 74  1  0
 76 72  1  0
 77 78  2  0
 78 79  1  0
 80 79  2  0
 81 80  1  0
 82 56  1  0
 82 83  1  0
 82 92  1  0
 83 86  1  0
 84 88  1  0
 84 83  1  0
 85 84  2  0
 88 87  1  0
 90 88  1  0
 90 91  1  0
 90 89  1  0
 92 95  1  1
 92 93  1  0
 94 92  1  0
 97 96  1  0
M  ISO  4  11 100  19 100  51 101  55 101
M  END
>  <TORSDO>  (48) 
F 21

>  <SCORE>  (48) 
-13.092

>  <name>  (48) 
47

>  <ligand_id>  (48) 
47

>  <original_smiles>  (48) 
[H]OC(C(=O)C(=NOC([H])([H])[H])c1c([H])c(N([H])C(=O)N2C([H])([H])C([H])([H])C([H])([H])C([H])(n3nc(-c4c([H])c([H])c(Oc5c([H])c([H])c(F)c([H])c5F)c([H])c4[H])c(C(=O)N([H])[H])c3N([H])[H])C2([H])[H])c([H])c(F)c1F)=C([H])Oc1c([H])c([H])c2c(c1[H])C([H])([H])N(C(=O)C([H])(N([H])C(=O)C([H])(N([H])C([H])([H])[H])C([H])([H])[H])C(C([H])([H])[H])(C([H])([H])[H])C([H])([H])[H])C([H])(C(=O)N([H])C1([H])c3c([H])c([H])c([H])c([H])c3C([H])([H])C([H])([H])C1([H])[H])C2([H])[H]

>  <smiles>  (48) 
[H]OC(C(=O)C(=NOC([H])([H])[H])c1c([H])c(N([H])C(=O)N2C([H])([H])C([H])([H])C([H])([H])C([H])(n3nc(-c4c([H])c([H])c(Oc5c([H])c([H])c(F)c([H])c5F)c([H])c4[H])c(C(=O)N([H])[H])c3N([H])[H])C2([H])[H])c([H])c(F)c1F)=C([H])Oc1c([H])c([H])c2c(c1[H])C([H])([H])N(C(=O)C([H])(N([H])C(=O)C([H])(N([H])C([H])([H])[H])C([H])([H])[H])C(C([H])([H])[H])(C([H])([H])[H])C([H])([H])[H])C([H])(C(=O)N([H])C1([H])c3c([H])c([H])c([H])c([H])c3C([H])([H])C([H])([H])C1([H])[H])C2([H])[H]

$$$$
48:0:0
     RDKit          3D

 98106  0  0  1  0  0  0  0  0999 V2000
  -29.3120  -17.6930   20.6850 C   0  0  0  0  0  3  0  0  0  0  0  0
  -31.0570  -16.9750   19.2020 C   0  0  0  0  0  3  0  0  0  0  0  0
  -29.1820  -18.8630   19.9120 C   0  0  0  0  0  0  0  0  0  0  0  0
  -30.2590  -16.7150   20.3370 C   0  0  0  0  0  0  0  0  0  0  0  0
  -30.0260  -19.0550   18.7890 C   0  0  0  0  0  0  0  0  0  0  0  0
  -30.5490  -20.8410   17.0640 C   0  0  0  0  0  0  0  0  0  0  0  0
  -30.9420  -18.1060   18.4600 N   0  0  0  0  0  0  0  0  0  0  0  0
  -29.8460  -20.2670   18.0590 N   0  0  0  0  0  0  0  0  0  0  0  0
  -31.5630  -20.3810   16.5220 O   0  0  0  0  0  0  0  0  0  0  0  0
  -29.0700  -20.8470   18.3510 H   0  0  0  0  0  0  0  0  0  0  0  0
  -31.1360  -14.4780   21.0490 C   0  0  0  0  0  0  0  0  0  0  0  0
  -31.0890  -12.0150   20.8390 C   0  0  0  0  0  2  0  0  0  0  0  0
  -30.4380  -11.6610   19.4850 C   0  0  0  0  0  2  0  0  0  0  0  0
  -28.9010  -11.6090   19.6000 C   0  0  0  0  0  2  0  0  0  0  0  0
  -28.3150  -12.8540   20.3160 C   0  0  0  0  0  3  0  0  0  0  0  0
  -29.0840  -13.1300   21.6270 C   0  0  0  0  0  2  0  0  0  0  0  0
  -30.5150  -13.2910   21.2930 N   0  0  0  0  0  0  0  0  0  0  0  0
  -32.3190  -14.5670   20.7080 O   0  0  0  0  0  0  0  0  0  0  0  0
  -30.3260  -15.5460   21.1580 N   0  0  0  0  0  0  0  0  0  0  0  0
  -29.4600  -15.3110   21.6190 H   0  0  0  0  0  0  0  0  0  0  0  0
  -25.9060  -13.6970   20.6660 C   0  0  0  0  0  0  0  0  0  0  0  0
  -24.7180  -13.0330   20.8100 C   0  0  0  0  0  0  0  0  0  0  0  0
  -25.0360  -11.6420   20.7650 C   0  0  0  0  0  0  0  0  0  0  0  0
  -26.8790  -12.7150   20.5490 N   0  0  0  0  0  0  0  0  0  0  0  0
  -26.3470  -11.4710   20.6610 N   0  0  0  0  0  0  0  0  0  0  0  0
  -24.1610  -10.4620   20.7560 C   0  0  0  0  0  0  0  0  0  0  0  0
  -24.4240   -9.3420   21.5760 C   0  0  0  0  0  3  0  0  0  0  0  0
  -23.5600   -8.2260   21.5620 C   0  0  0  0  0  3  0  0  0  0  0  0
  -22.4180   -8.2230   20.7270 C   0  0  0  0  0  0  0  0  0  0  0  0
  -22.1740   -9.3300   19.8940 C   0  0  0  0  0  3  0  0  0  0  0  0
  -23.0390  -10.4370   19.9060 C   0  0  0  0  0  3  0  0  0  0  0  0
  -21.5390   -7.1720   20.6280 O   0  0  0  0  0  0  0  0  0  0  0  0
  -21.4420   -6.2180   21.6100 C   0  0  0  0  0  0  0  0  0  0  0  0
  -21.1260   -6.5540   22.9440 C   0  0  0  0  0  3  0  0  0  0  0  0
  -20.9680   -5.5360   23.9080 C   0  0  0  0  0  3  0  0  0  0  0  0
  -21.1180   -4.1860   23.5370 C   0  0  0  0  0  0  0  0  0  0  0  0
  -21.4290   -3.8500   22.2080 C   0  0  0  0  0  3  0  0  0  0  0  0
  -21.5880   -4.8650   21.2460 C   0  0  0  0  0  0  0  0  0  0  0  0
  -21.8660   -4.5340   19.9620 F   0  0  0  0  0  0  0  0  0  0  0  0
  -20.9590   -3.2090   24.4590 F   0  0  0  0  0  0  0  0  0  0  0  0
  -23.3510  -13.6520   20.8890 C   0  0  0  0  0  0  0  0  0  0  0  0
  -22.4320  -13.0180   21.6090 N   0  0  0  0  0  0  0  0  0  0  0  0
  -23.1040  -14.7290   20.3490 O   0  0  0  0  0  0  0  0  0  0  0  0
  -22.6400  -12.1440   22.0690 H   0  0  0  0  0  0  0  0  0  0  0  0
  -21.5070  -13.4140   21.7030 H   0  0  0  0  0  0  0  0  0  0  0  0
  -26.2400  -15.0480   20.6040 N   0  0  0  0  0  0  0  0  0  0  0  0
  -25.5330  -15.7750   20.6110 H   0  0  0  0  0  0  0  0  0  0  0  0
  -27.1660  -15.3970   20.3980 H   0  0  0  0  0  0  0  0  0  0  0  0
  -29.9160  -22.2110   16.6450 C   0  0  0  0  0  0  0  0  0  0  0  0
  -28.7870  -22.5420   17.0310 O   0  0  0  0  0  0  0  0  0  0  0  0
  -30.7530  -23.1310   15.7310 C   0  0  0  0  0  2  0  0  0  0  0  0
  -30.1700  -24.5470   15.4640 C   0  0  0  0  0  2  0  0  0  0  0  0
  -30.0420  -25.3550   16.6510 O   0  0  0  0  0  0  0  0  0  0  0  0
  -25.6870  -27.9520   21.6700 C   0  0  0  0  0  0  0  0  0  0  0  0
  -28.8690  -26.0530   16.9020 C   0  0  0  0  0  0  0  0  0  0  0  0
  -24.7840  -27.9270   19.3700 C   0  0  0  0  0  3  0  0  0  0  0  0
  -26.4710  -27.4430   17.5210 C   0  0  0  0  0  0  0  0  0  0  0  0
  -27.3050  -28.1110   19.7780 C   0  0  0  0  0  2  0  0  0  0  0  0
  -27.5140  -27.4020   18.4530 C   0  0  0  0  0  0  0  0  0  0  0  0
  -28.7100  -26.7090   18.1490 C   0  0  0  0  0  3  0  0  0  0  0  0
  -27.7910  -26.0960   15.9860 C   0  0  0  0  0  3  0  0  0  0  0  0
  -26.6040  -26.7870   16.2870 C   0  0  0  0  0  3  0  0  0  0  0  0
  -25.2230  -28.2020   17.9080 C   0  0  0  0  0  2  0  0  0  0  0  0
  -25.9340  -27.9730   20.3300 N   0  0  0  0  0  0  0  0  0  0  0  0
  -24.5280  -27.9370   22.1090 O   0  0  0  0  0  0  0  0  0  0  0  0
  -24.0040  -26.5930   19.4100 C   0  0  0  0  0  0  0  0  0  0  0  0
  -22.7300  -26.6300   18.9880 N   0  0  0  0  0  0  0  0  0  0  0  0
  -24.5500  -25.5530   19.7890 O   0  0  0  0  0  0  0  0  0  0  0  0
  -22.3520  -27.5220   18.7020 H   0  0  0  0  0  0  0  0  0  0  0  0
  -19.3630  -25.6520   18.1150 C   0  0  0  0  0  0  0  0  0  0  0  0
  -21.8180  -25.4890   18.9040 C   0  0  0  0  0  3  0  0  0  0  0  0
  -22.0700  -24.6690   17.6170 C   0  0  0  0  0  2  0  0  0  0  0  0
  -21.1820  -25.0980   16.4440 C   0  0  0  0  0  2  0  0  0  0  0  0
  -19.7020  -24.9490   16.8110 C   0  0  0  0  0  2  0  0  0  0  0  0
  -20.3590  -25.9190   19.0900 C   0  0  0  0  0  0  0  0  0  0  0  0
  -19.9960  -26.6060   20.2690 C   0  0  0  0  0  3  0  0  0  0  0  0
  -18.6690  -27.0220   20.4810 C   0  0  0  0  0  3  0  0  0  0  0  0
  -17.6830  -26.7410   19.5190 C   0  0  0  0  0  3  0  0  0  0  0  0
  -18.0300  -26.0530   18.3420 C   0  0  0  0  0  3  0  0  0  0  0  0
  -26.8450  -27.9740   22.7160 C   0  0  0  0  0  3  0  0  0  0  0  0
  -26.4530  -28.8940   23.7920 N   0  0  0  0  0  0  0  0  0  0  0  0
  -26.8930  -30.1530   23.9130 C   0  0  0  0  0  0  0  0  0  0  0  0
  -27.7370  -30.6430   23.1580 O   0  0  0  0  0  0  0  0  0  0  0  0
  -25.7230  -28.5780   24.4120 H   0  0  0  0  0  0  0  0  0  0  0  0
  -25.2160  -31.9360   24.4890 C   0  0  0  0  0  1  0  0  0  0  0  0
  -26.3020  -31.0060   25.0520 C   0  0  0  0  0  3  0  0  0  0  0  0
  -28.2310  -30.9900   26.5720 C   0  0  0  0  0  1  0  0  0  0  0  0
  -27.3160  -31.8040   25.7760 N   0  0  0  0  0  0  0  0  0  0  0  0
  -26.8720  -32.4760   26.3950 H   0  0  0  0  0  0  0  0  0  0  0  0
  -27.1840  -26.5470   23.2980 C   0  0  1  0  0  0  0  0  0  0  0  0
  -25.9500  -25.7890   23.8410 C   0  0  0  0  0  1  0  0  0  0  0  0
  -27.8450  -25.6600   22.2170 C   0  0  0  0  0  1  0  0  0  0  0  0
  -28.2090  -26.6790   24.4480 C   0  0  0  0  0  1  0  0  0  0  0  0
  -28.1160  -19.8750   20.3370 C   0  0  0  0  0  2  0  0  0  0  0  0
  -28.4940  -21.7150   22.0270 C   0  0  0  0  0  1  0  0  0  0  0  0
  -30.0920  -21.5450   20.1170 C   0  0  0  0  0  1  0  0  0  0  0  0
  -27.7360  -22.2880   19.7120 C   0  0  0  0  0  1  0  0  0  0  0  0
  -28.6210  -21.3370   20.5390 C   0  0  1  0  0  0  0  0  0  0  0  0
  2  4  2  0
  3 94  1  0
  3  1  2  0
  4  1  1  0
  4 19  1  0
  5  3  1  0
  6  8  1  0
  7  5  2  0
  7  2  1  0
  8 10  1  0
  8  5  1  0
  9  6  2  0
 11 19  1  0
 11 17  1  0
 12 17  1  0
 13 14  1  0
 13 12  1  0
 15 14  1  0
 15 24  1  0
 15 16  1  0
 17 16  1  0
 18 11  2  0
 19 20  1  0
 21 22  2  0
 22 41  1  0
 23 22  1  0
 24 25  1  0
 24 21  1  0
 25 23  2  0
 26 23  1  0
 26 27  1  0
 28 27  2  0
 29 28  1  0
 30 31  1  0
 30 29  2  0
 31 26  2  0
 32 29  1  0
 32 33  1  0
 33 34  1  0
 34 35  2  0
 36 35  1  0
 36 40  1  0
 37 36  2  0
 38 33  2  0
 38 37  1  0
 39 38  1  0
 41 42  1  0
 42 45  1  0
 42 44  1  0
 43 41  2  0
 46 47  1  0
 46 21  1  0
 48 46  1  0
 49 50  2  0
 49  6  1  0
 51 49  1  0
 52 51  1  0
 52 53  1  0
 53 55  1  0
 54 65  2  0
 55 60  1  0
 56 66  1  0
 56 64  1  0
 57 63  1  0
 57 59  1  0
 58 64  1  0
 59 58  1  0
 60 59  2  0
 61 62  1  0
 61 55  2  0
 62 57  2  0
 63 56  1  0
 64 54  1  0
 66 68  2  0
 67 66  1  0
 69 67  1  0
 70 79  2  0
 70 75  1  0
 71 67  1  0
 71 75  1  0
 72 71  1  0
 73 74  1  0
 73 72  1  0
 74 70  1  0
 75 76  2  0
 76 77  1  0
 78 77  2  0
 79 78  1  0
 80 54  1  0
 80 90  1  0
 80 81  1  0
 81 82  1  0
 81 84  1  0
 82 86  1  0
 83 82  2  0
 86 85  1  0
 86 88  1  0
 88 89  1  0
 88 87  1  0
 90 91  1  1
 90 93  1  0
 92 90  1  0
 94 98  1  0
 98 96  1  6
 97 98  1  0
 98 95  1  0
M  ISO  4  11 100  19 100  52 101  53 101
M  END
>  <TORSDO>  (49) 
F 21

>  <SCORE>  (49) 
-8.984

>  <name>  (49) 
48

>  <ligand_id>  (49) 
48

>  <original_smiles>  (49) 
[H]c1nc(N([H])C(=O)C(=O)C([H])([H])C([H])([H])Oc2c([H])c([H])c3c(c2[H])C([H])([H])N(C(=O)C([H])(N([H])C(=O)C([H])(N([H])C([H])([H])[H])C([H])([H])[H])C(C([H])([H])[H])(C([H])([H])[H])C([H])([H])[H])C([H])(C(=O)N([H])C2([H])c4c([H])c([H])c([H])c([H])c4C([H])([H])C([H])([H])C2([H])[H])C3([H])[H])c(C([H])([H])C(C([H])([H])[H])(C([H])([H])[H])C([H])([H])[H])c([H])c1N([H])C(=O)N1C([H])([H])C([H])([H])C([H])([H])C([H])(n2nc(-c3c([H])c([H])c(Oc4c([H])c([H])c(F)c([H])c4F)c([H])c3[H])c(C(=O)N([H])[H])c2N([H])[H])C1([H])[H]

>  <smiles>  (49) 
[H]c1nc(N([H])C(=O)C(=O)C([H])([H])C([H])([H])Oc2c([H])c([H])c3c(c2[H])C([H])([H])N(C(=O)C([H])(N([H])C(=O)C([H])(N([H])C([H])([H])[H])C([H])([H])[H])C(C([H])([H])[H])(C([H])([H])[H])C([H])([H])[H])C([H])(C(=O)N([H])C2([H])c4c([H])c([H])c([H])c([H])c4C([H])([H])C([H])([H])C2([H])[H])C3([H])[H])c(C([H])([H])C(C([H])([H])[H])(C([H])([H])[H])C([H])([H])[H])c([H])c1N([H])C(=O)N1C([H])([H])C([H])([H])C([H])([H])C([H])(n2nc(-c3c([H])c([H])c(Oc4c([H])c([H])c(F)c([H])c4F)c([H])c3[H])c(C(=O)N([H])[H])c2N([H])[H])C1([H])[H]

$$$$
49:0:0
     RDKit          3D

 98106  0  0  1  0  0  0  0  0999 V2000
  -30.4430  -20.6310   20.6980 N   0  0  0  0  0  0  0  0  0  0  0  0
  -30.9680  -21.4230   21.0730 H   0  0  0  0  0  0  0  0  0  0  0  0
  -31.3050  -18.2210   23.4320 C   0  0  0  0  0  3  0  0  0  0  0  0
  -30.7780  -17.0220   22.9220 C   0  0  0  0  0  3  0  0  0  0  0  0
  -29.9500  -18.2370   20.9750 C   0  0  0  0  0  3  0  0  0  0  0  0
  -31.1870  -19.4360   22.7240 C   0  0  0  0  0  0  0  0  0  0  0  0
  -30.1070  -17.0190   21.6860 C   0  0  0  0  0  0  0  0  0  0  0  0
  -30.5070  -19.4500   21.4670 C   0  0  0  0  0  0  0  0  0  0  0  0
  -30.2660  -14.8620   20.5200 C   0  0  0  0  0  0  0  0  0  0  0  0
  -30.0890  -12.6960   19.3450 C   0  0  0  0  0  2  0  0  0  0  0  0
  -29.1230  -12.8100   18.1490 C   0  0  0  0  0  2  0  0  0  0  0  0
  -27.6700  -12.5610   18.5990 C   0  0  0  0  0  2  0  0  0  0  0  0
  -27.2810  -13.3900   19.8510 C   0  0  0  0  0  3  0  0  0  0  0  0
  -28.3560  -13.2660   20.9520 C   0  0  0  0  0  2  0  0  0  0  0  0
  -29.6490  -13.6590   20.3670 N   0  0  0  0  0  0  0  0  0  0  0  0
  -31.3440  -15.1340   19.9820 O   0  0  0  0  0  0  0  0  0  0  0  0
  -29.5710  -15.7950   21.1970 N   0  0  0  0  0  0  0  0  0  0  0  0
  -28.6340  -15.5520   21.4800 H   0  0  0  0  0  0  0  0  0  0  0  0
  -24.8590  -13.8230   20.6060 C   0  0  0  0  0  0  0  0  0  0  0  0
  -23.8490  -12.9750   20.9760 C   0  0  0  0  0  0  0  0  0  0  0  0
  -24.3970  -11.6580   20.9080 C   0  0  0  0  0  0  0  0  0  0  0  0
  -25.9560  -13.0180   20.3430 N   0  0  0  0  0  0  0  0  0  0  0  0
  -25.6810  -11.7090   20.5810 N   0  0  0  0  0  0  0  0  0  0  0  0
  -23.7590  -10.3460   21.0830 C   0  0  0  0  0  0  0  0  0  0  0  0
  -24.2490   -9.4040   22.0140 C   0  0  0  0  0  3  0  0  0  0  0  0
  -23.6070   -8.1580   22.1760 C   0  0  0  0  0  3  0  0  0  0  0  0
  -22.4600   -7.8450   21.4090 C   0  0  0  0  0  0  0  0  0  0  0  0
  -21.9900   -8.7790   20.4680 C   0  0  0  0  0  3  0  0  0  0  0  0
  -22.6340  -10.0170   20.3040 C   0  0  0  0  0  3  0  0  0  0  0  0
  -21.7850   -6.6500   21.4820 O   0  0  0  0  0  0  0  0  0  0  0  0
  -21.7570   -5.9090   22.6360 C   0  0  0  0  0  0  0  0  0  0  0  0
  -21.2550   -6.4320   23.8470 C   0  0  0  0  0  3  0  0  0  0  0  0
  -21.1800   -5.6130   24.9910 C   0  0  0  0  0  3  0  0  0  0  0  0
  -21.5980   -4.2700   24.9250 C   0  0  0  0  0  0  0  0  0  0  0  0
  -22.0930   -3.7460   23.7190 C   0  0  0  0  0  3  0  0  0  0  0  0
  -22.1700   -4.5620   22.5760 C   0  0  0  0  0  0  0  0  0  0  0  0
  -22.6280   -4.0450   21.4110 F   0  0  0  0  0  0  0  0  0  0  0  0
  -21.5200   -3.4810   26.0210 F   0  0  0  0  0  0  0  0  0  0  0  0
  -22.4290  -13.3540   21.2810 C   0  0  0  0  0  0  0  0  0  0  0  0
  -21.7670  -12.5990   22.1500 N   0  0  0  0  0  0  0  0  0  0  0  0
  -21.9130  -14.3540   20.7840 O   0  0  0  0  0  0  0  0  0  0  0  0
  -22.1950  -11.7900   22.5740 H   0  0  0  0  0  0  0  0  0  0  0  0
  -20.8160  -12.8330   22.3960 H   0  0  0  0  0  0  0  0  0  0  0  0
  -24.9320  -15.2060   20.4530 N   0  0  0  0  0  0  0  0  0  0  0  0
  -24.1290  -15.8080   20.5910 H   0  0  0  0  0  0  0  0  0  0  0  0
  -25.7500  -15.7070   20.1290 H   0  0  0  0  0  0  0  0  0  0  0  0
  -31.8230  -20.6640   23.3920 C   0  0  1  0  0  0  0  0  0  0  0  0
  -33.1340  -20.4620   23.5210 F   0  0  0  0  0  0  0  0  0  0  0  0
  -31.6470  -21.8170   22.7450 F   0  0  0  0  0  0  0  0  0  0  0  0
  -31.3080  -20.8130   24.6140 F   0  0  0  0  0  0  0  0  0  0  0  0
  -29.2100  -21.0840   20.0500 C   0  0  0  0  0  2  0  0  0  0  0  0
  -29.2640  -22.6010   19.7680 C   0  0  0  0  0  0  0  0  0  0  0  0
  -30.2020  -23.2770   20.2150 O   0  0  0  0  0  0  0  0  0  0  0  0
  -28.1180  -23.2130   18.9460 C   0  0  0  0  0  2  0  0  0  0  0  0
  -28.2940  -24.7200   18.6840 C   0  0  0  0  0  0  0  0  0  0  0  0
  -28.5250  -25.1410   17.5440 O   0  0  0  0  0  0  0  0  0  0  0  0
  -28.1050  -25.6830   19.8720 C   0  0  0  0  0  2  0  0  0  0  0  0
  -28.1390  -27.0620   19.4660 O   0  0  0  0  0  0  0  0  0  0  0  0
  -24.4780  -31.9320   23.1410 C   0  0  0  0  0  0  0  0  0  0  0  0
  -26.9590  -27.7590   19.5950 C   0  0  0  0  0  0  0  0  0  0  0  0
  -23.1810  -30.6420   21.4740 C   0  0  0  0  0  3  0  0  0  0  0  0
  -24.5550  -29.2210   19.8600 C   0  0  0  0  0  0  0  0  0  0  0  0
  -25.6850  -31.0450   21.1470 C   0  0  0  0  0  2  0  0  0  0  0  0
  -25.7420  -29.7220   20.4100 C   0  0  0  0  0  0  0  0  0  0  0  0
  -26.9490  -29.0000   20.2700 C   0  0  0  0  0  3  0  0  0  0  0  0
  -25.7550  -27.2670   19.0450 C   0  0  0  0  0  3  0  0  0  0  0  0
  -24.5560  -27.9930   19.1760 C   0  0  0  0  0  3  0  0  0  0  0  0
  -23.3110  -30.0610   20.0400 C   0  0  0  0  0  2  0  0  0  0  0  0
  -24.4710  -31.2160   21.9800 N   0  0  0  0  0  0  0  0  0  0  0  0
  -23.4310  -32.1530   23.7640 O   0  0  0  0  0  0  0  0  0  0  0  0
  -22.5940  -29.5490   22.3960 C   0  0  0  0  0  0  0  0  0  0  0  0
  -21.2700  -29.3390   22.3070 N   0  0  0  0  0  0  0  0  0  0  0  0
  -23.3230  -28.8960   23.1460 O   0  0  0  0  0  0  0  0  0  0  0  0
  -20.7400  -29.9240   21.6770 H   0  0  0  0  0  0  0  0  0  0  0  0
  -17.9550  -27.9980   22.8170 C   0  0  0  0  0  0  0  0  0  0  0  0
  -20.5070  -28.3330   23.0450 C   0  0  0  0  0  3  0  0  0  0  0  0
  -20.6450  -26.9380   22.3930 C   0  0  0  0  0  2  0  0  0  0  0  0
  -19.5310  -26.6270   21.3890 C   0  0  0  0  0  2  0  0  0  0  0  0
  -18.1610  -26.6900   22.0710 C   0  0  0  0  0  2  0  0  0  0  0  0
  -19.0560  -28.7760   23.2600 C   0  0  0  0  0  0  0  0  0  0  0  0
  -18.8070  -30.0010   23.9180 C   0  0  0  0  0  3  0  0  0  0  0  0
  -17.4910  -30.4470   24.1350 C   0  0  0  0  0  3  0  0  0  0  0  0
  -16.4040  -29.6650   23.7080 C   0  0  0  0  0  3  0  0  0  0  0  0
  -16.6370  -28.4420   23.0550 C   0  0  0  0  0  3  0  0  0  0  0  0
  -25.7970  -32.5260   23.7290 C   0  0  0  0  0  3  0  0  0  0  0  0
  -25.5270  -33.9190   24.1050 N   0  0  0  0  0  0  0  0  0  0  0  0
  -25.8640  -34.9850   23.3660 C   0  0  0  0  0  0  0  0  0  0  0  0
  -26.5070  -34.8960   22.3160 O   0  0  0  0  0  0  0  0  0  0  0  0
  -24.9560  -34.0640   24.9250 H   0  0  0  0  0  0  0  0  0  0  0  0
  -24.1650  -36.8190   23.0980 C   0  0  0  0  0  1  0  0  0  0  0  0
  -25.4150  -36.3700   23.8700 C   0  0  0  0  0  3  0  0  0  0  0  0
  -27.5860  -37.1890   24.6730 C   0  0  0  0  0  1  0  0  0  0  0  0
  -26.4650  -37.4050   23.7620 N   0  0  0  0  0  0  0  0  0  0  0  0
  -26.0810  -38.3280   23.9470 H   0  0  0  0  0  0  0  0  0  0  0  0
  -26.3500  -31.7110   24.9610 C   0  0  1  0  0  0  0  0  0  0  0  0
  -25.2960  -31.4590   26.0650 C   0  0  0  0  0  1  0  0  0  0  0  0
  -26.8930  -30.3360   24.5040 C   0  0  0  0  0  1  0  0  0  0  0  0
  -27.5400  -32.4660   25.5990 C   0  0  0  0  0  1  0  0  0  0  0  0
  1  2  1  0
  1  8  1  0
  4  3  1  0
  5  8  2  0
  5  7  1  0
  6 47  1  0
  6  3  2  0
  7  4  2  0
  8  6  1  0
  9 17  1  0
 10 15  1  0
 11 12  1  0
 11 10  1  0
 13 12  1  0
 13 22  1  0
 13 14  1  0
 15  9  1  0
 15 14  1  0
 16  9  2  0
 17 18  1  0
 17  7  1  0
 19 20  2  0
 20 39  1  0
 21 20  1  0
 21 24  1  0
 22 23  1  0
 22 19  1  0
 23 21  2  0
 24 25  1  0
 25 26  2  0
 27 30  1  0
 27 26  1  0
 28 27  2  0
 29 28  1  0
 29 24  2  0
 30 31  1  0
 31 32  1  0
 32 33  2  0
 34 33  1  0
 34 38  1  0
 35 34  2  0
 36 31  2  0
 36 35  1  0
 37 36  1  0
 39 40  1  0
 40 43  1  0
 40 42  1  0
 41 39  2  0
 44 45  1  0
 44 19  1  0
 46 44  1  0
 47 48  1  1
 47 50  1  0
 49 47  1  0
 51  1  1  0
 52 51  1  0
 52 53  2  0
 54 52  1  0
 55 54  1  0
 55 57  1  0
 56 55  2  0
 58 60  1  0
 58 57  1  0
 59 70  2  0
 60 65  1  0
 61 69  1  0
 61 71  1  0
 62 68  1  0
 62 64  1  0
 63 69  1  0
 64 63  1  0
 65 64  2  0
 66 67  1  0
 66 60  2  0
 67 62  2  0
 68 61  1  0
 69 59  1  0
 71 73  2  0
 72 71  1  0
 74 72  1  0
 75 84  2  0
 75 80  1  0
 76 72  1  0
 76 80  1  0
 77 76  1  0
 78 79  1  0
 78 77  1  0
 79 75  1  0
 80 81  2  0
 81 82  1  0
 83 82  2  0
 84 83  1  0
 85 59  1  0
 85 86  1  0
 85 95  1  0
 86 89  1  0
 87 91  1  0
 87 86  1  0
 88 87  2  0
 91 90  1  0
 93 91  1  0
 93 94  1  0
 93 92  1  0
 95 98  1  1
 95 96  1  0
 97 95  1  0
M  ISO  4   9 100  17 100  57 101  58 101
M  END
>  <TORSDO>  (50) 
F 23

>  <SCORE>  (50) 
-12.346

>  <name>  (50) 
49

>  <ligand_id>  (50) 
49

>  <original_smiles>  (50) 
[H]c1c([H])c([H])c2c(c1[H])C([H])([H])C([H])([H])C([H])([H])C2([H])N([H])C(=O)C1([H])N(C(=O)C([H])(N([H])C(=O)C([H])(N([H])C([H])([H])[H])C([H])([H])[H])C(C([H])([H])[H])(C([H])([H])[H])C([H])([H])[H])C([H])([H])c2c([H])c(OC([H])([H])C(=O)C([H])([H])C(=O)C([H])([H])N([H])c3c([H])c(N([H])C(=O)N4C([H])([H])C([H])([H])C([H])([H])C([H])(n5nc(-c6c([H])c([H])c(Oc7c([H])c([H])c(F)c([H])c7F)c([H])c6[H])c(C(=O)N([H])[H])c5N([H])[H])C4([H])[H])c([H])c([H])c3C(F)(F)F)c([H])c([H])c2C1([H])[H]

>  <smiles>  (50) 
[H]c1c([H])c([H])c2c(c1[H])C([H])([H])C([H])([H])C([H])([H])C2([H])N([H])C(=O)C1([H])N(C(=O)C([H])(N([H])C(=O)C([H])(N([H])C([H])([H])[H])C([H])([H])[H])C(C([H])([H])[H])(C([H])([H])[H])C([H])([H])[H])C([H])([H])c2c([H])c(OC([H])([H])C(=O)C([H])([H])C(=O)C([H])([H])N([H])c3c([H])c(N([H])C(=O)N4C([H])([H])C([H])([H])C([H])([H])C([H])(n5nc(-c6c([H])c([H])c(Oc7c([H])c([H])c(F)c([H])c7F)c([H])c6[H])c(C(=O)N([H])[H])c5N([H])[H])C4([H])[H])c([H])c([H])c3C(F)(F)F)c([H])c([H])c2C1([H])[H]

$$$$
50:0:0
     RDKit          3D

 93102  0  0  1  0  0  0  0  0999 V2000
  -29.2230  -24.0660   20.2980 C   0  0  0  0  0  0  0  0  0  0  0  0
  -28.9860  -22.5410   19.9730 C   0  0  0  0  0  2  0  0  0  0  0  0
  -30.9010  -22.1020   21.5110 C   0  0  0  0  0  2  0  0  0  0  0  0
  -31.3160  -23.5820   21.3600 C   0  0  0  0  0  2  0  0  0  0  0  0
  -30.2300  -21.6070   20.2270 C   0  0  0  0  0  3  0  0  0  0  0  0
  -30.2380  -24.4860   20.9550 N   0  0  0  0  0  0  0  0  0  0  0  0
  -31.2100  -19.2400   19.8760 C   0  0  0  0  0  3  0  0  0  0  0  0
  -31.1930  -17.8190   19.9560 C   0  0  0  0  0  3  0  0  0  0  0  0
  -28.9360  -19.3410   20.6570 C   0  0  0  0  0  3  0  0  0  0  0  0
  -30.0910  -20.0420   20.2290 C   0  0  0  0  0  0  0  0  0  0  0  0
  -30.0400  -17.1200   20.3980 C   0  0  0  0  0  0  0  0  0  0  0  0
  -28.9140  -17.9170   20.7340 C   0  0  0  0  0  0  0  0  0  0  0  0
  -27.7820  -17.2980   21.1490 F   0  0  0  0  0  0  0  0  0  0  0  0
  -30.6620  -14.6340   20.0380 C   0  0  0  0  0  0  0  0  0  0  0  0
  -30.3610  -12.4370   18.9260 C   0  0  0  0  0  2  0  0  0  0  0  0
  -29.3490  -12.6140   17.7740 C   0  0  0  0  0  2  0  0  0  0  0  0
  -27.9030  -12.4530   18.2840 C   0  0  0  0  0  2  0  0  0  0  0  0
  -27.6260  -13.2820   19.5670 C   0  0  0  0  0  3  0  0  0  0  0  0
  -28.7460  -13.0820   20.6140 C   0  0  0  0  0  2  0  0  0  0  0  0
  -30.0260  -13.4230   19.9700 N   0  0  0  0  0  0  0  0  0  0  0  0
  -31.7900  -14.7930   19.5640 O   0  0  0  0  0  0  0  0  0  0  0  0
  -29.9160  -15.6710   20.5180 N   0  0  0  0  0  0  0  0  0  0  0  0
  -29.0460  -15.3800   20.9400 H   0  0  0  0  0  0  0  0  0  0  0  0
  -25.2790  -13.8740   20.4350 C   0  0  0  0  0  0  0  0  0  0  0  0
  -24.2290  -13.0950   20.8420 C   0  0  0  0  0  0  0  0  0  0  0  0
  -24.6800  -11.7440   20.7480 C   0  0  0  0  0  0  0  0  0  0  0  0
  -26.3040  -12.9960   20.1190 N   0  0  0  0  0  0  0  0  0  0  0  0
  -25.9520  -11.7080   20.3660 N   0  0  0  0  0  0  0  0  0  0  0  0
  -23.9580  -10.4800   20.9450 C   0  0  0  0  0  0  0  0  0  0  0  0
  -24.3980   -9.5160   21.8790 C   0  0  0  0  0  3  0  0  0  0  0  0
  -23.6760   -8.3160   22.0630 C   0  0  0  0  0  3  0  0  0  0  0  0
  -22.5000   -8.0740   21.3140 C   0  0  0  0  0  0  0  0  0  0  0  0
  -22.0800   -9.0270   20.3690 C   0  0  0  0  0  3  0  0  0  0  0  0
  -22.8020  -10.2170   20.1830 C   0  0  0  0  0  3  0  0  0  0  0  0
  -21.7500   -6.9270   21.4080 O   0  0  0  0  0  0  0  0  0  0  0  0
  -21.6530   -6.2230   22.5820 C   0  0  0  0  0  0  0  0  0  0  0  0
  -21.1700   -6.8160   23.7680 C   0  0  0  0  0  3  0  0  0  0  0  0
  -21.0220   -6.0380   24.9340 C   0  0  0  0  0  3  0  0  0  0  0  0
  -21.3480   -4.6690   24.9130 C   0  0  0  0  0  0  0  0  0  0  0  0
  -21.8240   -4.0750   23.7310 C   0  0  0  0  0  3  0  0  0  0  0  0
  -21.9730   -4.8510   22.5680 C   0  0  0  0  0  0  0  0  0  0  0  0
  -22.4140   -4.2700   21.4260 F   0  0  0  0  0  0  0  0  0  0  0  0
  -21.1990   -3.9190   26.0300 F   0  0  0  0  0  0  0  0  0  0  0  0
  -22.8540  -13.5720   21.2090 C   0  0  0  0  0  0  0  0  0  0  0  0
  -22.1770  -12.8610   22.1050 N   0  0  0  0  0  0  0  0  0  0  0  0
  -22.3890  -14.6080   20.7370 O   0  0  0  0  0  0  0  0  0  0  0  0
  -22.5670  -12.0210   22.5070 H   0  0  0  0  0  0  0  0  0  0  0  0
  -21.2560  -13.1600   22.3910 H   0  0  0  0  0  0  0  0  0  0  0  0
  -25.4400  -15.2480   20.2880 N   0  0  0  0  0  0  0  0  0  0  0  0
  -24.6900  -15.9010   20.4850 H   0  0  0  0  0  0  0  0  0  0  0  0
  -26.2900  -15.7050   19.9840 H   0  0  0  0  0  0  0  0  0  0  0  0
  -28.1180  -25.0700   19.8340 C   0  0  0  0  0  2  0  0  0  0  0  0
  -28.3180  -26.5100   20.1060 O   0  0  0  0  0  0  0  0  0  0  0  0
  -24.5830  -31.8270   23.2030 C   0  0  0  0  0  0  0  0  0  0  0  0
  -27.1860  -27.3360   20.0650 C   0  0  0  0  0  0  0  0  0  0  0  0
  -23.3650  -30.4350   21.5680 C   0  0  0  0  0  3  0  0  0  0  0  0
  -24.8050  -28.9150   20.1050 C   0  0  0  0  0  0  0  0  0  0  0  0
  -25.8980  -30.7800   21.3490 C   0  0  0  0  0  2  0  0  0  0  0  0
  -25.9770  -29.4100   20.6900 C   0  0  0  0  0  0  0  0  0  0  0  0
  -27.1700  -28.6320   20.6630 C   0  0  0  0  0  3  0  0  0  0  0  0
  -25.9900  -26.8950   19.4490 C   0  0  0  0  0  3  0  0  0  0  0  0
  -24.8120  -27.6610   19.4770 C   0  0  0  0  0  3  0  0  0  0  0  0
  -23.5620  -29.7760   20.1780 C   0  0  0  0  0  2  0  0  0  0  0  0
  -24.6350  -31.0300   22.0970 N   0  0  0  0  0  0  0  0  0  0  0  0
  -23.5060  -32.0930   23.7560 O   0  0  0  0  0  0  0  0  0  0  0  0
  -22.7240  -29.4040   22.5270 C   0  0  0  0  0  0  0  0  0  0  0  0
  -21.4000  -29.2090   22.4080 N   0  0  0  0  0  0  0  0  0  0  0  0
  -23.4170  -28.7830   23.3370 O   0  0  0  0  0  0  0  0  0  0  0  0
  -20.9000  -29.7630   21.7270 H   0  0  0  0  0  0  0  0  0  0  0  0
  -18.0410  -27.9730   22.9240 C   0  0  0  0  0  0  0  0  0  0  0  0
  -20.5980  -28.2610   23.1810 C   0  0  0  0  0  3  0  0  0  0  0  0
  -20.7120  -26.8320   22.6000 C   0  0  0  0  0  2  0  0  0  0  0  0
  -19.6080  -26.5010   21.5910 C   0  0  0  0  0  2  0  0  0  0  0  0
  -18.2290  -26.6270   22.2430 C   0  0  0  0  0  2  0  0  0  0  0  0
  -19.1540  -28.7460   23.3500 C   0  0  0  0  0  0  0  0  0  0  0  0
  -18.9230  -30.0050   23.9470 C   0  0  0  0  0  3  0  0  0  0  0  0
  -17.6140  -30.4910   24.1210 C   0  0  0  0  0  3  0  0  0  0  0  0
  -16.5160  -29.7140   23.7120 C   0  0  0  0  0  3  0  0  0  0  0  0
  -16.7310  -28.4570   23.1190 C   0  0  0  0  0  3  0  0  0  0  0  0
  -25.8720  -32.4610   23.8120 C   0  0  0  0  0  3  0  0  0  0  0  0
  -25.5670  -33.8620   24.1330 N   0  0  0  0  0  0  0  0  0  0  0  0
  -25.8760  -34.9070   23.3540 C   0  0  0  0  0  0  0  0  0  0  0  0
  -26.5170  -34.7940   22.3060 O   0  0  0  0  0  0  0  0  0  0  0  0
  -24.9940  -34.0250   24.9480 H   0  0  0  0  0  0  0  0  0  0  0  0
  -24.1170  -36.6790   23.0410 C   0  0  0  0  0  1  0  0  0  0  0  0
  -25.3950  -36.2990   23.8080 C   0  0  0  0  0  3  0  0  0  0  0  0
  -27.5530  -37.2140   24.5380 C   0  0  0  0  0  1  0  0  0  0  0  0
  -26.4110  -37.3600   23.6390 N   0  0  0  0  0  0  0  0  0  0  0  0
  -26.0020  -38.2780   23.7920 H   0  0  0  0  0  0  0  0  0  0  0  0
  -26.3950  -31.6980   25.0910 C   0  0  1  0  0  0  0  0  0  0  0  0
  -25.3070  -31.4680   26.1660 C   0  0  0  0  0  1  0  0  0  0  0  0
  -26.9750  -30.3180   24.7040 C   0  0  0  0  0  1  0  0  0  0  0  0
  -27.5490  -32.4970   25.7410 C   0  0  0  0  0  1  0  0  0  0  0  0
  1  6  2  0
  2  5  1  0
  2  1  1  0
  4  3  1  0
  5 10  1  0
  5  3  1  0
  6  4  1  0
  7  8  2  0
  7 10  1  0
  8 11  1  0
  9 12  1  0
 10  9  2  0
 11 22  1  0
 11 12  2  0
 12 13  1  0
 14 22  1  0
 15 20  1  0
 16 17  1  0
 16 15  1  0
 18 17  1  0
 18 27  1  0
 18 19  1  0
 20 14  1  0
 20 19  1  0
 21 14  2  0
 22 23  1  0
 24 25  2  0
 25 44  1  0
 26 25  1  0
 26 29  1  0
 27 28  1  0
 27 24  1  0
 28 26  2  0
 29 30  1  0
 30 31  2  0
 32 35  1  0
 32 31  1  0
 33 32  2  0
 34 33  1  0
 34 29  2  0
 35 36  1  0
 36 37  1  0
 37 38  2  0
 39 38  1  0
 39 43  1  0
 40 39  2  0
 41 36  2  0
 41 40  1  0
 42 41  1  0
 44 45  1  0
 45 48  1  0
 45 47  1  0
 46 44  2  0
 49 24  1  0
 49 50  1  0
 51 49  1  0
 52 53  1  0
 52  1  1  0
 54 65  2  0
 55 53  1  0
 55 60  1  0
 56 64  1  0
 56 66  1  0
 57 63  1  0
 57 59  1  0
 58 64  1  0
 59 58  1  0
 60 59  2  0
 61 62  1  0
 61 55  2  0
 62 57  2  0
 63 56  1  0
 64 54  1  0
 66 68  2  0
 67 66  1  0
 69 67  1  0
 70 79  2  0
 70 75  1  0
 71 67  1  0
 71 75  1  0
 72 71  1  0
 73 74  1  0
 73 72  1  0
 74 70  1  0
 75 76  2  0
 76 77  1  0
 78 77  2  0
 79 78  1  0
 80 54  1  0
 80 81  1  0
 80 90  1  0
 81 84  1  0
 82 86  1  0
 82 81  1  0
 83 82  2  0
 86 85  1  0
 88 89  1  0
 88 86  1  0
 88 87  1  0
 90 93  1  1
 90 91  1  0
 92 90  1  0
M  ISO  4  14 100  22 100  52 101  53 101
M  END
>  <TORSDO>  (51) 
F 18

>  <SCORE>  (51) 
-14.107

>  <name>  (51) 
50

>  <ligand_id>  (51) 
50

>  <original_smiles>  (51) 
[H]c1c([H])c([H])c2c(c1[H])C([H])([H])C([H])([H])C([H])([H])C2([H])N([H])C(=O)C1([H])N(C(=O)C([H])(N([H])C(=O)C([H])(N([H])C([H])([H])[H])C([H])([H])[H])C(C([H])([H])[H])(C([H])([H])[H])C([H])([H])[H])C([H])([H])c2c([H])c(OC([H])([H])C3=NC([H])([H])C([H])([H])C([H])(c4c([H])c([H])c(N([H])C(=O)N5C([H])([H])C([H])([H])C([H])([H])C([H])(n6nc(-c7c([H])c([H])c(Oc8c([H])c([H])c(F)c([H])c8F)c([H])c7[H])c(C(=O)N([H])[H])c6N([H])[H])C5([H])[H])c(F)c4[H])C3([H])[H])c([H])c([H])c2C1([H])[H]

>  <smiles>  (51) 
[H]c1c([H])c([H])c2c(c1[H])C([H])([H])C([H])([H])C([H])([H])C2([H])N([H])C(=O)C1([H])N(C(=O)C([H])(N([H])C(=O)C([H])(N([H])C([H])([H])[H])C([H])([H])[H])C(C([H])([H])[H])(C([H])([H])[H])C([H])([H])[H])C([H])([H])c2c([H])c(OC([H])([H])C3=NC([H])([H])C([H])([H])C([H])(c4c([H])c([H])c(N([H])C(=O)N5C([H])([H])C([H])([H])C([H])([H])C([H])(n6nc(-c7c([H])c([H])c(Oc8c([H])c([H])c(F)c([H])c8F)c([H])c7[H])c(C(=O)N([H])[H])c6N([H])[H])C5([H])[H])c(F)c4[H])C3([H])[H])c([H])c([H])c2C1([H])[H]

$$$$
51:0:0
     RDKit          3D

100108  0  0  1  0  0  0  0  0999 V2000
  -29.7810  -20.7260   19.1610 C   0  0  0  0  0  0  0  0  0  0  0  0
  -30.3230  -20.8660   17.9380 N   0  0  0  0  0  4  0  0  0  0  0  0
  -29.2440  -21.8140   19.7700 N   0  0  0  0  0  0  0  0  0  0  0  0
  -30.7660  -20.0830   17.4810 H   0  0  0  0  0  0  0  0  0  0  0  0
  -30.3900  -21.7510   17.4600 H   0  0  0  0  0  0  0  0  0  0  0  0
  -28.8340  -21.7080   20.6910 H   0  0  0  0  0  0  0  0  0  0  0  0
  -30.6770  -14.4330   20.4960 C   0  0  0  0  0  0  0  0  0  0  0  0
  -30.3520  -12.3010   19.3080 C   0  0  0  0  0  2  0  0  0  0  0  0
  -29.4210  -12.5610   18.1030 C   0  0  0  0  0  2  0  0  0  0  0  0
  -27.9440  -12.4260   18.5260 C   0  0  0  0  0  2  0  0  0  0  0  0
  -27.6110  -13.2410   19.8040 C   0  0  0  0  0  3  0  0  0  0  0  0
  -28.6590  -12.9780   20.9120 C   0  0  0  0  0  2  0  0  0  0  0  0
  -29.9970  -13.2620   20.3630 N   0  0  0  0  0  0  0  0  0  0  0  0
  -31.7840  -14.6310   19.9810 O   0  0  0  0  0  0  0  0  0  0  0  0
  -29.2170  -18.3250   19.0170 C   0  0  0  0  0  3  0  0  0  0  0  0
  -29.2960  -17.0060   19.5000 C   0  0  0  0  0  3  0  0  0  0  0  0
  -29.7880  -19.3770   19.7560 C   0  0  0  0  0  0  0  0  0  0  0  0
  -29.9620  -16.7500   20.7160 C   0  0  0  0  0  0  0  0  0  0  0  0
  -30.3970  -19.0370   20.9890 C   0  0  0  0  0  0  0  0  0  0  0  0
  -30.4690  -17.7690   21.4580 N   0  0  0  0  0  0  0  0  0  0  0  0
  -30.0200  -15.4030   21.1550 N   0  0  0  0  0  0  0  0  0  0  0  0
  -29.2060  -15.0810   21.6520 H   0  0  0  0  0  0  0  0  0  0  0  0
  -25.2070  -13.8640   20.4870 C   0  0  0  0  0  0  0  0  0  0  0  0
  -24.1320  -13.0980   20.8530 C   0  0  0  0  0  0  0  0  0  0  0  0
  -24.5870  -11.7430   20.8320 C   0  0  0  0  0  0  0  0  0  0  0  0
  -26.2500  -12.9760   20.2670 N   0  0  0  0  0  0  0  0  0  0  0  0
  -25.8780  -11.6970   20.5300 N   0  0  0  0  0  0  0  0  0  0  0  0
  -23.8550  -10.4850   21.0240 C   0  0  0  0  0  0  0  0  0  0  0  0
  -24.2770   -9.5200   21.9650 C   0  0  0  0  0  3  0  0  0  0  0  0
  -23.5440   -8.3260   22.1420 C   0  0  0  0  0  3  0  0  0  0  0  0
  -22.3760   -8.0900   21.3790 C   0  0  0  0  0  0  0  0  0  0  0  0
  -21.9750   -9.0420   20.4250 C   0  0  0  0  0  3  0  0  0  0  0  0
  -22.7080  -10.2270   20.2460 C   0  0  0  0  0  3  0  0  0  0  0  0
  -21.6180   -6.9470   21.4640 O   0  0  0  0  0  0  0  0  0  0  0  0
  -21.5560   -6.2100   22.6200 C   0  0  0  0  0  0  0  0  0  0  0  0
  -21.1130   -6.7710   23.8380 C   0  0  0  0  0  3  0  0  0  0  0  0
  -20.9990   -5.9610   24.9860 C   0  0  0  0  0  3  0  0  0  0  0  0
  -21.3170   -4.5910   24.9150 C   0  0  0  0  0  0  0  0  0  0  0  0
  -21.7530   -4.0300   23.7020 C   0  0  0  0  0  3  0  0  0  0  0  0
  -21.8690   -4.8380   22.5570 C   0  0  0  0  0  0  0  0  0  0  0  0
  -22.2710   -4.2900   21.3860 F   0  0  0  0  0  0  0  0  0  0  0  0
  -21.1990   -3.8100   26.0150 F   0  0  0  0  0  0  0  0  0  0  0  0
  -22.7360  -13.5830   21.1140 C   0  0  0  0  0  0  0  0  0  0  0  0
  -21.9940  -12.8920   21.9750 N   0  0  0  0  0  0  0  0  0  0  0  0
  -22.3070  -14.6110   20.5910 O   0  0  0  0  0  0  0  0  0  0  0  0
  -22.3530  -12.0650   22.4270 H   0  0  0  0  0  0  0  0  0  0  0  0
  -21.0560  -13.2000   22.1860 H   0  0  0  0  0  0  0  0  0  0  0  0
  -25.3780  -15.2320   20.3060 N   0  0  0  0  0  0  0  0  0  0  0  0
  -24.6040  -15.8810   20.3920 H   0  0  0  0  0  0  0  0  0  0  0  0
  -26.2310  -15.6660   19.9780 H   0  0  0  0  0  0  0  0  0  0  0  0
  -31.0070  -19.9850   21.8000 N   0  0  0  0  0  0  0  0  0  0  0  0
  -31.3520  -20.8330   21.3660 H   0  0  0  0  0  0  0  0  0  0  0  0
  -31.6300  -19.6350   22.5190 H   0  0  0  0  0  0  0  0  0  0  0  0
  -29.2610  -23.1670   19.1700 C   0  0  0  0  0  2  0  0  0  0  0  0
  -28.4120  -24.2610   19.8680 C   0  0  0  0  0  2  0  0  0  0  0  0
  -28.7590  -25.6760   19.3130 C   0  0  0  0  0  3  0  0  0  0  0  0
  -28.4980  -25.9970   17.8170 C   0  0  0  0  0  0  0  0  0  0  0  0
  -27.6000  -25.0910   16.9720 C   0  0  0  0  0  1  0  0  0  0  0  0
  -28.9930  -27.0010   17.2990 O   0  0  0  0  0  0  0  0  0  0  0  0
  -28.4580  -26.7880   20.1830 O   0  0  0  0  0  0  0  0  0  0  0  0
  -24.5810  -31.9060   23.2230 C   0  0  0  0  0  0  0  0  0  0  0  0
  -27.2370  -27.4370   20.1910 C   0  0  0  0  0  0  0  0  0  0  0  0
  -23.3750  -30.4840   21.5940 C   0  0  0  0  0  3  0  0  0  0  0  0
  -24.8300  -28.9300   20.1940 C   0  0  0  0  0  0  0  0  0  0  0  0
  -25.8990  -30.8480   21.3880 C   0  0  0  0  0  2  0  0  0  0  0  0
  -25.9860  -29.4670   20.7710 C   0  0  0  0  0  0  0  0  0  0  0  0
  -27.1880  -28.7270   20.7700 C   0  0  0  0  0  3  0  0  0  0  0  0
  -26.0490  -26.8970   19.6450 C   0  0  0  0  0  3  0  0  0  0  0  0
  -24.8570  -27.6420   19.6330 C   0  0  0  0  0  3  0  0  0  0  0  0
  -23.5860  -29.7870   20.2240 C   0  0  0  0  0  2  0  0  0  0  0  0
  -24.6370  -31.0950   22.1270 N   0  0  0  0  0  0  0  0  0  0  0  0
  -23.4990  -32.1830   23.7590 O   0  0  0  0  0  0  0  0  0  0  0  0
  -22.7270  -29.4730   22.5670 C   0  0  0  0  0  0  0  0  0  0  0  0
  -21.4010  -29.2950   22.4470 N   0  0  0  0  0  0  0  0  0  0  0  0
  -23.4130  -28.8500   23.3810 O   0  0  0  0  0  0  0  0  0  0  0  0
  -20.9120  -29.8520   21.7610 H   0  0  0  0  0  0  0  0  0  0  0  0
  -18.0210  -28.1290   22.9730 C   0  0  0  0  0  0  0  0  0  0  0  0
  -20.5840  -28.3670   23.2260 C   0  0  0  0  0  3  0  0  0  0  0  0
  -20.6700  -26.9340   22.6540 C   0  0  0  0  0  2  0  0  0  0  0  0
  -19.5590  -26.6180   21.6490 C   0  0  0  0  0  2  0  0  0  0  0  0
  -18.1830  -26.7760   22.3020 C   0  0  0  0  0  2  0  0  0  0  0  0
  -19.1490  -28.8830   23.3940 C   0  0  0  0  0  0  0  0  0  0  0  0
  -18.9470  -30.1500   23.9830 C   0  0  0  0  0  3  0  0  0  0  0  0
  -17.6490  -30.6650   24.1570 C   0  0  0  0  0  3  0  0  0  0  0  0
  -16.5350  -29.9090   23.7530 C   0  0  0  0  0  3  0  0  0  0  0  0
  -16.7210  -28.6440   23.1670 C   0  0  0  0  0  3  0  0  0  0  0  0
  -25.8680  -32.5440   23.8370 C   0  0  0  0  0  3  0  0  0  0  0  0
  -25.5550  -33.9410   24.1680 N   0  0  0  0  0  0  0  0  0  0  0  0
  -25.8850  -34.9940   23.4090 C   0  0  0  0  0  0  0  0  0  0  0  0
  -26.5580  -34.8920   22.3790 O   0  0  0  0  0  0  0  0  0  0  0  0
  -24.9670  -34.0940   24.9730 H   0  0  0  0  0  0  0  0  0  0  0  0
  -24.1590  -36.7840   23.0310 C   0  0  0  0  0  1  0  0  0  0  0  0
  -25.3880  -36.3800   23.8600 C   0  0  0  0  0  3  0  0  0  0  0  0
  -27.5070  -37.2640   24.7270 C   0  0  0  0  0  1  0  0  0  0  0  0
  -26.4200  -37.4360   23.7670 N   0  0  0  0  0  0  0  0  0  0  0  0
  -26.0110  -38.3540   23.9140 H   0  0  0  0  0  0  0  0  0  0  0  0
  -26.3970  -31.7760   25.1100 C   0  0  1  0  0  0  0  0  0  0  0  0
  -25.3140  -31.5290   26.1860 C   0  0  0  0  0  1  0  0  0  0  0  0
  -26.9870  -30.4040   24.7070 C   0  0  0  0  0  1  0  0  0  0  0  0
  -27.5460  -32.5780   25.7690 C   0  0  0  0  0  1  0  0  0  0  0  0
  1 17  1  0
  1  3  1  0
  2  1  2  0
  3  6  1  0
  4  2  1  0
  5  2  1  0
  7 21  1  0
  8 13  1  0
  9 10  1  0
  9  8  1  0
 11 10  1  0
 11 26  1  0
 11 12  1  0
 13  7  1  0
 13 12  1  0
 14  7  2  0
 15 16  2  0
 15 17  1  0
 16 18  1  0
 17 19  2  0
 18 21  1  0
 18 20  2  0
 19 20  1  0
 19 51  1  0
 21 22  1  0
 23 24  2  0
 24 43  1  0
 25 24  1  0
 25 28  1  0
 26 23  1  0
 26 27  1  0
 27 25  2  0
 28 29  1  0
 29 30  2  0
 31 34  1  0
 31 30  1  0
 32 31  2  0
 33 32  1  0
 33 28  2  0
 34 35  1  0
 35 36  1  0
 36 37  2  0
 38 37  1  0
 38 42  1  0
 39 38  2  0
 40 35  2  0
 40 39  1  0
 41 40  1  0
 43 44  1  0
 44 47  1  0
 44 46  1  0
 45 43  2  0
 48 49  1  0
 48 23  1  0
 50 48  1  0
 51 53  1  0
 52 51  1  0
 54  3  1  0
 54 55  1  0
 56 55  1  0
 56 60  1  0
 57 56  1  0
 58 57  1  0
 59 57  2  0
 60 62  1  0
 61 72  2  0
 62 67  1  0
 63 71  1  0
 63 73  1  0
 64 70  1  0
 64 66  1  0
 65 71  1  0
 66 65  1  0
 67 66  2  0
 68 62  2  0
 69 68  1  0
 69 64  2  0
 70 63  1  0
 71 61  1  0
 73 75  2  0
 74 73  1  0
 76 74  1  0
 77 86  2  0
 77 82  1  0
 78 74  1  0
 78 82  1  0
 79 78  1  0
 80 81  1  0
 80 79  1  0
 81 77  1  0
 82 83  2  0
 83 84  1  0
 85 84  2  0
 86 85  1  0
 87 61  1  0
 87 88  1  0
 87 97  1  0
 88 91  1  0
 89 93  1  0
 89 88  1  0
 90 89  2  0
 93 92  1  0
 95 93  1  0
 95 96  1  0
 95 94  1  0
 97100  1  1
 97 98  1  0
 99 97  1  0
M  ISO  4   7 100  21 100  56 101  60 101
M  END
>  <TORSDO>  (52) 
F 21

>  <SCORE>  (52) 
-13.973

>  <name>  (52) 
51

>  <ligand_id>  (52) 
51

>  <original_smiles>  (52) 
[H]c1c(N([H])C(=O)N2C([H])([H])C([H])([H])C([H])([H])C([H])(n3nc(-c4c([H])c([H])c(Oc5c([H])c([H])c(F)c([H])c5F)c([H])c4[H])c(C(=O)N([H])[H])c3N([H])[H])C2([H])[H])nc(N([H])[H])c(C(N([H])[H])=[N+]([H])C([H])([H])C([H])([H])C([H])(Oc2c([H])c([H])c3c(c2[H])C([H])([H])N(C(=O)C([H])(N([H])C(=O)C([H])(N([H])C([H])([H])[H])C([H])([H])[H])C(C([H])([H])[H])(C([H])([H])[H])C([H])([H])[H])C([H])(C(=O)N([H])C2([H])c4c([H])c([H])c([H])c([H])c4C([H])([H])C([H])([H])C2([H])[H])C3([H])[H])C(=O)C([H])([H])[H])c1[H]

>  <smiles>  (52) 
[H]c1c(N([H])C(=O)N2C([H])([H])C([H])([H])C([H])([H])C([H])(n3nc(-c4c([H])c([H])c(Oc5c([H])c([H])c(F)c([H])c5F)c([H])c4[H])c(C(=O)N([H])[H])c3N([H])[H])C2([H])[H])nc(N([H])[H])c(C(N([H])[H])=[N+]([H])C([H])([H])C([H])([H])C([H])(Oc2c([H])c([H])c3c(c2[H])C([H])([H])N(C(=O)C([H])(N([H])C(=O)C([H])(N([H])C([H])([H])[H])C([H])([H])[H])C(C([H])([H])[H])(C([H])([H])[H])C([H])([H])[H])C([H])(C(=O)N([H])C2([H])c4c([H])c([H])c([H])c([H])c4C([H])([H])C([H])([H])C2([H])[H])C3([H])[H])C(=O)C([H])([H])[H])c1[H]

$$$$
52:0:0
     RDKit          3D

 97105  0  0  1  0  0  0  0  0999 V2000
  -31.1960  -20.1750   20.7430 C   0  0  0  0  0  0  0  0  0  0  0  0
  -30.3900  -22.5510   20.3840 C   0  0  0  0  0  0  0  0  0  0  0  0
  -30.3690  -21.2290   20.9630 N   0  0  0  0  0  0  0  0  0  0  0  0
  -32.1540  -20.2010   19.8110 N   0  0  0  0  0  4  0  0  0  0  0  0
  -31.2370  -22.8890   19.5490 O   0  0  0  0  0  0  0  0  0  0  0  0
  -29.6590  -20.9820   21.6330 H   0  0  0  0  0  0  0  0  0  0  0  0
  -32.8290  -19.4540   19.7450 H   0  0  0  0  0  0  0  0  0  0  0  0
  -32.2670  -21.0330   19.2470 H   0  0  0  0  0  0  0  0  0  0  0  0
  -31.0510  -17.6500   21.0360 C   0  0  0  0  0  3  0  0  0  0  0  0
  -30.9080  -19.1410   22.9750 C   0  0  0  0  0  3  0  0  0  0  0  0
  -30.6760  -16.7420   23.2730 C   0  0  0  0  0  3  0  0  0  0  0  0
  -31.0530  -18.9680   21.5800 C   0  0  0  0  0  0  0  0  0  0  0  0
  -30.8510  -16.5270   21.8870 C   0  0  0  0  0  0  0  0  0  0  0  0
  -30.7150  -18.0350   23.8140 C   0  0  0  0  0  0  0  0  0  0  0  0
  -30.5530  -18.2170   25.1470 F   0  0  0  0  0  0  0  0  0  0  0  0
  -31.1740  -14.4940   20.3920 C   0  0  0  0  0  0  0  0  0  0  0  0
  -30.7850  -12.4600   19.0230 C   0  0  0  0  0  2  0  0  0  0  0  0
  -29.8200  -12.7510   17.8560 C   0  0  0  0  0  2  0  0  0  0  0  0
  -28.3470  -12.6310   18.3000 C   0  0  0  0  0  2  0  0  0  0  0  0
  -28.0630  -13.4230   19.6020 C   0  0  0  0  0  3  0  0  0  0  0  0
  -29.1130  -13.0690   20.6770 C   0  0  0  0  0  2  0  0  0  0  0  0
  -30.4570  -13.3640   20.1350 N   0  0  0  0  0  0  0  0  0  0  0  0
  -32.1850  -14.8170   19.7590 O   0  0  0  0  0  0  0  0  0  0  0  0
  -30.7210  -15.1710   21.4610 N   0  0  0  0  0  0  0  0  0  0  0  0
  -30.0490  -14.6340   21.9890 H   0  0  0  0  0  0  0  0  0  0  0  0
  -25.6780  -14.1140   20.3040 C   0  0  0  0  0  0  0  0  0  0  0  0
  -24.5910  -13.3780   20.6930 C   0  0  0  0  0  0  0  0  0  0  0  0
  -25.0130  -12.0130   20.6760 C   0  0  0  0  0  0  0  0  0  0  0  0
  -26.6990  -13.1990   20.0850 N   0  0  0  0  0  0  0  0  0  0  0  0
  -26.2990  -11.9310   20.3620 N   0  0  0  0  0  0  0  0  0  0  0  0
  -24.2530  -10.7750   20.8850 C   0  0  0  0  0  0  0  0  0  0  0  0
  -24.6460   -9.8180   21.8490 C   0  0  0  0  0  3  0  0  0  0  0  0
  -23.8870   -8.6450   22.0430 C   0  0  0  0  0  3  0  0  0  0  0  0
  -22.7200   -8.4190   21.2740 C   0  0  0  0  0  0  0  0  0  0  0  0
  -22.3480   -9.3620   20.3000 C   0  0  0  0  0  3  0  0  0  0  0  0
  -23.1070  -10.5260   20.1030 C   0  0  0  0  0  3  0  0  0  0  0  0
  -21.9370   -7.2940   21.3750 O   0  0  0  0  0  0  0  0  0  0  0  0
  -21.8160   -6.6060   22.5550 C   0  0  0  0  0  0  0  0  0  0  0  0
  -21.3630   -7.2290   23.7380 C   0  0  0  0  0  3  0  0  0  0  0  0
  -21.1880   -6.4680   24.9110 C   0  0  0  0  0  3  0  0  0  0  0  0
  -21.4570   -5.0870   24.9020 C   0  0  0  0  0  0  0  0  0  0  0  0
  -21.9030   -4.4640   23.7230 C   0  0  0  0  0  3  0  0  0  0  0  0
  -22.0800   -5.2210   22.5530 C   0  0  0  0  0  0  0  0  0  0  0  0
  -22.4900   -4.6110   21.4140 F   0  0  0  0  0  0  0  0  0  0  0  0
  -21.2800   -4.3540   26.0270 F   0  0  0  0  0  0  0  0  0  0  0  0
  -23.2080  -13.9000   20.9690 C   0  0  0  0  0  0  0  0  0  0  0  0
  -22.4710  -13.2450   21.8590 N   0  0  0  0  0  0  0  0  0  0  0  0
  -22.7910  -14.9220   20.4250 O   0  0  0  0  0  0  0  0  0  0  0  0
  -22.8200  -12.4150   22.3190 H   0  0  0  0  0  0  0  0  0  0  0  0
  -21.5470  -13.5780   22.0940 H   0  0  0  0  0  0  0  0  0  0  0  0
  -25.8730  -15.4770   20.1010 N   0  0  0  0  0  0  0  0  0  0  0  0
  -25.1160  -16.1480   20.1840 H   0  0  0  0  0  0  0  0  0  0  0  0
  -26.7240  -15.8860   19.7340 H   0  0  0  0  0  0  0  0  0  0  0  0
  -29.2970  -23.5220   20.8880 C   0  0  0  0  0  2  0  0  0  0  0  0
  -29.8130  -24.9590   21.1820 C   0  0  0  0  0  2  0  0  0  0  0  0
  -28.7090  -26.0290   21.4030 C   0  0  0  0  0  2  0  0  0  0  0  0
  -28.2910  -26.6170   20.1680 O   0  0  0  0  0  0  0  0  0  0  0  0
  -24.5650  -31.9250   23.2220 C   0  0  0  0  0  0  0  0  0  0  0  0
  -27.1510  -27.3870   20.2290 C   0  0  0  0  0  0  0  0  0  0  0  0
  -23.3360  -30.4990   21.6160 C   0  0  0  0  0  3  0  0  0  0  0  0
  -24.7690  -28.9110   20.2220 C   0  0  0  0  0  0  0  0  0  0  0  0
  -25.8630  -30.8250   21.4010 C   0  0  0  0  0  2  0  0  0  0  0  0
  -25.9330  -29.4360   20.8000 C   0  0  0  0  0  0  0  0  0  0  0  0
  -27.1280  -28.6760   20.8110 C   0  0  0  0  0  3  0  0  0  0  0  0
  -25.9760  -26.8800   19.6430 C   0  0  0  0  0  3  0  0  0  0  0  0
  -24.7830  -27.6290   19.6450 C   0  0  0  0  0  3  0  0  0  0  0  0
  -23.5320  -29.7830   20.2530 C   0  0  0  0  0  2  0  0  0  0  0  0
  -24.6070  -31.1000   22.1380 N   0  0  0  0  0  0  0  0  0  0  0  0
  -23.4900  -32.2220   23.7610 O   0  0  0  0  0  0  0  0  0  0  0  0
  -22.6770  -29.5090   22.6040 C   0  0  0  0  0  0  0  0  0  0  0  0
  -21.3530  -29.3170   22.4680 N   0  0  0  0  0  0  0  0  0  0  0  0
  -23.3530  -28.9140   23.4480 O   0  0  0  0  0  0  0  0  0  0  0  0
  -20.8710  -29.8460   21.7550 H   0  0  0  0  0  0  0  0  0  0  0  0
  -17.9860  -28.0970   22.9390 C   0  0  0  0  0  0  0  0  0  0  0  0
  -20.5330  -28.4030   23.2590 C   0  0  0  0  0  3  0  0  0  0  0  0
  -20.6680  -26.9510   22.7450 C   0  0  0  0  0  2  0  0  0  0  0  0
  -19.5960  -26.5700   21.7210 C   0  0  0  0  0  2  0  0  0  0  0  0
  -18.1970  -26.7230   22.3260 C   0  0  0  0  0  2  0  0  0  0  0  0
  -19.0840  -28.8920   23.3620 C   0  0  0  0  0  0  0  0  0  0  0  0
  -18.8360  -30.1770   23.8920 C   0  0  0  0  0  3  0  0  0  0  0  0
  -17.5210  -30.6670   24.0050 C   0  0  0  0  0  3  0  0  0  0  0  0
  -16.4370  -29.8690   23.6000 C   0  0  0  0  0  3  0  0  0  0  0  0
  -16.6700  -28.5870   23.0720 C   0  0  0  0  0  3  0  0  0  0  0  0
  -25.8630  -32.5540   23.8210 C   0  0  0  0  0  3  0  0  0  0  0  0
  -26.4110  -31.7710   25.0770 C   0  0  1  0  0  0  0  0  0  0  0  0
  -25.3410  -31.5130   26.1630 C   0  0  0  0  0  1  0  0  0  0  0  0
  -26.9970  -30.4030   24.6550 C   0  0  0  0  0  1  0  0  0  0  0  0
  -27.5670  -32.5670   25.7260 C   0  0  0  0  0  1  0  0  0  0  0  0
  -25.5590  -33.9470   24.1680 N   0  0  0  0  0  0  0  0  0  0  0  0
  -25.8770  -35.0080   23.4130 C   0  0  0  0  0  0  0  0  0  0  0  0
  -26.5290  -34.9130   22.3690 O   0  0  0  0  0  0  0  0  0  0  0  0
  -24.9770  -34.0950   24.9800 H   0  0  0  0  0  0  0  0  0  0  0  0
  -24.1380  -36.7980   23.1050 C   0  0  0  0  0  1  0  0  0  0  0  0
  -25.3960  -36.3900   23.8900 C   0  0  0  0  0  3  0  0  0  0  0  0
  -27.5440  -37.2710   24.6870 C   0  0  0  0  0  1  0  0  0  0  0  0
  -26.4240  -37.4470   23.7670 N   0  0  0  0  0  0  0  0  0  0  0  0
  -26.0180  -38.3640   23.9330 H   0  0  0  0  0  0  0  0  0  0  0  0
  1  3  1  0
  1 12  1  0
  2 54  1  0
  2  3  1  0
  3  6  1  0
  4  1  2  0
  5  2  2  0
  7  4  1  0
  8  4  1  0
  9 12  2  0
  9 13  1  0
 10 14  2  0
 11 14  1  0
 12 10  1  0
 13 11  2  0
 14 15  1  0
 16 24  1  0
 17 22  1  0
 18 19  1  0
 18 17  1  0
 20 19  1  0
 20 29  1  0
 20 21  1  0
 22 16  1  0
 22 21  1  0
 23 16  2  0
 24 13  1  0
 24 25  1  0
 26 27  2  0
 27 46  1  0
 28 27  1  0
 28 31  1  0
 29 26  1  0
 29 30  1  0
 30 28  2  0
 31 32  1  0
 32 33  2  0
 34 37  1  0
 34 33  1  0
 35 34  2  0
 36 35  1  0
 36 31  2  0
 37 38  1  0
 38 39  1  0
 39 40  2  0
 41 40  1  0
 41 45  1  0
 42 41  2  0
 43 38  2  0
 43 42  1  0
 44 43  1  0
 46 47  1  0
 47 50  1  0
 47 49  1  0
 48 46  2  0
 51 52  1  0
 51 26  1  0
 53 51  1  0
 54 55  1  0
 55 56  1  0
 57 59  1  0
 57 56  1  0
 58 69  2  0
 59 64  1  0
 60 68  1  0
 60 70  1  0
 61 67  1  0
 61 63  1  0
 62 68  1  0
 63 64  2  0
 63 62  1  0
 65 66  1  0
 65 59  2  0
 66 61  2  0
 67 60  1  0
 68 58  1  0
 70 72  2  0
 71 70  1  0
 73 71  1  0
 74 83  2  0
 74 79  1  0
 75 71  1  0
 75 79  1  0
 76 75  1  0
 77 78  1  0
 77 76  1  0
 78 74  1  0
 79 80  2  0
 80 81  1  0
 82 81  2  0
 83 82  1  0
 84 58  1  0
 84 89  1  0
 84 85  1  0
 85 88  1  1
 85 86  1  0
 87 85  1  0
 89 92  1  0
 90 94  1  0
 90 89  1  0
 91 90  2  0
 94 93  1  0
 96 94  1  0
 96 97  1  0
 96 95  1  0
M  ISO  4  16 100  24 100  56 101  57 101
M  END
>  <TORSDO>  (53) 
F 20

>  <SCORE>  (53) 
-11.812

>  <name>  (53) 
52

>  <ligand_id>  (53) 
52

>  <original_smiles>  (53) 
[H]c1c([H])c([H])c2c(c1[H])C([H])([H])C([H])([H])C([H])([H])C2([H])N([H])C(=O)C1([H])N(C(=O)C([H])(N([H])C(=O)C([H])(N([H])C([H])([H])[H])C([H])([H])[H])C(C([H])([H])[H])(C([H])([H])[H])C([H])([H])[H])C([H])([H])c2c([H])c(OC([H])([H])C([H])([H])C([H])([H])C(=O)N([H])C(c3c([H])c(F)c([H])c(N([H])C(=O)N4C([H])([H])C([H])([H])C([H])([H])C([H])(n5nc(-c6c([H])c([H])c(Oc7c([H])c([H])c(F)c([H])c7F)c([H])c6[H])c(C(=O)N([H])[H])c5N([H])[H])C4([H])[H])c3[H])=[N+]([H])[H])c([H])c([H])c2C1([H])[H]

>  <smiles>  (53) 
[H]c1c([H])c([H])c2c(c1[H])C([H])([H])C([H])([H])C([H])([H])C2([H])N([H])C(=O)C1([H])N(C(=O)C([H])(N([H])C(=O)C([H])(N([H])C([H])([H])[H])C([H])([H])[H])C(C([H])([H])[H])(C([H])([H])[H])C([H])([H])[H])C([H])([H])c2c([H])c(OC([H])([H])C([H])([H])C([H])([H])C(=O)N([H])C(c3c([H])c(F)c([H])c(N([H])C(=O)N4C([H])([H])C([H])([H])C([H])([H])C([H])(n5nc(-c6c([H])c([H])c(Oc7c([H])c([H])c(F)c([H])c7F)c([H])c6[H])c(C(=O)N([H])[H])c5N([H])[H])C4([H])[H])c3[H])=[N+]([H])[H])c([H])c([H])c2C1([H])[H]

$$$$
53:0:0
     RDKit          3D

 98106  0  0  1  0  0  0  0  0999 V2000
  -30.7250  -17.8740   18.8000 C   0  0  0  0  0  3  0  0  0  0  0  0
  -29.9930  -19.5660   20.4030 C   0  0  0  0  0  3  0  0  0  0  0  0
  -30.7560  -20.2420   18.1950 C   0  0  0  0  0  3  0  0  0  0  0  0
  -30.2550  -18.1860   20.0920 C   0  0  0  0  0  0  0  0  0  0  0  0
  -30.9930  -18.8890   17.8600 C   0  0  0  0  0  0  0  0  0  0  0  0
  -30.2380  -20.6140   19.4550 C   0  0  0  0  0  0  0  0  0  0  0  0
  -29.0820  -22.7840   20.1780 C   0  0  0  0  0  0  0  0  0  0  0  0
  -30.1220  -22.0420   19.7090 N   0  0  0  0  0  0  0  0  0  0  0  0
  -28.0510  -22.2500   20.5910 O   0  0  0  0  0  0  0  0  0  0  0  0
  -30.8350  -22.6030   19.2640 H   0  0  0  0  0  0  0  0  0  0  0  0
  -28.2700  -25.1490   20.2810 C   0  0  0  0  0  3  0  0  0  0  0  0
  -29.2980  -24.2620   20.1280 C   0  0  0  0  0  0  0  0  0  0  0  0
  -30.5410  -24.7380   19.9460 O   0  0  0  0  0  0  0  0  0  0  0  0
  -31.1490  -24.0520   20.1930 H   0  0  0  0  0  0  0  0  0  0  0  0
  -28.3780  -26.5490   20.2400 O   0  0  0  0  0  0  0  0  0  0  0  0
  -24.5810  -31.8880   23.2480 C   0  0  0  0  0  0  0  0  0  0  0  0
  -27.2290  -27.3460   20.2250 C   0  0  0  0  0  0  0  0  0  0  0  0
  -23.3890  -30.4860   21.6000 C   0  0  0  0  0  3  0  0  0  0  0  0
  -24.8510  -28.9240   20.1980 C   0  0  0  0  0  0  0  0  0  0  0  0
  -25.9280  -30.8010   21.4450 C   0  0  0  0  0  2  0  0  0  0  0  0
  -26.0080  -29.4200   20.8100 C   0  0  0  0  0  0  0  0  0  0  0  0
  -27.1960  -28.6370   20.8250 C   0  0  0  0  0  3  0  0  0  0  0  0
  -26.0510  -26.8980   19.5810 C   0  0  0  0  0  3  0  0  0  0  0  0
  -24.8700  -27.6630   19.5770 C   0  0  0  0  0  3  0  0  0  0  0  0
  -23.6130  -29.7970   20.2260 C   0  0  0  0  0  2  0  0  0  0  0  0
  -24.6510  -31.0740   22.1540 N   0  0  0  0  0  0  0  0  0  0  0  0
  -23.4940  -32.1710   23.7720 O   0  0  0  0  0  0  0  0  0  0  0  0
  -22.7150  -29.4760   22.5600 C   0  0  0  0  0  0  0  0  0  0  0  0
  -21.3890  -29.3100   22.4240 N   0  0  0  0  0  0  0  0  0  0  0  0
  -23.3830  -28.8400   23.3800 O   0  0  0  0  0  0  0  0  0  0  0  0
  -20.9110  -29.8730   21.7340 H   0  0  0  0  0  0  0  0  0  0  0  0
  -17.9920  -28.1870   22.9280 C   0  0  0  0  0  0  0  0  0  0  0  0
  -20.5550  -28.3850   23.1910 C   0  0  0  0  0  3  0  0  0  0  0  0
  -20.6230  -26.9590   22.6000 C   0  0  0  0  0  2  0  0  0  0  0  0
  -19.5100  -26.6700   21.5890 C   0  0  0  0  0  2  0  0  0  0  0  0
  -18.1350  -26.8410   22.2400 C   0  0  0  0  0  2  0  0  0  0  0  0
  -19.1280  -28.9210   23.3600 C   0  0  0  0  0  0  0  0  0  0  0  0
  -18.9390  -30.1860   23.9590 C   0  0  0  0  0  3  0  0  0  0  0  0
  -17.6450  -30.7100   24.1380 C   0  0  0  0  0  3  0  0  0  0  0  0
  -16.5220  -29.9730   23.7240 C   0  0  0  0  0  3  0  0  0  0  0  0
  -16.6980  -28.7150   23.1200 C   0  0  0  0  0  3  0  0  0  0  0  0
  -25.8630  -32.5160   23.8810 C   0  0  0  0  0  3  0  0  0  0  0  0
  -25.5600  -33.9170   24.2000 N   0  0  0  0  0  0  0  0  0  0  0  0
  -25.9020  -34.9630   23.4380 C   0  0  0  0  0  0  0  0  0  0  0  0
  -26.5780  -34.8500   22.4110 O   0  0  0  0  0  0  0  0  0  0  0  0
  -24.9630  -34.0800   25.0000 H   0  0  0  0  0  0  0  0  0  0  0  0
  -24.1850  -36.7630   23.0570 C   0  0  0  0  0  1  0  0  0  0  0  0
  -25.4180  -36.3570   23.8830 C   0  0  0  0  0  3  0  0  0  0  0  0
  -27.5490  -37.2350   24.7310 C   0  0  0  0  0  1  0  0  0  0  0  0
  -26.4570  -37.4050   23.7780 N   0  0  0  0  0  0  0  0  0  0  0  0
  -26.0500  -38.3270   23.9170 H   0  0  0  0  0  0  0  0  0  0  0  0
  -26.3590  -31.7480   25.1670 C   0  0  1  0  0  0  0  0  0  0  0  0
  -25.2540  -31.5230   26.2240 C   0  0  0  0  0  1  0  0  0  0  0  0
  -26.9370  -30.3650   24.7900 C   0  0  0  0  0  1  0  0  0  0  0  0
  -27.5070  -32.5390   25.8370 C   0  0  0  0  0  1  0  0  0  0  0  0
  -31.5590  -18.5220   16.4930 C   0  0  1  0  0  0  0  0  0  0  0  0
  -32.2850  -17.4050   16.5590 F   0  0  0  0  0  0  0  0  0  0  0  0
  -30.5590  -18.3250   15.6340 F   0  0  0  0  0  0  0  0  0  0  0  0
  -32.3440  -19.4910   16.0210 F   0  0  0  0  0  0  0  0  0  0  0  0
  -30.1680  -17.0530   21.1560 C   0  0  0  0  0  2  0  0  0  0  0  0
  -30.6170  -14.5830   20.4680 C   0  0  0  0  0  0  0  0  0  0  0  0
  -30.3810  -12.3770   19.3610 C   0  0  0  0  0  2  0  0  0  0  0  0
  -29.4400  -12.5310   18.1470 C   0  0  0  0  0  2  0  0  0  0  0  0
  -27.9630  -12.3810   18.5680 C   0  0  0  0  0  2  0  0  0  0  0  0
  -27.6070  -13.2390   19.8100 C   0  0  0  0  0  3  0  0  0  0  0  0
  -28.6570  -13.0550   20.9280 C   0  0  0  0  0  2  0  0  0  0  0  0
  -29.9720  -13.3840   20.3550 N   0  0  0  0  0  0  0  0  0  0  0  0
  -31.7980  -14.7270   20.1490 O   0  0  0  0  0  0  0  0  0  0  0  0
  -29.8240  -15.6490   20.7690 N   0  0  0  0  0  0  0  0  0  0  0  0
  -28.8560  -15.4070   20.9060 H   0  0  0  0  0  0  0  0  0  0  0  0
  -25.2100  -13.8590   20.4980 C   0  0  0  0  0  0  0  0  0  0  0  0
  -24.1350  -13.0950   20.8620 C   0  0  0  0  0  0  0  0  0  0  0  0
  -24.5900  -11.7410   20.8480 C   0  0  0  0  0  0  0  0  0  0  0  0
  -26.2530  -12.9720   20.2830 N   0  0  0  0  0  0  0  0  0  0  0  0
  -25.8840  -11.6940   20.5550 N   0  0  0  0  0  0  0  0  0  0  0  0
  -23.8570  -10.4850   21.0380 C   0  0  0  0  0  0  0  0  0  0  0  0
  -24.2790   -9.5180   21.9770 C   0  0  0  0  0  3  0  0  0  0  0  0
  -23.5460   -8.3240   22.1540 C   0  0  0  0  0  3  0  0  0  0  0  0
  -22.3760   -8.0900   21.3940 C   0  0  0  0  0  0  0  0  0  0  0  0
  -21.9730   -9.0450   20.4430 C   0  0  0  0  0  3  0  0  0  0  0  0
  -22.7080  -10.2290   20.2630 C   0  0  0  0  0  3  0  0  0  0  0  0
  -21.6140   -6.9490   21.4820 O   0  0  0  0  0  0  0  0  0  0  0  0
  -21.5580   -6.2100   22.6350 C   0  0  0  0  0  0  0  0  0  0  0  0
  -21.1350   -6.7690   23.8610 C   0  0  0  0  0  3  0  0  0  0  0  0
  -21.0240   -5.9560   25.0060 C   0  0  0  0  0  3  0  0  0  0  0  0
  -21.3280   -4.5830   24.9260 C   0  0  0  0  0  0  0  0  0  0  0  0
  -21.7440   -4.0230   23.7060 C   0  0  0  0  0  3  0  0  0  0  0  0
  -21.8550   -4.8330   22.5630 C   0  0  0  0  0  0  0  0  0  0  0  0
  -22.2360   -4.2840   21.3840 F   0  0  0  0  0  0  0  0  0  0  0  0
  -21.2140   -3.7990   26.0240 F   0  0  0  0  0  0  0  0  0  0  0  0
  -22.7370  -13.5810   21.1140 C   0  0  0  0  0  0  0  0  0  0  0  0
  -21.9950  -12.8910   21.9740 N   0  0  0  0  0  0  0  0  0  0  0  0
  -22.3100  -14.6060   20.5820 O   0  0  0  0  0  0  0  0  0  0  0  0
  -22.3540  -12.0630   22.4250 H   0  0  0  0  0  0  0  0  0  0  0  0
  -21.0560  -13.1950   22.1870 H   0  0  0  0  0  0  0  0  0  0  0  0
  -25.3840  -15.2280   20.3080 N   0  0  0  0  0  0  0  0  0  0  0  0
  -24.6150  -15.8860   20.3970 H   0  0  0  0  0  0  0  0  0  0  0  0
  -26.2320  -15.6570   19.9580 H   0  0  0  0  0  0  0  0  0  0  0  0
  1  4  1  0
  3  6  2  0
  4  2  2  0
  4 60  1  0
  5  3  1  0
  5  1  2  0
  6  8  1  0
  6  2  1  0
  7  9  2  0
  8  7  1  0
 10  8  1  0
 12  7  1  0
 12 11  2  0
 13 12  1  0
 13 14  1  0
 15 11  1  0
 16 27  2  0
 17 15  1  0
 17 22  1  0
 18 26  1  0
 18 28  1  0
 19 25  1  0
 19 21  1  0
 20 26  1  0
 21 22  2  0
 21 20  1  0
 23 17  2  0
 24 23  1  0
 24 19  2  0
 25 18  1  0
 26 16  1  0
 28 30  2  0
 29 28  1  0
 31 29  1  0
 32 41  2  0
 32 37  1  0
 33 29  1  0
 33 37  1  0
 34 33  1  0
 35 36  1  0
 35 34  1  0
 36 32  1  0
 37 38  2  0
 38 39  1  0
 40 39  2  0
 41 40  1  0
 42 16  1  0
 42 43  1  0
 42 52  1  0
 43 46  1  0
 44 48  1  0
 44 43  1  0
 45 44  2  0
 48 47  1  0
 50 48  1  0
 50 51  1  0
 50 49  1  0
 52 55  1  1
 52 53  1  0
 54 52  1  0
 56 57  1  1
 56  5  1  0
 58 56  1  0
 59 56  1  0
 61 69  1  0
 62 67  1  0
 63 64  1  0
 63 62  1  0
 65 64  1  0
 65 74  1  0
 65 66  1  0
 67 61  1  0
 67 66  1  0
 68 61  2  0
 69 70  1  0
 69 60  1  0
 71 72  2  0
 72 91  1  0
 73 72  1  0
 73 76  1  0
 74 71  1  0
 74 75  1  0
 75 73  2  0
 76 77  1  0
 77 78  2  0
 79 82  1  0
 79 78  1  0
 80 79  2  0
 81 80  1  0
 81 76  2  0
 82 83  1  0
 83 84  1  0
 84 85  2  0
 86 85  1  0
 86 90  1  0
 87 86  2  0
 88 83  2  0
 88 87  1  0
 89 88  1  0
 91 92  1  0
 92 95  1  0
 92 94  1  0
 93 91  2  0
 96 97  1  0
 96 71  1  0
 98 96  1  0
M  ISO  4  11 101  15 101  61 100  69 100
M  END
>  <TORSDO>  (54) 
F 21

>  <SCORE>  (54) 
-13.918

>  <name>  (54) 
53

>  <ligand_id>  (54) 
53

>  <original_smiles>  (54) 
[H]OC(C(=O)N([H])c1c([H])c(C(F)(F)F)c([H])c(C([H])([H])N([H])C(=O)N2C([H])([H])C([H])([H])C([H])([H])C([H])(n3nc(-c4c([H])c([H])c(Oc5c([H])c([H])c(F)c([H])c5F)c([H])c4[H])c(C(=O)N([H])[H])c3N([H])[H])C2([H])[H])c1[H])=C([H])Oc1c([H])c([H])c2c(c1[H])C([H])([H])N(C(=O)C([H])(N([H])C(=O)C([H])(N([H])C([H])([H])[H])C([H])([H])[H])C(C([H])([H])[H])(C([H])([H])[H])C([H])([H])[H])C([H])(C(=O)N([H])C1([H])c3c([H])c([H])c([H])c([H])c3C([H])([H])C([H])([H])C1([H])[H])C2([H])[H]

>  <smiles>  (54) 
[H]OC(C(=O)N([H])c1c([H])c(C(F)(F)F)c([H])c(C([H])([H])N([H])C(=O)N2C([H])([H])C([H])([H])C([H])([H])C([H])(n3nc(-c4c([H])c([H])c(Oc5c([H])c([H])c(F)c([H])c5F)c([H])c4[H])c(C(=O)N([H])[H])c3N([H])[H])C2([H])[H])c1[H])=C([H])Oc1c([H])c([H])c2c(c1[H])C([H])([H])N(C(=O)C([H])(N([H])C(=O)C([H])(N([H])C([H])([H])[H])C([H])([H])[H])C(C([H])([H])[H])(C([H])([H])[H])C([H])([H])[H])C([H])(C(=O)N([H])C1([H])c3c([H])c([H])c([H])c([H])c3C([H])([H])C([H])([H])C1([H])[H])C2([H])[H]

$$$$
55:0:0
     RDKit          3D

 97105  0  0  1  0  0  0  0  0999 V2000
  -29.1120  -20.7120   20.8680 C   0  0  0  0  0  0  0  0  0  0  0  0
  -28.5120  -23.1760   20.8120 C   0  0  0  0  0  0  0  0  0  0  0  0
  -29.3150  -22.0100   20.4860 N   0  0  0  0  0  0  0  0  0  0  0  0
  -28.0110  -20.3550   21.5420 N   0  0  0  0  0  4  0  0  0  0  0  0
  -27.5060  -23.0540   21.5250 O   0  0  0  0  0  0  0  0  0  0  0  0
  -30.1300  -22.1300   19.9040 H   0  0  0  0  0  0  0  0  0  0  0  0
  -27.9110  -19.4230   21.9120 H   0  0  0  0  0  0  0  0  0  0  0  0
  -27.3450  -21.0740   21.7960 H   0  0  0  0  0  0  0  0  0  0  0  0
  -32.4540  -18.9710   20.4280 C   0  0  0  0  0  3  0  0  0  0  0  0
  -31.4770  -19.9770   20.5460 C   0  0  0  0  0  3  0  0  0  0  0  0
  -32.0850  -17.6130   20.3940 C   0  0  0  0  0  3  0  0  0  0  0  0
  -29.7440  -18.2550   20.5620 C   0  0  0  0  0  3  0  0  0  0  0  0
  -30.1100  -19.6370   20.6230 C   0  0  0  0  0  0  0  0  0  0  0  0
  -30.7220  -17.2240   20.4460 C   0  0  0  0  0  0  0  0  0  0  0  0
  -31.0000  -14.7600   19.9470 C   0  0  0  0  0  0  0  0  0  0  0  0
  -30.6740  -12.5320   18.9340 C   0  0  0  0  0  2  0  0  0  0  0  0
  -29.6710  -12.6480   17.7670 C   0  0  0  0  0  2  0  0  0  0  0  0
  -28.2270  -12.4940   18.2810 C   0  0  0  0  0  2  0  0  0  0  0  0
  -27.9320  -13.3890   19.5150 C   0  0  0  0  0  3  0  0  0  0  0  0
  -29.0500  -13.2740   20.5770 C   0  0  0  0  0  2  0  0  0  0  0  0
  -30.3310  -13.5720   19.9190 N   0  0  0  0  0  0  0  0  0  0  0  0
  -32.1040  -14.8860   19.4130 O   0  0  0  0  0  0  0  0  0  0  0  0
  -30.3200  -15.8320   20.4340 N   0  0  0  0  0  0  0  0  0  0  0  0
  -29.3830  -15.6320   20.7450 H   0  0  0  0  0  0  0  0  0  0  0  0
  -25.5970  -13.9850   20.4120 C   0  0  0  0  0  0  0  0  0  0  0  0
  -24.5490  -13.2070   20.8270 C   0  0  0  0  0  0  0  0  0  0  0  0
  -24.9940  -11.8530   20.7170 C   0  0  0  0  0  0  0  0  0  0  0  0
  -26.6140  -13.1050   20.0780 N   0  0  0  0  0  0  0  0  0  0  0  0
  -26.2600  -11.8160   20.3200 N   0  0  0  0  0  0  0  0  0  0  0  0
  -24.2690  -10.5910   20.9120 C   0  0  0  0  0  0  0  0  0  0  0  0
  -24.6860   -9.6410   21.8700 C   0  0  0  0  0  3  0  0  0  0  0  0
  -23.9620   -8.4430   22.0520 C   0  0  0  0  0  3  0  0  0  0  0  0
  -22.8070   -8.1860   21.2750 C   0  0  0  0  0  0  0  0  0  0  0  0
  -22.4100   -9.1250   20.3080 C   0  0  0  0  0  3  0  0  0  0  0  0
  -23.1340  -10.3140   20.1230 C   0  0  0  0  0  3  0  0  0  0  0  0
  -22.0570   -7.0390   21.3660 O   0  0  0  0  0  0  0  0  0  0  0  0
  -21.9050   -6.3680   22.5530 C   0  0  0  0  0  0  0  0  0  0  0  0
  -21.2990   -6.9720   23.6770 C   0  0  0  0  0  3  0  0  0  0  0  0
  -21.1010   -6.2240   24.8560 C   0  0  0  0  0  3  0  0  0  0  0  0
  -21.4980   -4.8750   24.9100 C   0  0  0  0  0  0  0  0  0  0  0  0
  -22.0980   -4.2720   23.7900 C   0  0  0  0  0  3  0  0  0  0  0  0
  -22.2980   -5.0160   22.6140 C   0  0  0  0  0  0  0  0  0  0  0  0
  -22.8560   -4.4240   21.5310 F   0  0  0  0  0  0  0  0  0  0  0  0
  -21.3010   -4.1550   26.0380 F   0  0  0  0  0  0  0  0  0  0  0  0
  -23.1780  -13.6850   21.2100 C   0  0  0  0  0  0  0  0  0  0  0  0
  -22.5000  -12.9570   22.0910 N   0  0  0  0  0  0  0  0  0  0  0  0
  -22.7210  -14.7370   20.7660 O   0  0  0  0  0  0  0  0  0  0  0  0
  -22.8830  -12.1050   22.4700 H   0  0  0  0  0  0  0  0  0  0  0  0
  -21.5830  -13.2570   22.3890 H   0  0  0  0  0  0  0  0  0  0  0  0
  -25.7620  -15.3580   20.2680 N   0  0  0  0  0  0  0  0  0  0  0  0
  -25.0040  -16.0110   20.4380 H   0  0  0  0  0  0  0  0  0  0  0  0
  -26.5760  -15.7980   19.8580 H   0  0  0  0  0  0  0  0  0  0  0  0
  -28.3050  -25.5950   20.5710 C   0  0  0  0  0  3  0  0  0  0  0  0
  -28.9750  -24.4580   20.2500 C   0  0  0  0  0  0  0  0  0  0  0  0
  -30.0350  -24.4850   19.4290 O   0  0  0  0  0  0  0  0  0  0  0  0
  -30.1630  -25.3930   19.1780 H   0  0  0  0  0  0  0  0  0  0  0  0
  -28.5600  -26.8800   20.1050 O   0  0  0  0  0  0  0  0  0  0  0  0
  -24.7240  -31.9470   23.3810 C   0  0  0  0  0  0  0  0  0  0  0  0
  -27.4470  -27.7040   20.0780 C   0  0  0  0  0  0  0  0  0  0  0  0
  -23.5600  -30.6440   21.6330 C   0  0  0  0  0  3  0  0  0  0  0  0
  -25.0520  -29.2170   20.1330 C   0  0  0  0  0  0  0  0  0  0  0  0
  -26.0890  -31.0280   21.5070 C   0  0  0  0  0  2  0  0  0  0  0  0
  -26.1990  -29.7010   20.7780 C   0  0  0  0  0  0  0  0  0  0  0  0
  -27.4040  -28.9520   20.7480 C   0  0  0  0  0  3  0  0  0  0  0  0
  -26.2880  -27.2540   19.4100 C   0  0  0  0  0  3  0  0  0  0  0  0
  -25.0930  -27.9950   19.4430 C   0  0  0  0  0  3  0  0  0  0  0  0
  -23.7990  -30.0610   20.2160 C   0  0  0  0  0  2  0  0  0  0  0  0
  -24.8080  -31.2180   22.2330 N   0  0  0  0  0  0  0  0  0  0  0  0
  -23.6310  -32.1770   23.9180 O   0  0  0  0  0  0  0  0  0  0  0  0
  -22.8990  -29.5590   22.5150 C   0  0  0  0  0  0  0  0  0  0  0  0
  -21.5830  -29.3590   22.3370 N   0  0  0  0  0  0  0  0  0  0  0  0
  -23.5700  -28.9030   23.3160 O   0  0  0  0  0  0  0  0  0  0  0  0
  -21.1020  -29.9420   21.6660 H   0  0  0  0  0  0  0  0  0  0  0  0
  -18.2160  -28.0890   22.6790 C   0  0  0  0  0  0  0  0  0  0  0  0
  -20.7620  -28.3650   23.0300 C   0  0  0  0  0  3  0  0  0  0  0  0
  -20.9000  -26.9730   22.3710 C   0  0  0  0  0  2  0  0  0  0  0  0
  -19.8280  -26.6980   21.3110 C   0  0  0  0  0  2  0  0  0  0  0  0
  -18.4280  -26.7860   21.9280 C   0  0  0  0  0  2  0  0  0  0  0  0
  -19.3130  -28.8390   23.1830 C   0  0  0  0  0  0  0  0  0  0  0  0
  -19.0600  -30.0620   23.8420 C   0  0  0  0  0  3  0  0  0  0  0  0
  -17.7460  -30.5350   24.0040 C   0  0  0  0  0  3  0  0  0  0  0  0
  -16.6630  -29.7820   23.5180 C   0  0  0  0  0  3  0  0  0  0  0  0
  -16.8990  -28.5600   22.8610 C   0  0  0  0  0  3  0  0  0  0  0  0
  -25.9930  -32.5490   24.0620 C   0  0  0  0  0  3  0  0  0  0  0  0
  -26.4610  -31.7370   25.3320 C   0  0  1  0  0  0  0  0  0  0  0  0
  -25.3270  -31.4650   26.3480 C   0  0  0  0  0  1  0  0  0  0  0  0
  -27.0590  -30.3720   24.9180 C   0  0  0  0  0  1  0  0  0  0  0  0
  -27.5830  -32.5090   26.0640 C   0  0  0  0  0  1  0  0  0  0  0  0
  -25.6870  -33.9400   24.4190 N   0  0  0  0  0  0  0  0  0  0  0  0
  -26.0490  -35.0080   23.6950 C   0  0  0  0  0  0  0  0  0  0  0  0
  -26.7470  -34.9240   22.6810 O   0  0  0  0  0  0  0  0  0  0  0  0
  -25.0710  -34.0810   25.2060 H   0  0  0  0  0  0  0  0  0  0  0  0
  -24.3480  -36.8240   23.3340 C   0  0  0  0  0  1  0  0  0  0  0  0
  -25.5600  -36.3890   24.1730 C   0  0  0  0  0  3  0  0  0  0  0  0
  -27.6670  -37.2400   25.1000 C   0  0  0  0  0  1  0  0  0  0  0  0
  -26.6040  -37.4340   24.1180 N   0  0  0  0  0  0  0  0  0  0  0  0
  -26.2000  -38.3550   24.2660 H   0  0  0  0  0  0  0  0  0  0  0  0
  1  4  2  0
  2  5  2  0
  3  2  1  0
  3  1  1  0
  4  8  1  0
  4  7  1  0
  6  3  1  0
  9 10  1  0
 10 13  2  0
 11  9  2  0
 11 14  1  0
 12 13  1  0
 13  1  1  0
 14 12  2  0
 15 23  1  0
 16 21  1  0
 17 18  1  0
 17 16  1  0
 19 18  1  0
 19 28  1  0
 19 20  1  0
 21 15  1  0
 21 20  1  0
 22 15  2  0
 23 14  1  0
 23 24  1  0
 25 26  2  0
 26 45  1  0
 27 26  1  0
 27 30  1  0
 28 29  1  0
 28 25  1  0
 29 27  2  0
 30 31  1  0
 31 32  2  0
 33 36  1  0
 33 32  1  0
 34 33  2  0
 35 34  1  0
 35 30  2  0
 36 37  1  0
 37 42  2  0
 37 38  1  0
 38 39  2  0
 39 40  1  0
 40 44  1  0
 41 40  2  0
 42 41  1  0
 43 42  1  0
 45 46  1  0
 46 49  1  0
 46 48  1  0
 47 45  2  0
 50 25  1  0
 50 51  1  0
 52 50  1  0
 54 53  2  0
 54  2  1  0
 55 54  1  0
 56 55  1  0
 57 53  1  0
 58 69  2  0
 59 57  1  0
 59 64  1  0
 60 68  1  0
 60 70  1  0
 61 67  1  0
 61 63  1  0
 62 68  1  0
 63 62  1  0
 64 63  2  0
 65 66  1  0
 65 59  2  0
 66 61  2  0
 67 60  1  0
 68 58  1  0
 70 72  2  0
 71 70  1  0
 73 71  1  0
 74 83  2  0
 74 79  1  0
 75 71  1  0
 75 79  1  0
 76 75  1  0
 77 78  1  0
 77 76  1  0
 78 74  1  0
 79 80  2  0
 80 81  1  0
 82 81  2  0
 83 82  1  0
 84 58  1  0
 84 89  1  0
 84 85  1  0
 85 88  1  1
 85 86  1  0
 87 85  1  0
 89 92  1  0
 90 94  1  0
 90 89  1  0
 91 90  2  0
 94 93  1  0
 96 94  1  0
 96 97  1  0
 96 95  1  0
M  ISO  4  15 100  23 100  53 101  57 101
M  END
>  <TORSDO>  (55) 
F 19

>  <SCORE>  (55) 
-13.859

>  <name>  (55) 
55

>  <ligand_id>  (55) 
55

>  <original_smiles>  (55) 
[H]OC(C(=O)N([H])C(c1c([H])c([H])c([H])c(N([H])C(=O)N2C([H])([H])C([H])([H])C([H])([H])C([H])(n3nc(-c4c([H])c([H])c(Oc5c([H])c([H])c(F)c([H])c5F)c([H])c4[H])c(C(=O)N([H])[H])c3N([H])[H])C2([H])[H])c1[H])=[N+]([H])[H])=C([H])Oc1c([H])c([H])c2c(c1[H])C([H])([H])N(C(=O)C([H])(N([H])C(=O)C([H])(N([H])C([H])([H])[H])C([H])([H])[H])C(C([H])([H])[H])(C([H])([H])[H])C([H])([H])[H])C([H])(C(=O)N([H])C1([H])c3c([H])c([H])c([H])c([H])c3C([H])([H])C([H])([H])C1([H])[H])C2([H])[H]

>  <smiles>  (55) 
[H]OC(C(=O)N([H])C(c1c([H])c([H])c([H])c(N([H])C(=O)N2C([H])([H])C([H])([H])C([H])([H])C([H])(n3nc(-c4c([H])c([H])c(Oc5c([H])c([H])c(F)c([H])c5F)c([H])c4[H])c(C(=O)N([H])[H])c3N([H])[H])C2([H])[H])c1[H])=[N+]([H])[H])=C([H])Oc1c([H])c([H])c2c(c1[H])C([H])([H])N(C(=O)C([H])(N([H])C(=O)C([H])(N([H])C([H])([H])[H])C([H])([H])[H])C(C([H])([H])[H])(C([H])([H])[H])C([H])([H])[H])C([H])(C(=O)N([H])C1([H])c3c([H])c([H])c([H])c([H])c3C([H])([H])C([H])([H])C1([H])[H])C2([H])[H]

$$$$
56:0:0
     RDKit          3D

 97105  0  0  1  0  0  0  0  0999 V2000
  -31.4150  -20.8870   21.5770 C   0  0  0  0  0  1  0  0  0  0  0  0
  -30.5820  -20.5580   20.3210 C   0  0  0  0  0  3  0  0  0  0  0  0
  -31.1470  -14.5430   20.7130 C   0  0  0  0  0  0  0  0  0  0  0  0
  -30.8890  -12.2530   19.7930 C   0  0  0  0  0  2  0  0  0  0  0  0
  -30.0990  -12.2750   18.4720 C   0  0  0  0  0  2  0  0  0  0  0  0
  -28.5930  -12.1660   18.7590 C   0  0  0  0  0  2  0  0  0  0  0  0
  -28.1200  -13.1660   19.8480 C   0  0  0  0  0  3  0  0  0  0  0  0
  -29.0450  -13.1600   21.0840 C   0  0  0  0  0  2  0  0  0  0  0  0
  -30.4230  -13.3840   20.6240 N   0  0  0  0  0  0  0  0  0  0  0  0
  -32.2840  -14.6200   20.2390 O   0  0  0  0  0  0  0  0  0  0  0  0
  -30.5900  -17.9700   20.7320 C   0  0  0  0  0  3  0  0  0  0  0  0
  -29.8660  -19.1910   20.5240 C   0  0  0  0  0  0  0  0  0  0  0  0
  -28.4600  -19.1050   20.6060 C   0  0  0  0  0  0  0  0  0  0  0  0
  -29.9180  -16.7310   20.9850 C   0  0  0  0  0  0  0  0  0  0  0  0
  -27.8800  -17.8540   20.8670 C   0  0  0  0  0  0  0  0  0  0  0  0
  -28.5630  -16.7000   21.0250 N   0  0  0  0  0  0  0  0  0  0  0  0
  -30.6810  -15.5940   21.4330 N   0  0  0  0  0  0  0  0  0  0  0  0
  -27.6570  -20.1930   20.4800 F   0  0  0  0  0  0  0  0  0  0  0  0
  -31.4890  -15.9440   21.9200 H   0  0  0  0  0  0  0  0  0  0  0  0
  -25.6790  -13.8360   20.2760 C   0  0  0  0  0  0  0  0  0  0  0  0
  -24.5640  -13.1130   20.5920 C   0  0  0  0  0  0  0  0  0  0  0  0
  -24.9940  -11.7550   20.6800 C   0  0  0  0  0  0  0  0  0  0  0  0
  -26.7250  -12.9330   20.2130 N   0  0  0  0  0  0  0  0  0  0  0  0
  -26.3090  -11.6730   20.5060 N   0  0  0  0  0  0  0  0  0  0  0  0
  -24.2170  -10.5240   20.8580 C   0  0  0  0  0  0  0  0  0  0  0  0
  -24.6180   -9.5240   21.7690 C   0  0  0  0  0  3  0  0  0  0  0  0
  -23.8430   -8.3570   21.9370 C   0  0  0  0  0  3  0  0  0  0  0  0
  -22.6500   -8.1840   21.1940 C   0  0  0  0  0  0  0  0  0  0  0  0
  -22.2670   -9.1730   20.2700 C   0  0  0  0  0  3  0  0  0  0  0  0
  -23.0440  -10.3320   20.1010 C   0  0  0  0  0  3  0  0  0  0  0  0
  -21.8480   -7.0720   21.2720 O   0  0  0  0  0  0  0  0  0  0  0  0
  -21.7940   -6.3020   22.4070 C   0  0  0  0  0  0  0  0  0  0  0  0
  -21.3980   -6.8380   23.6530 C   0  0  0  0  0  3  0  0  0  0  0  0
  -21.2920   -5.9960   24.7780 C   0  0  0  0  0  3  0  0  0  0  0  0
  -21.5690   -4.6210   24.6580 C   0  0  0  0  0  0  0  0  0  0  0  0
  -21.9570   -4.0850   23.4170 C   0  0  0  0  0  3  0  0  0  0  0  0
  -22.0670   -4.9240   22.2950 C   0  0  0  0  0  0  0  0  0  0  0  0
  -22.4210   -4.3990   21.0970 F   0  0  0  0  0  0  0  0  0  0  0  0
  -21.4590   -3.8100   25.7370 F   0  0  0  0  0  0  0  0  0  0  0  0
  -23.1640  -13.6410   20.7110 C   0  0  0  0  0  0  0  0  0  0  0  0
  -22.3640  -13.0560   21.5960 N   0  0  0  0  0  0  0  0  0  0  0  0
  -22.7870  -14.6120   20.0570 O   0  0  0  0  0  0  0  0  0  0  0  0
  -22.6800  -12.2730   22.1500 H   0  0  0  0  0  0  0  0  0  0  0  0
  -21.4200  -13.3930   21.7190 H   0  0  0  0  0  0  0  0  0  0  0  0
  -25.8820  -15.1800   20.0160 N   0  0  0  0  0  0  0  0  0  0  0  0
  -25.1230  -15.8520   19.9930 H   0  0  0  0  0  0  0  0  0  0  0  0
  -26.7940  -15.6240   19.9790 H   0  0  0  0  0  0  0  0  0  0  0  0
  -26.5070  -17.7880   21.0210 N   0  0  0  0  0  0  0  0  0  0  0  0
  -25.9900  -18.6540   21.1030 H   0  0  0  0  0  0  0  0  0  0  0  0
  -26.0840  -16.9670   21.4320 H   0  0  0  0  0  0  0  0  0  0  0  0
  -30.0180  -23.0130   19.7450 C   0  0  0  0  0  0  0  0  0  0  0  0
  -29.6980  -21.7100   19.9700 N   0  0  0  0  0  0  0  0  0  0  0  0
  -31.1760  -23.4170   19.8480 O   0  0  0  0  0  0  0  0  0  0  0  0
  -28.7230  -21.4440   19.8700 H   0  0  0  0  0  0  0  0  0  0  0  0
  -28.9080  -24.0150   19.2950 C   0  0  0  0  0  2  0  0  0  0  0  0
  -28.6980  -25.3140   20.1600 C   0  0  0  0  0  2  0  0  0  0  0  0
  -28.6510  -26.5880   19.4580 O   0  0  0  0  0  0  0  0  0  0  0  0
  -24.7140  -31.3320   23.1140 C   0  0  0  0  0  0  0  0  0  0  0  0
  -27.4810  -27.3230   19.5560 C   0  0  0  0  0  0  0  0  0  0  0  0
  -23.5630  -30.1460   21.2730 C   0  0  0  0  0  3  0  0  0  0  0  0
  -25.0680  -28.8150   19.6960 C   0  0  0  0  0  0  0  0  0  0  0  0
  -26.0900  -30.5450   21.1850 C   0  0  0  0  0  2  0  0  0  0  0  0
  -26.2080  -29.2670   20.3720 C   0  0  0  0  0  0  0  0  0  0  0  0
  -27.4200  -28.5340   20.2930 C   0  0  0  0  0  3  0  0  0  0  0  0
  -26.3230  -26.8900   18.8760 C   0  0  0  0  0  3  0  0  0  0  0  0
  -25.1230  -27.6290   18.9410 C   0  0  0  0  0  3  0  0  0  0  0  0
  -23.8130  -29.6520   19.8240 C   0  0  0  0  0  2  0  0  0  0  0  0
  -24.8050  -30.6830   21.9170 N   0  0  0  0  0  0  0  0  0  0  0  0
  -23.6180  -31.5200   23.6600 O   0  0  0  0  0  0  0  0  0  0  0  0
  -22.9010  -29.0040   22.0810 C   0  0  0  0  0  0  0  0  0  0  0  0
  -21.5680  -28.8820   21.9650 N   0  0  0  0  0  0  0  0  0  0  0  0
  -23.5830  -28.2370   22.7650 O   0  0  0  0  0  0  0  0  0  0  0  0
  -21.0790  -29.5570   21.3930 H   0  0  0  0  0  0  0  0  0  0  0  0
  -18.1630  -27.7580   22.4310 C   0  0  0  0  0  0  0  0  0  0  0  0
  -20.7410  -27.8540   22.5990 C   0  0  0  0  0  3  0  0  0  0  0  0
  -20.7410  -26.5490   21.7700 C   0  0  0  0  0  2  0  0  0  0  0  0
  -19.5770  -26.4640   20.7780 C   0  0  0  0  0  2  0  0  0  0  0  0
  -18.2370  -26.5490   21.5140 C   0  0  0  0  0  2  0  0  0  0  0  0
  -19.3390  -28.3800   22.9270 C   0  0  0  0  0  0  0  0  0  0  0  0
  -19.2150  -29.5220   23.7480 C   0  0  0  0  0  3  0  0  0  0  0  0
  -17.9480  -30.0400   24.0740 C   0  0  0  0  0  3  0  0  0  0  0  0
  -16.7870  -29.4120   23.5930 C   0  0  0  0  0  3  0  0  0  0  0  0
  -16.8950  -28.2710   22.7770 C   0  0  0  0  0  3  0  0  0  0  0  0
  -25.9780  -31.8900   23.8400 C   0  0  0  0  0  3  0  0  0  0  0  0
  -26.4430  -30.9980   25.0560 C   0  0  1  0  0  0  0  0  0  0  0  0
  -25.3160  -30.6910   26.0710 C   0  0  0  0  0  1  0  0  0  0  0  0
  -27.0090  -29.6470   24.5590 C   0  0  0  0  0  1  0  0  0  0  0  0
  -27.5900  -31.7040   25.8170 C   0  0  0  0  0  1  0  0  0  0  0  0
  -25.6660  -33.2540   24.2890 N   0  0  0  0  0  0  0  0  0  0  0  0
  -26.0650  -34.3710   23.6650 C   0  0  0  0  0  0  0  0  0  0  0  0
  -26.8060  -34.3570   22.6780 O   0  0  0  0  0  0  0  0  0  0  0  0
  -25.0200  -33.3390   25.0610 H   0  0  0  0  0  0  0  0  0  0  0  0
  -24.3960  -36.2280   23.3720 C   0  0  0  0  0  1  0  0  0  0  0  0
  -25.5650  -35.7150   24.2270 C   0  0  0  0  0  3  0  0  0  0  0  0
  -27.6350  -36.4690   25.3130 C   0  0  0  0  0  1  0  0  0  0  0  0
  -26.6200  -36.7510   24.3010 N   0  0  0  0  0  0  0  0  0  0  0  0
  -26.2170  -37.6620   24.5010 H   0  0  0  0  0  0  0  0  0  0  0  0
  2 12  1  0
  2  1  1  0
  3 17  1  0
  4  9  1  0
  5  6  1  0
  5  4  1  0
  7  6  1  0
  7 23  1  0
  7  8  1  0
  9  3  1  0
  9  8  1  0
 10  3  2  0
 11 14  1  0
 12 13  1  0
 12 11  2  0
 13 15  2  0
 14 16  2  0
 14 17  1  0
 15 48  1  0
 15 16  1  0
 17 19  1  0
 18 13  1  0
 20 21  2  0
 21 22  1  0
 21 40  1  0
 22 25  1  0
 23 20  1  0
 23 24  1  0
 24 22  2  0
 25 26  1  0
 26 27  2  0
 28 31  1  0
 28 27  1  0
 29 28  2  0
 30 29  1  0
 30 25  2  0
 31 32  1  0
 32 33  1  0
 33 34  2  0
 35 34  1  0
 35 39  1  0
 36 35  2  0
 37 32  2  0
 37 36  1  0
 38 37  1  0
 40 41  1  0
 41 44  1  0
 41 43  1  0
 42 40  2  0
 45 20  1  0
 46 45  1  0
 47 45  1  0
 48 49  1  0
 48 50  1  0
 51 53  2  0
 51 52  1  0
 52  2  1  0
 54 52  1  0
 55 51  1  0
 55 56  1  0
 57 59  1  0
 57 56  1  0
 58 69  2  0
 59 64  1  0
 60 68  1  0
 60 70  1  0
 61 67  1  0
 61 63  1  0
 62 68  1  0
 63 62  1  0
 64 63  2  0
 65 66  1  0
 65 59  2  0
 66 61  2  0
 67 60  1  0
 68 58  1  0
 70 72  2  0
 71 70  1  0
 73 71  1  0
 74 83  2  0
 74 79  1  0
 75 71  1  0
 75 79  1  0
 76 75  1  0
 77 78  1  0
 77 76  1  0
 78 74  1  0
 79 80  2  0
 80 81  1  0
 82 81  2  0
 83 82  1  0
 84 58  1  0
 84 89  1  0
 84 85  1  0
 85 88  1  1
 85 86  1  0
 87 85  1  0
 89 92  1  0
 90 94  1  0
 90 89  1  0
 91 90  2  0
 94 93  1  0
 94 96  1  0
 96 97  1  0
 96 95  1  0
M  ISO  4   3 100  17 100  56 101  57 101
M  END
>  <TORSDO>  (56) 
F 20

>  <SCORE>  (56) 
-11.370

>  <name>  (56) 
56

>  <ligand_id>  (56) 
56

>  <original_smiles>  (56) 
[H]c1c([H])c([H])c2c(c1[H])C([H])([H])C([H])([H])C([H])([H])C2([H])N([H])C(=O)C1([H])N(C(=O)C([H])(N([H])C(=O)C([H])(N([H])C([H])([H])[H])C([H])([H])[H])C(C([H])([H])[H])(C([H])([H])[H])C([H])([H])[H])C([H])([H])c2c([H])c(OC([H])([H])C([H])([H])C(=O)N([H])C([H])(c3c([H])c(N([H])C(=O)N4C([H])([H])C([H])([H])C([H])([H])C([H])(n5nc(-c6c([H])c([H])c(Oc7c([H])c([H])c(F)c([H])c7F)c([H])c6[H])c(C(=O)N([H])[H])c5N([H])[H])C4([H])[H])nc(N([H])[H])c3F)C([H])([H])[H])c([H])c([H])c2C1([H])[H]

>  <smiles>  (56) 
[H]c1c([H])c([H])c2c(c1[H])C([H])([H])C([H])([H])C([H])([H])C2([H])N([H])C(=O)C1([H])N(C(=O)C([H])(N([H])C(=O)C([H])(N([H])C([H])([H])[H])C([H])([H])[H])C(C([H])([H])[H])(C([H])([H])[H])C([H])([H])[H])C([H])([H])c2c([H])c(OC([H])([H])C([H])([H])C(=O)N([H])C([H])(c3c([H])c(N([H])C(=O)N4C([H])([H])C([H])([H])C([H])([H])C([H])(n5nc(-c6c([H])c([H])c(Oc7c([H])c([H])c(F)c([H])c7F)c([H])c6[H])c(C(=O)N([H])[H])c5N([H])[H])C4([H])[H])nc(N([H])[H])c3F)C([H])([H])[H])c([H])c([H])c2C1([H])[H]

$$$$
57:0:0
     RDKit          3D

 98106  0  0  1  0  0  0  0  0999 V2000
  -30.5210  -20.8090   20.3110 C   0  0  0  0  0  3  0  0  0  0  0  0
  -29.8200  -18.1820   20.3100 C   0  0  0  0  0  3  0  0  0  0  0  0
  -30.4290  -19.3700   20.8950 C   0  0  0  0  0  0  0  0  0  0  0  0
  -30.1550  -16.9750   20.9230 C   0  0  0  0  0  0  0  0  0  0  0  0
  -31.1200  -19.0200   22.0380 C   0  0  0  0  0  0  0  0  0  0  0  0
  -31.1360  -17.3000   22.3240 S   0  0  0  0  0  0  0  0  0  0  0  0
  -30.5920  -14.6090   20.3990 C   0  0  0  0  0  0  0  0  0  0  0  0
  -30.3460  -12.4150   19.2810 C   0  0  0  0  0  2  0  0  0  0  0  0
  -29.3980  -12.5860   18.0760 C   0  0  0  0  0  2  0  0  0  0  0  0
  -27.9240  -12.4380   18.5090 C   0  0  0  0  0  2  0  0  0  0  0  0
  -27.5760  -13.2640   19.7750 C   0  0  0  0  0  3  0  0  0  0  0  0
  -28.6420  -13.0820   20.8770 C   0  0  0  0  0  2  0  0  0  0  0  0
  -29.9470  -13.4110   20.2880 N   0  0  0  0  0  0  0  0  0  0  0  0
  -31.7690  -14.7560   20.0620 O   0  0  0  0  0  0  0  0  0  0  0  0
  -29.7850  -15.6880   20.6090 N   0  0  0  0  0  0  0  0  0  0  0  0
  -28.7970  -15.4950   20.6060 H   0  0  0  0  0  0  0  0  0  0  0  0
  -25.1790  -13.8500   20.5030 C   0  0  0  0  0  0  0  0  0  0  0  0
  -24.1180  -13.0700   20.8760 C   0  0  0  0  0  0  0  0  0  0  0  0
  -24.5880  -11.7220   20.8420 C   0  0  0  0  0  0  0  0  0  0  0  0
  -26.2280  -12.9750   20.2630 N   0  0  0  0  0  0  0  0  0  0  0  0
  -25.8780  -11.6910   20.5260 N   0  0  0  0  0  0  0  0  0  0  0  0
  -23.8720  -10.4550   21.0370 C   0  0  0  0  0  0  0  0  0  0  0  0
  -24.3150   -9.4940   21.9690 C   0  0  0  0  0  3  0  0  0  0  0  0
  -23.6010   -8.2890   22.1490 C   0  0  0  0  0  3  0  0  0  0  0  0
  -22.4290   -8.0400   21.3980 C   0  0  0  0  0  0  0  0  0  0  0  0
  -22.0030   -8.9930   20.4540 C   0  0  0  0  0  3  0  0  0  0  0  0
  -22.7180  -10.1870   20.2720 C   0  0  0  0  0  3  0  0  0  0  0  0
  -21.6850   -6.8880   21.4870 O   0  0  0  0  0  0  0  0  0  0  0  0
  -21.6520   -6.1400   22.6370 C   0  0  0  0  0  0  0  0  0  0  0  0
  -21.2310   -6.6870   23.8690 C   0  0  0  0  0  3  0  0  0  0  0  0
  -21.1420   -5.8670   25.0110 C   0  0  0  0  0  3  0  0  0  0  0  0
  -21.4660   -4.4990   24.9230 C   0  0  0  0  0  0  0  0  0  0  0  0
  -21.8800   -3.9510   23.6960 C   0  0  0  0  0  3  0  0  0  0  0  0
  -21.9700   -4.7700   22.5560 C   0  0  0  0  0  0  0  0  0  0  0  0
  -22.3490   -4.2320   21.3720 F   0  0  0  0  0  0  0  0  0  0  0  0
  -21.3740   -3.7080   26.0180 F   0  0  0  0  0  0  0  0  0  0  0  0
  -22.7180  -13.5400   21.1510 C   0  0  0  0  0  0  0  0  0  0  0  0
  -21.9920  -12.8390   22.0130 N   0  0  0  0  0  0  0  0  0  0  0  0
  -22.2770  -14.5660   20.6360 O   0  0  0  0  0  0  0  0  0  0  0  0
  -22.3640  -12.0130   22.4600 H   0  0  0  0  0  0  0  0  0  0  0  0
  -21.0520  -13.1370   22.2320 H   0  0  0  0  0  0  0  0  0  0  0  0
  -25.3280  -15.2220   20.3260 N   0  0  0  0  0  0  0  0  0  0  0  0
  -24.5440  -15.8570   20.4340 H   0  0  0  0  0  0  0  0  0  0  0  0
  -26.1530  -15.6750   19.9540 H   0  0  0  0  0  0  0  0  0  0  0  0
  -31.8300  -19.8250   22.9210 N   0  0  0  0  0  0  0  0  0  0  0  0
  -32.2630  -19.4460   23.7590 H   0  0  0  0  0  0  0  0  0  0  0  0
  -31.8000  -20.8410   22.9300 H   0  0  0  0  0  0  0  0  0  0  0  0
  -29.2630  -22.8680   20.9820 C   0  0  0  0  0  0  0  0  0  0  0  0
  -29.3170  -21.6880   20.3090 N   0  0  0  0  0  0  0  0  0  0  0  0
  -29.8140  -23.0240   22.0770 O   0  0  0  0  0  0  0  0  0  0  0  0
  -28.8120  -21.6900   19.4300 H   0  0  0  0  0  0  0  0  0  0  0  0
  -28.5640  -24.0770   20.2180 C   0  0  0  0  0  0  0  0  0  0  0  0
  -28.2050  -23.9660   19.0390 O   0  0  0  0  0  0  0  0  0  0  0  0
  -28.3240  -25.4120   21.0000 C   0  0  0  0  0  2  0  0  0  0  0  0
  -28.3850  -26.6360   20.1980 O   0  0  0  0  0  0  0  0  0  0  0  0
  -24.5710  -31.9080   23.2370 C   0  0  0  0  0  0  0  0  0  0  0  0
  -27.2420  -27.4230   20.2000 C   0  0  0  0  0  0  0  0  0  0  0  0
  -23.3780  -30.4950   21.5920 C   0  0  0  0  0  3  0  0  0  0  0  0
  -24.8480  -28.9540   20.1820 C   0  0  0  0  0  0  0  0  0  0  0  0
  -25.9050  -30.8530   21.4060 C   0  0  0  0  0  2  0  0  0  0  0  0
  -26.0050  -29.4770   20.7740 C   0  0  0  0  0  0  0  0  0  0  0  0
  -27.2080  -28.7200   20.7770 C   0  0  0  0  0  3  0  0  0  0  0  0
  -26.0690  -26.9270   19.5950 C   0  0  0  0  0  3  0  0  0  0  0  0
  -24.8770  -27.6770   19.5930 C   0  0  0  0  0  3  0  0  0  0  0  0
  -23.6010  -29.8120   20.2170 C   0  0  0  0  0  2  0  0  0  0  0  0
  -24.6350  -31.1030   22.1370 N   0  0  0  0  0  0  0  0  0  0  0  0
  -23.4880  -32.1790   23.7750 O   0  0  0  0  0  0  0  0  0  0  0  0
  -22.7270  -29.4750   22.5540 C   0  0  0  0  0  0  0  0  0  0  0  0
  -21.4020  -29.2900   22.4290 N   0  0  0  0  0  0  0  0  0  0  0  0
  -23.4120  -28.8490   23.3660 O   0  0  0  0  0  0  0  0  0  0  0  0
  -20.9060  -29.8450   21.7460 H   0  0  0  0  0  0  0  0  0  0  0  0
  -18.0350  -28.0890   22.9420 C   0  0  0  0  0  0  0  0  0  0  0  0
  -20.5930  -28.3500   23.2050 C   0  0  0  0  0  3  0  0  0  0  0  0
  -20.6960  -26.9210   22.6260 C   0  0  0  0  0  2  0  0  0  0  0  0
  -19.5930  -26.5990   21.6140 C   0  0  0  0  0  2  0  0  0  0  0  0
  -18.2130  -26.7420   22.2640 C   0  0  0  0  0  2  0  0  0  0  0  0
  -19.1540  -28.8520   23.3710 C   0  0  0  0  0  0  0  0  0  0  0  0
  -18.9370  -30.1130   23.9640 C   0  0  0  0  0  3  0  0  0  0  0  0
  -17.6320  -30.6140   24.1360 C   0  0  0  0  0  3  0  0  0  0  0  0
  -16.5280  -29.8480   23.7240 C   0  0  0  0  0  3  0  0  0  0  0  0
  -16.7310  -28.5880   23.1340 C   0  0  0  0  0  3  0  0  0  0  0  0
  -25.8540  -32.5490   23.8550 C   0  0  0  0  0  3  0  0  0  0  0  0
  -25.5400  -33.9460   24.1830 N   0  0  0  0  0  0  0  0  0  0  0  0
  -25.8670  -34.9980   23.4200 C   0  0  0  0  0  0  0  0  0  0  0  0
  -26.5390  -34.8950   22.3880 O   0  0  0  0  0  0  0  0  0  0  0  0
  -24.9560  -34.1020   24.9900 H   0  0  0  0  0  0  0  0  0  0  0  0
  -24.1310  -36.7780   23.0560 C   0  0  0  0  0  1  0  0  0  0  0  0
  -25.3700  -36.3830   23.8730 C   0  0  0  0  0  3  0  0  0  0  0  0
  -27.4940  -37.2810   24.7160 C   0  0  0  0  0  1  0  0  0  0  0  0
  -26.3970  -37.4420   23.7670 N   0  0  0  0  0  0  0  0  0  0  0  0
  -25.9820  -38.3570   23.9190 H   0  0  0  0  0  0  0  0  0  0  0  0
  -26.3800  -31.7840   25.1310 C   0  0  1  0  0  0  0  0  0  0  0  0
  -25.2890  -31.5430   26.1990 C   0  0  0  0  0  1  0  0  0  0  0  0
  -26.9680  -30.4080   24.7370 C   0  0  0  0  0  1  0  0  0  0  0  0
  -27.5270  -32.5830   25.7930 C   0  0  0  0  0  1  0  0  0  0  0  0
  -31.0470  -20.6570   18.8730 C   0  0  0  0  0  0  0  0  0  0  0  0
  -32.4670  -20.1310   18.6920 C   0  0  0  0  0  1  0  0  0  0  0  0
  -30.3840  -20.9660   17.8770 O   0  0  0  0  0  0  0  0  0  0  0  0
  1 96  1  0
  1  3  1  0
  2  3  1  0
  2  4  2  0
  3  5  2  0
  4  6  1  0
  5  6  1  0
  5 45  1  0
  7 15  1  0
  8 13  1  0
  9 10  1  0
  9  8  1  0
 11 10  1  0
 11 20  1  0
 11 12  1  0
 13  7  1  0
 13 12  1  0
 14  7  2  0
 15  4  1  0
 16 15  1  0
 17 18  2  0
 18 37  1  0
 19 18  1  0
 19 22  1  0
 20 17  1  0
 20 21  1  0
 21 19  2  0
 22 23  1  0
 23 24  2  0
 25 28  1  0
 25 24  1  0
 26 25  2  0
 27 26  1  0
 27 22  2  0
 28 29  1  0
 29 30  1  0
 30 31  2  0
 32 31  1  0
 32 36  1  0
 33 32  2  0
 34 29  2  0
 34 33  1  0
 35 34  1  0
 37 38  1  0
 38 41  1  0
 38 40  1  0
 39 37  2  0
 42 43  1  0
 42 17  1  0
 44 42  1  0
 45 47  1  0
 45 46  1  0
 48 50  2  0
 49  1  1  0
 49 48  1  0
 51 49  1  0
 52 48  1  0
 52 54  1  0
 53 52  2  0
 55 57  1  0
 55 54  1  0
 56 67  2  0
 57 62  1  0
 58 66  1  0
 58 68  1  0
 59 65  1  0
 59 61  1  0
 60 66  1  0
 61 62  2  0
 61 60  1  0
 63 57  2  0
 64 63  1  0
 64 59  2  0
 65 58  1  0
 66 56  1  0
 68 70  2  0
 69 68  1  0
 71 69  1  0
 72 81  2  0
 72 77  1  0
 73 69  1  0
 73 77  1  0
 74 73  1  0
 75 76  1  0
 75 74  1  0
 76 72  1  0
 77 78  2  0
 78 79  1  0
 80 79  2  0
 81 80  1  0
 82 56  1  0
 82 83  1  0
 82 92  1  0
 83 86  1  0
 84 88  1  0
 84 83  1  0
 85 84  2  0
 88 87  1  0
 90 88  1  0
 90 91  1  0
 90 89  1  0
 92 95  1  1
 92 93  1  0
 94 92  1  0
 97 96  1  0
 98 96  2  0
M  ISO  4   7 100  15 100  54 101  55 101
M  END
>  <TORSDO>  (57) 
F 22

>  <SCORE>  (57) 
-13.482

>  <name>  (57) 
57

>  <ligand_id>  (57) 
57

>  <original_smiles>  (57) 
[H]c1c([H])c([H])c2c(c1[H])C([H])([H])C([H])([H])C([H])([H])C2([H])N([H])C(=O)C1([H])N(C(=O)C([H])(N([H])C(=O)C([H])(N([H])C([H])([H])[H])C([H])([H])[H])C(C([H])([H])[H])(C([H])([H])[H])C([H])([H])[H])C([H])([H])c2c([H])c(OC([H])([H])C(=O)C(=O)N([H])C([H])(C(=O)C([H])([H])[H])c3c(N([H])[H])sc(N([H])C(=O)N4C([H])([H])C([H])([H])C([H])([H])C([H])(n5nc(-c6c([H])c([H])c(Oc7c([H])c([H])c(F)c([H])c7F)c([H])c6[H])c(C(=O)N([H])[H])c5N([H])[H])C4([H])[H])c3[H])c([H])c([H])c2C1([H])[H]

>  <smiles>  (57) 
[H]c1c([H])c([H])c2c(c1[H])C([H])([H])C([H])([H])C([H])([H])C2([H])N([H])C(=O)C1([H])N(C(=O)C([H])(N([H])C(=O)C([H])(N([H])C([H])([H])[H])C([H])([H])[H])C(C([H])([H])[H])(C([H])([H])[H])C([H])([H])[H])C([H])([H])c2c([H])c(OC([H])([H])C(=O)C(=O)N([H])C([H])(C(=O)C([H])([H])[H])c3c(N([H])[H])sc(N([H])C(=O)N4C([H])([H])C([H])([H])C([H])([H])C([H])(n5nc(-c6c([H])c([H])c(Oc7c([H])c([H])c(F)c([H])c7F)c([H])c6[H])c(C(=O)N([H])[H])c5N([H])[H])C4([H])[H])c3[H])c([H])c([H])c2C1([H])[H]

$$$$
58:0:0
     RDKit          3D

 96104  0  0  1  0  0  0  0  0999 V2000
  -31.3310  -18.8780   20.3950 C   0  0  0  0  0  3  0  0  0  0  0  0
  -30.9200  -21.2890   20.3400 C   0  0  0  0  0  3  0  0  0  0  0  0
  -31.8260  -20.2060   20.4230 C   0  0  0  0  0  0  0  0  0  0  0  0
  -29.9590  -18.6460   20.2240 C   0  0  0  0  0  0  0  0  0  0  0  0
  -29.5440  -21.0580   20.1930 C   0  0  0  0  0  0  0  0  0  0  0  0
  -29.0940  -19.7420   20.1280 N   0  0  0  0  0  0  0  0  0  0  0  0
  -33.2860  -20.4850   20.5140 C   0  0  0  0  0  0  0  0  0  0  0  0
  -34.2260  -19.3790   20.0490 C   0  0  0  0  0  1  0  0  0  0  0  0
  -33.7550  -21.5650   20.8890 O   0  0  0  0  0  0  0  0  0  0  0  0
  -28.6340  -22.1790   20.0800 N   0  0  0  0  0  0  0  0  0  0  0  0
  -27.6640  -21.9420   19.9060 H   0  0  0  0  0  0  0  0  0  0  0  0
  -28.9930  -23.6690   19.9890 C   0  0  0  0  0  2  0  0  0  0  0  0
  -27.8550  -24.8330   20.1970 C   0  0  0  0  0  3  0  0  0  0  0  0
  -27.2790  -24.7210   21.6230 C   0  0  0  0  0  0  0  0  0  0  0  0
  -26.2320  -23.6460   21.8920 C   0  0  0  0  0  1  0  0  0  0  0  0
  -27.6520  -25.4680   22.5350 O   0  0  0  0  0  0  0  0  0  0  0  0
  -28.1480  -26.3090   19.9540 O   0  0  0  0  0  0  0  0  0  0  0  0
  -24.4890  -31.7650   23.1270 C   0  0  0  0  0  0  0  0  0  0  0  0
  -27.0650  -27.2290   19.9350 C   0  0  0  0  0  0  0  0  0  0  0  0
  -23.2830  -30.4260   21.4440 C   0  0  0  0  0  3  0  0  0  0  0  0
  -24.7230  -28.9050   19.9710 C   0  0  0  0  0  0  0  0  0  0  0  0
  -25.8300  -30.7110   21.2810 C   0  0  0  0  0  2  0  0  0  0  0  0
  -25.8980  -29.3490   20.5880 C   0  0  0  0  0  0  0  0  0  0  0  0
  -27.0710  -28.5250   20.5580 C   0  0  0  0  0  3  0  0  0  0  0  0
  -25.8660  -26.8640   19.2810 C   0  0  0  0  0  3  0  0  0  0  0  0
  -24.7120  -27.6710   19.3070 C   0  0  0  0  0  3  0  0  0  0  0  0
  -23.4960  -29.7930   20.0450 C   0  0  0  0  0  2  0  0  0  0  0  0
  -24.5540  -30.9840   22.0070 N   0  0  0  0  0  0  0  0  0  0  0  0
  -23.4040  -32.0370   23.6630 O   0  0  0  0  0  0  0  0  0  0  0  0
  -22.6060  -29.3860   22.3710 C   0  0  0  0  0  0  0  0  0  0  0  0
  -21.2730  -29.2490   22.2570 N   0  0  0  0  0  0  0  0  0  0  0  0
  -23.2780  -28.7080   23.1520 O   0  0  0  0  0  0  0  0  0  0  0  0
  -20.7890  -29.8480   21.6020 H   0  0  0  0  0  0  0  0  0  0  0  0
  -17.8650  -28.1550   22.8090 C   0  0  0  0  0  0  0  0  0  0  0  0
  -20.4400  -28.2980   22.9990 C   0  0  0  0  0  3  0  0  0  0  0  0
  -20.4620  -26.9000   22.3340 C   0  0  0  0  0  2  0  0  0  0  0  0
  -19.3130  -26.6860   21.3450 C   0  0  0  0  0  2  0  0  0  0  0  0
  -17.9610  -26.8450   22.0460 C   0  0  0  0  0  2  0  0  0  0  0  0
  -19.0290  -28.8450   23.2430 C   0  0  0  0  0  0  0  0  0  0  0  0
  -18.8810  -30.0780   23.9160 C   0  0  0  0  0  3  0  0  0  0  0  0
  -17.6030  -30.6170   24.1590 C   0  0  0  0  0  3  0  0  0  0  0  0
  -16.4560  -29.9220   23.7420 C   0  0  0  0  0  3  0  0  0  0  0  0
  -16.5880  -28.6930   23.0720 C   0  0  0  0  0  3  0  0  0  0  0  0
  -25.7710  -32.3710   23.7750 C   0  0  0  0  0  3  0  0  0  0  0  0
  -25.4790  -33.7680   24.1280 N   0  0  0  0  0  0  0  0  0  0  0  0
  -25.8170  -34.8290   23.3840 C   0  0  0  0  0  0  0  0  0  0  0  0
  -26.4790  -34.7340   22.3470 O   0  0  0  0  0  0  0  0  0  0  0  0
  -24.8960  -33.9180   24.9380 H   0  0  0  0  0  0  0  0  0  0  0  0
  -24.1020  -36.6430   23.0710 C   0  0  0  0  0  1  0  0  0  0  0  0
  -25.3470  -36.2160   23.8650 C   0  0  0  0  0  3  0  0  0  0  0  0
  -27.4960  -37.0700   24.6870 C   0  0  0  0  0  1  0  0  0  0  0  0
  -26.3870  -37.2610   23.7560 N   0  0  0  0  0  0  0  0  0  0  0  0
  -25.9920  -38.1840   23.9180 H   0  0  0  0  0  0  0  0  0  0  0  0
  -26.2610  -31.5710   25.0450 C   0  0  1  0  0  0  0  0  0  0  0  0
  -25.1540  -31.3320   26.0990 C   0  0  0  0  0  1  0  0  0  0  0  0
  -26.8280  -30.1930   24.6370 C   0  0  0  0  0  1  0  0  0  0  0  0
  -27.4190  -32.3360   25.7300 C   0  0  0  0  0  1  0  0  0  0  0  0
  -29.4770  -17.1620   19.8860 C   0  0  0  0  0  2  0  0  0  0  0  0
  -30.5660  -14.7730   20.3440 C   0  0  0  0  0  0  0  0  0  0  0  0
  -30.4030  -12.4450   19.4350 C   0  0  0  0  0  2  0  0  0  0  0  0
  -29.4930  -12.4850   18.1860 C   0  0  0  0  0  2  0  0  0  0  0  0
  -28.0110  -12.3380   18.5850 C   0  0  0  0  0  2  0  0  0  0  0  0
  -27.6220  -13.2560   19.7740 C   0  0  0  0  0  3  0  0  0  0  0  0
  -28.6580  -13.1880   20.9230 C   0  0  0  0  0  2  0  0  0  0  0  0
  -29.9700  -13.5260   20.3560 N   0  0  0  0  0  0  0  0  0  0  0  0
  -31.7110  -14.9000   19.9030 O   0  0  0  0  0  0  0  0  0  0  0  0
  -29.7870  -15.8740   20.6640 N   0  0  0  0  0  0  0  0  0  0  0  0
  -29.0010  -15.6080   21.2380 H   0  0  0  0  0  0  0  0  0  0  0  0
  -25.2300  -13.8900   20.4560 C   0  0  0  0  0  0  0  0  0  0  0  0
  -24.1460  -13.1370   20.8110 C   0  0  0  0  0  0  0  0  0  0  0  0
  -24.5820  -11.7790   20.7860 C   0  0  0  0  0  0  0  0  0  0  0  0
  -26.2640  -12.9920   20.2400 N   0  0  0  0  0  0  0  0  0  0  0  0
  -25.8780  -11.7160   20.4980 N   0  0  0  0  0  0  0  0  0  0  0  0
  -23.8300  -10.5320   20.9740 C   0  0  0  0  0  0  0  0  0  0  0  0
  -24.2410   -9.5550   21.9070 C   0  0  0  0  0  3  0  0  0  0  0  0
  -23.4920   -8.3690   22.0780 C   0  0  0  0  0  3  0  0  0  0  0  0
  -22.3190   -8.1540   21.3190 C   0  0  0  0  0  0  0  0  0  0  0  0
  -21.9270   -9.1200   20.3750 C   0  0  0  0  0  3  0  0  0  0  0  0
  -22.6760  -10.2960   20.2020 C   0  0  0  0  0  3  0  0  0  0  0  0
  -21.5440   -7.0230   21.4010 O   0  0  0  0  0  0  0  0  0  0  0  0
  -21.4830   -6.2730   22.5480 C   0  0  0  0  0  0  0  0  0  0  0  0
  -21.0690   -6.8270   23.7780 C   0  0  0  0  0  3  0  0  0  0  0  0
  -20.9540   -6.0040   24.9170 C   0  0  0  0  0  3  0  0  0  0  0  0
  -21.2440   -4.6290   24.8250 C   0  0  0  0  0  0  0  0  0  0  0  0
  -21.6520   -4.0760   23.5980 C   0  0  0  0  0  3  0  0  0  0  0  0
  -21.7700   -4.8960   22.4620 C   0  0  0  0  0  0  0  0  0  0  0  0
  -22.1410   -4.3550   21.2780 F   0  0  0  0  0  0  0  0  0  0  0  0
  -21.1280   -3.8370   25.9140 F   0  0  0  0  0  0  0  0  0  0  0  0
  -22.7540  -13.6420   21.0630 C   0  0  0  0  0  0  0  0  0  0  0  0
  -22.0070  -12.9680   21.9290 N   0  0  0  0  0  0  0  0  0  0  0  0
  -22.3390  -14.6700   20.5270 O   0  0  0  0  0  0  0  0  0  0  0  0
  -22.3570  -12.1400   22.3880 H   0  0  0  0  0  0  0  0  0  0  0  0
  -21.0720  -13.2860   22.1410 H   0  0  0  0  0  0  0  0  0  0  0  0
  -25.4240  -15.2570   20.2790 N   0  0  0  0  0  0  0  0  0  0  0  0
  -24.6650  -15.9250   20.3650 H   0  0  0  0  0  0  0  0  0  0  0  0
  -26.2890  -15.6790   19.9690 H   0  0  0  0  0  0  0  0  0  0  0  0
  1  3  1  0
  2  3  2  0
  3  7  1  0
  4  1  2  0
  5  2  1  0
  6  5  2  0
  6  4  1  0
  7  9  2  0
  8  7  1  0
 10  5  1  0
 11 10  1  0
 12 10  1  0
 13 12  1  0
 13 14  1  0
 14 15  1  0
 14 16  2  0
 17 13  1  0
 18 29  2  0
 19 17  1  0
 19 24  1  0
 20 28  1  0
 20 30  1  0
 21 27  1  0
 21 23  1  0
 22 28  1  0
 23 22  1  0
 24 23  2  0
 25 26  1  0
 25 19  2  0
 26 21  2  0
 27 20  1  0
 28 18  1  0
 30 32  2  0
 31 30  1  0
 33 31  1  0
 34 43  2  0
 34 39  1  0
 35 31  1  0
 35 39  1  0
 36 35  1  0
 37 38  1  0
 37 36  1  0
 38 34  1  0
 39 40  2  0
 40 41  1  0
 42 41  2  0
 43 42  1  0
 44 18  1  0
 44 45  1  0
 44 54  1  0
 45 48  1  0
 46 50  1  0
 46 45  1  0
 47 46  2  0
 50 49  1  0
 52 50  1  0
 52 53  1  0
 52 51  1  0
 54 57  1  1
 54 55  1  0
 56 54  1  0
 58  4  1  0
 58 67  1  0
 59 65  1  0
 59 67  1  0
 60 65  1  0
 61 62  1  0
 61 60  1  0
 63 62  1  0
 63 72  1  0
 63 64  1  0
 65 64  1  0
 66 59  2  0
 67 68  1  0
 69 70  2  0
 70 89  1  0
 71 70  1  0
 71 74  1  0
 72 69  1  0
 72 73  1  0
 73 71  2  0
 74 75  1  0
 75 76  2  0
 77 80  1  0
 77 76  1  0
 78 77  2  0
 79 78  1  0
 79 74  2  0
 80 81  1  0
 81 82  1  0
 82 83  2  0
 84 83  1  0
 84 88  1  0
 85 84  2  0
 86 81  2  0
 86 85  1  0
 87 86  1  0
 89 90  1  0
 90 93  1  0
 90 92  1  0
 91 89  2  0
 94 95  1  0
 94 69  1  0
 96 94  1  0
M  ISO  4  13 101  17 101  59 100  67 100
M  END
>  <TORSDO>  (58) 
F 22

>  <SCORE>  (58) 
-13.248

>  <name>  (58) 
58

>  <ligand_id>  (58) 
58

>  <original_smiles>  (58) 
[H]c1c([H])c([H])c2c(c1[H])C([H])([H])C([H])([H])C([H])([H])C2([H])N([H])C(=O)C1([H])N(C(=O)C([H])(N([H])C(=O)C([H])(N([H])C([H])([H])[H])C([H])([H])[H])C(C([H])([H])[H])(C([H])([H])[H])C([H])([H])[H])C([H])([H])c2c([H])c(OC([H])(C(=O)C([H])([H])[H])C([H])([H])N([H])c3nc(C([H])([H])N([H])C(=O)N4C([H])([H])C([H])([H])C([H])([H])C([H])(n5nc(-c6c([H])c([H])c(Oc7c([H])c([H])c(F)c([H])c7F)c([H])c6[H])c(C(=O)N([H])[H])c5N([H])[H])C4([H])[H])c([H])c(C(=O)C([H])([H])[H])c3[H])c([H])c([H])c2C1([H])[H]

>  <smiles>  (58) 
[H]c1c([H])c([H])c2c(c1[H])C([H])([H])C([H])([H])C([H])([H])C2([H])N([H])C(=O)C1([H])N(C(=O)C([H])(N([H])C(=O)C([H])(N([H])C([H])([H])[H])C([H])([H])[H])C(C([H])([H])[H])(C([H])([H])[H])C([H])([H])[H])C([H])([H])c2c([H])c(OC([H])(C(=O)C([H])([H])[H])C([H])([H])N([H])c3nc(C([H])([H])N([H])C(=O)N4C([H])([H])C([H])([H])C([H])([H])C([H])(n5nc(-c6c([H])c([H])c(Oc7c([H])c([H])c(F)c([H])c7F)c([H])c6[H])c(C(=O)N([H])[H])c5N([H])[H])C4([H])[H])c([H])c(C(=O)C([H])([H])[H])c3[H])c([H])c([H])c2C1([H])[H]

$$$$
59:0:0
     RDKit          3D

 92100  0  0  1  0  0  0  0  0999 V2000
  -29.7440  -21.8050   20.5550 N   0  0  0  0  0  0  0  0  0  0  0  0
  -30.1970  -22.0160   21.4430 H   0  0  0  0  0  0  0  0  0  0  0  0
  -29.3940  -18.8800   18.2270 C   0  0  0  0  0  3  0  0  0  0  0  0
  -29.7670  -17.8110   19.0620 C   0  0  0  0  0  3  0  0  0  0  0  0
  -29.3700  -20.1990   18.7180 C   0  0  0  0  0  3  0  0  0  0  0  0
  -30.0910  -19.3900   20.8940 C   0  0  0  0  0  3  0  0  0  0  0  0
  -30.1040  -18.0490   20.4130 C   0  0  0  0  0  0  0  0  0  0  0  0
  -29.7320  -20.4800   20.0570 C   0  0  0  0  0  0  0  0  0  0  0  0
  -30.5130  -16.8980   21.3490 C   0  0  0  0  0  2  0  0  0  0  0  0
  -30.6790  -14.5190   20.4980 C   0  0  0  0  0  0  0  0  0  0  0  0
  -30.3720  -12.3540   19.3480 C   0  0  0  0  0  2  0  0  0  0  0  0
  -29.4310  -12.5390   18.1410 C   0  0  0  0  0  2  0  0  0  0  0  0
  -27.9580  -12.3940   18.5720 C   0  0  0  0  0  2  0  0  0  0  0  0
  -27.6120  -13.2480   19.8220 C   0  0  0  0  0  3  0  0  0  0  0  0
  -28.6680  -13.0520   20.9320 C   0  0  0  0  0  2  0  0  0  0  0  0
  -29.9900  -13.3520   20.3580 N   0  0  0  0  0  0  0  0  0  0  0  0
  -31.8170  -14.6760   20.0490 O   0  0  0  0  0  0  0  0  0  0  0  0
  -29.9960  -15.5500   21.0330 N   0  0  0  0  0  0  0  0  0  0  0  0
  -29.0430  -15.3640   21.3050 H   0  0  0  0  0  0  0  0  0  0  0  0
  -25.2150  -13.8520   20.5390 C   0  0  0  0  0  0  0  0  0  0  0  0
  -24.1490  -13.0800   20.9090 C   0  0  0  0  0  0  0  0  0  0  0  0
  -24.6120  -11.7280   20.8810 C   0  0  0  0  0  0  0  0  0  0  0  0
  -26.2620  -12.9720   20.3060 N   0  0  0  0  0  0  0  0  0  0  0  0
  -25.9020  -11.6900   20.5720 N   0  0  0  0  0  0  0  0  0  0  0  0
  -23.8880  -10.4650   21.0720 C   0  0  0  0  0  0  0  0  0  0  0  0
  -24.3290   -9.4870   21.9930 C   0  0  0  0  0  3  0  0  0  0  0  0
  -23.6000   -8.2910   22.1730 C   0  0  0  0  0  3  0  0  0  0  0  0
  -22.4160   -8.0630   21.4300 C   0  0  0  0  0  0  0  0  0  0  0  0
  -21.9950   -9.0280   20.4970 C   0  0  0  0  0  3  0  0  0  0  0  0
  -22.7250  -10.2140   20.3170 C   0  0  0  0  0  3  0  0  0  0  0  0
  -21.6580   -6.9200   21.5190 O   0  0  0  0  0  0  0  0  0  0  0  0
  -21.6330   -6.1600   22.6620 C   0  0  0  0  0  0  0  0  0  0  0  0
  -21.2440   -6.7000   23.9080 C   0  0  0  0  0  3  0  0  0  0  0  0
  -21.1660   -5.8670   25.0430 C   0  0  0  0  0  3  0  0  0  0  0  0
  -21.4660   -4.4970   24.9330 C   0  0  0  0  0  0  0  0  0  0  0  0
  -21.8480   -3.9570   23.6930 C   0  0  0  0  0  3  0  0  0  0  0  0
  -21.9280   -4.7860   22.5600 C   0  0  0  0  0  0  0  0  0  0  0  0
  -22.2770   -4.2560   21.3620 F   0  0  0  0  0  0  0  0  0  0  0  0
  -21.3830   -3.6950   26.0200 F   0  0  0  0  0  0  0  0  0  0  0  0
  -22.7510  -13.5520   21.1850 C   0  0  0  0  0  0  0  0  0  0  0  0
  -22.0280  -12.8510   22.0510 N   0  0  0  0  0  0  0  0  0  0  0  0
  -22.3090  -14.5770   20.6660 O   0  0  0  0  0  0  0  0  0  0  0  0
  -22.4030  -12.0200   22.4850 H   0  0  0  0  0  0  0  0  0  0  0  0
  -21.0900  -13.1450   22.2820 H   0  0  0  0  0  0  0  0  0  0  0  0
  -25.3780  -15.2230   20.3580 N   0  0  0  0  0  0  0  0  0  0  0  0
  -24.6080  -15.8750   20.4500 H   0  0  0  0  0  0  0  0  0  0  0  0
  -26.2350  -15.6620   20.0420 H   0  0  0  0  0  0  0  0  0  0  0  0
  -29.4560  -22.9440   19.6590 C   0  0  0  0  0  2  0  0  0  0  0  0
  -29.3310  -24.3340   20.3260 C   0  0  0  0  0  0  0  0  0  0  0  0
  -29.9920  -24.6330   21.3260 O   0  0  0  0  0  0  0  0  0  0  0  0
  -28.3110  -25.3010   19.6850 C   0  0  0  0  0  2  0  0  0  0  0  0
  -28.3760  -26.6580   20.1840 O   0  0  0  0  0  0  0  0  0  0  0  0
  -24.5830  -31.8820   23.2300 C   0  0  0  0  0  0  0  0  0  0  0  0
  -27.2080  -27.4110   20.1370 C   0  0  0  0  0  0  0  0  0  0  0  0
  -23.3720  -30.4830   21.5950 C   0  0  0  0  0  3  0  0  0  0  0  0
  -24.8180  -28.9530   20.1520 C   0  0  0  0  0  0  0  0  0  0  0  0
  -25.9000  -30.8290   21.3950 C   0  0  0  0  0  2  0  0  0  0  0  0
  -25.9810  -29.4580   20.7460 C   0  0  0  0  0  0  0  0  0  0  0  0
  -27.1740  -28.6940   20.7380 C   0  0  0  0  0  3  0  0  0  0  0  0
  -26.0250  -26.9430   19.5130 C   0  0  0  0  0  3  0  0  0  0  0  0
  -24.8380  -27.6960   19.5290 C   0  0  0  0  0  3  0  0  0  0  0  0
  -23.5710  -29.8060   20.2150 C   0  0  0  0  0  2  0  0  0  0  0  0
  -24.6370  -31.0780   22.1320 N   0  0  0  0  0  0  0  0  0  0  0  0
  -23.5040  -32.1590   23.7720 O   0  0  0  0  0  0  0  0  0  0  0  0
  -22.7210  -29.4640   22.5580 C   0  0  0  0  0  0  0  0  0  0  0  0
  -21.3950  -29.2840   22.4330 N   0  0  0  0  0  0  0  0  0  0  0  0
  -23.4040  -28.8380   23.3730 O   0  0  0  0  0  0  0  0  0  0  0  0
  -20.9050  -29.8360   21.7420 H   0  0  0  0  0  0  0  0  0  0  0  0
  -18.0160  -28.1020   22.9300 C   0  0  0  0  0  0  0  0  0  0  0  0
  -20.5740  -28.3480   23.2010 C   0  0  0  0  0  3  0  0  0  0  0  0
  -20.6730  -26.9210   22.6170 C   0  0  0  0  0  2  0  0  0  0  0  0
  -19.5680  -26.6050   21.6070 C   0  0  0  0  0  2  0  0  0  0  0  0
  -18.1850  -26.7550   22.2520 C   0  0  0  0  0  2  0  0  0  0  0  0
  -19.1370  -28.8590   23.3600 C   0  0  0  0  0  0  0  0  0  0  0  0
  -18.9280  -30.1240   23.9500 C   0  0  0  0  0  3  0  0  0  0  0  0
  -17.6270  -30.6330   24.1200 C   0  0  0  0  0  3  0  0  0  0  0  0
  -16.5160  -29.8710   23.7110 C   0  0  0  0  0  3  0  0  0  0  0  0
  -16.7130  -28.6090   23.1200 C   0  0  0  0  0  3  0  0  0  0  0  0
  -25.8710  -32.5100   23.8470 C   0  0  0  0  0  3  0  0  0  0  0  0
  -25.5650  -33.9080   24.1810 N   0  0  0  0  0  0  0  0  0  0  0  0
  -25.9000  -34.9600   23.4240 C   0  0  0  0  0  0  0  0  0  0  0  0
  -26.5710  -34.8600   22.3940 O   0  0  0  0  0  0  0  0  0  0  0  0
  -24.9650  -34.0610   24.9790 H   0  0  0  0  0  0  0  0  0  0  0  0
  -24.1750  -36.7570   23.0800 C   0  0  0  0  0  1  0  0  0  0  0  0
  -25.4180  -36.3490   23.8870 C   0  0  0  0  0  3  0  0  0  0  0  0
  -27.5560  -37.2250   24.7110 C   0  0  0  0  0  1  0  0  0  0  0  0
  -26.4510  -37.3990   23.7720 N   0  0  0  0  0  0  0  0  0  0  0  0
  -26.0480  -38.3190   23.9290 H   0  0  0  0  0  0  0  0  0  0  0  0
  -26.3910  -31.7340   25.1190 C   0  0  1  0  0  0  0  0  0  0  0  0
  -25.3010  -31.4940   26.1890 C   0  0  0  0  0  1  0  0  0  0  0  0
  -26.9720  -30.3590   24.7190 C   0  0  0  0  0  1  0  0  0  0  0  0
  -27.5450  -32.5250   25.7790 C   0  0  0  0  0  1  0  0  0  0  0  0
  1  2  1  0
  3  5  2  0
  3  4  1  0
  4  7  2  0
  5  8  1  0
  7  6  1  0
  7  9  1  0
  8  1  1  0
  8  6  2  0
 10 18  1  0
 11 16  1  0
 12 13  1  0
 12 11  1  0
 14 13  1  0
 14 23  1  0
 14 15  1  0
 16 10  1  0
 16 15  1  0
 17 10  2  0
 18 19  1  0
 18  9  1  0
 20 21  2  0
 21 40  1  0
 22 21  1  0
 22 25  1  0
 23 20  1  0
 23 24  1  0
 24 22  2  0
 25 26  1  0
 26 27  2  0
 28 31  1  0
 28 27  1  0
 29 28  2  0
 30 29  1  0
 30 25  2  0
 31 32  1  0
 32 33  1  0
 33 34  2  0
 35 34  1  0
 35 39  1  0
 36 35  2  0
 37 32  2  0
 37 36  1  0
 38 37  1  0
 40 41  1  0
 41 44  1  0
 41 43  1  0
 42 40  2  0
 45 46  1  0
 45 20  1  0
 47 45  1  0
 48 49  1  0
 48  1  1  0
 49 50  2  0
 51 52  1  0
 51 49  1  0
 53 64  2  0
 54 52  1  0
 54 59  1  0
 55 63  1  0
 55 65  1  0
 56 62  1  0
 56 58  1  0
 57 63  1  0
 58 57  1  0
 59 58  2  0
 60 61  1  0
 60 54  2  0
 61 56  2  0
 62 55  1  0
 63 53  1  0
 65 67  2  0
 66 65  1  0
 68 66  1  0
 69 78  2  0
 69 74  1  0
 70 66  1  0
 70 74  1  0
 71 70  1  0
 72 73  1  0
 72 71  1  0
 73 69  1  0
 74 75  2  0
 75 76  1  0
 77 76  2  0
 78 77  1  0
 79 53  1  0
 79 80  1  0
 79 89  1  0
 80 83  1  0
 81 85  1  0
 81 80  1  0
 82 81  2  0
 85 84  1  0
 87 85  1  0
 87 88  1  0
 87 86  1  0
 89 92  1  1
 89 90  1  0
 91 89  1  0
M  ISO  4  10 100  18 100  51 101  52 101
M  END
>  <TORSDO>  (59) 
F 21

>  <SCORE>  (59) 
-13.634

>  <name>  (59) 
59

>  <ligand_id>  (59) 
59

>  <original_smiles>  (59) 
[H]c1c([H])c(N([H])C([H])([H])C(=O)C([H])([H])Oc2c([H])c([H])c3c(c2[H])C([H])([H])N(C(=O)C([H])(N([H])C(=O)C([H])(N([H])C([H])([H])[H])C([H])([H])[H])C(C([H])([H])[H])(C([H])([H])[H])C([H])([H])[H])C([H])(C(=O)N([H])C2([H])c4c([H])c([H])c([H])c([H])c4C([H])([H])C([H])([H])C2([H])[H])C3([H])[H])c([H])c(C([H])([H])N([H])C(=O)N2C([H])([H])C([H])([H])C([H])([H])C([H])(n3nc(-c4c([H])c([H])c(Oc5c([H])c([H])c(F)c([H])c5F)c([H])c4[H])c(C(=O)N([H])[H])c3N([H])[H])C2([H])[H])c1[H]

>  <smiles>  (59) 
[H]c1c([H])c(N([H])C([H])([H])C(=O)C([H])([H])Oc2c([H])c([H])c3c(c2[H])C([H])([H])N(C(=O)C([H])(N([H])C(=O)C([H])(N([H])C([H])([H])[H])C([H])([H])[H])C(C([H])([H])[H])(C([H])([H])[H])C([H])([H])[H])C([H])(C(=O)N([H])C2([H])c4c([H])c([H])c([H])c([H])c4C([H])([H])C([H])([H])C2([H])[H])C3([H])[H])c([H])c(C([H])([H])N([H])C(=O)N2C([H])([H])C([H])([H])C([H])([H])C([H])(n3nc(-c4c([H])c([H])c(Oc5c([H])c([H])c(F)c([H])c5F)c([H])c4[H])c(C(=O)N([H])[H])c3N([H])[H])C2([H])[H])c1[H]

$$$$
60:0:0
     RDKit          3D

 95103  0  0  1  0  0  0  0  0999 V2000
  -29.0660  -16.6520   20.7630 C   0  0  0  0  0  3  0  0  0  0  0  0
  -30.2950  -16.5590   20.0590 C   0  0  0  0  0  0  0  0  0  0  0  0
  -29.0030  -18.9290   20.4730 C   0  0  0  0  0  0  0  0  0  0  0  0
  -30.2710  -18.9140   19.8210 C   0  0  0  0  0  0  0  0  0  0  0  0
  -28.4150  -17.8220   20.9500 N   0  0  0  0  0  0  0  0  0  0  0  0
  -30.8980  -17.7150   19.6120 N   0  0  0  0  0  0  0  0  0  0  0  0
  -28.3090  -20.1050   20.6990 N   0  0  0  0  0  0  0  0  0  0  0  0
  -30.9630  -20.1240   19.5340 N   0  0  0  0  0  0  0  0  0  0  0  0
  -27.3010  -20.0140   20.6940 H   0  0  0  0  0  0  0  0  0  0  0  0
  -28.6260  -20.8860   20.1300 H   0  0  0  0  0  0  0  0  0  0  0  0
  -31.9620  -20.0460   19.6830 H   0  0  0  0  0  0  0  0  0  0  0  0
  -31.3880  -14.2980   20.3640 C   0  0  0  0  0  0  0  0  0  0  0  0
  -31.1240  -11.8970   19.8450 C   0  0  0  0  0  2  0  0  0  0  0  0
  -30.3010  -11.7710   18.5450 C   0  0  0  0  0  2  0  0  0  0  0  0
  -28.7850  -11.7920   18.8400 C   0  0  0  0  0  2  0  0  0  0  0  0
  -28.3720  -12.9370   19.8060 C   0  0  0  0  0  3  0  0  0  0  0  0
  -29.3200  -12.9970   21.0250 C   0  0  0  0  0  2  0  0  0  0  0  0
  -30.6840  -13.1380   20.5070 N   0  0  0  0  0  0  0  0  0  0  0  0
  -32.6160  -14.2970   20.2540 O   0  0  0  0  0  0  0  0  0  0  0  0
  -30.7410  -15.2530   19.6580 N   0  0  0  0  0  0  0  0  0  0  0  0
  -31.2270  -15.3200   18.7770 H   0  0  0  0  0  0  0  0  0  0  0  0
  -26.0080  -13.8190   20.2940 C   0  0  0  0  0  0  0  0  0  0  0  0
  -24.8450  -13.1840   20.6340 C   0  0  0  0  0  0  0  0  0  0  0  0
  -25.1680  -11.7970   20.7270 C   0  0  0  0  0  0  0  0  0  0  0  0
  -26.9710  -12.8270   20.2050 N   0  0  0  0  0  0  0  0  0  0  0  0
  -26.4640  -11.6080   20.5230 N   0  0  0  0  0  0  0  0  0  0  0  0
  -24.3040  -10.6290   20.9380 C   0  0  0  0  0  0  0  0  0  0  0  0
  -24.6060   -9.6590   21.9200 C   0  0  0  0  0  3  0  0  0  0  0  0
  -23.7500   -8.5540   22.1190 C   0  0  0  0  0  3  0  0  0  0  0  0
  -22.5810   -8.4110   21.3340 C   0  0  0  0  0  0  0  0  0  0  0  0
  -22.2990   -9.3680   20.3430 C   0  0  0  0  0  3  0  0  0  0  0  0
  -23.1520  -10.4640   20.1410 C   0  0  0  0  0  3  0  0  0  0  0  0
  -21.7050   -7.3580   21.4400 O   0  0  0  0  0  0  0  0  0  0  0  0
  -21.6120   -6.6120   22.5880 C   0  0  0  0  0  0  0  0  0  0  0  0
  -21.2840   -7.1950   23.8320 C   0  0  0  0  0  3  0  0  0  0  0  0
  -21.1290   -6.3810   24.9710 C   0  0  0  0  0  3  0  0  0  0  0  0
  -21.2940   -4.9870   24.8700 C   0  0  0  0  0  0  0  0  0  0  0  0
  -21.6130   -4.4040   23.6310 C   0  0  0  0  0  3  0  0  0  0  0  0
  -21.7700   -5.2150   22.4930 C   0  0  0  0  0  0  0  0  0  0  0  0
  -22.0570   -4.6440   21.2980 F   0  0  0  0  0  0  0  0  0  0  0  0
  -21.1370   -4.2040   25.9640 F   0  0  0  0  0  0  0  0  0  0  0  0
  -23.4890  -13.8150   20.7620 C   0  0  0  0  0  0  0  0  0  0  0  0
  -22.6340  -13.2640   21.6170 N   0  0  0  0  0  0  0  0  0  0  0  0
  -23.1940  -14.8340   20.1380 O   0  0  0  0  0  0  0  0  0  0  0  0
  -22.8840  -12.4490   22.1530 H   0  0  0  0  0  0  0  0  0  0  0  0
  -21.7150  -13.6680   21.7350 H   0  0  0  0  0  0  0  0  0  0  0  0
  -26.3110  -15.1520   20.0290 N   0  0  0  0  0  0  0  0  0  0  0  0
  -25.5800  -15.8540   19.9830 H   0  0  0  0  0  0  0  0  0  0  0  0
  -27.1930  -15.4800   19.6520 H   0  0  0  0  0  0  0  0  0  0  0  0
  -30.6760  -20.9570   18.3330 C   0  0  0  0  0  2  0  0  0  0  0  0
  -29.8050  -22.2360   18.5340 C   0  0  0  0  0  0  0  0  0  0  0  0
  -28.5810  -22.1030   18.6380 O   0  0  0  0  0  0  0  0  0  0  0  0
  -30.4330  -23.6670   18.6250 C   0  0  0  0  0  2  0  0  0  0  0  0
  -29.7520  -24.8090   17.7790 C   0  0  0  0  0  2  0  0  0  0  0  0
  -29.6610  -26.1440   18.4000 O   0  0  0  0  0  0  0  0  0  0  0  0
  -25.5360  -30.0950   22.7620 C   0  0  0  0  0  0  0  0  0  0  0  0
  -28.4410  -26.8100   18.5620 C   0  0  0  0  0  0  0  0  0  0  0  0
  -24.4160  -29.0930   20.8000 C   0  0  0  0  0  3  0  0  0  0  0  0
  -25.9500  -28.1200   19.0170 C   0  0  0  0  0  0  0  0  0  0  0  0
  -26.9110  -29.6800   20.7110 C   0  0  0  0  0  2  0  0  0  0  0  0
  -27.0880  -28.5420   19.7130 C   0  0  0  0  0  0  0  0  0  0  0  0
  -28.3350  -27.8950   19.4800 C   0  0  0  0  0  3  0  0  0  0  0  0
  -27.2640  -26.4380   17.8650 C   0  0  0  0  0  3  0  0  0  0  0  0
  -26.0360  -27.0730   18.0930 C   0  0  0  0  0  3  0  0  0  0  0  0
  -24.6500  -28.8300   19.2900 C   0  0  0  0  0  2  0  0  0  0  0  0
  -25.6370  -29.6350   21.4800 N   0  0  0  0  0  0  0  0  0  0  0  0
  -24.4480  -30.1120   23.3570 O   0  0  0  0  0  0  0  0  0  0  0  0
  -23.8700  -27.8040   21.4550 C   0  0  0  0  0  0  0  0  0  0  0  0
  -22.5580  -27.5590   21.3050 N   0  0  0  0  0  0  0  0  0  0  0  0
  -24.6240  -27.0330   22.0540 O   0  0  0  0  0  0  0  0  0  0  0  0
  -22.0080  -28.2260   20.7810 H   0  0  0  0  0  0  0  0  0  0  0  0
  -19.3060  -25.9930   21.5050 C   0  0  0  0  0  0  0  0  0  0  0  0
  -21.8460  -26.3780   21.7980 C   0  0  0  0  0  3  0  0  0  0  0  0
  -22.0310  -25.1780   20.8420 C   0  0  0  0  0  2  0  0  0  0  0  0
  -20.9190  -25.0670   19.7950 C   0  0  0  0  0  2  0  0  0  0  0  0
  -19.5560  -24.9080   20.4730 C   0  0  0  0  0  2  0  0  0  0  0  0
  -20.3790  -26.6930   22.1170 C   0  0  0  0  0  0  0  0  0  0  0  0
  -20.0870  -27.7200   23.0420 C   0  0  0  0  0  3  0  0  0  0  0  0
  -18.7570  -28.0510   23.3600 C   0  0  0  0  0  3  0  0  0  0  0  0
  -17.6980  -27.3490   22.7560 C   0  0  0  0  0  3  0  0  0  0  0  0
  -17.9760  -26.3160   21.8400 C   0  0  0  0  0  3  0  0  0  0  0  0
  -26.7760  -30.6410   23.5310 C   0  0  0  0  0  3  0  0  0  0  0  0
  -27.4210  -29.5870   24.5170 C   0  0  1  0  0  0  0  0  0  0  0  0
  -26.4040  -28.9420   25.4880 C   0  0  0  0  0  1  0  0  0  0  0  0
  -28.1090  -28.4470   23.7280 C   0  0  0  0  0  1  0  0  0  0  0  0
  -28.5210  -30.2710   25.3650 C   0  0  0  0  0  1  0  0  0  0  0  0
  -26.3440  -31.8410   24.2640 N   0  0  0  0  0  0  0  0  0  0  0  0
  -26.5980  -33.0980   23.8770 C   0  0  0  0  0  0  0  0  0  0  0  0
  -27.2860  -33.3720   22.8900 O   0  0  0  0  0  0  0  0  0  0  0  0
  -25.7260  -31.6950   25.0500 H   0  0  0  0  0  0  0  0  0  0  0  0
  -24.7230  -34.7680   24.0360 C   0  0  0  0  0  1  0  0  0  0  0  0
  -25.9900  -34.2340   24.7210 C   0  0  0  0  0  3  0  0  0  0  0  0
  -28.0350  -34.9820   25.8560 C   0  0  0  0  0  1  0  0  0  0  0  0
  -26.9310  -35.3470   24.9740 N   0  0  0  0  0  0  0  0  0  0  0  0
  -26.4480  -36.1420   25.3870 H   0  0  0  0  0  0  0  0  0  0  0  0
  1  5  1  0
  2  1  2  0
  3  7  1  0
  3  5  2  0
  4  3  1  0
  6  4  2  0
  6  2  1  0
  8 11  1  0
  8  4  1  0
  9  7  1  0
 10  7  1  0
 12 18  1  0
 13 18  1  0
 14 15  1  0
 14 13  1  0
 16 15  1  0
 16 25  1  0
 16 17  1  0
 18 17  1  0
 19 12  2  0
 20  2  1  0
 20 12  1  0
 21 20  1  0
 22 23  2  0
 23 24  1  0
 23 42  1  0
 24 27  1  0
 25 22  1  0
 25 26  1  0
 26 24  2  0
 27 28  1  0
 28 29  2  0
 30 33  1  0
 30 29  1  0
 31 30  2  0
 32 31  1  0
 32 27  2  0
 33 34  1  0
 34 35  1  0
 35 36  2  0
 37 36  1  0
 37 41  1  0
 38 37  2  0
 39 34  2  0
 39 38  1  0
 40 39  1  0
 42 43  1  0
 43 46  1  0
 43 45  1  0
 44 42  2  0
 47 22  1  0
 48 47  1  0
 49 47  1  0
 50 51  1  0
 50  8  1  0
 51 53  1  0
 51 52  2  0
 54 55  1  0
 54 53  1  0
 55 57  1  0
 56 67  2  0
 57 62  1  0
 58 68  1  0
 58 66  1  0
 59 65  1  0
 59 61  1  0
 60 66  1  0
 61 60  1  0
 62 61  2  0
 63 64  1  0
 63 57  2  0
 64 59  2  0
 65 58  1  0
 66 56  1  0
 68 70  2  0
 69 68  1  0
 71 69  1  0
 72 81  2  0
 72 77  1  0
 73 69  1  0
 73 77  1  0
 74 73  1  0
 75 76  1  0
 75 74  1  0
 76 72  1  0
 77 78  2  0
 78 79  1  0
 80 79  2  0
 81 80  1  0
 82 56  1  0
 82 87  1  0
 82 83  1  0
 83 86  1  1
 83 84  1  0
 85 83  1  0
 87 90  1  0
 88 87  1  0
 88 92  1  0
 89 88  2  0
 92 91  1  0
 92 94  1  0
 94 95  1  0
 94 93  1  0
M  ISO  4  12 100  20 100  54 101  55 101
M  END
>  <TORSDO>  (60) 
F 20

>  <SCORE>  (60) 
-9.579

>  <name>  (60) 
60

>  <ligand_id>  (60) 
60

>  <original_smiles>  (60) 
[H]c1nc(N([H])[H])c(N([H])C([H])([H])C(=O)C([H])([H])C([H])([H])Oc2c([H])c([H])c3c(c2[H])C([H])([H])N(C(=O)C([H])(N([H])C(=O)C([H])(N([H])C([H])([H])[H])C([H])([H])[H])C(C([H])([H])[H])(C([H])([H])[H])C([H])([H])[H])C([H])(C(=O)N([H])C2([H])c4c([H])c([H])c([H])c([H])c4C([H])([H])C([H])([H])C2([H])[H])C3([H])[H])nc1N([H])C(=O)N1C([H])([H])C([H])([H])C([H])([H])C([H])(n2nc(-c3c([H])c([H])c(Oc4c([H])c([H])c(F)c([H])c4F)c([H])c3[H])c(C(=O)N([H])[H])c2N([H])[H])C1([H])[H]

>  <smiles>  (60) 
[H]c1nc(N([H])[H])c(N([H])C([H])([H])C(=O)C([H])([H])C([H])([H])Oc2c([H])c([H])c3c(c2[H])C([H])([H])N(C(=O)C([H])(N([H])C(=O)C([H])(N([H])C([H])([H])[H])C([H])([H])[H])C(C([H])([H])[H])(C([H])([H])[H])C([H])([H])[H])C([H])(C(=O)N([H])C2([H])c4c([H])c([H])c([H])c([H])c4C([H])([H])C([H])([H])C2([H])[H])C3([H])[H])nc1N([H])C(=O)N1C([H])([H])C([H])([H])C([H])([H])C([H])(n2nc(-c3c([H])c([H])c(Oc4c([H])c([H])c(F)c([H])c4F)c([H])c3[H])c(C(=O)N([H])[H])c2N([H])[H])C1([H])[H]

$$$$
61:0:0
     RDKit          3D

 97105  0  0  1  0  0  0  0  0999 V2000
  -29.2680  -20.7110   20.9490 C   0  0  0  0  0  0  0  0  0  0  0  0
  -29.5200  -22.0070   20.6390 N   0  0  0  0  0  0  0  0  0  0  0  0
  -28.1270  -20.4320   21.5830 N   0  0  0  0  0  4  0  0  0  0  0  0
  -30.3060  -22.1960   20.0260 H   0  0  0  0  0  0  0  0  0  0  0  0
  -27.9550  -19.4980   21.9170 H   0  0  0  0  0  0  0  0  0  0  0  0
  -27.4580  -21.1540   21.7860 H   0  0  0  0  0  0  0  0  0  0  0  0
  -29.8210  -18.2480   20.6130 C   0  0  0  0  0  3  0  0  0  0  0  0
  -31.6070  -19.9130   20.6810 C   0  0  0  0  0  3  0  0  0  0  0  0
  -32.1480  -17.5400   20.5060 C   0  0  0  0  0  3  0  0  0  0  0  0
  -30.2290  -19.6110   20.7070 C   0  0  0  0  0  0  0  0  0  0  0  0
  -30.7730  -17.1940   20.5100 C   0  0  0  0  0  0  0  0  0  0  0  0
  -32.5580  -18.8840   20.5800 C   0  0  0  0  0  0  0  0  0  0  0  0
  -33.8780  -19.1900   20.5800 F   0  0  0  0  0  0  0  0  0  0  0  0
  -30.9900  -14.7500   19.9610 C   0  0  0  0  0  0  0  0  0  0  0  0
  -30.6470  -12.5160   18.9680 C   0  0  0  0  0  2  0  0  0  0  0  0
  -29.6520  -12.6260   17.7960 C   0  0  0  0  0  2  0  0  0  0  0  0
  -28.2030  -12.4950   18.3040 C   0  0  0  0  0  2  0  0  0  0  0  0
  -27.9100  -13.4100   19.5240 C   0  0  0  0  0  3  0  0  0  0  0  0
  -29.0200  -13.2940   20.5940 C   0  0  0  0  0  2  0  0  0  0  0  0
  -30.3100  -13.5690   19.9400 N   0  0  0  0  0  0  0  0  0  0  0  0
  -32.0890  -14.8730   19.4130 O   0  0  0  0  0  0  0  0  0  0  0  0
  -30.3320  -15.8200   20.4680 N   0  0  0  0  0  0  0  0  0  0  0  0
  -29.3900  -15.6340   20.7750 H   0  0  0  0  0  0  0  0  0  0  0  0
  -25.5800  -14.0410   20.4110 C   0  0  0  0  0  0  0  0  0  0  0  0
  -24.5210  -13.2800   20.8260 C   0  0  0  0  0  0  0  0  0  0  0  0
  -24.9480  -11.9200   20.7220 C   0  0  0  0  0  0  0  0  0  0  0  0
  -26.5870  -13.1460   20.0840 N   0  0  0  0  0  0  0  0  0  0  0  0
  -26.2140  -11.8640   20.3290 N   0  0  0  0  0  0  0  0  0  0  0  0
  -24.2050  -10.6680   20.9210 C   0  0  0  0  0  0  0  0  0  0  0  0
  -24.6220   -9.7040   21.8650 C   0  0  0  0  0  3  0  0  0  0  0  0
  -23.8810   -8.5170   22.0490 C   0  0  0  0  0  3  0  0  0  0  0  0
  -22.7100   -8.2850   21.2900 C   0  0  0  0  0  0  0  0  0  0  0  0
  -22.3130   -9.2370   20.3350 C   0  0  0  0  0  3  0  0  0  0  0  0
  -23.0540  -10.4170   20.1490 C   0  0  0  0  0  3  0  0  0  0  0  0
  -21.9420   -7.1500   21.3830 O   0  0  0  0  0  0  0  0  0  0  0  0
  -21.8180   -6.4610   22.5630 C   0  0  0  0  0  0  0  0  0  0  0  0
  -21.2820   -7.0610   23.7240 C   0  0  0  0  0  3  0  0  0  0  0  0
  -21.1070   -6.2970   24.8950 C   0  0  0  0  0  3  0  0  0  0  0  0
  -21.4550   -4.9340   24.9060 C   0  0  0  0  0  0  0  0  0  0  0  0
  -21.9830   -4.3320   23.7480 C   0  0  0  0  0  3  0  0  0  0  0  0
  -22.1600   -5.0940   22.5800 C   0  0  0  0  0  0  0  0  0  0  0  0
  -22.6480   -4.5040   21.4620 F   0  0  0  0  0  0  0  0  0  0  0  0
  -21.2800   -4.1970   26.0280 F   0  0  0  0  0  0  0  0  0  0  0  0
  -23.1560  -13.7780   21.2050 C   0  0  0  0  0  0  0  0  0  0  0  0
  -22.4720  -13.0730   22.0990 N   0  0  0  0  0  0  0  0  0  0  0  0
  -22.7070  -14.8260   20.7410 O   0  0  0  0  0  0  0  0  0  0  0  0
  -22.8490  -12.2250   22.4950 H   0  0  0  0  0  0  0  0  0  0  0  0
  -21.5590  -13.3890   22.3940 H   0  0  0  0  0  0  0  0  0  0  0  0
  -25.7640  -15.4130   20.2630 N   0  0  0  0  0  0  0  0  0  0  0  0
  -25.0120  -16.0750   20.4270 H   0  0  0  0  0  0  0  0  0  0  0  0
  -26.5840  -15.8410   19.8540 H   0  0  0  0  0  0  0  0  0  0  0  0
  -29.0710  -23.5020   22.5990 C   0  0  0  0  0  1  0  0  0  0  0  0
  -28.7700  -23.2160   21.1050 C   0  0  0  0  0  3  0  0  0  0  0  0
  -29.0430  -24.4920   20.2500 C   0  0  0  0  0  0  0  0  0  0  0  0
  -29.7960  -24.4820   19.2700 O   0  0  0  0  0  0  0  0  0  0  0  0
  -28.3290  -25.7920   20.7080 C   0  0  0  0  0  2  0  0  0  0  0  0
  -28.4720  -26.9210   19.8170 O   0  0  0  0  0  0  0  0  0  0  0  0
  -24.6890  -31.8870   23.2740 C   0  0  0  0  0  0  0  0  0  0  0  0
  -27.3460  -27.7170   19.8400 C   0  0  0  0  0  0  0  0  0  0  0  0
  -23.4850  -30.6100   21.5310 C   0  0  0  0  0  3  0  0  0  0  0  0
  -24.9450  -29.2070   19.9760 C   0  0  0  0  0  0  0  0  0  0  0  0
  -26.0080  -31.0050   21.3490 C   0  0  0  0  0  2  0  0  0  0  0  0
  -26.1040  -29.6900   20.5990 C   0  0  0  0  0  0  0  0  0  0  0  0
  -27.3110  -28.9540   20.5270 C   0  0  0  0  0  3  0  0  0  0  0  0
  -26.1750  -27.2560   19.2030 C   0  0  0  0  0  3  0  0  0  0  0  0
  -24.9770  -27.9900   19.2730 C   0  0  0  0  0  3  0  0  0  0  0  0
  -23.6920  -30.0460   20.1000 C   0  0  0  0  0  2  0  0  0  0  0  0
  -24.7460  -31.1770   22.1110 N   0  0  0  0  0  0  0  0  0  0  0  0
  -23.6080  -32.1060   23.8400 O   0  0  0  0  0  0  0  0  0  0  0  0
  -22.8470  -29.5100   22.4100 C   0  0  0  0  0  0  0  0  0  0  0  0
  -21.5260  -29.3180   22.2660 N   0  0  0  0  0  0  0  0  0  0  0  0
  -23.5380  -28.8360   23.1790 O   0  0  0  0  0  0  0  0  0  0  0  0
  -21.0290  -29.9170   21.6220 H   0  0  0  0  0  0  0  0  0  0  0  0
  -18.1710  -28.0280   22.6450 C   0  0  0  0  0  0  0  0  0  0  0  0
  -20.7210  -28.3140   22.9600 C   0  0  0  0  0  3  0  0  0  0  0  0
  -20.8560  -26.9290   22.2870 C   0  0  0  0  0  2  0  0  0  0  0  0
  -19.7690  -26.6580   21.2410 C   0  0  0  0  0  2  0  0  0  0  0  0
  -18.3800  -26.7320   21.8800 C   0  0  0  0  0  2  0  0  0  0  0  0
  -19.2710  -28.7780   23.1390 C   0  0  0  0  0  0  0  0  0  0  0  0
  -19.0230  -29.9940   23.8140 C   0  0  0  0  0  3  0  0  0  0  0  0
  -17.7070  -30.4580   24.0010 C   0  0  0  0  0  3  0  0  0  0  0  0
  -16.6210  -29.7040   23.5240 C   0  0  0  0  0  3  0  0  0  0  0  0
  -16.8540  -28.4900   22.8520 C   0  0  0  0  0  3  0  0  0  0  0  0
  -25.9730  -32.4780   23.9350 C   0  0  0  0  0  3  0  0  0  0  0  0
  -26.4920  -31.6230   25.1570 C   0  0  1  0  0  0  0  0  0  0  0  0
  -25.3990  -31.3100   26.2060 C   0  0  0  0  0  1  0  0  0  0  0  0
  -27.0790  -30.2780   24.6710 C   0  0  0  0  0  1  0  0  0  0  0  0
  -27.6400  -32.3750   25.8720 C   0  0  0  0  0  1  0  0  0  0  0  0
  -25.6640  -33.8500   24.3560 N   0  0  0  0  0  0  0  0  0  0  0  0
  -26.0000  -34.9490   23.6670 C   0  0  0  0  0  0  0  0  0  0  0  0
  -26.6730  -34.9120   22.6330 O   0  0  0  0  0  0  0  0  0  0  0  0
  -25.0660  -33.9540   25.1630 H   0  0  0  0  0  0  0  0  0  0  0  0
  -24.2760  -36.7640   23.4160 C   0  0  0  0  0  1  0  0  0  0  0  0
  -25.5100  -36.3050   24.2100 C   0  0  0  0  0  3  0  0  0  0  0  0
  -27.6340  -37.1320   25.1210 C   0  0  0  0  0  1  0  0  0  0  0  0
  -26.5440  -37.3610   24.1760 N   0  0  0  0  0  0  0  0  0  0  0  0
  -26.1370  -38.2710   24.3780 H   0  0  0  0  0  0  0  0  0  0  0  0
  1  3  2  0
  2  1  1  0
  2 53  1  0
  3  6  1  0
  3  5  1  0
  4  2  1  0
  7 10  1  0
  8 10  2  0
  9 11  1  0
  9 12  2  0
 10  1  1  0
 11  7  2  0
 12  8  1  0
 13 12  1  0
 14 22  1  0
 15 20  1  0
 16 17  1  0
 16 15  1  0
 18 17  1  0
 18 27  1  0
 18 19  1  0
 20 14  1  0
 20 19  1  0
 21 14  2  0
 22 11  1  0
 22 23  1  0
 24 25  2  0
 25 44  1  0
 26 25  1  0
 26 29  1  0
 27 28  1  0
 27 24  1  0
 28 26  2  0
 29 30  1  0
 30 31  2  0
 32 35  1  0
 32 31  1  0
 33 32  2  0
 34 33  1  0
 34 29  2  0
 35 36  1  0
 36 41  2  0
 36 37  1  0
 37 38  2  0
 38 39  1  0
 39 43  1  0
 40 39  2  0
 41 40  1  0
 42 41  1  0
 44 45  1  0
 45 48  1  0
 45 47  1  0
 46 44  2  0
 49 24  1  0
 49 50  1  0
 51 49  1  0
 53 52  1  0
 54 56  1  0
 54 53  1  0
 55 54  2  0
 57 59  1  0
 57 56  1  0
 58 69  2  0
 59 64  1  0
 60 68  1  0
 60 70  1  0
 61 67  1  0
 61 63  1  0
 62 68  1  0
 63 62  1  0
 64 63  2  0
 65 66  1  0
 65 59  2  0
 66 61  2  0
 67 60  1  0
 68 58  1  0
 70 72  2  0
 71 70  1  0
 73 71  1  0
 74 83  2  0
 74 79  1  0
 75 71  1  0
 75 79  1  0
 76 75  1  0
 77 78  1  0
 77 76  1  0
 78 74  1  0
 79 80  2  0
 80 81  1  0
 82 81  2  0
 83 82  1  0
 84 58  1  0
 84 89  1  0
 84 85  1  0
 85 88  1  1
 85 86  1  0
 87 85  1  0
 89 92  1  0
 90 94  1  0
 90 89  1  0
 91 90  2  0
 94 93  1  0
 96 94  1  0
 96 97  1  0
 96 95  1  0
M  ISO  4  14 100  22 100  56 101  57 101
M  END
>  <TORSDO>  (61) 
F 20

>  <SCORE>  (61) 
-13.214

>  <name>  (61) 
61

>  <ligand_id>  (61) 
61

>  <original_smiles>  (61) 
[H]c1c([H])c([H])c2c(c1[H])C([H])([H])C([H])([H])C([H])([H])C2([H])N([H])C(=O)C1([H])N(C(=O)C([H])(N([H])C(=O)C([H])(N([H])C([H])([H])[H])C([H])([H])[H])C(C([H])([H])[H])(C([H])([H])[H])C([H])([H])[H])C([H])([H])c2c([H])c(OC([H])([H])C(=O)C([H])(N([H])C(c3c([H])c(F)c([H])c(N([H])C(=O)N4C([H])([H])C([H])([H])C([H])([H])C([H])(n5nc(-c6c([H])c([H])c(Oc7c([H])c([H])c(F)c([H])c7F)c([H])c6[H])c(C(=O)N([H])[H])c5N([H])[H])C4([H])[H])c3[H])=[N+]([H])[H])C([H])([H])[H])c([H])c([H])c2C1([H])[H]

>  <smiles>  (61) 
[H]c1c([H])c([H])c2c(c1[H])C([H])([H])C([H])([H])C([H])([H])C2([H])N([H])C(=O)C1([H])N(C(=O)C([H])(N([H])C(=O)C([H])(N([H])C([H])([H])[H])C([H])([H])[H])C(C([H])([H])[H])(C([H])([H])[H])C([H])([H])[H])C([H])([H])c2c([H])c(OC([H])([H])C(=O)C([H])(N([H])C(c3c([H])c(F)c([H])c(N([H])C(=O)N4C([H])([H])C([H])([H])C([H])([H])C([H])(n5nc(-c6c([H])c([H])c(Oc7c([H])c([H])c(F)c([H])c7F)c([H])c6[H])c(C(=O)N([H])[H])c5N([H])[H])C4([H])[H])c3[H])=[N+]([H])[H])C([H])([H])[H])c([H])c([H])c2C1([H])[H]

$$$$
62:0:0
     RDKit          3D

 97105  0  0  1  0  0  0  0  0999 V2000
  -30.0650  -19.3570   21.1220 C   0  0  0  0  0  3  0  0  0  0  0  0
  -29.7500  -19.3590   23.8950 C   0  0  0  0  0  3  0  0  0  0  0  0
  -30.2000  -18.1260   21.8310 C   0  0  0  0  0  0  0  0  0  0  0  0
  -30.0520  -18.1420   23.2480 C   0  0  0  0  0  0  0  0  0  0  0  0
  -29.7750  -20.5860   21.7810 C   0  0  0  0  0  0  0  0  0  0  0  0
  -29.6220  -20.5640   23.1880 C   0  0  0  0  0  0  0  0  0  0  0  0
  -29.4330  -21.7070   23.8890 F   0  0  0  0  0  0  0  0  0  0  0  0
  -28.9240  -22.8800   21.2710 C   0  0  0  0  0  0  0  0  0  0  0  0
  -29.7710  -21.8420   21.0730 N   0  0  0  0  0  0  0  0  0  0  0  0
  -27.8310  -22.7210   21.8210 O   0  0  0  0  0  0  0  0  0  0  0  0
  -30.5540  -22.0030   20.4530 H   0  0  0  0  0  0  0  0  0  0  0  0
  -29.3200  -24.3000   20.7680 C   0  0  0  0  0  2  0  0  0  0  0  0
  -28.1260  -25.1750   20.2710 C   0  0  0  0  0  2  0  0  0  0  0  0
  -28.3670  -26.6060   20.1720 O   0  0  0  0  0  0  0  0  0  0  0  0
  -24.6170  -31.8660   23.2080 C   0  0  0  0  0  0  0  0  0  0  0  0
  -27.2270  -27.3990   20.1110 C   0  0  0  0  0  0  0  0  0  0  0  0
  -23.4060  -30.4890   21.5510 C   0  0  0  0  0  3  0  0  0  0  0  0
  -24.8540  -28.9590   20.1110 C   0  0  0  0  0  0  0  0  0  0  0  0
  -25.9400  -30.8240   21.3660 C   0  0  0  0  0  2  0  0  0  0  0  0
  -26.0190  -29.4590   20.7070 C   0  0  0  0  0  0  0  0  0  0  0  0
  -27.2100  -28.6910   20.6970 C   0  0  0  0  0  3  0  0  0  0  0  0
  -26.0430  -26.9320   19.4930 C   0  0  0  0  0  3  0  0  0  0  0  0
  -24.8640  -27.6980   19.4960 C   0  0  0  0  0  3  0  0  0  0  0  0
  -23.6160  -29.8250   20.1640 C   0  0  0  0  0  2  0  0  0  0  0  0
  -24.6730  -31.0750   22.0990 N   0  0  0  0  0  0  0  0  0  0  0  0
  -23.5350  -32.1410   23.7460 O   0  0  0  0  0  0  0  0  0  0  0  0
  -22.7440  -29.4630   22.4990 C   0  0  0  0  0  0  0  0  0  0  0  0
  -21.4160  -29.3010   22.3730 N   0  0  0  0  0  0  0  0  0  0  0  0
  -23.4220  -28.8180   23.3030 O   0  0  0  0  0  0  0  0  0  0  0  0
  -20.9340  -29.8710   21.6920 H   0  0  0  0  0  0  0  0  0  0  0  0
  -18.0280  -28.1380   22.8500 C   0  0  0  0  0  0  0  0  0  0  0  0
  -20.5870  -28.3660   23.1320 C   0  0  0  0  0  3  0  0  0  0  0  0
  -20.6760  -26.9390   22.5420 C   0  0  0  0  0  2  0  0  0  0  0  0
  -19.5730  -26.6370   21.5230 C   0  0  0  0  0  2  0  0  0  0  0  0
  -18.1920  -26.7920   22.1640 C   0  0  0  0  0  2  0  0  0  0  0  0
  -19.1530  -28.8840   23.2900 C   0  0  0  0  0  0  0  0  0  0  0  0
  -18.9450  -30.1450   23.8890 C   0  0  0  0  0  3  0  0  0  0  0  0
  -17.6450  -30.6580   24.0560 C   0  0  0  0  0  3  0  0  0  0  0  0
  -16.5340  -29.9080   23.6330 C   0  0  0  0  0  3  0  0  0  0  0  0
  -16.7270  -28.6500   23.0340 C   0  0  0  0  0  3  0  0  0  0  0  0
  -25.9050  -32.4820   23.8390 C   0  0  0  0  0  3  0  0  0  0  0  0
  -25.5880  -33.8610   24.2300 N   0  0  0  0  0  0  0  0  0  0  0  0
  -25.9040  -34.9470   23.5120 C   0  0  0  0  0  0  0  0  0  0  0  0
  -26.5610  -34.8930   22.4690 O   0  0  0  0  0  0  0  0  0  0  0  0
  -24.9980  -33.9780   25.0410 H   0  0  0  0  0  0  0  0  0  0  0  0
  -24.1480  -36.7310   23.2640 C   0  0  0  0  0  1  0  0  0  0  0  0
  -25.4100  -36.3100   24.0330 C   0  0  0  0  0  3  0  0  0  0  0  0
  -27.5580  -37.1800   24.8460 C   0  0  0  0  0  1  0  0  0  0  0  0
  -26.4280  -37.3800   23.9420 N   0  0  0  0  0  0  0  0  0  0  0  0
  -26.0150  -38.2870   24.1460 H   0  0  0  0  0  0  0  0  0  0  0  0
  -26.4450  -31.6600   25.0740 C   0  0  1  0  0  0  0  0  0  0  0  0
  -25.3720  -31.3730   26.1490 C   0  0  0  0  0  1  0  0  0  0  0  0
  -27.0260  -30.3030   24.6130 C   0  0  0  0  0  1  0  0  0  0  0  0
  -27.6020  -32.4340   25.7490 C   0  0  0  0  0  1  0  0  0  0  0  0
  -30.5980  -16.8900   21.1000 C   0  0  0  0  0  3  0  0  0  0  0  0
  -30.0910  -15.6350   21.2380 C   0  0  0  0  0  3  0  0  0  0  0  0
  -30.7270  -14.4980   20.5590 C   0  0  0  0  0  0  0  0  0  0  0  0
  -30.4130  -12.3250   19.4330 C   0  0  0  0  0  2  0  0  0  0  0  0
  -29.4970  -12.5300   18.2080 C   0  0  0  0  0  2  0  0  0  0  0  0
  -28.0130  -12.3910   18.6080 C   0  0  0  0  0  2  0  0  0  0  0  0
  -27.6580  -13.2190   19.8730 C   0  0  0  0  0  3  0  0  0  0  0  0
  -28.7000  -13.0100   20.9920 C   0  0  0  0  0  2  0  0  0  0  0  0
  -30.0290  -13.3260   20.4470 N   0  0  0  0  0  0  0  0  0  0  0  0
  -31.8410  -14.6160   20.0420 O   0  0  0  0  0  0  0  0  0  0  0  0
  -25.2580  -13.8190   20.5690 C   0  0  0  0  0  0  0  0  0  0  0  0
  -24.1840  -13.0460   20.9200 C   0  0  0  0  0  0  0  0  0  0  0  0
  -24.6400  -11.6930   20.8730 C   0  0  0  0  0  0  0  0  0  0  0  0
  -26.3020  -12.9370   20.3360 N   0  0  0  0  0  0  0  0  0  0  0  0
  -25.9320  -11.6520   20.5740 N   0  0  0  0  0  0  0  0  0  0  0  0
  -23.9070  -10.4310   21.0410 C   0  0  0  0  0  0  0  0  0  0  0  0
  -24.3630   -9.4230   21.9170 C   0  0  0  0  0  3  0  0  0  0  0  0
  -23.6330   -8.2240   22.0720 C   0  0  0  0  0  3  0  0  0  0  0  0
  -22.4300   -8.0280   21.3540 C   0  0  0  0  0  0  0  0  0  0  0  0
  -21.9940   -9.0250   20.4630 C   0  0  0  0  0  3  0  0  0  0  0  0
  -22.7250  -10.2150   20.3050 C   0  0  0  0  0  3  0  0  0  0  0  0
  -21.6640   -6.8900   21.4260 O   0  0  0  0  0  0  0  0  0  0  0  0
  -21.6860   -6.0750   22.5290 C   0  0  0  0  0  0  0  0  0  0  0  0
  -21.4000   -6.5640   23.8230 C   0  0  0  0  0  3  0  0  0  0  0  0
  -21.3660   -5.6790   24.9180 C   0  0  0  0  0  3  0  0  0  0  0  0
  -21.6050   -4.3050   24.7210 C   0  0  0  0  0  0  0  0  0  0  0  0
  -21.8820   -3.8160   23.4330 C   0  0  0  0  0  3  0  0  0  0  0  0
  -21.9180   -4.6980   22.3400 C   0  0  0  0  0  0  0  0  0  0  0  0
  -22.1670   -4.2170   21.0980 F   0  0  0  0  0  0  0  0  0  0  0  0
  -21.5640   -3.4530   25.7730 F   0  0  0  0  0  0  0  0  0  0  0  0
  -22.7860  -13.5250   21.1880 C   0  0  0  0  0  0  0  0  0  0  0  0
  -22.0490  -12.8240   22.0430 N   0  0  0  0  0  0  0  0  0  0  0  0
  -22.3550  -14.5550   20.6720 O   0  0  0  0  0  0  0  0  0  0  0  0
  -22.4120  -11.9920   22.4850 H   0  0  0  0  0  0  0  0  0  0  0  0
  -21.1090  -13.1220   22.2590 H   0  0  0  0  0  0  0  0  0  0  0  0
  -25.4300  -15.1920   20.4140 N   0  0  0  0  0  0  0  0  0  0  0  0
  -24.6720  -15.8530   20.5290 H   0  0  0  0  0  0  0  0  0  0  0  0
  -26.2980  -15.6290   20.1270 H   0  0  0  0  0  0  0  0  0  0  0  0
  -30.3710  -16.9420   24.1510 C   0  0  0  0  0  2  0  0  0  0  0  0
  -29.2450  -16.6860   26.3980 C   0  0  0  0  0  1  0  0  0  0  0  0
  -27.7960  -16.6650   24.3480 C   0  0  0  0  0  1  0  0  0  0  0  0
  -29.3250  -14.7400   24.8650 C   0  0  0  0  0  1  0  0  0  0  0  0
  -29.1800  -16.2760   24.9140 C   0  0  1  0  0  0  0  0  0  0  0  0
  1  5  2  0
  1  3  1  0
  3  4  2  0
  4  2  1  0
  4 93  1  0
  5  6  1  0
  6  7  1  0
  6  2  2  0
  8 10  2  0
  9  8  1  0
  9  5  1  0
 11  9  1  0
 12  8  1  0
 13 12  1  0
 14 13  1  0
 15 26  2  0
 16 14  1  0
 16 21  1  0
 17 25  1  0
 17 27  1  0
 18 24  1  0
 18 20  1  0
 19 25  1  0
 20 19  1  0
 21 20  2  0
 22 23  1  0
 22 16  2  0
 23 18  2  0
 24 17  1  0
 25 15  1  0
 27 29  2  0
 28 27  1  0
 30 28  1  0
 31 40  2  0
 31 36  1  0
 32 28  1  0
 32 36  1  0
 33 32  1  0
 34 35  1  0
 34 33  1  0
 35 31  1  0
 36 37  2  0
 37 38  1  0
 39 38  2  0
 40 39  1  0
 41 15  1  0
 41 42  1  0
 41 51  1  0
 42 45  1  0
 43 47  1  0
 43 42  1  0
 44 43  2  0
 47 46  1  0
 49 47  1  0
 49 50  1  0
 49 48  1  0
 51 54  1  1
 51 52  1  0
 53 51  1  0
 55 56  2  0
 55  3  1  0
 57 56  1  0
 58 63  1  0
 59 60  1  0
 59 58  1  0
 61 60  1  0
 61 68  1  0
 61 62  1  0
 63 57  1  0
 63 62  1  0
 64 57  2  0
 65 66  2  0
 66 85  1  0
 67 66  1  0
 67 70  1  0
 68 65  1  0
 68 69  1  0
 69 67  2  0
 70 71  1  0
 71 72  2  0
 73 76  1  0
 73 72  1  0
 74 73  2  0
 75 74  1  0
 75 70  2  0
 76 77  1  0
 77 78  1  0
 78 79  2  0
 80 79  1  0
 80 84  1  0
 81 80  2  0
 82 77  2  0
 82 81  1  0
 83 82  1  0
 85 86  1  0
 86 89  1  0
 86 88  1  0
 87 85  2  0
 90 91  1  0
 90 65  1  0
 92 90  1  0
 93 97  1  0
 97 95  1  6
 96 97  1  0
 97 94  1  0
M  ISO  4  13 101  14 101  56 100  57 100
M  END
>  <TORSDO>  (62) 
F 22

>  <SCORE>  (62) 
30.402

>  <name>  (62) 
62

>  <ligand_id>  (62) 
62

>  <original_smiles>  (62) 
[H]C(C(=O)N1C([H])([H])C([H])([H])C([H])([H])C([H])(n2nc(-c3c([H])c([H])c(Oc4c([H])c([H])c(F)c([H])c4F)c([H])c3[H])c(C(=O)N([H])[H])c2N([H])[H])C1([H])[H])=C([H])c1c([H])c(N([H])C(=O)C([H])([H])C([H])([H])Oc2c([H])c([H])c3c(c2[H])C([H])([H])N(C(=O)C([H])(N([H])C(=O)C([H])(N([H])C([H])([H])[H])C([H])([H])[H])C(C([H])([H])[H])(C([H])([H])[H])C([H])([H])[H])C([H])(C(=O)N([H])C2([H])c4c([H])c([H])c([H])c([H])c4C([H])([H])C([H])([H])C2([H])[H])C3([H])[H])c(F)c([H])c1C([H])([H])C(C([H])([H])[H])(C([H])([H])[H])C([H])([H])[H]

>  <smiles>  (62) 
[H]C(C(=O)N1C([H])([H])C([H])([H])C([H])([H])C([H])(n2nc(-c3c([H])c([H])c(Oc4c([H])c([H])c(F)c([H])c4F)c([H])c3[H])c(C(=O)N([H])[H])c2N([H])[H])C1([H])[H])=C([H])c1c([H])c(N([H])C(=O)C([H])([H])C([H])([H])Oc2c([H])c([H])c3c(c2[H])C([H])([H])N(C(=O)C([H])(N([H])C(=O)C([H])(N([H])C([H])([H])[H])C([H])([H])[H])C(C([H])([H])[H])(C([H])([H])[H])C([H])([H])[H])C([H])(C(=O)N([H])C2([H])c4c([H])c([H])c([H])c([H])c4C([H])([H])C([H])([H])C2([H])[H])C3([H])[H])c(F)c([H])c1C([H])([H])C(C([H])([H])[H])(C([H])([H])[H])C([H])([H])[H]

$$$$
63:0:0
     RDKit          3D

100108  0  0  1  0  0  0  0  0999 V2000
  -29.9050  -20.5050   22.1410 C   0  0  0  0  0  3  0  0  0  0  0  0
  -30.2170  -18.4360   20.8440 C   0  0  0  0  0  0  0  0  0  0  0  0
  -29.5140  -19.0570   19.7570 C   0  0  0  0  0  0  0  0  0  0  0  0
  -29.0050  -20.4010   19.8860 C   0  0  0  0  0  0  0  0  0  0  0  0
  -29.2610  -21.1580   21.0710 C   0  0  0  0  0  0  0  0  0  0  0  0
  -30.3680  -19.1810   22.0380 C   0  0  0  0  0  0  0  0  0  0  0  0
  -29.3390  -18.3160   18.4290 C   0  0  0  0  0  1  0  0  0  0  0  0
  -31.0010  -18.6450   23.1110 F   0  0  0  0  0  0  0  0  0  0  0  0
  -31.0500  -14.7510   20.2870 C   0  0  0  0  0  0  0  0  0  0  0  0
  -30.6800  -12.5300   19.2690 C   0  0  0  0  0  2  0  0  0  0  0  0
  -29.7510  -12.6720   18.0510 C   0  0  0  0  0  2  0  0  0  0  0  0
  -28.2820  -12.5420   18.4930 C   0  0  0  0  0  2  0  0  0  0  0  0
  -27.9410  -13.4400   19.7140 C   0  0  0  0  0  3  0  0  0  0  0  0
  -29.0080  -13.3380   20.8300 C   0  0  0  0  0  2  0  0  0  0  0  0
  -30.3170  -13.6000   20.2210 N   0  0  0  0  0  0  0  0  0  0  0  0
  -32.2100  -14.7490   19.8670 O   0  0  0  0  0  0  0  0  0  0  0  0
  -31.0200  -17.1400   20.7310 C   0  0  0  0  0  0  0  0  0  0  0  0
  -30.4170  -15.9140   20.6310 N   0  0  0  0  0  0  0  0  0  0  0  0
  -32.2480  -17.2880   20.7430 O   0  0  0  0  0  0  0  0  0  0  0  0
  -29.4240  -15.8740   20.7850 H   0  0  0  0  0  0  0  0  0  0  0  0
  -25.5700  -14.0580   20.4780 C   0  0  0  0  0  0  0  0  0  0  0  0
  -24.4990  -13.2940   20.8500 C   0  0  0  0  0  0  0  0  0  0  0  0
  -24.9400  -11.9360   20.7920 C   0  0  0  0  0  0  0  0  0  0  0  0
  -26.5990  -13.1670   20.2170 N   0  0  0  0  0  0  0  0  0  0  0  0
  -26.2270  -11.8850   20.4670 N   0  0  0  0  0  0  0  0  0  0  0  0
  -24.1990  -10.6810   20.9730 C   0  0  0  0  0  0  0  0  0  0  0  0
  -24.6060   -9.7100   21.9120 C   0  0  0  0  0  3  0  0  0  0  0  0
  -23.8650   -8.5200   22.0800 C   0  0  0  0  0  3  0  0  0  0  0  0
  -22.6990   -8.2960   21.3110 C   0  0  0  0  0  0  0  0  0  0  0  0
  -22.3100   -9.2570   20.3610 C   0  0  0  0  0  3  0  0  0  0  0  0
  -23.0530  -10.4370   20.1900 C   0  0  0  0  0  3  0  0  0  0  0  0
  -21.9290   -7.1600   21.3880 O   0  0  0  0  0  0  0  0  0  0  0  0
  -21.8300   -6.4370   22.5490 C   0  0  0  0  0  0  0  0  0  0  0  0
  -21.3520   -7.0120   23.7470 C   0  0  0  0  0  3  0  0  0  0  0  0
  -21.1980   -6.2170   24.8990 C   0  0  0  0  0  3  0  0  0  0  0  0
  -21.5120   -4.8450   24.8550 C   0  0  0  0  0  0  0  0  0  0  0  0
  -21.9840   -4.2690   23.6620 C   0  0  0  0  0  3  0  0  0  0  0  0
  -22.1380   -5.0620   22.5120 C   0  0  0  0  0  0  0  0  0  0  0  0
  -22.5730   -4.4980   21.3590 F   0  0  0  0  0  0  0  0  0  0  0  0
  -21.3590   -4.0770   25.9590 F   0  0  0  0  0  0  0  0  0  0  0  0
  -23.1130  -13.7870   21.1470 C   0  0  0  0  0  0  0  0  0  0  0  0
  -22.3930  -13.0990   22.0250 N   0  0  0  0  0  0  0  0  0  0  0  0
  -22.6790  -14.8200   20.6360 O   0  0  0  0  0  0  0  0  0  0  0  0
  -22.7580  -12.2630   22.4560 H   0  0  0  0  0  0  0  0  0  0  0  0
  -21.4640  -13.4120   22.2690 H   0  0  0  0  0  0  0  0  0  0  0  0
  -25.7520  -15.4280   20.3170 N   0  0  0  0  0  0  0  0  0  0  0  0
  -24.9890  -16.0850   20.4360 H   0  0  0  0  0  0  0  0  0  0  0  0
  -26.5930  -15.8610   19.9620 H   0  0  0  0  0  0  0  0  0  0  0  0
  -29.1190  -23.7060   20.7940 C   0  0  0  0  0  0  0  0  0  0  0  0
  -28.8170  -22.5020   21.3530 N   0  0  0  0  0  0  0  0  0  0  0  0
  -29.5150  -23.8430   19.6360 O   0  0  0  0  0  0  0  0  0  0  0  0
  -28.5260  -22.6640   22.3100 H   0  0  0  0  0  0  0  0  0  0  0  0
  -28.7320  -26.1240   21.5040 C   0  0  0  0  0  3  0  0  0  0  0  0
  -28.8950  -24.7950   21.7720 C   0  0  0  0  0  0  0  0  0  0  0  0
  -28.8490  -24.4410   23.0700 O   0  0  0  0  0  0  0  0  0  0  0  0
  -28.7100  -25.2280   23.5810 H   0  0  0  0  0  0  0  0  0  0  0  0
  -28.6730  -26.8030   20.3020 O   0  0  0  0  0  0  0  0  0  0  0  0
  -24.6880  -31.9410   23.2550 C   0  0  0  0  0  0  0  0  0  0  0  0
  -27.5600  -27.6160   20.1960 C   0  0  0  0  0  0  0  0  0  0  0  0
  -23.5770  -30.5160   21.5680 C   0  0  0  0  0  3  0  0  0  0  0  0
  -25.1230  -29.0590   20.1490 C   0  0  0  0  0  0  0  0  0  0  0  0
  -26.0910  -30.9720   21.4320 C   0  0  0  0  0  2  0  0  0  0  0  0
  -26.2480  -29.6120   20.7750 C   0  0  0  0  0  0  0  0  0  0  0  0
  -27.4720  -28.8980   20.7980 C   0  0  0  0  0  3  0  0  0  0  0  0
  -26.4260  -27.0910   19.5490 C   0  0  0  0  0  3  0  0  0  0  0  0
  -25.2100  -27.8000   19.5270 C   0  0  0  0  0  3  0  0  0  0  0  0
  -23.8450  -29.8660   20.1840 C   0  0  0  0  0  2  0  0  0  0  0  0
  -24.8020  -31.1580   22.1440 N   0  0  0  0  0  0  0  0  0  0  0  0
  -23.5850  -32.1630   23.7740 O   0  0  0  0  0  0  0  0  0  0  0  0
  -22.9410  -29.4590   22.5010 C   0  0  0  0  0  0  0  0  0  0  0  0
  -21.6200  -29.2550   22.3660 N   0  0  0  0  0  0  0  0  0  0  0  0
  -23.6340  -28.8260   23.3010 O   0  0  0  0  0  0  0  0  0  0  0  0
  -21.1210  -29.8200   21.6930 H   0  0  0  0  0  0  0  0  0  0  0  0
  -18.2600  -28.0150   22.8590 C   0  0  0  0  0  0  0  0  0  0  0  0
  -20.8180  -28.2820   23.1090 C   0  0  0  0  0  3  0  0  0  0  0  0
  -20.9240  -26.8750   22.4770 C   0  0  0  0  0  2  0  0  0  0  0  0
  -19.8120  -26.5840   21.4650 C   0  0  0  0  0  2  0  0  0  0  0  0
  -18.4360  -26.6940   22.1300 C   0  0  0  0  0  2  0  0  0  0  0  0
  -19.3780  -28.7680   23.3050 C   0  0  0  0  0  0  0  0  0  0  0  0
  -19.1580  -30.0060   23.9460 C   0  0  0  0  0  3  0  0  0  0  0  0
  -17.8510  -30.4910   24.1450 C   0  0  0  0  0  3  0  0  0  0  0  0
  -16.7480  -29.7340   23.7170 C   0  0  0  0  0  3  0  0  0  0  0  0
  -16.9530  -28.4970   23.0800 C   0  0  0  0  0  3  0  0  0  0  0  0
  -25.9330  -32.6150   23.9130 C   0  0  0  0  0  3  0  0  0  0  0  0
  -25.5760  -34.0070   24.2180 N   0  0  0  0  0  0  0  0  0  0  0  0
  -25.9020  -35.0590   23.4560 C   0  0  0  0  0  0  0  0  0  0  0  0
  -26.6090  -34.9630   22.4490 O   0  0  0  0  0  0  0  0  0  0  0  0
  -24.9520  -34.1540   24.9970 H   0  0  0  0  0  0  0  0  0  0  0  0
  -24.1350  -36.7970   23.0240 C   0  0  0  0  0  1  0  0  0  0  0  0
  -25.3620  -36.4390   23.8800 C   0  0  0  0  0  3  0  0  0  0  0  0
  -27.4420  -37.3960   24.7650 C   0  0  0  0  0  1  0  0  0  0  0  0
  -26.3650  -37.5210   23.7860 N   0  0  0  0  0  0  0  0  0  0  0  0
  -25.9280  -38.4300   23.9090 H   0  0  0  0  0  0  0  0  0  0  0  0
  -26.4290  -31.8680   25.2130 C   0  0  1  0  0  0  0  0  0  0  0  0
  -25.3080  -31.6000   26.2430 C   0  0  0  0  0  1  0  0  0  0  0  0
  -27.0690  -30.5080   24.8490 C   0  0  0  0  0  1  0  0  0  0  0  0
  -27.5310  -32.7020   25.9070 C   0  0  0  0  0  1  0  0  0  0  0  0
  -28.1730  -21.0180   18.7570 C   0  0  0  0  0  2  0  0  0  0  0  0
  -26.1600  -20.3550   17.3880 C   0  0  0  0  0  2  0  0  0  0  0  0
  -26.8200  -20.3670   18.5560 C   0  0  0  0  0  3  0  0  0  0  0  0
  2  6  2  0
  3  4  2  0
  3  2  1  0
  4  5  1  0
  5 50  1  0
  5  1  2  0
  6  1  1  0
  6  8  1  0
  7  3  1  0
  9 18  1  0
 10 15  1  0
 11 12  1  0
 11 10  1  0
 13 12  1  0
 13 24  1  0
 13 14  1  0
 15  9  1  0
 15 14  1  0
 16  9  2  0
 17 19  2  0
 17  2  1  0
 18 17  1  0
 18 20  1  0
 21 22  2  0
 22 41  1  0
 23 22  1  0
 23 26  1  0
 24 25  1  0
 24 21  1  0
 25 23  2  0
 26 27  1  0
 27 28  2  0
 29 32  1  0
 29 28  1  0
 30 29  2  0
 31 30  1  0
 31 26  2  0
 32 33  1  0
 33 34  1  0
 34 35  2  0
 36 35  1  0
 36 40  1  0
 37 36  2  0
 38 33  2  0
 38 37  1  0
 39 38  1  0
 41 42  1  0
 42 45  1  0
 42 44  1  0
 43 41  2  0
 46 47  1  0
 46 21  1  0
 48 46  1  0
 49 50  1  0
 49 54  1  0
 50 52  1  0
 51 49  2  0
 53 54  2  0
 54 55  1  0
 55 56  1  0
 57 53  1  0
 58 69  2  0
 59 57  1  0
 59 64  1  0
 60 68  1  0
 60 70  1  0
 61 67  1  0
 61 63  1  0
 62 68  1  0
 63 64  2  0
 63 62  1  0
 65 59  2  0
 66 65  1  0
 66 61  2  0
 67 60  1  0
 68 58  1  0
 70 72  2  0
 71 70  1  0
 73 71  1  0
 74 83  2  0
 74 79  1  0
 75 71  1  0
 75 79  1  0
 76 75  1  0
 77 78  1  0
 77 76  1  0
 78 74  1  0
 79 80  2  0
 80 81  1  0
 82 81  2  0
 83 82  1  0
 84 58  1  0
 84 85  1  0
 84 94  1  0
 85 88  1  0
 86 90  1  0
 86 85  1  0
 87 86  2  0
 90 89  1  0
 92 90  1  0
 92 93  1  0
 92 91  1  0
 94 97  1  1
 94 95  1  0
 96 94  1  0
 98  4  1  0
 99100  2  0
100 98  1  0
M  ISO  4   9 100  18 100  53 101  57 101
M  END
>  <TORSDO>  (63) 
F 21

>  <SCORE>  (63) 
-13.823

>  <name>  (63) 
63

>  <ligand_id>  (63) 
63

>  <original_smiles>  (63) 
[H]OC(C(=O)N([H])c1c([H])c(F)c(C(=O)N([H])C(=O)N2C([H])([H])C([H])([H])C([H])([H])C([H])(n3nc(-c4c([H])c([H])c(Oc5c([H])c([H])c(F)c([H])c5F)c([H])c4[H])c(C(=O)N([H])[H])c3N([H])[H])C2([H])[H])c(C([H])([H])[H])c1C([H])([H])C([H])=C([H])[H])=C([H])Oc1c([H])c([H])c2c(c1[H])C([H])([H])N(C(=O)C([H])(N([H])C(=O)C([H])(N([H])C([H])([H])[H])C([H])([H])[H])C(C([H])([H])[H])(C([H])([H])[H])C([H])([H])[H])C([H])(C(=O)N([H])C1([H])c3c([H])c([H])c([H])c([H])c3C([H])([H])C([H])([H])C1([H])[H])C2([H])[H]

>  <smiles>  (63) 
[H]OC(C(=O)N([H])c1c([H])c(F)c(C(=O)N([H])C(=O)N2C([H])([H])C([H])([H])C([H])([H])C([H])(n3nc(-c4c([H])c([H])c(Oc5c([H])c([H])c(F)c([H])c5F)c([H])c4[H])c(C(=O)N([H])[H])c3N([H])[H])C2([H])[H])c(C([H])([H])[H])c1C([H])([H])C([H])=C([H])[H])=C([H])Oc1c([H])c([H])c2c(c1[H])C([H])([H])N(C(=O)C([H])(N([H])C(=O)C([H])(N([H])C([H])([H])[H])C([H])([H])[H])C(C([H])([H])[H])(C([H])([H])[H])C([H])([H])[H])C([H])(C(=O)N([H])C1([H])c3c([H])c([H])c([H])c([H])c3C([H])([H])C([H])([H])C1([H])[H])C2([H])[H]

$$$$
64:0:0
     RDKit          3D

 99107  0  0  1  0  0  0  0  0999 V2000
  -28.7940  -20.7330   19.8390 C   0  0  0  0  0  0  0  0  0  0  0  0
  -27.5900  -20.3060   19.4560 N   0  0  0  0  0  4  0  0  0  0  0  0
  -28.8860  -22.0990   19.7340 N   0  0  0  0  0  0  0  0  0  0  0  0
  -27.3910  -19.3180   19.4900 H   0  0  0  0  0  0  0  0  0  0  0  0
  -26.8290  -20.9130   19.1980 H   0  0  0  0  0  0  0  0  0  0  0  0
  -28.1220  -22.5300   19.2360 H   0  0  0  0  0  0  0  0  0  0  0  0
  -29.4800  -18.2780   20.0780 C   0  0  0  0  0  3  0  0  0  0  0  0
  -31.5480  -17.5520   21.1150 C   0  0  0  0  0  3  0  0  0  0  0  0
  -29.7850  -19.6720   20.2880 C   0  0  0  0  0  0  0  0  0  0  0  0
  -30.3260  -17.2070   20.5040 C   0  0  0  0  0  0  0  0  0  0  0  0
  -31.8800  -18.9020   21.3400 C   0  0  0  0  0  0  0  0  0  0  0  0
  -31.0110  -19.9450   20.9520 C   0  0  0  0  0  0  0  0  0  0  0  0
  -33.0510  -19.1960   21.9600 F   0  0  0  0  0  0  0  0  0  0  0  0
  -31.3970  -21.2040   21.2560 F   0  0  0  0  0  0  0  0  0  0  0  0
  -30.6590  -14.7110   20.1360 C   0  0  0  0  0  0  0  0  0  0  0  0
  -30.3460  -12.4980   19.0680 C   0  0  0  0  0  2  0  0  0  0  0  0
  -29.3620  -12.6460   17.8920 C   0  0  0  0  0  2  0  0  0  0  0  0
  -27.9080  -12.4790   18.3800 C   0  0  0  0  0  2  0  0  0  0  0  0
  -27.5950  -13.3320   19.6420 C   0  0  0  0  0  3  0  0  0  0  0  0
  -28.7040  -13.2060   20.7130 C   0  0  0  0  0  2  0  0  0  0  0  0
  -29.9860  -13.5220   20.0640 N   0  0  0  0  0  0  0  0  0  0  0  0
  -31.8260  -14.8230   19.7520 O   0  0  0  0  0  0  0  0  0  0  0  0
  -29.9050  -15.8190   20.3860 N   0  0  0  0  0  0  0  0  0  0  0  0
  -28.9170  -15.6510   20.4670 H   0  0  0  0  0  0  0  0  0  0  0  0
  -25.2330  -13.9030   20.4780 C   0  0  0  0  0  0  0  0  0  0  0  0
  -24.1850  -13.1180   20.8730 C   0  0  0  0  0  0  0  0  0  0  0  0
  -24.6520  -11.7690   20.8010 C   0  0  0  0  0  0  0  0  0  0  0  0
  -26.2720  -13.0340   20.1830 N   0  0  0  0  0  0  0  0  0  0  0  0
  -25.9310  -11.7440   20.4360 N   0  0  0  0  0  0  0  0  0  0  0  0
  -23.9410  -10.5010   20.9960 C   0  0  0  0  0  0  0  0  0  0  0  0
  -24.3960   -9.5310   21.9180 C   0  0  0  0  0  3  0  0  0  0  0  0
  -23.6810   -8.3270   22.1010 C   0  0  0  0  0  3  0  0  0  0  0  0
  -22.4990   -8.0840   21.3640 C   0  0  0  0  0  0  0  0  0  0  0  0
  -22.0670   -9.0410   20.4290 C   0  0  0  0  0  3  0  0  0  0  0  0
  -22.7820  -10.2360   20.2430 C   0  0  0  0  0  3  0  0  0  0  0  0
  -21.7540   -6.9330   21.4580 O   0  0  0  0  0  0  0  0  0  0  0  0
  -21.7040   -6.2040   22.6190 C   0  0  0  0  0  0  0  0  0  0  0  0
  -21.2120   -6.7510   23.8250 C   0  0  0  0  0  3  0  0  0  0  0  0
  -21.1120   -5.9440   24.9750 C   0  0  0  0  0  3  0  0  0  0  0  0
  -21.4880   -4.5880   24.9210 C   0  0  0  0  0  0  0  0  0  0  0  0
  -21.9740   -4.0400   23.7200 C   0  0  0  0  0  3  0  0  0  0  0  0
  -22.0750   -4.8440   22.5720 C   0  0  0  0  0  0  0  0  0  0  0  0
  -22.5220   -4.3050   21.4120 F   0  0  0  0  0  0  0  0  0  0  0  0
  -21.3850   -3.8100   26.0240 F   0  0  0  0  0  0  0  0  0  0  0  0
  -22.7980  -13.5850   21.2060 C   0  0  0  0  0  0  0  0  0  0  0  0
  -22.1020  -12.8670   22.0790 N   0  0  0  0  0  0  0  0  0  0  0  0
  -22.3410  -14.6240   20.7270 O   0  0  0  0  0  0  0  0  0  0  0  0
  -22.4860  -12.0250   22.4820 H   0  0  0  0  0  0  0  0  0  0  0  0
  -21.1710  -13.1560   22.3390 H   0  0  0  0  0  0  0  0  0  0  0  0
  -25.3810  -15.2790   20.3250 N   0  0  0  0  0  0  0  0  0  0  0  0
  -24.6100  -15.9160   20.4930 H   0  0  0  0  0  0  0  0  0  0  0  0
  -26.2080  -15.7450   19.9840 H   0  0  0  0  0  0  0  0  0  0  0  0
  -29.9170  -23.1160   20.0980 C   0  0  0  0  0  2  0  0  0  0  0  0
  -29.5930  -24.7320   18.1440 C   0  0  0  0  0  1  0  0  0  0  0  0
  -29.6510  -24.6270   19.6830 C   0  0  2  0  0  0  0  0  0  0  0  0
  -32.2730  -25.0510   19.9610 C   0  0  0  0  0  1  0  0  0  0  0  0
  -30.8250  -25.4930   20.2380 C   0  0  0  0  0  2  0  0  0  0  0  0
  -28.3510  -25.3020   20.2710 C   0  0  0  0  0  2  0  0  0  0  0  0
  -28.3460  -26.7580   20.1150 O   0  0  0  0  0  0  0  0  0  0  0  0
  -24.5480  -31.9560   23.2830 C   0  0  0  0  0  0  0  0  0  0  0  0
  -27.1610  -27.4780   20.1630 C   0  0  0  0  0  0  0  0  0  0  0  0
  -23.3280  -30.5570   21.6480 C   0  0  0  0  0  3  0  0  0  0  0  0
  -24.7640  -29.0110   20.2130 C   0  0  0  0  0  0  0  0  0  0  0  0
  -25.8560  -30.9020   21.4300 C   0  0  0  0  0  2  0  0  0  0  0  0
  -25.9320  -29.5260   20.7910 C   0  0  0  0  0  0  0  0  0  0  0  0
  -27.1320  -28.7700   20.7560 C   0  0  0  0  0  3  0  0  0  0  0  0
  -25.9720  -26.9900   19.5760 C   0  0  0  0  0  3  0  0  0  0  0  0
  -24.7830  -27.7440   19.6040 C   0  0  0  0  0  3  0  0  0  0  0  0
  -23.5270  -29.8800   20.2670 C   0  0  0  0  0  2  0  0  0  0  0  0
  -24.5960  -31.1560   22.1790 N   0  0  0  0  0  0  0  0  0  0  0  0
  -23.4710  -32.2250   23.8320 O   0  0  0  0  0  0  0  0  0  0  0  0
  -22.6830  -29.5370   22.6150 C   0  0  0  0  0  0  0  0  0  0  0  0
  -21.3620  -29.3300   22.4790 N   0  0  0  0  0  0  0  0  0  0  0  0
  -23.3690  -28.9310   23.4410 O   0  0  0  0  0  0  0  0  0  0  0  0
  -20.8680  -29.8670   21.7810 H   0  0  0  0  0  0  0  0  0  0  0  0
  -18.0120  -28.0550   22.9430 C   0  0  0  0  0  0  0  0  0  0  0  0
  -20.5580  -28.3840   23.2520 C   0  0  0  0  0  3  0  0  0  0  0  0
  -20.7070  -26.9470   22.6990 C   0  0  0  0  0  2  0  0  0  0  0  0
  -19.6280  -26.5810   21.6750 C   0  0  0  0  0  2  0  0  0  0  0  0
  -18.2330  -26.7010   22.2930 C   0  0  0  0  0  2  0  0  0  0  0  0
  -19.1030  -28.8510   23.3800 C   0  0  0  0  0  0  0  0  0  0  0  0
  -18.8420  -30.1180   23.9470 C   0  0  0  0  0  3  0  0  0  0  0  0
  -17.5230  -30.5880   24.0830 C   0  0  0  0  0  3  0  0  0  0  0  0
  -16.4450  -29.7900   23.6620 C   0  0  0  0  0  3  0  0  0  0  0  0
  -16.6910  -28.5260   23.0980 C   0  0  0  0  0  3  0  0  0  0  0  0
  -25.8370  -32.5900   23.8910 C   0  0  0  0  0  3  0  0  0  0  0  0
  -25.5350  -33.9910   24.2150 N   0  0  0  0  0  0  0  0  0  0  0  0
  -25.8680  -35.0390   23.4480 C   0  0  0  0  0  0  0  0  0  0  0  0
  -26.5350  -34.9290   22.4160 O   0  0  0  0  0  0  0  0  0  0  0  0
  -24.9570  -34.1580   25.0260 H   0  0  0  0  0  0  0  0  0  0  0  0
  -24.1560  -36.8410   23.0770 C   0  0  0  0  0  1  0  0  0  0  0  0
  -25.3860  -36.4290   23.9010 C   0  0  0  0  0  3  0  0  0  0  0  0
  -27.5140  -37.3020   24.7620 C   0  0  0  0  0  1  0  0  0  0  0  0
  -26.4260  -37.4760   23.8010 N   0  0  0  0  0  0  0  0  0  0  0  0
  -26.0230  -38.3980   23.9410 H   0  0  0  0  0  0  0  0  0  0  0  0
  -26.3630  -31.8260   25.1690 C   0  0  1  0  0  0  0  0  0  0  0  0
  -25.2750  -31.5900   26.2420 C   0  0  0  0  0  1  0  0  0  0  0  0
  -26.9470  -30.4500   24.7750 C   0  0  0  0  0  1  0  0  0  0  0  0
  -27.5130  -32.6270   25.8240 C   0  0  0  0  0  1  0  0  0  0  0  0
  1  9  1  0
  2  4  1  0
  2  1  2  0
  3  1  1  0
  3 53  1  0
  5  2  1  0
  6  3  1  0
  7  9  2  0
  7 10  1  0
  8 11  1  0
  9 12  1  0
 10  8  2  0
 11 13  1  0
 12 14  1  0
 12 11  2  0
 15 23  1  0
 16 21  1  0
 17 18  1  0
 17 16  1  0
 19 18  1  0
 19 28  1  0
 19 20  1  0
 21 15  1  0
 21 20  1  0
 22 15  2  0
 23 24  1  0
 23 10  1  0
 25 26  2  0
 26 45  1  0
 27 26  1  0
 27 30  1  0
 28 29  1  0
 28 25  1  0
 29 27  2  0
 30 31  1  0
 31 32  2  0
 33 36  1  0
 33 32  1  0
 34 33  2  0
 35 34  1  0
 35 30  2  0
 36 37  1  0
 37 38  1  0
 38 39  2  0
 40 39  1  0
 40 44  1  0
 41 40  2  0
 42 37  2  0
 42 41  1  0
 43 42  1  0
 45 46  1  0
 46 49  1  0
 46 48  1  0
 47 45  2  0
 50 25  1  0
 50 51  1  0
 52 50  1  0
 55 54  1  6
 55 53  1  0
 55 57  1  0
 55 58  1  0
 56 57  1  0
 59 61  1  0
 59 58  1  0
 60 71  2  0
 61 66  1  0
 62 70  1  0
 62 72  1  0
 63 69  1  0
 63 65  1  0
 64 70  1  0
 65 64  1  0
 66 65  2  0
 67 68  1  0
 67 61  2  0
 68 63  2  0
 69 62  1  0
 70 60  1  0
 72 74  2  0
 73 72  1  0
 75 73  1  0
 76 85  2  0
 76 81  1  0
 77 73  1  0
 77 81  1  0
 78 77  1  0
 79 80  1  0
 79 78  1  0
 80 76  1  0
 81 82  2  0
 82 83  1  0
 84 83  2  0
 85 84  1  0
 86 60  1  0
 86 87  1  0
 86 96  1  0
 87 90  1  0
 88 92  1  0
 88 87  1  0
 89 88  2  0
 92 91  1  0
 94 92  1  0
 94 95  1  0
 94 93  1  0
 96 99  1  1
 96 97  1  0
 98 96  1  0
M  ISO  4  15 100  23 100  58 101  59 101
M  END
>  <TORSDO>  (64) 
F 21

>  <SCORE>  (64) 
-13.990

>  <name>  (64) 
64

>  <ligand_id>  (64) 
64

>  <original_smiles>  (64) 
[H]c1c([H])c([H])c2c(c1[H])C([H])([H])C([H])([H])C([H])([H])C2([H])N([H])C(=O)C1([H])N(C(=O)C([H])(N([H])C(=O)C([H])(N([H])C([H])([H])[H])C([H])([H])[H])C(C([H])([H])[H])(C([H])([H])[H])C([H])([H])[H])C([H])([H])c2c([H])c(OC([H])([H])C(C([H])([H])[H])(C([H])([H])[N+]([H])=C(c3c([H])c(N([H])C(=O)N4C([H])([H])C([H])([H])C([H])([H])C([H])(n5nc(-c6c([H])c([H])c(Oc7c([H])c([H])c(F)c([H])c7F)c([H])c6[H])c(C(=O)N([H])[H])c5N([H])[H])C4([H])[H])c([H])c(F)c3F)N([H])[H])C([H])([H])C([H])([H])[H])c([H])c([H])c2C1([H])[H]

>  <smiles>  (64) 
[H]c1c([H])c([H])c2c(c1[H])C([H])([H])C([H])([H])C([H])([H])C2([H])N([H])C(=O)C1([H])N(C(=O)C([H])(N([H])C(=O)C([H])(N([H])C([H])([H])[H])C([H])([H])[H])C(C([H])([H])[H])(C([H])([H])[H])C([H])([H])[H])C([H])([H])c2c([H])c(OC([H])([H])C(C([H])([H])[H])(C([H])([H])[N+]([H])=C(c3c([H])c(N([H])C(=O)N4C([H])([H])C([H])([H])C([H])([H])C([H])(n5nc(-c6c([H])c([H])c(Oc7c([H])c([H])c(F)c([H])c7F)c([H])c6[H])c(C(=O)N([H])[H])c5N([H])[H])C4([H])[H])c([H])c(F)c3F)N([H])[H])C([H])([H])C([H])([H])[H])c([H])c([H])c2C1([H])[H]

$$$$
65:0:0
     RDKit          3D

 97105  0  0  1  0  0  0  0  0999 V2000
  -29.9390  -20.4730   22.1220 C   0  0  0  0  0  3  0  0  0  0  0  0
  -28.6900  -20.1710   20.0830 C   0  0  0  0  0  3  0  0  0  0  0  0
  -30.3600  -19.1240   22.0220 C   0  0  0  0  0  0  0  0  0  0  0  0
  -29.1650  -21.0450   21.0880 C   0  0  0  0  0  0  0  0  0  0  0  0
  -29.9990  -18.4040   20.8550 C   0  0  0  0  0  0  0  0  0  0  0  0
  -29.1060  -18.8890   19.9610 N   0  0  0  0  0  0  0  0  0  0  0  0
  -28.8890  -23.2900   20.0050 C   0  0  0  0  0  0  0  0  0  0  0  0
  -28.9290  -22.4640   21.0800 N   0  0  0  0  0  0  0  0  0  0  0  0
  -28.8670  -22.9020   18.8330 O   0  0  0  0  0  0  0  0  0  0  0  0
  -28.9880  -22.9600   21.9620 H   0  0  0  0  0  0  0  0  0  0  0  0
  -28.8880  -24.8110   20.3920 C   0  0  0  0  0  0  0  0  0  0  0  0
  -28.9590  -25.1650   21.5800 O   0  0  0  0  0  0  0  0  0  0  0  0
  -28.8710  -25.8610   19.2480 C   0  0  0  0  0  2  0  0  0  0  0  0
  -28.6880  -27.2070   19.7460 O   0  0  0  0  0  0  0  0  0  0  0  0
  -24.6630  -31.9240   23.2130 C   0  0  0  0  0  0  0  0  0  0  0  0
  -27.4440  -27.8140   19.7950 C   0  0  0  0  0  0  0  0  0  0  0  0
  -23.4850  -30.5980   21.4870 C   0  0  0  0  0  3  0  0  0  0  0  0
  -24.9770  -29.2130   19.9450 C   0  0  0  0  0  0  0  0  0  0  0  0
  -25.9940  -31.0640   21.2880 C   0  0  0  0  0  2  0  0  0  0  0  0
  -26.1210  -29.7450   20.5510 C   0  0  0  0  0  0  0  0  0  0  0  0
  -27.3510  -29.0560   20.4670 C   0  0  0  0  0  3  0  0  0  0  0  0
  -26.2730  -27.2810   19.2050 C   0  0  0  0  0  3  0  0  0  0  0  0
  -25.0490  -27.9800   19.2710 C   0  0  0  0  0  3  0  0  0  0  0  0
  -23.7020  -30.0190   20.0620 C   0  0  0  0  0  2  0  0  0  0  0  0
  -24.7310  -31.2080   22.0550 N   0  0  0  0  0  0  0  0  0  0  0  0
  -23.5790  -32.1160   23.7850 O   0  0  0  0  0  0  0  0  0  0  0  0
  -22.8840  -29.4900   22.3820 C   0  0  0  0  0  0  0  0  0  0  0  0
  -21.5720  -29.2460   22.2340 N   0  0  0  0  0  0  0  0  0  0  0  0
  -23.5950  -28.8560   23.1650 O   0  0  0  0  0  0  0  0  0  0  0  0
  -21.0580  -29.8170   21.5780 H   0  0  0  0  0  0  0  0  0  0  0  0
  -18.2660  -27.8330   22.6020 C   0  0  0  0  0  0  0  0  0  0  0  0
  -20.8000  -28.2260   22.9410 C   0  0  0  0  0  3  0  0  0  0  0  0
  -20.9940  -26.8350   22.2990 C   0  0  0  0  0  2  0  0  0  0  0  0
  -19.9370  -26.5030   21.2410 C   0  0  0  0  0  2  0  0  0  0  0  0
  -18.5340  -26.5360   21.8570 C   0  0  0  0  0  2  0  0  0  0  0  0
  -19.3300  -28.6350   23.0960 C   0  0  0  0  0  0  0  0  0  0  0  0
  -19.0260  -29.8490   23.7490 C   0  0  0  0  0  3  0  0  0  0  0  0
  -17.6910  -30.2630   23.9120 C   0  0  0  0  0  3  0  0  0  0  0  0
  -16.6420  -29.4580   23.4370 C   0  0  0  0  0  3  0  0  0  0  0  0
  -16.9300  -28.2440   22.7870 C   0  0  0  0  0  3  0  0  0  0  0  0
  -25.9350  -32.5550   23.8610 C   0  0  0  0  0  3  0  0  0  0  0  0
  -25.6100  -33.9440   24.2150 N   0  0  0  0  0  0  0  0  0  0  0  0
  -25.9270  -35.0140   23.4760 C   0  0  0  0  0  0  0  0  0  0  0  0
  -26.5980  -34.9400   22.4420 O   0  0  0  0  0  0  0  0  0  0  0  0
  -25.0110  -34.0740   25.0170 H   0  0  0  0  0  0  0  0  0  0  0  0
  -24.1600  -36.7780   23.1610 C   0  0  0  0  0  1  0  0  0  0  0  0
  -25.4150  -36.3860   23.9580 C   0  0  0  0  0  3  0  0  0  0  0  0
  -27.5520  -37.2880   24.7700 C   0  0  0  0  0  1  0  0  0  0  0  0
  -26.4200  -37.4680   23.8630 N   0  0  0  0  0  0  0  0  0  0  0  0
  -25.9940  -38.3680   24.0640 H   0  0  0  0  0  0  0  0  0  0  0  0
  -26.4450  -31.7650   25.1290 C   0  0  1  0  0  0  0  0  0  0  0  0
  -25.3350  -31.4840   26.1700 C   0  0  0  0  0  1  0  0  0  0  0  0
  -27.0660  -30.4100   24.7180 C   0  0  0  0  0  1  0  0  0  0  0  0
  -27.5650  -32.5680   25.8290 C   0  0  0  0  0  1  0  0  0  0  0  0
  -31.2710  -18.5410   23.1000 C   0  0  1  0  0  0  0  0  0  0  0  0
  -30.9350  -19.0140   24.3000 F   0  0  0  0  0  0  0  0  0  0  0  0
  -31.1890  -17.2110   23.1620 F   0  0  0  0  0  0  0  0  0  0  0  0
  -32.5320  -18.8850   22.8450 F   0  0  0  0  0  0  0  0  0  0  0  0
  -30.8160  -17.2060   20.3570 C   0  0  0  0  0  2  0  0  0  0  0  0
  -30.8690  -14.8050   19.9300 C   0  0  0  0  0  0  0  0  0  0  0  0
  -30.5670  -12.5720   18.9290 C   0  0  0  0  0  2  0  0  0  0  0  0
  -29.5630  -12.6630   17.7600 C   0  0  0  0  0  2  0  0  0  0  0  0
  -28.1170  -12.5000   18.2760 C   0  0  0  0  0  2  0  0  0  0  0  0
  -27.8140  -13.4060   19.5000 C   0  0  0  0  0  3  0  0  0  0  0  0
  -28.9310  -13.3160   20.5630 C   0  0  0  0  0  2  0  0  0  0  0  0
  -30.2090  -13.6170   19.9060 N   0  0  0  0  0  0  0  0  0  0  0  0
  -31.9510  -14.9650   19.3580 O   0  0  0  0  0  0  0  0  0  0  0  0
  -30.2430  -15.8590   20.4870 N   0  0  0  0  0  0  0  0  0  0  0  0
  -29.3330  -15.7590   20.9120 H   0  0  0  0  0  0  0  0  0  0  0  0
  -25.4820  -13.9840   20.4090 C   0  0  0  0  0  0  0  0  0  0  0  0
  -24.4410  -13.2010   20.8290 C   0  0  0  0  0  0  0  0  0  0  0  0
  -24.8900  -11.8510   20.7100 C   0  0  0  0  0  0  0  0  0  0  0  0
  -26.5010  -13.1100   20.0670 N   0  0  0  0  0  0  0  0  0  0  0  0
  -26.1520  -11.8200   20.3020 N   0  0  0  0  0  0  0  0  0  0  0  0
  -24.1710  -10.5860   20.9060 C   0  0  0  0  0  0  0  0  0  0  0  0
  -24.5970   -9.6360   21.8610 C   0  0  0  0  0  3  0  0  0  0  0  0
  -23.8840   -8.4330   22.0410 C   0  0  0  0  0  3  0  0  0  0  0  0
  -22.7270   -8.1710   21.2670 C   0  0  0  0  0  0  0  0  0  0  0  0
  -22.3220   -9.1050   20.3010 C   0  0  0  0  0  3  0  0  0  0  0  0
  -23.0390  -10.3020   20.1180 C   0  0  0  0  0  3  0  0  0  0  0  0
  -21.9820   -7.0200   21.3610 O   0  0  0  0  0  0  0  0  0  0  0  0
  -21.8250   -6.3600   22.5520 C   0  0  0  0  0  0  0  0  0  0  0  0
  -21.2240   -6.9770   23.6730 C   0  0  0  0  0  3  0  0  0  0  0  0
  -21.0170   -6.2380   24.8530 C   0  0  0  0  0  3  0  0  0  0  0  0
  -21.4040   -4.8850   24.9160 C   0  0  0  0  0  0  0  0  0  0  0  0
  -21.9990   -4.2690   23.8000 C   0  0  0  0  0  3  0  0  0  0  0  0
  -22.2060   -5.0040   22.6220 C   0  0  0  0  0  0  0  0  0  0  0  0
  -22.7590   -4.4010   21.5420 F   0  0  0  0  0  0  0  0  0  0  0  0
  -21.1980   -4.1730   26.0490 F   0  0  0  0  0  0  0  0  0  0  0  0
  -23.0730  -13.6710   21.2320 C   0  0  0  0  0  0  0  0  0  0  0  0
  -22.4110  -12.9430   22.1250 N   0  0  0  0  0  0  0  0  0  0  0  0
  -22.6060  -14.7190   20.7870 O   0  0  0  0  0  0  0  0  0  0  0  0
  -22.8040  -12.0980   22.5120 H   0  0  0  0  0  0  0  0  0  0  0  0
  -21.4970  -13.2400   22.4380 H   0  0  0  0  0  0  0  0  0  0  0  0
  -25.6420  -15.3590   20.2690 N   0  0  0  0  0  0  0  0  0  0  0  0
  -24.8850  -16.0120   20.4370 H   0  0  0  0  0  0  0  0  0  0  0  0
  -26.4800  -15.8090   19.9200 H   0  0  0  0  0  0  0  0  0  0  0  0
  2  4  1  0
  3  1  1  0
  3 55  1  0
  4  1  2  0
  5  3  2  0
  6  2  2  0
  6  5  1  0
  7 11  1  0
  7  8  1  0
  8  4  1  0
  8 10  1  0
  9  7  2  0
 11 12  2  0
 13 14  1  0
 13 11  1  0
 14 16  1  0
 15 26  2  0
 16 21  1  0
 17 25  1  0
 17 27  1  0
 18 24  1  0
 18 20  1  0
 19 25  1  0
 20 19  1  0
 21 20  2  0
 22 23  1  0
 22 16  2  0
 23 18  2  0
 24 17  1  0
 25 15  1  0
 27 29  2  0
 28 27  1  0
 30 28  1  0
 31 40  2  0
 31 36  1  0
 32 28  1  0
 32 36  1  0
 33 32  1  0
 34 35  1  0
 34 33  1  0
 35 31  1  0
 36 37  2  0
 37 38  1  0
 39 38  2  0
 40 39  1  0
 41 15  1  0
 41 42  1  0
 41 51  1  0
 42 45  1  0
 43 47  1  0
 43 42  1  0
 44 43  2  0
 47 46  1  0
 49 47  1  0
 49 50  1  0
 49 48  1  0
 51 54  1  1
 51 52  1  0
 53 51  1  0
 55 57  1  1
 55 56  1  0
 58 55  1  0
 59 68  1  0
 59  5  1  0
 60 68  1  0
 61 66  1  0
 62 63  1  0
 62 61  1  0
 64 63  1  0
 64 73  1  0
 64 65  1  0
 66 60  1  0
 66 65  1  0
 67 60  2  0
 68 69  1  0
 70 71  2  0
 71 90  1  0
 72 71  1  0
 72 75  1  0
 73 74  1  0
 73 70  1  0
 74 72  2  0
 75 76  1  0
 76 77  2  0
 78 81  1  0
 78 77  1  0
 79 78  2  0
 80 79  1  0
 80 75  2  0
 81 82  1  0
 82 87  2  0
 82 83  1  0
 83 84  2  0
 84 85  1  0
 85 89  1  0
 86 85  2  0
 87 86  1  0
 88 87  1  0
 90 91  1  0
 91 94  1  0
 91 93  1  0
 92 90  2  0
 95 70  1  0
 95 96  1  0
 97 95  1  0
M  ISO  4  13 101  14 101  60 100  68 100
M  END
>  <TORSDO>  (65) 
F 21

>  <SCORE>  (65) 
-12.137

>  <name>  (65) 
65

>  <ligand_id>  (65) 
65

>  <original_smiles>  (65) 
[H]c1nc(C([H])([H])N([H])C(=O)N2C([H])([H])C([H])([H])C([H])([H])C([H])(n3nc(-c4c([H])c([H])c(Oc5c([H])c([H])c(F)c([H])c5F)c([H])c4[H])c(C(=O)N([H])[H])c3N([H])[H])C2([H])[H])c(C(F)(F)F)c([H])c1N([H])C(=O)C(=O)C([H])([H])Oc1c([H])c([H])c2c(c1[H])C([H])([H])N(C(=O)C([H])(N([H])C(=O)C([H])(N([H])C([H])([H])[H])C([H])([H])[H])C(C([H])([H])[H])(C([H])([H])[H])C([H])([H])[H])C([H])(C(=O)N([H])C1([H])c3c([H])c([H])c([H])c([H])c3C([H])([H])C([H])([H])C1([H])[H])C2([H])[H]

>  <smiles>  (65) 
[H]c1nc(C([H])([H])N([H])C(=O)N2C([H])([H])C([H])([H])C([H])([H])C([H])(n3nc(-c4c([H])c([H])c(Oc5c([H])c([H])c(F)c([H])c5F)c([H])c4[H])c(C(=O)N([H])[H])c3N([H])[H])C2([H])[H])c(C(F)(F)F)c([H])c1N([H])C(=O)C(=O)C([H])([H])Oc1c([H])c([H])c2c(c1[H])C([H])([H])N(C(=O)C([H])(N([H])C(=O)C([H])(N([H])C([H])([H])[H])C([H])([H])[H])C(C([H])([H])[H])(C([H])([H])[H])C([H])([H])[H])C([H])(C(=O)N([H])C1([H])c3c([H])c([H])c([H])c([H])c3C([H])([H])C([H])([H])C1([H])[H])C2([H])[H]

$$$$
66:0:0
     RDKit          3D

 95103  0  0  1  0  0  0  0  0999 V2000
  -29.0360  -20.3240   19.9910 N   0  0  0  0  0  0  0  0  0  0  0  0
  -28.1740  -20.1350   19.4860 H   0  0  0  0  0  0  0  0  0  0  0  0
  -31.2810  -17.6270   20.9340 C   0  0  0  0  0  3  0  0  0  0  0  0
  -31.0860  -19.0380   20.7370 C   0  0  0  0  0  0  0  0  0  0  0  0
  -30.0870  -16.9990   20.6980 C   0  0  0  0  0  0  0  0  0  0  0  0
  -29.7500  -19.1710   20.4190 C   0  0  0  0  0  0  0  0  0  0  0  0
  -29.1250  -17.9380   20.3920 O   0  0  0  0  0  0  0  0  0  0  0  0
  -30.6100  -14.5800   20.4520 C   0  0  0  0  0  0  0  0  0  0  0  0
  -30.3610  -12.3750   19.3540 C   0  0  0  0  0  2  0  0  0  0  0  0
  -29.4160  -12.5400   18.1450 C   0  0  0  0  0  2  0  0  0  0  0  0
  -27.9440  -12.3850   18.5770 C   0  0  0  0  0  2  0  0  0  0  0  0
  -27.5950  -13.2360   19.8270 C   0  0  0  0  0  3  0  0  0  0  0  0
  -28.6550  -13.0540   20.9390 C   0  0  0  0  0  2  0  0  0  0  0  0
  -29.9680  -13.3790   20.3620 N   0  0  0  0  0  0  0  0  0  0  0  0
  -31.7760  -14.7200   20.0690 O   0  0  0  0  0  0  0  0  0  0  0  0
  -29.8260  -15.6460   20.7850 N   0  0  0  0  0  0  0  0  0  0  0  0
  -28.8690  -15.4040   20.9850 H   0  0  0  0  0  0  0  0  0  0  0  0
  -25.2030  -13.8420   20.5460 C   0  0  0  0  0  0  0  0  0  0  0  0
  -24.1350  -13.0690   20.9150 C   0  0  0  0  0  0  0  0  0  0  0  0
  -24.5960  -11.7170   20.8830 C   0  0  0  0  0  0  0  0  0  0  0  0
  -26.2450  -12.9590   20.3110 N   0  0  0  0  0  0  0  0  0  0  0  0
  -25.8860  -11.6780   20.5740 N   0  0  0  0  0  0  0  0  0  0  0  0
  -23.8710  -10.4550   21.0700 C   0  0  0  0  0  0  0  0  0  0  0  0
  -24.3140   -9.4790   21.9880 C   0  0  0  0  0  3  0  0  0  0  0  0
  -23.5870   -8.2810   22.1640 C   0  0  0  0  0  3  0  0  0  0  0  0
  -22.4060   -8.0520   21.4210 C   0  0  0  0  0  0  0  0  0  0  0  0
  -21.9830   -9.0180   20.4900 C   0  0  0  0  0  3  0  0  0  0  0  0
  -22.7100  -10.2070   20.3130 C   0  0  0  0  0  3  0  0  0  0  0  0
  -21.6500   -6.9080   21.5070 O   0  0  0  0  0  0  0  0  0  0  0  0
  -21.6240   -6.1450   22.6480 C   0  0  0  0  0  0  0  0  0  0  0  0
  -21.2330   -6.6820   23.8940 C   0  0  0  0  0  3  0  0  0  0  0  0
  -21.1540   -5.8490   25.0260 C   0  0  0  0  0  3  0  0  0  0  0  0
  -21.4550   -4.4780   24.9140 C   0  0  0  0  0  0  0  0  0  0  0  0
  -21.8380   -3.9410   23.6740 C   0  0  0  0  0  3  0  0  0  0  0  0
  -21.9200   -4.7730   22.5430 C   0  0  0  0  0  0  0  0  0  0  0  0
  -22.2690   -4.2440   21.3450 F   0  0  0  0  0  0  0  0  0  0  0  0
  -21.3730   -3.6740   26.0010 F   0  0  0  0  0  0  0  0  0  0  0  0
  -22.7380  -13.5470   21.1880 C   0  0  0  0  0  0  0  0  0  0  0  0
  -22.0090  -12.8480   22.0520 N   0  0  0  0  0  0  0  0  0  0  0  0
  -22.3010  -14.5740   20.6690 O   0  0  0  0  0  0  0  0  0  0  0  0
  -22.3740  -12.0180   22.4950 H   0  0  0  0  0  0  0  0  0  0  0  0
  -21.0710  -13.1510   22.2760 H   0  0  0  0  0  0  0  0  0  0  0  0
  -25.3650  -15.2130   20.3690 N   0  0  0  0  0  0  0  0  0  0  0  0
  -24.5930  -15.8620   20.4770 H   0  0  0  0  0  0  0  0  0  0  0  0
  -26.2030  -15.6550   20.0120 H   0  0  0  0  0  0  0  0  0  0  0  0
  -32.1850  -20.0780   20.8250 C   0  0  1  0  0  0  0  0  0  0  0  0
  -33.3520  -19.4840   21.0820 F   0  0  0  0  0  0  0  0  0  0  0  0
  -32.3070  -20.7350   19.6710 F   0  0  0  0  0  0  0  0  0  0  0  0
  -31.9460  -20.9440   21.8070 F   0  0  0  0  0  0  0  0  0  0  0  0
  -28.9910  -21.6150   20.7320 C   0  0  0  0  0  2  0  0  0  0  0  0
  -29.1480  -22.9140   19.8730 C   0  0  0  0  0  0  0  0  0  0  0  0
  -30.1000  -23.0080   19.0940 O   0  0  0  0  0  0  0  0  0  0  0  0
  -28.0960  -24.0670   19.9360 C   0  0  0  0  0  2  0  0  0  0  0  0
  -28.4460  -25.3420   20.7860 C   0  0  0  0  0  2  0  0  0  0  0  0
  -28.4080  -26.6470   20.1390 O   0  0  0  0  0  0  0  0  0  0  0  0
  -24.5940  -31.8900   23.2310 C   0  0  0  0  0  0  0  0  0  0  0  0
  -27.2350  -27.3900   20.1890 C   0  0  0  0  0  0  0  0  0  0  0  0
  -23.3900  -30.4820   21.5940 C   0  0  0  0  0  3  0  0  0  0  0  0
  -24.8440  -28.9250   20.1840 C   0  0  0  0  0  0  0  0  0  0  0  0
  -25.9180  -30.8290   21.3970 C   0  0  0  0  0  2  0  0  0  0  0  0
  -26.0040  -29.4470   20.7680 C   0  0  0  0  0  0  0  0  0  0  0  0
  -27.2040  -28.6900   20.7580 C   0  0  0  0  0  3  0  0  0  0  0  0
  -26.0550  -26.8880   19.6040 C   0  0  0  0  0  3  0  0  0  0  0  0
  -24.8660  -27.6470   19.5960 C   0  0  0  0  0  3  0  0  0  0  0  0
  -23.6020  -29.7910   20.2190 C   0  0  0  0  0  2  0  0  0  0  0  0
  -24.6530  -31.0840   22.1320 N   0  0  0  0  0  0  0  0  0  0  0  0
  -23.5140  -32.1630   23.7720 O   0  0  0  0  0  0  0  0  0  0  0  0
  -22.7310  -29.4710   22.5590 C   0  0  0  0  0  0  0  0  0  0  0  0
  -21.4060  -29.2930   22.4330 N   0  0  0  0  0  0  0  0  0  0  0  0
  -23.4110  -28.8470   23.3780 O   0  0  0  0  0  0  0  0  0  0  0  0
  -20.9170  -29.8460   21.7420 H   0  0  0  0  0  0  0  0  0  0  0  0
  -18.0290  -28.1020   22.9310 C   0  0  0  0  0  0  0  0  0  0  0  0
  -20.5870  -28.3590   23.2070 C   0  0  0  0  0  3  0  0  0  0  0  0
  -20.6880  -26.9250   22.6370 C   0  0  0  0  0  2  0  0  0  0  0  0
  -19.5870  -26.6000   21.6220 C   0  0  0  0  0  2  0  0  0  0  0  0
  -18.2040  -26.7510   22.2630 C   0  0  0  0  0  2  0  0  0  0  0  0
  -19.1480  -28.8640   23.3620 C   0  0  0  0  0  0  0  0  0  0  0  0
  -18.9290  -30.1310   23.9490 C   0  0  0  0  0  3  0  0  0  0  0  0
  -17.6250  -30.6330   24.1100 C   0  0  0  0  0  3  0  0  0  0  0  0
  -16.5200  -29.8690   23.6960 C   0  0  0  0  0  3  0  0  0  0  0  0
  -16.7240  -28.6060   23.1130 C   0  0  0  0  0  3  0  0  0  0  0  0
  -25.8790  -32.5220   23.8510 C   0  0  0  0  0  3  0  0  0  0  0  0
  -25.5720  -33.9200   24.1830 N   0  0  0  0  0  0  0  0  0  0  0  0
  -25.9060  -34.9720   23.4230 C   0  0  0  0  0  0  0  0  0  0  0  0
  -26.5770  -34.8690   22.3930 O   0  0  0  0  0  0  0  0  0  0  0  0
  -24.9780  -34.0740   24.9840 H   0  0  0  0  0  0  0  0  0  0  0  0
  -24.1820  -36.7670   23.0630 C   0  0  0  0  0  1  0  0  0  0  0  0
  -25.4190  -36.3620   23.8800 C   0  0  0  0  0  3  0  0  0  0  0  0
  -27.5530  -37.2410   24.7160 C   0  0  0  0  0  1  0  0  0  0  0  0
  -26.4530  -37.4130   23.7710 N   0  0  0  0  0  0  0  0  0  0  0  0
  -26.0500  -38.3340   23.9210 H   0  0  0  0  0  0  0  0  0  0  0  0
  -26.4000  -31.7480   25.1250 C   0  0  1  0  0  0  0  0  0  0  0  0
  -25.3110  -31.5110   26.1960 C   0  0  0  0  0  1  0  0  0  0  0  0
  -26.9790  -30.3710   24.7280 C   0  0  0  0  0  1  0  0  0  0  0  0
  -27.5570  -32.5400   25.7810 C   0  0  0  0  0  1  0  0  0  0  0  0
  1  6  1  0
  1 50  1  0
  2  1  1  0
  4 46  1  0
  4  3  1  0
  5 16  1  0
  5  3  2  0
  6  4  2  0
  7  6  1  0
  7  5  1  0
  8 16  1  0
  9 14  1  0
 10 11  1  0
 10  9  1  0
 12 11  1  0
 12 21  1  0
 12 13  1  0
 14  8  1  0
 14 13  1  0
 15  8  2  0
 16 17  1  0
 18 19  2  0
 19 38  1  0
 20 19  1  0
 20 23  1  0
 21 18  1  0
 21 22  1  0
 22 20  2  0
 23 24  1  0
 24 25  2  0
 26 29  1  0
 26 25  1  0
 27 26  2  0
 28 27  1  0
 28 23  2  0
 29 30  1  0
 30 31  1  0
 31 32  2  0
 33 32  1  0
 33 37  1  0
 34 33  2  0
 35 30  2  0
 35 34  1  0
 36 35  1  0
 38 39  1  0
 39 42  1  0
 39 41  1  0
 40 38  2  0
 43 44  1  0
 43 18  1  0
 45 43  1  0
 46 47  1  1
 46 49  1  0
 48 46  1  0
 51 53  1  0
 51 50  1  0
 52 51  2  0
 53 54  1  0
 55 57  1  0
 55 54  1  0
 56 67  2  0
 57 62  1  0
 58 66  1  0
 58 68  1  0
 59 65  1  0
 59 61  1  0
 60 66  1  0
 61 60  1  0
 62 61  2  0
 63 57  2  0
 64 63  1  0
 64 59  2  0
 65 58  1  0
 66 56  1  0
 68 70  2  0
 69 68  1  0
 71 69  1  0
 72 81  2  0
 72 77  1  0
 73 69  1  0
 73 77  1  0
 74 73  1  0
 75 76  1  0
 75 74  1  0
 76 72  1  0
 77 78  2  0
 78 79  1  0
 80 79  2  0
 81 80  1  0
 82 56  1  0
 82 83  1  0
 82 92  1  0
 83 86  1  0
 84 88  1  0
 84 83  1  0
 85 84  2  0
 88 87  1  0
 90 88  1  0
 90 91  1  0
 90 89  1  0
 92 95  1  1
 92 93  1  0
 94 92  1  0
M  ISO  4   8 100  16 100  54 101  55 101
M  END
>  <TORSDO>  (66) 
F 22

>  <SCORE>  (66) 
-13.558

>  <name>  (66) 
66

>  <ligand_id>  (66) 
66

>  <original_smiles>  (66) 
[H]c1c([H])c([H])c2c(c1[H])C([H])([H])C([H])([H])C([H])([H])C2([H])N([H])C(=O)C1([H])N(C(=O)C([H])(N([H])C(=O)C([H])(N([H])C([H])([H])[H])C([H])([H])[H])C(C([H])([H])[H])(C([H])([H])[H])C([H])([H])[H])C([H])([H])c2c([H])c(OC([H])([H])C([H])([H])C(=O)C([H])([H])N([H])c3oc(N([H])C(=O)N4C([H])([H])C([H])([H])C([H])([H])C([H])(n5nc(-c6c([H])c([H])c(Oc7c([H])c([H])c(F)c([H])c7F)c([H])c6[H])c(C(=O)N([H])[H])c5N([H])[H])C4([H])[H])c([H])c3C(F)(F)F)c([H])c([H])c2C1([H])[H]

>  <smiles>  (66) 
[H]c1c([H])c([H])c2c(c1[H])C([H])([H])C([H])([H])C([H])([H])C2([H])N([H])C(=O)C1([H])N(C(=O)C([H])(N([H])C(=O)C([H])(N([H])C([H])([H])[H])C([H])([H])[H])C(C([H])([H])[H])(C([H])([H])[H])C([H])([H])[H])C([H])([H])c2c([H])c(OC([H])([H])C([H])([H])C(=O)C([H])([H])N([H])c3oc(N([H])C(=O)N4C([H])([H])C([H])([H])C([H])([H])C([H])(n5nc(-c6c([H])c([H])c(Oc7c([H])c([H])c(F)c([H])c7F)c([H])c6[H])c(C(=O)N([H])[H])c5N([H])[H])C4([H])[H])c([H])c3C(F)(F)F)c([H])c([H])c2C1([H])[H]

$$$$
67:0:0
     RDKit          3D

 95103  0  0  1  0  0  0  0  0999 V2000
  -28.8720  -20.4150   20.5480 N   0  0  0  0  0  0  0  0  0  0  0  0
  -27.9860  -20.1480   20.1310 H   0  0  0  0  0  0  0  0  0  0  0  0
  -29.4650  -18.0410   20.6310 C   0  0  0  0  0  3  0  0  0  0  0  0
  -31.7290  -17.2980   21.1290 C   0  0  0  0  0  3  0  0  0  0  0  0
  -30.3960  -16.9770   20.7860 C   0  0  0  0  0  0  0  0  0  0  0  0
  -29.8480  -19.4070   20.7640 C   0  0  0  0  0  0  0  0  0  0  0  0
  -32.1300  -18.6400   21.2570 C   0  0  0  0  0  0  0  0  0  0  0  0
  -31.2080  -19.6880   21.0620 C   0  0  0  0  0  0  0  0  0  0  0  0
  -33.4210  -18.9230   21.5560 F   0  0  0  0  0  0  0  0  0  0  0  0
  -31.6690  -20.9590   21.1370 F   0  0  0  0  0  0  0  0  0  0  0  0
  -30.6840  -14.5790   20.1170 C   0  0  0  0  0  0  0  0  0  0  0  0
  -30.3500  -12.4140   18.9740 C   0  0  0  0  0  2  0  0  0  0  0  0
  -29.3560  -12.6180   17.8130 C   0  0  0  0  0  2  0  0  0  0  0  0
  -27.9010  -12.4720   18.3060 C   0  0  0  0  0  2  0  0  0  0  0  0
  -27.6160  -13.2940   19.5920 C   0  0  0  0  0  3  0  0  0  0  0  0
  -28.7240  -13.0820   20.6490 C   0  0  0  0  0  2  0  0  0  0  0  0
  -30.0130  -13.3980   20.0160 N   0  0  0  0  0  0  0  0  0  0  0  0
  -31.7980  -14.7480   19.6130 O   0  0  0  0  0  0  0  0  0  0  0  0
  -29.9770  -15.6100   20.6380 N   0  0  0  0  0  0  0  0  0  0  0  0
  -29.0130  -15.4020   20.8520 H   0  0  0  0  0  0  0  0  0  0  0  0
  -25.2500  -13.8760   20.4220 C   0  0  0  0  0  0  0  0  0  0  0  0
  -24.2060  -13.0930   20.8320 C   0  0  0  0  0  0  0  0  0  0  0  0
  -24.6720  -11.7450   20.7610 C   0  0  0  0  0  0  0  0  0  0  0  0
  -26.2890  -13.0040   20.1310 N   0  0  0  0  0  0  0  0  0  0  0  0
  -25.9460  -11.7160   20.3910 N   0  0  0  0  0  0  0  0  0  0  0  0
  -23.9600  -10.4770   20.9670 C   0  0  0  0  0  0  0  0  0  0  0  0
  -24.4120   -9.5210   21.9050 C   0  0  0  0  0  3  0  0  0  0  0  0
  -23.7020   -8.3170   22.0990 C   0  0  0  0  0  3  0  0  0  0  0  0
  -22.5240   -8.0600   21.3570 C   0  0  0  0  0  0  0  0  0  0  0  0
  -22.0910   -9.0050   20.4100 C   0  0  0  0  0  3  0  0  0  0  0  0
  -22.8010  -10.2000   20.2140 C   0  0  0  0  0  3  0  0  0  0  0  0
  -21.7820   -6.9070   21.4610 O   0  0  0  0  0  0  0  0  0  0  0  0
  -21.7190   -6.1970   22.6320 C   0  0  0  0  0  0  0  0  0  0  0  0
  -21.2370   -6.7730   23.8280 C   0  0  0  0  0  3  0  0  0  0  0  0
  -21.1230   -5.9860   24.9910 C   0  0  0  0  0  3  0  0  0  0  0  0
  -21.4790   -4.6250   24.9590 C   0  0  0  0  0  0  0  0  0  0  0  0
  -21.9520   -4.0480   23.7680 C   0  0  0  0  0  3  0  0  0  0  0  0
  -22.0680   -4.8310   22.6070 C   0  0  0  0  0  0  0  0  0  0  0  0
  -22.5060   -4.2660   21.4560 F   0  0  0  0  0  0  0  0  0  0  0  0
  -21.3610   -3.8660   26.0740 F   0  0  0  0  0  0  0  0  0  0  0  0
  -22.8210  -13.5600   21.1770 C   0  0  0  0  0  0  0  0  0  0  0  0
  -22.1330  -12.8470   22.0610 N   0  0  0  0  0  0  0  0  0  0  0  0
  -22.3570  -14.5930   20.6960 O   0  0  0  0  0  0  0  0  0  0  0  0
  -22.5170  -12.0110   22.4750 H   0  0  0  0  0  0  0  0  0  0  0  0
  -21.2060  -13.1430   22.3320 H   0  0  0  0  0  0  0  0  0  0  0  0
  -25.3980  -15.2510   20.2510 N   0  0  0  0  0  0  0  0  0  0  0  0
  -24.6290  -15.8940   20.3990 H   0  0  0  0  0  0  0  0  0  0  0  0
  -26.2150  -15.6970   19.8530 H   0  0  0  0  0  0  0  0  0  0  0  0
  -28.8970  -21.7840   21.1210 C   0  0  0  0  0  2  0  0  0  0  0  0
  -28.5690  -22.9100   20.1070 C   0  0  0  0  0  0  0  0  0  0  0  0
  -28.3650  -22.6410   18.9160 O   0  0  0  0  0  0  0  0  0  0  0  0
  -28.4660  -24.3830   20.6220 C   0  0  0  0  0  0  0  0  0  0  0  0
  -28.3520  -24.6300   21.8300 O   0  0  0  0  0  0  0  0  0  0  0  0
  -28.5050  -25.5170   19.5740 C   0  0  0  0  0  2  0  0  0  0  0  0
  -28.4000  -26.8270   20.1750 O   0  0  0  0  0  0  0  0  0  0  0  0
  -24.5910  -31.9720   23.3000 C   0  0  0  0  0  0  0  0  0  0  0  0
  -27.1990  -27.5130   20.1860 C   0  0  0  0  0  0  0  0  0  0  0  0
  -23.3670  -30.5730   21.6710 C   0  0  0  0  0  3  0  0  0  0  0  0
  -24.8020  -29.0320   20.2330 C   0  0  0  0  0  0  0  0  0  0  0  0
  -25.8910  -30.9230   21.4480 C   0  0  0  0  0  2  0  0  0  0  0  0
  -25.9670  -29.5490   20.8110 C   0  0  0  0  0  0  0  0  0  0  0  0
  -27.1640  -28.7950   20.7870 C   0  0  0  0  0  3  0  0  0  0  0  0
  -26.0050  -27.0090   19.6170 C   0  0  0  0  0  3  0  0  0  0  0  0
  -24.8170  -27.7610   19.6380 C   0  0  0  0  0  3  0  0  0  0  0  0
  -23.5640  -29.8990   20.2880 C   0  0  0  0  0  2  0  0  0  0  0  0
  -24.6360  -31.1710   22.1990 N   0  0  0  0  0  0  0  0  0  0  0  0
  -23.5150  -32.2460   23.8510 O   0  0  0  0  0  0  0  0  0  0  0  0
  -22.7250  -29.5490   22.6360 C   0  0  0  0  0  0  0  0  0  0  0  0
  -21.4040  -29.3480   22.5010 N   0  0  0  0  0  0  0  0  0  0  0  0
  -23.4130  -28.9390   23.4600 O   0  0  0  0  0  0  0  0  0  0  0  0
  -20.9090  -29.8970   21.8130 H   0  0  0  0  0  0  0  0  0  0  0  0
  -18.0450  -28.1050   22.9680 C   0  0  0  0  0  0  0  0  0  0  0  0
  -20.5940  -28.4070   23.2740 C   0  0  0  0  0  3  0  0  0  0  0  0
  -20.7280  -26.9710   22.7170 C   0  0  0  0  0  2  0  0  0  0  0  0
  -19.6460  -26.6160   21.6920 C   0  0  0  0  0  2  0  0  0  0  0  0
  -18.2530  -26.7480   22.3150 C   0  0  0  0  0  2  0  0  0  0  0  0
  -19.1450  -28.8900   23.4040 C   0  0  0  0  0  0  0  0  0  0  0  0
  -18.8980  -30.1590   23.9720 C   0  0  0  0  0  3  0  0  0  0  0  0
  -17.5830  -30.6420   24.1110 C   0  0  0  0  0  3  0  0  0  0  0  0
  -16.4980  -29.8530   23.6930 C   0  0  0  0  0  3  0  0  0  0  0  0
  -16.7290  -28.5870   23.1270 C   0  0  0  0  0  3  0  0  0  0  0  0
  -25.8840  -32.6010   23.9090 C   0  0  0  0  0  3  0  0  0  0  0  0
  -25.5830  -34.0020   24.2300 N   0  0  0  0  0  0  0  0  0  0  0  0
  -25.9150  -35.0480   23.4600 C   0  0  0  0  0  0  0  0  0  0  0  0
  -26.5780  -34.9340   22.4250 O   0  0  0  0  0  0  0  0  0  0  0  0
  -24.9940  -34.1650   25.0310 H   0  0  0  0  0  0  0  0  0  0  0  0
  -24.1900  -36.8440   23.1050 C   0  0  0  0  0  1  0  0  0  0  0  0
  -25.4350  -36.4400   23.9090 C   0  0  0  0  0  3  0  0  0  0  0  0
  -27.5770  -37.3270   24.7200 C   0  0  0  0  0  1  0  0  0  0  0  0
  -26.4690  -37.4900   23.7820 N   0  0  0  0  0  0  0  0  0  0  0  0
  -26.0660  -38.4120   23.9270 H   0  0  0  0  0  0  0  0  0  0  0  0
  -26.4080  -31.8350   25.1840 C   0  0  1  0  0  0  0  0  0  0  0  0
  -25.3190  -31.5910   26.2560 C   0  0  0  0  0  1  0  0  0  0  0  0
  -26.9990  -30.4620   24.7890 C   0  0  0  0  0  1  0  0  0  0  0  0
  -27.5530  -32.6370   25.8480 C   0  0  0  0  0  1  0  0  0  0  0  0
  1  6  1  0
  1 49  1  0
  2  1  1  0
  3  6  2  0
  3  5  1  0
  4  7  1  0
  5  4  2  0
  6  8  1  0
  7  9  1  0
  8 10  1  0
  8  7  2  0
 11 19  1  0
 12 17  1  0
 13 14  1  0
 13 12  1  0
 15 14  1  0
 15 24  1  0
 15 16  1  0
 17 11  1  0
 17 16  1  0
 18 11  2  0
 19  5  1  0
 19 20  1  0
 21 22  2  0
 22 41  1  0
 23 22  1  0
 23 26  1  0
 24 25  1  0
 24 21  1  0
 25 23  2  0
 26 27  1  0
 27 28  2  0
 29 32  1  0
 29 28  1  0
 30 29  2  0
 31 30  1  0
 31 26  2  0
 32 33  1  0
 33 34  1  0
 34 35  2  0
 36 35  1  0
 36 40  1  0
 37 36  2  0
 38 33  2  0
 38 37  1  0
 39 38  1  0
 41 42  1  0
 42 45  1  0
 42 44  1  0
 43 41  2  0
 46 47  1  0
 46 21  1  0
 48 46  1  0
 50 52  1  0
 50 49  1  0
 51 50  2  0
 52 53  2  0
 54 55  1  0
 54 52  1  0
 55 57  1  0
 56 67  2  0
 57 62  1  0
 58 66  1  0
 58 68  1  0
 59 65  1  0
 59 61  1  0
 60 66  1  0
 61 60  1  0
 62 61  2  0
 63 64  1  0
 63 57  2  0
 64 59  2  0
 65 58  1  0
 66 56  1  0
 68 70  2  0
 69 68  1  0
 71 69  1  0
 72 81  2  0
 72 77  1  0
 73 69  1  0
 73 77  1  0
 74 73  1  0
 75 76  1  0
 75 74  1  0
 76 72  1  0
 77 78  2  0
 78 79  1  0
 80 79  2  0
 81 80  1  0
 82 56  1  0
 82 83  1  0
 82 92  1  0
 83 86  1  0
 84 88  1  0
 84 83  1  0
 85 84  2  0
 88 87  1  0
 90 88  1  0
 90 91  1  0
 90 89  1  0
 92 95  1  1
 92 93  1  0
 94 92  1  0
M  ISO  4  11 100  19 100  54 101  55 101
M  END
>  <TORSDO>  (67) 
F 21

>  <SCORE>  (67) 
-13.805

>  <name>  (67) 
67

>  <ligand_id>  (67) 
67

>  <original_smiles>  (67) 
[H]c1c([H])c([H])c2c(c1[H])C([H])([H])C([H])([H])C([H])([H])C2([H])N([H])C(=O)C1([H])N(C(=O)C([H])(N([H])C(=O)C([H])(N([H])C([H])([H])[H])C([H])([H])[H])C(C([H])([H])[H])(C([H])([H])[H])C([H])([H])[H])C([H])([H])c2c([H])c(OC([H])([H])C(=O)C(=O)C([H])([H])N([H])c3c([H])c(N([H])C(=O)N4C([H])([H])C([H])([H])C([H])([H])C([H])(n5nc(-c6c([H])c([H])c(Oc7c([H])c([H])c(F)c([H])c7F)c([H])c6[H])c(C(=O)N([H])[H])c5N([H])[H])C4([H])[H])c([H])c(F)c3F)c([H])c([H])c2C1([H])[H]

>  <smiles>  (67) 
[H]c1c([H])c([H])c2c(c1[H])C([H])([H])C([H])([H])C([H])([H])C2([H])N([H])C(=O)C1([H])N(C(=O)C([H])(N([H])C(=O)C([H])(N([H])C([H])([H])[H])C([H])([H])[H])C(C([H])([H])[H])(C([H])([H])[H])C([H])([H])[H])C([H])([H])c2c([H])c(OC([H])([H])C(=O)C(=O)C([H])([H])N([H])c3c([H])c(N([H])C(=O)N4C([H])([H])C([H])([H])C([H])([H])C([H])(n5nc(-c6c([H])c([H])c(Oc7c([H])c([H])c(F)c([H])c7F)c([H])c6[H])c(C(=O)N([H])[H])c5N([H])[H])C4([H])[H])c([H])c(F)c3F)c([H])c([H])c2C1([H])[H]

$$$$
68:0:0
     RDKit          3D

100108  0  0  1  0  0  0  0  0999 V2000
  -32.4880  -19.5340   16.4690 C   0  0  0  0  0  3  0  0  0  0  0  0
  -32.3410  -18.2230   16.9370 C   0  0  0  0  0  3  0  0  0  0  0  0
  -31.4700  -20.4640   16.6980 C   0  0  0  0  0  3  0  0  0  0  0  0
  -31.1700  -17.7990   17.6060 C   0  0  0  0  0  0  0  0  0  0  0  0
  -30.0960  -18.7210   17.7630 C   0  0  0  0  0  0  0  0  0  0  0  0
  -30.2740  -20.0730   17.3480 C   0  0  0  0  0  0  0  0  0  0  0  0
  -29.2100  -22.3210   17.3420 C   0  0  0  0  0  0  0  0  0  0  0  0
  -29.2950  -21.0390   17.7100 N   0  0  0  0  0  0  0  0  0  0  0  0
  -29.6160  -22.7640   16.2620 O   0  0  0  0  0  0  0  0  0  0  0  0
  -28.7190  -20.7620   18.4970 H   0  0  0  0  0  0  0  0  0  0  0  0
  -28.5750  -23.1010   18.3840 C   0  0  0  0  0  3  0  0  0  0  0  0
  -28.7190  -24.4350   18.4900 C   0  0  0  0  0  0  0  0  0  0  0  0
  -29.4050  -25.2090   17.6290 O   0  0  0  0  0  0  0  0  0  0  0  0
  -29.7250  -24.6440   16.9300 H   0  0  0  0  0  0  0  0  0  0  0  0
  -28.1390  -25.2420   19.6360 C   0  0  0  0  0  2  0  0  0  0  0  0
  -28.2200  -26.6450   19.4180 O   0  0  0  0  0  0  0  0  0  0  0  0
  -24.6090  -31.5680   22.9720 C   0  0  0  0  0  0  0  0  0  0  0  0
  -27.0390  -27.3330   19.5020 C   0  0  0  0  0  0  0  0  0  0  0  0
  -23.3010  -30.2840   21.3080 C   0  0  0  0  0  3  0  0  0  0  0  0
  -24.6600  -28.8230   19.7230 C   0  0  0  0  0  0  0  0  0  0  0  0
  -25.8140  -30.6390   21.0020 C   0  0  0  0  0  2  0  0  0  0  0  0
  -25.8490  -29.3130   20.2780 C   0  0  0  0  0  0  0  0  0  0  0  0
  -27.0420  -28.5760   20.1610 C   0  0  0  0  0  3  0  0  0  0  0  0
  -25.8370  -26.8420   18.9450 C   0  0  0  0  0  3  0  0  0  0  0  0
  -24.6460  -27.5840   19.0560 C   0  0  0  0  0  3  0  0  0  0  0  0
  -23.4300  -29.6860   19.8810 C   0  0  0  0  0  2  0  0  0  0  0  0
  -24.5960  -30.8410   21.8190 N   0  0  0  0  0  0  0  0  0  0  0  0
  -23.5600  -31.8170   23.5820 O   0  0  0  0  0  0  0  0  0  0  0  0
  -22.6870  -29.2120   22.2350 C   0  0  0  0  0  0  0  0  0  0  0  0
  -21.3550  -29.0520   22.1580 N   0  0  0  0  0  0  0  0  0  0  0  0
  -23.4000  -28.5290   22.9750 O   0  0  0  0  0  0  0  0  0  0  0  0
  -20.8430  -29.6540   21.5300 H   0  0  0  0  0  0  0  0  0  0  0  0
  -17.9890  -27.8910   22.7590 C   0  0  0  0  0  0  0  0  0  0  0  0
  -20.5630  -28.0810   22.9090 C   0  0  0  0  0  3  0  0  0  0  0  0
  -20.6040  -26.6900   22.2320 C   0  0  0  0  0  2  0  0  0  0  0  0
  -19.4430  -26.4580   21.2610 C   0  0  0  0  0  2  0  0  0  0  0  0
  -18.1000  -26.5860   21.9860 C   0  0  0  0  0  2  0  0  0  0  0  0
  -19.1460  -28.6000   23.1770 C   0  0  0  0  0  0  0  0  0  0  0  0
  -18.9880  -29.8260   23.8600 C   0  0  0  0  0  3  0  0  0  0  0  0
  -17.7060  -30.3410   24.1260 C   0  0  0  0  0  3  0  0  0  0  0  0
  -16.5640  -29.6260   23.7230 C   0  0  0  0  0  3  0  0  0  0  0  0
  -16.7070  -28.4030   23.0460 C   0  0  0  0  0  3  0  0  0  0  0  0
  -25.9340  -32.1410   23.5640 C   0  0  0  0  0  3  0  0  0  0  0  0
  -25.6670  -33.5210   23.9890 N   0  0  0  0  0  0  0  0  0  0  0  0
  -25.9900  -34.6110   23.2790 C   0  0  0  0  0  0  0  0  0  0  0  0
  -26.6170  -34.5570   22.2170 O   0  0  0  0  0  0  0  0  0  0  0  0
  -25.1070  -33.6380   24.8210 H   0  0  0  0  0  0  0  0  0  0  0  0
  -24.2770  -36.4420   23.1040 C   0  0  0  0  0  1  0  0  0  0  0  0
  -25.5460  -35.9760   23.8360 C   0  0  0  0  0  3  0  0  0  0  0  0
  -27.7230  -36.7870   24.6300 C   0  0  0  0  0  1  0  0  0  0  0  0
  -26.5900  -37.0190   23.7380 N   0  0  0  0  0  0  0  0  0  0  0  0
  -26.2050  -37.9360   23.9490 H   0  0  0  0  0  0  0  0  0  0  0  0
  -26.5040  -31.2870   24.7620 C   0  0  1  0  0  0  0  0  0  0  0  0
  -25.4660  -31.0060   25.8740 C   0  0  0  0  0  1  0  0  0  0  0  0
  -27.0340  -29.9250   24.2550 C   0  0  0  0  0  1  0  0  0  0  0  0
  -27.7070  -32.0180   25.4030 C   0  0  0  0  0  1  0  0  0  0  0  0
  -28.7800  -18.2750   18.2800 C   0  0  0  0  0  0  0  0  0  0  0  0
  -28.4470  -18.4300   19.5070 N   0  0  0  0  0  0  0  0  0  0  0  0
  -26.9280  -18.6180   16.5330 C   0  0  0  0  0  1  0  0  0  0  0  0
  -27.9130  -17.6400   17.1970 C   0  0  0  0  0  2  0  0  0  0  0  0
  -26.8170  -18.6070   21.3100 C   0  0  0  0  0  1  0  0  0  0  0  0
  -27.1950  -17.8930   20.0100 C   0  0  0  0  0  2  0  0  0  0  0  0
  -31.2740  -16.4320   18.1740 C   0  0  0  0  0  2  0  0  0  0  0  0
  -30.6500  -15.7630   19.1810 C   0  0  0  0  0  2  0  0  0  0  0  0
  -31.2720  -14.4920   19.5260 C   0  0  0  0  0  0  0  0  0  0  0  0
  -30.6730  -12.3140   18.6690 C   0  0  0  0  0  2  0  0  0  0  0  0
  -29.6720  -12.5340   17.5190 C   0  0  0  0  0  2  0  0  0  0  0  0
  -28.2340  -12.5020   18.0690 C   0  0  0  0  0  2  0  0  0  0  0  0
  -28.0300  -13.4410   19.2870 C   0  0  0  0  0  3  0  0  0  0  0  0
  -29.1730  -13.3160   20.3180 C   0  0  0  0  0  2  0  0  0  0  0  0
  -30.4610  -13.4100   19.6220 N   0  0  0  0  0  0  0  0  0  0  0  0
  -32.4830  -14.3790   19.3600 O   0  0  0  0  0  0  0  0  0  0  0  0
  -25.7700  -14.1770   20.2750 C   0  0  0  0  0  0  0  0  0  0  0  0
  -24.6830  -13.4730   20.7070 C   0  0  0  0  0  0  0  0  0  0  0  0
  -25.0330  -12.0950   20.5790 C   0  0  0  0  0  0  0  0  0  0  0  0
  -26.7180  -13.2380   19.9010 N   0  0  0  0  0  0  0  0  0  0  0  0
  -26.2840  -11.9750   20.1500 N   0  0  0  0  0  0  0  0  0  0  0  0
  -24.2270  -10.8850   20.7840 C   0  0  0  0  0  0  0  0  0  0  0  0
  -24.6240   -9.8790   21.6900 C   0  0  0  0  0  3  0  0  0  0  0  0
  -23.8200   -8.7350   21.8850 C   0  0  0  0  0  3  0  0  0  0  0  0
  -22.6040   -8.5920   21.1730 C   0  0  0  0  0  0  0  0  0  0  0  0
  -22.2260   -9.5880   20.2560 C   0  0  0  0  0  3  0  0  0  0  0  0
  -23.0300  -10.7220   20.0590 C   0  0  0  0  0  3  0  0  0  0  0  0
  -21.7720   -7.5030   21.2810 O   0  0  0  0  0  0  0  0  0  0  0  0
  -21.6900   -6.7710   22.4380 C   0  0  0  0  0  0  0  0  0  0  0  0
  -21.2870   -7.3530   23.6600 C   0  0  0  0  0  3  0  0  0  0  0  0
  -21.1500   -6.5510   24.8100 C   0  0  0  0  0  3  0  0  0  0  0  0
  -21.4040   -5.1680   24.7390 C   0  0  0  0  0  0  0  0  0  0  0  0
  -21.8000   -4.5860   23.5220 C   0  0  0  0  0  3  0  0  0  0  0  0
  -21.9400   -5.3850   22.3740 C   0  0  0  0  0  0  0  0  0  0  0  0
  -22.3030   -4.8170   21.2000 F   0  0  0  0  0  0  0  0  0  0  0  0
  -21.2630   -4.3960   25.8420 F   0  0  0  0  0  0  0  0  0  0  0  0
  -23.3600  -14.0450   21.1240 C   0  0  0  0  0  0  0  0  0  0  0  0
  -22.6650  -13.3800   22.0410 N   0  0  0  0  0  0  0  0  0  0  0  0
  -22.9580  -15.1170   20.6740 O   0  0  0  0  0  0  0  0  0  0  0  0
  -23.0080  -12.5120   22.4250 H   0  0  0  0  0  0  0  0  0  0  0  0
  -21.7810  -13.7440   22.3650 H   0  0  0  0  0  0  0  0  0  0  0  0
  -26.0160  -15.5340   20.1500 N   0  0  0  0  0  0  0  0  0  0  0  0
  -25.3030  -16.2320   20.3250 H   0  0  0  0  0  0  0  0  0  0  0  0
  -26.8530  -15.9080   19.7310 H   0  0  0  0  0  0  0  0  0  0  0  0
  1  3  2  0
  1  2  1  0
  2  4  2  0
  3  6  1  0
  4  5  1  0
  4 63  1  0
  5 57  1  0
  6  8  1  0
  6  5  2  0
  7  8  1  0
  7 11  1  0
  8 10  1  0
  9  7  2  0
 11 12  2  0
 12 15  1  0
 13 12  1  0
 14 13  1  0
 16 18  1  0
 16 15  1  0
 17 28  2  0
 18 23  1  0
 19 27  1  0
 19 29  1  0
 20 26  1  0
 20 22  1  0
 21 27  1  0
 22 21  1  0
 23 22  2  0
 24 25  1  0
 24 18  2  0
 25 20  2  0
 26 19  1  0
 27 17  1  0
 29 31  2  0
 30 29  1  0
 32 30  1  0
 33 42  2  0
 33 38  1  0
 34 30  1  0
 34 38  1  0
 35 34  1  0
 36 37  1  0
 36 35  1  0
 37 33  1  0
 38 39  2  0
 39 40  1  0
 41 40  2  0
 42 41  1  0
 43 17  1  0
 43 44  1  0
 43 53  1  0
 44 47  1  0
 45 49  1  0
 45 44  1  0
 46 45  2  0
 49 48  1  0
 51 49  1  0
 51 52  1  0
 51 50  1  0
 53 56  1  1
 53 54  1  0
 55 53  1  0
 57 58  2  0
 58 62  1  0
 59 60  1  0
 60 57  1  0
 62 61  1  0
 63 64  1  0
 64 65  1  0
 65 71  1  0
 66 71  1  0
 67 68  1  0
 67 66  1  0
 69 68  1  0
 69 76  1  0
 69 70  1  0
 71 70  1  0
 72 65  2  0
 73 74  2  0
 74 93  1  0
 75 74  1  0
 75 78  1  0
 76 77  1  0
 76 73  1  0
 77 75  2  0
 78 79  1  0
 79 80  2  0
 81 84  1  0
 81 80  1  0
 82 81  2  0
 83 82  1  0
 83 78  2  0
 84 85  1  0
 85 86  1  0
 86 87  2  0
 88 87  1  0
 88 92  1  0
 89 88  2  0
 90 85  2  0
 90 89  1  0
 91 90  1  0
 93 94  1  0
 94 97  1  0
 94 96  1  0
 95 93  2  0
 98 73  1  0
 98 99  1  0
100 98  1  0
M  ISO  4  15 101  16 101  64 100  65 100
M  END
>  <TORSDO>  (68) 
F 24

>  <SCORE>  (68) 
-7.746

>  <name>  (68) 
68

>  <ligand_id>  (68) 
68

>  <original_smiles>  (68) 
[H]OC(=C([H])C(=O)N([H])c1c([H])c([H])c([H])c(C([H])=C([H])C(=O)N2C([H])([H])C([H])([H])C([H])([H])C([H])(n3nc(-c4c([H])c([H])c(Oc5c([H])c([H])c(F)c([H])c5F)c([H])c4[H])c(C(=O)N([H])[H])c3N([H])[H])C2([H])[H])c1C(=NC([H])([H])C([H])([H])[H])C([H])([H])C([H])([H])[H])C([H])([H])Oc1c([H])c([H])c2c(c1[H])C([H])([H])N(C(=O)C([H])(N([H])C(=O)C([H])(N([H])C([H])([H])[H])C([H])([H])[H])C(C([H])([H])[H])(C([H])([H])[H])C([H])([H])[H])C([H])(C(=O)N([H])C1([H])c3c([H])c([H])c([H])c([H])c3C([H])([H])C([H])([H])C1([H])[H])C2([H])[H]

>  <smiles>  (68) 
[H]OC(=C([H])C(=O)N([H])c1c([H])c([H])c([H])c(C([H])=C([H])C(=O)N2C([H])([H])C([H])([H])C([H])([H])C([H])(n3nc(-c4c([H])c([H])c(Oc5c([H])c([H])c(F)c([H])c5F)c([H])c4[H])c(C(=O)N([H])[H])c3N([H])[H])C2([H])[H])c1C(=NC([H])([H])C([H])([H])[H])C([H])([H])C([H])([H])[H])C([H])([H])Oc1c([H])c([H])c2c(c1[H])C([H])([H])N(C(=O)C([H])(N([H])C(=O)C([H])(N([H])C([H])([H])[H])C([H])([H])[H])C(C([H])([H])[H])(C([H])([H])[H])C([H])([H])[H])C([H])(C(=O)N([H])C1([H])c3c([H])c([H])c([H])c([H])c3C([H])([H])C([H])([H])C1([H])[H])C2([H])[H]

$$$$
69:0:0
     RDKit          3D

 98106  0  0  1  0  0  0  0  0999 V2000
  -30.1860  -21.2130   20.2110 N   0  0  0  0  0  0  0  0  0  0  0  0
  -31.1020  -21.6470   20.1490 H   0  0  0  0  0  0  0  0  0  0  0  0
  -31.3810  -17.6750   20.7760 C   0  0  0  0  0  3  0  0  0  0  0  0
  -28.9750  -17.6550   20.5530 C   0  0  0  0  0  3  0  0  0  0  0  0
  -31.4070  -19.0880   20.6160 C   0  0  0  0  0  0  0  0  0  0  0  0
  -30.1750  -16.9380   20.7340 C   0  0  0  0  0  0  0  0  0  0  0  0
  -30.1840  -19.8030   20.4080 C   0  0  0  0  0  0  0  0  0  0  0  0
  -28.9750  -19.0550   20.3790 C   0  0  0  0  0  0  0  0  0  0  0  0
  -27.7860  -19.6690   20.1610 F   0  0  0  0  0  0  0  0  0  0  0  0
  -30.8050  -14.5360   20.2770 C   0  0  0  0  0  0  0  0  0  0  0  0
  -30.4910  -12.3930   19.0970 C   0  0  0  0  0  2  0  0  0  0  0  0
  -29.4990  -12.6190   17.9350 C   0  0  0  0  0  2  0  0  0  0  0  0
  -28.0430  -12.4690   18.4180 C   0  0  0  0  0  2  0  0  0  0  0  0
  -27.7530  -13.2750   19.7120 C   0  0  0  0  0  3  0  0  0  0  0  0
  -28.8500  -13.0200   20.7720 C   0  0  0  0  0  2  0  0  0  0  0  0
  -30.1530  -13.3460   20.1650 N   0  0  0  0  0  0  0  0  0  0  0  0
  -31.9090  -14.7380   19.7610 O   0  0  0  0  0  0  0  0  0  0  0  0
  -30.0940  -15.5120   20.8850 N   0  0  0  0  0  0  0  0  0  0  0  0
  -29.2330  -15.1700   21.2830 H   0  0  0  0  0  0  0  0  0  0  0  0
  -25.3860  -13.8690   20.5310 C   0  0  0  0  0  0  0  0  0  0  0  0
  -24.3310  -13.0890   20.9230 C   0  0  0  0  0  0  0  0  0  0  0  0
  -24.7860  -11.7370   20.8360 C   0  0  0  0  0  0  0  0  0  0  0  0
  -26.4180  -12.9920   20.2340 N   0  0  0  0  0  0  0  0  0  0  0  0
  -26.0630  -11.7040   20.4750 N   0  0  0  0  0  0  0  0  0  0  0  0
  -24.0650  -10.4710   21.0200 C   0  0  0  0  0  0  0  0  0  0  0  0
  -24.4920   -9.5090   21.9610 C   0  0  0  0  0  3  0  0  0  0  0  0
  -23.7710   -8.3070   22.1330 C   0  0  0  0  0  3  0  0  0  0  0  0
  -22.6110   -8.0590   21.3620 C   0  0  0  0  0  0  0  0  0  0  0  0
  -22.2030   -9.0110   20.4100 C   0  0  0  0  0  3  0  0  0  0  0  0
  -22.9240  -10.2050   20.2370 C   0  0  0  0  0  3  0  0  0  0  0  0
  -21.8640   -6.9090   21.4430 O   0  0  0  0  0  0  0  0  0  0  0  0
  -21.7620   -6.1960   22.6110 C   0  0  0  0  0  0  0  0  0  0  0  0
  -21.2120   -6.7590   23.7820 C   0  0  0  0  0  3  0  0  0  0  0  0
  -21.0620   -5.9700   24.9400 C   0  0  0  0  0  3  0  0  0  0  0  0
  -21.4540   -4.6180   24.9260 C   0  0  0  0  0  0  0  0  0  0  0  0
  -21.9990   -4.0540   23.7600 C   0  0  0  0  0  3  0  0  0  0  0  0
  -22.1510   -4.8410   22.6040 C   0  0  0  0  0  0  0  0  0  0  0  0
  -22.6550   -4.2870   21.4760 F   0  0  0  0  0  0  0  0  0  0  0  0
  -21.3050   -3.8580   26.0360 F   0  0  0  0  0  0  0  0  0  0  0  0
  -22.9470  -13.5600   21.2640 C   0  0  0  0  0  0  0  0  0  0  0  0
  -22.2470  -12.8340   22.1270 N   0  0  0  0  0  0  0  0  0  0  0  0
  -22.4960  -14.6070   20.8010 O   0  0  0  0  0  0  0  0  0  0  0  0
  -22.6240  -11.9870   22.5250 H   0  0  0  0  0  0  0  0  0  0  0  0
  -21.3200  -13.1310   22.3960 H   0  0  0  0  0  0  0  0  0  0  0  0
  -25.5490  -15.2430   20.3820 N   0  0  0  0  0  0  0  0  0  0  0  0
  -24.7800  -15.8910   20.5190 H   0  0  0  0  0  0  0  0  0  0  0  0
  -26.3650  -15.6790   19.9720 H   0  0  0  0  0  0  0  0  0  0  0  0
  -32.7280  -19.7790   20.6740 C   0  0  0  0  0  3  0  0  0  0  0  0
  -33.8560  -19.2270   20.8550 N   0  0  0  0  0  0  0  0  0  0  0  0
  -33.7760  -18.2210   20.9600 H   0  0  0  0  0  0  0  0  0  0  0  0
  -29.2050  -22.0940   20.8640 C   0  0  0  0  0  2  0  0  0  0  0  0
  -29.1920  -23.8970   22.6750 C   0  0  0  0  0  1  0  0  0  0  0  0
  -29.7930  -23.4710   21.3230 C   0  0  1  0  0  0  0  0  0  0  0  0
  -31.0890  -23.2510   21.5830 F   0  0  0  0  0  0  0  0  0  0  0  0
  -29.6860  -24.6400   20.2970 C   0  0  0  0  0  0  0  0  0  0  0  0
  -30.6890  -25.0500   19.7010 O   0  0  0  0  0  0  0  0  0  0  0  0
  -28.3200  -25.3090   20.0410 C   0  0  0  0  0  2  0  0  0  0  0  0
  -28.4330  -26.7480   20.0930 O   0  0  0  0  0  0  0  0  0  0  0  0
  -24.5550  -31.8660   23.1890 C   0  0  0  0  0  0  0  0  0  0  0  0
  -27.2520  -27.4680   20.0770 C   0  0  0  0  0  0  0  0  0  0  0  0
  -23.3730  -30.4830   21.5140 C   0  0  0  0  0  3  0  0  0  0  0  0
  -24.8480  -28.9710   20.0850 C   0  0  0  0  0  0  0  0  0  0  0  0
  -25.9000  -30.8530   21.3490 C   0  0  0  0  0  2  0  0  0  0  0  0
  -25.9990  -29.4910   20.6890 C   0  0  0  0  0  0  0  0  0  0  0  0
  -27.2040  -28.7500   20.6760 C   0  0  0  0  0  3  0  0  0  0  0  0
  -26.0780  -26.9630   19.4710 C   0  0  0  0  0  3  0  0  0  0  0  0
  -24.8840  -27.7070   19.4730 C   0  0  0  0  0  3  0  0  0  0  0  0
  -23.6000  -29.8250   20.1280 C   0  0  0  0  0  2  0  0  0  0  0  0
  -24.6270  -31.0820   22.0760 N   0  0  0  0  0  0  0  0  0  0  0  0
  -23.4660  -32.1270   23.7200 O   0  0  0  0  0  0  0  0  0  0  0  0
  -22.7150  -29.4460   22.4530 C   0  0  0  0  0  0  0  0  0  0  0  0
  -21.3900  -29.2710   22.3200 N   0  0  0  0  0  0  0  0  0  0  0  0
  -23.3950  -28.8010   23.2570 O   0  0  0  0  0  0  0  0  0  0  0  0
  -20.9040  -29.8440   21.6430 H   0  0  0  0  0  0  0  0  0  0  0  0
  -18.0040  -28.1130   22.8150 C   0  0  0  0  0  0  0  0  0  0  0  0
  -20.5680  -28.3230   23.0700 C   0  0  0  0  0  3  0  0  0  0  0  0
  -20.6430  -26.9100   22.4480 C   0  0  0  0  0  2  0  0  0  0  0  0
  -19.5260  -26.6360   21.4350 C   0  0  0  0  0  2  0  0  0  0  0  0
  -18.1520  -26.7820   22.0970 C   0  0  0  0  0  2  0  0  0  0  0  0
  -19.1380  -28.8430   23.2580 C   0  0  0  0  0  0  0  0  0  0  0  0
  -18.9450  -30.0920   23.8890 C   0  0  0  0  0  3  0  0  0  0  0  0
  -17.6500  -30.6070   24.0830 C   0  0  0  0  0  3  0  0  0  0  0  0
  -16.5300  -29.8730   23.6570 C   0  0  0  0  0  3  0  0  0  0  0  0
  -16.7080  -28.6280   23.0290 C   0  0  0  0  0  3  0  0  0  0  0  0
  -25.8310  -32.4940   23.8310 C   0  0  0  0  0  3  0  0  0  0  0  0
  -25.5180  -33.8890   24.1660 N   0  0  0  0  0  0  0  0  0  0  0  0
  -25.8610  -34.9450   23.4170 C   0  0  0  0  0  0  0  0  0  0  0  0
  -26.5450  -34.8480   22.3940 O   0  0  0  0  0  0  0  0  0  0  0  0
  -24.9130  -34.0390   24.9600 H   0  0  0  0  0  0  0  0  0  0  0  0
  -24.1520  -36.7500   23.0280 C   0  0  0  0  0  1  0  0  0  0  0  0
  -25.3650  -36.3310   23.8740 C   0  0  0  0  0  3  0  0  0  0  0  0
  -27.4670  -37.2060   24.7920 C   0  0  0  0  0  1  0  0  0  0  0  0
  -26.4060  -37.3800   23.8040 N   0  0  0  0  0  0  0  0  0  0  0  0
  -25.9980  -38.3010   23.9350 H   0  0  0  0  0  0  0  0  0  0  0  0
  -26.3330  -31.7130   25.1080 C   0  0  1  0  0  0  0  0  0  0  0  0
  -25.2240  -31.4620   26.1580 C   0  0  0  0  0  1  0  0  0  0  0  0
  -26.9280  -30.3420   24.7110 C   0  0  0  0  0  1  0  0  0  0  0  0
  -27.4700  -32.5070   25.7940 C   0  0  0  0  0  1  0  0  0  0  0  0
  1  7  1  0
  1 51  1  0
  2  1  1  0
  4  6  2  0
  5 48  1  0
  5  3  2  0
  6  3  1  0
  6 18  1  0
  7  5  1  0
  8  7  2  0
  8  4  1  0
  9  8  1  0
 10 18  1  0
 11 16  1  0
 12 13  1  0
 12 11  1  0
 14 13  1  0
 14 23  1  0
 14 15  1  0
 16 10  1  0
 16 15  1  0
 17 10  2  0
 18 19  1  0
 20 21  2  0
 21 40  1  0
 22 21  1  0
 22 25  1  0
 23 24  1  0
 23 20  1  0
 24 22  2  0
 25 26  1  0
 26 27  2  0
 28 31  1  0
 28 27  1  0
 29 28  2  0
 30 29  1  0
 30 25  2  0
 31 32  1  0
 32 33  1  0
 33 34  2  0
 35 34  1  0
 35 39  1  0
 36 35  2  0
 37 32  2  0
 37 36  1  0
 38 37  1  0
 40 41  1  0
 41 44  1  0
 41 43  1  0
 42 40  2  0
 45 46  1  0
 45 20  1  0
 47 45  1  0
 48 49  2  0
 49 50  1  0
 51 53  1  0
 53 54  1  0
 53 52  1  1
 55 53  1  0
 56 55  2  0
 57 58  1  0
 57 55  1  0
 59 70  2  0
 60 58  1  0
 60 65  1  0
 61 69  1  0
 61 71  1  0
 62 68  1  0
 62 64  1  0
 63 69  1  0
 64 63  1  0
 65 64  2  0
 66 67  1  0
 66 60  2  0
 67 62  2  0
 68 61  1  0
 69 59  1  0
 71 73  2  0
 72 71  1  0
 74 72  1  0
 75 84  2  0
 75 80  1  0
 76 72  1  0
 76 80  1  0
 77 76  1  0
 78 79  1  0
 78 77  1  0
 79 75  1  0
 80 81  2  0
 81 82  1  0
 83 82  2  0
 84 83  1  0
 85 59  1  0
 85 86  1  0
 85 95  1  0
 86 89  1  0
 87 91  1  0
 87 86  1  0
 88 87  2  0
 91 90  1  0
 93 91  1  0
 93 94  1  0
 93 92  1  0
 95 98  1  1
 95 96  1  0
 97 95  1  0
M  ISO  4  10 100  18 100  57 101  58 101
M  END
>  <TORSDO>  (69) 
F 22

>  <SCORE>  (69) 
-13.648

>  <name>  (69) 
69

>  <ligand_id>  (69) 
69

>  <original_smiles>  (69) 
[H]N=C([H])c1c([H])c(N([H])C(=O)N2C([H])([H])C([H])([H])C([H])([H])C([H])(n3nc(-c4c([H])c([H])c(Oc5c([H])c([H])c(F)c([H])c5F)c([H])c4[H])c(C(=O)N([H])[H])c3N([H])[H])C2([H])[H])c([H])c(F)c1N([H])C([H])([H])C(F)(C(=O)C([H])([H])Oc1c([H])c([H])c2c(c1[H])C([H])([H])N(C(=O)C([H])(N([H])C(=O)C([H])(N([H])C([H])([H])[H])C([H])([H])[H])C(C([H])([H])[H])(C([H])([H])[H])C([H])([H])[H])C([H])(C(=O)N([H])C1([H])c3c([H])c([H])c([H])c([H])c3C([H])([H])C([H])([H])C1([H])[H])C2([H])[H])C([H])([H])[H]

>  <smiles>  (69) 
[H]N=C([H])c1c([H])c(N([H])C(=O)N2C([H])([H])C([H])([H])C([H])([H])C([H])(n3nc(-c4c([H])c([H])c(Oc5c([H])c([H])c(F)c([H])c5F)c([H])c4[H])c(C(=O)N([H])[H])c3N([H])[H])C2([H])[H])c([H])c(F)c1N([H])C([H])([H])C(F)(C(=O)C([H])([H])Oc1c([H])c([H])c2c(c1[H])C([H])([H])N(C(=O)C([H])(N([H])C(=O)C([H])(N([H])C([H])([H])[H])C([H])([H])[H])C(C([H])([H])[H])(C([H])([H])[H])C([H])([H])[H])C([H])(C(=O)N([H])C1([H])c3c([H])c([H])c([H])c([H])c3C([H])([H])C([H])([H])C1([H])[H])C2([H])[H])C([H])([H])[H]

$$$$
70:0:0
     RDKit          3D

 96104  0  0  1  0  0  0  0  0999 V2000
  -28.2220  -21.8460   19.4900 N   0  0  0  0  0  4  0  0  0  0  0  0
  -28.9590  -21.7990   20.1750 H   0  0  0  0  0  0  0  0  0  0  0  0
  -27.3540  -21.6640   19.9620 H   0  0  0  0  0  0  0  0  0  0  0  0
  -26.9820  -23.4780   17.9990 C   0  0  0  0  0  1  0  0  0  0  0  0
  -28.2000  -23.2260   18.9240 C   0  0  0  0  0  3  0  0  0  0  0  0
  -28.2620  -24.3280   20.0040 C   0  0  0  0  0  0  0  0  0  0  0  0
  -27.6520  -23.9860   21.3640 C   0  0  0  0  0  1  0  0  0  0  0  0
  -28.6950  -25.4890   19.6730 N   0  0  0  0  0  0  0  0  0  0  0  0
  -28.5310  -26.5010   20.6570 O   0  0  0  0  0  0  0  0  0  0  0  0
  -24.7160  -31.8540   23.3760 C   0  0  0  0  0  0  0  0  0  0  0  0
  -27.3640  -27.2430   20.5470 C   0  0  0  0  0  0  0  0  0  0  0  0
  -23.5310  -30.4080   21.7590 C   0  0  0  0  0  3  0  0  0  0  0  0
  -24.9950  -28.7960   20.4420 C   0  0  0  0  0  0  0  0  0  0  0  0
  -26.0700  -30.7110   21.6260 C   0  0  0  0  0  2  0  0  0  0  0  0
  -26.1470  -29.3160   21.0440 C   0  0  0  0  0  0  0  0  0  0  0  0
  -27.3290  -28.5440   21.1000 C   0  0  0  0  0  3  0  0  0  0  0  0
  -26.1830  -26.7460   19.9380 C   0  0  0  0  0  3  0  0  0  0  0  0
  -25.0040  -27.5060   19.8930 C   0  0  0  0  0  3  0  0  0  0  0  0
  -23.7690  -29.6780   20.4140 C   0  0  0  0  0  2  0  0  0  0  0  0
  -24.7900  -31.0070   22.3120 N   0  0  0  0  0  0  0  0  0  0  0  0
  -23.6230  -32.1690   23.8680 O   0  0  0  0  0  0  0  0  0  0  0  0
  -22.8350  -29.4350   22.7370 C   0  0  0  0  0  0  0  0  0  0  0  0
  -21.5200  -29.2350   22.5440 N   0  0  0  0  0  0  0  0  0  0  0  0
  -23.4750  -28.8590   23.6190 O   0  0  0  0  0  0  0  0  0  0  0  0
  -21.0690  -29.7470   21.7990 H   0  0  0  0  0  0  0  0  0  0  0  0
  -18.1220  -28.0680   22.9300 C   0  0  0  0  0  0  0  0  0  0  0  0
  -20.6600  -28.3430   23.3230 C   0  0  0  0  0  3  0  0  0  0  0  0
  -20.7860  -26.8790   22.8360 C   0  0  0  0  0  2  0  0  0  0  0  0
  -19.7430  -26.5080   21.7780 C   0  0  0  0  0  2  0  0  0  0  0  0
  -18.3300  -26.6820   22.3420 C   0  0  0  0  0  2  0  0  0  0  0  0
  -19.2170  -28.8550   23.3750 C   0  0  0  0  0  0  0  0  0  0  0  0
  -18.9680  -30.1510   23.8790 C   0  0  0  0  0  3  0  0  0  0  0  0
  -17.6560  -30.6580   23.9500 C   0  0  0  0  0  3  0  0  0  0  0  0
  -16.5760  -29.8670   23.5230 C   0  0  0  0  0  3  0  0  0  0  0  0
  -16.8080  -28.5750   23.0200 C   0  0  0  0  0  3  0  0  0  0  0  0
  -25.9960  -32.4860   24.0070 C   0  0  0  0  0  3  0  0  0  0  0  0
  -25.6910  -33.8890   24.3180 N   0  0  0  0  0  0  0  0  0  0  0  0
  -26.0170  -34.9280   23.5370 C   0  0  0  0  0  0  0  0  0  0  0  0
  -26.6770  -34.8070   22.5020 O   0  0  0  0  0  0  0  0  0  0  0  0
  -25.1020  -34.0590   25.1210 H   0  0  0  0  0  0  0  0  0  0  0  0
  -24.2740  -36.7040   23.1710 C   0  0  0  0  0  1  0  0  0  0  0  0
  -25.5290  -36.3230   23.9730 C   0  0  0  0  0  3  0  0  0  0  0  0
  -27.6720  -37.2290   24.7550 C   0  0  0  0  0  1  0  0  0  0  0  0
  -26.5560  -37.3760   23.8240 N   0  0  0  0  0  0  0  0  0  0  0  0
  -26.1490  -38.2980   23.9630 H   0  0  0  0  0  0  0  0  0  0  0  0
  -26.4940  -31.7240   25.2950 C   0  0  1  0  0  0  0  0  0  0  0  0
  -25.3710  -31.4310   26.3170 C   0  0  0  0  0  1  0  0  0  0  0  0
  -27.1460  -30.3750   24.9120 C   0  0  0  0  0  1  0  0  0  0  0  0
  -27.5840  -32.5590   26.0080 C   0  0  0  0  0  1  0  0  0  0  0  0
  -28.4580  -20.7520   18.5190 C   0  0  0  0  0  2  0  0  0  0  0  0
  -27.1410  -17.4960   20.0500 C   0  0  0  0  0  3  0  0  0  0  0  0
  -28.3350  -16.8010   20.3190 C   0  0  0  0  0  3  0  0  0  0  0  0
  -27.1860  -18.7800   19.4780 C   0  0  0  0  0  3  0  0  0  0  0  0
  -29.5860  -17.3850   20.0120 C   0  0  0  0  0  0  0  0  0  0  0  0
  -28.4280  -19.3800   19.1750 C   0  0  0  0  0  0  0  0  0  0  0  0
  -29.6270  -18.6810   19.4450 C   0  0  0  0  0  0  0  0  0  0  0  0
  -30.8160  -19.2570   19.1460 F   0  0  0  0  0  0  0  0  0  0  0  0
  -30.8690  -16.6100   20.2870 C   0  0  0  0  0  2  0  0  0  0  0  0
  -31.2860  -14.1510   20.1260 C   0  0  0  0  0  0  0  0  0  0  0  0
  -31.0850  -11.7690   19.5450 C   0  0  0  0  0  2  0  0  0  0  0  0
  -30.1650  -11.6100   18.3190 C   0  0  0  0  0  2  0  0  0  0  0  0
  -28.6900  -11.5300   18.7560 C   0  0  0  0  0  2  0  0  0  0  0  0
  -28.2920  -12.6760   19.7260 C   0  0  0  0  0  3  0  0  0  0  0  0
  -29.3140  -12.7780   20.8780 C   0  0  0  0  0  2  0  0  0  0  0  0
  -30.6550  -12.9620   20.2870 N   0  0  0  0  0  0  0  0  0  0  0  0
  -32.3620  -14.2790   19.5300 O   0  0  0  0  0  0  0  0  0  0  0  0
  -30.6030  -15.2040   20.5880 N   0  0  0  0  0  0  0  0  0  0  0  0
  -29.7410  -14.9980   21.0660 H   0  0  0  0  0  0  0  0  0  0  0  0
  -25.9620  -13.4590   20.4960 C   0  0  0  0  0  0  0  0  0  0  0  0
  -24.8480  -12.7650   20.8800 C   0  0  0  0  0  0  0  0  0  0  0  0
  -25.2030  -11.3830   20.8170 C   0  0  0  0  0  0  0  0  0  0  0  0
  -26.9320  -12.5050   20.2290 N   0  0  0  0  0  0  0  0  0  0  0  0
  -26.4770  -11.2500   20.4750 N   0  0  0  0  0  0  0  0  0  0  0  0
  -24.3890  -10.1760   21.0080 C   0  0  0  0  0  0  0  0  0  0  0  0
  -24.7350   -9.1940   21.9630 C   0  0  0  0  0  3  0  0  0  0  0  0
  -23.9250   -8.0510   22.1400 C   0  0  0  0  0  3  0  0  0  0  0  0
  -22.7560   -7.8820   21.3600 C   0  0  0  0  0  0  0  0  0  0  0  0
  -22.4290   -8.8520   20.3940 C   0  0  0  0  0  3  0  0  0  0  0  0
  -23.2390   -9.9850   20.2160 C   0  0  0  0  0  3  0  0  0  0  0  0
  -21.9250   -6.7910   21.4450 O   0  0  0  0  0  0  0  0  0  0  0  0
  -21.7750   -6.0900   22.6140 C   0  0  0  0  0  0  0  0  0  0  0  0
  -21.2940   -6.7010   23.7940 C   0  0  0  0  0  3  0  0  0  0  0  0
  -21.0880   -5.9290   24.9530 C   0  0  0  0  0  3  0  0  0  0  0  0
  -21.3520   -4.5460   24.9350 C   0  0  0  0  0  0  0  0  0  0  0  0
  -21.8220   -3.9340   23.7600 C   0  0  0  0  0  3  0  0  0  0  0  0
  -22.0300   -4.7030   22.6020 C   0  0  0  0  0  0  0  0  0  0  0  0
  -22.4640   -4.1060   21.4660 F   0  0  0  0  0  0  0  0  0  0  0  0
  -21.1460   -3.8020   26.0470 F   0  0  0  0  0  0  0  0  0  0  0  0
  -23.4980  -13.3410   21.1990 C   0  0  0  0  0  0  0  0  0  0  0  0
  -22.7530  -12.6970   22.0900 N   0  0  0  0  0  0  0  0  0  0  0  0
  -23.1140  -14.3940   20.6920 O   0  0  0  0  0  0  0  0  0  0  0  0
  -23.0790  -11.8460   22.5250 H   0  0  0  0  0  0  0  0  0  0  0  0
  -21.8430  -13.0560   22.3430 H   0  0  0  0  0  0  0  0  0  0  0  0
  -26.2250  -14.8150   20.3370 N   0  0  0  0  0  0  0  0  0  0  0  0
  -25.5180  -15.5200   20.5160 H   0  0  0  0  0  0  0  0  0  0  0  0
  -27.1190  -15.2060   20.0650 H   0  0  0  0  0  0  0  0  0  0  0  0
  1  3  1  0
  1  2  1  0
  5  4  1  0
  5  1  1  0
  5  6  1  0
  6  7  1  0
  8  6  2  0
  8  9  1  0
 10 21  2  0
 11  9  1  0
 11 16  1  0
 12 20  1  0
 12 22  1  0
 13 15  1  0
 14 20  1  0
 15 16  2  0
 15 14  1  0
 17 11  2  0
 18 17  1  0
 18 13  2  0
 19 13  1  0
 19 12  1  0
 20 10  1  0
 22 24  2  0
 23 22  1  0
 25 23  1  0
 26 35  2  0
 26 31  1  0
 27 23  1  0
 27 31  1  0
 28 27  1  0
 29 30  1  0
 29 28  1  0
 30 26  1  0
 31 32  2  0
 32 33  1  0
 34 33  2  0
 35 34  1  0
 36 10  1  0
 36 37  1  0
 36 46  1  0
 37 40  1  0
 38 42  1  0
 38 37  1  0
 39 38  2  0
 42 41  1  0
 44 45  1  0
 44 42  1  0
 44 43  1  0
 46 49  1  1
 46 47  1  0
 48 46  1  0
 50 55  1  0
 50  1  1  0
 51 52  1  0
 53 51  2  0
 54 58  1  0
 54 52  2  0
 55 56  2  0
 55 53  1  0
 56 54  1  0
 57 56  1  0
 58 67  1  0
 59 65  1  0
 59 67  1  0
 60 65  1  0
 61 62  1  0
 61 60  1  0
 63 62  1  0
 63 72  1  0
 63 64  1  0
 65 64  1  0
 66 59  2  0
 67 68  1  0
 69 70  2  0
 70 89  1  0
 71 70  1  0
 71 74  1  0
 72 73  1  0
 72 69  1  0
 73 71  2  0
 74 75  1  0
 75 76  2  0
 77 80  1  0
 77 76  1  0
 78 77  2  0
 79 78  1  0
 79 74  2  0
 80 81  1  0
 81 82  1  0
 82 83  2  0
 84 83  1  0
 84 88  1  0
 85 84  2  0
 86 81  2  0
 86 85  1  0
 87 86  1  0
 89 90  1  0
 90 93  1  0
 90 92  1  0
 91 89  2  0
 94 69  1  0
 94 95  1  0
 96 94  1  0
M  ISO  4   8 101   9 101  59 100  67 100
M  END
>  <TORSDO>  (70) 
F 21

>  <SCORE>  (70) 
-12.972

>  <name>  (70) 
70

>  <ligand_id>  (70) 
70

>  <original_smiles>  (70) 
[H]c1c([H])c([H])c2c(c1[H])C([H])([H])C([H])([H])C([H])([H])C2([H])N([H])C(=O)C1([H])N(C(=O)C([H])(N([H])C(=O)C([H])(N([H])C([H])([H])[H])C([H])([H])[H])C(C([H])([H])[H])(C([H])([H])[H])C([H])([H])[H])C([H])([H])c2c([H])c(ON=C(C([H])([H])[H])C([H])(C([H])([H])[H])[N+]([H])([H])C([H])([H])c3c([H])c([H])c([H])c(C([H])([H])N([H])C(=O)N4C([H])([H])C([H])([H])C([H])([H])C([H])(n5nc(-c6c([H])c([H])c(Oc7c([H])c([H])c(F)c([H])c7F)c([H])c6[H])c(C(=O)N([H])[H])c5N([H])[H])C4([H])[H])c3F)c([H])c([H])c2C1([H])[H]

>  <smiles>  (70) 
[H]c1c([H])c([H])c2c(c1[H])C([H])([H])C([H])([H])C([H])([H])C2([H])N([H])C(=O)C1([H])N(C(=O)C([H])(N([H])C(=O)C([H])(N([H])C([H])([H])[H])C([H])([H])[H])C(C([H])([H])[H])(C([H])([H])[H])C([H])([H])[H])C([H])([H])c2c([H])c(ON=C(C([H])([H])[H])C([H])(C([H])([H])[H])[N+]([H])([H])C([H])([H])c3c([H])c([H])c([H])c(C([H])([H])N([H])C(=O)N4C([H])([H])C([H])([H])C([H])([H])C([H])(n5nc(-c6c([H])c([H])c(Oc7c([H])c([H])c(F)c([H])c7F)c([H])c6[H])c(C(=O)N([H])[H])c5N([H])[H])C4([H])[H])c3F)c([H])c([H])c2C1([H])[H]

$$$$
71:0:0
     RDKit          3D

 94102  0  0  1  0  0  0  0  0999 V2000
  -29.1690  -17.7540   21.1790 C   0  0  0  0  0  3  0  0  0  0  0  0
  -30.4970  -19.6440   20.8680 C   0  0  0  0  0  0  0  0  0  0  0  0
  -30.2710  -16.8840   20.9770 C   0  0  0  0  0  0  0  0  0  0  0  0
  -31.6170  -18.7700   20.6820 C   0  0  0  0  0  0  0  0  0  0  0  0
  -29.2710  -19.1060   21.1180 N   0  0  0  0  0  0  0  0  0  0  0  0
  -31.4960  -17.4230   20.7380 N   0  0  0  0  0  0  0  0  0  0  0  0
  -32.9160  -19.1850   20.4030 N   0  0  0  0  0  0  0  0  0  0  0  0
  -33.1590  -20.1670   20.5040 H   0  0  0  0  0  0  0  0  0  0  0  0
  -33.6930  -18.5350   20.4530 H   0  0  0  0  0  0  0  0  0  0  0  0
  -30.7000  -14.4790   20.4450 C   0  0  0  0  0  0  0  0  0  0  0  0
  -30.3720  -12.3470   19.2500 C   0  0  0  0  0  2  0  0  0  0  0  0
  -29.4350  -12.5960   18.0510 C   0  0  0  0  0  2  0  0  0  0  0  0
  -27.9580  -12.4640   18.4750 C   0  0  0  0  0  2  0  0  0  0  0  0
  -27.6310  -13.2730   19.7600 C   0  0  0  0  0  3  0  0  0  0  0  0
  -28.6840  -13.0140   20.8620 C   0  0  0  0  0  2  0  0  0  0  0  0
  -30.0130  -13.3120   20.3010 N   0  0  0  0  0  0  0  0  0  0  0  0
  -31.8250  -14.6400   19.9630 O   0  0  0  0  0  0  0  0  0  0  0  0
  -30.0090  -15.4800   21.0270 N   0  0  0  0  0  0  0  0  0  0  0  0
  -29.1020  -15.2170   21.3770 H   0  0  0  0  0  0  0  0  0  0  0  0
  -25.2280  -13.8850   20.4510 C   0  0  0  0  0  0  0  0  0  0  0  0
  -24.1590  -13.1150   20.8240 C   0  0  0  0  0  0  0  0  0  0  0  0
  -24.6220  -11.7640   20.8060 C   0  0  0  0  0  0  0  0  0  0  0  0
  -26.2750  -13.0020   20.2330 N   0  0  0  0  0  0  0  0  0  0  0  0
  -25.9130  -11.7220   20.5030 N   0  0  0  0  0  0  0  0  0  0  0  0
  -23.8950  -10.5020   21.0030 C   0  0  0  0  0  0  0  0  0  0  0  0
  -24.3300   -9.5410   21.9430 C   0  0  0  0  0  3  0  0  0  0  0  0
  -23.6060   -8.3440   22.1290 C   0  0  0  0  0  3  0  0  0  0  0  0
  -22.4330   -8.0990   21.3760 C   0  0  0  0  0  0  0  0  0  0  0  0
  -22.0170   -9.0500   20.4270 C   0  0  0  0  0  3  0  0  0  0  0  0
  -22.7420  -10.2390   20.2390 C   0  0  0  0  0  3  0  0  0  0  0  0
  -21.6800   -6.9550   21.4700 O   0  0  0  0  0  0  0  0  0  0  0  0
  -21.6340   -6.2150   22.6260 C   0  0  0  0  0  0  0  0  0  0  0  0
  -21.2170   -6.7760   23.8530 C   0  0  0  0  0  3  0  0  0  0  0  0
  -21.1190   -5.9650   25.0000 C   0  0  0  0  0  3  0  0  0  0  0  0
  -21.4280   -4.5930   24.9210 C   0  0  0  0  0  0  0  0  0  0  0  0
  -21.8370   -4.0320   23.6990 C   0  0  0  0  0  3  0  0  0  0  0  0
  -21.9370   -4.8420   22.5540 C   0  0  0  0  0  0  0  0  0  0  0  0
  -22.3120   -4.2910   21.3740 F   0  0  0  0  0  0  0  0  0  0  0  0
  -21.3260   -3.8120   26.0210 F   0  0  0  0  0  0  0  0  0  0  0  0
  -22.7610  -13.5940   21.0870 C   0  0  0  0  0  0  0  0  0  0  0  0
  -22.0320  -12.9070   21.9580 N   0  0  0  0  0  0  0  0  0  0  0  0
  -22.3230  -14.6130   20.5550 O   0  0  0  0  0  0  0  0  0  0  0  0
  -22.3970  -12.0840   22.4120 H   0  0  0  0  0  0  0  0  0  0  0  0
  -21.0930  -13.2110   22.1760 H   0  0  0  0  0  0  0  0  0  0  0  0
  -25.3930  -15.2530   20.2600 N   0  0  0  0  0  0  0  0  0  0  0  0
  -24.6200  -15.9030   20.3490 H   0  0  0  0  0  0  0  0  0  0  0  0
  -26.2290  -15.6830   19.8840 H   0  0  0  0  0  0  0  0  0  0  0  0
  -30.6140  -21.1530   20.8340 C   0  0  0  0  0  0  0  0  0  0  0  0
  -31.6910  -21.7540   20.9360 O   0  0  0  0  0  0  0  0  0  0  0  0
  -29.3270  -21.9900   20.6600 C   0  0  0  0  0  2  0  0  0  0  0  0
  -29.6100  -23.4740   20.2900 C   0  0  0  0  0  2  0  0  0  0  0  0
  -28.3680  -24.3270   19.9390 C   0  0  0  0  0  2  0  0  0  0  0  0
  -28.7260  -25.7080   19.3350 C   0  0  0  0  0  2  0  0  0  0  0  0
  -28.5180  -26.8010   20.2350 O   0  0  0  0  0  0  0  0  0  0  0  0
  -24.6210  -31.9260   23.2650 C   0  0  0  0  0  0  0  0  0  0  0  0
  -27.3130  -27.4780   20.2210 C   0  0  0  0  0  0  0  0  0  0  0  0
  -23.4330  -30.5130   21.6170 C   0  0  0  0  0  3  0  0  0  0  0  0
  -24.9040  -28.9710   20.2170 C   0  0  0  0  0  0  0  0  0  0  0  0
  -25.9610  -30.8720   21.4480 C   0  0  0  0  0  2  0  0  0  0  0  0
  -26.0540  -29.4990   20.8150 C   0  0  0  0  0  0  0  0  0  0  0  0
  -27.2550  -28.7560   20.8220 C   0  0  0  0  0  3  0  0  0  0  0  0
  -26.1360  -26.9530   19.6370 C   0  0  0  0  0  3  0  0  0  0  0  0
  -24.9390  -27.6940   19.6290 C   0  0  0  0  0  3  0  0  0  0  0  0
  -23.6590  -29.8260   20.2440 C   0  0  0  0  0  2  0  0  0  0  0  0
  -24.6890  -31.1200   22.1670 N   0  0  0  0  0  0  0  0  0  0  0  0
  -23.5340  -32.2010   23.7910 O   0  0  0  0  0  0  0  0  0  0  0  0
  -22.7760  -29.4960   22.5760 C   0  0  0  0  0  0  0  0  0  0  0  0
  -21.4510  -29.3180   22.4440 N   0  0  0  0  0  0  0  0  0  0  0  0
  -23.4540  -28.8680   23.3940 O   0  0  0  0  0  0  0  0  0  0  0  0
  -20.9650  -29.8780   21.7580 H   0  0  0  0  0  0  0  0  0  0  0  0
  -18.0680  -28.1530   22.9400 C   0  0  0  0  0  0  0  0  0  0  0  0
  -20.6270  -28.3840   23.2110 C   0  0  0  0  0  3  0  0  0  0  0  0
  -20.7160  -26.9550   22.6290 C   0  0  0  0  0  2  0  0  0  0  0  0
  -19.6120  -26.6470   21.6140 C   0  0  0  0  0  2  0  0  0  0  0  0
  -18.2320  -26.8040   22.2590 C   0  0  0  0  0  2  0  0  0  0  0  0
  -19.1950  -28.9020   23.3730 C   0  0  0  0  0  0  0  0  0  0  0  0
  -18.9880  -30.1650   23.9670 C   0  0  0  0  0  3  0  0  0  0  0  0
  -17.6890  -30.6800   24.1330 C   0  0  0  0  0  3  0  0  0  0  0  0
  -16.5770  -29.9270   23.7190 C   0  0  0  0  0  3  0  0  0  0  0  0
  -16.7680  -28.6650   23.1280 C   0  0  0  0  0  3  0  0  0  0  0  0
  -25.9010  -32.5610   23.8940 C   0  0  0  0  0  3  0  0  0  0  0  0
  -25.5890  -33.9610   24.2110 N   0  0  0  0  0  0  0  0  0  0  0  0
  -25.9260  -35.0070   23.4450 C   0  0  0  0  0  0  0  0  0  0  0  0
  -26.6050  -34.8960   22.4210 O   0  0  0  0  0  0  0  0  0  0  0  0
  -24.9850  -34.1210   25.0040 H   0  0  0  0  0  0  0  0  0  0  0  0
  -24.1960  -36.7930   23.0640 C   0  0  0  0  0  1  0  0  0  0  0  0
  -25.4330  -36.3980   23.8870 C   0  0  0  0  0  3  0  0  0  0  0  0
  -27.5610  -37.2930   24.7230 C   0  0  0  0  0  1  0  0  0  0  0  0
  -26.4640  -37.4520   23.7710 N   0  0  0  0  0  0  0  0  0  0  0  0
  -26.0550  -38.3730   23.9080 H   0  0  0  0  0  0  0  0  0  0  0  0
  -26.4080  -31.7980   25.1800 C   0  0  1  0  0  0  0  0  0  0  0  0
  -25.3060  -31.5660   26.2400 C   0  0  0  0  0  1  0  0  0  0  0  0
  -26.9950  -30.4170   24.8010 C   0  0  0  0  0  1  0  0  0  0  0  0
  -27.5520  -32.5960   25.8470 C   0  0  0  0  0  1  0  0  0  0  0  0
  2  5  2  0
  3 18  1  0
  3  1  2  0
  4  6  2  0
  4  2  1  0
  5  1  1  0
  6  3  1  0
  7  9  1  0
  7  8  1  0
  7  4  1  0
 10 18  1  0
 11 16  1  0
 12 13  1  0
 12 11  1  0
 14 13  1  0
 14 23  1  0
 14 15  1  0
 16 10  1  0
 16 15  1  0
 17 10  2  0
 18 19  1  0
 20 21  2  0
 21 40  1  0
 22 21  1  0
 22 25  1  0
 23 20  1  0
 23 24  1  0
 24 22  2  0
 25 26  1  0
 26 27  2  0
 28 31  1  0
 28 27  1  0
 29 28  2  0
 30 29  1  0
 30 25  2  0
 31 32  1  0
 32 33  1  0
 33 34  2  0
 35 34  1  0
 35 39  1  0
 36 35  2  0
 37 32  2  0
 37 36  1  0
 38 37  1  0
 40 41  1  0
 41 44  1  0
 41 43  1  0
 42 40  2  0
 45 46  1  0
 45 20  1  0
 47 45  1  0
 48  2  1  0
 48 49  2  0
 50 48  1  0
 51 50  1  0
 52 51  1  0
 53 52  1  0
 53 54  1  0
 55 66  2  0
 56 54  1  0
 56 61  1  0
 57 65  1  0
 57 67  1  0
 58 64  1  0
 58 60  1  0
 59 65  1  0
 60 61  2  0
 60 59  1  0
 62 56  2  0
 63 62  1  0
 63 58  2  0
 64 57  1  0
 65 55  1  0
 67 69  2  0
 68 67  1  0
 70 68  1  0
 71 80  2  0
 71 76  1  0
 72 68  1  0
 72 76  1  0
 73 72  1  0
 74 75  1  0
 74 73  1  0
 75 71  1  0
 76 77  2  0
 77 78  1  0
 79 78  2  0
 80 79  1  0
 81 55  1  0
 81 82  1  0
 81 91  1  0
 82 85  1  0
 83 87  1  0
 83 82  1  0
 84 83  2  0
 87 86  1  0
 89 87  1  0
 89 90  1  0
 89 88  1  0
 91 94  1  1
 91 92  1  0
 93 91  1  0
M  ISO  4  10 100  18 100  53 101  54 101
M  END
>  <TORSDO>  (71) 
F 21

>  <SCORE>  (71) 
-13.385

>  <name>  (71) 
71

>  <ligand_id>  (71) 
71

>  <original_smiles>  (71) 
[H]c1nc(C(=O)C([H])([H])C([H])([H])C([H])([H])C([H])([H])Oc2c([H])c([H])c3c(c2[H])C([H])([H])N(C(=O)C([H])(N([H])C(=O)C([H])(N([H])C([H])([H])[H])C([H])([H])[H])C(C([H])([H])[H])(C([H])([H])[H])C([H])([H])[H])C([H])(C(=O)N([H])C2([H])c4c([H])c([H])c([H])c([H])c4C([H])([H])C([H])([H])C2([H])[H])C3([H])[H])c(N([H])[H])nc1N([H])C(=O)N1C([H])([H])C([H])([H])C([H])([H])C([H])(n2nc(-c3c([H])c([H])c(Oc4c([H])c([H])c(F)c([H])c4F)c([H])c3[H])c(C(=O)N([H])[H])c2N([H])[H])C1([H])[H]

>  <smiles>  (71) 
[H]c1nc(C(=O)C([H])([H])C([H])([H])C([H])([H])C([H])([H])Oc2c([H])c([H])c3c(c2[H])C([H])([H])N(C(=O)C([H])(N([H])C(=O)C([H])(N([H])C([H])([H])[H])C([H])([H])[H])C(C([H])([H])[H])(C([H])([H])[H])C([H])([H])[H])C([H])(C(=O)N([H])C2([H])c4c([H])c([H])c([H])c([H])c4C([H])([H])C([H])([H])C2([H])[H])C3([H])[H])c(N([H])[H])nc1N([H])C(=O)N1C([H])([H])C([H])([H])C([H])([H])C([H])(n2nc(-c3c([H])c([H])c(Oc4c([H])c([H])c(F)c([H])c4F)c([H])c3[H])c(C(=O)N([H])[H])c2N([H])[H])C1([H])[H]

$$$$
72:0:0
     RDKit          3D

 95103  0  0  1  0  0  0  0  0999 V2000
  -28.6920  -22.9660   19.6320 C   0  0  0  0  0  0  0  0  0  0  0  0
  -29.1590  -21.8990   20.3310 N   0  0  0  0  0  0  0  0  0  0  0  0
  -28.1770  -22.8100   18.5230 O   0  0  0  0  0  0  0  0  0  0  0  0
  -29.6350  -22.0550   21.2050 H   0  0  0  0  0  0  0  0  0  0  0  0
  -28.3890  -25.3920   19.6290 C   0  0  0  0  0  3  0  0  0  0  0  0
  -28.7960  -24.2810   20.2960 C   0  0  0  0  0  0  0  0  0  0  0  0
  -29.2480  -24.3830   21.5570 O   0  0  0  0  0  0  0  0  0  0  0  0
  -29.3350  -23.5070   21.9000 H   0  0  0  0  0  0  0  0  0  0  0  0
  -28.3740  -26.6730   20.1540 O   0  0  0  0  0  0  0  0  0  0  0  0
  -24.5800  -31.8830   23.2340 C   0  0  0  0  0  0  0  0  0  0  0  0
  -27.2000  -27.4150   20.1280 C   0  0  0  0  0  0  0  0  0  0  0  0
  -23.3630  -30.4850   21.5990 C   0  0  0  0  0  3  0  0  0  0  0  0
  -24.8050  -28.9470   20.1620 C   0  0  0  0  0  0  0  0  0  0  0  0
  -25.8900  -30.8330   21.3880 C   0  0  0  0  0  2  0  0  0  0  0  0
  -25.9690  -29.4610   20.7460 C   0  0  0  0  0  0  0  0  0  0  0  0
  -27.1660  -28.7000   20.7280 C   0  0  0  0  0  3  0  0  0  0  0  0
  -26.0060  -26.9250   19.5430 C   0  0  0  0  0  3  0  0  0  0  0  0
  -24.8200  -27.6790   19.5590 C   0  0  0  0  0  3  0  0  0  0  0  0
  -23.5650  -29.8110   20.2160 C   0  0  0  0  0  2  0  0  0  0  0  0
  -24.6310  -31.0820   22.1320 N   0  0  0  0  0  0  0  0  0  0  0  0
  -23.5010  -32.1570   23.7800 O   0  0  0  0  0  0  0  0  0  0  0  0
  -22.7150  -29.4630   22.5610 C   0  0  0  0  0  0  0  0  0  0  0  0
  -21.3910  -29.2810   22.4370 N   0  0  0  0  0  0  0  0  0  0  0  0
  -23.4000  -28.8400   23.3750 O   0  0  0  0  0  0  0  0  0  0  0  0
  -20.8970  -29.8380   21.7530 H   0  0  0  0  0  0  0  0  0  0  0  0
  -18.0200  -28.0750   22.9350 C   0  0  0  0  0  0  0  0  0  0  0  0
  -20.5760  -28.3440   23.2110 C   0  0  0  0  0  3  0  0  0  0  0  0
  -20.6850  -26.9100   22.6410 C   0  0  0  0  0  2  0  0  0  0  0  0
  -19.5860  -26.5790   21.6260 C   0  0  0  0  0  2  0  0  0  0  0  0
  -18.2040  -26.7230   22.2670 C   0  0  0  0  0  2  0  0  0  0  0  0
  -19.1350  -28.8430   23.3640 C   0  0  0  0  0  0  0  0  0  0  0  0
  -18.9100  -30.1080   23.9480 C   0  0  0  0  0  3  0  0  0  0  0  0
  -17.6030  -30.6060   24.1060 C   0  0  0  0  0  3  0  0  0  0  0  0
  -16.5020  -29.8350   23.6930 C   0  0  0  0  0  3  0  0  0  0  0  0
  -16.7120  -28.5710   23.1120 C   0  0  0  0  0  3  0  0  0  0  0  0
  -25.8700  -32.5110   23.8480 C   0  0  0  0  0  3  0  0  0  0  0  0
  -26.4000  -31.7310   25.1120 C   0  0  1  0  0  0  0  0  0  0  0  0
  -25.3200  -31.4850   26.1910 C   0  0  0  0  0  1  0  0  0  0  0  0
  -26.9790  -30.3580   24.7000 C   0  0  0  0  0  1  0  0  0  0  0  0
  -27.5590  -32.5190   25.7680 C   0  0  0  0  0  1  0  0  0  0  0  0
  -25.5650  -33.9070   24.1900 N   0  0  0  0  0  0  0  0  0  0  0  0
  -25.8850  -34.9620   23.4290 C   0  0  0  0  0  0  0  0  0  0  0  0
  -26.5410  -34.8640   22.3880 O   0  0  0  0  0  0  0  0  0  0  0  0
  -24.9810  -34.0560   25.0010 H   0  0  0  0  0  0  0  0  0  0  0  0
  -24.1460  -36.7490   23.1080 C   0  0  0  0  0  1  0  0  0  0  0  0
  -25.4020  -36.3480   23.8980 C   0  0  0  0  0  3  0  0  0  0  0  0
  -27.5500  -37.2340   24.6930 C   0  0  0  0  0  1  0  0  0  0  0  0
  -26.4300  -37.4040   23.7700 N   0  0  0  0  0  0  0  0  0  0  0  0
  -26.0250  -38.3230   23.9280 H   0  0  0  0  0  0  0  0  0  0  0  0
  -28.9350  -20.4900   19.9170 C   0  0  0  0  0  2  0  0  0  0  0  0
  -29.4540  -18.0320   20.4550 C   0  0  0  0  0  3  0  0  0  0  0  0
  -31.6810  -17.3690   21.0910 C   0  0  0  0  0  3  0  0  0  0  0  0
  -29.9040  -19.3790   20.3870 C   0  0  0  0  0  0  0  0  0  0  0  0
  -30.3540  -16.9880   20.7920 C   0  0  0  0  0  0  0  0  0  0  0  0
  -31.2650  -19.6140   20.6730 C   0  0  0  0  0  0  0  0  0  0  0  0
  -32.1250  -18.6390   21.0330 N   0  0  0  0  0  0  0  0  0  0  0  0
  -31.7640  -20.8690   20.5850 F   0  0  0  0  0  0  0  0  0  0  0  0
  -30.6420  -14.5230   20.4610 C   0  0  0  0  0  0  0  0  0  0  0  0
  -30.3290  -12.3440   19.3510 C   0  0  0  0  0  2  0  0  0  0  0  0
  -29.3870  -12.5290   18.1430 C   0  0  0  0  0  2  0  0  0  0  0  0
  -27.9160  -12.3880   18.5800 C   0  0  0  0  0  2  0  0  0  0  0  0
  -27.5760  -13.2400   19.8330 C   0  0  0  0  0  3  0  0  0  0  0  0
  -28.6380  -13.0590   20.9420 C   0  0  0  0  0  2  0  0  0  0  0  0
  -29.9560  -13.3520   20.3570 N   0  0  0  0  0  0  0  0  0  0  0  0
  -31.7970  -14.6420   20.0470 O   0  0  0  0  0  0  0  0  0  0  0  0
  -29.9230  -15.6100   20.8320 N   0  0  0  0  0  0  0  0  0  0  0  0
  -28.9440  -15.4400   21.0080 H   0  0  0  0  0  0  0  0  0  0  0  0
  -25.1800  -13.8400   20.5500 C   0  0  0  0  0  0  0  0  0  0  0  0
  -24.1140  -13.0650   20.9210 C   0  0  0  0  0  0  0  0  0  0  0  0
  -24.5770  -11.7140   20.8910 C   0  0  0  0  0  0  0  0  0  0  0  0
  -26.2250  -12.9610   20.3180 N   0  0  0  0  0  0  0  0  0  0  0  0
  -25.8670  -11.6790   20.5850 N   0  0  0  0  0  0  0  0  0  0  0  0
  -23.8530  -10.4500   21.0830 C   0  0  0  0  0  0  0  0  0  0  0  0
  -24.3000   -9.4750   22.0010 C   0  0  0  0  0  3  0  0  0  0  0  0
  -23.5770   -8.2770   22.1810 C   0  0  0  0  0  3  0  0  0  0  0  0
  -22.3940   -8.0430   21.4400 C   0  0  0  0  0  0  0  0  0  0  0  0
  -21.9660   -9.0070   20.5110 C   0  0  0  0  0  3  0  0  0  0  0  0
  -22.6900  -10.1990   20.3300 C   0  0  0  0  0  3  0  0  0  0  0  0
  -21.6410   -6.8970   21.5300 O   0  0  0  0  0  0  0  0  0  0  0  0
  -21.6250   -6.1340   22.6700 C   0  0  0  0  0  0  0  0  0  0  0  0
  -21.2450   -6.6710   23.9190 C   0  0  0  0  0  3  0  0  0  0  0  0
  -21.1740   -5.8340   25.0510 C   0  0  0  0  0  3  0  0  0  0  0  0
  -21.4730   -4.4640   24.9360 C   0  0  0  0  0  0  0  0  0  0  0  0
  -21.8460   -3.9280   23.6910 C   0  0  0  0  0  3  0  0  0  0  0  0
  -21.9180   -4.7600   22.5600 C   0  0  0  0  0  0  0  0  0  0  0  0
  -22.2570   -4.2330   21.3590 F   0  0  0  0  0  0  0  0  0  0  0  0
  -21.3970   -3.6590   26.0210 F   0  0  0  0  0  0  0  0  0  0  0  0
  -22.7140  -13.5390   21.1910 C   0  0  0  0  0  0  0  0  0  0  0  0
  -21.9870  -12.8430   22.0580 N   0  0  0  0  0  0  0  0  0  0  0  0
  -22.2750  -14.5630   20.6700 O   0  0  0  0  0  0  0  0  0  0  0  0
  -22.3550  -12.0150   22.5010 H   0  0  0  0  0  0  0  0  0  0  0  0
  -21.0480  -13.1420   22.2800 H   0  0  0  0  0  0  0  0  0  0  0  0
  -25.3410  -15.2100   20.3680 N   0  0  0  0  0  0  0  0  0  0  0  0
  -24.5690  -15.8590   20.4690 H   0  0  0  0  0  0  0  0  0  0  0  0
  -26.1750  -15.6450   19.9980 H   0  0  0  0  0  0  0  0  0  0  0  0
  1  6  1  0
  1  2  1  0
  2  4  1  0
  3  1  2  0
  5  9  1  0
  5  6  2  0
  6  7  1  0
  7  8  1  0
 10 21  2  0
 11  9  1  0
 11 16  1  0
 12 20  1  0
 12 22  1  0
 13 19  1  0
 13 15  1  0
 14 20  1  0
 15 14  1  0
 16 15  2  0
 17 18  1  0
 17 11  2  0
 18 13  2  0
 19 12  1  0
 20 10  1  0
 22 24  2  0
 23 22  1  0
 25 23  1  0
 26 35  2  0
 26 31  1  0
 27 23  1  0
 27 31  1  0
 28 27  1  0
 29 30  1  0
 29 28  1  0
 30 26  1  0
 31 32  2  0
 32 33  1  0
 34 33  2  0
 35 34  1  0
 36 10  1  0
 36 41  1  0
 36 37  1  0
 37 40  1  1
 37 38  1  0
 39 37  1  0
 41 44  1  0
 42 46  1  0
 42 41  1  0
 43 42  2  0
 46 45  1  0
 48 46  1  0
 48 49  1  0
 48 47  1  0
 50  2  1  0
 50 53  1  0
 51 54  1  0
 53 51  2  0
 53 55  1  0
 54 66  1  0
 54 52  2  0
 55 56  2  0
 56 52  1  0
 57 55  1  0
 58 66  1  0
 59 64  1  0
 60 61  1  0
 60 59  1  0
 62 61  1  0
 62 71  1  0
 62 63  1  0
 64 58  1  0
 64 63  1  0
 65 58  2  0
 66 67  1  0
 68 69  2  0
 69 88  1  0
 70 69  1  0
 70 73  1  0
 71 68  1  0
 71 72  1  0
 72 70  2  0
 73 74  1  0
 74 75  2  0
 76 79  1  0
 76 75  1  0
 77 76  2  0
 78 77  1  0
 78 73  2  0
 79 80  1  0
 80 81  1  0
 81 82  2  0
 83 82  1  0
 83 87  1  0
 84 83  2  0
 85 80  2  0
 85 84  1  0
 86 85  1  0
 88 89  1  0
 89 92  1  0
 89 91  1  0
 90 88  2  0
 93 94  1  0
 93 68  1  0
 95 93  1  0
M  ISO  4   5 101   9 101  58 100  66 100
M  END
>  <TORSDO>  (72) 
F 20

>  <SCORE>  (72) 
-14.284

>  <name>  (72) 
72

>  <ligand_id>  (72) 
72

>  <original_smiles>  (72) 
[H]OC(C(=O)N([H])C([H])([H])c1c(F)nc([H])c(N([H])C(=O)N2C([H])([H])C([H])([H])C([H])([H])C([H])(n3nc(-c4c([H])c([H])c(Oc5c([H])c([H])c(F)c([H])c5F)c([H])c4[H])c(C(=O)N([H])[H])c3N([H])[H])C2([H])[H])c1[H])=C([H])Oc1c([H])c([H])c2c(c1[H])C([H])([H])N(C(=O)C([H])(N([H])C(=O)C([H])(N([H])C([H])([H])[H])C([H])([H])[H])C(C([H])([H])[H])(C([H])([H])[H])C([H])([H])[H])C([H])(C(=O)N([H])C1([H])c3c([H])c([H])c([H])c([H])c3C([H])([H])C([H])([H])C1([H])[H])C2([H])[H]

>  <smiles>  (72) 
[H]OC(C(=O)N([H])C([H])([H])c1c(F)nc([H])c(N([H])C(=O)N2C([H])([H])C([H])([H])C([H])([H])C([H])(n3nc(-c4c([H])c([H])c(Oc5c([H])c([H])c(F)c([H])c5F)c([H])c4[H])c(C(=O)N([H])[H])c3N([H])[H])C2([H])[H])c1[H])=C([H])Oc1c([H])c([H])c2c(c1[H])C([H])([H])N(C(=O)C([H])(N([H])C(=O)C([H])(N([H])C([H])([H])[H])C([H])([H])[H])C(C([H])([H])[H])(C([H])([H])[H])C([H])([H])[H])C([H])(C(=O)N([H])C1([H])c3c([H])c([H])c([H])c([H])c3C([H])([H])C([H])([H])C1([H])[H])C2([H])[H]

$$$$
73:0:0
     RDKit          3D

 96104  0  0  1  0  0  0  0  0999 V2000
  -29.6900  -18.4410   18.0170 C   0  0  0  0  0  3  0  0  0  0  0  0
  -29.5750  -19.6130   18.7600 C   0  0  0  0  0  3  0  0  0  0  0  0
  -29.9210  -17.2130   18.6630 C   0  0  0  0  0  0  0  0  0  0  0  0
  -29.6830  -19.5670   20.1570 C   0  0  0  0  0  0  0  0  0  0  0  0
  -30.0480  -17.1620   20.0880 C   0  0  0  0  0  0  0  0  0  0  0  0
  -29.1620  -22.0490   20.5500 C   0  0  0  0  0  0  0  0  0  0  0  0
  -29.9870  -16.0170   17.7350 C   0  0  0  0  0  1  0  0  0  0  0  0
  -29.9160  -18.3590   20.7680 N   0  0  0  0  0  0  0  0  0  0  0  0
  -29.6280  -20.8070   20.8890 N   0  0  0  0  0  0  0  0  0  0  0  0
  -28.4220  -22.2970   19.5910 O   0  0  0  0  0  0  0  0  0  0  0  0
  -30.0940  -20.8210   21.7880 H   0  0  0  0  0  0  0  0  0  0  0  0
  -30.9400  -14.7900   20.4090 C   0  0  0  0  0  0  0  0  0  0  0  0
  -30.6880  -12.5530   19.3400 C   0  0  0  0  0  2  0  0  0  0  0  0
  -29.7280  -12.5710   18.1310 C   0  0  0  0  0  2  0  0  0  0  0  0
  -28.2480  -12.5040   18.5680 C   0  0  0  0  0  2  0  0  0  0  0  0
  -27.9020  -13.3730   19.8100 C   0  0  0  0  0  3  0  0  0  0  0  0
  -28.9780  -13.2430   20.9040 C   0  0  0  0  0  2  0  0  0  0  0  0
  -30.2700  -13.5970   20.2980 N   0  0  0  0  0  0  0  0  0  0  0  0
  -32.1010  -14.8990   20.0010 O   0  0  0  0  0  0  0  0  0  0  0  0
  -30.1620  -16.0260   22.3010 C   0  0  0  0  0  1  0  0  0  0  0  0
  -30.2460  -15.9020   20.8370 N   0  0  0  0  0  0  0  0  0  0  0  0
  -25.5300  -13.9470   20.6170 C   0  0  0  0  0  0  0  0  0  0  0  0
  -24.4720  -13.1590   20.9800 C   0  0  0  0  0  0  0  0  0  0  0  0
  -24.9340  -11.8110   20.8890 C   0  0  0  0  0  0  0  0  0  0  0  0
  -26.5670  -13.0760   20.3230 N   0  0  0  0  0  0  0  0  0  0  0  0
  -26.2160  -11.7850   20.5530 N   0  0  0  0  0  0  0  0  0  0  0  0
  -24.2120  -10.5410   21.0440 C   0  0  0  0  0  0  0  0  0  0  0  0
  -24.6140   -9.5740   21.9910 C   0  0  0  0  0  3  0  0  0  0  0  0
  -23.8930   -8.3700   22.1350 C   0  0  0  0  0  3  0  0  0  0  0  0
  -22.7550   -8.1250   21.3310 C   0  0  0  0  0  0  0  0  0  0  0  0
  -22.3730   -9.0800   20.3710 C   0  0  0  0  0  3  0  0  0  0  0  0
  -23.0960  -10.2760   20.2260 C   0  0  0  0  0  3  0  0  0  0  0  0
  -22.0070   -6.9730   21.3830 O   0  0  0  0  0  0  0  0  0  0  0  0
  -21.8370   -6.2760   22.5530 C   0  0  0  0  0  0  0  0  0  0  0  0
  -21.2150   -6.8550   23.6800 C   0  0  0  0  0  3  0  0  0  0  0  0
  -21.0000   -6.0810   24.8390 C   0  0  0  0  0  3  0  0  0  0  0  0
  -21.3970   -4.7310   24.8680 C   0  0  0  0  0  0  0  0  0  0  0  0
  -22.0120   -4.1530   23.7440 C   0  0  0  0  0  3  0  0  0  0  0  0
  -22.2280   -4.9230   22.5880 C   0  0  0  0  0  0  0  0  0  0  0  0
  -22.8020   -4.3550   21.5010 F   0  0  0  0  0  0  0  0  0  0  0  0
  -21.1830   -3.9850   25.9780 F   0  0  0  0  0  0  0  0  0  0  0  0
  -23.0800  -13.6250   21.2980 C   0  0  0  0  0  0  0  0  0  0  0  0
  -22.3690  -12.8950   22.1510 N   0  0  0  0  0  0  0  0  0  0  0  0
  -22.6320  -14.6680   20.8270 O   0  0  0  0  0  0  0  0  0  0  0  0
  -22.7490  -12.0520   22.5580 H   0  0  0  0  0  0  0  0  0  0  0  0
  -21.4350  -13.1850   22.4000 H   0  0  0  0  0  0  0  0  0  0  0  0
  -25.6910  -15.3240   20.4910 N   0  0  0  0  0  0  0  0  0  0  0  0
  -24.9290  -15.9730   20.6580 H   0  0  0  0  0  0  0  0  0  0  0  0
  -26.5430  -15.7810   20.1940 H   0  0  0  0  0  0  0  0  0  0  0  0
  -29.6210  -23.1470   21.5300 C   0  0  0  0  0  3  0  0  0  0  0  0
  -30.3040  -22.7740   22.5420 N   0  0  0  0  0  2  0  0  0  0  0  0
  -30.5410  -23.6060   23.0740 H   0  0  0  0  0  0  0  0  0  0  0  0
  -29.3580  -24.6770   21.3950 C   0  0  0  0  0  0  0  0  0  0  0  0
  -29.8730  -25.4460   22.2250 O   0  0  0  0  0  0  0  0  0  0  0  0
  -28.4640  -25.3100   20.2910 C   0  0  0  0  0  2  0  0  0  0  0  0
  -28.5230  -26.7740   20.3360 O   0  0  0  0  0  0  0  0  0  0  0  0
  -24.6090  -31.9760   23.2730 C   0  0  0  0  0  0  0  0  0  0  0  0
  -27.3450  -27.5060   20.2780 C   0  0  0  0  0  0  0  0  0  0  0  0
  -23.4390  -30.5350   21.6420 C   0  0  0  0  0  3  0  0  0  0  0  0
  -24.9290  -29.0050   20.2390 C   0  0  0  0  0  0  0  0  0  0  0  0
  -25.9620  -30.9300   21.4550 C   0  0  0  0  0  2  0  0  0  0  0  0
  -26.0770  -29.5490   20.8300 C   0  0  0  0  0  0  0  0  0  0  0  0
  -27.2860  -28.8100   20.8400 C   0  0  0  0  0  3  0  0  0  0  0  0
  -26.1810  -26.9940   19.6630 C   0  0  0  0  0  3  0  0  0  0  0  0
  -24.9790  -27.7310   19.6490 C   0  0  0  0  0  3  0  0  0  0  0  0
  -23.6700  -29.8450   20.2700 C   0  0  0  0  0  2  0  0  0  0  0  0
  -24.6870  -31.1640   22.1810 N   0  0  0  0  0  0  0  0  0  0  0  0
  -23.5200  -32.2340   23.8050 O   0  0  0  0  0  0  0  0  0  0  0  0
  -22.8000  -29.5130   22.6110 C   0  0  0  0  0  0  0  0  0  0  0  0
  -21.4860  -29.2830   22.4610 N   0  0  0  0  0  0  0  0  0  0  0  0
  -23.4870  -28.9280   23.4540 O   0  0  0  0  0  0  0  0  0  0  0  0
  -20.9920  -29.8110   21.7540 H   0  0  0  0  0  0  0  0  0  0  0  0
  -18.1450  -27.9760   22.9070 C   0  0  0  0  0  0  0  0  0  0  0  0
  -20.6850  -28.3330   23.2330 C   0  0  0  0  0  3  0  0  0  0  0  0
  -20.8530  -26.8950   22.6920 C   0  0  0  0  0  2  0  0  0  0  0  0
  -19.7880  -26.5100   21.6600 C   0  0  0  0  0  2  0  0  0  0  0  0
  -18.3870  -26.6180   22.2680 C   0  0  0  0  0  2  0  0  0  0  0  0
  -19.2250  -28.7870   23.3450 C   0  0  0  0  0  0  0  0  0  0  0  0
  -18.9470  -30.0550   23.9020 C   0  0  0  0  0  3  0  0  0  0  0  0
  -17.6210  -30.5120   24.0250 C   0  0  0  0  0  3  0  0  0  0  0  0
  -16.5560  -29.6980   23.6040 C   0  0  0  0  0  3  0  0  0  0  0  0
  -16.8190  -28.4320   23.0500 C   0  0  0  0  0  3  0  0  0  0  0  0
  -25.8790  -32.6390   23.8940 C   0  0  0  0  0  3  0  0  0  0  0  0
  -26.3890  -31.9080   25.1950 C   0  0  1  0  0  0  0  0  0  0  0  0
  -25.2840  -31.6770   26.2520 C   0  0  0  0  0  1  0  0  0  0  0  0
  -27.0020  -30.5320   24.8430 C   0  0  0  0  0  1  0  0  0  0  0  0
  -27.5150  -32.7370   25.8560 C   0  0  0  0  0  1  0  0  0  0  0  0
  -25.5520  -34.0420   24.1830 N   0  0  0  0  0  0  0  0  0  0  0  0
  -25.8850  -35.0790   23.4010 C   0  0  0  0  0  0  0  0  0  0  0  0
  -26.5720  -34.9540   22.3830 O   0  0  0  0  0  0  0  0  0  0  0  0
  -24.9460  -34.2110   24.9730 H   0  0  0  0  0  0  0  0  0  0  0  0
  -24.1590  -36.8510   22.9550 C   0  0  0  0  0  1  0  0  0  0  0  0
  -25.3770  -36.4730   23.8130 C   0  0  0  0  0  3  0  0  0  0  0  0
  -27.4730  -37.3960   24.6970 C   0  0  0  0  0  1  0  0  0  0  0  0
  -26.4070  -37.5300   23.7080 N   0  0  0  0  0  0  0  0  0  0  0  0
  -25.9900  -38.4510   23.8140 H   0  0  0  0  0  0  0  0  0  0  0  0
  1  3  2  0
  1  2  1  0
  2  4  2  0
  3  5  1  0
  4  8  1  0
  4  9  1  0
  5  8  2  0
  5 21  1  0
  6  9  1  0
  7  3  1  0
  9 11  1  0
 10  6  2  0
 12 21  1  0
 13 18  1  0
 14 15  1  0
 14 13  1  0
 16 15  1  0
 16 25  1  0
 16 17  1  0
 18 12  1  0
 18 17  1  0
 19 12  2  0
 21 20  1  0
 22 23  2  0
 23 42  1  0
 24 23  1  0
 24 27  1  0
 25 26  1  0
 25 22  1  0
 26 24  2  0
 27 28  1  0
 28 29  2  0
 30 33  1  0
 30 29  1  0
 31 30  2  0
 32 31  1  0
 32 27  2  0
 33 34  1  0
 34 39  2  0
 34 35  1  0
 35 36  2  0
 36 37  1  0
 37 41  1  0
 38 37  2  0
 39 38  1  0
 40 39  1  0
 42 43  1  0
 43 46  1  0
 43 45  1  0
 44 42  2  0
 47 22  1  0
 47 48  1  0
 49 47  1  0
 50  6  1  0
 50 51  1  0
 51 52  1  0
 53 50  1  0
 53 54  2  0
 55 56  1  0
 55 53  1  0
 57 68  2  0
 58 56  1  0
 58 63  1  0
 59 67  1  0
 59 69  1  0
 60 66  1  0
 60 62  1  0
 61 67  1  0
 62 63  2  0
 62 61  1  0
 64 58  2  0
 65 64  1  0
 65 60  2  0
 66 59  1  0
 67 57  1  0
 69 71  2  0
 70 69  1  0
 72 70  1  0
 73 82  2  0
 73 78  1  0
 74 70  1  0
 74 78  1  0
 75 74  1  0
 76 77  1  0
 76 75  1  0
 77 73  1  0
 78 79  2  0
 79 80  1  0
 81 80  2  0
 82 81  1  0
 83 57  1  0
 83 88  1  0
 83 84  1  0
 84 87  1  1
 84 85  1  0
 86 84  1  0
 88 91  1  0
 89 93  1  0
 89 88  1  0
 90 89  2  0
 93 92  1  0
 95 93  1  0
 95 96  1  0
 95 94  1  0
M  ISO  4  12 100  21 100  55 101  56 101
M  END
>  <TORSDO>  (73) 
F 19

>  <SCORE>  (73) 
-12.578

>  <name>  (73) 
73

>  <ligand_id>  (73) 
73

>  <original_smiles>  (73) 
[H]N=C(C(=O)N([H])c1nc(N(C(=O)N2C([H])([H])C([H])([H])C([H])([H])C([H])(n3nc(-c4c([H])c([H])c(Oc5c([H])c([H])c(F)c([H])c5F)c([H])c4[H])c(C(=O)N([H])[H])c3N([H])[H])C2([H])[H])C([H])([H])[H])c(C([H])([H])[H])c([H])c1[H])C(=O)C([H])([H])Oc1c([H])c([H])c2c(c1[H])C([H])([H])N(C(=O)C([H])(N([H])C(=O)C([H])(N([H])C([H])([H])[H])C([H])([H])[H])C(C([H])([H])[H])(C([H])([H])[H])C([H])([H])[H])C([H])(C(=O)N([H])C1([H])c3c([H])c([H])c([H])c([H])c3C([H])([H])C([H])([H])C1([H])[H])C2([H])[H]

>  <smiles>  (73) 
[H]N=C(C(=O)N([H])c1nc(N(C(=O)N2C([H])([H])C([H])([H])C([H])([H])C([H])(n3nc(-c4c([H])c([H])c(Oc5c([H])c([H])c(F)c([H])c5F)c([H])c4[H])c(C(=O)N([H])[H])c3N([H])[H])C2([H])[H])C([H])([H])[H])c(C([H])([H])[H])c([H])c1[H])C(=O)C([H])([H])Oc1c([H])c([H])c2c(c1[H])C([H])([H])N(C(=O)C([H])(N([H])C(=O)C([H])(N([H])C([H])([H])[H])C([H])([H])[H])C(C([H])([H])[H])(C([H])([H])[H])C([H])([H])[H])C([H])(C(=O)N([H])C1([H])c3c([H])c([H])c([H])c([H])c3C([H])([H])C([H])([H])C1([H])[H])C2([H])[H]

$$$$
74:0:0
     RDKit          3D

 97105  0  0  1  0  0  0  0  0999 V2000
  -28.7980  -22.6230   20.1170 C   0  0  0  0  0  0  0  0  0  0  0  0
  -29.7930  -21.7230   20.4090 N   0  0  0  0  0  0  0  0  0  0  0  0
  -27.7080  -22.2420   19.6890 O   0  0  0  0  0  0  0  0  0  0  0  0
  -30.6530  -22.1870   20.6640 H   0  0  0  0  0  0  0  0  0  0  0  0
  -31.0990  -18.0720   20.1830 C   0  0  0  0  0  3  0  0  0  0  0  0
  -28.7650  -18.0100   20.6880 C   0  0  0  0  0  3  0  0  0  0  0  0
  -31.0580  -19.5120   20.1490 C   0  0  0  0  0  0  0  0  0  0  0  0
  -29.9540  -17.2730   20.4480 C   0  0  0  0  0  0  0  0  0  0  0  0
  -29.8370  -20.2410   20.3680 C   0  0  0  0  0  0  0  0  0  0  0  0
  -28.7000  -19.4350   20.6570 C   0  0  0  0  0  0  0  0  0  0  0  0
  -27.5170  -20.0160   20.9640 F   0  0  0  0  0  0  0  0  0  0  0  0
  -30.6930  -14.7770   20.0370 C   0  0  0  0  0  0  0  0  0  0  0  0
  -30.4510  -12.5540   18.9300 C   0  0  0  0  0  2  0  0  0  0  0  0
  -29.4350  -12.6920   17.7740 C   0  0  0  0  0  2  0  0  0  0  0  0
  -27.9910  -12.5080   18.2840 C   0  0  0  0  0  2  0  0  0  0  0  0
  -27.6980  -13.3410   19.5610 C   0  0  0  0  0  3  0  0  0  0  0  0
  -28.8210  -13.1660   20.6090 C   0  0  0  0  0  2  0  0  0  0  0  0
  -30.0910  -13.5430   19.9680 N   0  0  0  0  0  0  0  0  0  0  0  0
  -31.8210  -14.9610   19.5710 O   0  0  0  0  0  0  0  0  0  0  0  0
  -29.9020  -15.8010   20.5070 N   0  0  0  0  0  0  0  0  0  0  0  0
  -29.0350  -15.4430   20.8760 H   0  0  0  0  0  0  0  0  0  0  0  0
  -25.3560  -13.9140   20.4480 C   0  0  0  0  0  0  0  0  0  0  0  0
  -24.3120  -13.1320   20.8590 C   0  0  0  0  0  0  0  0  0  0  0  0
  -24.7660  -11.7810   20.7490 C   0  0  0  0  0  0  0  0  0  0  0  0
  -26.3810  -13.0410   20.1160 N   0  0  0  0  0  0  0  0  0  0  0  0
  -26.0340  -11.7510   20.3570 N   0  0  0  0  0  0  0  0  0  0  0  0
  -24.0460  -10.5140   20.9380 C   0  0  0  0  0  0  0  0  0  0  0  0
  -24.4830   -9.5500   21.8730 C   0  0  0  0  0  3  0  0  0  0  0  0
  -23.7670   -8.3460   22.0490 C   0  0  0  0  0  3  0  0  0  0  0  0
  -22.5970   -8.0990   21.2930 C   0  0  0  0  0  0  0  0  0  0  0  0
  -22.1790   -9.0520   20.3480 C   0  0  0  0  0  3  0  0  0  0  0  0
  -22.8960  -10.2460   20.1670 C   0  0  0  0  0  3  0  0  0  0  0  0
  -21.8520   -6.9490   21.3780 O   0  0  0  0  0  0  0  0  0  0  0  0
  -21.7250   -6.2590   22.5570 C   0  0  0  0  0  0  0  0  0  0  0  0
  -21.1840   -6.8600   23.7160 C   0  0  0  0  0  3  0  0  0  0  0  0
  -21.0070   -6.0960   24.8880 C   0  0  0  0  0  3  0  0  0  0  0  0
  -21.3580   -4.7330   24.9000 C   0  0  0  0  0  0  0  0  0  0  0  0
  -21.8910   -4.1320   23.7480 C   0  0  0  0  0  3  0  0  0  0  0  0
  -22.0720   -4.8930   22.5790 C   0  0  0  0  0  0  0  0  0  0  0  0
  -22.5660   -4.3040   21.4640 F   0  0  0  0  0  0  0  0  0  0  0  0
  -21.1810   -3.9980   26.0230 F   0  0  0  0  0  0  0  0  0  0  0  0
  -22.9360  -13.6000   21.2330 C   0  0  0  0  0  0  0  0  0  0  0  0
  -22.2610  -12.8800   22.1220 N   0  0  0  0  0  0  0  0  0  0  0  0
  -22.4700  -14.6420   20.7710 O   0  0  0  0  0  0  0  0  0  0  0  0
  -22.6540  -12.0380   22.5160 H   0  0  0  0  0  0  0  0  0  0  0  0
  -21.3400  -13.1740   22.4130 H   0  0  0  0  0  0  0  0  0  0  0  0
  -25.5140  -15.2890   20.3040 N   0  0  0  0  0  0  0  0  0  0  0  0
  -24.7320  -15.9240   20.4230 H   0  0  0  0  0  0  0  0  0  0  0  0
  -26.3000  -15.7170   19.8320 H   0  0  0  0  0  0  0  0  0  0  0  0
  -32.3250  -20.2420   19.8750 C   0  0  0  0  0  3  0  0  0  0  0  0
  -33.4960  -19.7630   19.9560 N   0  0  0  0  0  0  0  0  0  0  0  0
  -33.4960  -18.7960   20.2510 H   0  0  0  0  0  0  0  0  0  0  0  0
  -28.1990  -25.0730   20.0850 C   0  0  0  0  0  3  0  0  0  0  0  0
  -29.1360  -24.0810   20.2810 C   0  0  0  0  0  0  0  0  0  0  0  0
  -30.3950  -24.4080   20.6160 O   0  0  0  0  0  0  0  0  0  0  0  0
  -30.4290  -25.3520   20.7100 H   0  0  0  0  0  0  0  0  0  0  0  0
  -28.3720  -26.4870   20.1300 O   0  0  0  0  0  0  0  0  0  0  0  0
  -24.6650  -31.8870   23.2290 C   0  0  0  0  0  0  0  0  0  0  0  0
  -27.2620  -27.3610   20.0900 C   0  0  0  0  0  0  0  0  0  0  0  0
  -23.4530  -30.5170   21.5750 C   0  0  0  0  0  3  0  0  0  0  0  0
  -24.9020  -28.9960   20.1100 C   0  0  0  0  0  0  0  0  0  0  0  0
  -25.9960  -30.8300   21.3930 C   0  0  0  0  0  2  0  0  0  0  0  0
  -26.0710  -29.4600   20.7260 C   0  0  0  0  0  0  0  0  0  0  0  0
  -27.2490  -28.6490   20.7190 C   0  0  0  0  0  3  0  0  0  0  0  0
  -26.0820  -26.9860   19.4050 C   0  0  0  0  0  3  0  0  0  0  0  0
  -24.9130  -27.7650   19.4390 C   0  0  0  0  0  3  0  0  0  0  0  0
  -23.6640  -29.8670   20.1820 C   0  0  0  0  0  2  0  0  0  0  0  0
  -24.7240  -31.0950   22.1210 N   0  0  0  0  0  0  0  0  0  0  0  0
  -23.5840  -32.1550   23.7720 O   0  0  0  0  0  0  0  0  0  0  0  0
  -22.7960  -29.4810   22.5200 C   0  0  0  0  0  0  0  0  0  0  0  0
  -21.4710  -29.2960   22.3890 N   0  0  0  0  0  0  0  0  0  0  0  0
  -23.4770  -28.8490   23.3310 O   0  0  0  0  0  0  0  0  0  0  0  0
  -20.9800  -29.8550   21.7050 H   0  0  0  0  0  0  0  0  0  0  0  0
  -18.0990  -28.0810   22.8850 C   0  0  0  0  0  0  0  0  0  0  0  0
  -20.6580  -28.3460   23.1510 C   0  0  0  0  0  3  0  0  0  0  0  0
  -20.7620  -26.9240   22.5540 C   0  0  0  0  0  2  0  0  0  0  0  0
  -19.6580  -26.6100   21.5400 C   0  0  0  0  0  2  0  0  0  0  0  0
  -18.2770  -26.7410   22.1890 C   0  0  0  0  0  2  0  0  0  0  0  0
  -19.2170  -28.8420   23.3220 C   0  0  0  0  0  0  0  0  0  0  0  0
  -18.9930  -30.0950   23.9340 C   0  0  0  0  0  3  0  0  0  0  0  0
  -17.6870  -30.5890   24.1080 C   0  0  0  0  0  3  0  0  0  0  0  0
  -16.5850  -29.8270   23.6880 C   0  0  0  0  0  3  0  0  0  0  0  0
  -16.7910  -28.5740   23.0830 C   0  0  0  0  0  3  0  0  0  0  0  0
  -25.9490  -32.5140   23.8520 C   0  0  0  0  0  3  0  0  0  0  0  0
  -26.4690  -31.7270   25.1180 C   0  0  1  0  0  0  0  0  0  0  0  0
  -25.3780  -31.4740   26.1850 C   0  0  0  0  0  1  0  0  0  0  0  0
  -27.0530  -30.3540   24.7110 C   0  0  0  0  0  1  0  0  0  0  0  0
  -27.6210  -32.5130   25.7850 C   0  0  0  0  0  1  0  0  0  0  0  0
  -25.6380  -33.9080   24.2030 N   0  0  0  0  0  0  0  0  0  0  0  0
  -25.9390  -34.9690   23.4430 C   0  0  0  0  0  0  0  0  0  0  0  0
  -26.5770  -34.8800   22.3900 O   0  0  0  0  0  0  0  0  0  0  0  0
  -25.0650  -34.0490   25.0210 H   0  0  0  0  0  0  0  0  0  0  0  0
  -24.1770  -36.7440   23.1710 C   0  0  0  0  0  1  0  0  0  0  0  0
  -25.4560  -36.3500   23.9270 C   0  0  0  0  0  3  0  0  0  0  0  0
  -27.6140  -37.2570   24.6720 C   0  0  0  0  0  1  0  0  0  0  0  0
  -26.4710  -37.4170   23.7760 N   0  0  0  0  0  0  0  0  0  0  0  0
  -26.0590  -38.3330   23.9380 H   0  0  0  0  0  0  0  0  0  0  0  0
  1 54  1  0
  1  2  1  0
  2  4  1  0
  3  1  2  0
  5  8  1  0
  7  5  2  0
  7  9  1  0
  8 20  1  0
  8  6  2  0
  9  2  1  0
  9 10  2  0
 10  6  1  0
 10 11  1  0
 12 20  1  0
 13 18  1  0
 14 15  1  0
 14 13  1  0
 16 15  1  0
 16 25  1  0
 16 17  1  0
 18 12  1  0
 18 17  1  0
 19 12  2  0
 20 21  1  0
 22 23  2  0
 23 42  1  0
 24 23  1  0
 24 27  1  0
 25 26  1  0
 25 22  1  0
 26 24  2  0
 27 28  1  0
 28 29  2  0
 30 33  1  0
 30 29  1  0
 31 30  2  0
 32 31  1  0
 32 27  2  0
 33 34  1  0
 34 39  2  0
 34 35  1  0
 35 36  2  0
 36 37  1  0
 37 41  1  0
 38 37  2  0
 39 38  1  0
 40 39  1  0
 42 43  1  0
 43 46  1  0
 43 45  1  0
 44 42  2  0
 47 48  1  0
 47 22  1  0
 49 47  1  0
 50 51  2  0
 50  7  1  0
 51 52  1  0
 53 57  1  0
 53 54  2  0
 54 55  1  0
 55 56  1  0
 58 69  2  0
 59 57  1  0
 59 64  1  0
 60 68  1  0
 60 70  1  0
 61 67  1  0
 61 63  1  0
 62 68  1  0
 63 62  1  0
 64 63  2  0
 65 66  1  0
 65 59  2  0
 66 61  2  0
 67 60  1  0
 68 58  1  0
 70 72  2  0
 71 70  1  0
 73 71  1  0
 74 83  2  0
 74 79  1  0
 75 71  1  0
 75 79  1  0
 76 75  1  0
 77 78  1  0
 77 76  1  0
 78 74  1  0
 79 80  2  0
 80 81  1  0
 82 81  2  0
 83 82  1  0
 84 58  1  0
 84 89  1  0
 84 85  1  0
 85 88  1  1
 85 86  1  0
 87 85  1  0
 89 92  1  0
 90 94  1  0
 90 89  1  0
 91 90  2  0
 94 93  1  0
 96 94  1  0
 96 97  1  0
 96 95  1  0
M  ISO  4  12 100  20 100  53 101  57 101
M  END
>  <TORSDO>  (74) 
F 20

>  <SCORE>  (74) 
-13.872

>  <name>  (74) 
74

>  <ligand_id>  (74) 
74

>  <original_smiles>  (74) 
[H]N=C([H])c1c([H])c(N([H])C(=O)N2C([H])([H])C([H])([H])C([H])([H])C([H])(n3nc(-c4c([H])c([H])c(Oc5c([H])c([H])c(F)c([H])c5F)c([H])c4[H])c(C(=O)N([H])[H])c3N([H])[H])C2([H])[H])c([H])c(F)c1N([H])C(=O)C(O[H])=C([H])Oc1c([H])c([H])c2c(c1[H])C([H])([H])N(C(=O)C([H])(N([H])C(=O)C([H])(N([H])C([H])([H])[H])C([H])([H])[H])C(C([H])([H])[H])(C([H])([H])[H])C([H])([H])[H])C([H])(C(=O)N([H])C1([H])c3c([H])c([H])c([H])c([H])c3C([H])([H])C([H])([H])C1([H])[H])C2([H])[H]

>  <smiles>  (74) 
[H]N=C([H])c1c([H])c(N([H])C(=O)N2C([H])([H])C([H])([H])C([H])([H])C([H])(n3nc(-c4c([H])c([H])c(Oc5c([H])c([H])c(F)c([H])c5F)c([H])c4[H])c(C(=O)N([H])[H])c3N([H])[H])C2([H])[H])c([H])c(F)c1N([H])C(=O)C(O[H])=C([H])Oc1c([H])c([H])c2c(c1[H])C([H])([H])N(C(=O)C([H])(N([H])C(=O)C([H])(N([H])C([H])([H])[H])C([H])([H])[H])C(C([H])([H])[H])(C([H])([H])[H])C([H])([H])[H])C([H])(C(=O)N([H])C1([H])c3c([H])c([H])c([H])c([H])c3C([H])([H])C([H])([H])C1([H])[H])C2([H])[H]

$$$$
75:0:0
     RDKit          3D

 97105  0  0  1  0  0  0  0  0999 V2000
  -29.3710  -21.2510   19.8880 C   0  0  0  0  0  0  0  0  0  0  0  0
  -28.9010  -23.8590   19.9250 C   0  0  0  0  0  0  0  0  0  0  0  0
  -28.9830  -22.4560   20.4970 N   0  0  0  0  0  0  0  0  0  0  0  0
  -29.4970  -21.2450   18.5580 N   0  0  0  0  0  4  0  0  0  0  0  0
  -29.3500  -24.0700   18.7890 O   0  0  0  0  0  0  0  0  0  0  0  0
  -28.6440  -22.2930   21.4330 H   0  0  0  0  0  0  0  0  0  0  0  0
  -29.6880  -20.3740   18.0800 H   0  0  0  0  0  0  0  0  0  0  0  0
  -29.3900  -22.1010   18.0330 H   0  0  0  0  0  0  0  0  0  0  0  0
  -30.4230  -20.0020   21.8160 C   0  0  0  0  0  3  0  0  0  0  0  0
  -30.8630  -17.5800   21.8670 C   0  0  0  0  0  3  0  0  0  0  0  0
  -29.7560  -19.9200   20.5750 C   0  0  0  0  0  0  0  0  0  0  0  0
  -30.1700  -17.3750   20.6540 C   0  0  0  0  0  0  0  0  0  0  0  0
  -30.9650  -18.8640   22.4450 C   0  0  0  0  0  0  0  0  0  0  0  0
  -29.6230  -18.5690   20.0190 C   0  0  0  0  0  0  0  0  0  0  0  0
  -31.5950  -19.0060   23.6350 F   0  0  0  0  0  0  0  0  0  0  0  0
  -28.9840  -18.4130   18.8330 F   0  0  0  0  0  0  0  0  0  0  0  0
  -30.7490  -14.8570   20.1680 C   0  0  0  0  0  0  0  0  0  0  0  0
  -30.5400  -12.5720   19.1590 C   0  0  0  0  0  2  0  0  0  0  0  0
  -29.5650  -12.6100   17.9600 C   0  0  0  0  0  2  0  0  0  0  0  0
  -28.1170  -12.4120   18.4410 C   0  0  0  0  0  2  0  0  0  0  0  0
  -27.7540  -13.3370   19.6340 C   0  0  0  0  0  3  0  0  0  0  0  0
  -28.8390  -13.2930   20.7310 C   0  0  0  0  0  2  0  0  0  0  0  0
  -30.1190  -13.6360   20.0960 N   0  0  0  0  0  0  0  0  0  0  0  0
  -31.9510  -14.9540   19.9060 O   0  0  0  0  0  0  0  0  0  0  0  0
  -29.9340  -15.9790   20.2040 N   0  0  0  0  0  0  0  0  0  0  0  0
  -28.9700  -15.7680   20.0120 H   0  0  0  0  0  0  0  0  0  0  0  0
  -25.4000  -13.9380   20.4570 C   0  0  0  0  0  0  0  0  0  0  0  0
  -24.3430  -13.1650   20.8530 C   0  0  0  0  0  0  0  0  0  0  0  0
  -24.7960  -11.8130   20.7870 C   0  0  0  0  0  0  0  0  0  0  0  0
  -26.4270  -13.0530   20.1710 N   0  0  0  0  0  0  0  0  0  0  0  0
  -26.0730  -11.7680   20.4330 N   0  0  0  0  0  0  0  0  0  0  0  0
  -24.0670  -10.5530   20.9780 C   0  0  0  0  0  0  0  0  0  0  0  0
  -24.5030   -9.5810   21.9030 C   0  0  0  0  0  3  0  0  0  0  0  0
  -23.7770   -8.3850   22.0820 C   0  0  0  0  0  3  0  0  0  0  0  0
  -22.5980   -8.1530   21.3340 C   0  0  0  0  0  0  0  0  0  0  0  0
  -22.1790   -9.1150   20.3980 C   0  0  0  0  0  3  0  0  0  0  0  0
  -22.9070  -10.3030   20.2190 C   0  0  0  0  0  3  0  0  0  0  0  0
  -21.8390   -7.0110   21.4230 O   0  0  0  0  0  0  0  0  0  0  0  0
  -21.7770   -6.2760   22.5810 C   0  0  0  0  0  0  0  0  0  0  0  0
  -21.3080   -6.8310   23.7910 C   0  0  0  0  0  3  0  0  0  0  0  0
  -21.1980   -6.0210   24.9400 C   0  0  0  0  0  3  0  0  0  0  0  0
  -21.5460   -4.6580   24.8780 C   0  0  0  0  0  0  0  0  0  0  0  0
  -22.0100   -4.1040   23.6710 C   0  0  0  0  0  3  0  0  0  0  0  0
  -22.1230   -4.9110   22.5250 C   0  0  0  0  0  0  0  0  0  0  0  0
  -22.5490   -4.3660   21.3600 F   0  0  0  0  0  0  0  0  0  0  0  0
  -21.4330   -3.8790   25.9780 F   0  0  0  0  0  0  0  0  0  0  0  0
  -22.9570  -13.6470   21.1750 C   0  0  0  0  0  0  0  0  0  0  0  0
  -22.2550  -12.9310   22.0470 N   0  0  0  0  0  0  0  0  0  0  0  0
  -22.5120  -14.6870   20.6940 O   0  0  0  0  0  0  0  0  0  0  0  0
  -22.6290  -12.0830   22.4420 H   0  0  0  0  0  0  0  0  0  0  0  0
  -21.3320  -13.2340   22.3230 H   0  0  0  0  0  0  0  0  0  0  0  0
  -25.5640  -15.3100   20.2880 N   0  0  0  0  0  0  0  0  0  0  0  0
  -24.7780  -15.9470   20.3670 H   0  0  0  0  0  0  0  0  0  0  0  0
  -26.3760  -15.7380   19.8580 H   0  0  0  0  0  0  0  0  0  0  0  0
  -28.2250  -25.0670   20.7540 C   0  0  0  0  0  3  0  0  0  0  0  0
  -26.9230  -24.7120   20.9020 F   0  0  0  0  0  0  0  0  0  0  0  0
  -28.3570  -26.3920   20.2310 O   0  0  0  0  0  0  0  0  0  0  0  0
  -24.5830  -31.8860   23.2660 C   0  0  0  0  0  0  0  0  0  0  0  0
  -27.2770  -27.3150   20.2340 C   0  0  0  0  0  0  0  0  0  0  0  0
  -23.4290  -30.4970   21.5830 C   0  0  0  0  0  3  0  0  0  0  0  0
  -24.9220  -28.9670   20.1750 C   0  0  0  0  0  0  0  0  0  0  0  0
  -25.9740  -30.8130   21.4720 C   0  0  0  0  0  2  0  0  0  0  0  0
  -26.0780  -29.4370   20.8130 C   0  0  0  0  0  0  0  0  0  0  0  0
  -27.2610  -28.6200   20.8380 C   0  0  0  0  0  3  0  0  0  0  0  0
  -26.1110  -26.9390   19.5360 C   0  0  0  0  0  3  0  0  0  0  0  0
  -24.9440  -27.7230   19.5270 C   0  0  0  0  0  3  0  0  0  0  0  0
  -23.6780  -29.8330   20.2040 C   0  0  0  0  0  2  0  0  0  0  0  0
  -24.6800  -31.0860   22.1630 N   0  0  0  0  0  0  0  0  0  0  0  0
  -23.4860  -32.1570   23.7760 O   0  0  0  0  0  0  0  0  0  0  0  0
  -22.7430  -29.4750   22.5200 C   0  0  0  0  0  0  0  0  0  0  0  0
  -21.4140  -29.3200   22.3830 N   0  0  0  0  0  0  0  0  0  0  0  0
  -23.4050  -28.8300   23.3380 O   0  0  0  0  0  0  0  0  0  0  0  0
  -20.9390  -29.8850   21.6940 H   0  0  0  0  0  0  0  0  0  0  0  0
  -18.0270  -28.1400   22.8440 C   0  0  0  0  0  0  0  0  0  0  0  0
  -20.5850  -28.3710   23.1260 C   0  0  0  0  0  3  0  0  0  0  0  0
  -20.6820  -26.9590   22.5060 C   0  0  0  0  0  2  0  0  0  0  0  0
  -19.5760  -26.6620   21.4880 C   0  0  0  0  0  2  0  0  0  0  0  0
  -18.1950  -26.8070   22.1320 C   0  0  0  0  0  2  0  0  0  0  0  0
  -19.1500  -28.8790   23.2970 C   0  0  0  0  0  0  0  0  0  0  0  0
  -18.9420  -30.1300   23.9180 C   0  0  0  0  0  3  0  0  0  0  0  0
  -17.6420  -30.6390   24.0970 C   0  0  0  0  0  3  0  0  0  0  0  0
  -16.5320  -29.8970   23.6590 C   0  0  0  0  0  3  0  0  0  0  0  0
  -16.7250  -28.6500   23.0350 C   0  0  0  0  0  3  0  0  0  0  0  0
  -25.8480  -32.5200   23.9220 C   0  0  0  0  0  3  0  0  0  0  0  0
  -25.5270  -33.9170   24.2480 N   0  0  0  0  0  0  0  0  0  0  0  0
  -25.8770  -34.9750   23.5050 C   0  0  0  0  0  0  0  0  0  0  0  0
  -26.5710  -34.8770   22.4900 O   0  0  0  0  0  0  0  0  0  0  0  0
  -24.9120  -34.0650   25.0350 H   0  0  0  0  0  0  0  0  0  0  0  0
  -24.1660  -36.7770   23.1070 C   0  0  0  0  0  1  0  0  0  0  0  0
  -25.3750  -36.3590   23.9590 C   0  0  0  0  0  3  0  0  0  0  0  0
  -27.4700  -37.2430   24.8850 C   0  0  0  0  0  1  0  0  0  0  0  0
  -26.4100  -37.4130   23.8930 N   0  0  0  0  0  0  0  0  0  0  0  0
  -25.9990  -38.3320   24.0260 H   0  0  0  0  0  0  0  0  0  0  0  0
  -26.3270  -31.7480   25.2140 C   0  0  1  0  0  0  0  0  0  0  0  0
  -25.2030  -31.5020   26.2470 C   0  0  0  0  0  1  0  0  0  0  0  0
  -26.9280  -30.3720   24.8430 C   0  0  0  0  0  1  0  0  0  0  0  0
  -27.4530  -32.5480   25.9130 C   0  0  0  0  0  1  0  0  0  0  0  0
  1  3  1  0
  1 11  1  0
  2  3  1  0
  2 55  1  0
  3  6  1  0
  4  1  2  0
  5  2  2  0
  7  4  1  0
  8  4  1  0
  9 13  1  0
 10 13  2  0
 11  9  2  0
 12 10  1  0
 13 15  1  0
 14 11  1  0
 14 12  2  0
 16 14  1  0
 17 25  1  0
 18 23  1  0
 19 20  1  0
 19 18  1  0
 21 20  1  0
 21 30  1  0
 21 22  1  0
 23 17  1  0
 23 22  1  0
 24 17  2  0
 25 12  1  0
 26 25  1  0
 27 28  2  0
 28 47  1  0
 29 28  1  0
 29 32  1  0
 30 31  1  0
 30 27  1  0
 31 29  2  0
 32 33  1  0
 33 34  2  0
 35 38  1  0
 35 34  1  0
 36 35  2  0
 37 36  1  0
 37 32  2  0
 38 39  1  0
 39 40  1  0
 40 41  2  0
 42 41  1  0
 42 46  1  0
 43 42  2  0
 44 39  2  0
 44 43  1  0
 45 44  1  0
 47 48  1  0
 48 51  1  0
 48 50  1  0
 49 47  2  0
 52 53  1  0
 52 27  1  0
 54 52  1  0
 55 56  1  0
 57 59  1  0
 57 55  1  0
 58 69  2  0
 59 64  1  0
 60 68  1  0
 60 70  1  0
 61 67  1  0
 61 63  1  0
 62 68  1  0
 63 64  2  0
 63 62  1  0
 65 59  2  0
 66 65  1  0
 66 61  2  0
 67 60  1  0
 68 58  1  0
 70 72  2  0
 71 70  1  0
 73 71  1  0
 74 83  2  0
 74 79  1  0
 75 71  1  0
 75 79  1  0
 76 75  1  0
 77 78  1  0
 77 76  1  0
 78 74  1  0
 79 80  2  0
 80 81  1  0
 82 81  2  0
 83 82  1  0
 84 58  1  0
 84 85  1  0
 84 94  1  0
 85 88  1  0
 86 90  1  0
 86 85  1  0
 87 86  2  0
 90 89  1  0
 92 90  1  0
 92 93  1  0
 92 91  1  0
 94 97  1  1
 94 95  1  0
 96 94  1  0
M  ISO  4  17 100  25 100  55 101  57 101
M  END
>  <TORSDO>  (75) 
F 18

>  <SCORE>  (75) 
-14.784

>  <name>  (75) 
75

>  <ligand_id>  (75) 
75

>  <original_smiles>  (75) 
[H]c1c([H])c([H])c2c(c1[H])C([H])([H])C([H])([H])C([H])([H])C2([H])N([H])C(=O)C1([H])N(C(=O)C([H])(N([H])C(=O)C([H])(N([H])C([H])([H])[H])C([H])([H])[H])C(C([H])([H])[H])(C([H])([H])[H])C([H])([H])[H])C([H])([H])c2c([H])c(OC([H])(F)C(=O)N([H])C(c3c([H])c(F)c([H])c(N([H])C(=O)N4C([H])([H])C([H])([H])C([H])([H])C([H])(n5nc(-c6c([H])c([H])c(Oc7c([H])c([H])c(F)c([H])c7F)c([H])c6[H])c(C(=O)N([H])[H])c5N([H])[H])C4([H])[H])c3F)=[N+]([H])[H])c([H])c([H])c2C1([H])[H]

>  <smiles>  (75) 
[H]c1c([H])c([H])c2c(c1[H])C([H])([H])C([H])([H])C([H])([H])C2([H])N([H])C(=O)C1([H])N(C(=O)C([H])(N([H])C(=O)C([H])(N([H])C([H])([H])[H])C([H])([H])[H])C(C([H])([H])[H])(C([H])([H])[H])C([H])([H])[H])C([H])([H])c2c([H])c(OC([H])(F)C(=O)N([H])C(c3c([H])c(F)c([H])c(N([H])C(=O)N4C([H])([H])C([H])([H])C([H])([H])C([H])(n5nc(-c6c([H])c([H])c(Oc7c([H])c([H])c(F)c([H])c7F)c([H])c6[H])c(C(=O)N([H])[H])c5N([H])[H])C4([H])[H])c3F)=[N+]([H])[H])c([H])c([H])c2C1([H])[H]

$$$$
76:0:0
     RDKit          3D

 95103  0  0  1  0  0  0  0  0999 V2000
  -28.8280  -23.2440   19.9740 C   0  0  0  0  0  0  0  0  0  0  0  0
  -28.3850  -21.9550   19.9280 N   0  0  0  0  0  0  0  0  0  0  0  0
  -29.6860  -23.6410   19.1850 O   0  0  0  0  0  0  0  0  0  0  0  0
  -27.3770  -21.9720   19.9740 H   0  0  0  0  0  0  0  0  0  0  0  0
  -28.0200  -25.4350   21.0700 C   0  0  0  0  0  3  0  0  0  0  0  0
  -28.1800  -24.0710   21.0200 C   0  0  0  0  0  0  0  0  0  0  0  0
  -27.6910  -23.3990   22.0750 O   0  0  0  0  0  0  0  0  0  0  0  0
  -27.3320  -24.0370   22.6770 H   0  0  0  0  0  0  0  0  0  0  0  0
  -28.2860  -26.4770   20.1830 O   0  0  0  0  0  0  0  0  0  0  0  0
  -24.6270  -31.8840   23.2190 C   0  0  0  0  0  0  0  0  0  0  0  0
  -27.2240  -27.3750   20.1160 C   0  0  0  0  0  0  0  0  0  0  0  0
  -23.4080  -30.4760   21.5940 C   0  0  0  0  0  3  0  0  0  0  0  0
  -24.8500  -28.9410   20.1470 C   0  0  0  0  0  0  0  0  0  0  0  0
  -25.9400  -30.8160   21.3800 C   0  0  0  0  0  2  0  0  0  0  0  0
  -26.0240  -29.4430   20.7310 C   0  0  0  0  0  0  0  0  0  0  0  0
  -27.2190  -28.6700   20.7090 C   0  0  0  0  0  3  0  0  0  0  0  0
  -26.0350  -26.9140   19.5100 C   0  0  0  0  0  3  0  0  0  0  0  0
  -24.8550  -27.6780   19.5340 C   0  0  0  0  0  3  0  0  0  0  0  0
  -23.6060  -29.8030   20.2130 C   0  0  0  0  0  2  0  0  0  0  0  0
  -24.6770  -31.0730   22.1220 N   0  0  0  0  0  0  0  0  0  0  0  0
  -23.5480  -32.1630   23.7640 O   0  0  0  0  0  0  0  0  0  0  0  0
  -22.7600  -29.4610   22.5610 C   0  0  0  0  0  0  0  0  0  0  0  0
  -21.4340  -29.2820   22.4430 N   0  0  0  0  0  0  0  0  0  0  0  0
  -23.4460  -28.8310   23.3700 O   0  0  0  0  0  0  0  0  0  0  0  0
  -20.9420  -29.8350   21.7570 H   0  0  0  0  0  0  0  0  0  0  0  0
  -18.0600  -28.0820   22.9690 C   0  0  0  0  0  0  0  0  0  0  0  0
  -20.6190  -28.3470   23.2220 C   0  0  0  0  0  3  0  0  0  0  0  0
  -20.7190  -26.9130   22.6520 C   0  0  0  0  0  2  0  0  0  0  0  0
  -19.6140  -26.5830   21.6460 C   0  0  0  0  0  2  0  0  0  0  0  0
  -18.2360  -26.7300   22.2960 C   0  0  0  0  0  2  0  0  0  0  0  0
  -19.1800  -28.8490   23.3870 C   0  0  0  0  0  0  0  0  0  0  0  0
  -18.9630  -30.1160   23.9760 C   0  0  0  0  0  3  0  0  0  0  0  0
  -17.6580  -30.6140   24.1480 C   0  0  0  0  0  3  0  0  0  0  0  0
  -16.5520  -29.8450   23.7460 C   0  0  0  0  0  3  0  0  0  0  0  0
  -16.7540  -28.5810   23.1640 C   0  0  0  0  0  3  0  0  0  0  0  0
  -25.9210  -32.5130   23.8280 C   0  0  0  0  0  3  0  0  0  0  0  0
  -26.4630  -31.7310   25.0890 C   0  0  1  0  0  0  0  0  0  0  0  0
  -25.3900  -31.4870   26.1710 C   0  0  0  0  0  1  0  0  0  0  0  0
  -27.0430  -30.3560   24.6750 C   0  0  0  0  0  1  0  0  0  0  0  0
  -27.6240  -32.5210   25.7410 C   0  0  0  0  0  1  0  0  0  0  0  0
  -25.6170  -33.9070   24.1790 N   0  0  0  0  0  0  0  0  0  0  0  0
  -25.9180  -34.9660   23.4160 C   0  0  0  0  0  0  0  0  0  0  0  0
  -26.5640  -34.8740   22.3680 O   0  0  0  0  0  0  0  0  0  0  0  0
  -25.0570  -34.0510   25.0060 H   0  0  0  0  0  0  0  0  0  0  0  0
  -24.1670  -36.7450   23.1080 C   0  0  0  0  0  1  0  0  0  0  0  0
  -25.4270  -36.3460   23.8930 C   0  0  0  0  0  3  0  0  0  0  0  0
  -27.5740  -37.2360   24.6860 C   0  0  0  0  0  1  0  0  0  0  0  0
  -26.4480  -37.4090   23.7730 N   0  0  0  0  0  0  0  0  0  0  0  0
  -26.0380  -38.3230   23.9470 H   0  0  0  0  0  0  0  0  0  0  0  0
  -28.8300  -20.8080   20.7780 C   0  0  0  0  0  2  0  0  0  0  0  0
  -29.3880  -18.2540   20.5680 C   0  0  0  0  0  3  0  0  0  0  0  0
  -30.5920  -19.8540   19.1820 C   0  0  0  0  0  3  0  0  0  0  0  0
  -31.1250  -17.4600   19.0770 C   0  0  0  0  0  3  0  0  0  0  0  0
  -29.5960  -19.6110   20.1450 C   0  0  0  0  0  0  0  0  0  0  0  0
  -30.1460  -17.1460   20.0580 C   0  0  0  0  0  0  0  0  0  0  0  0
  -31.3490  -18.7890   18.6570 C   0  0  0  0  0  0  0  0  0  0  0  0
  -32.3050  -19.0500   17.7340 F   0  0  0  0  0  0  0  0  0  0  0  0
  -30.6370  -14.6390   20.3340 C   0  0  0  0  0  0  0  0  0  0  0  0
  -30.3730  -12.3950   19.3460 C   0  0  0  0  0  2  0  0  0  0  0  0
  -29.4320  -12.5050   18.1290 C   0  0  0  0  0  2  0  0  0  0  0  0
  -27.9620  -12.3520   18.5650 C   0  0  0  0  0  2  0  0  0  0  0  0
  -27.6010  -13.2440   19.7850 C   0  0  0  0  0  3  0  0  0  0  0  0
  -28.6650  -13.1430   20.9020 C   0  0  0  0  0  2  0  0  0  0  0  0
  -29.9740  -13.4430   20.3040 N   0  0  0  0  0  0  0  0  0  0  0  0
  -31.8310  -14.7090   20.0370 O   0  0  0  0  0  0  0  0  0  0  0  0
  -29.8810  -15.7700   20.4900 N   0  0  0  0  0  0  0  0  0  0  0  0
  -28.9530  -15.6000   20.8420 H   0  0  0  0  0  0  0  0  0  0  0  0
  -25.2150  -13.8440   20.5170 C   0  0  0  0  0  0  0  0  0  0  0  0
  -24.1500  -13.0710   20.8910 C   0  0  0  0  0  0  0  0  0  0  0  0
  -24.6110  -11.7190   20.8620 C   0  0  0  0  0  0  0  0  0  0  0  0
  -26.2570  -12.9620   20.2790 N   0  0  0  0  0  0  0  0  0  0  0  0
  -25.9010  -11.6800   20.5480 N   0  0  0  0  0  0  0  0  0  0  0  0
  -23.8810  -10.4580   21.0540 C   0  0  0  0  0  0  0  0  0  0  0  0
  -24.3240   -9.4850   21.9750 C   0  0  0  0  0  3  0  0  0  0  0  0
  -23.5990   -8.2880   22.1570 C   0  0  0  0  0  3  0  0  0  0  0  0
  -22.4150   -8.0560   21.4160 C   0  0  0  0  0  0  0  0  0  0  0  0
  -21.9900   -9.0190   20.4810 C   0  0  0  0  0  3  0  0  0  0  0  0
  -22.7170  -10.2080   20.3000 C   0  0  0  0  0  3  0  0  0  0  0  0
  -21.6600   -6.9120   21.5080 O   0  0  0  0  0  0  0  0  0  0  0  0
  -21.6360   -6.1520   22.6510 C   0  0  0  0  0  0  0  0  0  0  0  0
  -21.2540   -6.6950   23.8970 C   0  0  0  0  0  3  0  0  0  0  0  0
  -21.1790   -5.8640   25.0320 C   0  0  0  0  0  3  0  0  0  0  0  0
  -21.4730   -4.4920   24.9200 C   0  0  0  0  0  0  0  0  0  0  0  0
  -21.8460   -3.9480   23.6790 C   0  0  0  0  0  3  0  0  0  0  0  0
  -21.9240   -4.7770   22.5460 C   0  0  0  0  0  0  0  0  0  0  0  0
  -22.2660   -4.2440   21.3480 F   0  0  0  0  0  0  0  0  0  0  0  0
  -21.3910   -3.6900   26.0090 F   0  0  0  0  0  0  0  0  0  0  0  0
  -22.7510  -13.5480   21.1600 C   0  0  0  0  0  0  0  0  0  0  0  0
  -22.0250  -12.8540   22.0300 N   0  0  0  0  0  0  0  0  0  0  0  0
  -22.3120  -14.5730   20.6410 O   0  0  0  0  0  0  0  0  0  0  0  0
  -22.3940  -12.0260   22.4750 H   0  0  0  0  0  0  0  0  0  0  0  0
  -21.0860  -13.1520   22.2510 H   0  0  0  0  0  0  0  0  0  0  0  0
  -25.3760  -15.2140   20.3400 N   0  0  0  0  0  0  0  0  0  0  0  0
  -24.5970  -15.8560   20.4290 H   0  0  0  0  0  0  0  0  0  0  0  0
  -26.2110  -15.6580   19.9770 H   0  0  0  0  0  0  0  0  0  0  0  0
  1  6  1  0
  2  4  1  0
  2  1  1  0
  2 50  1  0
  3  1  2  0
  6  5  2  0
  6  7  1  0
  7  8  1  0
  9  5  1  0
 10 21  2  0
 11  9  1  0
 11 16  1  0
 12 20  1  0
 12 22  1  0
 13 19  1  0
 13 15  1  0
 14 20  1  0
 15 14  1  0
 16 15  2  0
 17 18  1  0
 17 11  2  0
 18 13  2  0
 19 12  1  0
 20 10  1  0
 22 24  2  0
 23 22  1  0
 25 23  1  0
 26 35  2  0
 26 31  1  0
 27 23  1  0
 27 31  1  0
 28 27  1  0
 29 30  1  0
 29 28  1  0
 30 26  1  0
 31 32  2  0
 32 33  1  0
 34 33  2  0
 35 34  1  0
 36 10  1  0
 36 41  1  0
 36 37  1  0
 37 40  1  1
 37 38  1  0
 39 37  1  0
 41 44  1  0
 42 46  1  0
 42 41  1  0
 43 42  2  0
 46 45  1  0
 48 46  1  0
 48 49  1  0
 48 47  1  0
 52 54  2  0
 53 55  1  0
 54 51  1  0
 54 50  1  0
 55 66  1  0
 55 51  2  0
 56 53  2  0
 56 52  1  0
 57 56  1  0
 58 66  1  0
 59 64  1  0
 60 61  1  0
 60 59  1  0
 62 61  1  0
 62 71  1  0
 62 63  1  0
 64 58  1  0
 64 63  1  0
 65 58  2  0
 66 67  1  0
 68 69  2  0
 69 88  1  0
 70 69  1  0
 70 73  1  0
 71 68  1  0
 71 72  1  0
 72 70  2  0
 73 74  1  0
 74 75  2  0
 76 79  1  0
 76 75  1  0
 77 76  2  0
 78 77  1  0
 78 73  2  0
 79 80  1  0
 80 81  1  0
 81 82  2  0
 83 82  1  0
 83 87  1  0
 84 83  2  0
 85 80  2  0
 85 84  1  0
 86 85  1  0
 88 89  1  0
 89 92  1  0
 89 91  1  0
 90 88  2  0
 93 94  1  0
 93 68  1  0
 95 93  1  0
M  ISO  4   5 101   9 101  58 100  66 100
M  END
>  <TORSDO>  (76) 
F 20

>  <SCORE>  (76) 
-14.354

>  <name>  (76) 
76

>  <ligand_id>  (76) 
76

>  <original_smiles>  (76) 
[H]OC(C(=O)N([H])C([H])([H])c1c([H])c(F)c([H])c(N([H])C(=O)N2C([H])([H])C([H])([H])C([H])([H])C([H])(n3nc(-c4c([H])c([H])c(Oc5c([H])c([H])c(F)c([H])c5F)c([H])c4[H])c(C(=O)N([H])[H])c3N([H])[H])C2([H])[H])c1[H])=C([H])Oc1c([H])c([H])c2c(c1[H])C([H])([H])N(C(=O)C([H])(N([H])C(=O)C([H])(N([H])C([H])([H])[H])C([H])([H])[H])C(C([H])([H])[H])(C([H])([H])[H])C([H])([H])[H])C([H])(C(=O)N([H])C1([H])c3c([H])c([H])c([H])c([H])c3C([H])([H])C([H])([H])C1([H])[H])C2([H])[H]

>  <smiles>  (76) 
[H]OC(C(=O)N([H])C([H])([H])c1c([H])c(F)c([H])c(N([H])C(=O)N2C([H])([H])C([H])([H])C([H])([H])C([H])(n3nc(-c4c([H])c([H])c(Oc5c([H])c([H])c(F)c([H])c5F)c([H])c4[H])c(C(=O)N([H])[H])c3N([H])[H])C2([H])[H])c1[H])=C([H])Oc1c([H])c([H])c2c(c1[H])C([H])([H])N(C(=O)C([H])(N([H])C(=O)C([H])(N([H])C([H])([H])[H])C([H])([H])[H])C(C([H])([H])[H])(C([H])([H])[H])C([H])([H])[H])C([H])(C(=O)N([H])C1([H])c3c([H])c([H])c([H])c([H])c3C([H])([H])C([H])([H])C1([H])[H])C2([H])[H]

$$$$
77:0:0
     RDKit          3D

 98106  0  0  1  0  0  0  0  0999 V2000
  -29.4880  -20.3650   22.5150 C   0  0  0  0  0  3  0  0  0  0  0  0
  -30.7820  -20.5740   20.4790 C   0  0  0  0  0  3  0  0  0  0  0  0
  -29.8430  -19.0000   22.6260 C   0  0  0  0  0  0  0  0  0  0  0  0
  -30.7150  -18.4140   21.6670 C   0  0  0  0  0  0  0  0  0  0  0  0
  -29.9680  -21.1760   21.4640 C   0  0  0  0  0  0  0  0  0  0  0  0
  -31.1530  -19.2130   20.5830 C   0  0  0  0  0  0  0  0  0  0  0  0
  -31.9780  -18.6820   19.6470 F   0  0  0  0  0  0  0  0  0  0  0  0
  -29.6130  -22.5410   21.4650 N   0  0  0  0  0  0  0  0  0  0  0  0
  -29.3210  -22.9700   22.3410 H   0  0  0  0  0  0  0  0  0  0  0  0
  -30.0660  -23.4940   20.4400 C   0  0  0  0  0  2  0  0  0  0  0  0
  -29.7250  -24.9620   20.7910 C   0  0  0  0  0  0  0  0  0  0  0  0
  -29.8820  -25.3790   21.9460 O   0  0  0  0  0  0  0  0  0  0  0  0
  -29.1480  -25.8580   19.6740 C   0  0  0  0  0  2  0  0  0  0  0  0
  -28.9860  -27.2310   20.1030 O   0  0  0  0  0  0  0  0  0  0  0  0
  -24.5630  -31.8920   23.1840 C   0  0  0  0  0  0  0  0  0  0  0  0
  -27.7400  -27.8380   20.0430 C   0  0  0  0  0  0  0  0  0  0  0  0
  -23.5650  -30.4630   21.4320 C   0  0  0  0  0  3  0  0  0  0  0  0
  -25.2140  -29.1360   20.0100 C   0  0  0  0  0  0  0  0  0  0  0  0
  -26.0550  -31.0550   21.3700 C   0  0  0  0  0  2  0  0  0  0  0  0
  -26.2930  -29.7270   20.6760 C   0  0  0  0  0  0  0  0  0  0  0  0
  -27.5540  -29.0830   20.6950 C   0  0  0  0  0  3  0  0  0  0  0  0
  -26.6370  -27.2760   19.3540 C   0  0  0  0  0  3  0  0  0  0  0  0
  -25.3820  -27.9110   19.3470 C   0  0  0  0  0  3  0  0  0  0  0  0
  -23.8930  -29.8750   20.0350 C   0  0  0  0  0  2  0  0  0  0  0  0
  -24.7430  -31.1510   22.0550 N   0  0  0  0  0  0  0  0  0  0  0  0
  -23.4380  -32.0370   23.6840 O   0  0  0  0  0  0  0  0  0  0  0  0
  -22.9750  -29.3410   22.3170 C   0  0  0  0  0  0  0  0  0  0  0  0
  -21.6710  -29.0670   22.1470 N   0  0  0  0  0  0  0  0  0  0  0  0
  -23.6870  -28.7220   23.1110 O   0  0  0  0  0  0  0  0  0  0  0  0
  -21.1550  -29.6250   21.4810 H   0  0  0  0  0  0  0  0  0  0  0  0
  -18.3800  -27.6210   22.5140 C   0  0  0  0  0  0  0  0  0  0  0  0
  -20.9110  -28.0290   22.8420 C   0  0  0  0  0  3  0  0  0  0  0  0
  -21.1160  -26.6500   22.1750 C   0  0  0  0  0  2  0  0  0  0  0  0
  -20.0500  -26.3220   21.1260 C   0  0  0  0  0  2  0  0  0  0  0  0
  -18.6540  -26.3330   21.7560 C   0  0  0  0  0  2  0  0  0  0  0  0
  -19.4410  -28.4250   23.0100 C   0  0  0  0  0  0  0  0  0  0  0  0
  -19.1320  -29.6300   23.6760 C   0  0  0  0  0  3  0  0  0  0  0  0
  -17.7940  -30.0340   23.8530 C   0  0  0  0  0  3  0  0  0  0  0  0
  -16.7480  -29.2260   23.3750 C   0  0  0  0  0  3  0  0  0  0  0  0
  -17.0420  -28.0220   22.7110 C   0  0  0  0  0  3  0  0  0  0  0  0
  -25.7560  -32.6110   23.8880 C   0  0  0  0  0  3  0  0  0  0  0  0
  -25.3370  -33.9910   24.1700 N   0  0  0  0  0  0  0  0  0  0  0  0
  -25.6660  -35.0520   23.4230 C   0  0  0  0  0  0  0  0  0  0  0  0
  -26.4220  -34.9790   22.4510 O   0  0  0  0  0  0  0  0  0  0  0  0
  -24.6710  -34.1160   24.9190 H   0  0  0  0  0  0  0  0  0  0  0  0
  -23.8580  -36.7220   22.9070 C   0  0  0  0  0  1  0  0  0  0  0  0
  -25.0580  -36.4120   23.8170 C   0  0  0  0  0  3  0  0  0  0  0  0
  -27.0650  -37.4400   24.7840 C   0  0  0  0  0  1  0  0  0  0  0  0
  -26.0270  -37.5280   23.7620 N   0  0  0  0  0  0  0  0  0  0  0  0
  -25.5550  -38.4230   23.8650 H   0  0  0  0  0  0  0  0  0  0  0  0
  -26.2230  -31.8870   25.2100 C   0  0  1  0  0  0  0  0  0  0  0  0
  -25.0720  -31.5940   26.2010 C   0  0  0  0  0  1  0  0  0  0  0  0
  -26.9170  -30.5440   24.8810 C   0  0  0  0  0  1  0  0  0  0  0  0
  -27.2730  -32.7570   25.9410 C   0  0  0  0  0  1  0  0  0  0  0  0
  -29.2950  -18.2140   23.8100 C   0  0  0  0  0  2  0  0  0  0  0  0
  -30.0070  -18.5630   25.1310 C   0  0  0  0  0  2  0  0  0  0  0  0
  -29.1090  -18.4010   26.3580 C   0  0  0  0  0  0  0  0  0  0  0  0
  -29.7630  -17.8900   27.6330 C   0  0  0  0  0  1  0  0  0  0  0  0
  -27.9060  -18.6730   26.3300 O   0  0  0  0  0  0  0  0  0  0  0  0
  -31.3080  -17.0070   21.8630 C   0  0  0  0  0  2  0  0  0  0  0  0
  -31.0470  -14.9410   20.5040 C   0  0  0  0  0  0  0  0  0  0  0  0
  -30.6930  -12.8360   19.2630 C   0  0  0  0  0  2  0  0  0  0  0  0
  -29.7520  -13.0600   18.0650 C   0  0  0  0  0  2  0  0  0  0  0  0
  -28.2830  -12.9020   18.4970 C   0  0  0  0  0  2  0  0  0  0  0  0
  -27.9450  -13.7170   19.7730 C   0  0  0  0  0  3  0  0  0  0  0  0
  -29.0020  -13.4970   20.8780 C   0  0  0  0  0  2  0  0  0  0  0  0
  -30.3270  -13.8020   20.3130 N   0  0  0  0  0  0  0  0  0  0  0  0
  -32.1180  -15.1420   19.9270 O   0  0  0  0  0  0  0  0  0  0  0  0
  -30.5420  -15.8540   21.3540 N   0  0  0  0  0  0  0  0  0  0  0  0
  -29.6510  -15.6520   21.7800 H   0  0  0  0  0  0  0  0  0  0  0  0
  -25.5440  -14.2930   20.4990 C   0  0  0  0  0  0  0  0  0  0  0  0
  -24.4820  -13.5070   20.8530 C   0  0  0  0  0  0  0  0  0  0  0  0
  -24.9510  -12.1590   20.7920 C   0  0  0  0  0  0  0  0  0  0  0  0
  -26.5940  -13.4240   20.2480 N   0  0  0  0  0  0  0  0  0  0  0  0
  -26.2410  -12.1340   20.4820 N   0  0  0  0  0  0  0  0  0  0  0  0
  -24.2320  -10.8880   20.9570 C   0  0  0  0  0  0  0  0  0  0  0  0
  -24.6470   -9.9210   21.8970 C   0  0  0  0  0  3  0  0  0  0  0  0
  -23.9280   -8.7150   22.0500 C   0  0  0  0  0  3  0  0  0  0  0  0
  -22.7800   -8.4690   21.2590 C   0  0  0  0  0  0  0  0  0  0  0  0
  -22.3850   -9.4260   20.3070 C   0  0  0  0  0  3  0  0  0  0  0  0
  -23.1040  -10.6220   20.1540 C   0  0  0  0  0  3  0  0  0  0  0  0
  -22.0350   -7.3160   21.3200 O   0  0  0  0  0  0  0  0  0  0  0  0
  -21.9150   -6.5970   22.4830 C   0  0  0  0  0  0  0  0  0  0  0  0
  -21.4080   -7.1740   23.6670 C   0  0  0  0  0  3  0  0  0  0  0  0
  -21.2360   -6.3800   24.8190 C   0  0  0  0  0  3  0  0  0  0  0  0
  -21.5630   -5.0110   24.7870 C   0  0  0  0  0  0  0  0  0  0  0  0
  -22.0620   -4.4340   23.6060 C   0  0  0  0  0  3  0  0  0  0  0  0
  -22.2360   -5.2250   22.4570 C   0  0  0  0  0  0  0  0  0  0  0  0
  -22.6980   -4.6590   21.3150 F   0  0  0  0  0  0  0  0  0  0  0  0
  -21.3910   -4.2470   25.8900 F   0  0  0  0  0  0  0  0  0  0  0  0
  -23.0820  -13.9700   21.1370 C   0  0  0  0  0  0  0  0  0  0  0  0
  -22.3670  -13.2620   22.0050 N   0  0  0  0  0  0  0  0  0  0  0  0
  -22.6320  -14.9950   20.6270 O   0  0  0  0  0  0  0  0  0  0  0  0
  -22.7440  -12.4330   22.4380 H   0  0  0  0  0  0  0  0  0  0  0  0
  -21.4280  -13.5550   22.2370 H   0  0  0  0  0  0  0  0  0  0  0  0
  -25.7030  -15.6680   20.3490 N   0  0  0  0  0  0  0  0  0  0  0  0
  -24.9350  -16.3190   20.4710 H   0  0  0  0  0  0  0  0  0  0  0  0
  -26.5560  -16.1160   20.0390 H   0  0  0  0  0  0  0  0  0  0  0  0
  1  3  1  0
  2  6  2  0
  2  5  1  0
  3 55  1  0
  4 60  1  0
  4  3  2  0
  5  8  1  0
  5  1  2  0
  6  4  1  0
  7  6  1  0
  8  9  1  0
 10 11  1  0
 10  8  1  0
 11 12  2  0
 13 14  1  0
 13 11  1  0
 15 26  2  0
 16 14  1  0
 16 21  1  0
 17 25  1  0
 17 27  1  0
 18 24  1  0
 18 20  1  0
 19 25  1  0
 20 21  2  0
 20 19  1  0
 22 16  2  0
 23 22  1  0
 23 18  2  0
 24 17  1  0
 25 15  1  0
 27 29  2  0
 28 27  1  0
 30 28  1  0
 31 40  2  0
 31 36  1  0
 32 28  1  0
 32 36  1  0
 33 32  1  0
 34 35  1  0
 34 33  1  0
 35 31  1  0
 36 37  2  0
 37 38  1  0
 39 38  2  0
 40 39  1  0
 41 15  1  0
 41 42  1  0
 41 51  1  0
 42 45  1  0
 43 47  1  0
 43 42  1  0
 44 43  2  0
 47 46  1  0
 49 47  1  0
 49 50  1  0
 49 48  1  0
 51 54  1  1
 51 52  1  0
 53 51  1  0
 55 56  1  0
 56 57  1  0
 57 58  1  0
 59 57  2  0
 61 69  1  0
 62 67  1  0
 63 64  1  0
 63 62  1  0
 65 64  1  0
 65 74  1  0
 65 66  1  0
 67 61  1  0
 67 66  1  0
 68 61  2  0
 69 70  1  0
 69 60  1  0
 71 72  2  0
 72 91  1  0
 73 72  1  0
 73 76  1  0
 74 75  1  0
 74 71  1  0
 75 73  2  0
 76 77  1  0
 77 78  2  0
 79 82  1  0
 79 78  1  0
 80 79  2  0
 81 80  1  0
 81 76  2  0
 82 83  1  0
 83 84  1  0
 84 85  2  0
 86 85  1  0
 86 90  1  0
 87 86  2  0
 88 83  2  0
 88 87  1  0
 89 88  1  0
 91 92  1  0
 92 95  1  0
 92 94  1  0
 93 91  2  0
 96 97  1  0
 96 71  1  0
 98 96  1  0
M  ISO  4  13 101  14 101  61 100  69 100
M  END
>  <TORSDO>  (77) 
F 24

>  <SCORE>  (77) 
0.774

>  <name>  (77) 
77

>  <ligand_id>  (77) 
77

>  <original_smiles>  (77) 
[H]c1c([H])c([H])c2c(c1[H])C([H])([H])C([H])([H])C([H])([H])C2([H])N([H])C(=O)C1([H])N(C(=O)C([H])(N([H])C(=O)C([H])(N([H])C([H])([H])[H])C([H])([H])[H])C(C([H])([H])[H])(C([H])([H])[H])C([H])([H])[H])C([H])([H])c2c([H])c(OC([H])([H])C(=O)C([H])([H])N([H])c3c([H])c(F)c(C([H])([H])N([H])C(=O)N4C([H])([H])C([H])([H])C([H])([H])C([H])(n5nc(-c6c([H])c([H])c(Oc7c([H])c([H])c(F)c([H])c7F)c([H])c6[H])c(C(=O)N([H])[H])c5N([H])[H])C4([H])[H])c(C([H])([H])C([H])([H])C(=O)C([H])([H])[H])c3[H])c([H])c([H])c2C1([H])[H]

>  <smiles>  (77) 
[H]c1c([H])c([H])c2c(c1[H])C([H])([H])C([H])([H])C([H])([H])C2([H])N([H])C(=O)C1([H])N(C(=O)C([H])(N([H])C(=O)C([H])(N([H])C([H])([H])[H])C([H])([H])[H])C(C([H])([H])[H])(C([H])([H])[H])C([H])([H])[H])C([H])([H])c2c([H])c(OC([H])([H])C(=O)C([H])([H])N([H])c3c([H])c(F)c(C([H])([H])N([H])C(=O)N4C([H])([H])C([H])([H])C([H])([H])C([H])(n5nc(-c6c([H])c([H])c(Oc7c([H])c([H])c(F)c([H])c7F)c([H])c6[H])c(C(=O)N([H])[H])c5N([H])[H])C4([H])[H])c(C([H])([H])C([H])([H])C(=O)C([H])([H])[H])c3[H])c([H])c([H])c2C1([H])[H]

$$$$
78:0:0
     RDKit          3D

 96104  0  0  1  0  0  0  0  0999 V2000
  -28.4970  -22.2900   21.1060 C   0  0  0  0  0  0  0  0  0  0  0  0
  -28.3980  -21.1010   20.5020 N   0  0  0  0  0  0  0  0  0  0  0  0
  -28.5750  -22.4160   22.3320 O   0  0  0  0  0  0  0  0  0  0  0  0
  -28.3480  -21.0930   19.4940 H   0  0  0  0  0  0  0  0  0  0  0  0
  -28.5560  -23.3760   20.1400 C   0  0  0  0  0  3  0  0  0  0  0  0
  -28.9130  -24.6390   20.4570 C   0  0  0  0  0  0  0  0  0  0  0  0
  -29.2350  -25.0580   21.6960 O   0  0  0  0  0  0  0  0  0  0  0  0
  -29.1550  -24.3090   22.2780 H   0  0  0  0  0  0  0  0  0  0  0  0
  -29.0240  -25.7740   19.4500 C   0  0  0  0  0  2  0  0  0  0  0  0
  -28.7890  -27.0500   20.0360 O   0  0  0  0  0  0  0  0  0  0  0  0
  -24.6520  -31.8030   23.2570 C   0  0  0  0  0  0  0  0  0  0  0  0
  -27.5320  -27.6140   20.0580 C   0  0  0  0  0  0  0  0  0  0  0  0
  -23.5210  -30.4030   21.5600 C   0  0  0  0  0  3  0  0  0  0  0  0
  -25.0520  -28.9760   20.1060 C   0  0  0  0  0  0  0  0  0  0  0  0
  -26.0240  -30.8910   21.3930 C   0  0  0  0  0  2  0  0  0  0  0  0
  -26.1760  -29.5460   20.7120 C   0  0  0  0  0  0  0  0  0  0  0  0
  -27.4130  -28.8710   20.6880 C   0  0  0  0  0  3  0  0  0  0  0  0
  -26.3810  -27.0350   19.4690 C   0  0  0  0  0  3  0  0  0  0  0  0
  -25.1480  -27.7170   19.4880 C   0  0  0  0  0  3  0  0  0  0  0  0
  -23.7690  -29.7710   20.1630 C   0  0  0  0  0  2  0  0  0  0  0  0
  -24.7490  -31.0450   22.1300 N   0  0  0  0  0  0  0  0  0  0  0  0
  -23.5570  -32.0090   23.7990 O   0  0  0  0  0  0  0  0  0  0  0  0
  -22.9120  -29.3230   22.4830 C   0  0  0  0  0  0  0  0  0  0  0  0
  -21.6100  -29.0510   22.3010 N   0  0  0  0  0  0  0  0  0  0  0  0
  -23.6090  -28.7340   23.3140 O   0  0  0  0  0  0  0  0  0  0  0  0
  -21.1090  -29.5820   21.6020 H   0  0  0  0  0  0  0  0  0  0  0  0
  -18.3180  -27.6040   22.6350 C   0  0  0  0  0  0  0  0  0  0  0  0
  -20.8330  -28.0480   23.0290 C   0  0  0  0  0  3  0  0  0  0  0  0
  -21.0680  -26.6350   22.4470 C   0  0  0  0  0  2  0  0  0  0  0  0
  -20.0420  -26.2410   21.3800 C   0  0  0  0  0  2  0  0  0  0  0  0
  -18.6260  -26.2790   21.9600 C   0  0  0  0  0  2  0  0  0  0  0  0
  -19.3550  -28.4420   23.1220 C   0  0  0  0  0  0  0  0  0  0  0  0
  -19.0160  -29.6820   23.7060 C   0  0  0  0  0  3  0  0  0  0  0  0
  -17.6720  -30.0860   23.8130 C   0  0  0  0  0  3  0  0  0  0  0  0
  -16.6480  -29.2440   23.3450 C   0  0  0  0  0  3  0  0  0  0  0  0
  -16.9710  -28.0060   22.7610 C   0  0  0  0  0  3  0  0  0  0  0  0
  -25.9060  -32.4670   23.9070 C   0  0  0  0  0  3  0  0  0  0  0  0
  -25.5590  -33.8600   24.2150 N   0  0  0  0  0  0  0  0  0  0  0  0
  -25.8910  -34.9130   23.4550 C   0  0  0  0  0  0  0  0  0  0  0  0
  -26.5910  -34.8150   22.4440 O   0  0  0  0  0  0  0  0  0  0  0  0
  -24.9410  -34.0100   24.9980 H   0  0  0  0  0  0  0  0  0  0  0  0
  -24.1310  -36.6550   23.0300 C   0  0  0  0  0  1  0  0  0  0  0  0
  -25.3560  -36.2920   23.8840 C   0  0  0  0  0  3  0  0  0  0  0  0
  -27.4410  -37.2350   24.7700 C   0  0  0  0  0  1  0  0  0  0  0  0
  -26.3630  -37.3700   23.7920 N   0  0  0  0  0  0  0  0  0  0  0  0
  -25.9290  -38.2790   23.9260 H   0  0  0  0  0  0  0  0  0  0  0  0
  -26.4080  -31.7180   25.2000 C   0  0  1  0  0  0  0  0  0  0  0  0
  -25.2910  -31.4390   26.2340 C   0  0  0  0  0  1  0  0  0  0  0  0
  -27.0570  -30.3650   24.8260 C   0  0  0  0  0  1  0  0  0  0  0  0
  -27.5060  -32.5570   25.8970 C   0  0  0  0  0  1  0  0  0  0  0  0
  -28.4580  -19.7960   21.1560 C   0  0  0  0  0  2  0  0  0  0  0  0
  -29.5300  -17.5410   20.6700 C   0  0  0  0  0  3  0  0  0  0  0  0
  -30.8070  -19.5560   20.1790 C   0  0  0  0  0  3  0  0  0  0  0  0
  -31.7530  -17.3640   19.6830 C   0  0  0  0  0  3  0  0  0  0  0  0
  -29.6240  -18.9490   20.6580 C   0  0  0  0  0  0  0  0  0  0  0  0
  -30.5830  -16.7360   20.1720 C   0  0  0  0  0  0  0  0  0  0  0  0
  -31.8640  -18.7670   19.6930 C   0  0  0  0  0  0  0  0  0  0  0  0
  -32.9900  -19.3600   19.2320 F   0  0  0  0  0  0  0  0  0  0  0  0
  -31.0310  -14.3500   19.5310 C   0  0  0  0  0  0  0  0  0  0  0  0
  -30.6550  -12.1180   18.5490 C   0  0  0  0  0  2  0  0  0  0  0  0
  -29.5950  -12.2310   17.4340 C   0  0  0  0  0  2  0  0  0  0  0  0
  -28.1700  -12.1220   18.0140 C   0  0  0  0  0  2  0  0  0  0  0  0
  -27.9540  -13.0530   19.2380 C   0  0  0  0  0  3  0  0  0  0  0  0
  -29.1070  -12.8890   20.2520 C   0  0  0  0  0  2  0  0  0  0  0  0
  -30.3740  -13.1590   19.5470 N   0  0  0  0  0  0  0  0  0  0  0  0
  -32.0600  -14.5380   18.8770 O   0  0  0  0  0  0  0  0  0  0  0  0
  -30.4070  -15.3230   20.2220 N   0  0  0  0  0  0  0  0  0  0  0  0
  -29.5670  -15.0070   20.6840 H   0  0  0  0  0  0  0  0  0  0  0  0
  -25.6970  -13.7490   20.2630 C   0  0  0  0  0  0  0  0  0  0  0  0
  -24.6400  -13.0150   20.7270 C   0  0  0  0  0  0  0  0  0  0  0  0
  -25.0160  -11.6450   20.5780 C   0  0  0  0  0  0  0  0  0  0  0  0
  -26.6520  -12.8280   19.8630 N   0  0  0  0  0  0  0  0  0  0  0  0
  -26.2530  -11.5540   20.1070 N   0  0  0  0  0  0  0  0  0  0  0  0
  -24.2500  -10.4130   20.7970 C   0  0  0  0  0  0  0  0  0  0  0  0
  -24.6580   -9.4450   21.7410 C   0  0  0  0  0  3  0  0  0  0  0  0
  -23.8930   -8.2760   21.9460 C   0  0  0  0  0  3  0  0  0  0  0  0
  -22.7050   -8.0680   21.2060 C   0  0  0  0  0  0  0  0  0  0  0  0
  -22.3160   -9.0240   20.2510 C   0  0  0  0  0  3  0  0  0  0  0  0
  -23.0820  -10.1830   20.0440 C   0  0  0  0  0  3  0  0  0  0  0  0
  -21.9120   -6.9520   21.3210 O   0  0  0  0  0  0  0  0  0  0  0  0
  -21.7470   -6.3070   22.5210 C   0  0  0  0  0  0  0  0  0  0  0  0
  -21.2140   -6.9610   23.6530 C   0  0  0  0  0  3  0  0  0  0  0  0
  -20.9930   -6.2410   24.8440 C   0  0  0  0  0  3  0  0  0  0  0  0
  -21.3020   -4.8670   24.9040 C   0  0  0  0  0  0  0  0  0  0  0  0
  -21.8290   -4.2150   23.7770 C   0  0  0  0  0  3  0  0  0  0  0  0
  -22.0480   -4.9320   22.5870 C   0  0  0  0  0  0  0  0  0  0  0  0
  -22.5360   -4.2920   21.4970 F   0  0  0  0  0  0  0  0  0  0  0  0
  -21.0830   -4.1720   26.0450 F   0  0  0  0  0  0  0  0  0  0  0  0
  -23.3170  -13.5470   21.1950 C   0  0  0  0  0  0  0  0  0  0  0  0
  -22.6660  -12.8470   22.1200 N   0  0  0  0  0  0  0  0  0  0  0  0
  -22.8740  -14.6150   20.7760 O   0  0  0  0  0  0  0  0  0  0  0  0
  -23.0400  -11.9800   22.4760 H   0  0  0  0  0  0  0  0  0  0  0  0
  -21.7820  -13.1850   22.4740 H   0  0  0  0  0  0  0  0  0  0  0  0
  -25.9200  -15.1160   20.1290 N   0  0  0  0  0  0  0  0  0  0  0  0
  -25.2070  -15.8040   20.3480 H   0  0  0  0  0  0  0  0  0  0  0  0
  -26.7410  -15.5210   19.6970 H   0  0  0  0  0  0  0  0  0  0  0  0
  1  3  2  0
  2  1  1  0
  2 51  1  0
  4  2  1  0
  5  6  2  0
  5  1  1  0
  6  7  1  0
  7  8  1  0
  9 10  1  0
  9  6  1  0
 10 12  1  0
 11 22  2  0
 12 17  1  0
 13 21  1  0
 13 23  1  0
 14 20  1  0
 14 16  1  0
 15 21  1  0
 16 15  1  0
 17 16  2  0
 18 19  1  0
 18 12  2  0
 19 14  2  0
 20 13  1  0
 21 11  1  0
 23 25  2  0
 24 23  1  0
 26 24  1  0
 27 36  2  0
 27 32  1  0
 28 24  1  0
 28 32  1  0
 29 28  1  0
 30 31  1  0
 30 29  1  0
 31 27  1  0
 32 33  2  0
 33 34  1  0
 35 34  2  0
 36 35  1  0
 37 11  1  0
 37 38  1  0
 37 47  1  0
 38 41  1  0
 39 43  1  0
 39 38  1  0
 40 39  2  0
 43 42  1  0
 45 43  1  0
 45 46  1  0
 45 44  1  0
 47 50  1  1
 47 48  1  0
 49 47  1  0
 53 55  2  0
 54 57  2  0
 54 56  1  0
 55 52  1  0
 55 51  1  0
 56 67  1  0
 56 52  2  0
 57 53  1  0
 58 57  1  0
 59 65  1  0
 59 67  1  0
 60 65  1  0
 61 62  1  0
 61 60  1  0
 63 62  1  0
 63 72  1  0
 63 64  1  0
 65 64  1  0
 66 59  2  0
 67 68  1  0
 69 70  2  0
 70 89  1  0
 71 70  1  0
 71 74  1  0
 72 73  1  0
 72 69  1  0
 73 71  2  0
 74 75  1  0
 75 76  2  0
 77 80  1  0
 77 76  1  0
 78 77  2  0
 79 78  1  0
 79 74  2  0
 80 81  1  0
 81 86  2  0
 81 82  1  0
 82 83  2  0
 83 84  1  0
 84 88  1  0
 85 84  2  0
 86 85  1  0
 87 86  1  0
 89 90  1  0
 90 93  1  0
 90 92  1  0
 91 89  2  0
 94 69  1  0
 94 95  1  0
 96 94  1  0
M  ISO  4   9 101  10 101  59 100  67 100
M  END
>  <TORSDO>  (78) 
F 21

>  <SCORE>  (78) 
-12.445

>  <name>  (78) 
78

>  <ligand_id>  (78) 
78

>  <original_smiles>  (78) 
[H]OC(=C([H])C(=O)N([H])C([H])([H])c1c([H])c(F)c([H])c(N([H])C(=O)N2C([H])([H])C([H])([H])C([H])([H])C([H])(n3nc(-c4c([H])c([H])c(Oc5c([H])c([H])c(F)c([H])c5F)c([H])c4[H])c(C(=O)N([H])[H])c3N([H])[H])C2([H])[H])c1[H])C([H])([H])Oc1c([H])c([H])c2c(c1[H])C([H])([H])N(C(=O)C([H])(N([H])C(=O)C([H])(N([H])C([H])([H])[H])C([H])([H])[H])C(C([H])([H])[H])(C([H])([H])[H])C([H])([H])[H])C([H])(C(=O)N([H])C1([H])c3c([H])c([H])c([H])c([H])c3C([H])([H])C([H])([H])C1([H])[H])C2([H])[H]

>  <smiles>  (78) 
[H]OC(=C([H])C(=O)N([H])C([H])([H])c1c([H])c(F)c([H])c(N([H])C(=O)N2C([H])([H])C([H])([H])C([H])([H])C([H])(n3nc(-c4c([H])c([H])c(Oc5c([H])c([H])c(F)c([H])c5F)c([H])c4[H])c(C(=O)N([H])[H])c3N([H])[H])C2([H])[H])c1[H])C([H])([H])Oc1c([H])c([H])c2c(c1[H])C([H])([H])N(C(=O)C([H])(N([H])C(=O)C([H])(N([H])C([H])([H])[H])C([H])([H])[H])C(C([H])([H])[H])(C([H])([H])[H])C([H])([H])[H])C([H])(C(=O)N([H])C1([H])c3c([H])c([H])c([H])c([H])c3C([H])([H])C([H])([H])C1([H])[H])C2([H])[H]

$$$$
79:0:0
     RDKit          3D

 98106  0  0  1  0  0  0  0  0999 V2000
  -30.0320  -24.5160   17.8530 C   0  0  0  0  0  3  0  0  0  0  0  0
  -30.3860  -25.2850   18.8130 N   0  0  0  0  0  0  0  0  0  0  0  0
  -29.0850  -24.3520   22.7290 C   0  0  0  0  0  3  0  0  0  0  0  0
  -30.5390  -23.9140   20.8320 C   0  0  0  0  0  3  0  0  0  0  0  0
  -28.5120  -25.4630   22.0700 C   0  0  0  0  0  0  0  0  0  0  0  0
  -28.9750  -25.8020   20.7570 C   0  0  0  0  0  0  0  0  0  0  0  0
  -29.9930  -25.0190   20.1380 C   0  0  0  0  0  0  0  0  0  0  0  0
  -30.0890  -23.5860   22.1190 C   0  0  0  0  0  0  0  0  0  0  0  0
  -30.6170  -22.5200   22.7680 F   0  0  0  0  0  0  0  0  0  0  0  0
  -27.4540  -26.2420   22.7810 C   0  0  0  0  0  3  0  0  0  0  0  0
  -26.9810  -27.3770   22.4150 N   0  0  0  0  0  0  0  0  0  0  0  0
  -25.9030  -27.8900   23.1390 C   0  0  0  0  0  0  0  0  0  0  0  0
  -23.4360  -27.7860   23.2350 C   0  0  0  0  0  2  0  0  0  0  0  0
  -23.0100  -26.3150   23.4180 C   0  0  0  0  0  2  0  0  0  0  0  0
  -22.8900  -25.6050   22.0540 C   0  0  0  0  0  2  0  0  0  0  0  0
  -24.1320  -25.8330   21.1490 C   0  0  0  0  0  3  0  0  0  0  0  0
  -24.5120  -27.3300   21.1080 C   0  0  0  0  0  2  0  0  0  0  0  0
  -24.7080  -27.7890   22.4950 N   0  0  0  0  0  0  0  0  0  0  0  0
  -25.9520  -28.2910   24.3080 O   0  0  0  0  0  0  0  0  0  0  0  0
  -24.2380  -24.0310   19.3150 C   0  0  0  0  0  0  0  0  0  0  0  0
  -23.7750  -24.0100   18.0270 C   0  0  0  0  0  0  0  0  0  0  0  0
  -23.1780  -25.2870   17.8000 C   0  0  0  0  0  0  0  0  0  0  0  0
  -23.9250  -25.2880   19.8100 N   0  0  0  0  0  0  0  0  0  0  0  0
  -23.3270  -26.0620   18.8670 N   0  0  0  0  0  0  0  0  0  0  0  0
  -22.4240  -25.8010   16.6490 C   0  0  0  0  0  0  0  0  0  0  0  0
  -23.0690  -26.4430   15.5690 C   0  0  0  0  0  3  0  0  0  0  0  0
  -22.3260  -26.9130   14.4660 C   0  0  0  0  0  3  0  0  0  0  0  0
  -20.9220  -26.7400   14.4320 C   0  0  0  0  0  0  0  0  0  0  0  0
  -20.2810  -26.1220   15.5200 C   0  0  0  0  0  3  0  0  0  0  0  0
  -21.0220  -25.6600   16.6190 C   0  0  0  0  0  3  0  0  0  0  0  0
  -20.1140  -27.1880   13.4140 O   0  0  0  0  0  0  0  0  0  0  0  0
  -20.4140  -26.9460   12.0980 C   0  0  0  0  0  0  0  0  0  0  0  0
  -20.3430  -25.6490   11.5440 C   0  0  0  0  0  3  0  0  0  0  0  0
  -20.5900  -25.4550   10.1710 C   0  0  0  0  0  3  0  0  0  0  0  0
  -20.9020  -26.5550    9.3490 C   0  0  0  0  0  0  0  0  0  0  0  0
  -20.9680  -27.8480    9.8980 C   0  0  0  0  0  3  0  0  0  0  0  0
  -20.7230  -28.0420   11.2680 C   0  0  0  0  0  0  0  0  0  0  0  0
  -20.7670  -29.2930   11.7890 F   0  0  0  0  0  0  0  0  0  0  0  0
  -21.1330  -26.3720    8.0280 F   0  0  0  0  0  0  0  0  0  0  0  0
  -23.7970  -22.8400   17.0860 C   0  0  0  0  0  0  0  0  0  0  0  0
  -23.4050  -23.0510   15.8360 N   0  0  0  0  0  0  0  0  0  0  0  0
  -24.2100  -21.7380   17.4450 O   0  0  0  0  0  0  0  0  0  0  0  0
  -23.0820  -23.9600   15.5370 H   0  0  0  0  0  0  0  0  0  0  0  0
  -23.4250  -22.2940   15.1660 H   0  0  0  0  0  0  0  0  0  0  0  0
  -24.8790  -23.0890   20.1130 N   0  0  0  0  0  0  0  0  0  0  0  0
  -25.0810  -22.1460   19.7960 H   0  0  0  0  0  0  0  0  0  0  0  0
  -25.1420  -23.2520   21.0770 H   0  0  0  0  0  0  0  0  0  0  0  0
  -27.2500  -26.5950   19.0420 C   0  0  0  0  0  1  0  0  0  0  0  0
  -28.3850  -26.9980   19.9930 C   0  0  0  0  0  2  0  0  0  0  0  0
  -30.3690  -24.8260   16.3970 C   0  0  0  0  0  3  0  0  0  0  0  0
  -30.6920  -23.5770   15.6870 N   0  0  0  0  0  4  0  0  0  0  0  0
  -29.8290  -23.1100   15.4710 H   0  0  0  0  0  0  0  0  0  0  0  0
  -31.2470  -23.0010   16.2950 H   0  0  0  0  0  0  0  0  0  0  0  0
  -31.1810  -23.7660   14.8310 H   0  0  0  0  0  0  0  0  0  0  0  0
  -29.1950  -25.4840   15.6470 C   0  0  0  0  0  0  0  0  0  0  0  0
  -28.4690  -24.8610   14.8580 O   0  0  0  0  0  0  0  0  0  0  0  0
  -28.9520  -26.9810   15.8700 C   0  0  0  0  0  2  0  0  0  0  0  0
  -30.0020  -27.7100   15.2350 O   0  0  0  0  0  0  0  0  0  0  0  0
  -36.7870  -29.7320   15.6660 C   0  0  0  0  0  0  0  0  0  0  0  0
  -30.9710  -28.2700   16.0370 C   0  0  0  0  0  0  0  0  0  0  0  0
  -35.5210  -29.7940   17.7900 C   0  0  0  0  0  3  0  0  0  0  0  0
  -32.9970  -29.4900   17.5830 C   0  0  0  0  0  0  0  0  0  0  0  0
  -34.3250  -30.0900   15.5490 C   0  0  0  0  0  2  0  0  0  0  0  0
  -33.1040  -29.4630   16.1880 C   0  0  0  0  0  0  0  0  0  0  0  0
  -32.0890  -28.8640   15.4130 C   0  0  0  0  0  3  0  0  0  0  0  0
  -30.8800  -28.2950   17.4480 C   0  0  0  0  0  3  0  0  0  0  0  0
  -31.8870  -28.9060   18.2210 C   0  0  0  0  0  3  0  0  0  0  0  0
  -34.1170  -30.1680   18.3390 C   0  0  0  0  0  2  0  0  0  0  0  0
  -35.5820  -29.8430   16.2940 N   0  0  0  0  0  0  0  0  0  0  0  0
  -37.8400  -29.6340   16.3130 O   0  0  0  0  0  0  0  0  0  0  0  0
  -35.9300  -28.4240   18.3770 C   0  0  0  0  0  0  0  0  0  0  0  0
  -36.4400  -28.4350   19.6180 N   0  0  0  0  0  0  0  0  0  0  0  0
  -35.7630  -27.3850   17.7320 O   0  0  0  0  0  0  0  0  0  0  0  0
  -36.5560  -29.3300   20.0730 H   0  0  0  0  0  0  0  0  0  0  0  0
  -37.9510  -27.3800   22.7250 C   0  0  0  0  0  0  0  0  0  0  0  0
  -36.8590  -27.2620   20.3850 C   0  0  0  0  0  3  0  0  0  0  0  0
  -35.6550  -26.6000   21.0930 C   0  0  0  0  0  2  0  0  0  0  0  0
  -35.4440  -27.1050   22.5240 C   0  0  0  0  0  2  0  0  0  0  0  0
  -36.6890  -26.8430   23.3770 C   0  0  0  0  0  2  0  0  0  0  0  0
  -38.0260  -27.5930   21.3230 C   0  0  0  0  0  0  0  0  0  0  0  0
  -39.2100  -28.1300   20.7730 C   0  0  0  0  0  3  0  0  0  0  0  0
  -40.3050  -28.4480   21.5960 C   0  0  0  0  0  3  0  0  0  0  0  0
  -40.2330  -28.2220   22.9810 C   0  0  0  0  0  3  0  0  0  0  0  0
  -39.0600  -27.6850   23.5410 C   0  0  0  0  0  3  0  0  0  0  0  0
  -36.9050  -29.7450   14.1090 C   0  0  0  0  0  3  0  0  0  0  0  0
  -37.2980  -28.3440   13.5020 C   0  0  1  0  0  0  0  0  0  0  0  0
  -38.8150  -28.0440   13.5630 C   0  0  0  0  0  1  0  0  0  0  0  0
  -36.5620  -27.2040   14.2420 C   0  0  0  0  0  1  0  0  0  0  0  0
  -36.8560  -28.2700   12.0210 C   0  0  0  0  0  1  0  0  0  0  0  0
  -37.8980  -30.7660   13.7500 N   0  0  0  0  0  0  0  0  0  0  0  0
  -37.6010  -32.0070   13.3410 C   0  0  0  0  0  0  0  0  0  0  0  0
  -36.4420  -32.3900   13.1540 O   0  0  0  0  0  0  0  0  0  0  0  0
  -38.8650  -30.5390   13.9300 H   0  0  0  0  0  0  0  0  0  0  0  0
  -38.7190  -34.1170   14.1270 C   0  0  0  0  0  1  0  0  0  0  0  0
  -38.7740  -32.9760   13.0980 C   0  0  0  0  0  3  0  0  0  0  0  0
  -39.2170  -32.5700   10.7180 C   0  0  0  0  0  1  0  0  0  0  0  0
  -38.8000  -33.5360   11.7310 N   0  0  0  0  0  0  0  0  0  0  0  0
  -39.4260  -34.3360   11.6820 H   0  0  0  0  0  0  0  0  0  0  0  0
  1  2  2  0
  2  7  1  0
  4  8  2  0
  5  3  2  0
  5 10  1  0
  6  5  1  0
  7  6  2  0
  7  4  1  0
  8  3  1  0
  8  9  1  0
 11 10  2  0
 11 12  1  0
 12 19  2  0
 13 14  1  0
 15 14  1  0
 16 23  1  0
 16 15  1  0
 17 16  1  0
 17 18  1  0
 18 12  1  0
 18 13  1  0
 20 23  1  0
 20 45  1  0
 21 20  2  0
 22 21  1  0
 22 24  2  0
 24 23  1  0
 25 22  1  0
 26 25  2  0
 27 26  1  0
 28 27  2  0
 28 29  1  0
 29 30  2  0
 30 25  1  0
 31 28  1  0
 32 31  1  0
 33 32  1  0
 34 33  2  0
 35 36  2  0
 35 34  1  0
 36 37  1  0
 37 38  1  0
 37 32  2  0
 39 35  1  0
 40 42  2  0
 40 21  1  0
 41 40  1  0
 43 41  1  0
 44 41  1  0
 45 47  1  0
 46 45  1  0
 48 49  1  0
 49  6  1  0
 50  1  1  0
 51 53  1  0
 51 50  1  0
 52 51  1  0
 54 51  1  0
 55 57  1  0
 55 50  1  0
 56 55  2  0
 58 57  1  0
 58 60  1  0
 59 69  1  0
 59 70  2  0
 60 66  1  0
 61 68  1  0
 61 71  1  0
 62 67  1  0
 62 68  1  0
 63 64  1  0
 63 69  1  0
 64 62  2  0
 65 60  2  0
 65 64  1  0
 66 67  2  0
 69 61  1  0
 71 72  1  0
 72 74  1  0
 73 71  2  0
 75 79  1  0
 75 84  1  0
 76 72  1  0
 76 77  1  0
 76 80  1  0
 77 78  1  0
 78 79  1  0
 80 75  2  0
 81 80  1  0
 81 82  2  0
 82 83  1  0
 83 84  2  0
 85 59  1  0
 86 87  1  6
 86 85  1  0
 86 88  1  0
 89 86  1  0
 90 93  1  0
 90 85  1  0
 91 90  1  0
 92 91  2  0
 95 91  1  0
 95 94  1  0
 96 97  1  0
 97 95  1  0
 98 97  1  0
M  ISO  4  11 100  12 100  57 101  58 101
M  END
>  <TORSDO>  (79) 
F 23

>  <SCORE>  (79) 
-5.615

>  <name>  (79) 
79

>  <ligand_id>  (79) 
79

>  <original_smiles>  (79) 
[H]C(=NC(=O)N1C([H])([H])C([H])([H])C([H])([H])C([H])(n2nc(-c3c([H])c([H])c(Oc4c([H])c([H])c(F)c([H])c4F)c([H])c3[H])c(C(=O)N([H])[H])c2N([H])[H])C1([H])[H])c1c([H])c(F)c([H])c(N=C([H])C([H])(C(=O)C([H])([H])Oc2c([H])c([H])c3c(c2[H])C([H])([H])N(C(=O)C([H])(N([H])C(=O)C([H])(N([H])C([H])([H])[H])C([H])([H])[H])C(C([H])([H])[H])(C([H])([H])[H])C([H])([H])[H])C([H])(C(=O)N([H])C2([H])c4c([H])c([H])c([H])c([H])c4C([H])([H])C([H])([H])C2([H])[H])C3([H])[H])[N+]([H])([H])[H])c1C([H])([H])C([H])([H])[H]

>  <smiles>  (79) 
[H]C(=NC(=O)N1C([H])([H])C([H])([H])C([H])([H])C([H])(n2nc(-c3c([H])c([H])c(Oc4c([H])c([H])c(F)c([H])c4F)c([H])c3[H])c(C(=O)N([H])[H])c2N([H])[H])C1([H])[H])c1c([H])c(F)c([H])c(N=C([H])C([H])(C(=O)C([H])([H])Oc2c([H])c([H])c3c(c2[H])C([H])([H])N(C(=O)C([H])(N([H])C(=O)C([H])(N([H])C([H])([H])[H])C([H])([H])[H])C(C([H])([H])[H])(C([H])([H])[H])C([H])([H])[H])C([H])(C(=O)N([H])C2([H])c4c([H])c([H])c([H])c([H])c4C([H])([H])C([H])([H])C2([H])[H])C3([H])[H])[N+]([H])([H])[H])c1C([H])([H])C([H])([H])[H]

$$$$
80:0:0
     RDKit          3D

 99107  0  0  1  0  0  0  0  0999 V2000
  -29.0050  -21.3490   18.8440 C   0  0  0  0  0  3  0  0  0  0  0  0
  -29.5290  -21.4340   21.1990 C   0  0  0  0  0  3  0  0  0  0  0  0
  -29.3130  -19.2340   20.0850 C   0  0  0  0  0  0  0  0  0  0  0  0
  -29.0240  -19.9300   18.8720 C   0  0  0  0  0  0  0  0  0  0  0  0
  -29.2360  -22.1260   20.0000 C   0  0  0  0  0  0  0  0  0  0  0  0
  -29.5780  -20.0160   21.2410 C   0  0  0  0  0  0  0  0  0  0  0  0
  -29.8530  -19.4110   22.4230 F   0  0  0  0  0  0  0  0  0  0  0  0
  -29.2070  -17.7170   20.1870 C   0  0  0  0  0  0  0  0  0  0  0  0
  -30.2780  -16.9920   20.5740 N   0  0  0  0  0  0  0  0  0  0  0  0
  -28.1410  -17.1590   19.9080 O   0  0  0  0  0  0  0  0  0  0  0  0
  -31.2010  -17.3410   20.7940 H   0  0  0  0  0  0  0  0  0  0  0  0
  -30.8360  -14.6390   20.1350 C   0  0  0  0  0  0  0  0  0  0  0  0
  -30.5470  -12.4940   18.9370 C   0  0  0  0  0  2  0  0  0  0  0  0
  -29.5250  -12.7030   17.7980 C   0  0  0  0  0  2  0  0  0  0  0  0
  -28.0810  -12.5290   18.3110 C   0  0  0  0  0  2  0  0  0  0  0  0
  -27.8100  -13.3310   19.6100 C   0  0  0  0  0  3  0  0  0  0  0  0
  -28.9270  -13.0760   20.6470 C   0  0  0  0  0  2  0  0  0  0  0  0
  -30.2130  -13.4320   20.0190 N   0  0  0  0  0  0  0  0  0  0  0  0
  -31.9080  -14.9030   19.5810 O   0  0  0  0  0  0  0  0  0  0  0  0
  -30.1250  -15.5780   20.7920 N   0  0  0  0  0  0  0  0  0  0  0  0
  -29.2060  -15.3780   21.1590 H   0  0  0  0  0  0  0  0  0  0  0  0
  -25.4550  -13.9100   20.4720 C   0  0  0  0  0  0  0  0  0  0  0  0
  -24.4110  -13.1200   20.8780 C   0  0  0  0  0  0  0  0  0  0  0  0
  -24.8740  -11.7720   20.7820 C   0  0  0  0  0  0  0  0  0  0  0  0
  -26.4870  -13.0390   20.1560 N   0  0  0  0  0  0  0  0  0  0  0  0
  -26.1440  -11.7480   20.3980 N   0  0  0  0  0  0  0  0  0  0  0  0
  -24.1660  -10.5010   20.9790 C   0  0  0  0  0  0  0  0  0  0  0  0
  -24.6160   -9.5410   21.9120 C   0  0  0  0  0  3  0  0  0  0  0  0
  -23.9080   -8.3340   22.0960 C   0  0  0  0  0  3  0  0  0  0  0  0
  -22.7360   -8.0770   21.3460 C   0  0  0  0  0  0  0  0  0  0  0  0
  -22.3050   -9.0260   20.4020 C   0  0  0  0  0  3  0  0  0  0  0  0
  -23.0140  -10.2240   20.2170 C   0  0  0  0  0  3  0  0  0  0  0  0
  -21.9980   -6.9220   21.4400 O   0  0  0  0  0  0  0  0  0  0  0  0
  -21.8960   -6.2270   22.6180 C   0  0  0  0  0  0  0  0  0  0  0  0
  -21.3530   -6.8110   23.7830 C   0  0  0  0  0  3  0  0  0  0  0  0
  -21.2020   -6.0390   24.9520 C   0  0  0  0  0  3  0  0  0  0  0  0
  -21.5810   -4.6840   24.9560 C   0  0  0  0  0  0  0  0  0  0  0  0
  -22.1150   -4.0990   23.7950 C   0  0  0  0  0  3  0  0  0  0  0  0
  -22.2690   -4.8670   22.6280 C   0  0  0  0  0  0  0  0  0  0  0  0
  -22.7640   -4.2930   21.5060 F   0  0  0  0  0  0  0  0  0  0  0  0
  -21.4290   -3.9400   26.0760 F   0  0  0  0  0  0  0  0  0  0  0  0
  -23.0300  -13.5810   21.2470 C   0  0  0  0  0  0  0  0  0  0  0  0
  -22.3630  -12.8580   22.1410 N   0  0  0  0  0  0  0  0  0  0  0  0
  -22.5540  -14.6150   20.7810 O   0  0  0  0  0  0  0  0  0  0  0  0
  -22.7610  -12.0210   22.5380 H   0  0  0  0  0  0  0  0  0  0  0  0
  -21.4380  -13.1480   22.4290 H   0  0  0  0  0  0  0  0  0  0  0  0
  -25.6060  -15.2870   20.3310 N   0  0  0  0  0  0  0  0  0  0  0  0
  -24.8480  -15.9320   20.5200 H   0  0  0  0  0  0  0  0  0  0  0  0
  -26.4580  -15.7600   20.0410 H   0  0  0  0  0  0  0  0  0  0  0  0
  -27.2190  -19.1610   17.2570 C   0  0  0  0  0  1  0  0  0  0  0  0
  -28.7220  -19.2050   17.5630 C   0  0  0  0  0  2  0  0  0  0  0  0
  -29.2040  -23.5400   19.9060 N   0  0  0  0  0  0  0  0  0  0  0  0
  -29.3170  -23.8940   18.9590 H   0  0  0  0  0  0  0  0  0  0  0  0
  -28.1820  -24.2920   20.6640 C   0  0  0  0  0  2  0  0  0  0  0  0
  -28.5010  -25.7940   21.0310 C   0  0  0  0  0  3  0  0  0  0  0  0
  -29.8810  -26.0070   21.6780 C   0  0  0  0  0  0  0  0  0  0  0  0
  -30.2120  -25.1870   22.9200 C   0  0  0  0  0  1  0  0  0  0  0  0
  -30.6920  -26.8350   21.2460 O   0  0  0  0  0  0  0  0  0  0  0  0
  -28.3280  -26.7470   19.9570 O   0  0  0  0  0  0  0  0  0  0  0  0
  -24.5150  -31.8990   23.1710 C   0  0  0  0  0  0  0  0  0  0  0  0
  -27.1800  -27.5100   20.0140 C   0  0  0  0  0  0  0  0  0  0  0  0
  -23.3210  -30.5320   21.4900 C   0  0  0  0  0  3  0  0  0  0  0  0
  -24.7880  -29.0240   20.0430 C   0  0  0  0  0  0  0  0  0  0  0  0
  -25.8490  -30.8930   21.3180 C   0  0  0  0  0  2  0  0  0  0  0  0
  -25.9430  -29.5330   20.6520 C   0  0  0  0  0  0  0  0  0  0  0  0
  -27.1450  -28.7820   20.6370 C   0  0  0  0  0  3  0  0  0  0  0  0
  -26.0130  -27.0200   19.3970 C   0  0  0  0  0  3  0  0  0  0  0  0
  -24.8180  -27.7670   19.4120 C   0  0  0  0  0  3  0  0  0  0  0  0
  -23.5430  -29.8820   20.0970 C   0  0  0  0  0  2  0  0  0  0  0  0
  -24.5800  -31.1230   22.0510 N   0  0  0  0  0  0  0  0  0  0  0  0
  -23.4290  -32.1570   23.7090 O   0  0  0  0  0  0  0  0  0  0  0  0
  -22.6640  -29.4900   22.4230 C   0  0  0  0  0  0  0  0  0  0  0  0
  -21.3400  -29.3120   22.2850 N   0  0  0  0  0  0  0  0  0  0  0  0
  -23.3440  -28.8450   23.2260 O   0  0  0  0  0  0  0  0  0  0  0  0
  -20.8520  -29.8850   21.6120 H   0  0  0  0  0  0  0  0  0  0  0  0
  -17.9600  -28.1200   22.7560 C   0  0  0  0  0  0  0  0  0  0  0  0
  -20.5210  -28.3550   23.0280 C   0  0  0  0  0  3  0  0  0  0  0  0
  -20.6130  -26.9420   22.4080 C   0  0  0  0  0  2  0  0  0  0  0  0
  -19.5070  -26.6580   21.3870 C   0  0  0  0  0  2  0  0  0  0  0  0
  -18.1280  -26.7910   22.0390 C   0  0  0  0  0  2  0  0  0  0  0  0
  -19.0840  -28.8610   23.2070 C   0  0  0  0  0  0  0  0  0  0  0  0
  -18.8750  -30.1080   23.8370 C   0  0  0  0  0  3  0  0  0  0  0  0
  -17.5740  -30.6130   24.0190 C   0  0  0  0  0  3  0  0  0  0  0  0
  -16.4650  -29.8670   23.5850 C   0  0  0  0  0  3  0  0  0  0  0  0
  -16.6580  -28.6220   22.9600 C   0  0  0  0  0  3  0  0  0  0  0  0
  -25.7950  -32.5170   23.8130 C   0  0  0  0  0  3  0  0  0  0  0  0
  -25.4920  -33.9150   24.1480 N   0  0  0  0  0  0  0  0  0  0  0  0
  -25.8460  -34.9700   23.4010 C   0  0  0  0  0  0  0  0  0  0  0  0
  -26.5320  -34.8670   22.3800 O   0  0  0  0  0  0  0  0  0  0  0  0
  -24.8870  -34.0690   24.9400 H   0  0  0  0  0  0  0  0  0  0  0  0
  -24.1430  -36.7800   23.0200 C   0  0  0  0  0  1  0  0  0  0  0  0
  -25.3610  -36.3580   23.8590 C   0  0  0  0  0  3  0  0  0  0  0  0
  -27.4780  -37.2200   24.7530 C   0  0  0  0  0  1  0  0  0  0  0  0
  -26.4050  -37.4020   23.7800 N   0  0  0  0  0  0  0  0  0  0  0  0
  -26.0040  -38.3250   23.9200 H   0  0  0  0  0  0  0  0  0  0  0  0
  -26.2930  -31.7330   25.0890 C   0  0  1  0  0  0  0  0  0  0  0  0
  -25.1850  -31.4900   26.1400 C   0  0  0  0  0  1  0  0  0  0  0  0
  -26.8770  -30.3570   24.6910 C   0  0  0  0  0  1  0  0  0  0  0  0
  -27.4390  -32.5170   25.7730 C   0  0  0  0  0  1  0  0  0  0  0  0
  1  4  2  0
  1  5  1  0
  2  6  1  0
  3  8  1  0
  3  6  2  0
  4  3  1  0
  5  2  2  0
  6  7  1  0
  8  9  1  0
  9 20  1  0
  9 11  1  0
 10  8  2  0
 12 20  1  0
 13 18  1  0
 14 15  1  0
 14 13  1  0
 16 15  1  0
 16 25  1  0
 16 17  1  0
 18 12  1  0
 18 17  1  0
 19 12  2  0
 20 21  1  0
 22 23  2  0
 23 42  1  0
 24 23  1  0
 24 27  1  0
 25 26  1  0
 25 22  1  0
 26 24  2  0
 27 28  1  0
 28 29  2  0
 30 33  1  0
 30 29  1  0
 31 30  2  0
 32 31  1  0
 32 27  2  0
 33 34  1  0
 34 39  2  0
 34 35  1  0
 35 36  2  0
 36 37  1  0
 37 41  1  0
 38 37  2  0
 39 38  1  0
 40 39  1  0
 42 43  1  0
 43 46  1  0
 43 45  1  0
 44 42  2  0
 47 22  1  0
 47 48  1  0
 49 47  1  0
 50 51  1  0
 51  4  1  0
 52  5  1  0
 52 54  1  0
 53 52  1  0
 55 54  1  0
 55 56  1  0
 56 57  1  0
 58 56  2  0
 59 61  1  0
 59 55  1  0
 60 71  2  0
 61 66  1  0
 62 70  1  0
 62 72  1  0
 63 69  1  0
 63 65  1  0
 64 70  1  0
 65 64  1  0
 66 65  2  0
 67 68  1  0
 67 61  2  0
 68 63  2  0
 69 62  1  0
 70 60  1  0
 72 74  2  0
 73 72  1  0
 75 73  1  0
 76 85  2  0
 76 81  1  0
 77 73  1  0
 77 81  1  0
 78 77  1  0
 79 80  1  0
 79 78  1  0
 80 76  1  0
 81 82  2  0
 82 83  1  0
 84 83  2  0
 85 84  1  0
 86 60  1  0
 86 87  1  0
 86 96  1  0
 87 90  1  0
 88 92  1  0
 88 87  1  0
 89 88  2  0
 92 91  1  0
 94 92  1  0
 94 95  1  0
 94 93  1  0
 96 99  1  1
 96 97  1  0
 98 96  1  0
M  ISO  4  12 100  20 100  55 101  59 101
M  END
>  <TORSDO>  (80) 
F 22

>  <SCORE>  (80) 
-12.387

>  <name>  (80) 
80

>  <ligand_id>  (80) 
80

>  <original_smiles>  (80) 
[H]c1c([H])c([H])c2c(c1[H])C([H])([H])C([H])([H])C([H])([H])C2([H])N([H])C(=O)C1([H])N(C(=O)C([H])(N([H])C(=O)C([H])(N([H])C([H])([H])[H])C([H])([H])[H])C(C([H])([H])[H])(C([H])([H])[H])C([H])([H])[H])C([H])([H])c2c([H])c(OC([H])(C(=O)C([H])([H])[H])C([H])([H])N([H])c3c([H])c(F)c(C(=O)N([H])N([H])C(=O)N4C([H])([H])C([H])([H])C([H])([H])C([H])(n5nc(-c6c([H])c([H])c(Oc7c([H])c([H])c(F)c([H])c7F)c([H])c6[H])c(C(=O)N([H])[H])c5N([H])[H])C4([H])[H])c(C([H])([H])C([H])([H])[H])c3[H])c([H])c([H])c2C1([H])[H]

>  <smiles>  (80) 
[H]c1c([H])c([H])c2c(c1[H])C([H])([H])C([H])([H])C([H])([H])C2([H])N([H])C(=O)C1([H])N(C(=O)C([H])(N([H])C(=O)C([H])(N([H])C([H])([H])[H])C([H])([H])[H])C(C([H])([H])[H])(C([H])([H])[H])C([H])([H])[H])C([H])([H])c2c([H])c(OC([H])(C(=O)C([H])([H])[H])C([H])([H])N([H])c3c([H])c(F)c(C(=O)N([H])N([H])C(=O)N4C([H])([H])C([H])([H])C([H])([H])C([H])(n5nc(-c6c([H])c([H])c(Oc7c([H])c([H])c(F)c([H])c7F)c([H])c6[H])c(C(=O)N([H])[H])c5N([H])[H])C4([H])[H])c(C([H])([H])C([H])([H])[H])c3[H])c([H])c([H])c2C1([H])[H]

$$$$
81:0:0
     RDKit          3D

 99107  0  0  1  0  0  0  0  0999 V2000
  -30.8210  -20.7970   20.9750 C   0  0  0  0  0  0  0  0  0  0  0  0
  -30.3940  -22.0840   20.7970 N   0  0  0  0  0  0  0  0  0  0  0  0
  -31.7750  -20.6550   21.8950 N   0  0  0  0  0  4  0  0  0  0  0  0
  -30.8100  -22.7880   21.3960 H   0  0  0  0  0  0  0  0  0  0  0  0
  -32.0880  -19.7180   22.1070 H   0  0  0  0  0  0  0  0  0  0  0  0
  -32.1840  -21.4150   22.4160 H   0  0  0  0  0  0  0  0  0  0  0  0
  -29.8380  -18.4450   18.1390 C   0  0  0  0  0  3  0  0  0  0  0  0
  -30.1260  -19.6190   18.8650 C   0  0  0  0  0  3  0  0  0  0  0  0
  -29.8260  -17.1860   18.7730 C   0  0  0  0  0  3  0  0  0  0  0  0
  -30.3940  -19.5590   20.2500 C   0  0  0  0  0  0  0  0  0  0  0  0
  -30.1020  -17.0740   20.1540 C   0  0  0  0  0  0  0  0  0  0  0  0
  -30.3670  -18.2700   20.8870 C   0  0  0  0  0  0  0  0  0  0  0  0
  -30.6390  -18.1640   22.2120 F   0  0  0  0  0  0  0  0  0  0  0  0
  -30.7630  -14.6940   20.3720 C   0  0  0  0  0  0  0  0  0  0  0  0
  -30.4800  -12.4970   19.2900 C   0  0  0  0  0  2  0  0  0  0  0  0
  -29.5410  -12.6860   18.0800 C   0  0  0  0  0  2  0  0  0  0  0  0
  -28.0680  -12.5370   18.5090 C   0  0  0  0  0  2  0  0  0  0  0  0
  -27.7220  -13.3740   19.7710 C   0  0  0  0  0  3  0  0  0  0  0  0
  -28.7860  -13.1900   20.8800 C   0  0  0  0  0  2  0  0  0  0  0  0
  -30.1040  -13.5000   20.3050 N   0  0  0  0  0  0  0  0  0  0  0  0
  -31.9050  -14.8370   19.9310 O   0  0  0  0  0  0  0  0  0  0  0  0
  -30.0520  -15.7720   20.7830 N   0  0  0  0  0  0  0  0  0  0  0  0
  -29.2190  -15.5790   21.3190 H   0  0  0  0  0  0  0  0  0  0  0  0
  -25.3210  -13.9610   20.4830 C   0  0  0  0  0  0  0  0  0  0  0  0
  -24.2570  -13.1820   20.8500 C   0  0  0  0  0  0  0  0  0  0  0  0
  -24.7250  -11.8330   20.8170 C   0  0  0  0  0  0  0  0  0  0  0  0
  -26.3720  -13.0870   20.2540 N   0  0  0  0  0  0  0  0  0  0  0  0
  -26.0180  -11.8010   20.5130 N   0  0  0  0  0  0  0  0  0  0  0  0
  -24.0030  -10.5670   21.0030 C   0  0  0  0  0  0  0  0  0  0  0  0
  -24.4300   -9.6050   21.9450 C   0  0  0  0  0  3  0  0  0  0  0  0
  -23.7090   -8.4040   22.1200 C   0  0  0  0  0  3  0  0  0  0  0  0
  -22.5450   -8.1580   21.3520 C   0  0  0  0  0  0  0  0  0  0  0  0
  -22.1380   -9.1090   20.4000 C   0  0  0  0  0  3  0  0  0  0  0  0
  -22.8610  -10.3010   20.2230 C   0  0  0  0  0  3  0  0  0  0  0  0
  -21.7960   -7.0090   21.4360 O   0  0  0  0  0  0  0  0  0  0  0  0
  -21.7320   -6.2750   22.5920 C   0  0  0  0  0  0  0  0  0  0  0  0
  -21.2410   -6.8250   23.7970 C   0  0  0  0  0  3  0  0  0  0  0  0
  -21.1260   -6.0150   24.9450 C   0  0  0  0  0  3  0  0  0  0  0  0
  -21.4900   -4.6570   24.8880 C   0  0  0  0  0  0  0  0  0  0  0  0
  -21.9720   -4.1060   23.6880 C   0  0  0  0  0  3  0  0  0  0  0  0
  -22.0890   -4.9120   22.5420 C   0  0  0  0  0  0  0  0  0  0  0  0
  -22.5330   -4.3700   21.3820 F   0  0  0  0  0  0  0  0  0  0  0  0
  -21.3730   -3.8770   25.9880 F   0  0  0  0  0  0  0  0  0  0  0  0
  -22.8560  -13.6520   21.1220 C   0  0  0  0  0  0  0  0  0  0  0  0
  -22.1320  -12.9490   21.9860 N   0  0  0  0  0  0  0  0  0  0  0  0
  -22.4130  -14.6780   20.6070 O   0  0  0  0  0  0  0  0  0  0  0  0
  -22.5050  -12.1170   22.4210 H   0  0  0  0  0  0  0  0  0  0  0  0
  -21.1960  -13.2460   22.2170 H   0  0  0  0  0  0  0  0  0  0  0  0
  -25.4760  -15.3330   20.3040 N   0  0  0  0  0  0  0  0  0  0  0  0
  -24.6990  -15.9760   20.4070 H   0  0  0  0  0  0  0  0  0  0  0  0
  -26.3150  -15.7800   19.9600 H   0  0  0  0  0  0  0  0  0  0  0  0
  -29.4360  -22.8220   19.9170 C   0  0  0  0  0  3  0  0  0  0  0  0
  -28.0190  -22.2360   20.0190 C   0  0  0  0  0  0  0  0  0  0  0  0
  -27.3630  -22.1660   21.3930 C   0  0  0  0  0  1  0  0  0  0  0  0
  -27.4210  -21.7800   19.0440 O   0  0  0  0  0  0  0  0  0  0  0  0
  -29.5070  -24.3560   20.2880 C   0  0  0  0  0  0  0  0  0  0  0  0
  -30.3530  -24.7560   21.0970 O   0  0  0  0  0  0  0  0  0  0  0  0
  -28.5250  -25.3750   19.6290 C   0  0  0  0  0  2  0  0  0  0  0  0
  -28.5740  -26.7290   20.1990 O   0  0  0  0  0  0  0  0  0  0  0  0
  -24.7010  -31.9460   23.2860 C   0  0  0  0  0  0  0  0  0  0  0  0
  -27.4150  -27.5070   20.1650 C   0  0  0  0  0  0  0  0  0  0  0  0
  -23.5290  -30.5540   21.6160 C   0  0  0  0  0  3  0  0  0  0  0  0
  -25.0120  -29.0500   20.1830 C   0  0  0  0  0  0  0  0  0  0  0  0
  -26.0620  -30.9160   21.4600 C   0  0  0  0  0  2  0  0  0  0  0  0
  -26.1650  -29.5510   20.8000 C   0  0  0  0  0  0  0  0  0  0  0  0
  -27.3640  -28.7850   20.7930 C   0  0  0  0  0  3  0  0  0  0  0  0
  -26.2380  -27.0560   19.5180 C   0  0  0  0  0  3  0  0  0  0  0  0
  -25.0480  -27.8040   19.5390 C   0  0  0  0  0  3  0  0  0  0  0  0
  -23.7620  -29.9010   20.2300 C   0  0  0  0  0  2  0  0  0  0  0  0
  -24.7820  -31.1550   22.1790 N   0  0  0  0  0  0  0  0  0  0  0  0
  -23.6100  -32.2050   23.8160 O   0  0  0  0  0  0  0  0  0  0  0  0
  -22.8720  -29.5150   22.5550 C   0  0  0  0  0  0  0  0  0  0  0  0
  -21.5510  -29.3220   22.4120 N   0  0  0  0  0  0  0  0  0  0  0  0
  -23.5510  -28.8850   23.3700 O   0  0  0  0  0  0  0  0  0  0  0  0
  -21.0620  -29.8830   21.7270 H   0  0  0  0  0  0  0  0  0  0  0  0
  -18.1830  -28.0980   22.8680 C   0  0  0  0  0  0  0  0  0  0  0  0
  -20.7380  -28.3670   23.1630 C   0  0  0  0  0  3  0  0  0  0  0  0
  -20.8540  -26.9460   22.5640 C   0  0  0  0  0  2  0  0  0  0  0  0
  -19.7600  -26.6340   21.5380 C   0  0  0  0  0  2  0  0  0  0  0  0
  -18.3710  -26.7600   22.1730 C   0  0  0  0  0  2  0  0  0  0  0  0
  -19.2930  -28.8580   23.3210 C   0  0  0  0  0  0  0  0  0  0  0  0
  -19.0640  -30.1100   23.9320 C   0  0  0  0  0  3  0  0  0  0  0  0
  -17.7550  -30.6010   24.0950 C   0  0  0  0  0  3  0  0  0  0  0  0
  -16.6580  -29.8360   23.6630 C   0  0  0  0  0  3  0  0  0  0  0  0
  -16.8730  -28.5870   23.0550 C   0  0  0  0  0  3  0  0  0  0  0  0
  -25.9720  -32.5830   23.9270 C   0  0  0  0  0  3  0  0  0  0  0  0
  -25.6580  -33.9850   24.2350 N   0  0  0  0  0  0  0  0  0  0  0  0
  -25.9780  -35.0260   23.4550 C   0  0  0  0  0  0  0  0  0  0  0  0
  -26.6390  -34.9070   22.4190 O   0  0  0  0  0  0  0  0  0  0  0  0
  -25.0670  -34.1490   25.0350 H   0  0  0  0  0  0  0  0  0  0  0  0
  -24.2240  -36.7930   23.0980 C   0  0  0  0  0  1  0  0  0  0  0  0
  -25.4850  -36.4180   23.8910 C   0  0  0  0  0  3  0  0  0  0  0  0
  -27.6210  -37.3490   24.6660 C   0  0  0  0  0  1  0  0  0  0  0  0
  -26.5060  -37.4780   23.7320 N   0  0  0  0  0  0  0  0  0  0  0  0
  -26.0910  -38.3970   23.8610 H   0  0  0  0  0  0  0  0  0  0  0  0
  -26.4610  -31.8230   25.2220 C   0  0  1  0  0  0  0  0  0  0  0  0
  -25.3430  -31.5930   26.2660 C   0  0  0  0  0  1  0  0  0  0  0  0
  -27.0520  -30.4420   24.8550 C   0  0  0  0  0  1  0  0  0  0  0  0
  -27.5950  -32.6260   25.9020 C   0  0  0  0  0  1  0  0  0  0  0  0
  1  3  2  0
  2  1  1  0
  2  4  1  0
  3  5  1  0
  3  6  1  0
  7  9  2  0
  7  8  1  0
  8 10  2  0
  9 11  1  0
 10 12  1  0
 10  1  1  0
 11 22  1  0
 11 12  2  0
 12 13  1  0
 14 22  1  0
 15 20  1  0
 16 17  1  0
 16 15  1  0
 18 17  1  0
 18 27  1  0
 18 19  1  0
 20 14  1  0
 20 19  1  0
 21 14  2  0
 22 23  1  0
 24 25  2  0
 25 44  1  0
 26 25  1  0
 26 29  1  0
 27 24  1  0
 27 28  1  0
 28 26  2  0
 29 30  1  0
 30 31  2  0
 32 35  1  0
 32 31  1  0
 33 32  2  0
 34 33  1  0
 34 29  2  0
 35 36  1  0
 36 37  1  0
 37 38  2  0
 39 38  1  0
 39 43  1  0
 40 39  2  0
 41 36  2  0
 41 40  1  0
 42 41  1  0
 44 45  1  0
 45 48  1  0
 45 47  1  0
 46 44  2  0
 49 50  1  0
 49 24  1  0
 51 49  1  0
 52 53  1  0
 52 56  1  0
 52  2  1  0
 53 54  1  0
 55 53  2  0
 56 57  2  0
 58 59  1  0
 58 56  1  0
 60 71  2  0
 61 59  1  0
 61 66  1  0
 62 70  1  0
 62 72  1  0
 63 69  1  0
 63 65  1  0
 64 70  1  0
 65 64  1  0
 66 65  2  0
 67 68  1  0
 67 61  2  0
 68 63  2  0
 69 62  1  0
 70 60  1  0
 72 74  2  0
 73 72  1  0
 75 73  1  0
 76 85  2  0
 76 81  1  0
 77 73  1  0
 77 81  1  0
 78 77  1  0
 79 80  1  0
 79 78  1  0
 80 76  1  0
 81 82  2  0
 82 83  1  0
 84 83  2  0
 85 84  1  0
 86 60  1  0
 86 87  1  0
 86 96  1  0
 87 90  1  0
 88 92  1  0
 88 87  1  0
 89 88  2  0
 92 91  1  0
 94 95  1  0
 94 92  1  0
 94 93  1  0
 96 99  1  1
 96 97  1  0
 98 96  1  0
M  ISO  4  14 100  22 100  58 101  59 101
M  END
>  <TORSDO>  (81) 
F 21

>  <SCORE>  (81) 
-13.815

>  <name>  (81) 
81

>  <ligand_id>  (81) 
81

>  <original_smiles>  (81) 
[H]c1c([H])c(C(N([H])C([H])(C(=O)C([H])([H])[H])C(=O)C([H])([H])Oc2c([H])c([H])c3c(c2[H])C([H])([H])N(C(=O)C([H])(N([H])C(=O)C([H])(N([H])C([H])([H])[H])C([H])([H])[H])C(C([H])([H])[H])(C([H])([H])[H])C([H])([H])[H])C([H])(C(=O)N([H])C2([H])c4c([H])c([H])c([H])c([H])c4C([H])([H])C([H])([H])C2([H])[H])C3([H])[H])=[N+]([H])[H])c(F)c(N([H])C(=O)N2C([H])([H])C([H])([H])C([H])([H])C([H])(n3nc(-c4c([H])c([H])c(Oc5c([H])c([H])c(F)c([H])c5F)c([H])c4[H])c(C(=O)N([H])[H])c3N([H])[H])C2([H])[H])c1[H]

>  <smiles>  (81) 
[H]c1c([H])c(C(N([H])C([H])(C(=O)C([H])([H])[H])C(=O)C([H])([H])Oc2c([H])c([H])c3c(c2[H])C([H])([H])N(C(=O)C([H])(N([H])C(=O)C([H])(N([H])C([H])([H])[H])C([H])([H])[H])C(C([H])([H])[H])(C([H])([H])[H])C([H])([H])[H])C([H])(C(=O)N([H])C2([H])c4c([H])c([H])c([H])c([H])c4C([H])([H])C([H])([H])C2([H])[H])C3([H])[H])=[N+]([H])[H])c(F)c(N([H])C(=O)N2C([H])([H])C([H])([H])C([H])([H])C([H])(n3nc(-c4c([H])c([H])c(Oc5c([H])c([H])c(F)c([H])c5F)c([H])c4[H])c(C(=O)N([H])[H])c3N([H])[H])C2([H])[H])c1[H]

$$$$
82:0:0
     RDKit          3D

 95103  0  0  1  0  0  0  0  0999 V2000
  -29.1170  -20.5820   20.2270 N   0  0  0  0  0  0  0  0  0  0  0  0
  -28.2680  -20.3670   19.7050 H   0  0  0  0  0  0  0  0  0  0  0  0
  -31.5300  -17.3400   21.5870 C   0  0  0  0  0  3  0  0  0  0  0  0
  -31.1070  -19.7460   21.4190 C   0  0  0  0  0  3  0  0  0  0  0  0
  -30.3490  -17.0670   20.8610 C   0  0  0  0  0  0  0  0  0  0  0  0
  -29.9230  -19.5110   20.6830 C   0  0  0  0  0  0  0  0  0  0  0  0
  -31.9030  -18.6720   21.8660 C   0  0  0  0  0  0  0  0  0  0  0  0
  -29.5540  -18.1610   20.4130 C   0  0  0  0  0  0  0  0  0  0  0  0
  -33.0270  -18.9230   22.5770 F   0  0  0  0  0  0  0  0  0  0  0  0
  -28.4190  -17.9080   19.7140 F   0  0  0  0  0  0  0  0  0  0  0  0
  -30.6180  -14.7090   20.1040 C   0  0  0  0  0  0  0  0  0  0  0  0
  -30.2900  -12.5600   18.9260 C   0  0  0  0  0  2  0  0  0  0  0  0
  -29.2650  -12.7420   17.7830 C   0  0  0  0  0  2  0  0  0  0  0  0
  -27.8240  -12.5800   18.3050 C   0  0  0  0  0  2  0  0  0  0  0  0
  -27.5540  -13.3950   19.5970 C   0  0  0  0  0  3  0  0  0  0  0  0
  -28.6790  -13.1770   20.6340 C   0  0  0  0  0  2  0  0  0  0  0  0
  -29.9530  -13.5250   19.9840 N   0  0  0  0  0  0  0  0  0  0  0  0
  -31.7240  -14.9060   19.5980 O   0  0  0  0  0  0  0  0  0  0  0  0
  -29.9110  -15.7180   20.6530 N   0  0  0  0  0  0  0  0  0  0  0  0
  -28.9400  -15.5200   20.8450 H   0  0  0  0  0  0  0  0  0  0  0  0
  -25.2020  -13.9610   20.4700 C   0  0  0  0  0  0  0  0  0  0  0  0
  -24.1580  -13.1700   20.8720 C   0  0  0  0  0  0  0  0  0  0  0  0
  -24.6250  -11.8220   20.7750 C   0  0  0  0  0  0  0  0  0  0  0  0
  -26.2350  -13.0950   20.1500 N   0  0  0  0  0  0  0  0  0  0  0  0
  -25.8950  -11.8020   20.3890 N   0  0  0  0  0  0  0  0  0  0  0  0
  -23.9210  -10.5500   20.9780 C   0  0  0  0  0  0  0  0  0  0  0  0
  -24.3910   -9.5790   21.8900 C   0  0  0  0  0  3  0  0  0  0  0  0
  -23.6870   -8.3700   22.0740 C   0  0  0  0  0  3  0  0  0  0  0  0
  -22.4980   -8.1260   21.3470 C   0  0  0  0  0  0  0  0  0  0  0  0
  -22.0480   -9.0830   20.4220 C   0  0  0  0  0  3  0  0  0  0  0  0
  -22.7530  -10.2840   20.2360 C   0  0  0  0  0  3  0  0  0  0  0  0
  -21.7620   -6.9690   21.4410 O   0  0  0  0  0  0  0  0  0  0  0  0
  -21.7240   -6.2340   22.5990 C   0  0  0  0  0  0  0  0  0  0  0  0
  -21.2520   -6.7800   23.8130 C   0  0  0  0  0  3  0  0  0  0  0  0
  -21.1630   -5.9710   24.9610 C   0  0  0  0  0  3  0  0  0  0  0  0
  -21.5320   -4.6140   24.8990 C   0  0  0  0  0  0  0  0  0  0  0  0
  -21.9980   -4.0650   23.6910 C   0  0  0  0  0  3  0  0  0  0  0  0
  -22.0890   -4.8730   22.5430 C   0  0  0  0  0  0  0  0  0  0  0  0
  -22.5180   -4.3330   21.3770 F   0  0  0  0  0  0  0  0  0  0  0  0
  -21.4390   -3.8360   26.0030 F   0  0  0  0  0  0  0  0  0  0  0  0
  -22.7770  -13.6320   21.2360 C   0  0  0  0  0  0  0  0  0  0  0  0
  -22.1010  -12.9070   22.1190 N   0  0  0  0  0  0  0  0  0  0  0  0
  -22.3080  -14.6710   20.7750 O   0  0  0  0  0  0  0  0  0  0  0  0
  -22.4950  -12.0700   22.5210 H   0  0  0  0  0  0  0  0  0  0  0  0
  -21.1760  -13.2020   22.3990 H   0  0  0  0  0  0  0  0  0  0  0  0
  -25.3470  -15.3400   20.3330 N   0  0  0  0  0  0  0  0  0  0  0  0
  -24.5920  -15.9830   20.5520 H   0  0  0  0  0  0  0  0  0  0  0  0
  -26.1760  -15.8090   19.9920 H   0  0  0  0  0  0  0  0  0  0  0  0
  -29.2440  -21.9620   20.7450 C   0  0  0  0  0  2  0  0  0  0  0  0
  -28.2460  -22.9650   20.1090 C   0  0  0  0  0  0  0  0  0  0  0  0
  -27.5410  -22.6080   19.1590 O   0  0  0  0  0  0  0  0  0  0  0  0
  -28.1490  -24.4150   20.6660 C   0  0  0  0  0  2  0  0  0  0  0  0
  -29.8370  -25.4860   19.0620 C   0  0  0  0  0  1  0  0  0  0  0  0
  -28.3990  -25.5420   19.6130 C   0  0  0  0  0  3  0  0  0  0  0  0
  -28.2550  -26.8880   20.1330 O   0  0  0  0  0  0  0  0  0  0  0  0
  -24.5060  -32.0400   23.3070 C   0  0  0  0  0  0  0  0  0  0  0  0
  -27.0560  -27.5920   20.1260 C   0  0  0  0  0  0  0  0  0  0  0  0
  -23.2550  -30.6730   21.6680 C   0  0  0  0  0  3  0  0  0  0  0  0
  -24.6670  -29.1370   20.1930 C   0  0  0  0  0  0  0  0  0  0  0  0
  -25.7800  -31.0080   21.4280 C   0  0  0  0  0  2  0  0  0  0  0  0
  -25.8410  -29.6420   20.7640 C   0  0  0  0  0  0  0  0  0  0  0  0
  -27.0300  -28.8780   20.7230 C   0  0  0  0  0  3  0  0  0  0  0  0
  -25.8560  -27.1030   19.5570 C   0  0  0  0  0  3  0  0  0  0  0  0
  -24.6740  -27.8700   19.5830 C   0  0  0  0  0  3  0  0  0  0  0  0
  -23.4330  -30.0100   20.2750 C   0  0  0  0  0  2  0  0  0  0  0  0
  -24.5330  -31.2560   22.1920 N   0  0  0  0  0  0  0  0  0  0  0  0
  -23.4390  -32.3130   23.8720 O   0  0  0  0  0  0  0  0  0  0  0  0
  -22.6160  -29.6400   22.6280 C   0  0  0  0  0  0  0  0  0  0  0  0
  -21.2940  -29.4410   22.5020 N   0  0  0  0  0  0  0  0  0  0  0  0
  -23.3060  -29.0220   23.4410 O   0  0  0  0  0  0  0  0  0  0  0  0
  -20.7920  -30.0030   21.8290 H   0  0  0  0  0  0  0  0  0  0  0  0
  -17.9460  -28.1720   22.9750 C   0  0  0  0  0  0  0  0  0  0  0  0
  -20.4940  -28.4870   23.2710 C   0  0  0  0  0  3  0  0  0  0  0  0
  -20.6310  -27.0550   22.7040 C   0  0  0  0  0  2  0  0  0  0  0  0
  -19.5470  -26.7010   21.6790 C   0  0  0  0  0  2  0  0  0  0  0  0
  -18.1560  -26.8230   22.3090 C   0  0  0  0  0  2  0  0  0  0  0  0
  -19.0420  -28.9590   23.4130 C   0  0  0  0  0  0  0  0  0  0  0  0
  -18.7910  -30.2200   23.9970 C   0  0  0  0  0  3  0  0  0  0  0  0
  -17.4750  -30.6970   24.1420 C   0  0  0  0  0  3  0  0  0  0  0  0
  -16.3920  -29.9060   23.7200 C   0  0  0  0  0  3  0  0  0  0  0  0
  -16.6270  -28.6440   23.1460 C   0  0  0  0  0  3  0  0  0  0  0  0
  -25.8110  -32.6500   23.9080 C   0  0  0  0  0  3  0  0  0  0  0  0
  -25.5340  -34.0550   24.2350 N   0  0  0  0  0  0  0  0  0  0  0  0
  -25.8720  -35.0960   23.4630 C   0  0  0  0  0  0  0  0  0  0  0  0
  -26.5260  -34.9750   22.4240 O   0  0  0  0  0  0  0  0  0  0  0  0
  -24.9610  -34.2210   25.0490 H   0  0  0  0  0  0  0  0  0  0  0  0
  -24.1770  -36.9190   23.1040 C   0  0  0  0  0  1  0  0  0  0  0  0
  -25.4130  -36.4970   23.9150 C   0  0  0  0  0  3  0  0  0  0  0  0
  -27.5630  -37.3490   24.7380 C   0  0  0  0  0  1  0  0  0  0  0  0
  -26.4650  -37.5320   23.7920 N   0  0  0  0  0  0  0  0  0  0  0  0
  -26.0760  -38.4610   23.9340 H   0  0  0  0  0  0  0  0  0  0  0  0
  -26.3340  -31.8770   25.1820 C   0  0  1  0  0  0  0  0  0  0  0  0
  -25.2490  -31.6510   26.2590 C   0  0  0  0  0  1  0  0  0  0  0  0
  -26.9050  -30.4950   24.7880 C   0  0  0  0  0  1  0  0  0  0  0  0
  -27.4990  -32.6660   25.8310 C   0  0  0  0  0  1  0  0  0  0  0  0
  1  6  1  0
  1 49  1  0
  2  1  1  0
  3  7  1  0
  4  7  2  0
  5  3  2  0
  6  4  1  0
  7  9  1  0
  8  6  2  0
  8  5  1  0
 10  8  1  0
 11 19  1  0
 12 17  1  0
 13 14  1  0
 13 12  1  0
 15 14  1  0
 15 24  1  0
 15 16  1  0
 17 11  1  0
 17 16  1  0
 18 11  2  0
 19 20  1  0
 19  5  1  0
 21 22  2  0
 22 41  1  0
 23 22  1  0
 23 26  1  0
 24 25  1  0
 24 21  1  0
 25 23  2  0
 26 27  1  0
 27 28  2  0
 29 32  1  0
 29 28  1  0
 30 29  2  0
 31 30  1  0
 31 26  2  0
 32 33  1  0
 33 34  1  0
 34 35  2  0
 36 35  1  0
 36 40  1  0
 37 36  2  0
 38 33  2  0
 38 37  1  0
 39 38  1  0
 41 42  1  0
 42 45  1  0
 42 44  1  0
 43 41  2  0
 46 21  1  0
 46 47  1  0
 48 46  1  0
 50 52  1  0
 50 49  1  0
 51 50  2  0
 54 53  1  0
 54 55  1  0
 54 52  1  0
 56 67  2  0
 57 55  1  0
 57 62  1  0
 58 66  1  0
 58 68  1  0
 59 65  1  0
 59 61  1  0
 60 66  1  0
 61 60  1  0
 62 61  2  0
 63 64  1  0
 63 57  2  0
 64 59  2  0
 65 58  1  0
 66 56  1  0
 68 70  2  0
 69 68  1  0
 71 69  1  0
 72 81  2  0
 72 77  1  0
 73 69  1  0
 73 77  1  0
 74 73  1  0
 75 76  1  0
 75 74  1  0
 76 72  1  0
 77 78  2  0
 78 79  1  0
 80 79  2  0
 81 80  1  0
 82 56  1  0
 82 83  1  0
 82 92  1  0
 83 86  1  0
 84 88  1  0
 84 83  1  0
 85 84  2  0
 88 87  1  0
 90 88  1  0
 90 91  1  0
 90 89  1  0
 92 95  1  1
 92 93  1  0
 94 92  1  0
M  ISO  4  11 100  19 100  54 101  55 101
M  END
>  <TORSDO>  (82) 
F 21

>  <SCORE>  (82) 
-13.182

>  <name>  (82) 
82

>  <ligand_id>  (82) 
82

>  <original_smiles>  (82) 
[H]c1c([H])c([H])c2c(c1[H])C([H])([H])C([H])([H])C([H])([H])C2([H])N([H])C(=O)C1([H])N(C(=O)C([H])(N([H])C(=O)C([H])(N([H])C([H])([H])[H])C([H])([H])[H])C(C([H])([H])[H])(C([H])([H])[H])C([H])([H])[H])C([H])([H])c2c([H])c(OC([H])(C([H])([H])[H])C([H])([H])C(=O)C([H])([H])N([H])c3c([H])c(F)c([H])c(N([H])C(=O)N4C([H])([H])C([H])([H])C([H])([H])C([H])(n5nc(-c6c([H])c([H])c(Oc7c([H])c([H])c(F)c([H])c7F)c([H])c6[H])c(C(=O)N([H])[H])c5N([H])[H])C4([H])[H])c3F)c([H])c([H])c2C1([H])[H]

>  <smiles>  (82) 
[H]c1c([H])c([H])c2c(c1[H])C([H])([H])C([H])([H])C([H])([H])C2([H])N([H])C(=O)C1([H])N(C(=O)C([H])(N([H])C(=O)C([H])(N([H])C([H])([H])[H])C([H])([H])[H])C(C([H])([H])[H])(C([H])([H])[H])C([H])([H])[H])C([H])([H])c2c([H])c(OC([H])(C([H])([H])[H])C([H])([H])C(=O)C([H])([H])N([H])c3c([H])c(F)c([H])c(N([H])C(=O)N4C([H])([H])C([H])([H])C([H])([H])C([H])(n5nc(-c6c([H])c([H])c(Oc7c([H])c([H])c(F)c([H])c7F)c([H])c6[H])c(C(=O)N([H])[H])c5N([H])[H])C4([H])[H])c3F)c([H])c([H])c2C1([H])[H]

$$$$
83:0:0
     RDKit          3D

 94102  0  0  1  0  0  0  0  0999 V2000
  -29.7550  -22.7180   21.3880 C   0  0  0  0  0  3  0  0  0  0  0  0
  -29.6370  -21.5440   20.8870 N   0  0  0  0  0  0  0  0  0  0  0  0
  -30.5350  -19.3030   20.7390 C   0  0  0  0  0  3  0  0  0  0  0  0
  -31.3680  -18.1280   22.7080 C   0  0  0  0  0  3  0  0  0  0  0  0
  -30.4740  -20.3870   22.9140 C   0  0  0  0  0  3  0  0  0  0  0  0
  -31.1020  -18.1480   21.3240 C   0  0  0  0  0  0  0  0  0  0  0  0
  -30.2270  -20.4390   21.5200 C   0  0  0  0  0  0  0  0  0  0  0  0
  -31.0460  -19.2430   23.5020 C   0  0  0  0  0  0  0  0  0  0  0  0
  -31.2840  -19.2150   24.8350 F   0  0  0  0  0  0  0  0  0  0  0  0
  -31.4530  -16.9470   20.4620 C   0  0  0  0  0  2  0  0  0  0  0  0
  -30.7090  -15.6450   20.8480 C   0  0  0  0  0  2  0  0  0  0  0  0
  -31.2280  -14.4280   20.0660 C   0  0  0  0  0  0  0  0  0  0  0  0
  -30.7730  -12.2580   18.9880 C   0  0  0  0  0  2  0  0  0  0  0  0
  -29.8100  -12.4640   17.8040 C   0  0  0  0  0  2  0  0  0  0  0  0
  -28.3460  -12.4060   18.2810 C   0  0  0  0  0  2  0  0  0  0  0  0
  -28.0820  -13.3130   19.5150 C   0  0  0  0  0  3  0  0  0  0  0  0
  -29.1600  -13.1000   20.6030 C   0  0  0  0  0  2  0  0  0  0  0  0
  -30.4800  -13.2980   19.9850 N   0  0  0  0  0  0  0  0  0  0  0  0
  -32.3010  -14.5440   19.4650 O   0  0  0  0  0  0  0  0  0  0  0  0
  -25.7580  -14.0480   20.3430 C   0  0  0  0  0  0  0  0  0  0  0  0
  -24.6540  -13.3340   20.7260 C   0  0  0  0  0  0  0  0  0  0  0  0
  -25.0200  -11.9580   20.6240 C   0  0  0  0  0  0  0  0  0  0  0  0
  -26.7320  -13.1100   20.0390 N   0  0  0  0  0  0  0  0  0  0  0  0
  -26.2920  -11.8450   20.2610 N   0  0  0  0  0  0  0  0  0  0  0  0
  -24.2180  -10.7400   20.7960 C   0  0  0  0  0  0  0  0  0  0  0  0
  -24.5970   -9.7280   21.7050 C   0  0  0  0  0  3  0  0  0  0  0  0
  -23.8000   -8.5730   21.8650 C   0  0  0  0  0  3  0  0  0  0  0  0
  -22.6080   -8.4250   21.1160 C   0  0  0  0  0  0  0  0  0  0  0  0
  -22.2480   -9.4230   20.1940 C   0  0  0  0  0  3  0  0  0  0  0  0
  -23.0460  -10.5690   20.0320 C   0  0  0  0  0  3  0  0  0  0  0  0
  -21.7860   -7.3260   21.1870 O   0  0  0  0  0  0  0  0  0  0  0  0
  -21.6420   -6.6080   22.3470 C   0  0  0  0  0  0  0  0  0  0  0  0
  -21.1920   -7.2070   23.5450 C   0  0  0  0  0  3  0  0  0  0  0  0
  -20.9930   -6.4170   24.6940 C   0  0  0  0  0  3  0  0  0  0  0  0
  -21.2340   -5.0320   24.6480 C   0  0  0  0  0  0  0  0  0  0  0  0
  -21.6770   -4.4320   23.4560 C   0  0  0  0  0  3  0  0  0  0  0  0
  -21.8780   -5.2190   22.3080 C   0  0  0  0  0  0  0  0  0  0  0  0
  -22.2850   -4.6340   21.1560 F   0  0  0  0  0  0  0  0  0  0  0  0
  -21.0350   -4.2720   25.7510 F   0  0  0  0  0  0  0  0  0  0  0  0
  -23.3040  -13.8920   21.0770 C   0  0  0  0  0  0  0  0  0  0  0  0
  -22.5770  -13.2220   21.9640 N   0  0  0  0  0  0  0  0  0  0  0  0
  -22.9070  -14.9550   20.6020 O   0  0  0  0  0  0  0  0  0  0  0  0
  -22.9120  -12.3620   22.3710 H   0  0  0  0  0  0  0  0  0  0  0  0
  -21.6720  -13.5760   22.2430 H   0  0  0  0  0  0  0  0  0  0  0  0
  -26.0080  -15.4110   20.2110 N   0  0  0  0  0  0  0  0  0  0  0  0
  -25.2970  -16.1140   20.3820 H   0  0  0  0  0  0  0  0  0  0  0  0
  -26.8830  -15.8040   19.8860 H   0  0  0  0  0  0  0  0  0  0  0  0
  -29.1070  -23.9960   20.8760 C   0  0  0  0  0  0  0  0  0  0  0  0
  -28.3180  -23.9190   19.9260 O   0  0  0  0  0  0  0  0  0  0  0  0
  -28.9510  -26.4880   21.1080 C   0  0  0  0  0  3  0  0  0  0  0  0
  -29.4280  -25.3000   21.5430 C   0  0  0  0  0  0  0  0  0  0  0  0
  -30.2250  -25.2790   22.6230 O   0  0  0  0  0  0  0  0  0  0  0  0
  -30.3330  -26.1760   22.9130 H   0  0  0  0  0  0  0  0  0  0  0  0
  -28.1530  -26.6450   20.0100 O   0  0  0  0  0  0  0  0  0  0  0  0
  -24.5230  -31.9070   23.2200 C   0  0  0  0  0  0  0  0  0  0  0  0
  -27.0220  -27.4180   20.1180 C   0  0  0  0  0  0  0  0  0  0  0  0
  -23.2510  -30.5130   21.6210 C   0  0  0  0  0  3  0  0  0  0  0  0
  -24.6420  -28.9330   20.1810 C   0  0  0  0  0  0  0  0  0  0  0  0
  -25.7740  -30.8320   21.3540 C   0  0  0  0  0  2  0  0  0  0  0  0
  -25.8200  -29.4520   20.7360 C   0  0  0  0  0  0  0  0  0  0  0  0
  -27.0130  -28.7020   20.7070 C   0  0  0  0  0  3  0  0  0  0  0  0
  -25.8330  -26.9060   19.5650 C   0  0  0  0  0  3  0  0  0  0  0  0
  -24.6400  -27.6520   19.5980 C   0  0  0  0  0  3  0  0  0  0  0  0
  -23.4130  -29.8100   20.2460 C   0  0  0  0  0  2  0  0  0  0  0  0
  -24.5360  -31.1010   22.1210 N   0  0  0  0  0  0  0  0  0  0  0  0
  -23.4610  -32.2040   23.7840 O   0  0  0  0  0  0  0  0  0  0  0  0
  -22.6050  -29.5120   22.6070 C   0  0  0  0  0  0  0  0  0  0  0  0
  -21.2850  -29.3080   22.4720 N   0  0  0  0  0  0  0  0  0  0  0  0
  -23.2880  -28.9200   23.4460 O   0  0  0  0  0  0  0  0  0  0  0  0
  -20.7940  -29.8350   21.7630 H   0  0  0  0  0  0  0  0  0  0  0  0
  -17.9280  -28.0590   22.9340 C   0  0  0  0  0  0  0  0  0  0  0  0
  -20.4730  -28.3820   23.2610 C   0  0  0  0  0  3  0  0  0  0  0  0
  -20.6210  -26.9330   22.7440 C   0  0  0  0  0  2  0  0  0  0  0  0
  -19.5510  -26.5450   21.7180 C   0  0  0  0  0  2  0  0  0  0  0  0
  -18.1510  -26.6860   22.3210 C   0  0  0  0  0  2  0  0  0  0  0  0
  -19.0190  -28.8610   23.3610 C   0  0  0  0  0  0  0  0  0  0  0  0
  -18.7600  -30.1460   23.8890 C   0  0  0  0  0  3  0  0  0  0  0  0
  -17.4410  -30.6240   24.0010 C   0  0  0  0  0  3  0  0  0  0  0  0
  -16.3630  -29.8180   23.5920 C   0  0  0  0  0  3  0  0  0  0  0  0
  -16.6090  -28.5380   23.0650 C   0  0  0  0  0  3  0  0  0  0  0  0
  -25.8360  -32.5140   23.8050 C   0  0  0  0  0  3  0  0  0  0  0  0
  -25.5510  -33.9050   24.1780 N   0  0  0  0  0  0  0  0  0  0  0  0
  -25.8790  -34.9730   23.4390 C   0  0  0  0  0  0  0  0  0  0  0  0
  -26.5250  -34.8900   22.3910 O   0  0  0  0  0  0  0  0  0  0  0  0
  -24.9780  -34.0430   24.9960 H   0  0  0  0  0  0  0  0  0  0  0  0
  -24.1670  -36.7940   23.1560 C   0  0  0  0  0  1  0  0  0  0  0  0
  -25.4130  -36.3520   23.9410 C   0  0  0  0  0  3  0  0  0  0  0  0
  -27.5650  -37.1890   24.7750 C   0  0  0  0  0  1  0  0  0  0  0  0
  -26.4550  -37.3970   23.8480 N   0  0  0  0  0  0  0  0  0  0  0  0
  -26.0600  -38.3170   24.0250 H   0  0  0  0  0  0  0  0  0  0  0  0
  -26.4000  -31.7100   25.0390 C   0  0  1  0  0  0  0  0  0  0  0  0
  -25.3490  -31.4470   26.1420 C   0  0  0  0  0  1  0  0  0  0  0  0
  -26.9650  -30.3430   24.5840 C   0  0  0  0  0  1  0  0  0  0  0  0
  -27.5780  -32.4840   25.6770 C   0  0  0  0  0  1  0  0  0  0  0  0
  2  1  2  0
  2  7  1  0
  3  6  2  0
  3  7  1  0
  4  8  2  0
  5  8  1  0
  6  4  1  0
  7  5  2  0
  8  9  1  0
 10 11  1  0
 10  6  1  0
 12 11  1  0
 13 18  1  0
 14 15  1  0
 14 13  1  0
 16 15  1  0
 16 23  1  0
 16 17  1  0
 18 12  1  0
 18 17  1  0
 19 12  2  0
 20 21  2  0
 21 40  1  0
 22 21  1  0
 22 25  1  0
 23 24  1  0
 23 20  1  0
 24 22  2  0
 25 26  1  0
 26 27  2  0
 28 31  1  0
 28 27  1  0
 29 28  2  0
 30 29  1  0
 30 25  2  0
 31 32  1  0
 32 33  1  0
 33 34  2  0
 35 34  1  0
 35 39  1  0
 36 35  2  0
 37 32  2  0
 37 36  1  0
 38 37  1  0
 40 41  1  0
 41 44  1  0
 41 43  1  0
 42 40  2  0
 45 20  1  0
 45 46  1  0
 47 45  1  0
 48  1  1  0
 48 51  1  0
 49 48  2  0
 50 51  2  0
 51 52  1  0
 52 53  1  0
 54 56  1  0
 54 50  1  0
 55 66  2  0
 56 61  1  0
 57 65  1  0
 57 67  1  0
 58 64  1  0
 58 60  1  0
 59 65  1  0
 60 59  1  0
 61 60  2  0
 62 63  1  0
 62 56  2  0
 63 58  2  0
 64 57  1  0
 65 55  1  0
 67 69  2  0
 68 67  1  0
 70 68  1  0
 71 80  2  0
 71 76  1  0
 72 68  1  0
 72 76  1  0
 73 72  1  0
 74 75  1  0
 74 73  1  0
 75 71  1  0
 76 77  2  0
 77 78  1  0
 79 78  2  0
 80 79  1  0
 81 55  1  0
 81 82  1  0
 81 91  1  0
 82 85  1  0
 83 87  1  0
 83 82  1  0
 84 83  2  0
 87 86  1  0
 89 87  1  0
 89 90  1  0
 89 88  1  0
 91 94  1  1
 91 92  1  0
 93 91  1  0
M  ISO  4  11 100  12 100  50 101  54 101
M  END
>  <TORSDO>  (83) 
F 22

>  <SCORE>  (83) 
-12.415

>  <name>  (83) 
83

>  <ligand_id>  (83) 
83

>  <original_smiles>  (83) 
[H]OC(C(=O)C([H])=Nc1c([H])c(F)c([H])c(C([H])([H])C([H])([H])C(=O)N2C([H])([H])C([H])([H])C([H])([H])C([H])(n3nc(-c4c([H])c([H])c(Oc5c([H])c([H])c(F)c([H])c5F)c([H])c4[H])c(C(=O)N([H])[H])c3N([H])[H])C2([H])[H])c1[H])=C([H])Oc1c([H])c([H])c2c(c1[H])C([H])([H])N(C(=O)C([H])(N([H])C(=O)C([H])(N([H])C([H])([H])[H])C([H])([H])[H])C(C([H])([H])[H])(C([H])([H])[H])C([H])([H])[H])C([H])(C(=O)N([H])C1([H])c3c([H])c([H])c([H])c([H])c3C([H])([H])C([H])([H])C1([H])[H])C2([H])[H]

>  <smiles>  (83) 
[H]OC(C(=O)C([H])=Nc1c([H])c(F)c([H])c(C([H])([H])C([H])([H])C(=O)N2C([H])([H])C([H])([H])C([H])([H])C([H])(n3nc(-c4c([H])c([H])c(Oc5c([H])c([H])c(F)c([H])c5F)c([H])c4[H])c(C(=O)N([H])[H])c3N([H])[H])C2([H])[H])c1[H])=C([H])Oc1c([H])c([H])c2c(c1[H])C([H])([H])N(C(=O)C([H])(N([H])C(=O)C([H])(N([H])C([H])([H])[H])C([H])([H])[H])C(C([H])([H])[H])(C([H])([H])[H])C([H])([H])[H])C([H])(C(=O)N([H])C1([H])c3c([H])c([H])c([H])c([H])c3C([H])([H])C([H])([H])C1([H])[H])C2([H])[H]

$$$$
84:0:0
     RDKit          3D

 94102  0  0  1  0  0  0  0  0999 V2000
  -31.9760  -18.6350   22.2770 C   0  0  0  0  0  3  0  0  0  0  0  0
  -31.5260  -20.9630   21.7170 C   0  0  0  0  0  3  0  0  0  0  0  0
  -30.8080  -18.2020   21.6070 C   0  0  0  0  0  0  0  0  0  0  0  0
  -30.0210  -19.1980   20.9220 C   0  0  0  0  0  0  0  0  0  0  0  0
  -30.3760  -20.5970   20.9830 C   0  0  0  0  0  0  0  0  0  0  0  0
  -32.3280  -19.9940   22.3410 C   0  0  0  0  0  0  0  0  0  0  0  0
  -28.7880  -18.7710   20.1350 C   0  0  0  0  0  1  0  0  0  0  0  0
  -33.4320  -20.3790   23.0280 F   0  0  0  0  0  0  0  0  0  0  0  0
  -29.6460  -21.6240   20.3170 N   0  0  0  0  0  0  0  0  0  0  0  0
  -28.9530  -21.3070   19.6460 H   0  0  0  0  0  0  0  0  0  0  0  0
  -29.2490  -22.8790   21.0280 C   0  0  0  0  0  2  0  0  0  0  0  0
  -29.1430  -24.2110   20.2030 C   0  0  0  0  0  0  0  0  0  0  0  0
  -29.7300  -24.3340   19.1200 O   0  0  0  0  0  0  0  0  0  0  0  0
  -28.2730  -25.3690   20.8010 C   0  0  0  0  0  2  0  0  0  0  0  0
  -28.4040  -26.6780   20.1570 O   0  0  0  0  0  0  0  0  0  0  0  0
  -24.5810  -31.9460   23.2410 C   0  0  0  0  0  0  0  0  0  0  0  0
  -27.2570  -27.4650   20.1750 C   0  0  0  0  0  0  0  0  0  0  0  0
  -23.3940  -30.5360   21.5950 C   0  0  0  0  0  3  0  0  0  0  0  0
  -24.8610  -29.0030   20.1790 C   0  0  0  0  0  0  0  0  0  0  0  0
  -25.9210  -30.8970   21.4080 C   0  0  0  0  0  2  0  0  0  0  0  0
  -26.0190  -29.5170   20.7740 C   0  0  0  0  0  0  0  0  0  0  0  0
  -27.2230  -28.7580   20.7670 C   0  0  0  0  0  3  0  0  0  0  0  0
  -26.0800  -26.9780   19.5710 C   0  0  0  0  0  3  0  0  0  0  0  0
  -24.8900  -27.7330   19.5710 C   0  0  0  0  0  3  0  0  0  0  0  0
  -23.6150  -29.8620   20.2160 C   0  0  0  0  0  2  0  0  0  0  0  0
  -24.6510  -31.1400   22.1410 N   0  0  0  0  0  0  0  0  0  0  0  0
  -23.4960  -32.2160   23.7740 O   0  0  0  0  0  0  0  0  0  0  0  0
  -22.7350  -29.5150   22.5520 C   0  0  0  0  0  0  0  0  0  0  0  0
  -21.4150  -29.3240   22.4180 N   0  0  0  0  0  0  0  0  0  0  0  0
  -23.4150  -28.8940   23.3760 O   0  0  0  0  0  0  0  0  0  0  0  0
  -20.9230  -29.8780   21.7280 H   0  0  0  0  0  0  0  0  0  0  0  0
  -18.0430  -28.0910   22.8820 C   0  0  0  0  0  0  0  0  0  0  0  0
  -20.5960  -28.3770   23.1780 C   0  0  0  0  0  3  0  0  0  0  0  0
  -20.7220  -26.9460   22.6060 C   0  0  0  0  0  2  0  0  0  0  0  0
  -19.6300  -26.6070   21.5860 C   0  0  0  0  0  2  0  0  0  0  0  0
  -18.2400  -26.7410   22.2150 C   0  0  0  0  0  2  0  0  0  0  0  0
  -19.1490  -28.8650   23.3200 C   0  0  0  0  0  0  0  0  0  0  0  0
  -18.9110  -30.1270   23.9060 C   0  0  0  0  0  3  0  0  0  0  0  0
  -17.5990  -30.6170   24.0570 C   0  0  0  0  0  3  0  0  0  0  0  0
  -16.5080  -29.8380   23.6370 C   0  0  0  0  0  3  0  0  0  0  0  0
  -16.7280  -28.5770   23.0540 C   0  0  0  0  0  3  0  0  0  0  0  0
  -25.8610  -32.5870   23.8670 C   0  0  0  0  0  3  0  0  0  0  0  0
  -25.5510  -33.9870   24.1830 N   0  0  0  0  0  0  0  0  0  0  0  0
  -25.8940  -35.0320   23.4180 C   0  0  0  0  0  0  0  0  0  0  0  0
  -26.5790  -34.9170   22.3990 O   0  0  0  0  0  0  0  0  0  0  0  0
  -24.9500  -34.1490   24.9770 H   0  0  0  0  0  0  0  0  0  0  0  0
  -24.1830  -36.8280   23.0130 C   0  0  0  0  0  1  0  0  0  0  0  0
  -25.4020  -36.4230   23.8560 C   0  0  0  0  0  3  0  0  0  0  0  0
  -27.5220  -37.3000   24.7360 C   0  0  0  0  0  1  0  0  0  0  0  0
  -26.4420  -37.4710   23.7650 N   0  0  0  0  0  0  0  0  0  0  0  0
  -26.0370  -38.3930   23.9030 H   0  0  0  0  0  0  0  0  0  0  0  0
  -26.3690  -31.8260   25.1540 C   0  0  1  0  0  0  0  0  0  0  0  0
  -25.2650  -31.5990   26.2140 C   0  0  0  0  0  1  0  0  0  0  0  0
  -26.9560  -30.4470   24.7740 C   0  0  0  0  0  1  0  0  0  0  0  0
  -27.5190  -32.6240   25.8160 C   0  0  0  0  0  1  0  0  0  0  0  0
  -30.3950  -16.7240   21.9200 C   0  0  0  0  0  2  0  0  0  0  0  0
  -30.6480  -14.6860   20.3970 C   0  0  0  0  0  0  0  0  0  0  0  0
  -30.3660  -12.5250   19.1900 C   0  0  0  0  0  2  0  0  0  0  0  0
  -29.3990  -12.6870   17.9960 C   0  0  0  0  0  2  0  0  0  0  0  0
  -27.9390  -12.5110   18.4510 C   0  0  0  0  0  2  0  0  0  0  0  0
  -27.6030  -13.3400   19.7160 C   0  0  0  0  0  3  0  0  0  0  0  0
  -28.6760  -13.1460   20.8090 C   0  0  0  0  0  2  0  0  0  0  0  0
  -29.9770  -13.5060   20.2180 N   0  0  0  0  0  0  0  0  0  0  0  0
  -31.7970  -14.8550   19.9900 O   0  0  0  0  0  0  0  0  0  0  0  0
  -29.9320  -15.7050   20.9380 N   0  0  0  0  0  0  0  0  0  0  0  0
  -28.9580  -15.4700   21.0470 H   0  0  0  0  0  0  0  0  0  0  0  0
  -25.2120  -13.9230   20.4510 C   0  0  0  0  0  0  0  0  0  0  0  0
  -24.1550  -13.1450   20.8300 C   0  0  0  0  0  0  0  0  0  0  0  0
  -24.6260  -11.7970   20.7980 C   0  0  0  0  0  0  0  0  0  0  0  0
  -26.2600  -13.0510   20.2100 N   0  0  0  0  0  0  0  0  0  0  0  0
  -25.9150  -11.7660   20.4780 N   0  0  0  0  0  0  0  0  0  0  0  0
  -23.9150  -10.5290   20.9970 C   0  0  0  0  0  0  0  0  0  0  0  0
  -24.3620   -9.5740   21.9360 C   0  0  0  0  0  3  0  0  0  0  0  0
  -23.6500   -8.3690   22.1250 C   0  0  0  0  0  3  0  0  0  0  0  0
  -22.4810   -8.1090   21.3690 C   0  0  0  0  0  0  0  0  0  0  0  0
  -22.0540   -9.0530   20.4170 C   0  0  0  0  0  3  0  0  0  0  0  0
  -22.7670  -10.2500   20.2290 C   0  0  0  0  0  3  0  0  0  0  0  0
  -21.7440   -6.9540   21.4660 O   0  0  0  0  0  0  0  0  0  0  0  0
  -21.6950   -6.2220   22.6260 C   0  0  0  0  0  0  0  0  0  0  0  0
  -21.2440   -6.7830   23.8420 C   0  0  0  0  0  3  0  0  0  0  0  0
  -21.1370   -5.9740   24.9910 C   0  0  0  0  0  3  0  0  0  0  0  0
  -21.4790   -4.6090   24.9280 C   0  0  0  0  0  0  0  0  0  0  0  0
  -21.9200   -4.0490   23.7160 C   0  0  0  0  0  3  0  0  0  0  0  0
  -22.0270   -4.8530   22.5680 C   0  0  0  0  0  0  0  0  0  0  0  0
  -22.4330   -4.3040   21.4000 F   0  0  0  0  0  0  0  0  0  0  0  0
  -21.3720   -3.8320   26.0310 F   0  0  0  0  0  0  0  0  0  0  0  0
  -22.7570  -13.6110   21.1130 C   0  0  0  0  0  0  0  0  0  0  0  0
  -22.0420  -12.9090   21.9830 N   0  0  0  0  0  0  0  0  0  0  0  0
  -22.3070  -14.6330   20.5970 O   0  0  0  0  0  0  0  0  0  0  0  0
  -22.4210  -12.0840   22.4220 H   0  0  0  0  0  0  0  0  0  0  0  0
  -21.1040  -13.2020   22.2140 H   0  0  0  0  0  0  0  0  0  0  0  0
  -25.3680  -15.2950   20.2690 N   0  0  0  0  0  0  0  0  0  0  0  0
  -24.6010  -15.9450   20.3840 H   0  0  0  0  0  0  0  0  0  0  0  0
  -26.2030  -15.7290   19.8950 H   0  0  0  0  0  0  0  0  0  0  0  0
  1  6  1  0
  2  6  2  0
  3 56  1  0
  3  1  2  0
  4  5  2  0
  4  3  1  0
  5  2  1  0
  6  8  1  0
  7  4  1  0
  9  5  1  0
  9 11  1  0
 10  9  1  0
 12 14  1  0
 12 11  1  0
 13 12  2  0
 15 17  1  0
 15 14  1  0
 16 27  2  0
 17 22  1  0
 18 26  1  0
 18 28  1  0
 19 25  1  0
 19 21  1  0
 20 26  1  0
 21 20  1  0
 22 21  2  0
 23 17  2  0
 24 23  1  0
 24 19  2  0
 25 18  1  0
 26 16  1  0
 28 30  2  0
 29 28  1  0
 31 29  1  0
 32 41  2  0
 32 37  1  0
 33 29  1  0
 33 37  1  0
 34 33  1  0
 35 36  1  0
 35 34  1  0
 36 32  1  0
 37 38  2  0
 38 39  1  0
 40 39  2  0
 41 40  1  0
 42 16  1  0
 42 43  1  0
 42 52  1  0
 43 46  1  0
 44 48  1  0
 44 43  1  0
 45 44  2  0
 48 47  1  0
 50 48  1  0
 50 51  1  0
 50 49  1  0
 52 55  1  1
 52 53  1  0
 54 52  1  0
 57 65  1  0
 58 63  1  0
 59 60  1  0
 59 58  1  0
 61 60  1  0
 61 70  1  0
 61 62  1  0
 63 57  1  0
 63 62  1  0
 64 57  2  0
 65 66  1  0
 65 56  1  0
 67 68  2  0
 68 87  1  0
 69 68  1  0
 69 72  1  0
 70 67  1  0
 70 71  1  0
 71 69  2  0
 72 73  1  0
 73 74  2  0
 75 78  1  0
 75 74  1  0
 76 75  2  0
 77 76  1  0
 77 72  2  0
 78 79  1  0
 79 80  1  0
 80 81  2  0
 82 81  1  0
 82 86  1  0
 83 82  2  0
 84 79  2  0
 84 83  1  0
 85 84  1  0
 87 88  1  0
 88 91  1  0
 88 90  1  0
 89 87  2  0
 92 93  1  0
 92 67  1  0
 94 92  1  0
M  ISO  4  14 101  15 101  57 100  65 100
M  END
>  <TORSDO>  (84) 
F 21

>  <SCORE>  (84) 
-13.834

>  <name>  (84) 
84

>  <ligand_id>  (84) 
84

>  <original_smiles>  (84) 
[H]c1c([H])c([H])c2c(c1[H])C([H])([H])C([H])([H])C([H])([H])C2([H])N([H])C(=O)C1([H])N(C(=O)C([H])(N([H])C(=O)C([H])(N([H])C([H])([H])[H])C([H])([H])[H])C(C([H])([H])[H])(C([H])([H])[H])C([H])([H])[H])C([H])([H])c2c([H])c(OC([H])([H])C(=O)C([H])([H])N([H])c3c([H])c(F)c([H])c(C([H])([H])N([H])C(=O)N4C([H])([H])C([H])([H])C([H])([H])C([H])(n5nc(-c6c([H])c([H])c(Oc7c([H])c([H])c(F)c([H])c7F)c([H])c6[H])c(C(=O)N([H])[H])c5N([H])[H])C4([H])[H])c3C([H])([H])[H])c([H])c([H])c2C1([H])[H]

>  <smiles>  (84) 
[H]c1c([H])c([H])c2c(c1[H])C([H])([H])C([H])([H])C([H])([H])C2([H])N([H])C(=O)C1([H])N(C(=O)C([H])(N([H])C(=O)C([H])(N([H])C([H])([H])[H])C([H])([H])[H])C(C([H])([H])[H])(C([H])([H])[H])C([H])([H])[H])C([H])([H])c2c([H])c(OC([H])([H])C(=O)C([H])([H])N([H])c3c([H])c(F)c([H])c(C([H])([H])N([H])C(=O)N4C([H])([H])C([H])([H])C([H])([H])C([H])(n5nc(-c6c([H])c([H])c(Oc7c([H])c([H])c(F)c([H])c7F)c([H])c6[H])c(C(=O)N([H])[H])c5N([H])[H])C4([H])[H])c3C([H])([H])[H])c([H])c([H])c2C1([H])[H]

$$$$
85:0:0
     RDKit          3D

 98106  0  0  1  0  0  0  0  0999 V2000
  -29.8380  -21.2670   20.2690 C   0  0  0  0  0  0  0  0  0  0  0  0
  -30.5970  -22.1070   19.5750 N   0  0  0  0  0  4  0  0  0  0  0  0
  -28.6450  -21.7160   20.7280 N   0  0  0  0  0  0  0  0  0  0  0  0
  -31.4790  -21.7940   19.1980 H   0  0  0  0  0  0  0  0  0  0  0  0
  -30.1970  -22.9740   19.2280 H   0  0  0  0  0  0  0  0  0  0  0  0
  -28.1170  -20.9700   21.1600 H   0  0  0  0  0  0  0  0  0  0  0  0
  -29.8110  -18.6370   20.3390 C   0  0  0  0  0  3  0  0  0  0  0  0
  -31.6610  -19.9550   21.2400 C   0  0  0  0  0  3  0  0  0  0  0  0
  -31.7620  -17.5270   21.3150 C   0  0  0  0  0  3  0  0  0  0  0  0
  -30.4000  -19.9210   20.6030 C   0  0  0  0  0  0  0  0  0  0  0  0
  -30.5070  -17.4190   20.6660 C   0  0  0  0  0  0  0  0  0  0  0  0
  -32.3300  -18.7760   21.5990 C   0  0  0  0  0  0  0  0  0  0  0  0
  -33.5310  -18.8490   22.2220 F   0  0  0  0  0  0  0  0  0  0  0  0
  -30.6870  -14.9960   19.9940 C   0  0  0  0  0  0  0  0  0  0  0  0
  -30.3800  -12.7940   18.9040 C   0  0  0  0  0  2  0  0  0  0  0  0
  -29.3570  -12.9240   17.7580 C   0  0  0  0  0  2  0  0  0  0  0  0
  -27.9230  -12.7330   18.2890 C   0  0  0  0  0  2  0  0  0  0  0  0
  -27.6340  -13.5800   19.5580 C   0  0  0  0  0  3  0  0  0  0  0  0
  -28.7710  -13.4550   20.5960 C   0  0  0  0  0  2  0  0  0  0  0  0
  -30.0280  -13.8030   19.9200 N   0  0  0  0  0  0  0  0  0  0  0  0
  -31.8190  -15.1310   19.5210 O   0  0  0  0  0  0  0  0  0  0  0  0
  -29.9770  -16.0900   20.4010 N   0  0  0  0  0  0  0  0  0  0  0  0
  -28.9890  -15.9530   20.5460 H   0  0  0  0  0  0  0  0  0  0  0  0
  -25.2970  -14.1130   20.4850 C   0  0  0  0  0  0  0  0  0  0  0  0
  -24.2710  -13.3070   20.8990 C   0  0  0  0  0  0  0  0  0  0  0  0
  -24.7450  -11.9650   20.7740 C   0  0  0  0  0  0  0  0  0  0  0  0
  -26.3310  -13.2590   20.1330 N   0  0  0  0  0  0  0  0  0  0  0  0
  -26.0090  -11.9600   20.3660 N   0  0  0  0  0  0  0  0  0  0  0  0
  -24.0500  -10.6860   20.9590 C   0  0  0  0  0  0  0  0  0  0  0  0
  -24.5050   -9.7260   21.8900 C   0  0  0  0  0  3  0  0  0  0  0  0
  -23.8070   -8.5110   22.0650 C   0  0  0  0  0  3  0  0  0  0  0  0
  -22.6410   -8.2470   21.3080 C   0  0  0  0  0  0  0  0  0  0  0  0
  -22.2060   -9.1970   20.3660 C   0  0  0  0  0  3  0  0  0  0  0  0
  -22.9040  -10.4030   20.1900 C   0  0  0  0  0  3  0  0  0  0  0  0
  -21.9130   -7.0850   21.3920 O   0  0  0  0  0  0  0  0  0  0  0  0
  -21.8190   -6.3780   22.5640 C   0  0  0  0  0  0  0  0  0  0  0  0
  -21.2630   -6.9430   23.7320 C   0  0  0  0  0  3  0  0  0  0  0  0
  -21.1220   -6.1590   24.8950 C   0  0  0  0  0  3  0  0  0  0  0  0
  -21.5250   -4.8110   24.8880 C   0  0  0  0  0  0  0  0  0  0  0  0
  -22.0740   -4.2450   23.7250 C   0  0  0  0  0  3  0  0  0  0  0  0
  -22.2170   -5.0260   22.5640 C   0  0  0  0  0  0  0  0  0  0  0  0
  -22.7260   -4.4700   21.4390 F   0  0  0  0  0  0  0  0  0  0  0  0
  -21.3830   -4.0550   26.0030 F   0  0  0  0  0  0  0  0  0  0  0  0
  -22.8950  -13.7520   21.2980 C   0  0  0  0  0  0  0  0  0  0  0  0
  -22.2390  -13.0040   22.1780 N   0  0  0  0  0  0  0  0  0  0  0  0
  -22.4090  -14.7970   20.8660 O   0  0  0  0  0  0  0  0  0  0  0  0
  -22.6450  -12.1570   22.5490 H   0  0  0  0  0  0  0  0  0  0  0  0
  -21.3190  -13.2800   22.4870 H   0  0  0  0  0  0  0  0  0  0  0  0
  -25.4310  -15.4920   20.3540 N   0  0  0  0  0  0  0  0  0  0  0  0
  -24.6610  -16.1250   20.5410 H   0  0  0  0  0  0  0  0  0  0  0  0
  -26.2320  -15.9560   19.9470 H   0  0  0  0  0  0  0  0  0  0  0  0
  -28.6380  -23.4150   22.4870 C   0  0  0  0  0  1  0  0  0  0  0  0
  -26.5400  -22.9000   21.1700 C   0  0  0  0  0  1  0  0  0  0  0  0
  -28.0800  -23.0880   21.0800 C   0  0  2  0  0  0  0  0  0  0  0  0
  -28.3360  -24.3470   20.1470 C   0  0  0  0  0  0  0  0  0  0  0  0
  -28.7740  -24.2220   18.9980 O   0  0  0  0  0  0  0  0  0  0  0  0
  -27.9920  -25.7600   20.7420 C   0  0  0  0  0  2  0  0  0  0  0  0
  -28.0940  -26.9090   19.8440 O   0  0  0  0  0  0  0  0  0  0  0  0
  -24.4990  -32.0860   23.2780 C   0  0  0  0  0  0  0  0  0  0  0  0
  -26.9820  -27.7360   19.9010 C   0  0  0  0  0  0  0  0  0  0  0  0
  -23.2180  -30.7470   21.6410 C   0  0  0  0  0  3  0  0  0  0  0  0
  -24.6040  -29.2770   20.0780 C   0  0  0  0  0  0  0  0  0  0  0  0
  -25.7360  -31.1140   21.3360 C   0  0  0  0  0  2  0  0  0  0  0  0
  -25.7940  -29.7690   20.6320 C   0  0  0  0  0  0  0  0  0  0  0  0
  -26.9910  -29.0080   20.5340 C   0  0  0  0  0  3  0  0  0  0  0  0
  -25.7750  -27.2780   19.3320 C   0  0  0  0  0  3  0  0  0  0  0  0
  -24.5930  -28.0350   19.4210 C   0  0  0  0  0  3  0  0  0  0  0  0
  -23.3620  -30.1310   20.2260 C   0  0  0  0  0  2  0  0  0  0  0  0
  -24.5050  -31.3290   22.1430 N   0  0  0  0  0  0  0  0  0  0  0  0
  -23.4440  -32.3310   23.8800 O   0  0  0  0  0  0  0  0  0  0  0  0
  -22.6150  -29.6850   22.5900 C   0  0  0  0  0  0  0  0  0  0  0  0
  -21.2960  -29.4570   22.4780 N   0  0  0  0  0  0  0  0  0  0  0  0
  -23.3320  -29.0690   23.3850 O   0  0  0  0  0  0  0  0  0  0  0  0
  -20.7760  -30.0070   21.8090 H   0  0  0  0  0  0  0  0  0  0  0  0
  -17.9920  -28.0630   22.9320 C   0  0  0  0  0  0  0  0  0  0  0  0
  -20.5250  -28.4740   23.2400 C   0  0  0  0  0  3  0  0  0  0  0  0
  -20.7210  -27.0500   22.6710 C   0  0  0  0  0  2  0  0  0  0  0  0
  -19.6560  -26.6590   21.6420 C   0  0  0  0  0  2  0  0  0  0  0  0
  -18.2590  -26.7250   22.2650 C   0  0  0  0  0  2  0  0  0  0  0  0
  -19.0560  -28.8910   23.3750 C   0  0  0  0  0  0  0  0  0  0  0  0
  -18.7540  -30.1410   23.9590 C   0  0  0  0  0  3  0  0  0  0  0  0
  -17.4190  -30.5640   24.1030 C   0  0  0  0  0  3  0  0  0  0  0  0
  -16.3690  -29.7330   23.6770 C   0  0  0  0  0  3  0  0  0  0  0  0
  -16.6560  -28.4850   23.0970 C   0  0  0  0  0  3  0  0  0  0  0  0
  -25.8100  -32.6990   23.8600 C   0  0  0  0  0  3  0  0  0  0  0  0
  -26.3530  -31.9220   25.1210 C   0  0  1  0  0  0  0  0  0  0  0  0
  -25.2860  -31.6920   26.2180 C   0  0  0  0  0  1  0  0  0  0  0  0
  -26.9130  -30.5400   24.7110 C   0  0  0  0  0  1  0  0  0  0  0  0
  -27.5270  -32.7050   25.7550 C   0  0  0  0  0  1  0  0  0  0  0  0
  -25.5330  -34.1020   24.1950 N   0  0  0  0  0  0  0  0  0  0  0  0
  -25.8760  -35.1480   23.4310 C   0  0  0  0  0  0  0  0  0  0  0  0
  -26.5270  -35.0320   22.3890 O   0  0  0  0  0  0  0  0  0  0  0  0
  -24.9540  -34.2670   25.0040 H   0  0  0  0  0  0  0  0  0  0  0  0
  -24.1820  -36.9790   23.0960 C   0  0  0  0  0  1  0  0  0  0  0  0
  -25.4210  -36.5470   23.8960 C   0  0  0  0  0  3  0  0  0  0  0  0
  -27.5780  -37.3890   24.7130 C   0  0  0  0  0  1  0  0  0  0  0  0
  -26.4750  -37.5780   23.7750 N   0  0  0  0  0  0  0  0  0  0  0  0
  -26.0890  -38.5070   23.9230 H   0  0  0  0  0  0  0  0  0  0  0  0
  1 10  1  0
  1  3  1  0
  2  1  2  0
  3 54  1  0
  3  6  1  0
  4  2  1  0
  5  2  1  0
  7 10  2  0
  7 11  1  0
  8 12  2  0
  9 12  1  0
 10  8  1  0
 11  9  2  0
 12 13  1  0
 14 22  1  0
 15 20  1  0
 16 17  1  0
 16 15  1  0
 18 17  1  0
 18 27  1  0
 18 19  1  0
 20 14  1  0
 20 19  1  0
 21 14  2  0
 22 23  1  0
 22 11  1  0
 24 25  2  0
 25 44  1  0
 26 25  1  0
 26 29  1  0
 27 28  1  0
 27 24  1  0
 28 26  2  0
 29 30  1  0
 30 31  2  0
 32 35  1  0
 32 31  1  0
 33 32  2  0
 34 33  1  0
 34 29  2  0
 35 36  1  0
 36 41  2  0
 36 37  1  0
 37 38  2  0
 39 38  1  0
 39 43  1  0
 40 39  2  0
 41 40  1  0
 42 41  1  0
 44 45  1  0
 45 48  1  0
 45 47  1  0
 46 44  2  0
 49 24  1  0
 49 50  1  0
 51 49  1  0
 54 53  1  1
 54 52  1  0
 55 57  1  0
 55 54  1  0
 56 55  2  0
 58 60  1  0
 58 57  1  0
 59 70  2  0
 60 65  1  0
 61 69  1  0
 61 71  1  0
 62 68  1  0
 62 64  1  0
 63 69  1  0
 64 63  1  0
 65 64  2  0
 66 67  1  0
 66 60  2  0
 67 62  2  0
 68 61  1  0
 69 59  1  0
 71 73  2  0
 72 71  1  0
 74 72  1  0
 75 84  2  0
 75 80  1  0
 76 72  1  0
 76 80  1  0
 77 76  1  0
 78 79  1  0
 78 77  1  0
 79 75  1  0
 80 81  2  0
 81 82  1  0
 83 82  2  0
 84 83  1  0
 85 59  1  0
 85 90  1  0
 85 86  1  0
 86 89  1  1
 86 87  1  0
 88 86  1  0
 90 93  1  0
 91 95  1  0
 91 90  1  0
 92 91  2  0
 95 94  1  0
 97 95  1  0
 97 98  1  0
 97 96  1  0
M  ISO  4  14 100  22 100  57 101  58 101
M  END
>  <TORSDO>  (85) 
F 20

>  <SCORE>  (85) 
-13.016

>  <name>  (85) 
85

>  <ligand_id>  (85) 
85

>  <original_smiles>  (85) 
[H]c1c([H])c([H])c2c(c1[H])C([H])([H])C([H])([H])C([H])([H])C2([H])N([H])C(=O)C1([H])N(C(=O)C([H])(N([H])C(=O)C([H])(N([H])C([H])([H])[H])C([H])([H])[H])C(C([H])([H])[H])(C([H])([H])[H])C([H])([H])[H])C([H])([H])c2c([H])c(OC([H])([H])C(=O)C([N+]([H])=C(c3c([H])c(F)c([H])c(N([H])C(=O)N4C([H])([H])C([H])([H])C([H])([H])C([H])(n5nc(-c6c([H])c([H])c(Oc7c([H])c([H])c(F)c([H])c7F)c([H])c6[H])c(C(=O)N([H])[H])c5N([H])[H])C4([H])[H])c3[H])N([H])[H])(C([H])([H])[H])C([H])([H])[H])c([H])c([H])c2C1([H])[H]

>  <smiles>  (85) 
[H]c1c([H])c([H])c2c(c1[H])C([H])([H])C([H])([H])C([H])([H])C2([H])N([H])C(=O)C1([H])N(C(=O)C([H])(N([H])C(=O)C([H])(N([H])C([H])([H])[H])C([H])([H])[H])C(C([H])([H])[H])(C([H])([H])[H])C([H])([H])[H])C([H])([H])c2c([H])c(OC([H])([H])C(=O)C([N+]([H])=C(c3c([H])c(F)c([H])c(N([H])C(=O)N4C([H])([H])C([H])([H])C([H])([H])C([H])(n5nc(-c6c([H])c([H])c(Oc7c([H])c([H])c(F)c([H])c7F)c([H])c6[H])c(C(=O)N([H])[H])c5N([H])[H])C4([H])[H])c3[H])N([H])[H])(C([H])([H])[H])C([H])([H])[H])c([H])c([H])c2C1([H])[H]

$$$$
86:0:0
     RDKit          3D

 94102  0  0  1  0  0  0  0  0999 V2000
  -30.7800  -14.6370   20.3870 C   0  0  0  0  0  0  0  0  0  0  0  0
  -30.8150  -12.1250   20.3040 C   0  0  0  0  0  2  0  0  0  0  0  0
  -30.0910  -11.5860   19.0530 C   0  0  0  0  0  2  0  0  0  0  0  0
  -28.5920  -11.4040   19.3470 C   0  0  0  0  0  2  0  0  0  0  0  0
  -27.9740  -12.6430   20.0470 C   0  0  0  0  0  3  0  0  0  0  0  0
  -28.8430  -13.1570   21.2170 C   0  0  0  0  0  2  0  0  0  0  0  0
  -30.1820  -13.4210   20.6850 N   0  0  0  0  0  0  0  0  0  0  0  0
  -31.9660  -14.6260   20.0480 O   0  0  0  0  0  0  0  0  0  0  0  0
  -27.9170  -16.6410   20.0930 C   0  0  0  0  0  3  0  0  0  0  0  0
  -27.3700  -18.6990   18.8970 C   0  0  0  0  0  3  0  0  0  0  0  0
  -26.9630  -17.6030   19.6860 C   0  0  0  0  0  0  0  0  0  0  0  0
  -29.2740  -16.7710   19.7530 C   0  0  0  0  0  0  0  0  0  0  0  0
  -28.7200  -18.8660   18.5590 C   0  0  0  0  0  0  0  0  0  0  0  0
  -29.6390  -17.9080   19.0030 N   0  0  0  0  0  0  0  0  0  0  0  0
  -30.1790  -15.8840   20.5350 N   0  0  0  0  0  0  0  0  0  0  0  0
  -30.9640  -16.4600   20.7920 H   0  0  0  0  0  0  0  0  0  0  0  0
  -25.5470  -13.2910   20.5420 C   0  0  0  0  0  0  0  0  0  0  0  0
  -24.4480  -12.5620   20.8960 C   0  0  0  0  0  0  0  0  0  0  0  0
  -24.8890  -11.2060   20.9790 C   0  0  0  0  0  0  0  0  0  0  0  0
  -26.5950  -12.3920   20.4540 N   0  0  0  0  0  0  0  0  0  0  0  0
  -26.2000  -11.1320   20.7720 N   0  0  0  0  0  0  0  0  0  0  0  0
  -24.1250   -9.9680   21.1820 C   0  0  0  0  0  0  0  0  0  0  0  0
  -24.5320   -8.9920   22.1160 C   0  0  0  0  0  3  0  0  0  0  0  0
  -23.7680   -7.8200   22.3060 C   0  0  0  0  0  3  0  0  0  0  0  0
  -22.5830   -7.6170   21.5600 C   0  0  0  0  0  0  0  0  0  0  0  0
  -22.1950   -8.5800   20.6120 C   0  0  0  0  0  3  0  0  0  0  0  0
  -22.9590   -9.7430   20.4210 C   0  0  0  0  0  3  0  0  0  0  0  0
  -21.7920   -6.4980   21.6600 O   0  0  0  0  0  0  0  0  0  0  0  0
  -21.7020   -5.7830   22.8270 C   0  0  0  0  0  0  0  0  0  0  0  0
  -21.2520   -6.3710   24.0290 C   0  0  0  0  0  3  0  0  0  0  0  0
  -21.1090   -5.5830   25.1880 C   0  0  0  0  0  3  0  0  0  0  0  0
  -21.4060   -4.2080   25.1470 C   0  0  0  0  0  0  0  0  0  0  0  0
  -21.8490   -3.6190   23.9490 C   0  0  0  0  0  3  0  0  0  0  0  0
  -21.9930   -4.4040   22.7920 C   0  0  0  0  0  0  0  0  0  0  0  0
  -22.4000   -3.8270   21.6360 F   0  0  0  0  0  0  0  0  0  0  0  0
  -21.2600   -3.4490   26.2590 F   0  0  0  0  0  0  0  0  0  0  0  0
  -23.0460  -13.0790   21.0400 C   0  0  0  0  0  0  0  0  0  0  0  0
  -22.2560  -12.4680   21.9150 N   0  0  0  0  0  0  0  0  0  0  0  0
  -22.6600  -14.0630   20.4110 O   0  0  0  0  0  0  0  0  0  0  0  0
  -22.5810  -11.6720   22.4450 H   0  0  0  0  0  0  0  0  0  0  0  0
  -21.3130  -12.8000   22.0590 H   0  0  0  0  0  0  0  0  0  0  0  0
  -25.7350  -14.6340   20.2460 N   0  0  0  0  0  0  0  0  0  0  0  0
  -24.9430  -15.2590   20.1630 H   0  0  0  0  0  0  0  0  0  0  0  0
  -26.5920  -15.0100   19.8620 H   0  0  0  0  0  0  0  0  0  0  0  0
  -25.5660  -17.5280   20.1980 C   0  0  0  0  0  0  0  0  0  0  0  0
  -24.4690  -18.1210   19.3200 C   0  0  0  0  0  1  0  0  0  0  0  0
  -25.2630  -17.0120   21.2780 O   0  0  0  0  0  0  0  0  0  0  0  0
  -29.0900  -20.0580   17.8110 N   0  0  0  0  0  0  0  0  0  0  0  0
  -29.9870  -20.0850   17.3360 H   0  0  0  0  0  0  0  0  0  0  0  0
  -28.2570  -21.3450   17.7570 C   0  0  0  0  0  2  0  0  0  0  0  0
  -28.8760  -22.8160   17.5050 C   0  0  0  0  0  0  0  0  0  0  0  0
  -30.0010  -22.9230   17.0050 O   0  0  0  0  0  0  0  0  0  0  0  0
  -28.0250  -24.1310   17.9010 C   0  0  0  0  0  2  0  0  0  0  0  0
  -28.6560  -25.5120   18.0130 O   0  0  0  0  0  0  0  0  0  0  0  0
  -26.0650  -29.7400   23.3700 C   0  0  0  0  0  0  0  0  0  0  0  0
  -27.8060  -26.5700   18.4400 C   0  0  0  0  0  0  0  0  0  0  0  0
  -24.6850  -29.5120   21.3410 C   0  0  0  0  0  3  0  0  0  0  0  0
  -25.8550  -28.5140   19.2940 C   0  0  0  0  0  0  0  0  0  0  0  0
  -27.2440  -29.3330   21.1900 C   0  0  0  0  0  2  0  0  0  0  0  0
  -27.0700  -28.4080   19.9820 C   0  0  0  0  0  0  0  0  0  0  0  0
  -28.0530  -27.4540   19.5510 C   0  0  0  0  0  3  0  0  0  0  0  0
  -26.5940  -26.7820   17.7460 C   0  0  0  0  0  3  0  0  0  0  0  0
  -25.6270  -27.7130   18.1670 C   0  0  0  0  0  3  0  0  0  0  0  0
  -24.8260  -29.5070   19.7970 C   0  0  0  0  0  2  0  0  0  0  0  0
  -26.0180  -29.5160   22.0250 N   0  0  0  0  0  0  0  0  0  0  0  0
  -25.0360  -29.9620   24.0250 O   0  0  0  0  0  0  0  0  0  0  0  0
  -23.7800  -28.3310   21.7710 C   0  0  0  0  0  0  0  0  0  0  0  0
  -22.4510  -28.5190   21.6850 N   0  0  0  0  0  0  0  0  0  0  0  0
  -24.2750  -27.2670   22.1500 O   0  0  0  0  0  0  0  0  0  0  0  0
  -22.1190  -29.4220   21.3740 H   0  0  0  0  0  0  0  0  0  0  0  0
  -18.8770  -27.9540   21.8120 C   0  0  0  0  0  0  0  0  0  0  0  0
  -21.4210  -27.5260   21.9980 C   0  0  0  0  0  3  0  0  0  0  0  0
  -21.2330  -26.5310   20.8300 C   0  0  0  0  0  2  0  0  0  0  0  0
  -20.1260  -26.9440   19.8550 C   0  0  0  0  0  2  0  0  0  0  0  0
  -18.7850  -27.0610   20.5850 C   0  0  0  0  0  2  0  0  0  0  0  0
  -20.1160  -28.1850   22.4660 C   0  0  0  0  0  0  0  0  0  0  0  0
  -20.1510  -29.0480   23.5820 C   0  0  0  0  0  3  0  0  0  0  0  0
  -18.9790  -29.6740   24.0450 C   0  0  0  0  0  3  0  0  0  0  0  0
  -17.7520  -29.4320   23.4020 C   0  0  0  0  0  3  0  0  0  0  0  0
  -17.7030  -28.5700   22.2920 C   0  0  0  0  0  3  0  0  0  0  0  0
  -27.4170  -29.7510   24.1480 C   0  0  0  0  0  3  0  0  0  0  0  0
  -27.7340  -28.3780   24.8600 C   0  0  1  0  0  0  0  0  0  0  0  0
  -26.5790  -27.8550   25.7450 C   0  0  0  0  0  1  0  0  0  0  0  0
  -28.0610  -27.2820   23.8190 C   0  0  0  0  0  1  0  0  0  0  0  0
  -28.9900  -28.5280   25.7510 C   0  0  0  0  0  1  0  0  0  0  0  0
  -27.3560  -30.8410   25.1340 N   0  0  0  0  0  0  0  0  0  0  0  0
  -27.9480  -32.0340   24.9890 C   0  0  0  0  0  0  0  0  0  0  0  0
  -28.6680  -32.3110   24.0260 O   0  0  0  0  0  0  0  0  0  0  0  0
  -26.7370  -30.7040   25.9190 H   0  0  0  0  0  0  0  0  0  0  0  0
  -26.6640  -34.1110   25.5990 C   0  0  0  0  0  1  0  0  0  0  0  0
  -27.7030  -33.0890   26.0870 C   0  0  0  0  0  3  0  0  0  0  0  0
  -29.8660  -32.9370   27.2400 C   0  0  0  0  0  1  0  0  0  0  0  0
  -28.9320  -33.7930   26.5120 N   0  0  0  0  0  0  0  0  0  0  0  0
  -28.7070  -34.5890   27.1000 H   0  0  0  0  0  0  0  0  0  0  0  0
  1 15  1  0
  1  7  1  0
  2  7  1  0
  3  4  1  0
  3  2  1  0
  5  4  1  0
  5 20  1  0
  5  6  1  0
  7  6  1  0
  8  1  2  0
 10 11  1  0
 11  9  2  0
 11 45  1  0
 12  9  1  0
 12 15  1  0
 13 10  2  0
 13 14  1  0
 14 12  2  0
 15 16  1  0
 17 18  2  0
 18 19  1  0
 18 37  1  0
 19 22  1  0
 20 17  1  0
 20 21  1  0
 21 19  2  0
 22 23  1  0
 23 24  2  0
 25 28  1  0
 25 24  1  0
 26 25  2  0
 27 26  1  0
 27 22  2  0
 28 29  1  0
 29 30  1  0
 30 31  2  0
 32 31  1  0
 32 36  1  0
 33 32  2  0
 34 29  2  0
 34 33  1  0
 35 34  1  0
 37 38  1  0
 38 41  1  0
 38 40  1  0
 39 37  2  0
 42 17  1  0
 43 42  1  0
 44 42  1  0
 45 47  2  0
 46 45  1  0
 48 13  1  0
 49 48  1  0
 50 48  1  0
 51 50  1  0
 51 53  1  0
 52 51  2  0
 53 54  1  0
 54 56  1  0
 55 66  2  0
 56 61  1  0
 57 67  1  0
 57 65  1  0
 58 64  1  0
 58 60  1  0
 59 65  1  0
 60 59  1  0
 61 60  2  0
 62 63  1  0
 62 56  2  0
 63 58  2  0
 64 57  1  0
 65 55  1  0
 67 69  2  0
 68 67  1  0
 70 68  1  0
 71 80  2  0
 71 76  1  0
 72 68  1  0
 72 76  1  0
 73 72  1  0
 74 75  1  0
 74 73  1  0
 75 71  1  0
 76 77  2  0
 77 78  1  0
 79 78  2  0
 80 79  1  0
 81 55  1  0
 81 82  1  0
 81 86  1  0
 82 83  1  1
 82 85  1  0
 84 82  1  0
 86 89  1  0
 87 86  1  0
 87 91  1  0
 88 87  2  0
 91 90  1  0
 91 93  1  0
 93 94  1  0
 93 92  1  0
M  ISO  4   1 100  15 100  53 101  54 101
M  END
>  <TORSDO>  (86) 
F 20

>  <SCORE>  (86) 
-8.581

>  <name>  (86) 
86

>  <ligand_id>  (86) 
86

>  <original_smiles>  (86) 
[H]c1c([H])c([H])c2c(c1[H])C([H])([H])C([H])([H])C([H])([H])C2([H])N([H])C(=O)C1([H])N(C(=O)C([H])(N([H])C(=O)C([H])(N([H])C([H])([H])[H])C([H])([H])[H])C(C([H])([H])[H])(C([H])([H])[H])C([H])([H])[H])C([H])([H])c2c([H])c(OC([H])([H])C(=O)C([H])([H])N([H])c3nc(N([H])C(=O)N4C([H])([H])C([H])([H])C([H])([H])C([H])(n5nc(-c6c([H])c([H])c(Oc7c([H])c([H])c(F)c([H])c7F)c([H])c6[H])c(C(=O)N([H])[H])c5N([H])[H])C4([H])[H])c([H])c(C(=O)C([H])([H])[H])c3[H])c([H])c([H])c2C1([H])[H]

>  <smiles>  (86) 
[H]c1c([H])c([H])c2c(c1[H])C([H])([H])C([H])([H])C([H])([H])C2([H])N([H])C(=O)C1([H])N(C(=O)C([H])(N([H])C(=O)C([H])(N([H])C([H])([H])[H])C([H])([H])[H])C(C([H])([H])[H])(C([H])([H])[H])C([H])([H])[H])C([H])([H])c2c([H])c(OC([H])([H])C(=O)C([H])([H])N([H])c3nc(N([H])C(=O)N4C([H])([H])C([H])([H])C([H])([H])C([H])(n5nc(-c6c([H])c([H])c(Oc7c([H])c([H])c(F)c([H])c7F)c([H])c6[H])c(C(=O)N([H])[H])c5N([H])[H])C4([H])[H])c([H])c(C(=O)C([H])([H])[H])c3[H])c([H])c([H])c2C1([H])[H]

$$$$
87:0:0
     RDKit          3D

 96104  0  0  1  0  0  0  0  0999 V2000
  -29.3490  -18.6120   20.4190 C   0  0  0  0  0  3  0  0  0  0  0  0
  -31.1710  -17.6570   21.6880 C   0  0  0  0  0  3  0  0  0  0  0  0
  -30.7800  -20.1120   21.7340 C   0  0  0  0  0  0  0  0  0  0  0  0
  -30.0910  -17.4260   20.8220 C   0  0  0  0  0  0  0  0  0  0  0  0
  -29.6530  -19.9800   20.8430 C   0  0  0  0  0  0  0  0  0  0  0  0
  -31.4990  -18.9480   22.1370 C   0  0  0  0  0  0  0  0  0  0  0  0
  -32.5390  -19.0260   23.0050 F   0  0  0  0  0  0  0  0  0  0  0  0
  -30.5580  -14.9030   20.3190 C   0  0  0  0  0  0  0  0  0  0  0  0
  -30.4000  -12.6200   19.3060 C   0  0  0  0  0  2  0  0  0  0  0  0
  -29.4370  -12.6400   18.0990 C   0  0  0  0  0  2  0  0  0  0  0  0
  -27.9770  -12.4440   18.5570 C   0  0  0  0  0  2  0  0  0  0  0  0
  -27.5990  -13.3430   19.7640 C   0  0  0  0  0  3  0  0  0  0  0  0
  -28.6760  -13.2960   20.8670 C   0  0  0  0  0  2  0  0  0  0  0  0
  -29.9520  -13.6710   20.2460 N   0  0  0  0  0  0  0  0  0  0  0  0
  -31.7430  -15.0260   19.9960 O   0  0  0  0  0  0  0  0  0  0  0  0
  -29.7490  -16.0190   20.4930 N   0  0  0  0  0  0  0  0  0  0  0  0
  -28.7600  -15.8120   20.4690 H   0  0  0  0  0  0  0  0  0  0  0  0
  -25.2220  -13.8910   20.5560 C   0  0  0  0  0  0  0  0  0  0  0  0
  -24.1760  -13.0980   20.9400 C   0  0  0  0  0  0  0  0  0  0  0  0
  -24.6560  -11.7540   20.8800 C   0  0  0  0  0  0  0  0  0  0  0  0
  -26.2710  -13.0310   20.2810 N   0  0  0  0  0  0  0  0  0  0  0  0
  -25.9400  -11.7390   20.5400 N   0  0  0  0  0  0  0  0  0  0  0  0
  -23.9520  -10.4790   21.0680 C   0  0  0  0  0  0  0  0  0  0  0  0
  -24.4010   -9.5160   21.9980 C   0  0  0  0  0  3  0  0  0  0  0  0
  -23.6930   -8.3080   22.1740 C   0  0  0  0  0  3  0  0  0  0  0  0
  -22.5230   -8.0520   21.4190 C   0  0  0  0  0  0  0  0  0  0  0  0
  -22.0930   -9.0050   20.4790 C   0  0  0  0  0  3  0  0  0  0  0  0
  -22.8020  -10.2060   20.3010 C   0  0  0  0  0  3  0  0  0  0  0  0
  -21.7880   -6.8950   21.5040 O   0  0  0  0  0  0  0  0  0  0  0  0
  -21.7310   -6.1620   22.6620 C   0  0  0  0  0  0  0  0  0  0  0  0
  -21.2280   -6.7040   23.8640 C   0  0  0  0  0  3  0  0  0  0  0  0
  -21.1240   -5.8950   25.0130 C   0  0  0  0  0  3  0  0  0  0  0  0
  -21.5110   -4.5420   24.9590 C   0  0  0  0  0  0  0  0  0  0  0  0
  -22.0080   -3.9990   23.7610 C   0  0  0  0  0  3  0  0  0  0  0  0
  -22.1140   -4.8060   22.6150 C   0  0  0  0  0  0  0  0  0  0  0  0
  -22.5730   -4.2710   21.4570 F   0  0  0  0  0  0  0  0  0  0  0  0
  -21.4040   -3.7630   26.0610 F   0  0  0  0  0  0  0  0  0  0  0  0
  -22.7780  -13.5510   21.2480 C   0  0  0  0  0  0  0  0  0  0  0  0
  -22.0770  -12.8310   22.1150 N   0  0  0  0  0  0  0  0  0  0  0  0
  -22.3180  -14.5820   20.7570 O   0  0  0  0  0  0  0  0  0  0  0  0
  -22.4610  -11.9940   22.5310 H   0  0  0  0  0  0  0  0  0  0  0  0
  -21.1410  -13.1180   22.3700 H   0  0  0  0  0  0  0  0  0  0  0  0
  -25.3560  -15.2680   20.3940 N   0  0  0  0  0  0  0  0  0  0  0  0
  -24.5700  -15.8960   20.5280 H   0  0  0  0  0  0  0  0  0  0  0  0
  -26.1650  -15.7320   20.0010 H   0  0  0  0  0  0  0  0  0  0  0  0
  -31.2580  -21.4580   22.3100 C   0  0  1  0  0  0  0  0  0  0  0  0
  -30.4470  -21.8250   23.3040 F   0  0  0  0  0  0  0  0  0  0  0  0
  -32.4920  -21.4200   22.8160 F   0  0  0  0  0  0  0  0  0  0  0  0
  -31.2950  -22.4200   21.3940 F   0  0  0  0  0  0  0  0  0  0  0  0
  -28.8610  -21.0980   20.3210 N   0  0  0  0  0  0  0  0  0  0  0  0
  -28.2030  -20.8190   19.6000 H   0  0  0  0  0  0  0  0  0  0  0  0
  -28.4220  -22.4110   20.9710 C   0  0  0  0  0  2  0  0  0  0  0  0
  -28.5450  -23.8270   20.2040 C   0  0  0  0  0  0  0  0  0  0  0  0
  -29.1770  -23.8830   19.1430 O   0  0  0  0  0  0  0  0  0  0  0  0
  -27.8290  -25.1400   20.7890 C   0  0  0  0  0  2  0  0  0  0  0  0
  -28.0760  -26.4940   20.1690 O   0  0  0  0  0  0  0  0  0  0  0  0
  -24.4900  -32.0110   23.2530 C   0  0  0  0  0  0  0  0  0  0  0  0
  -26.9980  -27.4080   20.1560 C   0  0  0  0  0  0  0  0  0  0  0  0
  -23.2460  -30.6390   21.6180 C   0  0  0  0  0  3  0  0  0  0  0  0
  -24.6610  -29.0790   20.1580 C   0  0  0  0  0  0  0  0  0  0  0  0
  -25.7870  -30.9250   21.3990 C   0  0  0  0  0  2  0  0  0  0  0  0
  -25.8460  -29.5470   20.7410 C   0  0  0  0  0  0  0  0  0  0  0  0
  -27.0220  -28.7250   20.7240 C   0  0  0  0  0  3  0  0  0  0  0  0
  -25.7910  -27.0010   19.5480 C   0  0  0  0  0  3  0  0  0  0  0  0
  -24.6370  -27.8140   19.5480 C   0  0  0  0  0  3  0  0  0  0  0  0
  -23.4330  -29.9720   20.2280 C   0  0  0  0  0  2  0  0  0  0  0  0
  -24.5280  -31.2100   22.1470 N   0  0  0  0  0  0  0  0  0  0  0  0
  -23.4180  -32.2940   23.8060 O   0  0  0  0  0  0  0  0  0  0  0  0
  -22.5850  -29.6220   22.5800 C   0  0  0  0  0  0  0  0  0  0  0  0
  -21.2620  -29.4310   22.4460 N   0  0  0  0  0  0  0  0  0  0  0  0
  -23.2650  -29.0070   23.4050 O   0  0  0  0  0  0  0  0  0  0  0  0
  -20.7680  -29.9850   21.7620 H   0  0  0  0  0  0  0  0  0  0  0  0
  -17.8960  -28.1880   22.9200 C   0  0  0  0  0  0  0  0  0  0  0  0
  -20.4470  -28.4870   23.2160 C   0  0  0  0  0  3  0  0  0  0  0  0
  -20.5750  -27.0510   22.6560 C   0  0  0  0  0  2  0  0  0  0  0  0
  -19.4910  -26.7030   21.6310 C   0  0  0  0  0  2  0  0  0  0  0  0
  -18.0990  -26.8350   22.2580 C   0  0  0  0  0  2  0  0  0  0  0  0
  -19.0000  -28.9700   23.3550 C   0  0  0  0  0  0  0  0  0  0  0  0
  -18.7560  -30.2340   23.9320 C   0  0  0  0  0  3  0  0  0  0  0  0
  -17.4430  -30.7190   24.0800 C   0  0  0  0  0  3  0  0  0  0  0  0
  -16.3540  -29.9330   23.6640 C   0  0  0  0  0  3  0  0  0  0  0  0
  -16.5820  -28.6710   23.0870 C   0  0  0  0  0  3  0  0  0  0  0  0
  -25.7890  -32.6240   23.8610 C   0  0  0  0  0  3  0  0  0  0  0  0
  -25.5070  -34.0300   24.1830 N   0  0  0  0  0  0  0  0  0  0  0  0
  -25.8560  -35.0740   23.4180 C   0  0  0  0  0  0  0  0  0  0  0  0
  -26.5190  -34.9530   22.3830 O   0  0  0  0  0  0  0  0  0  0  0  0
  -24.9180  -34.2010   24.9840 H   0  0  0  0  0  0  0  0  0  0  0  0
  -24.1740  -36.9090   23.0550 C   0  0  0  0  0  1  0  0  0  0  0  0
  -25.4020  -36.4730   23.8720 C   0  0  0  0  0  3  0  0  0  0  0  0
  -27.5500  -37.3140   24.7160 C   0  0  0  0  0  1  0  0  0  0  0  0
  -26.4620  -37.5000   23.7610 N   0  0  0  0  0  0  0  0  0  0  0  0
  -26.0770  -38.4310   23.8960 H   0  0  0  0  0  0  0  0  0  0  0  0
  -26.2980  -31.8540   25.1420 C   0  0  1  0  0  0  0  0  0  0  0  0
  -25.2050  -31.6420   26.2150 C   0  0  0  0  0  1  0  0  0  0  0  0
  -26.8600  -30.4660   24.7580 C   0  0  0  0  0  1  0  0  0  0  0  0
  -27.4620  -32.6370   25.7930 C   0  0  0  0  0  1  0  0  0  0  0  0
  1  4  2  0
  1  5  1  0
  2  6  2  0
  3  6  1  0
  3 46  1  0
  4  2  1  0
  5  3  2  0
  6  7  1  0
  8 16  1  0
  9 14  1  0
 10 11  1  0
 10  9  1  0
 12 11  1  0
 12 21  1  0
 12 13  1  0
 14  8  1  0
 14 13  1  0
 15  8  2  0
 16  4  1  0
 17 16  1  0
 18 19  2  0
 19 38  1  0
 20 19  1  0
 20 23  1  0
 21 22  1  0
 21 18  1  0
 22 20  2  0
 23 24  1  0
 24 25  2  0
 26 29  1  0
 26 25  1  0
 27 26  2  0
 28 27  1  0
 28 23  2  0
 29 30  1  0
 30 31  1  0
 31 32  2  0
 33 32  1  0
 33 37  1  0
 34 33  2  0
 35 30  2  0
 35 34  1  0
 36 35  1  0
 38 39  1  0
 39 42  1  0
 39 41  1  0
 40 38  2  0
 43 44  1  0
 43 18  1  0
 45 43  1  0
 46 48  1  1
 46 47  1  0
 49 46  1  0
 50  5  1  0
 50 52  1  0
 51 50  1  0
 53 55  1  0
 53 52  1  0
 54 53  2  0
 56 55  1  0
 57 68  2  0
 58 56  1  0
 58 63  1  0
 59 67  1  0
 59 69  1  0
 60 66  1  0
 60 62  1  0
 61 67  1  0
 62 61  1  0
 63 62  2  0
 64 65  1  0
 64 58  2  0
 65 60  2  0
 66 59  1  0
 67 57  1  0
 69 71  2  0
 70 69  1  0
 72 70  1  0
 73 82  2  0
 73 78  1  0
 74 70  1  0
 74 78  1  0
 75 74  1  0
 76 77  1  0
 76 75  1  0
 77 73  1  0
 78 79  2  0
 79 80  1  0
 81 80  2  0
 82 81  1  0
 83 57  1  0
 83 84  1  0
 83 93  1  0
 84 87  1  0
 85 89  1  0
 85 84  1  0
 86 85  2  0
 89 88  1  0
 91 89  1  0
 91 92  1  0
 91 90  1  0
 93 96  1  1
 93 94  1  0
 95 93  1  0
M  ISO  4   8 100  16 100  55 101  56 101
M  END
>  <TORSDO>  (87) 
F 21

>  <SCORE>  (87) 
-13.758

>  <name>  (87) 
87

>  <ligand_id>  (87) 
87

>  <original_smiles>  (87) 
[H]c1c([H])c([H])c2c(c1[H])C([H])([H])C([H])([H])C([H])([H])C2([H])N([H])C(=O)C1([H])N(C(=O)C([H])(N([H])C(=O)C([H])(N([H])C([H])([H])[H])C([H])([H])[H])C(C([H])([H])[H])(C([H])([H])[H])C([H])([H])[H])C([H])([H])c2c([H])c(OC([H])([H])C(=O)C([H])([H])N([H])c3c([H])c(N([H])C(=O)N4C([H])([H])C([H])([H])C([H])([H])C([H])(n5nc(-c6c([H])c([H])c(Oc7c([H])c([H])c(F)c([H])c7F)c([H])c6[H])c(C(=O)N([H])[H])c5N([H])[H])C4([H])[H])c([H])c(F)c3C(F)(F)F)c([H])c([H])c2C1([H])[H]

>  <smiles>  (87) 
[H]c1c([H])c([H])c2c(c1[H])C([H])([H])C([H])([H])C([H])([H])C2([H])N([H])C(=O)C1([H])N(C(=O)C([H])(N([H])C(=O)C([H])(N([H])C([H])([H])[H])C([H])([H])[H])C(C([H])([H])[H])(C([H])([H])[H])C([H])([H])[H])C([H])([H])c2c([H])c(OC([H])([H])C(=O)C([H])([H])N([H])c3c([H])c(N([H])C(=O)N4C([H])([H])C([H])([H])C([H])([H])C([H])(n5nc(-c6c([H])c([H])c(Oc7c([H])c([H])c(F)c([H])c7F)c([H])c6[H])c(C(=O)N([H])[H])c5N([H])[H])C4([H])[H])c([H])c(F)c3C(F)(F)F)c([H])c([H])c2C1([H])[H]

$$$$
89:0:0
     RDKit          3D

 98106  0  0  1  0  0  0  0  0999 V2000
  -28.1790  -26.0240   16.3520 C   0  0  0  0  0  2  0  0  0  0  0  0
  -29.6030  -25.7150   15.8640 C   0  0  0  0  0  0  0  0  0  0  0  0
  -30.5790  -25.8990   16.6050 O   0  0  0  0  0  0  0  0  0  0  0  0
  -29.7550  -25.1050   14.4470 C   0  0  0  0  0  0  0  0  0  0  0  0
  -29.3170  -25.7160   13.4610 O   0  0  0  0  0  0  0  0  0  0  0  0
  -30.4540  -23.7340   14.2770 C   0  0  0  0  0  0  0  0  0  0  0  0
  -29.8150  -22.6710   14.2590 O   0  0  0  0  0  0  0  0  0  0  0  0
  -31.9810  -23.7310   14.1110 C   0  0  0  0  0  2  0  0  0  0  0  0
  -32.4240  -24.9680   13.5470 O   0  0  0  0  0  0  0  0  0  0  0  0
  -34.1000  -28.4500    7.5670 C   0  0  0  0  0  0  0  0  0  0  0  0
  -32.7160  -24.9020   12.2080 C   0  0  0  0  0  0  0  0  0  0  0  0
  -33.5520  -26.0510    7.3020 C   0  0  0  0  0  3  0  0  0  0  0  0
  -33.3750  -24.7110    9.4690 C   0  0  0  0  0  0  0  0  0  0  0  0
  -34.5330  -26.9290    9.4910 C   0  0  0  0  0  2  0  0  0  0  0  0
  -33.7630  -25.8380   10.2060 C   0  0  0  0  0  0  0  0  0  0  0  0
  -33.4410  -25.9360   11.5770 C   0  0  0  0  0  3  0  0  0  0  0  0
  -32.3340  -23.7700   11.4580 C   0  0  0  0  0  3  0  0  0  0  0  0
  -32.6570  -23.6720   10.0880 C   0  0  0  0  0  3  0  0  0  0  0  0
  -33.7700  -24.6840    8.0080 C   0  0  0  0  0  2  0  0  0  0  0  0
  -34.0460  -27.2050    8.1200 N   0  0  0  0  0  0  0  0  0  0  0  0
  -33.7860  -28.6410    6.3830 O   0  0  0  0  0  0  0  0  0  0  0  0
  -32.0620  -26.1700    6.9090 C   0  0  0  0  0  0  0  0  0  0  0  0
  -31.1850  -26.3090    7.9170 N   0  0  0  0  0  0  0  0  0  0  0  0
  -31.7190  -26.1660    5.7230 O   0  0  0  0  0  0  0  0  0  0  0  0
  -31.5470  -26.2930    8.8610 H   0  0  0  0  0  0  0  0  0  0  0  0
  -27.9980  -25.2980    9.2790 C   0  0  0  0  0  0  0  0  0  0  0  0
  -29.7380  -26.4810    7.7800 C   0  0  0  0  0  3  0  0  0  0  0  0
  -29.2700  -27.7950    8.4470 C   0  0  0  0  0  2  0  0  0  0  0  0
  -28.8230  -27.6070    9.9010 C   0  0  0  0  0  2  0  0  0  0  0  0
  -27.6680  -26.6050    9.9810 C   0  0  0  0  0  2  0  0  0  0  0  0
  -28.9800  -25.2380    8.2570 C   0  0  0  0  0  0  0  0  0  0  0  0
  -29.2720  -23.9930    7.6590 C   0  0  0  0  0  3  0  0  0  0  0  0
  -28.6000  -22.8250    8.0650 C   0  0  0  0  0  3  0  0  0  0  0  0
  -27.6170  -22.8920    9.0670 C   0  0  0  0  0  3  0  0  0  0  0  0
  -27.3150  -24.1260    9.6690 C   0  0  0  0  0  3  0  0  0  0  0  0
  -34.5800  -29.6880    8.3880 C   0  0  0  0  0  3  0  0  0  0  0  0
  -35.4900  -30.4590    7.5310 N   0  0  0  0  0  0  0  0  0  0  0  0
  -36.6990  -30.8970    7.9100 C   0  0  0  0  0  0  0  0  0  0  0  0
  -37.1380  -30.7510    9.0550 O   0  0  0  0  0  0  0  0  0  0  0  0
  -35.2230  -30.5650    6.5640 H   0  0  0  0  0  0  0  0  0  0  0  0
  -38.5450  -30.6090    6.2280 C   0  0  0  0  0  1  0  0  0  0  0  0
  -37.5580  -31.6120    6.8510 C   0  0  0  0  0  3  0  0  0  0  0  0
  -37.4710  -33.9680    7.5300 C   0  0  0  0  0  1  0  0  0  0  0  0
  -38.2990  -32.7740    7.3850 N   0  0  0  0  0  0  0  0  0  0  0  0
  -39.0840  -33.0080    6.7840 H   0  0  0  0  0  0  0  0  0  0  0  0
  -33.3930  -30.5950    8.9020 C   0  0  1  0  0  0  0  0  0  0  0  0
  -32.9670  -31.6950    7.9010 C   0  0  0  0  0  1  0  0  0  0  0  0
  -32.1490  -29.7350    9.2200 C   0  0  0  0  0  1  0  0  0  0  0  0
  -33.7970  -31.2840   10.2280 C   0  0  0  0  0  1  0  0  0  0  0  0
  -28.0940  -27.2240   17.1990 N   0  0  0  0  0  0  0  0  0  0  0  0
  -28.5840  -28.0530   16.8720 H   0  0  0  0  0  0  0  0  0  0  0  0
  -27.6010  -26.2160   19.3880 C   0  0  0  0  0  3  0  0  0  0  0  0
  -26.4600  -28.2510   18.6740 C   0  0  0  0  0  3  0  0  0  0  0  0
  -26.8810  -26.2210   20.6040 C   0  0  0  0  0  0  0  0  0  0  0  0
  -27.3910  -27.2200   18.4150 C   0  0  0  0  0  0  0  0  0  0  0  0
  -25.7530  -28.2790   19.8990 C   0  0  0  0  0  0  0  0  0  0  0  0
  -25.9550  -27.2560   20.8470 C   0  0  0  0  0  0  0  0  0  0  0  0
  -25.2640  -27.2870   22.0120 F   0  0  0  0  0  0  0  0  0  0  0  0
  -24.4380  -29.5590   21.5190 C   0  0  0  0  0  0  0  0  0  0  0  0
  -22.4100  -29.8170   22.9120 C   0  0  0  0  0  2  0  0  0  0  0  0
  -22.1890  -28.6060   23.8390 C   0  0  0  0  0  2  0  0  0  0  0  0
  -21.4510  -27.4670   23.1120 C   0  0  0  0  0  2  0  0  0  0  0  0
  -22.0870  -27.1340   21.7390 C   0  0  0  0  0  3  0  0  0  0  0  0
  -22.2780  -28.4260   20.9190 C   0  0  0  0  0  2  0  0  0  0  0  0
  -23.1060  -29.3720   21.6980 N   0  0  0  0  0  0  0  0  0  0  0  0
  -25.1860  -30.0650   22.3620 O   0  0  0  0  0  0  0  0  0  0  0  0
  -24.8440  -29.3010   20.2700 N   0  0  0  0  0  0  0  0  0  0  0  0
  -24.0760  -29.3450   19.6120 H   0  0  0  0  0  0  0  0  0  0  0  0
  -21.6130  -25.4210   19.8690 C   0  0  0  0  0  0  0  0  0  0  0  0
  -20.5470  -24.5910   19.6390 C   0  0  0  0  0  0  0  0  0  0  0  0
  -19.6100  -24.8560   20.6840 C   0  0  0  0  0  0  0  0  0  0  0  0
  -21.2940  -26.1450   21.0070 N   0  0  0  0  0  0  0  0  0  0  0  0
  -20.0560  -25.8310   21.4670 N   0  0  0  0  0  0  0  0  0  0  0  0
  -18.3430  -24.1940   21.0230 C   0  0  0  0  0  0  0  0  0  0  0  0
  -18.3120  -23.0370   21.8330 C   0  0  0  0  0  3  0  0  0  0  0  0
  -17.0820  -22.4270   22.1610 C   0  0  0  0  0  3  0  0  0  0  0  0
  -15.8680  -22.9740   21.6820 C   0  0  0  0  0  0  0  0  0  0  0  0
  -15.9080  -24.1120   20.8550 C   0  0  0  0  0  3  0  0  0  0  0  0
  -17.1330  -24.7150   20.5250 C   0  0  0  0  0  3  0  0  0  0  0  0
  -14.6280  -22.4340   21.9270 O   0  0  0  0  0  0  0  0  0  0  0  0
  -13.5350  -23.2260   22.1750 C   0  0  0  0  0  0  0  0  0  0  0  0
  -13.4770  -24.0940   23.2880 C   0  0  0  0  0  3  0  0  0  0  0  0
  -12.3640  -24.9400   23.4640 C   0  0  0  0  0  3  0  0  0  0  0  0
  -11.3140  -24.9280   22.5260 C   0  0  0  0  0  0  0  0  0  0  0  0
  -11.3720  -24.0680   21.4150 C   0  0  0  0  0  3  0  0  0  0  0  0
  -12.4810  -23.2220   21.2380 C   0  0  0  0  0  0  0  0  0  0  0  0
  -12.5420  -22.4110   20.1550 F   0  0  0  0  0  0  0  0  0  0  0  0
  -10.2470  -25.7440   22.6900 F   0  0  0  0  0  0  0  0  0  0  0  0
  -20.4400  -23.5440   18.5680 C   0  0  0  0  0  0  0  0  0  0  0  0
  -19.2480  -23.3490   18.0140 N   0  0  0  0  0  0  0  0  0  0  0  0
  -21.4280  -22.9200   18.1820 O   0  0  0  0  0  0  0  0  0  0  0  0
  -18.4400  -23.8760   18.3100 H   0  0  0  0  0  0  0  0  0  0  0  0
  -19.1450  -22.6610   17.2810 H   0  0  0  0  0  0  0  0  0  0  0  0
  -22.8270  -25.6060   19.2150 N   0  0  0  0  0  0  0  0  0  0  0  0
  -23.0940  -25.0530   18.4110 H   0  0  0  0  0  0  0  0  0  0  0  0
  -23.5590  -26.2330   19.5240 H   0  0  0  0  0  0  0  0  0  0  0  0
  -27.7960  -23.8680   21.2080 C   0  0  0  0  0  1  0  0  0  0  0  0
  -27.0950  -25.1550   21.6760 C   0  0  0  0  0  2  0  0  0  0  0  0
  1 50  1  0
  2  1  1  0
  2  3  2  0
  4  2  1  0
  5  4  2  0
  6  4  1  0
  7  6  2  0
  8  6  1  0
  9  8  1  0
 10 20  1  0
 11  9  1  0
 12 22  1  0
 12 19  1  0
 12 20  1  0
 13 18  2  0
 13 15  1  0
 14 15  1  0
 15 16  2  0
 16 11  1  0
 17 11  2  0
 18 17  1  0
 19 13  1  0
 20 14  1  0
 21 10  2  0
 22 23  1  0
 23 25  1  0
 24 22  2  0
 26 35  1  0
 26 30  1  0
 27 23  1  0
 27 31  1  0
 27 28  1  0
 28 29  1  0
 29 30  1  0
 31 26  2  0
 32 33  2  0
 32 31  1  0
 33 34  1  0
 34 35  2  0
 36 10  1  0
 36 46  1  0
 37 38  1  0
 37 36  1  0
 38 39  2  0
 40 37  1  0
 42 41  1  0
 42 44  1  0
 42 38  1  0
 44 43  1  0
 45 44  1  0
 46 48  1  1
 46 49  1  0
 47 46  1  0
 50 55  1  0
 51 50  1  0
 52 54  1  0
 53 56  2  0
 54 57  2  0
 54 98  1  0
 55 53  1  0
 55 52  2  0
 56 67  1  0
 56 57  1  0
 57 58  1  0
 59 65  1  0
 59 66  2  0
 60 61  1  0
 62 61  1  0
 63 64  1  0
 63 62  1  0
 64 65  1  0
 65 60  1  0
 67 59  1  0
 68 67  1  0
 69 72  1  0
 70 69  2  0
 70 71  1  0
 71 74  1  0
 71 73  2  0
 72 73  1  0
 72 63  1  0
 74 75  1  0
 75 76  2  0
 77 80  1  0
 77 76  1  0
 78 77  2  0
 79 78  1  0
 79 74  2  0
 80 81  1  0
 81 82  1  0
 82 83  2  0
 84 88  1  0
 84 83  1  0
 85 84  2  0
 86 85  1  0
 86 81  2  0
 87 86  1  0
 89 70  1  0
 90 92  1  0
 90 89  1  0
 91 89  2  0
 93 90  1  0
 94 96  1  0
 94 69  1  0
 95 94  1  0
 97 98  1  0
M  ISO  4   8 101   9 101  59 100  67 100
M  END
>  <TORSDO>  (88) 
F 23

>  <SCORE>  (88) 
-4.807

>  <name>  (88) 
89

>  <ligand_id>  (88) 
89

>  <original_smiles>  (88) 
[H]c1c([H])c([H])c2c(c1[H])C([H])([H])C([H])([H])C([H])([H])C2([H])N([H])C(=O)C1([H])N(C(=O)C([H])(N([H])C(=O)C([H])(N([H])C([H])([H])[H])C([H])([H])[H])C(C([H])([H])[H])(C([H])([H])[H])C([H])([H])[H])C([H])([H])c2c([H])c(OC([H])([H])C(=O)C(=O)C(=O)C([H])([H])N([H])c3c([H])c(N([H])C(=O)N4C([H])([H])C([H])([H])C([H])([H])C([H])(n5nc(-c6c([H])c([H])c(Oc7c([H])c([H])c(F)c([H])c7F)c([H])c6[H])c(C(=O)N([H])[H])c5N([H])[H])C4([H])[H])c(F)c(C([H])([H])C([H])([H])[H])c3[H])c([H])c([H])c2C1([H])[H]

>  <smiles>  (88) 
[H]c1c([H])c([H])c2c(c1[H])C([H])([H])C([H])([H])C([H])([H])C2([H])N([H])C(=O)C1([H])N(C(=O)C([H])(N([H])C(=O)C([H])(N([H])C([H])([H])[H])C([H])([H])[H])C(C([H])([H])[H])(C([H])([H])[H])C([H])([H])[H])C([H])([H])c2c([H])c(OC([H])([H])C(=O)C(=O)C(=O)C([H])([H])N([H])c3c([H])c(N([H])C(=O)N4C([H])([H])C([H])([H])C([H])([H])C([H])(n5nc(-c6c([H])c([H])c(Oc7c([H])c([H])c(F)c([H])c7F)c([H])c6[H])c(C(=O)N([H])[H])c5N([H])[H])C4([H])[H])c(F)c(C([H])([H])C([H])([H])[H])c3[H])c([H])c([H])c2C1([H])[H]

$$$$
90:0:0
     RDKit          3D

102110  0  0  1  0  0  0  0  0999 V2000
  -29.1620  -23.0040   18.9800 C   0  0  0  0  0  3  0  0  0  0  0  0
  -29.3450  -20.6510   19.9710 C   0  0  0  0  0  0  0  0  0  0  0  0
  -28.7020  -21.6100   19.2700 N   0  0  0  0  0  0  0  0  0  0  0  0
  -30.2290  -21.0160   20.8980 N   0  0  0  0  0  4  0  0  0  0  0  0
  -27.8410  -21.3160   18.8290 H   0  0  0  0  0  0  0  0  0  0  0  0
  -30.8190  -20.3180   21.3240 H   0  0  0  0  0  0  0  0  0  0  0  0
  -30.1110  -21.9010   21.3640 H   0  0  0  0  0  0  0  0  0  0  0  0
  -28.6910  -17.5250   17.9600 C   0  0  0  0  0  3  0  0  0  0  0  0
  -28.7490  -18.8710   18.3540 C   0  0  0  0  0  3  0  0  0  0  0  0
  -29.0640  -16.5130   18.8610 C   0  0  0  0  0  3  0  0  0  0  0  0
  -29.5080  -18.1830   20.5750 C   0  0  0  0  0  3  0  0  0  0  0  0
  -29.1680  -19.2170   19.6580 C   0  0  0  0  0  0  0  0  0  0  0  0
  -29.4770  -16.8150   20.1790 C   0  0  0  0  0  0  0  0  0  0  0  0
  -30.6110  -14.7010   20.7250 C   0  0  0  0  0  0  0  0  0  0  0  0
  -30.4040  -12.5300   19.5680 C   0  0  0  0  0  2  0  0  0  0  0  0
  -29.5110  -12.6840   18.3190 C   0  0  0  0  0  2  0  0  0  0  0  0
  -28.0150  -12.5600   18.6910 C   0  0  0  0  0  2  0  0  0  0  0  0
  -27.6100  -13.3770   19.9510 C   0  0  0  0  0  3  0  0  0  0  0  0
  -28.6290  -13.1910   21.0950 C   0  0  0  0  0  2  0  0  0  0  0  0
  -29.9580  -13.5200   20.5610 N   0  0  0  0  0  0  0  0  0  0  0  0
  -31.7820  -14.8710   20.3750 O   0  0  0  0  0  0  0  0  0  0  0  0
  -29.8590  -15.7640   21.0850 N   0  0  0  0  0  0  0  0  0  0  0  0
  -30.0250  -16.0560   22.0360 H   0  0  0  0  0  0  0  0  0  0  0  0
  -25.1850  -13.9370   20.5940 C   0  0  0  0  0  0  0  0  0  0  0  0
  -24.1140  -13.1400   20.8990 C   0  0  0  0  0  0  0  0  0  0  0  0
  -24.5950  -11.7960   20.8510 C   0  0  0  0  0  0  0  0  0  0  0  0
  -26.2480  -13.0730   20.3770 N   0  0  0  0  0  0  0  0  0  0  0  0
  -25.8970  -11.7800   20.5940 N   0  0  0  0  0  0  0  0  0  0  0  0
  -23.8830  -10.5200   20.9830 C   0  0  0  0  0  0  0  0  0  0  0  0
  -24.3050   -9.5300   21.8990 C   0  0  0  0  0  3  0  0  0  0  0  0
  -23.5930   -8.3160   22.0180 C   0  0  0  0  0  3  0  0  0  0  0  0
  -22.4460   -8.0860   21.2190 C   0  0  0  0  0  0  0  0  0  0  0  0
  -22.0470   -9.0640   20.2920 C   0  0  0  0  0  3  0  0  0  0  0  0
  -22.7600  -10.2690   20.1700 C   0  0  0  0  0  3  0  0  0  0  0  0
  -21.7080   -6.9270   21.2480 O   0  0  0  0  0  0  0  0  0  0  0  0
  -21.6390   -6.1450   22.3730 C   0  0  0  0  0  0  0  0  0  0  0  0
  -21.1590   -6.6470   23.6010 C   0  0  0  0  0  3  0  0  0  0  0  0
  -21.0400   -5.7900   24.7130 C   0  0  0  0  0  3  0  0  0  0  0  0
  -21.3920   -4.4320   24.5980 C   0  0  0  0  0  0  0  0  0  0  0  0
  -21.8700   -3.9300   23.3760 C   0  0  0  0  0  3  0  0  0  0  0  0
  -21.9910   -4.7830   22.2650 C   0  0  0  0  0  0  0  0  0  0  0  0
  -22.4310   -4.2910   21.0810 F   0  0  0  0  0  0  0  0  0  0  0  0
  -21.2720   -3.6060   25.6650 F   0  0  0  0  0  0  0  0  0  0  0  0
  -22.7000  -13.5890   21.1300 C   0  0  0  0  0  0  0  0  0  0  0  0
  -21.9520  -12.8650   21.9570 N   0  0  0  0  0  0  0  0  0  0  0  0
  -22.2640  -14.6180   20.6170 O   0  0  0  0  0  0  0  0  0  0  0  0
  -22.3150  -12.0340   22.3960 H   0  0  0  0  0  0  0  0  0  0  0  0
  -21.0020  -13.1470   22.1520 H   0  0  0  0  0  0  0  0  0  0  0  0
  -25.3430  -15.3150   20.4620 N   0  0  0  0  0  0  0  0  0  0  0  0
  -24.5770  -15.9690   20.5690 H   0  0  0  0  0  0  0  0  0  0  0  0
  -26.2170  -15.7650   20.2200 H   0  0  0  0  0  0  0  0  0  0  0  0
  -29.1790  -23.9630   20.1930 C   0  0  0  0  0  0  0  0  0  0  0  0
  -28.6500  -23.6770   21.2700 O   0  0  0  0  0  0  0  0  0  0  0  0
  -29.9600  -25.2850   20.0330 C   0  0  0  0  0  2  0  0  0  0  0  0
  -30.1640  -27.5010   19.1960 C   0  0  0  0  0  1  0  0  0  0  0  0
  -29.2100  -26.4480   19.5330 N   0  0  0  0  0  0  0  0  0  0  0  0
  -28.5440  -26.9350   20.7040 O   0  0  0  0  0  0  0  0  0  0  0  0
  -24.5830  -32.0630   23.4030 C   0  0  0  0  0  0  0  0  0  0  0  0
  -27.4000  -27.6600   20.4780 C   0  0  0  0  0  0  0  0  0  0  0  0
  -23.4510  -30.6250   21.7320 C   0  0  0  0  0  3  0  0  0  0  0  0
  -24.9790  -29.1030   20.3600 C   0  0  0  0  0  0  0  0  0  0  0  0
  -25.9680  -31.0400   21.6040 C   0  0  0  0  0  2  0  0  0  0  0  0
  -26.1010  -29.6660   20.9810 C   0  0  0  0  0  0  0  0  0  0  0  0
  -27.3140  -28.9510   21.0370 C   0  0  0  0  0  3  0  0  0  0  0  0
  -26.2720  -27.1000   19.8450 C   0  0  0  0  0  3  0  0  0  0  0  0
  -25.0600  -27.8220   19.7820 C   0  0  0  0  0  3  0  0  0  0  0  0
  -23.7140  -29.9320   20.3640 C   0  0  0  0  0  2  0  0  0  0  0  0
  -24.6820  -31.2570   22.3060 N   0  0  0  0  0  0  0  0  0  0  0  0
  -23.4820  -32.3210   23.9080 O   0  0  0  0  0  0  0  0  0  0  0  0
  -22.7880  -29.6040   22.6840 C   0  0  0  0  0  0  0  0  0  0  0  0
  -21.4720  -29.3980   22.5150 N   0  0  0  0  0  0  0  0  0  0  0  0
  -23.4540  -29.0000   23.5300 O   0  0  0  0  0  0  0  0  0  0  0  0
  -20.9950  -29.9390   21.8060 H   0  0  0  0  0  0  0  0  0  0  0  0
  -18.0990  -28.1670   22.9150 C   0  0  0  0  0  0  0  0  0  0  0  0
  -20.6440  -28.4540   23.2650 C   0  0  0  0  0  3  0  0  0  0  0  0
  -20.7810  -27.0220   22.6980 C   0  0  0  0  0  2  0  0  0  0  0  0
  -19.7140  -26.6820   21.6530 C   0  0  0  0  0  2  0  0  0  0  0  0
  -18.3120  -26.8150   22.2540 C   0  0  0  0  0  2  0  0  0  0  0  0
  -19.1950  -28.9430   23.3750 C   0  0  0  0  0  0  0  0  0  0  0  0
  -18.9460  -30.2080   23.9510 C   0  0  0  0  0  3  0  0  0  0  0  0
  -17.6310  -30.6950   24.0730 C   0  0  0  0  0  3  0  0  0  0  0  0
  -16.5480  -29.9160   23.6320 C   0  0  0  0  0  3  0  0  0  0  0  0
  -16.7840  -28.6540   23.0570 C   0  0  0  0  0  3  0  0  0  0  0  0
  -25.8400  -32.7180   24.0580 C   0  0  0  0  0  3  0  0  0  0  0  0
  -25.5230  -34.1300   24.3090 N   0  0  0  0  0  0  0  0  0  0  0  0
  -25.9020  -35.1460   23.5200 C   0  0  0  0  0  0  0  0  0  0  0  0
  -26.6250  -34.9930   22.5320 O   0  0  0  0  0  0  0  0  0  0  0  0
  -24.8880  -34.3220   25.0700 H   0  0  0  0  0  0  0  0  0  0  0  0
  -24.2010  -36.9210   22.9970 C   0  0  0  0  0  1  0  0  0  0  0  0
  -25.3970  -36.5540   23.8870 C   0  0  0  0  0  3  0  0  0  0  0  0
  -27.4920  -37.4700   24.7810 C   0  0  0  0  0  1  0  0  0  0  0  0
  -26.4360  -37.6000   23.7810 N   0  0  0  0  0  0  0  0  0  0  0  0
  -26.0250  -38.5240   23.8750 H   0  0  0  0  0  0  0  0  0  0  0  0
  -26.2940  -32.0020   25.3880 C   0  0  1  0  0  0  0  0  0  0  0  0
  -25.1470  -31.7890   26.4030 C   0  0  0  0  0  1  0  0  0  0  0  0
  -26.9140  -30.6200   25.0750 C   0  0  0  0  0  1  0  0  0  0  0  0
  -27.3960  -32.8360   26.0840 C   0  0  0  0  0  1  0  0  0  0  0  0
  -28.4000  -23.6280   17.7710 C   0  0  0  0  0  2  0  0  0  0  0  0
  -28.4330  -24.6840   15.4760 C   0  0  0  0  0  1  0  0  0  0  0  0
  -30.3940  -25.0260   16.9420 C   0  0  0  0  0  1  0  0  0  0  0  0
  -29.9240  -22.7410   15.9650 C   0  0  0  0  0  1  0  0  0  0  0  0
  -29.2960  -24.0140   16.5590 C   0  0  1  0  0  0  0  0  0  0  0  0
  1 98  1  0
  1  3  1  0
  1 52  1  0
  2  4  2  0
  3  2  1  0
  4  6  1  0
  4  7  1  0
  5  3  1  0
  8  9  2  0
  8 10  1  0
  9 12  1  0
 10 13  2  0
 12  2  1  0
 12 11  2  0
 13 11  1  0
 13 22  1  0
 14 22  1  0
 15 20  1  0
 16 17  1  0
 16 15  1  0
 18 17  1  0
 18 27  1  0
 18 19  1  0
 20 14  1  0
 20 19  1  0
 21 14  2  0
 22 23  1  0
 24 25  2  0
 25 44  1  0
 26 25  1  0
 26 29  1  0
 27 28  1  0
 27 24  1  0
 28 26  2  0
 29 30  1  0
 30 31  2  0
 32 35  1  0
 32 31  1  0
 33 32  2  0
 34 33  1  0
 34 29  2  0
 35 36  1  0
 36 37  1  0
 37 38  2  0
 39 38  1  0
 39 43  1  0
 40 39  2  0
 41 36  2  0
 41 40  1  0
 42 41  1  0
 44 45  1  0
 45 48  1  0
 45 47  1  0
 46 44  2  0
 49 50  1  0
 49 24  1  0
 51 49  1  0
 52 53  2  0
 54 52  1  0
 55 56  1  0
 56 54  1  0
 56 57  1  0
 58 69  2  0
 59 57  1  0
 59 64  1  0
 60 68  1  0
 60 70  1  0
 61 67  1  0
 61 63  1  0
 62 68  1  0
 63 64  2  0
 63 62  1  0
 65 59  2  0
 66 65  1  0
 66 61  2  0
 67 60  1  0
 68 58  1  0
 70 72  2  0
 71 70  1  0
 73 71  1  0
 74 83  2  0
 74 79  1  0
 75 71  1  0
 75 79  1  0
 76 75  1  0
 77 78  1  0
 77 76  1  0
 78 74  1  0
 79 80  2  0
 80 81  1  0
 82 81  2  0
 83 82  1  0
 84 58  1  0
 84 85  1  0
 84 94  1  0
 85 88  1  0
 86 90  1  0
 86 85  1  0
 87 86  2  0
 90 89  1  0
 92 93  1  0
 92 90  1  0
 92 91  1  0
 94 97  1  1
 94 95  1  0
 96 94  1  0
102 99  1  6
101102  1  0
102100  1  0
102 98  1  0
M  ISO  4  14 100  22 100  56 101  57 101
M  END
>  <TORSDO>  (89) 
F 23

>  <SCORE>  (89) 
-12.476

>  <name>  (89) 
90

>  <ligand_id>  (89) 
90

>  <original_smiles>  (89) 
[H]c1c([H])c(C(N([H])C([H])(C(=O)C([H])([H])N(Oc2c([H])c([H])c3c(c2[H])C([H])([H])N(C(=O)C([H])(N([H])C(=O)C([H])(N([H])C([H])([H])[H])C([H])([H])[H])C(C([H])([H])[H])(C([H])([H])[H])C([H])([H])[H])C([H])(C(=O)N([H])C2([H])c4c([H])c([H])c([H])c([H])c4C([H])([H])C([H])([H])C2([H])[H])C3([H])[H])C([H])([H])[H])C([H])([H])C(C([H])([H])[H])(C([H])([H])[H])C([H])([H])[H])=[N+]([H])[H])c([H])c(N([H])C(=O)N2C([H])([H])C([H])([H])C([H])([H])C([H])(n3nc(-c4c([H])c([H])c(Oc5c([H])c([H])c(F)c([H])c5F)c([H])c4[H])c(C(=O)N([H])[H])c3N([H])[H])C2([H])[H])c1[H]

>  <smiles>  (89) 
[H]c1c([H])c(C(N([H])C([H])(C(=O)C([H])([H])N(Oc2c([H])c([H])c3c(c2[H])C([H])([H])N(C(=O)C([H])(N([H])C(=O)C([H])(N([H])C([H])([H])[H])C([H])([H])[H])C(C([H])([H])[H])(C([H])([H])[H])C([H])([H])[H])C([H])(C(=O)N([H])C2([H])c4c([H])c([H])c([H])c([H])c4C([H])([H])C([H])([H])C2([H])[H])C3([H])[H])C([H])([H])[H])C([H])([H])C(C([H])([H])[H])(C([H])([H])[H])C([H])([H])[H])=[N+]([H])[H])c([H])c(N([H])C(=O)N2C([H])([H])C([H])([H])C([H])([H])C([H])(n3nc(-c4c([H])c([H])c(Oc5c([H])c([H])c(F)c([H])c5F)c([H])c4[H])c(C(=O)N([H])[H])c3N([H])[H])C2([H])[H])c1[H]

$$$$
91:0:0
     RDKit          3D

 95 92  0  0  1  0  0  0  0  0999 V2000
  -25.4940  -12.4950   22.5020 C   0  0  0  0  0 15  0  0  0  0  0  0
  -26.1560  -11.6510   20.4400 C   0  0  0  0  0 15  0  0  0  0  0  0
  -24.8210  -14.6300   22.7090 C   0  0  0  0  0 15  0  0  0  0  0  0
  -26.1900  -13.3080   18.7450 C   0  0  0  0  0  1  0  0  0  0  0  0
  -25.2930  -15.2490   19.0540 C   0  0  0  0  0  1  0  0  0  0  0  0
  -24.7210  -16.0570   20.9570 C   0  0  0  0  0  1  0  0  0  0  0  0
  -25.3070  -16.2340   17.9050 C   0  0  1  0  0  0  0  0  0  0  0  0
  -26.4010  -16.9940   17.9550 F   0  0  0  0  0  0  0  0  0  0  0  0
  -25.2620  -15.5990   16.7340 F   0  0  0  0  0  0  0  0  0  0  0  0
  -24.2360  -17.0220   17.9810 F   0  0  0  0  0  0  0  0  0  0  0  0
  -25.4120  -19.2400   20.6230 C   0  0  0  0  0  1  0  0  0  0  0  0
  -25.0720  -17.8010   21.1860 N   0  0  0  0  0  2  0  0  0  0  0  0
  -26.0270  -21.1950   21.0010 C   0  0  0  0  0  2  0  0  0  0  0  0
  -26.4540  -21.2290   22.1620 O   0  0  0  0  0  0  0  0  0  0  0  0
  -26.1920  -23.0750   20.2940 C   0  0  0  0  0 15  0  0  0  0  0  0
  -27.0410  -24.7700   20.5710 O   0  0  0  0  0  1  0  0  0  0  0  0
  -24.6960  -31.7790   23.1530 C   0  0  0  0  0  0  0  0  0  0  0  0
  -26.6410  -26.3030   20.3440 C   0  0  0  0  0  0  0  0  0  0  0  0
  -23.5060  -30.4130   21.5170 C   0  0  0  0  0  3  0  0  0  0  0  0
  -24.8730  -28.7340   20.0750 C   0  0  0  0  0  0  0  0  0  0  0  0
  -26.0830  -30.3660   21.4780 C   0  0  0  0  0  2  0  0  0  0  0  0
  -26.0360  -28.9100   20.8250 C   0  0  0  0  0  0  0  0  0  0  0  0
  -26.9340  -27.7010   20.9390 C   0  0  0  0  0  3  0  0  0  0  0  0
  -25.6270  -26.4690   19.3980 C   0  0  0  0  0  3  0  0  0  0  0  0
  -24.7450  -27.5700   19.3140 C   0  0  0  0  0  3  0  0  0  0  0  0
  -23.7450  -29.7680   20.1240 C   0  0  0  0  0  2  0  0  0  0  0  0
  -24.7950  -30.8970   22.0980 N   0  0  0  0  0  0  0  0  0  0  0  0
  -23.5960  -32.1080   23.6350 O   0  0  0  0  0  0  0  0  0  0  0  0
  -22.7700  -29.4260   22.4660 C   0  0  0  0  0  0  0  0  0  0  0  0
  -21.4360  -29.2990   22.3410 N   0  0  0  0  0  0  0  0  0  0  0  0
  -23.4120  -28.7790   23.2980 O   0  0  0  0  0  0  0  0  0  0  0  0
  -20.9620  -29.8680   21.6540 H   0  0  0  0  0  0  0  0  0  0  0  0
  -18.0340  -28.1420   22.8480 C   0  0  0  0  0  0  0  0  0  0  0  0
  -20.5960  -28.3760   23.1150 C   0  0  0  0  0  3  0  0  0  0  0  0
  -20.6800  -26.9430   22.5410 C   0  0  0  0  0  2  0  0  0  0  0  0
  -19.5760  -26.6370   21.5230 C   0  0  0  0  0  2  0  0  0  0  0  0
  -18.1950  -26.7950   22.1640 C   0  0  0  0  0  2  0  0  0  0  0  0
  -19.1600  -28.8920   23.2810 C   0  0  0  0  0  0  0  0  0  0  0  0
  -18.9510  -30.1520   23.8830 C   0  0  0  0  0  3  0  0  0  0  0  0
  -17.6490  -30.6590   24.0560 C   0  0  0  0  0  3  0  0  0  0  0  0
  -16.5380  -29.9070   23.6360 C   0  0  0  0  0  3  0  0  0  0  0  0
  -16.7320  -28.6500   23.0370 C   0  0  0  0  0  3  0  0  0  0  0  0
  -25.9510  -32.4310   23.8040 C   0  0  0  0  0  3  0  0  0  0  0  0
  -25.6050  -33.8170   24.1880 N   0  0  0  0  0  0  0  0  0  0  0  0
  -25.9170  -34.9190   23.4920 C   0  0  0  0  0  0  0  0  0  0  0  0
  -26.5820  -34.8790   22.4550 O   0  0  0  0  0  0  0  0  0  0  0  0
  -25.0120  -33.9220   24.9980 H   0  0  0  0  0  0  0  0  0  0  0  0
  -24.1520  -36.7090   23.2650 C   0  0  0  0  0  1  0  0  0  0  0  0
  -25.4180  -36.2820   24.0270 C   0  0  0  0  0  3  0  0  0  0  0  0
  -27.5580  -37.1700   24.8460 C   0  0  0  0  0  1  0  0  0  0  0  0
  -26.4280  -37.3610   23.9400 N   0  0  0  0  0  0  0  0  0  0  0  0
  -26.0090  -38.2650   24.1440 H   0  0  0  0  0  0  0  0  0  0  0  0
  -26.4620  -31.6460   25.0760 C   0  0  1  0  0  0  0  0  0  0  0  0
  -25.3630  -31.3840   26.1340 C   0  0  0  0  0  1  0  0  0  0  0  0
  -27.0560  -30.2750   24.6920 C   0  0  0  0  0  1  0  0  0  0  0  0
  -27.6070  -32.4390   25.7530 C   0  0  0  0  0  1  0  0  0  0  0  0
  -27.6500  -13.9090   17.9130 C   0  0  0  0  0  2  0  0  0  0  0  0
  -30.2380  -14.4740   19.4160 C   0  0  0  0  0  0  0  0  0  0  0  0
  -30.7880  -12.1990   19.4590 C   0  0  0  0  0  2  0  0  0  0  0  0
  -29.7310  -11.8260   18.4430 C   0  0  0  0  0  2  0  0  0  0  0  0
  -28.4310  -11.7850   19.2610 C   0  0  0  0  0  2  0  0  0  0  0  0
  -28.1600  -12.9740   20.4540 C   0  0  0  0  0  3  0  0  0  0  0  0
  -29.3480  -13.1000   21.2550 C   0  0  0  0  0  2  0  0  0  0  0  0
  -30.2860  -13.3570   20.1740 N   0  0  0  0  0  0  0  0  0  0  0  0
  -31.2640  -15.1600   19.5410 O   0  0  0  0  0  0  0  0  0  0  0  0
  -29.1370  -14.6160   18.4160 N   0  0  0  0  0  0  0  0  0  0  0  0
  -29.3270  -15.4350   17.8580 H   0  0  0  0  0  0  0  0  0  0  0  0
  -25.9650  -14.1620   20.8770 C   0  0  0  0  0  0  0  0  0  0  0  0
  -24.2050  -13.6350   20.6470 C   0  0  0  0  0  0  0  0  0  0  0  0
  -23.9800  -12.3750   20.3190 C   0  0  0  0  0  2  0  0  0  0  0  0
  -26.8620  -13.6490   21.0360 N   0  0  0  0  0  2  0  0  0  0  0  0
  -25.0000  -13.5100   20.6080 N   0  0  0  0  0  2  0  0  0  0  0  0
  -23.6340  -10.8460   20.8460 C   0  0  0  0  0  3  0  0  0  0  0  0
  -24.2070   -9.8440   21.7610 C   0  0  0  0  0  3  0  0  0  0  0  0
  -23.6330   -8.5410   22.0000 C   0  0  0  0  0  3  0  0  0  0  0  0
  -22.4500   -8.1510   21.3280 C   0  0  0  0  0  0  0  0  0  0  0  0
  -21.9290   -9.0700   20.4070 C   0  0  0  0  0  3  0  0  0  0  0  0
  -22.5040  -10.3390   20.1780 C   0  0  0  0  0  3  0  0  0  0  0  0
  -21.7820   -6.9370   21.4140 O   0  0  0  0  0  0  0  0  0  0  0  0
  -21.7580   -6.1190   22.5230 C   0  0  0  0  0  0  0  0  0  0  0  0
  -21.4540   -6.5990   23.8160 C   0  0  0  0  0  3  0  0  0  0  0  0
  -21.3840   -5.7070   24.9070 C   0  0  0  0  0  3  0  0  0  0  0  0
  -21.6020   -4.3290   24.7130 C   0  0  0  0  0  0  0  0  0  0  0  0
  -21.8730   -3.8400   23.4240 C   0  0  0  0  0  3  0  0  0  0  0  0
  -21.9420   -4.7290   22.3350 C   0  0  0  0  0  0  0  0  0  0  0  0
  -22.1750   -4.2360   21.0940 F   0  0  0  0  0  0  0  0  0  0  0  0
  -21.5490   -3.4740   25.7630 F   0  0  0  0  0  0  0  0  0  0  0  0
  -22.6680  -14.0050   21.0820 C   0  0  0  0  0  0  0  0  0  0  0  0
  -22.0520  -13.2120   21.9870 N   0  0  0  0  0  0  0  0  0  0  0  0
  -22.0760  -14.9130   20.5400 O   0  0  0  0  0  0  0  0  0  0  0  0
  -22.5520  -12.4590   22.4320 H   0  0  0  0  0  0  0  0  0  0  0  0
  -21.1010  -13.4010   22.2640 H   0  0  0  0  0  0  0  0  0  0  0  0
  -26.9280  -15.2610   21.1730 N   0  0  0  0  0  4  0  0  0  0  0  0
  -26.4950  -16.1430   21.4300 H   0  0  0  0  0  0  0  0  0  0  0  0
  -27.7280  -15.0470   21.7490 H   0  0  0  0  0  0  0  0  0  0  0  0
  6 12  1  0
  7  8  1  0
  7 10  1  0
  7  5  1  1
  9  7  1  0
 11 12  1  0
 13 14  2  0
 17 28  2  0
 18 16  1  0
 18 23  1  0
 19 27  1  0
 19 29  1  0
 20 26  1  0
 20 22  1  0
 21 27  1  0
 22 23  2  0
 22 21  1  0
 24 18  2  0
 25 24  1  0
 25 20  2  0
 26 19  1  0
 27 17  1  0
 29 31  2  0
 30 29  1  0
 32 30  1  0
 33 42  2  0
 33 38  1  0
 34 30  1  0
 34 38  1  0
 35 34  1  0
 36 37  1  0
 36 35  1  0
 37 33  1  0
 38 39  2  0
 39 40  1  0
 41 40  2  0
 42 41  1  0
 43 17  1  0
 43 44  1  0
 43 53  1  0
 44 47  1  0
 45 49  1  0
 45 44  1  0
 46 45  2  0
 49 48  1  0
 51 49  1  0
 51 52  1  0
 51 50  1  0
 53 56  1  1
 53 54  1  0
 55 53  1  0
 57 66  1  0
 57  4  1  0
 58 65  2  0
 58 64  1  0
 59 64  1  0
 60 61  1  0
 60 59  1  0
 61 62  1  0
 62 71  1  0
 62 63  1  0
 64 63  1  0
 66 58  1  0
 67 66  1  0
 68 71  1  0
 68 93  2  0
 69 88  1  0
 70 69  2  0
 72 69  1  0
 72 68  1  0
 73 74  1  0
 74 75  2  0
 76 79  1  0
 76 75  1  0
 77 76  2  0
 78 77  1  0
 78 73  2  0
 79 80  1  0
 80 81  1  0
 81 82  2  0
 83 82  1  0
 83 87  1  0
 84 83  2  0
 85 80  2  0
 85 84  1  0
 86 85  1  0
 88 89  1  0
 89 92  1  0
 89 91  1  0
 90 88  2  0
 93 94  1  0
 93 95  1  0
M  ISO  4  15 101  16 101  58 100  66 100
M  END
>  <TORSDO>  (90) 
F 21

>  <SCORE>  (90) 
26.938

>  <name>  (90) 
91

>  <ligand_id>  (90) 
91

>  <original_smiles>  (90) 
[H]C(=Nc1c([H])c([H])c([H])c(C([H])([H])N([H])C(=O)N2C([H])([H])C([H])([H])C([H])([H])C([H])(n3nc(-c4c([H])c([H])c(Oc5c([H])c([H])c(F)c([H])c5F)c([H])c4[H])c(C(=O)N([H])[H])c3N([H])[H])C2([H])[H])c1C(F)(F)F)C(=O)C([H])([H])Oc1c([H])c([H])c2c(c1[H])C([H])([H])N(C(=O)C([H])(N([H])C(=O)C([H])(N([H])C([H])([H])[H])C([H])([H])[H])C(C([H])([H])[H])(C([H])([H])[H])C([H])([H])[H])C([H])(C(=O)N([H])C1([H])c3c([H])c([H])c([H])c([H])c3C([H])([H])C([H])([H])C1([H])[H])C2([H])[H]

>  <smiles>  (90) 
[H]C(=Nc1c([H])c([H])c([H])c(C([H])([H])N([H])C(=O)N2C([H])([H])C([H])([H])C([H])([H])C([H])(n3nc(-c4c([H])c([H])c(Oc5c([H])c([H])c(F)c([H])c5F)c([H])c4[H])c(C(=O)N([H])[H])c3N([H])[H])C2([H])[H])c1C(F)(F)F)C(=O)C([H])([H])Oc1c([H])c([H])c2c(c1[H])C([H])([H])N(C(=O)C([H])(N([H])C(=O)C([H])(N([H])C([H])([H])[H])C([H])([H])[H])C(C([H])([H])[H])(C([H])([H])[H])C([H])([H])[H])C([H])(C(=O)N([H])C1([H])c3c([H])c([H])c([H])c([H])c3C([H])([H])C([H])([H])C1([H])[H])C2([H])[H]

$$$$
92:0:0
     RDKit          3D

 97105  0  0  1  0  0  0  0  0999 V2000
  -30.5270  -21.2970   23.2050 C   0  0  0  0  0  1  0  0  0  0  0  0
  -30.6890  -21.2020   21.6740 C   0  0  0  0  0  3  0  0  0  0  0  0
  -29.2430  -17.8610   20.9500 C   0  0  0  0  0  3  0  0  0  0  0  0
  -30.5900  -19.7230   21.2400 C   0  0  0  0  0  0  0  0  0  0  0  0
  -30.3690  -16.9940   20.8820 C   0  0  0  0  0  0  0  0  0  0  0  0
  -31.7310  -18.8680   21.1430 C   0  0  0  0  0  0  0  0  0  0  0  0
  -29.3410  -19.2060   21.1210 N   0  0  0  0  0  0  0  0  0  0  0  0
  -31.6160  -17.5320   20.9610 N   0  0  0  0  0  0  0  0  0  0  0  0
  -33.0420  -19.3140   21.2640 N   0  0  0  0  0  0  0  0  0  0  0  0
  -33.2600  -20.3000   21.1740 H   0  0  0  0  0  0  0  0  0  0  0  0
  -33.8020  -18.6920   21.0140 H   0  0  0  0  0  0  0  0  0  0  0  0
  -30.8120  -14.6160   20.1610 C   0  0  0  0  0  0  0  0  0  0  0  0
  -30.4710  -12.5040   18.9240 C   0  0  0  0  0  2  0  0  0  0  0  0
  -29.4650  -12.7620   17.7820 C   0  0  0  0  0  2  0  0  0  0  0  0
  -28.0130  -12.6100   18.2760 C   0  0  0  0  0  2  0  0  0  0  0  0
  -27.7430  -13.3710   19.6030 C   0  0  0  0  0  3  0  0  0  0  0  0
  -28.8570  -13.0910   20.6370 C   0  0  0  0  0  2  0  0  0  0  0  0
  -30.1470  -13.4350   20.0170 N   0  0  0  0  0  0  0  0  0  0  0  0
  -31.9180  -14.8100   19.6450 O   0  0  0  0  0  0  0  0  0  0  0  0
  -30.0990  -15.5920   20.7650 N   0  0  0  0  0  0  0  0  0  0  0  0
  -29.1920  -15.3030   21.0920 H   0  0  0  0  0  0  0  0  0  0  0  0
  -25.3780  -13.9370   20.4420 C   0  0  0  0  0  0  0  0  0  0  0  0
  -24.3370  -13.1460   20.8470 C   0  0  0  0  0  0  0  0  0  0  0  0
  -24.8070  -11.7990   20.7600 C   0  0  0  0  0  0  0  0  0  0  0  0
  -26.4170  -13.0720   20.1360 N   0  0  0  0  0  0  0  0  0  0  0  0
  -26.0810  -11.7800   20.3860 N   0  0  0  0  0  0  0  0  0  0  0  0
  -24.1020  -10.5260   20.9530 C   0  0  0  0  0  0  0  0  0  0  0  0
  -24.5520   -9.5690   21.8880 C   0  0  0  0  0  3  0  0  0  0  0  0
  -23.8460   -8.3590   22.0700 C   0  0  0  0  0  3  0  0  0  0  0  0
  -22.6760   -8.1000   21.3160 C   0  0  0  0  0  0  0  0  0  0  0  0
  -22.2470   -9.0460   20.3690 C   0  0  0  0  0  3  0  0  0  0  0  0
  -22.9540  -10.2470   20.1860 C   0  0  0  0  0  3  0  0  0  0  0  0
  -21.9420   -6.9420   21.4060 O   0  0  0  0  0  0  0  0  0  0  0  0
  -21.8510   -6.2370   22.5800 C   0  0  0  0  0  0  0  0  0  0  0  0
  -21.3200   -6.8130   23.7560 C   0  0  0  0  0  3  0  0  0  0  0  0
  -21.1790   -6.0320   24.9190 C   0  0  0  0  0  3  0  0  0  0  0  0
  -21.5590   -4.6760   24.9090 C   0  0  0  0  0  0  0  0  0  0  0  0
  -22.0820   -4.1010   23.7380 C   0  0  0  0  0  3  0  0  0  0  0  0
  -22.2250   -4.8790   22.5770 C   0  0  0  0  0  0  0  0  0  0  0  0
  -22.7100   -4.3130   21.4450 F   0  0  0  0  0  0  0  0  0  0  0  0
  -21.4180   -3.9230   26.0260 F   0  0  0  0  0  0  0  0  0  0  0  0
  -22.9500  -13.6030   21.1990 C   0  0  0  0  0  0  0  0  0  0  0  0
  -22.2680  -12.8770   22.0770 N   0  0  0  0  0  0  0  0  0  0  0  0
  -22.4800  -14.6380   20.7280 O   0  0  0  0  0  0  0  0  0  0  0  0
  -22.6600  -12.0410   22.4850 H   0  0  0  0  0  0  0  0  0  0  0  0
  -21.3370  -13.1630   22.3500 H   0  0  0  0  0  0  0  0  0  0  0  0
  -25.5180  -15.3130   20.2870 N   0  0  0  0  0  0  0  0  0  0  0  0
  -24.7360  -15.9430   20.4310 H   0  0  0  0  0  0  0  0  0  0  0  0
  -26.3130  -15.7640   19.8550 H   0  0  0  0  0  0  0  0  0  0  0  0
  -29.9500  -23.4770   20.9610 C   0  0  0  0  0  0  0  0  0  0  0  0
  -29.7500  -22.1400   21.0220 N   0  0  0  0  0  0  0  0  0  0  0  0
  -30.9850  -24.0230   21.3550 O   0  0  0  0  0  0  0  0  0  0  0  0
  -28.8880  -21.7660   20.6470 H   0  0  0  0  0  0  0  0  0  0  0  0
  -28.7630  -24.3040   20.3800 C   0  0  0  0  0  0  0  0  0  0  0  0
  -28.0580  -23.8830   19.4540 O   0  0  0  0  0  0  0  0  0  0  0  0
  -28.4820  -25.6700   21.0490 C   0  0  0  0  0  2  0  0  0  0  0  0
  -28.4890  -26.7610   20.1060 O   0  0  0  0  0  0  0  0  0  0  0  0
  -24.6090  -31.8670   23.2200 C   0  0  0  0  0  0  0  0  0  0  0  0
  -27.3330  -27.5040   20.1120 C   0  0  0  0  0  0  0  0  0  0  0  0
  -23.4370  -30.4800   21.5390 C   0  0  0  0  0  3  0  0  0  0  0  0
  -24.9260  -28.9780   20.1120 C   0  0  0  0  0  0  0  0  0  0  0  0
  -25.9600  -30.8720   21.3750 C   0  0  0  0  0  2  0  0  0  0  0  0
  -26.0710  -29.5110   20.7190 C   0  0  0  0  0  0  0  0  0  0  0  0
  -27.2820  -28.7810   20.7130 C   0  0  0  0  0  3  0  0  0  0  0  0
  -26.1740  -26.9810   19.5030 C   0  0  0  0  0  3  0  0  0  0  0  0
  -24.9720  -27.7120   19.5000 C   0  0  0  0  0  3  0  0  0  0  0  0
  -23.6720  -29.8220   20.1520 C   0  0  0  0  0  2  0  0  0  0  0  0
  -24.6870  -31.0870   22.1050 N   0  0  0  0  0  0  0  0  0  0  0  0
  -23.5180  -32.1200   23.7500 O   0  0  0  0  0  0  0  0  0  0  0  0
  -22.7820  -29.4390   22.4750 C   0  0  0  0  0  0  0  0  0  0  0  0
  -21.4560  -29.2720   22.3500 N   0  0  0  0  0  0  0  0  0  0  0  0
  -23.4650  -28.7850   23.2680 O   0  0  0  0  0  0  0  0  0  0  0  0
  -20.9660  -29.8540   21.6850 H   0  0  0  0  0  0  0  0  0  0  0  0
  -18.0690  -28.1220   22.8550 C   0  0  0  0  0  0  0  0  0  0  0  0
  -20.6350  -28.3190   23.0960 C   0  0  0  0  0  3  0  0  0  0  0  0
  -20.7010  -26.9100   22.4620 C   0  0  0  0  0  2  0  0  0  0  0  0
  -19.5780  -26.6490   21.4530 C   0  0  0  0  0  2  0  0  0  0  0  0
  -18.2090  -26.7950   22.1250 C   0  0  0  0  0  2  0  0  0  0  0  0
  -19.2090  -28.8430   23.2970 C   0  0  0  0  0  0  0  0  0  0  0  0
  -19.0260  -30.0860   23.9400 C   0  0  0  0  0  3  0  0  0  0  0  0
  -17.7350  -30.6080   24.1430 C   0  0  0  0  0  3  0  0  0  0  0  0
  -16.6090  -29.8830   23.7180 C   0  0  0  0  0  3  0  0  0  0  0  0
  -16.7770  -28.6410   23.0800 C   0  0  0  0  0  3  0  0  0  0  0  0
  -25.8790  -32.5010   23.8660 C   0  0  0  0  0  3  0  0  0  0  0  0
  -26.3730  -31.7360   25.1530 C   0  0  1  0  0  0  0  0  0  0  0  0
  -25.2580  -31.4950   26.1980 C   0  0  0  0  0  1  0  0  0  0  0  0
  -26.9720  -30.3620   24.7700 C   0  0  0  0  0  1  0  0  0  0  0  0
  -27.5050  -32.5370   25.8380 C   0  0  0  0  0  1  0  0  0  0  0  0
  -25.5630  -33.9010   24.1820 N   0  0  0  0  0  0  0  0  0  0  0  0
  -25.9210  -34.9480   23.4280 C   0  0  0  0  0  0  0  0  0  0  0  0
  -26.6220  -34.8390   22.4180 O   0  0  0  0  0  0  0  0  0  0  0  0
  -24.9420  -34.0600   24.9600 H   0  0  0  0  0  0  0  0  0  0  0  0
  -24.2190  -36.7480   23.0060 C   0  0  0  0  0  1  0  0  0  0  0  0
  -25.4240  -36.3380   23.8670 C   0  0  0  0  0  3  0  0  0  0  0  0
  -27.5250  -37.2160   24.7840 C   0  0  0  0  0  1  0  0  0  0  0  0
  -26.4660  -37.3860   23.7940 N   0  0  0  0  0  0  0  0  0  0  0  0
  -26.0590  -38.3080   23.9210 H   0  0  0  0  0  0  0  0  0  0  0  0
  2  1  1  0
  3  7  1  0
  4  2  1  0
  5  3  2  0
  5  8  1  0
  6  4  1  0
  6  9  1  0
  7  4  2  0
  8  6  2  0
 10  9  1  0
 11  9  1  0
 12 20  1  0
 13 18  1  0
 14 15  1  0
 14 13  1  0
 16 15  1  0
 16 25  1  0
 16 17  1  0
 18 12  1  0
 18 17  1  0
 19 12  2  0
 20  5  1  0
 20 21  1  0
 22 23  2  0
 23 42  1  0
 24 23  1  0
 24 27  1  0
 25 26  1  0
 25 22  1  0
 26 24  2  0
 27 28  1  0
 28 29  2  0
 30 33  1  0
 30 29  1  0
 31 30  2  0
 32 31  1  0
 32 27  2  0
 33 34  1  0
 34 35  1  0
 35 36  2  0
 37 36  1  0
 37 41  1  0
 38 37  2  0
 39 34  2  0
 39 38  1  0
 40 39  1  0
 42 43  1  0
 43 46  1  0
 43 45  1  0
 44 42  2  0
 47 48  1  0
 47 22  1  0
 49 47  1  0
 50 51  1  0
 50 52  2  0
 51  2  1  0
 53 51  1  0
 54 50  1  0
 54 56  1  0
 55 54  2  0
 57 59  1  0
 57 56  1  0
 58 69  2  0
 59 64  1  0
 60 68  1  0
 60 70  1  0
 61 67  1  0
 61 63  1  0
 62 68  1  0
 63 62  1  0
 64 63  2  0
 65 59  2  0
 66 65  1  0
 66 61  2  0
 67 60  1  0
 68 58  1  0
 70 72  2  0
 71 70  1  0
 73 71  1  0
 74 83  2  0
 74 79  1  0
 75 71  1  0
 75 79  1  0
 76 75  1  0
 77 78  1  0
 77 76  1  0
 78 74  1  0
 79 80  2  0
 80 81  1  0
 82 81  2  0
 83 82  1  0
 84 58  1  0
 84 89  1  0
 84 85  1  0
 85 88  1  1
 85 86  1  0
 87 85  1  0
 89 92  1  0
 90 94  1  0
 90 89  1  0
 91 90  2  0
 94 93  1  0
 96 94  1  0
 96 97  1  0
 96 95  1  0
M  ISO  4  12 100  20 100  56 101  57 101
M  END
>  <TORSDO>  (91) 
F 20

>  <SCORE>  (91) 
-13.965

>  <name>  (91) 
92

>  <ligand_id>  (91) 
92

>  <original_smiles>  (91) 
[H]c1nc(C([H])(N([H])C(=O)C(=O)C([H])([H])Oc2c([H])c([H])c3c(c2[H])C([H])([H])N(C(=O)C([H])(N([H])C(=O)C([H])(N([H])C([H])([H])[H])C([H])([H])[H])C(C([H])([H])[H])(C([H])([H])[H])C([H])([H])[H])C([H])(C(=O)N([H])C2([H])c4c([H])c([H])c([H])c([H])c4C([H])([H])C([H])([H])C2([H])[H])C3([H])[H])C([H])([H])[H])c(N([H])[H])nc1N([H])C(=O)N1C([H])([H])C([H])([H])C([H])([H])C([H])(n2nc(-c3c([H])c([H])c(Oc4c([H])c([H])c(F)c([H])c4F)c([H])c3[H])c(C(=O)N([H])[H])c2N([H])[H])C1([H])[H]

>  <smiles>  (91) 
[H]c1nc(C([H])(N([H])C(=O)C(=O)C([H])([H])Oc2c([H])c([H])c3c(c2[H])C([H])([H])N(C(=O)C([H])(N([H])C(=O)C([H])(N([H])C([H])([H])[H])C([H])([H])[H])C(C([H])([H])[H])(C([H])([H])[H])C([H])([H])[H])C([H])(C(=O)N([H])C2([H])c4c([H])c([H])c([H])c([H])c4C([H])([H])C([H])([H])C2([H])[H])C3([H])[H])C([H])([H])[H])c(N([H])[H])nc1N([H])C(=O)N1C([H])([H])C([H])([H])C([H])([H])C([H])(n2nc(-c3c([H])c([H])c(Oc4c([H])c([H])c(F)c([H])c4F)c([H])c3[H])c(C(=O)N([H])[H])c2N([H])[H])C1([H])[H]

$$$$
93:0:0
     RDKit          3D

 90 98  0  0  1  0  0  0  0  0999 V2000
  -28.8840  -22.8410   20.2300 C   0  0  0  0  0  3  0  0  0  0  0  0
  -29.0840  -21.7800   19.5350 N   0  0  0  0  0  0  0  0  0  0  0  0
  -29.7680  -19.4480   19.4240 C   0  0  0  0  0  3  0  0  0  0  0  0
  -30.4390  -18.5480   20.3140 C   0  0  0  0  0  0  0  0  0  0  0  0
  -30.5640  -19.2510   21.4880 C   0  0  0  0  0  0  0  0  0  0  0  0
  -29.5960  -20.6250   20.0970 C   0  0  0  0  0  0  0  0  0  0  0  0
  -31.1860  -18.9350   22.8060 C   0  0  0  0  0  1  0  0  0  0  0  0
  -30.0560  -20.5200   21.3700 O   0  0  0  0  0  0  0  0  0  0  0  0
  -30.9870  -17.1670   19.9510 C   0  0  0  0  0  2  0  0  0  0  0  0
  -30.4410  -15.9110   20.7030 C   0  0  0  0  0  2  0  0  0  0  0  0
  -31.1110  -14.5970   20.2030 C   0  0  0  0  0  0  0  0  0  0  0  0
  -30.7310  -12.4250   19.0930 C   0  0  0  0  0  2  0  0  0  0  0  0
  -29.7860  -12.6510   17.8950 C   0  0  0  0  0  2  0  0  0  0  0  0
  -28.3140  -12.5550   18.3420 C   0  0  0  0  0  2  0  0  0  0  0  0
  -28.0150  -13.4170   19.5970 C   0  0  0  0  0  3  0  0  0  0  0  0
  -29.0800  -13.2030   20.6960 C   0  0  0  0  0  2  0  0  0  0  0  0
  -30.4040  -13.4380   20.1090 N   0  0  0  0  0  0  0  0  0  0  0  0
  -32.2580  -14.6800   19.7530 O   0  0  0  0  0  0  0  0  0  0  0  0
  -25.6500  -14.0960   20.3440 C   0  0  0  0  0  0  0  0  0  0  0  0
  -24.5640  -13.3560   20.7280 C   0  0  0  0  0  0  0  0  0  0  0  0
  -24.9840  -11.9910   20.6940 C   0  0  0  0  0  0  0  0  0  0  0  0
  -26.6640  -13.1830   20.1000 N   0  0  0  0  0  0  0  0  0  0  0  0
  -26.2680  -11.9130   20.3700 N   0  0  0  0  0  0  0  0  0  0  0  0
  -24.2230  -10.7510   20.8950 C   0  0  0  0  0  0  0  0  0  0  0  0
  -24.6090   -9.7950   21.8600 C   0  0  0  0  0  3  0  0  0  0  0  0
  -23.8500   -8.6200   22.0470 C   0  0  0  0  0  3  0  0  0  0  0  0
  -22.6910   -8.3920   21.2690 C   0  0  0  0  0  0  0  0  0  0  0  0
  -22.3230   -9.3370   20.2930 C   0  0  0  0  0  3  0  0  0  0  0  0
  -23.0830  -10.5040   20.1050 C   0  0  0  0  0  3  0  0  0  0  0  0
  -21.9070   -7.2680   21.3620 O   0  0  0  0  0  0  0  0  0  0  0  0
  -21.7670   -6.5850   22.5440 C   0  0  0  0  0  0  0  0  0  0  0  0
  -21.2780   -7.2100   23.7120 C   0  0  0  0  0  3  0  0  0  0  0  0
  -21.0840   -6.4550   24.8860 C   0  0  0  0  0  3  0  0  0  0  0  0
  -21.3690   -5.0770   24.8930 C   0  0  0  0  0  0  0  0  0  0  0  0
  -21.8510   -4.4520   23.7290 C   0  0  0  0  0  3  0  0  0  0  0  0
  -22.0470   -5.2030   22.5570 C   0  0  0  0  0  0  0  0  0  0  0  0
  -22.4920   -4.5920   21.4330 F   0  0  0  0  0  0  0  0  0  0  0  0
  -21.1770   -4.3490   26.0170 F   0  0  0  0  0  0  0  0  0  0  0  0
  -23.1850  -13.8740   21.0160 C   0  0  0  0  0  0  0  0  0  0  0  0
  -22.4510  -13.2090   21.9020 N   0  0  0  0  0  0  0  0  0  0  0  0
  -22.7660  -14.9060   20.4900 O   0  0  0  0  0  0  0  0  0  0  0  0
  -22.8020  -12.3750   22.3480 H   0  0  0  0  0  0  0  0  0  0  0  0
  -21.5280  -13.5420   22.1400 H   0  0  0  0  0  0  0  0  0  0  0  0
  -25.8540  -15.4610   20.1640 N   0  0  0  0  0  0  0  0  0  0  0  0
  -25.1130  -16.1420   20.2850 H   0  0  0  0  0  0  0  0  0  0  0  0
  -26.7190  -15.8730   19.8380 H   0  0  0  0  0  0  0  0  0  0  0  0
  -28.4070  -24.1910   19.7000 C   0  0  0  0  0  0  0  0  0  0  0  0
  -28.1720  -24.3880   18.4990 O   0  0  0  0  0  0  0  0  0  0  0  0
  -28.2260  -25.3290   20.7300 C   0  0  0  0  0  2  0  0  0  0  0  0
  -28.3350  -26.6460   20.1440 O   0  0  0  0  0  0  0  0  0  0  0  0
  -24.5840  -31.8690   23.2240 C   0  0  0  0  0  0  0  0  0  0  0  0
  -27.1770  -27.3950   20.1480 C   0  0  0  0  0  0  0  0  0  0  0  0
  -23.3570  -30.4670   21.5940 C   0  0  0  0  0  3  0  0  0  0  0  0
  -24.7930  -28.9160   20.1650 C   0  0  0  0  0  0  0  0  0  0  0  0
  -25.8830  -30.8140   21.3750 C   0  0  0  0  0  2  0  0  0  0  0  0
  -25.9590  -29.4390   20.7380 C   0  0  0  0  0  0  0  0  0  0  0  0
  -27.1580  -28.6880   20.7220 C   0  0  0  0  0  3  0  0  0  0  0  0
  -25.9960  -26.8850   19.5710 C   0  0  0  0  0  3  0  0  0  0  0  0
  -24.8070  -27.6390   19.5760 C   0  0  0  0  0  3  0  0  0  0  0  0
  -23.5540  -29.7820   20.2150 C   0  0  0  0  0  2  0  0  0  0  0  0
  -24.6270  -31.0650   22.1220 N   0  0  0  0  0  0  0  0  0  0  0  0
  -23.5090  -32.1470   23.7730 O   0  0  0  0  0  0  0  0  0  0  0  0
  -22.7080  -29.4530   22.5620 C   0  0  0  0  0  0  0  0  0  0  0  0
  -21.3860  -29.2590   22.4280 N   0  0  0  0  0  0  0  0  0  0  0  0
  -23.3910  -28.8420   23.3900 O   0  0  0  0  0  0  0  0  0  0  0  0
  -20.8970  -29.8070   21.7340 H   0  0  0  0  0  0  0  0  0  0  0  0
  -18.0270  -27.9990   22.8700 C   0  0  0  0  0  0  0  0  0  0  0  0
  -20.5710  -28.3240   23.2030 C   0  0  0  0  0  3  0  0  0  0  0  0
  -20.7210  -26.8800   22.6710 C   0  0  0  0  0  2  0  0  0  0  0  0
  -19.6560  -26.5040   21.6360 C   0  0  0  0  0  2  0  0  0  0  0  0
  -18.2530  -26.6350   22.2370 C   0  0  0  0  0  2  0  0  0  0  0  0
  -19.1160  -28.7980   23.3070 C   0  0  0  0  0  0  0  0  0  0  0  0
  -18.8540  -30.0720   23.8540 C   0  0  0  0  0  3  0  0  0  0  0  0
  -17.5350  -30.5490   23.9680 C   0  0  0  0  0  3  0  0  0  0  0  0
  -16.4600  -29.7470   23.5480 C   0  0  0  0  0  3  0  0  0  0  0  0
  -16.7060  -28.4730   23.0060 C   0  0  0  0  0  3  0  0  0  0  0  0
  -25.8790  -32.4940   23.8320 C   0  0  0  0  0  3  0  0  0  0  0  0
  -25.5770  -33.8890   24.1730 N   0  0  0  0  0  0  0  0  0  0  0  0
  -25.9050  -34.9450   23.4160 C   0  0  0  0  0  0  0  0  0  0  0  0
  -26.5650  -34.8480   22.3780 O   0  0  0  0  0  0  0  0  0  0  0  0
  -24.9920  -34.0400   24.9810 H   0  0  0  0  0  0  0  0  0  0  0  0
  -24.1760  -36.7430   23.0860 C   0  0  0  0  0  1  0  0  0  0  0  0
  -25.4230  -36.3310   23.8850 C   0  0  0  0  0  3  0  0  0  0  0  0
  -27.5660  -37.2060   24.7070 C   0  0  0  0  0  1  0  0  0  0  0  0
  -26.4560  -37.3850   23.7730 N   0  0  0  0  0  0  0  0  0  0  0  0
  -26.0500  -38.3030   23.9390 H   0  0  0  0  0  0  0  0  0  0  0  0
  -26.4130  -31.7140   25.0950 C   0  0  1  0  0  0  0  0  0  0  0  0
  -25.3350  -31.4670   26.1770 C   0  0  0  0  0  1  0  0  0  0  0  0
  -26.9910  -30.3400   24.6830 C   0  0  0  0  0  1  0  0  0  0  0  0
  -27.5720  -32.5050   25.7500 C   0  0  0  0  0  1  0  0  0  0  0  0
  2  6  1  0
  2  1  2  0
  3  6  2  0
  3  4  1  0
  4  5  2  0
  5  7  1  0
  6  8  1  0
  8  5  1  0
  9  4  1  0
  9 10  1  0
 11 10  1  0
 12 17  1  0
 13 14  1  0
 13 12  1  0
 15 14  1  0
 15 22  1  0
 15 16  1  0
 17 11  1  0
 17 16  1  0
 18 11  2  0
 19 20  2  0
 20 39  1  0
 21 20  1  0
 21 24  1  0
 22 19  1  0
 22 23  1  0
 23 21  2  0
 24 25  1  0
 25 26  2  0
 27 30  1  0
 27 26  1  0
 28 27  2  0
 29 28  1  0
 29 24  2  0
 30 31  1  0
 31 36  2  0
 31 32  1  0
 32 33  2  0
 33 34  1  0
 34 38  1  0
 35 34  2  0
 36 35  1  0
 37 36  1  0
 39 40  1  0
 40 43  1  0
 40 42  1  0
 41 39  2  0
 44 45  1  0
 44 19  1  0
 46 44  1  0
 47  1  1  0
 47 49  1  0
 48 47  2  0
 50 52  1  0
 50 49  1  0
 51 62  2  0
 52 57  1  0
 53 61  1  0
 53 63  1  0
 54 60  1  0
 54 56  1  0
 55 61  1  0
 56 55  1  0
 57 56  2  0
 58 59  1  0
 58 52  2  0
 59 54  2  0
 60 53  1  0
 61 51  1  0
 63 65  2  0
 64 63  1  0
 66 64  1  0
 67 76  2  0
 67 72  1  0
 68 64  1  0
 68 72  1  0
 69 68  1  0
 70 71  1  0
 70 69  1  0
 71 67  1  0
 72 73  2  0
 73 74  1  0
 75 74  2  0
 76 75  1  0
 77 51  1  0
 77 78  1  0
 77 87  1  0
 78 81  1  0
 79 83  1  0
 79 78  1  0
 80 79  2  0
 83 82  1  0
 85 83  1  0
 85 86  1  0
 85 84  1  0
 87 90  1  1
 87 88  1  0
 89 87  1  0
M  ISO  4  10 100  11 100  49 101  50 101
M  END
>  <TORSDO>  (92) 
F 21

>  <SCORE>  (92) 
-13.138

>  <name>  (92) 
93

>  <ligand_id>  (92) 
93

>  <original_smiles>  (92) 
[H]C(=Nc1oc(C([H])([H])[H])c(C([H])([H])C([H])([H])C(=O)N2C([H])([H])C([H])([H])C([H])([H])C([H])(n3nc(-c4c([H])c([H])c(Oc5c([H])c([H])c(F)c([H])c5F)c([H])c4[H])c(C(=O)N([H])[H])c3N([H])[H])C2([H])[H])c1[H])C(=O)C([H])([H])Oc1c([H])c([H])c2c(c1[H])C([H])([H])N(C(=O)C([H])(N([H])C(=O)C([H])(N([H])C([H])([H])[H])C([H])([H])[H])C(C([H])([H])[H])(C([H])([H])[H])C([H])([H])[H])C([H])(C(=O)N([H])C1([H])c3c([H])c([H])c([H])c([H])c3C([H])([H])C([H])([H])C1([H])[H])C2([H])[H]

>  <smiles>  (92) 
[H]C(=Nc1oc(C([H])([H])[H])c(C([H])([H])C([H])([H])C(=O)N2C([H])([H])C([H])([H])C([H])([H])C([H])(n3nc(-c4c([H])c([H])c(Oc5c([H])c([H])c(F)c([H])c5F)c([H])c4[H])c(C(=O)N([H])[H])c3N([H])[H])C2([H])[H])c1[H])C(=O)C([H])([H])Oc1c([H])c([H])c2c(c1[H])C([H])([H])N(C(=O)C([H])(N([H])C(=O)C([H])(N([H])C([H])([H])[H])C([H])([H])[H])C(C([H])([H])[H])(C([H])([H])[H])C([H])([H])[H])C([H])(C(=O)N([H])C1([H])c3c([H])c([H])c([H])c([H])c3C([H])([H])C([H])([H])C1([H])[H])C2([H])[H]

$$$$
94:0:0
     RDKit          3D

 97105  0  0  1  0  0  0  0  0999 V2000
  -29.3460  -23.3230   19.3080 C   0  0  0  0  0  0  0  0  0  0  0  0
  -29.7050  -22.1890   18.6410 N   0  0  0  0  0  0  0  0  0  0  0  0
  -29.0500  -23.3330   20.5050 O   0  0  0  0  0  0  0  0  0  0  0  0
  -29.9550  -22.4130   17.6850 H   0  0  0  0  0  0  0  0  0  0  0  0
  -29.8330  -20.2160   20.2110 C   0  0  0  0  0  3  0  0  0  0  0  0
  -30.0000  -18.7750   20.1490 C   0  0  0  0  0  0  0  0  0  0  0  0
  -30.1630  -18.3000   18.8630 C   0  0  0  0  0  0  0  0  0  0  0  0
  -29.8480  -20.8640   18.9940 C   0  0  0  0  0  0  0  0  0  0  0  0
  -30.0300  -19.6480   17.7380 S   0  0  0  0  0  0  0  0  0  0  0  0
  -30.0390  -17.8890   21.3650 C   0  0  1  0  0  0  0  0  0  0  0  0
  -29.8760  -18.5840   22.4920 F   0  0  0  0  0  0  0  0  0  0  0  0
  -29.0750  -16.9700   21.3150 F   0  0  0  0  0  0  0  0  0  0  0  0
  -31.2050  -17.2490   21.4540 F   0  0  0  0  0  0  0  0  0  0  0  0
  -30.5740  -16.9190   18.3210 C   0  0  0  0  0  2  0  0  0  0  0  0
  -30.9200  -14.5180   18.8970 C   0  0  0  0  0  0  0  0  0  0  0  0
  -30.7450  -12.0880   18.4980 C   0  0  0  0  0  2  0  0  0  0  0  0
  -29.6550  -11.8350   17.4370 C   0  0  0  0  0  2  0  0  0  0  0  0
  -28.2760  -11.6980   18.1110 C   0  0  0  0  0  2  0  0  0  0  0  0
  -27.9870  -12.8340   19.1310 C   0  0  0  0  0  3  0  0  0  0  0  0
  -29.1900  -13.0840   20.0690 C   0  0  0  0  0  2  0  0  0  0  0  0
  -30.3680  -13.3130   19.2250 N   0  0  0  0  0  0  0  0  0  0  0  0
  -32.0260  -14.5830   18.3570 O   0  0  0  0  0  0  0  0  0  0  0  0
  -30.1360  -15.6360   18.9520 N   0  0  0  0  0  0  0  0  0  0  0  0
  -29.2070  -15.5670   19.3390 H   0  0  0  0  0  0  0  0  0  0  0  0
  -25.8610  -13.4960   20.4100 C   0  0  0  0  0  0  0  0  0  0  0  0
  -24.8420  -12.7520   20.9410 C   0  0  0  0  0  0  0  0  0  0  0  0
  -25.1780  -11.3860   20.6960 C   0  0  0  0  0  0  0  0  0  0  0  0
  -26.7590  -12.5830   19.8790 N   0  0  0  0  0  0  0  0  0  0  0  0
  -26.3650  -11.3040   20.1090 N   0  0  0  0  0  0  0  0  0  0  0  0
  -24.4110  -10.1570   20.9340 C   0  0  0  0  0  0  0  0  0  0  0  0
  -24.8250   -9.2000   21.8880 C   0  0  0  0  0  3  0  0  0  0  0  0
  -24.0580   -8.0350   22.1110 C   0  0  0  0  0  3  0  0  0  0  0  0
  -22.8650   -7.8190   21.3820 C   0  0  0  0  0  0  0  0  0  0  0  0
  -22.4710   -8.7640   20.4180 C   0  0  0  0  0  3  0  0  0  0  0  0
  -23.2370   -9.9200   20.1920 C   0  0  0  0  0  3  0  0  0  0  0  0
  -22.0710   -6.7060   21.5140 O   0  0  0  0  0  0  0  0  0  0  0  0
  -21.8270   -6.1360   22.7380 C   0  0  0  0  0  0  0  0  0  0  0  0
  -21.2220   -6.8600   23.7890 C   0  0  0  0  0  3  0  0  0  0  0  0
  -20.9250   -6.2170   25.0070 C   0  0  0  0  0  3  0  0  0  0  0  0
  -21.2260   -4.8510   25.1750 C   0  0  0  0  0  0  0  0  0  0  0  0
  -21.8250   -4.1290   24.1290 C   0  0  0  0  0  3  0  0  0  0  0  0
  -22.1220   -4.7690   22.9130 C   0  0  0  0  0  0  0  0  0  0  0  0
  -22.6800   -4.0620   21.9010 F   0  0  0  0  0  0  0  0  0  0  0  0
  -20.9350   -4.2320   26.3430 F   0  0  0  0  0  0  0  0  0  0  0  0
  -23.5780  -13.2830   21.5540 C   0  0  0  0  0  0  0  0  0  0  0  0
  -23.0290  -12.5750   22.5350 N   0  0  0  0  0  0  0  0  0  0  0  0
  -23.0960  -14.3570   21.1970 O   0  0  0  0  0  0  0  0  0  0  0  0
  -23.4360  -11.7050   22.8420 H   0  0  0  0  0  0  0  0  0  0  0  0
  -22.1900  -12.9110   22.9870 H   0  0  0  0  0  0  0  0  0  0  0  0
  -26.0900  -14.8640   20.3150 N   0  0  0  0  0  0  0  0  0  0  0  0
  -25.4220  -15.5470   20.6540 H   0  0  0  0  0  0  0  0  0  0  0  0
  -26.8840  -15.2850   19.8510 H   0  0  0  0  0  0  0  0  0  0  0  0
  -28.9850  -25.7930   18.6850 C   0  0  0  0  0  3  0  0  0  0  0  0
  -29.3570  -24.5040   18.4020 C   0  0  0  0  0  0  0  0  0  0  0  0
  -29.7780  -24.2870   17.1410 O   0  0  0  0  0  0  0  0  0  0  0  0
  -29.7450  -25.1140   16.6800 H   0  0  0  0  0  0  0  0  0  0  0  0
  -28.5530  -26.3760   19.8640 O   0  0  0  0  0  0  0  0  0  0  0  0
  -24.7820  -31.5670   23.0770 C   0  0  0  0  0  0  0  0  0  0  0  0
  -27.4270  -27.1940   19.8330 C   0  0  0  0  0  0  0  0  0  0  0  0
  -23.5720  -30.1910   21.4200 C   0  0  0  0  0  3  0  0  0  0  0  0
  -25.0230  -28.7140   19.9220 C   0  0  0  0  0  0  0  0  0  0  0  0
  -26.0960  -30.5750   21.1960 C   0  0  0  0  0  2  0  0  0  0  0  0
  -26.1900  -29.2220   20.5100 C   0  0  0  0  0  0  0  0  0  0  0  0
  -27.3950  -28.4680   20.4650 C   0  0  0  0  0  3  0  0  0  0  0  0
  -26.2370  -26.7160   19.2430 C   0  0  0  0  0  3  0  0  0  0  0  0
  -25.0450  -27.4630   19.2840 C   0  0  0  0  0  3  0  0  0  0  0  0
  -23.7700  -29.5570   20.0180 C   0  0  0  0  0  2  0  0  0  0  0  0
  -24.8360  -30.7930   21.9550 N   0  0  0  0  0  0  0  0  0  0  0  0
  -23.7060  -31.8090   23.6410 O   0  0  0  0  0  0  0  0  0  0  0  0
  -22.9500  -29.1350   22.3640 C   0  0  0  0  0  0  0  0  0  0  0  0
  -21.6360  -28.8960   22.2150 N   0  0  0  0  0  0  0  0  0  0  0  0
  -23.6480  -28.5350   23.1860 O   0  0  0  0  0  0  0  0  0  0  0  0
  -21.1330  -29.4330   21.5220 H   0  0  0  0  0  0  0  0  0  0  0  0
  -18.3070  -27.5570   22.6660 C   0  0  0  0  0  0  0  0  0  0  0  0
  -20.8500  -27.9170   22.9660 C   0  0  0  0  0  3  0  0  0  0  0  0
  -21.0170  -26.4980   22.3740 C   0  0  0  0  0  2  0  0  0  0  0  0
  -19.9390  -26.1430   21.3450 C   0  0  0  0  0  2  0  0  0  0  0  0
  -18.5460  -26.2240   21.9770 C   0  0  0  0  0  2  0  0  0  0  0  0
  -19.3900  -28.3580   23.1170 C   0  0  0  0  0  0  0  0  0  0  0  0
  -19.1150  -29.6040   23.7210 C   0  0  0  0  0  3  0  0  0  0  0  0
  -17.7880  -30.0500   23.8780 C   0  0  0  0  0  3  0  0  0  0  0  0
  -16.7210  -29.2450   23.4440 C   0  0  0  0  0  3  0  0  0  0  0  0
  -16.9800  -28.0000   22.8440 C   0  0  0  0  0  3  0  0  0  0  0  0
  -26.0660  -32.2020   23.6940 C   0  0  0  0  0  3  0  0  0  0  0  0
  -25.7260  -33.5690   24.1120 N   0  0  0  0  0  0  0  0  0  0  0  0
  -26.0060  -34.6730   23.4070 C   0  0  0  0  0  0  0  0  0  0  0  0
  -26.6480  -34.6500   22.3530 O   0  0  0  0  0  0  0  0  0  0  0  0
  -25.1520  -33.6570   24.9370 H   0  0  0  0  0  0  0  0  0  0  0  0
  -24.2230  -36.4330   23.1970 C   0  0  0  0  0  1  0  0  0  0  0  0
  -25.4920  -36.0170   23.9570 C   0  0  0  0  0  3  0  0  0  0  0  0
  -27.6170  -36.9130   24.8020 C   0  0  0  0  0  1  0  0  0  0  0  0
  -26.4940  -37.1040   23.8870 N   0  0  0  0  0  0  0  0  0  0  0  0
  -26.0660  -38.0030   24.0940 H   0  0  0  0  0  0  0  0  0  0  0  0
  -26.6470  -31.3770   24.9070 C   0  0  1  0  0  0  0  0  0  0  0  0
  -25.5920  -31.0240   25.9810 C   0  0  0  0  0  1  0  0  0  0  0  0
  -27.2820  -30.0550   24.4160 C   0  0  0  0  0  1  0  0  0  0  0  0
  -27.7790  -32.1810   25.5920 C   0  0  0  0  0  1  0  0  0  0  0  0
  1  3  2  0
  2  8  1  0
  2  1  1  0
  4  2  1  0
  6  5  1  0
  6 10  1  0
  7  6  2  0
  8  5  2  0
  9  7  1  0
  9  8  1  0
 10 13  1  1
 10 11  1  0
 12 10  1  0
 14  7  1  0
 14 23  1  0
 15 23  1  0
 15 21  1  0
 16 21  1  0
 17 18  1  0
 17 16  1  0
 19 18  1  0
 19 28  1  0
 19 20  1  0
 21 20  1  0
 22 15  2  0
 23 24  1  0
 25 26  2  0
 26 45  1  0
 27 30  1  0
 27 26  1  0
 28 29  1  0
 28 25  1  0
 29 27  2  0
 30 31  1  0
 31 32  2  0
 33 36  1  0
 33 32  1  0
 34 33  2  0
 35 34  1  0
 35 30  2  0
 36 37  1  0
 37 42  2  0
 37 38  1  0
 38 39  2  0
 39 40  1  0
 40 44  1  0
 41 40  2  0
 42 41  1  0
 43 42  1  0
 45 46  1  0
 46 48  1  0
 46 49  1  0
 47 45  2  0
 50 25  1  0
 50 51  1  0
 52 50  1  0
 53 57  1  0
 54 53  2  0
 54  1  1  0
 55 54  1  0
 56 55  1  0
 58 69  2  0
 59 57  1  0
 59 64  1  0
 60 68  1  0
 60 70  1  0
 61 67  1  0
 61 63  1  0
 62 68  1  0
 63 62  1  0
 64 63  2  0
 65 66  1  0
 65 59  2  0
 66 61  2  0
 67 60  1  0
 68 58  1  0
 70 72  2  0
 71 70  1  0
 73 71  1  0
 74 83  2  0
 74 79  1  0
 75 71  1  0
 75 79  1  0
 76 75  1  0
 77 78  1  0
 77 76  1  0
 78 74  1  0
 79 80  2  0
 80 81  1  0
 82 81  2  0
 83 82  1  0
 84 58  1  0
 84 85  1  0
 84 94  1  0
 85 88  1  0
 86 90  1  0
 86 85  1  0
 87 86  2  0
 90 89  1  0
 92 90  1  0
 92 93  1  0
 92 91  1  0
 94 97  1  1
 94 95  1  0
 96 94  1  0
M  ISO  4  15 100  23 100  53 101  57 101
M  END
>  <TORSDO>  (93) 
F 21

>  <SCORE>  (93) 
-10.915

>  <name>  (93) 
94

>  <ligand_id>  (93) 
94

>  <original_smiles>  (93) 
[H]OC(C(=O)N([H])c1sc(C([H])([H])N([H])C(=O)N2C([H])([H])C([H])([H])C([H])([H])C([H])(n3nc(-c4c([H])c([H])c(Oc5c([H])c([H])c(F)c([H])c5F)c([H])c4[H])c(C(=O)N([H])[H])c3N([H])[H])C2([H])[H])c(C(F)(F)F)c1[H])=C([H])Oc1c([H])c([H])c2c(c1[H])C([H])([H])N(C(=O)C([H])(N([H])C(=O)C([H])(N([H])C([H])([H])[H])C([H])([H])[H])C(C([H])([H])[H])(C([H])([H])[H])C([H])([H])[H])C([H])(C(=O)N([H])C1([H])c3c([H])c([H])c([H])c([H])c3C([H])([H])C([H])([H])C1([H])[H])C2([H])[H]

>  <smiles>  (93) 
[H]OC(C(=O)N([H])c1sc(C([H])([H])N([H])C(=O)N2C([H])([H])C([H])([H])C([H])([H])C([H])(n3nc(-c4c([H])c([H])c(Oc5c([H])c([H])c(F)c([H])c5F)c([H])c4[H])c(C(=O)N([H])[H])c3N([H])[H])C2([H])[H])c(C(F)(F)F)c1[H])=C([H])Oc1c([H])c([H])c2c(c1[H])C([H])([H])N(C(=O)C([H])(N([H])C(=O)C([H])(N([H])C([H])([H])[H])C([H])([H])[H])C(C([H])([H])[H])(C([H])([H])[H])C([H])([H])[H])C([H])(C(=O)N([H])C1([H])c3c([H])c([H])c([H])c([H])c3C([H])([H])C([H])([H])C1([H])[H])C2([H])[H]

$$$$
95:0:0
     RDKit          3D

 92100  0  0  1  0  0  0  0  0999 V2000
  -29.0640  -22.7560   19.4700 C   0  0  0  0  0  0  0  0  0  0  0  0
  -29.7180  -21.6950   20.0210 N   0  0  0  0  0  0  0  0  0  0  0  0
  -28.2110  -22.6240   18.5860 O   0  0  0  0  0  0  0  0  0  0  0  0
  -30.2900  -21.9090   20.8240 H   0  0  0  0  0  0  0  0  0  0  0  0
  -29.4390  -18.5860   17.9190 C   0  0  0  0  0  3  0  0  0  0  0  0
  -29.7010  -17.6030   18.8840 C   0  0  0  0  0  3  0  0  0  0  0  0
  -29.4540  -19.9370   18.3030 C   0  0  0  0  0  3  0  0  0  0  0  0
  -29.9890  -18.0030   20.1990 C   0  0  0  0  0  0  0  0  0  0  0  0
  -29.6950  -20.3010   19.6470 C   0  0  0  0  0  0  0  0  0  0  0  0
  -29.9780  -19.3220   20.5610 N   0  0  0  0  0  0  0  0  0  0  0  0
  -30.3660  -16.9660   21.2770 C   0  0  0  0  0  2  0  0  0  0  0  0
  -30.6670  -14.5460   20.5660 C   0  0  0  0  0  0  0  0  0  0  0  0
  -30.4230  -12.3620   19.4330 C   0  0  0  0  0  2  0  0  0  0  0  0
  -29.4890  -12.5180   18.2140 C   0  0  0  0  0  2  0  0  0  0  0  0
  -28.0140  -12.3610   18.6320 C   0  0  0  0  0  2  0  0  0  0  0  0
  -27.6480  -13.2260   19.8690 C   0  0  0  0  0  3  0  0  0  0  0  0
  -28.6890  -13.0410   20.9950 C   0  0  0  0  0  2  0  0  0  0  0  0
  -30.0140  -13.3580   20.4370 N   0  0  0  0  0  0  0  0  0  0  0  0
  -31.8130  -14.7240   20.1430 O   0  0  0  0  0  0  0  0  0  0  0  0
  -29.9330  -15.5680   21.0530 N   0  0  0  0  0  0  0  0  0  0  0  0
  -28.9840  -15.3540   21.3120 H   0  0  0  0  0  0  0  0  0  0  0  0
  -25.2400  -13.8340   20.5380 C   0  0  0  0  0  0  0  0  0  0  0  0
  -24.1690  -13.0610   20.8970 C   0  0  0  0  0  0  0  0  0  0  0  0
  -24.6340  -11.7100   20.8850 C   0  0  0  0  0  0  0  0  0  0  0  0
  -26.2900  -12.9530   20.3290 N   0  0  0  0  0  0  0  0  0  0  0  0
  -25.9280  -11.6720   20.5980 N   0  0  0  0  0  0  0  0  0  0  0  0
  -23.9090  -10.4460   21.0730 C   0  0  0  0  0  0  0  0  0  0  0  0
  -24.3450   -9.4740   22.0000 C   0  0  0  0  0  3  0  0  0  0  0  0
  -23.6210   -8.2770   22.1770 C   0  0  0  0  0  3  0  0  0  0  0  0
  -22.4450   -8.0410   21.4260 C   0  0  0  0  0  0  0  0  0  0  0  0
  -22.0250   -9.0030   20.4880 C   0  0  0  0  0  3  0  0  0  0  0  0
  -22.7510  -10.1920   20.3100 C   0  0  0  0  0  3  0  0  0  0  0  0
  -21.6900   -6.8960   21.5120 O   0  0  0  0  0  0  0  0  0  0  0  0
  -21.6650   -6.1340   22.6520 C   0  0  0  0  0  0  0  0  0  0  0  0
  -21.2870   -6.6760   23.9010 C   0  0  0  0  0  3  0  0  0  0  0  0
  -21.2080   -5.8430   25.0360 C   0  0  0  0  0  3  0  0  0  0  0  0
  -21.4990   -4.4700   24.9230 C   0  0  0  0  0  0  0  0  0  0  0  0
  -21.8690   -3.9280   23.6790 C   0  0  0  0  0  3  0  0  0  0  0  0
  -21.9510   -4.7580   22.5470 C   0  0  0  0  0  0  0  0  0  0  0  0
  -22.2890   -4.2280   21.3480 F   0  0  0  0  0  0  0  0  0  0  0  0
  -21.4150   -3.6670   26.0090 F   0  0  0  0  0  0  0  0  0  0  0  0
  -22.7640  -13.5360   21.1410 C   0  0  0  0  0  0  0  0  0  0  0  0
  -22.0240  -12.8450   22.0010 N   0  0  0  0  0  0  0  0  0  0  0  0
  -22.3310  -14.5540   20.6020 O   0  0  0  0  0  0  0  0  0  0  0  0
  -22.3810  -12.0180   22.4540 H   0  0  0  0  0  0  0  0  0  0  0  0
  -21.0830  -13.1490   22.2110 H   0  0  0  0  0  0  0  0  0  0  0  0
  -25.4070  -15.2030   20.3550 N   0  0  0  0  0  0  0  0  0  0  0  0
  -24.6420  -15.8630   20.4590 H   0  0  0  0  0  0  0  0  0  0  0  0
  -26.2630  -15.6410   20.0350 H   0  0  0  0  0  0  0  0  0  0  0  0
  -29.3680  -24.1980   19.9820 C   0  0  0  0  0  2  0  0  0  0  0  0
  -28.2100  -25.2140   19.6980 C   0  0  0  0  0  2  0  0  0  0  0  0
  -28.3570  -26.6000   20.1240 O   0  0  0  0  0  0  0  0  0  0  0  0
  -24.6140  -31.8860   23.2290 C   0  0  0  0  0  0  0  0  0  0  0  0
  -27.2030  -27.3860   20.1120 C   0  0  0  0  0  0  0  0  0  0  0  0
  -23.3890  -30.4890   21.6010 C   0  0  0  0  0  3  0  0  0  0  0  0
  -24.8210  -28.9490   20.1590 C   0  0  0  0  0  0  0  0  0  0  0  0
  -25.9220  -30.8180   21.3880 C   0  0  0  0  0  2  0  0  0  0  0  0
  -25.9950  -29.4450   20.7430 C   0  0  0  0  0  0  0  0  0  0  0  0
  -27.1850  -28.6720   20.7180 C   0  0  0  0  0  3  0  0  0  0  0  0
  -26.0000  -26.9280   19.5140 C   0  0  0  0  0  3  0  0  0  0  0  0
  -24.8220  -27.6910   19.5430 C   0  0  0  0  0  3  0  0  0  0  0  0
  -23.5860  -29.8180   20.2180 C   0  0  0  0  0  2  0  0  0  0  0  0
  -24.6600  -31.0800   22.1290 N   0  0  0  0  0  0  0  0  0  0  0  0
  -23.5370  -32.1630   23.7780 O   0  0  0  0  0  0  0  0  0  0  0  0
  -22.7420  -29.4670   22.5650 C   0  0  0  0  0  0  0  0  0  0  0  0
  -21.4160  -29.2900   22.4480 N   0  0  0  0  0  0  0  0  0  0  0  0
  -23.4290  -28.8400   23.3740 O   0  0  0  0  0  0  0  0  0  0  0  0
  -20.9240  -29.8510   21.7670 H   0  0  0  0  0  0  0  0  0  0  0  0
  -18.0440  -28.0910   22.9660 C   0  0  0  0  0  0  0  0  0  0  0  0
  -20.6020  -28.3550   23.2260 C   0  0  0  0  0  3  0  0  0  0  0  0
  -20.7030  -26.9210   22.6570 C   0  0  0  0  0  2  0  0  0  0  0  0
  -19.5970  -26.5930   21.6480 C   0  0  0  0  0  2  0  0  0  0  0  0
  -18.2170  -26.7390   22.2950 C   0  0  0  0  0  2  0  0  0  0  0  0
  -19.1630  -28.8570   23.3870 C   0  0  0  0  0  0  0  0  0  0  0  0
  -18.9470  -30.1230   23.9730 C   0  0  0  0  0  3  0  0  0  0  0  0
  -17.6430  -30.6250   24.1400 C   0  0  0  0  0  3  0  0  0  0  0  0
  -16.5380  -29.8570   23.7340 C   0  0  0  0  0  3  0  0  0  0  0  0
  -16.7380  -28.5920   23.1540 C   0  0  0  0  0  3  0  0  0  0  0  0
  -25.9060  -32.5120   23.8350 C   0  0  0  0  0  3  0  0  0  0  0  0
  -26.4430  -31.7310   25.0960 C   0  0  1  0  0  0  0  0  0  0  0  0
  -25.3680  -31.4820   26.1810 C   0  0  0  0  0  1  0  0  0  0  0  0
  -27.0200  -30.3550   24.6840 C   0  0  0  0  0  1  0  0  0  0  0  0
  -27.6030  -32.5210   25.7460 C   0  0  0  0  0  1  0  0  0  0  0  0
  -25.6000  -33.9080   24.1790 N   0  0  0  0  0  0  0  0  0  0  0  0
  -25.9200  -34.9660   23.4210 C   0  0  0  0  0  0  0  0  0  0  0  0
  -26.5760  -34.8710   22.3810 O   0  0  0  0  0  0  0  0  0  0  0  0
  -25.0110  -34.0540   24.9850 H   0  0  0  0  0  0  0  0  0  0  0  0
  -24.1810  -36.7580   23.1040 C   0  0  0  0  0  1  0  0  0  0  0  0
  -25.4360  -36.3500   23.8940 C   0  0  0  0  0  3  0  0  0  0  0  0
  -27.5860  -37.2310   24.6920 C   0  0  0  0  0  1  0  0  0  0  0  0
  -26.4650  -37.4060   23.7720 N   0  0  0  0  0  0  0  0  0  0  0  0
  -26.0600  -38.3250   23.9340 H   0  0  0  0  0  0  0  0  0  0  0  0
  1 50  1  0
  1  2  1  0
  2  4  1  0
  3  1  2  0
  5  7  2  0
  5  6  1  0
  6  8  2  0
  7  9  1  0
  8 10  1  0
  8 11  1  0
  9  2  1  0
  9 10  2  0
 12 20  1  0
 13 18  1  0
 14 15  1  0
 14 13  1  0
 16 15  1  0
 16 25  1  0
 16 17  1  0
 18 12  1  0
 18 17  1  0
 19 12  2  0
 20 11  1  0
 20 21  1  0
 22 23  2  0
 23 42  1  0
 24 23  1  0
 24 27  1  0
 25 22  1  0
 25 26  1  0
 26 24  2  0
 27 28  1  0
 28 29  2  0
 30 33  1  0
 30 29  1  0
 31 30  2  0
 32 31  1  0
 32 27  2  0
 33 34  1  0
 34 35  1  0
 35 36  2  0
 37 36  1  0
 37 41  1  0
 38 37  2  0
 39 34  2  0
 39 38  1  0
 40 39  1  0
 42 43  1  0
 43 46  1  0
 43 45  1  0
 44 42  2  0
 47 48  1  0
 47 22  1  0
 49 47  1  0
 51 50  1  0
 51 52  1  0
 53 64  2  0
 54 52  1  0
 54 59  1  0
 55 63  1  0
 55 65  1  0
 56 62  1  0
 56 58  1  0
 57 63  1  0
 58 57  1  0
 59 58  2  0
 60 61  1  0
 60 54  2  0
 61 56  2  0
 62 55  1  0
 63 53  1  0
 65 67  2  0
 66 65  1  0
 68 66  1  0
 69 78  2  0
 69 74  1  0
 70 66  1  0
 70 74  1  0
 71 70  1  0
 72 73  1  0
 72 71  1  0
 73 69  1  0
 74 75  2  0
 75 76  1  0
 77 76  2  0
 78 77  1  0
 79 53  1  0
 79 84  1  0
 79 80  1  0
 80 83  1  1
 80 81  1  0
 82 80  1  0
 84 87  1  0
 85 89  1  0
 85 84  1  0
 86 85  2  0
 89 88  1  0
 91 89  1  0
 91 92  1  0
 91 90  1  0
M  ISO  4  12 100  20 100  51 101  52 101
M  END
>  <TORSDO>  (94) 
F 20

>  <SCORE>  (94) 
-13.944

>  <name>  (94) 
95

>  <ligand_id>  (94) 
95

>  <original_smiles>  (94) 
[H]c1c(N([H])C(=O)C([H])([H])C([H])([H])Oc2c([H])c([H])c3c(c2[H])C([H])([H])N(C(=O)C([H])(N([H])C(=O)C([H])(N([H])C([H])([H])[H])C([H])([H])[H])C(C([H])([H])[H])(C([H])([H])[H])C([H])([H])[H])C([H])(C(=O)N([H])C2([H])c4c([H])c([H])c([H])c([H])c4C([H])([H])C([H])([H])C2([H])[H])C3([H])[H])nc(C([H])([H])N([H])C(=O)N2C([H])([H])C([H])([H])C([H])([H])C([H])(n3nc(-c4c([H])c([H])c(Oc5c([H])c([H])c(F)c([H])c5F)c([H])c4[H])c(C(=O)N([H])[H])c3N([H])[H])C2([H])[H])c([H])c1[H]

>  <smiles>  (94) 
[H]c1c(N([H])C(=O)C([H])([H])C([H])([H])Oc2c([H])c([H])c3c(c2[H])C([H])([H])N(C(=O)C([H])(N([H])C(=O)C([H])(N([H])C([H])([H])[H])C([H])([H])[H])C(C([H])([H])[H])(C([H])([H])[H])C([H])([H])[H])C([H])(C(=O)N([H])C2([H])c4c([H])c([H])c([H])c([H])c4C([H])([H])C([H])([H])C2([H])[H])C3([H])[H])nc(C([H])([H])N([H])C(=O)N2C([H])([H])C([H])([H])C([H])([H])C([H])(n3nc(-c4c([H])c([H])c(Oc5c([H])c([H])c(F)c([H])c5F)c([H])c4[H])c(C(=O)N([H])[H])c3N([H])[H])C2([H])[H])c([H])c1[H]

$$$$
96:0:0
     RDKit          3D

 93101  0  0  1  0  0  0  0  0999 V2000
  -29.9090  -23.1170   20.5160 C   0  0  0  0  0  0  0  0  0  0  0  0
  -30.6270  -22.3640   19.6420 N   0  0  0  0  0  0  0  0  0  0  0  0
  -29.3800  -22.6180   21.5090 O   0  0  0  0  0  0  0  0  0  0  0  0
  -30.9330  -22.8550   18.8120 H   0  0  0  0  0  0  0  0  0  0  0  0
  -31.4660  -21.1760   19.9740 C   0  0  0  0  0  2  0  0  0  0  0  0
  -29.4870  -17.9820   20.6890 C   0  0  0  0  0  3  0  0  0  0  0  0
  -29.6670  -19.3990   20.6110 C   0  0  0  0  0  0  0  0  0  0  0  0
  -30.8640  -19.7680   20.0410 C   0  0  0  0  0  0  0  0  0  0  0  0
  -30.5330  -17.2180   20.2330 C   0  0  0  0  0  0  0  0  0  0  0  0
  -28.6640  -20.3570   21.1710 C   0  0  0  0  0  1  0  0  0  0  0  0
  -31.7760  -18.3070   19.6060 S   0  0  0  0  0  0  0  0  0  0  0  0
  -31.2560  -14.8550   19.7430 C   0  0  0  0  0  0  0  0  0  0  0  0
  -30.9870  -12.5540   18.8550 C   0  0  0  0  0  2  0  0  0  0  0  0
  -29.9850  -12.6050   17.6800 C   0  0  0  0  0  2  0  0  0  0  0  0
  -28.5290  -12.5040   18.1830 C   0  0  0  0  0  2  0  0  0  0  0  0
  -28.2360  -13.4780   19.3570 C   0  0  0  0  0  3  0  0  0  0  0  0
  -29.3390  -13.3560   20.4340 C   0  0  0  0  0  2  0  0  0  0  0  0
  -30.6370  -13.6350   19.7870 N   0  0  0  0  0  0  0  0  0  0  0  0
  -32.3420  -15.0360   19.1840 O   0  0  0  0  0  0  0  0  0  0  0  0
  -30.5130  -15.8470   20.2920 N   0  0  0  0  0  0  0  0  0  0  0  0
  -29.7010  -15.4760   20.7580 H   0  0  0  0  0  0  0  0  0  0  0  0
  -25.9400  -14.2130   20.2630 C   0  0  0  0  0  0  0  0  0  0  0  0
  -24.8470  -13.4980   20.6750 C   0  0  0  0  0  0  0  0  0  0  0  0
  -25.2080  -12.1210   20.5520 C   0  0  0  0  0  0  0  0  0  0  0  0
  -26.8990  -13.2740   19.9150 N   0  0  0  0  0  0  0  0  0  0  0  0
  -26.4650  -12.0090   20.1440 N   0  0  0  0  0  0  0  0  0  0  0  0
  -24.4130  -10.9020   20.7390 C   0  0  0  0  0  0  0  0  0  0  0  0
  -24.7660   -9.9280   21.6980 C   0  0  0  0  0  3  0  0  0  0  0  0
  -23.9720   -8.7720   21.8710 C   0  0  0  0  0  3  0  0  0  0  0  0
  -22.8120   -8.5840   21.0830 C   0  0  0  0  0  0  0  0  0  0  0  0
  -22.4770   -9.5470   20.1130 C   0  0  0  0  0  3  0  0  0  0  0  0
  -23.2720  -10.6930   19.9390 C   0  0  0  0  0  3  0  0  0  0  0  0
  -21.9970   -7.4810   21.1630 O   0  0  0  0  0  0  0  0  0  0  0  0
  -21.7560   -6.8510   22.3570 C   0  0  0  0  0  0  0  0  0  0  0  0
  -21.1820   -7.5280   23.4550 C   0  0  0  0  0  3  0  0  0  0  0  0
  -20.8860   -6.8250   24.6400 C   0  0  0  0  0  3  0  0  0  0  0  0
  -21.1530   -5.4460   24.7260 C   0  0  0  0  0  0  0  0  0  0  0  0
  -21.7210   -4.7680   23.6330 C   0  0  0  0  0  3  0  0  0  0  0  0
  -22.0180   -5.4680   22.4510 C   0  0  0  0  0  0  0  0  0  0  0  0
  -22.5450   -4.8070   21.3930 F   0  0  0  0  0  0  0  0  0  0  0  0
  -20.8610   -4.7670   25.8610 F   0  0  0  0  0  0  0  0  0  0  0  0
  -23.5100  -14.0550   21.0690 C   0  0  0  0  0  0  0  0  0  0  0  0
  -22.8050  -13.3870   21.9750 N   0  0  0  0  0  0  0  0  0  0  0  0
  -23.1030  -15.1220   20.6120 O   0  0  0  0  0  0  0  0  0  0  0  0
  -23.1440  -12.5280   22.3790 H   0  0  0  0  0  0  0  0  0  0  0  0
  -21.9120  -13.7490   22.2770 H   0  0  0  0  0  0  0  0  0  0  0  0
  -26.1910  -15.5760   20.1430 N   0  0  0  0  0  0  0  0  0  0  0  0
  -25.4850  -16.2750   20.3490 H   0  0  0  0  0  0  0  0  0  0  0  0
  -27.0440  -15.9750   19.7720 H   0  0  0  0  0  0  0  0  0  0  0  0
  -29.8960  -24.6750   20.3860 C   0  0  0  0  0  2  0  0  0  0  0  0
  -28.5480  -25.2540   18.3210 C   0  0  0  0  0  1  0  0  0  0  0  0
  -28.6050  -25.4030   19.8580 C   0  0  0  0  0  3  0  0  0  0  0  0
  -28.5810  -26.8270   20.2190 O   0  0  0  0  0  0  0  0  0  0  0  0
  -24.6090  -31.9160   23.3670 C   0  0  0  0  0  0  0  0  0  0  0  0
  -27.3810  -27.5470   20.2190 C   0  0  0  0  0  0  0  0  0  0  0  0
  -23.4420  -30.4920   21.7200 C   0  0  0  0  0  3  0  0  0  0  0  0
  -24.9380  -29.0220   20.2620 C   0  0  0  0  0  0  0  0  0  0  0  0
  -25.9600  -30.9260   21.5120 C   0  0  0  0  0  2  0  0  0  0  0  0
  -26.0890  -29.5640   20.8450 C   0  0  0  0  0  0  0  0  0  0  0  0
  -27.3120  -28.8420   20.8070 C   0  0  0  0  0  3  0  0  0  0  0  0
  -26.1930  -27.0280   19.6520 C   0  0  0  0  0  3  0  0  0  0  0  0
  -24.9890  -27.7560   19.6590 C   0  0  0  0  0  3  0  0  0  0  0  0
  -23.6660  -29.8400   20.3300 C   0  0  0  0  0  2  0  0  0  0  0  0
  -24.6890  -31.1270   22.2560 N   0  0  0  0  0  0  0  0  0  0  0  0
  -23.5200  -32.1440   23.9140 O   0  0  0  0  0  0  0  0  0  0  0  0
  -22.8320  -29.4370   22.6740 C   0  0  0  0  0  0  0  0  0  0  0  0
  -21.5260  -29.1640   22.5130 N   0  0  0  0  0  0  0  0  0  0  0  0
  -23.5320  -28.8660   23.5150 O   0  0  0  0  0  0  0  0  0  0  0  0
  -21.0190  -29.6790   21.8070 H   0  0  0  0  0  0  0  0  0  0  0  0
  -18.2340  -27.7190   22.9040 C   0  0  0  0  0  0  0  0  0  0  0  0
  -20.7510  -28.1790   23.2700 C   0  0  0  0  0  3  0  0  0  0  0  0
  -20.9860  -26.7500   22.7260 C   0  0  0  0  0  2  0  0  0  0  0  0
  -19.9530  -26.3270   21.6760 C   0  0  0  0  0  2  0  0  0  0  0  0
  -18.5400  -26.3760   22.2630 C   0  0  0  0  0  2  0  0  0  0  0  0
  -19.2730  -28.5730   23.3620 C   0  0  0  0  0  0  0  0  0  0  0  0
  -18.9340  -29.8260   23.9160 C   0  0  0  0  0  3  0  0  0  0  0  0
  -17.5890  -30.2260   24.0230 C   0  0  0  0  0  3  0  0  0  0  0  0
  -16.5650  -29.3700   23.5830 C   0  0  0  0  0  3  0  0  0  0  0  0
  -16.8870  -28.1190   23.0280 C   0  0  0  0  0  3  0  0  0  0  0  0
  -25.8730  -32.5880   23.9870 C   0  0  0  0  0  3  0  0  0  0  0  0
  -26.3680  -31.8810   25.3090 C   0  0  1  0  0  0  0  0  0  0  0  0
  -25.2470  -31.6590   26.3500 C   0  0  0  0  0  1  0  0  0  0  0  0
  -26.9960  -30.5040   24.9910 C   0  0  0  0  0  1  0  0  0  0  0  0
  -27.4750  -32.7320   25.9720 C   0  0  0  0  0  1  0  0  0  0  0  0
  -25.5450  -33.9960   24.2430 N   0  0  0  0  0  0  0  0  0  0  0  0
  -25.8910  -35.0140   23.4460 C   0  0  0  0  0  0  0  0  0  0  0  0
  -26.5910  -34.8710   22.4390 O   0  0  0  0  0  0  0  0  0  0  0  0
  -24.9280  -34.1830   25.0190 H   0  0  0  0  0  0  0  0  0  0  0  0
  -24.1650  -36.7760   22.9580 C   0  0  0  0  0  1  0  0  0  0  0  0
  -25.3820  -36.4170   23.8250 C   0  0  0  0  0  3  0  0  0  0  0  0
  -27.4790  -37.3570   24.6890 C   0  0  0  0  0  1  0  0  0  0  0  0
  -26.4120  -37.4720   23.6990 N   0  0  0  0  0  0  0  0  0  0  0  0
  -25.9950  -38.3960   23.7860 H   0  0  0  0  0  0  0  0  0  0  0  0
  1  3  2  0
  2  5  1  0
  2  1  1  0
  4  2  1  0
  5  8  1  0
  7  6  1  0
  7 10  1  0
  8  7  2  0
  9 20  1  0
  9  6  2  0
 11  8  1  0
 11  9  1  0
 12 18  1  0
 12 20  1  0
 13 18  1  0
 14 15  1  0
 14 13  1  0
 16 15  1  0
 16 25  1  0
 16 17  1  0
 18 17  1  0
 19 12  2  0
 20 21  1  0
 22 23  2  0
 23 42  1  0
 24 23  1  0
 24 27  1  0
 25 26  1  0
 25 22  1  0
 26 24  2  0
 27 28  1  0
 28 29  2  0
 30 33  1  0
 30 29  1  0
 31 30  2  0
 32 31  1  0
 32 27  2  0
 33 34  1  0
 34 39  2  0
 34 35  1  0
 35 36  2  0
 36 37  1  0
 37 41  1  0
 38 37  2  0
 39 38  1  0
 40 39  1  0
 42 43  1  0
 43 46  1  0
 43 45  1  0
 44 42  2  0
 47 22  1  0
 47 48  1  0
 49 47  1  0
 50  1  1  0
 52 51  1  0
 52 53  1  0
 52 50  1  0
 53 55  1  0
 54 65  2  0
 55 60  1  0
 56 64  1  0
 56 66  1  0
 57 63  1  0
 57 59  1  0
 58 64  1  0
 59 58  1  0
 60 59  2  0
 61 62  1  0
 61 55  2  0
 62 57  2  0
 63 56  1  0
 64 54  1  0
 66 68  2  0
 67 66  1  0
 69 67  1  0
 70 79  2  0
 70 75  1  0
 71 67  1  0
 71 75  1  0
 72 71  1  0
 73 74  1  0
 73 72  1  0
 74 70  1  0
 75 76  2  0
 76 77  1  0
 78 77  2  0
 79 78  1  0
 80 54  1  0
 80 85  1  0
 80 81  1  0
 81 84  1  1
 81 82  1  0
 83 81  1  0
 85 88  1  0
 86 90  1  0
 86 85  1  0
 87 86  2  0
 90 89  1  0
 92 93  1  0
 92 90  1  0
 92 91  1  0
M  ISO  4  12 100  20 100  52 101  53 101
M  END
>  <TORSDO>  (95) 
F 20

>  <SCORE>  (95) 
-12.648

>  <name>  (95) 
96

>  <ligand_id>  (95) 
96

>  <original_smiles>  (95) 
[H]c1c([H])c([H])c2c(c1[H])C([H])([H])C([H])([H])C([H])([H])C2([H])N([H])C(=O)C1([H])N(C(=O)C([H])(N([H])C(=O)C([H])(N([H])C([H])([H])[H])C([H])([H])[H])C(C([H])([H])[H])(C([H])([H])[H])C([H])([H])[H])C([H])([H])c2c([H])c(OC([H])(C([H])([H])[H])C([H])([H])C(=O)N([H])C([H])([H])c3sc(N([H])C(=O)N4C([H])([H])C([H])([H])C([H])([H])C([H])(n5nc(-c6c([H])c([H])c(Oc7c([H])c([H])c(F)c([H])c7F)c([H])c6[H])c(C(=O)N([H])[H])c5N([H])[H])C4([H])[H])c([H])c3C([H])([H])[H])c([H])c([H])c2C1([H])[H]

>  <smiles>  (95) 
[H]c1c([H])c([H])c2c(c1[H])C([H])([H])C([H])([H])C([H])([H])C2([H])N([H])C(=O)C1([H])N(C(=O)C([H])(N([H])C(=O)C([H])(N([H])C([H])([H])[H])C([H])([H])[H])C(C([H])([H])[H])(C([H])([H])[H])C([H])([H])[H])C([H])([H])c2c([H])c(OC([H])(C([H])([H])[H])C([H])([H])C(=O)N([H])C([H])([H])c3sc(N([H])C(=O)N4C([H])([H])C([H])([H])C([H])([H])C([H])(n5nc(-c6c([H])c([H])c(Oc7c([H])c([H])c(F)c([H])c7F)c([H])c6[H])c(C(=O)N([H])[H])c5N([H])[H])C4([H])[H])c([H])c3C([H])([H])[H])c([H])c([H])c2C1([H])[H]

$$$$
