0:0:0
     RDKit          3D

 97105  0  0  1  0  0  0  0  0999 V2000
  -31.6440  -17.8120   20.6540 C   0  0  0  0  0  3  0  0  0  0  0  0
  -31.1010  -20.2040   20.5040 C   0  0  0  0  0  3  0  0  0  0  0  0
  -29.3300  -18.5440   20.6410 C   0  0  0  0  0  3  0  0  0  0  0  0
  -32.0480  -19.1610   20.5660 C   0  0  0  0  0  0  0  0  0  0  0  0
  -30.2800  -17.4330   20.6800 C   0  0  0  0  0  0  0  0  0  0  0  0
  -29.7140  -19.9530   20.5460 C   0  0  0  0  0  0  0  0  0  0  0  0
  -30.6920  -14.8260   20.7340 C   0  0  0  0  0  0  0  0  0  0  0  0
  -30.5730  -12.4640   19.9200 C   0  0  0  0  0  2  0  0  0  0  0  0
  -29.7390  -12.4120   18.6230 C   0  0  0  0  0  2  0  0  0  0  0  0
  -28.2430  -12.2550   18.9520 C   0  0  0  0  0  2  0  0  0  0  0  0
  -27.7650  -13.2440   20.0490 C   0  0  0  0  0  3  0  0  0  0  0  0
  -28.7320  -13.2850   21.2530 C   0  0  0  0  0  2  0  0  0  0  0  0
  -30.0650  -13.5990   20.7280 N   0  0  0  0  0  0  0  0  0  0  0  0
  -31.9020  -14.8700   20.4910 O   0  0  0  0  0  0  0  0  0  0  0  0
  -29.9150  -15.9830   20.7840 N   0  0  0  0  0  0  0  0  0  0  0  0
  -28.9270  -15.7970   20.8650 H   0  0  0  0  0  0  0  0  0  0  0  0
  -25.3420  -13.8660   20.6110 C   0  0  0  0  0  0  0  0  0  0  0  0
  -24.2480  -13.1090   20.9260 C   0  0  0  0  0  0  0  0  0  0  0  0
  -24.7010  -11.7530   20.9540 C   0  0  0  0  0  0  0  0  0  0  0  0
  -26.3900  -12.9750   20.4590 N   0  0  0  0  0  0  0  0  0  0  0  0
  -26.0090  -11.7000   20.7300 N   0  0  0  0  0  0  0  0  0  0  0  0
  -23.9520  -10.5010   21.1210 C   0  0  0  0  0  0  0  0  0  0  0  0
  -24.3240   -9.5400   22.0880 C   0  0  0  0  0  3  0  0  0  0  0  0
  -23.5740   -8.3540   22.2430 C   0  0  0  0  0  3  0  0  0  0  0  0
  -22.4400   -8.1190   21.4310 C   0  0  0  0  0  0  0  0  0  0  0  0
  -22.0880   -9.0680   20.4550 C   0  0  0  0  0  3  0  0  0  0  0  0
  -22.8380  -10.2460   20.2980 C   0  0  0  0  0  3  0  0  0  0  0  0
  -21.6680   -6.9840   21.4930 O   0  0  0  0  0  0  0  0  0  0  0  0
  -21.5630   -6.2480   22.6460 C   0  0  0  0  0  0  0  0  0  0  0  0
  -21.0970   -6.8150   23.8520 C   0  0  0  0  0  3  0  0  0  0  0  0
  -20.9380   -6.0070   24.9960 C   0  0  0  0  0  3  0  0  0  0  0  0
  -21.2350   -4.6320   24.9330 C   0  0  0  0  0  0  0  0  0  0  0  0
  -21.6950   -4.0640   23.7310 C   0  0  0  0  0  3  0  0  0  0  0  0
  -21.8550   -4.8710   22.5900 C   0  0  0  0  0  0  0  0  0  0  0  0
  -22.2780   -4.3140   21.4290 F   0  0  0  0  0  0  0  0  0  0  0  0
  -21.0750   -3.8520   26.0280 F   0  0  0  0  0  0  0  0  0  0  0  0
  -22.8410  -13.6010   21.0940 C   0  0  0  0  0  0  0  0  0  0  0  0
  -22.0550  -12.9360   21.9330 N   0  0  0  0  0  0  0  0  0  0  0  0
  -22.4460  -14.6140   20.5160 O   0  0  0  0  0  0  0  0  0  0  0  0
  -22.3860  -12.1170   22.4210 H   0  0  0  0  0  0  0  0  0  0  0  0
  -21.1080  -13.2510   22.0900 H   0  0  0  0  0  0  0  0  0  0  0  0
  -25.5300  -15.2330   20.4180 N   0  0  0  0  0  0  0  0  0  0  0  0
  -24.7630  -15.8950   20.4720 H   0  0  0  0  0  0  0  0  0  0  0  0
  -26.3960  -15.6580   20.1170 H   0  0  0  0  0  0  0  0  0  0  0  0
  -28.8060  -21.0880   20.5430 N   0  0  0  0  0  0  0  0  0  0  0  0
  -27.8150  -20.8800   20.6410 H   0  0  0  0  0  0  0  0  0  0  0  0
  -29.0910  -22.4640   19.9370 C   0  0  0  0  0  2  0  0  0  0  0  0
  -28.3950  -23.8050   20.4830 C   0  0  0  0  0  0  0  0  0  0  0  0
  -27.8520  -23.7970   21.5920 O   0  0  0  0  0  0  0  0  0  0  0  0
  -28.3860  -25.1390   19.5910 C   0  0  0  0  0  2  0  0  0  0  0  0
  -28.2910  -26.4830   20.2550 O   0  0  0  0  0  0  0  0  0  0  0  0
  -24.5920  -31.9390   23.2350 C   0  0  0  0  0  0  0  0  0  0  0  0
  -27.1700  -27.3360   20.1690 C   0  0  0  0  0  0  0  0  0  0  0  0
  -23.3760  -30.5450   21.6010 C   0  0  0  0  0  3  0  0  0  0  0  0
  -24.8140  -28.9840   20.1650 C   0  0  0  0  0  0  0  0  0  0  0  0
  -25.9170  -30.8450   21.4080 C   0  0  0  0  0  2  0  0  0  0  0  0
  -25.9870  -29.4620   20.7590 C   0  0  0  0  0  0  0  0  0  0  0  0
  -27.1640  -28.6490   20.7530 C   0  0  0  0  0  3  0  0  0  0  0  0
  -25.9680  -26.9170   19.5550 C   0  0  0  0  0  3  0  0  0  0  0  0
  -24.8090  -27.7200   19.5540 C   0  0  0  0  0  3  0  0  0  0  0  0
  -23.5820  -29.8660   20.2200 C   0  0  0  0  0  2  0  0  0  0  0  0
  -24.6480  -31.1280   22.1370 N   0  0  0  0  0  0  0  0  0  0  0  0
  -23.5110  -32.2220   23.7740 O   0  0  0  0  0  0  0  0  0  0  0  0
  -22.7120  -29.5330   22.5650 C   0  0  0  0  0  0  0  0  0  0  0  0
  -21.3830  -29.3630   22.4440 N   0  0  0  0  0  0  0  0  0  0  0  0
  -23.3900  -28.9040   23.3800 O   0  0  0  0  0  0  0  0  0  0  0  0
  -20.8950  -29.9220   21.7600 H   0  0  0  0  0  0  0  0  0  0  0  0
  -18.0040  -28.1730   22.9550 C   0  0  0  0  0  0  0  0  0  0  0  0
  -20.5640  -28.4290   23.2190 C   0  0  0  0  0  3  0  0  0  0  0  0
  -20.6610  -26.9950   22.6480 C   0  0  0  0  0  2  0  0  0  0  0  0
  -19.5570  -26.6720   21.6360 C   0  0  0  0  0  2  0  0  0  0  0  0
  -18.1760  -26.8220   22.2810 C   0  0  0  0  0  2  0  0  0  0  0  0
  -19.1260  -28.9350   23.3800 C   0  0  0  0  0  0  0  0  0  0  0  0
  -18.9110  -30.1990   23.9700 C   0  0  0  0  0  3  0  0  0  0  0  0
  -17.6070  -30.7040   24.1360 C   0  0  0  0  0  3  0  0  0  0  0  0
  -16.5010  -29.9400   23.7260 C   0  0  0  0  0  3  0  0  0  0  0  0
  -16.7000  -28.6760   23.1420 C   0  0  0  0  0  3  0  0  0  0  0  0
  -25.8780  -32.5680   23.8520 C   0  0  0  0  0  3  0  0  0  0  0  0
  -25.5760  -33.9680   24.1830 N   0  0  0  0  0  0  0  0  0  0  0  0
  -25.9090  -35.0210   23.4230 C   0  0  0  0  0  0  0  0  0  0  0  0
  -26.5730  -34.9140   22.3890 O   0  0  0  0  0  0  0  0  0  0  0  0
  -24.9880  -34.1260   24.9880 H   0  0  0  0  0  0  0  0  0  0  0  0
  -24.1860  -36.8210   23.0790 C   0  0  0  0  0  1  0  0  0  0  0  0
  -25.4290  -36.4110   23.8840 C   0  0  0  0  0  3  0  0  0  0  0  0
  -27.5730  -37.2840   24.7040 C   0  0  0  0  0  1  0  0  0  0  0  0
  -26.4660  -37.4600   23.7660 N   0  0  0  0  0  0  0  0  0  0  0  0
  -26.0650  -38.3820   23.9200 H   0  0  0  0  0  0  0  0  0  0  0  0
  -26.3950  -31.7990   25.1300 C   0  0  1  0  0  0  0  0  0  0  0  0
  -25.3040  -31.5720   26.2040 C   0  0  0  0  0  1  0  0  0  0  0  0
  -26.9680  -30.4160   24.7420 C   0  0  0  0  0  1  0  0  0  0  0  0
  -27.5530  -32.5880   25.7850 C   0  0  0  0  0  1  0  0  0  0  0  0
  -33.5270  -19.5050   20.5750 C   0  0  0  0  0  2  0  0  0  0  0  0
  -33.9720  -20.0550   21.9450 C   0  0  0  0  0  2  0  0  0  0  0  0
  -36.4300  -19.4020   21.7980 C   0  0  0  0  0  1  0  0  0  0  0  0
  -35.6660  -21.0970   23.4670 C   0  0  0  0  0  1  0  0  0  0  0  0
  -35.7050  -21.6900   21.0410 C   0  0  0  0  0  1  0  0  0  0  0  0
  -35.4370  -20.5530   22.0440 C   0  0  2  0  0  0  0  0  0  0  0  0
  1  5  1  0
  2  6  2  0
  2  4  1  0
  3  5  2  0
  4 92  1  0
  4  1  2  0
  5 15  1  0
  6  3  1  0
  7 15  1  0
  8 13  1  0
  9 10  1  0
  9  8  1  0
 11 10  1  0
 11 20  1  0
 11 12  1  0
 13  7  1  0
 13 12  1  0
 14  7  2  0
 15 16  1  0
 17 18  2  0
 18 19  1  0
 18 37  1  0
 19 22  1  0
 20 17  1  0
 20 21  1  0
 21 19  2  0
 22 23  1  0
 23 24  2  0
 25 28  1  0
 25 24  1  0
 26 25  2  0
 27 26  1  0
 27 22  2  0
 28 29  1  0
 29 30  1  0
 30 31  2  0
 32 31  1  0
 32 36  1  0
 33 32  2  0
 34 29  2  0
 34 33  1  0
 35 34  1  0
 37 38  1  0
 38 41  1  0
 38 40  1  0
 39 37  2  0
 42 43  1  0
 42 17  1  0
 44 42  1  0
 45  6  1  0
 45 46  1  0
 47 48  1  0
 47 45  1  0
 48 49  2  0
 50 51  1  0
 50 48  1  0
 52 63  2  0
 53 51  1  0
 53 58  1  0
 54 62  1  0
 54 64  1  0
 55 61  1  0
 55 57  1  0
 56 62  1  0
 57 56  1  0
 58 57  2  0
 59 53  2  0
 60 59  1  0
 60 55  2  0
 61 54  1  0
 62 52  1  0
 64 66  2  0
 65 64  1  0
 67 65  1  0
 68 77  2  0
 68 73  1  0
 69 65  1  0
 69 73  1  0
 70 69  1  0
 71 72  1  0
 71 70  1  0
 72 68  1  0
 73 74  2  0
 74 75  1  0
 76 75  2  0
 77 76  1  0
 78 52  1  0
 78 79  1  0
 78 88  1  0
 79 82  1  0
 80 84  1  0
 80 79  1  0
 81 80  2  0
 84 83  1  0
 86 84  1  0
 86 87  1  0
 86 85  1  0
 88 91  1  1
 88 89  1  0
 90 88  1  0
 92 93  1  0
 93 97  1  0
 97 94  1  6
 96 97  1  0
 97 95  1  0
M  ISO  4   7 100  15 100  50 101  51 101
M  END
>  <TORSDO>  (1) 
F 23

>  <SCORE>  (1) 
-13.265

>  <name>  (1) 
0

>  <ligand_id>  (1) 
0

>  <original_smiles>  (1) 
[H]c1c([H])c([H])c2c(c1[H])C([H])([H])C([H])([H])C([H])([H])C2([H])N([H])C(=O)C1([H])N(C(=O)C([H])(N([H])C(=O)C([H])(N([H])C([H])([H])[H])C([H])([H])[H])C(C([H])([H])[H])(C([H])([H])[H])C([H])([H])[H])C([H])([H])c2c([H])c(OC([H])([H])C(=O)C([H])([H])N([H])c3c([H])c(N([H])C(=O)N4C([H])([H])C([H])([H])C([H])([H])C([H])(n5nc(-c6c([H])c([H])c(Oc7c([H])c([H])c(F)c([H])c7F)c([H])c6[H])c(C(=O)N([H])[H])c5N([H])[H])C4([H])[H])c([H])c(C([H])([H])C([H])([H])C(C([H])([H])[H])(C([H])([H])[H])C([H])([H])[H])c3[H])c([H])c([H])c2C1([H])[H]

>  <smiles>  (1) 
[H]c1c([H])c([H])c2c(c1[H])C([H])([H])C([H])([H])C([H])([H])C2([H])N([H])C(=O)C1([H])N(C(=O)C([H])(N([H])C(=O)C([H])(N([H])C([H])([H])[H])C([H])([H])[H])C(C([H])([H])[H])(C([H])([H])[H])C([H])([H])[H])C([H])([H])c2c([H])c(OC([H])([H])C(=O)C([H])([H])N([H])c3c([H])c(N([H])C(=O)N4C([H])([H])C([H])([H])C([H])([H])C([H])(n5nc(-c6c([H])c([H])c(Oc7c([H])c([H])c(F)c([H])c7F)c([H])c6[H])c(C(=O)N([H])[H])c5N([H])[H])C4([H])[H])c([H])c(C([H])([H])C([H])([H])C(C([H])([H])[H])(C([H])([H])[H])C([H])([H])[H])c3[H])c([H])c([H])c2C1([H])[H]

$$$$
1:0:0
     RDKit          3D

 96104  0  0  1  0  0  0  0  0999 V2000
  -29.2850  -22.7510   19.6970 C   0  0  0  0  0  0  0  0  0  0  0  0
  -30.3870  -21.9700   19.8340 N   0  0  0  0  0  0  0  0  0  0  0  0
  -28.2120  -22.2640   19.3360 O   0  0  0  0  0  0  0  0  0  0  0  0
  -31.2210  -22.4720   20.1140 H   0  0  0  0  0  0  0  0  0  0  0  0
  -28.5110  -25.1080   19.6640 C   0  0  0  0  0  3  0  0  0  0  0  0
  -29.4880  -24.2030   19.9710 C   0  0  0  0  0  0  0  0  0  0  0  0
  -30.6440  -24.6140   20.5160 O   0  0  0  0  0  0  0  0  0  0  0  0
  -30.5880  -25.5570   20.6080 H   0  0  0  0  0  0  0  0  0  0  0  0
  -28.5490  -26.5040   19.8500 O   0  0  0  0  0  0  0  0  0  0  0  0
  -24.7200  -31.7530   22.9890 C   0  0  0  0  0  0  0  0  0  0  0  0
  -27.3780  -27.2820   19.8420 C   0  0  0  0  0  0  0  0  0  0  0  0
  -23.5140  -30.3480   21.3530 C   0  0  0  0  0  3  0  0  0  0  0  0
  -24.9720  -28.8350   19.9000 C   0  0  0  0  0  0  0  0  0  0  0  0
  -26.0440  -30.7080   21.1410 C   0  0  0  0  0  2  0  0  0  0  0  0
  -26.1360  -29.3380   20.4890 C   0  0  0  0  0  0  0  0  0  0  0  0
  -27.3360  -28.5680   20.4670 C   0  0  0  0  0  3  0  0  0  0  0  0
  -26.1830  -26.8390   19.2180 C   0  0  0  0  0  3  0  0  0  0  0  0
  -24.9950  -27.5870   19.2640 C   0  0  0  0  0  3  0  0  0  0  0  0
  -23.7230  -29.6880   19.9650 C   0  0  0  0  0  2  0  0  0  0  0  0
  -24.7780  -30.9530   21.8840 N   0  0  0  0  0  0  0  0  0  0  0  0
  -23.6400  -32.0090   23.5400 O   0  0  0  0  0  0  0  0  0  0  0  0
  -22.8830  -29.3100   22.3110 C   0  0  0  0  0  0  0  0  0  0  0  0
  -21.5570  -29.1200   22.2080 N   0  0  0  0  0  0  0  0  0  0  0  0
  -23.5850  -28.6800   23.1060 O   0  0  0  0  0  0  0  0  0  0  0  0
  -21.0500  -29.6830   21.5390 H   0  0  0  0  0  0  0  0  0  0  0  0
  -18.1990  -27.8910   22.7580 C   0  0  0  0  0  0  0  0  0  0  0  0
  -20.7610  -28.1660   22.9810 C   0  0  0  0  0  3  0  0  0  0  0  0
  -20.8610  -26.7430   22.3870 C   0  0  0  0  0  2  0  0  0  0  0  0
  -19.7420  -26.4240   21.3900 C   0  0  0  0  0  2  0  0  0  0  0  0
  -18.3730  -26.5510   22.0630 C   0  0  0  0  0  2  0  0  0  0  0  0
  -19.3220  -28.6560   23.1750 C   0  0  0  0  0  0  0  0  0  0  0  0
  -19.1080  -29.9110   23.7860 C   0  0  0  0  0  3  0  0  0  0  0  0
  -17.8040  -30.4020   23.9820 C   0  0  0  0  0  3  0  0  0  0  0  0
  -16.6970  -29.6350   23.5810 C   0  0  0  0  0  3  0  0  0  0  0  0
  -16.8950  -28.3810   22.9770 C   0  0  0  0  0  3  0  0  0  0  0  0
  -26.0050  -32.3950   23.5970 C   0  0  0  0  0  3  0  0  0  0  0  0
  -26.6010  -31.5700   24.8040 C   0  0  1  0  0  0  0  0  0  0  0  0
  -25.5610  -31.2170   25.8930 C   0  0  0  0  0  1  0  0  0  0  0  0
  -27.2290  -30.2460   24.3070 C   0  0  0  0  0  1  0  0  0  0  0  0
  -27.7370  -32.3760   25.4770 C   0  0  0  0  0  1  0  0  0  0  0  0
  -25.6580  -33.7580   24.0220 N   0  0  0  0  0  0  0  0  0  0  0  0
  -25.9370  -34.8640   23.3210 C   0  0  0  0  0  0  0  0  0  0  0  0
  -26.5850  -34.8480   22.2720 O   0  0  0  0  0  0  0  0  0  0  0  0
  -25.0780  -33.8460   24.8440 H   0  0  0  0  0  0  0  0  0  0  0  0
  -24.1420  -36.6140   23.1110 C   0  0  0  0  0  1  0  0  0  0  0  0
  -25.4120  -36.2040   23.8720 C   0  0  0  0  0  3  0  0  0  0  0  0
  -27.5330  -37.1090   24.7130 C   0  0  0  0  0  1  0  0  0  0  0  0
  -26.4040  -37.2980   23.8050 N   0  0  0  0  0  0  0  0  0  0  0  0
  -25.9700  -38.1910   24.0210 H   0  0  0  0  0  0  0  0  0  0  0  0
  -30.5790  -20.5500   19.3840 C   0  0  0  0  0  2  0  0  0  0  0  0
  -30.6740  -19.7450   21.8140 C   0  0  0  0  0  3  0  0  0  0  0  0
  -30.7490  -18.7360   22.7880 C   0  0  0  0  0  3  0  0  0  0  0  0
  -30.7250  -19.4180   20.4410 C   0  0  0  0  0  0  0  0  0  0  0  0
  -30.9550  -16.9920   21.0570 C   0  0  0  0  0  0  0  0  0  0  0  0
  -30.8870  -17.3860   22.4170 C   0  0  0  0  0  0  0  0  0  0  0  0
  -30.8680  -18.0290   20.0670 C   0  0  0  0  0  0  0  0  0  0  0  0
  -30.9400  -16.4480   23.3960 F   0  0  0  0  0  0  0  0  0  0  0  0
  -30.8780  -17.7030   18.7520 F   0  0  0  0  0  0  0  0  0  0  0  0
  -31.6330  -14.6570   20.0700 C   0  0  0  0  0  0  0  0  0  0  0  0
  -31.2410  -12.5060   18.8560 C   0  0  0  0  0  2  0  0  0  0  0  0
  -30.2480  -12.7550   17.6950 C   0  0  0  0  0  2  0  0  0  0  0  0
  -28.7840  -12.7020   18.1760 C   0  0  0  0  0  2  0  0  0  0  0  0
  -28.5580  -13.5250   19.4720 C   0  0  0  0  0  3  0  0  0  0  0  0
  -29.6340  -13.1800   20.5230 C   0  0  0  0  0  2  0  0  0  0  0  0
  -30.9500  -13.4750   19.9300 N   0  0  0  0  0  0  0  0  0  0  0  0
  -32.7130  -14.8620   19.5030 O   0  0  0  0  0  0  0  0  0  0  0  0
  -31.0100  -15.5490   20.8850 N   0  0  0  0  0  0  0  0  0  0  0  0
  -30.2920  -15.0950   21.4290 H   0  0  0  0  0  0  0  0  0  0  0  0
  -26.2570  -14.3060   20.3230 C   0  0  0  0  0  0  0  0  0  0  0  0
  -25.1390  -13.6120   20.7020 C   0  0  0  0  0  0  0  0  0  0  0  0
  -25.4770  -12.2280   20.5920 C   0  0  0  0  0  0  0  0  0  0  0  0
  -27.2070  -13.3470   19.9990 N   0  0  0  0  0  0  0  0  0  0  0  0
  -26.7440  -12.0900   20.2200 N   0  0  0  0  0  0  0  0  0  0  0  0
  -24.6510  -11.0250   20.7730 C   0  0  0  0  0  0  0  0  0  0  0  0
  -24.9930  -10.0280   21.7120 C   0  0  0  0  0  3  0  0  0  0  0  0
  -24.1740   -8.8900   21.8790 C   0  0  0  0  0  3  0  0  0  0  0  0
  -22.9980   -8.7420   21.1040 C   0  0  0  0  0  0  0  0  0  0  0  0
  -22.6740   -9.7280   20.1570 C   0  0  0  0  0  3  0  0  0  0  0  0
  -23.4920  -10.8570   19.9890 C   0  0  0  0  0  3  0  0  0  0  0  0
  -22.1580   -7.6560   21.1720 O   0  0  0  0  0  0  0  0  0  0  0  0
  -21.9620   -6.9730   22.3460 C   0  0  0  0  0  0  0  0  0  0  0  0
  -21.5180   -7.6230   23.5160 C   0  0  0  0  0  3  0  0  0  0  0  0
  -21.2650   -6.8750   24.6840 C   0  0  0  0  0  3  0  0  0  0  0  0
  -21.4400   -5.4770   24.6760 C   0  0  0  0  0  0  0  0  0  0  0  0
  -21.8790   -4.8270   23.5090 C   0  0  0  0  0  3  0  0  0  0  0  0
  -22.1370   -5.5740   22.3450 C   0  0  0  0  0  0  0  0  0  0  0  0
  -22.5410   -4.9410   21.2160 F   0  0  0  0  0  0  0  0  0  0  0  0
  -21.1880   -4.7580   25.7940 F   0  0  0  0  0  0  0  0  0  0  0  0
  -23.8010  -14.1940   21.0660 C   0  0  0  0  0  0  0  0  0  0  0  0
  -23.0810  -13.5570   21.9840 N   0  0  0  0  0  0  0  0  0  0  0  0
  -23.4100  -15.2510   20.5720 O   0  0  0  0  0  0  0  0  0  0  0  0
  -23.4060  -12.6990   22.4060 H   0  0  0  0  0  0  0  0  0  0  0  0
  -22.1860  -13.9300   22.2730 H   0  0  0  0  0  0  0  0  0  0  0  0
  -26.5410  -15.6650   20.2150 N   0  0  0  0  0  0  0  0  0  0  0  0
  -25.8640  -16.3780   20.4680 H   0  0  0  0  0  0  0  0  0  0  0  0
  -27.4320  -16.0480   19.9290 H   0  0  0  0  0  0  0  0  0  0  0  0
  1  2  1  0
  1  6  1  0
  2  4  1  0
  3  1  2  0
  5  9  1  0
  5  6  2  0
  6  7  1  0
  7  8  1  0
 10 21  2  0
 11  9  1  0
 11 16  1  0
 12 20  1  0
 12 22  1  0
 13 19  1  0
 13 15  1  0
 14 20  1  0
 15 14  1  0
 16 15  2  0
 17 18  1  0
 17 11  2  0
 18 13  2  0
 19 12  1  0
 20 10  1  0
 22 24  2  0
 23 22  1  0
 25 23  1  0
 26 35  2  0
 26 31  1  0
 27 23  1  0
 27 31  1  0
 28 27  1  0
 29 30  1  0
 29 28  1  0
 30 26  1  0
 31 32  2  0
 32 33  1  0
 34 33  2  0
 35 34  1  0
 36 10  1  0
 36 41  1  0
 36 37  1  0
 37 40  1  1
 37 38  1  0
 39 37  1  0
 41 44  1  0
 42 46  1  0
 42 41  1  0
 43 42  2  0
 46 45  1  0
 48 46  1  0
 48 49  1  0
 48 47  1  0
 50  2  1  0
 50 53  1  0
 51 52  1  0
 53 51  2  0
 54 55  1  0
 55 52  2  0
 55 57  1  0
 56 53  1  0
 56 54  2  0
 58 56  1  0
 59 67  1  0
 60 65  1  0
 61 62  1  0
 61 60  1  0
 63 62  1  0
 63 72  1  0
 63 64  1  0
 65 59  1  0
 65 64  1  0
 66 59  2  0
 67 54  1  0
 67 68  1  0
 69 70  2  0
 70 89  1  0
 71 70  1  0
 71 74  1  0
 72 73  1  0
 72 69  1  0
 73 71  2  0
 74 75  1  0
 75 76  2  0
 77 80  1  0
 77 76  1  0
 78 77  2  0
 79 78  1  0
 79 74  2  0
 80 81  1  0
 81 82  1  0
 82 83  2  0
 84 83  1  0
 84 88  1  0
 85 84  2  0
 86 81  2  0
 86 85  1  0
 87 86  1  0
 89 90  1  0
 90 93  1  0
 90 92  1  0
 91 89  2  0
 94 69  1  0
 94 95  1  0
 96 94  1  0
M  ISO  4   5 101   9 101  59 100  67 100
M  END
>  <TORSDO>  (2) 
F 20

>  <SCORE>  (2) 
-12.253

>  <name>  (2) 
1

>  <ligand_id>  (2) 
1

>  <original_smiles>  (2) 
[H]OC(C(=O)N([H])C([H])([H])c1c([H])c([H])c(F)c(N([H])C(=O)N2C([H])([H])C([H])([H])C([H])([H])C([H])(n3nc(-c4c([H])c([H])c(Oc5c([H])c([H])c(F)c([H])c5F)c([H])c4[H])c(C(=O)N([H])[H])c3N([H])[H])C2([H])[H])c1F)=C([H])Oc1c([H])c([H])c2c(c1[H])C([H])([H])N(C(=O)C([H])(N([H])C(=O)C([H])(N([H])C([H])([H])[H])C([H])([H])[H])C(C([H])([H])[H])(C([H])([H])[H])C([H])([H])[H])C([H])(C(=O)N([H])C1([H])c3c([H])c([H])c([H])c([H])c3C([H])([H])C([H])([H])C1([H])[H])C2([H])[H]

>  <smiles>  (2) 
[H]OC(C(=O)N([H])C([H])([H])c1c([H])c([H])c(F)c(N([H])C(=O)N2C([H])([H])C([H])([H])C([H])([H])C([H])(n3nc(-c4c([H])c([H])c(Oc5c([H])c([H])c(F)c([H])c5F)c([H])c4[H])c(C(=O)N([H])[H])c3N([H])[H])C2([H])[H])c1F)=C([H])Oc1c([H])c([H])c2c(c1[H])C([H])([H])N(C(=O)C([H])(N([H])C(=O)C([H])(N([H])C([H])([H])[H])C([H])([H])[H])C(C([H])([H])[H])(C([H])([H])[H])C([H])([H])[H])C([H])(C(=O)N([H])C1([H])c3c([H])c([H])c([H])c([H])c3C([H])([H])C([H])([H])C1([H])[H])C2([H])[H]

$$$$
2:0:0
     RDKit          3D

 97105  0  0  1  0  0  0  0  0999 V2000
  -28.6970  -21.0890   20.1350 C   0  0  0  0  0  0  0  0  0  0  0  0
  -27.5560  -20.8710   19.4910 N   0  0  0  0  0  4  0  0  0  0  0  0
  -28.9770  -22.4270   20.4230 N   0  0  0  0  0  0  0  0  0  0  0  0
  -26.9220  -21.6080   19.2360 H   0  0  0  0  0  0  0  0  0  0  0  0
  -27.2610  -19.9110   19.3640 H   0  0  0  0  0  0  0  0  0  0  0  0
  -29.8130  -22.5730   20.9720 H   0  0  0  0  0  0  0  0  0  0  0  0
  -30.9790  -20.1420   20.5660 C   0  0  0  0  0  3  0  0  0  0  0  0
  -31.5180  -17.7530   20.7880 C   0  0  0  0  0  3  0  0  0  0  0  0
  -29.6020  -19.8750   20.4150 C   0  0  0  0  0  0  0  0  0  0  0  0
  -30.1700  -17.3620   20.5960 C   0  0  0  0  0  0  0  0  0  0  0  0
  -31.9110  -19.1070   20.7610 C   0  0  0  0  0  0  0  0  0  0  0  0
  -29.2190  -18.4600   20.4350 C   0  0  0  0  0  0  0  0  0  0  0  0
  -33.2200  -19.4210   20.9150 F   0  0  0  0  0  0  0  0  0  0  0  0
  -27.9140  -18.1340   20.2540 F   0  0  0  0  0  0  0  0  0  0  0  0
  -30.5650  -14.7720   20.3280 C   0  0  0  0  0  0  0  0  0  0  0  0
  -30.3450  -12.5130   19.2790 C   0  0  0  0  0  2  0  0  0  0  0  0
  -29.3860  -12.5960   18.0710 C   0  0  0  0  0  2  0  0  0  0  0  0
  -27.9230  -12.4170   18.5240 C   0  0  0  0  0  2  0  0  0  0  0  0
  -27.5700  -13.2850   19.7610 C   0  0  0  0  0  3  0  0  0  0  0  0
  -28.6460  -13.1870   20.8620 C   0  0  0  0  0  2  0  0  0  0  0  0
  -29.9290  -13.5530   20.2500 N   0  0  0  0  0  0  0  0  0  0  0  0
  -31.7440  -14.8530   19.9740 O   0  0  0  0  0  0  0  0  0  0  0  0
  -29.8050  -15.9110   20.5900 N   0  0  0  0  0  0  0  0  0  0  0  0
  -28.8250  -15.7250   20.7390 H   0  0  0  0  0  0  0  0  0  0  0  0
  -25.1900  -13.8590   20.5270 C   0  0  0  0  0  0  0  0  0  0  0  0
  -24.1350  -13.0790   20.9110 C   0  0  0  0  0  0  0  0  0  0  0  0
  -24.6040  -11.7290   20.8640 C   0  0  0  0  0  0  0  0  0  0  0  0
  -26.2340  -12.9880   20.2690 N   0  0  0  0  0  0  0  0  0  0  0  0
  -25.8910  -11.7010   20.5370 N   0  0  0  0  0  0  0  0  0  0  0  0
  -23.8870  -10.4630   21.0580 C   0  0  0  0  0  0  0  0  0  0  0  0
  -24.3410   -9.4870   21.9730 C   0  0  0  0  0  3  0  0  0  0  0  0
  -23.6210   -8.2860   22.1540 C   0  0  0  0  0  3  0  0  0  0  0  0
  -22.4350   -8.0510   21.4200 C   0  0  0  0  0  0  0  0  0  0  0  0
  -22.0010   -9.0140   20.4920 C   0  0  0  0  0  3  0  0  0  0  0  0
  -22.7190  -10.2070   20.3090 C   0  0  0  0  0  3  0  0  0  0  0  0
  -21.6860   -6.9030   21.5110 O   0  0  0  0  0  0  0  0  0  0  0  0
  -21.6670   -6.1450   22.6540 C   0  0  0  0  0  0  0  0  0  0  0  0
  -21.2620   -6.6830   23.8960 C   0  0  0  0  0  3  0  0  0  0  0  0
  -21.1870   -5.8520   25.0310 C   0  0  0  0  0  3  0  0  0  0  0  0
  -21.5100   -4.4850   24.9280 C   0  0  0  0  0  0  0  0  0  0  0  0
  -21.9080   -3.9480   23.6920 C   0  0  0  0  0  3  0  0  0  0  0  0
  -21.9830   -4.7760   22.5580 C   0  0  0  0  0  0  0  0  0  0  0  0
  -22.3460   -4.2490   21.3640 F   0  0  0  0  0  0  0  0  0  0  0  0
  -21.4320   -3.6860   26.0180 F   0  0  0  0  0  0  0  0  0  0  0  0
  -22.7390  -13.5480   21.2040 C   0  0  0  0  0  0  0  0  0  0  0  0
  -22.0260  -12.8420   22.0750 N   0  0  0  0  0  0  0  0  0  0  0  0
  -22.2900  -14.5740   20.6960 O   0  0  0  0  0  0  0  0  0  0  0  0
  -22.4040  -12.0100   22.5070 H   0  0  0  0  0  0  0  0  0  0  0  0
  -21.0910  -13.1380   22.3170 H   0  0  0  0  0  0  0  0  0  0  0  0
  -25.3420  -15.2320   20.3550 N   0  0  0  0  0  0  0  0  0  0  0  0
  -24.5670  -15.8740   20.4840 H   0  0  0  0  0  0  0  0  0  0  0  0
  -26.1650  -15.6840   19.9790 H   0  0  0  0  0  0  0  0  0  0  0  0
  -28.3520  -23.7550   19.9160 C   0  0  0  0  0  2  0  0  0  0  0  0
  -27.7700  -25.0460   22.0880 C   0  0  0  0  0  1  0  0  0  0  0  0
  -30.0690  -25.1960   21.1110 C   0  0  0  0  0  1  0  0  0  0  0  0
  -28.5680  -25.1210   20.7750 C   0  0  1  0  0  0  0  0  0  0  0  0
  -28.4080  -26.4900   20.1620 O   0  0  0  0  0  0  0  0  0  0  0  0
  -24.6110  -31.8780   23.2340 C   0  0  0  0  0  0  0  0  0  0  0  0
  -27.2530  -27.2960   20.2180 C   0  0  0  0  0  0  0  0  0  0  0  0
  -23.4200  -30.4750   21.5870 C   0  0  0  0  0  3  0  0  0  0  0  0
  -24.8800  -28.9120   20.1800 C   0  0  0  0  0  0  0  0  0  0  0  0
  -25.9570  -30.7970   21.4130 C   0  0  0  0  0  2  0  0  0  0  0  0
  -26.0450  -29.4090   20.7790 C   0  0  0  0  0  0  0  0  0  0  0  0
  -27.2350  -28.6170   20.7780 C   0  0  0  0  0  3  0  0  0  0  0  0
  -26.0650  -26.8490   19.6060 C   0  0  0  0  0  3  0  0  0  0  0  0
  -24.8940  -27.6390   19.5830 C   0  0  0  0  0  3  0  0  0  0  0  0
  -23.6460  -29.7930   20.2110 C   0  0  0  0  0  2  0  0  0  0  0  0
  -24.6810  -31.0710   22.1350 N   0  0  0  0  0  0  0  0  0  0  0  0
  -23.5250  -32.1520   23.7630 O   0  0  0  0  0  0  0  0  0  0  0  0
  -22.7510  -29.4620   22.5470 C   0  0  0  0  0  0  0  0  0  0  0  0
  -21.4230  -29.2930   22.4230 N   0  0  0  0  0  0  0  0  0  0  0  0
  -23.4270  -28.8300   23.3640 O   0  0  0  0  0  0  0  0  0  0  0  0
  -20.9360  -29.8570   21.7390 H   0  0  0  0  0  0  0  0  0  0  0  0
  -18.0390  -28.1220   22.9360 C   0  0  0  0  0  0  0  0  0  0  0  0
  -20.6020  -28.3580   23.1920 C   0  0  0  0  0  3  0  0  0  0  0  0
  -20.6880  -26.9290   22.6040 C   0  0  0  0  0  2  0  0  0  0  0  0
  -19.5770  -26.6260   21.5940 C   0  0  0  0  0  2  0  0  0  0  0  0
  -18.2000  -26.7770   22.2470 C   0  0  0  0  0  2  0  0  0  0  0  0
  -19.1670  -28.8700   23.3660 C   0  0  0  0  0  0  0  0  0  0  0  0
  -18.9620  -30.1300   23.9700 C   0  0  0  0  0  3  0  0  0  0  0  0
  -17.6630  -30.6400   24.1510 C   0  0  0  0  0  3  0  0  0  0  0  0
  -16.5490  -29.8880   23.7360 C   0  0  0  0  0  3  0  0  0  0  0  0
  -16.7390  -28.6320   23.1330 C   0  0  0  0  0  3  0  0  0  0  0  0
  -25.8880  -32.5160   23.8640 C   0  0  0  0  0  3  0  0  0  0  0  0
  -26.3900  -31.7520   25.1520 C   0  0  1  0  0  0  0  0  0  0  0  0
  -25.2870  -31.5200   26.2100 C   0  0  0  0  0  1  0  0  0  0  0  0
  -26.9800  -30.3750   24.7700 C   0  0  0  0  0  1  0  0  0  0  0  0
  -27.5330  -32.5510   25.8220 C   0  0  0  0  0  1  0  0  0  0  0  0
  -25.5750  -33.9160   24.1860 N   0  0  0  0  0  0  0  0  0  0  0  0
  -25.9160  -34.9660   23.4260 C   0  0  0  0  0  0  0  0  0  0  0  0
  -26.5930  -34.8570   22.4010 O   0  0  0  0  0  0  0  0  0  0  0  0
  -24.9750  -34.0760   24.9810 H   0  0  0  0  0  0  0  0  0  0  0  0
  -24.1940  -36.7610   23.0530 C   0  0  0  0  0  1  0  0  0  0  0  0
  -25.4280  -36.3570   23.8740 C   0  0  0  0  0  3  0  0  0  0  0  0
  -27.5580  -37.2430   24.7150 C   0  0  0  0  0  1  0  0  0  0  0  0
  -26.4630  -37.4090   23.7630 N   0  0  0  0  0  0  0  0  0  0  0  0
  -26.0590  -38.3300   23.9010 H   0  0  0  0  0  0  0  0  0  0  0  0
  1  9  1  0
  1  3  1  0
  2  1  2  0
  3  6  1  0
  4  2  1  0
  5  2  1  0
  7 11  1  0
  9 12  1  0
  9  7  2  0
 10  8  1  0
 11  8  2  0
 11 13  1  0
 12 10  2  0
 14 12  1  0
 15 23  1  0
 16 21  1  0
 17 18  1  0
 17 16  1  0
 19 18  1  0
 19 28  1  0
 19 20  1  0
 21 15  1  0
 21 20  1  0
 22 15  2  0
 23 10  1  0
 23 24  1  0
 25 26  2  0
 26 45  1  0
 27 26  1  0
 27 30  1  0
 28 25  1  0
 28 29  1  0
 29 27  2  0
 30 31  1  0
 31 32  2  0
 33 36  1  0
 33 32  1  0
 34 33  2  0
 35 34  1  0
 35 30  2  0
 36 37  1  0
 37 38  1  0
 38 39  2  0
 40 39  1  0
 40 44  1  0
 41 40  2  0
 42 37  2  0
 42 41  1  0
 43 42  1  0
 45 46  1  0
 46 49  1  0
 46 48  1  0
 47 45  2  0
 50 51  1  0
 50 25  1  0
 52 50  1  0
 53  3  1  0
 53 56  1  0
 56 55  1  1
 56 54  1  0
 57 59  1  0
 57 56  1  0
 58 69  2  0
 59 64  1  0
 60 68  1  0
 60 70  1  0
 61 67  1  0
 61 63  1  0
 62 68  1  0
 63 62  1  0
 64 63  2  0
 65 59  2  0
 66 65  1  0
 66 61  2  0
 67 60  1  0
 68 58  1  0
 70 72  2  0
 71 70  1  0
 73 71  1  0
 74 83  2  0
 74 79  1  0
 75 71  1  0
 75 79  1  0
 76 75  1  0
 77 78  1  0
 77 76  1  0
 78 74  1  0
 79 80  2  0
 80 81  1  0
 82 81  2  0
 83 82  1  0
 84 58  1  0
 84 89  1  0
 84 85  1  0
 85 88  1  1
 85 86  1  0
 87 85  1  0
 89 92  1  0
 90 94  1  0
 90 89  1  0
 91 90  2  0
 94 93  1  0
 96 94  1  0
 96 97  1  0
 96 95  1  0
M  ISO  4  15 100  23 100  56 101  57 101
M  END
>  <TORSDO>  (3) 
F 19

>  <SCORE>  (3) 
-14.882

>  <name>  (3) 
2

>  <ligand_id>  (3) 
2

>  <original_smiles>  (3) 
[H]c1c([H])c([H])c2c(c1[H])C([H])([H])C([H])([H])C([H])([H])C2([H])N([H])C(=O)C1([H])N(C(=O)C([H])(N([H])C(=O)C([H])(N([H])C([H])([H])[H])C([H])([H])[H])C(C([H])([H])[H])(C([H])([H])[H])C([H])([H])[H])C([H])([H])c2c([H])c(OC(C([H])([H])[H])(C([H])([H])[H])C([H])([H])[N+]([H])=C(c3c([H])c(F)c([H])c(N([H])C(=O)N4C([H])([H])C([H])([H])C([H])([H])C([H])(n5nc(-c6c([H])c([H])c(Oc7c([H])c([H])c(F)c([H])c7F)c([H])c6[H])c(C(=O)N([H])[H])c5N([H])[H])C4([H])[H])c3F)N([H])[H])c([H])c([H])c2C1([H])[H]

>  <smiles>  (3) 
[H]c1c([H])c([H])c2c(c1[H])C([H])([H])C([H])([H])C([H])([H])C2([H])N([H])C(=O)C1([H])N(C(=O)C([H])(N([H])C(=O)C([H])(N([H])C([H])([H])[H])C([H])([H])[H])C(C([H])([H])[H])(C([H])([H])[H])C([H])([H])[H])C([H])([H])c2c([H])c(OC(C([H])([H])[H])(C([H])([H])[H])C([H])([H])[N+]([H])=C(c3c([H])c(F)c([H])c(N([H])C(=O)N4C([H])([H])C([H])([H])C([H])([H])C([H])(n5nc(-c6c([H])c([H])c(Oc7c([H])c([H])c(F)c([H])c7F)c([H])c6[H])c(C(=O)N([H])[H])c5N([H])[H])C4([H])[H])c3F)N([H])[H])c([H])c([H])c2C1([H])[H]

$$$$
3:0:0
     RDKit          3D

 95103  0  0  1  0  0  0  0  0999 V2000
  -29.0370  -22.5510   20.2760 C   0  0  0  0  0  0  0  0  0  0  0  0
  -28.8110  -21.1660   20.5300 N   0  0  0  0  0  0  0  0  0  0  0  0
  -29.9760  -22.9180   19.5690 O   0  0  0  0  0  0  0  0  0  0  0  0
  -27.9040  -21.0170   20.9370 H   0  0  0  0  0  0  0  0  0  0  0  0
  -28.9090  -18.6210   20.5170 C   0  0  0  0  0  3  0  0  0  0  0  0
  -31.0610  -18.2440   20.0570 C   0  0  0  0  0  3  0  0  0  0  0  0
  -29.9040  -17.5520   20.3330 C   0  0  0  0  0  0  0  0  0  0  0  0
  -29.4760  -19.9040   20.3530 C   0  0  0  0  0  0  0  0  0  0  0  0
  -31.8800  -20.6210   19.8810 C   0  0  0  0  0  1  0  0  0  0  0  0
  -30.8280  -19.6420   20.0820 N   0  0  0  0  0  0  0  0  0  0  0  0
  -30.5210  -14.9100   20.1860 C   0  0  0  0  0  0  0  0  0  0  0  0
  -30.3600  -12.6000   19.1830 C   0  0  0  0  0  2  0  0  0  0  0  0
  -29.3920  -12.6230   17.9780 C   0  0  0  0  0  2  0  0  0  0  0  0
  -27.9360  -12.4170   18.4400 C   0  0  0  0  0  2  0  0  0  0  0  0
  -27.5710  -13.3020   19.6610 C   0  0  0  0  0  3  0  0  0  0  0  0
  -28.6580  -13.2520   20.7580 C   0  0  0  0  0  2  0  0  0  0  0  0
  -29.9240  -13.6570   20.1340 N   0  0  0  0  0  0  0  0  0  0  0  0
  -31.7060  -15.0070   19.8490 O   0  0  0  0  0  0  0  0  0  0  0  0
  -29.7170  -16.0450   20.4320 N   0  0  0  0  0  0  0  0  0  0  0  0
  -28.7790  -15.7730   20.6830 H   0  0  0  0  0  0  0  0  0  0  0  0
  -25.1980  -13.8650   20.4450 C   0  0  0  0  0  0  0  0  0  0  0  0
  -24.1470  -13.0820   20.8340 C   0  0  0  0  0  0  0  0  0  0  0  0
  -24.6200  -11.7350   20.7890 C   0  0  0  0  0  0  0  0  0  0  0  0
  -26.2430  -12.9960   20.1830 N   0  0  0  0  0  0  0  0  0  0  0  0
  -25.9040  -11.7080   20.4540 N   0  0  0  0  0  0  0  0  0  0  0  0
  -23.9050  -10.4670   20.9880 C   0  0  0  0  0  0  0  0  0  0  0  0
  -24.3590   -9.5000   21.9120 C   0  0  0  0  0  3  0  0  0  0  0  0
  -23.6430   -8.2980   22.0990 C   0  0  0  0  0  3  0  0  0  0  0  0
  -22.4590   -8.0540   21.3630 C   0  0  0  0  0  0  0  0  0  0  0  0
  -22.0240   -9.0100   20.4280 C   0  0  0  0  0  3  0  0  0  0  0  0
  -22.7410  -10.2040   20.2390 C   0  0  0  0  0  3  0  0  0  0  0  0
  -21.7130   -6.9040   21.4600 O   0  0  0  0  0  0  0  0  0  0  0  0
  -21.6850   -6.1600   22.6130 C   0  0  0  0  0  0  0  0  0  0  0  0
  -21.2660   -6.7080   23.8440 C   0  0  0  0  0  3  0  0  0  0  0  0
  -21.1860   -5.8900   24.9880 C   0  0  0  0  0  3  0  0  0  0  0  0
  -21.5140   -4.5240   24.9020 C   0  0  0  0  0  0  0  0  0  0  0  0
  -21.9270   -3.9750   23.6760 C   0  0  0  0  0  3  0  0  0  0  0  0
  -22.0090   -4.7900   22.5330 C   0  0  0  0  0  0  0  0  0  0  0  0
  -22.3860   -4.2510   21.3490 F   0  0  0  0  0  0  0  0  0  0  0  0
  -21.4310   -3.7360   26.0000 F   0  0  0  0  0  0  0  0  0  0  0  0
  -22.7520  -13.5480   21.1330 C   0  0  0  0  0  0  0  0  0  0  0  0
  -22.0450  -12.8460   22.0110 N   0  0  0  0  0  0  0  0  0  0  0  0
  -22.2980  -14.5720   20.6230 O   0  0  0  0  0  0  0  0  0  0  0  0
  -22.4260  -12.0180   22.4450 H   0  0  0  0  0  0  0  0  0  0  0  0
  -21.1100  -13.1410   22.2540 H   0  0  0  0  0  0  0  0  0  0  0  0
  -25.3470  -15.2390   20.2670 N   0  0  0  0  0  0  0  0  0  0  0  0
  -24.5680  -15.8780   20.3840 H   0  0  0  0  0  0  0  0  0  0  0  0
  -26.1670  -15.6820   19.8760 H   0  0  0  0  0  0  0  0  0  0  0  0
  -27.7860  -24.9500   20.8690 C   0  0  0  0  0  3  0  0  0  0  0  0
  -28.0590  -23.5510   20.9120 C   0  0  0  0  0  0  0  0  0  0  0  0
  -27.1330  -22.9230   21.8910 N   0  0  0  0  0  4  0  0  0  0  0  0
  -27.6040  -22.2130   22.4230 H   0  0  0  0  0  0  0  0  0  0  0  0
  -26.3310  -22.5240   21.4350 H   0  0  0  0  0  0  0  0  0  0  0  0
  -26.8030  -23.6050   22.5460 H   0  0  0  0  0  0  0  0  0  0  0  0
  -28.2020  -26.1940   20.2570 O   0  0  0  0  0  0  0  0  0  0  0  0
  -24.6200  -31.8800   23.2380 C   0  0  0  0  0  0  0  0  0  0  0  0
  -27.2010  -27.2190   20.1860 C   0  0  0  0  0  0  0  0  0  0  0  0
  -23.4180  -30.4910   21.5940 C   0  0  0  0  0  3  0  0  0  0  0  0
  -24.8690  -28.9320   20.1580 C   0  0  0  0  0  0  0  0  0  0  0  0
  -25.9700  -30.7680   21.4270 C   0  0  0  0  0  2  0  0  0  0  0  0
  -26.0480  -29.3830   20.7720 C   0  0  0  0  0  0  0  0  0  0  0  0
  -27.2170  -28.5390   20.7770 C   0  0  0  0  0  3  0  0  0  0  0  0
  -26.0050  -26.8650   19.5250 C   0  0  0  0  0  3  0  0  0  0  0  0
  -24.8580  -27.6830   19.5200 C   0  0  0  0  0  3  0  0  0  0  0  0
  -23.6390  -29.8210   20.2110 C   0  0  0  0  0  2  0  0  0  0  0  0
  -24.6890  -31.0670   22.1410 N   0  0  0  0  0  0  0  0  0  0  0  0
  -23.5350  -32.1630   23.7680 O   0  0  0  0  0  0  0  0  0  0  0  0
  -22.7420  -29.4790   22.5510 C   0  0  0  0  0  0  0  0  0  0  0  0
  -21.4140  -29.3090   22.4230 N   0  0  0  0  0  0  0  0  0  0  0  0
  -23.4140  -28.8480   23.3720 O   0  0  0  0  0  0  0  0  0  0  0  0
  -20.9280  -29.8680   21.7360 H   0  0  0  0  0  0  0  0  0  0  0  0
  -18.0300  -28.1160   22.9230 C   0  0  0  0  0  0  0  0  0  0  0  0
  -20.5900  -28.3730   23.1930 C   0  0  0  0  0  3  0  0  0  0  0  0
  -20.6890  -26.9410   22.6170 C   0  0  0  0  0  2  0  0  0  0  0  0
  -19.5870  -26.6230   21.6020 C   0  0  0  0  0  2  0  0  0  0  0  0
  -18.2050  -26.7690   22.2440 C   0  0  0  0  0  2  0  0  0  0  0  0
  -19.1510  -28.8760   23.3550 C   0  0  0  0  0  0  0  0  0  0  0  0
  -18.9330  -30.1370   23.9510 C   0  0  0  0  0  3  0  0  0  0  0  0
  -17.6280  -30.6390   24.1190 C   0  0  0  0  0  3  0  0  0  0  0  0
  -16.5220  -29.8760   23.7040 C   0  0  0  0  0  3  0  0  0  0  0  0
  -16.7250  -28.6160   23.1130 C   0  0  0  0  0  3  0  0  0  0  0  0
  -25.9010  -32.5110   23.8650 C   0  0  0  0  0  3  0  0  0  0  0  0
  -26.4070  -31.7390   25.1460 C   0  0  1  0  0  0  0  0  0  0  0  0
  -25.3090  -31.5110   26.2090 C   0  0  0  0  0  1  0  0  0  0  0  0
  -26.9850  -30.3580   24.7620 C   0  0  0  0  0  1  0  0  0  0  0  0
  -27.5610  -32.5290   25.8090 C   0  0  0  0  0  1  0  0  0  0  0  0
  -25.5920  -33.9110   24.1970 N   0  0  0  0  0  0  0  0  0  0  0  0
  -25.9200  -34.9650   23.4380 C   0  0  0  0  0  0  0  0  0  0  0  0
  -26.5790  -34.8620   22.4000 O   0  0  0  0  0  0  0  0  0  0  0  0
  -25.0050  -34.0660   25.0030 H   0  0  0  0  0  0  0  0  0  0  0  0
  -24.1870  -36.7610   23.1100 C   0  0  0  0  0  1  0  0  0  0  0  0
  -25.4400  -36.3550   23.9020 C   0  0  0  0  0  3  0  0  0  0  0  0
  -27.5870  -37.2410   24.7010 C   0  0  0  0  0  1  0  0  0  0  0  0
  -26.4710  -37.4080   23.7730 N   0  0  0  0  0  0  0  0  0  0  0  0
  -26.0670  -38.3280   23.9240 H   0  0  0  0  0  0  0  0  0  0  0  0
  1  2  1  0
  1 50  1  0
  2  4  1  0
  3  1  2  0
  6 10  1  0
  6  7  2  0
  7 19  1  0
  7  5  1  0
  8  5  2  0
  8  2  1  0
  9 10  1  0
 10  8  1  0
 11 19  1  0
 12 17  1  0
 13 14  1  0
 13 12  1  0
 15 14  1  0
 15 24  1  0
 15 16  1  0
 17 11  1  0
 17 16  1  0
 18 11  2  0
 19 20  1  0
 21 22  2  0
 22 41  1  0
 23 22  1  0
 23 26  1  0
 24 21  1  0
 24 25  1  0
 25 23  2  0
 26 27  1  0
 27 28  2  0
 29 32  1  0
 29 28  1  0
 30 29  2  0
 31 30  1  0
 31 26  2  0
 32 33  1  0
 33 34  1  0
 34 35  2  0
 36 35  1  0
 36 40  1  0
 37 36  2  0
 38 33  2  0
 38 37  1  0
 39 38  1  0
 41 42  1  0
 42 45  1  0
 42 44  1  0
 43 41  2  0
 46 47  1  0
 46 21  1  0
 48 46  1  0
 49 50  2  0
 50 51  1  0
 51 52  1  0
 51 54  1  0
 53 51  1  0
 55 49  1  0
 56 67  2  0
 57 55  1  0
 57 62  1  0
 58 66  1  0
 58 68  1  0
 59 65  1  0
 59 61  1  0
 60 66  1  0
 61 62  2  0
 61 60  1  0
 63 57  2  0
 64 63  1  0
 64 59  2  0
 65 58  1  0
 66 56  1  0
 68 70  2  0
 69 68  1  0
 71 69  1  0
 72 81  2  0
 72 77  1  0
 73 69  1  0
 73 77  1  0
 74 73  1  0
 75 76  1  0
 75 74  1  0
 76 72  1  0
 77 78  2  0
 78 79  1  0
 80 79  2  0
 81 80  1  0
 82 56  1  0
 82 87  1  0
 82 83  1  0
 83 86  1  1
 83 84  1  0
 85 83  1  0
 87 90  1  0
 88 92  1  0
 88 87  1  0
 89 88  2  0
 92 91  1  0
 94 92  1  0
 94 95  1  0
 94 93  1  0
M  ISO  4  11 100  19 100  49 101  55 101
M  END
>  <TORSDO>  (4) 
F 19

>  <SCORE>  (4) 
-14.773

>  <name>  (4) 
3

>  <ligand_id>  (4) 
3

>  <original_smiles>  (4) 
[H]C(Oc1c([H])c([H])c2c(c1[H])C([H])([H])N(C(=O)C([H])(N([H])C(=O)C([H])(N([H])C([H])([H])[H])C([H])([H])[H])C(C([H])([H])[H])(C([H])([H])[H])C([H])([H])[H])C([H])(C(=O)N([H])C1([H])c3c([H])c([H])c([H])c([H])c3C([H])([H])C([H])([H])C1([H])[H])C2([H])[H])=C(C(=O)N([H])c1c([H])c(N([H])C(=O)N2C([H])([H])C([H])([H])C([H])([H])C([H])(n3nc(-c4c([H])c([H])c(Oc5c([H])c([H])c(F)c([H])c5F)c([H])c4[H])c(C(=O)N([H])[H])c3N([H])[H])C2([H])[H])c([H])n1C([H])([H])[H])[N+]([H])([H])[H]

>  <smiles>  (4) 
[H]C(Oc1c([H])c([H])c2c(c1[H])C([H])([H])N(C(=O)C([H])(N([H])C(=O)C([H])(N([H])C([H])([H])[H])C([H])([H])[H])C(C([H])([H])[H])(C([H])([H])[H])C([H])([H])[H])C([H])(C(=O)N([H])C1([H])c3c([H])c([H])c([H])c([H])c3C([H])([H])C([H])([H])C1([H])[H])C2([H])[H])=C(C(=O)N([H])c1c([H])c(N([H])C(=O)N2C([H])([H])C([H])([H])C([H])([H])C([H])(n3nc(-c4c([H])c([H])c(Oc5c([H])c([H])c(F)c([H])c5F)c([H])c4[H])c(C(=O)N([H])[H])c3N([H])[H])C2([H])[H])c([H])n1C([H])([H])[H])[N+]([H])([H])[H]

$$$$
4:0:0
     RDKit          3D

 92100  0  0  1  0  0  0  0  0999 V2000
  -30.0810  -18.1220   21.1200 C   0  0  0  0  0  0  0  0  0  0  0  0
  -28.9850  -18.3460   20.3190 C   0  0  0  0  0  0  0  0  0  0  0  0
  -29.7980  -20.2780   20.8420 C   0  0  0  0  0  0  0  0  0  0  0  0
  -28.0070  -17.4290   19.6770 C   0  0  0  0  0  1  0  0  0  0  0  0
  -30.5940  -19.3900   21.4490 N   0  0  0  0  0  0  0  0  0  0  0  0
  -29.8310  -21.6790   20.8200 N   0  0  0  0  0  0  0  0  0  0  0  0
  -28.7920  -19.6990   20.1380 O   0  0  0  0  0  0  0  0  0  0  0  0
  -30.6100  -22.0880   21.3250 H   0  0  0  0  0  0  0  0  0  0  0  0
  -30.7040  -16.8230   21.6470 C   0  0  0  0  0  2  0  0  0  0  0  0
  -30.6920  -14.5660   20.4880 C   0  0  0  0  0  0  0  0  0  0  0  0
  -30.3650  -12.4370   19.2550 C   0  0  0  0  0  2  0  0  0  0  0  0
  -29.3970  -12.6360   18.0700 C   0  0  0  0  0  2  0  0  0  0  0  0
  -27.9340  -12.4730   18.5230 C   0  0  0  0  0  2  0  0  0  0  0  0
  -27.6130  -13.2880   19.8040 C   0  0  0  0  0  3  0  0  0  0  0  0
  -28.6910  -13.0610   20.8890 C   0  0  0  0  0  2  0  0  0  0  0  0
  -30.0000  -13.4040   20.3090 N   0  0  0  0  0  0  0  0  0  0  0  0
  -31.7850  -14.7630   19.9500 O   0  0  0  0  0  0  0  0  0  0  0  0
  -30.0990  -15.5320   21.2260 N   0  0  0  0  0  0  0  0  0  0  0  0
  -29.1980  -15.3140   21.6210 H   0  0  0  0  0  0  0  0  0  0  0  0
  -25.2200  -13.8660   20.5510 C   0  0  0  0  0  0  0  0  0  0  0  0
  -24.1630  -13.0880   20.9300 C   0  0  0  0  0  0  0  0  0  0  0  0
  -24.6290  -11.7400   20.8760 C   0  0  0  0  0  0  0  0  0  0  0  0
  -26.2690  -12.9970   20.2980 N   0  0  0  0  0  0  0  0  0  0  0  0
  -25.9170  -11.7100   20.5500 N   0  0  0  0  0  0  0  0  0  0  0  0
  -23.9070  -10.4760   21.0570 C   0  0  0  0  0  0  0  0  0  0  0  0
  -24.3460   -9.5040   21.9820 C   0  0  0  0  0  3  0  0  0  0  0  0
  -23.6270   -8.3010   22.1520 C   0  0  0  0  0  3  0  0  0  0  0  0
  -22.4520   -8.0640   21.3990 C   0  0  0  0  0  0  0  0  0  0  0  0
  -22.0310   -9.0270   20.4650 C   0  0  0  0  0  3  0  0  0  0  0  0
  -22.7510  -10.2210   20.2920 C   0  0  0  0  0  3  0  0  0  0  0  0
  -21.7000   -6.9180   21.4840 O   0  0  0  0  0  0  0  0  0  0  0  0
  -21.6420   -6.1780   22.6370 C   0  0  0  0  0  0  0  0  0  0  0  0
  -21.1710   -6.7250   23.8520 C   0  0  0  0  0  3  0  0  0  0  0  0
  -21.0620   -5.9110   24.9950 C   0  0  0  0  0  3  0  0  0  0  0  0
  -21.4140   -4.5500   24.9270 C   0  0  0  0  0  0  0  0  0  0  0  0
  -21.8800   -4.0010   23.7190 C   0  0  0  0  0  3  0  0  0  0  0  0
  -21.9900   -4.8140   22.5770 C   0  0  0  0  0  0  0  0  0  0  0  0
  -22.4180   -4.2770   21.4100 F   0  0  0  0  0  0  0  0  0  0  0  0
  -21.3010   -3.7640   26.0240 F   0  0  0  0  0  0  0  0  0  0  0  0
  -22.7700  -13.5600   21.2330 C   0  0  0  0  0  0  0  0  0  0  0  0
  -22.0530  -12.8510   22.0970 N   0  0  0  0  0  0  0  0  0  0  0  0
  -22.3240  -14.5970   20.7390 O   0  0  0  0  0  0  0  0  0  0  0  0
  -22.4210  -12.0130   22.5220 H   0  0  0  0  0  0  0  0  0  0  0  0
  -21.1190  -13.1540   22.3340 H   0  0  0  0  0  0  0  0  0  0  0  0
  -25.3640  -15.2360   20.3770 N   0  0  0  0  0  0  0  0  0  0  0  0
  -24.5730  -15.8680   20.4550 H   0  0  0  0  0  0  0  0  0  0  0  0
  -26.1820  -15.6660   19.9740 H   0  0  0  0  0  0  0  0  0  0  0  0
  -28.9490  -22.6960   20.2050 C   0  0  0  0  0  2  0  0  0  0  0  0
  -29.2660  -24.1980   20.4720 C   0  0  0  0  0  0  0  0  0  0  0  0
  -30.2410  -24.5340   21.1550 O   0  0  0  0  0  0  0  0  0  0  0  0
  -28.2880  -25.2300   19.8360 C   0  0  0  0  0  2  0  0  0  0  0  0
  -28.4390  -26.6260   20.2410 O   0  0  0  0  0  0  0  0  0  0  0  0
  -24.6090  -31.9030   23.2120 C   0  0  0  0  0  0  0  0  0  0  0  0
  -27.2930  -27.4200   20.1660 C   0  0  0  0  0  0  0  0  0  0  0  0
  -23.4290  -30.5040   21.5510 C   0  0  0  0  0  3  0  0  0  0  0  0
  -24.9040  -28.9730   20.1390 C   0  0  0  0  0  0  0  0  0  0  0  0
  -25.9630  -30.8500   21.3960 C   0  0  0  0  0  2  0  0  0  0  0  0
  -26.0570  -29.4760   20.7550 C   0  0  0  0  0  0  0  0  0  0  0  0
  -27.2510  -28.7070   20.7690 C   0  0  0  0  0  3  0  0  0  0  0  0
  -26.1190  -26.9660   19.5150 C   0  0  0  0  0  3  0  0  0  0  0  0
  -24.9330  -27.7200   19.5130 C   0  0  0  0  0  3  0  0  0  0  0  0
  -23.6610  -29.8350   20.1710 C   0  0  0  0  0  2  0  0  0  0  0  0
  -24.6850  -31.1020   22.1100 N   0  0  0  0  0  0  0  0  0  0  0  0
  -23.5180  -32.1750   23.7340 O   0  0  0  0  0  0  0  0  0  0  0  0
  -22.7620  -29.4810   22.4990 C   0  0  0  0  0  0  0  0  0  0  0  0
  -21.4360  -29.3110   22.3680 N   0  0  0  0  0  0  0  0  0  0  0  0
  -23.4360  -28.8420   23.3110 O   0  0  0  0  0  0  0  0  0  0  0  0
  -20.9520  -29.8820   21.6900 H   0  0  0  0  0  0  0  0  0  0  0  0
  -18.0430  -28.1800   22.8980 C   0  0  0  0  0  0  0  0  0  0  0  0
  -20.6100  -28.3730   23.1290 C   0  0  0  0  0  3  0  0  0  0  0  0
  -20.6700  -26.9550   22.5170 C   0  0  0  0  0  2  0  0  0  0  0  0
  -19.5440  -26.6820   21.5150 C   0  0  0  0  0  2  0  0  0  0  0  0
  -18.1770  -26.8440   22.1870 C   0  0  0  0  0  2  0  0  0  0  0  0
  -19.1870  -28.9050   23.3260 C   0  0  0  0  0  0  0  0  0  0  0  0
  -19.0090  -30.1570   23.9540 C   0  0  0  0  0  3  0  0  0  0  0  0
  -17.7190  -30.6840   24.1550 C   0  0  0  0  0  3  0  0  0  0  0  0
  -16.5890  -29.9560   23.7400 C   0  0  0  0  0  3  0  0  0  0  0  0
  -16.7530  -28.7050   23.1190 C   0  0  0  0  0  3  0  0  0  0  0  0
  -25.8840  -32.5390   23.8490 C   0  0  0  0  0  3  0  0  0  0  0  0
  -26.3890  -31.7660   25.1300 C   0  0  1  0  0  0  0  0  0  0  0  0
  -25.2830  -31.5160   26.1810 C   0  0  0  0  0  1  0  0  0  0  0  0
  -26.9870  -30.3940   24.7410 C   0  0  0  0  0  1  0  0  0  0  0  0
  -27.5240  -32.5650   25.8110 C   0  0  0  0  0  1  0  0  0  0  0  0
  -25.5670  -33.9360   24.1780 N   0  0  0  0  0  0  0  0  0  0  0  0
  -25.8980  -34.9890   23.4190 C   0  0  0  0  0  0  0  0  0  0  0  0
  -26.5760  -34.8870   22.3930 O   0  0  0  0  0  0  0  0  0  0  0  0
  -24.9720  -34.0890   24.9780 H   0  0  0  0  0  0  0  0  0  0  0  0
  -24.1750  -36.7810   23.0390 C   0  0  0  0  0  1  0  0  0  0  0  0
  -25.4030  -36.3760   23.8710 C   0  0  0  0  0  3  0  0  0  0  0  0
  -27.5170  -37.2650   24.7480 C   0  0  0  0  0  1  0  0  0  0  0  0
  -26.4360  -37.4300   23.7790 N   0  0  0  0  0  0  0  0  0  0  0  0
  -26.0260  -38.3500   23.9170 H   0  0  0  0  0  0  0  0  0  0  0  0
  1  5  1  0
  1  9  1  0
  2  1  2  0
  3  5  2  0
  4  2  1  0
  6  3  1  0
  6  8  1  0
  7  2  1  0
  7  3  1  0
 10 18  1  0
 11 16  1  0
 12 13  1  0
 12 11  1  0
 14 13  1  0
 14 23  1  0
 14 15  1  0
 16 10  1  0
 16 15  1  0
 17 10  2  0
 18 19  1  0
 18  9  1  0
 20 21  2  0
 21 40  1  0
 22 21  1  0
 22 25  1  0
 23 24  1  0
 23 20  1  0
 24 22  2  0
 25 26  1  0
 26 27  2  0
 28 31  1  0
 28 27  1  0
 29 28  2  0
 30 29  1  0
 30 25  2  0
 31 32  1  0
 32 33  1  0
 33 34  2  0
 35 34  1  0
 35 39  1  0
 36 35  2  0
 37 32  2  0
 37 36  1  0
 38 37  1  0
 40 41  1  0
 41 44  1  0
 41 43  1  0
 42 40  2  0
 45 46  1  0
 45 20  1  0
 47 45  1  0
 48 49  1  0
 48  6  1  0
 49 50  2  0
 51 52  1  0
 51 49  1  0
 53 64  2  0
 54 52  1  0
 54 59  1  0
 55 63  1  0
 55 65  1  0
 56 62  1  0
 56 58  1  0
 57 63  1  0
 58 59  2  0
 58 57  1  0
 60 54  2  0
 61 60  1  0
 61 56  2  0
 62 55  1  0
 63 53  1  0
 65 67  2  0
 66 65  1  0
 68 66  1  0
 69 78  2  0
 69 74  1  0
 70 66  1  0
 70 74  1  0
 71 70  1  0
 72 73  1  0
 72 71  1  0
 73 69  1  0
 74 75  2  0
 75 76  1  0
 77 76  2  0
 78 77  1  0
 79 53  1  0
 79 84  1  0
 79 80  1  0
 80 83  1  1
 80 81  1  0
 82 80  1  0
 84 87  1  0
 85 89  1  0
 85 84  1  0
 86 85  2  0
 89 88  1  0
 91 89  1  0
 91 92  1  0
 91 90  1  0
M  ISO  4  10 100  18 100  51 101  52 101
M  END
>  <TORSDO>  (5) 
F 20

>  <SCORE>  (5) 
-14.307

>  <name>  (5) 
4

>  <ligand_id>  (5) 
4

>  <original_smiles>  (5) 
[H]c1c([H])c([H])c2c(c1[H])C([H])([H])C([H])([H])C([H])([H])C2([H])N([H])C(=O)C1([H])N(C(=O)C([H])(N([H])C(=O)C([H])(N([H])C([H])([H])[H])C([H])([H])[H])C(C([H])([H])[H])(C([H])([H])[H])C([H])([H])[H])C([H])([H])c2c([H])c(OC([H])([H])C(=O)C([H])([H])N([H])c3nc(C([H])([H])N([H])C(=O)N4C([H])([H])C([H])([H])C([H])([H])C([H])(n5nc(-c6c([H])c([H])c(Oc7c([H])c([H])c(F)c([H])c7F)c([H])c6[H])c(C(=O)N([H])[H])c5N([H])[H])C4([H])[H])c(C([H])([H])[H])o3)c([H])c([H])c2C1([H])[H]

>  <smiles>  (5) 
[H]c1c([H])c([H])c2c(c1[H])C([H])([H])C([H])([H])C([H])([H])C2([H])N([H])C(=O)C1([H])N(C(=O)C([H])(N([H])C(=O)C([H])(N([H])C([H])([H])[H])C([H])([H])[H])C(C([H])([H])[H])(C([H])([H])[H])C([H])([H])[H])C([H])([H])c2c([H])c(OC([H])([H])C(=O)C([H])([H])N([H])c3nc(C([H])([H])N([H])C(=O)N4C([H])([H])C([H])([H])C([H])([H])C([H])(n5nc(-c6c([H])c([H])c(Oc7c([H])c([H])c(F)c([H])c7F)c([H])c6[H])c(C(=O)N([H])[H])c5N([H])[H])C4([H])[H])c(C([H])([H])[H])o3)c([H])c([H])c2C1([H])[H]

$$$$
5:0:0
     RDKit          3D

 98106  0  0  1  0  0  0  0  0999 V2000
  -29.2580  -20.6520   20.8890 C   0  0  0  0  0  0  0  0  0  0  0  0
  -29.5460  -21.9550   20.6250 N   0  0  0  0  0  0  0  0  0  0  0  0
  -28.0760  -20.3950   21.4530 N   0  0  0  0  0  4  0  0  0  0  0  0
  -30.3580  -22.1500   20.0490 H   0  0  0  0  0  0  0  0  0  0  0  0
  -27.7980  -19.4310   21.5740 H   0  0  0  0  0  0  0  0  0  0  0  0
  -27.4200  -21.1280   21.6580 H   0  0  0  0  0  0  0  0  0  0  0  0
  -31.6000  -19.8570   20.6460 C   0  0  0  0  0  3  0  0  0  0  0  0
  -32.1720  -17.4890   20.5000 C   0  0  0  0  0  3  0  0  0  0  0  0
  -30.2240  -19.5450   20.6750 C   0  0  0  0  0  0  0  0  0  0  0  0
  -30.8010  -17.1310   20.5110 C   0  0  0  0  0  0  0  0  0  0  0  0
  -32.5640  -18.8390   20.5600 C   0  0  0  0  0  0  0  0  0  0  0  0
  -29.8340  -18.1700   20.6040 C   0  0  0  0  0  0  0  0  0  0  0  0
  -33.8800  -19.1610   20.5560 F   0  0  0  0  0  0  0  0  0  0  0  0
  -28.5230  -17.8220   20.6630 F   0  0  0  0  0  0  0  0  0  0  0  0
  -31.0000  -14.6930   19.9570 C   0  0  0  0  0  0  0  0  0  0  0  0
  -30.6370  -12.4740   18.9380 C   0  0  0  0  0  2  0  0  0  0  0  0
  -29.6360  -12.6050   17.7730 C   0  0  0  0  0  2  0  0  0  0  0  0
  -28.1890  -12.4730   18.2870 C   0  0  0  0  0  2  0  0  0  0  0  0
  -27.9070  -13.3740   19.5200 C   0  0  0  0  0  3  0  0  0  0  0  0
  -29.0230  -13.2410   20.5820 C   0  0  0  0  0  2  0  0  0  0  0  0
  -30.3100  -13.5190   19.9250 N   0  0  0  0  0  0  0  0  0  0  0  0
  -32.0940  -14.8170   19.4030 O   0  0  0  0  0  0  0  0  0  0  0  0
  -30.3580  -15.7590   20.4860 N   0  0  0  0  0  0  0  0  0  0  0  0
  -29.4100  -15.5960   20.7880 H   0  0  0  0  0  0  0  0  0  0  0  0
  -25.5800  -14.0000   20.4210 C   0  0  0  0  0  0  0  0  0  0  0  0
  -24.5220  -13.2360   20.8340 C   0  0  0  0  0  0  0  0  0  0  0  0
  -24.9480  -11.8770   20.7200 C   0  0  0  0  0  0  0  0  0  0  0  0
  -26.5860  -13.1080   20.0850 N   0  0  0  0  0  0  0  0  0  0  0  0
  -26.2130  -11.8240   20.3220 N   0  0  0  0  0  0  0  0  0  0  0  0
  -24.2050  -10.6240   20.9140 C   0  0  0  0  0  0  0  0  0  0  0  0
  -24.6100   -9.6660   21.8690 C   0  0  0  0  0  3  0  0  0  0  0  0
  -23.8700   -8.4780   22.0490 C   0  0  0  0  0  3  0  0  0  0  0  0
  -22.7100   -8.2400   21.2750 C   0  0  0  0  0  0  0  0  0  0  0  0
  -22.3240   -9.1870   20.3100 C   0  0  0  0  0  3  0  0  0  0  0  0
  -23.0660  -10.3660   20.1270 C   0  0  0  0  0  3  0  0  0  0  0  0
  -21.9430   -7.1030   21.3630 O   0  0  0  0  0  0  0  0  0  0  0  0
  -21.7880   -6.4310   22.5480 C   0  0  0  0  0  0  0  0  0  0  0  0
  -21.2100   -7.0440   23.6820 C   0  0  0  0  0  3  0  0  0  0  0  0
  -21.0050   -6.2950   24.8590 C   0  0  0  0  0  3  0  0  0  0  0  0
  -21.3650   -4.9360   24.9000 C   0  0  0  0  0  0  0  0  0  0  0  0
  -21.9350   -4.3220   23.7700 C   0  0  0  0  0  3  0  0  0  0  0  0
  -22.1420   -5.0680   22.5970 C   0  0  0  0  0  0  0  0  0  0  0  0
  -22.6710   -4.4660   21.5040 F   0  0  0  0  0  0  0  0  0  0  0  0
  -21.1610   -4.2140   26.0280 F   0  0  0  0  0  0  0  0  0  0  0  0
  -23.1590  -13.7330   21.2220 C   0  0  0  0  0  0  0  0  0  0  0  0
  -22.4750  -13.0190   22.1080 N   0  0  0  0  0  0  0  0  0  0  0  0
  -22.7120  -14.7890   20.7740 O   0  0  0  0  0  0  0  0  0  0  0  0
  -22.8500  -12.1630   22.4910 H   0  0  0  0  0  0  0  0  0  0  0  0
  -21.5630  -13.3320   22.4080 H   0  0  0  0  0  0  0  0  0  0  0  0
  -25.7650  -15.3730   20.2850 N   0  0  0  0  0  0  0  0  0  0  0  0
  -25.0230  -16.0370   20.4770 H   0  0  0  0  0  0  0  0  0  0  0  0
  -26.6050  -15.8130   19.9330 H   0  0  0  0  0  0  0  0  0  0  0  0
  -29.0910  -23.4620   22.5710 C   0  0  0  0  0  1  0  0  0  0  0  0
  -28.7930  -23.1660   21.0800 C   0  0  0  0  0  3  0  0  0  0  0  0
  -29.0700  -24.4330   20.2140 C   0  0  0  0  0  0  0  0  0  0  0  0
  -29.8250  -24.4130   19.2380 O   0  0  0  0  0  0  0  0  0  0  0  0
  -28.3550  -25.7360   20.6580 C   0  0  0  0  0  2  0  0  0  0  0  0
  -28.4540  -26.8390   19.7290 O   0  0  0  0  0  0  0  0  0  0  0  0
  -24.6390  -31.8250   23.1170 C   0  0  0  0  0  0  0  0  0  0  0  0
  -27.3130  -27.6110   19.7510 C   0  0  0  0  0  0  0  0  0  0  0  0
  -23.4290  -30.4800   21.4300 C   0  0  0  0  0  3  0  0  0  0  0  0
  -24.8880  -29.0600   19.8900 C   0  0  0  0  0  0  0  0  0  0  0  0
  -25.9420  -30.9130   21.1930 C   0  0  0  0  0  2  0  0  0  0  0  0
  -26.0480  -29.5810   20.4790 C   0  0  0  0  0  0  0  0  0  0  0  0
  -27.2680  -28.8650   20.4050 C   0  0  0  0  0  3  0  0  0  0  0  0
  -26.1400  -27.1110   19.1480 C   0  0  0  0  0  3  0  0  0  0  0  0
  -24.9300  -27.8250   19.2200 C   0  0  0  0  0  3  0  0  0  0  0  0
  -23.6230  -29.8800   20.0130 C   0  0  0  0  0  2  0  0  0  0  0  0
  -24.6900  -31.0850   21.9730 N   0  0  0  0  0  0  0  0  0  0  0  0
  -23.5650  -32.0400   23.6950 O   0  0  0  0  0  0  0  0  0  0  0  0
  -22.8260  -29.3930   22.3490 C   0  0  0  0  0  0  0  0  0  0  0  0
  -21.5030  -29.1860   22.2450 N   0  0  0  0  0  0  0  0  0  0  0  0
  -23.5440  -28.7420   23.1140 O   0  0  0  0  0  0  0  0  0  0  0  0
  -20.9830  -29.7670   21.6010 H   0  0  0  0  0  0  0  0  0  0  0  0
  -18.1690  -27.8890   22.7590 C   0  0  0  0  0  0  0  0  0  0  0  0
  -20.7270  -28.1900   22.9830 C   0  0  0  0  0  3  0  0  0  0  0  0
  -20.8460  -26.7950   22.3270 C   0  0  0  0  0  2  0  0  0  0  0  0
  -19.7250  -26.5030   21.3230 C   0  0  0  0  0  2  0  0  0  0  0  0
  -18.3580  -26.5820   22.0070 C   0  0  0  0  0  2  0  0  0  0  0  0
  -19.2820  -28.6510   23.2030 C   0  0  0  0  0  0  0  0  0  0  0  0
  -19.0510  -29.8770   23.8670 C   0  0  0  0  0  3  0  0  0  0  0  0
  -17.7410  -30.3380   24.0910 C   0  0  0  0  0  3  0  0  0  0  0  0
  -16.6430  -29.5720   23.6630 C   0  0  0  0  0  3  0  0  0  0  0  0
  -16.8580  -28.3490   23.0030 C   0  0  0  0  0  3  0  0  0  0  0  0
  -25.9240  -32.4550   23.7400 C   0  0  0  0  0  3  0  0  0  0  0  0
  -26.4660  -31.6550   24.9880 C   0  0  1  0  0  0  0  0  0  0  0  0
  -25.3900  -31.3700   26.0600 C   0  0  0  0  0  1  0  0  0  0  0  0
  -27.0640  -30.2980   24.5460 C   0  0  0  0  0  1  0  0  0  0  0  0
  -27.6140  -32.4470   25.6590 C   0  0  0  0  0  1  0  0  0  0  0  0
  -25.6020  -33.8400   24.1100 N   0  0  0  0  0  0  0  0  0  0  0  0
  -25.9230  -34.9150   23.3790 C   0  0  0  0  0  0  0  0  0  0  0  0
  -26.5930  -34.8460   22.3440 O   0  0  0  0  0  0  0  0  0  0  0  0
  -25.0080  -33.9670   24.9160 H   0  0  0  0  0  0  0  0  0  0  0  0
  -24.1840  -36.7050   23.0660 C   0  0  0  0  0  1  0  0  0  0  0  0
  -25.4230  -36.2860   23.8740 C   0  0  0  0  0  3  0  0  0  0  0  0
  -27.5400  -37.1650   24.7540 C   0  0  0  0  0  1  0  0  0  0  0  0
  -26.4480  -37.3490   23.8000 N   0  0  0  0  0  0  0  0  0  0  0  0
  -26.0330  -38.2620   23.9660 H   0  0  0  0  0  0  0  0  0  0  0  0
  1  3  2  0
  2  1  1  0
  2 54  1  0
  3  5  1  0
  3  6  1  0
  4  2  1  0
  7  9  1  0
  8 10  2  0
  8 11  1  0
  9  1  1  0
 10 12  1  0
 11  7  2  0
 12 14  1  0
 12  9  2  0
 13 11  1  0
 15 23  1  0
 16 21  1  0
 17 18  1  0
 17 16  1  0
 19 18  1  0
 19 28  1  0
 19 20  1  0
 21 15  1  0
 21 20  1  0
 22 15  2  0
 23 10  1  0
 23 24  1  0
 25 26  2  0
 26 45  1  0
 27 26  1  0
 27 30  1  0
 28 29  1  0
 28 25  1  0
 29 27  2  0
 30 31  1  0
 31 32  2  0
 33 36  1  0
 33 32  1  0
 34 33  2  0
 35 34  1  0
 35 30  2  0
 36 37  1  0
 37 42  2  0
 37 38  1  0
 38 39  2  0
 39 40  1  0
 40 44  1  0
 41 40  2  0
 42 41  1  0
 43 42  1  0
 45 46  1  0
 46 49  1  0
 46 48  1  0
 47 45  2  0
 50 25  1  0
 50 51  1  0
 52 50  1  0
 54 53  1  0
 55 57  1  0
 55 54  1  0
 56 55  2  0
 58 60  1  0
 58 57  1  0
 59 70  2  0
 60 65  1  0
 61 69  1  0
 61 71  1  0
 62 68  1  0
 62 64  1  0
 63 69  1  0
 64 63  1  0
 65 64  2  0
 66 67  1  0
 66 60  2  0
 67 62  2  0
 68 61  1  0
 69 59  1  0
 71 73  2  0
 72 71  1  0
 74 72  1  0
 75 84  2  0
 75 80  1  0
 76 72  1  0
 76 80  1  0
 77 76  1  0
 78 79  1  0
 78 77  1  0
 79 75  1  0
 80 81  2  0
 81 82  1  0
 83 82  2  0
 84 83  1  0
 85 59  1  0
 85 90  1  0
 85 86  1  0
 86 89  1  1
 86 87  1  0
 88 86  1  0
 90 93  1  0
 91 95  1  0
 91 90  1  0
 92 91  2  0
 95 94  1  0
 97 95  1  0
 97 98  1  0
 97 96  1  0
M  ISO  4  15 100  23 100  57 101  58 101
M  END
>  <TORSDO>  (6) 
F 20

>  <SCORE>  (6) 
-13.530

>  <name>  (6) 
5

>  <ligand_id>  (6) 
5

>  <original_smiles>  (6) 
[H]c1c([H])c([H])c2c(c1[H])C([H])([H])C([H])([H])C([H])([H])C2([H])N([H])C(=O)C1([H])N(C(=O)C([H])(N([H])C(=O)C([H])(N([H])C([H])([H])[H])C([H])([H])[H])C(C([H])([H])[H])(C([H])([H])[H])C([H])([H])[H])C([H])([H])c2c([H])c(OC([H])([H])C(=O)C([H])(N([H])C(c3c([H])c(F)c([H])c(N([H])C(=O)N4C([H])([H])C([H])([H])C([H])([H])C([H])(n5nc(-c6c([H])c([H])c(Oc7c([H])c([H])c(F)c([H])c7F)c([H])c6[H])c(C(=O)N([H])[H])c5N([H])[H])C4([H])[H])c3F)=[N+]([H])[H])C([H])([H])[H])c([H])c([H])c2C1([H])[H]

>  <smiles>  (6) 
[H]c1c([H])c([H])c2c(c1[H])C([H])([H])C([H])([H])C([H])([H])C2([H])N([H])C(=O)C1([H])N(C(=O)C([H])(N([H])C(=O)C([H])(N([H])C([H])([H])[H])C([H])([H])[H])C(C([H])([H])[H])(C([H])([H])[H])C([H])([H])[H])C([H])([H])c2c([H])c(OC([H])([H])C(=O)C([H])(N([H])C(c3c([H])c(F)c([H])c(N([H])C(=O)N4C([H])([H])C([H])([H])C([H])([H])C([H])(n5nc(-c6c([H])c([H])c(Oc7c([H])c([H])c(F)c([H])c7F)c([H])c6[H])c(C(=O)N([H])[H])c5N([H])[H])C4([H])[H])c3F)=[N+]([H])[H])C([H])([H])[H])c([H])c([H])c2C1([H])[H]

$$$$
6:0:0
     RDKit          3D

 95103  0  0  1  0  0  0  0  0999 V2000
  -30.4600  -21.8140   20.5420 N   0  0  0  0  0  0  0  0  0  0  0  0
  -29.4500  -21.7250   20.6210 H   0  0  0  0  0  0  0  0  0  0  0  0
  -33.5390  -19.7360   20.9360 C   0  0  0  0  0  3  0  0  0  0  0  0
  -32.9890  -18.4630   21.1530 C   0  0  0  0  0  3  0  0  0  0  0  0
  -32.6980  -20.8410   20.7280 C   0  0  0  0  0  3  0  0  0  0  0  0
  -31.5930  -18.2680   21.1580 C   0  0  0  0  0  0  0  0  0  0  0  0
  -30.7320  -19.3940   20.9520 C   0  0  0  0  0  0  0  0  0  0  0  0
  -31.2930  -20.6920   20.7410 C   0  0  0  0  0  0  0  0  0  0  0  0
  -28.5060  -20.2540   21.8370 C   0  0  0  0  0  1  0  0  0  0  0  0
  -29.2090  -19.2340   20.9370 C   0  0  0  0  0  2  0  0  0  0  0  0
  -31.0960  -16.8220   21.3630 C   0  0  0  0  0  2  0  0  0  0  0  0
  -31.8580  -14.8700   20.0370 C   0  0  0  0  0  0  0  0  0  0  0  0
  -31.5390  -12.6620   18.9920 C   0  0  0  0  0  2  0  0  0  0  0  0
  -30.6250  -12.8210   17.7600 C   0  0  0  0  0  2  0  0  0  0  0  0
  -29.1410  -12.7430   18.1670 C   0  0  0  0  0  2  0  0  0  0  0  0
  -28.7960  -13.6510   19.3790 C   0  0  0  0  0  3  0  0  0  0  0  0
  -29.8240  -13.4630   20.5180 C   0  0  0  0  0  2  0  0  0  0  0  0
  -31.1630  -13.7040   19.9570 N   0  0  0  0  0  0  0  0  0  0  0  0
  -33.0320  -14.9770   19.6650 O   0  0  0  0  0  0  0  0  0  0  0  0
  -30.8520  -16.7120   18.9000 C   0  0  0  0  0  1  0  0  0  0  0  0
  -31.0870  -15.9780   20.1490 N   0  0  0  0  0  0  0  0  0  0  0  0
  -26.3920  -14.3400   19.9830 C   0  0  0  0  0  0  0  0  0  0  0  0
  -25.3010  -13.6110   20.3670 C   0  0  0  0  0  0  0  0  0  0  0  0
  -25.7380  -12.2520   20.4350 C   0  0  0  0  0  0  0  0  0  0  0  0
  -27.4270  -13.4300   19.8410 N   0  0  0  0  0  0  0  0  0  0  0  0
  -27.0350  -12.1730   20.1690 N   0  0  0  0  0  0  0  0  0  0  0  0
  -24.9870  -11.0150   20.6840 C   0  0  0  0  0  0  0  0  0  0  0  0
  -25.2720  -10.1890   21.7940 C   0  0  0  0  0  3  0  0  0  0  0  0
  -24.5230   -9.0140   22.0220 C   0  0  0  0  0  3  0  0  0  0  0  0
  -23.4770   -8.6570   21.1400 C   0  0  0  0  0  0  0  0  0  0  0  0
  -23.2130   -9.4700   20.0230 C   0  0  0  0  0  3  0  0  0  0  0  0
  -23.9620  -10.6360   19.7940 C   0  0  0  0  0  3  0  0  0  0  0  0
  -22.7130   -7.5210   21.2680 O   0  0  0  0  0  0  0  0  0  0  0  0
  -22.3640   -7.0240   22.4990 C   0  0  0  0  0  0  0  0  0  0  0  0
  -21.6280   -7.7900   23.4290 C   0  0  0  0  0  3  0  0  0  0  0  0
  -21.2290   -7.2160   24.6530 C   0  0  0  0  0  3  0  0  0  0  0  0
  -21.5560   -5.8770   24.9430 C   0  0  0  0  0  0  0  0  0  0  0  0
  -22.2860   -5.1140   24.0160 C   0  0  0  0  0  3  0  0  0  0  0  0
  -22.6870   -5.6850   22.7950 C   0  0  0  0  0  0  0  0  0  0  0  0
  -23.3710   -4.9390   21.8950 F   0  0  0  0  0  0  0  0  0  0  0  0
  -21.1670   -5.3230   26.1160 F   0  0  0  0  0  0  0  0  0  0  0  0
  -23.9070  -14.1260   20.5730 C   0  0  0  0  0  0  0  0  0  0  0  0
  -23.1680  -13.5350   21.5080 N   0  0  0  0  0  0  0  0  0  0  0  0
  -23.4800  -15.0910   19.9400 O   0  0  0  0  0  0  0  0  0  0  0  0
  -23.5220  -12.7530   22.0380 H   0  0  0  0  0  0  0  0  0  0  0  0
  -22.2340  -13.8700   21.6940 H   0  0  0  0  0  0  0  0  0  0  0  0
  -26.5920  -15.6930   19.7230 N   0  0  0  0  0  0  0  0  0  0  0  0
  -25.8390  -16.3720   19.7520 H   0  0  0  0  0  0  0  0  0  0  0  0
  -27.4710  -16.0880   19.4110 H   0  0  0  0  0  0  0  0  0  0  0  0
  -30.9740  -23.1900   20.4930 C   0  0  0  0  0  2  0  0  0  0  0  0
  -29.8720  -24.2670   20.5190 C   0  0  0  0  0  0  0  0  0  0  0  0
  -28.6780  -23.9490   20.5700 O   0  0  0  0  0  0  0  0  0  0  0  0
  -30.3340  -25.7350   20.4920 C   0  0  0  0  0  2  0  0  0  0  0  0
  -29.2390  -26.8090   20.6960 C   0  0  0  0  0  2  0  0  0  0  0  0
  -28.4550  -26.9910   19.5160 O   0  0  0  0  0  0  0  0  0  0  0  0
  -24.7150  -31.8650   23.1780 C   0  0  0  0  0  0  0  0  0  0  0  0
  -27.3150  -27.7500   19.6560 C   0  0  0  0  0  0  0  0  0  0  0  0
  -23.4740  -30.6030   21.4500 C   0  0  0  0  0  3  0  0  0  0  0  0
  -24.9020  -29.2120   19.8570 C   0  0  0  0  0  0  0  0  0  0  0  0
  -25.9870  -31.0060   21.2180 C   0  0  0  0  0  2  0  0  0  0  0  0
  -26.0670  -29.6950   20.4660 C   0  0  0  0  0  0  0  0  0  0  0  0
  -27.2750  -28.9690   20.3750 C   0  0  0  0  0  3  0  0  0  0  0  0
  -26.1390  -27.2850   19.0350 C   0  0  0  0  0  3  0  0  0  0  0  0
  -24.9310  -28.0020   19.1420 C   0  0  0  0  0  3  0  0  0  0  0  0
  -23.6500  -30.0480   20.0110 C   0  0  0  0  0  2  0  0  0  0  0  0
  -24.7440  -31.1680   22.0080 N   0  0  0  0  0  0  0  0  0  0  0  0
  -23.6480  -32.0780   23.7720 O   0  0  0  0  0  0  0  0  0  0  0  0
  -22.8570  -29.4950   22.3330 C   0  0  0  0  0  0  0  0  0  0  0  0
  -21.5270  -29.3310   22.2440 N   0  0  0  0  0  0  0  0  0  0  0  0
  -23.5690  -28.7910   23.0540 O   0  0  0  0  0  0  0  0  0  0  0  0
  -21.0130  -29.9530   21.6350 H   0  0  0  0  0  0  0  0  0  0  0  0
  -18.1610  -28.1470   22.8050 C   0  0  0  0  0  0  0  0  0  0  0  0
  -20.7350  -28.3260   22.9520 C   0  0  0  0  0  3  0  0  0  0  0  0
  -20.7710  -26.9680   22.2130 C   0  0  0  0  0  2  0  0  0  0  0  0
  -19.6060  -26.7820   21.2370 C   0  0  0  0  0  2  0  0  0  0  0  0
  -18.2660  -26.8790   21.9710 C   0  0  0  0  0  2  0  0  0  0  0  0
  -19.3200  -28.8340   23.2500 C   0  0  0  0  0  0  0  0  0  0  0  0
  -19.1670  -30.0270   23.9900 C   0  0  0  0  0  3  0  0  0  0  0  0
  -17.8860  -30.5310   24.2870 C   0  0  0  0  0  3  0  0  0  0  0  0
  -16.7430  -29.8370   23.8570 C   0  0  0  0  0  3  0  0  0  0  0  0
  -16.8800  -28.6460   23.1220 C   0  0  0  0  0  3  0  0  0  0  0  0
  -26.0150  -32.4470   23.8170 C   0  0  0  0  0  3  0  0  0  0  0  0
  -25.7270  -33.8300   24.2210 N   0  0  0  0  0  0  0  0  0  0  0  0
  -26.1020  -34.9160   23.5330 C   0  0  0  0  0  0  0  0  0  0  0  0
  -26.7950  -34.8570   22.5140 O   0  0  0  0  0  0  0  0  0  0  0  0
  -25.1160  -33.9510   25.0160 H   0  0  0  0  0  0  0  0  0  0  0  0
  -24.4460  -36.7810   23.2120 C   0  0  0  0  0  1  0  0  0  0  0  0
  -25.6300  -36.2850   24.0580 C   0  0  0  0  0  3  0  0  0  0  0  0
  -27.7360  -37.0470   25.0640 C   0  0  0  0  0  1  0  0  0  0  0  0
  -26.6960  -37.3100   24.0730 N   0  0  0  0  0  0  0  0  0  0  0  0
  -26.3050  -38.2300   24.2610 H   0  0  0  0  0  0  0  0  0  0  0  0
  -26.5390  -31.6030   25.0420 C   0  0  1  0  0  0  0  0  0  0  0  0
  -25.4540  -31.3090   26.1040 C   0  0  0  0  0  1  0  0  0  0  0  0
  -27.1110  -30.2480   24.5660 C   0  0  0  0  0  1  0  0  0  0  0  0
  -27.6990  -32.3530   25.7380 C   0  0  0  0  0  1  0  0  0  0  0  0
  1  2  1  0
  1  8  1  0
  3  4  1  0
  4  6  2  0
  5  8  1  0
  5  3  2  0
  6 11  1  0
  7  6  1  0
  8  7  2  0
 10  7  1  0
 10  9  1  0
 12 21  1  0
 13 18  1  0
 14 15  1  0
 14 13  1  0
 16 15  1  0
 16 25  1  0
 16 17  1  0
 18 12  1  0
 18 17  1  0
 19 12  2  0
 20 21  1  0
 21 11  1  0
 22 23  2  0
 23 24  1  0
 23 42  1  0
 24 27  1  0
 25 22  1  0
 25 26  1  0
 26 24  2  0
 27 28  1  0
 28 29  2  0
 30 33  1  0
 30 29  1  0
 31 30  2  0
 32 31  1  0
 32 27  2  0
 33 34  1  0
 34 39  2  0
 34 35  1  0
 35 36  2  0
 36 37  1  0
 37 41  1  0
 38 37  2  0
 39 38  1  0
 40 39  1  0
 42 43  1  0
 43 46  1  0
 43 45  1  0
 44 42  2  0
 47 48  1  0
 47 22  1  0
 49 47  1  0
 50 51  1  0
 50  1  1  0
 51 52  2  0
 53 51  1  0
 53 54  1  0
 55 57  1  0
 55 54  1  0
 56 67  2  0
 57 62  1  0
 58 66  1  0
 58 68  1  0
 59 65  1  0
 59 61  1  0
 60 66  1  0
 61 60  1  0
 62 61  2  0
 63 64  1  0
 63 57  2  0
 64 59  2  0
 65 58  1  0
 66 56  1  0
 68 70  2  0
 69 68  1  0
 71 69  1  0
 72 81  2  0
 72 77  1  0
 73 69  1  0
 73 77  1  0
 74 73  1  0
 75 76  1  0
 75 74  1  0
 76 72  1  0
 77 78  2  0
 78 79  1  0
 80 79  2  0
 81 80  1  0
 82 56  1  0
 82 83  1  0
 82 92  1  0
 83 86  1  0
 84 88  1  0
 84 83  1  0
 85 84  2  0
 88 87  1  0
 88 90  1  0
 90 91  1  0
 90 89  1  0
 92 95  1  1
 92 93  1  0
 94 92  1  0
M  ISO  4  12 100  21 100  54 101  55 101
M  END
>  <TORSDO>  (7) 
F 23

>  <SCORE>  (7) 
-9.223

>  <name>  (7) 
6

>  <ligand_id>  (7) 
6

>  <original_smiles>  (7) 
[H]c1c([H])c(N([H])C([H])([H])C(=O)C([H])([H])C([H])([H])Oc2c([H])c([H])c3c(c2[H])C([H])([H])N(C(=O)C([H])(N([H])C(=O)C([H])(N([H])C([H])([H])[H])C([H])([H])[H])C(C([H])([H])[H])(C([H])([H])[H])C([H])([H])[H])C([H])(C(=O)N([H])C2([H])c4c([H])c([H])c([H])c([H])c4C([H])([H])C([H])([H])C2([H])[H])C3([H])[H])c(C([H])([H])C([H])([H])[H])c(C([H])([H])N(C(=O)N2C([H])([H])C([H])([H])C([H])([H])C([H])(n3nc(-c4c([H])c([H])c(Oc5c([H])c([H])c(F)c([H])c5F)c([H])c4[H])c(C(=O)N([H])[H])c3N([H])[H])C2([H])[H])C([H])([H])[H])c1[H]

>  <smiles>  (7) 
[H]c1c([H])c(N([H])C([H])([H])C(=O)C([H])([H])C([H])([H])Oc2c([H])c([H])c3c(c2[H])C([H])([H])N(C(=O)C([H])(N([H])C(=O)C([H])(N([H])C([H])([H])[H])C([H])([H])[H])C(C([H])([H])[H])(C([H])([H])[H])C([H])([H])[H])C([H])(C(=O)N([H])C2([H])c4c([H])c([H])c([H])c([H])c4C([H])([H])C([H])([H])C2([H])[H])C3([H])[H])c(C([H])([H])C([H])([H])[H])c(C([H])([H])N(C(=O)N2C([H])([H])C([H])([H])C([H])([H])C([H])(n3nc(-c4c([H])c([H])c(Oc5c([H])c([H])c(F)c([H])c5F)c([H])c4[H])c(C(=O)N([H])[H])c3N([H])[H])C2([H])[H])C([H])([H])[H])c1[H]

$$$$
7:0:0
     RDKit          3D

 94103  0  0  1  0  0  0  0  0999 V2000
  -28.6610  -23.8220   19.9680 C   0  0  0  0  0  0  0  0  0  0  0  0
  -30.0810  -23.3260   20.3910 C   0  0  0  0  0  2  0  0  0  0  0  0
  -27.8830  -21.5040   20.0930 C   0  0  0  0  0  2  0  0  0  0  0  0
  -29.3260  -21.0170   19.7480 C   0  0  0  0  0  3  0  0  0  0  0  0
  -27.6780  -22.9820   19.8930 N   0  0  0  0  0  0  0  0  0  0  0  0
  -30.2450  -21.8320   20.5710 N   0  0  0  0  0  4  0  0  0  0  0  0
  -30.0630  -21.5980   21.5310 H   0  0  0  0  0  0  0  0  0  0  0  0
  -31.1910  -21.5640   20.3630 H   0  0  0  0  0  0  0  0  0  0  0  0
  -30.3030  -17.8860   17.7270 C   0  0  0  0  0  3  0  0  0  0  0  0
  -29.9700  -19.1800   18.1300 C   0  0  0  0  0  3  0  0  0  0  0  0
  -30.3280  -16.8710   18.6850 C   0  0  0  0  0  3  0  0  0  0  0  0
  -29.6570  -19.4730   19.4760 C   0  0  0  0  0  0  0  0  0  0  0  0
  -30.0340  -17.1330   20.0410 C   0  0  0  0  0  0  0  0  0  0  0  0
  -29.6920  -18.4410   20.4150 N   0  0  0  0  0  0  0  0  0  0  0  0
  -30.7990  -14.8030   20.7690 C   0  0  0  0  0  0  0  0  0  0  0  0
  -30.6660  -12.5200   19.8070 C   0  0  0  0  0  2  0  0  0  0  0  0
  -29.8180  -12.5880   18.5170 C   0  0  0  0  0  2  0  0  0  0  0  0
  -28.3210  -12.4300   18.8390 C   0  0  0  0  0  2  0  0  0  0  0  0
  -27.8620  -13.3290   20.0180 C   0  0  0  0  0  3  0  0  0  0  0  0
  -28.8370  -13.2500   21.2160 C   0  0  0  0  0  2  0  0  0  0  0  0
  -30.1780  -13.5790   20.7190 N   0  0  0  0  0  0  0  0  0  0  0  0
  -32.0050  -14.8960   20.5180 O   0  0  0  0  0  0  0  0  0  0  0  0
  -30.0170  -15.9360   20.8980 N   0  0  0  0  0  0  0  0  0  0  0  0
  -29.1470  -15.7940   21.3870 H   0  0  0  0  0  0  0  0  0  0  0  0
  -25.4150  -13.9070   20.5360 C   0  0  0  0  0  0  0  0  0  0  0  0
  -24.3340  -13.1290   20.8460 C   0  0  0  0  0  0  0  0  0  0  0  0
  -24.8140  -11.7830   20.8930 C   0  0  0  0  0  0  0  0  0  0  0  0
  -26.4860  -13.0370   20.4100 N   0  0  0  0  0  0  0  0  0  0  0  0
  -26.1260  -11.7560   20.6870 N   0  0  0  0  0  0  0  0  0  0  0  0
  -24.0890  -10.5180   21.0670 C   0  0  0  0  0  0  0  0  0  0  0  0
  -24.4720   -9.5760   22.0470 C   0  0  0  0  0  3  0  0  0  0  0  0
  -23.7500   -8.3740   22.2040 C   0  0  0  0  0  3  0  0  0  0  0  0
  -22.6300   -8.1060   21.3830 C   0  0  0  0  0  0  0  0  0  0  0  0
  -22.2690   -9.0360   20.3910 C   0  0  0  0  0  3  0  0  0  0  0  0
  -22.9920  -10.2290   20.2330 C   0  0  0  0  0  3  0  0  0  0  0  0
  -21.8830   -6.9550   21.4470 O   0  0  0  0  0  0  0  0  0  0  0  0
  -21.7730   -6.2330   22.6110 C   0  0  0  0  0  0  0  0  0  0  0  0
  -21.2710   -6.8080   23.7980 C   0  0  0  0  0  3  0  0  0  0  0  0
  -21.1090   -6.0100   24.9500 C   0  0  0  0  0  3  0  0  0  0  0  0
  -21.4400   -4.6430   24.9150 C   0  0  0  0  0  0  0  0  0  0  0  0
  -21.9360   -4.0700   23.7310 C   0  0  0  0  0  3  0  0  0  0  0  0
  -22.0990   -4.8620   22.5820 C   0  0  0  0  0  0  0  0  0  0  0  0
  -22.5560   -4.3000   21.4370 F   0  0  0  0  0  0  0  0  0  0  0  0
  -21.2770   -3.8760   26.0190 F   0  0  0  0  0  0  0  0  0  0  0  0
  -22.9160  -13.5950   20.9990 C   0  0  0  0  0  0  0  0  0  0  0  0
  -22.1320  -12.9170   21.8290 N   0  0  0  0  0  0  0  0  0  0  0  0
  -22.5070  -14.5990   20.4140 O   0  0  0  0  0  0  0  0  0  0  0  0
  -22.4710  -12.1060   22.3250 H   0  0  0  0  0  0  0  0  0  0  0  0
  -21.1800  -13.2190   21.9790 H   0  0  0  0  0  0  0  0  0  0  0  0
  -25.5790  -15.2740   20.3340 N   0  0  0  0  0  0  0  0  0  0  0  0
  -24.7980  -15.9190   20.3560 H   0  0  0  0  0  0  0  0  0  0  0  0
  -26.4540  -15.7130   20.0740 H   0  0  0  0  0  0  0  0  0  0  0  0
  -28.5470  -25.3090   19.3730 C   0  0  0  0  0  2  0  0  0  0  0  0
  -28.3530  -26.5230   20.2080 O   0  0  0  0  0  0  0  0  0  0  0  0
  -24.5540  -31.8990   23.1720 C   0  0  0  0  0  0  0  0  0  0  0  0
  -27.2180  -27.3530   20.1130 C   0  0  0  0  0  0  0  0  0  0  0  0
  -23.3650  -30.4870   21.5300 C   0  0  0  0  0  3  0  0  0  0  0  0
  -24.8340  -28.9510   20.1020 C   0  0  0  0  0  0  0  0  0  0  0  0
  -25.9030  -30.8260   21.3530 C   0  0  0  0  0  2  0  0  0  0  0  0
  -25.9960  -29.4480   20.7040 C   0  0  0  0  0  0  0  0  0  0  0  0
  -27.1860  -28.6590   20.7040 C   0  0  0  0  0  3  0  0  0  0  0  0
  -26.0260  -26.9060   19.5010 C   0  0  0  0  0  3  0  0  0  0  0  0
  -24.8520  -27.6850   19.4920 C   0  0  0  0  0  3  0  0  0  0  0  0
  -23.5870  -29.8110   20.1510 C   0  0  0  0  0  2  0  0  0  0  0  0
  -24.6250  -31.0900   22.0740 N   0  0  0  0  0  0  0  0  0  0  0  0
  -23.4670  -32.1640   23.7070 O   0  0  0  0  0  0  0  0  0  0  0  0
  -22.7110  -29.4660   22.4930 C   0  0  0  0  0  0  0  0  0  0  0  0
  -21.3830  -29.2920   22.3810 N   0  0  0  0  0  0  0  0  0  0  0  0
  -23.3990  -28.8320   23.2990 O   0  0  0  0  0  0  0  0  0  0  0  0
  -20.8900  -29.8570   21.7040 H   0  0  0  0  0  0  0  0  0  0  0  0
  -18.0070  -28.1120   22.9230 C   0  0  0  0  0  0  0  0  0  0  0  0
  -20.5720  -28.3510   23.1550 C   0  0  0  0  0  3  0  0  0  0  0  0
  -20.6550  -26.9270   22.5600 C   0  0  0  0  0  2  0  0  0  0  0  0
  -19.5340  -26.6240   21.5610 C   0  0  0  0  0  2  0  0  0  0  0  0
  -18.1640  -26.7700   22.2280 C   0  0  0  0  0  2  0  0  0  0  0  0
  -19.1380  -28.8630   23.3430 C   0  0  0  0  0  0  0  0  0  0  0  0
  -18.9350  -30.1200   23.9520 C   0  0  0  0  0  3  0  0  0  0  0  0
  -17.6360  -30.6260   24.1470 C   0  0  0  0  0  3  0  0  0  0  0  0
  -16.5210  -29.8720   23.7430 C   0  0  0  0  0  3  0  0  0  0  0  0
  -16.7080  -28.6180   23.1350 C   0  0  0  0  0  3  0  0  0  0  0  0
  -25.8300  -32.5460   23.7950 C   0  0  0  0  0  3  0  0  0  0  0  0
  -25.5000  -33.9360   24.1410 N   0  0  0  0  0  0  0  0  0  0  0  0
  -25.8280  -35.0050   23.4010 C   0  0  0  0  0  0  0  0  0  0  0  0
  -26.5100  -34.9230   22.3760 O   0  0  0  0  0  0  0  0  0  0  0  0
  -24.8960  -34.0710   24.9370 H   0  0  0  0  0  0  0  0  0  0  0  0
  -24.0960  -36.7950   23.0440 C   0  0  0  0  0  1  0  0  0  0  0  0
  -25.3230  -36.3810   23.8750 C   0  0  0  0  0  3  0  0  0  0  0  0
  -27.4330  -37.2630   24.7680 C   0  0  0  0  0  1  0  0  0  0  0  0
  -26.3500  -37.4430   23.8040 N   0  0  0  0  0  0  0  0  0  0  0  0
  -25.9340  -38.3560   23.9620 H   0  0  0  0  0  0  0  0  0  0  0  0
  -26.3600  -31.7730   25.0650 C   0  0  1  0  0  0  0  0  0  0  0  0
  -25.2750  -31.5160   26.1360 C   0  0  0  0  0  1  0  0  0  0  0  0
  -26.9590  -30.4040   24.6630 C   0  0  0  0  0  1  0  0  0  0  0  0
  -27.5020  -32.5790   25.7290 C   0  0  0  0  0  1  0  0  0  0  0  0
  1  2  1  0
  2  6  1  0
  4 12  1  0
  4  3  1  0
  4  6  1  0
  5  1  2  0
  5  3  1  0
  6  7  1  0
  8  6  1  0
  9 10  2  0
  9 11  1  0
 10 12  1  0
 11 13  2  0
 12 14  2  0
 13 14  1  0
 13 23  1  0
 15 23  1  0
 16 21  1  0
 17 18  1  0
 17 16  1  0
 19 18  1  0
 19 28  1  0
 19 20  1  0
 21 15  1  0
 21 20  1  0
 22 15  2  0
 23 24  1  0
 25 26  2  0
 26 27  1  0
 26 45  1  0
 27 30  1  0
 28 25  1  0
 28 29  1  0
 29 27  2  0
 30 31  1  0
 31 32  2  0
 33 36  1  0
 33 32  1  0
 34 33  2  0
 35 34  1  0
 35 30  2  0
 36 37  1  0
 37 38  1  0
 38 39  2  0
 40 39  1  0
 40 44  1  0
 41 40  2  0
 42 37  2  0
 42 41  1  0
 43 42  1  0
 45 46  1  0
 46 49  1  0
 46 48  1  0
 47 45  2  0
 50 51  1  0
 50 25  1  0
 52 50  1  0
 53  1  1  0
 53 54  1  0
 55 66  2  0
 56 54  1  0
 56 61  1  0
 57 65  1  0
 57 67  1  0
 58 64  1  0
 58 60  1  0
 59 65  1  0
 60 59  1  0
 61 60  2  0
 62 56  2  0
 63 62  1  0
 63 58  2  0
 64 57  1  0
 65 55  1  0
 67 69  2  0
 68 67  1  0
 70 68  1  0
 71 80  2  0
 71 76  1  0
 72 68  1  0
 72 76  1  0
 73 72  1  0
 74 75  1  0
 74 73  1  0
 75 71  1  0
 76 77  2  0
 77 78  1  0
 79 78  2  0
 80 79  1  0
 81 55  1  0
 81 82  1  0
 81 91  1  0
 82 85  1  0
 83 87  1  0
 83 82  1  0
 84 83  2  0
 87 86  1  0
 89 87  1  0
 89 90  1  0
 89 88  1  0
 91 94  1  1
 91 92  1  0
 93 91  1  0
M  ISO  4  15 100  23 100  53 101  54 101
M  END
>  <TORSDO>  (8) 
F 18

>  <SCORE>  (8) 
-14.426

>  <name>  (8) 
7

>  <ligand_id>  (8) 
7

>  <original_smiles>  (8) 
[H]c1c(N([H])C(=O)N2C([H])([H])C([H])([H])C([H])([H])C([H])(n3nc(-c4c([H])c([H])c(Oc5c([H])c([H])c(F)c([H])c5F)c([H])c4[H])c(C(=O)N([H])[H])c3N([H])[H])C2([H])[H])nc(C2([H])C([H])([H])N=C(C([H])([H])Oc3c([H])c([H])c4c(c3[H])C([H])([H])N(C(=O)C([H])(N([H])C(=O)C([H])(N([H])C([H])([H])[H])C([H])([H])[H])C(C([H])([H])[H])(C([H])([H])[H])C([H])([H])[H])C([H])(C(=O)N([H])C3([H])c5c([H])c([H])c([H])c([H])c5C([H])([H])C([H])([H])C3([H])[H])C4([H])[H])C([H])([H])[N+]2([H])[H])c([H])c1[H]

>  <smiles>  (8) 
[H]c1c(N([H])C(=O)N2C([H])([H])C([H])([H])C([H])([H])C([H])(n3nc(-c4c([H])c([H])c(Oc5c([H])c([H])c(F)c([H])c5F)c([H])c4[H])c(C(=O)N([H])[H])c3N([H])[H])C2([H])[H])nc(C2([H])C([H])([H])N=C(C([H])([H])Oc3c([H])c([H])c4c(c3[H])C([H])([H])N(C(=O)C([H])(N([H])C(=O)C([H])(N([H])C([H])([H])[H])C([H])([H])[H])C(C([H])([H])[H])(C([H])([H])[H])C([H])([H])[H])C([H])(C(=O)N([H])C3([H])c5c([H])c([H])c([H])c([H])c5C([H])([H])C([H])([H])C3([H])[H])C4([H])[H])C([H])([H])[N+]2([H])[H])c([H])c1[H]

$$$$
8:0:0
     RDKit          3D

 95103  0  0  1  0  0  0  0  0999 V2000
  -29.9890  -21.3450   20.8840 C   0  0  0  0  0  0  0  0  0  0  0  0
  -31.1480  -22.6810   22.5730 C   0  0  0  0  0  1  0  0  0  0  0  0
  -30.8650  -21.4800   21.8180 N   0  0  0  0  0  0  0  0  0  0  0  0
  -29.6650  -19.2850   19.2360 C   0  0  0  0  0  3  0  0  0  0  0  0
  -29.7180  -17.8270   19.2040 C   0  0  0  0  0  0  0  0  0  0  0  0
  -29.8340  -19.8780   20.4710 C   0  0  0  0  0  0  0  0  0  0  0  0
  -29.9610  -17.2320   20.4340 C   0  0  0  0  0  0  0  0  0  0  0  0
  -30.0750  -18.5430   21.6330 S   0  0  0  0  0  0  0  0  0  0  0  0
  -30.7230  -14.8170   20.3550 C   0  0  0  0  0  0  0  0  0  0  0  0
  -30.5440  -12.5800   19.2710 C   0  0  0  0  0  2  0  0  0  0  0  0
  -29.6010  -12.7260   18.0540 C   0  0  0  0  0  2  0  0  0  0  0  0
  -28.1240  -12.5470   18.4680 C   0  0  0  0  0  2  0  0  0  0  0  0
  -27.7570  -13.3690   19.7300 C   0  0  0  0  0  3  0  0  0  0  0  0
  -28.8180  -13.2070   20.8440 C   0  0  0  0  0  2  0  0  0  0  0  0
  -30.1240  -13.5790   20.2780 N   0  0  0  0  0  0  0  0  0  0  0  0
  -31.8780  -14.9820   19.9510 O   0  0  0  0  0  0  0  0  0  0  0  0
  -29.9410  -15.8730   20.7690 N   0  0  0  0  0  0  0  0  0  0  0  0
  -29.0960  -15.5760   21.2340 H   0  0  0  0  0  0  0  0  0  0  0  0
  -25.3490  -13.9290   20.4380 C   0  0  0  0  0  0  0  0  0  0  0  0
  -24.2930  -13.1390   20.8020 C   0  0  0  0  0  0  0  0  0  0  0  0
  -24.7750  -11.7950   20.7730 C   0  0  0  0  0  0  0  0  0  0  0  0
  -26.4100  -13.0650   20.2090 N   0  0  0  0  0  0  0  0  0  0  0  0
  -26.0700  -11.7760   20.4700 N   0  0  0  0  0  0  0  0  0  0  0  0
  -24.0650  -10.5230   20.9590 C   0  0  0  0  0  0  0  0  0  0  0  0
  -24.4690   -9.5870   21.9350 C   0  0  0  0  0  3  0  0  0  0  0  0
  -23.7600   -8.3790   22.1090 C   0  0  0  0  0  3  0  0  0  0  0  0
  -22.6290   -8.1000   21.3030 C   0  0  0  0  0  0  0  0  0  0  0  0
  -22.2420   -9.0260   20.3200 C   0  0  0  0  0  3  0  0  0  0  0  0
  -22.9530  -10.2260   20.1440 C   0  0  0  0  0  3  0  0  0  0  0  0
  -21.8900   -6.9450   21.3840 O   0  0  0  0  0  0  0  0  0  0  0  0
  -21.7500   -6.2600   22.5660 C   0  0  0  0  0  0  0  0  0  0  0  0
  -21.1680   -6.8540   23.7080 C   0  0  0  0  0  3  0  0  0  0  0  0
  -20.9850   -6.0950   24.8800 C   0  0  0  0  0  3  0  0  0  0  0  0
  -21.3670   -4.7400   24.9090 C   0  0  0  0  0  0  0  0  0  0  0  0
  -21.9400   -4.1450   23.7710 C   0  0  0  0  0  3  0  0  0  0  0  0
  -22.1290   -4.9030   22.6030 C   0  0  0  0  0  0  0  0  0  0  0  0
  -22.6600   -4.3190   21.5020 F   0  0  0  0  0  0  0  0  0  0  0  0
  -21.1830   -4.0080   26.0330 F   0  0  0  0  0  0  0  0  0  0  0  0
  -22.8870  -13.5980   21.0640 C   0  0  0  0  0  0  0  0  0  0  0  0
  -22.1560  -12.8930   21.9220 N   0  0  0  0  0  0  0  0  0  0  0  0
  -22.4420  -14.6210   20.5440 O   0  0  0  0  0  0  0  0  0  0  0  0
  -22.5230  -12.0680   22.3720 H   0  0  0  0  0  0  0  0  0  0  0  0
  -21.2120  -13.1880   22.1350 H   0  0  0  0  0  0  0  0  0  0  0  0
  -25.4860  -15.3030   20.2600 N   0  0  0  0  0  0  0  0  0  0  0  0
  -24.6890  -15.9220   20.3590 H   0  0  0  0  0  0  0  0  0  0  0  0
  -26.3140  -15.7760   19.9220 H   0  0  0  0  0  0  0  0  0  0  0  0
  -29.4490  -17.8050   16.6390 C   0  0  0  0  0  1  0  0  0  0  0  0
  -29.5040  -17.0050   17.9540 C   0  0  0  0  0  2  0  0  0  0  0  0
  -29.1160  -22.5000   20.1750 C   0  0  0  0  0  0  0  0  0  0  0  0
  -28.1970  -22.0830   19.4050 N   0  0  0  0  0  0  0  0  0  0  0  0
  -28.1820  -21.0700   19.3950 H   0  0  0  0  0  0  0  0  0  0  0  0
  -29.2940  -24.0900   20.3220 C   0  0  0  0  0  0  0  0  0  0  0  0
  -30.3790  -24.6240   20.5710 O   0  0  0  0  0  0  0  0  0  0  0  0
  -28.0920  -25.0710   20.0080 C   0  0  0  0  0  2  0  0  0  0  0  0
  -28.3250  -26.5350   20.2170 O   0  0  0  0  0  0  0  0  0  0  0  0
  -24.6090  -31.9620   23.2600 C   0  0  0  0  0  0  0  0  0  0  0  0
  -27.2080  -27.3940   20.1790 C   0  0  0  0  0  0  0  0  0  0  0  0
  -23.3990  -30.5660   21.6230 C   0  0  0  0  0  3  0  0  0  0  0  0
  -24.8440  -29.0200   20.1890 C   0  0  0  0  0  0  0  0  0  0  0  0
  -25.9400  -30.8810   21.4330 C   0  0  0  0  0  2  0  0  0  0  0  0
  -26.0190  -29.5020   20.7800 C   0  0  0  0  0  0  0  0  0  0  0  0
  -27.2020  -28.7010   20.7680 C   0  0  0  0  0  3  0  0  0  0  0  0
  -26.0040  -26.9690   19.5680 C   0  0  0  0  0  3  0  0  0  0  0  0
  -24.8390  -27.7590   19.5760 C   0  0  0  0  0  3  0  0  0  0  0  0
  -23.6090  -29.8960   20.2410 C   0  0  0  0  0  2  0  0  0  0  0  0
  -24.6680  -31.1540   22.1610 N   0  0  0  0  0  0  0  0  0  0  0  0
  -23.5270  -32.2360   23.8000 O   0  0  0  0  0  0  0  0  0  0  0  0
  -22.7410  -29.5450   22.5830 C   0  0  0  0  0  0  0  0  0  0  0  0
  -21.4180  -29.3500   22.4490 N   0  0  0  0  0  0  0  0  0  0  0  0
  -23.4220  -28.9360   23.4120 O   0  0  0  0  0  0  0  0  0  0  0  0
  -20.9250  -29.9000   21.7590 H   0  0  0  0  0  0  0  0  0  0  0  0
  -18.0510  -28.1210   22.9410 C   0  0  0  0  0  0  0  0  0  0  0  0
  -20.6060  -28.4080   23.2210 C   0  0  0  0  0  3  0  0  0  0  0  0
  -20.7220  -26.9730   22.6550 C   0  0  0  0  0  2  0  0  0  0  0  0
  -19.6290  -26.6340   21.6380 C   0  0  0  0  0  2  0  0  0  0  0  0
  -18.2430  -26.7710   22.2730 C   0  0  0  0  0  2  0  0  0  0  0  0
  -19.1590  -28.8970   23.3740 C   0  0  0  0  0  0  0  0  0  0  0  0
  -18.9250  -30.1590   23.9600 C   0  0  0  0  0  3  0  0  0  0  0  0
  -17.6140  -30.6480   24.1150 C   0  0  0  0  0  3  0  0  0  0  0  0
  -16.5190  -29.8690   23.7020 C   0  0  0  0  0  3  0  0  0  0  0  0
  -16.7380  -28.6090   23.1190 C   0  0  0  0  0  3  0  0  0  0  0  0
  -25.8930  -32.5970   23.8770 C   0  0  0  0  0  3  0  0  0  0  0  0
  -25.5840  -33.9960   24.2070 N   0  0  0  0  0  0  0  0  0  0  0  0
  -25.9050  -35.0470   23.4420 C   0  0  0  0  0  0  0  0  0  0  0  0
  -26.5610  -34.9430   22.4020 O   0  0  0  0  0  0  0  0  0  0  0  0
  -25.0010  -34.1500   25.0160 H   0  0  0  0  0  0  0  0  0  0  0  0
  -24.1670  -36.8350   23.1130 C   0  0  0  0  0  1  0  0  0  0  0  0
  -25.4220  -36.4370   23.9040 C   0  0  0  0  0  3  0  0  0  0  0  0
  -27.5640  -37.3350   24.7040 C   0  0  0  0  0  1  0  0  0  0  0  0
  -26.4510  -37.4920   23.7710 N   0  0  0  0  0  0  0  0  0  0  0  0
  -26.0430  -38.4110   23.9170 H   0  0  0  0  0  0  0  0  0  0  0  0
  -26.4140  -31.8300   25.1540 C   0  0  1  0  0  0  0  0  0  0  0  0
  -25.3150  -31.5670   26.2100 C   0  0  0  0  0  1  0  0  0  0  0  0
  -27.0250  -30.4660   24.7610 C   0  0  0  0  0  1  0  0  0  0  0  0
  -27.5450  -32.6400   25.8290 C   0  0  0  0  0  1  0  0  0  0  0  0
  1  3  2  0
  3  2  1  0
  4  6  2  0
  5  4  1  0
  5  7  2  0
  6  1  1  0
  6  8  1  0
  7 17  1  0
  7  8  1  0
  9 17  1  0
 10 15  1  0
 11 12  1  0
 11 10  1  0
 13 12  1  0
 13 22  1  0
 13 14  1  0
 15  9  1  0
 15 14  1  0
 16  9  2  0
 17 18  1  0
 19 20  2  0
 20 39  1  0
 21 20  1  0
 21 24  1  0
 22 19  1  0
 22 23  1  0
 23 21  2  0
 24 25  1  0
 25 26  2  0
 27 30  1  0
 27 26  1  0
 28 27  2  0
 29 28  1  0
 29 24  2  0
 30 31  1  0
 31 36  2  0
 31 32  1  0
 32 33  2  0
 33 34  1  0
 34 38  1  0
 35 34  2  0
 36 35  1  0
 37 36  1  0
 39 40  1  0
 40 43  1  0
 40 42  1  0
 41 39  2  0
 44 45  1  0
 44 19  1  0
 46 44  1  0
 47 48  1  0
 48  5  1  0
 49 52  1  0
 49  1  1  0
 50 49  2  0
 51 50  1  0
 52 53  2  0
 54 55  1  0
 54 52  1  0
 56 67  2  0
 57 55  1  0
 57 62  1  0
 58 66  1  0
 58 68  1  0
 59 65  1  0
 59 61  1  0
 60 66  1  0
 61 60  1  0
 62 61  2  0
 63 64  1  0
 63 57  2  0
 64 59  2  0
 65 58  1  0
 66 56  1  0
 68 70  2  0
 69 68  1  0
 71 69  1  0
 72 81  2  0
 72 77  1  0
 73 69  1  0
 73 77  1  0
 74 73  1  0
 75 76  1  0
 75 74  1  0
 76 72  1  0
 77 78  2  0
 78 79  1  0
 80 79  2  0
 81 80  1  0
 82 56  1  0
 82 83  1  0
 82 92  1  0
 83 86  1  0
 84 88  1  0
 84 83  1  0
 85 84  2  0
 88 87  1  0
 90 88  1  0
 90 91  1  0
 90 89  1  0
 92 95  1  1
 92 93  1  0
 94 92  1  0
M  ISO  4   9 100  17 100  54 101  55 101
M  END
>  <TORSDO>  (9) 
F 21

>  <SCORE>  (9) 
-11.806

>  <name>  (9) 
8

>  <ligand_id>  (9) 
8

>  <original_smiles>  (9) 
[H]N=C(C(=O)C([H])([H])Oc1c([H])c([H])c2c(c1[H])C([H])([H])N(C(=O)C([H])(N([H])C(=O)C([H])(N([H])C([H])([H])[H])C([H])([H])[H])C(C([H])([H])[H])(C([H])([H])[H])C([H])([H])[H])C([H])(C(=O)N([H])C1([H])c3c([H])c([H])c([H])c([H])c3C([H])([H])C([H])([H])C1([H])[H])C2([H])[H])C(=NC([H])([H])[H])c1sc(N([H])C(=O)N2C([H])([H])C([H])([H])C([H])([H])C([H])(n3nc(-c4c([H])c([H])c(Oc5c([H])c([H])c(F)c([H])c5F)c([H])c4[H])c(C(=O)N([H])[H])c3N([H])[H])C2([H])[H])c(C([H])([H])C([H])([H])[H])c1[H]

>  <smiles>  (9) 
[H]N=C(C(=O)C([H])([H])Oc1c([H])c([H])c2c(c1[H])C([H])([H])N(C(=O)C([H])(N([H])C(=O)C([H])(N([H])C([H])([H])[H])C([H])([H])[H])C(C([H])([H])[H])(C([H])([H])[H])C([H])([H])[H])C([H])(C(=O)N([H])C1([H])c3c([H])c([H])c([H])c([H])c3C([H])([H])C([H])([H])C1([H])[H])C2([H])[H])C(=NC([H])([H])[H])c1sc(N([H])C(=O)N2C([H])([H])C([H])([H])C([H])([H])C([H])(n3nc(-c4c([H])c([H])c(Oc5c([H])c([H])c(F)c([H])c5F)c([H])c4[H])c(C(=O)N([H])[H])c3N([H])[H])C2([H])[H])c(C([H])([H])C([H])([H])[H])c1[H]

$$$$
9:0:0
     RDKit          3D

 96104  0  0  1  0  0  0  0  0999 V2000
  -28.6590  -20.2870   20.1380 C   0  0  0  0  0  3  0  0  0  0  0  0
  -28.8010  -18.8500   20.0430 C   0  0  0  0  0  0  0  0  0  0  0  0
  -29.9340  -18.3510   20.6730 C   0  0  0  0  0  0  0  0  0  0  0  0
  -29.6780  -20.9310   20.7860 C   0  0  0  0  0  0  0  0  0  0  0  0
  -30.8270  -19.7270   21.3480 S   0  0  0  0  0  0  0  0  0  0  0  0
  -30.7080  -14.6130   20.2980 C   0  0  0  0  0  0  0  0  0  0  0  0
  -30.3470  -12.4090   19.2210 C   0  0  0  0  0  2  0  0  0  0  0  0
  -29.3940  -12.5500   18.0160 C   0  0  0  0  0  2  0  0  0  0  0  0
  -27.9300  -12.4080   18.4720 C   0  0  0  0  0  2  0  0  0  0  0  0
  -27.6000  -13.2700   19.7200 C   0  0  0  0  0  3  0  0  0  0  0  0
  -28.6830  -13.1530   20.8150 C   0  0  0  0  0  2  0  0  0  0  0  0
  -29.9760  -13.4590   20.1920 N   0  0  0  0  0  0  0  0  0  0  0  0
  -31.8820  -14.6120   19.9190 O   0  0  0  0  0  0  0  0  0  0  0  0
  -30.6590  -17.0100   20.7920 C   0  0  0  0  0  0  0  0  0  0  0  0
  -30.0580  -15.7890   20.5870 N   0  0  0  0  0  0  0  0  0  0  0  0
  -31.8490  -17.0730   21.1210 O   0  0  0  0  0  0  0  0  0  0  0  0
  -29.0520  -15.7770   20.5580 H   0  0  0  0  0  0  0  0  0  0  0  0
  -25.2220  -13.8530   20.4830 C   0  0  0  0  0  0  0  0  0  0  0  0
  -24.1650  -13.0720   20.8640 C   0  0  0  0  0  0  0  0  0  0  0  0
  -24.6340  -11.7230   20.8300 C   0  0  0  0  0  0  0  0  0  0  0  0
  -26.2670  -12.9810   20.2350 N   0  0  0  0  0  0  0  0  0  0  0  0
  -25.9200  -11.6930   20.5040 N   0  0  0  0  0  0  0  0  0  0  0  0
  -23.9140  -10.4580   21.0240 C   0  0  0  0  0  0  0  0  0  0  0  0
  -24.3610   -9.4910   21.9520 C   0  0  0  0  0  3  0  0  0  0  0  0
  -23.6390   -8.2930   22.1370 C   0  0  0  0  0  3  0  0  0  0  0  0
  -22.4580   -8.0530   21.3940 C   0  0  0  0  0  0  0  0  0  0  0  0
  -22.0300   -9.0100   20.4550 C   0  0  0  0  0  3  0  0  0  0  0  0
  -22.7530  -10.2010   20.2700 C   0  0  0  0  0  3  0  0  0  0  0  0
  -21.7090   -6.9050   21.4880 O   0  0  0  0  0  0  0  0  0  0  0  0
  -21.6770   -6.1600   22.6410 C   0  0  0  0  0  0  0  0  0  0  0  0
  -21.2530   -6.7080   23.8710 C   0  0  0  0  0  3  0  0  0  0  0  0
  -21.1670   -5.8910   25.0140 C   0  0  0  0  0  3  0  0  0  0  0  0
  -21.4920   -4.5230   24.9290 C   0  0  0  0  0  0  0  0  0  0  0  0
  -21.9140   -3.9750   23.7050 C   0  0  0  0  0  3  0  0  0  0  0  0
  -21.9980   -4.7890   22.5630 C   0  0  0  0  0  0  0  0  0  0  0  0
  -22.3810   -4.2510   21.3790 F   0  0  0  0  0  0  0  0  0  0  0  0
  -21.4050   -3.7340   26.0250 F   0  0  0  0  0  0  0  0  0  0  0  0
  -22.7700  -13.5460   21.1540 C   0  0  0  0  0  0  0  0  0  0  0  0
  -22.0560  -12.8480   22.0300 N   0  0  0  0  0  0  0  0  0  0  0  0
  -22.3210  -14.5680   20.6380 O   0  0  0  0  0  0  0  0  0  0  0  0
  -22.4320  -12.0170   22.4650 H   0  0  0  0  0  0  0  0  0  0  0  0
  -21.1220  -13.1480   22.2700 H   0  0  0  0  0  0  0  0  0  0  0  0
  -25.3730  -15.2250   20.3040 N   0  0  0  0  0  0  0  0  0  0  0  0
  -24.5990  -15.8680   20.4230 H   0  0  0  0  0  0  0  0  0  0  0  0
  -26.2020  -15.6640   19.9280 H   0  0  0  0  0  0  0  0  0  0  0  0
  -27.7840  -18.0730   19.2590 C   0  0  1  0  0  0  0  0  0  0  0  0
  -26.5590  -18.5490   19.4660 F   0  0  0  0  0  0  0  0  0  0  0  0
  -28.0280  -18.1620   17.9530 F   0  0  0  0  0  0  0  0  0  0  0  0
  -27.7530  -16.7840   19.5820 F   0  0  0  0  0  0  0  0  0  0  0  0
  -29.9110  -22.3070   21.0380 N   0  0  0  0  0  0  0  0  0  0  0  0
  -30.7610  -22.5890   21.5230 H   0  0  0  0  0  0  0  0  0  0  0  0
  -29.0930  -23.4460   20.5230 C   0  0  0  0  0  2  0  0  0  0  0  0
  -28.7090  -24.4990   21.6080 C   0  0  0  0  0  0  0  0  0  0  0  0
  -28.3310  -24.0830   22.7100 O   0  0  0  0  0  0  0  0  0  0  0  0
  -28.8290  -26.0500   21.4020 C   0  0  0  0  0  2  0  0  0  0  0  0
  -28.4020  -26.5700   20.1220 O   0  0  0  0  0  0  0  0  0  0  0  0
  -24.6280  -31.8620   23.2030 C   0  0  0  0  0  0  0  0  0  0  0  0
  -27.2850  -27.3890   20.1450 C   0  0  0  0  0  0  0  0  0  0  0  0
  -23.4340  -30.4570   21.5540 C   0  0  0  0  0  3  0  0  0  0  0  0
  -24.9020  -28.9280   20.1240 C   0  0  0  0  0  0  0  0  0  0  0  0
  -25.9640  -30.8160   21.3710 C   0  0  0  0  0  2  0  0  0  0  0  0
  -26.0580  -29.4400   20.7310 C   0  0  0  0  0  0  0  0  0  0  0  0
  -27.2530  -28.6740   20.7470 C   0  0  0  0  0  3  0  0  0  0  0  0
  -26.1230  -26.9120   19.5130 C   0  0  0  0  0  3  0  0  0  0  0  0
  -24.9310  -27.6650   19.5070 C   0  0  0  0  0  3  0  0  0  0  0  0
  -23.6540  -29.7830   20.1720 C   0  0  0  0  0  2  0  0  0  0  0  0
  -24.6940  -31.0630   22.1010 N   0  0  0  0  0  0  0  0  0  0  0  0
  -23.5440  -32.1310   23.7360 O   0  0  0  0  0  0  0  0  0  0  0  0
  -22.7800  -29.4350   22.5120 C   0  0  0  0  0  0  0  0  0  0  0  0
  -21.4510  -29.2700   22.3950 N   0  0  0  0  0  0  0  0  0  0  0  0
  -23.4620  -28.7950   23.3180 O   0  0  0  0  0  0  0  0  0  0  0  0
  -20.9630  -29.8310   21.7120 H   0  0  0  0  0  0  0  0  0  0  0  0
  -18.0740  -28.0990   22.9220 C   0  0  0  0  0  0  0  0  0  0  0  0
  -20.6340  -28.3290   23.1630 C   0  0  0  0  0  3  0  0  0  0  0  0
  -20.7150  -26.9040   22.5620 C   0  0  0  0  0  2  0  0  0  0  0  0
  -19.5970  -26.6100   21.5550 C   0  0  0  0  0  2  0  0  0  0  0  0
  -18.2280  -26.7560   22.2240 C   0  0  0  0  0  2  0  0  0  0  0  0
  -19.2030  -28.8460   23.3470 C   0  0  0  0  0  0  0  0  0  0  0  0
  -19.0040  -30.1040   23.9540 C   0  0  0  0  0  3  0  0  0  0  0  0
  -17.7060  -30.6140   24.1460 C   0  0  0  0  0  3  0  0  0  0  0  0
  -16.5900  -29.8610   23.7360 C   0  0  0  0  0  3  0  0  0  0  0  0
  -16.7760  -28.6050   23.1290 C   0  0  0  0  0  3  0  0  0  0  0  0
  -25.9080  -32.4980   23.8290 C   0  0  0  0  0  3  0  0  0  0  0  0
  -25.5890  -33.8900   24.1720 N   0  0  0  0  0  0  0  0  0  0  0  0
  -25.9090  -34.9510   23.4190 C   0  0  0  0  0  0  0  0  0  0  0  0
  -26.5730  -34.8610   22.3820 O   0  0  0  0  0  0  0  0  0  0  0  0
  -25.0000  -34.0360   24.9780 H   0  0  0  0  0  0  0  0  0  0  0  0
  -24.1620  -36.7300   23.0950 C   0  0  0  0  0  1  0  0  0  0  0  0
  -25.4150  -36.3320   23.8910 C   0  0  0  0  0  3  0  0  0  0  0  0
  -27.5470  -37.2290   24.7120 C   0  0  0  0  0  1  0  0  0  0  0  0
  -26.4380  -37.3940   23.7770 N   0  0  0  0  0  0  0  0  0  0  0  0
  -26.0250  -38.3110   23.9340 H   0  0  0  0  0  0  0  0  0  0  0  0
  -26.4370  -31.7170   25.0940 C   0  0  1  0  0  0  0  0  0  0  0  0
  -25.3500  -31.4590   26.1640 C   0  0  0  0  0  1  0  0  0  0  0  0
  -27.0280  -30.3480   24.6830 C   0  0  0  0  0  1  0  0  0  0  0  0
  -27.5840  -32.5150   25.7590 C   0  0  0  0  0  1  0  0  0  0  0  0
  1  4  2  0
  2  1  1  0
  2  3  2  0
  3 14  1  0
  3  5  1  0
  4 50  1  0
  4  5  1  0
  6 15  1  0
  7 12  1  0
  8  9  1  0
  8  7  1  0
 10  9  1  0
 10 21  1  0
 10 11  1  0
 12  6  1  0
 12 11  1  0
 13  6  2  0
 14 16  2  0
 15 14  1  0
 17 15  1  0
 18 19  2  0
 19 38  1  0
 20 19  1  0
 20 23  1  0
 21 18  1  0
 21 22  1  0
 22 20  2  0
 23 24  1  0
 24 25  2  0
 26 29  1  0
 26 25  1  0
 27 26  2  0
 28 27  1  0
 28 23  2  0
 29 30  1  0
 30 31  1  0
 31 32  2  0
 33 32  1  0
 33 37  1  0
 34 33  2  0
 35 30  2  0
 35 34  1  0
 36 35  1  0
 38 39  1  0
 39 42  1  0
 39 41  1  0
 40 38  2  0
 43 44  1  0
 43 18  1  0
 45 43  1  0
 46 47  1  6
 46 49  1  0
 46  2  1  0
 48 46  1  0
 50 51  1  0
 52 50  1  0
 52 53  1  0
 53 54  2  0
 55 53  1  0
 56 58  1  0
 56 55  1  0
 57 68  2  0
 58 63  1  0
 59 67  1  0
 59 69  1  0
 60 66  1  0
 60 62  1  0
 61 67  1  0
 62 63  2  0
 62 61  1  0
 64 58  2  0
 65 64  1  0
 65 60  2  0
 66 59  1  0
 67 57  1  0
 69 71  2  0
 70 69  1  0
 72 70  1  0
 73 82  2  0
 73 78  1  0
 74 70  1  0
 74 78  1  0
 75 74  1  0
 76 77  1  0
 76 75  1  0
 77 73  1  0
 78 79  2  0
 79 80  1  0
 81 80  2  0
 82 81  1  0
 83 57  1  0
 83 84  1  0
 83 93  1  0
 84 87  1  0
 85 89  1  0
 85 84  1  0
 86 85  2  0
 89 88  1  0
 91 89  1  0
 91 92  1  0
 91 90  1  0
 93 96  1  1
 93 94  1  0
 95 93  1  0
M  ISO  4   6 100  15 100  55 101  56 101
M  END
>  <TORSDO>  (10) 
F 21

>  <SCORE>  (10) 
-14.097

>  <name>  (10) 
9

>  <ligand_id>  (10) 
9

>  <original_smiles>  (10) 
[H]c1c([H])c([H])c2c(c1[H])C([H])([H])C([H])([H])C([H])([H])C2([H])N([H])C(=O)C1([H])N(C(=O)C([H])(N([H])C(=O)C([H])(N([H])C([H])([H])[H])C([H])([H])[H])C(C([H])([H])[H])(C([H])([H])[H])C([H])([H])[H])C([H])([H])c2c([H])c(OC([H])([H])C(=O)C([H])([H])N([H])c3sc(C(=O)N([H])C(=O)N4C([H])([H])C([H])([H])C([H])([H])C([H])(n5nc(-c6c([H])c([H])c(Oc7c([H])c([H])c(F)c([H])c7F)c([H])c6[H])c(C(=O)N([H])[H])c5N([H])[H])C4([H])[H])c(C(F)(F)F)c3[H])c([H])c([H])c2C1([H])[H]

>  <smiles>  (10) 
[H]c1c([H])c([H])c2c(c1[H])C([H])([H])C([H])([H])C([H])([H])C2([H])N([H])C(=O)C1([H])N(C(=O)C([H])(N([H])C(=O)C([H])(N([H])C([H])([H])[H])C([H])([H])[H])C(C([H])([H])[H])(C([H])([H])[H])C([H])([H])[H])C([H])([H])c2c([H])c(OC([H])([H])C(=O)C([H])([H])N([H])c3sc(C(=O)N([H])C(=O)N4C([H])([H])C([H])([H])C([H])([H])C([H])(n5nc(-c6c([H])c([H])c(Oc7c([H])c([H])c(F)c([H])c7F)c([H])c6[H])c(C(=O)N([H])[H])c5N([H])[H])C4([H])[H])c(C(F)(F)F)c3[H])c([H])c([H])c2C1([H])[H]

$$$$
10:0:0
     RDKit          3D

 95103  0  0  1  0  0  0  0  0999 V2000
  -29.1220  -20.6310   20.7840 C   0  0  0  0  0  0  0  0  0  0  0  0
  -29.3820  -21.9100   20.4320 N   0  0  0  0  0  0  0  0  0  0  0  0
  -27.9210  -20.3450   21.2840 N   0  0  0  0  0  4  0  0  0  0  0  0
  -30.2680  -22.1130   19.9830 H   0  0  0  0  0  0  0  0  0  0  0  0
  -27.7490  -19.4140   21.6350 H   0  0  0  0  0  0  0  0  0  0  0  0
  -27.1800  -21.0200   21.3460 H   0  0  0  0  0  0  0  0  0  0  0  0
  -32.4730  -18.8630   20.7460 C   0  0  0  0  0  3  0  0  0  0  0  0
  -31.4980  -19.8780   20.7520 C   0  0  0  0  0  3  0  0  0  0  0  0
  -32.0940  -17.5090   20.6750 C   0  0  0  0  0  3  0  0  0  0  0  0
  -29.7520  -18.1780   20.6000 C   0  0  0  0  0  3  0  0  0  0  0  0
  -30.1270  -19.5500   20.6860 C   0  0  0  0  0  0  0  0  0  0  0  0
  -30.7270  -17.1410   20.5860 C   0  0  0  0  0  0  0  0  0  0  0  0
  -30.9760  -14.7100   20.0020 C   0  0  0  0  0  0  0  0  0  0  0  0
  -30.6300  -12.4990   18.9580 C   0  0  0  0  0  2  0  0  0  0  0  0
  -29.6300  -12.6390   17.7920 C   0  0  0  0  0  2  0  0  0  0  0  0
  -28.1830  -12.5000   18.3010 C   0  0  0  0  0  2  0  0  0  0  0  0
  -27.8960  -13.3910   19.5400 C   0  0  0  0  0  3  0  0  0  0  0  0
  -29.0070  -13.2440   20.6050 C   0  0  0  0  0  2  0  0  0  0  0  0
  -30.2970  -13.5310   19.9560 N   0  0  0  0  0  0  0  0  0  0  0  0
  -32.0750  -14.8490   19.4540 O   0  0  0  0  0  0  0  0  0  0  0  0
  -30.3130  -15.7630   20.5340 N   0  0  0  0  0  0  0  0  0  0  0  0
  -29.3740  -15.5610   20.8420 H   0  0  0  0  0  0  0  0  0  0  0  0
  -25.5620  -14.0120   20.4280 C   0  0  0  0  0  0  0  0  0  0  0  0
  -24.5050  -13.2450   20.8390 C   0  0  0  0  0  0  0  0  0  0  0  0
  -24.9350  -11.8870   20.7280 C   0  0  0  0  0  0  0  0  0  0  0  0
  -26.5720  -13.1210   20.0970 N   0  0  0  0  0  0  0  0  0  0  0  0
  -26.2020  -11.8360   20.3350 N   0  0  0  0  0  0  0  0  0  0  0  0
  -24.1970  -10.6320   20.9180 C   0  0  0  0  0  0  0  0  0  0  0  0
  -24.5940   -9.6800   21.8830 C   0  0  0  0  0  3  0  0  0  0  0  0
  -23.8580   -8.4890   22.0590 C   0  0  0  0  0  3  0  0  0  0  0  0
  -22.7090   -8.2420   21.2710 C   0  0  0  0  0  0  0  0  0  0  0  0
  -22.3310   -9.1820   20.2960 C   0  0  0  0  0  3  0  0  0  0  0  0
  -23.0680  -10.3650   20.1180 C   0  0  0  0  0  3  0  0  0  0  0  0
  -21.9470   -7.1020   21.3550 O   0  0  0  0  0  0  0  0  0  0  0  0
  -21.7760   -6.4360   22.5420 C   0  0  0  0  0  0  0  0  0  0  0  0
  -21.1540   -7.0440   23.6540 C   0  0  0  0  0  3  0  0  0  0  0  0
  -20.9370   -6.3010   24.8330 C   0  0  0  0  0  3  0  0  0  0  0  0
  -21.3300   -4.9520   24.8980 C   0  0  0  0  0  0  0  0  0  0  0  0
  -21.9450   -4.3430   23.7890 C   0  0  0  0  0  3  0  0  0  0  0  0
  -22.1640   -5.0820   22.6140 C   0  0  0  0  0  0  0  0  0  0  0  0
  -22.7380   -4.4860   21.5410 F   0  0  0  0  0  0  0  0  0  0  0  0
  -21.1150   -4.2350   26.0260 F   0  0  0  0  0  0  0  0  0  0  0  0
  -23.1380  -13.7370   21.2190 C   0  0  0  0  0  0  0  0  0  0  0  0
  -22.4470  -13.0130   22.0920 N   0  0  0  0  0  0  0  0  0  0  0  0
  -22.6950  -14.7960   20.7780 O   0  0  0  0  0  0  0  0  0  0  0  0
  -22.8200  -12.1550   22.4700 H   0  0  0  0  0  0  0  0  0  0  0  0
  -21.5320  -13.3220   22.3880 H   0  0  0  0  0  0  0  0  0  0  0  0
  -25.7430  -15.3850   20.2870 N   0  0  0  0  0  0  0  0  0  0  0  0
  -24.9900  -16.0440   20.4540 H   0  0  0  0  0  0  0  0  0  0  0  0
  -26.5620  -15.8150   19.8790 H   0  0  0  0  0  0  0  0  0  0  0  0
  -28.4970  -23.0960   20.6300 C   0  0  0  0  0  2  0  0  0  0  0  0
  -29.1160  -24.4650   20.2650 C   0  0  0  0  0  0  0  0  0  0  0  0
  -30.1110  -24.5390   19.5340 O   0  0  0  0  0  0  0  0  0  0  0  0
  -28.4450  -25.7130   20.8880 C   0  0  0  0  0  2  0  0  0  0  0  0
  -28.6320  -26.9360   20.1360 O   0  0  0  0  0  0  0  0  0  0  0  0
  -24.7130  -31.9540   23.3550 C   0  0  0  0  0  0  0  0  0  0  0  0
  -27.4880  -27.7060   20.1170 C   0  0  0  0  0  0  0  0  0  0  0  0
  -23.5590  -30.6040   21.6340 C   0  0  0  0  0  3  0  0  0  0  0  0
  -25.0670  -29.1670   20.1570 C   0  0  0  0  0  0  0  0  0  0  0  0
  -26.0810  -31.0250   21.4860 C   0  0  0  0  0  2  0  0  0  0  0  0
  -26.2060  -29.6880   20.7840 C   0  0  0  0  0  0  0  0  0  0  0  0
  -27.4250  -28.9660   20.7590 C   0  0  0  0  0  3  0  0  0  0  0  0
  -26.3350  -27.2080   19.4750 C   0  0  0  0  0  3  0  0  0  0  0  0
  -25.1260  -27.9280   19.4960 C   0  0  0  0  0  3  0  0  0  0  0  0
  -23.8020  -29.9940   20.2270 C   0  0  0  0  0  2  0  0  0  0  0  0
  -24.8020  -31.2060   22.2180 N   0  0  0  0  0  0  0  0  0  0  0  0
  -23.6190  -32.1770   23.8920 O   0  0  0  0  0  0  0  0  0  0  0  0
  -22.9190  -29.5250   22.5380 C   0  0  0  0  0  0  0  0  0  0  0  0
  -21.5990  -29.3240   22.3890 N   0  0  0  0  0  0  0  0  0  0  0  0
  -23.6060  -28.8740   23.3290 O   0  0  0  0  0  0  0  0  0  0  0  0
  -21.1050  -29.9040   21.7240 H   0  0  0  0  0  0  0  0  0  0  0  0
  -18.2380  -28.0670   22.8160 C   0  0  0  0  0  0  0  0  0  0  0  0
  -20.7930  -28.3360   23.1040 C   0  0  0  0  0  3  0  0  0  0  0  0
  -20.9110  -26.9410   22.4480 C   0  0  0  0  0  2  0  0  0  0  0  0
  -19.8130  -26.6650   21.4170 C   0  0  0  0  0  2  0  0  0  0  0  0
  -18.4290  -26.7590   22.0670 C   0  0  0  0  0  2  0  0  0  0  0  0
  -19.3490  -28.8150   23.2900 C   0  0  0  0  0  0  0  0  0  0  0  0
  -19.1160  -30.0420   23.9500 C   0  0  0  0  0  3  0  0  0  0  0  0
  -17.8060  -30.5190   24.1420 C   0  0  0  0  0  3  0  0  0  0  0  0
  -16.7100  -29.7660   23.6850 C   0  0  0  0  0  3  0  0  0  0  0  0
  -16.9270  -28.5420   23.0280 C   0  0  0  0  0  3  0  0  0  0  0  0
  -25.9770  -32.5840   24.0190 C   0  0  0  0  0  3  0  0  0  0  0  0
  -26.4510  -31.8090   25.3110 C   0  0  1  0  0  0  0  0  0  0  0  0
  -25.3190  -31.5540   26.3330 C   0  0  0  0  0  1  0  0  0  0  0  0
  -27.0630  -30.4400   24.9320 C   0  0  0  0  0  1  0  0  0  0  0  0
  -27.5660  -32.6110   26.0220 C   0  0  0  0  0  1  0  0  0  0  0  0
  -25.6590  -33.9810   24.3380 N   0  0  0  0  0  0  0  0  0  0  0  0
  -26.0160  -35.0320   23.5890 C   0  0  0  0  0  0  0  0  0  0  0  0
  -26.7200  -34.9270   22.5800 O   0  0  0  0  0  0  0  0  0  0  0  0
  -25.0400  -34.1370   25.1200 H   0  0  0  0  0  0  0  0  0  0  0  0
  -24.3040  -36.8270   23.1710 C   0  0  0  0  0  1  0  0  0  0  0  0
  -25.5140  -36.4220   24.0280 C   0  0  0  0  0  3  0  0  0  0  0  0
  -27.6130  -37.3090   24.9440 C   0  0  0  0  0  1  0  0  0  0  0  0
  -26.5520  -37.4730   23.9530 N   0  0  0  0  0  0  0  0  0  0  0  0
  -26.1410  -38.3940   24.0780 H   0  0  0  0  0  0  0  0  0  0  0  0
  1  3  2  0
  2 51  1  0
  2  1  1  0
  3  6  1  0
  3  5  1  0
  4  2  1  0
  7  8  1  0
  9  7  2  0
 10 11  1  0
 11  8  2  0
 11  1  1  0
 12 10  2  0
 12  9  1  0
 13 21  1  0
 14 19  1  0
 15 16  1  0
 15 14  1  0
 17 16  1  0
 17 26  1  0
 17 18  1  0
 19 13  1  0
 19 18  1  0
 20 13  2  0
 21 12  1  0
 21 22  1  0
 23 24  2  0
 24 43  1  0
 25 24  1  0
 25 28  1  0
 26 27  1  0
 26 23  1  0
 27 25  2  0
 28 29  1  0
 29 30  2  0
 31 34  1  0
 31 30  1  0
 32 31  2  0
 33 32  1  0
 33 28  2  0
 34 35  1  0
 35 40  2  0
 35 36  1  0
 36 37  2  0
 37 38  1  0
 38 42  1  0
 39 38  2  0
 40 39  1  0
 41 40  1  0
 43 44  1  0
 44 47  1  0
 44 46  1  0
 45 43  2  0
 48 23  1  0
 48 49  1  0
 50 48  1  0
 52 51  1  0
 52 54  1  0
 53 52  2  0
 55 54  1  0
 56 67  2  0
 57 55  1  0
 57 62  1  0
 58 66  1  0
 58 68  1  0
 59 65  1  0
 59 61  1  0
 60 66  1  0
 61 60  1  0
 62 61  2  0
 63 64  1  0
 63 57  2  0
 64 59  2  0
 65 58  1  0
 66 56  1  0
 68 70  2  0
 69 68  1  0
 71 69  1  0
 72 81  2  0
 72 77  1  0
 73 69  1  0
 73 77  1  0
 74 73  1  0
 75 76  1  0
 75 74  1  0
 76 72  1  0
 77 78  2  0
 78 79  1  0
 80 79  2  0
 81 80  1  0
 82 56  1  0
 82 87  1  0
 82 83  1  0
 83 86  1  1
 83 84  1  0
 85 83  1  0
 87 90  1  0
 88 92  1  0
 88 87  1  0
 89 88  2  0
 92 91  1  0
 94 92  1  0
 94 95  1  0
 94 93  1  0
M  ISO  4  13 100  21 100  54 101  55 101
M  END
>  <TORSDO>  (11) 
F 20

>  <SCORE>  (11) 
-13.565

>  <name>  (11) 
10

>  <ligand_id>  (11) 
10

>  <original_smiles>  (11) 
[H]c1c([H])c(C(N([H])C([H])([H])C(=O)C([H])([H])Oc2c([H])c([H])c3c(c2[H])C([H])([H])N(C(=O)C([H])(N([H])C(=O)C([H])(N([H])C([H])([H])[H])C([H])([H])[H])C(C([H])([H])[H])(C([H])([H])[H])C([H])([H])[H])C([H])(C(=O)N([H])C2([H])c4c([H])c([H])c([H])c([H])c4C([H])([H])C([H])([H])C2([H])[H])C3([H])[H])=[N+]([H])[H])c([H])c(N([H])C(=O)N2C([H])([H])C([H])([H])C([H])([H])C([H])(n3nc(-c4c([H])c([H])c(Oc5c([H])c([H])c(F)c([H])c5F)c([H])c4[H])c(C(=O)N([H])[H])c3N([H])[H])C2([H])[H])c1[H]

>  <smiles>  (11) 
[H]c1c([H])c(C(N([H])C([H])([H])C(=O)C([H])([H])Oc2c([H])c([H])c3c(c2[H])C([H])([H])N(C(=O)C([H])(N([H])C(=O)C([H])(N([H])C([H])([H])[H])C([H])([H])[H])C(C([H])([H])[H])(C([H])([H])[H])C([H])([H])[H])C([H])(C(=O)N([H])C2([H])c4c([H])c([H])c([H])c([H])c4C([H])([H])C([H])([H])C2([H])[H])C3([H])[H])=[N+]([H])[H])c([H])c(N([H])C(=O)N2C([H])([H])C([H])([H])C([H])([H])C([H])(n3nc(-c4c([H])c([H])c(Oc5c([H])c([H])c(F)c([H])c5F)c([H])c4[H])c(C(=O)N([H])[H])c3N([H])[H])C2([H])[H])c1[H]

$$$$
11:0:0
     RDKit          3D

 98106  0  0  1  0  0  0  0  0999 V2000
  -29.4230  -20.9090   20.7480 C   0  0  0  0  0  0  0  0  0  0  0  0
  -28.8820  -23.4170   20.3560 C   0  0  0  0  0  0  0  0  0  0  0  0
  -29.1620  -22.0240   19.9930 N   0  0  0  0  0  0  0  0  0  0  0  0
  -29.3830  -20.9780   22.0820 N   0  0  0  0  0  4  0  0  0  0  0  0
  -28.8030  -23.7590   21.5410 O   0  0  0  0  0  0  0  0  0  0  0  0
  -29.1870  -21.8230   19.0050 H   0  0  0  0  0  0  0  0  0  0  0  0
  -29.6250  -20.1820   22.6480 H   0  0  0  0  0  0  0  0  0  0  0  0
  -29.1500  -21.8570   22.5250 H   0  0  0  0  0  0  0  0  0  0  0  0
  -30.3800  -19.6140   18.8260 C   0  0  0  0  0  3  0  0  0  0  0  0
  -30.7490  -18.4220   18.1770 C   0  0  0  0  0  3  0  0  0  0  0  0
  -29.6640  -18.3070   20.7550 C   0  0  0  0  0  3  0  0  0  0  0  0
  -29.8060  -19.5930   20.1170 C   0  0  0  0  0  0  0  0  0  0  0  0
  -30.0900  -17.0840   20.1280 C   0  0  0  0  0  0  0  0  0  0  0  0
  -30.5940  -17.1730   18.8030 C   0  0  0  0  0  0  0  0  0  0  0  0
  -30.8910  -16.0630   18.0830 F   0  0  0  0  0  0  0  0  0  0  0  0
  -30.7290  -14.6770   20.5570 C   0  0  0  0  0  0  0  0  0  0  0  0
  -30.5360  -12.4420   19.5300 C   0  0  0  0  0  2  0  0  0  0  0  0
  -29.6410  -12.5720   18.2790 C   0  0  0  0  0  2  0  0  0  0  0  0
  -28.1530  -12.4210   18.6520 C   0  0  0  0  0  2  0  0  0  0  0  0
  -27.7490  -13.2920   19.8730 C   0  0  0  0  0  3  0  0  0  0  0  0
  -28.7650  -13.1550   21.0290 C   0  0  0  0  0  2  0  0  0  0  0  0
  -30.0980  -13.4690   20.4950 N   0  0  0  0  0  0  0  0  0  0  0  0
  -31.9240  -14.7960   20.2710 O   0  0  0  0  0  0  0  0  0  0  0  0
  -29.9450  -15.7780   20.7650 N   0  0  0  0  0  0  0  0  0  0  0  0
  -29.0550  -15.6010   21.2030 H   0  0  0  0  0  0  0  0  0  0  0  0
  -25.3260  -13.8820   20.4880 C   0  0  0  0  0  0  0  0  0  0  0  0
  -24.2520  -13.1050   20.8310 C   0  0  0  0  0  0  0  0  0  0  0  0
  -24.7270  -11.7580   20.8410 C   0  0  0  0  0  0  0  0  0  0  0  0
  -26.3860  -13.0070   20.3100 N   0  0  0  0  0  0  0  0  0  0  0  0
  -26.0290  -11.7260   20.5830 N   0  0  0  0  0  0  0  0  0  0  0  0
  -24.0050  -10.4920   21.0230 C   0  0  0  0  0  0  0  0  0  0  0  0
  -24.4060   -9.5460   21.9930 C   0  0  0  0  0  3  0  0  0  0  0  0
  -23.6850   -8.3440   22.1630 C   0  0  0  0  0  3  0  0  0  0  0  0
  -22.5470   -8.0800   21.3630 C   0  0  0  0  0  0  0  0  0  0  0  0
  -22.1650   -9.0150   20.3850 C   0  0  0  0  0  3  0  0  0  0  0  0
  -22.8870  -10.2080   20.2130 C   0  0  0  0  0  3  0  0  0  0  0  0
  -21.8010   -6.9280   21.4400 O   0  0  0  0  0  0  0  0  0  0  0  0
  -21.7040   -6.2100   22.6040 C   0  0  0  0  0  0  0  0  0  0  0  0
  -21.1910   -6.7800   23.7900 C   0  0  0  0  0  3  0  0  0  0  0  0
  -21.0430   -5.9870   24.9460 C   0  0  0  0  0  3  0  0  0  0  0  0
  -21.3970   -4.6250   24.9150 C   0  0  0  0  0  0  0  0  0  0  0  0
  -21.9030   -4.0540   23.7340 C   0  0  0  0  0  3  0  0  0  0  0  0
  -22.0530   -4.8450   22.5810 C   0  0  0  0  0  0  0  0  0  0  0  0
  -22.5200   -4.2850   21.4380 F   0  0  0  0  0  0  0  0  0  0  0  0
  -21.2490   -3.8600   26.0220 F   0  0  0  0  0  0  0  0  0  0  0  0
  -22.8410  -13.5730   21.0400 C   0  0  0  0  0  0  0  0  0  0  0  0
  -22.0860  -12.8850   21.8880 N   0  0  0  0  0  0  0  0  0  0  0  0
  -22.4140  -14.5860   20.4860 O   0  0  0  0  0  0  0  0  0  0  0  0
  -22.4420  -12.0660   22.3590 H   0  0  0  0  0  0  0  0  0  0  0  0
  -21.1390  -13.1820   22.0730 H   0  0  0  0  0  0  0  0  0  0  0  0
  -25.4850  -15.2510   20.2910 N   0  0  0  0  0  0  0  0  0  0  0  0
  -24.7060  -15.8980   20.3500 H   0  0  0  0  0  0  0  0  0  0  0  0
  -26.3350  -15.6870   19.9600 H   0  0  0  0  0  0  0  0  0  0  0  0
  -28.4950  -25.6450   19.1440 C   0  0  0  0  0  3  0  0  0  0  0  0
  -28.7380  -24.2940   19.1710 C   0  0  0  0  0  0  0  0  0  0  0  0
  -28.8580  -23.6780   17.9800 O   0  0  0  0  0  0  0  0  0  0  0  0
  -28.7470  -24.3350   17.3030 H   0  0  0  0  0  0  0  0  0  0  0  0
  -28.3190  -26.5710   20.1680 O   0  0  0  0  0  0  0  0  0  0  0  0
  -24.5690  -31.8950   23.2280 C   0  0  0  0  0  0  0  0  0  0  0  0
  -27.1980  -27.4020   20.1240 C   0  0  0  0  0  0  0  0  0  0  0  0
  -23.3630  -30.4940   21.5900 C   0  0  0  0  0  3  0  0  0  0  0  0
  -24.8140  -28.9640   20.1500 C   0  0  0  0  0  0  0  0  0  0  0  0
  -25.8950  -30.8400   21.3890 C   0  0  0  0  0  2  0  0  0  0  0  0
  -25.9810  -29.4680   20.7380 C   0  0  0  0  0  0  0  0  0  0  0  0
  -27.1760  -28.6940   20.7220 C   0  0  0  0  0  3  0  0  0  0  0  0
  -26.0000  -26.9310   19.5380 C   0  0  0  0  0  3  0  0  0  0  0  0
  -24.8210  -27.6970   19.5460 C   0  0  0  0  0  3  0  0  0  0  0  0
  -23.5710  -29.8260   20.2060 C   0  0  0  0  0  2  0  0  0  0  0  0
  -24.6280  -31.0930   22.1260 N   0  0  0  0  0  0  0  0  0  0  0  0
  -23.4880  -32.1640   23.7700 O   0  0  0  0  0  0  0  0  0  0  0  0
  -22.7150  -29.4690   22.5500 C   0  0  0  0  0  0  0  0  0  0  0  0
  -21.3900  -29.2840   22.4290 N   0  0  0  0  0  0  0  0  0  0  0  0
  -23.4030  -28.8440   23.3620 O   0  0  0  0  0  0  0  0  0  0  0  0
  -20.8970  -29.8410   21.7440 H   0  0  0  0  0  0  0  0  0  0  0  0
  -18.0190  -28.0760   22.9390 C   0  0  0  0  0  0  0  0  0  0  0  0
  -20.5780  -28.3420   23.1990 C   0  0  0  0  0  3  0  0  0  0  0  0
  -20.6810  -26.9130   22.6170 C   0  0  0  0  0  2  0  0  0  0  0  0
  -19.5750  -26.5900   21.6070 C   0  0  0  0  0  2  0  0  0  0  0  0
  -18.1960  -26.7300   22.2580 C   0  0  0  0  0  2  0  0  0  0  0  0
  -19.1370  -28.8410   23.3660 C   0  0  0  0  0  0  0  0  0  0  0  0
  -18.9160  -30.1010   23.9620 C   0  0  0  0  0  3  0  0  0  0  0  0
  -17.6110  -30.5980   24.1350 C   0  0  0  0  0  3  0  0  0  0  0  0
  -16.5070  -29.8300   23.7250 C   0  0  0  0  0  3  0  0  0  0  0  0
  -16.7120  -28.5720   23.1320 C   0  0  0  0  0  3  0  0  0  0  0  0
  -25.8530  -32.5310   23.8450 C   0  0  0  0  0  3  0  0  0  0  0  0
  -26.3700  -31.7680   25.1260 C   0  0  1  0  0  0  0  0  0  0  0  0
  -25.2780  -31.5370   26.1960 C   0  0  0  0  0  1  0  0  0  0  0  0
  -26.9530  -30.3880   24.7420 C   0  0  0  0  0  1  0  0  0  0  0  0
  -27.5210  -32.5670   25.7820 C   0  0  0  0  0  1  0  0  0  0  0  0
  -25.5440  -33.9300   24.1650 N   0  0  0  0  0  0  0  0  0  0  0  0
  -25.8790  -34.9790   23.4020 C   0  0  0  0  0  0  0  0  0  0  0  0
  -26.5520  -34.8700   22.3730 O   0  0  0  0  0  0  0  0  0  0  0  0
  -24.9480  -34.0880   24.9650 H   0  0  0  0  0  0  0  0  0  0  0  0
  -24.1630  -36.7790   23.0210 C   0  0  0  0  0  1  0  0  0  0  0  0
  -25.3910  -36.3700   23.8500 C   0  0  0  0  0  3  0  0  0  0  0  0
  -27.5140  -37.2510   24.7140 C   0  0  0  0  0  1  0  0  0  0  0  0
  -26.4290  -37.4180   23.7510 N   0  0  0  0  0  0  0  0  0  0  0  0
  -26.0240  -38.3410   23.8860 H   0  0  0  0  0  0  0  0  0  0  0  0
  1  4  2  0
  2  5  2  0
  3  2  1  0
  3  1  1  0
  4  8  1  0
  4  7  1  0
  6  3  1  0
  9 12  1  0
 10 14  1  0
 10  9  2  0
 12  1  1  0
 12 11  2  0
 13 11  1  0
 13 24  1  0
 14 13  2  0
 15 14  1  0
 16 24  1  0
 17 22  1  0
 18 19  1  0
 18 17  1  0
 20 19  1  0
 20 29  1  0
 20 21  1  0
 22 16  1  0
 22 21  1  0
 23 16  2  0
 24 25  1  0
 26 27  2  0
 27 28  1  0
 27 46  1  0
 28 31  1  0
 29 26  1  0
 29 30  1  0
 30 28  2  0
 31 32  1  0
 32 33  2  0
 34 37  1  0
 34 33  1  0
 35 34  2  0
 36 35  1  0
 36 31  2  0
 37 38  1  0
 38 39  1  0
 39 40  2  0
 41 40  1  0
 41 45  1  0
 42 41  2  0
 43 38  2  0
 43 42  1  0
 44 43  1  0
 46 47  1  0
 47 50  1  0
 47 49  1  0
 48 46  2  0
 51 52  1  0
 51 26  1  0
 53 51  1  0
 54 55  2  0
 54 58  1  0
 55  2  1  0
 56 55  1  0
 57 56  1  0
 59 70  2  0
 60 58  1  0
 60 65  1  0
 61 69  1  0
 61 71  1  0
 62 68  1  0
 62 64  1  0
 63 69  1  0
 64 63  1  0
 65 64  2  0
 66 67  1  0
 66 60  2  0
 67 62  2  0
 68 61  1  0
 69 59  1  0
 71 73  2  0
 72 71  1  0
 74 72  1  0
 75 84  2  0
 75 80  1  0
 76 72  1  0
 76 80  1  0
 77 76  1  0
 78 79  1  0
 78 77  1  0
 79 75  1  0
 80 81  2  0
 81 82  1  0
 83 82  2  0
 84 83  1  0
 85 59  1  0
 85 90  1  0
 85 86  1  0
 86 89  1  1
 86 87  1  0
 88 86  1  0
 90 93  1  0
 91 95  1  0
 91 90  1  0
 92 91  2  0
 95 94  1  0
 97 95  1  0
 97 98  1  0
 97 96  1  0
M  ISO  4  16 100  24 100  54 101  58 101
M  END
>  <TORSDO>  (12) 
F 19

>  <SCORE>  (12) 
-14.637

>  <name>  (12) 
11

>  <ligand_id>  (12) 
11

>  <original_smiles>  (12) 
[H]OC(C(=O)N([H])C(c1c([H])c([H])c(F)c(N([H])C(=O)N2C([H])([H])C([H])([H])C([H])([H])C([H])(n3nc(-c4c([H])c([H])c(Oc5c([H])c([H])c(F)c([H])c5F)c([H])c4[H])c(C(=O)N([H])[H])c3N([H])[H])C2([H])[H])c1[H])=[N+]([H])[H])=C([H])Oc1c([H])c([H])c2c(c1[H])C([H])([H])N(C(=O)C([H])(N([H])C(=O)C([H])(N([H])C([H])([H])[H])C([H])([H])[H])C(C([H])([H])[H])(C([H])([H])[H])C([H])([H])[H])C([H])(C(=O)N([H])C1([H])c3c([H])c([H])c([H])c([H])c3C([H])([H])C([H])([H])C1([H])[H])C2([H])[H]

>  <smiles>  (12) 
[H]OC(C(=O)N([H])C(c1c([H])c([H])c(F)c(N([H])C(=O)N2C([H])([H])C([H])([H])C([H])([H])C([H])(n3nc(-c4c([H])c([H])c(Oc5c([H])c([H])c(F)c([H])c5F)c([H])c4[H])c(C(=O)N([H])[H])c3N([H])[H])C2([H])[H])c1[H])=[N+]([H])[H])=C([H])Oc1c([H])c([H])c2c(c1[H])C([H])([H])N(C(=O)C([H])(N([H])C(=O)C([H])(N([H])C([H])([H])[H])C([H])([H])[H])C(C([H])([H])[H])(C([H])([H])[H])C([H])([H])[H])C([H])(C(=O)N([H])C1([H])c3c([H])c([H])c([H])c([H])c3C([H])([H])C([H])([H])C1([H])[H])C2([H])[H]

$$$$
12:0:0
     RDKit          3D

 95103  0  0  1  0  0  0  0  0999 V2000
  -29.6810  -22.1930   21.6110 C   0  0  0  0  0  1  0  0  0  0  0  0
  -27.9770  -21.6720   19.7750 C   0  0  0  0  0  1  0  0  0  0  0  0
  -29.4720  -21.8110   20.1300 C   0  0  1  0  0  0  0  0  0  0  0  0
  -30.0460  -23.0210   19.2730 C   0  0  0  0  0  0  0  0  0  0  0  0
  -30.8630  -22.6950   18.4030 O   0  0  0  0  0  0  0  0  0  0  0  0
  -28.7260  -25.2130   19.9850 C   0  0  0  0  0  3  0  0  0  0  0  0
  -29.7740  -24.5280   19.4290 C   0  0  0  0  0  0  0  0  0  0  0  0
  -30.7580  -25.2620   18.8860 O   0  0  0  0  0  0  0  0  0  0  0  0
  -31.3390  -24.6360   18.4660 H   0  0  0  0  0  0  0  0  0  0  0  0
  -28.6940  -26.6230   20.0340 O   0  0  0  0  0  0  0  0  0  0  0  0
  -24.6900  -31.7970   23.0940 C   0  0  0  0  0  0  0  0  0  0  0  0
  -27.5030  -27.3540   20.0550 C   0  0  0  0  0  0  0  0  0  0  0  0
  -23.5540  -30.3700   21.4250 C   0  0  0  0  0  3  0  0  0  0  0  0
  -25.0760  -28.8610   20.0270 C   0  0  0  0  0  0  0  0  0  0  0  0
  -26.0830  -30.7670   21.2860 C   0  0  0  0  0  2  0  0  0  0  0  0
  -26.2150  -29.3920   20.6430 C   0  0  0  0  0  0  0  0  0  0  0  0
  -27.4280  -28.6500   20.6490 C   0  0  0  0  0  3  0  0  0  0  0  0
  -26.3400  -26.8580   19.4280 C   0  0  0  0  0  3  0  0  0  0  0  0
  -25.1380  -27.5940   19.4170 C   0  0  0  0  0  3  0  0  0  0  0  0
  -23.8130  -29.6980   20.0500 C   0  0  0  0  0  2  0  0  0  0  0  0
  -24.7920  -30.9970   21.9920 N   0  0  0  0  0  0  0  0  0  0  0  0
  -23.5920  -32.0420   23.6120 O   0  0  0  0  0  0  0  0  0  0  0  0
  -22.9050  -29.3320   22.3720 C   0  0  0  0  0  0  0  0  0  0  0  0
  -21.5800  -29.1470   22.2440 N   0  0  0  0  0  0  0  0  0  0  0  0
  -23.5900  -28.6960   23.1750 O   0  0  0  0  0  0  0  0  0  0  0  0
  -21.0860  -29.7030   21.5600 H   0  0  0  0  0  0  0  0  0  0  0  0
  -18.2010  -27.9670   22.7840 C   0  0  0  0  0  0  0  0  0  0  0  0
  -20.7690  -28.1930   23.0020 C   0  0  0  0  0  3  0  0  0  0  0  0
  -20.8430  -26.7800   22.3760 C   0  0  0  0  0  2  0  0  0  0  0  0
  -19.7130  -26.4980   21.3820 C   0  0  0  0  0  2  0  0  0  0  0  0
  -18.3490  -26.6380   22.0630 C   0  0  0  0  0  2  0  0  0  0  0  0
  -19.3390  -28.7040   23.2100 C   0  0  0  0  0  0  0  0  0  0  0  0
  -19.1460  -29.9510   23.8460 C   0  0  0  0  0  3  0  0  0  0  0  0
  -17.8520  -30.4560   24.0580 C   0  0  0  0  0  3  0  0  0  0  0  0
  -16.7290  -29.7160   23.6460 C   0  0  0  0  0  3  0  0  0  0  0  0
  -16.9060  -28.4720   23.0150 C   0  0  0  0  0  3  0  0  0  0  0  0
  -25.9460  -32.4600   23.7400 C   0  0  0  0  0  3  0  0  0  0  0  0
  -25.5870  -33.8410   24.0940 N   0  0  0  0  0  0  0  0  0  0  0  0
  -25.8940  -34.9190   23.3590 C   0  0  0  0  0  0  0  0  0  0  0  0
  -26.5760  -34.8570   22.3320 O   0  0  0  0  0  0  0  0  0  0  0  0
  -24.9790  -33.9600   24.8900 H   0  0  0  0  0  0  0  0  0  0  0  0
  -24.1110  -36.6610   23.0210 C   0  0  0  0  0  1  0  0  0  0  0  0
  -25.3560  -36.2810   23.8380 C   0  0  0  0  0  3  0  0  0  0  0  0
  -27.4510  -37.2200   24.7090 C   0  0  0  0  0  1  0  0  0  0  0  0
  -26.3560  -37.3690   23.7560 N   0  0  0  0  0  0  0  0  0  0  0  0
  -25.9190  -38.2750   23.9110 H   0  0  0  0  0  0  0  0  0  0  0  0
  -26.4760  -31.6830   25.0080 C   0  0  1  0  0  0  0  0  0  0  0  0
  -25.3800  -31.3840   26.0560 C   0  0  0  0  0  1  0  0  0  0  0  0
  -27.1140  -30.3340   24.5990 C   0  0  0  0  0  1  0  0  0  0  0  0
  -27.5900  -32.5030   25.6990 C   0  0  0  0  0  1  0  0  0  0  0  0
  -30.1970  -20.5130   19.8260 N   0  0  0  0  0  0  0  0  0  0  0  0
  -30.8900  -20.6310   19.0880 H   0  0  0  0  0  0  0  0  0  0  0  0
  -29.3150  -17.5530   21.7670 C   0  0  0  0  0  3  0  0  0  0  0  0
  -29.2590  -18.9610   21.5540 C   0  0  0  0  0  3  0  0  0  0  0  0
  -30.1040  -17.0140   20.7850 C   0  0  0  0  0  0  0  0  0  0  0  0
  -29.9990  -19.2280   20.4350 C   0  0  0  0  0  0  0  0  0  0  0  0
  -30.5500  -18.0330   19.9320 O   0  0  0  0  0  0  0  0  0  0  0  0
  -30.9520  -14.7120   20.0110 C   0  0  0  0  0  0  0  0  0  0  0  0
  -30.6750  -12.5130   18.8630 C   0  0  0  0  0  2  0  0  0  0  0  0
  -29.6250  -12.6880   17.7410 C   0  0  0  0  0  2  0  0  0  0  0  0
  -28.1920  -12.5150   18.2860 C   0  0  0  0  0  2  0  0  0  0  0  0
  -27.9490  -13.3370   19.5790 C   0  0  0  0  0  3  0  0  0  0  0  0
  -29.0900  -13.1000   20.5940 C   0  0  0  0  0  2  0  0  0  0  0  0
  -30.3560  -13.4770   19.9360 N   0  0  0  0  0  0  0  0  0  0  0  0
  -32.0270  -14.9540   19.4500 O   0  0  0  0  0  0  0  0  0  0  0  0
  -30.2220  -15.6350   20.7050 N   0  0  0  0  0  0  0  0  0  0  0  0
  -29.5090  -15.1640   21.2400 H   0  0  0  0  0  0  0  0  0  0  0  0
  -25.6450  -13.9510   20.5500 C   0  0  0  0  0  0  0  0  0  0  0  0
  -24.5880  -13.1820   20.9530 C   0  0  0  0  0  0  0  0  0  0  0  0
  -24.9950  -11.8250   20.7700 C   0  0  0  0  0  0  0  0  0  0  0  0
  -26.6350  -13.0620   20.1570 N   0  0  0  0  0  0  0  0  0  0  0  0
  -26.2510  -11.7740   20.3440 N   0  0  0  0  0  0  0  0  0  0  0  0
  -24.2430  -10.5720   20.9210 C   0  0  0  0  0  0  0  0  0  0  0  0
  -24.6820   -9.5490   21.7880 C   0  0  0  0  0  3  0  0  0  0  0  0
  -23.9310   -8.3620   21.9320 C   0  0  0  0  0  3  0  0  0  0  0  0
  -22.7300   -8.1900   21.2050 C   0  0  0  0  0  0  0  0  0  0  0  0
  -22.3090   -9.2020   20.3250 C   0  0  0  0  0  3  0  0  0  0  0  0
  -23.0600  -10.3810   20.1790 C   0  0  0  0  0  3  0  0  0  0  0  0
  -21.9490   -7.0590   21.2610 O   0  0  0  0  0  0  0  0  0  0  0  0
  -21.8610   -6.3020   22.4020 C   0  0  0  0  0  0  0  0  0  0  0  0
  -21.4210   -6.8500   23.6270 C   0  0  0  0  0  3  0  0  0  0  0  0
  -21.2750   -6.0210   24.7570 C   0  0  0  0  0  3  0  0  0  0  0  0
  -21.5610   -4.6450   24.6640 C   0  0  0  0  0  0  0  0  0  0  0  0
  -21.9950   -4.0970   23.4440 C   0  0  0  0  0  3  0  0  0  0  0  0
  -22.1420   -4.9230   22.3160 C   0  0  0  0  0  0  0  0  0  0  0  0
  -22.5390   -4.3860   21.1360 F   0  0  0  0  0  0  0  0  0  0  0  0
  -21.4140   -3.8470   25.7480 F   0  0  0  0  0  0  0  0  0  0  0  0
  -23.2400  -13.6730   21.3950 C   0  0  0  0  0  0  0  0  0  0  0  0
  -22.5780  -12.9310   22.2760 N   0  0  0  0  0  0  0  0  0  0  0  0
  -22.7870  -14.7450   20.9980 O   0  0  0  0  0  0  0  0  0  0  0  0
  -22.9630  -12.0610   22.6180 H   0  0  0  0  0  0  0  0  0  0  0  0
  -21.6760  -13.2340   22.6110 H   0  0  0  0  0  0  0  0  0  0  0  0
  -25.8360  -15.3270   20.4610 N   0  0  0  0  0  0  0  0  0  0  0  0
  -25.0810  -15.9800   20.6410 H   0  0  0  0  0  0  0  0  0  0  0  0
  -26.6630  -15.7770   20.0890 H   0  0  0  0  0  0  0  0  0  0  0  0
  3  2  1  1
  3  1  1  0
  4  7  1  0
  4  3  1  0
  5  4  2  0
  6 10  1  0
  7  6  2  0
  8  7  1  0
  9  8  1  0
 10 12  1  0
 11 22  2  0
 12 17  1  0
 13 21  1  0
 13 23  1  0
 14 20  1  0
 14 16  1  0
 15 21  1  0
 16 17  2  0
 16 15  1  0
 18 12  2  0
 19 18  1  0
 19 14  2  0
 20 13  1  0
 21 11  1  0
 23 25  2  0
 24 23  1  0
 26 24  1  0
 27 36  2  0
 27 32  1  0
 28 24  1  0
 28 32  1  0
 29 28  1  0
 30 31  1  0
 30 29  1  0
 31 27  1  0
 32 33  2  0
 33 34  1  0
 35 34  2  0
 36 35  1  0
 37 11  1  0
 37 38  1  0
 37 47  1  0
 38 41  1  0
 39 43  1  0
 39 38  1  0
 40 39  2  0
 43 42  1  0
 45 43  1  0
 45 46  1  0
 45 44  1  0
 47 50  1  1
 47 48  1  0
 49 47  1  0
 51  3  1  0
 51 56  1  0
 52 51  1  0
 54 53  1  0
 55 53  2  0
 56 54  2  0
 57 56  1  0
 57 55  1  0
 58 66  1  0
 59 64  1  0
 60 61  1  0
 60 59  1  0
 62 61  1  0
 62 71  1  0
 62 63  1  0
 64 58  1  0
 64 63  1  0
 65 58  2  0
 66 55  1  0
 66 67  1  0
 68 69  2  0
 69 88  1  0
 70 73  1  0
 70 69  1  0
 71 72  1  0
 71 68  1  0
 72 70  2  0
 73 74  1  0
 74 75  2  0
 76 79  1  0
 76 75  1  0
 77 76  2  0
 78 77  1  0
 78 73  2  0
 79 80  1  0
 80 81  1  0
 81 82  2  0
 83 82  1  0
 83 87  1  0
 84 83  2  0
 85 80  2  0
 85 84  1  0
 86 85  1  0
 88 89  1  0
 89 92  1  0
 89 91  1  0
 90 88  2  0
 93 68  1  0
 93 94  1  0
 95 93  1  0
M  ISO  4   6 101  10 101  58 100  66 100
M  END
>  <TORSDO>  (13) 
F 21

>  <SCORE>  (13) 
-11.861

>  <name>  (13) 
12

>  <ligand_id>  (13) 
12

>  <original_smiles>  (13) 
[H]OC(C(=O)C(N([H])c1oc(N([H])C(=O)N2C([H])([H])C([H])([H])C([H])([H])C([H])(n3nc(-c4c([H])c([H])c(Oc5c([H])c([H])c(F)c([H])c5F)c([H])c4[H])c(C(=O)N([H])[H])c3N([H])[H])C2([H])[H])c([H])c1[H])(C([H])([H])[H])C([H])([H])[H])=C([H])Oc1c([H])c([H])c2c(c1[H])C([H])([H])N(C(=O)C([H])(N([H])C(=O)C([H])(N([H])C([H])([H])[H])C([H])([H])[H])C(C([H])([H])[H])(C([H])([H])[H])C([H])([H])[H])C([H])(C(=O)N([H])C1([H])c3c([H])c([H])c([H])c([H])c3C([H])([H])C([H])([H])C1([H])[H])C2([H])[H]

>  <smiles>  (13) 
[H]OC(C(=O)C(N([H])c1oc(N([H])C(=O)N2C([H])([H])C([H])([H])C([H])([H])C([H])(n3nc(-c4c([H])c([H])c(Oc5c([H])c([H])c(F)c([H])c5F)c([H])c4[H])c(C(=O)N([H])[H])c3N([H])[H])C2([H])[H])c([H])c1[H])(C([H])([H])[H])C([H])([H])[H])=C([H])Oc1c([H])c([H])c2c(c1[H])C([H])([H])N(C(=O)C([H])(N([H])C(=O)C([H])(N([H])C([H])([H])[H])C([H])([H])[H])C(C([H])([H])[H])(C([H])([H])[H])C([H])([H])[H])C([H])(C(=O)N([H])C1([H])c3c([H])c([H])c([H])c([H])c3C([H])([H])C([H])([H])C1([H])[H])C2([H])[H]

$$$$
13:0:0
     RDKit          3D

 98106  0  0  1  0  0  0  0  0999 V2000
  -31.0120  -18.2080   20.5890 C   0  0  0  0  0  3  0  0  0  0  0  0
  -30.7920  -19.6640   20.6660 C   0  0  0  0  0  0  0  0  0  0  0  0
  -29.8930  -17.3930   20.5020 C   0  0  0  0  0  0  0  0  0  0  0  0
  -29.4610  -20.0880   20.5800 C   0  0  0  0  0  0  0  0  0  0  0  0
  -28.5220  -18.5530   20.4590 S   0  0  0  0  0  0  0  0  0  0  0  0
  -30.5340  -14.8690   20.2480 C   0  0  0  0  0  0  0  0  0  0  0  0
  -30.3550  -12.5930   19.1910 C   0  0  0  0  0  2  0  0  0  0  0  0
  -29.3880  -12.6430   17.9860 C   0  0  0  0  0  2  0  0  0  0  0  0
  -27.9310  -12.4410   18.4460 C   0  0  0  0  0  2  0  0  0  0  0  0
  -27.5670  -13.3240   19.6690 C   0  0  0  0  0  3  0  0  0  0  0  0
  -28.6450  -13.2390   20.7720 C   0  0  0  0  0  2  0  0  0  0  0  0
  -29.9250  -13.6290   20.1630 N   0  0  0  0  0  0  0  0  0  0  0  0
  -31.7170  -14.9820   19.9100 O   0  0  0  0  0  0  0  0  0  0  0  0
  -29.7260  -15.9800   20.5100 N   0  0  0  0  0  0  0  0  0  0  0  0
  -28.7790  -15.6910   20.7050 H   0  0  0  0  0  0  0  0  0  0  0  0
  -25.1830  -13.8990   20.4180 C   0  0  0  0  0  0  0  0  0  0  0  0
  -24.1270  -13.1200   20.8030 C   0  0  0  0  0  0  0  0  0  0  0  0
  -24.6010  -11.7720   20.7760 C   0  0  0  0  0  0  0  0  0  0  0  0
  -26.2310  -13.0270   20.1760 N   0  0  0  0  0  0  0  0  0  0  0  0
  -25.8890  -11.7440   20.4560 N   0  0  0  0  0  0  0  0  0  0  0  0
  -23.8870  -10.5050   20.9780 C   0  0  0  0  0  0  0  0  0  0  0  0
  -24.3290   -9.5470   21.9160 C   0  0  0  0  0  3  0  0  0  0  0  0
  -23.6110   -8.3450   22.1030 C   0  0  0  0  0  3  0  0  0  0  0  0
  -22.4390   -8.0940   21.3530 C   0  0  0  0  0  0  0  0  0  0  0  0
  -22.0180   -9.0400   20.4030 C   0  0  0  0  0  3  0  0  0  0  0  0
  -22.7360  -10.2330   20.2120 C   0  0  0  0  0  3  0  0  0  0  0  0
  -21.6930   -6.9430   21.4520 O   0  0  0  0  0  0  0  0  0  0  0  0
  -21.6470   -6.2120   22.6120 C   0  0  0  0  0  0  0  0  0  0  0  0
  -21.2020   -6.7730   23.8290 C   0  0  0  0  0  3  0  0  0  0  0  0
  -21.1030   -5.9670   24.9810 C   0  0  0  0  0  3  0  0  0  0  0  0
  -21.4400   -4.6020   24.9180 C   0  0  0  0  0  0  0  0  0  0  0  0
  -21.8770   -4.0410   23.7060 C   0  0  0  0  0  3  0  0  0  0  0  0
  -21.9780   -4.8430   22.5560 C   0  0  0  0  0  0  0  0  0  0  0  0
  -22.3800   -4.2920   21.3840 F   0  0  0  0  0  0  0  0  0  0  0  0
  -21.3390   -3.8250   26.0220 F   0  0  0  0  0  0  0  0  0  0  0  0
  -22.7280  -13.5870   21.0820 C   0  0  0  0  0  0  0  0  0  0  0  0
  -22.0110  -12.8900   21.9560 N   0  0  0  0  0  0  0  0  0  0  0  0
  -22.2800  -14.6080   20.5620 O   0  0  0  0  0  0  0  0  0  0  0  0
  -22.3860  -12.0640   22.3970 H   0  0  0  0  0  0  0  0  0  0  0  0
  -21.0730  -13.1880   22.1880 H   0  0  0  0  0  0  0  0  0  0  0  0
  -25.3330  -15.2700   20.2290 N   0  0  0  0  0  0  0  0  0  0  0  0
  -24.5540  -15.9120   20.3340 H   0  0  0  0  0  0  0  0  0  0  0  0
  -26.1550  -15.7140   19.8420 H   0  0  0  0  0  0  0  0  0  0  0  0
  -29.0970  -22.7070   20.4390 C   0  0  0  0  0  0  0  0  0  0  0  0
  -28.8130  -21.3510   20.7050 N   0  0  0  0  0  0  0  0  0  0  0  0
  -30.0540  -23.0320   19.7370 O   0  0  0  0  0  0  0  0  0  0  0  0
  -27.8660  -21.2620   21.0520 H   0  0  0  0  0  0  0  0  0  0  0  0
  -27.8460  -25.0770   20.9750 C   0  0  0  0  0  3  0  0  0  0  0  0
  -28.1290  -23.6960   21.0820 C   0  0  0  0  0  0  0  0  0  0  0  0
  -27.3750  -23.1150   22.0320 O   0  0  0  0  0  0  0  0  0  0  0  0
  -27.8640  -22.3700   22.3600 H   0  0  0  0  0  0  0  0  0  0  0  0
  -28.2380  -26.2650   20.2730 O   0  0  0  0  0  0  0  0  0  0  0  0
  -24.5990  -31.8780   23.2310 C   0  0  0  0  0  0  0  0  0  0  0  0
  -27.2230  -27.2650   20.1840 C   0  0  0  0  0  0  0  0  0  0  0  0
  -23.4110  -30.4850   21.5770 C   0  0  0  0  0  3  0  0  0  0  0  0
  -24.8760  -28.9410   20.1470 C   0  0  0  0  0  0  0  0  0  0  0  0
  -25.9570  -30.7850   21.4210 C   0  0  0  0  0  2  0  0  0  0  0  0
  -26.0460  -29.4040   20.7650 C   0  0  0  0  0  0  0  0  0  0  0  0
  -27.2230  -28.5770   20.7780 C   0  0  0  0  0  3  0  0  0  0  0  0
  -26.0380  -26.8880   19.5180 C   0  0  0  0  0  3  0  0  0  0  0  0
  -24.8800  -27.6900   19.5090 C   0  0  0  0  0  3  0  0  0  0  0  0
  -23.6380  -29.8180   20.1960 C   0  0  0  0  0  2  0  0  0  0  0  0
  -24.6740  -31.0690   22.1320 N   0  0  0  0  0  0  0  0  0  0  0  0
  -23.5110  -32.1550   23.7570 O   0  0  0  0  0  0  0  0  0  0  0  0
  -22.7390  -29.4670   22.5310 C   0  0  0  0  0  0  0  0  0  0  0  0
  -21.4120  -29.2910   22.3970 N   0  0  0  0  0  0  0  0  0  0  0  0
  -23.4110  -28.8390   23.3520 O   0  0  0  0  0  0  0  0  0  0  0  0
  -20.9270  -29.8460   21.7070 H   0  0  0  0  0  0  0  0  0  0  0  0
  -18.0290  -28.1010   22.8930 C   0  0  0  0  0  0  0  0  0  0  0  0
  -20.5890  -28.3520   23.1640 C   0  0  0  0  0  3  0  0  0  0  0  0
  -20.6850  -26.9250   22.5760 C   0  0  0  0  0  2  0  0  0  0  0  0
  -19.5820  -26.6140   21.5590 C   0  0  0  0  0  2  0  0  0  0  0  0
  -18.2010  -26.7580   22.2040 C   0  0  0  0  0  2  0  0  0  0  0  0
  -19.1500  -28.8580   23.3280 C   0  0  0  0  0  0  0  0  0  0  0  0
  -18.9340  -30.1160   23.9310 C   0  0  0  0  0  3  0  0  0  0  0  0
  -17.6280  -30.6170   24.1040 C   0  0  0  0  0  3  0  0  0  0  0  0
  -16.5220  -29.8580   23.6810 C   0  0  0  0  0  3  0  0  0  0  0  0
  -16.7240  -28.6030   23.0810 C   0  0  0  0  0  3  0  0  0  0  0  0
  -25.8760  -32.5110   23.8640 C   0  0  0  0  0  3  0  0  0  0  0  0
  -25.5650  -33.9130   24.1860 N   0  0  0  0  0  0  0  0  0  0  0  0
  -25.9030  -34.9630   23.4260 C   0  0  0  0  0  0  0  0  0  0  0  0
  -26.5770  -34.8520   22.3980 O   0  0  0  0  0  0  0  0  0  0  0  0
  -24.9660  -34.0700   24.9830 H   0  0  0  0  0  0  0  0  0  0  0  0
  -24.1800  -36.7590   23.0560 C   0  0  0  0  0  1  0  0  0  0  0  0
  -25.4160  -36.3540   23.8760 C   0  0  0  0  0  3  0  0  0  0  0  0
  -27.5470  -37.2390   24.7180 C   0  0  0  0  0  1  0  0  0  0  0  0
  -26.4520  -37.4050   23.7660 N   0  0  0  0  0  0  0  0  0  0  0  0
  -26.0460  -38.3260   23.9030 H   0  0  0  0  0  0  0  0  0  0  0  0
  -26.3740  -31.7470   25.1520 C   0  0  1  0  0  0  0  0  0  0  0  0
  -25.2660  -31.5210   26.2090 C   0  0  0  0  0  1  0  0  0  0  0  0
  -26.9560  -30.3650   24.7780 C   0  0  0  0  0  1  0  0  0  0  0  0
  -27.5180  -32.5420   25.8210 C   0  0  0  0  0  1  0  0  0  0  0  0
  -31.8920  -20.5950   20.9480 C   0  0  0  0  0  0  0  0  0  0  0  0
  -31.8990  -21.3250   21.9480 O   0  0  0  0  0  0  0  0  0  0  0  0
  -33.0820  -20.6660   19.9900 C   0  0  0  0  0  3  0  0  0  0  0  0
  -33.0030  -19.9530   18.6530 C   0  0  0  0  0  1  0  0  0  0  0  0
  -34.1430  -21.3130   20.2500 N   0  0  0  0  0  2  0  0  0  0  0  0
  -34.0520  -21.7500   21.1630 H   0  0  0  0  0  0  0  0  0  0  0  0
  1  2  1  0
  2 93  1  0
  3 14  1  0
  3  1  2  0
  4  2  2  0
  4 45  1  0
  5  3  1  0
  5  4  1  0
  6 14  1  0
  7 12  1  0
  8  9  1  0
  8  7  1  0
 10  9  1  0
 10 19  1  0
 10 11  1  0
 12  6  1  0
 12 11  1  0
 13  6  2  0
 14 15  1  0
 16 17  2  0
 17 36  1  0
 18 17  1  0
 18 21  1  0
 19 16  1  0
 19 20  1  0
 20 18  2  0
 21 22  1  0
 22 23  2  0
 24 27  1  0
 24 23  1  0
 25 24  2  0
 26 25  1  0
 26 21  2  0
 27 28  1  0
 28 29  1  0
 29 30  2  0
 31 30  1  0
 31 35  1  0
 32 31  2  0
 33 28  2  0
 33 32  1  0
 34 33  1  0
 36 37  1  0
 37 40  1  0
 37 39  1  0
 38 36  2  0
 41 42  1  0
 41 16  1  0
 43 41  1  0
 44 45  1  0
 44 49  1  0
 45 47  1  0
 46 44  2  0
 48 49  2  0
 49 50  1  0
 50 51  1  0
 52 48  1  0
 53 64  2  0
 54 52  1  0
 54 59  1  0
 55 63  1  0
 55 65  1  0
 56 62  1  0
 56 58  1  0
 57 63  1  0
 58 59  2  0
 58 57  1  0
 60 54  2  0
 61 60  1  0
 61 56  2  0
 62 55  1  0
 63 53  1  0
 65 67  2  0
 66 65  1  0
 68 66  1  0
 69 78  2  0
 69 74  1  0
 70 66  1  0
 70 74  1  0
 71 70  1  0
 72 73  1  0
 72 71  1  0
 73 69  1  0
 74 75  2  0
 75 76  1  0
 77 76  2  0
 78 77  1  0
 79 53  1  0
 79 80  1  0
 79 89  1  0
 80 83  1  0
 81 85  1  0
 81 80  1  0
 82 81  2  0
 85 84  1  0
 87 85  1  0
 87 88  1  0
 87 86  1  0
 89 92  1  1
 89 90  1  0
 91 89  1  0
 93 94  2  0
 95 96  1  0
 95 97  1  0
 95 93  1  0
 97 98  1  0
M  ISO  4   6 100  14 100  48 101  52 101
M  END
>  <TORSDO>  (14) 
F 21

>  <SCORE>  (14) 
-14.201

>  <name>  (14) 
13

>  <ligand_id>  (14) 
13

>  <original_smiles>  (14) 
[H]N=C(C(=O)c1c(N([H])C(=O)C(O[H])=C([H])Oc2c([H])c([H])c3c(c2[H])C([H])([H])N(C(=O)C([H])(N([H])C(=O)C([H])(N([H])C([H])([H])[H])C([H])([H])[H])C(C([H])([H])[H])(C([H])([H])[H])C([H])([H])[H])C([H])(C(=O)N([H])C2([H])c4c([H])c([H])c([H])c([H])c4C([H])([H])C([H])([H])C2([H])[H])C3([H])[H])sc(N([H])C(=O)N2C([H])([H])C([H])([H])C([H])([H])C([H])(n3nc(-c4c([H])c([H])c(Oc5c([H])c([H])c(F)c([H])c5F)c([H])c4[H])c(C(=O)N([H])[H])c3N([H])[H])C2([H])[H])c1[H])C([H])([H])[H]

>  <smiles>  (14) 
[H]N=C(C(=O)c1c(N([H])C(=O)C(O[H])=C([H])Oc2c([H])c([H])c3c(c2[H])C([H])([H])N(C(=O)C([H])(N([H])C(=O)C([H])(N([H])C([H])([H])[H])C([H])([H])[H])C(C([H])([H])[H])(C([H])([H])[H])C([H])([H])[H])C([H])(C(=O)N([H])C2([H])c4c([H])c([H])c([H])c([H])c4C([H])([H])C([H])([H])C2([H])[H])C3([H])[H])sc(N([H])C(=O)N2C([H])([H])C([H])([H])C([H])([H])C([H])(n3nc(-c4c([H])c([H])c(Oc5c([H])c([H])c(F)c([H])c5F)c([H])c4[H])c(C(=O)N([H])[H])c3N([H])[H])C2([H])[H])c1[H])C([H])([H])[H]

$$$$
14:0:0
     RDKit          3D

 97105  0  0  1  0  0  0  0  0999 V2000
  -29.9690  -18.7540   22.0780 C   0  0  0  0  0  3  0  0  0  0  0  0
  -29.3600  -20.0230   21.9780 C   0  0  0  0  0  3  0  0  0  0  0  0
  -29.8260  -20.0540   19.6010 C   0  0  0  0  0  3  0  0  0  0  0  0
  -30.5410  -18.1270   20.9510 C   0  0  0  0  0  0  0  0  0  0  0  0
  -30.4840  -18.7980   19.6940 C   0  0  0  0  0  0  0  0  0  0  0  0
  -29.2810  -20.6910   20.7400 C   0  0  0  0  0  0  0  0  0  0  0  0
  -28.6550  -21.9490   20.6840 N   0  0  0  0  0  0  0  0  0  0  0  0
  -28.2370  -22.3020   21.5420 H   0  0  0  0  0  0  0  0  0  0  0  0
  -29.1740  -23.0340   19.8360 C   0  0  0  0  0  2  0  0  0  0  0  0
  -28.6050  -24.4190   20.2320 C   0  0  0  0  0  0  0  0  0  0  0  0
  -27.8980  -24.5400   21.2410 O   0  0  0  0  0  0  0  0  0  0  0  0
  -28.9330  -25.6300   19.3240 C   0  0  0  0  0  2  0  0  0  0  0  0
  -28.7670  -26.8990   19.9990 O   0  0  0  0  0  0  0  0  0  0  0  0
  -24.6090  -31.7350   23.2100 C   0  0  0  0  0  0  0  0  0  0  0  0
  -27.5490  -27.5550   19.9880 C   0  0  0  0  0  0  0  0  0  0  0  0
  -23.5280  -30.3610   21.4630 C   0  0  0  0  0  3  0  0  0  0  0  0
  -25.0910  -28.9680   20.0170 C   0  0  0  0  0  0  0  0  0  0  0  0
  -26.0480  -30.8310   21.3830 C   0  0  0  0  0  2  0  0  0  0  0  0
  -26.2100  -29.5070   20.6600 C   0  0  0  0  0  0  0  0  0  0  0  0
  -27.4400  -28.8090   20.6360 C   0  0  0  0  0  3  0  0  0  0  0  0
  -26.3960  -27.0210   19.3610 C   0  0  0  0  0  3  0  0  0  0  0  0
  -25.1770  -27.7250   19.3670 C   0  0  0  0  0  3  0  0  0  0  0  0
  -23.8140  -29.7700   20.0610 C   0  0  0  0  0  2  0  0  0  0  0  0
  -24.7440  -30.9900   22.0760 N   0  0  0  0  0  0  0  0  0  0  0  0
  -23.4990  -31.9340   23.7240 O   0  0  0  0  0  0  0  0  0  0  0  0
  -22.8960  -29.2640   22.3500 C   0  0  0  0  0  0  0  0  0  0  0  0
  -21.5820  -29.0370   22.1790 N   0  0  0  0  0  0  0  0  0  0  0  0
  -23.5840  -28.6200   23.1470 O   0  0  0  0  0  0  0  0  0  0  0  0
  -21.0900  -29.6050   21.5040 H   0  0  0  0  0  0  0  0  0  0  0  0
  -18.2340  -27.7290   22.5730 C   0  0  0  0  0  0  0  0  0  0  0  0
  -20.7840  -28.0310   22.8790 C   0  0  0  0  0  3  0  0  0  0  0  0
  -20.9250  -26.6460   22.2040 C   0  0  0  0  0  2  0  0  0  0  0  0
  -19.8350  -26.3670   21.1640 C   0  0  0  0  0  2  0  0  0  0  0  0
  -18.4470  -26.4340   21.8080 C   0  0  0  0  0  2  0  0  0  0  0  0
  -19.3320  -28.4870   23.0610 C   0  0  0  0  0  0  0  0  0  0  0  0
  -19.0790  -29.6990   23.7370 C   0  0  0  0  0  3  0  0  0  0  0  0
  -17.7610  -30.1560   23.9300 C   0  0  0  0  0  3  0  0  0  0  0  0
  -16.6780  -29.3920   23.4600 C   0  0  0  0  0  3  0  0  0  0  0  0
  -16.9160  -28.1810   22.7860 C   0  0  0  0  0  3  0  0  0  0  0  0
  -25.8440  -32.3940   23.9030 C   0  0  0  0  0  3  0  0  0  0  0  0
  -25.4860  -33.7830   24.2140 N   0  0  0  0  0  0  0  0  0  0  0  0
  -25.8330  -34.8430   23.4700 C   0  0  0  0  0  0  0  0  0  0  0  0
  -26.5600  -34.7550   22.4770 O   0  0  0  0  0  0  0  0  0  0  0  0
  -24.8510  -33.9270   24.9840 H   0  0  0  0  0  0  0  0  0  0  0  0
  -24.0880  -36.5950   23.0130 C   0  0  0  0  0  1  0  0  0  0  0  0
  -25.2870  -36.2190   23.8990 C   0  0  0  0  0  3  0  0  0  0  0  0
  -27.3350  -37.1550   24.8710 C   0  0  0  0  0  1  0  0  0  0  0  0
  -26.3000  -37.2950   23.8500 N   0  0  0  0  0  0  0  0  0  0  0  0
  -25.8650  -38.2070   23.9660 H   0  0  0  0  0  0  0  0  0  0  0  0
  -26.3080  -31.6340   25.2070 C   0  0  1  0  0  0  0  0  0  0  0  0
  -25.1600  -31.3590   26.2060 C   0  0  0  0  0  1  0  0  0  0  0  0
  -26.9550  -30.2760   24.8530 C   0  0  0  0  0  1  0  0  0  0  0  0
  -27.3940  -32.4610   25.9340 C   0  0  0  0  0  1  0  0  0  0  0  0
  -31.0910  -18.1940   18.4240 C   0  0  0  0  0  2  0  0  0  0  0  0
  -32.4840  -20.3040   17.8750 C   0  0  0  0  0  1  0  0  0  0  0  0
  -33.5960  -18.3230   18.9040 C   0  0  0  0  0  1  0  0  0  0  0  0
  -32.7530  -18.2020   16.5480 C   0  0  0  0  0  1  0  0  0  0  0  0
  -32.4660  -18.7640   17.9550 C   0  0  1  0  0  0  0  0  0  0  0  0
  -31.2710  -16.7930   21.1730 C   0  0  0  0  0  2  0  0  0  0  0  0
  -31.0380  -14.5890   20.0360 C   0  0  0  0  0  0  0  0  0  0  0  0
  -30.5650  -12.4850   18.8340 C   0  0  0  0  0  2  0  0  0  0  0  0
  -29.5450  -12.7090   17.7030 C   0  0  0  0  0  2  0  0  0  0  0  0
  -28.1080  -12.5770   18.2400 C   0  0  0  0  0  2  0  0  0  0  0  0
  -27.8680  -13.4100   19.5270 C   0  0  0  0  0  3  0  0  0  0  0  0
  -28.9960  -13.1830   20.5590 C   0  0  0  0  0  2  0  0  0  0  0  0
  -30.2840  -13.4650   19.8990 N   0  0  0  0  0  0  0  0  0  0  0  0
  -32.1070  -14.7420   19.4420 O   0  0  0  0  0  0  0  0  0  0  0  0
  -30.5360  -15.5730   20.8030 N   0  0  0  0  0  0  0  0  0  0  0  0
  -29.6360  -15.4200   21.2280 H   0  0  0  0  0  0  0  0  0  0  0  0
  -25.5380  -14.0250   20.4310 C   0  0  0  0  0  0  0  0  0  0  0  0
  -24.4830  -13.2560   20.8420 C   0  0  0  0  0  0  0  0  0  0  0  0
  -24.9140  -11.9000   20.7250 C   0  0  0  0  0  0  0  0  0  0  0  0
  -26.5470  -13.1380   20.0930 N   0  0  0  0  0  0  0  0  0  0  0  0
  -26.1790  -11.8530   20.3270 N   0  0  0  0  0  0  0  0  0  0  0  0
  -24.1760  -10.6430   20.9130 C   0  0  0  0  0  0  0  0  0  0  0  0
  -24.5890   -9.6800   21.8590 C   0  0  0  0  0  3  0  0  0  0  0  0
  -23.8540   -8.4880   22.0360 C   0  0  0  0  0  3  0  0  0  0  0  0
  -22.6920   -8.2490   21.2640 C   0  0  0  0  0  0  0  0  0  0  0  0
  -22.2980   -9.2020   20.3070 C   0  0  0  0  0  3  0  0  0  0  0  0
  -23.0340  -10.3850   20.1300 C   0  0  0  0  0  3  0  0  0  0  0  0
  -21.9320   -7.1080   21.3470 O   0  0  0  0  0  0  0  0  0  0  0  0
  -21.7850   -6.4250   22.5270 C   0  0  0  0  0  0  0  0  0  0  0  0
  -21.1990   -7.0200   23.6650 C   0  0  0  0  0  3  0  0  0  0  0  0
  -21.0050   -6.2610   24.8360 C   0  0  0  0  0  3  0  0  0  0  0  0
  -21.3890   -4.9080   24.8700 C   0  0  0  0  0  0  0  0  0  0  0  0
  -21.9670   -4.3110   23.7370 C   0  0  0  0  0  3  0  0  0  0  0  0
  -22.1640   -5.0680   22.5680 C   0  0  0  0  0  0  0  0  0  0  0  0
  -22.7020   -4.4830   21.4700 F   0  0  0  0  0  0  0  0  0  0  0  0
  -21.1960   -4.1770   25.9920 F   0  0  0  0  0  0  0  0  0  0  0  0
  -23.1170  -13.7460   21.2320 C   0  0  0  0  0  0  0  0  0  0  0  0
  -22.4400  -13.0290   22.1220 N   0  0  0  0  0  0  0  0  0  0  0  0
  -22.6620  -14.7950   20.7810 O   0  0  0  0  0  0  0  0  0  0  0  0
  -22.8240  -12.1780   22.5070 H   0  0  0  0  0  0  0  0  0  0  0  0
  -21.5270  -13.3370   22.4260 H   0  0  0  0  0  0  0  0  0  0  0  0
  -25.7210  -15.3990   20.3010 N   0  0  0  0  0  0  0  0  0  0  0  0
  -24.9870  -16.0690   20.5050 H   0  0  0  0  0  0  0  0  0  0  0  0
  -26.5680  -15.8330   19.9530 H   0  0  0  0  0  0  0  0  0  0  0  0
  2  1  1  0
  3  5  2  0
  3  6  1  0
  4 59  1  0
  4  1  2  0
  5  4  1  0
  6  2  2  0
  7  6  1  0
  7  8  1  0
  9 10  1  0
  9  7  1  0
 10 11  2  0
 12 13  1  0
 12 10  1  0
 14 25  2  0
 15 13  1  0
 15 20  1  0
 16 24  1  0
 16 26  1  0
 17 23  1  0
 17 19  1  0
 18 24  1  0
 19 18  1  0
 20 19  2  0
 21 22  1  0
 21 15  2  0
 22 17  2  0
 23 16  1  0
 24 14  1  0
 26 28  2  0
 27 26  1  0
 29 27  1  0
 30 39  2  0
 30 35  1  0
 31 27  1  0
 31 35  1  0
 32 31  1  0
 33 34  1  0
 33 32  1  0
 34 30  1  0
 35 36  2  0
 36 37  1  0
 38 37  2  0
 39 38  1  0
 40 14  1  0
 40 41  1  0
 40 50  1  0
 41 44  1  0
 42 46  1  0
 42 41  1  0
 43 42  2  0
 46 45  1  0
 48 46  1  0
 48 49  1  0
 48 47  1  0
 50 53  1  1
 50 51  1  0
 52 50  1  0
 54  5  1  0
 58 55  1  6
 57 58  1  0
 58 54  1  0
 58 56  1  0
 60 68  1  0
 61 66  1  0
 62 63  1  0
 62 61  1  0
 64 63  1  0
 64 73  1  0
 64 65  1  0
 66 60  1  0
 66 65  1  0
 67 60  2  0
 68 59  1  0
 68 69  1  0
 70 71  2  0
 71 90  1  0
 72 71  1  0
 72 75  1  0
 73 74  1  0
 73 70  1  0
 74 72  2  0
 75 76  1  0
 76 77  2  0
 78 81  1  0
 78 77  1  0
 79 78  2  0
 80 79  1  0
 80 75  2  0
 81 82  1  0
 82 87  2  0
 82 83  1  0
 83 84  2  0
 84 85  1  0
 85 89  1  0
 86 85  2  0
 87 86  1  0
 88 87  1  0
 90 91  1  0
 91 94  1  0
 91 93  1  0
 92 90  2  0
 95 70  1  0
 95 96  1  0
 97 95  1  0
M  ISO  4  12 101  13 101  60 100  68 100
M  END
>  <TORSDO>  (15) 
F 23

>  <SCORE>  (15) 
-11.324

>  <name>  (15) 
14

>  <ligand_id>  (15) 
14

>  <original_smiles>  (15) 
[H]c1c([H])c([H])c2c(c1[H])C([H])([H])C([H])([H])C([H])([H])C2([H])N([H])C(=O)C1([H])N(C(=O)C([H])(N([H])C(=O)C([H])(N([H])C([H])([H])[H])C([H])([H])[H])C(C([H])([H])[H])(C([H])([H])[H])C([H])([H])[H])C([H])([H])c2c([H])c(OC([H])([H])C(=O)C([H])([H])N([H])c3c([H])c([H])c(C([H])([H])N([H])C(=O)N4C([H])([H])C([H])([H])C([H])([H])C([H])(n5nc(-c6c([H])c([H])c(Oc7c([H])c([H])c(F)c([H])c7F)c([H])c6[H])c(C(=O)N([H])[H])c5N([H])[H])C4([H])[H])c(C([H])([H])C(C([H])([H])[H])(C([H])([H])[H])C([H])([H])[H])c3[H])c([H])c([H])c2C1([H])[H]

>  <smiles>  (15) 
[H]c1c([H])c([H])c2c(c1[H])C([H])([H])C([H])([H])C([H])([H])C2([H])N([H])C(=O)C1([H])N(C(=O)C([H])(N([H])C(=O)C([H])(N([H])C([H])([H])[H])C([H])([H])[H])C(C([H])([H])[H])(C([H])([H])[H])C([H])([H])[H])C([H])([H])c2c([H])c(OC([H])([H])C(=O)C([H])([H])N([H])c3c([H])c([H])c(C([H])([H])N([H])C(=O)N4C([H])([H])C([H])([H])C([H])([H])C([H])(n5nc(-c6c([H])c([H])c(Oc7c([H])c([H])c(F)c([H])c7F)c([H])c6[H])c(C(=O)N([H])[H])c5N([H])[H])C4([H])[H])c(C([H])([H])C(C([H])([H])[H])(C([H])([H])[H])C([H])([H])[H])c3[H])c([H])c([H])c2C1([H])[H]

$$$$
15:0:0
     RDKit          3D

 97105  0  0  1  0  0  0  0  0999 V2000
  -31.7820  -18.3300   19.2690 C   0  0  0  0  0  3  0  0  0  0  0  0
  -31.8950  -19.4090   18.3770 C   0  0  0  0  0  3  0  0  0  0  0  0
  -30.7850  -19.8270   20.9360 C   0  0  0  0  0  0  0  0  0  0  0  0
  -31.2560  -18.5170   20.5620 C   0  0  0  0  0  0  0  0  0  0  0  0
  -30.8920  -20.9380   20.0190 C   0  0  0  0  0  0  0  0  0  0  0  0
  -31.4740  -20.6960   18.7510 C   0  0  0  0  0  0  0  0  0  0  0  0
  -31.6010  -21.6980   17.8480 F   0  0  0  0  0  0  0  0  0  0  0  0
  -30.1460  -19.9890   22.2730 C   0  0  0  0  0  0  0  0  0  0  0  0
  -29.0600  -19.4750   22.5590 O   0  0  0  0  0  0  0  0  0  0  0  0
  -30.3880  -20.5880   24.7620 C   0  0  0  0  0  1  0  0  0  0  0  0
  -30.9460  -20.7520   23.3370 C   0  0  0  0  0  2  0  0  0  0  0  0
  -30.3980  -22.2490   20.2860 N   0  0  0  0  0  0  0  0  0  0  0  0
  -29.5700  -22.3400   20.8630 H   0  0  0  0  0  0  0  0  0  0  0  0
  -31.3160  -23.4160   20.3460 C   0  0  0  0  0  2  0  0  0  0  0  0
  -30.7280  -24.7890   19.9030 C   0  0  0  0  0  0  0  0  0  0  0  0
  -30.4030  -24.9830   18.7250 O   0  0  0  0  0  0  0  0  0  0  0  0
  -30.5290  -25.8900   20.9810 C   0  0  0  0  0  2  0  0  0  0  0  0
  -30.4950  -27.2460   20.4560 O   0  0  0  0  0  0  0  0  0  0  0  0
  -25.6980  -31.2910   23.9020 C   0  0  0  0  0  0  0  0  0  0  0  0
  -29.2480  -27.8420   20.4580 C   0  0  0  0  0  0  0  0  0  0  0  0
  -24.8680  -30.0360   21.9400 C   0  0  0  0  0  3  0  0  0  0  0  0
  -26.6570  -28.9910   20.4520 C   0  0  0  0  0  0  0  0  0  0  0  0
  -27.3150  -30.7770   22.0700 C   0  0  0  0  0  2  0  0  0  0  0  0
  -27.6710  -29.5620   21.2330 C   0  0  0  0  0  0  0  0  0  0  0  0
  -28.9720  -28.9990   21.2290 C   0  0  0  0  0  3  0  0  0  0  0  0
  -28.2170  -27.2920   19.6690 C   0  0  0  0  0  3  0  0  0  0  0  0
  -26.9290  -27.8600   19.6630 C   0  0  0  0  0  3  0  0  0  0  0  0
  -25.2940  -29.6450   20.5010 C   0  0  0  0  0  2  0  0  0  0  0  0
  -25.9720  -30.7100   22.6990 N   0  0  0  0  0  0  0  0  0  0  0  0
  -24.5470  -31.3050   24.3610 O   0  0  0  0  0  0  0  0  0  0  0  0
  -24.3110  -28.7800   22.6530 C   0  0  0  0  0  0  0  0  0  0  0  0
  -23.0790  -28.3840   22.2940 N   0  0  0  0  0  0  0  0  0  0  0  0
  -24.9920  -28.1740   23.4840 O   0  0  0  0  0  0  0  0  0  0  0  0
  -22.5850  -28.9390   21.6100 H   0  0  0  0  0  0  0  0  0  0  0  0
  -20.0240  -26.4730   22.0090 C   0  0  0  0  0  0  0  0  0  0  0  0
  -22.3710  -27.2090   22.8040 C   0  0  0  0  0  3  0  0  0  0  0  0
  -22.8920  -25.9140   22.1350 C   0  0  0  0  0  2  0  0  0  0  0  0
  -22.0820  -25.5080   20.8990 C   0  0  0  0  0  2  0  0  0  0  0  0
  -20.6130  -25.2860   21.2670 C   0  0  0  0  0  2  0  0  0  0  0  0
  -20.8510  -27.3850   22.7170 C   0  0  0  0  0  0  0  0  0  0  0  0
  -20.2560  -28.4910   23.3620 C   0  0  0  0  0  3  0  0  0  0  0  0
  -18.8640  -28.6930   23.3070 C   0  0  0  0  0  3  0  0  0  0  0  0
  -18.0490  -27.7780   22.6200 C   0  0  0  0  0  3  0  0  0  0  0  0
  -18.6270  -26.6700   21.9770 C   0  0  0  0  0  3  0  0  0  0  0  0
  -26.8100  -31.9850   24.7470 C   0  0  0  0  0  3  0  0  0  0  0  0
  -26.3070  -33.3090   25.1410 N   0  0  0  0  0  0  0  0  0  0  0  0
  -26.6070  -34.4550   24.5130 C   0  0  0  0  0  0  0  0  0  0  0  0
  -27.4030  -34.5130   23.5730 O   0  0  0  0  0  0  0  0  0  0  0  0
  -25.6080  -33.3290   25.8680 H   0  0  0  0  0  0  0  0  0  0  0  0
  -24.7290  -36.0730   24.0860 C   0  0  0  0  0  1  0  0  0  0  0  0
  -25.9120  -35.7380   25.0090 C   0  0  0  0  0  3  0  0  0  0  0  0
  -27.8290  -36.7710   26.1420 C   0  0  0  0  0  1  0  0  0  0  0  0
  -26.8200  -36.9020   25.0950 N   0  0  0  0  0  0  0  0  0  0  0  0
  -26.2960  -37.7570   25.2650 H   0  0  0  0  0  0  0  0  0  0  0  0
  -27.2370  -31.1520   26.0160 C   0  0  1  0  0  0  0  0  0  0  0  0
  -26.0480  -30.7130   26.9020 C   0  0  0  0  0  1  0  0  0  0  0  0
  -28.0090  -29.8800   25.5970 C   0  0  0  0  0  1  0  0  0  0  0  0
  -28.2020  -31.9860   26.8910 C   0  0  0  0  0  1  0  0  0  0  0  0
  -31.3830  -17.3140   21.5350 C   0  0  0  0  0  2  0  0  0  0  0  0
  -31.6080  -14.9080   20.7350 C   0  0  0  0  0  0  0  0  0  0  0  0
  -31.3390  -12.6260   19.8080 C   0  0  0  0  0  2  0  0  0  0  0  0
  -30.4990  -12.6890   18.5140 C   0  0  0  0  0  2  0  0  0  0  0  0
  -28.9920  -12.6430   18.8350 C   0  0  0  0  0  2  0  0  0  0  0  0
  -28.5860  -13.6460   19.9500 C   0  0  0  0  0  3  0  0  0  0  0  0
  -29.5380  -13.5300   21.1600 C   0  0  0  0  0  2  0  0  0  0  0  0
  -30.9090  -13.7400   20.6670 N   0  0  0  0  0  0  0  0  0  0  0  0
  -32.7870  -14.9990   20.3870 O   0  0  0  0  0  0  0  0  0  0  0  0
  -30.8890  -15.9920   21.1040 N   0  0  0  0  0  0  0  0  0  0  0  0
  -29.9140  -15.8120   21.2910 H   0  0  0  0  0  0  0  0  0  0  0  0
  -26.2100  -14.4440   20.5250 C   0  0  0  0  0  0  0  0  0  0  0  0
  -25.0580  -13.7590   20.8050 C   0  0  0  0  0  0  0  0  0  0  0  0
  -25.4050  -12.3740   20.7690 C   0  0  0  0  0  0  0  0  0  0  0  0
  -27.1890  -13.4810   20.3390 N   0  0  0  0  0  0  0  0  0  0  0  0
  -26.7050  -12.2290   20.5440 N   0  0  0  0  0  0  0  0  0  0  0  0
  -24.5650  -11.1750   20.8810 C   0  0  0  0  0  0  0  0  0  0  0  0
  -24.8590  -10.1490   21.8060 C   0  0  0  0  0  3  0  0  0  0  0  0
  -24.0250   -9.0150   21.9060 C   0  0  0  0  0  3  0  0  0  0  0  0
  -22.8820   -8.9000   21.0800 C   0  0  0  0  0  0  0  0  0  0  0  0
  -22.6070   -9.9120   20.1440 C   0  0  0  0  0  3  0  0  0  0  0  0
  -23.4410  -11.0380   20.0420 C   0  0  0  0  0  3  0  0  0  0  0  0
  -22.0290   -7.8230   21.0890 O   0  0  0  0  0  0  0  0  0  0  0  0
  -21.8410   -7.0640   22.2170 C   0  0  0  0  0  0  0  0  0  0  0  0
  -21.3790   -7.6280   23.4260 C   0  0  0  0  0  3  0  0  0  0  0  0
  -21.1340   -6.8000   24.5410 C   0  0  0  0  0  3  0  0  0  0  0  0
  -21.3400   -5.4110   24.4460 C   0  0  0  0  0  0  0  0  0  0  0  0
  -21.7940   -4.8470   23.2400 C   0  0  0  0  0  3  0  0  0  0  0  0
  -22.0410   -5.6720   22.1280 C   0  0  0  0  0  0  0  0  0  0  0  0
  -22.4590   -5.1200   20.9630 F   0  0  0  0  0  0  0  0  0  0  0  0
  -21.0960   -4.6150   25.5120 F   0  0  0  0  0  0  0  0  0  0  0  0
  -23.6920  -14.3490   21.0020 C   0  0  0  0  0  0  0  0  0  0  0  0
  -22.8570  -13.7040   21.8100 N   0  0  0  0  0  0  0  0  0  0  0  0
  -23.3740  -15.4150   20.4770 O   0  0  0  0  0  0  0  0  0  0  0  0
  -23.1260  -12.8390   22.2550 H   0  0  0  0  0  0  0  0  0  0  0  0
  -21.9370  -14.0820   21.9860 H   0  0  0  0  0  0  0  0  0  0  0  0
  -26.5000  -15.7980   20.3950 N   0  0  0  0  0  0  0  0  0  0  0  0
  -25.7880  -16.5140   20.4870 H   0  0  0  0  0  0  0  0  0  0  0  0
  -27.4150  -16.1790   20.1860 H   0  0  0  0  0  0  0  0  0  0  0  0
  1  4  1  0
  2  6  1  0
  2  1  2  0
  3  8  1  0
  4  3  2  0
  4 59  1  0
  5 12  1  0
  5  3  1  0
  6  5  2  0
  7  6  1  0
  8  9  2  0
  8 11  1  0
 11 10  1  0
 12 14  1  0
 12 13  1  0
 15 14  1  0
 15 17  1  0
 16 15  2  0
 18 20  1  0
 18 17  1  0
 19 30  2  0
 20 25  1  0
 21 31  1  0
 21 29  1  0
 22 28  1  0
 22 24  1  0
 23 29  1  0
 24 23  1  0
 25 24  2  0
 26 20  2  0
 27 26  1  0
 27 22  2  0
 28 21  1  0
 29 19  1  0
 31 33  2  0
 32 31  1  0
 34 32  1  0
 35 40  1  0
 36 32  1  0
 37 36  1  0
 38 39  1  0
 38 37  1  0
 39 35  1  0
 40 36  1  0
 40 41  2  0
 42 41  1  0
 43 42  2  0
 44 35  2  0
 44 43  1  0
 45 19  1  0
 45 46  1  0
 45 55  1  0
 46 49  1  0
 47 51  1  0
 47 46  1  0
 48 47  2  0
 51 50  1  0
 51 53  1  0
 53 54  1  0
 53 52  1  0
 55 58  1  1
 55 56  1  0
 57 55  1  0
 60 68  1  0
 61 66  1  0
 62 63  1  0
 62 61  1  0
 64 63  1  0
 64 73  1  0
 64 65  1  0
 66 60  1  0
 66 65  1  0
 67 60  2  0
 68 69  1  0
 68 59  1  0
 70 71  2  0
 71 90  1  0
 72 71  1  0
 72 75  1  0
 73 70  1  0
 73 74  1  0
 74 72  2  0
 75 76  1  0
 76 77  2  0
 78 81  1  0
 78 77  1  0
 79 78  2  0
 80 79  1  0
 80 75  2  0
 81 82  1  0
 82 83  1  0
 83 84  2  0
 85 84  1  0
 85 89  1  0
 86 85  2  0
 87 82  2  0
 87 86  1  0
 88 87  1  0
 90 91  1  0
 91 94  1  0
 91 93  1  0
 92 90  2  0
 95 96  1  0
 95 70  1  0
 97 95  1  0
M  ISO  4  17 101  18 101  60 100  68 100
M  END
>  <TORSDO>  (16) 
F 23

>  <SCORE>  (16) 
-6.781

>  <name>  (16) 
15

>  <ligand_id>  (16) 
15

>  <original_smiles>  (16) 
[H]c1c([H])c([H])c2c(c1[H])C([H])([H])C([H])([H])C([H])([H])C2([H])N([H])C(=O)C1([H])N(C(=O)C([H])(N([H])C(=O)C([H])(N([H])C([H])([H])[H])C([H])([H])[H])C(C([H])([H])[H])(C([H])([H])[H])C([H])([H])[H])C([H])([H])c2c([H])c(OC([H])([H])C(=O)C([H])([H])N([H])c3c(F)c([H])c([H])c(C([H])([H])N([H])C(=O)N4C([H])([H])C([H])([H])C([H])([H])C([H])(n5nc(-c6c([H])c([H])c(Oc7c([H])c([H])c(F)c([H])c7F)c([H])c6[H])c(C(=O)N([H])[H])c5N([H])[H])C4([H])[H])c3C(=O)C([H])([H])C([H])([H])[H])c([H])c([H])c2C1([H])[H]

>  <smiles>  (16) 
[H]c1c([H])c([H])c2c(c1[H])C([H])([H])C([H])([H])C([H])([H])C2([H])N([H])C(=O)C1([H])N(C(=O)C([H])(N([H])C(=O)C([H])(N([H])C([H])([H])[H])C([H])([H])[H])C(C([H])([H])[H])(C([H])([H])[H])C([H])([H])[H])C([H])([H])c2c([H])c(OC([H])([H])C(=O)C([H])([H])N([H])c3c(F)c([H])c([H])c(C([H])([H])N([H])C(=O)N4C([H])([H])C([H])([H])C([H])([H])C([H])(n5nc(-c6c([H])c([H])c(Oc7c([H])c([H])c(F)c([H])c7F)c([H])c6[H])c(C(=O)N([H])[H])c5N([H])[H])C4([H])[H])c3C(=O)C([H])([H])C([H])([H])[H])c([H])c([H])c2C1([H])[H]

$$$$
16:0:0
     RDKit          3D

 96104  0  0  1  0  0  0  0  0999 V2000
  -30.0130  -18.9610   17.9260 C   0  0  0  0  0  3  0  0  0  0  0  0
  -30.6370  -17.9220   18.6320 C   0  0  0  0  0  3  0  0  0  0  0  0
  -29.8340  -20.2220   18.5220 C   0  0  0  0  0  3  0  0  0  0  0  0
  -30.8290  -19.3840   20.5890 C   0  0  0  0  0  0  0  0  0  0  0  0
  -31.0710  -18.1140   19.9600 C   0  0  0  0  0  0  0  0  0  0  0  0
  -30.2380  -20.4720   19.8550 C   0  0  0  0  0  0  0  0  0  0  0  0
  -31.1440  -19.5360   22.0340 C   0  0  0  0  0  0  0  0  0  0  0  0
  -30.5540  -18.9040   22.9160 O   0  0  0  0  0  0  0  0  0  0  0  0
  -32.4330  -20.7450   23.8910 C   0  0  0  0  0  1  0  0  0  0  0  0
  -32.2990  -20.4780   22.3830 C   0  0  0  0  0  2  0  0  0  0  0  0
  -30.0420  -21.7730   20.4020 N   0  0  0  0  0  0  0  0  0  0  0  0
  -30.2290  -21.9760   21.3820 H   0  0  0  0  0  0  0  0  0  0  0  0
  -29.7240  -22.9510   19.5600 C   0  0  0  0  0  2  0  0  0  0  0  0
  -29.4130  -24.2700   20.3230 C   0  0  0  0  0  0  0  0  0  0  0  0
  -29.2960  -24.2710   21.5540 O   0  0  0  0  0  0  0  0  0  0  0  0
  -29.2660  -25.5720   19.4810 C   0  0  0  0  0  2  0  0  0  0  0  0
  -28.9930  -26.7690   20.2570 O   0  0  0  0  0  0  0  0  0  0  0  0
  -24.6900  -31.5800   23.2960 C   0  0  0  0  0  0  0  0  0  0  0  0
  -27.7620  -27.4080   20.1890 C   0  0  0  0  0  0  0  0  0  0  0  0
  -23.6490  -30.1500   21.5700 C   0  0  0  0  0  3  0  0  0  0  0  0
  -25.2620  -28.7660   20.1500 C   0  0  0  0  0  0  0  0  0  0  0  0
  -26.1520  -30.6860   21.4790 C   0  0  0  0  0  2  0  0  0  0  0  0
  -26.3580  -29.3430   20.8000 C   0  0  0  0  0  0  0  0  0  0  0  0
  -27.6050  -28.6710   20.8190 C   0  0  0  0  0  3  0  0  0  0  0  0
  -26.6380  -26.8480   19.5370 C   0  0  0  0  0  3  0  0  0  0  0  0
  -25.3990  -27.5190   19.5150 C   0  0  0  0  0  3  0  0  0  0  0  0
  -23.9540  -29.5310   20.1810 C   0  0  0  0  0  2  0  0  0  0  0  0
  -24.8460  -30.8200   22.1750 N   0  0  0  0  0  0  0  0  0  0  0  0
  -23.5740  -31.7570   23.8020 O   0  0  0  0  0  0  0  0  0  0  0  0
  -23.0400  -29.0540   22.4750 C   0  0  0  0  0  0  0  0  0  0  0  0
  -21.7550  -28.7330   22.2470 N   0  0  0  0  0  0  0  0  0  0  0  0
  -23.7240  -28.4960   23.3370 O   0  0  0  0  0  0  0  0  0  0  0  0
  -21.2600  -29.2460   21.5300 H   0  0  0  0  0  0  0  0  0  0  0  0
  -18.5440  -27.0800   22.3930 C   0  0  0  0  0  0  0  0  0  0  0  0
  -20.9890  -27.7060   22.9520 C   0  0  0  0  0  3  0  0  0  0  0  0
  -21.3560  -26.2900   22.4460 C   0  0  0  0  0  2  0  0  0  0  0  0
  -20.4390  -25.7930   21.3220 C   0  0  0  0  0  2  0  0  0  0  0  0
  -18.9840  -25.7550   21.7920 C   0  0  0  0  0  2  0  0  0  0  0  0
  -19.4850  -28.0020   22.9230 C   0  0  0  0  0  0  0  0  0  0  0  0
  -19.0240  -29.2350   23.4350 C   0  0  0  0  0  3  0  0  0  0  0  0
  -17.6510  -29.5500   23.4230 C   0  0  0  0  0  3  0  0  0  0  0  0
  -16.7220  -28.6280   22.9100 C   0  0  0  0  0  3  0  0  0  0  0  0
  -17.1690  -27.3940   22.4030 C   0  0  0  0  0  3  0  0  0  0  0  0
  -25.9030  -32.2840   23.9820 C   0  0  0  0  0  3  0  0  0  0  0  0
  -25.5320  -33.6860   24.2010 N   0  0  0  0  0  0  0  0  0  0  0  0
  -25.9340  -34.7090   23.4340 C   0  0  0  0  0  0  0  0  0  0  0  0
  -26.7250  -34.5720   22.4980 O   0  0  0  0  0  0  0  0  0  0  0  0
  -24.8310  -33.8610   24.9060 H   0  0  0  0  0  0  0  0  0  0  0  0
  -24.2360  -36.4500   22.7810 C   0  0  0  0  0  1  0  0  0  0  0  0
  -25.3730  -36.1050   23.7590 C   0  0  0  0  0  3  0  0  0  0  0  0
  -27.3750  -37.0740   24.8040 C   0  0  0  0  0  1  0  0  0  0  0  0
  -26.3950  -37.1750   23.7250 N   0  0  0  0  0  0  0  0  0  0  0  0
  -25.9590  -38.0920   23.7790 H   0  0  0  0  0  0  0  0  0  0  0  0
  -26.3350  -31.6010   25.3380 C   0  0  1  0  0  0  0  0  0  0  0  0
  -25.1690  -31.4090   26.3360 C   0  0  0  0  0  1  0  0  0  0  0  0
  -26.9660  -30.2120   25.0800 C   0  0  0  0  0  1  0  0  0  0  0  0
  -27.4250  -32.4570   26.0290 C   0  0  0  0  0  1  0  0  0  0  0  0
  -31.8820  -16.9650   20.6140 C   0  0  0  0  0  2  0  0  0  0  0  0
  -32.0420  -14.5220   19.9110 C   0  0  0  0  0  0  0  0  0  0  0  0
  -31.5920  -12.2790   18.9700 C   0  0  0  0  0  2  0  0  0  0  0  0
  -30.5900  -12.4150   17.8040 C   0  0  0  0  0  2  0  0  0  0  0  0
  -29.1370  -12.4130   18.3210 C   0  0  0  0  0  2  0  0  0  0  0  0
  -28.9210  -13.3890   19.5090 C   0  0  0  0  0  3  0  0  0  0  0  0
  -30.0160  -13.1910   20.5790 C   0  0  0  0  0  2  0  0  0  0  0  0
  -31.3190  -13.3700   19.9190 N   0  0  0  0  0  0  0  0  0  0  0  0
  -33.1560  -14.6140   19.3880 O   0  0  0  0  0  0  0  0  0  0  0  0
  -31.3890  -15.5950   20.4060 N   0  0  0  0  0  0  0  0  0  0  0  0
  -30.4680  -15.4030   20.7670 H   0  0  0  0  0  0  0  0  0  0  0  0
  -26.7090  -14.2500   20.5040 C   0  0  0  0  0  0  0  0  0  0  0  0
  -25.5620  -13.6030   20.8760 C   0  0  0  0  0  0  0  0  0  0  0  0
  -25.7990  -12.2130   20.6440 C   0  0  0  0  0  0  0  0  0  0  0  0
  -27.5810  -13.2610   20.0750 N   0  0  0  0  0  0  0  0  0  0  0  0
  -27.0400  -12.0250   20.2130 N   0  0  0  0  0  0  0  0  0  0  0  0
  -24.8980  -11.0600   20.7500 C   0  0  0  0  0  0  0  0  0  0  0  0
  -25.2220   -9.9400   21.5500 C   0  0  0  0  0  3  0  0  0  0  0  0
  -24.3310   -8.8510   21.6500 C   0  0  0  0  0  3  0  0  0  0  0  0
  -23.1010   -8.8730   20.9510 C   0  0  0  0  0  0  0  0  0  0  0  0
  -22.7950   -9.9780   20.1370 C   0  0  0  0  0  3  0  0  0  0  0  0
  -23.6840  -11.0600   20.0350 C   0  0  0  0  0  3  0  0  0  0  0  0
  -22.1870   -7.8480   20.9660 O   0  0  0  0  0  0  0  0  0  0  0  0
  -21.9800   -7.0870   22.0890 C   0  0  0  0  0  0  0  0  0  0  0  0
  -21.5680   -7.6600   23.3120 C   0  0  0  0  0  3  0  0  0  0  0  0
  -21.2990   -6.8330   24.4220 C   0  0  0  0  0  3  0  0  0  0  0  0
  -21.4300   -5.4370   24.3080 C   0  0  0  0  0  0  0  0  0  0  0  0
  -21.8330   -4.8640   23.0890 C   0  0  0  0  0  3  0  0  0  0  0  0
  -22.1040   -5.6870   21.9820 C   0  0  0  0  0  0  0  0  0  0  0  0
  -22.4720   -5.1290   20.8040 F   0  0  0  0  0  0  0  0  0  0  0  0
  -21.1640   -4.6420   25.3710 F   0  0  0  0  0  0  0  0  0  0  0  0
  -24.2820  -14.2410   21.3340 C   0  0  0  0  0  0  0  0  0  0  0  0
  -23.5470  -13.5770   22.2150 N   0  0  0  0  0  0  0  0  0  0  0  0
  -23.9530  -15.3620   20.9440 O   0  0  0  0  0  0  0  0  0  0  0  0
  -23.8270  -12.6660   22.5490 H   0  0  0  0  0  0  0  0  0  0  0  0
  -22.6900  -13.9840   22.5640 H   0  0  0  0  0  0  0  0  0  0  0  0
  -27.0790  -15.5920   20.4770 N   0  0  0  0  0  0  0  0  0  0  0  0
  -26.4340  -16.3330   20.7330 H   0  0  0  0  0  0  0  0  0  0  0  0
  -27.9630  -15.9400   20.1270 H   0  0  0  0  0  0  0  0  0  0  0  0
  1  3  2  0
  1  2  1  0
  2  5  2  0
  3  6  1  0
  4  7  1  0
  5  4  1  0
  5 58  1  0
  6 11  1  0
  6  4  2  0
  7 10  1  0
  7  8  2  0
 10  9  1  0
 11 12  1  0
 13 14  1  0
 13 11  1  0
 14 15  2  0
 16 17  1  0
 16 14  1  0
 18 29  2  0
 19 17  1  0
 19 24  1  0
 20 28  1  0
 20 30  1  0
 21 27  1  0
 21 23  1  0
 22 28  1  0
 23 24  2  0
 23 22  1  0
 25 19  2  0
 26 25  1  0
 26 21  2  0
 27 20  1  0
 28 18  1  0
 30 32  2  0
 31 30  1  0
 33 31  1  0
 34 43  2  0
 34 39  1  0
 35 31  1  0
 36 35  1  0
 37 38  1  0
 37 36  1  0
 38 34  1  0
 39 35  1  0
 39 40  2  0
 41 40  1  0
 42 41  2  0
 43 42  1  0
 44 18  1  0
 44 45  1  0
 44 54  1  0
 45 48  1  0
 46 50  1  0
 46 45  1  0
 47 46  2  0
 50 49  1  0
 52 50  1  0
 52 53  1  0
 52 51  1  0
 54 57  1  1
 54 55  1  0
 56 54  1  0
 59 65  1  0
 59 67  1  0
 60 65  1  0
 61 62  1  0
 61 60  1  0
 63 62  1  0
 63 72  1  0
 63 64  1  0
 65 64  1  0
 66 59  2  0
 67 58  1  0
 67 68  1  0
 69 70  2  0
 70 89  1  0
 71 74  1  0
 71 70  1  0
 72 73  1  0
 72 69  1  0
 73 71  2  0
 74 75  1  0
 75 76  2  0
 77 80  1  0
 77 76  1  0
 78 77  2  0
 79 78  1  0
 79 74  2  0
 80 81  1  0
 81 82  1  0
 82 83  2  0
 84 83  1  0
 84 88  1  0
 85 84  2  0
 86 81  2  0
 86 85  1  0
 87 86  1  0
 89 90  1  0
 90 92  1  0
 90 93  1  0
 91 89  2  0
 94 69  1  0
 94 95  1  0
 96 94  1  0
M  ISO  4  16 101  17 101  59 100  67 100
M  END
>  <TORSDO>  (17) 
F 23

>  <SCORE>  (17) 
-10.667

>  <name>  (17) 
16

>  <ligand_id>  (17) 
16

>  <original_smiles>  (17) 
[H]c1c([H])c(N([H])C([H])([H])C(=O)C([H])([H])Oc2c([H])c([H])c3c(c2[H])C([H])([H])N(C(=O)C([H])(N([H])C(=O)C([H])(N([H])C([H])([H])[H])C([H])([H])[H])C(C([H])([H])[H])(C([H])([H])[H])C([H])([H])[H])C([H])(C(=O)N([H])C2([H])c4c([H])c([H])c([H])c([H])c4C([H])([H])C([H])([H])C2([H])[H])C3([H])[H])c(C(=O)C([H])([H])C([H])([H])[H])c(C([H])([H])N([H])C(=O)N2C([H])([H])C([H])([H])C([H])([H])C([H])(n3nc(-c4c([H])c([H])c(Oc5c([H])c([H])c(F)c([H])c5F)c([H])c4[H])c(C(=O)N([H])[H])c3N([H])[H])C2([H])[H])c1[H]

>  <smiles>  (17) 
[H]c1c([H])c(N([H])C([H])([H])C(=O)C([H])([H])Oc2c([H])c([H])c3c(c2[H])C([H])([H])N(C(=O)C([H])(N([H])C(=O)C([H])(N([H])C([H])([H])[H])C([H])([H])[H])C(C([H])([H])[H])(C([H])([H])[H])C([H])([H])[H])C([H])(C(=O)N([H])C2([H])c4c([H])c([H])c([H])c([H])c4C([H])([H])C([H])([H])C2([H])[H])C3([H])[H])c(C(=O)C([H])([H])C([H])([H])[H])c(C([H])([H])N([H])C(=O)N2C([H])([H])C([H])([H])C([H])([H])C([H])(n3nc(-c4c([H])c([H])c(Oc5c([H])c([H])c(F)c([H])c5F)c([H])c4[H])c(C(=O)N([H])[H])c3N([H])[H])C2([H])[H])c1[H]

$$$$
17:0:0
     RDKit          3D

 96104  0  0  1  0  0  0  0  0999 V2000
  -29.0570  -20.6120   20.7680 C   0  0  0  0  0  0  0  0  0  0  0  0
  -29.3030  -21.8860   20.3940 N   0  0  0  0  0  0  0  0  0  0  0  0
  -27.8690  -20.3250   21.2950 N   0  0  0  0  0  4  0  0  0  0  0  0
  -30.1760  -22.0910   19.9210 H   0  0  0  0  0  0  0  0  0  0  0  0
  -27.7050  -19.4000   21.6630 H   0  0  0  0  0  0  0  0  0  0  0  0
  -27.1240  -20.9980   21.3560 H   0  0  0  0  0  0  0  0  0  0  0  0
  -29.7050  -18.1610   20.6090 C   0  0  0  0  0  3  0  0  0  0  0  0
  -31.4340  -19.8860   20.7010 C   0  0  0  0  0  3  0  0  0  0  0  0
  -32.0550  -17.5260   20.6440 C   0  0  0  0  0  3  0  0  0  0  0  0
  -30.0670  -19.5390   20.6670 C   0  0  0  0  0  0  0  0  0  0  0  0
  -30.6920  -17.1370   20.5900 C   0  0  0  0  0  0  0  0  0  0  0  0
  -32.4190  -18.8840   20.6890 C   0  0  0  0  0  0  0  0  0  0  0  0
  -33.7280  -19.2320   20.7400 F   0  0  0  0  0  0  0  0  0  0  0  0
  -30.9660  -14.6980   20.0470 C   0  0  0  0  0  0  0  0  0  0  0  0
  -30.6360  -12.4830   19.0060 C   0  0  0  0  0  2  0  0  0  0  0  0
  -29.6500  -12.6200   17.8280 C   0  0  0  0  0  2  0  0  0  0  0  0
  -28.1970  -12.4820   18.3180 C   0  0  0  0  0  2  0  0  0  0  0  0
  -27.8930  -13.3730   19.5520 C   0  0  0  0  0  3  0  0  0  0  0  0
  -28.9920  -13.2280   20.6300 C   0  0  0  0  0  2  0  0  0  0  0  0
  -30.2890  -13.5170   19.9970 N   0  0  0  0  0  0  0  0  0  0  0  0
  -32.0710  -14.8360   19.5170 O   0  0  0  0  0  0  0  0  0  0  0  0
  -30.2900  -15.7520   20.5640 N   0  0  0  0  0  0  0  0  0  0  0  0
  -29.3520  -15.5460   20.8700 H   0  0  0  0  0  0  0  0  0  0  0  0
  -25.5440  -13.9910   20.4000 C   0  0  0  0  0  0  0  0  0  0  0  0
  -24.4850  -13.2230   20.8030 C   0  0  0  0  0  0  0  0  0  0  0  0
  -24.9230  -11.8670   20.7110 C   0  0  0  0  0  0  0  0  0  0  0  0
  -26.5630  -13.1030   20.0920 N   0  0  0  0  0  0  0  0  0  0  0  0
  -26.1960  -11.8180   20.3370 N   0  0  0  0  0  0  0  0  0  0  0  0
  -24.1880  -10.6100   20.9030 C   0  0  0  0  0  0  0  0  0  0  0  0
  -24.5800   -9.6660   21.8770 C   0  0  0  0  0  3  0  0  0  0  0  0
  -23.8470   -8.4730   22.0540 C   0  0  0  0  0  3  0  0  0  0  0  0
  -22.7060   -8.2160   21.2570 C   0  0  0  0  0  0  0  0  0  0  0  0
  -22.3340   -9.1480   20.2730 C   0  0  0  0  0  3  0  0  0  0  0  0
  -23.0690  -10.3320   20.0930 C   0  0  0  0  0  3  0  0  0  0  0  0
  -21.9480   -7.0740   21.3420 O   0  0  0  0  0  0  0  0  0  0  0  0
  -21.7700   -6.4140   22.5310 C   0  0  0  0  0  0  0  0  0  0  0  0
  -21.1430   -7.0280   23.6370 C   0  0  0  0  0  3  0  0  0  0  0  0
  -20.9190   -6.2910   24.8170 C   0  0  0  0  0  3  0  0  0  0  0  0
  -21.3120   -4.9410   24.8910 C   0  0  0  0  0  0  0  0  0  0  0  0
  -21.9320   -4.3270   23.7890 C   0  0  0  0  0  3  0  0  0  0  0  0
  -22.1580   -5.0620   22.6110 C   0  0  0  0  0  0  0  0  0  0  0  0
  -22.7370   -4.4580   21.5450 F   0  0  0  0  0  0  0  0  0  0  0  0
  -21.0890   -4.2310   26.0220 F   0  0  0  0  0  0  0  0  0  0  0  0
  -23.1100  -13.7130   21.1590 C   0  0  0  0  0  0  0  0  0  0  0  0
  -22.4130  -12.9970   22.0340 N   0  0  0  0  0  0  0  0  0  0  0  0
  -22.6660  -14.7620   20.6950 O   0  0  0  0  0  0  0  0  0  0  0  0
  -22.7860  -12.1460   22.4290 H   0  0  0  0  0  0  0  0  0  0  0  0
  -21.4930  -13.3040   22.3140 H   0  0  0  0  0  0  0  0  0  0  0  0
  -25.7200  -15.3640   20.2490 N   0  0  0  0  0  0  0  0  0  0  0  0
  -24.9620  -16.0210   20.3950 H   0  0  0  0  0  0  0  0  0  0  0  0
  -26.5430  -15.7930   19.8460 H   0  0  0  0  0  0  0  0  0  0  0  0
  -28.4150  -23.0700   20.5890 C   0  0  0  0  0  2  0  0  0  0  0  0
  -29.0420  -24.4380   20.2360 C   0  0  0  0  0  0  0  0  0  0  0  0
  -30.0310  -24.5110   19.4940 O   0  0  0  0  0  0  0  0  0  0  0  0
  -28.3940  -25.6850   20.8830 C   0  0  0  0  0  2  0  0  0  0  0  0
  -28.5760  -26.9110   20.1370 O   0  0  0  0  0  0  0  0  0  0  0  0
  -24.6440  -31.9580   23.2930 C   0  0  0  0  0  0  0  0  0  0  0  0
  -27.4290  -27.6750   20.1110 C   0  0  0  0  0  0  0  0  0  0  0  0
  -23.4930  -30.5790   21.5940 C   0  0  0  0  0  3  0  0  0  0  0  0
  -25.0030  -29.1280   20.1340 C   0  0  0  0  0  0  0  0  0  0  0  0
  -26.0120  -31.0090   21.4360 C   0  0  0  0  0  2  0  0  0  0  0  0
  -26.1410  -29.6610   20.7520 C   0  0  0  0  0  0  0  0  0  0  0  0
  -27.3620  -28.9440   20.7350 C   0  0  0  0  0  3  0  0  0  0  0  0
  -26.2770  -27.1640   19.4780 C   0  0  0  0  0  3  0  0  0  0  0  0
  -25.0660  -27.8800   19.4900 C   0  0  0  0  0  3  0  0  0  0  0  0
  -23.7350  -29.9510   20.1950 C   0  0  0  0  0  2  0  0  0  0  0  0
  -24.7340  -31.1950   22.1670 N   0  0  0  0  0  0  0  0  0  0  0  0
  -23.5510  -32.1840   23.8300 O   0  0  0  0  0  0  0  0  0  0  0  0
  -22.8580  -29.5110   22.5140 C   0  0  0  0  0  0  0  0  0  0  0  0
  -21.5390  -29.3050   22.3710 N   0  0  0  0  0  0  0  0  0  0  0  0
  -23.5490  -28.8730   23.3120 O   0  0  0  0  0  0  0  0  0  0  0  0
  -21.0410  -29.8750   21.7000 H   0  0  0  0  0  0  0  0  0  0  0  0
  -18.1800  -28.0510   22.8310 C   0  0  0  0  0  0  0  0  0  0  0  0
  -20.7370  -28.3250   23.1020 C   0  0  0  0  0  3  0  0  0  0  0  0
  -20.8520  -26.9220   22.4600 C   0  0  0  0  0  2  0  0  0  0  0  0
  -19.7480  -26.6340   21.4380 C   0  0  0  0  0  2  0  0  0  0  0  0
  -18.3680  -26.7350   22.0950 C   0  0  0  0  0  2  0  0  0  0  0  0
  -19.2930  -28.8050   23.2900 C   0  0  0  0  0  0  0  0  0  0  0  0
  -19.0640  -30.0390   23.9380 C   0  0  0  0  0  3  0  0  0  0  0  0
  -17.7550  -30.5180   24.1310 C   0  0  0  0  0  3  0  0  0  0  0  0
  -16.6570  -29.7600   23.6890 C   0  0  0  0  0  3  0  0  0  0  0  0
  -16.8700  -28.5290   23.0450 C   0  0  0  0  0  3  0  0  0  0  0  0
  -25.9070  -32.6010   23.9470 C   0  0  0  0  0  3  0  0  0  0  0  0
  -26.3840  -31.8490   25.2500 C   0  0  1  0  0  0  0  0  0  0  0  0
  -25.2530  -31.6040   26.2750 C   0  0  0  0  0  1  0  0  0  0  0  0
  -27.0020  -30.4770   24.8920 C   0  0  0  0  0  1  0  0  0  0  0  0
  -27.4950  -32.6650   25.9500 C   0  0  0  0  0  1  0  0  0  0  0  0
  -25.5850  -34.0040   24.2450 N   0  0  0  0  0  0  0  0  0  0  0  0
  -25.9380  -35.0430   23.4780 C   0  0  0  0  0  0  0  0  0  0  0  0
  -26.6400  -34.9240   22.4690 O   0  0  0  0  0  0  0  0  0  0  0  0
  -24.9660  -34.1700   25.0250 H   0  0  0  0  0  0  0  0  0  0  0  0
  -24.2230  -36.8270   23.0310 C   0  0  0  0  0  1  0  0  0  0  0  0
  -25.4330  -36.4380   23.8950 C   0  0  0  0  0  3  0  0  0  0  0  0
  -27.5300  -37.3430   24.7980 C   0  0  0  0  0  1  0  0  0  0  0  0
  -26.4690  -37.4900   23.8050 N   0  0  0  0  0  0  0  0  0  0  0  0
  -26.0560  -38.4120   23.9160 H   0  0  0  0  0  0  0  0  0  0  0  0
  1  3  2  0
  2 52  1  0
  2  1  1  0
  3  6  1  0
  3  5  1  0
  4  2  1  0
  7 10  1  0
  9 12  2  0
 10  8  2  0
 10  1  1  0
 11  7  2  0
 11  9  1  0
 12  8  1  0
 12 13  1  0
 14 22  1  0
 15 20  1  0
 16 17  1  0
 16 15  1  0
 18 17  1  0
 18 27  1  0
 18 19  1  0
 20 14  1  0
 20 19  1  0
 21 14  2  0
 22 11  1  0
 22 23  1  0
 24 25  2  0
 25 44  1  0
 26 25  1  0
 26 29  1  0
 27 28  1  0
 27 24  1  0
 28 26  2  0
 29 30  1  0
 30 31  2  0
 32 35  1  0
 32 31  1  0
 33 32  2  0
 34 33  1  0
 34 29  2  0
 35 36  1  0
 36 41  2  0
 36 37  1  0
 37 38  2  0
 38 39  1  0
 39 43  1  0
 40 39  2  0
 41 40  1  0
 42 41  1  0
 44 45  1  0
 45 48  1  0
 45 47  1  0
 46 44  2  0
 49 50  1  0
 49 24  1  0
 51 49  1  0
 53 52  1  0
 53 55  1  0
 54 53  2  0
 56 55  1  0
 57 68  2  0
 58 56  1  0
 58 63  1  0
 59 67  1  0
 59 69  1  0
 60 66  1  0
 60 62  1  0
 61 67  1  0
 62 61  1  0
 63 62  2  0
 64 65  1  0
 64 58  2  0
 65 60  2  0
 66 59  1  0
 67 57  1  0
 69 71  2  0
 70 69  1  0
 72 70  1  0
 73 82  2  0
 73 78  1  0
 74 70  1  0
 74 78  1  0
 75 74  1  0
 76 77  1  0
 76 75  1  0
 77 73  1  0
 78 79  2  0
 79 80  1  0
 81 80  2  0
 82 81  1  0
 83 57  1  0
 83 88  1  0
 83 84  1  0
 84 87  1  1
 84 85  1  0
 86 84  1  0
 88 91  1  0
 89 93  1  0
 89 88  1  0
 90 89  2  0
 93 92  1  0
 95 93  1  0
 95 96  1  0
 95 94  1  0
M  ISO  4  14 100  22 100  55 101  56 101
M  END
>  <TORSDO>  (18) 
F 20

>  <SCORE>  (18) 
-13.692

>  <name>  (18) 
17

>  <ligand_id>  (18) 
17

>  <original_smiles>  (18) 
[H]c1c([H])c([H])c2c(c1[H])C([H])([H])C([H])([H])C([H])([H])C2([H])N([H])C(=O)C1([H])N(C(=O)C([H])(N([H])C(=O)C([H])(N([H])C([H])([H])[H])C([H])([H])[H])C(C([H])([H])[H])(C([H])([H])[H])C([H])([H])[H])C([H])([H])c2c([H])c(OC([H])([H])C(=O)C([H])([H])N([H])C(c3c([H])c(F)c([H])c(N([H])C(=O)N4C([H])([H])C([H])([H])C([H])([H])C([H])(n5nc(-c6c([H])c([H])c(Oc7c([H])c([H])c(F)c([H])c7F)c([H])c6[H])c(C(=O)N([H])[H])c5N([H])[H])C4([H])[H])c3[H])=[N+]([H])[H])c([H])c([H])c2C1([H])[H]

>  <smiles>  (18) 
[H]c1c([H])c([H])c2c(c1[H])C([H])([H])C([H])([H])C([H])([H])C2([H])N([H])C(=O)C1([H])N(C(=O)C([H])(N([H])C(=O)C([H])(N([H])C([H])([H])[H])C([H])([H])[H])C(C([H])([H])[H])(C([H])([H])[H])C([H])([H])[H])C([H])([H])c2c([H])c(OC([H])([H])C(=O)C([H])([H])N([H])C(c3c([H])c(F)c([H])c(N([H])C(=O)N4C([H])([H])C([H])([H])C([H])([H])C([H])(n5nc(-c6c([H])c([H])c(Oc7c([H])c([H])c(F)c([H])c7F)c([H])c6[H])c(C(=O)N([H])[H])c5N([H])[H])C4([H])[H])c3[H])=[N+]([H])[H])c([H])c([H])c2C1([H])[H]

$$$$
18:0:0
     RDKit          3D

 93101  0  0  1  0  0  0  0  0999 V2000
  -29.9890  -21.5540   20.0560 N   0  0  0  0  0  0  0  0  0  0  0  0
  -30.8600  -21.9570   19.7240 H   0  0  0  0  0  0  0  0  0  0  0  0
  -28.8430  -17.9350   20.5960 C   0  0  0  0  0  3  0  0  0  0  0  0
  -31.2080  -17.9590   20.1690 C   0  0  0  0  0  3  0  0  0  0  0  0
  -30.0450  -17.1910   20.4430 C   0  0  0  0  0  0  0  0  0  0  0  0
  -29.9510  -20.1230   20.1970 C   0  0  0  0  0  0  0  0  0  0  0  0
  -28.7860  -19.3560   20.4770 C   0  0  0  0  0  0  0  0  0  0  0  0
  -31.1580  -19.3810   20.0520 C   0  0  0  0  0  0  0  0  0  0  0  0
  -27.5900  -19.9740   20.6350 F   0  0  0  0  0  0  0  0  0  0  0  0
  -32.3060  -20.0530   19.7860 F   0  0  0  0  0  0  0  0  0  0  0  0
  -30.7690  -14.7160   20.0720 C   0  0  0  0  0  0  0  0  0  0  0  0
  -30.5050  -12.5140   18.9500 C   0  0  0  0  0  2  0  0  0  0  0  0
  -29.4870  -12.6810   17.8000 C   0  0  0  0  0  2  0  0  0  0  0  0
  -28.0430  -12.5030   18.3110 C   0  0  0  0  0  2  0  0  0  0  0  0
  -27.7600  -13.3210   19.5980 C   0  0  0  0  0  3  0  0  0  0  0  0
  -28.8850  -13.1250   20.6410 C   0  0  0  0  0  2  0  0  0  0  0  0
  -30.1580  -13.4910   20.0000 N   0  0  0  0  0  0  0  0  0  0  0  0
  -31.8910  -14.9040   19.5950 O   0  0  0  0  0  0  0  0  0  0  0  0
  -29.9930  -15.7310   20.5650 N   0  0  0  0  0  0  0  0  0  0  0  0
  -29.1410  -15.3790   20.9770 H   0  0  0  0  0  0  0  0  0  0  0  0
  -25.4150  -13.8890   20.4860 C   0  0  0  0  0  0  0  0  0  0  0  0
  -24.3720  -13.1000   20.8920 C   0  0  0  0  0  0  0  0  0  0  0  0
  -24.8310  -11.7520   20.7770 C   0  0  0  0  0  0  0  0  0  0  0  0
  -26.4420  -13.0200   20.1530 N   0  0  0  0  0  0  0  0  0  0  0  0
  -26.0990  -11.7270   20.3860 N   0  0  0  0  0  0  0  0  0  0  0  0
  -24.1160  -10.4810   20.9610 C   0  0  0  0  0  0  0  0  0  0  0  0
  -24.5440   -9.5240   21.9070 C   0  0  0  0  0  3  0  0  0  0  0  0
  -23.8300   -8.3180   22.0780 C   0  0  0  0  0  3  0  0  0  0  0  0
  -22.6740   -8.0610   21.3030 C   0  0  0  0  0  0  0  0  0  0  0  0
  -22.2670   -9.0080   20.3470 C   0  0  0  0  0  3  0  0  0  0  0  0
  -22.9810  -10.2050   20.1740 C   0  0  0  0  0  3  0  0  0  0  0  0
  -21.9340   -6.9080   21.3830 O   0  0  0  0  0  0  0  0  0  0  0  0
  -21.7930   -6.2220   22.5630 C   0  0  0  0  0  0  0  0  0  0  0  0
  -21.2000   -6.8100   23.7000 C   0  0  0  0  0  3  0  0  0  0  0  0
  -21.0120   -6.0480   24.8700 C   0  0  0  0  0  3  0  0  0  0  0  0
  -21.4090   -4.6980   24.9030 C   0  0  0  0  0  0  0  0  0  0  0  0
  -21.9970   -4.1090   23.7700 C   0  0  0  0  0  3  0  0  0  0  0  0
  -22.1850   -4.8680   22.6020 C   0  0  0  0  0  0  0  0  0  0  0  0
  -22.7320   -4.2900   21.5060 F   0  0  0  0  0  0  0  0  0  0  0  0
  -21.2230   -3.9630   26.0250 F   0  0  0  0  0  0  0  0  0  0  0  0
  -22.9960  -13.5640   21.2700 C   0  0  0  0  0  0  0  0  0  0  0  0
  -22.3210  -12.8280   22.1480 N   0  0  0  0  0  0  0  0  0  0  0  0
  -22.5280  -14.6100   20.8250 O   0  0  0  0  0  0  0  0  0  0  0  0
  -22.7130  -11.9800   22.5300 H   0  0  0  0  0  0  0  0  0  0  0  0
  -21.4000  -13.1190   22.4430 H   0  0  0  0  0  0  0  0  0  0  0  0
  -25.5690  -15.2660   20.3520 N   0  0  0  0  0  0  0  0  0  0  0  0
  -24.8030  -15.9080   20.5210 H   0  0  0  0  0  0  0  0  0  0  0  0
  -26.3760  -15.7150   19.9400 H   0  0  0  0  0  0  0  0  0  0  0  0
  -28.8970  -22.5350   20.3440 C   0  0  0  0  0  2  0  0  0  0  0  0
  -29.2160  -24.0650   20.0920 C   0  0  0  0  0  0  0  0  0  0  0  0
  -30.3130  -24.3960   19.6290 O   0  0  0  0  0  0  0  0  0  0  0  0
  -28.1210  -25.1420   20.4400 C   0  0  0  0  0  2  0  0  0  0  0  0
  -28.4070  -26.5510   20.0800 O   0  0  0  0  0  0  0  0  0  0  0  0
  -24.6350  -31.8580   23.1870 C   0  0  0  0  0  0  0  0  0  0  0  0
  -27.2920  -27.3980   20.0510 C   0  0  0  0  0  0  0  0  0  0  0  0
  -23.4480  -30.4930   21.5050 C   0  0  0  0  0  3  0  0  0  0  0  0
  -24.9170  -28.9850   20.0560 C   0  0  0  0  0  0  0  0  0  0  0  0
  -25.9860  -30.8310   21.3480 C   0  0  0  0  0  2  0  0  0  0  0  0
  -26.0780  -29.4690   20.6730 C   0  0  0  0  0  0  0  0  0  0  0  0
  -27.2700  -28.6870   20.6620 C   0  0  0  0  0  3  0  0  0  0  0  0
  -26.1140  -26.9720   19.3960 C   0  0  0  0  0  3  0  0  0  0  0  0
  -24.9360  -27.7410   19.4080 C   0  0  0  0  0  3  0  0  0  0  0  0
  -23.6750  -29.8500   20.1120 C   0  0  0  0  0  2  0  0  0  0  0  0
  -24.7080  -31.0760   22.0710 N   0  0  0  0  0  0  0  0  0  0  0  0
  -23.5460  -32.1190   23.7200 O   0  0  0  0  0  0  0  0  0  0  0  0
  -22.7840  -29.4510   22.4360 C   0  0  0  0  0  0  0  0  0  0  0  0
  -21.4550  -29.2880   22.3100 N   0  0  0  0  0  0  0  0  0  0  0  0
  -23.4610  -28.7940   23.2320 O   0  0  0  0  0  0  0  0  0  0  0  0
  -20.9690  -29.8700   21.6430 H   0  0  0  0  0  0  0  0  0  0  0  0
  -18.0630  -28.1490   22.8320 C   0  0  0  0  0  0  0  0  0  0  0  0
  -20.6310  -28.3360   23.0560 C   0  0  0  0  0  3  0  0  0  0  0  0
  -20.6870  -26.9300   22.4130 C   0  0  0  0  0  2  0  0  0  0  0  0
  -19.5550  -26.6800   21.4110 C   0  0  0  0  0  2  0  0  0  0  0  0
  -18.1920  -26.8290   22.0920 C   0  0  0  0  0  2  0  0  0  0  0  0
  -19.2090  -28.8640   23.2700 C   0  0  0  0  0  0  0  0  0  0  0  0
  -19.0330  -30.1030   23.9240 C   0  0  0  0  0  3  0  0  0  0  0  0
  -17.7450  -30.6270   24.1410 C   0  0  0  0  0  3  0  0  0  0  0  0
  -16.6140  -29.9080   23.7180 C   0  0  0  0  0  3  0  0  0  0  0  0
  -16.7730  -28.6700   23.0690 C   0  0  0  0  0  3  0  0  0  0  0  0
  -25.9110  -32.4800   23.8320 C   0  0  0  0  0  3  0  0  0  0  0  0
  -26.4070  -31.6940   25.1090 C   0  0  1  0  0  0  0  0  0  0  0  0
  -25.2960  -31.4440   26.1550 C   0  0  0  0  0  1  0  0  0  0  0  0
  -26.9970  -30.3210   24.7110 C   0  0  0  0  0  1  0  0  0  0  0  0
  -27.5460  -32.4810   25.7980 C   0  0  0  0  0  1  0  0  0  0  0  0
  -25.6010  -33.8760   24.1720 N   0  0  0  0  0  0  0  0  0  0  0  0
  -25.9350  -34.9340   23.4210 C   0  0  0  0  0  0  0  0  0  0  0  0
  -26.6050  -34.8370   22.3900 O   0  0  0  0  0  0  0  0  0  0  0  0
  -25.0060  -34.0240   24.9740 H   0  0  0  0  0  0  0  0  0  0  0  0
  -24.2140  -36.7340   23.0700 C   0  0  0  0  0  1  0  0  0  0  0  0
  -25.4480  -36.3190   23.8870 C   0  0  0  0  0  3  0  0  0  0  0  0
  -27.5710  -37.2000   24.7530 C   0  0  0  0  0  1  0  0  0  0  0  0
  -26.4840  -37.3700   23.7920 N   0  0  0  0  0  0  0  0  0  0  0  0
  -26.0780  -38.2910   23.9330 H   0  0  0  0  0  0  0  0  0  0  0  0
  1  6  1  0
  1 49  1  0
  2  1  1  0
  4  5  1  0
  5 19  1  0
  5  3  2  0
  6  7  2  0
  7  3  1  0
  7  9  1  0
  8  4  2  0
  8  6  1  0
 10  8  1  0
 11 19  1  0
 12 17  1  0
 13 14  1  0
 13 12  1  0
 15 14  1  0
 15 24  1  0
 15 16  1  0
 17 11  1  0
 17 16  1  0
 18 11  2  0
 19 20  1  0
 21 22  2  0
 22 41  1  0
 23 22  1  0
 23 26  1  0
 24 25  1  0
 24 21  1  0
 25 23  2  0
 26 27  1  0
 27 28  2  0
 29 32  1  0
 29 28  1  0
 30 29  2  0
 31 30  1  0
 31 26  2  0
 32 33  1  0
 33 38  2  0
 33 34  1  0
 34 35  2  0
 35 36  1  0
 36 40  1  0
 37 36  2  0
 38 37  1  0
 39 38  1  0
 41 42  1  0
 42 45  1  0
 42 44  1  0
 43 41  2  0
 46 21  1  0
 46 47  1  0
 48 46  1  0
 50 49  1  0
 50 52  1  0
 51 50  2  0
 53 52  1  0
 54 65  2  0
 55 53  1  0
 55 60  1  0
 56 64  1  0
 56 66  1  0
 57 63  1  0
 57 59  1  0
 58 64  1  0
 59 58  1  0
 60 59  2  0
 61 62  1  0
 61 55  2  0
 62 57  2  0
 63 56  1  0
 64 54  1  0
 66 68  2  0
 67 66  1  0
 69 67  1  0
 70 79  2  0
 70 75  1  0
 71 67  1  0
 71 75  1  0
 72 71  1  0
 73 74  1  0
 73 72  1  0
 74 70  1  0
 75 76  2  0
 76 77  1  0
 78 77  2  0
 79 78  1  0
 80 54  1  0
 80 85  1  0
 80 81  1  0
 81 84  1  1
 81 82  1  0
 83 81  1  0
 85 88  1  0
 86 90  1  0
 86 85  1  0
 87 86  2  0
 90 89  1  0
 92 90  1  0
 92 93  1  0
 92 91  1  0
M  ISO  4  11 100  19 100  52 101  53 101
M  END
>  <TORSDO>  (19) 
F 20

>  <SCORE>  (19) 
-13.690

>  <name>  (19) 
18

>  <ligand_id>  (19) 
18

>  <original_smiles>  (19) 
[H]c1c([H])c([H])c2c(c1[H])C([H])([H])C([H])([H])C([H])([H])C2([H])N([H])C(=O)C1([H])N(C(=O)C([H])(N([H])C(=O)C([H])(N([H])C([H])([H])[H])C([H])([H])[H])C(C([H])([H])[H])(C([H])([H])[H])C([H])([H])[H])C([H])([H])c2c([H])c(OC([H])([H])C(=O)C([H])([H])N([H])c3c(F)c([H])c(N([H])C(=O)N4C([H])([H])C([H])([H])C([H])([H])C([H])(n5nc(-c6c([H])c([H])c(Oc7c([H])c([H])c(F)c([H])c7F)c([H])c6[H])c(C(=O)N([H])[H])c5N([H])[H])C4([H])[H])c([H])c3F)c([H])c([H])c2C1([H])[H]

>  <smiles>  (19) 
[H]c1c([H])c([H])c2c(c1[H])C([H])([H])C([H])([H])C([H])([H])C2([H])N([H])C(=O)C1([H])N(C(=O)C([H])(N([H])C(=O)C([H])(N([H])C([H])([H])[H])C([H])([H])[H])C(C([H])([H])[H])(C([H])([H])[H])C([H])([H])[H])C([H])([H])c2c([H])c(OC([H])([H])C(=O)C([H])([H])N([H])c3c(F)c([H])c(N([H])C(=O)N4C([H])([H])C([H])([H])C([H])([H])C([H])(n5nc(-c6c([H])c([H])c(Oc7c([H])c([H])c(F)c([H])c7F)c([H])c6[H])c(C(=O)N([H])[H])c5N([H])[H])C4([H])[H])c([H])c3F)c([H])c([H])c2C1([H])[H]

$$$$
19:0:0
     RDKit          3D

 95103  0  0  1  0  0  0  0  0999 V2000
  -31.3340  -14.4970   20.0410 C   0  0  0  0  0  0  0  0  0  0  0  0
  -31.1050  -12.0510   19.6160 C   0  0  0  0  0  2  0  0  0  0  0  0
  -30.2510  -11.8760   18.3390 C   0  0  0  0  0  2  0  0  0  0  0  0
  -28.7460  -11.8870   18.6760 C   0  0  0  0  0  2  0  0  0  0  0  0
  -28.3520  -13.0670   19.6020 C   0  0  0  0  0  3  0  0  0  0  0  0
  -29.3200  -13.1670   20.8050 C   0  0  0  0  0  2  0  0  0  0  0  0
  -30.6850  -13.3090   20.2690 N   0  0  0  0  0  0  0  0  0  0  0  0
  -32.5140  -14.5130   19.6660 O   0  0  0  0  0  0  0  0  0  0  0  0
  -29.3980  -17.7290   19.8400 C   0  0  0  0  0  3  0  0  0  0  0  0
  -29.1600  -19.0140   19.2560 C   0  0  0  0  0  0  0  0  0  0  0  0
  -30.1470  -19.5630   18.3610 C   0  0  0  0  0  0  0  0  0  0  0  0
  -31.2890  -18.7200   18.1660 C   0  0  0  0  0  0  0  0  0  0  0  0
  -30.5380  -16.9460   19.5570 C   0  0  0  0  0  0  0  0  0  0  0  0
  -32.4170  -19.1440   17.2400 C   0  0  0  0  0  1  0  0  0  0  0  0
  -31.4690  -17.4840   18.7310 N   0  0  0  0  0  0  0  0  0  0  0  0
  -30.5540  -15.6180   20.1660 N   0  0  0  0  0  0  0  0  0  0  0  0
  -29.6960  -15.3950   20.6440 H   0  0  0  0  0  0  0  0  0  0  0  0
  -26.0230  -13.9970   20.1630 C   0  0  0  0  0  0  0  0  0  0  0  0
  -24.8520  -13.3830   20.5160 C   0  0  0  0  0  0  0  0  0  0  0  0
  -25.1410  -11.9830   20.5700 C   0  0  0  0  0  0  0  0  0  0  0  0
  -26.9580  -12.9830   20.0280 N   0  0  0  0  0  0  0  0  0  0  0  0
  -26.4300  -11.7700   20.3320 N   0  0  0  0  0  0  0  0  0  0  0  0
  -24.2550  -10.8320   20.7800 C   0  0  0  0  0  0  0  0  0  0  0  0
  -24.5910   -9.7960   21.6780 C   0  0  0  0  0  3  0  0  0  0  0  0
  -23.7150   -8.7080   21.8770 C   0  0  0  0  0  3  0  0  0  0  0  0
  -22.4850   -8.6510   21.1790 C   0  0  0  0  0  0  0  0  0  0  0  0
  -22.1650   -9.6740   20.2680 C   0  0  0  0  0  3  0  0  0  0  0  0
  -23.0410  -10.7540   20.0680 C   0  0  0  0  0  3  0  0  0  0  0  0
  -21.5830   -7.6210   21.2880 O   0  0  0  0  0  0  0  0  0  0  0  0
  -21.5970   -6.7640   22.3590 C   0  0  0  0  0  0  0  0  0  0  0  0
  -21.4970   -7.2310   23.6870 C   0  0  0  0  0  3  0  0  0  0  0  0
  -21.4450   -6.3120   24.7550 C   0  0  0  0  0  3  0  0  0  0  0  0
  -21.4820   -4.9280   24.4950 C   0  0  0  0  0  0  0  0  0  0  0  0
  -21.5760   -4.4610   23.1720 C   0  0  0  0  0  3  0  0  0  0  0  0
  -21.6300   -5.3770   22.1080 C   0  0  0  0  0  0  0  0  0  0  0  0
  -21.6990   -4.9220   20.8330 F   0  0  0  0  0  0  0  0  0  0  0  0
  -21.4250   -4.0450   25.5200 F   0  0  0  0  0  0  0  0  0  0  0  0
  -23.5150  -14.0420   20.6920 C   0  0  0  0  0  0  0  0  0  0  0  0
  -22.6860  -13.5170   21.5870 N   0  0  0  0  0  0  0  0  0  0  0  0
  -23.2150  -15.0590   20.0670 O   0  0  0  0  0  0  0  0  0  0  0  0
  -22.9400  -12.6940   22.1140 H   0  0  0  0  0  0  0  0  0  0  0  0
  -21.7870  -13.9440   21.7500 H   0  0  0  0  0  0  0  0  0  0  0  0
  -26.3630  -15.3240   19.9230 N   0  0  0  0  0  0  0  0  0  0  0  0
  -25.6530  -16.0480   19.9040 H   0  0  0  0  0  0  0  0  0  0  0  0
  -27.2410  -15.6170   19.5140 H   0  0  0  0  0  0  0  0  0  0  0  0
  -27.8620  -19.7010   19.6170 C   0  0  0  0  0  0  0  0  0  0  0  0
  -26.5970  -18.8490   19.7020 C   0  0  0  0  0  1  0  0  0  0  0  0
  -27.7350  -20.9050   19.8540 O   0  0  0  0  0  0  0  0  0  0  0  0
  -29.9960  -20.7530   17.5520 N   0  0  0  0  0  0  0  0  0  0  0  0
  -29.3720  -20.6610   16.7500 H   0  0  0  0  0  0  0  0  0  0  0  0
  -30.1180  -22.1850   17.9960 C   0  0  0  0  0  2  0  0  0  0  0  0
  -29.1500  -23.2450   17.3200 C   0  0  0  0  0  0  0  0  0  0  0  0
  -28.6710  -23.0070   16.2060 O   0  0  0  0  0  0  0  0  0  0  0  0
  -28.7610  -24.5630   18.1000 C   0  0  0  0  0  2  0  0  0  0  0  0
  -28.4420  -25.7670   17.2980 O   0  0  0  0  0  0  0  0  0  0  0  0
  -25.7410  -29.1800   23.0580 C   0  0  0  0  0  0  0  0  0  0  0  0
  -27.5110  -26.6570   17.8400 C   0  0  0  0  0  0  0  0  0  0  0  0
  -24.3370  -29.1480   21.0240 C   0  0  0  0  0  3  0  0  0  0  0  0
  -25.5040  -28.3950   18.8770 C   0  0  0  0  0  0  0  0  0  0  0  0
  -26.8910  -29.0650   20.8410 C   0  0  0  0  0  2  0  0  0  0  0  0
  -26.7260  -28.2730   19.5490 C   0  0  0  0  0  0  0  0  0  0  0  0
  -27.7410  -27.4210   19.0210 C   0  0  0  0  0  3  0  0  0  0  0  0
  -26.2790  -26.8240   17.1800 C   0  0  0  0  0  3  0  0  0  0  0  0
  -25.2840  -27.6840   17.6850 C   0  0  0  0  0  3  0  0  0  0  0  0
  -24.4570  -29.3070   19.4840 C   0  0  0  0  0  2  0  0  0  0  0  0
  -25.6760  -29.1110   21.6970 N   0  0  0  0  0  0  0  0  0  0  0  0
  -24.7170  -29.3070   23.7430 O   0  0  0  0  0  0  0  0  0  0  0  0
  -23.4640  -27.9070   21.3330 C   0  0  0  0  0  0  0  0  0  0  0  0
  -22.1330  -28.0620   21.2230 N   0  0  0  0  0  0  0  0  0  0  0  0
  -23.9870  -26.8310   21.6350 O   0  0  0  0  0  0  0  0  0  0  0  0
  -21.7820  -28.9790   20.9850 H   0  0  0  0  0  0  0  0  0  0  0  0
  -18.5840  -27.3800   21.1220 C   0  0  0  0  0  0  0  0  0  0  0  0
  -21.1270  -27.0180   21.4230 C   0  0  0  0  0  3  0  0  0  0  0  0
  -21.0350  -26.0860   20.1930 C   0  0  0  0  0  2  0  0  0  0  0  0
  -19.9670  -26.5200   19.1830 C   0  0  0  0  0  2  0  0  0  0  0  0
  -18.5860  -26.5540   19.8450 C   0  0  0  0  0  2  0  0  0  0  0  0
  -19.7790  -27.6100   21.8530 C   0  0  0  0  0  0  0  0  0  0  0  0
  -19.7280  -28.4120   23.0140 C   0  0  0  0  0  3  0  0  0  0  0  0
  -18.5130  -28.9770   23.4450 C   0  0  0  0  0  3  0  0  0  0  0  0
  -17.3290  -28.7300   22.7270 C   0  0  0  0  0  3  0  0  0  0  0  0
  -17.3650  -27.9320   21.5700 C   0  0  0  0  0  3  0  0  0  0  0  0
  -27.1030  -29.1290   23.8170 C   0  0  0  0  0  3  0  0  0  0  0  0
  -27.6260  -27.6590   24.0550 C   0  0  1  0  0  0  0  0  0  0  0  0
  -26.5820  -26.7260   24.7140 C   0  0  0  0  0  1  0  0  0  0  0  0
  -28.0640  -27.0120   22.7200 C   0  0  0  0  0  1  0  0  0  0  0  0
  -28.8800  -27.6870   24.9620 C   0  0  0  0  0  1  0  0  0  0  0  0
  -26.9260  -29.8260   25.0990 N   0  0  0  0  0  0  0  0  0  0  0  0
  -27.4690  -31.0130   25.4000 C   0  0  0  0  0  0  0  0  0  0  0  0
  -28.2360  -31.6110   24.6380 O   0  0  0  0  0  0  0  0  0  0  0  0
  -26.2700  -29.4200   25.7480 H   0  0  0  0  0  0  0  0  0  0  0  0
  -26.0910  -32.7760   26.5440 C   0  0  0  0  0  1  0  0  0  0  0  0
  -27.1010  -31.6390   26.7580 C   0  0  0  0  0  3  0  0  0  0  0  0
  -29.1550  -31.0920   27.9900 C   0  0  0  0  0  1  0  0  0  0  0  0
  -28.2700  -32.1480   27.5070 N   0  0  0  0  0  0  0  0  0  0  0  0
  -27.9730  -32.7020   28.3050 H   0  0  0  0  0  0  0  0  0  0  0  0
  1 16  1  0
  1  7  1  0
  2  7  1  0
  3  4  1  0
  3  2  1  0
  5  4  1  0
  5 21  1  0
  5  6  1  0
  7  6  1  0
  8  1  2  0
 10 46  1  0
 10  9  2  0
 11 10  1  0
 12 11  2  0
 12 15  1  0
 13  9  1  0
 13 16  1  0
 14 12  1  0
 15 13  2  0
 16 17  1  0
 18 19  2  0
 19 20  1  0
 19 38  1  0
 20 23  1  0
 21 18  1  0
 21 22  1  0
 22 20  2  0
 23 24  1  0
 24 25  2  0
 26 29  1  0
 26 25  1  0
 27 26  2  0
 28 27  1  0
 28 23  2  0
 29 30  1  0
 30 31  1  0
 31 32  2  0
 33 32  1  0
 33 37  1  0
 34 33  2  0
 35 30  2  0
 35 34  1  0
 36 35  1  0
 38 39  1  0
 39 42  1  0
 39 41  1  0
 40 38  2  0
 43 18  1  0
 44 43  1  0
 45 43  1  0
 46 47  1  0
 46 48  2  0
 49 51  1  0
 49 11  1  0
 50 49  1  0
 52 51  1  0
 52 54  1  0
 53 52  2  0
 55 57  1  0
 55 54  1  0
 56 67  2  0
 57 62  1  0
 58 68  1  0
 58 66  1  0
 59 65  1  0
 59 61  1  0
 60 66  1  0
 61 60  1  0
 62 61  2  0
 63 64  1  0
 63 57  2  0
 64 59  2  0
 65 58  1  0
 66 56  1  0
 68 70  2  0
 69 68  1  0
 71 69  1  0
 72 81  2  0
 72 77  1  0
 73 69  1  0
 73 77  1  0
 74 73  1  0
 75 76  1  0
 75 74  1  0
 76 72  1  0
 77 78  2  0
 78 79  1  0
 80 79  2  0
 81 80  1  0
 82 56  1  0
 82 83  1  0
 82 87  1  0
 83 84  1  1
 83 86  1  0
 85 83  1  0
 87 88  1  0
 87 90  1  0
 88 92  1  0
 89 88  2  0
 92 91  1  0
 92 94  1  0
 94 93  1  0
 94 95  1  0
M  ISO  4   1 100  16 100  54 101  55 101
M  END
>  <TORSDO>  (20) 
F 20

>  <SCORE>  (20) 
-9.846

>  <name>  (20) 
19

>  <ligand_id>  (20) 
19

>  <original_smiles>  (20) 
[H]c1c([H])c([H])c2c(c1[H])C([H])([H])C([H])([H])C([H])([H])C2([H])N([H])C(=O)C1([H])N(C(=O)C([H])(N([H])C(=O)C([H])(N([H])C([H])([H])[H])C([H])([H])[H])C(C([H])([H])[H])(C([H])([H])[H])C([H])([H])[H])C([H])([H])c2c([H])c(OC([H])([H])C(=O)C([H])([H])N([H])c3c(C([H])([H])[H])nc(N([H])C(=O)N4C([H])([H])C([H])([H])C([H])([H])C([H])(n5nc(-c6c([H])c([H])c(Oc7c([H])c([H])c(F)c([H])c7F)c([H])c6[H])c(C(=O)N([H])[H])c5N([H])[H])C4([H])[H])c([H])c3C(=O)C([H])([H])[H])c([H])c([H])c2C1([H])[H]

>  <smiles>  (20) 
[H]c1c([H])c([H])c2c(c1[H])C([H])([H])C([H])([H])C([H])([H])C2([H])N([H])C(=O)C1([H])N(C(=O)C([H])(N([H])C(=O)C([H])(N([H])C([H])([H])[H])C([H])([H])[H])C(C([H])([H])[H])(C([H])([H])[H])C([H])([H])[H])C([H])([H])c2c([H])c(OC([H])([H])C(=O)C([H])([H])N([H])c3c(C([H])([H])[H])nc(N([H])C(=O)N4C([H])([H])C([H])([H])C([H])([H])C([H])(n5nc(-c6c([H])c([H])c(Oc7c([H])c([H])c(F)c([H])c7F)c([H])c6[H])c(C(=O)N([H])[H])c5N([H])[H])C4([H])[H])c([H])c3C(=O)C([H])([H])[H])c([H])c([H])c2C1([H])[H]

$$$$
20:0:0
     RDKit          3D

 99107  0  0  1  0  0  0  0  0999 V2000
  -30.7020  -21.2000   19.9390 C   0  0  0  0  0  0  0  0  0  0  0  0
  -31.8400  -21.5650   19.3220 N   0  0  0  0  0  4  0  0  0  0  0  0
  -29.8440  -22.1830   20.3270 N   0  0  0  0  0  0  0  0  0  0  0  0
  -32.5610  -20.8930   19.1040 H   0  0  0  0  0  0  0  0  0  0  0  0
  -32.0500  -22.5230   19.0860 H   0  0  0  0  0  0  0  0  0  0  0  0
  -28.9410  -21.9100   20.6950 H   0  0  0  0  0  0  0  0  0  0  0  0
  -30.7610  -14.5230   20.1160 C   0  0  0  0  0  0  0  0  0  0  0  0
  -30.4000  -12.3790   18.9500 C   0  0  0  0  0  2  0  0  0  0  0  0
  -29.4040  -12.6150   17.7940 C   0  0  0  0  0  2  0  0  0  0  0  0
  -27.9520  -12.4760   18.2900 C   0  0  0  0  0  2  0  0  0  0  0  0
  -27.6800  -13.2830   19.5880 C   0  0  0  0  0  3  0  0  0  0  0  0
  -28.7860  -13.0340   20.6400 C   0  0  0  0  0  2  0  0  0  0  0  0
  -30.0850  -13.3430   20.0180 N   0  0  0  0  0  0  0  0  0  0  0  0
  -31.8710  -14.6830   19.5960 O   0  0  0  0  0  0  0  0  0  0  0  0
  -30.0500  -19.2230   21.4120 C   0  0  0  0  0  3  0  0  0  0  0  0
  -29.9330  -17.8180   21.5750 C   0  0  0  0  0  3  0  0  0  0  0  0
  -30.6860  -18.8040   19.1440 C   0  0  0  0  0  3  0  0  0  0  0  0
  -30.4570  -19.7490   20.1680 C   0  0  0  0  0  0  0  0  0  0  0  0
  -30.2400  -16.9410   20.5080 C   0  0  0  0  0  0  0  0  0  0  0  0
  -30.5870  -17.4580   19.3040 N   0  0  0  0  0  0  0  0  0  0  0  0
  -30.1110  -15.5330   20.7410 N   0  0  0  0  0  0  0  0  0  0  0  0
  -29.3290  -15.2550   21.3120 H   0  0  0  0  0  0  0  0  0  0  0  0
  -25.3150  -13.8780   20.4090 C   0  0  0  0  0  0  0  0  0  0  0  0
  -24.2640  -13.1010   20.8130 C   0  0  0  0  0  0  0  0  0  0  0  0
  -24.7230  -11.7500   20.7460 C   0  0  0  0  0  0  0  0  0  0  0  0
  -26.3500  -13.0010   20.1220 N   0  0  0  0  0  0  0  0  0  0  0  0
  -25.9990  -11.7150   20.3820 N   0  0  0  0  0  0  0  0  0  0  0  0
  -24.0060  -10.4850   20.9530 C   0  0  0  0  0  0  0  0  0  0  0  0
  -24.4550   -9.5230   21.8850 C   0  0  0  0  0  3  0  0  0  0  0  0
  -23.7370   -8.3240   22.0780 C   0  0  0  0  0  3  0  0  0  0  0  0
  -22.5560   -8.0760   21.3380 C   0  0  0  0  0  0  0  0  0  0  0  0
  -22.1270   -9.0260   20.3950 C   0  0  0  0  0  3  0  0  0  0  0  0
  -22.8440  -10.2180   20.2000 C   0  0  0  0  0  3  0  0  0  0  0  0
  -21.8100   -6.9280   21.4410 O   0  0  0  0  0  0  0  0  0  0  0  0
  -21.7520   -6.2090   22.6080 C   0  0  0  0  0  0  0  0  0  0  0  0
  -21.2790   -6.7780   23.8100 C   0  0  0  0  0  3  0  0  0  0  0  0
  -21.1700   -5.9840   24.9700 C   0  0  0  0  0  3  0  0  0  0  0  0
  -21.5230   -4.6230   24.9280 C   0  0  0  0  0  0  0  0  0  0  0  0
  -21.9890   -4.0530   23.7300 C   0  0  0  0  0  3  0  0  0  0  0  0
  -22.1000   -4.8440   22.5720 C   0  0  0  0  0  0  0  0  0  0  0  0
  -22.5290   -4.2850   21.4150 F   0  0  0  0  0  0  0  0  0  0  0  0
  -21.4110   -3.8570   26.0380 F   0  0  0  0  0  0  0  0  0  0  0  0
  -22.8800  -13.5750   21.1540 C   0  0  0  0  0  0  0  0  0  0  0  0
  -22.1880  -12.8610   22.0350 N   0  0  0  0  0  0  0  0  0  0  0  0
  -22.4240  -14.6130   20.6750 O   0  0  0  0  0  0  0  0  0  0  0  0
  -22.5700  -12.0210   22.4420 H   0  0  0  0  0  0  0  0  0  0  0  0
  -21.2620  -13.1600   22.3070 H   0  0  0  0  0  0  0  0  0  0  0  0
  -25.4720  -15.2510   20.2420 N   0  0  0  0  0  0  0  0  0  0  0  0
  -24.7130  -15.9050   20.4010 H   0  0  0  0  0  0  0  0  0  0  0  0
  -26.3060  -15.6940   19.8750 H   0  0  0  0  0  0  0  0  0  0  0  0
  -30.0320  -23.6510   20.1030 C   0  0  0  0  0  2  0  0  0  0  0  0
  -29.3550  -24.6400   21.1100 C   0  0  0  0  0  3  0  0  0  0  0  0
  -29.0450  -24.0540   22.5070 C   0  0  2  0  0  0  0  0  0  0  0  0
  -28.5590  -25.0120   23.2990 F   0  0  0  0  0  0  0  0  0  0  0  0
  -30.1510  -23.5610   23.0630 F   0  0  0  0  0  0  0  0  0  0  0  0
  -28.1330  -23.0830   22.4150 F   0  0  0  0  0  0  0  0  0  0  0  0
  -28.1500  -25.2700   20.5530 N   0  0  0  0  0  0  0  0  0  0  0  0
  -27.5140  -25.3850   21.3380 H   0  0  0  0  0  0  0  0  0  0  0  0
  -28.4780  -26.6420   20.1420 O   0  0  0  0  0  0  0  0  0  0  0  0
  -24.6630  -31.8670   23.1860 C   0  0  0  0  0  0  0  0  0  0  0  0
  -27.3320  -27.4150   20.1250 C   0  0  0  0  0  0  0  0  0  0  0  0
  -23.4700  -30.4580   21.5410 C   0  0  0  0  0  3  0  0  0  0  0  0
  -24.9370  -28.9280   20.1190 C   0  0  0  0  0  0  0  0  0  0  0  0
  -25.9980  -30.8200   21.3570 C   0  0  0  0  0  2  0  0  0  0  0  0
  -26.0910  -29.4470   20.7220 C   0  0  0  0  0  0  0  0  0  0  0  0
  -27.2920  -28.6950   20.7300 C   0  0  0  0  0  3  0  0  0  0  0  0
  -26.1660  -26.9250   19.4960 C   0  0  0  0  0  3  0  0  0  0  0  0
  -24.9700  -27.6660   19.5030 C   0  0  0  0  0  3  0  0  0  0  0  0
  -23.6890  -29.7810   20.1620 C   0  0  0  0  0  2  0  0  0  0  0  0
  -24.7290  -31.0640   22.0860 N   0  0  0  0  0  0  0  0  0  0  0  0
  -23.5790  -32.1360   23.7200 O   0  0  0  0  0  0  0  0  0  0  0  0
  -22.8200  -29.4340   22.4990 C   0  0  0  0  0  0  0  0  0  0  0  0
  -21.4930  -29.2610   22.3780 N   0  0  0  0  0  0  0  0  0  0  0  0
  -23.5040  -28.8000   23.3060 O   0  0  0  0  0  0  0  0  0  0  0  0
  -21.0020  -29.8240   21.6980 H   0  0  0  0  0  0  0  0  0  0  0  0
  -18.1110  -28.1040   22.9100 C   0  0  0  0  0  0  0  0  0  0  0  0
  -20.6750  -28.3240   23.1480 C   0  0  0  0  0  3  0  0  0  0  0  0
  -20.7500  -26.8990   22.5520 C   0  0  0  0  0  2  0  0  0  0  0  0
  -19.6300  -26.6060   21.5490 C   0  0  0  0  0  2  0  0  0  0  0  0
  -18.2600  -26.7600   22.2150 C   0  0  0  0  0  2  0  0  0  0  0  0
  -19.2460  -28.8450   23.3350 C   0  0  0  0  0  0  0  0  0  0  0  0
  -19.0530  -30.1030   23.9440 C   0  0  0  0  0  3  0  0  0  0  0  0
  -17.7580  -30.6210   24.1340 C   0  0  0  0  0  3  0  0  0  0  0  0
  -16.6370  -29.8760   23.7280 C   0  0  0  0  0  3  0  0  0  0  0  0
  -16.8150  -28.6190   23.1210 C   0  0  0  0  0  3  0  0  0  0  0  0
  -25.9440  -32.5040   23.8090 C   0  0  0  0  0  3  0  0  0  0  0  0
  -26.4780  -31.7210   25.0700 C   0  0  1  0  0  0  0  0  0  0  0  0
  -25.3940  -31.4500   26.1390 C   0  0  0  0  0  1  0  0  0  0  0  0
  -27.0790  -30.3580   24.6540 C   0  0  0  0  0  1  0  0  0  0  0  0
  -27.6210  -32.5210   25.7400 C   0  0  0  0  0  1  0  0  0  0  0  0
  -25.6210  -33.8940   24.1580 N   0  0  0  0  0  0  0  0  0  0  0  0
  -25.9300  -34.9580   23.4040 C   0  0  0  0  0  0  0  0  0  0  0  0
  -26.5870  -34.8750   22.3630 O   0  0  0  0  0  0  0  0  0  0  0  0
  -25.0360  -34.0340   24.9670 H   0  0  0  0  0  0  0  0  0  0  0  0
  -24.1720  -36.7300   23.0900 C   0  0  0  0  0  1  0  0  0  0  0  0
  -25.4290  -36.3350   23.8820 C   0  0  0  0  0  3  0  0  0  0  0  0
  -27.5580  -37.2440   24.6980 C   0  0  0  0  0  1  0  0  0  0  0  0
  -26.4440  -37.4030   23.7660 N   0  0  0  0  0  0  0  0  0  0  0  0
  -26.0270  -38.3170   23.9240 H   0  0  0  0  0  0  0  0  0  0  0  0
  1 18  1  0
  1  3  1  0
  2  1  2  0
  3  6  1  0
  4  2  1  0
  5  2  1  0
  7 21  1  0
  8 13  1  0
  9 10  1  0
  9  8  1  0
 11 10  1  0
 11 26  1  0
 11 12  1  0
 13  7  1  0
 13 12  1  0
 14  7  2  0
 15 16  1  0
 17 20  2  0
 17 18  1  0
 18 15  2  0
 19 21  1  0
 19 16  2  0
 20 19  1  0
 21 22  1  0
 23 24  2  0
 24 43  1  0
 25 24  1  0
 25 28  1  0
 26 27  1  0
 26 23  1  0
 27 25  2  0
 28 29  1  0
 29 30  2  0
 31 34  1  0
 31 30  1  0
 32 31  2  0
 33 32  1  0
 33 28  2  0
 34 35  1  0
 35 36  1  0
 36 37  2  0
 38 37  1  0
 38 42  1  0
 39 38  2  0
 40 35  2  0
 40 39  1  0
 41 40  1  0
 43 44  1  0
 44 47  1  0
 44 46  1  0
 45 43  2  0
 48 49  1  0
 48 23  1  0
 50 48  1  0
 51  3  1  0
 52 51  1  0
 52 53  1  0
 53 55  1  1
 53 54  1  0
 56 53  1  0
 57 52  1  0
 57 58  1  0
 59 57  1  0
 60 71  2  0
 61 59  1  0
 61 66  1  0
 62 70  1  0
 62 72  1  0
 63 69  1  0
 63 65  1  0
 64 70  1  0
 65 66  2  0
 65 64  1  0
 67 68  1  0
 67 61  2  0
 68 63  2  0
 69 62  1  0
 70 60  1  0
 72 74  2  0
 73 72  1  0
 75 73  1  0
 76 85  2  0
 76 81  1  0
 77 73  1  0
 77 81  1  0
 78 77  1  0
 79 80  1  0
 79 78  1  0
 80 76  1  0
 81 82  2  0
 82 83  1  0
 84 83  2  0
 85 84  1  0
 86 60  1  0
 86 91  1  0
 86 87  1  0
 87 90  1  1
 87 88  1  0
 89 87  1  0
 91 94  1  0
 92 96  1  0
 92 91  1  0
 93 92  2  0
 96 95  1  0
 98 96  1  0
 98 99  1  0
 98 97  1  0
M  ISO  4   7 100  21 100  57 101  59 101
M  END
>  <TORSDO>  (21) 
F 20

>  <SCORE>  (21) 
-13.653

>  <name>  (21) 
20

>  <ligand_id>  (21) 
20

>  <original_smiles>  (21) 
[H]c1nc(N([H])C(=O)N2C([H])([H])C([H])([H])C([H])([H])C([H])(n3nc(-c4c([H])c([H])c(Oc5c([H])c([H])c(F)c([H])c5F)c([H])c4[H])c(C(=O)N([H])[H])c3N([H])[H])C2([H])[H])c([H])c([H])c1C(N([H])[H])=[N+]([H])C([H])([H])C([H])(N([H])Oc1c([H])c([H])c2c(c1[H])C([H])([H])N(C(=O)C([H])(N([H])C(=O)C([H])(N([H])C([H])([H])[H])C([H])([H])[H])C(C([H])([H])[H])(C([H])([H])[H])C([H])([H])[H])C([H])(C(=O)N([H])C1([H])c3c([H])c([H])c([H])c([H])c3C([H])([H])C([H])([H])C1([H])[H])C2([H])[H])C(F)(F)F

>  <smiles>  (21) 
[H]c1nc(N([H])C(=O)N2C([H])([H])C([H])([H])C([H])([H])C([H])(n3nc(-c4c([H])c([H])c(Oc5c([H])c([H])c(F)c([H])c5F)c([H])c4[H])c(C(=O)N([H])[H])c3N([H])[H])C2([H])[H])c([H])c([H])c1C(N([H])[H])=[N+]([H])C([H])([H])C([H])(N([H])Oc1c([H])c([H])c2c(c1[H])C([H])([H])N(C(=O)C([H])(N([H])C(=O)C([H])(N([H])C([H])([H])[H])C([H])([H])[H])C(C([H])([H])[H])(C([H])([H])[H])C([H])([H])[H])C([H])(C(=O)N([H])C1([H])c3c([H])c([H])c([H])c([H])c3C([H])([H])C([H])([H])C1([H])[H])C2([H])[H])C(F)(F)F

$$$$
21:0:0
     RDKit          3D

 94102  0  0  1  0  0  0  0  0999 V2000
  -30.2980  -21.1550   20.2280 C   0  0  0  0  0  0  0  0  0  0  0  0
  -29.8330  -22.0050   21.1610 N   0  0  0  0  0  0  0  0  0  0  0  0
  -30.7850  -21.5490   19.1650 O   0  0  0  0  0  0  0  0  0  0  0  0
  -29.3990  -21.5990   21.9790 H   0  0  0  0  0  0  0  0  0  0  0  0
  -29.7250  -18.8000   19.4940 C   0  0  0  0  0  3  0  0  0  0  0  0
  -29.7140  -17.4000   19.6750 C   0  0  0  0  0  3  0  0  0  0  0  0
  -30.6530  -17.6850   21.8990 C   0  0  0  0  0  3  0  0  0  0  0  0
  -30.2030  -19.6680   20.5060 C   0  0  0  0  0  0  0  0  0  0  0  0
  -30.1900  -16.8230   20.8770 C   0  0  0  0  0  0  0  0  0  0  0  0
  -30.6770  -19.0890   21.7130 C   0  0  0  0  0  0  0  0  0  0  0  0
  -31.1800  -19.8670   22.7050 F   0  0  0  0  0  0  0  0  0  0  0  0
  -30.7220  -14.4740   20.3190 C   0  0  0  0  0  0  0  0  0  0  0  0
  -30.3750  -12.3710   19.0750 C   0  0  0  0  0  2  0  0  0  0  0  0
  -29.3880  -12.6220   17.9130 C   0  0  0  0  0  2  0  0  0  0  0  0
  -27.9260  -12.4890   18.3780 C   0  0  0  0  0  2  0  0  0  0  0  0
  -27.6420  -13.2700   19.6890 C   0  0  0  0  0  3  0  0  0  0  0  0
  -28.7280  -12.9810   20.7510 C   0  0  0  0  0  2  0  0  0  0  0  0
  -30.0440  -13.3020   20.1670 N   0  0  0  0  0  0  0  0  0  0  0  0
  -31.7950  -14.7030   19.7550 O   0  0  0  0  0  0  0  0  0  0  0  0
  -30.1220  -15.4070   21.0840 N   0  0  0  0  0  0  0  0  0  0  0  0
  -29.3540  -15.0780   21.6480 H   0  0  0  0  0  0  0  0  0  0  0  0
  -25.2560  -13.8680   20.4550 C   0  0  0  0  0  0  0  0  0  0  0  0
  -24.1970  -13.0900   20.8390 C   0  0  0  0  0  0  0  0  0  0  0  0
  -24.6590  -11.7390   20.7850 C   0  0  0  0  0  0  0  0  0  0  0  0
  -26.2980  -12.9910   20.1910 N   0  0  0  0  0  0  0  0  0  0  0  0
  -25.9400  -11.7050   20.4430 N   0  0  0  0  0  0  0  0  0  0  0  0
  -23.9350  -10.4740   20.9790 C   0  0  0  0  0  0  0  0  0  0  0  0
  -24.3670   -9.5140   21.9200 C   0  0  0  0  0  3  0  0  0  0  0  0
  -23.6460   -8.3140   22.1000 C   0  0  0  0  0  3  0  0  0  0  0  0
  -22.4790   -8.0670   21.3380 C   0  0  0  0  0  0  0  0  0  0  0  0
  -22.0670   -9.0160   20.3850 C   0  0  0  0  0  3  0  0  0  0  0  0
  -22.7880  -10.2070   20.2040 C   0  0  0  0  0  3  0  0  0  0  0  0
  -21.7300   -6.9190   21.4300 O   0  0  0  0  0  0  0  0  0  0  0  0
  -21.6510   -6.2000   22.5950 C   0  0  0  0  0  0  0  0  0  0  0  0
  -21.1560   -6.7720   23.7880 C   0  0  0  0  0  3  0  0  0  0  0  0
  -21.0260   -5.9800   24.9470 C   0  0  0  0  0  3  0  0  0  0  0  0
  -21.3770   -4.6180   24.9120 C   0  0  0  0  0  0  0  0  0  0  0  0
  -21.8620   -4.0450   23.7230 C   0  0  0  0  0  3  0  0  0  0  0  0
  -21.9940   -4.8330   22.5660 C   0  0  0  0  0  0  0  0  0  0  0  0
  -22.4430   -4.2730   21.4170 F   0  0  0  0  0  0  0  0  0  0  0  0
  -21.2430   -3.8530   26.0210 F   0  0  0  0  0  0  0  0  0  0  0  0
  -22.8060  -13.5630   21.1500 C   0  0  0  0  0  0  0  0  0  0  0  0
  -22.0930  -12.8520   22.0190 N   0  0  0  0  0  0  0  0  0  0  0  0
  -22.3570  -14.5980   20.6590 O   0  0  0  0  0  0  0  0  0  0  0  0
  -22.4690  -12.0180   22.4450 H   0  0  0  0  0  0  0  0  0  0  0  0
  -21.1560  -13.1500   22.2560 H   0  0  0  0  0  0  0  0  0  0  0  0
  -25.4140  -15.2400   20.2890 N   0  0  0  0  0  0  0  0  0  0  0  0
  -24.6550  -15.8960   20.4370 H   0  0  0  0  0  0  0  0  0  0  0  0
  -26.2590  -15.6860   19.9530 H   0  0  0  0  0  0  0  0  0  0  0  0
  -30.0910  -23.4580   21.2030 C   0  0  0  0  0  2  0  0  0  0  0  0
  -29.0470  -24.3340   20.4710 C   0  0  0  0  0  0  0  0  0  0  0  0
  -28.5470  -23.9720   19.3990 O   0  0  0  0  0  0  0  0  0  0  0  0
  -28.6520  -25.6780   21.1270 C   0  0  0  0  0  2  0  0  0  0  0  0
  -28.5470  -26.7390   20.1640 O   0  0  0  0  0  0  0  0  0  0  0  0
  -24.5950  -31.8640   23.2040 C   0  0  0  0  0  0  0  0  0  0  0  0
  -27.3700  -27.4500   20.1990 C   0  0  0  0  0  0  0  0  0  0  0  0
  -23.4450  -30.4470   21.5320 C   0  0  0  0  0  3  0  0  0  0  0  0
  -24.9520  -28.9150   20.1560 C   0  0  0  0  0  0  0  0  0  0  0  0
  -25.9720  -30.8320   21.4000 C   0  0  0  0  0  2  0  0  0  0  0  0
  -26.0910  -29.4620   20.7620 C   0  0  0  0  0  0  0  0  0  0  0  0
  -27.3070  -28.7390   20.7750 C   0  0  0  0  0  3  0  0  0  0  0  0
  -26.2170  -26.9070   19.5990 C   0  0  0  0  0  3  0  0  0  0  0  0
  -25.0080  -27.6330   19.5770 C   0  0  0  0  0  3  0  0  0  0  0  0
  -23.6970  -29.7570   20.1640 C   0  0  0  0  0  2  0  0  0  0  0  0
  -24.6870  -31.0640   22.1030 N   0  0  0  0  0  0  0  0  0  0  0  0
  -23.4990  -32.1290   23.7150 O   0  0  0  0  0  0  0  0  0  0  0  0
  -22.7740  -29.4280   22.4790 C   0  0  0  0  0  0  0  0  0  0  0  0
  -21.4510  -29.2570   22.3330 N   0  0  0  0  0  0  0  0  0  0  0  0
  -23.4430  -28.7890   23.2950 O   0  0  0  0  0  0  0  0  0  0  0  0
  -20.9740  -29.8220   21.6450 H   0  0  0  0  0  0  0  0  0  0  0  0
  -18.0530  -28.1270   22.8230 C   0  0  0  0  0  0  0  0  0  0  0  0
  -20.6180  -28.3190   23.0830 C   0  0  0  0  0  3  0  0  0  0  0  0
  -20.6830  -26.9030   22.4650 C   0  0  0  0  0  2  0  0  0  0  0  0
  -19.5650  -26.6310   21.4520 C   0  0  0  0  0  2  0  0  0  0  0  0
  -18.1930  -26.7930   22.1090 C   0  0  0  0  0  2  0  0  0  0  0  0
  -19.1920  -28.8510   23.2630 C   0  0  0  0  0  0  0  0  0  0  0  0
  -19.0050  -30.1040   23.8860 C   0  0  0  0  0  3  0  0  0  0  0  0
  -17.7130  -30.6290   24.0790 C   0  0  0  0  0  3  0  0  0  0  0  0
  -16.5890  -29.8980   23.6580 C   0  0  0  0  0  3  0  0  0  0  0  0
  -16.7600  -28.6510   23.0320 C   0  0  0  0  0  3  0  0  0  0  0  0
  -25.8590  -32.5050   23.8590 C   0  0  0  0  0  3  0  0  0  0  0  0
  -26.3550  -31.7360   25.1450 C   0  0  1  0  0  0  0  0  0  0  0  0
  -25.2380  -31.4770   26.1830 C   0  0  0  0  0  1  0  0  0  0  0  0
  -26.9700  -30.3690   24.7650 C   0  0  0  0  0  1  0  0  0  0  0  0
  -27.4790  -32.5420   25.8380 C   0  0  0  0  0  1  0  0  0  0  0  0
  -25.5320  -33.9010   24.1840 N   0  0  0  0  0  0  0  0  0  0  0  0
  -25.8770  -34.9550   23.4340 C   0  0  0  0  0  0  0  0  0  0  0  0
  -26.5720  -34.8580   22.4190 O   0  0  0  0  0  0  0  0  0  0  0  0
  -24.9220  -34.0520   24.9740 H   0  0  0  0  0  0  0  0  0  0  0  0
  -24.1490  -36.7370   23.0270 C   0  0  0  0  0  1  0  0  0  0  0  0
  -25.3650  -36.3380   23.8780 C   0  0  0  0  0  3  0  0  0  0  0  0
  -27.4630  -37.2350   24.7890 C   0  0  0  0  0  1  0  0  0  0  0  0
  -26.3950  -37.3980   23.8040 N   0  0  0  0  0  0  0  0  0  0  0  0
  -25.9780  -38.3160   23.9360 H   0  0  0  0  0  0  0  0  0  0  0  0
  1  8  1  0
  1  2  1  0
  2 50  1  0
  2  4  1  0
  3  1  2  0
  5  6  2  0
  5  8  1  0
  6  9  1  0
  8 10  2  0
  9 20  1  0
  9  7  2  0
 10  7  1  0
 10 11  1  0
 12 20  1  0
 13 18  1  0
 14 15  1  0
 14 13  1  0
 16 15  1  0
 16 25  1  0
 16 17  1  0
 18 12  1  0
 18 17  1  0
 19 12  2  0
 20 21  1  0
 22 23  2  0
 23 42  1  0
 24 23  1  0
 24 27  1  0
 25 26  1  0
 25 22  1  0
 26 24  2  0
 27 28  1  0
 28 29  2  0
 30 33  1  0
 30 29  1  0
 31 30  2  0
 32 31  1  0
 32 27  2  0
 33 34  1  0
 34 35  1  0
 35 36  2  0
 37 36  1  0
 37 41  1  0
 38 37  2  0
 39 34  2  0
 39 38  1  0
 40 39  1  0
 42 43  1  0
 43 46  1  0
 43 45  1  0
 44 42  2  0
 47 48  1  0
 47 22  1  0
 49 47  1  0
 51 53  1  0
 51 50  1  0
 52 51  2  0
 54 56  1  0
 54 53  1  0
 55 66  2  0
 56 61  1  0
 57 65  1  0
 57 67  1  0
 58 64  1  0
 58 60  1  0
 59 65  1  0
 60 61  2  0
 60 59  1  0
 62 56  2  0
 63 62  1  0
 63 58  2  0
 64 57  1  0
 65 55  1  0
 67 69  2  0
 68 67  1  0
 70 68  1  0
 71 80  2  0
 71 76  1  0
 72 68  1  0
 72 76  1  0
 73 72  1  0
 74 75  1  0
 74 73  1  0
 75 71  1  0
 76 77  2  0
 77 78  1  0
 79 78  2  0
 80 79  1  0
 81 55  1  0
 81 86  1  0
 81 82  1  0
 82 85  1  1
 82 83  1  0
 84 82  1  0
 86 89  1  0
 87 91  1  0
 87 86  1  0
 88 87  2  0
 91 90  1  0
 93 91  1  0
 93 94  1  0
 93 92  1  0
M  ISO  4  12 100  20 100  53 101  54 101
M  END
>  <TORSDO>  (22) 
F 20

>  <SCORE>  (22) 
-14.189

>  <name>  (22) 
21

>  <ligand_id>  (22) 
21

>  <original_smiles>  (22) 
[H]c1c([H])c([H])c2c(c1[H])C([H])([H])C([H])([H])C([H])([H])C2([H])N([H])C(=O)C1([H])N(C(=O)C([H])(N([H])C(=O)C([H])(N([H])C([H])([H])[H])C([H])([H])[H])C(C([H])([H])[H])(C([H])([H])[H])C([H])([H])[H])C([H])([H])c2c([H])c(OC([H])([H])C(=O)C([H])([H])N([H])C(=O)c3c([H])c([H])c(N([H])C(=O)N4C([H])([H])C([H])([H])C([H])([H])C([H])(n5nc(-c6c([H])c([H])c(Oc7c([H])c([H])c(F)c([H])c7F)c([H])c6[H])c(C(=O)N([H])[H])c5N([H])[H])C4([H])[H])c([H])c3F)c([H])c([H])c2C1([H])[H]

>  <smiles>  (22) 
[H]c1c([H])c([H])c2c(c1[H])C([H])([H])C([H])([H])C([H])([H])C2([H])N([H])C(=O)C1([H])N(C(=O)C([H])(N([H])C(=O)C([H])(N([H])C([H])([H])[H])C([H])([H])[H])C(C([H])([H])[H])(C([H])([H])[H])C([H])([H])[H])C([H])([H])c2c([H])c(OC([H])([H])C(=O)C([H])([H])N([H])C(=O)c3c([H])c([H])c(N([H])C(=O)N4C([H])([H])C([H])([H])C([H])([H])C([H])(n5nc(-c6c([H])c([H])c(Oc7c([H])c([H])c(F)c([H])c7F)c([H])c6[H])c(C(=O)N([H])[H])c5N([H])[H])C4([H])[H])c([H])c3F)c([H])c([H])c2C1([H])[H]

$$$$
22:0:0
     RDKit          3D

 96104  0  0  1  0  0  0  0  0999 V2000
  -30.2610  -18.4960   21.2520 C   0  0  0  0  0  3  0  0  0  0  0  0
  -29.8320  -20.6800   21.1350 C   0  0  0  0  0  3  0  0  0  0  0  0
  -30.4210  -19.7310   21.9130 C   0  0  0  0  0  0  0  0  0  0  0  0
  -29.6930  -18.6730   20.0180 C   0  0  0  0  0  0  0  0  0  0  0  0
  -29.3460  -20.1580   19.9350 N   0  0  0  0  0  0  0  0  0  0  0  0
  -31.0570  -20.0190   23.2210 C   0  0  0  0  0  0  0  0  0  0  0  0
  -31.4780  -19.1120   23.9440 O   0  0  0  0  0  0  0  0  0  0  0  0
  -31.3200  -21.4920   23.5770 C   0  0  0  0  0  2  0  0  0  0  0  0
  -29.0600  -22.4670   22.8470 C   0  0  0  0  0  1  0  0  0  0  0  0
  -29.4220  -21.8610   25.2590 C   0  0  0  0  0  1  0  0  0  0  0  0
  -30.6410  -23.7950   24.2530 C   0  0  0  0  0  1  0  0  0  0  0  0
  -30.1050  -22.3770   23.9780 C   0  0  1  0  0  0  0  0  0  0  0  0
  -29.6620  -17.3090   19.1230 C   0  0  0  0  0  2  0  0  0  0  0  0
  -30.5180  -14.6410   19.4580 C   0  0  0  0  0  0  0  0  0  0  0  0
  -30.3170  -12.2210   18.7070 C   0  0  0  0  0  2  0  0  0  0  0  0
  -29.2470  -12.1140   17.5940 C   0  0  0  0  0  2  0  0  0  0  0  0
  -27.8400  -11.9370   18.2020 C   0  0  0  0  0  2  0  0  0  0  0  0
  -27.5780  -12.9240   19.3710 C   0  0  0  0  0  3  0  0  0  0  0  0
  -28.7600  -12.9910   20.3620 C   0  0  0  0  0  2  0  0  0  0  0  0
  -29.9540  -13.3680   19.5920 N   0  0  0  0  0  0  0  0  0  0  0  0
  -31.6450  -14.6960   18.9510 O   0  0  0  0  0  0  0  0  0  0  0  0
  -29.7510  -15.8200   19.7050 N   0  0  0  0  0  0  0  0  0  0  0  0
  -28.9160  -15.5870   20.2220 H   0  0  0  0  0  0  0  0  0  0  0  0
  -25.3790  -13.5690   20.5110 C   0  0  0  0  0  0  0  0  0  0  0  0
  -24.3310  -12.8270   20.9820 C   0  0  0  0  0  0  0  0  0  0  0  0
  -24.6900  -11.4590   20.7750 C   0  0  0  0  0  0  0  0  0  0  0  0
  -26.3110  -12.6580   20.0430 N   0  0  0  0  0  0  0  0  0  0  0  0
  -25.9150  -11.3770   20.2660 N   0  0  0  0  0  0  0  0  0  0  0  0
  -23.9110  -10.2290   20.9770 C   0  0  0  0  0  0  0  0  0  0  0  0
  -24.3880   -9.1770   21.7900 C   0  0  0  0  0  3  0  0  0  0  0  0
  -23.6100   -8.0150   21.9870 C   0  0  0  0  0  3  0  0  0  0  0  0
  -22.3420   -7.8960   21.3700 C   0  0  0  0  0  0  0  0  0  0  0  0
  -21.8830   -8.9370   20.5420 C   0  0  0  0  0  3  0  0  0  0  0  0
  -22.6600  -10.0900   20.3430 C   0  0  0  0  0  3  0  0  0  0  0  0
  -21.5310   -6.7940   21.4820 O   0  0  0  0  0  0  0  0  0  0  0  0
  -21.5640   -5.9840   22.5890 C   0  0  0  0  0  0  0  0  0  0  0  0
  -21.2430   -6.4690   23.8760 C   0  0  0  0  0  3  0  0  0  0  0  0
  -21.2220   -5.5880   24.9750 C   0  0  0  0  0  3  0  0  0  0  0  0
  -21.5110   -4.2230   24.7900 C   0  0  0  0  0  0  0  0  0  0  0  0
  -21.8250   -3.7370   23.5090 C   0  0  0  0  0  3  0  0  0  0  0  0
  -21.8480   -4.6160   22.4110 C   0  0  0  0  0  0  0  0  0  0  0  0
  -22.1300   -4.1390   21.1750 F   0  0  0  0  0  0  0  0  0  0  0  0
  -21.4840   -3.3750   25.8440 F   0  0  0  0  0  0  0  0  0  0  0  0
  -23.0260  -13.3590   21.4990 C   0  0  0  0  0  0  0  0  0  0  0  0
  -22.3990  -12.6500   22.4300 N   0  0  0  0  0  0  0  0  0  0  0  0
  -22.5790  -14.4380   21.1120 O   0  0  0  0  0  0  0  0  0  0  0  0
  -22.7800  -11.7780   22.7700 H   0  0  0  0  0  0  0  0  0  0  0  0
  -21.5270  -12.9850   22.8140 H   0  0  0  0  0  0  0  0  0  0  0  0
  -25.6070  -14.9390   20.4150 N   0  0  0  0  0  0  0  0  0  0  0  0
  -24.8990  -15.6140   20.6810 H   0  0  0  0  0  0  0  0  0  0  0  0
  -26.4030  -15.3630   19.9570 H   0  0  0  0  0  0  0  0  0  0  0  0
  -28.6170  -21.2500   19.0080 C   0  0  0  0  0  2  0  0  0  0  0  0
  -28.8710  -22.9290   18.9860 C   0  0  0  0  0  0  0  0  0  0  0  0
  -30.0440  -23.3150   19.0380 O   0  0  0  0  0  0  0  0  0  0  0  0
  -27.7290  -24.1440   18.8460 C   0  0  0  0  0  2  0  0  0  0  0  0
  -28.0520  -25.6830   18.9850 O   0  0  0  0  0  0  0  0  0  0  0  0
  -24.5500  -31.0740   22.6650 C   0  0  0  0  0  0  0  0  0  0  0  0
  -27.0110  -26.6940   19.0550 C   0  0  0  0  0  0  0  0  0  0  0  0
  -23.3000  -29.8810   20.9080 C   0  0  0  0  0  3  0  0  0  0  0  0
  -24.6990  -28.4650   19.2770 C   0  0  0  0  0  0  0  0  0  0  0  0
  -25.8540  -30.1380   20.7150 C   0  0  0  0  0  2  0  0  0  0  0  0
  -25.8990  -28.8280   19.9030 C   0  0  0  0  0  0  0  0  0  0  0  0
  -27.0540  -27.9620   19.7730 C   0  0  0  0  0  3  0  0  0  0  0  0
  -25.7820  -26.4450   18.4040 C   0  0  0  0  0  3  0  0  0  0  0  0
  -24.6550  -27.2910   18.5120 C   0  0  0  0  0  3  0  0  0  0  0  0
  -23.4830  -29.3610   19.4570 C   0  0  0  0  0  2  0  0  0  0  0  0
  -24.5900  -30.3810   21.4850 N   0  0  0  0  0  0  0  0  0  0  0  0
  -23.4790  -31.3040   23.2470 O   0  0  0  0  0  0  0  0  0  0  0  0
  -22.6310  -28.7780   21.7680 C   0  0  0  0  0  0  0  0  0  0  0  0
  -21.2910  -28.6760   21.7060 N   0  0  0  0  0  0  0  0  0  0  0  0
  -23.3190  -28.0180   22.4550 O   0  0  0  0  0  0  0  0  0  0  0  0
  -20.7910  -29.3410   21.1320 H   0  0  0  0  0  0  0  0  0  0  0  0
  -17.8950  -27.5380   22.2560 C   0  0  0  0  0  0  0  0  0  0  0  0
  -20.4750  -27.6730   22.3940 C   0  0  0  0  0  3  0  0  0  0  0  0
  -20.4800  -26.3300   21.6270 C   0  0  0  0  0  2  0  0  0  0  0  0
  -19.3090  -26.1880   20.6490 C   0  0  0  0  0  2  0  0  0  0  0  0
  -17.9740  -26.2910   21.3930 C   0  0  0  0  0  2  0  0  0  0  0  0
  -19.0690  -28.1960   22.7130 C   0  0  0  0  0  0  0  0  0  0  0  0
  -18.9380  -29.3700   23.4870 C   0  0  0  0  0  3  0  0  0  0  0  0
  -17.6680  -29.8860   23.8050 C   0  0  0  0  0  3  0  0  0  0  0  0
  -16.5100  -29.2230   23.3620 C   0  0  0  0  0  3  0  0  0  0  0  0
  -16.6250  -28.0510   22.5940 C   0  0  0  0  0  3  0  0  0  0  0  0
  -25.8470  -31.6270   23.3310 C   0  0  0  0  0  3  0  0  0  0  0  0
  -25.5700  -33.0010   23.7780 N   0  0  0  0  0  0  0  0  0  0  0  0
  -26.0670  -34.1070   23.2060 C   0  0  0  0  0  0  0  0  0  0  0  0
  -26.8670  -34.0690   22.2680 O   0  0  0  0  0  0  0  0  0  0  0  0
  -24.8790  -33.1080   24.5070 H   0  0  0  0  0  0  0  0  0  0  0  0
  -24.5870  -36.1010   22.7990 C   0  0  0  0  0  1  0  0  0  0  0  0
  -25.6040  -35.4690   23.7620 C   0  0  0  0  0  3  0  0  0  0  0  0
  -27.5800  -36.0260   25.1100 C   0  0  0  0  0  1  0  0  0  0  0  0
  -26.7150  -36.4160   23.9990 N   0  0  0  0  0  0  0  0  0  0  0  0
  -26.3580  -37.3490   24.1900 H   0  0  0  0  0  0  0  0  0  0  0  0
  -26.3430  -30.7450   24.5440 C   0  0  1  0  0  0  0  0  0  0  0  0
  -25.2520  -30.4780   25.6070 C   0  0  0  0  0  1  0  0  0  0  0  0
  -26.8670  -29.3760   24.0530 C   0  0  0  0  0  1  0  0  0  0  0  0
  -27.5320  -31.4440   25.2480 C   0  0  0  0  0  1  0  0  0  0  0  0
  1  3  1  0
  2  3  2  0
  3  6  1  0
  4  1  2  0
  5  4  1  0
  5  2  1  0
  6  8  1  0
  6  7  2  0
  8 12  1  0
 12  9  1  6
 12 11  1  0
 12 10  1  0
 13 22  1  0
 13  4  1  0
 14 20  1  0
 14 22  1  0
 15 20  1  0
 16 17  1  0
 16 15  1  0
 18 17  1  0
 18 27  1  0
 18 19  1  0
 20 19  1  0
 21 14  2  0
 22 23  1  0
 24 25  2  0
 25 44  1  0
 26 29  1  0
 26 25  1  0
 27 28  1  0
 27 24  1  0
 28 26  2  0
 29 30  1  0
 30 31  2  0
 32 35  1  0
 32 31  1  0
 33 32  2  0
 34 33  1  0
 34 29  2  0
 35 36  1  0
 36 37  1  0
 37 38  2  0
 39 38  1  0
 39 43  1  0
 40 39  2  0
 41 36  2  0
 41 40  1  0
 42 41  1  0
 44 45  1  0
 45 47  1  0
 45 48  1  0
 46 44  2  0
 49 24  1  0
 49 50  1  0
 51 49  1  0
 52  5  1  0
 53 52  1  0
 53 54  2  0
 55 56  1  0
 55 53  1  0
 56 58  1  0
 57 68  2  0
 58 63  1  0
 59 67  1  0
 59 69  1  0
 60 66  1  0
 60 62  1  0
 61 67  1  0
 62 61  1  0
 63 62  2  0
 64 65  1  0
 64 58  2  0
 65 60  2  0
 66 59  1  0
 67 57  1  0
 69 71  2  0
 70 69  1  0
 72 70  1  0
 73 82  2  0
 73 78  1  0
 74 70  1  0
 74 78  1  0
 75 74  1  0
 76 77  1  0
 76 75  1  0
 77 73  1  0
 78 79  2  0
 79 80  1  0
 81 80  2  0
 82 81  1  0
 83 57  1  0
 83 84  1  0
 83 93  1  0
 84 87  1  0
 85 89  1  0
 85 84  1  0
 86 85  2  0
 89 88  1  0
 89 91  1  0
 91 92  1  0
 91 90  1  0
 93 96  1  1
 93 94  1  0
 95 93  1  0
M  ISO  4  14 100  22 100  55 101  56 101
M  END
>  <TORSDO>  (23) 
F 23

>  <SCORE>  (23) 
-8.508

>  <name>  (23) 
22

>  <ligand_id>  (23) 
22

>  <original_smiles>  (23) 
[H]c1c([H])c([H])c2c(c1[H])C([H])([H])C([H])([H])C([H])([H])C2([H])N([H])C(=O)C1([H])N(C(=O)C([H])(N([H])C(=O)C([H])(N([H])C([H])([H])[H])C([H])([H])[H])C(C([H])([H])[H])(C([H])([H])[H])C([H])([H])[H])C([H])([H])c2c([H])c(OC([H])([H])C(=O)C([H])([H])n3c([H])c(C(=O)C([H])([H])C(C([H])([H])[H])(C([H])([H])[H])C([H])([H])[H])c([H])c3C([H])([H])N([H])C(=O)N3C([H])([H])C([H])([H])C([H])([H])C([H])(n4nc(-c5c([H])c([H])c(Oc6c([H])c([H])c(F)c([H])c6F)c([H])c5[H])c(C(=O)N([H])[H])c4N([H])[H])C3([H])[H])c([H])c([H])c2C1([H])[H]

>  <smiles>  (23) 
[H]c1c([H])c([H])c2c(c1[H])C([H])([H])C([H])([H])C([H])([H])C2([H])N([H])C(=O)C1([H])N(C(=O)C([H])(N([H])C(=O)C([H])(N([H])C([H])([H])[H])C([H])([H])[H])C(C([H])([H])[H])(C([H])([H])[H])C([H])([H])[H])C([H])([H])c2c([H])c(OC([H])([H])C(=O)C([H])([H])n3c([H])c(C(=O)C([H])([H])C(C([H])([H])[H])(C([H])([H])[H])C([H])([H])[H])c([H])c3C([H])([H])N([H])C(=O)N3C([H])([H])C([H])([H])C([H])([H])C([H])(n4nc(-c5c([H])c([H])c(Oc6c([H])c([H])c(F)c([H])c6F)c([H])c5[H])c(C(=O)N([H])[H])c4N([H])[H])C3([H])[H])c([H])c([H])c2C1([H])[H]

$$$$
23:0:0
     RDKit          3D

 99103  0  0  1  0  0  0  0  0999 V2000
  -25.7800  -27.5110   24.0960 C   0  0  0  0  0  2  0  0  0  0  0  0
  -26.7930  -26.3720   23.3250 N   0  0  0  0  0  2  0  0  0  0  0  0
  -26.0010  -27.3510   25.2980 O   0  0  0  0  0  1  0  0  0  0  0  0
  -27.1920  -26.0020   24.1770 H   0  0  0  0  0  0  0  0  0  0  0  0
  -24.1770  -29.1900   24.0640 C   0  0  0  0  0  2  0  0  0  0  0  0
  -23.5440  -29.2770   25.1190 O   0  0  0  0  0  0  0  0  0  0  0  0
  -22.6150  -31.8500   23.0070 C   0  0  0  0  0  1  0  0  0  0  0  0
  -23.4020  -30.6220   22.4390 C   0  0  0  0  0  1  0  0  0  0  0  0
  -24.2410  -30.8470   20.4070 C   0  0  0  0  0 15  0  0  0  0  0  0
  -25.2040  -29.8690   19.0320 O   0  0  0  0  0  1  0  0  0  0  0  0
  -25.5470  -30.8360   22.9990 C   0  0  0  0  0  0  0  0  0  0  0  0
  -26.3060  -28.9140   18.5040 C   0  0  0  0  0  3  0  0  0  0  0  0
  -24.1090  -28.3720   21.4470 C   0  0  2  0  0  0  0  0  0  0  0  0
  -24.9510  -27.6000   19.8510 C   0  0  1  0  0  0  0  0  0  0  0  0
  -26.4850  -29.4890   21.2430 C   0  0  0  0  0  2  0  0  0  0  0  0
  -26.2420  -28.2720   20.3420 C   0  0  0  0  0  3  0  0  0  0  0  0
  -27.1930  -28.4140   19.4140 C   0  0  0  0  0  2  0  0  0  0  0  0
  -25.8050  -27.7160   17.8590 C   0  0  0  0  0  2  0  0  0  0  0  0
  -24.9090  -27.0140   18.6200 C   0  0  0  0  0  2  0  0  0  0  0  0
  -23.6340  -28.1650   20.0640 C   0  0  0  0  0  2  0  0  0  0  0  0
  -25.4190  -29.6060   22.0720 N   0  0  0  0  0  0  0  0  0  0  0  0
  -24.6890  -31.3320   23.7800 O   0  0  0  0  0  0  0  0  0  0  0  0
  -22.6540  -27.7100   21.9270 C   0  0  0  0  0  0  0  0  0  0  0  0
  -21.4180  -28.2450   22.0520 N   0  0  0  0  0  0  0  0  0  0  0  0
  -22.8830  -26.8350   22.7040 O   0  0  0  0  0  0  0  0  0  0  0  0
  -21.1880  -29.1090   21.5820 H   0  0  0  0  0  0  0  0  0  0  0  0
  -17.9820  -27.4380   23.2140 C   0  0  0  0  0  0  0  0  0  0  0  0
  -20.4080  -27.6480   22.8500 C   0  0  0  0  0  3  0  0  0  0  0  0
  -20.4860  -26.1150   22.9850 C   0  0  0  0  0  2  0  0  0  0  0  0
  -19.3940  -25.5490   22.1380 C   0  0  0  0  0  2  0  0  0  0  0  0
  -18.0730  -25.9830   22.7520 C   0  0  0  0  0  2  0  0  0  0  0  0
  -19.1180  -28.2760   23.3340 C   0  0  0  0  0  0  0  0  0  0  0  0
  -18.9610  -29.6140   23.7610 C   0  0  0  0  0  3  0  0  0  0  0  0
  -17.6630  -30.1140   24.0160 C   0  0  0  0  0  3  0  0  0  0  0  0
  -16.5380  -29.2800   23.8670 C   0  0  0  0  0  3  0  0  0  0  0  0
  -16.7040  -27.9420   23.4830 C   0  0  0  0  0  3  0  0  0  0  0  0
  -26.7390  -31.7090   23.3750 C   0  0  0  0  0  3  0  0  0  0  0  0
  -26.3390  -33.0360   24.0130 N   0  0  0  0  0  0  0  0  0  0  0  0
  -26.2750  -34.2570   23.4640 C   0  0  0  0  0  0  0  0  0  0  0  0
  -26.6010  -34.4420   22.2950 O   0  0  0  0  0  0  0  0  0  0  0  0
  -25.9850  -32.9450   24.9530 H   0  0  0  0  0  0  0  0  0  0  0  0
  -24.4500  -35.9700   23.9700 C   0  0  0  0  0  1  0  0  0  0  0  0
  -25.8570  -35.4700   24.3440 C   0  0  0  0  0  3  0  0  0  0  0  0
  -28.1020  -36.3410   24.8600 C   0  0  0  0  0  1  0  0  0  0  0  0
  -26.8000  -36.6110   24.2580 N   0  0  0  0  0  0  0  0  0  0  0  0
  -26.4090  -37.4360   24.7020 H   0  0  0  0  0  0  0  0  0  0  0  0
  -27.4080  -30.8470   24.5080 C   0  0  1  0  0  0  0  0  0  0  0  0
  -26.5270  -30.4090   25.7240 C   0  0  0  0  0  1  0  0  0  0  0  0
  -28.0210  -29.5560   23.9340 C   0  0  0  0  0  1  0  0  0  0  0  0
  -28.5680  -31.6700   25.0720 C   0  0  0  0  0  1  0  0  0  0  0  0
  -27.7680  -25.2540   22.0340 C   0  0  0  0  0 15  0  0  0  0  0  0
  -31.6890  -17.3980   18.5870 C   0  0  0  0  0  0  0  0  0  0  0  0
  -32.1230  -14.8650   17.3780 C   0  0  0  0  0  2  0  0  0  0  0  0
  -31.0180  -14.0690   16.5700 C   0  0  0  0  0  2  0  0  0  0  0  0
  -30.0100  -13.3910   17.5030 C   0  0  0  0  0  2  0  0  0  0  0  0
  -29.7310  -14.3420   18.6780 C   0  0  0  0  0  3  0  0  0  0  0  0
  -30.9870  -14.9010   19.3850 C   0  0  0  0  0  2  0  0  0  0  0  0
  -31.5920  -15.8830   18.4730 N   0  0  0  0  0  0  0  0  0  0  0  0
  -32.6120  -17.5950   17.7360 O   0  0  0  0  0  0  0  0  0  0  0  0
  -29.8780  -20.8260   21.4580 C   0  0  0  0  0  3  0  0  0  0  0  0
  -29.1800  -22.8880   20.0830 C   0  0  0  0  0  3  0  0  0  0  0  0
  -29.2820  -22.1870   22.0650 C   0  0  0  0  0  0  0  0  0  0  0  0
  -28.7810  -23.5210   21.4560 C   0  0  0  0  0  3  0  0  0  0  0  0
  -30.2500  -20.2710   20.0650 C   0  0  0  0  0  0  0  0  0  0  0  0
  -29.7860  -21.5800   19.5180 N   0  0  0  0  0  0  0  0  0  0  0  0
  -30.8480  -18.5520   19.4970 N   0  0  0  0  0  0  0  0  0  0  0  0
  -30.3650  -17.9250   20.1240 H   0  0  0  0  0  0  0  0  0  0  0  0
  -28.6200  -14.3170   20.9240 C   0  0  0  0  0  0  0  0  0  0  0  0
  -27.6340  -13.5490   21.4640 C   0  0  0  0  0  0  0  0  0  0  0  0
  -27.2750  -12.5950   20.4610 C   0  0  0  0  0  0  0  0  0  0  0  0
  -28.8040  -13.8280   19.6500 N   0  0  0  0  0  0  0  0  0  0  0  0
  -28.0420  -12.7380   19.3850 N   0  0  0  0  0  0  0  0  0  0  0  0
  -26.2000  -11.6000   20.4450 C   0  0  0  0  0  0  0  0  0  0  0  0
  -26.4160  -10.2670   20.8630 C   0  0  0  0  0  3  0  0  0  0  0  0
  -25.3540   -9.3380   20.8590 C   0  0  0  0  0  3  0  0  0  0  0  0
  -24.0630   -9.7380   20.4380 C   0  0  0  0  0  0  0  0  0  0  0  0
  -23.8610  -11.0590   20.0000 C   0  0  0  0  0  3  0  0  0  0  0  0
  -24.9200  -11.9810   19.9990 C   0  0  0  0  0  3  0  0  0  0  0  0
  -22.9770   -8.8990   20.3780 O   0  0  0  0  0  0  0  0  0  0  0  0
  -22.4050   -8.3800   21.5130 C   0  0  0  0  0  0  0  0  0  0  0  0
  -22.0290   -9.2010   22.5990 C   0  0  0  0  0  3  0  0  0  0  0  0
  -21.3820   -8.6350   23.7150 C   0  0  0  0  0  3  0  0  0  0  0  0
  -21.1030   -7.2550   23.7440 C   0  0  0  0  0  0  0  0  0  0  0  0
  -21.4720   -6.4380   22.6610 C   0  0  0  0  0  3  0  0  0  0  0  0
  -22.1200   -7.0010   21.5480 C   0  0  0  0  0  0  0  0  0  0  0  0
  -22.4560   -6.2140   20.4970 F   0  0  0  0  0  0  0  0  0  0  0  0
  -20.4730   -6.7140   24.8130 F   0  0  0  0  0  0  0  0  0  0  0  0
  -26.9960  -13.7620   22.8030 C   0  0  0  0  0  0  0  0  0  0  0  0
  -26.6080  -12.6840   23.4720 N   0  0  0  0  0  0  0  0  0  0  0  0
  -26.8890  -14.8900   23.2820 O   0  0  0  0  0  0  0  0  0  0  0  0
  -26.7220  -11.7590   23.0840 H   0  0  0  0  0  0  0  0  0  0  0  0
  -26.1920  -12.7840   24.3860 H   0  0  0  0  0  0  0  0  0  0  0  0
  -29.3590  -15.4030   21.3900 N   0  0  0  0  0  0  0  0  0  0  0  0
  -29.1570  -15.8330   22.2860 H   0  0  0  0  0  0  0  0  0  0  0  0
  -29.9620  -15.9670   20.8080 H   0  0  0  0  0  0  0  0  0  0  0  0
  -30.0340  -22.2960   25.5380 C   0  0  0  0  0  2  0  0  0  0  0  0
  -30.0190  -21.2210   24.4470 C   0  0  0  0  0  2  0  0  0  0  0  0
  -29.7610  -23.3140   24.4250 C   0  0  0  0  0  2  0  0  0  0  0  0
  -29.1660  -22.1690   23.5830 C   0  0  0  0  0  3  0  0  0  0  0  0
  1  3  1  0
  2  1  1  0
  2  4  1  0
  5  6  2  0
  8  7  1  0
 11 22  2  0
 12 10  1  0
 12 17  1  0
 13 23  1  1
 13 21  1  0
 14 19  1  1
 14 20  1  0
 14 16  1  0
 14 13  1  0
 15 21  1  0
 16 17  1  0
 16 15  1  0
 18 12  1  0
 18 19  1  0
 20 13  1  0
 21 11  1  0
 23 24  1  0
 23 25  2  0
 26 24  1  0
 27 32  2  0
 27 36  1  0
 28 24  1  0
 28 29  1  0
 28 32  1  0
 30 31  1  0
 30 29  1  0
 31 27  1  0
 32 33  1  0
 33 34  2  0
 35 34  1  0
 36 35  2  0
 37 11  1  0
 37 38  1  0
 37 47  1  0
 38 41  1  0
 39 38  1  0
 39 43  1  0
 40 39  2  0
 43 42  1  0
 45 43  1  0
 45 46  1  0
 45 44  1  0
 47 50  1  1
 47 48  1  0
 49 47  1  0
 52 66  1  0
 53 58  1  0
 54 53  1  0
 54 55  1  0
 56 55  1  0
 56 57  1  0
 56 71  1  0
 58 52  1  0
 58 57  1  0
 59 52  2  0
 60 62  1  0
 61 63  1  0
 62 99  1  0
 63 62  2  0
 64 60  2  0
 65 64  1  0
 65 61  2  0
 66 64  1  0
 66 67  1  0
 68 93  1  0
 68 69  2  0
 69 88  1  0
 70 69  1  0
 71 68  1  0
 72 71  1  0
 72 70  2  0
 73 70  1  0
 73 74  1  0
 75 74  2  0
 76 75  1  0
 77 76  2  0
 78 77  1  0
 78 73  2  0
 79 76  1  0
 79 80  1  0
 80 85  2  0
 80 81  1  0
 81 82  2  0
 82 83  1  0
 83 87  1  0
 84 83  2  0
 85 84  1  0
 86 85  1  0
 88 90  2  0
 88 89  1  0
 89 92  1  0
 91 89  1  0
 93 94  1  0
 95 93  1  0
 97 96  1  0
 98 96  1  0
 99 98  1  0
 99 97  1  0
M  ISO  4   9 101  10 101  52 100  66 100
M  END
>  <TORSDO>  (24) 
F 21

>  <SCORE>  (24) 
4.978

>  <name>  (24) 
23

>  <ligand_id>  (24) 
23

>  <original_smiles>  (24) 
[H]c1nc(N([H])C(=O)N2C([H])([H])C([H])([H])C([H])([H])C([H])(n3nc(-c4c([H])c([H])c(Oc5c([H])c([H])c(F)c([H])c5F)c([H])c4[H])c(C(=O)N([H])[H])c3N([H])[H])C2([H])[H])c([H])c(C2([H])C([H])([H])C([H])([H])C2([H])[H])c1C([H])([H])N([H])C(=O)C(=O)C([H])(C([H])([H])[H])C([H])([H])Oc1c([H])c([H])c2c(c1[H])C([H])([H])N(C(=O)C([H])(N([H])C(=O)C([H])(N([H])C([H])([H])[H])C([H])([H])[H])C(C([H])([H])[H])(C([H])([H])[H])C([H])([H])[H])C([H])(C(=O)N([H])C1([H])c3c([H])c([H])c([H])c([H])c3C([H])([H])C([H])([H])C1([H])[H])C2([H])[H]

>  <smiles>  (24) 
[H]c1nc(N([H])C(=O)N2C([H])([H])C([H])([H])C([H])([H])C([H])(n3nc(-c4c([H])c([H])c(Oc5c([H])c([H])c(F)c([H])c5F)c([H])c4[H])c(C(=O)N([H])[H])c3N([H])[H])C2([H])[H])c([H])c(C2([H])C([H])([H])C([H])([H])C2([H])[H])c1C([H])([H])N([H])C(=O)C(=O)C([H])(C([H])([H])[H])C([H])([H])Oc1c([H])c([H])c2c(c1[H])C([H])([H])N(C(=O)C([H])(N([H])C(=O)C([H])(N([H])C([H])([H])[H])C([H])([H])[H])C(C([H])([H])[H])(C([H])([H])[H])C([H])([H])[H])C([H])(C(=O)N([H])C1([H])c3c([H])c([H])c([H])c([H])c3C([H])([H])C([H])([H])C1([H])[H])C2([H])[H]

$$$$
24:0:0
     RDKit          3D

 97105  0  0  1  0  0  0  0  0999 V2000
  -28.8290  -20.6150   22.2430 C   0  0  0  0  0  1  0  0  0  0  0  0
  -29.0400  -20.7640   20.7220 C   0  0  0  0  0  3  0  0  0  0  0  0
  -29.7850  -18.2590   20.7040 C   0  0  0  0  0  3  0  0  0  0  0  0
  -30.7130  -17.3130   18.6860 C   0  0  0  0  0  3  0  0  0  0  0  0
  -29.6720  -19.5150   20.0380 C   0  0  0  0  0  0  0  0  0  0  0  0
  -30.2890  -17.1250   20.0200 C   0  0  0  0  0  0  0  0  0  0  0  0
  -30.0710  -19.5310   18.6800 C   0  0  0  0  0  0  0  0  0  0  0  0
  -30.6140  -18.4890   18.0360 N   0  0  0  0  0  0  0  0  0  0  0  0
  -29.9470  -20.6630   17.8880 N   0  0  0  0  0  0  0  0  0  0  0  0
  -28.9860  -20.9690   17.7920 H   0  0  0  0  0  0  0  0  0  0  0  0
  -30.2850  -20.4790   16.9500 H   0  0  0  0  0  0  0  0  0  0  0  0
  -30.9930  -14.7610   20.2000 C   0  0  0  0  0  0  0  0  0  0  0  0
  -30.6760  -12.5770   19.1190 C   0  0  0  0  0  2  0  0  0  0  0  0
  -29.7310  -12.7750   17.9160 C   0  0  0  0  0  2  0  0  0  0  0  0
  -28.2560  -12.6660   18.3560 C   0  0  0  0  0  2  0  0  0  0  0  0
  -27.9350  -13.5150   19.6180 C   0  0  0  0  0  3  0  0  0  0  0  0
  -29.0000  -13.3040   20.7190 C   0  0  0  0  0  2  0  0  0  0  0  0
  -30.3240  -13.5800   20.1370 N   0  0  0  0  0  0  0  0  0  0  0  0
  -32.1300  -14.9170   19.7440 O   0  0  0  0  0  0  0  0  0  0  0  0
  -30.2790  -15.8230   20.6290 N   0  0  0  0  0  0  0  0  0  0  0  0
  -29.4760  -15.6010   21.2000 H   0  0  0  0  0  0  0  0  0  0  0  0
  -25.5480  -14.1340   20.3540 C   0  0  0  0  0  0  0  0  0  0  0  0
  -24.4800  -13.3660   20.7330 C   0  0  0  0  0  0  0  0  0  0  0  0
  -24.9300  -12.0110   20.6890 C   0  0  0  0  0  0  0  0  0  0  0  0
  -26.5850  -13.2470   20.1090 N   0  0  0  0  0  0  0  0  0  0  0  0
  -26.2150  -11.9640   20.3640 N   0  0  0  0  0  0  0  0  0  0  0  0
  -24.1960  -10.7530   20.8800 C   0  0  0  0  0  0  0  0  0  0  0  0
  -24.5720   -9.8250   21.8730 C   0  0  0  0  0  3  0  0  0  0  0  0
  -23.8410   -8.6300   22.0500 C   0  0  0  0  0  3  0  0  0  0  0  0
  -22.7190   -8.3570   21.2320 C   0  0  0  0  0  0  0  0  0  0  0  0
  -22.3640   -9.2730   20.2260 C   0  0  0  0  0  3  0  0  0  0  0  0
  -23.0960  -10.4580   20.0480 C   0  0  0  0  0  3  0  0  0  0  0  0
  -21.9650   -7.2110   21.3140 O   0  0  0  0  0  0  0  0  0  0  0  0
  -21.7730   -6.5590   22.5050 C   0  0  0  0  0  0  0  0  0  0  0  0
  -21.1150   -7.1730   23.5930 C   0  0  0  0  0  3  0  0  0  0  0  0
  -20.8750   -6.4430   24.7730 C   0  0  0  0  0  3  0  0  0  0  0  0
  -21.2830   -5.0980   24.8650 C   0  0  0  0  0  0  0  0  0  0  0  0
  -21.9330   -4.4840   23.7810 C   0  0  0  0  0  3  0  0  0  0  0  0
  -22.1740   -5.2120   22.6030 C   0  0  0  0  0  0  0  0  0  0  0  0
  -22.7800   -4.6080   21.5510 F   0  0  0  0  0  0  0  0  0  0  0  0
  -21.0450   -4.3930   25.9960 F   0  0  0  0  0  0  0  0  0  0  0  0
  -23.0890  -13.8520   21.0230 C   0  0  0  0  0  0  0  0  0  0  0  0
  -22.3690  -13.1560   21.8970 N   0  0  0  0  0  0  0  0  0  0  0  0
  -22.6490  -14.8800   20.5110 O   0  0  0  0  0  0  0  0  0  0  0  0
  -22.7400  -12.3260   22.3340 H   0  0  0  0  0  0  0  0  0  0  0  0
  -21.4360  -13.4610   22.1340 H   0  0  0  0  0  0  0  0  0  0  0  0
  -25.7160  -15.5030   20.1760 N   0  0  0  0  0  0  0  0  0  0  0  0
  -24.9420  -16.1530   20.2720 H   0  0  0  0  0  0  0  0  0  0  0  0
  -26.5560  -15.9370   19.8140 H   0  0  0  0  0  0  0  0  0  0  0  0
  -29.7350  -22.0560   20.4350 N   0  0  0  0  0  4  0  0  0  0  0  0
  -30.3900  -22.2980   21.1620 H   0  0  0  0  0  0  0  0  0  0  0  0
  -30.2590  -21.9350   19.5780 H   0  0  0  0  0  0  0  0  0  0  0  0
  -28.8080  -23.1980   20.2010 C   0  0  0  0  0  2  0  0  0  0  0  0
  -29.5390  -24.5560   20.1980 C   0  0  0  0  0  0  0  0  0  0  0  0
  -30.6020  -24.7250   20.8040 O   0  0  0  0  0  0  0  0  0  0  0  0
  -28.8480  -25.6810   19.3990 C   0  0  0  0  0  2  0  0  0  0  0  0
  -28.7660  -26.9480   20.0990 O   0  0  0  0  0  0  0  0  0  0  0  0
  -24.6980  -31.9010   23.2620 C   0  0  0  0  0  0  0  0  0  0  0  0
  -27.5700  -27.6560   20.0600 C   0  0  0  0  0  0  0  0  0  0  0  0
  -23.5860  -30.5300   21.5360 C   0  0  0  0  0  3  0  0  0  0  0  0
  -25.1260  -29.1110   20.0830 C   0  0  0  0  0  0  0  0  0  0  0  0
  -26.1070  -30.9690   21.4250 C   0  0  0  0  0  2  0  0  0  0  0  0
  -26.2530  -29.6280   20.7320 C   0  0  0  0  0  0  0  0  0  0  0  0
  -27.4720  -28.9040   20.7280 C   0  0  0  0  0  3  0  0  0  0  0  0
  -26.4180  -27.1810   19.3850 C   0  0  0  0  0  3  0  0  0  0  0  0
  -25.2040  -27.8850   19.4120 C   0  0  0  0  0  3  0  0  0  0  0  0
  -23.8530  -29.9240   20.1340 C   0  0  0  0  0  2  0  0  0  0  0  0
  -24.8150  -31.1470   22.1320 N   0  0  0  0  0  0  0  0  0  0  0  0
  -23.5940  -32.1110   23.7820 O   0  0  0  0  0  0  0  0  0  0  0  0
  -22.9500  -29.4430   22.4330 C   0  0  0  0  0  0  0  0  0  0  0  0
  -21.6360  -29.2190   22.2660 N   0  0  0  0  0  0  0  0  0  0  0  0
  -23.6380  -28.8060   23.2360 O   0  0  0  0  0  0  0  0  0  0  0  0
  -21.1390  -29.7940   21.5980 H   0  0  0  0  0  0  0  0  0  0  0  0
  -18.2860  -27.9200   22.6660 C   0  0  0  0  0  0  0  0  0  0  0  0
  -20.8360  -28.2200   22.9740 C   0  0  0  0  0  3  0  0  0  0  0  0
  -20.9760  -26.8260   22.3200 C   0  0  0  0  0  2  0  0  0  0  0  0
  -19.8880  -26.5330   21.2820 C   0  0  0  0  0  2  0  0  0  0  0  0
  -18.4980  -26.6140   21.9200 C   0  0  0  0  0  2  0  0  0  0  0  0
  -19.3830  -28.6820   23.1480 C   0  0  0  0  0  0  0  0  0  0  0  0
  -19.1340  -29.9040   23.8080 C   0  0  0  0  0  3  0  0  0  0  0  0
  -17.8170  -30.3670   23.9900 C   0  0  0  0  0  3  0  0  0  0  0  0
  -16.7320  -29.6030   23.5240 C   0  0  0  0  0  3  0  0  0  0  0  0
  -16.9690  -28.3810   22.8690 C   0  0  0  0  0  3  0  0  0  0  0  0
  -25.9450  -32.5530   23.9390 C   0  0  0  0  0  3  0  0  0  0  0  0
  -25.5980  -33.9460   24.2500 N   0  0  0  0  0  0  0  0  0  0  0  0
  -25.9340  -35.0010   23.4960 C   0  0  0  0  0  0  0  0  0  0  0  0
  -26.6400  -34.9050   22.4880 O   0  0  0  0  0  0  0  0  0  0  0  0
  -24.9770  -34.0940   25.0320 H   0  0  0  0  0  0  0  0  0  0  0  0
  -24.1870  -36.7590   23.0660 C   0  0  0  0  0  1  0  0  0  0  0  0
  -25.4030  -36.3810   23.9280 C   0  0  0  0  0  3  0  0  0  0  0  0
  -27.4760  -37.3170   24.8490 C   0  0  0  0  0  1  0  0  0  0  0  0
  -26.4210  -37.4530   23.8500 N   0  0  0  0  0  0  0  0  0  0  0  0
  -25.9900  -38.3680   23.9660 H   0  0  0  0  0  0  0  0  0  0  0  0
  -26.4150  -31.7910   25.2380 C   0  0  1  0  0  0  0  0  0  0  0  0
  -25.2760  -31.5190   26.2470 C   0  0  0  0  0  1  0  0  0  0  0  0
  -27.0550  -30.4320   24.8710 C   0  0  0  0  0  1  0  0  0  0  0  0
  -27.5060  -32.6130   25.9610 C   0  0  0  0  0  1  0  0  0  0  0  0
  2  1  1  0
  4  6  1  0
  5  3  1  0
  5  2  1  0
  6 20  1  0
  6  3  2  0
  7  5  2  0
  8  7  1  0
  8  4  2  0
  9  7  1  0
 10  9  1  0
 11  9  1  0
 12 20  1  0
 13 18  1  0
 14 15  1  0
 14 13  1  0
 16 15  1  0
 16 25  1  0
 16 17  1  0
 18 12  1  0
 18 17  1  0
 19 12  2  0
 20 21  1  0
 22 23  2  0
 23 42  1  0
 24 23  1  0
 24 27  1  0
 25 22  1  0
 25 26  1  0
 26 24  2  0
 27 28  1  0
 28 29  2  0
 30 33  1  0
 30 29  1  0
 31 30  2  0
 32 31  1  0
 32 27  2  0
 33 34  1  0
 34 39  2  0
 34 35  1  0
 35 36  2  0
 36 37  1  0
 37 41  1  0
 38 37  2  0
 39 38  1  0
 40 39  1  0
 42 43  1  0
 43 46  1  0
 43 45  1  0
 44 42  2  0
 47 48  1  0
 47 22  1  0
 49 47  1  0
 50  2  1  0
 50 51  1  0
 52 50  1  0
 53 50  1  0
 54 53  1  0
 54 55  2  0
 56 57  1  0
 56 54  1  0
 58 69  2  0
 59 57  1  0
 59 64  1  0
 60 68  1  0
 60 70  1  0
 61 67  1  0
 61 63  1  0
 62 68  1  0
 63 62  1  0
 64 63  2  0
 65 66  1  0
 65 59  2  0
 66 61  2  0
 67 60  1  0
 68 58  1  0
 70 72  2  0
 71 70  1  0
 73 71  1  0
 74 83  2  0
 74 79  1  0
 75 71  1  0
 75 79  1  0
 76 75  1  0
 77 78  1  0
 77 76  1  0
 78 74  1  0
 79 80  2  0
 80 81  1  0
 82 81  2  0
 83 82  1  0
 84 58  1  0
 84 85  1  0
 84 94  1  0
 85 88  1  0
 86 90  1  0
 86 85  1  0
 87 86  2  0
 90 89  1  0
 92 90  1  0
 92 93  1  0
 92 91  1  0
 94 97  1  1
 94 95  1  0
 96 94  1  0
M  ISO  4  12 100  20 100  56 101  57 101
M  END
>  <TORSDO>  (25) 
F 21

>  <SCORE>  (25) 
-12.250

>  <name>  (25) 
24

>  <ligand_id>  (25) 
24

>  <original_smiles>  (25) 
[H]c1nc(N([H])[H])c(C([H])(C([H])([H])[H])[N+]([H])([H])C([H])([H])C(=O)C([H])([H])Oc2c([H])c([H])c3c(c2[H])C([H])([H])N(C(=O)C([H])(N([H])C(=O)C([H])(N([H])C([H])([H])[H])C([H])([H])[H])C(C([H])([H])[H])(C([H])([H])[H])C([H])([H])[H])C([H])(C(=O)N([H])C2([H])c4c([H])c([H])c([H])c([H])c4C([H])([H])C([H])([H])C2([H])[H])C3([H])[H])c([H])c1N([H])C(=O)N1C([H])([H])C([H])([H])C([H])([H])C([H])(n2nc(-c3c([H])c([H])c(Oc4c([H])c([H])c(F)c([H])c4F)c([H])c3[H])c(C(=O)N([H])[H])c2N([H])[H])C1([H])[H]

>  <smiles>  (25) 
[H]c1nc(N([H])[H])c(C([H])(C([H])([H])[H])[N+]([H])([H])C([H])([H])C(=O)C([H])([H])Oc2c([H])c([H])c3c(c2[H])C([H])([H])N(C(=O)C([H])(N([H])C(=O)C([H])(N([H])C([H])([H])[H])C([H])([H])[H])C(C([H])([H])[H])(C([H])([H])[H])C([H])([H])[H])C([H])(C(=O)N([H])C2([H])c4c([H])c([H])c([H])c([H])c4C([H])([H])C([H])([H])C2([H])[H])C3([H])[H])c([H])c1N([H])C(=O)N1C([H])([H])C([H])([H])C([H])([H])C([H])(n2nc(-c3c([H])c([H])c(Oc4c([H])c([H])c(F)c([H])c4F)c([H])c3[H])c(C(=O)N([H])[H])c2N([H])[H])C1([H])[H]

$$$$
25:0:0
     RDKit          3D

 96104  0  0  1  0  0  0  0  0999 V2000
  -28.5820  -22.5540   20.8010 C   0  0  0  0  0  2  0  0  0  0  0  0
  -29.1790  -23.9720   20.6960 C   0  0  0  0  0  0  0  0  0  0  0  0
  -29.7070  -24.4650   21.6950 O   0  0  0  0  0  0  0  0  0  0  0  0
  -28.8310  -25.9820   19.2580 C   0  0  0  0  0  3  0  0  0  0  0  0
  -29.1290  -24.6710   19.3900 C   0  0  0  0  0  0  0  0  0  0  0  0
  -29.4080  -23.9270   18.3100 O   0  0  0  0  0  0  0  0  0  0  0  0
  -29.5550  -23.0380   18.6180 H   0  0  0  0  0  0  0  0  0  0  0  0
  -28.5140  -26.8170   20.2980 O   0  0  0  0  0  0  0  0  0  0  0  0
  -24.6090  -31.9500   23.2660 C   0  0  0  0  0  0  0  0  0  0  0  0
  -27.3360  -27.5310   20.2330 C   0  0  0  0  0  0  0  0  0  0  0  0
  -23.4280  -30.5230   21.6210 C   0  0  0  0  0  3  0  0  0  0  0  0
  -24.9130  -28.9910   20.2250 C   0  0  0  0  0  0  0  0  0  0  0  0
  -25.9490  -30.9170   21.4390 C   0  0  0  0  0  2  0  0  0  0  0  0
  -26.0600  -29.5420   20.8100 C   0  0  0  0  0  0  0  0  0  0  0  0
  -27.2700  -28.8170   20.8160 C   0  0  0  0  0  3  0  0  0  0  0  0
  -26.1660  -26.9870   19.6520 C   0  0  0  0  0  3  0  0  0  0  0  0
  -24.9600  -27.7120   19.6470 C   0  0  0  0  0  3  0  0  0  0  0  0
  -23.6590  -29.8300   20.2510 C   0  0  0  0  0  2  0  0  0  0  0  0
  -24.6790  -31.1450   22.1680 N   0  0  0  0  0  0  0  0  0  0  0  0
  -23.5230  -32.2130   23.8010 O   0  0  0  0  0  0  0  0  0  0  0  0
  -22.7800  -29.5060   22.5870 C   0  0  0  0  0  0  0  0  0  0  0  0
  -21.4590  -29.3120   22.4520 N   0  0  0  0  0  0  0  0  0  0  0  0
  -23.4610  -28.8900   23.4110 O   0  0  0  0  0  0  0  0  0  0  0  0
  -20.9720  -29.8490   21.7470 H   0  0  0  0  0  0  0  0  0  0  0  0
  -18.0910  -28.1050   22.9460 C   0  0  0  0  0  0  0  0  0  0  0  0
  -20.6450  -28.3760   23.2280 C   0  0  0  0  0  3  0  0  0  0  0  0
  -20.7570  -26.9430   22.6590 C   0  0  0  0  0  2  0  0  0  0  0  0
  -19.6640  -26.6130   21.6380 C   0  0  0  0  0  2  0  0  0  0  0  0
  -18.2770  -26.7550   22.2770 C   0  0  0  0  0  2  0  0  0  0  0  0
  -19.2050  -28.8720   23.3780 C   0  0  0  0  0  0  0  0  0  0  0  0
  -18.9820  -30.1370   23.9640 C   0  0  0  0  0  3  0  0  0  0  0  0
  -17.6730  -30.6340   24.1210 C   0  0  0  0  0  3  0  0  0  0  0  0
  -16.5730  -29.8650   23.7090 C   0  0  0  0  0  3  0  0  0  0  0  0
  -16.7830  -28.6020   23.1250 C   0  0  0  0  0  3  0  0  0  0  0  0
  -25.8880  -32.5950   23.8910 C   0  0  0  0  0  3  0  0  0  0  0  0
  -25.5640  -33.9910   24.2090 N   0  0  0  0  0  0  0  0  0  0  0  0
  -25.8900  -35.0410   23.4420 C   0  0  0  0  0  0  0  0  0  0  0  0
  -26.5660  -34.9360   22.4150 O   0  0  0  0  0  0  0  0  0  0  0  0
  -24.9630  -34.1470   25.0050 H   0  0  0  0  0  0  0  0  0  0  0  0
  -24.1460  -36.8140   23.0670 C   0  0  0  0  0  1  0  0  0  0  0  0
  -25.3870  -36.4260   23.8880 C   0  0  0  0  0  3  0  0  0  0  0  0
  -27.5080  -37.3380   24.7200 C   0  0  0  0  0  1  0  0  0  0  0  0
  -26.4080  -37.4890   23.7720 N   0  0  0  0  0  0  0  0  0  0  0  0
  -25.9910  -38.4050   23.9120 H   0  0  0  0  0  0  0  0  0  0  0  0
  -26.4120  -31.8350   25.1710 C   0  0  1  0  0  0  0  0  0  0  0  0
  -25.3210  -31.5810   26.2350 C   0  0  0  0  0  1  0  0  0  0  0  0
  -27.0220  -30.4680   24.7850 C   0  0  0  0  0  1  0  0  0  0  0  0
  -27.5440  -32.6530   25.8400 C   0  0  0  0  0  1  0  0  0  0  0  0
  -29.5880  -21.4970   20.6480 N   0  0  0  0  0  0  0  0  0  0  0  0
  -30.4660  -21.6740   21.1330 H   0  0  0  0  0  0  0  0  0  0  0  0
  -30.1220  -19.1370   20.8770 C   0  0  0  0  0  3  0  0  0  0  0  0
  -28.5490  -17.3950   20.2150 C   0  0  0  0  0  3  0  0  0  0  0  0
  -27.9460  -19.7550   19.9860 C   0  0  0  0  0  3  0  0  0  0  0  0
  -29.8160  -17.7620   20.7270 C   0  0  0  0  0  0  0  0  0  0  0  0
  -29.2050  -20.1470   20.4970 C   0  0  0  0  0  0  0  0  0  0  0  0
  -27.6200  -18.3880   19.8520 C   0  0  0  0  0  0  0  0  0  0  0  0
  -26.4070  -18.0330   19.3640 F   0  0  0  0  0  0  0  0  0  0  0  0
  -30.8610  -16.7190   21.1470 C   0  0  0  0  0  2  0  0  0  0  0  0
  -30.9610  -14.3440   20.3490 C   0  0  0  0  0  0  0  0  0  0  0  0
  -30.6360  -12.1090   19.3600 C   0  0  0  0  0  2  0  0  0  0  0  0
  -29.7150  -12.2140   18.1270 C   0  0  0  0  0  2  0  0  0  0  0  0
  -28.2400  -12.1030   18.5520 C   0  0  0  0  0  2  0  0  0  0  0  0
  -27.8870  -13.0670   19.7170 C   0  0  0  0  0  3  0  0  0  0  0  0
  -28.9200  -12.9490   20.8610 C   0  0  0  0  0  2  0  0  0  0  0  0
  -30.2650  -13.1790   20.2980 N   0  0  0  0  0  0  0  0  0  0  0  0
  -32.0160  -14.5240   19.7320 O   0  0  0  0  0  0  0  0  0  0  0  0
  -30.4070  -15.3220   21.0830 N   0  0  0  0  0  0  0  0  0  0  0  0
  -29.5900  -15.0760   21.6160 H   0  0  0  0  0  0  0  0  0  0  0  0
  -25.5130  -13.7710   20.4230 C   0  0  0  0  0  0  0  0  0  0  0  0
  -24.4170  -13.0420   20.8000 C   0  0  0  0  0  0  0  0  0  0  0  0
  -24.8260  -11.6750   20.7750 C   0  0  0  0  0  0  0  0  0  0  0  0
  -26.5240  -12.8500   20.1960 N   0  0  0  0  0  0  0  0  0  0  0  0
  -26.1130  -11.5840   20.4640 N   0  0  0  0  0  0  0  0  0  0  0  0
  -24.0540  -10.4450   20.9760 C   0  0  0  0  0  0  0  0  0  0  0  0
  -24.4510   -9.4710   21.9170 C   0  0  0  0  0  3  0  0  0  0  0  0
  -23.6800   -8.3030   22.1050 C   0  0  0  0  0  3  0  0  0  0  0  0
  -22.5000   -8.1020   21.3530 C   0  0  0  0  0  0  0  0  0  0  0  0
  -22.1220   -9.0650   20.4010 C   0  0  0  0  0  3  0  0  0  0  0  0
  -22.8920  -10.2240   20.2110 C   0  0  0  0  0  3  0  0  0  0  0  0
  -21.7030   -6.9860   21.4500 O   0  0  0  0  0  0  0  0  0  0  0  0
  -21.6200   -6.2610   22.6110 C   0  0  0  0  0  0  0  0  0  0  0  0
  -21.2220   -6.8500   23.8320 C   0  0  0  0  0  3  0  0  0  0  0  0
  -21.0800   -6.0510   24.9850 C   0  0  0  0  0  3  0  0  0  0  0  0
  -21.3280   -4.6670   24.9180 C   0  0  0  0  0  0  0  0  0  0  0  0
  -21.7220   -4.0790   23.7030 C   0  0  0  0  0  3  0  0  0  0  0  0
  -21.8630   -4.8730   22.5520 C   0  0  0  0  0  0  0  0  0  0  0  0
  -22.2210   -4.2980   21.3790 F   0  0  0  0  0  0  0  0  0  0  0  0
  -21.1860   -3.8990   26.0230 F   0  0  0  0  0  0  0  0  0  0  0  0
  -23.0410  -13.5750   21.0760 C   0  0  0  0  0  0  0  0  0  0  0  0
  -22.2970  -12.9140   21.9560 N   0  0  0  0  0  0  0  0  0  0  0  0
  -22.6360  -14.6110   20.5490 O   0  0  0  0  0  0  0  0  0  0  0  0
  -22.6430  -12.0750   22.4010 H   0  0  0  0  0  0  0  0  0  0  0  0
  -21.3730  -13.2480   22.1900 H   0  0  0  0  0  0  0  0  0  0  0  0
  -25.7260  -15.1330   20.2390 N   0  0  0  0  0  0  0  0  0  0  0  0
  -24.9810  -15.8060   20.3770 H   0  0  0  0  0  0  0  0  0  0  0  0
  -26.5880  -15.5610   19.9290 H   0  0  0  0  0  0  0  0  0  0  0  0
  2  1  1  0
  2  3  2  0
  4  5  2  0
  4  8  1  0
  5  2  1  0
  6  7  1  0
  6  5  1  0
  9 20  2  0
 10  8  1  0
 10 15  1  0
 11 19  1  0
 11 21  1  0
 12 18  1  0
 12 14  1  0
 13 19  1  0
 14 15  2  0
 14 13  1  0
 16 10  2  0
 17 16  1  0
 17 12  2  0
 18 11  1  0
 19  9  1  0
 21 23  2  0
 22 21  1  0
 24 22  1  0
 25 34  2  0
 25 30  1  0
 26 22  1  0
 26 30  1  0
 27 26  1  0
 28 29  1  0
 28 27  1  0
 29 25  1  0
 30 31  2  0
 31 32  1  0
 33 32  2  0
 34 33  1  0
 35  9  1  0
 35 36  1  0
 35 45  1  0
 36 39  1  0
 37 41  1  0
 37 36  1  0
 38 37  2  0
 41 40  1  0
 43 41  1  0
 43 44  1  0
 43 42  1  0
 45 48  1  1
 45 46  1  0
 47 45  1  0
 49  1  1  0
 49 50  1  0
 52 54  2  0
 53 55  1  0
 54 51  1  0
 54 58  1  0
 55 49  1  0
 55 51  2  0
 56 53  2  0
 56 52  1  0
 57 56  1  0
 59 67  1  0
 60 65  1  0
 61 62  1  0
 61 60  1  0
 63 62  1  0
 63 72  1  0
 63 64  1  0
 65 59  1  0
 65 64  1  0
 66 59  2  0
 67 58  1  0
 67 68  1  0
 69 70  2  0
 70 89  1  0
 71 70  1  0
 71 74  1  0
 72 69  1  0
 72 73  1  0
 73 71  2  0
 74 75  1  0
 75 76  2  0
 77 80  1  0
 77 76  1  0
 78 77  2  0
 79 78  1  0
 79 74  2  0
 80 81  1  0
 81 82  1  0
 82 83  2  0
 84 83  1  0
 84 88  1  0
 85 84  2  0
 86 81  2  0
 86 85  1  0
 87 86  1  0
 89 90  1  0
 90 93  1  0
 90 92  1  0
 91 89  2  0
 94 95  1  0
 94 69  1  0
 96 94  1  0
M  ISO  4   4 101   8 101  59 100  67 100
M  END
>  <TORSDO>  (26) 
F 22

>  <SCORE>  (26) 
-13.671

>  <name>  (26) 
25

>  <ligand_id>  (26) 
25

>  <original_smiles>  (26) 
[H]OC(C(=O)C([H])([H])N([H])c1c([H])c(F)c([H])c(C([H])([H])N([H])C(=O)N2C([H])([H])C([H])([H])C([H])([H])C([H])(n3nc(-c4c([H])c([H])c(Oc5c([H])c([H])c(F)c([H])c5F)c([H])c4[H])c(C(=O)N([H])[H])c3N([H])[H])C2([H])[H])c1[H])=C([H])Oc1c([H])c([H])c2c(c1[H])C([H])([H])N(C(=O)C([H])(N([H])C(=O)C([H])(N([H])C([H])([H])[H])C([H])([H])[H])C(C([H])([H])[H])(C([H])([H])[H])C([H])([H])[H])C([H])(C(=O)N([H])C1([H])c3c([H])c([H])c([H])c([H])c3C([H])([H])C([H])([H])C1([H])[H])C2([H])[H]

>  <smiles>  (26) 
[H]OC(C(=O)C([H])([H])N([H])c1c([H])c(F)c([H])c(C([H])([H])N([H])C(=O)N2C([H])([H])C([H])([H])C([H])([H])C([H])(n3nc(-c4c([H])c([H])c(Oc5c([H])c([H])c(F)c([H])c5F)c([H])c4[H])c(C(=O)N([H])[H])c3N([H])[H])C2([H])[H])c1[H])=C([H])Oc1c([H])c([H])c2c(c1[H])C([H])([H])N(C(=O)C([H])(N([H])C(=O)C([H])(N([H])C([H])([H])[H])C([H])([H])[H])C(C([H])([H])[H])(C([H])([H])[H])C([H])([H])[H])C([H])(C(=O)N([H])C1([H])c3c([H])c([H])c([H])c([H])c3C([H])([H])C([H])([H])C1([H])[H])C2([H])[H]

$$$$
26:0:0
     RDKit          3D

 97106  0  0  1  0  0  0  0  0999 V2000
  -29.2750  -22.1030   19.5870 C   0  0  0  0  0  2  0  0  0  0  0  0
  -29.6910  -21.9960   22.0470 C   0  0  0  0  0  2  0  0  0  0  0  0
  -28.6810  -23.5410   19.7280 C   0  0  0  0  0  2  0  0  0  0  0  0
  -29.0920  -23.4150   22.2200 C   0  0  0  0  0  2  0  0  0  0  0  0
  -29.0460  -21.2490   20.8600 C   0  0  0  0  0  3  0  0  0  0  0  0
  -29.1950  -24.3260   20.9640 C   0  0  1  0  0  0  0  0  0  0  0  0
  -30.5900  -19.2000   21.3130 C   0  0  0  0  0  3  0  0  0  0  0  0
  -30.8300  -17.8020   21.3690 C   0  0  0  0  0  3  0  0  0  0  0  0
  -28.7300  -17.4180   20.2260 C   0  0  0  0  0  3  0  0  0  0  0  0
  -29.4030  -19.7360   20.7470 C   0  0  0  0  0  0  0  0  0  0  0  0
  -29.8840  -16.8900   20.8490 C   0  0  0  0  0  0  0  0  0  0  0  0
  -28.4920  -18.8130   20.1640 C   0  0  0  0  0  0  0  0  0  0  0  0
  -30.6800  -14.5410   20.4480 C   0  0  0  0  0  0  0  0  0  0  0  0
  -30.4280  -12.3720   19.2780 C   0  0  0  0  0  2  0  0  0  0  0  0
  -29.4620  -12.5650   18.0890 C   0  0  0  0  0  2  0  0  0  0  0  0
  -27.9930  -12.4120   18.5350 C   0  0  0  0  0  2  0  0  0  0  0  0
  -27.6660  -13.2360   19.8080 C   0  0  0  0  0  3  0  0  0  0  0  0
  -28.7350  -12.9950   20.8980 C   0  0  0  0  0  2  0  0  0  0  0  0
  -30.0520  -13.3350   20.3260 N   0  0  0  0  0  0  0  0  0  0  0  0
  -31.7820  -14.7780   19.9440 O   0  0  0  0  0  0  0  0  0  0  0  0
  -29.9540  -15.4780   21.0930 N   0  0  0  0  0  0  0  0  0  0  0  0
  -29.1060  -15.0830   21.4720 H   0  0  0  0  0  0  0  0  0  0  0  0
  -25.2740  -13.8400   20.5460 C   0  0  0  0  0  0  0  0  0  0  0  0
  -24.2100  -13.0650   20.9230 C   0  0  0  0  0  0  0  0  0  0  0  0
  -24.6700  -11.7140   20.8730 C   0  0  0  0  0  0  0  0  0  0  0  0
  -26.3170  -12.9590   20.2970 N   0  0  0  0  0  0  0  0  0  0  0  0
  -25.9570  -11.6750   20.5490 N   0  0  0  0  0  0  0  0  0  0  0  0
  -23.9450  -10.4500   21.0590 C   0  0  0  0  0  0  0  0  0  0  0  0
  -24.3830   -9.4780   21.9850 C   0  0  0  0  0  3  0  0  0  0  0  0
  -23.6600   -8.2780   22.1590 C   0  0  0  0  0  3  0  0  0  0  0  0
  -22.4840   -8.0430   21.4060 C   0  0  0  0  0  0  0  0  0  0  0  0
  -22.0660   -9.0050   20.4700 C   0  0  0  0  0  3  0  0  0  0  0  0
  -22.7900  -10.1960   20.2940 C   0  0  0  0  0  3  0  0  0  0  0  0
  -21.7320   -6.8960   21.4920 O   0  0  0  0  0  0  0  0  0  0  0  0
  -21.6770   -6.1550   22.6440 C   0  0  0  0  0  0  0  0  0  0  0  0
  -21.2190   -6.7030   23.8630 C   0  0  0  0  0  3  0  0  0  0  0  0
  -21.1130   -5.8860   25.0060 C   0  0  0  0  0  3  0  0  0  0  0  0
  -21.4570   -4.5220   24.9330 C   0  0  0  0  0  0  0  0  0  0  0  0
  -21.9090   -3.9740   23.7200 C   0  0  0  0  0  3  0  0  0  0  0  0
  -22.0160   -4.7880   22.5780 C   0  0  0  0  0  0  0  0  0  0  0  0
  -22.4320   -4.2500   21.4060 F   0  0  0  0  0  0  0  0  0  0  0  0
  -21.3480   -3.7360   26.0280 F   0  0  0  0  0  0  0  0  0  0  0  0
  -22.8160  -13.5410   21.2190 C   0  0  0  0  0  0  0  0  0  0  0  0
  -22.0960  -12.8300   22.0810 N   0  0  0  0  0  0  0  0  0  0  0  0
  -22.3750  -14.5770   20.7230 O   0  0  0  0  0  0  0  0  0  0  0  0
  -22.4660  -11.9910   22.5030 H   0  0  0  0  0  0  0  0  0  0  0  0
  -21.1620  -13.1300   22.3210 H   0  0  0  0  0  0  0  0  0  0  0  0
  -25.4340  -15.2110   20.3790 N   0  0  0  0  0  0  0  0  0  0  0  0
  -24.6690  -15.8630   20.5080 H   0  0  0  0  0  0  0  0  0  0  0  0
  -26.2810  -15.6550   20.0480 H   0  0  0  0  0  0  0  0  0  0  0  0
  -27.3150  -19.2500   19.5550 N   0  0  0  0  0  0  0  0  0  0  0  0
  -26.8190  -18.6240   18.9300 H   0  0  0  0  0  0  0  0  0  0  0  0
  -27.2330  -20.2250   19.2900 H   0  0  0  0  0  0  0  0  0  0  0  0
  -30.5690  -24.6190   20.7900 O   0  0  0  0  0  0  0  0  0  0  0  0
  -31.0140  -23.7940   20.6330 H   0  0  0  0  0  0  0  0  0  0  0  0
  -28.4480  -25.6800   21.2460 C   0  0  0  0  0  2  0  0  0  0  0  0
  -28.4440  -26.6700   20.1960 O   0  0  0  0  0  0  0  0  0  0  0  0
  -24.6090  -31.8850   23.2480 C   0  0  0  0  0  0  0  0  0  0  0  0
  -27.3060  -27.4520   20.1870 C   0  0  0  0  0  0  0  0  0  0  0  0
  -23.4260  -30.4790   21.5930 C   0  0  0  0  0  3  0  0  0  0  0  0
  -24.9050  -28.9510   20.1770 C   0  0  0  0  0  0  0  0  0  0  0  0
  -25.9530  -30.8500   21.4200 C   0  0  0  0  0  2  0  0  0  0  0  0
  -26.0550  -29.4790   20.7780 C   0  0  0  0  0  0  0  0  0  0  0  0
  -27.2620  -28.7370   20.7830 C   0  0  0  0  0  3  0  0  0  0  0  0
  -26.1430  -26.9430   19.5750 C   0  0  0  0  0  3  0  0  0  0  0  0
  -24.9440  -27.6820   19.5720 C   0  0  0  0  0  3  0  0  0  0  0  0
  -23.6540  -29.8020   20.2150 C   0  0  0  0  0  2  0  0  0  0  0  0
  -24.6800  -31.0870   22.1460 N   0  0  0  0  0  0  0  0  0  0  0  0
  -23.5220  -32.1500   23.7800 O   0  0  0  0  0  0  0  0  0  0  0  0
  -22.7720  -29.4540   22.5460 C   0  0  0  0  0  0  0  0  0  0  0  0
  -21.4470  -29.2740   22.4170 N   0  0  0  0  0  0  0  0  0  0  0  0
  -23.4530  -28.8240   23.3590 O   0  0  0  0  0  0  0  0  0  0  0  0
  -20.9580  -29.8340   21.7310 H   0  0  0  0  0  0  0  0  0  0  0  0
  -18.0680  -28.0890   22.9150 C   0  0  0  0  0  0  0  0  0  0  0  0
  -20.6280  -28.3310   23.1790 C   0  0  0  0  0  3  0  0  0  0  0  0
  -20.7220  -26.9070   22.5870 C   0  0  0  0  0  2  0  0  0  0  0  0
  -19.6150  -26.6010   21.5740 C   0  0  0  0  0  2  0  0  0  0  0  0
  -18.2360  -26.7460   22.2230 C   0  0  0  0  0  2  0  0  0  0  0  0
  -19.1920  -28.8400   23.3490 C   0  0  0  0  0  0  0  0  0  0  0  0
  -18.9820  -30.0990   23.9530 C   0  0  0  0  0  3  0  0  0  0  0  0
  -17.6800  -30.6060   24.1290 C   0  0  0  0  0  3  0  0  0  0  0  0
  -16.5710  -29.8510   23.7110 C   0  0  0  0  0  3  0  0  0  0  0  0
  -16.7650  -28.5940   23.1100 C   0  0  0  0  0  3  0  0  0  0  0  0
  -25.8860  -32.5230   23.8790 C   0  0  0  0  0  3  0  0  0  0  0  0
  -26.3910  -31.7630   25.1660 C   0  0  1  0  0  0  0  0  0  0  0  0
  -25.2880  -31.5260   26.2230 C   0  0  0  0  0  1  0  0  0  0  0  0
  -26.9830  -30.3840   24.7880 C   0  0  0  0  0  1  0  0  0  0  0  0
  -27.5320  -32.5630   25.8360 C   0  0  0  0  0  1  0  0  0  0  0  0
  -25.5740  -33.9240   24.1940 N   0  0  0  0  0  0  0  0  0  0  0  0
  -25.9120  -34.9700   23.4290 C   0  0  0  0  0  0  0  0  0  0  0  0
  -26.5930  -34.8570   22.4050 O   0  0  0  0  0  0  0  0  0  0  0  0
  -24.9730  -34.0860   24.9900 H   0  0  0  0  0  0  0  0  0  0  0  0
  -24.1910  -36.7590   23.0270 C   0  0  0  0  0  1  0  0  0  0  0  0
  -25.4160  -36.3610   23.8660 C   0  0  0  0  0  3  0  0  0  0  0  0
  -27.5350  -37.2500   24.7310 C   0  0  0  0  0  1  0  0  0  0  0  0
  -26.4510  -37.4140   23.7670 N   0  0  0  0  0  0  0  0  0  0  0  0
  -26.0410  -38.3340   23.9050 H   0  0  0  0  0  0  0  0  0  0  0  0
  1  3  1  0
  1  5  1  0
  2  4  1  0
  3  6  1  0
  5 10  1  0
  5  2  1  0
  6 56  1  1
  6  4  1  0
  7  8  1  0
  9 11  1  0
 10  7  2  0
 11 21  1  0
 11  8  2  0
 12  9  2  0
 12 10  1  0
 13 21  1  0
 14 19  1  0
 15 16  1  0
 15 14  1  0
 17 16  1  0
 17 26  1  0
 17 18  1  0
 19 13  1  0
 19 18  1  0
 20 13  2  0
 21 22  1  0
 23 24  2  0
 24 43  1  0
 25 24  1  0
 25 28  1  0
 26 23  1  0
 26 27  1  0
 27 25  2  0
 28 29  1  0
 29 30  2  0
 31 34  1  0
 31 30  1  0
 32 31  2  0
 33 32  1  0
 33 28  2  0
 34 35  1  0
 35 36  1  0
 36 37  2  0
 38 37  1  0
 38 42  1  0
 39 38  2  0
 40 35  2  0
 40 39  1  0
 41 40  1  0
 43 44  1  0
 44 47  1  0
 44 46  1  0
 45 43  2  0
 48 49  1  0
 48 23  1  0
 50 48  1  0
 51 12  1  0
 52 51  1  0
 53 51  1  0
 54  6  1  0
 55 54  1  0
 57 56  1  0
 58 69  2  0
 59 57  1  0
 59 64  1  0
 60 68  1  0
 60 70  1  0
 61 67  1  0
 61 63  1  0
 62 68  1  0
 63 64  2  0
 63 62  1  0
 65 59  2  0
 66 65  1  0
 66 61  2  0
 67 60  1  0
 68 58  1  0
 70 72  2  0
 71 70  1  0
 73 71  1  0
 74 83  2  0
 74 79  1  0
 75 71  1  0
 75 79  1  0
 76 75  1  0
 77 78  1  0
 77 76  1  0
 78 74  1  0
 79 80  2  0
 80 81  1  0
 82 81  2  0
 83 82  1  0
 84 58  1  0
 84 89  1  0
 84 85  1  0
 85 88  1  1
 85 86  1  0
 87 85  1  0
 89 92  1  0
 90 94  1  0
 90 89  1  0
 91 90  2  0
 94 93  1  0
 96 94  1  0
 96 97  1  0
 96 95  1  0
M  ISO  4  13 100  21 100  56 101  57 101
M  END
>  <TORSDO>  (27) 
F 20

>  <SCORE>  (27) 
-15.037

>  <name>  (27) 
26

>  <ligand_id>  (27) 
26

>  <original_smiles>  (27) 
[H]OC1(C([H])([H])Oc2c([H])c([H])c3c(c2[H])C([H])([H])N(C(=O)C([H])(N([H])C(=O)C([H])(N([H])C([H])([H])[H])C([H])([H])[H])C(C([H])([H])[H])(C([H])([H])[H])C([H])([H])[H])C([H])(C(=O)N([H])C2([H])c4c([H])c([H])c([H])c([H])c4C([H])([H])C([H])([H])C2([H])[H])C3([H])[H])C([H])([H])C([H])([H])C([H])(c2c([H])c([H])c(N([H])C(=O)N3C([H])([H])C([H])([H])C([H])([H])C([H])(n4nc(-c5c([H])c([H])c(Oc6c([H])c([H])c(F)c([H])c6F)c([H])c5[H])c(C(=O)N([H])[H])c4N([H])[H])C3([H])[H])c([H])c2N([H])[H])C([H])([H])C1([H])[H]

>  <smiles>  (27) 
[H]OC1(C([H])([H])Oc2c([H])c([H])c3c(c2[H])C([H])([H])N(C(=O)C([H])(N([H])C(=O)C([H])(N([H])C([H])([H])[H])C([H])([H])[H])C(C([H])([H])[H])(C([H])([H])[H])C([H])([H])[H])C([H])(C(=O)N([H])C2([H])c4c([H])c([H])c([H])c([H])c4C([H])([H])C([H])([H])C2([H])[H])C3([H])[H])C([H])([H])C([H])([H])C([H])(c2c([H])c([H])c(N([H])C(=O)N3C([H])([H])C([H])([H])C([H])([H])C([H])(n4nc(-c5c([H])c([H])c(Oc6c([H])c([H])c(F)c([H])c6F)c([H])c5[H])c(C(=O)N([H])[H])c4N([H])[H])C3([H])[H])c([H])c2N([H])[H])C([H])([H])C1([H])[H]

$$$$
27:0:0
     RDKit          3D

 97105  0  0  1  0  0  0  0  0999 V2000
  -29.0190  -20.3780   20.6470 C   0  0  0  0  0  0  0  0  0  0  0  0
  -29.5810  -21.5870   20.6830 N   0  0  0  0  0  0  0  0  0  0  0  0
  -27.8070  -20.2340   20.1150 N   0  0  0  0  0  4  0  0  0  0  0  0
  -30.5630  -21.6500   20.9360 H   0  0  0  0  0  0  0  0  0  0  0  0
  -27.3540  -19.3310   20.1350 H   0  0  0  0  0  0  0  0  0  0  0  0
  -27.3180  -20.9950   19.6780 H   0  0  0  0  0  0  0  0  0  0  0  0
  -29.5660  -17.9380   20.6860 C   0  0  0  0  0  3  0  0  0  0  0  0
  -30.6400  -19.4450   22.2740 C   0  0  0  0  0  3  0  0  0  0  0  0
  -31.2130  -17.0720   22.2720 C   0  0  0  0  0  3  0  0  0  0  0  0
  -29.7470  -19.2380   21.2010 C   0  0  0  0  0  0  0  0  0  0  0  0
  -30.3110  -16.8600   21.2070 C   0  0  0  0  0  0  0  0  0  0  0  0
  -31.3670  -18.3650   22.8110 C   0  0  0  0  0  0  0  0  0  0  0  0
  -32.1930  -18.5650   23.8660 F   0  0  0  0  0  0  0  0  0  0  0  0
  -30.7810  -14.6680   20.1200 C   0  0  0  0  0  0  0  0  0  0  0  0
  -30.5460  -12.4950   18.9630 C   0  0  0  0  0  2  0  0  0  0  0  0
  -29.5450  -12.6240   17.7920 C   0  0  0  0  0  2  0  0  0  0  0  0
  -28.0840  -12.4750   18.2710 C   0  0  0  0  0  2  0  0  0  0  0  0
  -27.7770  -13.3510   19.5110 C   0  0  0  0  0  3  0  0  0  0  0  0
  -28.8600  -13.1190   20.5870 C   0  0  0  0  0  2  0  0  0  0  0  0
  -30.1620  -13.4680   19.9880 N   0  0  0  0  0  0  0  0  0  0  0  0
  -31.8710  -14.9490   19.6080 O   0  0  0  0  0  0  0  0  0  0  0  0
  -30.0030  -15.5640   20.7430 N   0  0  0  0  0  0  0  0  0  0  0  0
  -29.0640  -15.2460   20.9200 H   0  0  0  0  0  0  0  0  0  0  0  0
  -25.4050  -13.9940   20.2880 C   0  0  0  0  0  0  0  0  0  0  0  0
  -24.3460  -13.2280   20.6970 C   0  0  0  0  0  0  0  0  0  0  0  0
  -24.7990  -11.8760   20.6580 C   0  0  0  0  0  0  0  0  0  0  0  0
  -26.4360  -13.1020   20.0290 N   0  0  0  0  0  0  0  0  0  0  0  0
  -26.0770  -11.8250   20.3080 N   0  0  0  0  0  0  0  0  0  0  0  0
  -24.0740  -10.6180   20.8710 C   0  0  0  0  0  0  0  0  0  0  0  0
  -24.3950   -9.7610   21.9470 C   0  0  0  0  0  3  0  0  0  0  0  0
  -23.6740   -8.5630   22.1450 C   0  0  0  0  0  3  0  0  0  0  0  0
  -22.6190   -8.2180   21.2660 C   0  0  0  0  0  0  0  0  0  0  0  0
  -22.3220   -9.0650   20.1840 C   0  0  0  0  0  3  0  0  0  0  0  0
  -23.0430  -10.2530   19.9850 C   0  0  0  0  0  3  0  0  0  0  0  0
  -21.8790   -7.0630   21.3650 O   0  0  0  0  0  0  0  0  0  0  0  0
  -21.5270   -6.5380   22.5830 C   0  0  0  0  0  0  0  0  0  0  0  0
  -20.7210   -7.2500   23.4980 C   0  0  0  0  0  3  0  0  0  0  0  0
  -20.3290   -6.6430   24.7080 C   0  0  0  0  0  3  0  0  0  0  0  0
  -20.7290   -5.3260   24.9990 C   0  0  0  0  0  0  0  0  0  0  0  0
  -21.5270   -4.6140   24.0860 C   0  0  0  0  0  3  0  0  0  0  0  0
  -21.9240   -5.2180   22.8800 C   0  0  0  0  0  0  0  0  0  0  0  0
  -22.6750   -4.5210   21.9930 F   0  0  0  0  0  0  0  0  0  0  0  0
  -20.3450   -4.7410   26.1570 F   0  0  0  0  0  0  0  0  0  0  0  0
  -22.9610  -13.7150   21.0060 C   0  0  0  0  0  0  0  0  0  0  0  0
  -22.2530  -13.0330   21.8980 N   0  0  0  0  0  0  0  0  0  0  0  0
  -22.5160  -14.7400   20.4920 O   0  0  0  0  0  0  0  0  0  0  0  0
  -22.6270  -12.2110   22.3500 H   0  0  0  0  0  0  0  0  0  0  0  0
  -21.3210  -13.3440   22.1360 H   0  0  0  0  0  0  0  0  0  0  0  0
  -25.5640  -15.3620   20.0940 N   0  0  0  0  0  0  0  0  0  0  0  0
  -24.7590  -15.9770   20.1450 H   0  0  0  0  0  0  0  0  0  0  0  0
  -26.3600  -15.7900   19.6390 H   0  0  0  0  0  0  0  0  0  0  0  0
  -29.0270  -22.8920   20.2970 C   0  0  0  0  0  2  0  0  0  0  0  0
  -30.1600  -23.9120   20.1920 C   0  0  0  0  0  0  0  0  0  0  0  0
  -31.3350  -23.5380   20.0900 O   0  0  0  0  0  0  0  0  0  0  0  0
  -29.8120  -25.3900   20.2950 C   0  0  0  0  0  2  0  0  0  0  0  0
  -28.6020  -25.7970   19.4440 C   0  0  0  0  0  2  0  0  0  0  0  0
  -28.5210  -27.2090   19.5760 O   0  0  0  0  0  0  0  0  0  0  0  0
  -24.5160  -31.8380   23.1110 C   0  0  0  0  0  0  0  0  0  0  0  0
  -27.2810  -27.7930   19.6520 C   0  0  0  0  0  0  0  0  0  0  0  0
  -23.3220  -30.4860   21.4170 C   0  0  0  0  0  3  0  0  0  0  0  0
  -24.8000  -29.1260   19.8420 C   0  0  0  0  0  0  0  0  0  0  0  0
  -25.8130  -31.0040   21.1560 C   0  0  0  0  0  2  0  0  0  0  0  0
  -25.9420  -29.6830   20.4310 C   0  0  0  0  0  0  0  0  0  0  0  0
  -27.1810  -29.0220   20.3340 C   0  0  0  0  0  3  0  0  0  0  0  0
  -26.1260  -27.2400   19.0530 C   0  0  0  0  0  3  0  0  0  0  0  0
  -24.8850  -27.9040   19.1460 C   0  0  0  0  0  3  0  0  0  0  0  0
  -23.5110  -29.8990   19.9900 C   0  0  0  0  0  2  0  0  0  0  0  0
  -24.5710  -31.1200   21.9540 N   0  0  0  0  0  0  0  0  0  0  0  0
  -23.4410  -32.0180   23.7010 O   0  0  0  0  0  0  0  0  0  0  0  0
  -22.7570  -29.3740   22.3270 C   0  0  0  0  0  0  0  0  0  0  0  0
  -21.4410  -29.1270   22.2120 N   0  0  0  0  0  0  0  0  0  0  0  0
  -23.4940  -28.7360   23.0820 O   0  0  0  0  0  0  0  0  0  0  0  0
  -20.9030  -29.7070   21.5860 H   0  0  0  0  0  0  0  0  0  0  0  0
  -18.1480  -27.7440   22.7060 C   0  0  0  0  0  0  0  0  0  0  0  0
  -20.6960  -28.0960   22.9320 C   0  0  0  0  0  3  0  0  0  0  0  0
  -20.8480  -26.7190   22.2440 C   0  0  0  0  0  2  0  0  0  0  0  0
  -19.7290  -26.4200   21.2390 C   0  0  0  0  0  2  0  0  0  0  0  0
  -18.3630  -26.4550   21.9330 C   0  0  0  0  0  2  0  0  0  0  0  0
  -19.2450  -28.5210   23.1650 C   0  0  0  0  0  0  0  0  0  0  0  0
  -18.9920  -29.7290   23.8530 C   0  0  0  0  0  3  0  0  0  0  0  0
  -17.6710  -30.1550   24.0890 C   0  0  0  0  0  3  0  0  0  0  0  0
  -16.5900  -29.3710   23.6500 C   0  0  0  0  0  3  0  0  0  0  0  0
  -16.8290  -28.1690   22.9620 C   0  0  0  0  0  3  0  0  0  0  0  0
  -25.7930  -32.4860   23.7380 C   0  0  0  0  0  3  0  0  0  0  0  0
  -25.4480  -33.8630   24.1130 N   0  0  0  0  0  0  0  0  0  0  0  0
  -25.7600  -34.9450   23.3920 C   0  0  0  0  0  0  0  0  0  0  0  0
  -26.4360  -34.8920   22.3620 O   0  0  0  0  0  0  0  0  0  0  0  0
  -24.8420  -33.9780   24.9120 H   0  0  0  0  0  0  0  0  0  0  0  0
  -23.9950  -36.7130   23.0860 C   0  0  0  0  0  1  0  0  0  0  0  0
  -25.2380  -36.3060   23.8950 C   0  0  0  0  0  3  0  0  0  0  0  0
  -27.3350  -37.2160   24.7900 C   0  0  0  0  0  1  0  0  0  0  0  0
  -26.2490  -37.3830   23.8290 N   0  0  0  0  0  0  0  0  0  0  0  0
  -25.8230  -38.2940   23.9780 H   0  0  0  0  0  0  0  0  0  0  0  0
  -26.3430  -31.6910   24.9850 C   0  0  1  0  0  0  0  0  0  0  0  0
  -25.2560  -31.3680   26.0400 C   0  0  0  0  0  1  0  0  0  0  0  0
  -26.9880  -30.3580   24.5400 C   0  0  0  0  0  1  0  0  0  0  0  0
  -27.4570  -32.5080   25.6810 C   0  0  0  0  0  1  0  0  0  0  0  0
  1  2  1  0
  1 10  1  0
  2  4  1  0
  3  5  1  0
  3  1  2  0
  6  3  1  0
  7 10  2  0
  7 11  1  0
  8 12  2  0
  9 12  1  0
 10  8  1  0
 11  9  2  0
 12 13  1  0
 14 22  1  0
 15 20  1  0
 16 17  1  0
 16 15  1  0
 18 17  1  0
 18 27  1  0
 18 19  1  0
 20 14  1  0
 20 19  1  0
 21 14  2  0
 22 23  1  0
 22 11  1  0
 24 25  2  0
 25 44  1  0
 26 25  1  0
 26 29  1  0
 27 24  1  0
 27 28  1  0
 28 26  2  0
 29 30  1  0
 30 31  2  0
 32 35  1  0
 32 31  1  0
 33 32  2  0
 34 33  1  0
 34 29  2  0
 35 36  1  0
 36 41  2  0
 36 37  1  0
 37 38  2  0
 38 39  1  0
 39 43  1  0
 40 39  2  0
 41 40  1  0
 42 41  1  0
 44 45  1  0
 45 48  1  0
 45 47  1  0
 46 44  2  0
 49 50  1  0
 49 24  1  0
 51 49  1  0
 52  2  1  0
 53 55  1  0
 53 52  1  0
 54 53  2  0
 56 57  1  0
 56 55  1  0
 57 59  1  0
 58 69  2  0
 59 64  1  0
 60 68  1  0
 60 70  1  0
 61 67  1  0
 61 63  1  0
 62 68  1  0
 63 62  1  0
 64 63  2  0
 65 66  1  0
 65 59  2  0
 66 61  2  0
 67 60  1  0
 68 58  1  0
 70 72  2  0
 71 70  1  0
 73 71  1  0
 74 83  2  0
 74 79  1  0
 75 71  1  0
 75 79  1  0
 76 75  1  0
 77 78  1  0
 77 76  1  0
 78 74  1  0
 79 80  2  0
 80 81  1  0
 82 81  2  0
 83 82  1  0
 84 58  1  0
 84 85  1  0
 84 94  1  0
 85 88  1  0
 86 90  1  0
 86 85  1  0
 87 86  2  0
 90 89  1  0
 92 90  1  0
 92 93  1  0
 92 91  1  0
 94 97  1  1
 94 95  1  0
 96 94  1  0
M  ISO  4  14 100  22 100  56 101  57 101
M  END
>  <TORSDO>  (28) 
F 21

>  <SCORE>  (28) 
-10.874

>  <name>  (28) 
27

>  <ligand_id>  (28) 
27

>  <original_smiles>  (28) 
[H]c1c([H])c([H])c2c(c1[H])C([H])([H])C([H])([H])C([H])([H])C2([H])N([H])C(=O)C1([H])N(C(=O)C([H])(N([H])C(=O)C([H])(N([H])C([H])([H])[H])C([H])([H])[H])C(C([H])([H])[H])(C([H])([H])[H])C([H])([H])[H])C([H])([H])c2c([H])c(OC([H])([H])C([H])([H])C(=O)C([H])([H])N([H])C(c3c([H])c(F)c([H])c(N([H])C(=O)N4C([H])([H])C([H])([H])C([H])([H])C([H])(n5nc(-c6c([H])c([H])c(Oc7c([H])c([H])c(F)c([H])c7F)c([H])c6[H])c(C(=O)N([H])[H])c5N([H])[H])C4([H])[H])c3[H])=[N+]([H])[H])c([H])c([H])c2C1([H])[H]

>  <smiles>  (28) 
[H]c1c([H])c([H])c2c(c1[H])C([H])([H])C([H])([H])C([H])([H])C2([H])N([H])C(=O)C1([H])N(C(=O)C([H])(N([H])C(=O)C([H])(N([H])C([H])([H])[H])C([H])([H])[H])C(C([H])([H])[H])(C([H])([H])[H])C([H])([H])[H])C([H])([H])c2c([H])c(OC([H])([H])C([H])([H])C(=O)C([H])([H])N([H])C(c3c([H])c(F)c([H])c(N([H])C(=O)N4C([H])([H])C([H])([H])C([H])([H])C([H])(n5nc(-c6c([H])c([H])c(Oc7c([H])c([H])c(F)c([H])c7F)c([H])c6[H])c(C(=O)N([H])[H])c5N([H])[H])C4([H])[H])c3[H])=[N+]([H])[H])c([H])c([H])c2C1([H])[H]

$$$$
28:0:0
     RDKit          3D

 94102  0  0  1  0  0  0  0  0999 V2000
  -31.2180  -17.4540   21.7610 C   0  0  0  0  0  3  0  0  0  0  0  0
  -30.2370  -16.9230   20.9570 C   0  0  0  0  0  0  0  0  0  0  0  0
  -30.1550  -19.1290   20.8500 C   0  0  0  0  0  0  0  0  0  0  0  0
  -29.9240  -21.6580   20.9110 C   0  0  0  0  0  0  0  0  0  0  0  0
  -31.1590  -18.8490   21.6860 N   0  0  0  0  0  0  0  0  0  0  0  0
  -29.7980  -20.4250   20.3490 N   0  0  0  0  0  0  0  0  0  0  0  0
  -30.2690  -21.8110   22.0870 O   0  0  0  0  0  0  0  0  0  0  0  0
  -29.5510  -17.9860   20.3840 O   0  0  0  0  0  0  0  0  0  0  0  0
  -29.4030  -20.4190   19.4200 H   0  0  0  0  0  0  0  0  0  0  0  0
  -30.6410  -14.5670   20.4570 C   0  0  0  0  0  0  0  0  0  0  0  0
  -30.3670  -12.3870   19.3170 C   0  0  0  0  0  2  0  0  0  0  0  0
  -29.4170  -12.5740   18.1140 C   0  0  0  0  0  2  0  0  0  0  0  0
  -27.9410  -12.4450   18.5470 C   0  0  0  0  0  2  0  0  0  0  0  0
  -27.6030  -13.2790   19.8130 C   0  0  0  0  0  3  0  0  0  0  0  0
  -28.6690  -13.0730   20.9140 C   0  0  0  0  0  2  0  0  0  0  0  0
  -29.9790  -13.3830   20.3260 N   0  0  0  0  0  0  0  0  0  0  0  0
  -31.8180  -14.7140   20.1230 O   0  0  0  0  0  0  0  0  0  0  0  0
  -29.8460  -15.6410   20.6850 N   0  0  0  0  0  0  0  0  0  0  0  0
  -28.8570  -15.4800   20.5860 H   0  0  0  0  0  0  0  0  0  0  0  0
  -25.2070  -13.8830   20.5310 C   0  0  0  0  0  0  0  0  0  0  0  0
  -24.1400  -13.1110   20.9060 C   0  0  0  0  0  0  0  0  0  0  0  0
  -24.6030  -11.7600   20.8770 C   0  0  0  0  0  0  0  0  0  0  0  0
  -26.2530  -13.0020   20.3000 N   0  0  0  0  0  0  0  0  0  0  0  0
  -25.8930  -11.7200   20.5670 N   0  0  0  0  0  0  0  0  0  0  0  0
  -23.8780  -10.4990   21.0690 C   0  0  0  0  0  0  0  0  0  0  0  0
  -24.3200   -9.5250   21.9900 C   0  0  0  0  0  3  0  0  0  0  0  0
  -23.5940   -8.3280   22.1730 C   0  0  0  0  0  3  0  0  0  0  0  0
  -22.4120   -8.0960   21.4320 C   0  0  0  0  0  0  0  0  0  0  0  0
  -21.9850   -9.0610   20.5020 C   0  0  0  0  0  3  0  0  0  0  0  0
  -22.7120  -10.2500   20.3180 C   0  0  0  0  0  3  0  0  0  0  0  0
  -21.6570   -6.9520   21.5230 O   0  0  0  0  0  0  0  0  0  0  0  0
  -21.6370   -6.1920   22.6640 C   0  0  0  0  0  0  0  0  0  0  0  0
  -21.2440   -6.7300   23.9090 C   0  0  0  0  0  3  0  0  0  0  0  0
  -21.1670   -5.8970   25.0410 C   0  0  0  0  0  3  0  0  0  0  0  0
  -21.4760   -4.5270   24.9330 C   0  0  0  0  0  0  0  0  0  0  0  0
  -21.8610   -3.9900   23.6930 C   0  0  0  0  0  3  0  0  0  0  0  0
  -21.9380   -4.8190   22.5610 C   0  0  0  0  0  0  0  0  0  0  0  0
  -22.2910   -4.2900   21.3630 F   0  0  0  0  0  0  0  0  0  0  0  0
  -21.3950   -3.7240   26.0210 F   0  0  0  0  0  0  0  0  0  0  0  0
  -22.7420  -13.5900   21.1700 C   0  0  0  0  0  0  0  0  0  0  0  0
  -22.0130  -12.9030   22.0400 N   0  0  0  0  0  0  0  0  0  0  0  0
  -22.3070  -14.6160   20.6470 O   0  0  0  0  0  0  0  0  0  0  0  0
  -22.3730  -12.0730   22.4860 H   0  0  0  0  0  0  0  0  0  0  0  0
  -21.0780  -13.2150   22.2610 H   0  0  0  0  0  0  0  0  0  0  0  0
  -25.3600  -15.2550   20.3500 N   0  0  0  0  0  0  0  0  0  0  0  0
  -24.5730  -15.8850   20.4530 H   0  0  0  0  0  0  0  0  0  0  0  0
  -26.1750  -15.7120   19.9620 H   0  0  0  0  0  0  0  0  0  0  0  0
  -29.5690  -22.8780   19.9830 C   0  0  2  0  0  0  0  0  0  0  0  0
  -28.4430  -22.5560   19.3420 F   0  0  0  0  0  0  0  0  0  0  0  0
  -30.5300  -22.9640   19.0620 F   0  0  0  0  0  0  0  0  0  0  0  0
  -29.3990  -24.3040   20.6260 C   0  0  0  0  0  0  0  0  0  0  0  0
  -30.1620  -24.7510   21.4960 O   0  0  0  0  0  0  0  0  0  0  0  0
  -28.2730  -25.2010   20.0340 C   0  0  0  0  0  2  0  0  0  0  0  0
  -28.4110  -26.6300   20.2880 O   0  0  0  0  0  0  0  0  0  0  0  0
  -24.5940  -31.9020   23.2360 C   0  0  0  0  0  0  0  0  0  0  0  0
  -27.2510  -27.4040   20.2090 C   0  0  0  0  0  0  0  0  0  0  0  0
  -23.3990  -30.4960   21.5940 C   0  0  0  0  0  3  0  0  0  0  0  0
  -24.8570  -28.9510   20.1810 C   0  0  0  0  0  0  0  0  0  0  0  0
  -25.9300  -30.8400   21.4110 C   0  0  0  0  0  2  0  0  0  0  0  0
  -26.0140  -29.4660   20.7750 C   0  0  0  0  0  0  0  0  0  0  0  0
  -27.2120  -28.7050   20.7800 C   0  0  0  0  0  3  0  0  0  0  0  0
  -26.0720  -26.9240   19.5890 C   0  0  0  0  0  3  0  0  0  0  0  0
  -24.8870  -27.6820   19.5780 C   0  0  0  0  0  3  0  0  0  0  0  0
  -23.6160  -29.8140   20.2160 C   0  0  0  0  0  2  0  0  0  0  0  0
  -24.6600  -31.0990   22.1360 N   0  0  0  0  0  0  0  0  0  0  0  0
  -23.5120  -32.1730   23.7720 O   0  0  0  0  0  0  0  0  0  0  0  0
  -22.7380  -29.4810   22.5560 C   0  0  0  0  0  0  0  0  0  0  0  0
  -21.4140  -29.3020   22.4290 N   0  0  0  0  0  0  0  0  0  0  0  0
  -23.4170  -28.8570   23.3770 O   0  0  0  0  0  0  0  0  0  0  0  0
  -20.9250  -29.8570   21.7420 H   0  0  0  0  0  0  0  0  0  0  0  0
  -18.0350  -28.1140   22.9320 C   0  0  0  0  0  0  0  0  0  0  0  0
  -20.5960  -28.3670   23.2010 C   0  0  0  0  0  3  0  0  0  0  0  0
  -20.6930  -26.9350   22.6270 C   0  0  0  0  0  2  0  0  0  0  0  0
  -19.5900  -26.6140   21.6140 C   0  0  0  0  0  2  0  0  0  0  0  0
  -18.2090  -26.7640   22.2580 C   0  0  0  0  0  2  0  0  0  0  0  0
  -19.1560  -28.8740   23.3620 C   0  0  0  0  0  0  0  0  0  0  0  0
  -18.9410  -30.1390   23.9520 C   0  0  0  0  0  3  0  0  0  0  0  0
  -17.6380  -30.6450   24.1160 C   0  0  0  0  0  3  0  0  0  0  0  0
  -16.5310  -29.8820   23.7030 C   0  0  0  0  0  3  0  0  0  0  0  0
  -16.7310  -28.6190   23.1190 C   0  0  0  0  0  3  0  0  0  0  0  0
  -25.8770  -32.5390   23.8580 C   0  0  0  0  0  3  0  0  0  0  0  0
  -26.3950  -31.7730   25.1390 C   0  0  1  0  0  0  0  0  0  0  0  0
  -25.3070  -31.5370   26.2120 C   0  0  0  0  0  1  0  0  0  0  0  0
  -26.9760  -30.3950   24.7470 C   0  0  0  0  0  1  0  0  0  0  0  0
  -27.5420  -32.5740   25.7990 C   0  0  0  0  0  1  0  0  0  0  0  0
  -25.5690  -33.9390   24.1850 N   0  0  0  0  0  0  0  0  0  0  0  0
  -25.9030  -34.9900   23.4230 C   0  0  0  0  0  0  0  0  0  0  0  0
  -26.5760  -34.8800   22.3930 O   0  0  0  0  0  0  0  0  0  0  0  0
  -24.9850  -34.0970   24.9940 H   0  0  0  0  0  0  0  0  0  0  0  0
  -24.1800  -36.7810   23.0500 C   0  0  0  0  0  1  0  0  0  0  0  0
  -25.4150  -36.3810   23.8740 C   0  0  0  0  0  3  0  0  0  0  0  0
  -27.5460  -37.2630   24.7170 C   0  0  0  0  0  1  0  0  0  0  0  0
  -26.4500  -37.4310   23.7650 N   0  0  0  0  0  0  0  0  0  0  0  0
  -26.0450  -38.3520   23.9080 H   0  0  0  0  0  0  0  0  0  0  0  0
  2  1  2  0
  3  5  2  0
  4  7  2  0
  5  1  1  0
  6  3  1  0
  6  4  1  0
  8  3  1  0
  8  2  1  0
  9  6  1  0
 10 18  1  0
 11 16  1  0
 12 13  1  0
 12 11  1  0
 14 13  1  0
 14 23  1  0
 14 15  1  0
 16 10  1  0
 16 15  1  0
 17 10  2  0
 18  2  1  0
 19 18  1  0
 20 21  2  0
 21 40  1  0
 22 21  1  0
 22 25  1  0
 23 20  1  0
 23 24  1  0
 24 22  2  0
 25 26  1  0
 26 27  2  0
 28 31  1  0
 28 27  1  0
 29 28  2  0
 30 29  1  0
 30 25  2  0
 31 32  1  0
 32 33  1  0
 33 34  2  0
 35 34  1  0
 35 39  1  0
 36 35  2  0
 37 32  2  0
 37 36  1  0
 38 37  1  0
 40 41  1  0
 41 44  1  0
 41 43  1  0
 42 40  2  0
 45 46  1  0
 45 20  1  0
 47 45  1  0
 48 51  1  0
 48  4  1  0
 48 49  1  6
 50 48  1  0
 51 52  2  0
 53 54  1  0
 53 51  1  0
 55 66  2  0
 56 54  1  0
 56 61  1  0
 57 65  1  0
 57 67  1  0
 58 64  1  0
 58 60  1  0
 59 65  1  0
 60 61  2  0
 60 59  1  0
 62 56  2  0
 63 62  1  0
 63 58  2  0
 64 57  1  0
 65 55  1  0
 67 69  2  0
 68 67  1  0
 70 68  1  0
 71 80  2  0
 71 76  1  0
 72 68  1  0
 72 76  1  0
 73 72  1  0
 74 75  1  0
 74 73  1  0
 75 71  1  0
 76 77  2  0
 77 78  1  0
 79 78  2  0
 80 79  1  0
 81 55  1  0
 81 86  1  0
 81 82  1  0
 82 85  1  1
 82 83  1  0
 84 82  1  0
 86 89  1  0
 87 91  1  0
 87 86  1  0
 88 87  2  0
 91 90  1  0
 93 91  1  0
 93 94  1  0
 93 92  1  0
M  ISO  4  10 100  18 100  53 101  54 101
M  END
>  <TORSDO>  (29) 
F 19

>  <SCORE>  (29) 
-14.563

>  <name>  (29) 
28

>  <ligand_id>  (29) 
28

>  <original_smiles>  (29) 
[H]c1nc(N([H])C(=O)C(F)(F)C(=O)C([H])([H])Oc2c([H])c([H])c3c(c2[H])C([H])([H])N(C(=O)C([H])(N([H])C(=O)C([H])(N([H])C([H])([H])[H])C([H])([H])[H])C(C([H])([H])[H])(C([H])([H])[H])C([H])([H])[H])C([H])(C(=O)N([H])C2([H])c4c([H])c([H])c([H])c([H])c4C([H])([H])C([H])([H])C2([H])[H])C3([H])[H])oc1N([H])C(=O)N1C([H])([H])C([H])([H])C([H])([H])C([H])(n2nc(-c3c([H])c([H])c(Oc4c([H])c([H])c(F)c([H])c4F)c([H])c3[H])c(C(=O)N([H])[H])c2N([H])[H])C1([H])[H]

>  <smiles>  (29) 
[H]c1nc(N([H])C(=O)C(F)(F)C(=O)C([H])([H])Oc2c([H])c([H])c3c(c2[H])C([H])([H])N(C(=O)C([H])(N([H])C(=O)C([H])(N([H])C([H])([H])[H])C([H])([H])[H])C(C([H])([H])[H])(C([H])([H])[H])C([H])([H])[H])C([H])(C(=O)N([H])C2([H])c4c([H])c([H])c([H])c([H])c4C([H])([H])C([H])([H])C2([H])[H])C3([H])[H])oc1N([H])C(=O)N1C([H])([H])C([H])([H])C([H])([H])C([H])(n2nc(-c3c([H])c([H])c(Oc4c([H])c([H])c(F)c([H])c4F)c([H])c3[H])c(C(=O)N([H])[H])c2N([H])[H])C1([H])[H]

$$$$
29:0:0
     RDKit          3D

 95103  0  0  1  0  0  0  0  0999 V2000
  -29.5420  -20.9150   20.4570 C   0  0  0  0  0  2  0  0  0  0  0  0
  -29.5870  -22.4530   20.4490 C   0  0  0  0  0  0  0  0  0  0  0  0
  -30.5630  -23.0490   20.9270 O   0  0  0  0  0  0  0  0  0  0  0  0
  -28.3680  -23.1840   19.8700 C   0  0  0  0  0  2  0  0  0  0  0  0
  -28.6650  -24.6450   19.5160 C   0  0  0  0  0  0  0  0  0  0  0  0
  -29.0820  -24.9600   18.3940 O   0  0  0  0  0  0  0  0  0  0  0  0
  -28.3740  -25.6940   20.5970 C   0  0  0  0  0  2  0  0  0  0  0  0
  -28.4030  -27.0210   20.0630 O   0  0  0  0  0  0  0  0  0  0  0  0
  -24.5530  -32.0310   23.3150 C   0  0  0  0  0  0  0  0  0  0  0  0
  -27.2090  -27.7020   20.1100 C   0  0  0  0  0  0  0  0  0  0  0  0
  -23.3360  -30.6520   21.6570 C   0  0  0  0  0  3  0  0  0  0  0  0
  -24.7870  -29.1530   20.1870 C   0  0  0  0  0  0  0  0  0  0  0  0
  -25.8520  -31.0480   21.4270 C   0  0  0  0  0  2  0  0  0  0  0  0
  -25.9450  -29.6910   20.7630 C   0  0  0  0  0  0  0  0  0  0  0  0
  -27.1600  -28.9740   20.7170 C   0  0  0  0  0  3  0  0  0  0  0  0
  -26.0360  -27.1670   19.5330 C   0  0  0  0  0  3  0  0  0  0  0  0
  -24.8260  -27.8880   19.5710 C   0  0  0  0  0  3  0  0  0  0  0  0
  -23.5330  -29.9960   20.2650 C   0  0  0  0  0  2  0  0  0  0  0  0
  -24.6000  -31.2560   22.1920 N   0  0  0  0  0  0  0  0  0  0  0  0
  -23.4770  -32.2800   23.8750 O   0  0  0  0  0  0  0  0  0  0  0  0
  -22.7070  -29.6060   22.6050 C   0  0  0  0  0  0  0  0  0  0  0  0
  -21.3870  -29.3990   22.4710 N   0  0  0  0  0  0  0  0  0  0  0  0
  -23.4030  -28.9830   23.4110 O   0  0  0  0  0  0  0  0  0  0  0  0
  -20.8880  -29.9580   21.7940 H   0  0  0  0  0  0  0  0  0  0  0  0
  -18.0360  -28.1330   22.9330 C   0  0  0  0  0  0  0  0  0  0  0  0
  -20.5860  -28.4330   23.2230 C   0  0  0  0  0  3  0  0  0  0  0  0
  -20.7180  -27.0130   22.6260 C   0  0  0  0  0  2  0  0  0  0  0  0
  -19.6270  -26.6840   21.6020 C   0  0  0  0  0  2  0  0  0  0  0  0
  -18.2400  -26.7960   22.2410 C   0  0  0  0  0  2  0  0  0  0  0  0
  -19.1380  -28.9090   23.3800 C   0  0  0  0  0  0  0  0  0  0  0  0
  -18.8930  -30.1610   23.9830 C   0  0  0  0  0  3  0  0  0  0  0  0
  -17.5780  -30.6370   24.1460 C   0  0  0  0  0  3  0  0  0  0  0  0
  -16.4900  -29.8570   23.7170 C   0  0  0  0  0  3  0  0  0  0  0  0
  -16.7200  -28.6060   23.1160 C   0  0  0  0  0  3  0  0  0  0  0  0
  -25.8430  -32.6550   23.9340 C   0  0  0  0  0  3  0  0  0  0  0  0
  -25.5470  -34.0580   24.2490 N   0  0  0  0  0  0  0  0  0  0  0  0
  -25.8990  -35.0980   23.4830 C   0  0  0  0  0  0  0  0  0  0  0  0
  -26.5780  -34.9780   22.4600 O   0  0  0  0  0  0  0  0  0  0  0  0
  -24.9480  -34.2270   25.0430 H   0  0  0  0  0  0  0  0  0  0  0  0
  -24.2000  -36.9060   23.0840 C   0  0  0  0  0  1  0  0  0  0  0  0
  -25.4210  -36.4960   23.9210 C   0  0  0  0  0  3  0  0  0  0  0  0
  -27.5520  -37.3620   24.7820 C   0  0  0  0  0  1  0  0  0  0  0  0
  -26.4690  -37.5350   23.8180 N   0  0  0  0  0  0  0  0  0  0  0  0
  -26.0720  -38.4630   23.9500 H   0  0  0  0  0  0  0  0  0  0  0  0
  -26.3470  -31.8890   25.2170 C   0  0  1  0  0  0  0  0  0  0  0  0
  -25.2450  -31.6580   26.2760 C   0  0  0  0  0  1  0  0  0  0  0  0
  -26.9330  -30.5110   24.8300 C   0  0  0  0  0  1  0  0  0  0  0  0
  -27.4930  -32.6860   25.8860 C   0  0  0  0  0  1  0  0  0  0  0  0
  -30.8610  -20.3330   20.7070 N   0  0  0  0  0  0  0  0  0  0  0  0
  -31.4280  -21.0340   21.1840 H   0  0  0  0  0  0  0  0  0  0  0  0
  -30.9280  -16.7210   22.9120 C   0  0  0  0  0  3  0  0  0  0  0  0
  -31.3780  -17.9270   23.4820 C   0  0  0  0  0  3  0  0  0  0  0  0
  -30.4270  -17.9010   20.8270 C   0  0  0  0  0  3  0  0  0  0  0  0
  -30.4740  -16.6970   21.5770 C   0  0  0  0  0  0  0  0  0  0  0  0
  -30.8720  -19.1150   21.4070 C   0  0  0  0  0  0  0  0  0  0  0  0
  -31.3590  -19.1150   22.7310 C   0  0  0  0  0  0  0  0  0  0  0  0
  -31.8010  -20.2700   23.2830 F   0  0  0  0  0  0  0  0  0  0  0  0
  -30.5680  -14.6310   20.2050 C   0  0  0  0  0  0  0  0  0  0  0  0
  -30.2320  -12.5410   18.9210 C   0  0  0  0  0  2  0  0  0  0  0  0
  -29.2060  -12.7630   17.7900 C   0  0  0  0  0  2  0  0  0  0  0  0
  -27.7610  -12.5890   18.3010 C   0  0  0  0  0  2  0  0  0  0  0  0
  -27.4940  -13.3750   19.6120 C   0  0  0  0  0  3  0  0  0  0  0  0
  -28.6130  -13.0930   20.6400 C   0  0  0  0  0  2  0  0  0  0  0  0
  -29.9010  -13.4580   20.0210 N   0  0  0  0  0  0  0  0  0  0  0  0
  -31.6030  -14.9250   19.5980 O   0  0  0  0  0  0  0  0  0  0  0  0
  -29.9670  -15.4780   21.0610 N   0  0  0  0  0  0  0  0  0  0  0  0
  -29.1410  -15.1080   21.5070 H   0  0  0  0  0  0  0  0  0  0  0  0
  -25.1290  -13.9400   20.4600 C   0  0  0  0  0  0  0  0  0  0  0  0
  -24.0900  -13.1440   20.8620 C   0  0  0  0  0  0  0  0  0  0  0  0
  -24.5630  -11.8000   20.7690 C   0  0  0  0  0  0  0  0  0  0  0  0
  -26.1710  -13.0780   20.1550 N   0  0  0  0  0  0  0  0  0  0  0  0
  -25.8350  -11.7840   20.3930 N   0  0  0  0  0  0  0  0  0  0  0  0
  -23.8620  -10.5230   20.9600 C   0  0  0  0  0  0  0  0  0  0  0  0
  -24.3020   -9.5770   21.9110 C   0  0  0  0  0  3  0  0  0  0  0  0
  -23.6010   -8.3640   22.0920 C   0  0  0  0  0  3  0  0  0  0  0  0
  -22.4460   -8.0910   21.3220 C   0  0  0  0  0  0  0  0  0  0  0  0
  -22.0260   -9.0270   20.3600 C   0  0  0  0  0  3  0  0  0  0  0  0
  -22.7270  -10.2300   20.1770 C   0  0  0  0  0  3  0  0  0  0  0  0
  -21.7190   -6.9290   21.4110 O   0  0  0  0  0  0  0  0  0  0  0  0
  -21.6130   -6.2350   22.5890 C   0  0  0  0  0  0  0  0  0  0  0  0
  -21.0600   -6.8160   23.7510 C   0  0  0  0  0  3  0  0  0  0  0  0
  -20.9040   -6.0450   24.9200 C   0  0  0  0  0  3  0  0  0  0  0  0
  -21.2910   -4.6910   24.9270 C   0  0  0  0  0  0  0  0  0  0  0  0
  -21.8390   -4.1090   23.7700 C   0  0  0  0  0  3  0  0  0  0  0  0
  -21.9950   -4.8780   22.6030 C   0  0  0  0  0  0  0  0  0  0  0  0
  -22.5010   -4.3050   21.4840 F   0  0  0  0  0  0  0  0  0  0  0  0
  -21.1380   -3.9460   26.0470 F   0  0  0  0  0  0  0  0  0  0  0  0
  -22.7040  -13.5960   21.2240 C   0  0  0  0  0  0  0  0  0  0  0  0
  -22.0370  -12.8660   22.1090 N   0  0  0  0  0  0  0  0  0  0  0  0
  -22.2260  -14.6300   20.7580 O   0  0  0  0  0  0  0  0  0  0  0  0
  -22.4400  -12.0270   22.5020 H   0  0  0  0  0  0  0  0  0  0  0  0
  -21.1110  -13.1450   22.4010 H   0  0  0  0  0  0  0  0  0  0  0  0
  -25.2700  -15.3160   20.3090 N   0  0  0  0  0  0  0  0  0  0  0  0
  -24.4990  -15.9560   20.4670 H   0  0  0  0  0  0  0  0  0  0  0  0
  -26.0990  -15.7710   19.9460 H   0  0  0  0  0  0  0  0  0  0  0  0
  1 49  1  0
  2  1  1  0
  2  3  2  0
  4  2  1  0
  5  4  1  0
  5  7  1  0
  6  5  2  0
  8 10  1  0
  8  7  1  0
  9 20  2  0
 10 15  1  0
 11 19  1  0
 11 21  1  0
 12 18  1  0
 12 14  1  0
 13 19  1  0
 14 13  1  0
 15 14  2  0
 16 17  1  0
 16 10  2  0
 17 12  2  0
 18 11  1  0
 19  9  1  0
 21 23  2  0
 22 21  1  0
 24 22  1  0
 25 34  2  0
 25 30  1  0
 26 22  1  0
 26 30  1  0
 27 26  1  0
 28 29  1  0
 28 27  1  0
 29 25  1  0
 30 31  2  0
 31 32  1  0
 33 32  2  0
 34 33  1  0
 35  9  1  0
 35 36  1  0
 35 45  1  0
 36 39  1  0
 37 41  1  0
 37 36  1  0
 38 37  2  0
 41 40  1  0
 43 41  1  0
 43 44  1  0
 43 42  1  0
 45 48  1  1
 45 46  1  0
 47 45  1  0
 49 50  1  0
 49 55  1  0
 51 52  1  0
 53 55  2  0
 53 54  1  0
 54 51  2  0
 55 56  1  0
 56 57  1  0
 56 52  2  0
 58 66  1  0
 59 64  1  0
 60 61  1  0
 60 59  1  0
 62 61  1  0
 62 71  1  0
 62 63  1  0
 64 58  1  0
 64 63  1  0
 65 58  2  0
 66 67  1  0
 66 54  1  0
 68 69  2  0
 69 88  1  0
 70 69  1  0
 70 73  1  0
 71 72  1  0
 71 68  1  0
 72 70  2  0
 73 74  1  0
 74 75  2  0
 76 79  1  0
 76 75  1  0
 77 76  2  0
 78 77  1  0
 78 73  2  0
 79 80  1  0
 80 85  2  0
 80 81  1  0
 81 82  2  0
 82 83  1  0
 83 87  1  0
 84 83  2  0
 85 84  1  0
 86 85  1  0
 88 89  1  0
 89 92  1  0
 89 91  1  0
 90 88  2  0
 93 68  1  0
 93 94  1  0
 95 93  1  0
M  ISO  4   7 101   8 101  58 100  66 100
M  END
>  <TORSDO>  (30) 
F 22

>  <SCORE>  (30) 
-12.178

>  <name>  (30) 
29

>  <ligand_id>  (30) 
29

>  <original_smiles>  (30) 
[H]c1c([H])c([H])c2c(c1[H])C([H])([H])C([H])([H])C([H])([H])C2([H])N([H])C(=O)C1([H])N(C(=O)C([H])(N([H])C(=O)C([H])(N([H])C([H])([H])[H])C([H])([H])[H])C(C([H])([H])[H])(C([H])([H])[H])C([H])([H])[H])C([H])([H])c2c([H])c(OC([H])([H])C(=O)C([H])([H])C(=O)C([H])([H])N([H])c3c([H])c(N([H])C(=O)N4C([H])([H])C([H])([H])C([H])([H])C([H])(n5nc(-c6c([H])c([H])c(Oc7c([H])c([H])c(F)c([H])c7F)c([H])c6[H])c(C(=O)N([H])[H])c5N([H])[H])C4([H])[H])c([H])c([H])c3F)c([H])c([H])c2C1([H])[H]

>  <smiles>  (30) 
[H]c1c([H])c([H])c2c(c1[H])C([H])([H])C([H])([H])C([H])([H])C2([H])N([H])C(=O)C1([H])N(C(=O)C([H])(N([H])C(=O)C([H])(N([H])C([H])([H])[H])C([H])([H])[H])C(C([H])([H])[H])(C([H])([H])[H])C([H])([H])[H])C([H])([H])c2c([H])c(OC([H])([H])C(=O)C([H])([H])C(=O)C([H])([H])N([H])c3c([H])c(N([H])C(=O)N4C([H])([H])C([H])([H])C([H])([H])C([H])(n5nc(-c6c([H])c([H])c(Oc7c([H])c([H])c(F)c([H])c7F)c([H])c6[H])c(C(=O)N([H])[H])c5N([H])[H])C4([H])[H])c([H])c([H])c3F)c([H])c([H])c2C1([H])[H]

$$$$
30:0:0
     RDKit          3D

 97106  0  0  1  0  0  0  0  0999 V2000
  -30.4970  -22.1550   20.2260 C   0  0  0  0  0  2  0  0  0  0  0  0
  -28.0240  -21.6270   20.3960 C   0  0  0  0  0  2  0  0  0  0  0  0
  -30.1540  -23.7030   20.1460 C   0  0  0  0  0  2  0  0  0  0  0  0
  -27.7190  -23.1760   20.2830 C   0  0  0  0  0  2  0  0  0  0  0  0
  -29.3580  -21.2250   19.7210 C   0  0  0  0  0  3  0  0  0  0  0  0
  -28.8310  -24.1120   20.8650 C   0  0  1  0  0  0  0  0  0  0  0  0
  -30.9260  -15.0420   20.4940 C   0  0  0  0  0  0  0  0  0  0  0  0
  -30.7510  -12.7630   19.5310 C   0  0  0  0  0  2  0  0  0  0  0  0
  -29.8630  -12.8500   18.2680 C   0  0  0  0  0  2  0  0  0  0  0  0
  -28.3770  -12.6920   18.6440 C   0  0  0  0  0  2  0  0  0  0  0  0
  -27.9640  -13.5890   19.8410 C   0  0  0  0  0  3  0  0  0  0  0  0
  -28.9760  -13.4970   21.0040 C   0  0  0  0  0  2  0  0  0  0  0  0
  -30.3030  -13.8170   20.4650 N   0  0  0  0  0  0  0  0  0  0  0  0
  -32.1170  -15.1370   20.1780 O   0  0  0  0  0  0  0  0  0  0  0  0
  -30.2360  -17.1940   18.4910 C   0  0  0  0  0  3  0  0  0  0  0  0
  -30.0830  -18.2820   17.6440 C   0  0  0  0  0  0  0  0  0  0  0  0
  -30.0900  -17.3840   19.8780 C   0  0  0  0  0  0  0  0  0  0  0  0
  -29.6680  -19.6930   19.4040 C   0  0  0  0  0  0  0  0  0  0  0  0
  -29.8180  -19.5010   18.0950 N   0  0  0  0  0  0  0  0  0  0  0  0
  -29.7840  -18.6740   20.3140 N   0  0  0  0  0  0  0  0  0  0  0  0
  -30.1490  -16.1650   20.6970 N   0  0  0  0  0  0  0  0  0  0  0  0
  -29.3180  -16.0030   21.2430 H   0  0  0  0  0  0  0  0  0  0  0  0
  -25.5540  -14.1880   20.4840 C   0  0  0  0  0  0  0  0  0  0  0  0
  -24.4750  -13.4150   20.8220 C   0  0  0  0  0  0  0  0  0  0  0  0
  -24.9390  -12.0640   20.8130 C   0  0  0  0  0  0  0  0  0  0  0  0
  -26.6020  -13.3070   20.2830 N   0  0  0  0  0  0  0  0  0  0  0  0
  -26.2360  -12.0240   20.5420 N   0  0  0  0  0  0  0  0  0  0  0  0
  -24.2040  -10.8040   20.9850 C   0  0  0  0  0  0  0  0  0  0  0  0
  -24.6000   -9.8430   21.9430 C   0  0  0  0  0  3  0  0  0  0  0  0
  -23.8670   -8.6460   22.1020 C   0  0  0  0  0  3  0  0  0  0  0  0
  -22.7250   -8.4020   21.3030 C   0  0  0  0  0  0  0  0  0  0  0  0
  -22.3480   -9.3520   20.3370 C   0  0  0  0  0  3  0  0  0  0  0  0
  -23.0820  -10.5410   20.1760 C   0  0  0  0  0  3  0  0  0  0  0  0
  -21.9670   -7.2580   21.3710 O   0  0  0  0  0  0  0  0  0  0  0  0
  -21.8800   -6.5190   22.5240 C   0  0  0  0  0  0  0  0  0  0  0  0
  -21.3630   -7.0650   23.7210 C   0  0  0  0  0  3  0  0  0  0  0  0
  -21.2280   -6.2520   24.8640 C   0  0  0  0  0  3  0  0  0  0  0  0
  -21.5960   -4.8940   24.8120 C   0  0  0  0  0  0  0  0  0  0  0  0
  -22.1040   -4.3480   23.6200 C   0  0  0  0  0  3  0  0  0  0  0  0
  -22.2420   -5.1580   22.4790 C   0  0  0  0  0  0  0  0  0  0  0  0
  -22.7140   -4.6210   21.3280 F   0  0  0  0  0  0  0  0  0  0  0  0
  -21.4560   -4.1110   25.9080 F   0  0  0  0  0  0  0  0  0  0  0  0
  -23.0700  -13.8930   21.0410 C   0  0  0  0  0  0  0  0  0  0  0  0
  -22.3160  -13.2110   21.8980 N   0  0  0  0  0  0  0  0  0  0  0  0
  -22.6490  -14.9080   20.4930 O   0  0  0  0  0  0  0  0  0  0  0  0
  -22.6640  -12.3870   22.3650 H   0  0  0  0  0  0  0  0  0  0  0  0
  -21.3730  -13.5180   22.0880 H   0  0  0  0  0  0  0  0  0  0  0  0
  -25.7200  -15.5580   20.3080 N   0  0  0  0  0  0  0  0  0  0  0  0
  -24.9460  -16.2070   20.3910 H   0  0  0  0  0  0  0  0  0  0  0  0
  -26.5660  -15.9930   19.9620 H   0  0  0  0  0  0  0  0  0  0  0  0
  -30.1990  -18.1510   16.2710 N   0  0  0  0  0  0  0  0  0  0  0  0
  -30.1270  -17.2260   15.8670 H   0  0  0  0  0  0  0  0  0  0  0  0
  -29.7950  -18.8800   15.6970 H   0  0  0  0  0  0  0  0  0  0  0  0
  -28.2110  -23.9280   23.2520 C   0  0  0  0  0  1  0  0  0  0  0  0
  -29.1310  -23.6540   22.1950 O   0  0  0  0  0  0  0  0  0  0  0  0
  -28.4680  -25.6930   21.0090 C   0  0  0  0  0  2  0  0  0  0  0  0
  -28.5010  -26.7650   19.9910 O   0  0  0  0  0  0  0  0  0  0  0  0
  -24.6840  -31.9040   23.3700 C   0  0  0  0  0  0  0  0  0  0  0  0
  -27.4010  -27.6340   20.0200 C   0  0  0  0  0  0  0  0  0  0  0  0
  -23.5160  -30.6010   21.6250 C   0  0  0  0  0  3  0  0  0  0  0  0
  -25.0070  -29.1860   20.1030 C   0  0  0  0  0  0  0  0  0  0  0  0
  -26.0490  -30.9870   21.4810 C   0  0  0  0  0  2  0  0  0  0  0  0
  -26.1630  -29.6600   20.7390 C   0  0  0  0  0  0  0  0  0  0  0  0
  -27.3690  -28.8960   20.6880 C   0  0  0  0  0  3  0  0  0  0  0  0
  -26.2300  -27.2110   19.3640 C   0  0  0  0  0  3  0  0  0  0  0  0
  -25.0410  -27.9670   19.4060 C   0  0  0  0  0  3  0  0  0  0  0  0
  -23.7510  -30.0300   20.2030 C   0  0  0  0  0  2  0  0  0  0  0  0
  -24.7670  -31.1780   22.2170 N   0  0  0  0  0  0  0  0  0  0  0  0
  -23.5920  -32.1220   23.9160 O   0  0  0  0  0  0  0  0  0  0  0  0
  -22.8690  -29.5070   22.5080 C   0  0  0  0  0  0  0  0  0  0  0  0
  -21.5560  -29.2850   22.3300 N   0  0  0  0  0  0  0  0  0  0  0  0
  -23.5490  -28.8630   23.3120 O   0  0  0  0  0  0  0  0  0  0  0  0
  -21.0640  -29.8590   21.6590 H   0  0  0  0  0  0  0  0  0  0  0  0
  -18.2200  -27.9230   22.6490 C   0  0  0  0  0  0  0  0  0  0  0  0
  -20.7540  -28.2740   23.0220 C   0  0  0  0  0  3  0  0  0  0  0  0
  -20.9380  -26.8810   22.3770 C   0  0  0  0  0  2  0  0  0  0  0  0
  -19.8850  -26.5670   21.3090 C   0  0  0  0  0  2  0  0  0  0  0  0
  -18.4780  -26.6200   21.9100 C   0  0  0  0  0  2  0  0  0  0  0  0
  -19.2890  -28.7070   23.1560 C   0  0  0  0  0  0  0  0  0  0  0  0
  -18.9970  -29.9270   23.8040 C   0  0  0  0  0  3  0  0  0  0  0  0
  -17.6670  -30.3640   23.9500 C   0  0  0  0  0  3  0  0  0  0  0  0
  -16.6110  -29.5770   23.4600 C   0  0  0  0  0  3  0  0  0  0  0  0
  -16.8880  -28.3580   22.8140 C   0  0  0  0  0  3  0  0  0  0  0  0
  -25.9530  -32.5140   24.0430 C   0  0  0  0  0  3  0  0  0  0  0  0
  -26.4610  -31.6780   25.2820 C   0  0  1  0  0  0  0  0  0  0  0  0
  -25.3550  -31.3700   26.3180 C   0  0  0  0  0  1  0  0  0  0  0  0
  -27.0670  -30.3320   24.8230 C   0  0  0  0  0  1  0  0  0  0  0  0
  -27.5910  -32.4480   26.0050 C   0  0  0  0  0  1  0  0  0  0  0  0
  -25.6220  -33.8890   24.4480 N   0  0  0  0  0  0  0  0  0  0  0  0
  -25.9820  -34.9890   23.7720 C   0  0  0  0  0  0  0  0  0  0  0  0
  -26.6970  -34.9520   22.7670 O   0  0  0  0  0  0  0  0  0  0  0  0
  -24.9910  -33.9910   25.2290 H   0  0  0  0  0  0  0  0  0  0  0  0
  -24.2950  -36.8220   23.4280 C   0  0  0  0  0  1  0  0  0  0  0  0
  -25.4690  -36.3440   24.2970 C   0  0  0  0  0  3  0  0  0  0  0  0
  -27.5330  -37.1460   25.3580 C   0  0  0  0  0  1  0  0  0  0  0  0
  -26.5130  -37.3910   24.3410 N   0  0  0  0  0  0  0  0  0  0  0  0
  -26.1000  -38.3020   24.5200 H   0  0  0  0  0  0  0  0  0  0  0  0
  3  1  1  0
  3  6  1  0
  4  2  1  0
  4  6  1  0
  5 18  1  0
  5  1  1  0
  5  2  1  0
  6 56  1  1
  6 55  1  0
  7 21  1  0
  8 13  1  0
  9 10  1  0
  9  8  1  0
 11 10  1  0
 11 26  1  0
 11 12  1  0
 13  7  1  0
 13 12  1  0
 14  7  2  0
 15 17  1  0
 16 19  1  0
 16 15  2  0
 17 20  2  0
 17 21  1  0
 18 20  1  0
 19 18  2  0
 21 22  1  0
 23 24  2  0
 24 43  1  0
 25 24  1  0
 25 28  1  0
 26 23  1  0
 26 27  1  0
 27 25  2  0
 28 29  1  0
 29 30  2  0
 31 34  1  0
 31 30  1  0
 32 31  2  0
 33 32  1  0
 33 28  2  0
 34 35  1  0
 35 36  1  0
 36 37  2  0
 38 37  1  0
 38 42  1  0
 39 38  2  0
 40 35  2  0
 40 39  1  0
 41 40  1  0
 43 44  1  0
 44 47  1  0
 44 46  1  0
 45 43  2  0
 48 49  1  0
 48 23  1  0
 50 48  1  0
 51 16  1  0
 52 51  1  0
 53 51  1  0
 55 54  1  0
 57 59  1  0
 57 56  1  0
 58 69  2  0
 59 64  1  0
 60 68  1  0
 60 70  1  0
 61 67  1  0
 61 63  1  0
 62 68  1  0
 63 62  1  0
 64 63  2  0
 65 66  1  0
 65 59  2  0
 66 61  2  0
 67 60  1  0
 68 58  1  0
 70 72  2  0
 71 70  1  0
 73 71  1  0
 74 83  2  0
 74 79  1  0
 75 71  1  0
 75 79  1  0
 76 75  1  0
 77 78  1  0
 77 76  1  0
 78 74  1  0
 79 80  2  0
 80 81  1  0
 82 81  2  0
 83 82  1  0
 84 58  1  0
 84 89  1  0
 84 85  1  0
 85 88  1  1
 85 86  1  0
 87 85  1  0
 89 92  1  0
 90 94  1  0
 90 89  1  0
 91 90  2  0
 94 93  1  0
 94 96  1  0
 96 97  1  0
 96 95  1  0
M  ISO  4   7 100  21 100  56 101  57 101
M  END
>  <TORSDO>  (31) 
F 19

>  <SCORE>  (31) 
-13.236

>  <name>  (31) 
30

>  <ligand_id>  (31) 
30

>  <original_smiles>  (31) 
[H]c1c(N([H])[H])nc(C2([H])C([H])([H])C([H])([H])C(OC([H])([H])[H])(C([H])([H])Oc3c([H])c([H])c4c(c3[H])C([H])([H])N(C(=O)C([H])(N([H])C(=O)C([H])(N([H])C([H])([H])[H])C([H])([H])[H])C(C([H])([H])[H])(C([H])([H])[H])C([H])([H])[H])C([H])(C(=O)N([H])C3([H])c5c([H])c([H])c([H])c([H])c5C([H])([H])C([H])([H])C3([H])[H])C4([H])[H])C([H])([H])C2([H])[H])nc1N([H])C(=O)N1C([H])([H])C([H])([H])C([H])([H])C([H])(n2nc(-c3c([H])c([H])c(Oc4c([H])c([H])c(F)c([H])c4F)c([H])c3[H])c(C(=O)N([H])[H])c2N([H])[H])C1([H])[H]

>  <smiles>  (31) 
[H]c1c(N([H])[H])nc(C2([H])C([H])([H])C([H])([H])C(OC([H])([H])[H])(C([H])([H])Oc3c([H])c([H])c4c(c3[H])C([H])([H])N(C(=O)C([H])(N([H])C(=O)C([H])(N([H])C([H])([H])[H])C([H])([H])[H])C(C([H])([H])[H])(C([H])([H])[H])C([H])([H])[H])C([H])(C(=O)N([H])C3([H])c5c([H])c([H])c([H])c([H])c5C([H])([H])C([H])([H])C3([H])[H])C4([H])[H])C([H])([H])C2([H])[H])nc1N([H])C(=O)N1C([H])([H])C([H])([H])C([H])([H])C([H])(n2nc(-c3c([H])c([H])c(Oc4c([H])c([H])c(F)c([H])c4F)c([H])c3[H])c(C(=O)N([H])[H])c2N([H])[H])C1([H])[H]

$$$$
31:0:0
     RDKit          3D

 97106  0  0  1  0  0  0  0  0999 V2000
  -32.3760  -21.2780   18.9480 C   0  0  0  0  0  2  0  0  0  0  0  0
  -32.7220  -20.3980   20.1730 C   0  0  0  0  0  2  0  0  0  0  0  0
  -30.8580  -21.4030   18.6970 C   0  0  0  0  0  2  0  0  0  0  0  0
  -30.3470  -20.7230   21.0220 C   0  0  0  0  0  3  0  0  0  0  0  0
  -31.8660  -20.7270   21.4310 C   0  0  1  0  0  0  0  0  0  0  0  0
  -32.1960  -19.7300   22.5700 C   0  0  0  0  0  1  0  0  0  0  0  0
  -32.2730  -22.1200   21.9850 C   0  0  0  0  0  1  0  0  0  0  0  0
  -30.1860  -21.7870   19.9600 N   0  0  2  0  0  4  0  0  0  0  0  0
  -30.7830  -22.5240   20.3180 H   0  0  0  0  0  0  0  0  0  0  0  0
  -30.4500  -14.7110   20.1170 C   0  0  0  0  0  0  0  0  0  0  0  0
  -30.2290  -12.5020   18.9860 C   0  0  0  0  0  2  0  0  0  0  0  0
  -29.2070  -12.6450   17.8350 C   0  0  0  0  0  2  0  0  0  0  0  0
  -27.7600  -12.4660   18.3410 C   0  0  0  0  0  2  0  0  0  0  0  0
  -27.4680  -13.2980   19.6170 C   0  0  0  0  0  3  0  0  0  0  0  0
  -28.5860  -13.0910   20.6640 C   0  0  0  0  0  2  0  0  0  0  0  0
  -29.8660  -13.4730   20.0360 N   0  0  0  0  0  0  0  0  0  0  0  0
  -31.5570  -14.9420   19.6150 O   0  0  0  0  0  0  0  0  0  0  0  0
  -28.4070  -18.9530   20.9070 C   0  0  0  0  0  3  0  0  0  0  0  0
  -29.7270  -19.3020   20.7670 C   0  0  0  0  0  0  0  0  0  0  0  0
  -29.5020  -17.0830   20.5930 C   0  0  0  0  0  0  0  0  0  0  0  0
  -30.4080  -18.0800   20.4870 N   0  0  0  0  0  0  0  0  0  0  0  0
  -29.6540  -15.6510   20.6930 N   0  0  0  0  0  0  0  0  0  0  0  0
  -28.2600  -17.5870   20.8250 O   0  0  0  0  0  0  0  0  0  0  0  0
  -28.8330  -15.2200   21.0810 H   0  0  0  0  0  0  0  0  0  0  0  0
  -25.1150  -13.8830   20.4810 C   0  0  0  0  0  0  0  0  0  0  0  0
  -24.0680  -13.0990   20.8860 C   0  0  0  0  0  0  0  0  0  0  0  0
  -24.5240  -11.7490   20.7830 C   0  0  0  0  0  0  0  0  0  0  0  0
  -26.1430  -13.0090   20.1620 N   0  0  0  0  0  0  0  0  0  0  0  0
  -25.7940  -11.7180   20.4010 N   0  0  0  0  0  0  0  0  0  0  0  0
  -23.8050  -10.4820   20.9730 C   0  0  0  0  0  0  0  0  0  0  0  0
  -24.2620   -9.5050   21.8840 C   0  0  0  0  0  3  0  0  0  0  0  0
  -23.5460   -8.3020   22.0630 C   0  0  0  0  0  3  0  0  0  0  0  0
  -22.3600   -8.0670   21.3290 C   0  0  0  0  0  0  0  0  0  0  0  0
  -21.9220   -9.0330   20.4050 C   0  0  0  0  0  3  0  0  0  0  0  0
  -22.6380  -10.2280   20.2260 C   0  0  0  0  0  3  0  0  0  0  0  0
  -21.6130   -6.9170   21.4160 O   0  0  0  0  0  0  0  0  0  0  0  0
  -21.5570   -6.1820   22.5740 C   0  0  0  0  0  0  0  0  0  0  0  0
  -21.0370   -6.7200   23.7720 C   0  0  0  0  0  3  0  0  0  0  0  0
  -20.9340   -5.9080   24.9200 C   0  0  0  0  0  3  0  0  0  0  0  0
  -21.3390   -4.5610   24.8700 C   0  0  0  0  0  0  0  0  0  0  0  0
  -21.8510   -4.0230   23.6760 C   0  0  0  0  0  3  0  0  0  0  0  0
  -21.9570   -4.8320   22.5310 C   0  0  0  0  0  0  0  0  0  0  0  0
  -22.4310   -4.3040   21.3770 F   0  0  0  0  0  0  0  0  0  0  0  0
  -21.2310   -3.7790   25.9690 F   0  0  0  0  0  0  0  0  0  0  0  0
  -22.6900  -13.5680   21.2540 C   0  0  0  0  0  0  0  0  0  0  0  0
  -22.0230  -12.8610   22.1600 N   0  0  0  0  0  0  0  0  0  0  0  0
  -22.2150  -14.5970   20.7730 O   0  0  0  0  0  0  0  0  0  0  0  0
  -22.4200  -12.0300   22.5710 H   0  0  0  0  0  0  0  0  0  0  0  0
  -21.1010  -13.1570   22.4470 H   0  0  0  0  0  0  0  0  0  0  0  0
  -25.2710  -15.2590   20.3400 N   0  0  0  0  0  0  0  0  0  0  0  0
  -24.5030  -15.9010   20.5060 H   0  0  0  0  0  0  0  0  0  0  0  0
  -26.0890  -15.7160   19.9590 H   0  0  0  0  0  0  0  0  0  0  0  0
  -28.9170  -22.5920   19.8380 C   0  0  0  0  0  2  0  0  0  0  0  0
  -29.2170  -24.1350   19.9040 C   0  0  0  0  0  0  0  0  0  0  0  0
  -30.3430  -24.5220   20.2360 O   0  0  0  0  0  0  0  0  0  0  0  0
  -28.0780  -25.1540   19.5470 C   0  0  0  0  0  2  0  0  0  0  0  0
  -28.2950  -26.5710   19.9070 O   0  0  0  0  0  0  0  0  0  0  0  0
  -24.5040  -31.7410   23.2030 C   0  0  0  0  0  0  0  0  0  0  0  0
  -27.1590  -27.3940   19.9030 C   0  0  0  0  0  0  0  0  0  0  0  0
  -23.3090  -30.4210   21.4930 C   0  0  0  0  0  3  0  0  0  0  0  0
  -24.7720  -28.9660   19.9870 C   0  0  0  0  0  0  0  0  0  0  0  0
  -25.8440  -30.7780   21.3220 C   0  0  0  0  0  2  0  0  0  0  0  0
  -25.9350  -29.4370   20.6050 C   0  0  0  0  0  0  0  0  0  0  0  0
  -27.1320  -28.6640   20.5560 C   0  0  0  0  0  3  0  0  0  0  0  0
  -25.9650  -26.9740   19.2660 C   0  0  0  0  0  3  0  0  0  0  0  0
  -24.7870  -27.7380   19.3100 C   0  0  0  0  0  3  0  0  0  0  0  0
  -23.5260  -29.8220   20.0800 C   0  0  0  0  0  2  0  0  0  0  0  0
  -24.5710  -30.9930   22.0640 N   0  0  0  0  0  0  0  0  0  0  0  0
  -23.4200  -31.9790   23.7530 O   0  0  0  0  0  0  0  0  0  0  0  0
  -22.6580  -29.3470   22.3980 C   0  0  0  0  0  0  0  0  0  0  0  0
  -21.3370  -29.1530   22.2510 N   0  0  0  0  0  0  0  0  0  0  0  0
  -23.3420  -28.6930   23.1910 O   0  0  0  0  0  0  0  0  0  0  0  0
  -20.8430  -29.7340   21.5880 H   0  0  0  0  0  0  0  0  0  0  0  0
  -17.9710  -27.9080   22.6890 C   0  0  0  0  0  0  0  0  0  0  0  0
  -20.5270  -28.1700   22.9730 C   0  0  0  0  0  3  0  0  0  0  0  0
  -20.6400  -26.7720   22.3210 C   0  0  0  0  0  2  0  0  0  0  0  0
  -19.5390  -26.4970   21.2920 C   0  0  0  0  0  2  0  0  0  0  0  0
  -18.1560  -26.5970   21.9430 C   0  0  0  0  0  2  0  0  0  0  0  0
  -19.0850  -28.6530   23.1600 C   0  0  0  0  0  0  0  0  0  0  0  0
  -18.8560  -29.8820   23.8170 C   0  0  0  0  0  3  0  0  0  0  0  0
  -17.5480  -30.3630   24.0120 C   0  0  0  0  0  3  0  0  0  0  0  0
  -16.4490  -29.6120   23.5580 C   0  0  0  0  0  3  0  0  0  0  0  0
  -16.6610  -28.3870   22.9020 C   0  0  0  0  0  3  0  0  0  0  0  0
  -25.7830  -32.3490   23.8560 C   0  0  0  0  0  3  0  0  0  0  0  0
  -26.2580  -31.5660   25.1400 C   0  0  1  0  0  0  0  0  0  0  0  0
  -25.1360  -31.3380   26.1800 C   0  0  0  0  0  1  0  0  0  0  0  0
  -26.8330  -30.1830   24.7550 C   0  0  0  0  0  1  0  0  0  0  0  0
  -27.4020  -32.3420   25.8340 C   0  0  0  0  0  1  0  0  0  0  0  0
  -25.4890  -33.7510   24.1850 N   0  0  0  0  0  0  0  0  0  0  0  0
  -25.8190  -34.7990   23.4180 C   0  0  0  0  0  0  0  0  0  0  0  0
  -26.4740  -34.6860   22.3770 O   0  0  0  0  0  0  0  0  0  0  0  0
  -24.9100  -33.9130   24.9950 H   0  0  0  0  0  0  0  0  0  0  0  0
  -24.0970  -36.5990   23.0830 C   0  0  0  0  0  1  0  0  0  0  0  0
  -25.3480  -36.1910   23.8770 C   0  0  0  0  0  3  0  0  0  0  0  0
  -27.4890  -37.0800   24.6860 C   0  0  0  0  0  1  0  0  0  0  0  0
  -26.3850  -37.2380   23.7430 N   0  0  0  0  0  0  0  0  0  0  0  0
  -25.9840  -38.1620   23.8770 H   0  0  0  0  0  0  0  0  0  0  0  0
  1  2  1  0
  2  5  1  0
  3  1  1  0
  3  8  1  0
  4 19  1  0
  4  5  1  0
  5  7  1  1
  5  6  1  0
  8  9  1  1
  8  4  1  0
 10 22  1  0
 11 16  1  0
 12 13  1  0
 12 11  1  0
 14 13  1  0
 14 28  1  0
 14 15  1  0
 16 10  1  0
 16 15  1  0
 17 10  2  0
 19 18  2  0
 20 22  1  0
 20 23  1  0
 21 20  2  0
 21 19  1  0
 22 24  1  0
 23 18  1  0
 25 26  2  0
 26 45  1  0
 27 26  1  0
 27 30  1  0
 28 29  1  0
 28 25  1  0
 29 27  2  0
 30 31  1  0
 31 32  2  0
 33 36  1  0
 33 32  1  0
 34 33  2  0
 35 34  1  0
 35 30  2  0
 36 37  1  0
 37 38  1  0
 38 39  2  0
 40 39  1  0
 40 44  1  0
 41 40  2  0
 42 37  2  0
 42 41  1  0
 43 42  1  0
 45 46  1  0
 46 49  1  0
 46 48  1  0
 47 45  2  0
 50 25  1  0
 50 51  1  0
 52 50  1  0
 53 54  1  0
 53  8  1  0
 54 55  2  0
 56 54  1  0
 56 57  1  0
 58 69  2  0
 59 57  1  0
 59 64  1  0
 60 68  1  0
 60 70  1  0
 61 67  1  0
 61 63  1  0
 62 68  1  0
 63 62  1  0
 64 63  2  0
 65 66  1  0
 65 59  2  0
 66 61  2  0
 67 60  1  0
 68 58  1  0
 70 72  2  0
 71 70  1  0
 73 71  1  0
 74 83  2  0
 74 79  1  0
 75 71  1  0
 75 79  1  0
 76 75  1  0
 77 78  1  0
 77 76  1  0
 78 74  1  0
 79 80  2  0
 80 81  1  0
 82 81  2  0
 83 82  1  0
 84 58  1  0
 84 89  1  0
 84 85  1  0
 85 88  1  1
 85 86  1  0
 87 85  1  0
 89 92  1  0
 90 94  1  0
 90 89  1  0
 91 90  2  0
 94 93  1  0
 96 97  1  0
 96 94  1  0
 96 95  1  0
M  ISO  4  10 100  22 100  56 101  57 101
M  END
>  <TORSDO>  (32) 
F 19

>  <SCORE>  (32) 
-13.474

>  <name>  (32) 
31

>  <ligand_id>  (32) 
31

>  <original_smiles>  (32) 
[H]c1oc(N([H])C(=O)N2C([H])([H])C([H])([H])C([H])([H])C([H])(n3nc(-c4c([H])c([H])c(Oc5c([H])c([H])c(F)c([H])c5F)c([H])c4[H])c(C(=O)N([H])[H])c3N([H])[H])C2([H])[H])nc1C1([H])C(C([H])([H])[H])(C([H])([H])[H])C([H])([H])C([H])([H])C([H])([H])[N+]1([H])C([H])([H])C(=O)C([H])([H])Oc1c([H])c([H])c2c(c1[H])C([H])([H])N(C(=O)C([H])(N([H])C(=O)C([H])(N([H])C([H])([H])[H])C([H])([H])[H])C(C([H])([H])[H])(C([H])([H])[H])C([H])([H])[H])C([H])(C(=O)N([H])C1([H])c3c([H])c([H])c([H])c([H])c3C([H])([H])C([H])([H])C1([H])[H])C2([H])[H]

>  <smiles>  (32) 
[H]c1oc(N([H])C(=O)N2C([H])([H])C([H])([H])C([H])([H])C([H])(n3nc(-c4c([H])c([H])c(Oc5c([H])c([H])c(F)c([H])c5F)c([H])c4[H])c(C(=O)N([H])[H])c3N([H])[H])C2([H])[H])nc1C1([H])C(C([H])([H])[H])(C([H])([H])[H])C([H])([H])C([H])([H])C([H])([H])[N+]1([H])C([H])([H])C(=O)C([H])([H])Oc1c([H])c([H])c2c(c1[H])C([H])([H])N(C(=O)C([H])(N([H])C(=O)C([H])(N([H])C([H])([H])[H])C([H])([H])[H])C(C([H])([H])[H])(C([H])([H])[H])C([H])([H])[H])C([H])(C(=O)N([H])C1([H])c3c([H])c([H])c([H])c([H])c3C([H])([H])C([H])([H])C1([H])[H])C2([H])[H]

$$$$
32:0:0
     RDKit          3D

 98106  0  0  1  0  0  0  0  0999 V2000
  -29.1090  -20.7180   20.9010 C   0  0  0  0  0  0  0  0  0  0  0  0
  -28.5020  -23.1790   20.8310 C   0  0  0  0  0  0  0  0  0  0  0  0
  -29.3030  -22.0120   20.5030 N   0  0  0  0  0  0  0  0  0  0  0  0
  -28.0200  -20.3660   21.5950 N   0  0  0  0  0  4  0  0  0  0  0  0
  -27.5080  -23.0620   21.5600 O   0  0  0  0  0  0  0  0  0  0  0  0
  -30.1060  -22.1310   19.9030 H   0  0  0  0  0  0  0  0  0  0  0  0
  -27.9240  -19.4380   21.9750 H   0  0  0  0  0  0  0  0  0  0  0  0
  -27.3560  -21.0870   21.8510 H   0  0  0  0  0  0  0  0  0  0  0  0
  -29.7340  -18.2600   20.5910 C   0  0  0  0  0  3  0  0  0  0  0  0
  -31.4680  -19.9830   20.5750 C   0  0  0  0  0  3  0  0  0  0  0  0
  -32.0750  -17.6210   20.4220 C   0  0  0  0  0  3  0  0  0  0  0  0
  -30.1020  -19.6410   20.6520 C   0  0  0  0  0  0  0  0  0  0  0  0
  -30.7130  -17.2280   20.4750 C   0  0  0  0  0  0  0  0  0  0  0  0
  -32.4450  -18.9790   20.4600 C   0  0  0  0  0  0  0  0  0  0  0  0
  -33.7540  -19.3230   20.4090 F   0  0  0  0  0  0  0  0  0  0  0  0
  -30.9920  -14.7640   19.9770 C   0  0  0  0  0  0  0  0  0  0  0  0
  -30.6720  -12.5370   18.9570 C   0  0  0  0  0  2  0  0  0  0  0  0
  -29.6750  -12.6550   17.7870 C   0  0  0  0  0  2  0  0  0  0  0  0
  -28.2290  -12.5000   18.2930 C   0  0  0  0  0  2  0  0  0  0  0  0
  -27.9260  -13.3930   19.5270 C   0  0  0  0  0  3  0  0  0  0  0  0
  -29.0390  -13.2750   20.5940 C   0  0  0  0  0  2  0  0  0  0  0  0
  -30.3230  -13.5760   19.9440 N   0  0  0  0  0  0  0  0  0  0  0  0
  -32.0980  -14.8920   19.4490 O   0  0  0  0  0  0  0  0  0  0  0  0
  -30.3100  -15.8350   20.4600 N   0  0  0  0  0  0  0  0  0  0  0  0
  -29.3710  -15.6340   20.7670 H   0  0  0  0  0  0  0  0  0  0  0  0
  -25.5850  -13.9850   20.4080 C   0  0  0  0  0  0  0  0  0  0  0  0
  -24.5360  -13.2060   20.8190 C   0  0  0  0  0  0  0  0  0  0  0  0
  -24.9850  -11.8530   20.7160 C   0  0  0  0  0  0  0  0  0  0  0  0
  -26.6060  -13.1060   20.0830 N   0  0  0  0  0  0  0  0  0  0  0  0
  -26.2530  -11.8180   20.3270 N   0  0  0  0  0  0  0  0  0  0  0  0
  -24.2620  -10.5890   20.9100 C   0  0  0  0  0  0  0  0  0  0  0  0
  -24.6800   -9.6400   21.8680 C   0  0  0  0  0  3  0  0  0  0  0  0
  -23.9580   -8.4410   22.0490 C   0  0  0  0  0  3  0  0  0  0  0  0
  -22.8030   -8.1830   21.2730 C   0  0  0  0  0  0  0  0  0  0  0  0
  -22.4050   -9.1210   20.3060 C   0  0  0  0  0  3  0  0  0  0  0  0
  -23.1270  -10.3120   20.1220 C   0  0  0  0  0  3  0  0  0  0  0  0
  -22.0550   -7.0350   21.3630 O   0  0  0  0  0  0  0  0  0  0  0  0
  -21.9110   -6.3590   22.5480 C   0  0  0  0  0  0  0  0  0  0  0  0
  -21.3140   -6.9570   23.6790 C   0  0  0  0  0  3  0  0  0  0  0  0
  -21.1230   -6.2050   24.8560 C   0  0  0  0  0  3  0  0  0  0  0  0
  -21.5200   -4.8540   24.9010 C   0  0  0  0  0  0  0  0  0  0  0  0
  -22.1100   -4.2560   23.7740 C   0  0  0  0  0  3  0  0  0  0  0  0
  -22.3020   -5.0060   22.6000 C   0  0  0  0  0  0  0  0  0  0  0  0
  -22.8520   -4.4180   21.5100 F   0  0  0  0  0  0  0  0  0  0  0  0
  -21.3300   -4.1300   26.0270 F   0  0  0  0  0  0  0  0  0  0  0  0
  -23.1620  -13.6820   21.1920 C   0  0  0  0  0  0  0  0  0  0  0  0
  -22.4790  -12.9550   22.0710 N   0  0  0  0  0  0  0  0  0  0  0  0
  -22.7050  -14.7310   20.7420 O   0  0  0  0  0  0  0  0  0  0  0  0
  -22.8630  -12.1050   22.4550 H   0  0  0  0  0  0  0  0  0  0  0  0
  -21.5600  -13.2540   22.3620 H   0  0  0  0  0  0  0  0  0  0  0  0
  -25.7470  -15.3590   20.2600 N   0  0  0  0  0  0  0  0  0  0  0  0
  -24.9870  -16.0100   20.4230 H   0  0  0  0  0  0  0  0  0  0  0  0
  -26.5630  -15.7990   19.8540 H   0  0  0  0  0  0  0  0  0  0  0  0
  -28.2890  -25.5960   20.5730 C   0  0  0  0  0  3  0  0  0  0  0  0
  -28.9560  -24.4570   20.2520 C   0  0  0  0  0  0  0  0  0  0  0  0
  -30.0030  -24.4780   19.4130 O   0  0  0  0  0  0  0  0  0  0  0  0
  -30.1260  -25.3820   19.1520 H   0  0  0  0  0  0  0  0  0  0  0  0
  -28.5380  -26.8770   20.0920 O   0  0  0  0  0  0  0  0  0  0  0  0
  -24.7370  -31.9660   23.3760 C   0  0  0  0  0  0  0  0  0  0  0  0
  -27.4250  -27.7010   20.0720 C   0  0  0  0  0  0  0  0  0  0  0  0
  -23.5550  -30.6540   21.6470 C   0  0  0  0  0  3  0  0  0  0  0  0
  -25.0320  -29.2170   20.1410 C   0  0  0  0  0  0  0  0  0  0  0  0
  -26.0830  -31.0340   21.4940 C   0  0  0  0  0  2  0  0  0  0  0  0
  -26.1860  -29.7040   20.7720 C   0  0  0  0  0  0  0  0  0  0  0  0
  -27.3890  -28.9540   20.7350 C   0  0  0  0  0  3  0  0  0  0  0  0
  -26.2590  -27.2480   19.4180 C   0  0  0  0  0  3  0  0  0  0  0  0
  -25.0660  -27.9900   19.4580 C   0  0  0  0  0  3  0  0  0  0  0  0
  -23.7810  -30.0620   20.2310 C   0  0  0  0  0  2  0  0  0  0  0  0
  -24.8100  -31.2300   22.2310 N   0  0  0  0  0  0  0  0  0  0  0  0
  -23.6490  -32.2000   23.9210 O   0  0  0  0  0  0  0  0  0  0  0  0
  -22.9020  -29.5740   22.5400 C   0  0  0  0  0  0  0  0  0  0  0  0
  -21.5850  -29.3710   22.3720 N   0  0  0  0  0  0  0  0  0  0  0  0
  -23.5780  -28.9260   23.3430 O   0  0  0  0  0  0  0  0  0  0  0  0
  -21.0990  -29.9480   21.6990 H   0  0  0  0  0  0  0  0  0  0  0  0
  -18.2260  -28.0850   22.7300 C   0  0  0  0  0  0  0  0  0  0  0  0
  -20.7700  -28.3800   23.0770 C   0  0  0  0  0  3  0  0  0  0  0  0
  -20.9170  -26.9810   22.4360 C   0  0  0  0  0  2  0  0  0  0  0  0
  -19.8460  -26.6870   21.3800 C   0  0  0  0  0  2  0  0  0  0  0  0
  -18.4460  -26.7740   21.9960 C   0  0  0  0  0  2  0  0  0  0  0  0
  -19.3180  -28.8470   23.2240 C   0  0  0  0  0  0  0  0  0  0  0  0
  -19.0580  -30.0770   23.8680 C   0  0  0  0  0  3  0  0  0  0  0  0
  -17.7410  -30.5450   24.0240 C   0  0  0  0  0  3  0  0  0  0  0  0
  -16.6630  -29.7780   23.5490 C   0  0  0  0  0  3  0  0  0  0  0  0
  -16.9060  -28.5500   22.9070 C   0  0  0  0  0  3  0  0  0  0  0  0
  -26.0130  -32.5710   24.0410 C   0  0  0  0  0  3  0  0  0  0  0  0
  -26.4950  -31.7630   25.3090 C   0  0  1  0  0  0  0  0  0  0  0  0
  -25.3730  -31.4970   26.3390 C   0  0  0  0  0  1  0  0  0  0  0  0
  -27.0850  -30.3950   24.8930 C   0  0  0  0  0  1  0  0  0  0  0  0
  -27.6270  -32.5350   26.0230 C   0  0  0  0  0  1  0  0  0  0  0  0
  -25.7100  -33.9630   24.3970 N   0  0  0  0  0  0  0  0  0  0  0  0
  -26.0580  -35.0280   23.6630 C   0  0  0  0  0  0  0  0  0  0  0  0
  -26.7400  -34.9410   22.6380 O   0  0  0  0  0  0  0  0  0  0  0  0
  -25.1070  -34.1060   25.1940 H   0  0  0  0  0  0  0  0  0  0  0  0
  -24.3440  -36.8370   23.3260 C   0  0  0  0  0  1  0  0  0  0  0  0
  -25.5740  -36.4100   24.1430 C   0  0  0  0  0  3  0  0  0  0  0  0
  -27.6970  -37.2730   25.0220 C   0  0  0  0  0  1  0  0  0  0  0  0
  -26.6130  -37.4580   24.0610 N   0  0  0  0  0  0  0  0  0  0  0  0
  -26.2090  -38.3790   24.2130 H   0  0  0  0  0  0  0  0  0  0  0  0
  1  4  2  0
  2  5  2  0
  3  2  1  0
  3  1  1  0
  4  8  1  0
  4  7  1  0
  6  3  1  0
  9 12  1  0
 10 12  2  0
 11 14  2  0
 11 13  1  0
 12  1  1  0
 13  9  2  0
 14 10  1  0
 15 14  1  0
 16 24  1  0
 17 22  1  0
 18 19  1  0
 18 17  1  0
 20 19  1  0
 20 29  1  0
 20 21  1  0
 22 16  1  0
 22 21  1  0
 23 16  2  0
 24 13  1  0
 24 25  1  0
 26 27  2  0
 27 46  1  0
 28 27  1  0
 28 31  1  0
 29 30  1  0
 29 26  1  0
 30 28  2  0
 31 32  1  0
 32 33  2  0
 34 37  1  0
 34 33  1  0
 35 34  2  0
 36 35  1  0
 36 31  2  0
 37 38  1  0
 38 43  2  0
 38 39  1  0
 39 40  2  0
 40 41  1  0
 41 45  1  0
 42 41  2  0
 43 42  1  0
 44 43  1  0
 46 47  1  0
 47 50  1  0
 47 49  1  0
 48 46  2  0
 51 26  1  0
 51 52  1  0
 53 51  1  0
 55 54  2  0
 55  2  1  0
 56 55  1  0
 57 56  1  0
 58 54  1  0
 59 70  2  0
 60 58  1  0
 60 65  1  0
 61 69  1  0
 61 71  1  0
 62 68  1  0
 62 64  1  0
 63 69  1  0
 64 63  1  0
 65 64  2  0
 66 67  1  0
 66 60  2  0
 67 62  2  0
 68 61  1  0
 69 59  1  0
 71 73  2  0
 72 71  1  0
 74 72  1  0
 75 84  2  0
 75 80  1  0
 76 72  1  0
 76 80  1  0
 77 76  1  0
 78 79  1  0
 78 77  1  0
 79 75  1  0
 80 81  2  0
 81 82  1  0
 83 82  2  0
 84 83  1  0
 85 59  1  0
 85 90  1  0
 85 86  1  0
 86 89  1  1
 86 87  1  0
 88 86  1  0
 90 93  1  0
 91 95  1  0
 91 90  1  0
 92 91  2  0
 95 94  1  0
 97 95  1  0
 97 98  1  0
 97 96  1  0
M  ISO  4  16 100  24 100  54 101  58 101
M  END
>  <TORSDO>  (33) 
F 19

>  <SCORE>  (33) 
-13.877

>  <name>  (33) 
32

>  <ligand_id>  (33) 
32

>  <original_smiles>  (33) 
[H]OC(C(=O)N([H])C(c1c([H])c(F)c([H])c(N([H])C(=O)N2C([H])([H])C([H])([H])C([H])([H])C([H])(n3nc(-c4c([H])c([H])c(Oc5c([H])c([H])c(F)c([H])c5F)c([H])c4[H])c(C(=O)N([H])[H])c3N([H])[H])C2([H])[H])c1[H])=[N+]([H])[H])=C([H])Oc1c([H])c([H])c2c(c1[H])C([H])([H])N(C(=O)C([H])(N([H])C(=O)C([H])(N([H])C([H])([H])[H])C([H])([H])[H])C(C([H])([H])[H])(C([H])([H])[H])C([H])([H])[H])C([H])(C(=O)N([H])C1([H])c3c([H])c([H])c([H])c([H])c3C([H])([H])C([H])([H])C1([H])[H])C2([H])[H]

>  <smiles>  (33) 
[H]OC(C(=O)N([H])C(c1c([H])c(F)c([H])c(N([H])C(=O)N2C([H])([H])C([H])([H])C([H])([H])C([H])(n3nc(-c4c([H])c([H])c(Oc5c([H])c([H])c(F)c([H])c5F)c([H])c4[H])c(C(=O)N([H])[H])c3N([H])[H])C2([H])[H])c1[H])=[N+]([H])[H])=C([H])Oc1c([H])c([H])c2c(c1[H])C([H])([H])N(C(=O)C([H])(N([H])C(=O)C([H])(N([H])C([H])([H])[H])C([H])([H])[H])C(C([H])([H])[H])(C([H])([H])[H])C([H])([H])[H])C([H])(C(=O)N([H])C1([H])c3c([H])c([H])c([H])c([H])c3C([H])([H])C([H])([H])C1([H])[H])C2([H])[H]

$$$$
33:0:0
     RDKit          3D

 96 99  0  0  1  0  0  0  0  0999 V2000
  -25.2720  -24.4960   19.0720 C   0  0  0  0  0  2  0  0  0  0  0  0
  -23.7490  -26.3460   18.0800 C   0  0  0  0  0  1  0  0  0  0  0  0
  -24.4090  -26.0530   19.3860 N   0  0  0  0  0  2  0  0  0  0  0  0
  -25.9090  -24.7060   18.0390 O   0  0  0  0  0  1  0  0  0  0  0  0
  -26.9070  -21.2410   19.5850 C   0  0  0  0  0  3  0  0  0  0  0  0
  -25.7950  -19.2630   18.9710 C   0  0  0  0  0  3  0  0  0  0  0  0
  -25.7120  -22.5200   19.2790 C   0  0  0  0  0  3  0  0  0  0  0  0
  -27.1240  -19.4720   19.4290 C   0  0  0  0  0  3  0  0  0  0  0  0
  -24.8300  -21.5830   18.5730 C   0  0  0  0  0  0  0  0  0  0  0  0
  -24.8210  -20.1900   18.6140 N   0  0  0  0  0  0  0  0  0  0  0  0
  -29.1510  -16.3860   19.5420 C   0  0  0  0  0  0  0  0  0  0  0  0
  -29.8990  -13.7400   18.8300 C   0  0  0  0  0  2  0  0  0  0  0  0
  -29.0760  -12.9250   17.7700 C   0  0  0  0  0  2  0  0  0  0  0  0
  -27.8100  -12.3110   18.3760 C   0  0  0  0  0  2  0  0  0  0  0  0
  -27.2250  -13.2960   19.4040 C   0  0  0  0  0  3  0  0  0  0  0  0
  -28.2340  -13.8990   20.3970 C   0  0  0  0  0  2  0  0  0  0  0  0
  -29.0380  -14.8410   19.5860 N   0  0  0  0  0  0  0  0  0  0  0  0
  -30.3940  -16.3980   19.2590 O   0  0  0  0  0  0  0  0  0  0  0  0
  -28.0930  -17.7660   19.8030 N   0  0  0  0  0  2  0  0  0  0  0  0
  -27.4360  -17.2990   20.4030 H   0  0  0  0  0  0  0  0  0  0  0  0
  -25.0400  -13.7000   20.5230 C   0  0  0  0  0  0  0  0  0  0  0  0
  -24.0660  -12.8730   20.9830 C   0  0  0  0  0  0  0  0  0  0  0  0
  -24.5600  -11.5440   20.8130 C   0  0  0  0  0  0  0  0  0  0  0  0
  -26.0400  -12.8650   20.0830 N   0  0  0  0  0  0  0  0  0  0  0  0
  -25.7960  -11.5590   20.3280 N   0  0  0  0  0  0  0  0  0  0  0  0
  -23.8920  -10.2590   21.0100 C   0  0  0  0  0  0  0  0  0  0  0  0
  -24.3880   -9.2950   21.9120 C   0  0  0  0  0  3  0  0  0  0  0  0
  -23.7000   -8.0760   22.1010 C   0  0  0  0  0  3  0  0  0  0  0  0
  -22.5070   -7.8160   21.3890 C   0  0  0  0  0  0  0  0  0  0  0  0
  -22.0250   -8.7770   20.4820 C   0  0  0  0  0  3  0  0  0  0  0  0
  -22.7150   -9.9850   20.2900 C   0  0  0  0  0  3  0  0  0  0  0  0
  -21.7810   -6.6540   21.4970 O   0  0  0  0  0  0  0  0  0  0  0  0
  -21.7400   -5.9380   22.6660 C   0  0  0  0  0  0  0  0  0  0  0  0
  -21.2710   -6.5050   23.8710 C   0  0  0  0  0  3  0  0  0  0  0  0
  -21.1760   -5.7080   25.0290 C   0  0  0  0  0  3  0  0  0  0  0  0
  -21.5460   -4.3510   24.9830 C   0  0  0  0  0  0  0  0  0  0  0  0
  -22.0080   -3.7860   23.7820 C   0  0  0  0  0  3  0  0  0  0  0  0
  -22.1010   -4.5770   22.6240 C   0  0  0  0  0  0  0  0  0  0  0  0
  -22.5290   -4.0210   21.4650 F   0  0  0  0  0  0  0  0  0  0  0  0
  -21.4440   -3.5860   26.0950 F   0  0  0  0  0  0  0  0  0  0  0  0
  -22.7090  -13.3080   21.4350 C   0  0  0  0  0  0  0  0  0  0  0  0
  -22.0980  -12.5640   22.3480 N   0  0  0  0  0  0  0  0  0  0  0  0
  -22.2070  -14.3500   21.0140 O   0  0  0  0  0  0  0  0  0  0  0  0
  -22.5270  -11.7280   22.7090 H   0  0  0  0  0  0  0  0  0  0  0  0
  -21.1860  -12.8380   22.6880 H   0  0  0  0  0  0  0  0  0  0  0  0
  -25.1610  -15.0820   20.4000 N   0  0  0  0  0  0  0  0  0  0  0  0
  -24.4180  -15.7170   20.6610 H   0  0  0  0  0  0  0  0  0  0  0  0
  -25.9370  -15.5370   19.9360 H   0  0  0  0  0  0  0  0  0  0  0  0
  -23.6460  -21.0190   16.2500 C   0  0  0  0  0  2  0  0  0  0  0  0
  -24.3890  -22.2850   16.0210 C   0  0  0  0  0  2  0  0  0  0  0  0
  -23.8810  -21.9860   17.4300 C   0  0  0  0  0  3  0  0  0  0  0  0
  -24.3220  -28.1630   19.9300 C   0  0  0  0  0 15  0  0  0  0  0  0
  -25.7140  -28.8520   22.7090 C   0  0  0  0  0  2  0  0  0  0  0  0
  -25.2130  -28.8920   23.8210 O   0  0  0  0  0  1  0  0  0  0  0  0
  -27.4270  -28.5270   22.8820 C   0  0  0  0  0  2  0  0  0  0  0  0
  -28.2890  -27.5780   21.9970 O   0  0  0  0  0  0  0  0  0  0  0  0
  -24.3500  -31.6930   22.9070 C   0  0  0  0  0  0  0  0  0  0  0  0
  -28.2760  -27.5950   20.6340 C   0  0  0  0  0  3  0  0  0  0  0  0
  -23.3590  -29.3580   21.8790 C   0  0  0  0  0  2  0  0  0  0  0  0
  -25.8930  -27.1600   21.2080 C   0  0  0  0  0  2  0  0  0  0  0  0
  -25.5540  -30.3310   20.6540 C   0  0  0  0  0  2  0  0  0  0  0  0
  -26.4070  -28.6890   20.4230 C   0  0  0  0  0  3  0  0  0  0  0  0
  -27.7130  -28.7680   20.1850 C   0  0  0  0  0  2  0  0  0  0  0  0
  -27.6650  -26.3750   20.2730 C   0  0  0  0  0  2  0  0  0  0  0  0
  -26.6300  -26.1090   21.1240 C   0  0  0  0  0  2  0  0  0  0  0  0
  -23.9740  -27.4320   22.1510 C   0  0  0  0  0 15  0  0  0  0  0  0
  -24.3520  -30.7150   21.7820 N   0  0  0  0  0  0  0  0  0  0  0  0
  -23.2810  -32.0270   23.4510 O   0  0  0  0  0  0  0  0  0  0  0  0
  -22.3800  -29.3670   22.9670 C   0  0  0  0  0  0  0  0  0  0  0  0
  -21.1440  -29.2140   22.5700 N   0  0  0  0  0  0  0  0  0  0  0  0
  -22.7520  -29.1530   24.1120 O   0  0  0  0  0  0  0  0  0  0  0  0
  -20.9800  -29.2340   21.5660 H   0  0  0  0  0  0  0  0  0  0  0  0
  -17.7820  -28.2870   22.9080 C   0  0  0  0  0  0  0  0  0  0  0  0
  -20.2750  -28.3750   23.3440 C   0  0  0  0  0  3  0  0  0  0  0  0
  -20.3280  -26.9250   22.8020 C   0  0  0  0  0  2  0  0  0  0  0  0
  -19.3160  -26.6650   21.6920 C   0  0  0  0  0  2  0  0  0  0  0  0
  -17.9120  -26.9350   22.2260 C   0  0  0  0  0  2  0  0  0  0  0  0
  -18.9020  -28.9890   23.4010 C   0  0  0  0  0  0  0  0  0  0  0  0
  -18.7450  -30.2870   23.9400 C   0  0  0  0  0  3  0  0  0  0  0  0
  -17.4660  -30.8630   24.0250 C   0  0  0  0  0  3  0  0  0  0  0  0
  -16.3440  -30.1430   23.5820 C   0  0  0  0  0  3  0  0  0  0  0  0
  -16.5050  -28.8640   23.0170 C   0  0  0  0  0  3  0  0  0  0  0  0
  -25.5690  -32.4930   23.6980 C   0  0  0  0  0  3  0  0  0  0  0  0
  -25.1750  -33.9090   23.9720 N   0  0  0  0  0  0  0  0  0  0  0  0
  -25.6960  -35.0110   23.4120 C   0  0  0  0  0  0  0  0  0  0  0  0
  -26.5340  -34.9550   22.5120 O   0  0  0  0  0  0  0  0  0  0  0  0
  -24.4130  -34.0310   24.6270 H   0  0  0  0  0  0  0  0  0  0  0  0
  -23.9630  -36.8000   23.0050 C   0  0  0  0  0  1  0  0  0  0  0  0
  -25.1730  -36.3970   23.8640 C   0  0  0  0  0  3  0  0  0  0  0  0
  -27.2470  -37.3530   24.7960 C   0  0  0  0  0  1  0  0  0  0  0  0
  -26.1810  -37.4860   23.8090 N   0  0  0  0  0  0  0  0  0  0  0  0
  -25.7390  -38.3920   23.9520 H   0  0  0  0  0  0  0  0  0  0  0  0
  -26.1040  -31.9820   25.1680 C   0  0  1  0  0  0  0  0  0  0  0  0
  -25.0000  -31.5220   26.1510 C   0  0  0  0  0  1  0  0  0  0  0  0
  -27.1040  -30.8530   25.0270 C   0  0  0  0  0  1  0  0  0  0  0  0
  -26.9590  -33.0540   25.9240 C   0  0  0  0  0  1  0  0  0  0  0  0
  1  3  1  0
  2  3  1  0
  4  1  1  0
  6  8  2  0
  7  5  2  0
  8  5  1  0
  9 10  2  0
  9  7  1  0
 10  6  1  0
 11 17  1  0
 11 19  1  0
 12 17  1  0
 13 14  1  0
 13 12  1  0
 15 14  1  0
 15 24  1  0
 15 16  1  0
 17 16  1  0
 18 11  2  0
 19 20  1  0
 21 22  2  0
 22 41  1  0
 23 22  1  0
 23 26  1  0
 24 25  1  0
 24 21  1  0
 25 23  2  0
 26 27  1  0
 27 28  2  0
 29 32  1  0
 29 28  1  0
 30 29  2  0
 31 30  1  0
 31 26  2  0
 32 33  1  0
 33 34  1  0
 34 35  2  0
 36 35  1  0
 36 40  1  0
 37 36  2  0
 38 33  2  0
 38 37  1  0
 39 38  1  0
 41 42  1  0
 42 45  1  0
 42 44  1  0
 43 41  2  0
 46 21  1  0
 46 47  1  0
 48 46  1  0
 49 51  1  0
 50 49  1  0
 50 51  1  0
 51  9  1  0
 53 55  1  0
 53 54  1  0
 56 55  1  0
 57 68  2  0
 58 56  1  0
 59 69  1  0
 61 67  1  0
 62 61  1  0
 62 60  1  0
 63 62  1  0
 63 58  1  0
 64 58  1  0
 64 65  1  0
 65 60  1  0
 67 59  1  0
 67 57  1  0
 69 71  2  0
 70 69  1  0
 72 70  1  0
 73 82  2  0
 73 78  1  0
 74 70  1  0
 74 78  1  0
 75 74  1  0
 76 77  1  0
 76 75  1  0
 77 73  1  0
 78 79  2  0
 79 80  1  0
 81 80  2  0
 82 81  1  0
 83 57  1  0
 83 84  1  0
 83 93  1  0
 84 87  1  0
 85 89  1  0
 85 84  1  0
 86 85  2  0
 89 88  1  0
 91 89  1  0
 91 92  1  0
 91 90  1  0
 93 96  1  1
 93 94  1  0
 95 93  1  0
M  ISO  4  11 100  19 100  55 101  56 101
M  END
>  <TORSDO>  (34) 
F 21

>  <SCORE>  (34) 
-12.898

>  <name>  (34) 
33

>  <ligand_id>  (34) 
33

>  <original_smiles>  (34) 
[H]c1nc(C2([H])C([H])([H])C2([H])[H])c(C(=O)N(C([H])([H])[H])C([H])([H])C(=O)C([H])([H])Oc2c([H])c([H])c3c(c2[H])C([H])([H])N(C(=O)C([H])(N([H])C(=O)C([H])(N([H])C([H])([H])[H])C([H])([H])[H])C(C([H])([H])[H])(C([H])([H])[H])C([H])([H])[H])C([H])(C(=O)N([H])C2([H])c4c([H])c([H])c([H])c([H])c4C([H])([H])C([H])([H])C2([H])[H])C3([H])[H])c([H])c1N([H])C(=O)N1C([H])([H])C([H])([H])C([H])([H])C([H])(n2nc(-c3c([H])c([H])c(Oc4c([H])c([H])c(F)c([H])c4F)c([H])c3[H])c(C(=O)N([H])[H])c2N([H])[H])C1([H])[H]

>  <smiles>  (34) 
[H]c1nc(C2([H])C([H])([H])C2([H])[H])c(C(=O)N(C([H])([H])[H])C([H])([H])C(=O)C([H])([H])Oc2c([H])c([H])c3c(c2[H])C([H])([H])N(C(=O)C([H])(N([H])C(=O)C([H])(N([H])C([H])([H])[H])C([H])([H])[H])C(C([H])([H])[H])(C([H])([H])[H])C([H])([H])[H])C([H])(C(=O)N([H])C2([H])c4c([H])c([H])c([H])c([H])c4C([H])([H])C([H])([H])C2([H])[H])C3([H])[H])c([H])c1N([H])C(=O)N1C([H])([H])C([H])([H])C([H])([H])C([H])(n2nc(-c3c([H])c([H])c(Oc4c([H])c([H])c(F)c([H])c4F)c([H])c3[H])c(C(=O)N([H])[H])c2N([H])[H])C1([H])[H]

$$$$
34:0:0
     RDKit          3D

 95104  0  0  1  0  0  0  0  0999 V2000
  -29.8140  -21.7160   18.8540 C   0  0  0  0  0  2  0  0  0  0  0  0
  -29.7830  -22.1570   21.3020 C   0  0  0  0  0  2  0  0  0  0  0  0
  -29.1610  -23.0900   18.5770 C   0  0  0  0  0  2  0  0  0  0  0  0
  -29.1420  -23.5560   21.0680 C   0  0  0  0  0  2  0  0  0  0  0  0
  -29.3440  -21.1610   20.2090 C   0  0  0  0  0  3  0  0  0  0  0  0
  -29.4090  -24.1830   19.6620 C   0  0  1  0  0  0  0  0  0  0  0  0
  -28.6120  -18.8350   20.9390 C   0  0  0  0  0  3  0  0  0  0  0  0
  -28.7890  -17.4440   21.0900 C   0  0  0  0  0  3  0  0  0  0  0  0
  -31.0850  -17.6560   20.3470 C   0  0  0  0  0  3  0  0  0  0  0  0
  -29.6550  -19.6660   20.4680 C   0  0  0  0  0  0  0  0  0  0  0  0
  -30.0150  -16.8240   20.7650 C   0  0  0  0  0  0  0  0  0  0  0  0
  -30.9100  -19.0590   20.2040 C   0  0  0  0  0  0  0  0  0  0  0  0
  -31.9610  -19.8100   19.7950 F   0  0  0  0  0  0  0  0  0  0  0  0
  -30.6800  -14.4800   20.1080 C   0  0  0  0  0  0  0  0  0  0  0  0
  -30.3020  -12.3640   18.8840 C   0  0  0  0  0  2  0  0  0  0  0  0
  -29.2780  -12.6140   17.7570 C   0  0  0  0  0  2  0  0  0  0  0  0
  -27.8350  -12.4690   18.2780 C   0  0  0  0  0  2  0  0  0  0  0  0
  -27.5920  -13.2530   19.5950 C   0  0  0  0  0  3  0  0  0  0  0  0
  -28.7170  -12.9720   20.6180 C   0  0  0  0  0  2  0  0  0  0  0  0
  -30.0090  -13.2990   19.9820 N   0  0  0  0  0  0  0  0  0  0  0  0
  -31.7360  -14.7120   19.5110 O   0  0  0  0  0  0  0  0  0  0  0  0
  -30.0720  -15.3940   20.8930 N   0  0  0  0  0  0  0  0  0  0  0  0
  -29.3100  -14.9930   21.4170 H   0  0  0  0  0  0  0  0  0  0  0  0
  -25.2520  -13.8500   20.4860 C   0  0  0  0  0  0  0  0  0  0  0  0
  -24.2020  -13.0720   20.8960 C   0  0  0  0  0  0  0  0  0  0  0  0
  -24.6440  -11.7190   20.7790 C   0  0  0  0  0  0  0  0  0  0  0  0
  -26.2690  -12.9700   20.1510 N   0  0  0  0  0  0  0  0  0  0  0  0
  -25.9100  -11.6810   20.3810 N   0  0  0  0  0  0  0  0  0  0  0  0
  -23.9200  -10.4560   20.9690 C   0  0  0  0  0  0  0  0  0  0  0  0
  -24.3650   -9.4790   21.8870 C   0  0  0  0  0  3  0  0  0  0  0  0
  -23.6410   -8.2810   22.0660 C   0  0  0  0  0  3  0  0  0  0  0  0
  -22.4560   -8.0510   21.3260 C   0  0  0  0  0  0  0  0  0  0  0  0
  -22.0280   -9.0160   20.3980 C   0  0  0  0  0  3  0  0  0  0  0  0
  -22.7540  -10.2060   20.2170 C   0  0  0  0  0  3  0  0  0  0  0  0
  -21.7030   -6.9050   21.4140 O   0  0  0  0  0  0  0  0  0  0  0  0
  -21.6160   -6.1880   22.5810 C   0  0  0  0  0  0  0  0  0  0  0  0
  -21.1180   -6.7600   23.7710 C   0  0  0  0  0  3  0  0  0  0  0  0
  -20.9800   -5.9690   24.9280 C   0  0  0  0  0  3  0  0  0  0  0  0
  -21.3290   -4.6050   24.8970 C   0  0  0  0  0  0  0  0  0  0  0  0
  -21.8200   -4.0320   23.7100 C   0  0  0  0  0  3  0  0  0  0  0  0
  -21.9600   -4.8210   22.5550 C   0  0  0  0  0  0  0  0  0  0  0  0
  -22.4120   -4.2590   21.4080 F   0  0  0  0  0  0  0  0  0  0  0  0
  -21.1900   -3.8430   26.0060 F   0  0  0  0  0  0  0  0  0  0  0  0
  -22.8320  -13.5490   21.2830 C   0  0  0  0  0  0  0  0  0  0  0  0
  -22.1580  -12.8280   22.1720 N   0  0  0  0  0  0  0  0  0  0  0  0
  -22.3700  -14.5970   20.8320 O   0  0  0  0  0  0  0  0  0  0  0  0
  -22.5460  -11.9800   22.5580 H   0  0  0  0  0  0  0  0  0  0  0  0
  -21.2430  -13.1300   22.4700 H   0  0  0  0  0  0  0  0  0  0  0  0
  -25.4210  -15.2240   20.3530 N   0  0  0  0  0  0  0  0  0  0  0  0
  -24.6700  -15.8830   20.5360 H   0  0  0  0  0  0  0  0  0  0  0  0
  -26.2490  -15.6650   19.9730 H   0  0  0  0  0  0  0  0  0  0  0  0
  -31.3580  -25.5030   20.3150 C   0  0  0  0  0  1  0  0  0  0  0  0
  -30.7840  -24.5240   19.4580 O   0  0  0  0  0  0  0  0  0  0  0  0
  -28.4250  -25.3610   19.3220 C   0  0  0  0  0  2  0  0  0  0  0  0
  -28.4130  -26.6020   20.0760 O   0  0  0  0  0  0  0  0  0  0  0  0
  -24.5570  -31.7930   23.1770 C   0  0  0  0  0  0  0  0  0  0  0  0
  -27.2480  -27.3710   20.0400 C   0  0  0  0  0  0  0  0  0  0  0  0
  -23.3750  -30.4060   21.5120 C   0  0  0  0  0  3  0  0  0  0  0  0
  -24.8480  -28.9080   20.0700 C   0  0  0  0  0  0  0  0  0  0  0  0
  -25.9080  -30.7650   21.3490 C   0  0  0  0  0  2  0  0  0  0  0  0
  -26.0030  -29.4040   20.6860 C   0  0  0  0  0  0  0  0  0  0  0  0
  -27.2000  -28.6390   20.6790 C   0  0  0  0  0  3  0  0  0  0  0  0
  -26.0660  -26.9260   19.3910 C   0  0  0  0  0  3  0  0  0  0  0  0
  -24.8760  -27.6670   19.4230 C   0  0  0  0  0  3  0  0  0  0  0  0
  -23.6010  -29.7610   20.1210 C   0  0  0  0  0  2  0  0  0  0  0  0
  -24.6310  -31.0040   22.0690 N   0  0  0  0  0  0  0  0  0  0  0  0
  -23.4690  -32.0510   23.7100 O   0  0  0  0  0  0  0  0  0  0  0  0
  -22.7240  -29.3620   22.4480 C   0  0  0  0  0  0  0  0  0  0  0  0
  -21.4040  -29.1590   22.2980 N   0  0  0  0  0  0  0  0  0  0  0  0
  -23.4040  -28.7400   23.2680 O   0  0  0  0  0  0  0  0  0  0  0  0
  -20.9160  -29.7150   21.6100 H   0  0  0  0  0  0  0  0  0  0  0  0
  -18.0420  -27.9030   22.7270 C   0  0  0  0  0  0  0  0  0  0  0  0
  -20.5900  -28.2030   23.0480 C   0  0  0  0  0  3  0  0  0  0  0  0
  -20.7290  -26.7780   22.4670 C   0  0  0  0  0  2  0  0  0  0  0  0
  -19.6510  -26.4400   21.4310 C   0  0  0  0  0  2  0  0  0  0  0  0
  -18.2550  -26.5590   22.0490 C   0  0  0  0  0  2  0  0  0  0  0  0
  -19.1400  -28.6810   23.1820 C   0  0  0  0  0  0  0  0  0  0  0  0
  -18.8890  -29.9380   23.7740 C   0  0  0  0  0  3  0  0  0  0  0  0
  -17.5730  -30.4160   23.9170 C   0  0  0  0  0  3  0  0  0  0  0  0
  -16.4900  -29.6340   23.4790 C   0  0  0  0  0  3  0  0  0  0  0  0
  -16.7250  -28.3800   22.8890 C   0  0  0  0  0  3  0  0  0  0  0  0
  -25.8330  -32.4250   23.8130 C   0  0  0  0  0  3  0  0  0  0  0  0
  -26.3490  -31.6410   25.0810 C   0  0  1  0  0  0  0  0  0  0  0  0
  -25.2510  -31.3750   26.1370 C   0  0  0  0  0  1  0  0  0  0  0  0
  -26.9520  -30.2750   24.6750 C   0  0  0  0  0  1  0  0  0  0  0  0
  -27.4850  -32.4390   25.7640 C   0  0  0  0  0  1  0  0  0  0  0  0
  -25.5090  -33.8160   24.1570 N   0  0  0  0  0  0  0  0  0  0  0  0
  -25.8220  -34.8790   23.4030 C   0  0  0  0  0  0  0  0  0  0  0  0
  -26.4850  -34.7920   22.3660 O   0  0  0  0  0  0  0  0  0  0  0  0
  -24.9190  -33.9580   24.9630 H   0  0  0  0  0  0  0  0  0  0  0  0
  -24.0640  -36.6480   23.0800 C   0  0  0  0  0  1  0  0  0  0  0  0
  -25.3190  -36.2560   23.8740 C   0  0  0  0  0  3  0  0  0  0  0  0
  -27.4470  -37.1700   24.6920 C   0  0  0  0  0  1  0  0  0  0  0  0
  -26.3350  -37.3250   23.7580 N   0  0  0  0  0  0  0  0  0  0  0  0
  -25.9160  -38.2380   23.9120 H   0  0  0  0  0  0  0  0  0  0  0  0
  1  5  1  0
  3  1  1  0
  3  6  1  0
  4  2  1  0
  5 10  1  0
  5  2  1  0
  6 54  1  6
  6  4  1  0
  7  8  1  0
  9 11  1  0
 10  7  2  0
 11 22  1  0
 11  8  2  0
 12  9  2  0
 12 10  1  0
 13 12  1  0
 14 22  1  0
 15 20  1  0
 16 17  1  0
 16 15  1  0
 18 17  1  0
 18 27  1  0
 18 19  1  0
 20 14  1  0
 20 19  1  0
 21 14  2  0
 22 23  1  0
 24 25  2  0
 25 44  1  0
 26 25  1  0
 26 29  1  0
 27 28  1  0
 27 24  1  0
 28 26  2  0
 29 30  1  0
 30 31  2  0
 32 35  1  0
 32 31  1  0
 33 32  2  0
 34 33  1  0
 34 29  2  0
 35 36  1  0
 36 37  1  0
 37 38  2  0
 39 38  1  0
 39 43  1  0
 40 39  2  0
 41 36  2  0
 41 40  1  0
 42 41  1  0
 44 45  1  0
 45 48  1  0
 45 47  1  0
 46 44  2  0
 49 24  1  0
 49 50  1  0
 51 49  1  0
 53  6  1  0
 53 52  1  0
 54 55  1  0
 56 67  2  0
 57 55  1  0
 57 62  1  0
 58 66  1  0
 58 68  1  0
 59 65  1  0
 59 61  1  0
 60 66  1  0
 61 60  1  0
 62 61  2  0
 63 64  1  0
 63 57  2  0
 64 59  2  0
 65 58  1  0
 66 56  1  0
 68 70  2  0
 69 68  1  0
 71 69  1  0
 72 81  2  0
 72 77  1  0
 73 69  1  0
 73 77  1  0
 74 73  1  0
 75 76  1  0
 75 74  1  0
 76 72  1  0
 77 78  2  0
 78 79  1  0
 80 79  2  0
 81 80  1  0
 82 56  1  0
 82 87  1  0
 82 83  1  0
 83 86  1  1
 83 84  1  0
 85 83  1  0
 87 90  1  0
 88 92  1  0
 88 87  1  0
 89 88  2  0
 92 91  1  0
 94 92  1  0
 94 95  1  0
 94 93  1  0
M  ISO  4  14 100  22 100  54 101  55 101
M  END
>  <TORSDO>  (35) 
F 19

>  <SCORE>  (35) 
-13.816

>  <name>  (35) 
34

>  <ligand_id>  (35) 
34

>  <original_smiles>  (35) 
[H]c1c([H])c([H])c2c(c1[H])C([H])([H])C([H])([H])C([H])([H])C2([H])N([H])C(=O)C1([H])N(C(=O)C([H])(N([H])C(=O)C([H])(N([H])C([H])([H])[H])C([H])([H])[H])C(C([H])([H])[H])(C([H])([H])[H])C([H])([H])[H])C([H])([H])c2c([H])c(OC([H])([H])C3(OC([H])([H])[H])C([H])([H])C([H])([H])C([H])(c4c([H])c([H])c(N([H])C(=O)N5C([H])([H])C([H])([H])C([H])([H])C([H])(n6nc(-c7c([H])c([H])c(Oc8c([H])c([H])c(F)c([H])c8F)c([H])c7[H])c(C(=O)N([H])[H])c6N([H])[H])C5([H])[H])c([H])c4F)C([H])([H])C3([H])[H])c([H])c([H])c2C1([H])[H]

>  <smiles>  (35) 
[H]c1c([H])c([H])c2c(c1[H])C([H])([H])C([H])([H])C([H])([H])C2([H])N([H])C(=O)C1([H])N(C(=O)C([H])(N([H])C(=O)C([H])(N([H])C([H])([H])[H])C([H])([H])[H])C(C([H])([H])[H])(C([H])([H])[H])C([H])([H])[H])C([H])([H])c2c([H])c(OC([H])([H])C3(OC([H])([H])[H])C([H])([H])C([H])([H])C([H])(c4c([H])c([H])c(N([H])C(=O)N5C([H])([H])C([H])([H])C([H])([H])C([H])(n6nc(-c7c([H])c([H])c(Oc8c([H])c([H])c(F)c([H])c8F)c([H])c7[H])c(C(=O)N([H])[H])c6N([H])[H])C5([H])[H])c([H])c4F)C([H])([H])C3([H])[H])c([H])c([H])c2C1([H])[H]

$$$$
35:0:0
     RDKit          3D

 91 99  0  0  1  0  0  0  0  0999 V2000
  -28.9360  -21.5950   20.6860 N   0  0  0  0  0  0  0  0  0  0  0  0
  -29.0920  -21.8940   21.6460 H   0  0  0  0  0  0  0  0  0  0  0  0
  -29.2210  -18.2830   19.2450 C   0  0  0  0  0  3  0  0  0  0  0  0
  -28.8370  -19.6550   19.1040 C   0  0  0  0  0  3  0  0  0  0  0  0
  -29.7570  -18.1230   20.4980 C   0  0  0  0  0  0  0  0  0  0  0  0
  -29.1450  -20.2510   20.2960 C   0  0  0  0  0  0  0  0  0  0  0  0
  -29.7000  -19.3380   21.1600 O   0  0  0  0  0  0  0  0  0  0  0  0
  -30.4050  -16.9550   21.2400 C   0  0  0  0  0  2  0  0  0  0  0  0
  -30.6340  -14.5630   20.3890 C   0  0  0  0  0  0  0  0  0  0  0  0
  -30.3570  -12.3870   19.2390 C   0  0  0  0  0  2  0  0  0  0  0  0
  -29.3980  -12.5670   18.0430 C   0  0  0  0  0  2  0  0  0  0  0  0
  -27.9320  -12.4080   18.4910 C   0  0  0  0  0  2  0  0  0  0  0  0
  -27.5990  -13.2500   19.7510 C   0  0  0  0  0  3  0  0  0  0  0  0
  -28.6660  -13.0480   20.8480 C   0  0  0  0  0  2  0  0  0  0  0  0
  -29.9750  -13.3760   20.2620 N   0  0  0  0  0  0  0  0  0  0  0  0
  -31.7720  -14.7340   19.9410 O   0  0  0  0  0  0  0  0  0  0  0  0
  -29.9210  -15.5890   20.9150 N   0  0  0  0  0  0  0  0  0  0  0  0
  -28.9810  -15.3710   21.2060 H   0  0  0  0  0  0  0  0  0  0  0  0
  -25.2120  -13.8560   20.4870 C   0  0  0  0  0  0  0  0  0  0  0  0
  -24.1480  -13.0830   20.8690 C   0  0  0  0  0  0  0  0  0  0  0  0
  -24.6100  -11.7320   20.8350 C   0  0  0  0  0  0  0  0  0  0  0  0
  -26.2530  -12.9750   20.2450 N   0  0  0  0  0  0  0  0  0  0  0  0
  -25.8970  -11.6920   20.5150 N   0  0  0  0  0  0  0  0  0  0  0  0
  -23.8880  -10.4680   21.0330 C   0  0  0  0  0  0  0  0  0  0  0  0
  -24.3350   -9.4980   21.9580 C   0  0  0  0  0  3  0  0  0  0  0  0
  -23.6130   -8.3000   22.1440 C   0  0  0  0  0  3  0  0  0  0  0  0
  -22.4310   -8.0620   21.4050 C   0  0  0  0  0  0  0  0  0  0  0  0
  -22.0010   -9.0200   20.4690 C   0  0  0  0  0  3  0  0  0  0  0  0
  -22.7230  -10.2100   20.2820 C   0  0  0  0  0  3  0  0  0  0  0  0
  -21.6790   -6.9160   21.4990 O   0  0  0  0  0  0  0  0  0  0  0  0
  -21.6520   -6.1650   22.6470 C   0  0  0  0  0  0  0  0  0  0  0  0
  -21.2450   -6.7100   23.8840 C   0  0  0  0  0  3  0  0  0  0  0  0
  -21.1660   -5.8870   25.0240 C   0  0  0  0  0  3  0  0  0  0  0  0
  -21.4840   -4.5190   24.9280 C   0  0  0  0  0  0  0  0  0  0  0  0
  -21.8840   -3.9730   23.6970 C   0  0  0  0  0  3  0  0  0  0  0  0
  -21.9650   -4.7940   22.5580 C   0  0  0  0  0  0  0  0  0  0  0  0
  -22.3310   -4.2580   21.3690 F   0  0  0  0  0  0  0  0  0  0  0  0
  -21.4010   -3.7250   26.0220 F   0  0  0  0  0  0  0  0  0  0  0  0
  -22.7530  -13.5590   21.1540 C   0  0  0  0  0  0  0  0  0  0  0  0
  -22.0310  -12.8620   22.0250 N   0  0  0  0  0  0  0  0  0  0  0  0
  -22.3100  -14.5840   20.6370 O   0  0  0  0  0  0  0  0  0  0  0  0
  -22.4020  -12.0330   22.4640 H   0  0  0  0  0  0  0  0  0  0  0  0
  -21.0960  -13.1630   22.2560 H   0  0  0  0  0  0  0  0  0  0  0  0
  -25.3750  -15.2260   20.3060 N   0  0  0  0  0  0  0  0  0  0  0  0
  -24.6120  -15.8820   20.4170 H   0  0  0  0  0  0  0  0  0  0  0  0
  -26.2160  -15.6560   19.9390 H   0  0  0  0  0  0  0  0  0  0  0  0
  -28.7160  -22.7120   19.7320 C   0  0  0  0  0  2  0  0  0  0  0  0
  -28.5130  -24.1210   20.3860 C   0  0  0  0  0  0  0  0  0  0  0  0
  -28.3440  -24.2100   21.6070 O   0  0  0  0  0  0  0  0  0  0  0  0
  -28.5590  -25.3980   19.4840 C   0  0  0  0  0  2  0  0  0  0  0  0
  -28.4140  -26.6620   20.2050 O   0  0  0  0  0  0  0  0  0  0  0  0
  -24.5760  -31.8910   23.2470 C   0  0  0  0  0  0  0  0  0  0  0  0
  -27.2320  -27.3950   20.1770 C   0  0  0  0  0  0  0  0  0  0  0  0
  -23.3790  -30.4820   21.6050 C   0  0  0  0  0  3  0  0  0  0  0  0
  -24.8370  -28.9350   20.1910 C   0  0  0  0  0  0  0  0  0  0  0  0
  -25.9110  -30.8300   21.4180 C   0  0  0  0  0  2  0  0  0  0  0  0
  -25.9980  -29.4530   20.7750 C   0  0  0  0  0  0  0  0  0  0  0  0
  -27.1950  -28.6920   20.7600 C   0  0  0  0  0  3  0  0  0  0  0  0
  -26.0390  -26.8990   19.6030 C   0  0  0  0  0  3  0  0  0  0  0  0
  -24.8540  -27.6580   19.6040 C   0  0  0  0  0  3  0  0  0  0  0  0
  -23.5930  -29.7970   20.2300 C   0  0  0  0  0  2  0  0  0  0  0  0
  -24.6410  -31.0830   22.1480 N   0  0  0  0  0  0  0  0  0  0  0  0
  -23.4910  -32.1630   23.7800 O   0  0  0  0  0  0  0  0  0  0  0  0
  -22.7210  -29.4660   22.5680 C   0  0  0  0  0  0  0  0  0  0  0  0
  -21.3980  -29.2820   22.4370 N   0  0  0  0  0  0  0  0  0  0  0  0
  -23.4020  -28.8420   23.3880 O   0  0  0  0  0  0  0  0  0  0  0  0
  -20.9080  -29.8350   21.7470 H   0  0  0  0  0  0  0  0  0  0  0  0
  -18.0210  -28.0900   22.9360 C   0  0  0  0  0  0  0  0  0  0  0  0
  -20.5790  -28.3450   23.2100 C   0  0  0  0  0  3  0  0  0  0  0  0
  -20.6810  -26.9140   22.6320 C   0  0  0  0  0  2  0  0  0  0  0  0
  -19.5790  -26.5950   21.6170 C   0  0  0  0  0  2  0  0  0  0  0  0
  -18.1960  -26.7410   22.2600 C   0  0  0  0  0  2  0  0  0  0  0  0
  -19.1410  -28.8490   23.3670 C   0  0  0  0  0  0  0  0  0  0  0  0
  -18.9240  -30.1110   23.9600 C   0  0  0  0  0  3  0  0  0  0  0  0
  -17.6200  -30.6160   24.1260 C   0  0  0  0  0  3  0  0  0  0  0  0
  -16.5140  -29.8530   23.7130 C   0  0  0  0  0  3  0  0  0  0  0  0
  -16.7160  -28.5910   23.1240 C   0  0  0  0  0  3  0  0  0  0  0  0
  -25.8570  -32.5260   23.8720 C   0  0  0  0  0  3  0  0  0  0  0  0
  -25.5470  -33.9260   24.1860 N   0  0  0  0  0  0  0  0  0  0  0  0
  -25.8890  -34.9720   23.4220 C   0  0  0  0  0  0  0  0  0  0  0  0
  -26.5680  -34.8580   22.3970 O   0  0  0  0  0  0  0  0  0  0  0  0
  -24.9470  -34.0900   24.9820 H   0  0  0  0  0  0  0  0  0  0  0  0
  -24.1680  -36.7650   23.0370 C   0  0  0  0  0  1  0  0  0  0  0  0
  -25.4000  -36.3650   23.8630 C   0  0  0  0  0  3  0  0  0  0  0  0
  -27.5270  -37.2520   24.7110 C   0  0  0  0  0  1  0  0  0  0  0  0
  -26.4360  -37.4150   23.7530 N   0  0  0  0  0  0  0  0  0  0  0  0
  -26.0310  -38.3380   23.8910 H   0  0  0  0  0  0  0  0  0  0  0  0
  -26.3640  -31.7660   25.1590 C   0  0  1  0  0  0  0  0  0  0  0  0
  -25.2620  -31.5450   26.2210 C   0  0  0  0  0  1  0  0  0  0  0  0
  -26.9470  -30.3840   24.7840 C   0  0  0  0  0  1  0  0  0  0  0  0
  -27.5120  -32.5660   25.8200 C   0  0  0  0  0  1  0  0  0  0  0  0
  1  2  1  0
  3  5  2  0
  4  3  1  0
  4  6  2  0
  5  7  1  0
  5  8  1  0
  6  1  1  0
  6  7  1  0
  9 17  1  0
 10 15  1  0
 11 12  1  0
 11 10  1  0
 13 12  1  0
 13 22  1  0
 13 14  1  0
 15  9  1  0
 15 14  1  0
 16  9  2  0
 17 18  1  0
 17  8  1  0
 19 20  2  0
 20 39  1  0
 21 20  1  0
 21 24  1  0
 22 19  1  0
 22 23  1  0
 23 21  2  0
 24 25  1  0
 25 26  2  0
 27 30  1  0
 27 26  1  0
 28 27  2  0
 29 28  1  0
 29 24  2  0
 30 31  1  0
 31 32  1  0
 32 33  2  0
 34 33  1  0
 34 38  1  0
 35 34  2  0
 36 31  2  0
 36 35  1  0
 37 36  1  0
 39 40  1  0
 40 43  1  0
 40 42  1  0
 41 39  2  0
 44 45  1  0
 44 19  1  0
 46 44  1  0
 47 48  1  0
 47  1  1  0
 48 49  2  0
 50 51  1  0
 50 48  1  0
 52 63  2  0
 53 51  1  0
 53 58  1  0
 54 62  1  0
 54 64  1  0
 55 61  1  0
 55 57  1  0
 56 62  1  0
 57 56  1  0
 58 57  2  0
 59 60  1  0
 59 53  2  0
 60 55  2  0
 61 54  1  0
 62 52  1  0
 64 66  2  0
 65 64  1  0
 67 65  1  0
 68 77  2  0
 68 73  1  0
 69 65  1  0
 69 73  1  0
 70 69  1  0
 71 72  1  0
 71 70  1  0
 72 68  1  0
 73 74  2  0
 74 75  1  0
 76 75  2  0
 77 76  1  0
 78 52  1  0
 78 79  1  0
 78 88  1  0
 79 82  1  0
 80 84  1  0
 80 79  1  0
 81 80  2  0
 84 83  1  0
 86 84  1  0
 86 87  1  0
 86 85  1  0
 88 91  1  1
 88 89  1  0
 90 88  1  0
M  ISO  4   9 100  17 100  50 101  51 101
M  END
>  <TORSDO>  (36) 
F 21

>  <SCORE>  (36) 
-13.563

>  <name>  (36) 
35

>  <ligand_id>  (36) 
35

>  <original_smiles>  (36) 
[H]c1c(N([H])C([H])([H])C(=O)C([H])([H])Oc2c([H])c([H])c3c(c2[H])C([H])([H])N(C(=O)C([H])(N([H])C(=O)C([H])(N([H])C([H])([H])[H])C([H])([H])[H])C(C([H])([H])[H])(C([H])([H])[H])C([H])([H])[H])C([H])(C(=O)N([H])C2([H])c4c([H])c([H])c([H])c([H])c4C([H])([H])C([H])([H])C2([H])[H])C3([H])[H])oc(C([H])([H])N([H])C(=O)N2C([H])([H])C([H])([H])C([H])([H])C([H])(n3nc(-c4c([H])c([H])c(Oc5c([H])c([H])c(F)c([H])c5F)c([H])c4[H])c(C(=O)N([H])[H])c3N([H])[H])C2([H])[H])c1[H]

>  <smiles>  (36) 
[H]c1c(N([H])C([H])([H])C(=O)C([H])([H])Oc2c([H])c([H])c3c(c2[H])C([H])([H])N(C(=O)C([H])(N([H])C(=O)C([H])(N([H])C([H])([H])[H])C([H])([H])[H])C(C([H])([H])[H])(C([H])([H])[H])C([H])([H])[H])C([H])(C(=O)N([H])C2([H])c4c([H])c([H])c([H])c([H])c4C([H])([H])C([H])([H])C2([H])[H])C3([H])[H])oc(C([H])([H])N([H])C(=O)N2C([H])([H])C([H])([H])C([H])([H])C([H])(n3nc(-c4c([H])c([H])c(Oc5c([H])c([H])c(F)c([H])c5F)c([H])c4[H])c(C(=O)N([H])[H])c3N([H])[H])C2([H])[H])c1[H]

$$$$
36:0:0
     RDKit          3D

 96104  0  0  1  0  0  0  0  0999 V2000
  -29.9500  -22.0210   20.3000 C   0  0  0  0  0  0  0  0  0  0  0  0
  -29.5400  -20.7580   20.5920 N   0  0  0  0  0  0  0  0  0  0  0  0
  -31.1090  -22.3000   19.9690 O   0  0  0  0  0  0  0  0  0  0  0  0
  -28.5380  -20.6720   20.7140 H   0  0  0  0  0  0  0  0  0  0  0  0
  -29.8100  -18.2710   20.6150 C   0  0  0  0  0  3  0  0  0  0  0  0
  -31.6770  -19.6940   21.2790 C   0  0  0  0  0  3  0  0  0  0  0  0
  -31.9270  -17.2720   21.3070 C   0  0  0  0  0  3  0  0  0  0  0  0
  -30.3460  -19.5800   20.8070 C   0  0  0  0  0  0  0  0  0  0  0  0
  -30.6030  -17.1040   20.8350 C   0  0  0  0  0  0  0  0  0  0  0  0
  -32.4580  -18.5530   21.5260 C   0  0  0  0  0  0  0  0  0  0  0  0
  -33.7250  -18.6900   21.9830 F   0  0  0  0  0  0  0  0  0  0  0  0
  -30.7270  -14.7300   20.0670 C   0  0  0  0  0  0  0  0  0  0  0  0
  -30.3590  -12.5730   18.9220 C   0  0  0  0  0  2  0  0  0  0  0  0
  -29.3500  -12.7680   17.7730 C   0  0  0  0  0  2  0  0  0  0  0  0
  -27.9070  -12.6090   18.2860 C   0  0  0  0  0  2  0  0  0  0  0  0
  -27.6320  -13.4400   19.5690 C   0  0  0  0  0  3  0  0  0  0  0  0
  -28.7530  -13.2470   20.6160 C   0  0  0  0  0  2  0  0  0  0  0  0
  -30.0330  -13.5620   19.9650 N   0  0  0  0  0  0  0  0  0  0  0  0
  -31.8300  -14.8800   19.5370 O   0  0  0  0  0  0  0  0  0  0  0  0
  -30.0740  -15.7800   20.6220 N   0  0  0  0  0  0  0  0  0  0  0  0
  -29.1050  -15.6260   20.8580 H   0  0  0  0  0  0  0  0  0  0  0  0
  -25.2830  -14.0120   20.4460 C   0  0  0  0  0  0  0  0  0  0  0  0
  -24.2410  -13.2240   20.8550 C   0  0  0  0  0  0  0  0  0  0  0  0
  -24.7020  -11.8750   20.7550 C   0  0  0  0  0  0  0  0  0  0  0  0
  -26.3130  -13.1430   20.1240 N   0  0  0  0  0  0  0  0  0  0  0  0
  -25.9720  -11.8510   20.3680 N   0  0  0  0  0  0  0  0  0  0  0  0
  -23.9920  -10.6050   20.9500 C   0  0  0  0  0  0  0  0  0  0  0  0
  -24.4330   -9.6480   21.8890 C   0  0  0  0  0  3  0  0  0  0  0  0
  -23.7210   -8.4420   22.0710 C   0  0  0  0  0  3  0  0  0  0  0  0
  -22.5540   -8.1850   21.3120 C   0  0  0  0  0  0  0  0  0  0  0  0
  -22.1330   -9.1310   20.3620 C   0  0  0  0  0  3  0  0  0  0  0  0
  -22.8450  -10.3280   20.1790 C   0  0  0  0  0  3  0  0  0  0  0  0
  -21.8140   -7.0310   21.4040 O   0  0  0  0  0  0  0  0  0  0  0  0
  -21.7280   -6.3220   22.5740 C   0  0  0  0  0  0  0  0  0  0  0  0
  -21.2000   -6.8900   23.7540 C   0  0  0  0  0  3  0  0  0  0  0  0
  -21.0670   -6.1040   24.9150 C   0  0  0  0  0  3  0  0  0  0  0  0
  -21.4490   -4.7500   24.8990 C   0  0  0  0  0  0  0  0  0  0  0  0
  -21.9710   -4.1800   23.7240 C   0  0  0  0  0  3  0  0  0  0  0  0
  -22.1070   -4.9630   22.5640 C   0  0  0  0  0  0  0  0  0  0  0  0
  -22.5890   -4.4040   21.4280 F   0  0  0  0  0  0  0  0  0  0  0  0
  -21.3140   -3.9920   26.0120 F   0  0  0  0  0  0  0  0  0  0  0  0
  -22.8620  -13.6880   21.2270 C   0  0  0  0  0  0  0  0  0  0  0  0
  -22.1820  -12.9520   22.1010 N   0  0  0  0  0  0  0  0  0  0  0  0
  -22.3980  -14.7360   20.7810 O   0  0  0  0  0  0  0  0  0  0  0  0
  -22.5730  -12.1030   22.4830 H   0  0  0  0  0  0  0  0  0  0  0  0
  -21.2600  -13.2420   22.3920 H   0  0  0  0  0  0  0  0  0  0  0  0
  -25.4330  -15.3880   20.3000 N   0  0  0  0  0  0  0  0  0  0  0  0
  -24.6700  -16.0340   20.4700 H   0  0  0  0  0  0  0  0  0  0  0  0
  -26.2550  -15.8390   19.9170 H   0  0  0  0  0  0  0  0  0  0  0  0
  -28.7960  -23.1030   20.4140 C   0  0  0  0  0  0  0  0  0  0  0  0
  -27.6990  -22.7350   20.8570 O   0  0  0  0  0  0  0  0  0  0  0  0
  -28.1110  -25.5020   20.3240 C   0  0  0  0  0  3  0  0  0  0  0  0
  -29.0200  -24.5470   20.0160 C   0  0  0  0  0  0  0  0  0  0  0  0
  -30.1250  -24.8930   19.3390 O   0  0  0  0  0  0  0  0  0  0  0  0
  -30.0690  -25.8290   19.1880 H   0  0  0  0  0  0  0  0  0  0  0  0
  -28.2350  -26.8410   19.9810 O   0  0  0  0  0  0  0  0  0  0  0  0
  -24.5010  -32.0310   23.1830 C   0  0  0  0  0  0  0  0  0  0  0  0
  -27.0820  -27.6050   20.0100 C   0  0  0  0  0  0  0  0  0  0  0  0
  -23.2550  -30.6150   21.5850 C   0  0  0  0  0  3  0  0  0  0  0  0
  -24.6760  -29.0980   20.1040 C   0  0  0  0  0  0  0  0  0  0  0  0
  -25.7700  -31.0010   21.2980 C   0  0  0  0  0  2  0  0  0  0  0  0
  -25.8500  -29.6300   20.6530 C   0  0  0  0  0  0  0  0  0  0  0  0
  -27.0580  -28.8910   20.6040 C   0  0  0  0  0  3  0  0  0  0  0  0
  -25.8910  -27.1010   19.4420 C   0  0  0  0  0  3  0  0  0  0  0  0
  -24.6920  -27.8320   19.4950 C   0  0  0  0  0  3  0  0  0  0  0  0
  -23.4230  -29.9410   20.1980 C   0  0  0  0  0  2  0  0  0  0  0  0
  -24.5290  -31.2310   22.0790 N   0  0  0  0  0  0  0  0  0  0  0  0
  -23.4370  -32.2880   23.7630 O   0  0  0  0  0  0  0  0  0  0  0  0
  -22.6520  -29.5840   22.5680 C   0  0  0  0  0  0  0  0  0  0  0  0
  -21.3340  -29.3530   22.4590 N   0  0  0  0  0  0  0  0  0  0  0  0
  -23.3680  -28.9950   23.3820 O   0  0  0  0  0  0  0  0  0  0  0  0
  -20.8160  -29.8800   21.7700 H   0  0  0  0  0  0  0  0  0  0  0  0
  -18.0230  -27.9940   22.9650 C   0  0  0  0  0  0  0  0  0  0  0  0
  -20.5600  -28.3980   23.2520 C   0  0  0  0  0  3  0  0  0  0  0  0
  -20.7460  -26.9560   22.7220 C   0  0  0  0  0  2  0  0  0  0  0  0
  -19.6740  -26.5440   21.7090 C   0  0  0  0  0  2  0  0  0  0  0  0
  -18.2790  -26.6350   22.3350 C   0  0  0  0  0  2  0  0  0  0  0  0
  -19.0940  -28.8280   23.3810 C   0  0  0  0  0  0  0  0  0  0  0  0
  -18.8020  -30.0970   23.9270 C   0  0  0  0  0  3  0  0  0  0  0  0
  -17.4710  -30.5330   24.0630 C   0  0  0  0  0  3  0  0  0  0  0  0
  -16.4130  -29.6970   23.6650 C   0  0  0  0  0  3  0  0  0  0  0  0
  -16.6900  -28.4290   23.1220 C   0  0  0  0  0  3  0  0  0  0  0  0
  -25.8000  -32.6790   23.7560 C   0  0  0  0  0  3  0  0  0  0  0  0
  -26.3970  -31.8930   24.9870 C   0  0  1  0  0  0  0  0  0  0  0  0
  -25.3540  -31.5690   26.0820 C   0  0  0  0  0  1  0  0  0  0  0  0
  -27.0280  -30.5570   24.5280 C   0  0  0  0  0  1  0  0  0  0  0  0
  -27.5330  -32.7180   25.6360 C   0  0  0  0  0  1  0  0  0  0  0  0
  -25.4770  -34.0620   24.1300 N   0  0  0  0  0  0  0  0  0  0  0  0
  -25.7820  -35.1400   23.3960 C   0  0  0  0  0  0  0  0  0  0  0  0
  -26.4370  -35.0750   22.3520 O   0  0  0  0  0  0  0  0  0  0  0  0
  -24.8940  -34.1850   24.9450 H   0  0  0  0  0  0  0  0  0  0  0  0
  -24.0360  -36.9260   23.0990 C   0  0  0  0  0  1  0  0  0  0  0  0
  -25.2790  -36.5080   23.8990 C   0  0  0  0  0  3  0  0  0  0  0  0
  -27.4040  -37.3820   24.7650 C   0  0  0  0  0  1  0  0  0  0  0  0
  -26.3030  -37.5730   23.8260 N   0  0  0  0  0  0  0  0  0  0  0  0
  -25.8870  -38.4840   24.0040 H   0  0  0  0  0  0  0  0  0  0  0  0
  1 50  1  0
  1  2  1  0
  2  4  1  0
  2  8  1  0
  3  1  2  0
  5  8  2  0
  5  9  1  0
  6 10  2  0
  7 10  1  0
  8  6  1  0
  9  7  2  0
 10 11  1  0
 12 20  1  0
 13 18  1  0
 14 15  1  0
 14 13  1  0
 16 15  1  0
 16 25  1  0
 16 17  1  0
 18 12  1  0
 18 17  1  0
 19 12  2  0
 20  9  1  0
 20 21  1  0
 22 23  2  0
 23 42  1  0
 24 23  1  0
 24 27  1  0
 25 26  1  0
 25 22  1  0
 26 24  2  0
 27 28  1  0
 28 29  2  0
 30 33  1  0
 30 29  1  0
 31 30  2  0
 32 31  1  0
 32 27  2  0
 33 34  1  0
 34 35  1  0
 35 36  2  0
 37 36  1  0
 37 41  1  0
 38 37  2  0
 39 34  2  0
 39 38  1  0
 40 39  1  0
 42 43  1  0
 43 46  1  0
 43 45  1  0
 44 42  2  0
 47 22  1  0
 47 48  1  0
 49 47  1  0
 50 51  2  0
 53 52  2  0
 53 50  1  0
 54 53  1  0
 55 54  1  0
 56 58  1  0
 56 52  1  0
 57 68  2  0
 58 63  1  0
 59 67  1  0
 59 69  1  0
 60 66  1  0
 60 62  1  0
 61 67  1  0
 62 61  1  0
 63 62  2  0
 64 65  1  0
 64 58  2  0
 65 60  2  0
 66 59  1  0
 67 57  1  0
 69 71  2  0
 70 69  1  0
 72 70  1  0
 73 82  2  0
 73 78  1  0
 74 70  1  0
 74 78  1  0
 75 74  1  0
 76 77  1  0
 76 75  1  0
 77 73  1  0
 78 79  2  0
 79 80  1  0
 81 80  2  0
 82 81  1  0
 83 57  1  0
 83 88  1  0
 83 84  1  0
 84 87  1  1
 84 85  1  0
 86 84  1  0
 88 91  1  0
 89 93  1  0
 89 88  1  0
 90 89  2  0
 93 92  1  0
 95 93  1  0
 95 96  1  0
 95 94  1  0
M  ISO  4  12 100  20 100  52 101  56 101
M  END
>  <TORSDO>  (37) 
F 20

>  <SCORE>  (37) 
-13.339

>  <name>  (37) 
36

>  <ligand_id>  (37) 
36

>  <original_smiles>  (37) 
[H]OC(C(=O)C(=O)N([H])c1c([H])c(F)c([H])c(N([H])C(=O)N2C([H])([H])C([H])([H])C([H])([H])C([H])(n3nc(-c4c([H])c([H])c(Oc5c([H])c([H])c(F)c([H])c5F)c([H])c4[H])c(C(=O)N([H])[H])c3N([H])[H])C2([H])[H])c1[H])=C([H])Oc1c([H])c([H])c2c(c1[H])C([H])([H])N(C(=O)C([H])(N([H])C(=O)C([H])(N([H])C([H])([H])[H])C([H])([H])[H])C(C([H])([H])[H])(C([H])([H])[H])C([H])([H])[H])C([H])(C(=O)N([H])C1([H])c3c([H])c([H])c([H])c([H])c3C([H])([H])C([H])([H])C1([H])[H])C2([H])[H]

>  <smiles>  (37) 
[H]OC(C(=O)C(=O)N([H])c1c([H])c(F)c([H])c(N([H])C(=O)N2C([H])([H])C([H])([H])C([H])([H])C([H])(n3nc(-c4c([H])c([H])c(Oc5c([H])c([H])c(F)c([H])c5F)c([H])c4[H])c(C(=O)N([H])[H])c3N([H])[H])C2([H])[H])c1[H])=C([H])Oc1c([H])c([H])c2c(c1[H])C([H])([H])N(C(=O)C([H])(N([H])C(=O)C([H])(N([H])C([H])([H])[H])C([H])([H])[H])C(C([H])([H])[H])(C([H])([H])[H])C([H])([H])[H])C([H])(C(=O)N([H])C1([H])c3c([H])c([H])c([H])c([H])c3C([H])([H])C([H])([H])C1([H])[H])C2([H])[H]

$$$$
37:0:0
     RDKit          3D

 93101  0  0  1  0  0  0  0  0999 V2000
  -28.2290  -22.6310   19.5990 C   0  0  0  0  0  0  0  0  0  0  0  0
  -26.0190  -21.7320   19.1170 C   0  0  0  0  0  1  0  0  0  0  0  0
  -26.9790  -22.7950   19.3540 N   0  0  0  0  0  0  0  0  0  0  0  0
  -28.4880  -20.2150   20.5640 C   0  0  0  0  0  3  0  0  0  0  0  0
  -28.9240  -18.8570   20.4920 C   0  0  0  0  0  3  0  0  0  0  0  0
  -29.8480  -20.7650   18.6840 C   0  0  0  0  0  3  0  0  0  0  0  0
  -28.9080  -21.2220   19.6490 C   0  0  0  0  0  0  0  0  0  0  0  0
  -29.8380  -18.3960   19.5100 C   0  0  0  0  0  0  0  0  0  0  0  0
  -30.3040  -19.4010   18.5900 C   0  0  0  0  0  0  0  0  0  0  0  0
  -30.3250  -16.9330   19.4940 C   0  0  0  0  0  3  0  0  0  0  0  0
  -29.9430  -15.8760   20.1660 N   0  0  0  0  0  0  0  0  0  0  0  0
  -30.6990  -14.6840   19.9690 C   0  0  0  0  0  0  0  0  0  0  0  0
  -30.3440  -12.4410   18.9820 C   0  0  0  0  0  2  0  0  0  0  0  0
  -29.3710  -12.6190   17.7980 C   0  0  0  0  0  2  0  0  0  0  0  0
  -27.9200  -12.4710   18.2920 C   0  0  0  0  0  2  0  0  0  0  0  0
  -27.6180  -13.3390   19.5430 C   0  0  0  0  0  3  0  0  0  0  0  0
  -28.7260  -13.2120   20.6070 C   0  0  0  0  0  2  0  0  0  0  0  0
  -30.0170  -13.4920   19.9680 N   0  0  0  0  0  0  0  0  0  0  0  0
  -31.8790  -14.6850   19.6170 O   0  0  0  0  0  0  0  0  0  0  0  0
  -25.2600  -13.9120   20.3820 C   0  0  0  0  0  0  0  0  0  0  0  0
  -24.2130  -13.1280   20.7920 C   0  0  0  0  0  0  0  0  0  0  0  0
  -24.6800  -11.7810   20.7360 C   0  0  0  0  0  0  0  0  0  0  0  0
  -26.2980  -13.0390   20.0940 N   0  0  0  0  0  0  0  0  0  0  0  0
  -25.9560  -11.7520   20.3700 N   0  0  0  0  0  0  0  0  0  0  0  0
  -23.9670  -10.5140   20.9510 C   0  0  0  0  0  0  0  0  0  0  0  0
  -24.4260   -9.5540   21.8780 C   0  0  0  0  0  3  0  0  0  0  0  0
  -23.7090   -8.3550   22.0800 C   0  0  0  0  0  3  0  0  0  0  0  0
  -22.5200   -8.1070   21.3540 C   0  0  0  0  0  0  0  0  0  0  0  0
  -22.0800   -9.0580   20.4150 C   0  0  0  0  0  3  0  0  0  0  0  0
  -22.7990  -10.2470   20.2120 C   0  0  0  0  0  3  0  0  0  0  0  0
  -21.7710   -6.9590   21.4660 O   0  0  0  0  0  0  0  0  0  0  0  0
  -21.7370   -6.2340   22.6290 C   0  0  0  0  0  0  0  0  0  0  0  0
  -21.3020   -6.8000   23.8490 C   0  0  0  0  0  3  0  0  0  0  0  0
  -21.2170   -6.0000   25.0050 C   0  0  0  0  0  3  0  0  0  0  0  0
  -21.5530   -4.6340   24.9470 C   0  0  0  0  0  0  0  0  0  0  0  0
  -21.9850   -4.0690   23.7340 C   0  0  0  0  0  3  0  0  0  0  0  0
  -22.0740   -4.8650   22.5800 C   0  0  0  0  0  0  0  0  0  0  0  0
  -22.4680   -4.3100   21.4080 F   0  0  0  0  0  0  0  0  0  0  0  0
  -21.4670   -3.8650   26.0570 F   0  0  0  0  0  0  0  0  0  0  0  0
  -22.8280  -13.6010   21.1280 C   0  0  0  0  0  0  0  0  0  0  0  0
  -22.1410  -12.8960   22.0210 N   0  0  0  0  0  0  0  0  0  0  0  0
  -22.3630  -14.6260   20.6310 O   0  0  0  0  0  0  0  0  0  0  0  0
  -22.5260  -12.0660   22.4460 H   0  0  0  0  0  0  0  0  0  0  0  0
  -21.2140  -13.1950   22.2900 H   0  0  0  0  0  0  0  0  0  0  0  0
  -25.4080  -15.2840   20.2120 N   0  0  0  0  0  0  0  0  0  0  0  0
  -24.6490  -15.9400   20.3740 H   0  0  0  0  0  0  0  0  0  0  0  0
  -26.2570  -15.7320   19.8890 H   0  0  0  0  0  0  0  0  0  0  0  0
  -31.1950  -19.9110   16.2000 C   0  0  0  0  0  1  0  0  0  0  0  0
  -31.3040  -19.0440   17.4670 C   0  0  0  0  0  2  0  0  0  0  0  0
  -29.0370  -23.9510   19.9070 C   0  0  0  0  0  0  0  0  0  0  0  0
  -30.0820  -23.9430   20.5720 O   0  0  0  0  0  0  0  0  0  0  0  0
  -28.5020  -25.3340   19.3120 C   0  0  0  0  0  2  0  0  0  0  0  0
  -28.4080  -26.5280   20.2060 O   0  0  0  0  0  0  0  0  0  0  0  0
  -24.6220  -31.9280   23.2530 C   0  0  0  0  0  0  0  0  0  0  0  0
  -27.2650  -27.3560   20.1870 C   0  0  0  0  0  0  0  0  0  0  0  0
  -23.4260  -30.5300   21.6100 C   0  0  0  0  0  3  0  0  0  0  0  0
  -24.8800  -28.9730   20.2010 C   0  0  0  0  0  0  0  0  0  0  0  0
  -25.9720  -30.8370   21.4450 C   0  0  0  0  0  2  0  0  0  0  0  0
  -26.0540  -29.4610   20.7900 C   0  0  0  0  0  0  0  0  0  0  0  0
  -27.2440  -28.6690   20.7710 C   0  0  0  0  0  3  0  0  0  0  0  0
  -26.0410  -26.9090   19.6290 C   0  0  0  0  0  3  0  0  0  0  0  0
  -24.8790  -27.6990   19.6230 C   0  0  0  0  0  3  0  0  0  0  0  0
  -23.6390  -29.8440   20.2380 C   0  0  0  0  0  2  0  0  0  0  0  0
  -24.6930  -31.1150   22.1580 N   0  0  0  0  0  0  0  0  0  0  0  0
  -23.5340  -32.2100   23.7750 O   0  0  0  0  0  0  0  0  0  0  0  0
  -22.7550  -29.5180   22.5640 C   0  0  0  0  0  0  0  0  0  0  0  0
  -21.4300  -29.3510   22.4220 N   0  0  0  0  0  0  0  0  0  0  0  0
  -23.4200  -28.8840   23.3870 O   0  0  0  0  0  0  0  0  0  0  0  0
  -20.9590  -29.8910   21.7080 H   0  0  0  0  0  0  0  0  0  0  0  0
  -18.0410  -28.2070   22.9250 C   0  0  0  0  0  0  0  0  0  0  0  0
  -20.6000  -28.4240   23.1880 C   0  0  0  0  0  3  0  0  0  0  0  0
  -20.6830  -26.9990   22.5950 C   0  0  0  0  0  2  0  0  0  0  0  0
  -19.5740  -26.7050   21.5820 C   0  0  0  0  0  2  0  0  0  0  0  0
  -18.1970  -26.8630   22.2340 C   0  0  0  0  0  2  0  0  0  0  0  0
  -19.1710  -28.9480   23.3580 C   0  0  0  0  0  0  0  0  0  0  0  0
  -18.9780  -30.2070   23.9660 C   0  0  0  0  0  3  0  0  0  0  0  0
  -17.6810  -30.7260   24.1460 C   0  0  0  0  0  3  0  0  0  0  0  0
  -16.5630  -29.9830   23.7300 C   0  0  0  0  0  3  0  0  0  0  0  0
  -16.7440  -28.7250   23.1270 C   0  0  0  0  0  3  0  0  0  0  0  0
  -25.9010  -32.5590   23.8870 C   0  0  0  0  0  3  0  0  0  0  0  0
  -25.5890  -33.9620   24.1970 N   0  0  0  0  0  0  0  0  0  0  0  0
  -25.9270  -35.0070   23.4330 C   0  0  0  0  0  0  0  0  0  0  0  0
  -26.6070  -34.8940   22.4080 O   0  0  0  0  0  0  0  0  0  0  0  0
  -24.9740  -34.1210   24.9830 H   0  0  0  0  0  0  0  0  0  0  0  0
  -24.1950  -36.7980   23.0590 C   0  0  0  0  0  1  0  0  0  0  0  0
  -25.4340  -36.3990   23.8770 C   0  0  0  0  0  3  0  0  0  0  0  0
  -27.5610  -37.2970   24.7130 C   0  0  0  0  0  1  0  0  0  0  0  0
  -26.4650  -37.4540   23.7610 N   0  0  0  0  0  0  0  0  0  0  0  0
  -26.0540  -38.3730   23.9020 H   0  0  0  0  0  0  0  0  0  0  0  0
  -26.3880  -31.8010   25.1860 C   0  0  1  0  0  0  0  0  0  0  0  0
  -25.2710  -31.5860   26.2320 C   0  0  0  0  0  1  0  0  0  0  0  0
  -26.9690  -30.4130   24.8300 C   0  0  0  0  0  1  0  0  0  0  0  0
  -27.5270  -32.5990   25.8640 C   0  0  0  0  0  1  0  0  0  0  0  0
  1  7  1  0
  1 50  1  0
  2  3  1  0
  3  1  2  0
  5  4  1  0
  6  7  1  0
  7  4  2  0
  8  5  2  0
  9  6  2  0
  9  8  1  0
 10  8  1  0
 10 11  2  0
 12 11  1  0
 13 18  1  0
 14 15  1  0
 14 13  1  0
 16 15  1  0
 16 23  1  0
 16 17  1  0
 18 12  1  0
 18 17  1  0
 19 12  2  0
 20 21  2  0
 21 40  1  0
 22 21  1  0
 22 25  1  0
 23 24  1  0
 23 20  1  0
 24 22  2  0
 25 26  1  0
 26 27  2  0
 28 31  1  0
 28 27  1  0
 29 28  2  0
 30 29  1  0
 30 25  2  0
 31 32  1  0
 32 33  1  0
 33 34  2  0
 35 34  1  0
 35 39  1  0
 36 35  2  0
 37 32  2  0
 37 36  1  0
 38 37  1  0
 40 41  1  0
 41 44  1  0
 41 43  1  0
 42 40  2  0
 45 46  1  0
 45 20  1  0
 47 45  1  0
 48 49  1  0
 49  9  1  0
 50 51  2  0
 52 50  1  0
 52 53  1  0
 54 65  2  0
 55 53  1  0
 55 60  1  0
 56 64  1  0
 56 66  1  0
 57 63  1  0
 57 59  1  0
 58 64  1  0
 59 58  1  0
 60 59  2  0
 61 55  2  0
 62 61  1  0
 62 57  2  0
 63 56  1  0
 64 54  1  0
 66 68  2  0
 67 66  1  0
 69 67  1  0
 70 79  2  0
 70 75  1  0
 71 67  1  0
 71 75  1  0
 72 71  1  0
 73 74  1  0
 73 72  1  0
 74 70  1  0
 75 76  2  0
 76 77  1  0
 78 77  2  0
 79 78  1  0
 80 54  1  0
 80 81  1  0
 80 90  1  0
 81 84  1  0
 82 86  1  0
 82 81  1  0
 83 82  2  0
 86 85  1  0
 88 86  1  0
 88 89  1  0
 88 87  1  0
 90 93  1  1
 90 91  1  0
 92 90  1  0
M  ISO  4  11 100  12 100  52 101  53 101
M  END
>  <TORSDO>  (38) 
F 21

>  <SCORE>  (38) 
-13.408

>  <name>  (38) 
37

>  <ligand_id>  (38) 
37

>  <original_smiles>  (38) 
[H]C(=NC(=O)N1C([H])([H])C([H])([H])C([H])([H])C([H])(n2nc(-c3c([H])c([H])c(Oc4c([H])c([H])c(F)c([H])c4F)c([H])c3[H])c(C(=O)N([H])[H])c2N([H])[H])C1([H])[H])c1c([H])c([H])c(C(=NC([H])([H])[H])C(=O)C([H])([H])Oc2c([H])c([H])c3c(c2[H])C([H])([H])N(C(=O)C([H])(N([H])C(=O)C([H])(N([H])C([H])([H])[H])C([H])([H])[H])C(C([H])([H])[H])(C([H])([H])[H])C([H])([H])[H])C([H])(C(=O)N([H])C2([H])c4c([H])c([H])c([H])c([H])c4C([H])([H])C([H])([H])C2([H])[H])C3([H])[H])c([H])c1C([H])([H])C([H])([H])[H]

>  <smiles>  (38) 
[H]C(=NC(=O)N1C([H])([H])C([H])([H])C([H])([H])C([H])(n2nc(-c3c([H])c([H])c(Oc4c([H])c([H])c(F)c([H])c4F)c([H])c3[H])c(C(=O)N([H])[H])c2N([H])[H])C1([H])[H])c1c([H])c([H])c(C(=NC([H])([H])[H])C(=O)C([H])([H])Oc2c([H])c([H])c3c(c2[H])C([H])([H])N(C(=O)C([H])(N([H])C(=O)C([H])(N([H])C([H])([H])[H])C([H])([H])[H])C(C([H])([H])[H])(C([H])([H])[H])C([H])([H])[H])C([H])(C(=O)N([H])C2([H])c4c([H])c([H])c([H])c([H])c4C([H])([H])C([H])([H])C2([H])[H])C3([H])[H])c([H])c1C([H])([H])C([H])([H])[H]

$$$$
38:0:0
     RDKit          3D

 95103  0  0  1  0  0  0  0  0999 V2000
  -30.1700  -22.2590   18.8340 C   0  0  0  0  0  0  0  0  0  0  0  0
  -31.1440  -21.5060   19.3630 N   0  0  0  0  0  0  0  0  0  0  0  0
  -29.3390  -21.8200   18.0340 O   0  0  0  0  0  0  0  0  0  0  0  0
  -31.7730  -21.9620   20.0100 H   0  0  0  0  0  0  0  0  0  0  0  0
  -31.3930  -20.0820   19.1090 C   0  0  0  0  0  2  0  0  0  0  0  0
  -30.3430  -17.1470   22.1530 C   0  0  0  0  0  3  0  0  0  0  0  0
  -30.0650  -18.5020   22.3890 C   0  0  0  0  0  3  0  0  0  0  0  0
  -31.0360  -19.0900   20.2220 C   0  0  0  0  0  0  0  0  0  0  0  0
  -30.9800  -16.7350   20.9650 C   0  0  0  0  0  0  0  0  0  0  0  0
  -30.4140  -19.4760   21.4350 C   0  0  0  0  0  0  0  0  0  0  0  0
  -31.3150  -17.7200   19.9940 C   0  0  0  0  0  0  0  0  0  0  0  0
  -30.1290  -20.7710   21.7090 F   0  0  0  0  0  0  0  0  0  0  0  0
  -31.9080  -17.3820   18.8250 F   0  0  0  0  0  0  0  0  0  0  0  0
  -31.5770  -14.5910   19.8060 C   0  0  0  0  0  0  0  0  0  0  0  0
  -30.9880  -12.6110   18.4510 C   0  0  0  0  0  2  0  0  0  0  0  0
  -29.8940  -12.9630   17.4220 C   0  0  0  0  0  2  0  0  0  0  0  0
  -28.4880  -12.8610   18.0410 C   0  0  0  0  0  2  0  0  0  0  0  0
  -28.3760  -13.6060   19.3960 C   0  0  0  0  0  3  0  0  0  0  0  0
  -29.5410  -13.1950   20.3230 C   0  0  0  0  0  2  0  0  0  0  0  0
  -30.8140  -13.4770   19.6280 N   0  0  0  0  0  0  0  0  0  0  0  0
  -32.5580  -14.8500   19.1060 O   0  0  0  0  0  0  0  0  0  0  0  0
  -31.2100  -15.3300   20.8620 N   0  0  0  0  0  0  0  0  0  0  0  0
  -30.6470  -14.7890   21.5000 H   0  0  0  0  0  0  0  0  0  0  0  0
  -26.1530  -14.2850   20.5090 C   0  0  0  0  0  0  0  0  0  0  0  0
  -25.0790  -13.5480   20.9310 C   0  0  0  0  0  0  0  0  0  0  0  0
  -25.4070  -12.1840   20.6620 C   0  0  0  0  0  0  0  0  0  0  0  0
  -27.0770  -13.3720   20.0250 N   0  0  0  0  0  0  0  0  0  0  0  0
  -26.6350  -12.0960   20.1700 N   0  0  0  0  0  0  0  0  0  0  0  0
  -24.6020  -10.9610   20.7920 C   0  0  0  0  0  0  0  0  0  0  0  0
  -24.9820   -9.9140   21.6610 C   0  0  0  0  0  3  0  0  0  0  0  0
  -24.1820   -8.7560   21.7790 C   0  0  0  0  0  3  0  0  0  0  0  0
  -22.9890   -8.6380   21.0270 C   0  0  0  0  0  0  0  0  0  0  0  0
  -22.6250   -9.6750   20.1490 C   0  0  0  0  0  3  0  0  0  0  0  0
  -23.4240  -10.8250   20.0290 C   0  0  0  0  0  3  0  0  0  0  0  0
  -22.1620   -7.5420   21.0640 O   0  0  0  0  0  0  0  0  0  0  0  0
  -21.9780   -6.8180   22.2150 C   0  0  0  0  0  0  0  0  0  0  0  0
  -21.4830   -7.4110   23.3980 C   0  0  0  0  0  3  0  0  0  0  0  0
  -21.2400   -6.6140   24.5350 C   0  0  0  0  0  3  0  0  0  0  0  0
  -21.4800   -5.2280   24.4890 C   0  0  0  0  0  0  0  0  0  0  0  0
  -21.9670   -4.6350   23.3110 C   0  0  0  0  0  3  0  0  0  0  0  0
  -22.2110   -5.4280   22.1760 C   0  0  0  0  0  0  0  0  0  0  0  0
  -22.6610   -4.8490   21.0370 F   0  0  0  0  0  0  0  0  0  0  0  0
  -21.2380   -4.4620   25.5790 F   0  0  0  0  0  0  0  0  0  0  0  0
  -23.7780  -14.0790   21.4620 C   0  0  0  0  0  0  0  0  0  0  0  0
  -23.1300  -13.3420   22.3580 N   0  0  0  0  0  0  0  0  0  0  0  0
  -23.3500  -15.1810   21.1190 O   0  0  0  0  0  0  0  0  0  0  0  0
  -23.4840  -12.4460   22.6570 H   0  0  0  0  0  0  0  0  0  0  0  0
  -22.2680  -13.6860   22.7560 H   0  0  0  0  0  0  0  0  0  0  0  0
  -26.4130  -15.6530   20.4750 N   0  0  0  0  0  0  0  0  0  0  0  0
  -25.7200  -16.3440   20.7420 H   0  0  0  0  0  0  0  0  0  0  0  0
  -27.2240  -16.0650   20.0330 H   0  0  0  0  0  0  0  0  0  0  0  0
  -30.1210  -23.7300   19.2670 C   0  0  0  0  0  2  0  0  0  0  0  0
  -28.6900  -24.2080   19.6000 C   0  0  0  0  0  2  0  0  0  0  0  0
  -28.6380  -25.4230   20.5480 C   0  0  0  0  0  2  0  0  0  0  0  0
  -28.6850  -26.6820   19.8680 O   0  0  0  0  0  0  0  0  0  0  0  0
  -24.5750  -31.5940   22.9490 C   0  0  0  0  0  0  0  0  0  0  0  0
  -27.4900  -27.3620   19.8410 C   0  0  0  0  0  0  0  0  0  0  0  0
  -23.4710  -30.1760   21.2490 C   0  0  0  0  0  3  0  0  0  0  0  0
  -25.0250  -28.7400   19.8280 C   0  0  0  0  0  0  0  0  0  0  0  0
  -25.9780  -30.6660   21.1100 C   0  0  0  0  0  2  0  0  0  0  0  0
  -26.1450  -29.3160   20.4400 C   0  0  0  0  0  0  0  0  0  0  0  0
  -27.3860  -28.6400   20.4330 C   0  0  0  0  0  3  0  0  0  0  0  0
  -26.3510  -26.7880   19.2350 C   0  0  0  0  0  3  0  0  0  0  0  0
  -25.1220  -27.4750   19.2210 C   0  0  0  0  0  3  0  0  0  0  0  0
  -23.7400  -29.5360   19.8620 C   0  0  0  0  0  2  0  0  0  0  0  0
  -24.6910  -30.8240   21.8300 N   0  0  0  0  0  0  0  0  0  0  0  0
  -23.4700  -31.8040   23.4690 O   0  0  0  0  0  0  0  0  0  0  0  0
  -22.8460  -29.1050   22.1720 C   0  0  0  0  0  0  0  0  0  0  0  0
  -21.5240  -28.9030   22.0440 N   0  0  0  0  0  0  0  0  0  0  0  0
  -23.5450  -28.4610   22.9580 O   0  0  0  0  0  0  0  0  0  0  0  0
  -21.0200  -29.4770   21.3840 H   0  0  0  0  0  0  0  0  0  0  0  0
  -18.1630  -27.6800   22.5590 C   0  0  0  0  0  0  0  0  0  0  0  0
  -20.7260  -27.9210   22.7800 C   0  0  0  0  0  3  0  0  0  0  0  0
  -20.8120  -26.5260   22.1200 C   0  0  0  0  0  2  0  0  0  0  0  0
  -19.6840  -26.2630   21.1160 C   0  0  0  0  0  2  0  0  0  0  0  0
  -18.3200  -26.3720   21.8030 C   0  0  0  0  0  2  0  0  0  0  0  0
  -19.2930  -28.4170   23.0020 C   0  0  0  0  0  0  0  0  0  0  0  0
  -19.0900  -29.6460   23.6660 C   0  0  0  0  0  3  0  0  0  0  0  0
  -17.7910  -30.1370   23.8920 C   0  0  0  0  0  3  0  0  0  0  0  0
  -16.6760  -29.3950   23.4650 C   0  0  0  0  0  3  0  0  0  0  0  0
  -16.8630  -28.1680   22.8050 C   0  0  0  0  0  3  0  0  0  0  0  0
  -25.8170  -32.2670   23.6130 C   0  0  0  0  0  3  0  0  0  0  0  0
  -25.4180  -33.6160   24.0340 N   0  0  0  0  0  0  0  0  0  0  0  0
  -25.6730  -34.7340   23.3410 C   0  0  0  0  0  0  0  0  0  0  0  0
  -26.3430  -34.7430   22.3030 O   0  0  0  0  0  0  0  0  0  0  0  0
  -24.8210  -33.6780   24.8470 H   0  0  0  0  0  0  0  0  0  0  0  0
  -23.8290  -36.4260   23.0950 C   0  0  0  0  0  1  0  0  0  0  0  0
  -25.0950  -36.0550   23.8850 C   0  0  0  0  0  3  0  0  0  0  0  0
  -27.1620  -37.0260   24.7860 C   0  0  0  0  0  1  0  0  0  0  0  0
  -26.0560  -37.1790   23.8440 N   0  0  0  0  0  0  0  0  0  0  0  0
  -25.5890  -38.0590   24.0450 H   0  0  0  0  0  0  0  0  0  0  0  0
  -26.3930  -31.4470   24.8320 C   0  0  1  0  0  0  0  0  0  0  0  0
  -25.3230  -31.0550   25.8800 C   0  0  0  0  0  1  0  0  0  0  0  0
  -27.0730  -30.1480   24.3400 C   0  0  0  0  0  1  0  0  0  0  0  0
  -27.4870  -32.2720   25.5480 C   0  0  0  0  0  1  0  0  0  0  0  0
  1 52  1  0
  1  2  1  0
  2  4  1  0
  3  1  2  0
  5  2  1  0
  5  8  1  0
  6  7  1  0
  8 10  1  0
  9  6  2  0
 10 12  1  0
 10  7  2  0
 11  8  2  0
 11  9  1  0
 13 11  1  0
 14 22  1  0
 15 20  1  0
 16 17  1  0
 16 15  1  0
 18 17  1  0
 18 27  1  0
 18 19  1  0
 20 14  1  0
 20 19  1  0
 21 14  2  0
 22  9  1  0
 22 23  1  0
 24 25  2  0
 25 44  1  0
 26 29  1  0
 26 25  1  0
 27 28  1  0
 27 24  1  0
 28 26  2  0
 29 30  1  0
 30 31  2  0
 32 35  1  0
 32 31  1  0
 33 32  2  0
 34 33  1  0
 34 29  2  0
 35 36  1  0
 36 37  1  0
 37 38  2  0
 39 38  1  0
 39 43  1  0
 40 39  2  0
 41 36  2  0
 41 40  1  0
 42 41  1  0
 44 45  1  0
 45 47  1  0
 45 48  1  0
 46 44  2  0
 49 24  1  0
 49 50  1  0
 51 49  1  0
 52 53  1  0
 53 54  1  0
 55 54  1  0
 56 67  2  0
 57 55  1  0
 57 62  1  0
 58 66  1  0
 58 68  1  0
 59 65  1  0
 59 61  1  0
 60 66  1  0
 61 60  1  0
 62 61  2  0
 63 57  2  0
 64 63  1  0
 64 59  2  0
 65 58  1  0
 66 56  1  0
 68 70  2  0
 69 68  1  0
 71 69  1  0
 72 81  2  0
 72 77  1  0
 73 69  1  0
 73 77  1  0
 74 73  1  0
 75 76  1  0
 75 74  1  0
 76 72  1  0
 77 78  2  0
 78 79  1  0
 80 79  2  0
 81 80  1  0
 82 56  1  0
 82 83  1  0
 82 92  1  0
 83 86  1  0
 84 88  1  0
 84 83  1  0
 85 84  2  0
 88 87  1  0
 90 88  1  0
 90 91  1  0
 90 89  1  0
 92 95  1  1
 92 93  1  0
 94 92  1  0
M  ISO  4  14 100  22 100  54 101  55 101
M  END
>  <TORSDO>  (39) 
F 21

>  <SCORE>  (39) 
-10.432

>  <name>  (39) 
38

>  <ligand_id>  (39) 
38

>  <original_smiles>  (39) 
[H]c1c([H])c([H])c2c(c1[H])C([H])([H])C([H])([H])C([H])([H])C2([H])N([H])C(=O)C1([H])N(C(=O)C([H])(N([H])C(=O)C([H])(N([H])C([H])([H])[H])C([H])([H])[H])C(C([H])([H])[H])(C([H])([H])[H])C([H])([H])[H])C([H])([H])c2c([H])c(OC([H])([H])C([H])([H])C([H])([H])C(=O)N([H])C([H])([H])c3c(F)c([H])c([H])c(N([H])C(=O)N4C([H])([H])C([H])([H])C([H])([H])C([H])(n5nc(-c6c([H])c([H])c(Oc7c([H])c([H])c(F)c([H])c7F)c([H])c6[H])c(C(=O)N([H])[H])c5N([H])[H])C4([H])[H])c3F)c([H])c([H])c2C1([H])[H]

>  <smiles>  (39) 
[H]c1c([H])c([H])c2c(c1[H])C([H])([H])C([H])([H])C([H])([H])C2([H])N([H])C(=O)C1([H])N(C(=O)C([H])(N([H])C(=O)C([H])(N([H])C([H])([H])[H])C([H])([H])[H])C(C([H])([H])[H])(C([H])([H])[H])C([H])([H])[H])C([H])([H])c2c([H])c(OC([H])([H])C([H])([H])C([H])([H])C(=O)N([H])C([H])([H])c3c(F)c([H])c([H])c(N([H])C(=O)N4C([H])([H])C([H])([H])C([H])([H])C([H])(n5nc(-c6c([H])c([H])c(Oc7c([H])c([H])c(F)c([H])c7F)c([H])c6[H])c(C(=O)N([H])[H])c5N([H])[H])C4([H])[H])c3F)c([H])c([H])c2C1([H])[H]

$$$$
39:0:0
     RDKit          3D

 96105  0  0  1  0  0  0  0  0999 V2000
  -29.8840  -19.3570   19.6340 C   0  0  0  0  0  3  0  0  0  0  0  0
  -30.7310  -19.5160   21.8990 C   0  0  0  0  0  0  0  0  0  0  0  0
  -30.7970  -18.0780   21.9630 C   0  0  0  0  0  0  0  0  0  0  0  0
  -30.2910  -20.1860   20.7140 C   0  0  0  0  0  0  0  0  0  0  0  0
  -30.3900  -17.2580   20.8720 C   0  0  0  0  0  0  0  0  0  0  0  0
  -29.9270  -17.9310   19.7090 C   0  0  0  0  0  0  0  0  0  0  0  0
  -31.3130  -17.3890   23.2260 C   0  0  0  0  0  1  0  0  0  0  0  0
  -29.4770  -17.2010   18.6590 F   0  0  0  0  0  0  0  0  0  0  0  0
  -31.0630  -14.7590   20.6970 C   0  0  0  0  0  0  0  0  0  0  0  0
  -30.9390  -12.4270   19.8260 C   0  0  0  0  0  2  0  0  0  0  0  0
  -30.0920  -12.4360   18.5340 C   0  0  0  0  0  2  0  0  0  0  0  0
  -28.5880  -12.3180   18.8560 C   0  0  0  0  0  2  0  0  0  0  0  0
  -28.1400  -13.2960   19.9740 C   0  0  0  0  0  3  0  0  0  0  0  0
  -29.1020  -13.2330   21.1810 C   0  0  0  0  0  2  0  0  0  0  0  0
  -30.4580  -13.5280   20.6870 N   0  0  0  0  0  0  0  0  0  0  0  0
  -32.2340  -14.9050   20.3310 O   0  0  0  0  0  0  0  0  0  0  0  0
  -30.2600  -15.8100   21.0440 N   0  0  0  0  0  0  0  0  0  0  0  0
  -29.3760  -15.5190   21.4310 H   0  0  0  0  0  0  0  0  0  0  0  0
  -25.7210  -13.9870   20.5040 C   0  0  0  0  0  0  0  0  0  0  0  0
  -24.6070  -13.2550   20.8200 C   0  0  0  0  0  0  0  0  0  0  0  0
  -25.0280  -11.8920   20.8560 C   0  0  0  0  0  0  0  0  0  0  0  0
  -26.7520  -13.0700   20.3680 N   0  0  0  0  0  0  0  0  0  0  0  0
  -26.3350  -11.8060   20.6380 N   0  0  0  0  0  0  0  0  0  0  0  0
  -24.2520  -10.6560   21.0290 C   0  0  0  0  0  0  0  0  0  0  0  0
  -24.5840   -9.7080   22.0210 C   0  0  0  0  0  3  0  0  0  0  0  0
  -23.8100   -8.5370   22.1800 C   0  0  0  0  0  3  0  0  0  0  0  0
  -22.6910   -8.3070   21.3430 C   0  0  0  0  0  0  0  0  0  0  0  0
  -22.3800   -9.2440   20.3420 C   0  0  0  0  0  3  0  0  0  0  0  0
  -23.1540  -10.4050   20.1820 C   0  0  0  0  0  3  0  0  0  0  0  0
  -21.8990   -7.1870   21.4080 O   0  0  0  0  0  0  0  0  0  0  0  0
  -21.7180   -6.5000   22.5810 C   0  0  0  0  0  0  0  0  0  0  0  0
  -21.2050   -7.1240   23.7390 C   0  0  0  0  0  3  0  0  0  0  0  0
  -20.9690   -6.3650   24.9020 C   0  0  0  0  0  3  0  0  0  0  0  0
  -21.2350   -4.9820   24.9080 C   0  0  0  0  0  0  0  0  0  0  0  0
  -21.7420   -4.3570   23.7540 C   0  0  0  0  0  3  0  0  0  0  0  0
  -21.9790   -5.1140   22.5930 C   0  0  0  0  0  0  0  0  0  0  0  0
  -22.4460   -4.5040   21.4780 F   0  0  0  0  0  0  0  0  0  0  0  0
  -21.0020   -4.2510   26.0230 F   0  0  0  0  0  0  0  0  0  0  0  0
  -23.2110  -13.7810   20.9840 C   0  0  0  0  0  0  0  0  0  0  0  0
  -22.4080  -13.1390   21.8250 N   0  0  0  0  0  0  0  0  0  0  0  0
  -22.8380  -14.7980   20.4000 O   0  0  0  0  0  0  0  0  0  0  0  0
  -22.7200  -12.3160   22.3190 H   0  0  0  0  0  0  0  0  0  0  0  0
  -21.4680  -13.4750   21.9770 H   0  0  0  0  0  0  0  0  0  0  0  0
  -25.9380  -15.3470   20.3040 N   0  0  0  0  0  0  0  0  0  0  0  0
  -25.1840  -16.0230   20.3390 H   0  0  0  0  0  0  0  0  0  0  0  0
  -26.8190  -15.7520   20.0100 H   0  0  0  0  0  0  0  0  0  0  0  0
  -30.4620  -20.1670   24.4530 C   0  0  0  0  0  2  0  0  0  0  0  0
  -30.2710  -21.4410   23.6780 C   0  0  0  0  0  2  0  0  0  0  0  0
  -31.1420  -20.3350   23.1070 C   0  0  0  0  0  3  0  0  0  0  0  0
  -30.3470  -21.6230   20.6450 N   0  0  0  0  0  0  0  0  0  0  0  0
  -30.7300  -22.0700   21.4730 H   0  0  0  0  0  0  0  0  0  0  0  0
  -29.4400  -22.5540   19.9020 C   0  0  0  0  0  2  0  0  0  0  0  0
  -29.5410  -24.0910   20.2960 C   0  0  0  0  0  0  0  0  0  0  0  0
  -30.4450  -24.4660   21.0520 O   0  0  0  0  0  0  0  0  0  0  0  0
  -28.4720  -25.1220   19.7570 C   0  0  0  0  0  2  0  0  0  0  0  0
  -28.6230  -26.5480   20.1530 O   0  0  0  0  0  0  0  0  0  0  0  0
  -24.6650  -31.7460   23.2230 C   0  0  0  0  0  0  0  0  0  0  0  0
  -27.4840  -27.3700   20.0850 C   0  0  0  0  0  0  0  0  0  0  0  0
  -23.5420  -30.3690   21.5090 C   0  0  0  0  0  3  0  0  0  0  0  0
  -25.0710  -28.9130   20.0690 C   0  0  0  0  0  0  0  0  0  0  0  0
  -26.0750  -30.7650   21.4010 C   0  0  0  0  0  2  0  0  0  0  0  0
  -26.2100  -29.4130   20.7130 C   0  0  0  0  0  0  0  0  0  0  0  0
  -27.4180  -28.6520   20.7150 C   0  0  0  0  0  3  0  0  0  0  0  0
  -26.3200  -26.9320   19.4070 C   0  0  0  0  0  3  0  0  0  0  0  0
  -25.1290  -27.6780   19.4080 C   0  0  0  0  0  3  0  0  0  0  0  0
  -23.8080  -29.7470   20.1140 C   0  0  0  0  0  2  0  0  0  0  0  0
  -24.7780  -30.9770   22.1020 N   0  0  0  0  0  0  0  0  0  0  0  0
  -23.5610  -31.9750   23.7380 O   0  0  0  0  0  0  0  0  0  0  0  0
  -22.8880  -29.3020   22.4200 C   0  0  0  0  0  0  0  0  0  0  0  0
  -21.5690  -29.0960   22.2590 N   0  0  0  0  0  0  0  0  0  0  0  0
  -23.5650  -28.6650   23.2300 O   0  0  0  0  0  0  0  0  0  0  0  0
  -21.0810  -29.6640   21.5810 H   0  0  0  0  0  0  0  0  0  0  0  0
  -18.2130  -27.8060   22.6500 C   0  0  0  0  0  0  0  0  0  0  0  0
  -20.7590  -28.1130   22.9800 C   0  0  0  0  0  3  0  0  0  0  0  0
  -20.9060  -26.7060   22.3570 C   0  0  0  0  0  2  0  0  0  0  0  0
  -19.8310  -26.3940   21.3100 C   0  0  0  0  0  2  0  0  0  0  0  0
  -18.4340  -26.4860   21.9320 C   0  0  0  0  0  2  0  0  0  0  0  0
  -19.3040  -28.5780   23.1280 C   0  0  0  0  0  0  0  0  0  0  0  0
  -19.0440  -29.8140   23.7590 C   0  0  0  0  0  3  0  0  0  0  0  0
  -17.7250  -30.2780   23.9170 C   0  0  0  0  0  3  0  0  0  0  0  0
  -16.6470  -29.5030   23.4540 C   0  0  0  0  0  3  0  0  0  0  0  0
  -16.8910  -28.2690   22.8260 C   0  0  0  0  0  3  0  0  0  0  0  0
  -25.9130  -32.3950   23.8960 C   0  0  0  0  0  3  0  0  0  0  0  0
  -25.5610  -33.7790   24.2440 N   0  0  0  0  0  0  0  0  0  0  0  0
  -25.8800  -34.8530   23.5110 C   0  0  0  0  0  0  0  0  0  0  0  0
  -26.5700  -34.7860   22.4900 O   0  0  0  0  0  0  0  0  0  0  0  0
  -24.9470  -33.9030   25.0350 H   0  0  0  0  0  0  0  0  0  0  0  0
  -24.1050  -36.6030   23.1650 C   0  0  0  0  0  1  0  0  0  0  0  0
  -25.3490  -36.2200   23.9840 C   0  0  0  0  0  3  0  0  0  0  0  0
  -27.4510  -37.1490   24.8500 C   0  0  0  0  0  1  0  0  0  0  0  0
  -26.3520  -37.3040   23.9000 N   0  0  0  0  0  0  0  0  0  0  0  0
  -25.9190  -38.2090   24.0610 H   0  0  0  0  0  0  0  0  0  0  0  0
  -26.4070  -31.6100   25.1730 C   0  0  1  0  0  0  0  0  0  0  0  0
  -25.2880  -31.3290   26.2020 C   0  0  0  0  0  1  0  0  0  0  0  0
  -27.0320  -30.2530   24.7730 C   0  0  0  0  0  1  0  0  0  0  0  0
  -27.5210  -32.4150   25.8840 C   0  0  0  0  0  1  0  0  0  0  0  0
  1  6  2  0
  1  4  1  0
  2  3  1  0
  2 49  1  0
  3  7  1  0
  4  2  2  0
  5 17  1  0
  5  3  2  0
  6  5  1  0
  8  6  1  0
  9 17  1  0
 10 15  1  0
 11 12  1  0
 11 10  1  0
 13 12  1  0
 13 22  1  0
 13 14  1  0
 15  9  1  0
 15 14  1  0
 16  9  2  0
 17 18  1  0
 19 20  2  0
 20 21  1  0
 20 39  1  0
 21 24  1  0
 22 19  1  0
 22 23  1  0
 23 21  2  0
 24 25  1  0
 25 26  2  0
 27 30  1  0
 27 26  1  0
 28 27  2  0
 29 28  1  0
 29 24  2  0
 30 31  1  0
 31 36  2  0
 31 32  1  0
 32 33  2  0
 33 34  1  0
 34 38  1  0
 35 34  2  0
 36 35  1  0
 37 36  1  0
 39 40  1  0
 40 43  1  0
 40 42  1  0
 41 39  2  0
 44 45  1  0
 44 19  1  0
 46 44  1  0
 48 47  1  0
 49 48  1  0
 49 47  1  0
 50  4  1  0
 50 51  1  0
 52 53  1  0
 52 50  1  0
 53 54  2  0
 55 56  1  0
 55 53  1  0
 57 68  2  0
 58 56  1  0
 58 63  1  0
 59 67  1  0
 59 69  1  0
 60 66  1  0
 60 62  1  0
 61 67  1  0
 62 63  2  0
 62 61  1  0
 64 65  1  0
 64 58  2  0
 65 60  2  0
 66 59  1  0
 67 57  1  0
 69 71  2  0
 70 69  1  0
 72 70  1  0
 73 82  2  0
 73 78  1  0
 74 70  1  0
 74 78  1  0
 75 74  1  0
 76 77  1  0
 76 75  1  0
 77 73  1  0
 78 79  2  0
 79 80  1  0
 81 80  2  0
 82 81  1  0
 83 57  1  0
 83 84  1  0
 83 93  1  0
 84 87  1  0
 85 89  1  0
 85 84  1  0
 86 85  2  0
 89 88  1  0
 91 89  1  0
 91 92  1  0
 91 90  1  0
 93 96  1  1
 93 94  1  0
 95 93  1  0
M  ISO  4   9 100  17 100  55 101  56 101
M  END
>  <TORSDO>  (40) 
F 21

>  <SCORE>  (40) 
-12.561

>  <name>  (40) 
39

>  <ligand_id>  (40) 
39

>  <original_smiles>  (40) 
[H]c1c([H])c([H])c2c(c1[H])C([H])([H])C([H])([H])C([H])([H])C2([H])N([H])C(=O)C1([H])N(C(=O)C([H])(N([H])C(=O)C([H])(N([H])C([H])([H])[H])C([H])([H])[H])C(C([H])([H])[H])(C([H])([H])[H])C([H])([H])[H])C([H])([H])c2c([H])c(OC([H])([H])C(=O)C([H])([H])N([H])c3c([H])c(F)c(N([H])C(=O)N4C([H])([H])C([H])([H])C([H])([H])C([H])(n5nc(-c6c([H])c([H])c(Oc7c([H])c([H])c(F)c([H])c7F)c([H])c6[H])c(C(=O)N([H])[H])c5N([H])[H])C4([H])[H])c(C([H])([H])[H])c3C3([H])C([H])([H])C3([H])[H])c([H])c([H])c2C1([H])[H]

>  <smiles>  (40) 
[H]c1c([H])c([H])c2c(c1[H])C([H])([H])C([H])([H])C([H])([H])C2([H])N([H])C(=O)C1([H])N(C(=O)C([H])(N([H])C(=O)C([H])(N([H])C([H])([H])[H])C([H])([H])[H])C(C([H])([H])[H])(C([H])([H])[H])C([H])([H])[H])C([H])([H])c2c([H])c(OC([H])([H])C(=O)C([H])([H])N([H])c3c([H])c(F)c(N([H])C(=O)N4C([H])([H])C([H])([H])C([H])([H])C([H])(n5nc(-c6c([H])c([H])c(Oc7c([H])c([H])c(F)c([H])c7F)c([H])c6[H])c(C(=O)N([H])[H])c5N([H])[H])C4([H])[H])c(C([H])([H])[H])c3C3([H])C([H])([H])C3([H])[H])c([H])c([H])c2C1([H])[H]

$$$$
40:0:0
     RDKit          3D

100108  0  0  1  0  0  0  0  0999 V2000
  -30.2810  -19.5480   19.9860 C   0  0  0  0  0  3  0  0  0  0  0  0
  -30.2680  -20.3990   22.2460 C   0  0  0  0  0  3  0  0  0  0  0  0
  -30.4290  -18.2070   20.4550 C   0  0  0  0  0  0  0  0  0  0  0  0
  -30.4950  -17.9780   21.8660 C   0  0  0  0  0  0  0  0  0  0  0  0
  -30.1900  -20.6610   20.8620 C   0  0  0  0  0  0  0  0  0  0  0  0
  -30.4130  -19.0880   22.7580 C   0  0  0  0  0  0  0  0  0  0  0  0
  -29.5120  -23.0990   20.9110 C   0  0  0  0  0  0  0  0  0  0  0  0
  -30.1110  -22.0150   20.3510 N   0  0  0  0  0  0  0  0  0  0  0  0
  -28.7610  -23.0010   21.8860 O   0  0  0  0  0  0  0  0  0  0  0  0
  -30.5840  -22.2120   19.4780 H   0  0  0  0  0  0  0  0  0  0  0  0
  -29.2020  -25.5210   20.6970 C   0  0  0  0  0  3  0  0  0  0  0  0
  -29.7970  -24.3860   20.2430 C   0  0  0  0  0  0  0  0  0  0  0  0
  -30.6360  -24.4330   19.1980 O   0  0  0  0  0  0  0  0  0  0  0  0
  -30.6790  -25.3420   18.9240 H   0  0  0  0  0  0  0  0  0  0  0  0
  -29.3670  -26.7980   20.1780 O   0  0  0  0  0  0  0  0  0  0  0  0
  -25.3710  -31.6110   23.6510 C   0  0  0  0  0  0  0  0  0  0  0  0
  -28.2320  -27.5890   20.1910 C   0  0  0  0  0  0  0  0  0  0  0  0
  -24.2700  -30.4010   21.7980 C   0  0  0  0  0  3  0  0  0  0  0  0
  -25.8180  -29.0700   20.2650 C   0  0  0  0  0  0  0  0  0  0  0  0
  -26.7970  -30.8120   21.7650 C   0  0  0  0  0  2  0  0  0  0  0  0
  -26.9410  -29.5300   20.9660 C   0  0  0  0  0  0  0  0  0  0  0  0
  -28.1550  -28.7980   20.9260 C   0  0  0  0  0  3  0  0  0  0  0  0
  -27.0950  -27.1560   19.4760 C   0  0  0  0  0  3  0  0  0  0  0  0
  -25.8910  -27.8840   19.5140 C   0  0  0  0  0  3  0  0  0  0  0  0
  -24.5560  -29.8990   20.3580 C   0  0  0  0  0  2  0  0  0  0  0  0
  -25.4950  -30.9490   22.4650 N   0  0  0  0  0  0  0  0  0  0  0  0
  -24.2610  -31.7990   24.1680 O   0  0  0  0  0  0  0  0  0  0  0  0
  -23.5940  -29.2630   22.5960 C   0  0  0  0  0  0  0  0  0  0  0  0
  -22.2890  -29.0530   22.3580 N   0  0  0  0  0  0  0  0  0  0  0  0
  -24.2450  -28.5740   23.3880 O   0  0  0  0  0  0  0  0  0  0  0  0
  -21.8250  -29.6640   21.7000 H   0  0  0  0  0  0  0  0  0  0  0  0
  -18.9540  -27.6600   22.4320 C   0  0  0  0  0  0  0  0  0  0  0  0
  -21.4600  -28.0130   22.9650 C   0  0  0  0  0  3  0  0  0  0  0  0
  -21.6920  -26.6460   22.2790 C   0  0  0  0  0  2  0  0  0  0  0  0
  -20.7050  -26.3640   21.1420 C   0  0  0  0  0  2  0  0  0  0  0  0
  -19.2650  -26.3860   21.6630 C   0  0  0  0  0  2  0  0  0  0  0  0
  -19.9860  -28.4320   23.0300 C   0  0  0  0  0  0  0  0  0  0  0  0
  -19.6470  -29.6250   23.7020 C   0  0  0  0  0  3  0  0  0  0  0  0
  -18.3070  -30.0490   23.7860 C   0  0  0  0  0  3  0  0  0  0  0  0
  -17.2880  -29.2720   23.2070 C   0  0  0  0  0  3  0  0  0  0  0  0
  -17.6120  -28.0800   22.5370 C   0  0  0  0  0  3  0  0  0  0  0  0
  -26.6140  -32.1820   24.4020 C   0  0  0  0  0  3  0  0  0  0  0  0
  -27.0650  -31.2920   25.6250 C   0  0  1  0  0  0  0  0  0  0  0  0
  -25.9160  -30.9470   26.6010 C   0  0  0  0  0  1  0  0  0  0  0  0
  -27.6790  -29.9610   25.1320 C   0  0  0  0  0  1  0  0  0  0  0  0
  -28.1730  -32.0190   26.4220 C   0  0  0  0  0  1  0  0  0  0  0  0
  -26.2780  -33.5410   24.8460 N   0  0  0  0  0  0  0  0  0  0  0  0
  -26.6750  -34.6630   24.2290 C   0  0  0  0  0  0  0  0  0  0  0  0
  -27.4300  -34.6590   23.2540 O   0  0  0  0  0  0  0  0  0  0  0  0
  -25.6190  -33.6190   25.6070 H   0  0  0  0  0  0  0  0  0  0  0  0
  -24.9810  -36.4940   23.9120 C   0  0  0  0  0  1  0  0  0  0  0  0
  -26.1480  -36.0020   24.7810 C   0  0  0  0  0  3  0  0  0  0  0  0
  -28.2050  -36.7780   25.8740 C   0  0  0  0  0  1  0  0  0  0  0  0
  -27.1850  -37.0520   24.8650 N   0  0  0  0  0  0  0  0  0  0  0  0
  -26.7680  -37.9550   25.0740 H   0  0  0  0  0  0  0  0  0  0  0  0
  -30.5110  -18.8830   24.1480 N   0  0  0  0  0  0  0  0  0  0  0  0
  -30.7970  -17.9710   24.4930 H   0  0  0  0  0  0  0  0  0  0  0  0
  -29.7770  -19.3240   26.4640 C   0  0  0  0  0  1  0  0  0  0  0  0
  -30.1900  -19.9220   25.1180 C   0  0  0  0  0  2  0  0  0  0  0  0
  -32.1070  -16.0070   22.1550 C   0  0  0  0  0  1  0  0  0  0  0  0
  -30.7050  -16.5670   22.4380 C   0  0  0  0  0  2  0  0  0  0  0  0
  -30.6530  -17.1040   19.3850 C   0  0  0  0  0  2  0  0  0  0  0  0
  -30.8680  -14.6290   19.0690 C   0  0  0  0  0  0  0  0  0  0  0  0
  -30.3570  -12.4660   17.9990 C   0  0  0  0  0  2  0  0  0  0  0  0
  -29.1860  -12.6680   17.0140 C   0  0  0  0  0  2  0  0  0  0  0  0
  -27.8360  -12.5000   17.7390 C   0  0  0  0  0  2  0  0  0  0  0  0
  -27.7570  -13.3160   19.0570 C   0  0  0  0  0  3  0  0  0  0  0  0
  -29.0260  -13.1210   19.9210 C   0  0  0  0  0  2  0  0  0  0  0  0
  -30.1920  -13.4450   19.0880 N   0  0  0  0  0  0  0  0  0  0  0  0
  -31.8960  -14.7840   18.4060 O   0  0  0  0  0  0  0  0  0  0  0  0
  -30.2540  -15.6960   19.6320 N   0  0  0  0  0  0  0  0  0  0  0  0
  -29.3880  -15.5350   20.1220 H   0  0  0  0  0  0  0  0  0  0  0  0
  -25.6460  -13.8760   20.4150 C   0  0  0  0  0  0  0  0  0  0  0  0
  -24.6390  -13.0900   20.9080 C   0  0  0  0  0  0  0  0  0  0  0  0
  -24.9770  -11.7470   20.5560 C   0  0  0  0  0  0  0  0  0  0  0  0
  -26.5390  -13.0100   19.8030 N   0  0  0  0  0  0  0  0  0  0  0  0
  -26.1540  -11.7150   19.9430 N   0  0  0  0  0  0  0  0  0  0  0  0
  -24.2210  -10.4980   20.7180 C   0  0  0  0  0  0  0  0  0  0  0  0
  -24.7540   -9.4000   21.4280 C   0  0  0  0  0  3  0  0  0  0  0  0
  -24.0000   -8.2170   21.5880 C   0  0  0  0  0  3  0  0  0  0  0  0
  -22.6990   -8.1240   21.0370 C   0  0  0  0  0  0  0  0  0  0  0  0
  -22.1830   -9.2130   20.3120 C   0  0  0  0  0  3  0  0  0  0  0  0
  -22.9370  -10.3870   20.1500 C   0  0  0  0  0  3  0  0  0  0  0  0
  -21.9050   -7.0070   21.1190 O   0  0  0  0  0  0  0  0  0  0  0  0
  -21.9670   -6.1560   22.1930 C   0  0  0  0  0  0  0  0  0  0  0  0
  -21.7240   -6.6010   23.5110 C   0  0  0  0  0  3  0  0  0  0  0  0
  -21.7310   -5.6800   24.5770 C   0  0  0  0  0  3  0  0  0  0  0  0
  -21.9700   -4.3150   24.3280 C   0  0  0  0  0  0  0  0  0  0  0  0
  -22.2070   -3.8690   23.0160 C   0  0  0  0  0  3  0  0  0  0  0  0
  -22.2020   -4.7870   21.9520 C   0  0  0  0  0  0  0  0  0  0  0  0
  -22.4100   -4.3490   20.6870 F   0  0  0  0  0  0  0  0  0  0  0  0
  -21.9680   -3.4290   25.3510 F   0  0  0  0  0  0  0  0  0  0  0  0
  -23.3840  -13.5660   21.5810 C   0  0  0  0  0  0  0  0  0  0  0  0
  -22.8370  -12.7670   22.4900 N   0  0  0  0  0  0  0  0  0  0  0  0
  -22.9080  -14.6740   21.3370 O   0  0  0  0  0  0  0  0  0  0  0  0
  -23.2400  -11.8670   22.7030 H   0  0  0  0  0  0  0  0  0  0  0  0
  -22.0040  -13.0610   22.9800 H   0  0  0  0  0  0  0  0  0  0  0  0
  -25.8680  -15.2500   20.4160 N   0  0  0  0  0  0  0  0  0  0  0  0
  -25.1980  -15.9020   20.8080 H   0  0  0  0  0  0  0  0  0  0  0  0
  -26.6430  -15.7090   19.9540 H   0  0  0  0  0  0  0  0  0  0  0  0
  1  3  2  0
  1  5  1  0
  2  6  1  0
  3  4  1  0
  4 61  1  0
  4  6  2  0
  5  2  2  0
  6 56  1  0
  7  9  2  0
  8  5  1  0
  8  7  1  0
 10  8  1  0
 12 11  2  0
 12  7  1  0
 13 12  1  0
 14 13  1  0
 15 17  1  0
 15 11  1  0
 16 27  2  0
 17 22  1  0
 18 26  1  0
 18 28  1  0
 19 25  1  0
 19 21  1  0
 20 26  1  0
 21 20  1  0
 22 21  2  0
 23 24  1  0
 23 17  2  0
 24 19  2  0
 25 18  1  0
 26 16  1  0
 28 30  2  0
 29 28  1  0
 31 29  1  0
 32 41  2  0
 32 37  1  0
 33 29  1  0
 33 37  1  0
 34 33  1  0
 35 36  1  0
 35 34  1  0
 36 32  1  0
 37 38  2  0
 38 39  1  0
 40 39  2  0
 41 40  1  0
 42 16  1  0
 42 47  1  0
 42 43  1  0
 43 46  1  1
 43 44  1  0
 45 43  1  0
 47 50  1  0
 48 52  1  0
 48 47  1  0
 49 48  2  0
 52 51  1  0
 52 54  1  0
 54 55  1  0
 54 53  1  0
 56 57  1  0
 56 59  1  0
 59 58  1  0
 60 61  1  0
 62 71  1  0
 62  3  1  0
 63 69  1  0
 63 71  1  0
 64 69  1  0
 65 66  1  0
 65 64  1  0
 67 66  1  0
 67 76  1  0
 67 68  1  0
 69 68  1  0
 70 63  2  0
 71 72  1  0
 73 98  1  0
 73 74  2  0
 74 93  1  0
 75 78  1  0
 75 74  1  0
 76 77  1  0
 76 73  1  0
 77 75  2  0
 78 79  1  0
 79 80  2  0
 81 84  1  0
 81 80  1  0
 82 81  2  0
 83 82  1  0
 83 78  2  0
 84 85  1  0
 85 86  1  0
 86 87  2  0
 88 87  1  0
 88 92  1  0
 89 88  2  0
 90 85  2  0
 90 89  1  0
 91 90  1  0
 93 94  1  0
 94 96  1  0
 94 97  1  0
 95 93  2  0
 98 99  1  0
100 98  1  0
M  ISO  4  11 101  15 101  63 100  71 100
M  END
>  <TORSDO>  (41) 
F 23

>  <SCORE>  (41) 
-2.216

>  <name>  (41) 
40

>  <ligand_id>  (41) 
40

>  <original_smiles>  (41) 
[H]OC(C(=O)N([H])c1c([H])c(N([H])C([H])([H])C([H])([H])[H])c(C([H])([H])C([H])([H])[H])c(C([H])([H])N([H])C(=O)N2C([H])([H])C([H])([H])C([H])([H])C([H])(n3nc(-c4c([H])c([H])c(Oc5c([H])c([H])c(F)c([H])c5F)c([H])c4[H])c(C(=O)N([H])[H])c3N([H])[H])C2([H])[H])c1[H])=C([H])Oc1c([H])c([H])c2c(c1[H])C([H])([H])N(C(=O)C([H])(N([H])C(=O)C([H])(N([H])C([H])([H])[H])C([H])([H])[H])C(C([H])([H])[H])(C([H])([H])[H])C([H])([H])[H])C([H])(C(=O)N([H])C1([H])c3c([H])c([H])c([H])c([H])c3C([H])([H])C([H])([H])C1([H])[H])C2([H])[H]

>  <smiles>  (41) 
[H]OC(C(=O)N([H])c1c([H])c(N([H])C([H])([H])C([H])([H])[H])c(C([H])([H])C([H])([H])[H])c(C([H])([H])N([H])C(=O)N2C([H])([H])C([H])([H])C([H])([H])C([H])(n3nc(-c4c([H])c([H])c(Oc5c([H])c([H])c(F)c([H])c5F)c([H])c4[H])c(C(=O)N([H])[H])c3N([H])[H])C2([H])[H])c1[H])=C([H])Oc1c([H])c([H])c2c(c1[H])C([H])([H])N(C(=O)C([H])(N([H])C(=O)C([H])(N([H])C([H])([H])[H])C([H])([H])[H])C(C([H])([H])[H])(C([H])([H])[H])C([H])([H])[H])C([H])(C(=O)N([H])C1([H])c3c([H])c([H])c([H])c([H])c3C([H])([H])C([H])([H])C1([H])[H])C2([H])[H]

$$$$
42:0:0
     RDKit          3D

 95103  0  0  1  0  0  0  0  0999 V2000
  -31.5420  -17.6620   21.0960 C   0  0  0  0  0  3  0  0  0  0  0  0
  -31.1520  -20.0770   20.8620 C   0  0  0  0  0  3  0  0  0  0  0  0
  -29.4500  -18.4810   20.1540 C   0  0  0  0  0  0  0  0  0  0  0  0
  -30.2910  -17.3340   20.5210 C   0  0  0  0  0  0  0  0  0  0  0  0
  -29.8850  -19.8830   20.2700 C   0  0  0  0  0  0  0  0  0  0  0  0
  -31.9540  -18.9960   21.2740 C   0  0  0  0  0  0  0  0  0  0  0  0
  -33.1620  -19.2480   21.8360 F   0  0  0  0  0  0  0  0  0  0  0  0
  -30.6660  -14.7590   20.0560 C   0  0  0  0  0  0  0  0  0  0  0  0
  -30.3820  -12.5380   18.9440 C   0  0  0  0  0  2  0  0  0  0  0  0
  -29.3850  -12.6760   17.7730 C   0  0  0  0  0  2  0  0  0  0  0  0
  -27.9350  -12.4970   18.2710 C   0  0  0  0  0  2  0  0  0  0  0  0
  -27.6350  -13.3320   19.5430 C   0  0  0  0  0  3  0  0  0  0  0  0
  -28.7470  -13.1810   20.6030 C   0  0  0  0  0  2  0  0  0  0  0  0
  -30.0160  -13.5500   19.9610 N   0  0  0  0  0  0  0  0  0  0  0  0
  -31.8240  -14.8580   19.6390 O   0  0  0  0  0  0  0  0  0  0  0  0
  -29.9210  -15.8830   20.4060 N   0  0  0  0  0  0  0  0  0  0  0  0
  -28.9510  -15.6610   20.5680 H   0  0  0  0  0  0  0  0  0  0  0  0
  -25.2800  -13.9030   20.3770 C   0  0  0  0  0  0  0  0  0  0  0  0
  -24.2390  -13.1260   20.8010 C   0  0  0  0  0  0  0  0  0  0  0  0
  -24.7050  -11.7770   20.7340 C   0  0  0  0  0  0  0  0  0  0  0  0
  -26.3160  -13.0310   20.0900 N   0  0  0  0  0  0  0  0  0  0  0  0
  -25.9790  -11.7450   20.3640 N   0  0  0  0  0  0  0  0  0  0  0  0
  -23.9890  -10.5110   20.9430 C   0  0  0  0  0  0  0  0  0  0  0  0
  -24.4540   -9.5390   21.8560 C   0  0  0  0  0  3  0  0  0  0  0  0
  -23.7370   -8.3390   22.0520 C   0  0  0  0  0  3  0  0  0  0  0  0
  -22.5410   -8.1030   21.3340 C   0  0  0  0  0  0  0  0  0  0  0  0
  -22.0960   -9.0610   20.4060 C   0  0  0  0  0  3  0  0  0  0  0  0
  -22.8160  -10.2510   20.2090 C   0  0  0  0  0  3  0  0  0  0  0  0
  -21.7910   -6.9570   21.4410 O   0  0  0  0  0  0  0  0  0  0  0  0
  -21.7590   -6.2220   22.5990 C   0  0  0  0  0  0  0  0  0  0  0  0
  -21.3520   -6.7860   23.8280 C   0  0  0  0  0  3  0  0  0  0  0  0
  -21.2700   -5.9780   24.9800 C   0  0  0  0  0  3  0  0  0  0  0  0
  -21.5840   -4.6080   24.9030 C   0  0  0  0  0  0  0  0  0  0  0  0
  -21.9830   -4.0430   23.6790 C   0  0  0  0  0  3  0  0  0  0  0  0
  -22.0670   -4.8490   22.5300 C   0  0  0  0  0  0  0  0  0  0  0  0
  -22.4320   -4.2950   21.3480 F   0  0  0  0  0  0  0  0  0  0  0  0
  -21.4960   -3.8290   26.0070 F   0  0  0  0  0  0  0  0  0  0  0  0
  -22.8550  -13.5970   21.1420 C   0  0  0  0  0  0  0  0  0  0  0  0
  -22.1750  -12.9000   22.0460 N   0  0  0  0  0  0  0  0  0  0  0  0
  -22.3860  -14.6200   20.6450 O   0  0  0  0  0  0  0  0  0  0  0  0
  -22.5640  -12.0710   22.4700 H   0  0  0  0  0  0  0  0  0  0  0  0
  -21.2520  -13.1980   22.3210 H   0  0  0  0  0  0  0  0  0  0  0  0
  -25.4220  -15.2740   20.1870 N   0  0  0  0  0  0  0  0  0  0  0  0
  -24.6170  -15.8860   20.2580 H   0  0  0  0  0  0  0  0  0  0  0  0
  -26.1790  -15.6880   19.6570 H   0  0  0  0  0  0  0  0  0  0  0  0
  -28.0790  -18.1900   19.6750 C   0  0  0  0  0  0  0  0  0  0  0  0
  -26.9830  -18.3200   20.7270 C   0  0  0  0  0  1  0  0  0  0  0  0
  -27.8070  -17.7890   18.5410 O   0  0  0  0  0  0  0  0  0  0  0  0
  -29.1730  -21.0700   19.8020 N   0  0  0  0  0  0  0  0  0  0  0  0
  -28.4460  -20.9450   19.1040 H   0  0  0  0  0  0  0  0  0  0  0  0
  -29.1560  -22.4520   20.4500 C   0  0  0  0  0  2  0  0  0  0  0  0
  -28.7640  -23.7720   19.6190 C   0  0  0  0  0  0  0  0  0  0  0  0
  -28.8260  -23.7480   18.3860 O   0  0  0  0  0  0  0  0  0  0  0  0
  -28.2710  -25.0980   20.3700 C   0  0  0  0  0  2  0  0  0  0  0  0
  -28.3690  -26.4230   19.6740 O   0  0  0  0  0  0  0  0  0  0  0  0
  -24.7130  -31.6960   23.0690 C   0  0  0  0  0  0  0  0  0  0  0  0
  -27.2600  -27.2860   19.7440 C   0  0  0  0  0  0  0  0  0  0  0  0
  -23.4740  -30.3740   21.3920 C   0  0  0  0  0  3  0  0  0  0  0  0
  -24.8920  -28.8920   19.8610 C   0  0  0  0  0  0  0  0  0  0  0  0
  -26.0050  -30.7090   21.1590 C   0  0  0  0  0  2  0  0  0  0  0  0
  -26.0750  -29.3610   20.4490 C   0  0  0  0  0  0  0  0  0  0  0  0
  -27.2640  -28.5710   20.3770 C   0  0  0  0  0  3  0  0  0  0  0  0
  -26.0560  -26.8710   19.1380 C   0  0  0  0  0  3  0  0  0  0  0  0
  -24.8860  -27.6560   19.1930 C   0  0  0  0  0  3  0  0  0  0  0  0
  -23.6540  -29.7600   19.9780 C   0  0  0  0  0  2  0  0  0  0  0  0
  -24.7510  -30.9430   21.9300 N   0  0  0  0  0  0  0  0  0  0  0  0
  -23.6420  -31.9410   23.6440 O   0  0  0  0  0  0  0  0  0  0  0  0
  -22.8370  -29.3120   22.3210 C   0  0  0  0  0  0  0  0  0  0  0  0
  -21.5060  -29.1520   22.2370 N   0  0  0  0  0  0  0  0  0  0  0  0
  -23.5390  -28.6340   23.0750 O   0  0  0  0  0  0  0  0  0  0  0  0
  -20.9960  -29.7510   21.6020 H   0  0  0  0  0  0  0  0  0  0  0  0
  -18.1350  -27.9710   22.8170 C   0  0  0  0  0  0  0  0  0  0  0  0
  -20.7070  -28.1780   22.9830 C   0  0  0  0  0  3  0  0  0  0  0  0
  -20.7590  -26.7850   22.3150 C   0  0  0  0  0  2  0  0  0  0  0  0
  -19.6070  -26.5410   21.3350 C   0  0  0  0  0  2  0  0  0  0  0  0
  -18.2580  -26.6660   22.0480 C   0  0  0  0  0  2  0  0  0  0  0  0
  -19.2830  -28.6880   23.2410 C   0  0  0  0  0  0  0  0  0  0  0  0
  -19.1110  -29.9160   23.9190 C   0  0  0  0  0  3  0  0  0  0  0  0
  -17.8240  -30.4220   24.1770 C   0  0  0  0  0  3  0  0  0  0  0  0
  -16.6890  -29.6980   23.7710 C   0  0  0  0  0  3  0  0  0  0  0  0
  -16.8470  -28.4750   23.0950 C   0  0  0  0  0  3  0  0  0  0  0  0
  -26.0090  -32.3030   23.6900 C   0  0  0  0  0  3  0  0  0  0  0  0
  -25.7030  -33.6820   24.1020 N   0  0  0  0  0  0  0  0  0  0  0  0
  -26.0150  -34.7750   23.3930 C   0  0  0  0  0  0  0  0  0  0  0  0
  -26.6620  -34.7300   22.3450 O   0  0  0  0  0  0  0  0  0  0  0  0
  -25.1340  -33.7910   24.9290 H   0  0  0  0  0  0  0  0  0  0  0  0
  -24.2720  -36.5740   23.1780 C   0  0  0  0  0  1  0  0  0  0  0  0
  -25.5340  -36.1340   23.9380 C   0  0  0  0  0  3  0  0  0  0  0  0
  -27.6840  -36.9800   24.7630 C   0  0  0  0  0  1  0  0  0  0  0  0
  -26.5580  -37.1970   23.8600 N   0  0  0  0  0  0  0  0  0  0  0  0
  -26.1500  -38.1030   24.0720 H   0  0  0  0  0  0  0  0  0  0  0  0
  -26.5600  -31.4710   24.9130 C   0  0  1  0  0  0  0  0  0  0  0  0
  -25.4990  -31.1810   26.0010 C   0  0  0  0  0  1  0  0  0  0  0  0
  -27.1320  -30.1160   24.4370 C   0  0  0  0  0  1  0  0  0  0  0  0
  -27.7300  -32.2330   25.5800 C   0  0  0  0  0  1  0  0  0  0  0  0
  1  6  1  0
  2  6  2  0
  3  5  2  0
  3  4  1  0
  4  1  2  0
  5  2  1  0
  6  7  1  0
  8 16  1  0
  9 14  1  0
 10 11  1  0
 10  9  1  0
 12 11  1  0
 12 21  1  0
 12 13  1  0
 14  8  1  0
 14 13  1  0
 15  8  2  0
 16  4  1  0
 16 17  1  0
 18 19  2  0
 19 38  1  0
 20 19  1  0
 20 23  1  0
 21 22  1  0
 21 18  1  0
 22 20  2  0
 23 24  1  0
 24 25  2  0
 26 29  1  0
 26 25  1  0
 27 26  2  0
 28 27  1  0
 28 23  2  0
 29 30  1  0
 30 31  1  0
 31 32  2  0
 33 32  1  0
 33 37  1  0
 34 33  2  0
 35 30  2  0
 35 34  1  0
 36 35  1  0
 38 39  1  0
 39 42  1  0
 39 41  1  0
 40 38  2  0
 43 44  1  0
 43 18  1  0
 45 43  1  0
 46  3  1  0
 46 47  1  0
 48 46  2  0
 49  5  1  0
 49 51  1  0
 50 49  1  0
 52 54  1  0
 52 51  1  0
 53 52  2  0
 55 57  1  0
 55 54  1  0
 56 67  2  0
 57 62  1  0
 58 66  1  0
 58 68  1  0
 59 65  1  0
 59 61  1  0
 60 66  1  0
 61 60  1  0
 62 61  2  0
 63 64  1  0
 63 57  2  0
 64 59  2  0
 65 58  1  0
 66 56  1  0
 68 70  2  0
 69 68  1  0
 71 69  1  0
 72 81  2  0
 72 77  1  0
 73 69  1  0
 73 77  1  0
 74 73  1  0
 75 76  1  0
 75 74  1  0
 76 72  1  0
 77 78  2  0
 78 79  1  0
 80 79  2  0
 81 80  1  0
 82 56  1  0
 82 83  1  0
 82 92  1  0
 83 86  1  0
 84 88  1  0
 84 83  1  0
 85 84  2  0
 88 87  1  0
 90 88  1  0
 90 91  1  0
 90 89  1  0
 92 95  1  1
 92 93  1  0
 94 92  1  0
M  ISO  4   8 100  16 100  54 101  55 101
M  END
>  <TORSDO>  (42) 
F 21

>  <SCORE>  (42) 
-12.771

>  <name>  (42) 
42

>  <ligand_id>  (42) 
42

>  <original_smiles>  (42) 
[H]c1c([H])c([H])c2c(c1[H])C([H])([H])C([H])([H])C([H])([H])C2([H])N([H])C(=O)C1([H])N(C(=O)C([H])(N([H])C(=O)C([H])(N([H])C([H])([H])[H])C([H])([H])[H])C(C([H])([H])[H])(C([H])([H])[H])C([H])([H])[H])C([H])([H])c2c([H])c(OC([H])([H])C(=O)C([H])([H])N([H])c3c([H])c(F)c([H])c(N([H])C(=O)N4C([H])([H])C([H])([H])C([H])([H])C([H])(n5nc(-c6c([H])c([H])c(Oc7c([H])c([H])c(F)c([H])c7F)c([H])c6[H])c(C(=O)N([H])[H])c5N([H])[H])C4([H])[H])c3C(=O)C([H])([H])[H])c([H])c([H])c2C1([H])[H]

>  <smiles>  (42) 
[H]c1c([H])c([H])c2c(c1[H])C([H])([H])C([H])([H])C([H])([H])C2([H])N([H])C(=O)C1([H])N(C(=O)C([H])(N([H])C(=O)C([H])(N([H])C([H])([H])[H])C([H])([H])[H])C(C([H])([H])[H])(C([H])([H])[H])C([H])([H])[H])C([H])([H])c2c([H])c(OC([H])([H])C(=O)C([H])([H])N([H])c3c([H])c(F)c([H])c(N([H])C(=O)N4C([H])([H])C([H])([H])C([H])([H])C([H])(n5nc(-c6c([H])c([H])c(Oc7c([H])c([H])c(F)c([H])c7F)c([H])c6[H])c(C(=O)N([H])[H])c5N([H])[H])C4([H])[H])c3C(=O)C([H])([H])[H])c([H])c([H])c2C1([H])[H]

$$$$
43:0:0
     RDKit          3D

 95104  0  0  1  0  0  0  0  0999 V2000
  -29.2300  -21.7790   20.2700 C   0  0  0  0  0  0  0  0  0  0  0  0
  -29.2350  -20.5210   19.7530 N   0  0  0  0  0  0  0  0  0  0  0  0
  -29.6010  -22.0320   21.4200 O   0  0  0  0  0  0  0  0  0  0  0  0
  -28.7370  -20.4040   18.8800 H   0  0  0  0  0  0  0  0  0  0  0  0
  -29.4670  -18.0280   19.9450 C   0  0  0  0  0  3  0  0  0  0  0  0
  -31.0840  -19.4860   21.0280 C   0  0  0  0  0  3  0  0  0  0  0  0
  -30.1680  -16.8700   20.4100 C   0  0  0  0  0  0  0  0  0  0  0  0
  -31.3820  -17.0620   21.1250 C   0  0  0  0  0  0  0  0  0  0  0  0
  -31.8160  -18.3690   21.4740 C   0  0  0  0  0  0  0  0  0  0  0  0
  -29.9190  -19.3480   20.2470 C   0  0  0  0  0  0  0  0  0  0  0  0
  -32.1700  -15.8330   21.5570 C   0  0  0  0  0  2  0  0  0  0  0  0
  -31.2770  -14.8240   22.2770 C   0  0  0  0  0  2  0  0  0  0  0  0
  -29.8990  -14.5930   21.6230 C   0  0  0  0  0  2  0  0  0  0  0  0
  -29.5450  -15.4320   20.3560 C   0  0  0  0  0  3  0  0  0  0  0  0
  -33.0350  -18.6130   22.3620 C   0  0  0  0  0  1  0  0  0  0  0  0
  -29.7740  -14.5390   19.0880 C   0  0  0  0  0  0  0  0  0  0  0  0
  -29.2520  -12.4720   17.7890 C   0  0  0  0  0  2  0  0  0  0  0  0
  -27.9970  -12.6150   16.9010 C   0  0  0  0  0  2  0  0  0  0  0  0
  -26.7100  -12.3390   17.6990 C   0  0  0  0  0  2  0  0  0  0  0  0
  -26.6700  -13.0850   19.0580 C   0  0  0  0  0  3  0  0  0  0  0  0
  -27.9990  -12.8750   19.8210 C   0  0  0  0  0  2  0  0  0  0  0  0
  -29.0990  -13.3520   18.9620 N   0  0  0  0  0  0  0  0  0  0  0  0
  -30.5790  -14.9080   18.2280 O   0  0  0  0  0  0  0  0  0  0  0  0
  -24.5240  -13.5110   20.4250 C   0  0  0  0  0  0  0  0  0  0  0  0
  -23.6180  -12.6580   20.9920 C   0  0  0  0  0  0  0  0  0  0  0  0
  -24.0950  -11.3360   20.7250 C   0  0  0  0  0  0  0  0  0  0  0  0
  -25.5010  -12.7070   19.8530 N   0  0  0  0  0  0  0  0  0  0  0  0
  -25.2570  -11.3910   20.0840 N   0  0  0  0  0  0  0  0  0  0  0  0
  -23.4870  -10.0250   20.9900 C   0  0  0  0  0  0  0  0  0  0  0  0
  -24.0870   -9.0970   21.8730 C   0  0  0  0  0  3  0  0  0  0  0  0
  -23.4740   -7.8530   22.1290 C   0  0  0  0  0  3  0  0  0  0  0  0
  -22.2520   -7.5210   21.5030 C   0  0  0  0  0  0  0  0  0  0  0  0
  -21.6650   -8.4390   20.6120 C   0  0  0  0  0  3  0  0  0  0  0  0
  -22.2790   -9.6750   20.3530 C   0  0  0  0  0  3  0  0  0  0  0  0
  -21.6000   -6.3240   21.6720 O   0  0  0  0  0  0  0  0  0  0  0  0
  -21.6320   -5.6440   22.8620 C   0  0  0  0  0  0  0  0  0  0  0  0
  -21.1600   -6.2240   24.0590 C   0  0  0  0  0  3  0  0  0  0  0  0
  -21.1470   -5.4710   25.2510 C   0  0  0  0  0  3  0  0  0  0  0  0
  -21.5980   -4.1360   25.2460 C   0  0  0  0  0  0  0  0  0  0  0  0
  -22.0610   -3.5530   24.0530 C   0  0  0  0  0  3  0  0  0  0  0  0
  -22.0770   -4.3060   22.8630 C   0  0  0  0  0  0  0  0  0  0  0  0
  -22.5070   -3.7340   21.7140 F   0  0  0  0  0  0  0  0  0  0  0  0
  -21.5730   -3.4090   26.3840 F   0  0  0  0  0  0  0  0  0  0  0  0
  -22.3310  -13.0360   21.6700 C   0  0  0  0  0  0  0  0  0  0  0  0
  -21.9110  -12.2730   22.6690 N   0  0  0  0  0  0  0  0  0  0  0  0
  -21.7130  -14.0470   21.3370 O   0  0  0  0  0  0  0  0  0  0  0  0
  -22.4250  -11.4540   22.9590 H   0  0  0  0  0  0  0  0  0  0  0  0
  -21.0630  -12.5170   23.1610 H   0  0  0  0  0  0  0  0  0  0  0  0
  -24.5810  -14.9000   20.3300 N   0  0  0  0  0  0  0  0  0  0  0  0
  -23.8250  -15.4800   20.6790 H   0  0  0  0  0  0  0  0  0  0  0  0
  -25.2870  -15.4230   19.8260 H   0  0  0  0  0  0  0  0  0  0  0  0
  -28.6710  -22.9350   19.4040 C   0  0  0  0  0  2  0  0  0  0  0  0
  -28.8480  -24.3810   19.9870 C   0  0  0  0  0  2  0  0  0  0  0  0
  -27.7600  -25.3770   19.5280 C   0  0  0  0  0  2  0  0  0  0  0  0
  -27.9730  -26.7490   19.9510 O   0  0  0  0  0  0  0  0  0  0  0  0
  -24.5590  -32.0370   23.3760 C   0  0  0  0  0  0  0  0  0  0  0  0
  -26.8410  -27.5520   20.0320 C   0  0  0  0  0  0  0  0  0  0  0  0
  -23.2070  -30.6970   21.8040 C   0  0  0  0  0  3  0  0  0  0  0  0
  -24.5110  -29.1590   20.2490 C   0  0  0  0  0  0  0  0  0  0  0  0
  -25.7260  -30.9850   21.4310 C   0  0  0  0  0  2  0  0  0  0  0  0
  -25.7280  -29.6230   20.7640 C   0  0  0  0  0  0  0  0  0  0  0  0
  -26.8980  -28.8270   20.6520 C   0  0  0  0  0  3  0  0  0  0  0  0
  -25.5950  -27.1230   19.5090 C   0  0  0  0  0  3  0  0  0  0  0  0
  -24.4410  -27.9100   19.6210 C   0  0  0  0  0  3  0  0  0  0  0  0
  -23.2990  -30.0510   20.3990 C   0  0  0  0  0  2  0  0  0  0  0  0
  -24.5220  -31.2540   22.2590 N   0  0  0  0  0  0  0  0  0  0  0  0
  -23.5270  -32.3270   23.9950 O   0  0  0  0  0  0  0  0  0  0  0  0
  -22.6020  -29.6710   22.7880 C   0  0  0  0  0  0  0  0  0  0  0  0
  -21.3140  -29.3390   22.5960 N   0  0  0  0  0  0  0  0  0  0  0  0
  -23.2900  -29.1700   23.6820 O   0  0  0  0  0  0  0  0  0  0  0  0
  -20.8170  -29.7980   21.8450 H   0  0  0  0  0  0  0  0  0  0  0  0
  -18.0930  -27.7300   22.8890 C   0  0  0  0  0  0  0  0  0  0  0  0
  -20.5490  -28.3740   23.3830 C   0  0  0  0  0  3  0  0  0  0  0  0
  -20.9060  -26.9240   22.9780 C   0  0  0  0  0  2  0  0  0  0  0  0
  -19.9770  -26.3560   21.9010 C   0  0  0  0  0  2  0  0  0  0  0  0
  -18.5250  -26.3610   22.3880 C   0  0  0  0  0  2  0  0  0  0  0  0
  -19.0470  -28.6790   23.3440 C   0  0  0  0  0  0  0  0  0  0  0  0
  -18.6020  -29.9490   23.7730 C   0  0  0  0  0  3  0  0  0  0  0  0
  -17.2330  -30.2740   23.7560 C   0  0  0  0  0  3  0  0  0  0  0  0
  -16.2900  -29.3260   23.3200 C   0  0  0  0  0  3  0  0  0  0  0  0
  -16.7200  -28.0570   22.8910 C   0  0  0  0  0  3  0  0  0  0  0  0
  -25.8980  -32.6310   23.9110 C   0  0  0  0  0  3  0  0  0  0  0  0
  -26.4760  -31.8390   25.1460 C   0  0  1  0  0  0  0  0  0  0  0  0
  -25.4360  -31.5480   26.2520 C   0  0  0  0  0  1  0  0  0  0  0  0
  -27.0620  -30.4820   24.6950 C   0  0  0  0  0  1  0  0  0  0  0  0
  -27.6410  -32.6400   25.7750 C   0  0  0  0  0  1  0  0  0  0  0  0
  -25.6620  -34.0420   24.2540 N   0  0  0  0  0  0  0  0  0  0  0  0
  -25.9590  -35.0770   23.4590 C   0  0  0  0  0  0  0  0  0  0  0  0
  -26.5400  -34.9440   22.3790 O   0  0  0  0  0  0  0  0  0  0  0  0
  -25.1540  -34.2190   25.1090 H   0  0  0  0  0  0  0  0  0  0  0  0
  -24.2560  -36.9070   23.2220 C   0  0  0  0  0  1  0  0  0  0  0  0
  -25.5430  -36.4790   23.9410 C   0  0  0  0  0  3  0  0  0  0  0  0
  -27.7600  -37.3150   24.5850 C   0  0  0  0  0  1  0  0  0  0  0  0
  -26.5910  -37.5040   23.7360 N   0  0  0  0  0  0  0  0  0  0  0  0
  -26.2210  -38.4350   23.9090 H   0  0  0  0  0  0  0  0  0  0  0  0
  1  3  2  0
  2 10  1  0
  2  1  1  0
  4  2  1  0
  5 10  2  0
  5  7  1  0
  6  9  2  0
  7  8  2  0
  8  9  1  0
  8 11  1  0
  9 15  1  0
 10  6  1  0
 11 12  1  0
 13 12  1  0
 14 16  1  0
 14  7  1  0
 14 13  1  0
 17 22  1  0
 18 19  1  0
 18 17  1  0
 20 19  1  0
 20 21  1  0
 20 27  1  0
 22 16  1  0
 22 21  1  0
 23 16  2  0
 24 25  2  0
 25 44  1  0
 26 29  1  0
 26 25  1  0
 27 28  1  0
 27 24  1  0
 28 26  2  0
 29 30  1  0
 30 31  2  0
 32 35  1  0
 32 31  1  0
 33 32  2  0
 34 33  1  0
 34 29  2  0
 35 36  1  0
 36 41  2  0
 36 37  1  0
 37 38  2  0
 39 38  1  0
 39 43  1  0
 40 39  2  0
 41 40  1  0
 42 41  1  0
 44 45  1  0
 45 47  1  0
 45 48  1  0
 46 44  2  0
 49 24  1  0
 49 50  1  0
 51 49  1  0
 52 53  1  0
 52  1  1  0
 54 55  1  0
 54 53  1  0
 55 57  1  0
 56 67  2  0
 57 62  1  0
 58 66  1  0
 58 68  1  0
 59 65  1  0
 59 61  1  0
 60 66  1  0
 61 60  1  0
 62 61  2  0
 63 64  1  0
 63 57  2  0
 64 59  2  0
 65 58  1  0
 66 56  1  0
 68 70  2  0
 69 68  1  0
 71 69  1  0
 72 81  2  0
 72 77  1  0
 73 69  1  0
 74 73  1  0
 75 76  1  0
 75 74  1  0
 76 72  1  0
 77 73  1  0
 77 78  2  0
 79 78  1  0
 80 79  2  0
 81 80  1  0
 82 56  1  0
 82 87  1  0
 82 83  1  0
 83 86  1  1
 83 84  1  0
 85 83  1  0
 87 90  1  0
 88 92  1  0
 88 87  1  0
 89 88  2  0
 92 91  1  0
 94 95  1  0
 94 92  1  0
 94 93  1  0
M  ISO  4  14 100  16 100  54 101  55 101
M  END
>  <TORSDO>  (43) 
F 20

>  <SCORE>  (43) 
-7.012

>  <name>  (43) 
43

>  <ligand_id>  (43) 
43

>  <original_smiles>  (43) 
[H]c1c([H])c([H])c2c(c1[H])C([H])([H])C([H])([H])C([H])([H])C2([H])N([H])C(=O)C1([H])N(C(=O)C([H])(N([H])C(=O)C([H])(N([H])C([H])([H])[H])C([H])([H])[H])C(C([H])([H])[H])(C([H])([H])[H])C([H])([H])[H])C([H])([H])c2c([H])c(OC([H])([H])C([H])([H])C([H])([H])C(=O)N([H])c3c([H])c(C([H])([H])[H])c4c(c3[H])C([H])(C(=O)N3C([H])([H])C([H])([H])C([H])([H])C([H])(n5nc(-c6c([H])c([H])c(Oc7c([H])c([H])c(F)c([H])c7F)c([H])c6[H])c(C(=O)N([H])[H])c5N([H])[H])C3([H])[H])C([H])([H])C([H])([H])C4([H])[H])c([H])c([H])c2C1([H])[H]

>  <smiles>  (43) 
[H]c1c([H])c([H])c2c(c1[H])C([H])([H])C([H])([H])C([H])([H])C2([H])N([H])C(=O)C1([H])N(C(=O)C([H])(N([H])C(=O)C([H])(N([H])C([H])([H])[H])C([H])([H])[H])C(C([H])([H])[H])(C([H])([H])[H])C([H])([H])[H])C([H])([H])c2c([H])c(OC([H])([H])C([H])([H])C([H])([H])C(=O)N([H])c3c([H])c(C([H])([H])[H])c4c(c3[H])C([H])(C(=O)N3C([H])([H])C([H])([H])C([H])([H])C([H])(n5nc(-c6c([H])c([H])c(Oc7c([H])c([H])c(F)c([H])c7F)c([H])c6[H])c(C(=O)N([H])[H])c5N([H])[H])C3([H])[H])C([H])([H])C([H])([H])C4([H])[H])c([H])c([H])c2C1([H])[H]

$$$$
44:0:0
     RDKit          3D

 94102  0  0  1  0  0  0  0  0999 V2000
  -30.8550  -22.5180   19.4370 C   0  0  0  0  0  0  0  0  0  0  0  0
  -30.9000  -21.1910   19.2470 N   0  0  0  0  0  0  0  0  0  0  0  0
  -31.8870  -23.1810   19.3250 O   0  0  0  0  0  0  0  0  0  0  0  0
  -31.7990  -20.8180   18.9720 H   0  0  0  0  0  0  0  0  0  0  0  0
  -29.8630  -20.1780   19.4680 C   0  0  0  0  0  2  0  0  0  0  0  0
  -31.3990  -18.6300   22.6430 C   0  0  0  0  0  3  0  0  0  0  0  0
  -31.0300  -19.5630   21.6560 C   0  0  0  0  0  3  0  0  0  0  0  0
  -30.9910  -17.2880   22.5360 C   0  0  0  0  0  3  0  0  0  0  0  0
  -30.2480  -19.1660   20.5480 C   0  0  0  0  0  0  0  0  0  0  0  0
  -30.2060  -16.8780   21.4410 C   0  0  0  0  0  0  0  0  0  0  0  0
  -29.8240  -17.8170   20.4540 C   0  0  0  0  0  0  0  0  0  0  0  0
  -29.0650  -17.4120   19.4050 F   0  0  0  0  0  0  0  0  0  0  0  0
  -30.4000  -14.6280   20.5530 C   0  0  0  0  0  0  0  0  0  0  0  0
  -30.1220  -12.5150   19.3130 C   0  0  0  0  0  2  0  0  0  0  0  0
  -29.1610  -12.7260   18.1260 C   0  0  0  0  0  2  0  0  0  0  0  0
  -27.7010  -12.5220   18.5730 C   0  0  0  0  0  2  0  0  0  0  0  0
  -27.3510  -13.3230   19.8550 C   0  0  0  0  0  3  0  0  0  0  0  0
  -28.4220  -13.1070   20.9470 C   0  0  0  0  0  2  0  0  0  0  0  0
  -29.7350  -13.4550   20.3760 N   0  0  0  0  0  0  0  0  0  0  0  0
  -31.4710  -14.8840   19.9960 O   0  0  0  0  0  0  0  0  0  0  0  0
  -29.7930  -15.5290   21.3360 N   0  0  0  0  0  0  0  0  0  0  0  0
  -28.8780  -15.2930   21.6870 H   0  0  0  0  0  0  0  0  0  0  0  0
  -24.9310  -13.8310   20.5780 C   0  0  0  0  0  0  0  0  0  0  0  0
  -23.8960  -13.0140   20.9470 C   0  0  0  0  0  0  0  0  0  0  0  0
  -24.4110  -11.6820   20.9060 C   0  0  0  0  0  0  0  0  0  0  0  0
  -26.0100  -12.9950   20.3380 N   0  0  0  0  0  0  0  0  0  0  0  0
  -25.6990  -11.6970   20.5910 N   0  0  0  0  0  0  0  0  0  0  0  0
  -23.7380  -10.3900   21.0930 C   0  0  0  0  0  0  0  0  0  0  0  0
  -24.2160   -9.4360   22.0180 C   0  0  0  0  0  3  0  0  0  0  0  0
  -23.5430   -8.2090   22.1920 C   0  0  0  0  0  3  0  0  0  0  0  0
  -22.3780   -7.9250   21.4400 C   0  0  0  0  0  0  0  0  0  0  0  0
  -21.9190   -8.8690   20.5050 C   0  0  0  0  0  3  0  0  0  0  0  0
  -22.5930  -10.0890   20.3280 C   0  0  0  0  0  3  0  0  0  0  0  0
  -21.6740   -6.7480   21.5250 O   0  0  0  0  0  0  0  0  0  0  0  0
  -21.6700   -5.9920   22.6690 C   0  0  0  0  0  0  0  0  0  0  0  0
  -21.2250   -6.5110   23.9050 C   0  0  0  0  0  3  0  0  0  0  0  0
  -21.1710   -5.6790   25.0410 C   0  0  0  0  0  3  0  0  0  0  0  0
  -21.5520   -4.3270   24.9410 C   0  0  0  0  0  0  0  0  0  0  0  0
  -21.9900   -3.8070   23.7110 C   0  0  0  0  0  3  0  0  0  0  0  0
  -22.0450   -4.6360   22.5780 C   0  0  0  0  0  0  0  0  0  0  0  0
  -22.4480   -4.1240   21.3900 F   0  0  0  0  0  0  0  0  0  0  0  0
  -21.4920   -3.5240   26.0300 F   0  0  0  0  0  0  0  0  0  0  0  0
  -22.4820  -13.4330   21.2300 C   0  0  0  0  0  0  0  0  0  0  0  0
  -21.7880  -12.7070   22.1000 N   0  0  0  0  0  0  0  0  0  0  0  0
  -21.9970  -14.4400   20.7140 O   0  0  0  0  0  0  0  0  0  0  0  0
  -22.1910  -11.8970   22.5430 H   0  0  0  0  0  0  0  0  0  0  0  0
  -20.8400  -12.9720   22.3270 H   0  0  0  0  0  0  0  0  0  0  0  0
  -25.0400  -15.2090   20.4090 N   0  0  0  0  0  0  0  0  0  0  0  0
  -24.2490  -15.8330   20.5260 H   0  0  0  0  0  0  0  0  0  0  0  0
  -25.8720  -15.6830   20.0770 H   0  0  0  0  0  0  0  0  0  0  0  0
  -29.5220  -23.2150   19.7590 C   0  0  0  0  0  2  0  0  0  0  0  0
  -29.6040  -24.7630   19.8270 C   0  0  0  0  0  2  0  0  0  0  0  0
  -28.2250  -25.4320   19.7070 C   0  0  0  0  0  2  0  0  0  0  0  0
  -28.2860  -26.8310   20.0020 O   0  0  0  0  0  0  0  0  0  0  0  0
  -24.4900  -31.9350   23.2080 C   0  0  0  0  0  0  0  0  0  0  0  0
  -27.0930  -27.5290   20.0310 C   0  0  0  0  0  0  0  0  0  0  0  0
  -23.2610  -30.5550   21.5660 C   0  0  0  0  0  3  0  0  0  0  0  0
  -24.6900  -29.0310   20.1110 C   0  0  0  0  0  0  0  0  0  0  0  0
  -25.7860  -30.9090   21.3430 C   0  0  0  0  0  2  0  0  0  0  0  0
  -25.8590  -29.5470   20.6840 C   0  0  0  0  0  0  0  0  0  0  0  0
  -27.0610  -28.8060   20.6390 C   0  0  0  0  0  3  0  0  0  0  0  0
  -25.8960  -27.0210   19.4690 C   0  0  0  0  0  3  0  0  0  0  0  0
  -24.7030  -27.7640   19.5070 C   0  0  0  0  0  3  0  0  0  0  0  0
  -23.4500  -29.8930   20.1770 C   0  0  0  0  0  2  0  0  0  0  0  0
  -24.5310  -31.1480   22.0970 N   0  0  0  0  0  0  0  0  0  0  0  0
  -23.4180  -32.2050   23.7640 O   0  0  0  0  0  0  0  0  0  0  0  0
  -22.6220  -29.5230   22.5220 C   0  0  0  0  0  0  0  0  0  0  0  0
  -21.3000  -29.3250   22.3870 N   0  0  0  0  0  0  0  0  0  0  0  0
  -23.3080  -28.9040   23.3390 O   0  0  0  0  0  0  0  0  0  0  0  0
  -20.8080  -29.8770   21.6980 H   0  0  0  0  0  0  0  0  0  0  0  0
  -17.9430  -28.0750   22.8490 C   0  0  0  0  0  0  0  0  0  0  0  0
  -20.4910  -28.3780   23.1530 C   0  0  0  0  0  3  0  0  0  0  0  0
  -20.6260  -26.9460   22.5830 C   0  0  0  0  0  2  0  0  0  0  0  0
  -19.5420  -26.6000   21.5570 C   0  0  0  0  0  2  0  0  0  0  0  0
  -18.1500  -26.7250   22.1830 C   0  0  0  0  0  2  0  0  0  0  0  0
  -19.0420  -28.8570   23.2890 C   0  0  0  0  0  0  0  0  0  0  0  0
  -18.7950  -30.1200   23.8710 C   0  0  0  0  0  3  0  0  0  0  0  0
  -17.4800  -30.6010   24.0170 C   0  0  0  0  0  3  0  0  0  0  0  0
  -16.3940  -29.8150   23.5920 C   0  0  0  0  0  3  0  0  0  0  0  0
  -16.6260  -28.5530   23.0150 C   0  0  0  0  0  3  0  0  0  0  0  0
  -25.7870  -32.5530   23.8190 C   0  0  0  0  0  3  0  0  0  0  0  0
  -25.4950  -33.9550   24.1490 N   0  0  0  0  0  0  0  0  0  0  0  0
  -25.8170  -35.0010   23.3760 C   0  0  0  0  0  0  0  0  0  0  0  0
  -26.4630  -34.8870   22.3300 O   0  0  0  0  0  0  0  0  0  0  0  0
  -24.9180  -34.1170   24.9620 H   0  0  0  0  0  0  0  0  0  0  0  0
  -24.0830  -36.7930   23.0520 C   0  0  0  0  0  1  0  0  0  0  0  0
  -25.3450  -36.3930   23.8330 C   0  0  0  0  0  3  0  0  0  0  0  0
  -27.5010  -37.2830   24.6040 C   0  0  0  0  0  1  0  0  0  0  0  0
  -26.3770  -37.4420   23.6840 N   0  0  0  0  0  0  0  0  0  0  0  0
  -25.9760  -38.3640   23.8320 H   0  0  0  0  0  0  0  0  0  0  0  0
  -26.3070  -31.7780   25.0920 C   0  0  1  0  0  0  0  0  0  0  0  0
  -25.2190  -31.5490   26.1680 C   0  0  0  0  0  1  0  0  0  0  0  0
  -26.8770  -30.3950   24.6930 C   0  0  0  0  0  1  0  0  0  0  0  0
  -27.4670  -32.5630   25.7470 C   0  0  0  0  0  1  0  0  0  0  0  0
  1 51  1  0
  2  1  1  0
  2  5  1  0
  3  1  2  0
  4  2  1  0
  5  9  1  0
  7  6  2  0
  8  6  1  0
  9  7  1  0
 10  8  2  0
 11  9  2  0
 11 10  1  0
 12 11  1  0
 13 21  1  0
 14 19  1  0
 15 16  1  0
 15 14  1  0
 17 16  1  0
 17 26  1  0
 17 18  1  0
 19 13  1  0
 19 18  1  0
 20 13  2  0
 21 10  1  0
 21 22  1  0
 23 24  2  0
 24 43  1  0
 25 24  1  0
 25 28  1  0
 26 23  1  0
 26 27  1  0
 27 25  2  0
 28 29  1  0
 29 30  2  0
 31 34  1  0
 31 30  1  0
 32 31  2  0
 33 32  1  0
 33 28  2  0
 34 35  1  0
 35 36  1  0
 36 37  2  0
 38 37  1  0
 38 42  1  0
 39 38  2  0
 40 35  2  0
 40 39  1  0
 41 40  1  0
 43 44  1  0
 44 47  1  0
 44 46  1  0
 45 43  2  0
 48 49  1  0
 48 23  1  0
 50 48  1  0
 51 52  1  0
 53 52  1  0
 53 54  1  0
 54 56  1  0
 55 66  2  0
 56 61  1  0
 57 65  1  0
 57 67  1  0
 58 64  1  0
 58 60  1  0
 59 65  1  0
 60 59  1  0
 61 60  2  0
 62 63  1  0
 62 56  2  0
 63 58  2  0
 64 57  1  0
 65 55  1  0
 67 69  2  0
 68 67  1  0
 70 68  1  0
 71 80  2  0
 71 76  1  0
 72 68  1  0
 72 76  1  0
 73 72  1  0
 74 75  1  0
 74 73  1  0
 75 71  1  0
 76 77  2  0
 77 78  1  0
 79 78  2  0
 80 79  1  0
 81 55  1  0
 81 82  1  0
 81 91  1  0
 82 85  1  0
 83 87  1  0
 83 82  1  0
 84 83  2  0
 87 86  1  0
 89 90  1  0
 89 87  1  0
 89 88  1  0
 91 94  1  1
 91 92  1  0
 93 91  1  0
M  ISO  4  13 100  21 100  53 101  54 101
M  END
>  <TORSDO>  (44) 
F 21

>  <SCORE>  (44) 
-13.298

>  <name>  (44) 
44

>  <ligand_id>  (44) 
44

>  <original_smiles>  (44) 
[H]c1c([H])c(N([H])C(=O)N2C([H])([H])C([H])([H])C([H])([H])C([H])(n3nc(-c4c([H])c([H])c(Oc5c([H])c([H])c(F)c([H])c5F)c([H])c4[H])c(C(=O)N([H])[H])c3N([H])[H])C2([H])[H])c(F)c(C([H])([H])N([H])C(=O)C([H])([H])C([H])([H])C([H])([H])Oc2c([H])c([H])c3c(c2[H])C([H])([H])N(C(=O)C([H])(N([H])C(=O)C([H])(N([H])C([H])([H])[H])C([H])([H])[H])C(C([H])([H])[H])(C([H])([H])[H])C([H])([H])[H])C([H])(C(=O)N([H])C2([H])c4c([H])c([H])c([H])c([H])c4C([H])([H])C([H])([H])C2([H])[H])C3([H])[H])c1[H]

>  <smiles>  (44) 
[H]c1c([H])c(N([H])C(=O)N2C([H])([H])C([H])([H])C([H])([H])C([H])(n3nc(-c4c([H])c([H])c(Oc5c([H])c([H])c(F)c([H])c5F)c([H])c4[H])c(C(=O)N([H])[H])c3N([H])[H])C2([H])[H])c(F)c(C([H])([H])N([H])C(=O)C([H])([H])C([H])([H])C([H])([H])Oc2c([H])c([H])c3c(c2[H])C([H])([H])N(C(=O)C([H])(N([H])C(=O)C([H])(N([H])C([H])([H])[H])C([H])([H])[H])C(C([H])([H])[H])(C([H])([H])[H])C([H])([H])[H])C([H])(C(=O)N([H])C2([H])c4c([H])c([H])c([H])c([H])c4C([H])([H])C([H])([H])C2([H])[H])C3([H])[H])c1[H]

$$$$
45:0:0
     RDKit          3D

 98106  0  0  1  0  0  0  0  0999 V2000
  -30.2050  -21.6100   20.0620 C   0  0  0  0  0  3  0  0  0  0  0  0
  -31.5800  -21.9330   20.7220 C   0  0  1  0  0  0  0  0  0  0  0  0
  -32.0730  -20.8540   21.3270 F   0  0  0  0  0  0  0  0  0  0  0  0
  -32.4580  -22.3550   19.8080 F   0  0  0  0  0  0  0  0  0  0  0  0
  -31.4550  -22.8830   21.6500 F   0  0  0  0  0  0  0  0  0  0  0  0
  -29.6570  -22.7450   19.2360 N   0  0  0  0  0  0  0  0  0  0  0  0
  -30.1660  -22.7340   18.3530 H   0  0  0  0  0  0  0  0  0  0  0  0
  -29.6860  -24.1330   19.8120 C   0  0  0  0  0  2  0  0  0  0  0  0
  -28.6290  -25.1150   19.1910 C   0  0  0  0  0  2  0  0  0  0  0  0
  -28.6480  -26.5010   19.6670 O   0  0  0  0  0  0  0  0  0  0  0  0
  -24.7230  -31.5800   22.9230 C   0  0  0  0  0  0  0  0  0  0  0  0
  -27.4610  -27.2420   19.6760 C   0  0  0  0  0  0  0  0  0  0  0  0
  -23.5400  -30.1730   21.2740 C   0  0  0  0  0  3  0  0  0  0  0  0
  -25.0180  -28.7210   19.7840 C   0  0  0  0  0  0  0  0  0  0  0  0
  -26.0590  -30.5980   21.0510 C   0  0  0  0  0  2  0  0  0  0  0  0
  -26.1760  -29.2460   20.3660 C   0  0  0  0  0  0  0  0  0  0  0  0
  -27.3960  -28.5180   20.3100 C   0  0  0  0  0  3  0  0  0  0  0  0
  -26.2710  -26.7620   19.0750 C   0  0  0  0  0  3  0  0  0  0  0  0
  -25.0640  -27.4800   19.1330 C   0  0  0  0  0  3  0  0  0  0  0  0
  -23.7480  -29.5390   19.8750 C   0  0  0  0  0  2  0  0  0  0  0  0
  -24.7930  -30.8020   21.8050 N   0  0  0  0  0  0  0  0  0  0  0  0
  -23.6410  -31.8010   23.4860 O   0  0  0  0  0  0  0  0  0  0  0  0
  -22.9400  -29.1070   22.2220 C   0  0  0  0  0  0  0  0  0  0  0  0
  -21.6170  -28.8940   22.1270 N   0  0  0  0  0  0  0  0  0  0  0  0
  -23.6610  -28.4770   23.0000 O   0  0  0  0  0  0  0  0  0  0  0  0
  -21.0930  -29.4590   21.4730 H   0  0  0  0  0  0  0  0  0  0  0  0
  -18.2850  -27.6120   22.7020 C   0  0  0  0  0  0  0  0  0  0  0  0
  -20.8460  -27.9150   22.8930 C   0  0  0  0  0  3  0  0  0  0  0  0
  -20.9560  -26.5050   22.2680 C   0  0  0  0  0  2  0  0  0  0  0  0
  -19.8270  -26.1940   21.2810 C   0  0  0  0  0  2  0  0  0  0  0  0
  -18.4650  -26.2900   21.9750 C   0  0  0  0  0  2  0  0  0  0  0  0
  -19.4030  -28.3830   23.1160 C   0  0  0  0  0  0  0  0  0  0  0  0
  -19.1770  -29.6230   23.7560 C   0  0  0  0  0  3  0  0  0  0  0  0
  -17.8670  -30.0880   23.9840 C   0  0  0  0  0  3  0  0  0  0  0  0
  -16.7650  -29.3130   23.5820 C   0  0  0  0  0  3  0  0  0  0  0  0
  -16.9760  -28.0770   22.9460 C   0  0  0  0  0  3  0  0  0  0  0  0
  -25.9950  -32.2440   23.5350 C   0  0  0  0  0  3  0  0  0  0  0  0
  -25.6100  -33.5780   24.0140 N   0  0  0  0  0  0  0  0  0  0  0  0
  -25.8390  -34.7210   23.3520 C   0  0  0  0  0  0  0  0  0  0  0  0
  -26.4670  -34.7650   22.2900 O   0  0  0  0  0  0  0  0  0  0  0  0
  -25.0480  -33.6120   24.8520 H   0  0  0  0  0  0  0  0  0  0  0  0
  -23.9970  -36.4280   23.2280 C   0  0  0  0  0  1  0  0  0  0  0  0
  -25.2820  -36.0190   23.9650 C   0  0  0  0  0  3  0  0  0  0  0  0
  -27.3820  -36.9460   24.8390 C   0  0  0  0  0  1  0  0  0  0  0  0
  -26.2480  -37.1410   23.9400 N   0  0  0  0  0  0  0  0  0  0  0  0
  -25.7910  -38.0130   24.1950 H   0  0  0  0  0  0  0  0  0  0  0  0
  -26.6390  -31.3990   24.7020 C   0  0  1  0  0  0  0  0  0  0  0  0
  -25.6270  -30.9720   25.7900 C   0  0  0  0  0  1  0  0  0  0  0  0
  -27.3050  -30.1200   24.1480 C   0  0  0  0  0  1  0  0  0  0  0  0
  -27.7570  -32.2200   25.3880 C   0  0  0  0  0  1  0  0  0  0  0  0
  -30.1920  -20.2410   19.2410 C   0  0  0  0  0  3  0  0  0  0  0  0
  -28.5860  -17.9440   21.8560 C   0  0  0  0  0  3  0  0  0  0  0  0
  -28.9670  -19.0520   21.0870 C   0  0  0  0  0  3  0  0  0  0  0  0
  -29.1490  -16.6870   21.6010 C   0  0  0  0  0  3  0  0  0  0  0  0
  -30.5000  -17.6420   19.8010 C   0  0  0  0  0  3  0  0  0  0  0  0
  -29.9300  -18.9420   20.0590 C   0  0  0  0  0  0  0  0  0  0  0  0
  -30.0980  -16.5030   20.5760 C   0  0  0  0  0  0  0  0  0  0  0  0
  -30.9080  -14.3680   19.4160 C   0  0  0  0  0  0  0  0  0  0  0  0
  -30.4160  -12.2810   18.1630 C   0  0  0  0  0  2  0  0  0  0  0  0
  -29.2930  -12.5470   17.1350 C   0  0  0  0  0  2  0  0  0  0  0  0
  -27.8960  -12.4300   17.7800 C   0  0  0  0  0  2  0  0  0  0  0  0
  -27.7890  -13.1990   19.1230 C   0  0  0  0  0  3  0  0  0  0  0  0
  -28.9860  -12.8490   20.0350 C   0  0  0  0  0  2  0  0  0  0  0  0
  -30.2290  -13.1870   19.3080 N   0  0  0  0  0  0  0  0  0  0  0  0
  -31.8540  -14.6730   18.6840 O   0  0  0  0  0  0  0  0  0  0  0  0
  -30.5130  -15.1290   20.4550 N   0  0  0  0  0  0  0  0  0  0  0  0
  -30.0600  -14.5420   21.1400 H   0  0  0  0  0  0  0  0  0  0  0  0
  -25.5440  -13.8510   20.2100 C   0  0  0  0  0  0  0  0  0  0  0  0
  -24.5090  -13.0970   20.6950 C   0  0  0  0  0  0  0  0  0  0  0  0
  -24.9010  -11.7350   20.5250 C   0  0  0  0  0  0  0  0  0  0  0  0
  -26.5070  -12.9480   19.7840 N   0  0  0  0  0  0  0  0  0  0  0  0
  -26.1290  -11.6660   20.0260 N   0  0  0  0  0  0  0  0  0  0  0  0
  -24.1570  -10.4890   20.7570 C   0  0  0  0  0  0  0  0  0  0  0  0
  -24.5990   -9.5300   21.6950 C   0  0  0  0  0  3  0  0  0  0  0  0
  -23.8580   -8.3480   21.9130 C   0  0  0  0  0  3  0  0  0  0  0  0
  -22.6620   -8.1170   21.1940 C   0  0  0  0  0  0  0  0  0  0  0  0
  -22.2380   -9.0650   20.2450 C   0  0  0  0  0  3  0  0  0  0  0  0
  -22.9790  -10.2390   20.0260 C   0  0  0  0  0  3  0  0  0  0  0  0
  -21.8910   -6.9870   21.3200 O   0  0  0  0  0  0  0  0  0  0  0  0
  -21.7650   -6.3330   22.5200 C   0  0  0  0  0  0  0  0  0  0  0  0
  -21.2830   -6.9840   23.6770 C   0  0  0  0  0  3  0  0  0  0  0  0
  -21.1040   -6.2570   24.8710 C   0  0  0  0  0  3  0  0  0  0  0  0
  -21.3960   -4.8800   24.9080 C   0  0  0  0  0  0  0  0  0  0  0  0
  -21.8710   -4.2290   23.7570 C   0  0  0  0  0  3  0  0  0  0  0  0
  -22.0520   -4.9530   22.5650 C   0  0  0  0  0  0  0  0  0  0  0  0
  -22.4890   -4.3170   21.4510 F   0  0  0  0  0  0  0  0  0  0  0  0
  -21.2160   -4.1800   26.0530 F   0  0  0  0  0  0  0  0  0  0  0  0
  -23.1900  -13.6070   21.2000 C   0  0  0  0  0  0  0  0  0  0  0  0
  -22.5910  -12.9100   22.1600 N   0  0  0  0  0  0  0  0  0  0  0  0
  -22.7040  -14.6550   20.7780 O   0  0  0  0  0  0  0  0  0  0  0  0
  -22.9990  -12.0620   22.5220 H   0  0  0  0  0  0  0  0  0  0  0  0
  -21.7120  -13.2320   22.5400 H   0  0  0  0  0  0  0  0  0  0  0  0
  -25.7430  -15.2220   20.0790 N   0  0  0  0  0  0  0  0  0  0  0  0
  -25.0390  -15.9020   20.3430 H   0  0  0  0  0  0  0  0  0  0  0  0
  -26.5760  -15.6440   19.6860 H   0  0  0  0  0  0  0  0  0  0  0  0
  -31.3110  -20.1040   18.2840 N   0  0  0  0  0  0  0  0  0  0  0  0
  -32.0920  -20.7020   18.5620 H   0  0  0  0  0  0  0  0  0  0  0  0
  -31.6760  -19.1510   18.3080 H   0  0  0  0  0  0  0  0  0  0  0  0
  1  6  1  0
  1  2  1  0
  2  3  1  1
  2  5  1  0
  4  2  1  0
  6  8  1  0
  7  6  1  0
  9 10  1  0
  9  8  1  0
 10 12  1  0
 11 22  2  0
 12 17  1  0
 13 21  1  0
 13 23  1  0
 14 20  1  0
 14 16  1  0
 15 21  1  0
 16 15  1  0
 17 16  2  0
 18 19  1  0
 18 12  2  0
 19 14  2  0
 20 13  1  0
 21 11  1  0
 23 25  2  0
 24 23  1  0
 26 24  1  0
 27 36  2  0
 27 32  1  0
 28 24  1  0
 28 32  1  0
 29 28  1  0
 30 31  1  0
 30 29  1  0
 31 27  1  0
 32 33  2  0
 33 34  1  0
 35 34  2  0
 36 35  1  0
 37 11  1  0
 37 38  1  0
 37 47  1  0
 38 41  1  0
 39 43  1  0
 39 38  1  0
 40 39  2  0
 43 42  1  0
 45 43  1  0
 45 46  1  0
 45 44  1  0
 47 50  1  1
 47 48  1  0
 49 47  1  0
 51 96  1  0
 51 56  1  0
 51  1  1  0
 53 52  2  0
 54 52  1  0
 55 56  2  0
 55 57  1  0
 56 53  1  0
 57 54  2  0
 58 66  1  0
 59 64  1  0
 60 61  1  0
 60 59  1  0
 62 61  1  0
 62 71  1  0
 62 63  1  0
 64 58  1  0
 64 63  1  0
 65 58  2  0
 66 57  1  0
 66 67  1  0
 68 69  2  0
 69 88  1  0
 70 69  1  0
 70 73  1  0
 71 72  1  0
 71 68  1  0
 72 70  2  0
 73 74  1  0
 74 75  2  0
 76 79  1  0
 76 75  1  0
 77 76  2  0
 78 77  1  0
 78 73  2  0
 79 80  1  0
 80 85  2  0
 80 81  1  0
 81 82  2  0
 82 83  1  0
 83 87  1  0
 84 83  2  0
 85 84  1  0
 86 85  1  0
 88 89  1  0
 89 91  1  0
 89 92  1  0
 90 88  2  0
 93 68  1  0
 93 94  1  0
 95 93  1  0
 96 98  1  0
 96 97  1  0
M  ISO  4   9 101  10 101  58 100  66 100
M  END
>  <TORSDO>  (45) 
F 23

>  <SCORE>  (45) 
-8.560

>  <name>  (45) 
45

>  <ligand_id>  (45) 
45

>  <original_smiles>  (45) 
[H]c1c([H])c([H])c2c(c1[H])C([H])([H])C([H])([H])C([H])([H])C2([H])N([H])C(=O)C1([H])N(C(=O)C([H])(N([H])C(=O)C([H])(N([H])C([H])([H])[H])C([H])([H])[H])C(C([H])([H])[H])(C([H])([H])[H])C([H])([H])[H])C([H])([H])c2c([H])c(OC([H])([H])C([H])([H])N([H])C([H])(C(F)(F)F)C([H])(c3c([H])c([H])c([H])c(N([H])C(=O)N4C([H])([H])C([H])([H])C([H])([H])C([H])(n5nc(-c6c([H])c([H])c(Oc7c([H])c([H])c(F)c([H])c7F)c([H])c6[H])c(C(=O)N([H])[H])c5N([H])[H])C4([H])[H])c3[H])N([H])[H])c([H])c([H])c2C1([H])[H]

>  <smiles>  (45) 
[H]c1c([H])c([H])c2c(c1[H])C([H])([H])C([H])([H])C([H])([H])C2([H])N([H])C(=O)C1([H])N(C(=O)C([H])(N([H])C(=O)C([H])(N([H])C([H])([H])[H])C([H])([H])[H])C(C([H])([H])[H])(C([H])([H])[H])C([H])([H])[H])C([H])([H])c2c([H])c(OC([H])([H])C([H])([H])N([H])C([H])(C(F)(F)F)C([H])(c3c([H])c([H])c([H])c(N([H])C(=O)N4C([H])([H])C([H])([H])C([H])([H])C([H])(n5nc(-c6c([H])c([H])c(Oc7c([H])c([H])c(F)c([H])c7F)c([H])c6[H])c(C(=O)N([H])[H])c5N([H])[H])C4([H])[H])c3[H])N([H])[H])c([H])c([H])c2C1([H])[H]

$$$$
46:0:0
     RDKit          3D

 90 98  0  0  1  0  0  0  0  0999 V2000
  -28.9480  -22.3330   20.8290 C   0  0  0  0  0  2  0  0  0  0  0  0
  -28.5800  -23.6980   20.0480 C   0  0  0  0  0  0  0  0  0  0  0  0
  -28.6280  -23.7070   18.8120 O   0  0  0  0  0  0  0  0  0  0  0  0
  -28.1230  -25.0300   20.8340 C   0  0  0  0  0  2  0  0  0  0  0  0
  -28.3110  -26.3940   20.2160 O   0  0  0  0  0  0  0  0  0  0  0  0
  -24.6070  -31.8920   23.2460 C   0  0  0  0  0  0  0  0  0  0  0  0
  -27.2160  -27.2870   20.2120 C   0  0  0  0  0  0  0  0  0  0  0  0
  -23.4070  -30.4890   21.6080 C   0  0  0  0  0  3  0  0  0  0  0  0
  -24.8610  -28.9290   20.1860 C   0  0  0  0  0  0  0  0  0  0  0  0
  -25.9500  -30.8000   21.4270 C   0  0  0  0  0  2  0  0  0  0  0  0
  -26.0320  -29.4150   20.7820 C   0  0  0  0  0  0  0  0  0  0  0  0
  -27.2170  -28.6090   20.7750 C   0  0  0  0  0  3  0  0  0  0  0  0
  -26.0230  -26.8650   19.5920 C   0  0  0  0  0  3  0  0  0  0  0  0
  -24.8600  -27.6630   19.5790 C   0  0  0  0  0  3  0  0  0  0  0  0
  -23.6250  -29.8080   20.2300 C   0  0  0  0  0  2  0  0  0  0  0  0
  -24.6750  -31.0790   22.1490 N   0  0  0  0  0  0  0  0  0  0  0  0
  -23.5220  -32.1700   23.7780 O   0  0  0  0  0  0  0  0  0  0  0  0
  -22.7410  -29.4770   22.5710 C   0  0  0  0  0  0  0  0  0  0  0  0
  -21.4150  -29.2980   22.4430 N   0  0  0  0  0  0  0  0  0  0  0  0
  -23.4180  -28.8540   23.3930 O   0  0  0  0  0  0  0  0  0  0  0  0
  -20.9270  -29.8500   21.7510 H   0  0  0  0  0  0  0  0  0  0  0  0
  -18.0390  -28.0920   22.9420 C   0  0  0  0  0  0  0  0  0  0  0  0
  -20.5970  -28.3600   23.2150 C   0  0  0  0  0  3  0  0  0  0  0  0
  -20.7020  -26.9270   22.6430 C   0  0  0  0  0  2  0  0  0  0  0  0
  -19.6030  -26.6000   21.6270 C   0  0  0  0  0  2  0  0  0  0  0  0
  -18.2200  -26.7420   22.2690 C   0  0  0  0  0  2  0  0  0  0  0  0
  -19.1540  -28.8580   23.3720 C   0  0  0  0  0  0  0  0  0  0  0  0
  -18.9320  -30.1210   23.9620 C   0  0  0  0  0  3  0  0  0  0  0  0
  -17.6240  -30.6190   24.1260 C   0  0  0  0  0  3  0  0  0  0  0  0
  -16.5240  -29.8500   23.7120 C   0  0  0  0  0  3  0  0  0  0  0  0
  -16.7310  -28.5890   23.1260 C   0  0  0  0  0  3  0  0  0  0  0  0
  -25.8880  -32.5280   23.8700 C   0  0  0  0  0  3  0  0  0  0  0  0
  -26.3970  -31.7650   25.1550 C   0  0  1  0  0  0  0  0  0  0  0  0
  -25.2980  -31.5400   26.2200 C   0  0  0  0  0  1  0  0  0  0  0  0
  -26.9780  -30.3820   24.7800 C   0  0  0  0  0  1  0  0  0  0  0  0
  -27.5470  -32.5610   25.8150 C   0  0  0  0  0  1  0  0  0  0  0  0
  -25.5780  -33.9290   24.1900 N   0  0  0  0  0  0  0  0  0  0  0  0
  -25.9140  -34.9780   23.4280 C   0  0  0  0  0  0  0  0  0  0  0  0
  -26.5850  -34.8670   22.3980 O   0  0  0  0  0  0  0  0  0  0  0  0
  -24.9800  -34.0880   24.9880 H   0  0  0  0  0  0  0  0  0  0  0  0
  -24.1910  -36.7750   23.0600 C   0  0  0  0  0  1  0  0  0  0  0  0
  -25.4290  -36.3700   23.8770 C   0  0  0  0  0  3  0  0  0  0  0  0
  -27.5640  -37.2530   24.7100 C   0  0  0  0  0  1  0  0  0  0  0  0
  -26.4650  -37.4200   23.7630 N   0  0  0  0  0  0  0  0  0  0  0  0
  -26.0610  -38.3420   23.9040 H   0  0  0  0  0  0  0  0  0  0  0  0
  -28.8430  -20.9580   20.1680 N   0  0  0  0  0  0  0  0  0  0  0  0
  -27.9530  -20.8110   19.7000 H   0  0  0  0  0  0  0  0  0  0  0  0
  -30.5540  -14.7980   20.3300 C   0  0  0  0  0  0  0  0  0  0  0  0
  -30.3850  -12.5120   19.3200 C   0  0  0  0  0  2  0  0  0  0  0  0
  -29.4340  -12.5770   18.1030 C   0  0  0  0  0  2  0  0  0  0  0  0
  -27.9700  -12.3860   18.5460 C   0  0  0  0  0  2  0  0  0  0  0  0
  -27.5970  -13.2750   19.7630 C   0  0  0  0  0  3  0  0  0  0  0  0
  -28.6640  -13.1930   20.8750 C   0  0  0  0  0  2  0  0  0  0  0  0
  -29.9500  -13.5610   20.2700 N   0  0  0  0  0  0  0  0  0  0  0  0
  -31.7500  -14.9050   20.0400 O   0  0  0  0  0  0  0  0  0  0  0  0
  -30.8690  -19.6800   20.9640 C   0  0  0  0  0  3  0  0  0  0  0  0
  -29.5880  -19.7310   20.4680 C   0  0  0  0  0  0  0  0  0  0  0  0
  -30.0110  -17.3610   20.5370 C   0  0  0  0  0  0  0  0  0  0  0  0
  -29.1210  -18.3780   20.2510 N   0  0  0  0  0  0  0  0  0  0  0  0
  -29.7240  -15.9070   20.4510 N   0  0  0  0  0  0  0  0  0  0  0  0
  -31.5260  -18.0470   21.1150 S   0  0  0  0  0  0  0  0  0  0  0  0
  -28.7460  -15.6770   20.4900 H   0  0  0  0  0  0  0  0  0  0  0  0
  -25.2140  -13.8600   20.5080 C   0  0  0  0  0  0  0  0  0  0  0  0
  -24.1550  -13.0820   20.8870 C   0  0  0  0  0  0  0  0  0  0  0  0
  -24.6230  -11.7330   20.8540 C   0  0  0  0  0  0  0  0  0  0  0  0
  -26.2580  -12.9840   20.2640 N   0  0  0  0  0  0  0  0  0  0  0  0
  -25.9110  -11.7000   20.5350 N   0  0  0  0  0  0  0  0  0  0  0  0
  -23.9030  -10.4680   21.0480 C   0  0  0  0  0  0  0  0  0  0  0  0
  -24.3480   -9.4990   21.9740 C   0  0  0  0  0  3  0  0  0  0  0  0
  -23.6280   -8.2990   22.1570 C   0  0  0  0  0  3  0  0  0  0  0  0
  -22.4480   -8.0590   21.4130 C   0  0  0  0  0  0  0  0  0  0  0  0
  -22.0220   -9.0160   20.4740 C   0  0  0  0  0  3  0  0  0  0  0  0
  -22.7440  -10.2080   20.2910 C   0  0  0  0  0  3  0  0  0  0  0  0
  -21.6980   -6.9110   21.5040 O   0  0  0  0  0  0  0  0  0  0  0  0
  -21.6700   -6.1610   22.6520 C   0  0  0  0  0  0  0  0  0  0  0  0
  -21.2580   -6.7050   23.8880 C   0  0  0  0  0  3  0  0  0  0  0  0
  -21.1770   -5.8800   25.0290 C   0  0  0  0  0  3  0  0  0  0  0  0
  -21.4980   -4.5120   24.9330 C   0  0  0  0  0  0  0  0  0  0  0  0
  -21.9030   -3.9680   23.7020 C   0  0  0  0  0  3  0  0  0  0  0  0
  -21.9850   -4.7900   22.5630 C   0  0  0  0  0  0  0  0  0  0  0  0
  -22.3560   -4.2560   21.3760 F   0  0  0  0  0  0  0  0  0  0  0  0
  -21.4130   -3.7180   26.0250 F   0  0  0  0  0  0  0  0  0  0  0  0
  -22.7570  -13.5530   21.1650 C   0  0  0  0  0  0  0  0  0  0  0  0
  -22.0360  -12.8540   22.0340 N   0  0  0  0  0  0  0  0  0  0  0  0
  -22.3120  -14.5770   20.6470 O   0  0  0  0  0  0  0  0  0  0  0  0
  -22.4080  -12.0250   22.4740 H   0  0  0  0  0  0  0  0  0  0  0  0
  -21.0970  -13.1510   22.2640 H   0  0  0  0  0  0  0  0  0  0  0  0
  -25.3700  -15.2320   20.3270 N   0  0  0  0  0  0  0  0  0  0  0  0
  -24.5920  -15.8740   20.4360 H   0  0  0  0  0  0  0  0  0  0  0  0
  -26.1950  -15.6770   19.9500 H   0  0  0  0  0  0  0  0  0  0  0  0
  2  1  1  0
  2  4  1  0
  3  2  2  0
  5  4  1  0
  6 17  2  0
  7  5  1  0
  7 12  1  0
  8 16  1  0
  8 18  1  0
  9 15  1  0
  9 11  1  0
 10 16  1  0
 11 10  1  0
 12 11  2  0
 13  7  2  0
 14 13  1  0
 14  9  2  0
 15  8  1  0
 16  6  1  0
 18 20  2  0
 19 18  1  0
 21 19  1  0
 22 31  2  0
 22 27  1  0
 23 19  1  0
 23 27  1  0
 24 23  1  0
 25 26  1  0
 25 24  1  0
 26 22  1  0
 27 28  2  0
 28 29  1  0
 30 29  2  0
 31 30  1  0
 32  6  1  0
 32 37  1  0
 32 33  1  0
 33 36  1  1
 33 34  1  0
 35 33  1  0
 37 40  1  0
 38 42  1  0
 38 37  1  0
 39 38  2  0
 42 41  1  0
 44 42  1  0
 44 45  1  0
 44 43  1  0
 46 57  1  0
 46  1  1  0
 47 46  1  0
 48 60  1  0
 49 54  1  0
 50 51  1  0
 50 49  1  0
 52 51  1  0
 52 66  1  0
 52 53  1  0
 54 48  1  0
 54 53  1  0
 55 48  2  0
 56 61  1  0
 57 56  2  0
 58 61  1  0
 59 57  1  0
 59 58  2  0
 60 62  1  0
 60 58  1  0
 63 64  2  0
 64 83  1  0
 65 64  1  0
 65 68  1  0
 66 63  1  0
 66 67  1  0
 67 65  2  0
 68 69  1  0
 69 70  2  0
 71 74  1  0
 71 70  1  0
 72 71  2  0
 73 72  1  0
 73 68  2  0
 74 75  1  0
 75 76  1  0
 76 77  2  0
 78 77  1  0
 78 82  1  0
 79 78  2  0
 80 75  2  0
 80 79  1  0
 81 80  1  0
 83 84  1  0
 84 87  1  0
 84 86  1  0
 85 83  2  0
 88 89  1  0
 88 63  1  0
 90 88  1  0
M  ISO  4   4 101   5 101  48 100  60 100
M  END
>  <TORSDO>  (46) 
F 19

>  <SCORE>  (46) 
-14.304

>  <name>  (46) 
46

>  <ligand_id>  (46) 
46

>  <original_smiles>  (46) 
[H]c1sc(N([H])C(=O)N2C([H])([H])C([H])([H])C([H])([H])C([H])(n3nc(-c4c([H])c([H])c(Oc5c([H])c([H])c(F)c([H])c5F)c([H])c4[H])c(C(=O)N([H])[H])c3N([H])[H])C2([H])[H])nc1N([H])C([H])([H])C(=O)C([H])([H])Oc1c([H])c([H])c2c(c1[H])C([H])([H])N(C(=O)C([H])(N([H])C(=O)C([H])(N([H])C([H])([H])[H])C([H])([H])[H])C(C([H])([H])[H])(C([H])([H])[H])C([H])([H])[H])C([H])(C(=O)N([H])C1([H])c3c([H])c([H])c([H])c([H])c3C([H])([H])C([H])([H])C1([H])[H])C2([H])[H]

>  <smiles>  (46) 
[H]c1sc(N([H])C(=O)N2C([H])([H])C([H])([H])C([H])([H])C([H])(n3nc(-c4c([H])c([H])c(Oc5c([H])c([H])c(F)c([H])c5F)c([H])c4[H])c(C(=O)N([H])[H])c3N([H])[H])C2([H])[H])nc1N([H])C([H])([H])C(=O)C([H])([H])Oc1c([H])c([H])c2c(c1[H])C([H])([H])N(C(=O)C([H])(N([H])C(=O)C([H])(N([H])C([H])([H])[H])C([H])([H])[H])C(C([H])([H])[H])(C([H])([H])[H])C([H])([H])[H])C([H])(C(=O)N([H])C1([H])c3c([H])c([H])c([H])c([H])c3C([H])([H])C([H])([H])C1([H])[H])C2([H])[H]

$$$$
47:0:0
     RDKit          3D

 93102  0  0  1  0  0  0  0  0999 V2000
  -29.3310  -17.8490   20.9920 C   0  0  0  0  0  3  0  0  0  0  0  0
  -31.4550  -17.6350   19.8670 C   0  0  0  0  0  3  0  0  0  0  0  0
  -29.3750  -19.2310   20.7050 C   0  0  0  0  0  0  0  0  0  0  0  0
  -30.3840  -17.0150   20.5580 C   0  0  0  0  0  0  0  0  0  0  0  0
  -30.4750  -19.7320   19.9840 C   0  0  0  0  0  0  0  0  0  0  0  0
  -28.2430  -20.1580   21.1400 C   0  0  0  0  0  2  0  0  0  0  0  0
  -28.6160  -21.6470   21.0100 C   0  0  0  0  0  2  0  0  0  0  0  0
  -29.3690  -21.9100   19.6930 C   0  0  0  0  0  3  0  0  0  0  0  0
  -31.4960  -18.9570   19.5870 N   0  0  0  0  0  0  0  0  0  0  0  0
  -30.5730  -21.0830   19.6390 N   0  0  0  0  0  0  0  0  0  0  0  0
  -31.3240  -21.3590   19.0170 H   0  0  0  0  0  0  0  0  0  0  0  0
  -30.9730  -14.6040   20.2190 C   0  0  0  0  0  0  0  0  0  0  0  0
  -30.6770  -12.4230   19.1130 C   0  0  0  0  0  2  0  0  0  0  0  0
  -29.7450  -12.6180   17.9000 C   0  0  0  0  0  2  0  0  0  0  0  0
  -28.2680  -12.4930   18.3220 C   0  0  0  0  0  2  0  0  0  0  0  0
  -27.9270  -13.3490   19.5700 C   0  0  0  0  0  3  0  0  0  0  0  0
  -28.9740  -13.1400   20.6890 C   0  0  0  0  0  2  0  0  0  0  0  0
  -30.3060  -13.4240   20.1260 N   0  0  0  0  0  0  0  0  0  0  0  0
  -32.0900  -14.7740   19.7250 O   0  0  0  0  0  0  0  0  0  0  0  0
  -30.2860  -15.6050   20.8040 N   0  0  0  0  0  0  0  0  0  0  0  0
  -29.4490  -15.3010   21.2780 H   0  0  0  0  0  0  0  0  0  0  0  0
  -25.5320  -13.9770   20.2730 C   0  0  0  0  0  0  0  0  0  0  0  0
  -24.4560  -13.2140   20.6420 C   0  0  0  0  0  0  0  0  0  0  0  0
  -24.9060  -11.8580   20.6120 C   0  0  0  0  0  0  0  0  0  0  0  0
  -26.5690  -13.0870   20.0450 N   0  0  0  0  0  0  0  0  0  0  0  0
  -26.1960  -11.8070   20.3040 N   0  0  0  0  0  0  0  0  0  0  0  0
  -24.1700  -10.6020   20.8040 C   0  0  0  0  0  0  0  0  0  0  0  0
  -24.5930   -9.6350   21.7440 C   0  0  0  0  0  3  0  0  0  0  0  0
  -23.8590   -8.4420   21.9230 C   0  0  0  0  0  3  0  0  0  0  0  0
  -22.6890   -8.2080   21.1630 C   0  0  0  0  0  0  0  0  0  0  0  0
  -22.2850   -9.1630   20.2130 C   0  0  0  0  0  3  0  0  0  0  0  0
  -23.0190  -10.3470   20.0320 C   0  0  0  0  0  3  0  0  0  0  0  0
  -21.9270   -7.0680   21.2510 O   0  0  0  0  0  0  0  0  0  0  0  0
  -21.8640   -6.3320   22.4070 C   0  0  0  0  0  0  0  0  0  0  0  0
  -21.3900   -6.8860   23.6170 C   0  0  0  0  0  3  0  0  0  0  0  0
  -21.2740   -6.0760   24.7640 C   0  0  0  0  0  3  0  0  0  0  0  0
  -21.6210   -4.7130   24.7030 C   0  0  0  0  0  0  0  0  0  0  0  0
  -22.0890   -4.1590   23.4980 C   0  0  0  0  0  3  0  0  0  0  0  0
  -22.2060   -4.9660   22.3530 C   0  0  0  0  0  0  0  0  0  0  0  0
  -22.6370   -4.4220   21.1900 F   0  0  0  0  0  0  0  0  0  0  0  0
  -21.5030   -3.9340   25.8030 F   0  0  0  0  0  0  0  0  0  0  0  0
  -23.0630  -13.7020   20.9150 C   0  0  0  0  0  0  0  0  0  0  0  0
  -22.3320  -13.0180   21.7880 N   0  0  0  0  0  0  0  0  0  0  0  0
  -22.6300  -14.7260   20.3880 O   0  0  0  0  0  0  0  0  0  0  0  0
  -22.6940  -12.1890   22.2370 H   0  0  0  0  0  0  0  0  0  0  0  0
  -21.3970  -13.3280   22.0120 H   0  0  0  0  0  0  0  0  0  0  0  0
  -25.7090  -15.3460   20.0940 N   0  0  0  0  0  0  0  0  0  0  0  0
  -24.9480  -16.0080   20.1990 H   0  0  0  0  0  0  0  0  0  0  0  0
  -26.5600  -15.7720   19.7520 H   0  0  0  0  0  0  0  0  0  0  0  0
  -29.7320  -23.3950   19.4450 C   0  0  0  0  0  2  0  0  0  0  0  0
  -28.5590  -24.4050   19.5020 C   0  0  0  0  0  2  0  0  0  0  0  0
  -28.9250  -25.7850   18.9000 C   0  0  0  0  0  2  0  0  0  0  0  0
  -28.6530  -26.8850   19.7710 O   0  0  0  0  0  0  0  0  0  0  0  0
  -24.4800  -31.6360   23.0010 C   0  0  0  0  0  0  0  0  0  0  0  0
  -27.4230  -27.5130   19.7480 C   0  0  0  0  0  0  0  0  0  0  0  0
  -23.3960  -30.2990   21.2250 C   0  0  0  0  0  3  0  0  0  0  0  0
  -24.9630  -28.9130   19.7650 C   0  0  0  0  0  0  0  0  0  0  0  0
  -25.9090  -30.7660   21.1540 C   0  0  0  0  0  2  0  0  0  0  0  0
  -26.0720  -29.4430   20.4340 C   0  0  0  0  0  0  0  0  0  0  0  0
  -27.2990  -28.7450   20.4290 C   0  0  0  0  0  3  0  0  0  0  0  0
  -26.2890  -26.9860   19.0890 C   0  0  0  0  0  3  0  0  0  0  0  0
  -25.0640  -27.6820   19.0950 C   0  0  0  0  0  3  0  0  0  0  0  0
  -23.6850  -29.7200   19.8130 C   0  0  0  0  0  2  0  0  0  0  0  0
  -24.6110  -30.9120   21.8540 N   0  0  0  0  0  0  0  0  0  0  0  0
  -23.3690  -31.8310   23.5130 O   0  0  0  0  0  0  0  0  0  0  0  0
  -22.7510  -29.1930   22.0890 C   0  0  0  0  0  0  0  0  0  0  0  0
  -21.4250  -29.0290   21.9570 N   0  0  0  0  0  0  0  0  0  0  0  0
  -23.4400  -28.4900   22.8340 O   0  0  0  0  0  0  0  0  0  0  0  0
  -20.9320  -29.6520   21.3330 H   0  0  0  0  0  0  0  0  0  0  0  0
  -18.0380  -27.8780   22.4550 C   0  0  0  0  0  0  0  0  0  0  0  0
  -20.6100  -28.0250   22.6410 C   0  0  0  0  0  3  0  0  0  0  0  0
  -20.6410  -26.6760   21.8860 C   0  0  0  0  0  2  0  0  0  0  0  0
  -19.4880  -26.5160   20.8910 C   0  0  0  0  0  2  0  0  0  0  0  0
  -18.1400  -26.6190   21.6100 C   0  0  0  0  0  2  0  0  0  0  0  0
  -19.1980  -28.5470   22.9260 C   0  0  0  0  0  0  0  0  0  0  0  0
  -19.0480  -29.7320   23.6770 C   0  0  0  0  0  3  0  0  0  0  0  0
  -17.7690  -30.2480   23.9610 C   0  0  0  0  0  3  0  0  0  0  0  0
  -16.6230  -29.5730   23.5060 C   0  0  0  0  0  3  0  0  0  0  0  0
  -16.7580  -28.3880   22.7590 C   0  0  0  0  0  3  0  0  0  0  0  0
  -25.7170  -32.2720   23.7130 C   0  0  0  0  0  3  0  0  0  0  0  0
  -26.1830  -31.4660   24.9870 C   0  0  1  0  0  0  0  0  0  0  0  0
  -25.0440  -31.1730   25.9910 C   0  0  0  0  0  1  0  0  0  0  0  0
  -26.8100  -30.1140   24.5750 C   0  0  0  0  0  1  0  0  0  0  0  0
  -27.2840  -32.2570   25.7320 C   0  0  0  0  0  1  0  0  0  0  0  0
  -25.3570  -33.6500   24.0720 N   0  0  0  0  0  0  0  0  0  0  0  0
  -25.6950  -34.7330   23.3590 C   0  0  0  0  0  0  0  0  0  0  0  0
  -26.4120  -34.6800   22.3560 O   0  0  0  0  0  0  0  0  0  0  0  0
  -24.7230  -33.7640   24.8480 H   0  0  0  0  0  0  0  0  0  0  0  0
  -23.9290  -36.4860   22.9920 C   0  0  0  0  0  1  0  0  0  0  0  0
  -25.1510  -36.0940   23.8360 C   0  0  0  0  0  3  0  0  0  0  0  0
  -27.2210  -37.0230   24.7760 C   0  0  0  0  0  1  0  0  0  0  0  0
  -26.1560  -37.1790   23.7890 N   0  0  0  0  0  0  0  0  0  0  0  0
  -25.7150  -38.0830   23.9370 H   0  0  0  0  0  0  0  0  0  0  0  0
  2  4  1  0
  3  1  1  0
  3  6  1  0
  4 20  1  0
  4  1  2  0
  5  3  2  0
  7  6  1  0
  8 50  1  0
  8  7  1  0
  9  2  2  0
  9  5  1  0
 10  8  1  0
 10  5  1  0
 11 10  1  0
 12 20  1  0
 13 18  1  0
 14 15  1  0
 14 13  1  0
 16 15  1  0
 16 25  1  0
 16 17  1  0
 18 12  1  0
 18 17  1  0
 19 12  2  0
 20 21  1  0
 22 23  2  0
 23 42  1  0
 24 23  1  0
 24 27  1  0
 25 22  1  0
 25 26  1  0
 26 24  2  0
 27 28  1  0
 28 29  2  0
 30 33  1  0
 30 29  1  0
 31 30  2  0
 32 31  1  0
 32 27  2  0
 33 34  1  0
 34 35  1  0
 35 36  2  0
 37 36  1  0
 37 41  1  0
 38 37  2  0
 39 34  2  0
 39 38  1  0
 40 39  1  0
 42 43  1  0
 43 46  1  0
 43 45  1  0
 44 42  2  0
 47 48  1  0
 47 22  1  0
 49 47  1  0
 50 51  1  0
 52 51  1  0
 52 53  1  0
 54 65  2  0
 55 53  1  0
 55 60  1  0
 56 64  1  0
 56 66  1  0
 57 63  1  0
 57 59  1  0
 58 64  1  0
 59 58  1  0
 60 59  2  0
 61 62  1  0
 61 55  2  0
 62 57  2  0
 63 56  1  0
 64 54  1  0
 66 68  2  0
 67 66  1  0
 69 67  1  0
 70 79  2  0
 70 75  1  0
 71 67  1  0
 71 75  1  0
 72 71  1  0
 73 74  1  0
 73 72  1  0
 74 70  1  0
 75 76  2  0
 76 77  1  0
 78 77  2  0
 79 78  1  0
 80 54  1  0
 80 85  1  0
 80 81  1  0
 81 84  1  1
 81 82  1  0
 83 81  1  0
 85 88  1  0
 86 90  1  0
 86 85  1  0
 87 86  2  0
 90 89  1  0
 92 90  1  0
 92 93  1  0
 92 91  1  0
M  ISO  4  12 100  20 100  52 101  53 101
M  END
>  <TORSDO>  (47) 
F 19

>  <SCORE>  (47) 
-13.137

>  <name>  (47) 
47

>  <ligand_id>  (47) 
47

>  <original_smiles>  (47) 
[H]c1nc2c(c([H])c1N([H])C(=O)N1C([H])([H])C([H])([H])C([H])([H])C([H])(n3nc(-c4c([H])c([H])c(Oc5c([H])c([H])c(F)c([H])c5F)c([H])c4[H])c(C(=O)N([H])[H])c3N([H])[H])C1([H])[H])C([H])([H])C([H])([H])C([H])(C([H])([H])C([H])([H])C([H])([H])Oc1c([H])c([H])c3c(c1[H])C([H])([H])N(C(=O)C([H])(N([H])C(=O)C([H])(N([H])C([H])([H])[H])C([H])([H])[H])C(C([H])([H])[H])(C([H])([H])[H])C([H])([H])[H])C([H])(C(=O)N([H])C1([H])c4c([H])c([H])c([H])c([H])c4C([H])([H])C([H])([H])C1([H])[H])C3([H])[H])N2[H]

>  <smiles>  (47) 
[H]c1nc2c(c([H])c1N([H])C(=O)N1C([H])([H])C([H])([H])C([H])([H])C([H])(n3nc(-c4c([H])c([H])c(Oc5c([H])c([H])c(F)c([H])c5F)c([H])c4[H])c(C(=O)N([H])[H])c3N([H])[H])C1([H])[H])C([H])([H])C([H])([H])C([H])(C([H])([H])C([H])([H])C([H])([H])Oc1c([H])c([H])c3c(c1[H])C([H])([H])N(C(=O)C([H])(N([H])C(=O)C([H])(N([H])C([H])([H])[H])C([H])([H])[H])C(C([H])([H])[H])(C([H])([H])[H])C([H])([H])[H])C([H])(C(=O)N([H])C1([H])c4c([H])c([H])c([H])c([H])c4C([H])([H])C([H])([H])C1([H])[H])C3([H])[H])N2[H]

$$$$
48:0:0
     RDKit          3D

 95103  0  0  1  0  0  0  0  0999 V2000
  -29.5330  -18.8250   18.0060 C   0  0  0  0  0  3  0  0  0  0  0  0
  -30.0970  -17.7600   18.7270 C   0  0  0  0  0  3  0  0  0  0  0  0
  -29.4030  -20.0940   18.5960 C   0  0  0  0  0  3  0  0  0  0  0  0
  -30.3690  -19.2300   20.6730 C   0  0  0  0  0  0  0  0  0  0  0  0
  -30.5350  -17.9390   20.0550 C   0  0  0  0  0  0  0  0  0  0  0  0
  -29.8060  -20.3290   19.9320 C   0  0  0  0  0  0  0  0  0  0  0  0
  -30.7330  -19.3970   22.1100 C   0  0  0  0  0  0  0  0  0  0  0  0
  -31.8660  -20.3660   22.4270 C   0  0  0  0  0  1  0  0  0  0  0  0
  -30.2000  -18.7620   23.0250 O   0  0  0  0  0  0  0  0  0  0  0  0
  -29.6220  -21.6280   20.4800 N   0  0  0  0  0  0  0  0  0  0  0  0
  -29.8440  -21.8220   21.4510 H   0  0  0  0  0  0  0  0  0  0  0  0
  -29.5490  -22.8390   19.6340 C   0  0  0  0  0  2  0  0  0  0  0  0
  -29.2700  -24.1560   20.4050 C   0  0  0  0  0  0  0  0  0  0  0  0
  -29.0730  -24.1370   21.6260 O   0  0  0  0  0  0  0  0  0  0  0  0
  -29.2680  -25.4790   19.5920 C   0  0  0  0  0  2  0  0  0  0  0  0
  -28.9960  -26.6570   20.3880 O   0  0  0  0  0  0  0  0  0  0  0  0
  -24.7290  -31.6020   23.2590 C   0  0  0  0  0  0  0  0  0  0  0  0
  -27.7750  -27.3080   20.3020 C   0  0  0  0  0  0  0  0  0  0  0  0
  -23.6930  -30.1550   21.5400 C   0  0  0  0  0  3  0  0  0  0  0  0
  -25.3060  -28.7050   20.1920 C   0  0  0  0  0  0  0  0  0  0  0  0
  -26.2070  -30.6400   21.4910 C   0  0  0  0  0  2  0  0  0  0  0  0
  -26.4010  -29.2770   20.8500 C   0  0  0  0  0  0  0  0  0  0  0  0
  -27.6340  -28.5840   20.9050 C   0  0  0  0  0  3  0  0  0  0  0  0
  -26.6520  -26.7490   19.6520 C   0  0  0  0  0  3  0  0  0  0  0  0
  -25.4270  -27.4410   19.5910 C   0  0  0  0  0  3  0  0  0  0  0  0
  -24.0170  -29.4980   20.1730 C   0  0  0  0  0  2  0  0  0  0  0  0
  -24.8900  -30.8170   22.1560 N   0  0  0  0  0  0  0  0  0  0  0  0
  -23.6060  -31.8120   23.7390 O   0  0  0  0  0  0  0  0  0  0  0  0
  -23.0440  -29.0920   22.4560 C   0  0  0  0  0  0  0  0  0  0  0  0
  -21.7380  -28.8490   22.2590 N   0  0  0  0  0  0  0  0  0  0  0  0
  -23.7150  -28.4880   23.2970 O   0  0  0  0  0  0  0  0  0  0  0  0
  -21.2590  -29.3960   21.5580 H   0  0  0  0  0  0  0  0  0  0  0  0
  -18.4070  -27.4710   22.5470 C   0  0  0  0  0  0  0  0  0  0  0  0
  -20.9280  -27.8630   22.9730 C   0  0  0  0  0  3  0  0  0  0  0  0
  -21.1390  -26.4430   22.3960 C   0  0  0  0  0  2  0  0  0  0  0  0
  -20.1190  -26.0710   21.3140 C   0  0  0  0  0  2  0  0  0  0  0  0
  -18.6940  -26.1380   21.8770 C   0  0  0  0  0  2  0  0  0  0  0  0
  -19.4570  -28.2870   23.0460 C   0  0  0  0  0  0  0  0  0  0  0  0
  -19.1380  -29.5340   23.6300 C   0  0  0  0  0  3  0  0  0  0  0  0
  -17.8010  -29.9650   23.7190 C   0  0  0  0  0  3  0  0  0  0  0  0
  -16.7650  -29.1460   23.2360 C   0  0  0  0  0  3  0  0  0  0  0  0
  -17.0680  -27.9000   22.6590 C   0  0  0  0  0  3  0  0  0  0  0  0
  -25.9430  -32.2940   23.9570 C   0  0  0  0  0  3  0  0  0  0  0  0
  -25.5630  -33.6870   24.2260 N   0  0  0  0  0  0  0  0  0  0  0  0
  -25.9230  -34.7330   23.4690 C   0  0  0  0  0  0  0  0  0  0  0  0
  -26.6780  -34.6290   22.4990 O   0  0  0  0  0  0  0  0  0  0  0  0
  -24.9020  -33.8350   24.9740 H   0  0  0  0  0  0  0  0  0  0  0  0
  -24.1720  -36.4550   22.9230 C   0  0  0  0  0  1  0  0  0  0  0  0
  -25.3530  -36.1140   23.8470 C   0  0  0  0  0  3  0  0  0  0  0  0
  -27.3830  -37.0910   24.8240 C   0  0  0  0  0  1  0  0  0  0  0  0
  -26.3550  -37.2020   23.7920 N   0  0  0  0  0  0  0  0  0  0  0  0
  -25.9070  -38.1090   23.8850 H   0  0  0  0  0  0  0  0  0  0  0  0
  -26.3900  -31.5730   25.2880 C   0  0  1  0  0  0  0  0  0  0  0  0
  -25.2310  -31.3320   26.2850 C   0  0  0  0  0  1  0  0  0  0  0  0
  -27.0360  -30.2030   24.9740 C   0  0  0  0  0  1  0  0  0  0  0  0
  -27.4710  -32.4160   26.0050 C   0  0  0  0  0  1  0  0  0  0  0  0
  -31.2850  -16.7580   20.7260 C   0  0  0  0  0  2  0  0  0  0  0  0
  -31.4360  -14.3360   19.9560 C   0  0  0  0  0  0  0  0  0  0  0  0
  -30.9620  -12.1610   18.8820 C   0  0  0  0  0  2  0  0  0  0  0  0
  -29.9810  -12.3900   17.7130 C   0  0  0  0  0  2  0  0  0  0  0  0
  -28.5210  -12.3880   18.2070 C   0  0  0  0  0  2  0  0  0  0  0  0
  -28.3040  -13.2900   19.4510 C   0  0  0  0  0  3  0  0  0  0  0  0
  -29.3790  -13.0020   20.5220 C   0  0  0  0  0  2  0  0  0  0  0  0
  -30.6960  -13.1970   19.8910 N   0  0  0  0  0  0  0  0  0  0  0  0
  -32.5690  -14.4290   19.4760 O   0  0  0  0  0  0  0  0  0  0  0  0
  -30.7760  -15.4030   20.4540 N   0  0  0  0  0  0  0  0  0  0  0  0
  -29.8330  -15.2180   20.7610 H   0  0  0  0  0  0  0  0  0  0  0  0
  -26.0330  -14.1370   20.3130 C   0  0  0  0  0  0  0  0  0  0  0  0
  -24.9000  -13.4760   20.7060 C   0  0  0  0  0  0  0  0  0  0  0  0
  -25.1970  -12.0840   20.5910 C   0  0  0  0  0  0  0  0  0  0  0  0
  -26.9530  -13.1530   19.9880 N   0  0  0  0  0  0  0  0  0  0  0  0
  -26.4560  -11.9090   20.2120 N   0  0  0  0  0  0  0  0  0  0  0  0
  -24.3380  -10.9040   20.7610 C   0  0  0  0  0  0  0  0  0  0  0  0
  -24.6860   -9.8600   21.6460 C   0  0  0  0  0  3  0  0  0  0  0  0
  -23.8330   -8.7450   21.8070 C   0  0  0  0  0  3  0  0  0  0  0  0
  -22.6190   -8.6680   21.0820 C   0  0  0  0  0  0  0  0  0  0  0  0
  -22.2900   -9.7010   20.1870 C   0  0  0  0  0  3  0  0  0  0  0  0
  -23.1410  -10.8070   20.0230 C   0  0  0  0  0  3  0  0  0  0  0  0
  -21.7440   -7.6120   21.1540 O   0  0  0  0  0  0  0  0  0  0  0  0
  -21.5980   -6.8770   22.3030 C   0  0  0  0  0  0  0  0  0  0  0  0
  -21.2250   -7.4730   23.5270 C   0  0  0  0  0  3  0  0  0  0  0  0
  -21.0180   -6.6700   24.6660 C   0  0  0  0  0  3  0  0  0  0  0  0
  -21.1750   -5.2730   24.5830 C   0  0  0  0  0  0  0  0  0  0  0  0
  -21.5400   -4.6780   23.3630 C   0  0  0  0  0  3  0  0  0  0  0  0
  -21.7490   -5.4780   22.2250 C   0  0  0  0  0  0  0  0  0  0  0  0
  -22.0810   -4.8970   21.0470 F   0  0  0  0  0  0  0  0  0  0  0  0
  -20.9690   -4.5000   25.6760 F   0  0  0  0  0  0  0  0  0  0  0  0
  -23.5840  -14.0960   21.0740 C   0  0  0  0  0  0  0  0  0  0  0  0
  -22.8350  -13.4590   21.9700 N   0  0  0  0  0  0  0  0  0  0  0  0
  -23.2320  -15.1770   20.6040 O   0  0  0  0  0  0  0  0  0  0  0  0
  -23.1320  -12.5820   22.3690 H   0  0  0  0  0  0  0  0  0  0  0  0
  -21.9530  -13.8560   22.2600 H   0  0  0  0  0  0  0  0  0  0  0  0
  -26.3490  -15.4860   20.1840 N   0  0  0  0  0  0  0  0  0  0  0  0
  -25.6620  -16.2150   20.3430 H   0  0  0  0  0  0  0  0  0  0  0  0
  -27.2170  -15.8390   19.8000 H   0  0  0  0  0  0  0  0  0  0  0  0
  1  3  2  0
  1  2  1  0
  2  5  2  0
  3  6  1  0
  4  7  1  0
  5  4  1  0
  5 57  1  0
  6 10  1  0
  6  4  2  0
  7  8  1  0
  7  9  2  0
 10 11  1  0
 12 13  1  0
 12 10  1  0
 13 14  2  0
 15 16  1  0
 15 13  1  0
 17 28  2  0
 18 16  1  0
 18 23  1  0
 19 27  1  0
 19 29  1  0
 20 22  1  0
 21 27  1  0
 22 23  2  0
 22 21  1  0
 24 18  2  0
 25 24  1  0
 25 20  2  0
 26 20  1  0
 26 19  1  0
 27 17  1  0
 29 31  2  0
 30 29  1  0
 32 30  1  0
 33 42  2  0
 33 38  1  0
 34 30  1  0
 34 38  1  0
 35 34  1  0
 36 37  1  0
 36 35  1  0
 37 33  1  0
 38 39  2  0
 39 40  1  0
 41 40  2  0
 42 41  1  0
 43 17  1  0
 43 44  1  0
 43 53  1  0
 44 47  1  0
 45 49  1  0
 45 44  1  0
 46 45  2  0
 49 48  1  0
 51 49  1  0
 51 52  1  0
 51 50  1  0
 53 56  1  1
 53 54  1  0
 55 53  1  0
 58 66  1  0
 59 64  1  0
 60 61  1  0
 60 59  1  0
 62 61  1  0
 62 71  1  0
 62 63  1  0
 64 58  1  0
 64 63  1  0
 65 58  2  0
 66 57  1  0
 66 67  1  0
 68 69  2  0
 69 88  1  0
 70 69  1  0
 70 73  1  0
 71 72  1  0
 71 68  1  0
 72 70  2  0
 73 74  1  0
 74 75  2  0
 76 79  1  0
 76 75  1  0
 77 76  2  0
 78 77  1  0
 78 73  2  0
 79 80  1  0
 80 81  1  0
 81 82  2  0
 83 82  1  0
 83 87  1  0
 84 83  2  0
 85 80  2  0
 85 84  1  0
 86 85  1  0
 88 89  1  0
 89 92  1  0
 89 91  1  0
 90 88  2  0
 93 68  1  0
 93 94  1  0
 95 93  1  0
M  ISO  4  15 101  16 101  58 100  66 100
M  END
>  <TORSDO>  (48) 
F 22

>  <SCORE>  (48) 
-11.552

>  <name>  (48) 
48

>  <ligand_id>  (48) 
48

>  <original_smiles>  (48) 
[H]c1c([H])c(N([H])C([H])([H])C(=O)C([H])([H])Oc2c([H])c([H])c3c(c2[H])C([H])([H])N(C(=O)C([H])(N([H])C(=O)C([H])(N([H])C([H])([H])[H])C([H])([H])[H])C(C([H])([H])[H])(C([H])([H])[H])C([H])([H])[H])C([H])(C(=O)N([H])C2([H])c4c([H])c([H])c([H])c([H])c4C([H])([H])C([H])([H])C2([H])[H])C3([H])[H])c(C(=O)C([H])([H])[H])c(C([H])([H])N([H])C(=O)N2C([H])([H])C([H])([H])C([H])([H])C([H])(n3nc(-c4c([H])c([H])c(Oc5c([H])c([H])c(F)c([H])c5F)c([H])c4[H])c(C(=O)N([H])[H])c3N([H])[H])C2([H])[H])c1[H]

>  <smiles>  (48) 
[H]c1c([H])c(N([H])C([H])([H])C(=O)C([H])([H])Oc2c([H])c([H])c3c(c2[H])C([H])([H])N(C(=O)C([H])(N([H])C(=O)C([H])(N([H])C([H])([H])[H])C([H])([H])[H])C(C([H])([H])[H])(C([H])([H])[H])C([H])([H])[H])C([H])(C(=O)N([H])C2([H])c4c([H])c([H])c([H])c([H])c4C([H])([H])C([H])([H])C2([H])[H])C3([H])[H])c(C(=O)C([H])([H])[H])c(C([H])([H])N([H])C(=O)N2C([H])([H])C([H])([H])C([H])([H])C([H])(n3nc(-c4c([H])c([H])c(Oc5c([H])c([H])c(F)c([H])c5F)c([H])c4[H])c(C(=O)N([H])[H])c3N([H])[H])C2([H])[H])c1[H]

$$$$
49:0:0
     RDKit          3D

 96104  0  0  1  0  0  0  0  0999 V2000
  -30.2350  -21.2770   20.7490 C   0  0  0  0  0  0  0  0  0  0  0  0
  -29.3080  -21.9540   21.4520 N   0  0  0  0  0  0  0  0  0  0  0  0
  -31.1430  -21.8670   20.1590 O   0  0  0  0  0  0  0  0  0  0  0  0
  -28.5730  -21.4260   21.8990 H   0  0  0  0  0  0  0  0  0  0  0  0
  -30.6920  -14.5320   20.2580 C   0  0  0  0  0  0  0  0  0  0  0  0
  -30.3750  -12.3980   19.0510 C   0  0  0  0  0  2  0  0  0  0  0  0
  -29.3910  -12.6370   17.8860 C   0  0  0  0  0  2  0  0  0  0  0  0
  -27.9310  -12.4900   18.3580 C   0  0  0  0  0  2  0  0  0  0  0  0
  -27.6370  -13.2910   19.6540 C   0  0  0  0  0  3  0  0  0  0  0  0
  -28.7250  -13.0200   20.7190 C   0  0  0  0  0  2  0  0  0  0  0  0
  -30.0340  -13.3470   20.1240 N   0  0  0  0  0  0  0  0  0  0  0  0
  -31.8050  -14.7260   19.7550 O   0  0  0  0  0  0  0  0  0  0  0  0
  -28.9530  -19.0750   20.9120 C   0  0  0  0  0  3  0  0  0  0  0  0
  -28.9150  -17.6640   20.9430 C   0  0  0  0  0  3  0  0  0  0  0  0
  -30.1870  -19.7540   20.7940 C   0  0  0  0  0  0  0  0  0  0  0  0
  -30.1070  -16.9200   20.8210 C   0  0  0  0  0  0  0  0  0  0  0  0
  -31.3370  -18.9210   20.6920 C   0  0  0  0  0  0  0  0  0  0  0  0
  -31.2930  -17.5690   20.7060 N   0  0  0  0  0  0  0  0  0  0  0  0
  -29.9640  -15.5000   20.8560 N   0  0  0  0  0  0  0  0  0  0  0  0
  -29.0770  -15.1710   21.2000 H   0  0  0  0  0  0  0  0  0  0  0  0
  -25.2590  -13.8930   20.4320 C   0  0  0  0  0  0  0  0  0  0  0  0
  -24.2020  -13.1180   20.8260 C   0  0  0  0  0  0  0  0  0  0  0  0
  -24.6620  -11.7670   20.7710 C   0  0  0  0  0  0  0  0  0  0  0  0
  -26.2970  -13.0140   20.1660 N   0  0  0  0  0  0  0  0  0  0  0  0
  -25.9420  -11.7300   20.4260 N   0  0  0  0  0  0  0  0  0  0  0  0
  -23.9420  -10.5030   20.9710 C   0  0  0  0  0  0  0  0  0  0  0  0
  -24.3850   -9.5410   21.9040 C   0  0  0  0  0  3  0  0  0  0  0  0
  -23.6660   -8.3400   22.0910 C   0  0  0  0  0  3  0  0  0  0  0  0
  -22.4910   -8.0940   21.3430 C   0  0  0  0  0  0  0  0  0  0  0  0
  -22.0670   -9.0440   20.3990 C   0  0  0  0  0  3  0  0  0  0  0  0
  -22.7860  -10.2360   20.2100 C   0  0  0  0  0  3  0  0  0  0  0  0
  -21.7440   -6.9450   21.4390 O   0  0  0  0  0  0  0  0  0  0  0  0
  -21.6820   -6.2210   22.6030 C   0  0  0  0  0  0  0  0  0  0  0  0
  -21.1980   -6.7830   23.8050 C   0  0  0  0  0  3  0  0  0  0  0  0
  -21.0860   -5.9840   24.9610 C   0  0  0  0  0  3  0  0  0  0  0  0
  -21.4480   -4.6240   24.9150 C   0  0  0  0  0  0  0  0  0  0  0  0
  -21.9250   -4.0620   23.7180 C   0  0  0  0  0  3  0  0  0  0  0  0
  -22.0390   -4.8580   22.5640 C   0  0  0  0  0  0  0  0  0  0  0  0
  -22.4790   -4.3070   21.4080 F   0  0  0  0  0  0  0  0  0  0  0  0
  -21.3340   -3.8540   26.0220 F   0  0  0  0  0  0  0  0  0  0  0  0
  -22.8120  -13.5920   21.1430 C   0  0  0  0  0  0  0  0  0  0  0  0
  -22.1080  -12.8840   22.0180 N   0  0  0  0  0  0  0  0  0  0  0  0
  -22.3600  -14.6240   20.6480 O   0  0  0  0  0  0  0  0  0  0  0  0
  -22.4860  -12.0490   22.4390 H   0  0  0  0  0  0  0  0  0  0  0  0
  -21.1760  -13.1820   22.2720 H   0  0  0  0  0  0  0  0  0  0  0  0
  -25.4170  -15.2660   20.2570 N   0  0  0  0  0  0  0  0  0  0  0  0
  -24.6450  -15.9120   20.3730 H   0  0  0  0  0  0  0  0  0  0  0  0
  -26.2330  -15.6970   19.8430 H   0  0  0  0  0  0  0  0  0  0  0  0
  -32.6350  -19.4060   20.5940 N   0  0  0  0  0  0  0  0  0  0  0  0
  -32.7370  -20.3730   20.2990 H   0  0  0  0  0  0  0  0  0  0  0  0
  -33.3490  -18.7830   20.2350 H   0  0  0  0  0  0  0  0  0  0  0  0
  -29.3930  -23.3820   21.8230 C   0  0  0  0  0  2  0  0  0  0  0  0
  -28.7970  -24.3720   20.8010 C   0  0  0  0  0  0  0  0  0  0  0  0
  -28.4310  -24.0080   19.6770 O   0  0  0  0  0  0  0  0  0  0  0  0
  -28.6660  -25.8400   21.2710 C   0  0  0  0  0  2  0  0  0  0  0  0
  -28.5310  -26.7620   20.1770 O   0  0  0  0  0  0  0  0  0  0  0  0
  -24.5870  -31.8870   23.2100 C   0  0  0  0  0  0  0  0  0  0  0  0
  -27.3660  -27.4900   20.1920 C   0  0  0  0  0  0  0  0  0  0  0  0
  -23.4390  -30.4670   21.5390 C   0  0  0  0  0  3  0  0  0  0  0  0
  -24.9480  -28.9500   20.1500 C   0  0  0  0  0  0  0  0  0  0  0  0
  -25.9610  -30.8670   21.3970 C   0  0  0  0  0  2  0  0  0  0  0  0
  -26.0840  -29.4940   20.7660 C   0  0  0  0  0  0  0  0  0  0  0  0
  -27.2980  -28.7700   20.7880 C   0  0  0  0  0  3  0  0  0  0  0  0
  -26.2190  -26.9560   19.5720 C   0  0  0  0  0  3  0  0  0  0  0  0
  -25.0100  -27.6780   19.5520 C   0  0  0  0  0  3  0  0  0  0  0  0
  -23.6900  -29.7890   20.1660 C   0  0  0  0  0  2  0  0  0  0  0  0
  -24.6790  -31.0890   22.1080 N   0  0  0  0  0  0  0  0  0  0  0  0
  -23.4920  -32.1430   23.7260 O   0  0  0  0  0  0  0  0  0  0  0  0
  -22.7820  -29.4370   22.4860 C   0  0  0  0  0  0  0  0  0  0  0  0
  -21.4560  -29.2650   22.3550 N   0  0  0  0  0  0  0  0  0  0  0  0
  -23.4620  -28.7970   23.2920 O   0  0  0  0  0  0  0  0  0  0  0  0
  -20.9700  -29.8330   21.6760 H   0  0  0  0  0  0  0  0  0  0  0  0
  -18.0670  -28.1280   22.8780 C   0  0  0  0  0  0  0  0  0  0  0  0
  -20.6340  -28.3200   23.1110 C   0  0  0  0  0  3  0  0  0  0  0  0
  -20.6950  -26.9070   22.4870 C   0  0  0  0  0  2  0  0  0  0  0  0
  -19.5680  -26.6420   21.4830 C   0  0  0  0  0  2  0  0  0  0  0  0
  -18.2020  -26.7970   22.1580 C   0  0  0  0  0  2  0  0  0  0  0  0
  -19.2100  -28.8510   23.3110 C   0  0  0  0  0  0  0  0  0  0  0  0
  -19.0310  -30.1000   23.9440 C   0  0  0  0  0  3  0  0  0  0  0  0
  -17.7400  -30.6250   24.1480 C   0  0  0  0  0  3  0  0  0  0  0  0
  -16.6120  -29.8980   23.7320 C   0  0  0  0  0  3  0  0  0  0  0  0
  -16.7760  -28.6510   23.1020 C   0  0  0  0  0  3  0  0  0  0  0  0
  -25.8520  -32.5360   23.8580 C   0  0  0  0  0  3  0  0  0  0  0  0
  -26.3480  -31.7760   25.1490 C   0  0  1  0  0  0  0  0  0  0  0  0
  -25.2320  -31.5260   26.1890 C   0  0  0  0  0  1  0  0  0  0  0  0
  -26.9600  -30.4060   24.7740 C   0  0  0  0  0  1  0  0  0  0  0  0
  -27.4700  -32.5890   25.8370 C   0  0  0  0  0  1  0  0  0  0  0  0
  -25.5210  -33.9320   24.1700 N   0  0  0  0  0  0  0  0  0  0  0  0
  -25.8660  -34.9820   23.4120 C   0  0  0  0  0  0  0  0  0  0  0  0
  -26.5660  -34.8780   22.4010 O   0  0  0  0  0  0  0  0  0  0  0  0
  -24.9030  -34.0870   24.9520 H   0  0  0  0  0  0  0  0  0  0  0  0
  -24.1440  -36.7630   22.9810 C   0  0  0  0  0  1  0  0  0  0  0  0
  -25.3520  -36.3690   23.8450 C   0  0  0  0  0  3  0  0  0  0  0  0
  -27.4390  -37.2720   24.7690 C   0  0  0  0  0  1  0  0  0  0  0  0
  -26.3830  -37.4270   23.7730 N   0  0  0  0  0  0  0  0  0  0  0  0
  -25.9650  -38.3460   23.8930 H   0  0  0  0  0  0  0  0  0  0  0  0
  1 15  1  0
  1  2  1  0
  2 52  1  0
  2  4  1  0
  3  1  2  0
  5 19  1  0
  6 11  1  0
  7  8  1  0
  7  6  1  0
  9  8  1  0
  9 24  1  0
  9 10  1  0
 11  5  1  0
 11 10  1  0
 12  5  2  0
 13 14  1  0
 15 13  2  0
 16 19  1  0
 16 14  2  0
 17 18  2  0
 17 15  1  0
 18 16  1  0
 19 20  1  0
 21 22  2  0
 22 41  1  0
 23 22  1  0
 23 26  1  0
 24 25  1  0
 24 21  1  0
 25 23  2  0
 26 27  1  0
 27 28  2  0
 29 32  1  0
 29 28  1  0
 30 29  2  0
 31 30  1  0
 31 26  2  0
 32 33  1  0
 33 34  1  0
 34 35  2  0
 36 35  1  0
 36 40  1  0
 37 36  2  0
 38 33  2  0
 38 37  1  0
 39 38  1  0
 41 42  1  0
 42 45  1  0
 42 44  1  0
 43 41  2  0
 46 47  1  0
 46 21  1  0
 48 46  1  0
 49 17  1  0
 50 49  1  0
 51 49  1  0
 53 55  1  0
 53 52  1  0
 54 53  2  0
 56 58  1  0
 56 55  1  0
 57 68  2  0
 58 63  1  0
 59 67  1  0
 59 69  1  0
 60 66  1  0
 60 62  1  0
 61 67  1  0
 62 63  2  0
 62 61  1  0
 64 58  2  0
 65 64  1  0
 65 60  2  0
 66 59  1  0
 67 57  1  0
 69 71  2  0
 70 69  1  0
 72 70  1  0
 73 82  2  0
 73 78  1  0
 74 70  1  0
 74 78  1  0
 75 74  1  0
 76 77  1  0
 76 75  1  0
 77 73  1  0
 78 79  2  0
 79 80  1  0
 81 80  2  0
 82 81  1  0
 83 57  1  0
 83 88  1  0
 83 84  1  0
 84 87  1  1
 84 85  1  0
 86 84  1  0
 88 91  1  0
 89 93  1  0
 89 88  1  0
 90 89  2  0
 93 92  1  0
 95 93  1  0
 95 96  1  0
 95 94  1  0
M  ISO  4   5 100  19 100  55 101  56 101
M  END
>  <TORSDO>  (49) 
F 20

>  <SCORE>  (49) 
-14.106

>  <name>  (49) 
49

>  <ligand_id>  (49) 
49

>  <original_smiles>  (49) 
[H]c1c(N([H])C(=O)N2C([H])([H])C([H])([H])C([H])([H])C([H])(n3nc(-c4c([H])c([H])c(Oc5c([H])c([H])c(F)c([H])c5F)c([H])c4[H])c(C(=O)N([H])[H])c3N([H])[H])C2([H])[H])nc(N([H])[H])c(C(=O)N([H])C([H])([H])C(=O)C([H])([H])Oc2c([H])c([H])c3c(c2[H])C([H])([H])N(C(=O)C([H])(N([H])C(=O)C([H])(N([H])C([H])([H])[H])C([H])([H])[H])C(C([H])([H])[H])(C([H])([H])[H])C([H])([H])[H])C([H])(C(=O)N([H])C2([H])c4c([H])c([H])c([H])c([H])c4C([H])([H])C([H])([H])C2([H])[H])C3([H])[H])c1[H]

>  <smiles>  (49) 
[H]c1c(N([H])C(=O)N2C([H])([H])C([H])([H])C([H])([H])C([H])(n3nc(-c4c([H])c([H])c(Oc5c([H])c([H])c(F)c([H])c5F)c([H])c4[H])c(C(=O)N([H])[H])c3N([H])[H])C2([H])[H])nc(N([H])[H])c(C(=O)N([H])C([H])([H])C(=O)C([H])([H])Oc2c([H])c([H])c3c(c2[H])C([H])([H])N(C(=O)C([H])(N([H])C(=O)C([H])(N([H])C([H])([H])[H])C([H])([H])[H])C(C([H])([H])[H])(C([H])([H])[H])C([H])([H])[H])C([H])(C(=O)N([H])C2([H])c4c([H])c([H])c([H])c([H])c4C([H])([H])C([H])([H])C2([H])[H])C3([H])[H])c1[H]

$$$$
50:0:0
     RDKit          3D

 97105  0  0  1  0  0  0  0  0999 V2000
  -29.5630  -21.0040   21.1710 N   0  0  0  0  0  0  0  0  0  0  0  0
  -29.0020  -21.1360   22.0100 H   0  0  0  0  0  0  0  0  0  0  0  0
  -30.1040  -18.8120   21.9970 C   0  0  0  0  0  3  0  0  0  0  0  0
  -31.2620  -19.6330   20.0210 C   0  0  0  0  0  3  0  0  0  0  0  0
  -30.8140  -17.5960   21.9260 C   0  0  0  0  0  0  0  0  0  0  0  0
  -31.7580  -17.3960   20.8850 C   0  0  0  0  0  0  0  0  0  0  0  0
  -30.3160  -19.8320   21.0500 C   0  0  0  0  0  0  0  0  0  0  0  0
  -31.9830  -18.4270   19.9430 C   0  0  0  0  0  0  0  0  0  0  0  0
  -30.5340  -16.5330   22.9770 C   0  0  0  0  0  1  0  0  0  0  0  0
  -32.8880  -18.2660   18.9470 F   0  0  0  0  0  0  0  0  0  0  0  0
  -32.5140  -16.0810   20.7480 C   0  0  0  0  0  2  0  0  0  0  0  0
  -31.6210  -14.2950   19.2700 C   0  0  0  0  0  0  0  0  0  0  0  0
  -30.9690  -12.1260   18.3050 C   0  0  0  0  0  2  0  0  0  0  0  0
  -29.8870  -12.2310   17.2200 C   0  0  0  0  0  2  0  0  0  0  0  0
  -28.4850  -12.2150   17.8540 C   0  0  0  0  0  2  0  0  0  0  0  0
  -28.3440  -13.2460   19.0020 C   0  0  0  0  0  3  0  0  0  0  0  0
  -29.5160  -13.1260   20.0020 C   0  0  0  0  0  2  0  0  0  0  0  0
  -30.7930  -13.2230   19.2650 N   0  0  0  0  0  0  0  0  0  0  0  0
  -32.4320  -14.5380   18.3710 O   0  0  0  0  0  0  0  0  0  0  0  0
  -31.6290  -14.9670   20.4230 N   0  0  0  0  0  0  0  0  0  0  0  0
  -31.0010  -14.6430   21.1420 H   0  0  0  0  0  0  0  0  0  0  0  0
  -26.1900  -14.1030   20.1300 C   0  0  0  0  0  0  0  0  0  0  0  0
  -25.0860  -13.4480   20.6090 C   0  0  0  0  0  0  0  0  0  0  0  0
  -25.3330  -12.0560   20.4030 C   0  0  0  0  0  0  0  0  0  0  0  0
  -27.0500  -13.1160   19.6710 N   0  0  0  0  0  0  0  0  0  0  0  0
  -26.5420  -11.8740   19.8870 N   0  0  0  0  0  0  0  0  0  0  0  0
  -24.4660  -10.8900   20.6120 C   0  0  0  0  0  0  0  0  0  0  0  0
  -24.8100   -9.8670   21.5230 C   0  0  0  0  0  3  0  0  0  0  0  0
  -23.9500   -8.7650   21.7210 C   0  0  0  0  0  3  0  0  0  0  0  0
  -22.7310   -8.6800   21.0070 C   0  0  0  0  0  0  0  0  0  0  0  0
  -22.4040   -9.6890   20.0840 C   0  0  0  0  0  3  0  0  0  0  0  0
  -23.2640  -10.7810   19.8840 C   0  0  0  0  0  3  0  0  0  0  0  0
  -21.8450   -7.6350   21.1150 O   0  0  0  0  0  0  0  0  0  0  0  0
  -21.6320   -6.9920   22.3090 C   0  0  0  0  0  0  0  0  0  0  0  0
  -21.1750   -7.6800   23.4540 C   0  0  0  0  0  3  0  0  0  0  0  0
  -20.9030   -6.9680   24.6400 C   0  0  0  0  0  3  0  0  0  0  0  0
  -21.0780   -5.5720   24.6810 C   0  0  0  0  0  0  0  0  0  0  0  0
  -21.5290   -4.8850   23.5400 C   0  0  0  0  0  3  0  0  0  0  0  0
  -21.8020   -5.5930   22.3560 C   0  0  0  0  0  0  0  0  0  0  0  0
  -22.2150   -4.9240   21.2530 F   0  0  0  0  0  0  0  0  0  0  0  0
  -20.8090   -4.8870   25.8160 F   0  0  0  0  0  0  0  0  0  0  0  0
  -23.8320  -14.0780   21.1410 C   0  0  0  0  0  0  0  0  0  0  0  0
  -23.1640  -13.4170   22.0810 N   0  0  0  0  0  0  0  0  0  0  0  0
  -23.4620  -15.1880   20.7600 O   0  0  0  0  0  0  0  0  0  0  0  0
  -23.4770  -12.5150   22.4060 H   0  0  0  0  0  0  0  0  0  0  0  0
  -22.3260  -13.8180   22.4780 H   0  0  0  0  0  0  0  0  0  0  0  0
  -26.5270  -15.4490   20.0290 N   0  0  0  0  0  0  0  0  0  0  0  0
  -25.8950  -16.1910   20.3080 H   0  0  0  0  0  0  0  0  0  0  0  0
  -27.3840  -15.7940   19.6150 H   0  0  0  0  0  0  0  0  0  0  0  0
  -30.0210  -22.2590   20.5780 C   0  0  0  0  0  2  0  0  0  0  0  0
  -29.0570  -23.4020   20.9170 C   0  0  0  0  0  0  0  0  0  0  0  0
  -28.1290  -23.1670   21.7030 O   0  0  0  0  0  0  0  0  0  0  0  0
  -28.3130  -25.6730   20.4410 C   0  0  0  0  0  3  0  0  0  0  0  0
  -29.2370  -24.7180   20.2650 C   0  0  0  0  0  0  0  0  0  0  0  0
  -30.3180  -24.9240   19.5000 O   0  0  0  0  0  0  0  0  0  0  0  0
  -30.2520  -25.8120   19.1710 H   0  0  0  0  0  0  0  0  0  0  0  0
  -28.3870  -26.9040   19.8520 O   0  0  0  0  0  0  0  0  0  0  0  0
  -24.5480  -31.8050   23.2500 C   0  0  0  0  0  0  0  0  0  0  0  0
  -27.2190  -27.6160   19.8940 C   0  0  0  0  0  0  0  0  0  0  0  0
  -23.3380  -30.4730   21.5500 C   0  0  0  0  0  3  0  0  0  0  0  0
  -24.7950  -29.0390   20.0260 C   0  0  0  0  0  0  0  0  0  0  0  0
  -25.8500  -30.8940   21.3330 C   0  0  0  0  0  2  0  0  0  0  0  0
  -25.9500  -29.5630   20.6220 C   0  0  0  0  0  0  0  0  0  0  0  0
  -27.1690  -28.8570   20.5570 C   0  0  0  0  0  3  0  0  0  0  0  0
  -26.0540  -27.0910   19.2990 C   0  0  0  0  0  3  0  0  0  0  0  0
  -24.8390  -27.7980   19.3650 C   0  0  0  0  0  3  0  0  0  0  0  0
  -23.5360  -29.8680   20.1340 C   0  0  0  0  0  2  0  0  0  0  0  0
  -24.5980  -31.0680   22.1040 N   0  0  0  0  0  0  0  0  0  0  0  0
  -23.4720  -32.0310   23.8180 O   0  0  0  0  0  0  0  0  0  0  0  0
  -22.7180  -29.3920   22.4640 C   0  0  0  0  0  0  0  0  0  0  0  0
  -21.4040  -29.1670   22.3130 N   0  0  0  0  0  0  0  0  0  0  0  0
  -23.4180  -28.7600   23.2600 O   0  0  0  0  0  0  0  0  0  0  0  0
  -20.9010  -29.7320   21.6440 H   0  0  0  0  0  0  0  0  0  0  0  0
  -18.0830  -27.7940   22.6690 C   0  0  0  0  0  0  0  0  0  0  0  0
  -20.6120  -28.1740   23.0370 C   0  0  0  0  0  3  0  0  0  0  0  0
  -20.8070  -26.7620   22.4370 C   0  0  0  0  0  2  0  0  0  0  0  0
  -19.7590  -26.4070   21.3780 C   0  0  0  0  0  2  0  0  0  0  0  0
  -18.3500  -26.4700   21.9740 C   0  0  0  0  0  2  0  0  0  0  0  0
  -19.1450  -28.6020   23.1540 C   0  0  0  0  0  0  0  0  0  0  0  0
  -18.8440  -29.8410   23.7580 C   0  0  0  0  0  3  0  0  0  0  0  0
  -17.5100  -30.2740   23.8870 C   0  0  0  0  0  3  0  0  0  0  0  0
  -16.4610  -29.4630   23.4210 C   0  0  0  0  0  3  0  0  0  0  0  0
  -16.7480  -28.2250   22.8170 C   0  0  0  0  0  3  0  0  0  0  0  0
  -25.8360  -32.4190   23.8830 C   0  0  0  0  0  3  0  0  0  0  0  0
  -25.5310  -33.8100   24.2420 N   0  0  0  0  0  0  0  0  0  0  0  0
  -25.8870  -34.8780   23.5150 C   0  0  0  0  0  0  0  0  0  0  0  0
  -26.5800  -34.7940   22.4970 O   0  0  0  0  0  0  0  0  0  0  0  0
  -24.9190  -33.9500   25.0330 H   0  0  0  0  0  0  0  0  0  0  0  0
  -24.1740  -36.6840   23.1690 C   0  0  0  0  0  1  0  0  0  0  0  0
  -25.3980  -36.2570   23.9950 C   0  0  0  0  0  3  0  0  0  0  0  0
  -27.5240  -37.1080   24.8800 C   0  0  0  0  0  1  0  0  0  0  0  0
  -26.4370  -37.3080   23.9240 N   0  0  0  0  0  0  0  0  0  0  0  0
  -26.0330  -38.2260   24.0900 H   0  0  0  0  0  0  0  0  0  0  0  0
  -26.3550  -31.6170   25.1400 C   0  0  1  0  0  0  0  0  0  0  0  0
  -25.2570  -31.3340   26.1920 C   0  0  0  0  0  1  0  0  0  0  0  0
  -26.9570  -30.2590   24.7080 C   0  0  0  0  0  1  0  0  0  0  0  0
  -27.4910  -32.4050   25.8330 C   0  0  0  0  0  1  0  0  0  0  0  0
  1  2  1  0
  4  7  1  0
  5  3  1  0
  5  9  1  0
  6  5  2  0
  7  1  1  0
  7  3  2  0
  8  4  2  0
  8  6  1  0
 10  8  1  0
 11  6  1  0
 12 20  1  0
 13 18  1  0
 14 15  1  0
 14 13  1  0
 16 15  1  0
 16 25  1  0
 16 17  1  0
 18 12  1  0
 18 17  1  0
 19 12  2  0
 20 11  1  0
 20 21  1  0
 22 23  2  0
 23 42  1  0
 24 23  1  0
 24 27  1  0
 25 26  1  0
 25 22  1  0
 26 24  2  0
 27 28  1  0
 28 29  2  0
 30 33  1  0
 30 29  1  0
 31 30  2  0
 32 31  1  0
 32 27  2  0
 33 34  1  0
 34 39  2  0
 34 35  1  0
 35 36  2  0
 36 37  1  0
 37 41  1  0
 38 37  2  0
 39 38  1  0
 40 39  1  0
 42 43  1  0
 43 45  1  0
 43 46  1  0
 44 42  2  0
 47 22  1  0
 47 48  1  0
 49 47  1  0
 50 51  1  0
 50  1  1  0
 51 52  2  0
 54 53  2  0
 54 51  1  0
 55 54  1  0
 56 55  1  0
 57 59  1  0
 57 53  1  0
 58 69  2  0
 59 64  1  0
 60 68  1  0
 60 70  1  0
 61 67  1  0
 61 63  1  0
 62 68  1  0
 63 62  1  0
 64 63  2  0
 65 66  1  0
 65 59  2  0
 66 61  2  0
 67 60  1  0
 68 58  1  0
 70 72  2  0
 71 70  1  0
 73 71  1  0
 74 83  2  0
 74 79  1  0
 75 71  1  0
 75 79  1  0
 76 75  1  0
 77 78  1  0
 77 76  1  0
 78 74  1  0
 79 80  2  0
 80 81  1  0
 82 81  2  0
 83 82  1  0
 84 58  1  0
 84 85  1  0
 84 94  1  0
 85 88  1  0
 86 90  1  0
 86 85  1  0
 87 86  2  0
 90 89  1  0
 92 90  1  0
 92 93  1  0
 92 91  1  0
 94 97  1  1
 94 95  1  0
 96 94  1  0
M  ISO  4  12 100  20 100  53 101  57 101
M  END
>  <TORSDO>  (50) 
F 22

>  <SCORE>  (50) 
-10.351

>  <name>  (50) 
50

>  <ligand_id>  (50) 
50

>  <original_smiles>  (50) 
[H]OC(C(=O)C([H])([H])N([H])c1c([H])c(F)c(C([H])([H])N([H])C(=O)N2C([H])([H])C([H])([H])C([H])([H])C([H])(n3nc(-c4c([H])c([H])c(Oc5c([H])c([H])c(F)c([H])c5F)c([H])c4[H])c(C(=O)N([H])[H])c3N([H])[H])C2([H])[H])c(C([H])([H])[H])c1[H])=C([H])Oc1c([H])c([H])c2c(c1[H])C([H])([H])N(C(=O)C([H])(N([H])C(=O)C([H])(N([H])C([H])([H])[H])C([H])([H])[H])C(C([H])([H])[H])(C([H])([H])[H])C([H])([H])[H])C([H])(C(=O)N([H])C1([H])c3c([H])c([H])c([H])c([H])c3C([H])([H])C([H])([H])C1([H])[H])C2([H])[H]

>  <smiles>  (50) 
[H]OC(C(=O)C([H])([H])N([H])c1c([H])c(F)c(C([H])([H])N([H])C(=O)N2C([H])([H])C([H])([H])C([H])([H])C([H])(n3nc(-c4c([H])c([H])c(Oc5c([H])c([H])c(F)c([H])c5F)c([H])c4[H])c(C(=O)N([H])[H])c3N([H])[H])C2([H])[H])c(C([H])([H])[H])c1[H])=C([H])Oc1c([H])c([H])c2c(c1[H])C([H])([H])N(C(=O)C([H])(N([H])C(=O)C([H])(N([H])C([H])([H])[H])C([H])([H])[H])C(C([H])([H])[H])(C([H])([H])[H])C([H])([H])[H])C([H])(C(=O)N([H])C1([H])c3c([H])c([H])c([H])c([H])c3C([H])([H])C([H])([H])C1([H])[H])C2([H])[H]

$$$$
51:0:0
     RDKit          3D

100108  0  0  1  0  0  0  0  0999 V2000
  -29.4230  -20.6370   19.8990 C   0  0  0  0  0  3  0  0  0  0  0  0
  -30.1140  -20.3450   22.1950 C   0  0  0  0  0  3  0  0  0  0  0  0
  -29.7790  -19.2890   19.6120 C   0  0  0  0  0  0  0  0  0  0  0  0
  -30.3330  -18.4540   20.6320 C   0  0  0  0  0  0  0  0  0  0  0  0
  -29.6250  -21.1990   21.1830 C   0  0  0  0  0  0  0  0  0  0  0  0
  -30.4610  -19.0000   21.9300 C   0  0  0  0  0  0  0  0  0  0  0  0
  -30.9890  -18.2490   22.9260 F   0  0  0  0  0  0  0  0  0  0  0  0
  -29.1850  -23.7150   20.8110 C   0  0  0  0  0  0  0  0  0  0  0  0
  -29.4100  -22.5820   21.5260 N   0  0  0  0  0  0  0  0  0  0  0  0
  -28.9300  -23.7260   19.6050 O   0  0  0  0  0  0  0  0  0  0  0  0
  -29.5500  -22.8200   22.5000 H   0  0  0  0  0  0  0  0  0  0  0  0
  -29.0860  -26.1980   21.3140 C   0  0  0  0  0  3  0  0  0  0  0  0
  -29.2760  -24.9020   21.6890 C   0  0  0  0  0  0  0  0  0  0  0  0
  -29.5740  -24.6920   22.9860 O   0  0  0  0  0  0  0  0  0  0  0  0
  -29.5930  -25.5360   23.4160 H   0  0  0  0  0  0  0  0  0  0  0  0
  -28.7610  -26.7100   20.0770 O   0  0  0  0  0  0  0  0  0  0  0  0
  -24.7790  -31.7580   23.2250 C   0  0  0  0  0  0  0  0  0  0  0  0
  -27.6270  -27.4980   20.0560 C   0  0  0  0  0  0  0  0  0  0  0  0
  -23.6480  -30.3580   21.5270 C   0  0  0  0  0  3  0  0  0  0  0  0
  -25.1820  -28.9250   20.0690 C   0  0  0  0  0  0  0  0  0  0  0  0
  -26.1600  -30.8210   21.3720 C   0  0  0  0  0  2  0  0  0  0  0  0
  -26.3120  -29.4730   20.6910 C   0  0  0  0  0  0  0  0  0  0  0  0
  -27.5400  -28.7670   20.6830 C   0  0  0  0  0  3  0  0  0  0  0  0
  -26.4860  -26.9760   19.4170 C   0  0  0  0  0  3  0  0  0  0  0  0
  -25.2650  -27.6790   19.4260 C   0  0  0  0  0  3  0  0  0  0  0  0
  -23.9000  -29.7300   20.1300 C   0  0  0  0  0  2  0  0  0  0  0  0
  -24.8780  -30.9930   22.1000 N   0  0  0  0  0  0  0  0  0  0  0  0
  -23.6820  -31.9710   23.7600 O   0  0  0  0  0  0  0  0  0  0  0  0
  -23.0270  -29.2840   22.4500 C   0  0  0  0  0  0  0  0  0  0  0  0
  -21.7130  -29.0510   22.2990 N   0  0  0  0  0  0  0  0  0  0  0  0
  -23.7270  -28.6630   23.2550 O   0  0  0  0  0  0  0  0  0  0  0  0
  -21.2060  -29.6080   21.6260 H   0  0  0  0  0  0  0  0  0  0  0  0
  -18.3890  -27.6870   22.6920 C   0  0  0  0  0  0  0  0  0  0  0  0
  -20.9240  -28.0570   23.0290 C   0  0  0  0  0  3  0  0  0  0  0  0
  -21.1070  -26.6460   22.4230 C   0  0  0  0  0  2  0  0  0  0  0  0
  -20.0440  -26.2960   21.3750 C   0  0  0  0  0  2  0  0  0  0  0  0
  -18.6430  -26.3630   21.9900 C   0  0  0  0  0  2  0  0  0  0  0  0
  -19.4600  -28.4900   23.1640 C   0  0  0  0  0  0  0  0  0  0  0  0
  -19.1700  -29.7290   23.7750 C   0  0  0  0  0  3  0  0  0  0  0  0
  -17.8400  -30.1650   23.9210 C   0  0  0  0  0  3  0  0  0  0  0  0
  -16.7830  -29.3580   23.4670 C   0  0  0  0  0  3  0  0  0  0  0  0
  -17.0570  -28.1210   22.8580 C   0  0  0  0  0  3  0  0  0  0  0  0
  -26.0330  -32.4200   23.8790 C   0  0  0  0  0  3  0  0  0  0  0  0
  -25.6790  -33.8050   24.2170 N   0  0  0  0  0  0  0  0  0  0  0  0
  -25.9790  -34.8710   23.4620 C   0  0  0  0  0  0  0  0  0  0  0  0
  -26.6520  -34.7930   22.4310 O   0  0  0  0  0  0  0  0  0  0  0  0
  -25.0830  -33.9370   25.0210 H   0  0  0  0  0  0  0  0  0  0  0  0
  -24.1860  -36.6000   23.1110 C   0  0  0  0  0  1  0  0  0  0  0  0
  -25.4430  -36.2410   23.9210 C   0  0  0  0  0  3  0  0  0  0  0  0
  -27.5440  -37.2020   24.7490 C   0  0  0  0  0  1  0  0  0  0  0  0
  -26.4350  -37.3320   23.8070 N   0  0  0  0  0  0  0  0  0  0  0  0
  -25.9960  -38.2360   23.9570 H   0  0  0  0  0  0  0  0  0  0  0  0
  -26.5480  -31.6500   25.1570 C   0  0  1  0  0  0  0  0  0  0  0  0
  -25.4430  -31.3710   26.2030 C   0  0  0  0  0  1  0  0  0  0  0  0
  -27.1760  -30.2930   24.7590 C   0  0  0  0  0  1  0  0  0  0  0  0
  -27.6630  -32.4680   25.8490 C   0  0  0  0  0  1  0  0  0  0  0  0
  -29.5610  -18.7970   18.1800 C   0  0  0  0  0  2  0  0  0  0  0  0
  -30.1120  -20.6050   16.4730 C   0  0  0  0  0  1  0  0  0  0  0  0
  -32.0120  -19.5030   17.6640 C   0  0  0  0  0  1  0  0  0  0  0  0
  -30.6590  -18.2200   15.9900 C   0  0  0  0  0  1  0  0  0  0  0  0
  -30.5870  -19.2810   17.1060 C   0  0  1  0  0  0  0  0  0  0  0  0
  -31.0170  -17.0950   20.3330 C   0  0  0  0  0  2  0  0  0  0  0  0
  -30.9590  -14.6440   20.1420 C   0  0  0  0  0  0  0  0  0  0  0  0
  -30.5690  -12.4770   19.0410 C   0  0  0  0  0  2  0  0  0  0  0  0
  -29.5940  -12.6810   17.8650 C   0  0  0  0  0  2  0  0  0  0  0  0
  -28.1410  -12.5350   18.3520 C   0  0  0  0  0  2  0  0  0  0  0  0
  -27.8450  -13.3730   19.6270 C   0  0  0  0  0  3  0  0  0  0  0  0
  -28.9480  -13.2050   20.6950 C   0  0  0  0  0  2  0  0  0  0  0  0
  -30.2380  -13.4910   20.0590 N   0  0  0  0  0  0  0  0  0  0  0  0
  -32.1120  -14.7110   19.7110 O   0  0  0  0  0  0  0  0  0  0  0  0
  -30.3230  -15.7890   20.5000 N   0  0  0  0  0  0  0  0  0  0  0  0
  -29.3600  -15.7660   20.7950 H   0  0  0  0  0  0  0  0  0  0  0  0
  -25.4880  -13.9530   20.4680 C   0  0  0  0  0  0  0  0  0  0  0  0
  -24.4350  -13.1700   20.8570 C   0  0  0  0  0  0  0  0  0  0  0  0
  -24.8900  -11.8210   20.7640 C   0  0  0  0  0  0  0  0  0  0  0  0
  -26.5190  -13.0790   20.1620 N   0  0  0  0  0  0  0  0  0  0  0  0
  -26.1660  -11.7900   20.4000 N   0  0  0  0  0  0  0  0  0  0  0  0
  -24.1670  -10.5540   20.9450 C   0  0  0  0  0  0  0  0  0  0  0  0
  -24.6070   -9.5780   21.8650 C   0  0  0  0  0  3  0  0  0  0  0  0
  -23.8840   -8.3770   22.0350 C   0  0  0  0  0  3  0  0  0  0  0  0
  -22.7070   -8.1440   21.2830 C   0  0  0  0  0  0  0  0  0  0  0  0
  -22.2870   -9.1100   20.3510 C   0  0  0  0  0  3  0  0  0  0  0  0
  -23.0110  -10.3020   20.1810 C   0  0  0  0  0  3  0  0  0  0  0  0
  -21.9540   -6.9970   21.3630 O   0  0  0  0  0  0  0  0  0  0  0  0
  -21.8650   -6.2740   22.5240 C   0  0  0  0  0  0  0  0  0  0  0  0
  -21.3690   -6.8420   23.7190 C   0  0  0  0  0  3  0  0  0  0  0  0
  -21.2280   -6.0440   24.8720 C   0  0  0  0  0  3  0  0  0  0  0  0
  -21.5740   -4.6790   24.8320 C   0  0  0  0  0  0  0  0  0  0  0  0
  -22.0620   -4.1110   23.6420 C   0  0  0  0  0  3  0  0  0  0  0  0
  -22.2050   -4.9070   22.4910 C   0  0  0  0  0  0  0  0  0  0  0  0
  -22.6550   -4.3490   21.3410 F   0  0  0  0  0  0  0  0  0  0  0  0
  -21.4310   -3.9110   25.9360 F   0  0  0  0  0  0  0  0  0  0  0  0
  -23.0520  -13.6420   21.2030 C   0  0  0  0  0  0  0  0  0  0  0  0
  -22.3620  -12.9250   22.0830 N   0  0  0  0  0  0  0  0  0  0  0  0
  -22.5960  -14.6840   20.7330 O   0  0  0  0  0  0  0  0  0  0  0  0
  -22.7440  -12.0820   22.4890 H   0  0  0  0  0  0  0  0  0  0  0  0
  -21.4370  -13.2210   22.3570 H   0  0  0  0  0  0  0  0  0  0  0  0
  -25.6490  -15.3280   20.3260 N   0  0  0  0  0  0  0  0  0  0  0  0
  -24.8900  -15.9810   20.4900 H   0  0  0  0  0  0  0  0  0  0  0  0
  -26.4840  -15.7760   19.9720 H   0  0  0  0  0  0  0  0  0  0  0  0
  1  5  1  0
  3  1  2  0
  3  4  1  0
  4  6  2  0
  5  9  1  0
  5  2  2  0
  6  2  1  0
  6  7  1  0
  8  9  1  0
  8 13  1  0
  9 11  1  0
 10  8  2  0
 12 13  2  0
 13 14  1  0
 14 15  1  0
 16 12  1  0
 17 28  2  0
 18 16  1  0
 18 23  1  0
 19 27  1  0
 19 29  1  0
 20 26  1  0
 20 22  1  0
 21 27  1  0
 22 21  1  0
 23 22  2  0
 24 25  1  0
 24 18  2  0
 25 20  2  0
 26 19  1  0
 27 17  1  0
 29 31  2  0
 30 29  1  0
 32 30  1  0
 33 42  2  0
 33 38  1  0
 34 30  1  0
 34 38  1  0
 35 34  1  0
 36 37  1  0
 36 35  1  0
 37 33  1  0
 38 39  2  0
 39 40  1  0
 41 40  2  0
 42 41  1  0
 43 17  1  0
 43 44  1  0
 43 53  1  0
 44 47  1  0
 45 49  1  0
 45 44  1  0
 46 45  2  0
 49 48  1  0
 51 49  1  0
 51 52  1  0
 51 50  1  0
 53 56  1  1
 53 54  1  0
 55 53  1  0
 57  3  1  0
 61 58  1  6
 60 61  1  0
 61 59  1  0
 61 57  1  0
 62 71  1  0
 62  4  1  0
 63 71  1  0
 64 69  1  0
 65 66  1  0
 65 64  1  0
 67 66  1  0
 67 76  1  0
 67 68  1  0
 69 63  1  0
 69 68  1  0
 70 63  2  0
 71 72  1  0
 73 74  2  0
 74 93  1  0
 75 74  1  0
 75 78  1  0
 76 77  1  0
 76 73  1  0
 77 75  2  0
 78 79  1  0
 79 80  2  0
 81 84  1  0
 81 80  1  0
 82 81  2  0
 83 82  1  0
 83 78  2  0
 84 85  1  0
 85 86  1  0
 86 87  2  0
 88 87  1  0
 88 92  1  0
 89 88  2  0
 90 85  2  0
 90 89  1  0
 91 90  1  0
 93 94  1  0
 94 97  1  0
 94 96  1  0
 95 93  2  0
 98 73  1  0
 98 99  1  0
100 98  1  0
M  ISO  4  12 101  16 101  63 100  71 100
M  END
>  <TORSDO>  (51) 
F 22

>  <SCORE>  (51) 
-12.939

>  <name>  (51) 
51

>  <ligand_id>  (51) 
51

>  <original_smiles>  (51) 
[H]OC(C(=O)N([H])c1c([H])c(F)c(C([H])([H])N([H])C(=O)N2C([H])([H])C([H])([H])C([H])([H])C([H])(n3nc(-c4c([H])c([H])c(Oc5c([H])c([H])c(F)c([H])c5F)c([H])c4[H])c(C(=O)N([H])[H])c3N([H])[H])C2([H])[H])c(C([H])([H])C(C([H])([H])[H])(C([H])([H])[H])C([H])([H])[H])c1[H])=C([H])Oc1c([H])c([H])c2c(c1[H])C([H])([H])N(C(=O)C([H])(N([H])C(=O)C([H])(N([H])C([H])([H])[H])C([H])([H])[H])C(C([H])([H])[H])(C([H])([H])[H])C([H])([H])[H])C([H])(C(=O)N([H])C1([H])c3c([H])c([H])c([H])c([H])c3C([H])([H])C([H])([H])C1([H])[H])C2([H])[H]

>  <smiles>  (51) 
[H]OC(C(=O)N([H])c1c([H])c(F)c(C([H])([H])N([H])C(=O)N2C([H])([H])C([H])([H])C([H])([H])C([H])(n3nc(-c4c([H])c([H])c(Oc5c([H])c([H])c(F)c([H])c5F)c([H])c4[H])c(C(=O)N([H])[H])c3N([H])[H])C2([H])[H])c(C([H])([H])C(C([H])([H])[H])(C([H])([H])[H])C([H])([H])[H])c1[H])=C([H])Oc1c([H])c([H])c2c(c1[H])C([H])([H])N(C(=O)C([H])(N([H])C(=O)C([H])(N([H])C([H])([H])[H])C([H])([H])[H])C(C([H])([H])[H])(C([H])([H])[H])C([H])([H])[H])C([H])(C(=O)N([H])C1([H])c3c([H])c([H])c([H])c([H])c3C([H])([H])C([H])([H])C1([H])[H])C2([H])[H]

$$$$
52:0:0
     RDKit          3D

 95103  0  0  1  0  0  0  0  0999 V2000
  -31.7360  -18.8950   21.4610 C   0  0  0  0  0  3  0  0  0  0  0  0
  -29.3010  -18.4710   20.2240 C   0  0  0  0  0  3  0  0  0  0  0  0
  -30.9970  -20.0290   21.0420 C   0  0  0  0  0  0  0  0  0  0  0  0
  -29.7060  -19.8590   20.4490 C   0  0  0  0  0  0  0  0  0  0  0  0
  -30.0880  -17.2970   20.5910 C   0  0  0  0  0  0  0  0  0  0  0  0
  -31.2920  -17.5740   21.2800 C   0  0  0  0  0  0  0  0  0  0  0  0
  -32.0320  -16.5790   21.8180 F   0  0  0  0  0  0  0  0  0  0  0  0
  -30.4350  -14.7510   20.0530 C   0  0  0  0  0  0  0  0  0  0  0  0
  -30.1570  -12.5380   18.9250 C   0  0  0  0  0  2  0  0  0  0  0  0
  -29.1400  -12.6630   17.7720 C   0  0  0  0  0  2  0  0  0  0  0  0
  -27.7030  -12.4580   18.2920 C   0  0  0  0  0  2  0  0  0  0  0  0
  -27.4050  -13.2800   19.5770 C   0  0  0  0  0  3  0  0  0  0  0  0
  -28.5380  -13.1480   20.6160 C   0  0  0  0  0  2  0  0  0  0  0  0
  -29.7900  -13.5370   19.9530 N   0  0  0  0  0  0  0  0  0  0  0  0
  -31.5930  -14.8530   19.6360 O   0  0  0  0  0  0  0  0  0  0  0  0
  -29.6810  -15.8780   20.3650 N   0  0  0  0  0  0  0  0  0  0  0  0
  -28.6900  -15.7030   20.4240 H   0  0  0  0  0  0  0  0  0  0  0  0
  -25.0550  -13.8020   20.4620 C   0  0  0  0  0  0  0  0  0  0  0  0
  -24.0280  -12.9960   20.8720 C   0  0  0  0  0  0  0  0  0  0  0  0
  -24.5150  -11.6560   20.7790 C   0  0  0  0  0  0  0  0  0  0  0  0
  -26.0990  -12.9520   20.1400 N   0  0  0  0  0  0  0  0  0  0  0  0
  -25.7870  -11.6550   20.3940 N   0  0  0  0  0  0  0  0  0  0  0  0
  -23.8240  -10.3750   20.9730 C   0  0  0  0  0  0  0  0  0  0  0  0
  -24.2960   -9.4160   21.8960 C   0  0  0  0  0  3  0  0  0  0  0  0
  -23.6050   -8.2010   22.0820 C   0  0  0  0  0  3  0  0  0  0  0  0
  -22.4260   -7.9360   21.3470 C   0  0  0  0  0  0  0  0  0  0  0  0
  -21.9720   -8.8820   20.4130 C   0  0  0  0  0  3  0  0  0  0  0  0
  -22.6640  -10.0900   20.2230 C   0  0  0  0  0  3  0  0  0  0  0  0
  -21.7020   -6.7720   21.4430 O   0  0  0  0  0  0  0  0  0  0  0  0
  -21.6660   -6.0410   22.6040 C   0  0  0  0  0  0  0  0  0  0  0  0
  -21.1940   -6.5890   23.8160 C   0  0  0  0  0  3  0  0  0  0  0  0
  -21.1080   -5.7830   24.9690 C   0  0  0  0  0  3  0  0  0  0  0  0
  -21.4840   -4.4280   24.9090 C   0  0  0  0  0  0  0  0  0  0  0  0
  -21.9470   -3.8770   23.7030 C   0  0  0  0  0  3  0  0  0  0  0  0
  -22.0360   -4.6810   22.5520 C   0  0  0  0  0  0  0  0  0  0  0  0
  -22.4630   -4.1400   21.3860 F   0  0  0  0  0  0  0  0  0  0  0  0
  -21.3930   -3.6500   26.0150 F   0  0  0  0  0  0  0  0  0  0  0  0
  -22.6400  -13.4390   21.2330 C   0  0  0  0  0  0  0  0  0  0  0  0
  -21.9750  -12.7030   22.1190 N   0  0  0  0  0  0  0  0  0  0  0  0
  -22.1560  -14.4690   20.7660 O   0  0  0  0  0  0  0  0  0  0  0  0
  -22.3810  -11.8730   22.5220 H   0  0  0  0  0  0  0  0  0  0  0  0
  -21.0440  -12.9760   22.3980 H   0  0  0  0  0  0  0  0  0  0  0  0
  -25.1790  -15.1810   20.3080 N   0  0  0  0  0  0  0  0  0  0  0  0
  -24.3990  -15.8060   20.4790 H   0  0  0  0  0  0  0  0  0  0  0  0
  -25.9760  -15.6510   19.9000 H   0  0  0  0  0  0  0  0  0  0  0  0
  -31.7100  -21.3340   21.1840 C   0  0  0  0  0  0  0  0  0  0  0  0
  -32.2890  -21.6600   22.5550 C   0  0  0  0  0  1  0  0  0  0  0  0
  -31.8370  -22.1570   20.2710 O   0  0  0  0  0  0  0  0  0  0  0  0
  -28.8690  -20.9900   20.0510 N   0  0  0  0  0  0  0  0  0  0  0  0
  -28.0480  -20.7430   19.5030 H   0  0  0  0  0  0  0  0  0  0  0  0
  -28.6770  -22.3180   20.7880 C   0  0  0  0  0  2  0  0  0  0  0  0
  -28.4970  -23.7230   20.0190 C   0  0  0  0  0  0  0  0  0  0  0  0
  -28.6010  -23.7570   18.7890 O   0  0  0  0  0  0  0  0  0  0  0  0
  -28.1190  -25.0550   20.8330 C   0  0  0  0  0  2  0  0  0  0  0  0
  -28.3050  -26.4160   20.2170 O   0  0  0  0  0  0  0  0  0  0  0  0
  -24.5760  -31.9090   23.2110 C   0  0  0  0  0  0  0  0  0  0  0  0
  -27.2060  -27.3010   20.2130 C   0  0  0  0  0  0  0  0  0  0  0  0
  -23.3870  -30.5020   21.5680 C   0  0  0  0  0  3  0  0  0  0  0  0
  -24.8490  -28.9340   20.1690 C   0  0  0  0  0  0  0  0  0  0  0  0
  -25.9310  -30.8150   21.4030 C   0  0  0  0  0  2  0  0  0  0  0  0
  -26.0180  -29.4270   20.7650 C   0  0  0  0  0  0  0  0  0  0  0  0
  -27.2070  -28.6280   20.7610 C   0  0  0  0  0  3  0  0  0  0  0  0
  -26.0140  -26.8610   19.6060 C   0  0  0  0  0  3  0  0  0  0  0  0
  -24.8540  -27.6600   19.5770 C   0  0  0  0  0  3  0  0  0  0  0  0
  -23.6150  -29.8180   20.1950 C   0  0  0  0  0  2  0  0  0  0  0  0
  -24.6510  -31.0930   22.1180 N   0  0  0  0  0  0  0  0  0  0  0  0
  -23.4870  -32.1910   23.7320 O   0  0  0  0  0  0  0  0  0  0  0  0
  -22.7110  -29.4950   22.5290 C   0  0  0  0  0  0  0  0  0  0  0  0
  -21.3810  -29.3350   22.4040 N   0  0  0  0  0  0  0  0  0  0  0  0
  -23.3810  -28.8620   23.3480 O   0  0  0  0  0  0  0  0  0  0  0  0
  -20.9020  -29.8920   21.7120 H   0  0  0  0  0  0  0  0  0  0  0  0
  -17.9850  -28.2010   22.9330 C   0  0  0  0  0  0  0  0  0  0  0  0
  -20.5520  -28.4090   23.1770 C   0  0  0  0  0  3  0  0  0  0  0  0
  -20.6190  -26.9810   22.5880 C   0  0  0  0  0  2  0  0  0  0  0  0
  -19.4990  -26.6870   21.5850 C   0  0  0  0  0  2  0  0  0  0  0  0
  -18.1280  -26.8550   22.2440 C   0  0  0  0  0  2  0  0  0  0  0  0
  -19.1230  -28.9380   23.3570 C   0  0  0  0  0  0  0  0  0  0  0  0
  -18.9330  -30.1980   23.9630 C   0  0  0  0  0  3  0  0  0  0  0  0
  -17.6400  -30.7220   24.1490 C   0  0  0  0  0  3  0  0  0  0  0  0
  -16.5170  -29.9810   23.7400 C   0  0  0  0  0  3  0  0  0  0  0  0
  -16.6900  -28.7230   23.1380 C   0  0  0  0  0  3  0  0  0  0  0  0
  -25.8510  -32.5470   23.8430 C   0  0  0  0  0  3  0  0  0  0  0  0
  -25.5370  -33.9450   24.1660 N   0  0  0  0  0  0  0  0  0  0  0  0
  -25.8810  -34.9970   23.4100 C   0  0  0  0  0  0  0  0  0  0  0  0
  -26.5630  -34.8900   22.3880 O   0  0  0  0  0  0  0  0  0  0  0  0
  -24.9280  -34.1020   24.9560 H   0  0  0  0  0  0  0  0  0  0  0  0
  -24.1700  -36.8010   23.0210 C   0  0  0  0  0  1  0  0  0  0  0  0
  -25.3920  -36.3880   23.8590 C   0  0  0  0  0  3  0  0  0  0  0  0
  -27.5130  -37.2610   24.7370 C   0  0  0  0  0  1  0  0  0  0  0  0
  -26.4320  -37.4360   23.7690 N   0  0  0  0  0  0  0  0  0  0  0  0
  -26.0300  -38.3590   23.9080 H   0  0  0  0  0  0  0  0  0  0  0  0
  -26.3570  -31.7780   25.1260 C   0  0  1  0  0  0  0  0  0  0  0  0
  -25.2510  -31.5250   26.1780 C   0  0  0  0  0  1  0  0  0  0  0  0
  -26.9580  -30.4070   24.7420 C   0  0  0  0  0  1  0  0  0  0  0  0
  -27.4930  -32.5810   25.8010 C   0  0  0  0  0  1  0  0  0  0  0  0
  2  4  2  0
  2  5  1  0
  3 46  1  0
  3  1  2  0
  4  3  1  0
  5  6  2  0
  6  1  1  0
  6  7  1  0
  8 16  1  0
  9 14  1  0
 10 11  1  0
 10  9  1  0
 12 11  1  0
 12 21  1  0
 12 13  1  0
 14  8  1  0
 14 13  1  0
 15  8  2  0
 16 17  1  0
 16  5  1  0
 18 19  2  0
 19 38  1  0
 20 19  1  0
 20 23  1  0
 21 22  1  0
 21 18  1  0
 22 20  2  0
 23 24  1  0
 24 25  2  0
 26 29  1  0
 26 25  1  0
 27 26  2  0
 28 27  1  0
 28 23  2  0
 29 30  1  0
 30 31  1  0
 31 32  2  0
 33 32  1  0
 33 37  1  0
 34 33  2  0
 35 30  2  0
 35 34  1  0
 36 35  1  0
 38 39  1  0
 39 42  1  0
 39 41  1  0
 40 38  2  0
 43 18  1  0
 43 44  1  0
 45 43  1  0
 46 47  1  0
 48 46  2  0
 49  4  1  0
 49 51  1  0
 50 49  1  0
 52 51  1  0
 52 54  1  0
 53 52  2  0
 55 54  1  0
 56 67  2  0
 57 55  1  0
 57 62  1  0
 58 66  1  0
 58 68  1  0
 59 65  1  0
 59 61  1  0
 60 66  1  0
 61 60  1  0
 62 61  2  0
 63 57  2  0
 64 63  1  0
 64 59  2  0
 65 58  1  0
 66 56  1  0
 68 70  2  0
 69 68  1  0
 71 69  1  0
 72 81  2  0
 72 77  1  0
 73 69  1  0
 73 77  1  0
 74 73  1  0
 75 76  1  0
 75 74  1  0
 76 72  1  0
 77 78  2  0
 78 79  1  0
 80 79  2  0
 81 80  1  0
 82 56  1  0
 82 83  1  0
 82 92  1  0
 83 86  1  0
 84 88  1  0
 84 83  1  0
 85 84  2  0
 88 87  1  0
 90 88  1  0
 90 91  1  0
 90 89  1  0
 92 95  1  1
 92 93  1  0
 94 92  1  0
M  ISO  4   8 100  16 100  54 101  55 101
M  END
>  <TORSDO>  (52) 
F 21

>  <SCORE>  (52) 
-13.114

>  <name>  (52) 
52

>  <ligand_id>  (52) 
52

>  <original_smiles>  (52) 
[H]c1c([H])c([H])c2c(c1[H])C([H])([H])C([H])([H])C([H])([H])C2([H])N([H])C(=O)C1([H])N(C(=O)C([H])(N([H])C(=O)C([H])(N([H])C([H])([H])[H])C([H])([H])[H])C(C([H])([H])[H])(C([H])([H])[H])C([H])([H])[H])C([H])([H])c2c([H])c(OC([H])([H])C(=O)C([H])([H])N([H])c3c([H])c(N([H])C(=O)N4C([H])([H])C([H])([H])C([H])([H])C([H])(n5nc(-c6c([H])c([H])c(Oc7c([H])c([H])c(F)c([H])c7F)c([H])c6[H])c(C(=O)N([H])[H])c5N([H])[H])C4([H])[H])c(F)c([H])c3C(=O)C([H])([H])[H])c([H])c([H])c2C1([H])[H]

>  <smiles>  (52) 
[H]c1c([H])c([H])c2c(c1[H])C([H])([H])C([H])([H])C([H])([H])C2([H])N([H])C(=O)C1([H])N(C(=O)C([H])(N([H])C(=O)C([H])(N([H])C([H])([H])[H])C([H])([H])[H])C(C([H])([H])[H])(C([H])([H])[H])C([H])([H])[H])C([H])([H])c2c([H])c(OC([H])([H])C(=O)C([H])([H])N([H])c3c([H])c(N([H])C(=O)N4C([H])([H])C([H])([H])C([H])([H])C([H])(n5nc(-c6c([H])c([H])c(Oc7c([H])c([H])c(F)c([H])c7F)c([H])c6[H])c(C(=O)N([H])[H])c5N([H])[H])C4([H])[H])c(F)c([H])c3C(=O)C([H])([H])[H])c([H])c([H])c2C1([H])[H]

$$$$
53:0:0
     RDKit          3D

 90 98  0  0  1  0  0  0  0  0999 V2000
  -28.7910  -22.1570   19.9320 C   0  0  0  0  0  0  0  0  0  0  0  0
  -27.9030  -21.9550   19.1010 O   0  0  0  0  0  0  0  0  0  0  0  0
  -29.1340  -23.6800   20.3420 C   0  0  0  0  0  3  0  0  0  0  0  0
  -28.0470  -24.8690   20.0740 C   0  0  0  0  0  3  0  0  0  0  0  0
  -28.3030  -26.3560   20.2320 O   0  0  0  0  0  0  0  0  0  0  0  0
  -24.6260  -31.8980   23.2140 C   0  0  0  0  0  0  0  0  0  0  0  0
  -27.2080  -27.2630   20.1780 C   0  0  0  0  0  0  0  0  0  0  0  0
  -23.4150  -30.5010   21.5800 C   0  0  0  0  0  3  0  0  0  0  0  0
  -24.8580  -28.9370   20.1540 C   0  0  0  0  0  0  0  0  0  0  0  0
  -25.9630  -30.7970   21.3950 C   0  0  0  0  0  2  0  0  0  0  0  0
  -26.0360  -29.4120   20.7470 C   0  0  0  0  0  0  0  0  0  0  0  0
  -27.2160  -28.5920   20.7360 C   0  0  0  0  0  3  0  0  0  0  0  0
  -25.9950  -26.8580   19.5750 C   0  0  0  0  0  3  0  0  0  0  0  0
  -24.8450  -27.6710   19.5540 C   0  0  0  0  0  3  0  0  0  0  0  0
  -23.6270  -29.8240   20.2010 C   0  0  0  0  0  2  0  0  0  0  0  0
  -24.6870  -31.0840   22.1190 N   0  0  0  0  0  0  0  0  0  0  0  0
  -23.5440  -32.1820   23.7470 O   0  0  0  0  0  0  0  0  0  0  0  0
  -22.7460  -29.4900   22.5440 C   0  0  0  0  0  0  0  0  0  0  0  0
  -21.4160  -29.3210   22.4270 N   0  0  0  0  0  0  0  0  0  0  0  0
  -23.4230  -28.8610   23.3610 O   0  0  0  0  0  0  0  0  0  0  0  0
  -20.9290  -29.8800   21.7410 H   0  0  0  0  0  0  0  0  0  0  0  0
  -18.0320  -28.1520   22.9570 C   0  0  0  0  0  0  0  0  0  0  0  0
  -20.5950  -28.3920   23.2070 C   0  0  0  0  0  3  0  0  0  0  0  0
  -20.6810  -26.9580   22.6330 C   0  0  0  0  0  2  0  0  0  0  0  0
  -19.5690  -26.6420   21.6270 C   0  0  0  0  0  2  0  0  0  0  0  0
  -18.1920  -26.8010   22.2800 C   0  0  0  0  0  2  0  0  0  0  0  0
  -19.1600  -28.9050   23.3780 C   0  0  0  0  0  0  0  0  0  0  0  0
  -18.9520  -30.1680   23.9740 C   0  0  0  0  0  3  0  0  0  0  0  0
  -17.6520  -30.6770   24.1490 C   0  0  0  0  0  3  0  0  0  0  0  0
  -16.5390  -29.9210   23.7440 C   0  0  0  0  0  3  0  0  0  0  0  0
  -16.7310  -28.6590   23.1530 C   0  0  0  0  0  3  0  0  0  0  0  0
  -25.9110  -32.5290   23.8350 C   0  0  0  0  0  3  0  0  0  0  0  0
  -26.4310  -31.7540   25.1080 C   0  0  1  0  0  0  0  0  0  0  0  0
  -25.3400  -31.5170   26.1780 C   0  0  0  0  0  1  0  0  0  0  0  0
  -27.0080  -30.3760   24.7130 C   0  0  0  0  0  1  0  0  0  0  0  0
  -27.5940  -32.5380   25.7620 C   0  0  0  0  0  1  0  0  0  0  0  0
  -25.6040  -33.9270   24.1740 N   0  0  0  0  0  0  0  0  0  0  0  0
  -25.9290  -34.9810   23.4150 C   0  0  0  0  0  0  0  0  0  0  0  0
  -26.5870  -34.8800   22.3760 O   0  0  0  0  0  0  0  0  0  0  0  0
  -25.0230  -34.0820   24.9850 H   0  0  0  0  0  0  0  0  0  0  0  0
  -24.2010  -36.7750   23.0810 C   0  0  0  0  0  1  0  0  0  0  0  0
  -25.4470  -36.3680   23.8830 C   0  0  0  0  0  3  0  0  0  0  0  0
  -27.5900  -37.2420   24.7000 C   0  0  0  0  0  1  0  0  0  0  0  0
  -26.4800  -37.4210   23.7670 N   0  0  0  0  0  0  0  0  0  0  0  0
  -26.0750  -38.3400   23.9260 H   0  0  0  0  0  0  0  0  0  0  0  0
  -29.5350  -20.8930   20.5880 C   0  0  0  0  0  2  0  0  0  0  0  0
  -30.5800  -14.7310   20.3600 C   0  0  0  0  0  0  0  0  0  0  0  0
  -30.3810  -12.4480   19.3810 C   0  0  0  0  0  2  0  0  0  0  0  0
  -29.4560  -12.5670   18.1500 C   0  0  0  0  0  2  0  0  0  0  0  0
  -27.9730  -12.4310   18.5620 C   0  0  0  0  0  2  0  0  0  0  0  0
  -27.6140  -13.2790   19.8140 C   0  0  0  0  0  3  0  0  0  0  0  0
  -28.6710  -13.1420   20.9320 C   0  0  0  0  0  2  0  0  0  0  0  0
  -29.9730  -13.4940   20.3480 N   0  0  0  0  0  0  0  0  0  0  0  0
  -31.7440  -14.8460   19.9700 O   0  0  0  0  0  0  0  0  0  0  0  0
  -30.1740  -17.5960   18.8510 C   0  0  0  0  0  3  0  0  0  0  0  0
  -30.0210  -18.9660   18.7800 C   0  0  0  0  0  0  0  0  0  0  0  0
  -29.8800  -17.2310   20.1960 C   0  0  0  0  0  0  0  0  0  0  0  0
  -30.2330  -19.8300   17.5710 C   0  0  0  0  0  1  0  0  0  0  0  0
  -29.5460  -18.3520   20.8870 N   0  0  0  0  0  0  0  0  0  0  0  0
  -29.6400  -19.4580   20.0380 N   0  0  0  0  0  0  0  0  0  0  0  0
  -29.8130  -15.8400   20.6830 N   0  0  0  0  0  0  0  0  0  0  0  0
  -28.9740  -15.6230   21.2010 H   0  0  0  0  0  0  0  0  0  0  0  0
  -25.2200  -13.8690   20.5350 C   0  0  0  0  0  0  0  0  0  0  0  0
  -24.1510  -13.0980   20.9030 C   0  0  0  0  0  0  0  0  0  0  0  0
  -24.6090  -11.7450   20.8650 C   0  0  0  0  0  0  0  0  0  0  0  0
  -26.2630  -12.9890   20.2960 N   0  0  0  0  0  0  0  0  0  0  0  0
  -25.9010  -11.7040   20.5510 N   0  0  0  0  0  0  0  0  0  0  0  0
  -23.8750  -10.4860   21.0520 C   0  0  0  0  0  0  0  0  0  0  0  0
  -24.3130   -9.5070   21.9690 C   0  0  0  0  0  3  0  0  0  0  0  0
  -23.5860   -8.3090   22.1420 C   0  0  0  0  0  3  0  0  0  0  0  0
  -22.4020   -8.0850   21.4000 C   0  0  0  0  0  0  0  0  0  0  0  0
  -21.9850   -9.0530   20.4690 C   0  0  0  0  0  3  0  0  0  0  0  0
  -22.7140  -10.2410   20.2940 C   0  0  0  0  0  3  0  0  0  0  0  0
  -21.6410   -6.9440   21.4860 O   0  0  0  0  0  0  0  0  0  0  0  0
  -21.6090   -6.1840   22.6270 C   0  0  0  0  0  0  0  0  0  0  0  0
  -21.2130   -6.7250   23.8720 C   0  0  0  0  0  3  0  0  0  0  0  0
  -21.1310   -5.8920   25.0040 C   0  0  0  0  0  3  0  0  0  0  0  0
  -21.4290   -4.5210   24.8940 C   0  0  0  0  0  0  0  0  0  0  0  0
  -21.8150   -3.9800   23.6550 C   0  0  0  0  0  3  0  0  0  0  0  0
  -21.9020   -4.8090   22.5250 C   0  0  0  0  0  0  0  0  0  0  0  0
  -22.2550   -4.2800   21.3290 F   0  0  0  0  0  0  0  0  0  0  0  0
  -21.3400   -3.7190   25.9820 F   0  0  0  0  0  0  0  0  0  0  0  0
  -22.7550  -13.5810   21.1780 C   0  0  0  0  0  0  0  0  0  0  0  0
  -22.0210  -12.8830   22.0400 N   0  0  0  0  0  0  0  0  0  0  0  0
  -22.3220  -14.6110   20.6630 O   0  0  0  0  0  0  0  0  0  0  0  0
  -22.3840  -12.0550   22.4880 H   0  0  0  0  0  0  0  0  0  0  0  0
  -21.0840  -13.1890   22.2610 H   0  0  0  0  0  0  0  0  0  0  0  0
  -25.3920  -15.2420   20.3660 N   0  0  0  0  0  0  0  0  0  0  0  0
  -24.6440  -15.9120   20.5050 H   0  0  0  0  0  0  0  0  0  0  0  0
  -26.2500  -15.6740   20.0510 H   0  0  0  0  0  0  0  0  0  0  0  0
  1  3  1  0
  1 46  1  0
  2  1  2  0
  4  5  1  0
  4  3  2  0
  6 17  2  0
  7  5  1  0
  7 12  1  0
  8 16  1  0
  8 18  1  0
  9 15  1  0
  9 11  1  0
 10 16  1  0
 11 10  1  0
 12 11  2  0
 13  7  2  0
 14 13  1  0
 14  9  2  0
 15  8  1  0
 16  6  1  0
 18 20  2  0
 19 18  1  0
 21 19  1  0
 22 31  2  0
 22 27  1  0
 23 19  1  0
 23 27  1  0
 24 23  1  0
 25 26  1  0
 25 24  1  0
 26 22  1  0
 27 28  2  0
 28 29  1  0
 30 29  2  0
 31 30  1  0
 32  6  1  0
 32 37  1  0
 32 33  1  0
 33 36  1  1
 33 34  1  0
 35 33  1  0
 37 40  1  0
 38 42  1  0
 38 37  1  0
 39 38  2  0
 42 41  1  0
 44 42  1  0
 44 45  1  0
 44 43  1  0
 47 61  1  0
 48 53  1  0
 49 50  1  0
 49 48  1  0
 51 50  1  0
 51 66  1  0
 51 52  1  0
 53 47  1  0
 53 52  1  0
 54 47  2  0
 55 57  1  0
 56 55  2  0
 56 60  1  0
 57 61  1  0
 57 59  2  0
 58 56  1  0
 60 46  1  0
 60 59  1  0
 61 62  1  0
 63 64  2  0
 64 83  1  0
 65 64  1  0
 65 68  1  0
 66 63  1  0
 66 67  1  0
 67 65  2  0
 68 69  1  0
 69 70  2  0
 71 74  1  0
 71 70  1  0
 72 71  2  0
 73 72  1  0
 73 68  2  0
 74 75  1  0
 75 76  1  0
 76 77  2  0
 78 77  1  0
 78 82  1  0
 79 78  2  0
 80 75  2  0
 80 79  1  0
 81 80  1  0
 83 84  1  0
 84 87  1  0
 84 86  1  0
 85 83  2  0
 88 89  1  0
 88 63  1  0
 90 88  1  0
M  ISO  4   4 101   5 101  47 100  61 100
M  END
>  <TORSDO>  (53) 
F 19

>  <SCORE>  (53) 
-14.241

>  <name>  (53) 
53

>  <ligand_id>  (53) 
53

>  <original_smiles>  (53) 
[H]c1c([H])c([H])c2c(c1[H])C([H])([H])C([H])([H])C([H])([H])C2([H])N([H])C(=O)C1([H])N(C(=O)C([H])(N([H])C(=O)C([H])(N([H])C([H])([H])[H])C([H])([H])[H])C(C([H])([H])[H])(C([H])([H])[H])C([H])([H])[H])C([H])([H])c2c([H])c(OC([H])([H])C([H])([H])C(=O)C([H])([H])n3nc(N([H])C(=O)N4C([H])([H])C([H])([H])C([H])([H])C([H])(n5nc(-c6c([H])c([H])c(Oc7c([H])c([H])c(F)c([H])c7F)c([H])c6[H])c(C(=O)N([H])[H])c5N([H])[H])C4([H])[H])c([H])c3C([H])([H])[H])c([H])c([H])c2C1([H])[H]

>  <smiles>  (53) 
[H]c1c([H])c([H])c2c(c1[H])C([H])([H])C([H])([H])C([H])([H])C2([H])N([H])C(=O)C1([H])N(C(=O)C([H])(N([H])C(=O)C([H])(N([H])C([H])([H])[H])C([H])([H])[H])C(C([H])([H])[H])(C([H])([H])[H])C([H])([H])[H])C([H])([H])c2c([H])c(OC([H])([H])C([H])([H])C(=O)C([H])([H])n3nc(N([H])C(=O)N4C([H])([H])C([H])([H])C([H])([H])C([H])(n5nc(-c6c([H])c([H])c(Oc7c([H])c([H])c(F)c([H])c7F)c([H])c6[H])c(C(=O)N([H])[H])c5N([H])[H])C4([H])[H])c([H])c3C([H])([H])[H])c([H])c([H])c2C1([H])[H]

$$$$
54:0:0
     RDKit          3D

 91 99  0  0  1  0  0  0  0  0999 V2000
  -28.8510  -21.7600   20.8960 N   0  0  0  0  0  0  0  0  0  0  0  0
  -28.9260  -22.1170   21.8480 H   0  0  0  0  0  0  0  0  0  0  0  0
  -29.0670  -19.6920   19.4300 C   0  0  0  0  0  3  0  0  0  0  0  0
  -29.2150  -20.4330   20.5850 C   0  0  0  0  0  0  0  0  0  0  0  0
  -30.1450  -18.1040   20.6910 C   0  0  0  0  0  0  0  0  0  0  0  0
  -29.5880  -18.3820   19.5040 N   0  0  0  0  0  0  0  0  0  0  0  0
  -29.9910  -19.4610   21.8190 S   0  0  0  0  0  0  0  0  0  0  0  0
  -30.9570  -16.8660   21.0240 C   0  0  0  0  0  2  0  0  0  0  0  0
  -30.9500  -14.5630   20.0240 C   0  0  0  0  0  0  0  0  0  0  0  0
  -30.5920  -12.3760   18.9260 C   0  0  0  0  0  2  0  0  0  0  0  0
  -29.5810  -12.5310   17.7740 C   0  0  0  0  0  2  0  0  0  0  0  0
  -28.1370  -12.3920   18.2940 C   0  0  0  0  0  2  0  0  0  0  0  0
  -27.8650  -13.2620   19.5510 C   0  0  0  0  0  3  0  0  0  0  0  0
  -28.9840  -13.0840   20.6010 C   0  0  0  0  0  2  0  0  0  0  0  0
  -30.2650  -13.3890   19.9430 N   0  0  0  0  0  0  0  0  0  0  0  0
  -32.0490  -14.7220   19.4870 O   0  0  0  0  0  0  0  0  0  0  0  0
  -30.3270  -15.5840   20.6490 N   0  0  0  0  0  0  0  0  0  0  0  0
  -29.3990  -15.4100   21.0030 H   0  0  0  0  0  0  0  0  0  0  0  0
  -25.5350  -13.8820   20.4470 C   0  0  0  0  0  0  0  0  0  0  0  0
  -24.4810  -13.1150   20.8650 C   0  0  0  0  0  0  0  0  0  0  0  0
  -24.9140  -11.7580   20.7580 C   0  0  0  0  0  0  0  0  0  0  0  0
  -26.5450  -12.9920   20.1150 N   0  0  0  0  0  0  0  0  0  0  0  0
  -26.1790  -11.7070   20.3600 N   0  0  0  0  0  0  0  0  0  0  0  0
  -24.1780  -10.5020   20.9560 C   0  0  0  0  0  0  0  0  0  0  0  0
  -24.6120   -9.5310   21.8850 C   0  0  0  0  0  3  0  0  0  0  0  0
  -23.8780   -8.3400   22.0710 C   0  0  0  0  0  3  0  0  0  0  0  0
  -22.6960   -8.1120   21.3270 C   0  0  0  0  0  0  0  0  0  0  0  0
  -22.2820   -9.0710   20.3870 C   0  0  0  0  0  3  0  0  0  0  0  0
  -23.0170  -10.2530   20.1980 C   0  0  0  0  0  3  0  0  0  0  0  0
  -21.9330   -6.9740   21.4230 O   0  0  0  0  0  0  0  0  0  0  0  0
  -21.8340   -6.2690   22.5960 C   0  0  0  0  0  0  0  0  0  0  0  0
  -21.3100   -6.8500   23.7710 C   0  0  0  0  0  3  0  0  0  0  0  0
  -21.1620   -6.0700   24.9370 C   0  0  0  0  0  3  0  0  0  0  0  0
  -21.5280   -4.7100   24.9260 C   0  0  0  0  0  0  0  0  0  0  0  0
  -22.0440   -4.1290   23.7540 C   0  0  0  0  0  3  0  0  0  0  0  0
  -22.1940   -4.9060   22.5920 C   0  0  0  0  0  0  0  0  0  0  0  0
  -22.6720   -4.3360   21.4600 F   0  0  0  0  0  0  0  0  0  0  0  0
  -21.3780   -3.9580   26.0410 F   0  0  0  0  0  0  0  0  0  0  0  0
  -23.1160  -13.6060   21.2490 C   0  0  0  0  0  0  0  0  0  0  0  0
  -22.4330  -12.8890   22.1350 N   0  0  0  0  0  0  0  0  0  0  0  0
  -22.6640  -14.6580   20.7980 O   0  0  0  0  0  0  0  0  0  0  0  0
  -22.8120  -12.0370   22.5200 H   0  0  0  0  0  0  0  0  0  0  0  0
  -21.5190  -13.1990   22.4340 H   0  0  0  0  0  0  0  0  0  0  0  0
  -25.7140  -15.2550   20.3020 N   0  0  0  0  0  0  0  0  0  0  0  0
  -24.9680  -15.9190   20.4820 H   0  0  0  0  0  0  0  0  0  0  0  0
  -26.5460  -15.6890   19.9210 H   0  0  0  0  0  0  0  0  0  0  0  0
  -28.7220  -22.8270   19.8820 C   0  0  0  0  0  2  0  0  0  0  0  0
  -28.4970  -24.2460   20.4840 C   0  0  0  0  0  0  0  0  0  0  0  0
  -28.2560  -24.3780   21.6910 O   0  0  0  0  0  0  0  0  0  0  0  0
  -28.6090  -25.4760   19.5420 C   0  0  0  0  0  2  0  0  0  0  0  0
  -28.4490  -26.7480   20.2250 O   0  0  0  0  0  0  0  0  0  0  0  0
  -24.5170  -31.9130   23.1930 C   0  0  0  0  0  0  0  0  0  0  0  0
  -27.2540  -27.4520   20.1770 C   0  0  0  0  0  0  0  0  0  0  0  0
  -23.3570  -30.5000   21.5290 C   0  0  0  0  0  3  0  0  0  0  0  0
  -24.8500  -28.9670   20.1390 C   0  0  0  0  0  0  0  0  0  0  0  0
  -25.8870  -30.8670   21.3890 C   0  0  0  0  0  2  0  0  0  0  0  0
  -25.9930  -29.4930   20.7510 C   0  0  0  0  0  0  0  0  0  0  0  0
  -27.1950  -28.7420   20.7670 C   0  0  0  0  0  3  0  0  0  0  0  0
  -26.0810  -26.9440   19.5700 C   0  0  0  0  0  3  0  0  0  0  0  0
  -24.8900  -27.6940   19.5480 C   0  0  0  0  0  3  0  0  0  0  0  0
  -23.6020  -29.8210   20.1550 C   0  0  0  0  0  2  0  0  0  0  0  0
  -24.6040  -31.1090   22.0950 N   0  0  0  0  0  0  0  0  0  0  0  0
  -23.4220  -32.1790   23.7080 O   0  0  0  0  0  0  0  0  0  0  0  0
  -22.6910  -29.4760   22.4760 C   0  0  0  0  0  0  0  0  0  0  0  0
  -21.3700  -29.2860   22.3210 N   0  0  0  0  0  0  0  0  0  0  0  0
  -23.3600  -28.8570   23.3070 O   0  0  0  0  0  0  0  0  0  0  0  0
  -20.8920  -29.8390   21.6230 H   0  0  0  0  0  0  0  0  0  0  0  0
  -17.9830  -28.1190   22.7940 C   0  0  0  0  0  0  0  0  0  0  0  0
  -20.5430  -28.3440   23.0740 C   0  0  0  0  0  3  0  0  0  0  0  0
  -20.6310  -26.9220   22.4740 C   0  0  0  0  0  2  0  0  0  0  0  0
  -19.5280  -26.6280   21.4520 C   0  0  0  0  0  2  0  0  0  0  0  0
  -18.1460  -26.7780   22.0970 C   0  0  0  0  0  2  0  0  0  0  0  0
  -19.1090  -28.8610   23.2390 C   0  0  0  0  0  0  0  0  0  0  0  0
  -18.9040  -30.1170   23.8490 C   0  0  0  0  0  3  0  0  0  0  0  0
  -17.6040  -30.6300   24.0210 C   0  0  0  0  0  3  0  0  0  0  0  0
  -16.4920  -29.8840   23.5940 C   0  0  0  0  0  3  0  0  0  0  0  0
  -16.6830  -28.6300   22.9860 C   0  0  0  0  0  3  0  0  0  0  0  0
  -25.7840  -32.5540   23.8400 C   0  0  0  0  0  3  0  0  0  0  0  0
  -25.4590  -33.9510   24.1620 N   0  0  0  0  0  0  0  0  0  0  0  0
  -25.7950  -35.0040   23.4050 C   0  0  0  0  0  0  0  0  0  0  0  0
  -26.4840  -34.9030   22.3860 O   0  0  0  0  0  0  0  0  0  0  0  0
  -24.8520  -34.1030   24.9540 H   0  0  0  0  0  0  0  0  0  0  0  0
  -24.0640  -36.7830   23.0070 C   0  0  0  0  0  1  0  0  0  0  0  0
  -25.2870  -36.3890   23.8500 C   0  0  0  0  0  3  0  0  0  0  0  0
  -27.3890  -37.2930   24.7380 C   0  0  0  0  0  1  0  0  0  0  0  0
  -26.3150  -37.4490   23.7610 N   0  0  0  0  0  0  0  0  0  0  0  0
  -25.8980  -38.3660   23.8920 H   0  0  0  0  0  0  0  0  0  0  0  0
  -26.2810  -31.7880   25.1270 C   0  0  1  0  0  0  0  0  0  0  0  0
  -25.1660  -31.5280   26.1660 C   0  0  0  0  0  1  0  0  0  0  0  0
  -26.8970  -30.4220   24.7440 C   0  0  0  0  0  1  0  0  0  0  0  0
  -27.4010  -32.5980   25.8210 C   0  0  0  0  0  1  0  0  0  0  0  0
  1  2  1  0
  3  6  1  0
  3  4  2  0
  4  1  1  0
  4  7  1  0
  5  8  1  0
  5  7  1  0
  6  5  2  0
  9 17  1  0
 10 15  1  0
 11 12  1  0
 11 10  1  0
 13 12  1  0
 13 22  1  0
 13 14  1  0
 15  9  1  0
 15 14  1  0
 16  9  2  0
 17 18  1  0
 17  8  1  0
 19 20  2  0
 20 39  1  0
 21 20  1  0
 21 24  1  0
 22 23  1  0
 22 19  1  0
 23 21  2  0
 24 25  1  0
 25 26  2  0
 27 30  1  0
 27 26  1  0
 28 27  2  0
 29 28  1  0
 29 24  2  0
 30 31  1  0
 31 32  1  0
 32 33  2  0
 34 33  1  0
 34 38  1  0
 35 34  2  0
 36 31  2  0
 36 35  1  0
 37 36  1  0
 39 40  1  0
 40 43  1  0
 40 42  1  0
 41 39  2  0
 44 19  1  0
 44 45  1  0
 46 44  1  0
 47 48  1  0
 47  1  1  0
 48 49  2  0
 50 51  1  0
 50 48  1  0
 52 63  2  0
 53 51  1  0
 53 58  1  0
 54 62  1  0
 54 64  1  0
 55 61  1  0
 55 57  1  0
 56 62  1  0
 57 58  2  0
 57 56  1  0
 59 53  2  0
 60 59  1  0
 60 55  2  0
 61 54  1  0
 62 52  1  0
 64 66  2  0
 65 64  1  0
 67 65  1  0
 68 77  2  0
 68 73  1  0
 69 65  1  0
 69 73  1  0
 70 69  1  0
 71 72  1  0
 71 70  1  0
 72 68  1  0
 73 74  2  0
 74 75  1  0
 76 75  2  0
 77 76  1  0
 78 52  1  0
 78 79  1  0
 78 88  1  0
 79 82  1  0
 80 84  1  0
 80 79  1  0
 81 80  2  0
 84 83  1  0
 86 84  1  0
 86 87  1  0
 86 85  1  0
 88 91  1  1
 88 89  1  0
 90 88  1  0
M  ISO  4   9 100  17 100  50 101  51 101
M  END
>  <TORSDO>  (54) 
F 21

>  <SCORE>  (54) 
-12.894

>  <name>  (54) 
54

>  <ligand_id>  (54) 
54

>  <original_smiles>  (54) 
[H]c1nc(C([H])([H])N([H])C(=O)N2C([H])([H])C([H])([H])C([H])([H])C([H])(n3nc(-c4c([H])c([H])c(Oc5c([H])c([H])c(F)c([H])c5F)c([H])c4[H])c(C(=O)N([H])[H])c3N([H])[H])C2([H])[H])sc1N([H])C([H])([H])C(=O)C([H])([H])Oc1c([H])c([H])c2c(c1[H])C([H])([H])N(C(=O)C([H])(N([H])C(=O)C([H])(N([H])C([H])([H])[H])C([H])([H])[H])C(C([H])([H])[H])(C([H])([H])[H])C([H])([H])[H])C([H])(C(=O)N([H])C1([H])c3c([H])c([H])c([H])c([H])c3C([H])([H])C([H])([H])C1([H])[H])C2([H])[H]

>  <smiles>  (54) 
[H]c1nc(C([H])([H])N([H])C(=O)N2C([H])([H])C([H])([H])C([H])([H])C([H])(n3nc(-c4c([H])c([H])c(Oc5c([H])c([H])c(F)c([H])c5F)c([H])c4[H])c(C(=O)N([H])[H])c3N([H])[H])C2([H])[H])sc1N([H])C([H])([H])C(=O)C([H])([H])Oc1c([H])c([H])c2c(c1[H])C([H])([H])N(C(=O)C([H])(N([H])C(=O)C([H])(N([H])C([H])([H])[H])C([H])([H])[H])C(C([H])([H])[H])(C([H])([H])[H])C([H])([H])[H])C([H])(C(=O)N([H])C1([H])c3c([H])c([H])c([H])c([H])c3C([H])([H])C([H])([H])C1([H])[H])C2([H])[H]

$$$$
55:0:0
     RDKit          3D

 96104  0  0  1  0  0  0  0  0999 V2000
  -29.1130  -20.6140   20.7900 C   0  0  0  0  0  0  0  0  0  0  0  0
  -29.3570  -21.9030   20.4620 N   0  0  0  0  0  0  0  0  0  0  0  0
  -27.8880  -20.3100   21.2260 N   0  0  0  0  0  4  0  0  0  0  0  0
  -30.3040  -22.1380   20.1760 H   0  0  0  0  0  0  0  0  0  0  0  0
  -27.7000  -19.3770   21.5600 H   0  0  0  0  0  0  0  0  0  0  0  0
  -27.1400  -20.9810   21.2560 H   0  0  0  0  0  0  0  0  0  0  0  0
  -32.0900  -17.4820   20.7320 C   0  0  0  0  0  3  0  0  0  0  0  0
  -32.4780  -18.8320   20.8020 C   0  0  0  0  0  3  0  0  0  0  0  0
  -29.7570  -18.1690   20.6290 C   0  0  0  0  0  3  0  0  0  0  0  0
  -30.1360  -19.5410   20.7180 C   0  0  0  0  0  0  0  0  0  0  0  0
  -30.7240  -17.1250   20.6260 C   0  0  0  0  0  0  0  0  0  0  0  0
  -31.5130  -19.8570   20.7940 C   0  0  0  0  0  0  0  0  0  0  0  0
  -31.9320  -21.1440   20.8700 F   0  0  0  0  0  0  0  0  0  0  0  0
  -30.9640  -14.7030   20.0150 C   0  0  0  0  0  0  0  0  0  0  0  0
  -30.6250  -12.5020   18.9500 C   0  0  0  0  0  2  0  0  0  0  0  0
  -29.6360  -12.6490   17.7760 C   0  0  0  0  0  2  0  0  0  0  0  0
  -28.1840  -12.5050   18.2730 C   0  0  0  0  0  2  0  0  0  0  0  0
  -27.8860  -13.3860   19.5160 C   0  0  0  0  0  3  0  0  0  0  0  0
  -28.9890  -13.2320   20.5890 C   0  0  0  0  0  2  0  0  0  0  0  0
  -30.2830  -13.5260   19.9530 N   0  0  0  0  0  0  0  0  0  0  0  0
  -32.0640  -14.8480   19.4740 O   0  0  0  0  0  0  0  0  0  0  0  0
  -30.3010  -15.7510   20.5600 N   0  0  0  0  0  0  0  0  0  0  0  0
  -29.3610  -15.5490   20.8620 H   0  0  0  0  0  0  0  0  0  0  0  0
  -25.5360  -13.9950   20.3660 C   0  0  0  0  0  0  0  0  0  0  0  0
  -24.4810  -13.2230   20.7740 C   0  0  0  0  0  0  0  0  0  0  0  0
  -24.9250  -11.8690   20.6860 C   0  0  0  0  0  0  0  0  0  0  0  0
  -26.5580  -13.1100   20.0600 N   0  0  0  0  0  0  0  0  0  0  0  0
  -26.1970  -11.8250   20.3090 N   0  0  0  0  0  0  0  0  0  0  0  0
  -24.1970  -10.6090   20.8830 C   0  0  0  0  0  0  0  0  0  0  0  0
  -24.5970   -9.6690   21.8590 C   0  0  0  0  0  3  0  0  0  0  0  0
  -23.8700   -8.4730   22.0420 C   0  0  0  0  0  3  0  0  0  0  0  0
  -22.7280   -8.2090   21.2490 C   0  0  0  0  0  0  0  0  0  0  0  0
  -22.3480   -9.1360   20.2630 C   0  0  0  0  0  3  0  0  0  0  0  0
  -23.0760  -10.3250   20.0790 C   0  0  0  0  0  3  0  0  0  0  0  0
  -21.9760   -7.0630   21.3380 O   0  0  0  0  0  0  0  0  0  0  0  0
  -21.8090   -6.4030   22.5290 C   0  0  0  0  0  0  0  0  0  0  0  0
  -21.1850   -7.0140   23.6380 C   0  0  0  0  0  3  0  0  0  0  0  0
  -20.9710   -6.2760   24.8210 C   0  0  0  0  0  3  0  0  0  0  0  0
  -21.3710   -4.9290   24.8930 C   0  0  0  0  0  0  0  0  0  0  0  0
  -21.9890   -4.3180   23.7870 C   0  0  0  0  0  3  0  0  0  0  0  0
  -22.2040   -5.0520   22.6080 C   0  0  0  0  0  0  0  0  0  0  0  0
  -22.7800   -4.4520   21.5380 F   0  0  0  0  0  0  0  0  0  0  0  0
  -21.1600   -4.2180   26.0250 F   0  0  0  0  0  0  0  0  0  0  0  0
  -23.1050  -13.7070   21.1310 C   0  0  0  0  0  0  0  0  0  0  0  0
  -22.4080  -12.9870   22.0030 N   0  0  0  0  0  0  0  0  0  0  0  0
  -22.6560  -14.7570   20.6710 O   0  0  0  0  0  0  0  0  0  0  0  0
  -22.7850  -12.1360   22.3960 H   0  0  0  0  0  0  0  0  0  0  0  0
  -21.4870  -13.2910   22.2840 H   0  0  0  0  0  0  0  0  0  0  0  0
  -25.7050  -15.3670   20.2110 N   0  0  0  0  0  0  0  0  0  0  0  0
  -24.9430  -16.0210   20.3580 H   0  0  0  0  0  0  0  0  0  0  0  0
  -26.5240  -15.8020   19.8070 H   0  0  0  0  0  0  0  0  0  0  0  0
  -28.4450  -23.0730   20.6120 C   0  0  0  0  0  2  0  0  0  0  0  0
  -29.0690  -24.4510   20.2960 C   0  0  0  0  0  0  0  0  0  0  0  0
  -30.1070  -24.5420   19.6300 O   0  0  0  0  0  0  0  0  0  0  0  0
  -28.3500  -25.6870   20.8880 C   0  0  0  0  0  2  0  0  0  0  0  0
  -28.5540  -26.9140   20.1480 O   0  0  0  0  0  0  0  0  0  0  0  0
  -24.6160  -31.9630   23.2890 C   0  0  0  0  0  0  0  0  0  0  0  0
  -27.4110  -27.6840   20.1110 C   0  0  0  0  0  0  0  0  0  0  0  0
  -23.4740  -30.5960   21.5740 C   0  0  0  0  0  3  0  0  0  0  0  0
  -24.9900  -29.1460   20.1200 C   0  0  0  0  0  0  0  0  0  0  0  0
  -25.9960  -31.0170   21.4390 C   0  0  0  0  0  2  0  0  0  0  0  0
  -26.1260  -29.6730   20.7500 C   0  0  0  0  0  0  0  0  0  0  0  0
  -27.3440  -28.9500   20.7400 C   0  0  0  0  0  3  0  0  0  0  0  0
  -26.2630  -27.1800   19.4650 C   0  0  0  0  0  3  0  0  0  0  0  0
  -25.0540  -27.9010   19.4720 C   0  0  0  0  0  3  0  0  0  0  0  0
  -23.7250  -29.9740   20.1750 C   0  0  0  0  0  2  0  0  0  0  0  0
  -24.7130  -31.2050   22.1600 N   0  0  0  0  0  0  0  0  0  0  0  0
  -23.5190  -32.1910   23.8170 O   0  0  0  0  0  0  0  0  0  0  0  0
  -22.8270  -29.5260   22.4840 C   0  0  0  0  0  0  0  0  0  0  0  0
  -21.5100  -29.3210   22.3250 N   0  0  0  0  0  0  0  0  0  0  0  0
  -23.5080  -28.8870   23.2890 O   0  0  0  0  0  0  0  0  0  0  0  0
  -21.0210  -29.8910   21.6500 H   0  0  0  0  0  0  0  0  0  0  0  0
  -18.1500  -28.0480   22.7220 C   0  0  0  0  0  0  0  0  0  0  0  0
  -20.6990  -28.3380   23.0440 C   0  0  0  0  0  3  0  0  0  0  0  0
  -20.8350  -26.9340   22.4130 C   0  0  0  0  0  2  0  0  0  0  0  0
  -19.7550  -26.6340   21.3690 C   0  0  0  0  0  2  0  0  0  0  0  0
  -18.3610  -26.7300   21.9970 C   0  0  0  0  0  2  0  0  0  0  0  0
  -19.2490  -28.8110   23.2000 C   0  0  0  0  0  0  0  0  0  0  0  0
  -18.9980  -30.0470   23.8360 C   0  0  0  0  0  3  0  0  0  0  0  0
  -17.6820  -30.5180   24.0000 C   0  0  0  0  0  3  0  0  0  0  0  0
  -16.5980  -29.7510   23.5390 C   0  0  0  0  0  3  0  0  0  0  0  0
  -16.8330  -28.5180   22.9060 C   0  0  0  0  0  3  0  0  0  0  0  0
  -25.8760  -32.5990   23.9560 C   0  0  0  0  0  3  0  0  0  0  0  0
  -26.3490  -31.8290   25.2500 C   0  0  1  0  0  0  0  0  0  0  0  0
  -25.2160  -31.5700   26.2690 C   0  0  0  0  0  1  0  0  0  0  0  0
  -26.9700  -30.4630   24.8750 C   0  0  0  0  0  1  0  0  0  0  0  0
  -27.4580  -32.6380   25.9650 C   0  0  0  0  0  1  0  0  0  0  0  0
  -25.5520  -33.9960   24.2720 N   0  0  0  0  0  0  0  0  0  0  0  0
  -25.9070  -35.0470   23.5210 C   0  0  0  0  0  0  0  0  0  0  0  0
  -26.6140  -34.9420   22.5140 O   0  0  0  0  0  0  0  0  0  0  0  0
  -24.9290  -34.1510   25.0510 H   0  0  0  0  0  0  0  0  0  0  0  0
  -24.1900  -36.8340   23.0950 C   0  0  0  0  0  1  0  0  0  0  0  0
  -25.3990  -36.4350   23.9560 C   0  0  0  0  0  3  0  0  0  0  0  0
  -27.4920  -37.3320   24.8750 C   0  0  0  0  0  1  0  0  0  0  0  0
  -26.4330  -37.4900   23.8820 N   0  0  0  0  0  0  0  0  0  0  0  0
  -26.0180  -38.4100   24.0040 H   0  0  0  0  0  0  0  0  0  0  0  0
  1  3  2  0
  2 52  1  0
  2  1  1  0
  3  6  1  0
  3  5  1  0
  4  2  1  0
  7  8  1  0
  9 10  2  0
 10  1  1  0
 10 12  1  0
 11  9  1  0
 11  7  2  0
 12  8  2  0
 12 13  1  0
 14 22  1  0
 15 20  1  0
 16 17  1  0
 16 15  1  0
 18 17  1  0
 18 27  1  0
 18 19  1  0
 20 14  1  0
 20 19  1  0
 21 14  2  0
 22 11  1  0
 22 23  1  0
 24 25  2  0
 25 44  1  0
 26 25  1  0
 26 29  1  0
 27 28  1  0
 27 24  1  0
 28 26  2  0
 29 30  1  0
 30 31  2  0
 32 35  1  0
 32 31  1  0
 33 32  2  0
 34 33  1  0
 34 29  2  0
 35 36  1  0
 36 41  2  0
 36 37  1  0
 37 38  2  0
 38 39  1  0
 39 43  1  0
 40 39  2  0
 41 40  1  0
 42 41  1  0
 44 45  1  0
 45 48  1  0
 45 47  1  0
 46 44  2  0
 49 50  1  0
 49 24  1  0
 51 49  1  0
 53 52  1  0
 53 55  1  0
 54 53  2  0
 56 55  1  0
 57 68  2  0
 58 56  1  0
 58 63  1  0
 59 67  1  0
 59 69  1  0
 60 66  1  0
 60 62  1  0
 61 67  1  0
 62 61  1  0
 63 62  2  0
 64 65  1  0
 64 58  2  0
 65 60  2  0
 66 59  1  0
 67 57  1  0
 69 71  2  0
 70 69  1  0
 72 70  1  0
 73 82  2  0
 73 78  1  0
 74 70  1  0
 74 78  1  0
 75 74  1  0
 76 77  1  0
 76 75  1  0
 77 73  1  0
 78 79  2  0
 79 80  1  0
 81 80  2  0
 82 81  1  0
 83 57  1  0
 83 88  1  0
 83 84  1  0
 84 87  1  1
 84 85  1  0
 86 84  1  0
 88 91  1  0
 89 93  1  0
 89 88  1  0
 90 89  2  0
 93 92  1  0
 95 93  1  0
 95 96  1  0
 95 94  1  0
M  ISO  4  14 100  22 100  55 101  56 101
M  END
>  <TORSDO>  (55) 
F 20

>  <SCORE>  (55) 
-13.762

>  <name>  (55) 
55

>  <ligand_id>  (55) 
55

>  <original_smiles>  (55) 
[H]c1c([H])c([H])c2c(c1[H])C([H])([H])C([H])([H])C([H])([H])C2([H])N([H])C(=O)C1([H])N(C(=O)C([H])(N([H])C(=O)C([H])(N([H])C([H])([H])[H])C([H])([H])[H])C(C([H])([H])[H])(C([H])([H])[H])C([H])([H])[H])C([H])([H])c2c([H])c(OC([H])([H])C(=O)C([H])([H])N([H])C(c3c([H])c(N([H])C(=O)N4C([H])([H])C([H])([H])C([H])([H])C([H])(n5nc(-c6c([H])c([H])c(Oc7c([H])c([H])c(F)c([H])c7F)c([H])c6[H])c(C(=O)N([H])[H])c5N([H])[H])C4([H])[H])c([H])c([H])c3F)=[N+]([H])[H])c([H])c([H])c2C1([H])[H]

>  <smiles>  (55) 
[H]c1c([H])c([H])c2c(c1[H])C([H])([H])C([H])([H])C([H])([H])C2([H])N([H])C(=O)C1([H])N(C(=O)C([H])(N([H])C(=O)C([H])(N([H])C([H])([H])[H])C([H])([H])[H])C(C([H])([H])[H])(C([H])([H])[H])C([H])([H])[H])C([H])([H])c2c([H])c(OC([H])([H])C(=O)C([H])([H])N([H])C(c3c([H])c(N([H])C(=O)N4C([H])([H])C([H])([H])C([H])([H])C([H])(n5nc(-c6c([H])c([H])c(Oc7c([H])c([H])c(F)c([H])c7F)c([H])c6[H])c(C(=O)N([H])[H])c5N([H])[H])C4([H])[H])c([H])c([H])c3F)=[N+]([H])[H])c([H])c([H])c2C1([H])[H]

$$$$
56:0:0
     RDKit          3D

 97106  0  0  1  0  0  0  0  0999 V2000
  -30.4970  -22.1550   20.2260 C   0  0  0  0  0  2  0  0  0  0  0  0
  -28.0240  -21.6270   20.3960 C   0  0  0  0  0  2  0  0  0  0  0  0
  -30.1540  -23.7030   20.1460 C   0  0  0  0  0  2  0  0  0  0  0  0
  -27.7190  -23.1760   20.2830 C   0  0  0  0  0  2  0  0  0  0  0  0
  -29.3580  -21.2250   19.7210 C   0  0  0  0  0  3  0  0  0  0  0  0
  -28.8310  -24.1120   20.8650 C   0  0  1  0  0  0  0  0  0  0  0  0
  -30.9260  -15.0420   20.4940 C   0  0  0  0  0  0  0  0  0  0  0  0
  -30.7510  -12.7630   19.5310 C   0  0  0  0  0  2  0  0  0  0  0  0
  -29.8630  -12.8500   18.2680 C   0  0  0  0  0  2  0  0  0  0  0  0
  -28.3770  -12.6920   18.6440 C   0  0  0  0  0  2  0  0  0  0  0  0
  -27.9640  -13.5890   19.8410 C   0  0  0  0  0  3  0  0  0  0  0  0
  -28.9760  -13.4970   21.0040 C   0  0  0  0  0  2  0  0  0  0  0  0
  -30.3030  -13.8170   20.4650 N   0  0  0  0  0  0  0  0  0  0  0  0
  -32.1170  -15.1370   20.1780 O   0  0  0  0  0  0  0  0  0  0  0  0
  -30.2360  -17.1940   18.4910 C   0  0  0  0  0  3  0  0  0  0  0  0
  -30.0830  -18.2820   17.6440 C   0  0  0  0  0  0  0  0  0  0  0  0
  -30.0900  -17.3840   19.8780 C   0  0  0  0  0  0  0  0  0  0  0  0
  -29.6680  -19.6930   19.4040 C   0  0  0  0  0  0  0  0  0  0  0  0
  -29.8180  -19.5010   18.0950 N   0  0  0  0  0  0  0  0  0  0  0  0
  -29.7840  -18.6740   20.3140 N   0  0  0  0  0  0  0  0  0  0  0  0
  -30.1490  -16.1650   20.6970 N   0  0  0  0  0  0  0  0  0  0  0  0
  -29.3180  -16.0030   21.2430 H   0  0  0  0  0  0  0  0  0  0  0  0
  -25.5540  -14.1880   20.4840 C   0  0  0  0  0  0  0  0  0  0  0  0
  -24.4750  -13.4150   20.8220 C   0  0  0  0  0  0  0  0  0  0  0  0
  -24.9390  -12.0640   20.8130 C   0  0  0  0  0  0  0  0  0  0  0  0
  -26.6020  -13.3070   20.2830 N   0  0  0  0  0  0  0  0  0  0  0  0
  -26.2360  -12.0240   20.5420 N   0  0  0  0  0  0  0  0  0  0  0  0
  -24.2040  -10.8040   20.9850 C   0  0  0  0  0  0  0  0  0  0  0  0
  -24.6000   -9.8430   21.9430 C   0  0  0  0  0  3  0  0  0  0  0  0
  -23.8670   -8.6460   22.1020 C   0  0  0  0  0  3  0  0  0  0  0  0
  -22.7250   -8.4020   21.3030 C   0  0  0  0  0  0  0  0  0  0  0  0
  -22.3480   -9.3520   20.3370 C   0  0  0  0  0  3  0  0  0  0  0  0
  -23.0820  -10.5410   20.1760 C   0  0  0  0  0  3  0  0  0  0  0  0
  -21.9670   -7.2580   21.3710 O   0  0  0  0  0  0  0  0  0  0  0  0
  -21.8800   -6.5190   22.5240 C   0  0  0  0  0  0  0  0  0  0  0  0
  -21.3630   -7.0650   23.7210 C   0  0  0  0  0  3  0  0  0  0  0  0
  -21.2280   -6.2520   24.8640 C   0  0  0  0  0  3  0  0  0  0  0  0
  -21.5960   -4.8940   24.8120 C   0  0  0  0  0  0  0  0  0  0  0  0
  -22.1040   -4.3480   23.6200 C   0  0  0  0  0  3  0  0  0  0  0  0
  -22.2420   -5.1580   22.4790 C   0  0  0  0  0  0  0  0  0  0  0  0
  -22.7140   -4.6210   21.3280 F   0  0  0  0  0  0  0  0  0  0  0  0
  -21.4560   -4.1110   25.9080 F   0  0  0  0  0  0  0  0  0  0  0  0
  -23.0700  -13.8930   21.0410 C   0  0  0  0  0  0  0  0  0  0  0  0
  -22.3160  -13.2110   21.8980 N   0  0  0  0  0  0  0  0  0  0  0  0
  -22.6490  -14.9080   20.4930 O   0  0  0  0  0  0  0  0  0  0  0  0
  -22.6640  -12.3870   22.3650 H   0  0  0  0  0  0  0  0  0  0  0  0
  -21.3730  -13.5180   22.0880 H   0  0  0  0  0  0  0  0  0  0  0  0
  -25.7200  -15.5580   20.3080 N   0  0  0  0  0  0  0  0  0  0  0  0
  -24.9460  -16.2070   20.3910 H   0  0  0  0  0  0  0  0  0  0  0  0
  -26.5660  -15.9930   19.9620 H   0  0  0  0  0  0  0  0  0  0  0  0
  -30.1990  -18.1510   16.2710 N   0  0  0  0  0  0  0  0  0  0  0  0
  -30.1270  -17.2260   15.8670 H   0  0  0  0  0  0  0  0  0  0  0  0
  -29.7950  -18.8800   15.6970 H   0  0  0  0  0  0  0  0  0  0  0  0
  -28.2110  -23.9280   23.2520 C   0  0  0  0  0  1  0  0  0  0  0  0
  -29.1310  -23.6540   22.1950 O   0  0  0  0  0  0  0  0  0  0  0  0
  -28.4680  -25.6930   21.0090 C   0  0  0  0  0  2  0  0  0  0  0  0
  -28.5010  -26.7650   19.9910 O   0  0  0  0  0  0  0  0  0  0  0  0
  -24.6840  -31.9040   23.3700 C   0  0  0  0  0  0  0  0  0  0  0  0
  -27.4010  -27.6340   20.0200 C   0  0  0  0  0  0  0  0  0  0  0  0
  -23.5160  -30.6010   21.6250 C   0  0  0  0  0  3  0  0  0  0  0  0
  -25.0070  -29.1860   20.1030 C   0  0  0  0  0  0  0  0  0  0  0  0
  -26.0490  -30.9870   21.4810 C   0  0  0  0  0  2  0  0  0  0  0  0
  -26.1630  -29.6600   20.7390 C   0  0  0  0  0  0  0  0  0  0  0  0
  -27.3690  -28.8960   20.6880 C   0  0  0  0  0  3  0  0  0  0  0  0
  -26.2300  -27.2110   19.3640 C   0  0  0  0  0  3  0  0  0  0  0  0
  -25.0410  -27.9670   19.4060 C   0  0  0  0  0  3  0  0  0  0  0  0
  -23.7510  -30.0300   20.2030 C   0  0  0  0  0  2  0  0  0  0  0  0
  -24.7670  -31.1780   22.2170 N   0  0  0  0  0  0  0  0  0  0  0  0
  -23.5920  -32.1220   23.9160 O   0  0  0  0  0  0  0  0  0  0  0  0
  -22.8690  -29.5070   22.5080 C   0  0  0  0  0  0  0  0  0  0  0  0
  -21.5560  -29.2850   22.3300 N   0  0  0  0  0  0  0  0  0  0  0  0
  -23.5490  -28.8630   23.3120 O   0  0  0  0  0  0  0  0  0  0  0  0
  -21.0640  -29.8590   21.6590 H   0  0  0  0  0  0  0  0  0  0  0  0
  -18.2200  -27.9230   22.6490 C   0  0  0  0  0  0  0  0  0  0  0  0
  -20.7540  -28.2740   23.0220 C   0  0  0  0  0  3  0  0  0  0  0  0
  -20.9380  -26.8810   22.3770 C   0  0  0  0  0  2  0  0  0  0  0  0
  -19.8850  -26.5670   21.3090 C   0  0  0  0  0  2  0  0  0  0  0  0
  -18.4780  -26.6200   21.9100 C   0  0  0  0  0  2  0  0  0  0  0  0
  -19.2890  -28.7070   23.1560 C   0  0  0  0  0  0  0  0  0  0  0  0
  -18.9970  -29.9270   23.8040 C   0  0  0  0  0  3  0  0  0  0  0  0
  -17.6670  -30.3640   23.9500 C   0  0  0  0  0  3  0  0  0  0  0  0
  -16.6110  -29.5770   23.4600 C   0  0  0  0  0  3  0  0  0  0  0  0
  -16.8880  -28.3580   22.8140 C   0  0  0  0  0  3  0  0  0  0  0  0
  -25.9530  -32.5140   24.0430 C   0  0  0  0  0  3  0  0  0  0  0  0
  -26.4610  -31.6780   25.2820 C   0  0  1  0  0  0  0  0  0  0  0  0
  -25.3550  -31.3700   26.3180 C   0  0  0  0  0  1  0  0  0  0  0  0
  -27.0670  -30.3320   24.8230 C   0  0  0  0  0  1  0  0  0  0  0  0
  -27.5910  -32.4480   26.0050 C   0  0  0  0  0  1  0  0  0  0  0  0
  -25.6220  -33.8890   24.4480 N   0  0  0  0  0  0  0  0  0  0  0  0
  -25.9820  -34.9890   23.7720 C   0  0  0  0  0  0  0  0  0  0  0  0
  -26.6970  -34.9520   22.7670 O   0  0  0  0  0  0  0  0  0  0  0  0
  -24.9910  -33.9910   25.2290 H   0  0  0  0  0  0  0  0  0  0  0  0
  -24.2950  -36.8220   23.4280 C   0  0  0  0  0  1  0  0  0  0  0  0
  -25.4690  -36.3440   24.2970 C   0  0  0  0  0  3  0  0  0  0  0  0
  -27.5330  -37.1460   25.3580 C   0  0  0  0  0  1  0  0  0  0  0  0
  -26.5130  -37.3910   24.3410 N   0  0  0  0  0  0  0  0  0  0  0  0
  -26.1000  -38.3020   24.5200 H   0  0  0  0  0  0  0  0  0  0  0  0
  3  1  1  0
  3  6  1  0
  4  2  1  0
  4  6  1  0
  5 18  1  0
  5  1  1  0
  5  2  1  0
  6 56  1  1
  6 55  1  0
  7 21  1  0
  8 13  1  0
  9 10  1  0
  9  8  1  0
 11 10  1  0
 11 26  1  0
 11 12  1  0
 13  7  1  0
 13 12  1  0
 14  7  2  0
 15 17  1  0
 16 19  1  0
 16 15  2  0
 17 20  2  0
 17 21  1  0
 18 20  1  0
 19 18  2  0
 21 22  1  0
 23 24  2  0
 24 43  1  0
 25 24  1  0
 25 28  1  0
 26 23  1  0
 26 27  1  0
 27 25  2  0
 28 29  1  0
 29 30  2  0
 31 34  1  0
 31 30  1  0
 32 31  2  0
 33 32  1  0
 33 28  2  0
 34 35  1  0
 35 36  1  0
 36 37  2  0
 38 37  1  0
 38 42  1  0
 39 38  2  0
 40 35  2  0
 40 39  1  0
 41 40  1  0
 43 44  1  0
 44 47  1  0
 44 46  1  0
 45 43  2  0
 48 49  1  0
 48 23  1  0
 50 48  1  0
 51 16  1  0
 52 51  1  0
 53 51  1  0
 55 54  1  0
 57 59  1  0
 57 56  1  0
 58 69  2  0
 59 64  1  0
 60 68  1  0
 60 70  1  0
 61 67  1  0
 61 63  1  0
 62 68  1  0
 63 62  1  0
 64 63  2  0
 65 66  1  0
 65 59  2  0
 66 61  2  0
 67 60  1  0
 68 58  1  0
 70 72  2  0
 71 70  1  0
 73 71  1  0
 74 83  2  0
 74 79  1  0
 75 71  1  0
 75 79  1  0
 76 75  1  0
 77 78  1  0
 77 76  1  0
 78 74  1  0
 79 80  2  0
 80 81  1  0
 82 81  2  0
 83 82  1  0
 84 58  1  0
 84 89  1  0
 84 85  1  0
 85 88  1  1
 85 86  1  0
 87 85  1  0
 89 92  1  0
 90 94  1  0
 90 89  1  0
 91 90  2  0
 94 93  1  0
 94 96  1  0
 96 97  1  0
 96 95  1  0
M  ISO  4   7 100  21 100  56 101  57 101
M  END
>  <TORSDO>  (56) 
F 19

>  <SCORE>  (56) 
-13.236

>  <name>  (56) 
56

>  <ligand_id>  (56) 
56

>  <original_smiles>  (56) 
[H]c1c(N([H])[H])nc(C2([H])C([H])([H])C([H])([H])C(OC([H])([H])[H])(C([H])([H])Oc3c([H])c([H])c4c(c3[H])C([H])([H])N(C(=O)C([H])(N([H])C(=O)C([H])(N([H])C([H])([H])[H])C([H])([H])[H])C(C([H])([H])[H])(C([H])([H])[H])C([H])([H])[H])C([H])(C(=O)N([H])C3([H])c5c([H])c([H])c([H])c([H])c5C([H])([H])C([H])([H])C3([H])[H])C4([H])[H])C([H])([H])C2([H])[H])nc1N([H])C(=O)N1C([H])([H])C([H])([H])C([H])([H])C([H])(n2nc(-c3c([H])c([H])c(Oc4c([H])c([H])c(F)c([H])c4F)c([H])c3[H])c(C(=O)N([H])[H])c2N([H])[H])C1([H])[H]

>  <smiles>  (56) 
[H]c1c(N([H])[H])nc(C2([H])C([H])([H])C([H])([H])C(OC([H])([H])[H])(C([H])([H])Oc3c([H])c([H])c4c(c3[H])C([H])([H])N(C(=O)C([H])(N([H])C(=O)C([H])(N([H])C([H])([H])[H])C([H])([H])[H])C(C([H])([H])[H])(C([H])([H])[H])C([H])([H])[H])C([H])(C(=O)N([H])C3([H])c5c([H])c([H])c([H])c([H])c5C([H])([H])C([H])([H])C3([H])[H])C4([H])[H])C([H])([H])C2([H])[H])nc1N([H])C(=O)N1C([H])([H])C([H])([H])C([H])([H])C([H])(n2nc(-c3c([H])c([H])c(Oc4c([H])c([H])c(F)c([H])c4F)c([H])c3[H])c(C(=O)N([H])[H])c2N([H])[H])C1([H])[H]

$$$$
57:0:0
     RDKit          3D

 96104  0  0  1  0  0  0  0  0999 V2000
  -29.7110  -23.2220   19.7680 C   0  0  0  0  0  0  0  0  0  0  0  0
  -29.8670  -22.2000   20.6590 N   0  0  0  0  0  0  0  0  0  0  0  0
  -30.0750  -23.1100   18.5970 O   0  0  0  0  0  0  0  0  0  0  0  0
  -29.4930  -22.4120   21.5760 H   0  0  0  0  0  0  0  0  0  0  0  0
  -28.7240  -25.5220   19.6170 C   0  0  0  0  0  3  0  0  0  0  0  0
  -29.2170  -24.4890   20.3600 C   0  0  0  0  0  0  0  0  0  0  0  0
  -29.3190  -24.6650   21.6850 O   0  0  0  0  0  0  0  0  0  0  0  0
  -29.1160  -25.5790   21.8570 H   0  0  0  0  0  0  0  0  0  0  0  0
  -28.4680  -26.7670   20.1770 O   0  0  0  0  0  0  0  0  0  0  0  0
  -24.5560  -31.8950   23.1700 C   0  0  0  0  0  0  0  0  0  0  0  0
  -27.2770  -27.4760   20.0740 C   0  0  0  0  0  0  0  0  0  0  0  0
  -23.3730  -30.4910   21.5140 C   0  0  0  0  0  3  0  0  0  0  0  0
  -24.8570  -28.9800   20.0670 C   0  0  0  0  0  0  0  0  0  0  0  0
  -25.8960  -30.8730   21.3290 C   0  0  0  0  0  2  0  0  0  0  0  0
  -25.9980  -29.5040   20.6780 C   0  0  0  0  0  0  0  0  0  0  0  0
  -27.2040  -28.7630   20.6760 C   0  0  0  0  0  3  0  0  0  0  0  0
  -26.1140  -26.9690   19.4560 C   0  0  0  0  0  3  0  0  0  0  0  0
  -24.9150  -27.7170   19.4440 C   0  0  0  0  0  3  0  0  0  0  0  0
  -23.5970  -29.8210   20.1280 C   0  0  0  0  0  2  0  0  0  0  0  0
  -24.6250  -31.1010   22.0630 N   0  0  0  0  0  0  0  0  0  0  0  0
  -23.4740  -32.1530   23.7120 O   0  0  0  0  0  0  0  0  0  0  0  0
  -22.7160  -29.4680   22.4680 C   0  0  0  0  0  0  0  0  0  0  0  0
  -21.3850  -29.3110   22.3560 N   0  0  0  0  0  0  0  0  0  0  0  0
  -23.3960  -28.8160   23.2650 O   0  0  0  0  0  0  0  0  0  0  0  0
  -20.8960  -29.8780   21.6780 H   0  0  0  0  0  0  0  0  0  0  0  0
  -17.9900  -28.1840   22.8870 C   0  0  0  0  0  0  0  0  0  0  0  0
  -20.5600  -28.3720   23.1180 C   0  0  0  0  0  3  0  0  0  0  0  0
  -20.6210  -26.9590   22.4970 C   0  0  0  0  0  2  0  0  0  0  0  0
  -19.4890  -26.6940   21.4980 C   0  0  0  0  0  2  0  0  0  0  0  0
  -18.1200  -26.8510   22.1700 C   0  0  0  0  0  2  0  0  0  0  0  0
  -19.1360  -28.9060   23.3150 C   0  0  0  0  0  0  0  0  0  0  0  0
  -18.9580  -30.1600   23.9430 C   0  0  0  0  0  3  0  0  0  0  0  0
  -17.6660  -30.6830   24.1510 C   0  0  0  0  0  3  0  0  0  0  0  0
  -16.5360  -29.9560   23.7390 C   0  0  0  0  0  3  0  0  0  0  0  0
  -16.7000  -28.7120   23.1080 C   0  0  0  0  0  3  0  0  0  0  0  0
  -25.8370  -32.5280   23.8070 C   0  0  0  0  0  3  0  0  0  0  0  0
  -26.3480  -31.7430   25.0770 C   0  0  1  0  0  0  0  0  0  0  0  0
  -25.2490  -31.4880   26.1370 C   0  0  0  0  0  1  0  0  0  0  0  0
  -26.9340  -30.3710   24.6690 C   0  0  0  0  0  1  0  0  0  0  0  0
  -27.4960  -32.5270   25.7490 C   0  0  0  0  0  1  0  0  0  0  0  0
  -25.5190  -33.9210   24.1490 N   0  0  0  0  0  0  0  0  0  0  0  0
  -25.8750  -34.9830   23.4130 C   0  0  0  0  0  0  0  0  0  0  0  0
  -26.5650  -34.8880   22.3930 O   0  0  0  0  0  0  0  0  0  0  0  0
  -24.9070  -34.0670   24.9370 H   0  0  0  0  0  0  0  0  0  0  0  0
  -24.1630  -36.7860   23.0360 C   0  0  0  0  0  1  0  0  0  0  0  0
  -25.3790  -36.3660   23.8760 C   0  0  0  0  0  3  0  0  0  0  0  0
  -27.4870  -37.2280   24.7810 C   0  0  0  0  0  1  0  0  0  0  0  0
  -26.4170  -37.4170   23.8120 N   0  0  0  0  0  0  0  0  0  0  0  0
  -26.0100  -38.3350   23.9630 H   0  0  0  0  0  0  0  0  0  0  0  0
  -31.5890  -21.0090   21.9430 C   0  0  0  0  0  1  0  0  0  0  0  0
  -30.8110  -21.0360   20.6170 C   0  0  0  0  0  3  0  0  0  0  0  0
  -29.8030  -19.5620   18.8390 C   0  0  0  0  0  3  0  0  0  0  0  0
  -29.4130  -18.3320   18.2760 C   0  0  0  0  0  3  0  0  0  0  0  0
  -30.3230  -18.4090   20.9270 C   0  0  0  0  0  3  0  0  0  0  0  0
  -30.2700  -19.6360   20.1670 C   0  0  0  0  0  0  0  0  0  0  0  0
  -29.9380  -17.1380   20.3630 C   0  0  0  0  0  0  0  0  0  0  0  0
  -29.4860  -17.1360   19.0200 C   0  0  0  0  0  0  0  0  0  0  0  0
  -29.0880  -15.9800   18.4370 F   0  0  0  0  0  0  0  0  0  0  0  0
  -30.6390  -14.7790   20.9390 C   0  0  0  0  0  0  0  0  0  0  0  0
  -30.5480  -12.4790   20.0490 C   0  0  0  0  0  2  0  0  0  0  0  0
  -29.7290  -12.5110   18.7400 C   0  0  0  0  0  2  0  0  0  0  0  0
  -28.2200  -12.3560   19.0200 C   0  0  0  0  0  2  0  0  0  0  0  0
  -27.7230  -13.2480   20.1910 C   0  0  0  0  0  3  0  0  0  0  0  0
  -28.6830  -13.2110   21.4030 C   0  0  0  0  0  2  0  0  0  0  0  0
  -30.0300  -13.5510   20.9180 N   0  0  0  0  0  0  0  0  0  0  0  0
  -31.8380  -14.9030   20.6750 O   0  0  0  0  0  0  0  0  0  0  0  0
  -29.8600  -15.8850   21.1140 N   0  0  0  0  0  0  0  0  0  0  0  0
  -28.9270  -15.6510   21.4190 H   0  0  0  0  0  0  0  0  0  0  0  0
  -25.2580  -13.7860   20.6690 C   0  0  0  0  0  0  0  0  0  0  0  0
  -24.1810  -12.9920   20.9580 C   0  0  0  0  0  0  0  0  0  0  0  0
  -24.6750  -11.6520   21.0030 C   0  0  0  0  0  0  0  0  0  0  0  0
  -26.3420  -12.9300   20.5580 N   0  0  0  0  0  0  0  0  0  0  0  0
  -25.9920  -11.6430   20.8230 N   0  0  0  0  0  0  0  0  0  0  0  0
  -23.9590  -10.3760   21.1540 C   0  0  0  0  0  0  0  0  0  0  0  0
  -24.3390   -9.4290   22.1310 C   0  0  0  0  0  3  0  0  0  0  0  0
  -23.6170   -8.2250   22.2800 C   0  0  0  0  0  3  0  0  0  0  0  0
  -22.5080   -7.9530   21.4420 C   0  0  0  0  0  0  0  0  0  0  0  0
  -22.1480   -8.8900   20.4580 C   0  0  0  0  0  3  0  0  0  0  0  0
  -22.8690  -10.0860   20.3100 C   0  0  0  0  0  3  0  0  0  0  0  0
  -21.7730   -6.7950   21.4880 O   0  0  0  0  0  0  0  0  0  0  0  0
  -21.6660   -6.0570   22.6420 C   0  0  0  0  0  0  0  0  0  0  0  0
  -21.1550   -6.6130   23.8360 C   0  0  0  0  0  3  0  0  0  0  0  0
  -21.0000   -5.8010   24.9790 C   0  0  0  0  0  3  0  0  0  0  0  0
  -21.3480   -4.4390   24.9270 C   0  0  0  0  0  0  0  0  0  0  0  0
  -21.8480   -3.8830   23.7380 C   0  0  0  0  0  3  0  0  0  0  0  0
  -22.0100   -4.6920   22.5960 C   0  0  0  0  0  0  0  0  0  0  0  0
  -22.4750   -4.1470   21.4450 F   0  0  0  0  0  0  0  0  0  0  0  0
  -21.1890   -3.6580   26.0240 F   0  0  0  0  0  0  0  0  0  0  0  0
  -22.7550  -13.4420   21.0840 C   0  0  0  0  0  0  0  0  0  0  0  0
  -21.9640  -12.7500   21.8990 N   0  0  0  0  0  0  0  0  0  0  0  0
  -22.3480  -14.4440   20.5020 O   0  0  0  0  0  0  0  0  0  0  0  0
  -22.3100  -11.9350   22.3860 H   0  0  0  0  0  0  0  0  0  0  0  0
  -21.0040  -13.0360   22.0320 H   0  0  0  0  0  0  0  0  0  0  0  0
  -25.4030  -15.1560   20.4770 N   0  0  0  0  0  0  0  0  0  0  0  0
  -24.6180  -15.7990   20.5380 H   0  0  0  0  0  0  0  0  0  0  0  0
  -26.2670  -15.6110   20.2090 H   0  0  0  0  0  0  0  0  0  0  0  0
  1  6  1  0
  1  2  1  0
  2  4  1  0
  3  1  2  0
  5  9  1  0
  5  6  2  0
  6  7  1  0
  7  8  1  0
 10 21  2  0
 11  9  1  0
 11 16  1  0
 12 20  1  0
 12 22  1  0
 13 19  1  0
 13 15  1  0
 14 20  1  0
 15 14  1  0
 16 15  2  0
 17 11  2  0
 18 17  1  0
 18 13  2  0
 19 12  1  0
 20 10  1  0
 22 24  2  0
 23 22  1  0
 25 23  1  0
 26 35  2  0
 26 31  1  0
 27 23  1  0
 27 31  1  0
 28 27  1  0
 29 30  1  0
 29 28  1  0
 30 26  1  0
 31 32  2  0
 32 33  1  0
 34 33  2  0
 35 34  1  0
 36 10  1  0
 36 41  1  0
 36 37  1  0
 37 40  1  1
 37 38  1  0
 39 37  1  0
 41 44  1  0
 42 46  1  0
 42 41  1  0
 43 42  2  0
 46 45  1  0
 48 46  1  0
 48 49  1  0
 48 47  1  0
 51  2  1  0
 51 50  1  0
 52 55  1  0
 53 52  2  0
 53 57  1  0
 55 51  1  0
 55 54  2  0
 56 54  1  0
 56 67  1  0
 57 56  2  0
 58 57  1  0
 59 67  1  0
 60 65  1  0
 61 62  1  0
 61 60  1  0
 63 62  1  0
 63 72  1  0
 63 64  1  0
 65 59  1  0
 65 64  1  0
 66 59  2  0
 67 68  1  0
 69 70  2  0
 70 71  1  0
 70 89  1  0
 71 74  1  0
 72 69  1  0
 72 73  1  0
 73 71  2  0
 74 75  1  0
 75 76  2  0
 77 80  1  0
 77 76  1  0
 78 77  2  0
 79 78  1  0
 79 74  2  0
 80 81  1  0
 81 82  1  0
 82 83  2  0
 84 83  1  0
 84 88  1  0
 85 84  2  0
 86 81  2  0
 86 85  1  0
 87 86  1  0
 89 90  1  0
 90 93  1  0
 90 92  1  0
 91 89  2  0
 94 95  1  0
 94 69  1  0
 96 94  1  0
M  ISO  4   5 101   9 101  59 100  67 100
M  END
>  <TORSDO>  (57) 
F 20

>  <SCORE>  (57) 
-13.861

>  <name>  (57) 
57

>  <ligand_id>  (57) 
57

>  <original_smiles>  (57) 
[H]OC(C(=O)N([H])C([H])(c1c([H])c([H])c(F)c(N([H])C(=O)N2C([H])([H])C([H])([H])C([H])([H])C([H])(n3nc(-c4c([H])c([H])c(Oc5c([H])c([H])c(F)c([H])c5F)c([H])c4[H])c(C(=O)N([H])[H])c3N([H])[H])C2([H])[H])c1[H])C([H])([H])[H])=C([H])Oc1c([H])c([H])c2c(c1[H])C([H])([H])N(C(=O)C([H])(N([H])C(=O)C([H])(N([H])C([H])([H])[H])C([H])([H])[H])C(C([H])([H])[H])(C([H])([H])[H])C([H])([H])[H])C([H])(C(=O)N([H])C1([H])c3c([H])c([H])c([H])c([H])c3C([H])([H])C([H])([H])C1([H])[H])C2([H])[H]

>  <smiles>  (57) 
[H]OC(C(=O)N([H])C([H])(c1c([H])c([H])c(F)c(N([H])C(=O)N2C([H])([H])C([H])([H])C([H])([H])C([H])(n3nc(-c4c([H])c([H])c(Oc5c([H])c([H])c(F)c([H])c5F)c([H])c4[H])c(C(=O)N([H])[H])c3N([H])[H])C2([H])[H])c1[H])C([H])([H])[H])=C([H])Oc1c([H])c([H])c2c(c1[H])C([H])([H])N(C(=O)C([H])(N([H])C(=O)C([H])(N([H])C([H])([H])[H])C([H])([H])[H])C(C([H])([H])[H])(C([H])([H])[H])C([H])([H])[H])C([H])(C(=O)N([H])C1([H])c3c([H])c([H])c([H])c([H])c3C([H])([H])C([H])([H])C1([H])[H])C2([H])[H]

$$$$
58:0:0
     RDKit          3D

 95103  0  0  1  0  0  0  0  0999 V2000
  -29.6790  -21.1920   20.5480 C   0  0  0  0  0  2  0  0  0  0  0  0
  -30.6110  -14.9480   20.3670 C   0  0  0  0  0  0  0  0  0  0  0  0
  -30.4340  -12.6680   19.3280 C   0  0  0  0  0  2  0  0  0  0  0  0
  -29.4760  -12.7670   18.1170 C   0  0  0  0  0  2  0  0  0  0  0  0
  -28.0120  -12.5820   18.5620 C   0  0  0  0  0  2  0  0  0  0  0  0
  -27.6600  -13.4360   19.8070 C   0  0  0  0  0  3  0  0  0  0  0  0
  -28.7340  -13.3170   20.9110 C   0  0  0  0  0  2  0  0  0  0  0  0
  -30.0210  -13.6990   20.3170 N   0  0  0  0  0  0  0  0  0  0  0  0
  -31.7590  -15.0910   19.9310 O   0  0  0  0  0  0  0  0  0  0  0  0
  -28.7630  -17.7040   19.2920 C   0  0  0  0  0  3  0  0  0  0  0  0
  -28.6470  -19.0810   19.2560 C   0  0  0  0  0  0  0  0  0  0  0  0
  -29.6540  -17.4190   20.3670 C   0  0  0  0  0  0  0  0  0  0  0  0
  -30.0060  -18.6130   20.9590 N   0  0  0  0  0  0  0  0  0  0  0  0
  -29.3880  -19.6880   20.2750 N   0  0  0  0  0  0  0  0  0  0  0  0
  -29.8550  -16.0210   20.8410 N   0  0  0  0  0  0  0  0  0  0  0  0
  -29.0450  -15.6740   21.3310 H   0  0  0  0  0  0  0  0  0  0  0  0
  -25.2890  -14.0210   20.5870 C   0  0  0  0  0  0  0  0  0  0  0  0
  -24.2260  -13.2420   20.9570 C   0  0  0  0  0  0  0  0  0  0  0  0
  -24.6800  -11.8890   20.8870 C   0  0  0  0  0  0  0  0  0  0  0  0
  -26.3230  -13.1420   20.3120 N   0  0  0  0  0  0  0  0  0  0  0  0
  -25.9660  -11.8530   20.5540 N   0  0  0  0  0  0  0  0  0  0  0  0
  -23.9500  -10.6280   21.0650 C   0  0  0  0  0  0  0  0  0  0  0  0
  -24.3690   -9.6580   22.0030 C   0  0  0  0  0  3  0  0  0  0  0  0
  -23.6400   -8.4600   22.1680 C   0  0  0  0  0  3  0  0  0  0  0  0
  -22.4780   -8.2250   21.3960 C   0  0  0  0  0  0  0  0  0  0  0  0
  -22.0760   -9.1840   20.4500 C   0  0  0  0  0  3  0  0  0  0  0  0
  -22.8060  -10.3720   20.2830 C   0  0  0  0  0  3  0  0  0  0  0  0
  -21.7220   -7.0800   21.4710 O   0  0  0  0  0  0  0  0  0  0  0  0
  -21.6320   -6.3500   22.6280 C   0  0  0  0  0  0  0  0  0  0  0  0
  -21.1220   -6.9050   23.8230 C   0  0  0  0  0  3  0  0  0  0  0  0
  -20.9820   -6.1000   24.9690 C   0  0  0  0  0  3  0  0  0  0  0  0
  -21.3420   -4.7410   24.9250 C   0  0  0  0  0  0  0  0  0  0  0  0
  -21.8460   -4.1840   23.7360 C   0  0  0  0  0  3  0  0  0  0  0  0
  -21.9870   -4.9860   22.5900 C   0  0  0  0  0  0  0  0  0  0  0  0
  -22.4530   -4.4400   21.4410 F   0  0  0  0  0  0  0  0  0  0  0  0
  -21.2010   -3.9630   26.0250 F   0  0  0  0  0  0  0  0  0  0  0  0
  -22.8380  -13.7220   21.2640 C   0  0  0  0  0  0  0  0  0  0  0  0
  -22.1210  -13.0140   22.1300 N   0  0  0  0  0  0  0  0  0  0  0  0
  -22.3960  -14.7580   20.7710 O   0  0  0  0  0  0  0  0  0  0  0  0
  -22.4900  -12.1730   22.5520 H   0  0  0  0  0  0  0  0  0  0  0  0
  -21.1910  -13.3180   22.3770 H   0  0  0  0  0  0  0  0  0  0  0  0
  -25.4560  -15.3960   20.4420 N   0  0  0  0  0  0  0  0  0  0  0  0
  -24.6890  -16.0440   20.5840 H   0  0  0  0  0  0  0  0  0  0  0  0
  -26.3000  -15.8450   20.1120 H   0  0  0  0  0  0  0  0  0  0  0  0
  -27.8880  -19.7970   18.2220 C   0  0  0  0  0  0  0  0  0  0  0  0
  -28.3350  -20.8000   17.6540 O   0  0  0  0  0  0  0  0  0  0  0  0
  -25.4630  -20.4380   17.6810 C   0  0  0  0  0  1  0  0  0  0  0  0
  -26.4830  -19.2990   17.8670 C   0  0  0  0  0  2  0  0  0  0  0  0
  -28.6190  -22.4200   20.6370 C   0  0  0  0  0  0  0  0  0  0  0  0
  -27.4510  -22.1050   20.8900 O   0  0  0  0  0  0  0  0  0  0  0  0
  -28.0880  -25.0140   20.5330 C   0  0  0  0  0  3  0  0  0  0  0  0
  -28.9810  -23.9410   20.4560 C   0  0  0  0  0  0  0  0  0  0  0  0
  -30.2720  -24.1960   20.2010 O   0  0  0  0  0  0  0  0  0  0  0  0
  -30.3540  -25.1380   20.1290 H   0  0  0  0  0  0  0  0  0  0  0  0
  -28.3230  -26.4300   20.3610 O   0  0  0  0  0  0  0  0  0  0  0  0
  -24.5850  -31.9740   23.3210 C   0  0  0  0  0  0  0  0  0  0  0  0
  -27.2390  -27.3550   20.3060 C   0  0  0  0  0  0  0  0  0  0  0  0
  -23.4080  -30.5630   21.6770 C   0  0  0  0  0  3  0  0  0  0  0  0
  -24.8820  -29.0180   20.2580 C   0  0  0  0  0  0  0  0  0  0  0  0
  -25.9530  -30.8760   21.5210 C   0  0  0  0  0  2  0  0  0  0  0  0
  -26.0460  -29.4910   20.8760 C   0  0  0  0  0  0  0  0  0  0  0  0
  -27.2260  -28.6720   20.8920 C   0  0  0  0  0  3  0  0  0  0  0  0
  -26.0570  -26.9700   19.6360 C   0  0  0  0  0  3  0  0  0  0  0  0
  -24.8940  -27.7670   19.6240 C   0  0  0  0  0  3  0  0  0  0  0  0
  -23.6410  -29.8920   20.2980 C   0  0  0  0  0  2  0  0  0  0  0  0
  -24.6670  -31.1580   22.2290 N   0  0  0  0  0  0  0  0  0  0  0  0
  -23.4950  -32.2450   23.8460 O   0  0  0  0  0  0  0  0  0  0  0  0
  -22.7420  -29.5430   22.6350 C   0  0  0  0  0  0  0  0  0  0  0  0
  -21.4230  -29.3380   22.4870 N   0  0  0  0  0  0  0  0  0  0  0  0
  -23.4160  -28.9410   23.4760 O   0  0  0  0  0  0  0  0  0  0  0  0
  -20.9360  -29.8760   21.7830 H   0  0  0  0  0  0  0  0  0  0  0  0
  -18.0570  -28.0880   22.9560 C   0  0  0  0  0  0  0  0  0  0  0  0
  -20.6080  -28.3920   23.2540 C   0  0  0  0  0  3  0  0  0  0  0  0
  -20.7400  -26.9600   22.6890 C   0  0  0  0  0  2  0  0  0  0  0  0
  -19.6570  -26.6130   21.6630 C   0  0  0  0  0  2  0  0  0  0  0  0
  -18.2640  -26.7390   22.2890 C   0  0  0  0  0  2  0  0  0  0  0  0
  -19.1580  -28.8710   23.3960 C   0  0  0  0  0  0  0  0  0  0  0  0
  -18.9090  -30.1320   23.9810 C   0  0  0  0  0  3  0  0  0  0  0  0
  -17.5940  -30.6110   24.1300 C   0  0  0  0  0  3  0  0  0  0  0  0
  -16.5080  -29.8250   23.7050 C   0  0  0  0  0  3  0  0  0  0  0  0
  -16.7410  -28.5660   23.1240 C   0  0  0  0  0  3  0  0  0  0  0  0
  -25.8550  -32.6220   23.9500 C   0  0  0  0  0  3  0  0  0  0  0  0
  -25.5300  -34.0200   24.2690 N   0  0  0  0  0  0  0  0  0  0  0  0
  -25.8280  -35.0700   23.4900 C   0  0  0  0  0  0  0  0  0  0  0  0
  -26.4710  -34.9620   22.4430 O   0  0  0  0  0  0  0  0  0  0  0  0
  -24.9520  -34.1760   25.0810 H   0  0  0  0  0  0  0  0  0  0  0  0
  -24.0500  -36.8230   23.1810 C   0  0  0  0  0  1  0  0  0  0  0  0
  -25.3340  -36.4570   23.9430 C   0  0  0  0  0  3  0  0  0  0  0  0
  -27.4770  -37.4090   24.6700 C   0  0  0  0  0  1  0  0  0  0  0  0
  -26.3390  -37.5280   23.7630 N   0  0  0  0  0  0  0  0  0  0  0  0
  -25.9200  -38.4430   23.9000 H   0  0  0  0  0  0  0  0  0  0  0  0
  -26.3620  -31.8670   25.2410 C   0  0  1  0  0  0  0  0  0  0  0  0
  -25.2510  -31.6050   26.2860 C   0  0  0  0  0  1  0  0  0  0  0  0
  -26.9860  -30.5020   24.8680 C   0  0  0  0  0  1  0  0  0  0  0  0
  -27.4790  -32.6890   25.9240 C   0  0  0  0  0  1  0  0  0  0  0  0
  1 49  1  0
  2 15  1  0
  3  8  1  0
  4  5  1  0
  4  3  1  0
  6  5  1  0
  6 20  1  0
  6  7  1  0
  8  2  1  0
  8  7  1  0
  9  2  2  0
 10 12  1  0
 11 10  2  0
 11 14  1  0
 12 15  1  0
 12 13  2  0
 14  1  1  0
 14 13  1  0
 15 16  1  0
 17 18  2  0
 18 37  1  0
 19 18  1  0
 19 22  1  0
 20 21  1  0
 20 17  1  0
 21 19  2  0
 22 23  1  0
 23 24  2  0
 25 28  1  0
 25 24  1  0
 26 25  2  0
 27 26  1  0
 27 22  2  0
 28 29  1  0
 29 30  1  0
 30 31  2  0
 32 31  1  0
 32 36  1  0
 33 32  2  0
 34 29  2  0
 34 33  1  0
 35 34  1  0
 37 38  1  0
 38 41  1  0
 38 40  1  0
 39 37  2  0
 42 43  1  0
 42 17  1  0
 44 42  1  0
 45 11  1  0
 46 45  2  0
 47 48  1  0
 48 45  1  0
 49 50  2  0
 52 51  2  0
 52 49  1  0
 53 52  1  0
 54 53  1  0
 55 51  1  0
 56 67  2  0
 57 55  1  0
 57 62  1  0
 58 66  1  0
 58 68  1  0
 59 65  1  0
 59 61  1  0
 60 66  1  0
 61 62  2  0
 61 60  1  0
 63 57  2  0
 64 63  1  0
 64 59  2  0
 65 58  1  0
 66 56  1  0
 68 70  2  0
 69 68  1  0
 71 69  1  0
 72 81  2  0
 72 77  1  0
 73 69  1  0
 73 77  1  0
 74 73  1  0
 75 76  1  0
 75 74  1  0
 76 72  1  0
 77 78  2  0
 78 79  1  0
 80 79  2  0
 81 80  1  0
 82 56  1  0
 82 83  1  0
 82 92  1  0
 83 86  1  0
 84 88  1  0
 84 83  1  0
 85 84  2  0
 88 87  1  0
 90 91  1  0
 90 88  1  0
 90 89  1  0
 92 95  1  1
 92 93  1  0
 94 92  1  0
M  ISO  4   2 100  15 100  51 101  55 101
M  END
>  <TORSDO>  (58) 
F 21

>  <SCORE>  (58) 
-13.565

>  <name>  (58) 
58

>  <ligand_id>  (58) 
58

>  <original_smiles>  (58) 
[H]OC(C(=O)C([H])([H])n1nc(N([H])C(=O)N2C([H])([H])C([H])([H])C([H])([H])C([H])(n3nc(-c4c([H])c([H])c(Oc5c([H])c([H])c(F)c([H])c5F)c([H])c4[H])c(C(=O)N([H])[H])c3N([H])[H])C2([H])[H])c([H])c1C(=O)C([H])([H])C([H])([H])[H])=C([H])Oc1c([H])c([H])c2c(c1[H])C([H])([H])N(C(=O)C([H])(N([H])C(=O)C([H])(N([H])C([H])([H])[H])C([H])([H])[H])C(C([H])([H])[H])(C([H])([H])[H])C([H])([H])[H])C([H])(C(=O)N([H])C1([H])c3c([H])c([H])c([H])c([H])c3C([H])([H])C([H])([H])C1([H])[H])C2([H])[H]

>  <smiles>  (58) 
[H]OC(C(=O)C([H])([H])n1nc(N([H])C(=O)N2C([H])([H])C([H])([H])C([H])([H])C([H])(n3nc(-c4c([H])c([H])c(Oc5c([H])c([H])c(F)c([H])c5F)c([H])c4[H])c(C(=O)N([H])[H])c3N([H])[H])C2([H])[H])c([H])c1C(=O)C([H])([H])C([H])([H])[H])=C([H])Oc1c([H])c([H])c2c(c1[H])C([H])([H])N(C(=O)C([H])(N([H])C(=O)C([H])(N([H])C([H])([H])[H])C([H])([H])[H])C(C([H])([H])[H])(C([H])([H])[H])C([H])([H])[H])C([H])(C(=O)N([H])C1([H])c3c([H])c([H])c([H])c([H])c3C([H])([H])C([H])([H])C1([H])[H])C2([H])[H]

$$$$
59:0:0
     RDKit          3D

 94102  0  0  1  0  0  0  0  0999 V2000
  -29.2360  -21.6370   20.1960 C   0  0  0  0  0  2  0  0  0  0  0  0
  -29.3940  -17.9040   20.7640 C   0  0  0  0  0  3  0  0  0  0  0  0
  -30.3950  -16.9050   20.8100 C   0  0  0  0  0  0  0  0  0  0  0  0
  -29.7990  -19.2510   20.7890 C   0  0  0  0  0  0  0  0  0  0  0  0
  -31.9690  -18.5870   20.9660 C   0  0  0  0  0  0  0  0  0  0  0  0
  -31.6800  -17.2910   20.9380 N   0  0  0  0  0  0  0  0  0  0  0  0
  -31.0900  -19.5770   20.8920 N   0  0  0  0  0  0  0  0  0  0  0  0
  -28.8690  -20.3060   20.7310 N   0  0  0  0  0  0  0  0  0  0  0  0
  -33.2730  -18.9280   21.0770 F   0  0  0  0  0  0  0  0  0  0  0  0
  -27.8940  -20.0400   20.6370 H   0  0  0  0  0  0  0  0  0  0  0  0
  -30.6820  -14.4850   20.2090 C   0  0  0  0  0  0  0  0  0  0  0  0
  -30.3130  -12.3450   19.0350 C   0  0  0  0  0  2  0  0  0  0  0  0
  -29.3330  -12.5760   17.8660 C   0  0  0  0  0  2  0  0  0  0  0  0
  -27.8750  -12.4340   18.3460 C   0  0  0  0  0  2  0  0  0  0  0  0
  -27.5870  -13.2540   19.6330 C   0  0  0  0  0  3  0  0  0  0  0  0
  -28.6800  -13.0220   20.7020 C   0  0  0  0  0  2  0  0  0  0  0  0
  -29.9830  -13.3210   20.0880 N   0  0  0  0  0  0  0  0  0  0  0  0
  -31.8050  -14.6150   19.7100 O   0  0  0  0  0  0  0  0  0  0  0  0
  -29.9990  -15.5270   20.7410 N   0  0  0  0  0  0  0  0  0  0  0  0
  -29.0550  -15.3190   21.0200 H   0  0  0  0  0  0  0  0  0  0  0  0
  -25.2140  -13.8550   20.4210 C   0  0  0  0  0  0  0  0  0  0  0  0
  -24.1580  -13.0790   20.8220 C   0  0  0  0  0  0  0  0  0  0  0  0
  -24.6200  -11.7280   20.7720 C   0  0  0  0  0  0  0  0  0  0  0  0
  -26.2510  -12.9750   20.1540 N   0  0  0  0  0  0  0  0  0  0  0  0
  -25.9010  -11.6920   20.4250 N   0  0  0  0  0  0  0  0  0  0  0  0
  -23.9020  -10.4640   20.9810 C   0  0  0  0  0  0  0  0  0  0  0  0
  -24.3610   -9.4970   21.9020 C   0  0  0  0  0  3  0  0  0  0  0  0
  -23.6440   -8.2970   22.0970 C   0  0  0  0  0  3  0  0  0  0  0  0
  -22.4520   -8.0570   21.3720 C   0  0  0  0  0  0  0  0  0  0  0  0
  -22.0120   -9.0130   20.4410 C   0  0  0  0  0  3  0  0  0  0  0  0
  -22.7300  -10.2040   20.2430 C   0  0  0  0  0  3  0  0  0  0  0  0
  -21.7030   -6.9100   21.4790 O   0  0  0  0  0  0  0  0  0  0  0  0
  -21.6850   -6.1660   22.6310 C   0  0  0  0  0  0  0  0  0  0  0  0
  -21.2830   -6.7170   23.8670 C   0  0  0  0  0  3  0  0  0  0  0  0
  -21.2130   -5.9000   25.0130 C   0  0  0  0  0  3  0  0  0  0  0  0
  -21.5360   -4.5320   24.9240 C   0  0  0  0  0  0  0  0  0  0  0  0
  -21.9310   -3.9810   23.6930 C   0  0  0  0  0  3  0  0  0  0  0  0
  -22.0030   -4.7950   22.5490 C   0  0  0  0  0  0  0  0  0  0  0  0
  -22.3640   -4.2550   21.3600 F   0  0  0  0  0  0  0  0  0  0  0  0
  -21.4600   -3.7440   26.0210 F   0  0  0  0  0  0  0  0  0  0  0  0
  -22.7700  -13.5540   21.1370 C   0  0  0  0  0  0  0  0  0  0  0  0
  -22.0700  -12.8530   22.0230 N   0  0  0  0  0  0  0  0  0  0  0  0
  -22.3150  -14.5810   20.6360 O   0  0  0  0  0  0  0  0  0  0  0  0
  -22.4510  -12.0220   22.4510 H   0  0  0  0  0  0  0  0  0  0  0  0
  -21.1380  -13.1510   22.2770 H   0  0  0  0  0  0  0  0  0  0  0  0
  -25.3720  -15.2250   20.2380 N   0  0  0  0  0  0  0  0  0  0  0  0
  -24.6010  -15.8740   20.3560 H   0  0  0  0  0  0  0  0  0  0  0  0
  -26.1940  -15.6580   19.8390 H   0  0  0  0  0  0  0  0  0  0  0  0
  -28.1050  -22.7450   22.1750 C   0  0  0  0  0  2  0  0  0  0  0  0
  -28.6950  -22.8560   20.9680 C   0  0  0  0  0  0  0  0  0  0  0  0
  -28.8520  -24.2030   20.3160 C   0  0  0  0  0  0  0  0  0  0  0  0
  -29.4380  -24.3390   19.2360 O   0  0  0  0  0  0  0  0  0  0  0  0
  -28.2760  -25.4660   21.0040 C   0  0  0  0  0  2  0  0  0  0  0  0
  -28.4190  -26.6690   20.2140 O   0  0  0  0  0  0  0  0  0  0  0  0
  -24.6150  -31.8820   23.2440 C   0  0  0  0  0  0  0  0  0  0  0  0
  -27.2760  -27.4370   20.1870 C   0  0  0  0  0  0  0  0  0  0  0  0
  -23.4190  -30.4790   21.5940 C   0  0  0  0  0  3  0  0  0  0  0  0
  -24.8850  -28.9440   20.1750 C   0  0  0  0  0  0  0  0  0  0  0  0
  -25.9450  -30.8430   21.4080 C   0  0  0  0  0  2  0  0  0  0  0  0
  -26.0390  -29.4710   20.7690 C   0  0  0  0  0  0  0  0  0  0  0  0
  -27.2420  -28.7260   20.7690 C   0  0  0  0  0  3  0  0  0  0  0  0
  -26.1110  -26.9270   19.5820 C   0  0  0  0  0  3  0  0  0  0  0  0
  -24.9150  -27.6720   19.5750 C   0  0  0  0  0  3  0  0  0  0  0  0
  -23.6360  -29.7990   20.2150 C   0  0  0  0  0  2  0  0  0  0  0  0
  -24.6780  -31.0830   22.1410 N   0  0  0  0  0  0  0  0  0  0  0  0
  -23.5320  -32.1520   23.7800 O   0  0  0  0  0  0  0  0  0  0  0  0
  -22.7640  -29.4580   22.5520 C   0  0  0  0  0  0  0  0  0  0  0  0
  -21.4390  -29.2770   22.4220 N   0  0  0  0  0  0  0  0  0  0  0  0
  -23.4450  -28.8300   23.3680 O   0  0  0  0  0  0  0  0  0  0  0  0
  -20.9520  -29.8370   21.7360 H   0  0  0  0  0  0  0  0  0  0  0  0
  -18.0630  -28.0810   22.9010 C   0  0  0  0  0  0  0  0  0  0  0  0
  -20.6190  -28.3390   23.1860 C   0  0  0  0  0  3  0  0  0  0  0  0
  -20.7250  -26.9090   22.6090 C   0  0  0  0  0  2  0  0  0  0  0  0
  -19.6280  -26.5870   21.5890 C   0  0  0  0  0  2  0  0  0  0  0  0
  -18.2430  -26.7320   22.2250 C   0  0  0  0  0  2  0  0  0  0  0  0
  -19.1800  -28.8430   23.3370 C   0  0  0  0  0  0  0  0  0  0  0  0
  -18.9590  -30.1070   23.9270 C   0  0  0  0  0  3  0  0  0  0  0  0
  -17.6540  -30.6090   24.0850 C   0  0  0  0  0  3  0  0  0  0  0  0
  -16.5520  -29.8450   23.6650 C   0  0  0  0  0  3  0  0  0  0  0  0
  -16.7570  -28.5830   23.0800 C   0  0  0  0  0  3  0  0  0  0  0  0
  -25.8990  -32.5140   23.8690 C   0  0  0  0  0  3  0  0  0  0  0  0
  -26.4090  -31.7460   25.1510 C   0  0  1  0  0  0  0  0  0  0  0  0
  -25.3110  -31.5130   26.2140 C   0  0  0  0  0  1  0  0  0  0  0  0
  -26.9930  -30.3680   24.7630 C   0  0  0  0  0  1  0  0  0  0  0  0
  -27.5570  -32.5410   25.8150 C   0  0  0  0  0  1  0  0  0  0  0  0
  -25.5920  -33.9130   24.1910 N   0  0  0  0  0  0  0  0  0  0  0  0
  -25.9300  -34.9620   23.4280 C   0  0  0  0  0  0  0  0  0  0  0  0
  -26.6050  -34.8510   22.4000 O   0  0  0  0  0  0  0  0  0  0  0  0
  -24.9950  -34.0730   24.9900 H   0  0  0  0  0  0  0  0  0  0  0  0
  -24.2070  -36.7530   23.0500 C   0  0  0  0  0  1  0  0  0  0  0  0
  -25.4410  -36.3520   23.8740 C   0  0  0  0  0  3  0  0  0  0  0  0
  -27.5700  -37.2360   24.7170 C   0  0  0  0  0  1  0  0  0  0  0  0
  -26.4750  -37.4040   23.7650 N   0  0  0  0  0  0  0  0  0  0  0  0
  -26.0700  -38.3240   23.9070 H   0  0  0  0  0  0  0  0  0  0  0  0
  1  8  1  0
  1 50  1  0
  2  4  1  0
  2  3  2  0
  3  6  1  0
  4  7  2  0
  5  9  1  0
  6  5  2  0
  7  5  1  0
  8  4  1  0
 10  8  1  0
 11 19  1  0
 12 17  1  0
 13 14  1  0
 13 12  1  0
 15 14  1  0
 15 24  1  0
 15 16  1  0
 17 11  1  0
 17 16  1  0
 18 11  2  0
 19  3  1  0
 19 20  1  0
 21 22  2  0
 22 41  1  0
 23 22  1  0
 23 26  1  0
 24 21  1  0
 24 25  1  0
 25 23  2  0
 26 27  1  0
 27 28  2  0
 29 32  1  0
 29 28  1  0
 30 29  2  0
 31 30  1  0
 31 26  2  0
 32 33  1  0
 33 34  1  0
 34 35  2  0
 36 35  1  0
 36 40  1  0
 37 36  2  0
 38 33  2  0
 38 37  1  0
 39 38  1  0
 41 42  1  0
 42 45  1  0
 42 44  1  0
 43 41  2  0
 46 47  1  0
 46 21  1  0
 48 46  1  0
 50 49  2  0
 51 50  1  0
 51 53  1  0
 52 51  2  0
 54 53  1  0
 55 66  2  0
 56 54  1  0
 56 61  1  0
 57 65  1  0
 57 67  1  0
 58 64  1  0
 58 60  1  0
 59 65  1  0
 60 59  1  0
 61 60  2  0
 62 56  2  0
 63 62  1  0
 63 58  2  0
 64 57  1  0
 65 55  1  0
 67 69  2  0
 68 67  1  0
 70 68  1  0
 71 80  2  0
 71 76  1  0
 72 68  1  0
 72 76  1  0
 73 72  1  0
 74 75  1  0
 74 73  1  0
 75 71  1  0
 76 77  2  0
 77 78  1  0
 79 78  2  0
 80 79  1  0
 81 55  1  0
 81 86  1  0
 81 82  1  0
 82 85  1  1
 82 83  1  0
 84 82  1  0
 86 89  1  0
 87 91  1  0
 87 86  1  0
 88 87  2  0
 91 90  1  0
 93 91  1  0
 93 94  1  0
 93 92  1  0
M  ISO  4  11 100  19 100  53 101  54 101
M  END
>  <TORSDO>  (59) 
F 20

>  <SCORE>  (59) 
-14.058

>  <name>  (59) 
59

>  <ligand_id>  (59) 
59

>  <original_smiles>  (59) 
[H]C([H])=C(C(=O)C([H])([H])Oc1c([H])c([H])c2c(c1[H])C([H])([H])N(C(=O)C([H])(N([H])C(=O)C([H])(N([H])C([H])([H])[H])C([H])([H])[H])C(C([H])([H])[H])(C([H])([H])[H])C([H])([H])[H])C([H])(C(=O)N([H])C1([H])c3c([H])c([H])c([H])c([H])c3C([H])([H])C([H])([H])C1([H])[H])C2([H])[H])C([H])([H])N([H])c1nc(F)nc(N([H])C(=O)N2C([H])([H])C([H])([H])C([H])([H])C([H])(n3nc(-c4c([H])c([H])c(Oc5c([H])c([H])c(F)c([H])c5F)c([H])c4[H])c(C(=O)N([H])[H])c3N([H])[H])C2([H])[H])c1[H]

>  <smiles>  (59) 
[H]C([H])=C(C(=O)C([H])([H])Oc1c([H])c([H])c2c(c1[H])C([H])([H])N(C(=O)C([H])(N([H])C(=O)C([H])(N([H])C([H])([H])[H])C([H])([H])[H])C(C([H])([H])[H])(C([H])([H])[H])C([H])([H])[H])C([H])(C(=O)N([H])C1([H])c3c([H])c([H])c([H])c([H])c3C([H])([H])C([H])([H])C1([H])[H])C2([H])[H])C([H])([H])N([H])c1nc(F)nc(N([H])C(=O)N2C([H])([H])C([H])([H])C([H])([H])C([H])(n3nc(-c4c([H])c([H])c(Oc5c([H])c([H])c(F)c([H])c5F)c([H])c4[H])c(C(=O)N([H])[H])c3N([H])[H])C2([H])[H])c1[H]

$$$$
60:0:0
     RDKit          3D

 92100  0  0  1  0  0  0  0  0999 V2000
  -28.9840  -22.0500   19.7330 N   0  0  0  0  0  0  0  0  0  0  0  0
  -28.0540  -22.0340   19.3150 H   0  0  0  0  0  0  0  0  0  0  0  0
  -30.0650  -19.6080   22.1020 C   0  0  0  0  0  3  0  0  0  0  0  0
  -29.8470  -20.9760   21.7830 C   0  0  0  0  0  3  0  0  0  0  0  0
  -29.7030  -18.8820   20.9910 C   0  0  0  0  0  0  0  0  0  0  0  0
  -29.3630  -20.9620   20.5040 C   0  0  0  0  0  0  0  0  0  0  0  0
  -29.2620  -19.7080   19.9930 O   0  0  0  0  0  0  0  0  0  0  0  0
  -29.7070  -17.4210   20.6990 C   0  0  0  0  0  2  0  0  0  0  0  0
  -31.1010  -16.7650   20.8000 C   0  0  0  0  0  2  0  0  0  0  0  0
  -31.5450  -14.3740   20.1240 C   0  0  0  0  0  0  0  0  0  0  0  0
  -31.1840  -12.1580   19.1030 C   0  0  0  0  0  2  0  0  0  0  0  0
  -30.2140  -12.2980   17.9180 C   0  0  0  0  0  2  0  0  0  0  0  0
  -28.7530  -12.2090   18.3920 C   0  0  0  0  0  2  0  0  0  0  0  0
  -28.4650  -13.1740   19.5720 C   0  0  0  0  0  3  0  0  0  0  0  0
  -29.5240  -12.9930   20.6800 C   0  0  0  0  0  2  0  0  0  0  0  0
  -30.8570  -13.2050   20.0810 N   0  0  0  0  0  0  0  0  0  0  0  0
  -32.5760  -14.5890   19.4760 O   0  0  0  0  0  0  0  0  0  0  0  0
  -30.9560  -15.3140   20.8780 N   0  0  0  0  0  0  0  0  0  0  0  0
  -30.1770  -14.9800   21.4300 H   0  0  0  0  0  0  0  0  0  0  0  0
  -26.1340  -13.9440   20.3500 C   0  0  0  0  0  0  0  0  0  0  0  0
  -25.0320  -13.2390   20.7570 C   0  0  0  0  0  0  0  0  0  0  0  0
  -25.3970  -11.8590   20.6930 C   0  0  0  0  0  0  0  0  0  0  0  0
  -27.1100  -12.9950   20.0850 N   0  0  0  0  0  0  0  0  0  0  0  0
  -26.6680  -11.7380   20.3420 N   0  0  0  0  0  0  0  0  0  0  0  0
  -24.5940  -10.6480   20.8920 C   0  0  0  0  0  0  0  0  0  0  0  0
  -24.9450   -9.6790   21.8590 C   0  0  0  0  0  3  0  0  0  0  0  0
  -24.1450   -8.5310   22.0430 C   0  0  0  0  0  3  0  0  0  0  0  0
  -22.9800   -8.3440   21.2630 C   0  0  0  0  0  0  0  0  0  0  0  0
  -22.6520   -9.2970   20.2810 C   0  0  0  0  0  3  0  0  0  0  0  0
  -23.4530  -10.4380   20.0930 C   0  0  0  0  0  3  0  0  0  0  0  0
  -22.1590   -7.2470   21.3530 O   0  0  0  0  0  0  0  0  0  0  0  0
  -21.9610   -6.5940   22.5430 C   0  0  0  0  0  0  0  0  0  0  0  0
  -21.4440   -7.2540   23.6790 C   0  0  0  0  0  3  0  0  0  0  0  0
  -21.1900   -6.5280   24.8620 C   0  0  0  0  0  3  0  0  0  0  0  0
  -21.4460   -5.1440   24.9070 C   0  0  0  0  0  0  0  0  0  0  0  0
  -21.9610   -4.4840   23.7760 C   0  0  0  0  0  3  0  0  0  0  0  0
  -22.2150   -5.2080   22.5970 C   0  0  0  0  0  0  0  0  0  0  0  0
  -22.6860   -4.5640   21.5030 F   0  0  0  0  0  0  0  0  0  0  0  0
  -21.1990   -4.4450   26.0390 F   0  0  0  0  0  0  0  0  0  0  0  0
  -23.6820  -13.8020   21.0970 C   0  0  0  0  0  0  0  0  0  0  0  0
  -22.9570  -13.1460   21.9990 N   0  0  0  0  0  0  0  0  0  0  0  0
  -23.2820  -14.8510   20.5940 O   0  0  0  0  0  0  0  0  0  0  0  0
  -23.3000  -12.2960   22.4190 H   0  0  0  0  0  0  0  0  0  0  0  0
  -22.0560  -13.4990   22.2790 H   0  0  0  0  0  0  0  0  0  0  0  0
  -26.3830  -15.3030   20.1670 N   0  0  0  0  0  0  0  0  0  0  0  0
  -25.6410  -15.9930   20.2180 H   0  0  0  0  0  0  0  0  0  0  0  0
  -27.2290  -15.6570   19.7350 H   0  0  0  0  0  0  0  0  0  0  0  0
  -29.5470  -23.3700   20.0240 C   0  0  0  0  0  2  0  0  0  0  0  0
  -28.4830  -24.4610   20.2090 C   0  0  0  0  0  0  0  0  0  0  0  0
  -27.6690  -24.4030   21.1310 O   0  0  0  0  0  0  0  0  0  0  0  0
  -28.4780  -25.6140   19.1870 C   0  0  0  0  0  2  0  0  0  0  0  0
  -28.3550  -26.8780   19.8440 O   0  0  0  0  0  0  0  0  0  0  0  0
  -24.5710  -31.8760   23.1580 C   0  0  0  0  0  0  0  0  0  0  0  0
  -27.1410  -27.5210   19.8950 C   0  0  0  0  0  0  0  0  0  0  0  0
  -23.3290  -30.5270   21.4980 C   0  0  0  0  0  3  0  0  0  0  0  0
  -24.7420  -29.0200   20.0100 C   0  0  0  0  0  0  0  0  0  0  0  0
  -25.8510  -30.8750   21.2670 C   0  0  0  0  0  2  0  0  0  0  0  0
  -25.9120  -29.5240   20.5910 C   0  0  0  0  0  0  0  0  0  0  0  0
  -27.1060  -28.7760   20.5400 C   0  0  0  0  0  3  0  0  0  0  0  0
  -25.9470  -27.0120   19.3280 C   0  0  0  0  0  3  0  0  0  0  0  0
  -24.7530  -27.7610   19.3800 C   0  0  0  0  0  3  0  0  0  0  0  0
  -23.5090  -29.8890   20.0960 C   0  0  0  0  0  2  0  0  0  0  0  0
  -24.6040  -31.1040   22.0350 N   0  0  0  0  0  0  0  0  0  0  0  0
  -23.5040  -32.1350   23.7280 O   0  0  0  0  0  0  0  0  0  0  0  0
  -22.6960  -29.4800   22.4400 C   0  0  0  0  0  0  0  0  0  0  0  0
  -21.3710  -29.2870   22.3150 N   0  0  0  0  0  0  0  0  0  0  0  0
  -23.3920  -28.8480   23.2400 O   0  0  0  0  0  0  0  0  0  0  0  0
  -20.8690  -29.8500   21.6440 H   0  0  0  0  0  0  0  0  0  0  0  0
  -18.0230  -28.0090   22.7660 C   0  0  0  0  0  0  0  0  0  0  0  0
  -20.5710  -28.3250   23.0670 C   0  0  0  0  0  3  0  0  0  0  0  0
  -20.7110  -26.8990   22.4840 C   0  0  0  0  0  2  0  0  0  0  0  0
  -19.6250  -26.5450   21.4610 C   0  0  0  0  0  2  0  0  0  0  0  0
  -18.2360  -26.6660   22.0950 C   0  0  0  0  0  2  0  0  0  0  0  0
  -19.1200  -28.7930   23.2110 C   0  0  0  0  0  0  0  0  0  0  0  0
  -18.8670  -30.0490   23.8030 C   0  0  0  0  0  3  0  0  0  0  0  0
  -17.5490  -30.5240   23.9480 C   0  0  0  0  0  3  0  0  0  0  0  0
  -16.4670  -29.7350   23.5240 C   0  0  0  0  0  3  0  0  0  0  0  0
  -16.7040  -28.4740   22.9440 C   0  0  0  0  0  3  0  0  0  0  0  0
  -25.8720  -32.4860   23.7730 C   0  0  0  0  0  3  0  0  0  0  0  0
  -25.5800  -33.8740   24.1510 N   0  0  0  0  0  0  0  0  0  0  0  0
  -25.9020  -34.9450   23.4120 C   0  0  0  0  0  0  0  0  0  0  0  0
  -26.5550  -34.8630   22.3670 O   0  0  0  0  0  0  0  0  0  0  0  0
  -24.9910  -34.0090   24.9590 H   0  0  0  0  0  0  0  0  0  0  0  0
  -24.1750  -36.7480   23.1330 C   0  0  0  0  0  1  0  0  0  0  0  0
  -25.4290  -36.3220   23.9110 C   0  0  0  0  0  3  0  0  0  0  0  0
  -27.5830  -37.1720   24.7290 C   0  0  0  0  0  1  0  0  0  0  0  0
  -26.4660  -37.3700   23.8080 N   0  0  0  0  0  0  0  0  0  0  0  0
  -26.0710  -38.2910   23.9840 H   0  0  0  0  0  0  0  0  0  0  0  0
  -26.4140  -31.6760   25.0120 C   0  0  1  0  0  0  0  0  0  0  0  0
  -25.3480  -31.3950   26.0980 C   0  0  0  0  0  1  0  0  0  0  0  0
  -26.9890  -30.3130   24.5620 C   0  0  0  0  0  1  0  0  0  0  0  0
  -27.5850  -32.4460   25.6730 C   0  0  0  0  0  1  0  0  0  0  0  0
  1 48  1  0
  1  6  1  0
  2  1  1  0
  4  3  1  0
  5  3  2  0
  6  4  2  0
  7  6  1  0
  7  5  1  0
  8  9  1  0
  8  5  1  0
  9 18  1  0
 10 18  1  0
 11 16  1  0
 12 13  1  0
 12 11  1  0
 14 13  1  0
 14 23  1  0
 14 15  1  0
 16 10  1  0
 16 15  1  0
 17 10  2  0
 18 19  1  0
 20 21  2  0
 21 40  1  0
 22 21  1  0
 22 25  1  0
 23 24  1  0
 23 20  1  0
 24 22  2  0
 25 26  1  0
 26 27  2  0
 28 31  1  0
 28 27  1  0
 29 28  2  0
 30 29  1  0
 30 25  2  0
 31 32  1  0
 32 37  2  0
 32 33  1  0
 33 34  2  0
 34 35  1  0
 35 39  1  0
 36 35  2  0
 37 36  1  0
 38 37  1  0
 40 41  1  0
 41 44  1  0
 41 43  1  0
 42 40  2  0
 45 46  1  0
 45 20  1  0
 47 45  1  0
 48 49  1  0
 49 50  2  0
 51 52  1  0
 51 49  1  0
 52 54  1  0
 53 64  2  0
 54 59  1  0
 55 63  1  0
 55 65  1  0
 56 62  1  0
 56 58  1  0
 57 63  1  0
 58 57  1  0
 59 58  2  0
 60 61  1  0
 60 54  2  0
 61 56  2  0
 62 55  1  0
 63 53  1  0
 65 67  2  0
 66 65  1  0
 68 66  1  0
 69 78  2  0
 69 74  1  0
 70 66  1  0
 70 74  1  0
 71 70  1  0
 72 73  1  0
 72 71  1  0
 73 69  1  0
 74 75  2  0
 75 76  1  0
 77 76  2  0
 78 77  1  0
 79 53  1  0
 79 80  1  0
 79 89  1  0
 80 83  1  0
 81 85  1  0
 81 80  1  0
 82 81  2  0
 85 84  1  0
 87 85  1  0
 87 88  1  0
 87 86  1  0
 89 92  1  1
 89 90  1  0
 91 89  1  0
M  ISO  4  10 100  18 100  51 101  52 101
M  END
>  <TORSDO>  (60) 
F 22

>  <SCORE>  (60) 
-11.982

>  <name>  (60) 
60

>  <ligand_id>  (60) 
60

>  <original_smiles>  (60) 
[H]c1c(N([H])C([H])([H])C(=O)C([H])([H])Oc2c([H])c([H])c3c(c2[H])C([H])([H])N(C(=O)C([H])(N([H])C(=O)C([H])(N([H])C([H])([H])[H])C([H])([H])[H])C(C([H])([H])[H])(C([H])([H])[H])C([H])([H])[H])C([H])(C(=O)N([H])C2([H])c4c([H])c([H])c([H])c([H])c4C([H])([H])C([H])([H])C2([H])[H])C3([H])[H])oc(C([H])([H])C([H])([H])N([H])C(=O)N2C([H])([H])C([H])([H])C([H])([H])C([H])(n3nc(-c4c([H])c([H])c(Oc5c([H])c([H])c(F)c([H])c5F)c([H])c4[H])c(C(=O)N([H])[H])c3N([H])[H])C2([H])[H])c1[H]

>  <smiles>  (60) 
[H]c1c(N([H])C([H])([H])C(=O)C([H])([H])Oc2c([H])c([H])c3c(c2[H])C([H])([H])N(C(=O)C([H])(N([H])C(=O)C([H])(N([H])C([H])([H])[H])C([H])([H])[H])C(C([H])([H])[H])(C([H])([H])[H])C([H])([H])[H])C([H])(C(=O)N([H])C2([H])c4c([H])c([H])c([H])c([H])c4C([H])([H])C([H])([H])C2([H])[H])C3([H])[H])oc(C([H])([H])C([H])([H])N([H])C(=O)N2C([H])([H])C([H])([H])C([H])([H])C([H])(n3nc(-c4c([H])c([H])c(Oc5c([H])c([H])c(F)c([H])c5F)c([H])c4[H])c(C(=O)N([H])[H])c3N([H])[H])C2([H])[H])c1[H]

$$$$
61:0:0
     RDKit          3D

 97106  0  0  1  0  0  0  0  0999 V2000
  -29.6900  -21.7300   20.9810 C   0  0  0  0  0  0  0  0  0  0  0  0
  -29.4990  -20.3980   21.0610 N   0  0  0  0  0  0  0  0  0  0  0  0
  -30.7510  -22.2470   20.6220 O   0  0  0  0  0  0  0  0  0  0  0  0
  -28.5490  -20.0920   21.2160 H   0  0  0  0  0  0  0  0  0  0  0  0
  -31.8610  -19.5800   20.9800 C   0  0  0  0  0  3  0  0  0  0  0  0
  -32.2950  -17.1930   20.7610 C   0  0  0  0  0  3  0  0  0  0  0  0
  -30.4640  -19.3470   20.9450 C   0  0  0  0  0  0  0  0  0  0  0  0
  -30.9060  -16.9310   20.7240 C   0  0  0  0  0  0  0  0  0  0  0  0
  -32.7680  -18.5090   20.8870 C   0  0  0  0  0  0  0  0  0  0  0  0
  -29.9980  -18.0110   20.8440 C   0  0  0  0  0  0  0  0  0  0  0  0
  -34.1000  -18.7470   20.9280 F   0  0  0  0  0  0  0  0  0  0  0  0
  -28.6650  -17.7660   20.8430 F   0  0  0  0  0  0  0  0  0  0  0  0
  -30.9810  -14.5930   19.9260 C   0  0  0  0  0  0  0  0  0  0  0  0
  -30.6220  -12.3690   18.9220 C   0  0  0  0  0  2  0  0  0  0  0  0
  -29.6200  -12.4710   17.7560 C   0  0  0  0  0  2  0  0  0  0  0  0
  -28.1730  -12.3470   18.2700 C   0  0  0  0  0  2  0  0  0  0  0  0
  -27.8860  -13.2780   19.4780 C   0  0  0  0  0  3  0  0  0  0  0  0
  -28.9960  -13.1580   20.5460 C   0  0  0  0  0  2  0  0  0  0  0  0
  -30.2900  -13.4230   19.8930 N   0  0  0  0  0  0  0  0  0  0  0  0
  -32.0350  -14.7580   19.3040 O   0  0  0  0  0  0  0  0  0  0  0  0
  -30.4030  -15.6000   20.6040 N   0  0  0  0  0  0  0  0  0  0  0  0
  -29.4640  -15.4370   20.9360 H   0  0  0  0  0  0  0  0  0  0  0  0
  -25.5620  -13.9240   20.3730 C   0  0  0  0  0  0  0  0  0  0  0  0
  -24.5010  -13.1690   20.7940 C   0  0  0  0  0  0  0  0  0  0  0  0
  -24.9200  -11.8070   20.6890 C   0  0  0  0  0  0  0  0  0  0  0  0
  -26.5630  -13.0240   20.0430 N   0  0  0  0  0  0  0  0  0  0  0  0
  -26.1840  -11.7440   20.2880 N   0  0  0  0  0  0  0  0  0  0  0  0
  -24.1740  -10.5580   20.8930 C   0  0  0  0  0  0  0  0  0  0  0  0
  -24.5670   -9.6130   21.8670 C   0  0  0  0  0  3  0  0  0  0  0  0
  -23.8230   -8.4290   22.0560 C   0  0  0  0  0  3  0  0  0  0  0  0
  -22.6720   -8.1800   21.2710 C   0  0  0  0  0  0  0  0  0  0  0  0
  -22.2990   -9.1140   20.2870 C   0  0  0  0  0  3  0  0  0  0  0  0
  -23.0440  -10.2890   20.0970 C   0  0  0  0  0  3  0  0  0  0  0  0
  -21.9030   -7.0460   21.3660 O   0  0  0  0  0  0  0  0  0  0  0  0
  -21.7150   -6.4030   22.5630 C   0  0  0  0  0  0  0  0  0  0  0  0
  -21.1280   -7.0490   23.6720 C   0  0  0  0  0  3  0  0  0  0  0  0
  -20.8900   -6.3310   24.8610 C   0  0  0  0  0  3  0  0  0  0  0  0
  -21.2300   -4.9670   24.9400 C   0  0  0  0  0  0  0  0  0  0  0  0
  -21.8090   -4.3200   23.8340 C   0  0  0  0  0  3  0  0  0  0  0  0
  -22.0480   -5.0360   22.6480 C   0  0  0  0  0  0  0  0  0  0  0  0
  -22.5880   -4.4020   21.5790 F   0  0  0  0  0  0  0  0  0  0  0  0
  -20.9930   -4.2740   26.0790 F   0  0  0  0  0  0  0  0  0  0  0  0
  -23.1410  -13.6730   21.1820 C   0  0  0  0  0  0  0  0  0  0  0  0
  -22.4630  -12.9740   22.0870 N   0  0  0  0  0  0  0  0  0  0  0  0
  -22.6900  -14.7190   20.7190 O   0  0  0  0  0  0  0  0  0  0  0  0
  -22.8420  -12.1250   22.4810 H   0  0  0  0  0  0  0  0  0  0  0  0
  -21.5550  -13.2930   22.3910 H   0  0  0  0  0  0  0  0  0  0  0  0
  -25.7540  -15.2950   20.2270 N   0  0  0  0  0  0  0  0  0  0  0  0
  -25.0200  -15.9690   20.4170 H   0  0  0  0  0  0  0  0  0  0  0  0
  -26.6040  -15.7240   19.8840 H   0  0  0  0  0  0  0  0  0  0  0  0
  -28.4380  -23.9700   20.6120 C   0  0  0  0  0  2  0  0  0  0  0  0
  -28.6220  -25.0170   21.4220 C   0  0  0  0  0  3  0  0  0  0  0  0
  -28.8050  -24.5880   22.8520 C   0  0  0  0  0  2  0  0  0  0  0  0
  -28.5390  -23.0660   22.8210 C   0  0  0  0  0  2  0  0  0  0  0  0
  -28.4890  -22.6320   21.3300 C   0  0  0  0  0  3  0  0  0  0  0  0
  -28.6990  -26.4910   21.0460 C   0  0  0  0  0  2  0  0  0  0  0  0
  -28.0060  -26.7710   19.8300 O   0  0  0  0  0  0  0  0  0  0  0  0
  -24.4390  -31.9670   23.1900 C   0  0  0  0  0  0  0  0  0  0  0  0
  -26.8690  -27.5320   19.9520 C   0  0  0  0  0  0  0  0  0  0  0  0
  -23.1310  -30.5930   21.6010 C   0  0  0  0  0  3  0  0  0  0  0  0
  -24.4920  -29.0450   20.0960 C   0  0  0  0  0  0  0  0  0  0  0  0
  -25.6440  -30.9260   21.2740 C   0  0  0  0  0  2  0  0  0  0  0  0
  -25.6800  -29.5570   20.6310 C   0  0  0  0  0  0  0  0  0  0  0  0
  -26.8730  -28.8050   20.5640 C   0  0  0  0  0  3  0  0  0  0  0  0
  -25.6720  -27.0330   19.4040 C   0  0  0  0  0  3  0  0  0  0  0  0
  -24.4790  -27.7790   19.4840 C   0  0  0  0  0  3  0  0  0  0  0  0
  -23.2600  -29.9150   20.2090 C   0  0  0  0  0  2  0  0  0  0  0  0
  -24.4260  -31.1760   22.0800 N   0  0  0  0  0  0  0  0  0  0  0  0
  -23.3920  -32.2490   23.7870 O   0  0  0  0  0  0  0  0  0  0  0  0
  -22.5180  -29.5730   22.5870 C   0  0  0  0  0  0  0  0  0  0  0  0
  -21.1950  -29.3650   22.4850 N   0  0  0  0  0  0  0  0  0  0  0  0
  -23.2270  -28.9720   23.3990 O   0  0  0  0  0  0  0  0  0  0  0  0
  -20.6840  -29.9030   21.8000 H   0  0  0  0  0  0  0  0  0  0  0  0
  -17.8640  -28.0660   23.0000 C   0  0  0  0  0  0  0  0  0  0  0  0
  -20.4090  -28.4220   23.2790 C   0  0  0  0  0  3  0  0  0  0  0  0
  -20.5660  -26.9780   22.7490 C   0  0  0  0  0  2  0  0  0  0  0  0
  -19.4830  -26.5850   21.7400 C   0  0  0  0  0  2  0  0  0  0  0  0
  -18.0930  -26.7020   22.3700 C   0  0  0  0  0  2  0  0  0  0  0  0
  -18.9520  -28.8800   23.4130 C   0  0  0  0  0  0  0  0  0  0  0  0
  -18.6860  -30.1540   23.9600 C   0  0  0  0  0  3  0  0  0  0  0  0
  -17.3630  -30.6150   24.0990 C   0  0  0  0  0  3  0  0  0  0  0  0
  -16.2890  -29.7980   23.7060 C   0  0  0  0  0  3  0  0  0  0  0  0
  -16.5400  -28.5260   23.1610 C   0  0  0  0  0  3  0  0  0  0  0  0
  -25.7650  -32.5750   23.7470 C   0  0  0  0  0  3  0  0  0  0  0  0
  -26.3420  -31.7810   24.9830 C   0  0  1  0  0  0  0  0  0  0  0  0
  -25.3050  -31.5360   26.1030 C   0  0  0  0  0  1  0  0  0  0  0  0
  -26.8920  -30.4050   24.5370 C   0  0  0  0  0  1  0  0  0  0  0  0
  -27.5330  -32.5550   25.5940 C   0  0  0  0  0  1  0  0  0  0  0  0
  -25.4950  -33.9720   24.1050 N   0  0  0  0  0  0  0  0  0  0  0  0
  -25.8210  -35.0280   23.3480 C   0  0  0  0  0  0  0  0  0  0  0  0
  -26.4540  -34.9270   22.2930 O   0  0  0  0  0  0  0  0  0  0  0  0
  -24.9300  -34.1270   24.9280 H   0  0  0  0  0  0  0  0  0  0  0  0
  -24.1180  -36.8570   23.0660 C   0  0  0  0  0  1  0  0  0  0  0  0
  -25.3720  -36.4180   23.8380 C   0  0  0  0  0  3  0  0  0  0  0  0
  -27.5460  -37.2510   24.6210 C   0  0  0  0  0  1  0  0  0  0  0  0
  -26.4210  -37.4540   23.7110 N   0  0  0  0  0  0  0  0  0  0  0  0
  -26.0360  -38.3780   23.8840 H   0  0  0  0  0  0  0  0  0  0  0  0
  1  2  1  0
  2  4  1  0
  3  1  2  0
  6  9  1  0
  7  5  1  0
  7  2  1  0
  8  6  2  0
  8 10  1  0
  9 11  1  0
  9  5  2  0
 10  7  2  0
 12 10  1  0
 13 21  1  0
 14 19  1  0
 15 16  1  0
 15 14  1  0
 17 16  1  0
 17 26  1  0
 17 18  1  0
 19 13  1  0
 19 18  1  0
 20 13  2  0
 21  8  1  0
 21 22  1  0
 23 24  2  0
 24 43  1  0
 25 24  1  0
 25 28  1  0
 26 27  1  0
 26 23  1  0
 27 25  2  0
 28 29  1  0
 29 30  2  0
 31 34  1  0
 31 30  1  0
 32 31  2  0
 33 32  1  0
 33 28  2  0
 34 35  1  0
 35 40  2  0
 35 36  1  0
 36 37  2  0
 37 38  1  0
 38 42  1  0
 39 38  2  0
 40 39  1  0
 41 40  1  0
 43 44  1  0
 44 47  1  0
 44 46  1  0
 45 43  2  0
 48 23  1  0
 48 49  1  0
 50 48  1  0
 51 55  1  0
 51 52  1  0
 52 56  1  0
 52 53  1  0
 54 53  1  0
 55  1  1  0
 55 54  1  0
 57 59  1  0
 57 56  1  0
 58 69  2  0
 59 64  1  0
 60 68  1  0
 60 70  1  0
 61 67  1  0
 61 63  1  0
 62 68  1  0
 63 62  1  0
 64 63  2  0
 65 66  1  0
 65 59  2  0
 66 61  2  0
 67 60  1  0
 68 58  1  0
 70 72  2  0
 71 70  1  0
 73 71  1  0
 74 83  2  0
 74 79  1  0
 75 71  1  0
 75 79  1  0
 76 75  1  0
 77 78  1  0
 77 76  1  0
 78 74  1  0
 79 80  2  0
 80 81  1  0
 82 81  2  0
 83 82  1  0
 84 58  1  0
 84 89  1  0
 84 85  1  0
 85 88  1  1
 85 86  1  0
 87 85  1  0
 89 92  1  0
 90 94  1  0
 90 89  1  0
 91 90  2  0
 94 93  1  0
 96 94  1  0
 96 97  1  0
 96 95  1  0
M  ISO  4  13 100  21 100  56 101  57 101
M  END
>  <TORSDO>  (61) 
F 19

>  <SCORE>  (61) 
-13.646

>  <name>  (61) 
61

>  <ligand_id>  (61) 
61

>  <original_smiles>  (61) 
[H]C1=C(C([H])([H])Oc2c([H])c([H])c3c(c2[H])C([H])([H])N(C(=O)C([H])(N([H])C(=O)C([H])(N([H])C([H])([H])[H])C([H])([H])[H])C(C([H])([H])[H])(C([H])([H])[H])C([H])([H])[H])C([H])(C(=O)N([H])C2([H])c4c([H])c([H])c([H])c([H])c4C([H])([H])C([H])([H])C2([H])[H])C3([H])[H])C([H])([H])C([H])([H])C1([H])C(=O)N([H])c1c([H])c(F)c([H])c(N([H])C(=O)N2C([H])([H])C([H])([H])C([H])([H])C([H])(n3nc(-c4c([H])c([H])c(Oc5c([H])c([H])c(F)c([H])c5F)c([H])c4[H])c(C(=O)N([H])[H])c3N([H])[H])C2([H])[H])c1F

>  <smiles>  (61) 
[H]C1=C(C([H])([H])Oc2c([H])c([H])c3c(c2[H])C([H])([H])N(C(=O)C([H])(N([H])C(=O)C([H])(N([H])C([H])([H])[H])C([H])([H])[H])C(C([H])([H])[H])(C([H])([H])[H])C([H])([H])[H])C([H])(C(=O)N([H])C2([H])c4c([H])c([H])c([H])c([H])c4C([H])([H])C([H])([H])C2([H])[H])C3([H])[H])C([H])([H])C([H])([H])C1([H])C(=O)N([H])c1c([H])c(F)c([H])c(N([H])C(=O)N2C([H])([H])C([H])([H])C([H])([H])C([H])(n3nc(-c4c([H])c([H])c(Oc5c([H])c([H])c(F)c([H])c5F)c([H])c4[H])c(C(=O)N([H])[H])c3N([H])[H])C2([H])[H])c1F

$$$$
62:0:0
     RDKit          3D

 94102  0  0  1  0  0  0  0  0999 V2000
  -28.8400  -18.5000   21.8890 C   0  0  0  0  0  0  0  0  0  0  0  0
  -29.7200  -18.2150   20.8590 C   0  0  0  0  0  0  0  0  0  0  0  0
  -28.9740  -20.2650   20.6450 C   0  0  0  0  0  0  0  0  0  0  0  0
  -29.7890  -19.3790   20.0530 N   0  0  0  0  0  0  0  0  0  0  0  0
  -28.7030  -21.6240   20.4730 N   0  0  0  0  0  0  0  0  0  0  0  0
  -28.3280  -19.7590   21.7100 O   0  0  0  0  0  0  0  0  0  0  0  0
  -28.1290  -21.9820   21.2330 H   0  0  0  0  0  0  0  0  0  0  0  0
  -28.4410  -17.8100   23.1060 C   0  0  0  0  0  0  0  0  0  0  0  0
  -27.6370  -18.6260   24.1240 C   0  0  0  0  0  1  0  0  0  0  0  0
  -28.7350  -16.6370   23.3390 O   0  0  0  0  0  0  0  0  0  0  0  0
  -30.6330  -17.0020   20.6540 C   0  0  0  0  0  2  0  0  0  0  0  0
  -30.7310  -14.5130   20.5240 C   0  0  0  0  0  0  0  0  0  0  0  0
  -30.3840  -12.3040   19.4730 C   0  0  0  0  0  2  0  0  0  0  0  0
  -29.4940  -12.4990   18.2290 C   0  0  0  0  0  2  0  0  0  0  0  0
  -28.0140  -12.3510   18.6300 C   0  0  0  0  0  2  0  0  0  0  0  0
  -27.6430  -13.2250   19.8590 C   0  0  0  0  0  3  0  0  0  0  0  0
  -28.6800  -13.0950   21.0010 C   0  0  0  0  0  2  0  0  0  0  0  0
  -30.0150  -13.3540   20.4380 N   0  0  0  0  0  0  0  0  0  0  0  0
  -31.9000  -14.5930   20.1320 O   0  0  0  0  0  0  0  0  0  0  0  0
  -30.0600  -15.6420   20.8390 N   0  0  0  0  0  0  0  0  0  0  0  0
  -29.1090  -15.5730   21.1690 H   0  0  0  0  0  0  0  0  0  0  0  0
  -25.2520  -13.8180   20.5680 C   0  0  0  0  0  0  0  0  0  0  0  0
  -24.1800  -13.0440   20.9210 C   0  0  0  0  0  0  0  0  0  0  0  0
  -24.6370  -11.6910   20.8750 C   0  0  0  0  0  0  0  0  0  0  0  0
  -26.2930  -12.9390   20.3280 N   0  0  0  0  0  0  0  0  0  0  0  0
  -25.9290  -11.6550   20.5750 N   0  0  0  0  0  0  0  0  0  0  0  0
  -23.9070  -10.4280   21.0410 C   0  0  0  0  0  0  0  0  0  0  0  0
  -24.3620   -9.4180   21.9190 C   0  0  0  0  0  3  0  0  0  0  0  0
  -23.6290   -8.2230   22.0740 C   0  0  0  0  0  3  0  0  0  0  0  0
  -22.4280   -8.0270   21.3530 C   0  0  0  0  0  0  0  0  0  0  0  0
  -21.9920   -9.0250   20.4630 C   0  0  0  0  0  3  0  0  0  0  0  0
  -22.7240  -10.2130   20.3040 C   0  0  0  0  0  3  0  0  0  0  0  0
  -21.6640   -6.8880   21.4240 O   0  0  0  0  0  0  0  0  0  0  0  0
  -21.6850   -6.0740   22.5290 C   0  0  0  0  0  0  0  0  0  0  0  0
  -21.4010   -6.5640   23.8210 C   0  0  0  0  0  3  0  0  0  0  0  0
  -21.3680   -5.6790   24.9170 C   0  0  0  0  0  3  0  0  0  0  0  0
  -21.6040   -4.3060   24.7220 C   0  0  0  0  0  0  0  0  0  0  0  0
  -21.8820   -3.8160   23.4330 C   0  0  0  0  0  3  0  0  0  0  0  0
  -21.9180   -4.6970   22.3390 C   0  0  0  0  0  0  0  0  0  0  0  0
  -22.1660   -4.2150   21.0970 F   0  0  0  0  0  0  0  0  0  0  0  0
  -21.5630   -3.4540   25.7730 F   0  0  0  0  0  0  0  0  0  0  0  0
  -22.7820  -13.5200   21.1900 C   0  0  0  0  0  0  0  0  0  0  0  0
  -22.0480  -12.8190   22.0440 N   0  0  0  0  0  0  0  0  0  0  0  0
  -22.3500  -14.5510   20.6710 O   0  0  0  0  0  0  0  0  0  0  0  0
  -22.4160  -11.9860   22.4810 H   0  0  0  0  0  0  0  0  0  0  0  0
  -21.1100  -13.1180   22.2680 H   0  0  0  0  0  0  0  0  0  0  0  0
  -25.4310  -15.1910   20.4140 N   0  0  0  0  0  0  0  0  0  0  0  0
  -24.6640  -15.8510   20.4790 H   0  0  0  0  0  0  0  0  0  0  0  0
  -26.2870  -15.6170   20.0890 H   0  0  0  0  0  0  0  0  0  0  0  0
  -29.0490  -22.7800   19.6320 C   0  0  0  0  0  2  0  0  0  0  0  0
  -28.3750  -24.0960   20.1340 C   0  0  0  0  0  0  0  0  0  0  0  0
  -27.7100  -24.0870   21.1760 O   0  0  0  0  0  0  0  0  0  0  0  0
  -28.5430  -25.4020   19.3020 C   0  0  0  0  0  2  0  0  0  0  0  0
  -28.4050  -26.6330   20.0820 O   0  0  0  0  0  0  0  0  0  0  0  0
  -24.6160  -31.8720   23.2150 C   0  0  0  0  0  0  0  0  0  0  0  0
  -27.2300  -27.3790   20.0760 C   0  0  0  0  0  0  0  0  0  0  0  0
  -23.4120  -30.4980   21.5570 C   0  0  0  0  0  3  0  0  0  0  0  0
  -24.8580  -28.9560   20.1230 C   0  0  0  0  0  0  0  0  0  0  0  0
  -25.9530  -30.8040   21.3910 C   0  0  0  0  0  2  0  0  0  0  0  0
  -26.0230  -29.4420   20.7230 C   0  0  0  0  0  0  0  0  0  0  0  0
  -27.2080  -28.6610   20.6920 C   0  0  0  0  0  3  0  0  0  0  0  0
  -26.0290  -26.9050   19.5030 C   0  0  0  0  0  3  0  0  0  0  0  0
  -24.8550  -27.6870   19.5210 C   0  0  0  0  0  3  0  0  0  0  0  0
  -23.6290  -29.8430   20.1690 C   0  0  0  0  0  2  0  0  0  0  0  0
  -24.6770  -31.0750   22.1100 N   0  0  0  0  0  0  0  0  0  0  0  0
  -23.5340  -32.1530   23.7470 O   0  0  0  0  0  0  0  0  0  0  0  0
  -22.7450  -29.4670   22.5000 C   0  0  0  0  0  0  0  0  0  0  0  0
  -21.4140  -29.3120   22.3770 N   0  0  0  0  0  0  0  0  0  0  0  0
  -23.4180  -28.8160   23.3040 O   0  0  0  0  0  0  0  0  0  0  0  0
  -20.9320  -29.8950   21.7020 H   0  0  0  0  0  0  0  0  0  0  0  0
  -18.0220  -28.1420   22.8520 C   0  0  0  0  0  0  0  0  0  0  0  0
  -20.5870  -28.3680   23.1350 C   0  0  0  0  0  3  0  0  0  0  0  0
  -20.6700  -26.9430   22.5360 C   0  0  0  0  0  2  0  0  0  0  0  0
  -19.5670  -26.6460   21.5170 C   0  0  0  0  0  2  0  0  0  0  0  0
  -18.1870  -26.7970   22.1610 C   0  0  0  0  0  2  0  0  0  0  0  0
  -19.1510  -28.8830   23.2970 C   0  0  0  0  0  0  0  0  0  0  0  0
  -18.9490  -30.1390   23.9040 C   0  0  0  0  0  3  0  0  0  0  0  0
  -17.6540  -30.6600   24.0620 C   0  0  0  0  0  3  0  0  0  0  0  0
  -16.5370  -29.9180   23.6420 C   0  0  0  0  0  3  0  0  0  0  0  0
  -16.7230  -28.6590   23.0430 C   0  0  0  0  0  3  0  0  0  0  0  0
  -25.9040  -32.4860   23.8470 C   0  0  0  0  0  3  0  0  0  0  0  0
  -25.5850  -33.8680   24.2390 N   0  0  0  0  0  0  0  0  0  0  0  0
  -25.9030  -34.9510   23.5210 C   0  0  0  0  0  0  0  0  0  0  0  0
  -26.5610  -34.8930   22.4800 O   0  0  0  0  0  0  0  0  0  0  0  0
  -25.0000  -33.9890   25.0510 H   0  0  0  0  0  0  0  0  0  0  0  0
  -24.1480  -36.7310   23.2640 C   0  0  0  0  0  1  0  0  0  0  0  0
  -25.4110  -36.3200   24.0370 C   0  0  0  0  0  3  0  0  0  0  0  0
  -27.5610  -37.1820   24.8480 C   0  0  0  0  0  1  0  0  0  0  0  0
  -26.4350  -37.3840   23.9390 N   0  0  0  0  0  0  0  0  0  0  0  0
  -26.0310  -38.2960   24.1350 H   0  0  0  0  0  0  0  0  0  0  0  0
  -26.4460  -31.6620   25.0790 C   0  0  1  0  0  0  0  0  0  0  0  0
  -25.3650  -31.3700   26.1430 C   0  0  0  0  0  1  0  0  0  0  0  0
  -27.0300  -30.3060   24.6240 C   0  0  0  0  0  1  0  0  0  0  0  0
  -27.6110  -32.4300   25.7420 C   0  0  0  0  0  1  0  0  0  0  0  0
  1  8  1  0
  2  1  2  0
  3  6  1  0
  4  3  2  0
  4  2  1  0
  5  3  1  0
  5  7  1  0
  6  1  1  0
  8 10  2  0
  8  9  1  0
 11 20  1  0
 11  2  1  0
 12 20  1  0
 13 18  1  0
 14 15  1  0
 14 13  1  0
 16 15  1  0
 16 25  1  0
 16 17  1  0
 18 12  1  0
 18 17  1  0
 19 12  2  0
 20 21  1  0
 22 23  2  0
 23 42  1  0
 24 23  1  0
 24 27  1  0
 25 22  1  0
 25 26  1  0
 26 24  2  0
 27 28  1  0
 28 29  2  0
 30 33  1  0
 30 29  1  0
 31 30  2  0
 32 31  1  0
 32 27  2  0
 33 34  1  0
 34 35  1  0
 35 36  2  0
 37 36  1  0
 37 41  1  0
 38 37  2  0
 39 34  2  0
 39 38  1  0
 40 39  1  0
 42 43  1  0
 43 46  1  0
 43 45  1  0
 44 42  2  0
 47 48  1  0
 47 22  1  0
 49 47  1  0
 50 51  1  0
 50  5  1  0
 51 52  2  0
 53 54  1  0
 53 51  1  0
 55 66  2  0
 56 54  1  0
 56 61  1  0
 57 65  1  0
 57 67  1  0
 58 64  1  0
 58 60  1  0
 59 65  1  0
 60 59  1  0
 61 60  2  0
 62 63  1  0
 62 56  2  0
 63 58  2  0
 64 57  1  0
 65 55  1  0
 67 69  2  0
 68 67  1  0
 70 68  1  0
 71 80  2  0
 71 76  1  0
 72 68  1  0
 72 76  1  0
 73 72  1  0
 74 75  1  0
 74 73  1  0
 75 71  1  0
 76 77  2  0
 77 78  1  0
 79 78  2  0
 80 79  1  0
 81 55  1  0
 81 82  1  0
 81 91  1  0
 82 85  1  0
 83 87  1  0
 83 82  1  0
 84 83  2  0
 87 86  1  0
 89 87  1  0
 89 90  1  0
 89 88  1  0
 91 94  1  1
 91 92  1  0
 93 91  1  0
M  ISO  4  12 100  20 100  53 101  54 101
M  END
>  <TORSDO>  (62) 
F 21

>  <SCORE>  (62) 
9.728

>  <name>  (62) 
62

>  <ligand_id>  (62) 
62

>  <original_smiles>  (62) 
[H]c1c([H])c([H])c2c(c1[H])C([H])([H])C([H])([H])C([H])([H])C2([H])N([H])C(=O)C1([H])N(C(=O)C([H])(N([H])C(=O)C([H])(N([H])C([H])([H])[H])C([H])([H])[H])C(C([H])([H])[H])(C([H])([H])[H])C([H])([H])[H])C([H])([H])c2c([H])c(OC([H])([H])C(=O)C([H])([H])N([H])c3nc(C([H])([H])N([H])C(=O)N4C([H])([H])C([H])([H])C([H])([H])C([H])(n5nc(-c6c([H])c([H])c(Oc7c([H])c([H])c(F)c([H])c7F)c([H])c6[H])c(C(=O)N([H])[H])c5N([H])[H])C4([H])[H])c(C(=O)C([H])([H])[H])o3)c([H])c([H])c2C1([H])[H]

>  <smiles>  (62) 
[H]c1c([H])c([H])c2c(c1[H])C([H])([H])C([H])([H])C([H])([H])C2([H])N([H])C(=O)C1([H])N(C(=O)C([H])(N([H])C(=O)C([H])(N([H])C([H])([H])[H])C([H])([H])[H])C(C([H])([H])[H])(C([H])([H])[H])C([H])([H])[H])C([H])([H])c2c([H])c(OC([H])([H])C(=O)C([H])([H])N([H])c3nc(C([H])([H])N([H])C(=O)N4C([H])([H])C([H])([H])C([H])([H])C([H])(n5nc(-c6c([H])c([H])c(Oc7c([H])c([H])c(F)c([H])c7F)c([H])c6[H])c(C(=O)N([H])[H])c5N([H])[H])C4([H])[H])c(C(=O)C([H])([H])[H])o3)c([H])c([H])c2C1([H])[H]

$$$$
63:0:0
     RDKit          3D

 99108  0  0  1  0  0  0  0  0999 V2000
  -29.5630  -20.7000   20.8560 N   0  0  0  0  0  0  0  0  0  0  0  0
  -29.5930  -20.5960   21.8660 H   0  0  0  0  0  0  0  0  0  0  0  0
  -30.1180  -16.9780   18.8160 C   0  0  0  0  0  3  0  0  0  0  0  0
  -29.9100  -18.2920   20.8420 C   0  0  0  0  0  3  0  0  0  0  0  0
  -29.9150  -19.4270   18.6700 C   0  0  0  0  0  0  0  0  0  0  0  0
  -30.0020  -18.1480   18.0510 C   0  0  0  0  0  0  0  0  0  0  0  0
  -30.1270  -17.0270   20.2220 C   0  0  0  0  0  0  0  0  0  0  0  0
  -29.7910  -19.5110   20.0980 C   0  0  0  0  0  0  0  0  0  0  0  0
  -30.1000  -20.5830   17.7340 C   0  0  0  0  0  0  0  0  0  0  0  0
  -29.9610  -18.0150   16.5340 C   0  0  0  0  0  2  0  0  0  0  0  0
  -29.3760  -20.5060   16.3840 C   0  0  0  0  0  2  0  0  0  0  0  0
  -29.0200  -19.0730   15.9440 C   0  0  0  0  0  2  0  0  0  0  0  0
  -30.8630  -21.5320   17.9410 O   0  0  0  0  0  0  0  0  0  0  0  0
  -30.9980  -14.7380   20.5510 C   0  0  0  0  0  0  0  0  0  0  0  0
  -30.7420  -12.5660   19.4160 C   0  0  0  0  0  2  0  0  0  0  0  0
  -29.8420  -12.7870   18.1800 C   0  0  0  0  0  2  0  0  0  0  0  0
  -28.3470  -12.6850   18.5550 C   0  0  0  0  0  2  0  0  0  0  0  0
  -27.9840  -13.4940   19.8290 C   0  0  0  0  0  3  0  0  0  0  0  0
  -29.0040  -13.2470   20.9630 C   0  0  0  0  0  2  0  0  0  0  0  0
  -30.3450  -13.5460   20.4410 N   0  0  0  0  0  0  0  0  0  0  0  0
  -32.1520  -14.8990   20.1430 O   0  0  0  0  0  0  0  0  0  0  0  0
  -30.2550  -15.7980   20.9610 N   0  0  0  0  0  0  0  0  0  0  0  0
  -29.4660  -15.5680   21.5460 H   0  0  0  0  0  0  0  0  0  0  0  0
  -25.5670  -14.1140   20.4570 C   0  0  0  0  0  0  0  0  0  0  0  0
  -24.4840  -13.3490   20.8000 C   0  0  0  0  0  0  0  0  0  0  0  0
  -24.9400  -11.9950   20.7970 C   0  0  0  0  0  0  0  0  0  0  0  0
  -26.6150  -13.2260   20.2670 N   0  0  0  0  0  0  0  0  0  0  0  0
  -26.2390  -11.9480   20.5290 N   0  0  0  0  0  0  0  0  0  0  0  0
  -24.2030  -10.7390   20.9800 C   0  0  0  0  0  0  0  0  0  0  0  0
  -24.5800   -9.7980   21.9640 C   0  0  0  0  0  3  0  0  0  0  0  0
  -23.8450   -8.6050   22.1330 C   0  0  0  0  0  3  0  0  0  0  0  0
  -22.7180   -8.3430   21.3160 C   0  0  0  0  0  0  0  0  0  0  0  0
  -22.3630   -9.2710   20.3220 C   0  0  0  0  0  3  0  0  0  0  0  0
  -23.0990  -10.4560   20.1510 C   0  0  0  0  0  3  0  0  0  0  0  0
  -21.9580   -7.2020   21.3930 O   0  0  0  0  0  0  0  0  0  0  0  0
  -21.8070   -6.5130   22.5690 C   0  0  0  0  0  0  0  0  0  0  0  0
  -21.2510   -7.1150   23.7190 C   0  0  0  0  0  3  0  0  0  0  0  0
  -21.0500   -6.3490   24.8840 C   0  0  0  0  0  3  0  0  0  0  0  0
  -21.3950   -4.9850   24.9010 C   0  0  0  0  0  0  0  0  0  0  0  0
  -21.9410   -4.3840   23.7530 C   0  0  0  0  0  3  0  0  0  0  0  0
  -22.1440   -5.1450   22.5900 C   0  0  0  0  0  0  0  0  0  0  0  0
  -22.6530   -4.5560   21.4810 F   0  0  0  0  0  0  0  0  0  0  0  0
  -21.1950   -4.2490   26.0190 F   0  0  0  0  0  0  0  0  0  0  0  0
  -23.0800  -13.8340   21.0240 C   0  0  0  0  0  0  0  0  0  0  0  0
  -22.3340  -13.1670   21.8980 N   0  0  0  0  0  0  0  0  0  0  0  0
  -22.6540  -14.8390   20.4590 O   0  0  0  0  0  0  0  0  0  0  0  0
  -22.6890  -12.3530   22.3780 H   0  0  0  0  0  0  0  0  0  0  0  0
  -21.3900  -13.4750   22.0890 H   0  0  0  0  0  0  0  0  0  0  0  0
  -25.7450  -15.4820   20.2700 N   0  0  0  0  0  0  0  0  0  0  0  0
  -24.9790  -16.1430   20.3400 H   0  0  0  0  0  0  0  0  0  0  0  0
  -26.6080  -15.9080   19.9600 H   0  0  0  0  0  0  0  0  0  0  0  0
  -28.8800  -21.9400   20.4000 C   0  0  0  0  0  2  0  0  0  0  0  0
  -28.4690  -23.1530   22.5640 C   0  0  0  0  0  1  0  0  0  0  0  0
  -30.7540  -23.2530   21.4500 C   0  0  0  0  0  1  0  0  0  0  0  0
  -29.2230  -23.2390   21.2210 C   0  0  1  0  0  0  0  0  0  0  0  0
  -28.7980  -24.5230   20.3910 C   0  0  0  0  0  2  0  0  0  0  0  0
  -29.7000  -26.3270   21.8140 C   0  0  0  0  0  1  0  0  0  0  0  0
  -28.5480  -25.8180   21.0790 N   0  0  0  0  0  0  0  0  0  0  0  0
  -28.3930  -26.8110   20.0220 O   0  0  0  0  0  0  0  0  0  0  0  0
  -24.5600  -31.9740   23.2190 C   0  0  0  0  0  0  0  0  0  0  0  0
  -27.2260  -27.5360   20.1300 C   0  0  0  0  0  0  0  0  0  0  0  0
  -23.3610  -30.5590   21.5850 C   0  0  0  0  0  3  0  0  0  0  0  0
  -24.8220  -29.0290   20.1570 C   0  0  0  0  0  0  0  0  0  0  0  0
  -25.8840  -30.9350   21.3740 C   0  0  0  0  0  2  0  0  0  0  0  0
  -25.9800  -29.5600   20.7410 C   0  0  0  0  0  0  0  0  0  0  0  0
  -27.1870  -28.8190   20.7300 C   0  0  0  0  0  3  0  0  0  0  0  0
  -26.0530  -27.0200   19.5470 C   0  0  0  0  0  3  0  0  0  0  0  0
  -24.8520  -27.7560   19.5600 C   0  0  0  0  0  3  0  0  0  0  0  0
  -23.5710  -29.8800   20.2050 C   0  0  0  0  0  2  0  0  0  0  0  0
  -24.6210  -31.1730   22.1160 N   0  0  0  0  0  0  0  0  0  0  0  0
  -23.4800  -32.2370   23.7630 O   0  0  0  0  0  0  0  0  0  0  0  0
  -22.7230  -29.5320   22.5500 C   0  0  0  0  0  0  0  0  0  0  0  0
  -21.3990  -29.3370   22.4290 N   0  0  0  0  0  0  0  0  0  0  0  0
  -23.4170  -28.9120   23.3590 O   0  0  0  0  0  0  0  0  0  0  0  0
  -20.9000  -29.8900   21.7460 H   0  0  0  0  0  0  0  0  0  0  0  0
  -18.0340  -28.1370   22.9680 C   0  0  0  0  0  0  0  0  0  0  0  0
  -20.5960  -28.3920   23.2040 C   0  0  0  0  0  3  0  0  0  0  0  0
  -20.6900  -26.9670   22.6120 C   0  0  0  0  0  2  0  0  0  0  0  0
  -19.5730  -26.6550   21.6120 C   0  0  0  0  0  2  0  0  0  0  0  0
  -18.2020  -26.7950   22.2770 C   0  0  0  0  0  2  0  0  0  0  0  0
  -19.1600  -28.8940   23.3880 C   0  0  0  0  0  0  0  0  0  0  0  0
  -18.9490  -30.1540   23.9900 C   0  0  0  0  0  3  0  0  0  0  0  0
  -17.6470  -30.6540   24.1800 C   0  0  0  0  0  3  0  0  0  0  0  0
  -16.5370  -29.8930   23.7760 C   0  0  0  0  0  3  0  0  0  0  0  0
  -16.7310  -28.6360   23.1760 C   0  0  0  0  0  3  0  0  0  0  0  0
  -25.8430  -32.6180   23.8290 C   0  0  0  0  0  3  0  0  0  0  0  0
  -25.5220  -34.0120   24.1660 N   0  0  0  0  0  0  0  0  0  0  0  0
  -25.8530  -35.0710   23.4130 C   0  0  0  0  0  0  0  0  0  0  0  0
  -26.5300  -34.9770   22.3860 O   0  0  0  0  0  0  0  0  0  0  0  0
  -24.9210  -34.1560   24.9630 H   0  0  0  0  0  0  0  0  0  0  0  0
  -24.1240  -36.8580   23.0430 C   0  0  0  0  0  1  0  0  0  0  0  0
  -25.3520  -36.4520   23.8740 C   0  0  0  0  0  3  0  0  0  0  0  0
  -27.4670  -37.3380   24.7530 C   0  0  0  0  0  1  0  0  0  0  0  0
  -26.3820  -37.5110   23.7900 N   0  0  0  0  0  0  0  0  0  0  0  0
  -25.9710  -38.4270   23.9400 H   0  0  0  0  0  0  0  0  0  0  0  0
  -26.3810  -31.8490   25.0970 C   0  0  1  0  0  0  0  0  0  0  0  0
  -25.2960  -31.5840   26.1660 C   0  0  0  0  0  1  0  0  0  0  0  0
  -26.9900  -30.4860   24.6910 C   0  0  0  0  0  1  0  0  0  0  0  0
  -27.5170  -32.6630   25.7600 C   0  0  0  0  0  1  0  0  0  0  0  0
  1  2  1  0
  3  7  1  0
  5  8  2  0
  6  5  1  0
  6  3  2  0
  7  4  2  0
  7 22  1  0
  8  4  1  0
  8  1  1  0
  9 13  2  0
  9  5  1  0
 10  6  1  0
 11  9  1  0
 12 11  1  0
 12 10  1  0
 14 22  1  0
 15 20  1  0
 16 17  1  0
 16 15  1  0
 18 17  1  0
 18 27  1  0
 18 19  1  0
 20 14  1  0
 20 19  1  0
 21 14  2  0
 22 23  1  0
 24 25  2  0
 25 44  1  0
 26 25  1  0
 26 29  1  0
 27 24  1  0
 27 28  1  0
 28 26  2  0
 29 30  1  0
 30 31  2  0
 32 35  1  0
 32 31  1  0
 33 32  2  0
 34 33  1  0
 34 29  2  0
 35 36  1  0
 36 41  2  0
 36 37  1  0
 37 38  2  0
 38 39  1  0
 39 43  1  0
 40 39  2  0
 41 40  1  0
 42 41  1  0
 44 45  1  0
 45 48  1  0
 45 47  1  0
 46 44  2  0
 49 50  1  0
 49 24  1  0
 51 49  1  0
 52  1  1  0
 52 55  1  0
 55 54  1  1
 55 53  1  0
 56 58  1  0
 56 55  1  0
 58 57  1  0
 59 61  1  0
 59 58  1  0
 60 71  2  0
 61 66  1  0
 62 70  1  0
 62 72  1  0
 63 69  1  0
 63 65  1  0
 64 70  1  0
 65 64  1  0
 66 65  2  0
 67 68  1  0
 67 61  2  0
 68 63  2  0
 69 62  1  0
 70 60  1  0
 72 74  2  0
 73 72  1  0
 75 73  1  0
 76 85  2  0
 76 81  1  0
 77 73  1  0
 77 81  1  0
 78 77  1  0
 79 80  1  0
 79 78  1  0
 80 76  1  0
 81 82  2  0
 82 83  1  0
 84 83  2  0
 85 84  1  0
 86 60  1  0
 86 87  1  0
 86 96  1  0
 87 90  1  0
 88 92  1  0
 88 87  1  0
 89 88  2  0
 92 91  1  0
 94 92  1  0
 94 95  1  0
 94 93  1  0
 96 99  1  1
 96 97  1  0
 98 96  1  0
M  ISO  4  14 100  22 100  58 101  59 101
M  END
>  <TORSDO>  (63) 
F 21

>  <SCORE>  (63) 
-13.197

>  <name>  (63) 
63

>  <ligand_id>  (63) 
63

>  <original_smiles>  (63) 
[H]c1c([H])c([H])c2c(c1[H])C([H])([H])C([H])([H])C([H])([H])C2([H])N([H])C(=O)C1([H])N(C(=O)C([H])(N([H])C(=O)C([H])(N([H])C([H])([H])[H])C([H])([H])[H])C(C([H])([H])[H])(C([H])([H])[H])C([H])([H])[H])C([H])([H])c2c([H])c(ON(C([H])([H])[H])C([H])([H])C(C([H])([H])[H])(C([H])([H])[H])C([H])([H])N([H])c3c([H])c(N([H])C(=O)N4C([H])([H])C([H])([H])C([H])([H])C([H])(n5nc(-c6c([H])c([H])c(Oc7c([H])c([H])c(F)c([H])c7F)c([H])c6[H])c(C(=O)N([H])[H])c5N([H])[H])C4([H])[H])c([H])c4c3C(=O)C([H])([H])C([H])([H])C4([H])[H])c([H])c([H])c2C1([H])[H]

>  <smiles>  (63) 
[H]c1c([H])c([H])c2c(c1[H])C([H])([H])C([H])([H])C([H])([H])C2([H])N([H])C(=O)C1([H])N(C(=O)C([H])(N([H])C(=O)C([H])(N([H])C([H])([H])[H])C([H])([H])[H])C(C([H])([H])[H])(C([H])([H])[H])C([H])([H])[H])C([H])([H])c2c([H])c(ON(C([H])([H])[H])C([H])([H])C(C([H])([H])[H])(C([H])([H])[H])C([H])([H])N([H])c3c([H])c(N([H])C(=O)N4C([H])([H])C([H])([H])C([H])([H])C([H])(n5nc(-c6c([H])c([H])c(Oc7c([H])c([H])c(F)c([H])c7F)c([H])c6[H])c(C(=O)N([H])[H])c5N([H])[H])C4([H])[H])c([H])c4c3C(=O)C([H])([H])C([H])([H])C4([H])[H])c([H])c([H])c2C1([H])[H]

$$$$
64:0:0
     RDKit          3D

 92100  0  0  1  0  0  0  0  0999 V2000
  -29.1450  -18.4360   20.2690 C   0  0  0  0  0  3  0  0  0  0  0  0
  -31.4240  -17.7880   20.6400 C   0  0  0  0  0  3  0  0  0  0  0  0
  -30.0960  -17.3500   20.4500 C   0  0  0  0  0  0  0  0  0  0  0  0
  -29.5430  -19.8330   20.2930 C   0  0  0  0  0  0  0  0  0  0  0  0
  -31.7420  -19.1590   20.6430 C   0  0  0  0  0  0  0  0  0  0  0  0
  -30.8380  -20.1470   20.4740 N   0  0  0  0  0  0  0  0  0  0  0  0
  -28.6770  -20.9760   20.1180 N   0  0  0  0  0  0  0  0  0  0  0  0
  -33.0270  -19.5200   20.8470 F   0  0  0  0  0  0  0  0  0  0  0  0
  -27.6850  -20.7520   20.0730 H   0  0  0  0  0  0  0  0  0  0  0  0
  -30.5570  -14.7520   20.3680 C   0  0  0  0  0  0  0  0  0  0  0  0
  -30.3520  -12.4760   19.3710 C   0  0  0  0  0  2  0  0  0  0  0  0
  -29.4120  -12.5520   18.1480 C   0  0  0  0  0  2  0  0  0  0  0  0
  -27.9440  -12.3850   18.5850 C   0  0  0  0  0  2  0  0  0  0  0  0
  -27.5760  -13.2780   19.8000 C   0  0  0  0  0  3  0  0  0  0  0  0
  -28.6350  -13.1870   20.9200 C   0  0  0  0  0  2  0  0  0  0  0  0
  -29.9310  -13.5320   20.3190 N   0  0  0  0  0  0  0  0  0  0  0  0
  -31.7600  -14.8140   20.0850 O   0  0  0  0  0  0  0  0  0  0  0  0
  -29.7640  -15.8920   20.4850 N   0  0  0  0  0  0  0  0  0  0  0  0
  -28.7800  -15.6890   20.5770 H   0  0  0  0  0  0  0  0  0  0  0  0
  -25.1900  -13.8770   20.5340 C   0  0  0  0  0  0  0  0  0  0  0  0
  -24.1240  -13.1040   20.9040 C   0  0  0  0  0  0  0  0  0  0  0  0
  -24.5850  -11.7530   20.8710 C   0  0  0  0  0  0  0  0  0  0  0  0
  -26.2340  -12.9960   20.2960 N   0  0  0  0  0  0  0  0  0  0  0  0
  -25.8760  -11.7140   20.5650 N   0  0  0  0  0  0  0  0  0  0  0  0
  -23.8580  -10.4910   21.0580 C   0  0  0  0  0  0  0  0  0  0  0  0
  -24.2880   -9.5190   21.9880 C   0  0  0  0  0  3  0  0  0  0  0  0
  -23.5590   -8.3230   22.1600 C   0  0  0  0  0  3  0  0  0  0  0  0
  -22.3870   -8.0890   21.4020 C   0  0  0  0  0  0  0  0  0  0  0  0
  -21.9770   -9.0510   20.4600 C   0  0  0  0  0  3  0  0  0  0  0  0
  -22.7070  -10.2380   20.2850 C   0  0  0  0  0  3  0  0  0  0  0  0
  -21.6300   -6.9440   21.4840 O   0  0  0  0  0  0  0  0  0  0  0  0
  -21.5770   -6.2000   22.6350 C   0  0  0  0  0  0  0  0  0  0  0  0
  -21.1500   -6.7530   23.8620 C   0  0  0  0  0  3  0  0  0  0  0  0
  -21.0420   -5.9320   25.0030 C   0  0  0  0  0  3  0  0  0  0  0  0
  -21.3570   -4.5640   24.9200 C   0  0  0  0  0  0  0  0  0  0  0  0
  -21.7740   -4.0100   23.6970 C   0  0  0  0  0  3  0  0  0  0  0  0
  -21.8840   -4.8250   22.5580 C   0  0  0  0  0  0  0  0  0  0  0  0
  -22.2690   -4.2840   21.3770 F   0  0  0  0  0  0  0  0  0  0  0  0
  -21.2440   -3.7740   26.0140 F   0  0  0  0  0  0  0  0  0  0  0  0
  -22.7280  -13.5820   21.1700 C   0  0  0  0  0  0  0  0  0  0  0  0
  -21.9960  -12.8850   22.0300 N   0  0  0  0  0  0  0  0  0  0  0  0
  -22.2970  -14.6120   20.6530 O   0  0  0  0  0  0  0  0  0  0  0  0
  -22.3570  -12.0510   22.4680 H   0  0  0  0  0  0  0  0  0  0  0  0
  -21.0580  -13.1870   22.2520 H   0  0  0  0  0  0  0  0  0  0  0  0
  -25.3560  -15.2480   20.3540 N   0  0  0  0  0  0  0  0  0  0  0  0
  -24.5800  -15.8930   20.4460 H   0  0  0  0  0  0  0  0  0  0  0  0
  -26.1800  -15.6820   19.9580 H   0  0  0  0  0  0  0  0  0  0  0  0
  -28.9750  -22.3670   20.6770 C   0  0  0  0  0  2  0  0  0  0  0  0
  -28.5970  -23.7240   19.9110 C   0  0  0  0  0  0  0  0  0  0  0  0
  -28.7440  -23.7880   18.6870 O   0  0  0  0  0  0  0  0  0  0  0  0
  -28.0080  -24.9830   20.7100 C   0  0  0  0  0  2  0  0  0  0  0  0
  -28.3110  -26.3850   20.2500 O   0  0  0  0  0  0  0  0  0  0  0  0
  -24.6000  -31.9020   23.2230 C   0  0  0  0  0  0  0  0  0  0  0  0
  -27.2310  -27.2910   20.2210 C   0  0  0  0  0  0  0  0  0  0  0  0
  -23.4140  -30.4830   21.5870 C   0  0  0  0  0  3  0  0  0  0  0  0
  -24.8800  -28.9270   20.1810 C   0  0  0  0  0  0  0  0  0  0  0  0
  -25.9590  -30.7960   21.4290 C   0  0  0  0  0  2  0  0  0  0  0  0
  -26.0470  -29.4120   20.7890 C   0  0  0  0  0  0  0  0  0  0  0  0
  -27.2310  -28.6040   20.7970 C   0  0  0  0  0  3  0  0  0  0  0  0
  -26.0490  -26.8800   19.5740 C   0  0  0  0  0  3  0  0  0  0  0  0
  -24.8880  -27.6730   19.5560 C   0  0  0  0  0  3  0  0  0  0  0  0
  -23.6450  -29.8050   20.2110 C   0  0  0  0  0  2  0  0  0  0  0  0
  -24.6750  -31.0780   22.1360 N   0  0  0  0  0  0  0  0  0  0  0  0
  -23.5120  -32.1790   23.7480 O   0  0  0  0  0  0  0  0  0  0  0  0
  -22.7490  -29.4730   22.5510 C   0  0  0  0  0  0  0  0  0  0  0  0
  -21.4220  -29.2960   22.4250 N   0  0  0  0  0  0  0  0  0  0  0  0
  -23.4250  -28.8470   23.3700 O   0  0  0  0  0  0  0  0  0  0  0  0
  -20.9320  -29.8560   21.7430 H   0  0  0  0  0  0  0  0  0  0  0  0
  -18.0400  -28.1210   22.9500 C   0  0  0  0  0  0  0  0  0  0  0  0
  -20.6020  -28.3640   23.2020 C   0  0  0  0  0  3  0  0  0  0  0  0
  -20.6910  -26.9310   22.6270 C   0  0  0  0  0  2  0  0  0  0  0  0
  -19.5790  -26.6160   21.6190 C   0  0  0  0  0  2  0  0  0  0  0  0
  -18.2020  -26.7700   22.2740 C   0  0  0  0  0  2  0  0  0  0  0  0
  -19.1660  -28.8760   23.3720 C   0  0  0  0  0  0  0  0  0  0  0  0
  -18.9590  -30.1400   23.9660 C   0  0  0  0  0  3  0  0  0  0  0  0
  -17.6570  -30.6480   24.1420 C   0  0  0  0  0  3  0  0  0  0  0  0
  -16.5450  -29.8880   23.7360 C   0  0  0  0  0  3  0  0  0  0  0  0
  -16.7380  -28.6280   23.1450 C   0  0  0  0  0  3  0  0  0  0  0  0
  -25.8760  -32.5470   23.8450 C   0  0  0  0  0  3  0  0  0  0  0  0
  -26.3920  -31.7870   25.1290 C   0  0  1  0  0  0  0  0  0  0  0  0
  -25.2990  -31.5490   26.1960 C   0  0  0  0  0  1  0  0  0  0  0  0
  -26.9890  -30.4100   24.7530 C   0  0  0  0  0  1  0  0  0  0  0  0
  -27.5350  -32.5930   25.7910 C   0  0  0  0  0  1  0  0  0  0  0  0
  -25.5560  -33.9440   24.1690 N   0  0  0  0  0  0  0  0  0  0  0  0
  -25.8820  -34.9980   23.4110 C   0  0  0  0  0  0  0  0  0  0  0  0
  -26.5580  -34.8990   22.3820 O   0  0  0  0  0  0  0  0  0  0  0  0
  -24.9610  -34.0950   24.9700 H   0  0  0  0  0  0  0  0  0  0  0  0
  -24.1500  -36.7830   23.0370 C   0  0  0  0  0  1  0  0  0  0  0  0
  -25.3830  -36.3840   23.8630 C   0  0  0  0  0  3  0  0  0  0  0  0
  -27.5020  -37.2810   24.7150 C   0  0  0  0  0  1  0  0  0  0  0  0
  -26.4100  -37.4420   23.7600 N   0  0  0  0  0  0  0  0  0  0  0  0
  -25.9980  -38.3610   23.9100 H   0  0  0  0  0  0  0  0  0  0  0  0
  1  4  2  0
  1  3  1  0
  2  5  1  0
  3 18  1  0
  3  2  2  0
  4  6  1  0
  5  8  1  0
  6  5  2  0
  7  4  1  0
  7 48  1  0
  9  7  1  0
 10 18  1  0
 11 16  1  0
 12 13  1  0
 12 11  1  0
 14 13  1  0
 14 23  1  0
 14 15  1  0
 16 10  1  0
 16 15  1  0
 17 10  2  0
 18 19  1  0
 20 21  2  0
 21 40  1  0
 22 21  1  0
 22 25  1  0
 23 20  1  0
 23 24  1  0
 24 22  2  0
 25 26  1  0
 26 27  2  0
 28 31  1  0
 28 27  1  0
 29 28  2  0
 30 29  1  0
 30 25  2  0
 31 32  1  0
 32 33  1  0
 33 34  2  0
 35 34  1  0
 35 39  1  0
 36 35  2  0
 37 32  2  0
 37 36  1  0
 38 37  1  0
 40 41  1  0
 41 44  1  0
 41 43  1  0
 42 40  2  0
 45 46  1  0
 45 20  1  0
 47 45  1  0
 49 48  1  0
 49 51  1  0
 50 49  2  0
 52 51  1  0
 53 64  2  0
 54 52  1  0
 54 59  1  0
 55 63  1  0
 55 65  1  0
 56 62  1  0
 56 58  1  0
 57 63  1  0
 58 59  2  0
 58 57  1  0
 60 54  2  0
 61 60  1  0
 61 56  2  0
 62 55  1  0
 63 53  1  0
 65 67  2  0
 66 65  1  0
 68 66  1  0
 69 78  2  0
 69 74  1  0
 70 66  1  0
 70 74  1  0
 71 70  1  0
 72 73  1  0
 72 71  1  0
 73 69  1  0
 74 75  2  0
 75 76  1  0
 77 76  2  0
 78 77  1  0
 79 53  1  0
 79 84  1  0
 79 80  1  0
 80 83  1  1
 80 81  1  0
 82 80  1  0
 84 87  1  0
 85 89  1  0
 85 84  1  0
 86 85  2  0
 89 88  1  0
 91 89  1  0
 91 92  1  0
 91 90  1  0
M  ISO  4  10 100  18 100  51 101  52 101
M  END
>  <TORSDO>  (64) 
F 19

>  <SCORE>  (64) 
-14.426

>  <name>  (64) 
64

>  <ligand_id>  (64) 
64

>  <original_smiles>  (64) 
[H]c1c([H])c([H])c2c(c1[H])C([H])([H])C([H])([H])C([H])([H])C2([H])N([H])C(=O)C1([H])N(C(=O)C([H])(N([H])C(=O)C([H])(N([H])C([H])([H])[H])C([H])([H])[H])C(C([H])([H])[H])(C([H])([H])[H])C([H])([H])[H])C([H])([H])c2c([H])c(OC([H])([H])C(=O)C([H])([H])N([H])c3nc(F)c([H])c(N([H])C(=O)N4C([H])([H])C([H])([H])C([H])([H])C([H])(n5nc(-c6c([H])c([H])c(Oc7c([H])c([H])c(F)c([H])c7F)c([H])c6[H])c(C(=O)N([H])[H])c5N([H])[H])C4([H])[H])c3[H])c([H])c([H])c2C1([H])[H]

>  <smiles>  (64) 
[H]c1c([H])c([H])c2c(c1[H])C([H])([H])C([H])([H])C([H])([H])C2([H])N([H])C(=O)C1([H])N(C(=O)C([H])(N([H])C(=O)C([H])(N([H])C([H])([H])[H])C([H])([H])[H])C(C([H])([H])[H])(C([H])([H])[H])C([H])([H])[H])C([H])([H])c2c([H])c(OC([H])([H])C(=O)C([H])([H])N([H])c3nc(F)c([H])c(N([H])C(=O)N4C([H])([H])C([H])([H])C([H])([H])C([H])(n5nc(-c6c([H])c([H])c(Oc7c([H])c([H])c(F)c([H])c7F)c([H])c6[H])c(C(=O)N([H])[H])c5N([H])[H])C4([H])[H])c3[H])c([H])c([H])c2C1([H])[H]

$$$$
65:0:0
     RDKit          3D

 94102  0  0  1  0  0  0  0  0999 V2000
  -30.1760  -20.6770   19.8180 C   0  0  0  0  0  0  0  0  0  0  0  0
  -30.4650  -20.6860   18.3190 C   0  0  0  0  0  1  0  0  0  0  0  0
  -29.8220  -21.7670   20.4400 N   0  0  0  0  0  0  0  0  0  0  0  0
  -30.7410  -18.4140   22.6680 C   0  0  0  0  0  3  0  0  0  0  0  0
  -30.5780  -16.8830   20.7990 C   0  0  0  0  0  0  0  0  0  0  0  0
  -30.7380  -17.0960   22.1800 C   0  0  0  0  0  0  0  0  0  0  0  0
  -30.3430  -18.0220   19.9700 C   0  0  0  0  0  0  0  0  0  0  0  0
  -30.3680  -19.3450   20.5520 C   0  0  0  0  0  0  0  0  0  0  0  0
  -30.5710  -19.4970   21.8890 N   0  0  0  0  0  0  0  0  0  0  0  0
  -30.8440  -16.0450   23.0290 F   0  0  0  0  0  0  0  0  0  0  0  0
  -30.0310  -17.8120   18.6680 F   0  0  0  0  0  0  0  0  0  0  0  0
  -31.2610  -14.5260   20.0620 C   0  0  0  0  0  0  0  0  0  0  0  0
  -30.9630  -12.3280   18.9470 C   0  0  0  0  0  2  0  0  0  0  0  0
  -29.9860  -12.5470   17.7680 C   0  0  0  0  0  2  0  0  0  0  0  0
  -28.5090  -12.5030   18.2190 C   0  0  0  0  0  2  0  0  0  0  0  0
  -28.2470  -13.3340   19.5020 C   0  0  0  0  0  3  0  0  0  0  0  0
  -29.3150  -13.0260   20.5780 C   0  0  0  0  0  2  0  0  0  0  0  0
  -30.6280  -13.3180   19.9810 N   0  0  0  0  0  0  0  0  0  0  0  0
  -32.4180  -14.7030   19.6650 O   0  0  0  0  0  0  0  0  0  0  0  0
  -30.4010  -15.5250   20.3760 N   0  0  0  0  0  0  0  0  0  0  0  0
  -29.5020  -15.1540   20.6330 H   0  0  0  0  0  0  0  0  0  0  0  0
  -25.9110  -14.1020   20.2560 C   0  0  0  0  0  0  0  0  0  0  0  0
  -24.8070  -13.4030   20.6590 C   0  0  0  0  0  0  0  0  0  0  0  0
  -25.1820  -12.0240   20.6250 C   0  0  0  0  0  0  0  0  0  0  0  0
  -26.8910  -13.1530   20.0080 N   0  0  0  0  0  0  0  0  0  0  0  0
  -26.4580  -11.9000   20.2850 N   0  0  0  0  0  0  0  0  0  0  0  0
  -24.3850  -10.8120   20.8410 C   0  0  0  0  0  0  0  0  0  0  0  0
  -24.7500   -9.8530   21.8100 C   0  0  0  0  0  3  0  0  0  0  0  0
  -23.9580   -8.7010   22.0090 C   0  0  0  0  0  3  0  0  0  0  0  0
  -22.7880   -8.5020   21.2390 C   0  0  0  0  0  0  0  0  0  0  0  0
  -22.4420   -9.4510   20.2620 C   0  0  0  0  0  3  0  0  0  0  0  0
  -23.2330  -10.5940   20.0600 C   0  0  0  0  0  3  0  0  0  0  0  0
  -21.9700   -7.4040   21.3470 O   0  0  0  0  0  0  0  0  0  0  0  0
  -21.8130   -6.7370   22.5360 C   0  0  0  0  0  0  0  0  0  0  0  0
  -21.3510   -7.3880   23.7000 C   0  0  0  0  0  3  0  0  0  0  0  0
  -21.1380   -6.6490   24.8810 C   0  0  0  0  0  3  0  0  0  0  0  0
  -21.3790   -5.2630   24.8980 C   0  0  0  0  0  0  0  0  0  0  0  0
  -21.8360   -4.6130   23.7390 C   0  0  0  0  0  3  0  0  0  0  0  0
  -22.0510   -5.3490   22.5600 C   0  0  0  0  0  0  0  0  0  0  0  0
  -22.4690   -4.7150   21.4370 F   0  0  0  0  0  0  0  0  0  0  0  0
  -21.1690   -4.5510   26.0300 F   0  0  0  0  0  0  0  0  0  0  0  0
  -23.4490  -13.9670   20.9620 C   0  0  0  0  0  0  0  0  0  0  0  0
  -22.7080  -13.3280   21.8580 N   0  0  0  0  0  0  0  0  0  0  0  0
  -23.0560  -15.0070   20.4320 O   0  0  0  0  0  0  0  0  0  0  0  0
  -23.0400  -12.4840   22.3020 H   0  0  0  0  0  0  0  0  0  0  0  0
  -21.7970  -13.6860   22.1090 H   0  0  0  0  0  0  0  0  0  0  0  0
  -26.1580  -15.4590   20.0600 N   0  0  0  0  0  0  0  0  0  0  0  0
  -25.4280  -16.1510   20.1790 H   0  0  0  0  0  0  0  0  0  0  0  0
  -26.9870  -15.8350   19.6180 H   0  0  0  0  0  0  0  0  0  0  0  0
  -31.1780  -23.7660   19.9530 C   0  0  0  0  0  1  0  0  0  0  0  0
  -29.7840  -23.1030   19.8080 C   0  0  0  0  0  3  0  0  0  0  0  0
  -28.6760  -24.0290   20.4200 C   0  0  0  0  0  2  0  0  0  0  0  0
  -28.3750  -25.2970   19.5540 C   0  0  0  0  0  2  0  0  0  0  0  0
  -28.1760  -26.5280   20.2810 O   0  0  0  0  0  0  0  0  0  0  0  0
  -24.5230  -31.8710   23.2310 C   0  0  0  0  0  0  0  0  0  0  0  0
  -26.9960  -27.2540   20.2370 C   0  0  0  0  0  0  0  0  0  0  0  0
  -23.2550  -30.4780   21.6290 C   0  0  0  0  0  3  0  0  0  0  0  0
  -24.6450  -28.8470   20.2410 C   0  0  0  0  0  0  0  0  0  0  0  0
  -25.7930  -30.7390   21.4030 C   0  0  0  0  0  2  0  0  0  0  0  0
  -25.8290  -29.3490   20.7980 C   0  0  0  0  0  0  0  0  0  0  0  0
  -27.0020  -28.5580   20.7920 C   0  0  0  0  0  3  0  0  0  0  0  0
  -25.7900  -26.7670   19.6870 C   0  0  0  0  0  3  0  0  0  0  0  0
  -24.6200  -27.5550   19.6910 C   0  0  0  0  0  3  0  0  0  0  0  0
  -23.4320  -29.7510   20.2690 C   0  0  0  0  0  2  0  0  0  0  0  0
  -24.5420  -31.0460   22.1460 N   0  0  0  0  0  0  0  0  0  0  0  0
  -23.4580  -32.1950   23.7760 O   0  0  0  0  0  0  0  0  0  0  0  0
  -22.5740  -29.5060   22.6220 C   0  0  0  0  0  0  0  0  0  0  0  0
  -21.2470  -29.3420   22.4910 N   0  0  0  0  0  0  0  0  0  0  0  0
  -23.2390  -28.8970   23.4640 O   0  0  0  0  0  0  0  0  0  0  0  0
  -20.7710  -29.8840   21.7830 H   0  0  0  0  0  0  0  0  0  0  0  0
  -17.8600  -28.1790   22.9580 C   0  0  0  0  0  0  0  0  0  0  0  0
  -20.4100  -28.4470   23.2880 C   0  0  0  0  0  3  0  0  0  0  0  0
  -20.5260  -26.9870   22.7900 C   0  0  0  0  0  2  0  0  0  0  0  0
  -19.4530  -26.6160   21.7650 C   0  0  0  0  0  2  0  0  0  0  0  0
  -18.0520  -26.7960   22.3600 C   0  0  0  0  0  2  0  0  0  0  0  0
  -18.9680  -28.9600   23.3810 C   0  0  0  0  0  0  0  0  0  0  0  0
  -18.7390  -30.2520   23.8990 C   0  0  0  0  0  3  0  0  0  0  0  0
  -17.4320  -30.7650   24.0050 C   0  0  0  0  0  3  0  0  0  0  0  0
  -16.3370  -29.9820   23.6020 C   0  0  0  0  0  3  0  0  0  0  0  0
  -16.5520  -28.6930   23.0830 C   0  0  0  0  0  3  0  0  0  0  0  0
  -25.8340  -32.4730   23.8250 C   0  0  0  0  0  3  0  0  0  0  0  0
  -26.3550  -31.6900   25.0950 C   0  0  1  0  0  0  0  0  0  0  0  0
  -25.2710  -31.4630   26.1760 C   0  0  0  0  0  1  0  0  0  0  0  0
  -26.9040  -30.3000   24.6920 C   0  0  0  0  0  1  0  0  0  0  0  0
  -27.5330  -32.4560   25.7400 C   0  0  0  0  0  1  0  0  0  0  0  0
  -25.5660  -33.8800   24.1510 N   0  0  0  0  0  0  0  0  0  0  0  0
  -25.9170  -34.9200   23.3790 C   0  0  0  0  0  0  0  0  0  0  0  0
  -26.5670  -34.7920   22.3390 O   0  0  0  0  0  0  0  0  0  0  0  0
  -24.9650  -34.0490   24.9440 H   0  0  0  0  0  0  0  0  0  0  0  0
  -24.2230  -36.7560   23.0550 C   0  0  0  0  0  1  0  0  0  0  0  0
  -25.4770  -36.3260   23.8340 C   0  0  0  0  0  3  0  0  0  0  0  0
  -27.6610  -37.1670   24.5880 C   0  0  0  0  0  1  0  0  0  0  0  0
  -26.5300  -37.3540   23.6800 N   0  0  0  0  0  0  0  0  0  0  0  0
  -26.1510  -38.2850   23.8320 H   0  0  0  0  0  0  0  0  0  0  0  0
  1  3  2  0
  1  8  1  0
  2  1  1  0
  5  6  2  0
  6  4  1  0
  6 10  1  0
  7  8  2  0
  7  5  1  0
  8  9  1  0
  9  4  2  0
 11  7  1  0
 12 20  1  0
 13 18  1  0
 14 15  1  0
 14 13  1  0
 16 15  1  0
 16 25  1  0
 16 17  1  0
 18 12  1  0
 18 17  1  0
 19 12  2  0
 20 21  1  0
 20  5  1  0
 22 23  2  0
 23 42  1  0
 24 23  1  0
 24 27  1  0
 25 22  1  0
 25 26  1  0
 26 24  2  0
 27 28  1  0
 28 29  2  0
 30 33  1  0
 30 29  1  0
 31 30  2  0
 32 31  1  0
 32 27  2  0
 33 34  1  0
 34 39  2  0
 34 35  1  0
 35 36  2  0
 36 37  1  0
 37 41  1  0
 38 37  2  0
 39 38  1  0
 40 39  1  0
 42 43  1  0
 43 46  1  0
 43 45  1  0
 44 42  2  0
 47 48  1  0
 47 22  1  0
 49 47  1  0
 51 50  1  0
 51 52  1  0
 51  3  1  0
 53 54  1  0
 53 52  1  0
 55 66  2  0
 56 54  1  0
 56 61  1  0
 57 65  1  0
 57 67  1  0
 58 64  1  0
 58 60  1  0
 59 65  1  0
 60 59  1  0
 61 60  2  0
 62 63  1  0
 62 56  2  0
 63 58  2  0
 64 57  1  0
 65 55  1  0
 67 69  2  0
 68 67  1  0
 70 68  1  0
 71 80  2  0
 71 76  1  0
 72 68  1  0
 72 76  1  0
 73 72  1  0
 74 75  1  0
 74 73  1  0
 75 71  1  0
 76 77  2  0
 77 78  1  0
 79 78  2  0
 80 79  1  0
 81 55  1  0
 81 86  1  0
 81 82  1  0
 82 85  1  1
 82 83  1  0
 84 82  1  0
 86 89  1  0
 87 91  1  0
 87 86  1  0
 88 87  2  0
 91 90  1  0
 93 94  1  0
 93 91  1  0
 93 92  1  0
M  ISO  4  12 100  20 100  53 101  54 101
M  END
>  <TORSDO>  (65) 
F 20

>  <SCORE>  (65) 
-13.018

>  <name>  (65) 
65

>  <ligand_id>  (65) 
65

>  <original_smiles>  (65) 
[H]c1nc(C(=NC([H])(C([H])([H])[H])C([H])([H])C([H])([H])Oc2c([H])c([H])c3c(c2[H])C([H])([H])N(C(=O)C([H])(N([H])C(=O)C([H])(N([H])C([H])([H])[H])C([H])([H])[H])C(C([H])([H])[H])(C([H])([H])[H])C([H])([H])[H])C([H])(C(=O)N([H])C2([H])c4c([H])c([H])c([H])c([H])c4C([H])([H])C([H])([H])C2([H])[H])C3([H])[H])C([H])([H])[H])c(F)c(N([H])C(=O)N2C([H])([H])C([H])([H])C([H])([H])C([H])(n3nc(-c4c([H])c([H])c(Oc5c([H])c([H])c(F)c([H])c5F)c([H])c4[H])c(C(=O)N([H])[H])c3N([H])[H])C2([H])[H])c1F

>  <smiles>  (65) 
[H]c1nc(C(=NC([H])(C([H])([H])[H])C([H])([H])C([H])([H])Oc2c([H])c([H])c3c(c2[H])C([H])([H])N(C(=O)C([H])(N([H])C(=O)C([H])(N([H])C([H])([H])[H])C([H])([H])[H])C(C([H])([H])[H])(C([H])([H])[H])C([H])([H])[H])C([H])(C(=O)N([H])C2([H])c4c([H])c([H])c([H])c([H])c4C([H])([H])C([H])([H])C2([H])[H])C3([H])[H])C([H])([H])[H])c(F)c(N([H])C(=O)N2C([H])([H])C([H])([H])C([H])([H])C([H])(n3nc(-c4c([H])c([H])c(Oc5c([H])c([H])c(F)c([H])c5F)c([H])c4[H])c(C(=O)N([H])[H])c3N([H])[H])C2([H])[H])c1F

$$$$
66:0:0
     RDKit          3D

 95103  0  0  1  0  0  0  0  0999 V2000
  -28.8340  -20.2610   20.4430 C   0  0  0  0  0  0  0  0  0  0  0  0
  -27.6130  -19.9690   19.9950 N   0  0  0  0  0  4  0  0  0  0  0  0
  -29.1290  -21.5190   20.8350 N   0  0  0  0  0  0  0  0  0  0  0  0
  -27.4310  -19.0470   19.6260 H   0  0  0  0  0  0  0  0  0  0  0  0
  -26.8430  -20.6180   20.0580 H   0  0  0  0  0  0  0  0  0  0  0  0
  -30.0250  -21.6200   21.2960 H   0  0  0  0  0  0  0  0  0  0  0  0
  -29.5240  -17.8620   20.8160 C   0  0  0  0  0  3  0  0  0  0  0  0
  -31.2070  -19.5580   20.2850 C   0  0  0  0  0  3  0  0  0  0  0  0
  -31.8850  -17.2730   20.8000 C   0  0  0  0  0  3  0  0  0  0  0  0
  -29.8590  -19.2110   20.5160 C   0  0  0  0  0  0  0  0  0  0  0  0
  -30.5310  -16.8680   20.9110 C   0  0  0  0  0  0  0  0  0  0  0  0
  -32.2160  -18.5990   20.4620 C   0  0  0  0  0  0  0  0  0  0  0  0
  -33.5120  -18.9550   20.3000 F   0  0  0  0  0  0  0  0  0  0  0  0
  -30.7040  -14.4540   20.4360 C   0  0  0  0  0  0  0  0  0  0  0  0
  -30.2970  -12.3190   19.2860 C   0  0  0  0  0  2  0  0  0  0  0  0
  -29.3690  -12.5550   18.0790 C   0  0  0  0  0  2  0  0  0  0  0  0
  -27.8940  -12.4390   18.5120 C   0  0  0  0  0  2  0  0  0  0  0  0
  -27.5730  -13.2720   19.7840 C   0  0  0  0  0  3  0  0  0  0  0  0
  -28.6340  -13.0610   20.8930 C   0  0  0  0  0  2  0  0  0  0  0  0
  -29.9640  -13.3180   20.3150 N   0  0  0  0  0  0  0  0  0  0  0  0
  -31.7950  -14.5760   19.8730 O   0  0  0  0  0  0  0  0  0  0  0  0
  -30.1550  -15.4920   21.0990 N   0  0  0  0  0  0  0  0  0  0  0  0
  -29.2560  -15.3140   21.5250 H   0  0  0  0  0  0  0  0  0  0  0  0
  -25.1780  -13.8690   20.5230 C   0  0  0  0  0  0  0  0  0  0  0  0
  -24.1140  -13.0950   20.8980 C   0  0  0  0  0  0  0  0  0  0  0  0
  -24.5730  -11.7420   20.8520 C   0  0  0  0  0  0  0  0  0  0  0  0
  -26.2230  -12.9920   20.2740 N   0  0  0  0  0  0  0  0  0  0  0  0
  -25.8600  -11.7060   20.5310 N   0  0  0  0  0  0  0  0  0  0  0  0
  -23.8480  -10.4790   21.0390 C   0  0  0  0  0  0  0  0  0  0  0  0
  -24.2790   -9.5070   21.9700 C   0  0  0  0  0  3  0  0  0  0  0  0
  -23.5500   -8.3090   22.1430 C   0  0  0  0  0  3  0  0  0  0  0  0
  -22.3770   -8.0750   21.3860 C   0  0  0  0  0  0  0  0  0  0  0  0
  -21.9680   -9.0350   20.4440 C   0  0  0  0  0  3  0  0  0  0  0  0
  -22.6980  -10.2230   20.2670 C   0  0  0  0  0  3  0  0  0  0  0  0
  -21.6210   -6.9310   21.4700 O   0  0  0  0  0  0  0  0  0  0  0  0
  -21.5520   -6.1950   22.6260 C   0  0  0  0  0  0  0  0  0  0  0  0
  -21.0980   -6.7560   23.8400 C   0  0  0  0  0  3  0  0  0  0  0  0
  -20.9770   -5.9460   24.9870 C   0  0  0  0  0  3  0  0  0  0  0  0
  -21.3010   -4.5770   24.9220 C   0  0  0  0  0  0  0  0  0  0  0  0
  -21.7500   -4.0170   23.7140 C   0  0  0  0  0  3  0  0  0  0  0  0
  -21.8710   -4.8230   22.5680 C   0  0  0  0  0  0  0  0  0  0  0  0
  -22.2840   -4.2740   21.4000 F   0  0  0  0  0  0  0  0  0  0  0  0
  -21.1830   -3.7970   26.0230 F   0  0  0  0  0  0  0  0  0  0  0  0
  -22.7190  -13.5730   21.1860 C   0  0  0  0  0  0  0  0  0  0  0  0
  -21.9940  -12.8730   22.0520 N   0  0  0  0  0  0  0  0  0  0  0  0
  -22.2810  -14.6030   20.6740 O   0  0  0  0  0  0  0  0  0  0  0  0
  -22.3630  -12.0420   22.4900 H   0  0  0  0  0  0  0  0  0  0  0  0
  -21.0580  -13.1770   22.2800 H   0  0  0  0  0  0  0  0  0  0  0  0
  -25.3450  -15.2390   20.3590 N   0  0  0  0  0  0  0  0  0  0  0  0
  -24.5890  -15.9010   20.5020 H   0  0  0  0  0  0  0  0  0  0  0  0
  -26.2000  -15.6780   20.0450 H   0  0  0  0  0  0  0  0  0  0  0  0
  -28.2360  -22.7000   20.8880 C   0  0  0  0  0  2  0  0  0  0  0  0
  -28.9520  -24.0750   20.7000 C   0  0  0  0  0  2  0  0  0  0  0  0
  -27.9370  -25.1430   20.2280 C   0  0  0  0  0  2  0  0  0  0  0  0
  -28.2850  -26.5570   20.2600 O   0  0  0  0  0  0  0  0  0  0  0  0
  -24.5960  -31.9070   23.2460 C   0  0  0  0  0  0  0  0  0  0  0  0
  -27.1790  -27.3990   20.1840 C   0  0  0  0  0  0  0  0  0  0  0  0
  -23.3830  -30.5170   21.6010 C   0  0  0  0  0  3  0  0  0  0  0  0
  -24.8290  -28.9860   20.1720 C   0  0  0  0  0  0  0  0  0  0  0  0
  -25.9200  -30.8470   21.4120 C   0  0  0  0  0  2  0  0  0  0  0  0
  -25.9950  -29.4750   20.7690 C   0  0  0  0  0  0  0  0  0  0  0  0
  -27.1790  -28.6890   20.7750 C   0  0  0  0  0  3  0  0  0  0  0  0
  -25.9910  -26.9580   19.5530 C   0  0  0  0  0  3  0  0  0  0  0  0
  -24.8220  -27.7290   19.5580 C   0  0  0  0  0  3  0  0  0  0  0  0
  -23.5930  -29.8530   20.2170 C   0  0  0  0  0  2  0  0  0  0  0  0
  -24.6520  -31.1050   22.1440 N   0  0  0  0  0  0  0  0  0  0  0  0
  -23.5120  -32.1820   23.7820 O   0  0  0  0  0  0  0  0  0  0  0  0
  -22.7250  -29.4930   22.5550 C   0  0  0  0  0  0  0  0  0  0  0  0
  -21.3990  -29.3210   22.4300 N   0  0  0  0  0  0  0  0  0  0  0  0
  -23.4050  -28.8540   23.3660 O   0  0  0  0  0  0  0  0  0  0  0  0
  -20.9120  -29.8890   21.7500 H   0  0  0  0  0  0  0  0  0  0  0  0
  -18.0120  -28.1680   22.9460 C   0  0  0  0  0  0  0  0  0  0  0  0
  -20.5740  -28.3900   23.2000 C   0  0  0  0  0  3  0  0  0  0  0  0
  -20.6530  -26.9610   22.6140 C   0  0  0  0  0  2  0  0  0  0  0  0
  -19.5410  -26.6610   21.6040 C   0  0  0  0  0  2  0  0  0  0  0  0
  -18.1650  -26.8210   22.2580 C   0  0  0  0  0  2  0  0  0  0  0  0
  -19.1430  -28.9120   23.3730 C   0  0  0  0  0  0  0  0  0  0  0  0
  -18.9470  -30.1730   23.9760 C   0  0  0  0  0  3  0  0  0  0  0  0
  -17.6510  -30.6940   24.1480 C   0  0  0  0  0  3  0  0  0  0  0  0
  -16.5330  -29.9480   23.7360 C   0  0  0  0  0  3  0  0  0  0  0  0
  -16.7140  -28.6850   23.1440 C   0  0  0  0  0  3  0  0  0  0  0  0
  -25.8820  -32.5310   23.8700 C   0  0  0  0  0  3  0  0  0  0  0  0
  -26.4010  -31.7510   25.1390 C   0  0  1  0  0  0  0  0  0  0  0  0
  -25.3110  -31.5080   26.2070 C   0  0  0  0  0  1  0  0  0  0  0  0
  -26.9780  -30.3750   24.7320 C   0  0  0  0  0  1  0  0  0  0  0  0
  -27.5530  -32.5390   25.8040 C   0  0  0  0  0  1  0  0  0  0  0  0
  -25.5770  -33.9270   24.2060 N   0  0  0  0  0  0  0  0  0  0  0  0
  -25.8950  -34.9800   23.4410 C   0  0  0  0  0  0  0  0  0  0  0  0
  -26.5490  -34.8790   22.3980 O   0  0  0  0  0  0  0  0  0  0  0  0
  -24.9970  -34.0820   25.0170 H   0  0  0  0  0  0  0  0  0  0  0  0
  -24.1520  -36.7640   23.1190 C   0  0  0  0  0  1  0  0  0  0  0  0
  -25.4120  -36.3650   23.9050 C   0  0  0  0  0  3  0  0  0  0  0  0
  -27.5580  -37.2580   24.6940 C   0  0  0  0  0  1  0  0  0  0  0  0
  -26.4370  -37.4230   23.7720 N   0  0  0  0  0  0  0  0  0  0  0  0
  -26.0280  -38.3400   23.9320 H   0  0  0  0  0  0  0  0  0  0  0  0
  1 10  1  0
  1  3  1  0
  2  5  1  0
  2  1  2  0
  3 52  1  0
  3  6  1  0
  4  2  1  0
  7 11  1  0
  8 12  2  0
  8 10  1  0
  9 11  2  0
 10  7  2  0
 11 22  1  0
 12  9  1  0
 13 12  1  0
 14 22  1  0
 15 20  1  0
 16 17  1  0
 16 15  1  0
 18 17  1  0
 18 27  1  0
 18 19  1  0
 20 14  1  0
 20 19  1  0
 21 14  2  0
 22 23  1  0
 24 25  2  0
 25 44  1  0
 26 25  1  0
 26 29  1  0
 27 24  1  0
 27 28  1  0
 28 26  2  0
 29 30  1  0
 30 31  2  0
 32 35  1  0
 32 31  1  0
 33 32  2  0
 34 33  1  0
 34 29  2  0
 35 36  1  0
 36 37  1  0
 37 38  2  0
 39 38  1  0
 39 43  1  0
 40 39  2  0
 41 36  2  0
 41 40  1  0
 42 41  1  0
 44 45  1  0
 45 48  1  0
 45 47  1  0
 46 44  2  0
 49 50  1  0
 49 24  1  0
 51 49  1  0
 53 52  1  0
 54 55  1  0
 54 53  1  0
 56 67  2  0
 57 55  1  0
 57 62  1  0
 58 66  1  0
 58 68  1  0
 59 65  1  0
 59 61  1  0
 60 66  1  0
 61 62  2  0
 61 60  1  0
 63 64  1  0
 63 57  2  0
 64 59  2  0
 65 58  1  0
 66 56  1  0
 68 70  2  0
 69 68  1  0
 71 69  1  0
 72 81  2  0
 72 77  1  0
 73 69  1  0
 73 77  1  0
 74 73  1  0
 75 76  1  0
 75 74  1  0
 76 72  1  0
 77 78  2  0
 78 79  1  0
 80 79  2  0
 81 80  1  0
 82 56  1  0
 82 87  1  0
 82 83  1  0
 83 86  1  1
 83 84  1  0
 85 83  1  0
 87 90  1  0
 88 92  1  0
 88 87  1  0
 89 88  2  0
 92 91  1  0
 94 92  1  0
 94 95  1  0
 94 93  1  0
M  ISO  4  14 100  22 100  54 101  55 101
M  END
>  <TORSDO>  (66) 
F 20

>  <SCORE>  (66) 
-14.356

>  <name>  (66) 
66

>  <ligand_id>  (66) 
66

>  <original_smiles>  (66) 
[H]c1c([H])c([H])c2c(c1[H])C([H])([H])C([H])([H])C([H])([H])C2([H])N([H])C(=O)C1([H])N(C(=O)C([H])(N([H])C(=O)C([H])(N([H])C([H])([H])[H])C([H])([H])[H])C(C([H])([H])[H])(C([H])([H])[H])C([H])([H])[H])C([H])([H])c2c([H])c(OC([H])([H])C([H])([H])C([H])([H])[N+]([H])=C(c3c([H])c(F)c([H])c(N([H])C(=O)N4C([H])([H])C([H])([H])C([H])([H])C([H])(n5nc(-c6c([H])c([H])c(Oc7c([H])c([H])c(F)c([H])c7F)c([H])c6[H])c(C(=O)N([H])[H])c5N([H])[H])C4([H])[H])c3[H])N([H])[H])c([H])c([H])c2C1([H])[H]

>  <smiles>  (66) 
[H]c1c([H])c([H])c2c(c1[H])C([H])([H])C([H])([H])C([H])([H])C2([H])N([H])C(=O)C1([H])N(C(=O)C([H])(N([H])C(=O)C([H])(N([H])C([H])([H])[H])C([H])([H])[H])C(C([H])([H])[H])(C([H])([H])[H])C([H])([H])[H])C([H])([H])c2c([H])c(OC([H])([H])C([H])([H])C([H])([H])[N+]([H])=C(c3c([H])c(F)c([H])c(N([H])C(=O)N4C([H])([H])C([H])([H])C([H])([H])C([H])(n5nc(-c6c([H])c([H])c(Oc7c([H])c([H])c(F)c([H])c7F)c([H])c6[H])c(C(=O)N([H])[H])c5N([H])[H])C4([H])[H])c3[H])N([H])[H])c([H])c([H])c2C1([H])[H]

$$$$
67:0:0
     RDKit          3D

 98106  0  0  1  0  0  0  0  0999 V2000
  -29.7460  -19.5670   20.5230 C   0  0  0  0  0  3  0  0  0  0  0  0
  -30.9150  -21.2700   19.2260 C   0  0  0  0  0  3  0  0  0  0  0  0
  -30.6460  -18.5460   20.0520 C   0  0  0  0  0  0  0  0  0  0  0  0
  -31.6970  -18.9540   19.1690 C   0  0  0  0  0  0  0  0  0  0  0  0
  -29.8780  -20.9490   20.1260 C   0  0  0  0  0  0  0  0  0  0  0  0
  -31.8000  -20.3020   18.7430 C   0  0  0  0  0  0  0  0  0  0  0  0
  -28.9420  -23.3450   20.3060 C   0  0  0  0  0  0  0  0  0  0  0  0
  -29.0700  -22.0270   20.6820 N   0  0  0  0  0  0  0  0  0  0  0  0
  -29.2480  -23.7600   19.1880 O   0  0  0  0  0  0  0  0  0  0  0  0
  -28.6100  -21.8380   21.5660 H   0  0  0  0  0  0  0  0  0  0  0  0
  -28.1150  -25.5500   21.2970 C   0  0  0  0  0  3  0  0  0  0  0  0
  -28.3510  -24.1990   21.3600 C   0  0  0  0  0  0  0  0  0  0  0  0
  -28.0150  -23.5800   22.5060 O   0  0  0  0  0  0  0  0  0  0  0  0
  -27.6800  -24.2350   23.1060 H   0  0  0  0  0  0  0  0  0  0  0  0
  -28.3130  -26.4970   20.2910 O   0  0  0  0  0  0  0  0  0  0  0  0
  -24.6090  -31.8800   23.2320 C   0  0  0  0  0  0  0  0  0  0  0  0
  -27.2550  -27.3900   20.1780 C   0  0  0  0  0  0  0  0  0  0  0  0
  -23.4160  -30.4790   21.5830 C   0  0  0  0  0  3  0  0  0  0  0  0
  -24.8860  -28.9520   20.1520 C   0  0  0  0  0  0  0  0  0  0  0  0
  -25.9510  -30.8280   21.4080 C   0  0  0  0  0  2  0  0  0  0  0  0
  -26.0440  -29.4590   20.7560 C   0  0  0  0  0  0  0  0  0  0  0  0
  -27.2370  -28.6840   20.7680 C   0  0  0  0  0  3  0  0  0  0  0  0
  -26.0850  -26.9220   19.5500 C   0  0  0  0  0  3  0  0  0  0  0  0
  -24.9040  -27.6870   19.5430 C   0  0  0  0  0  3  0  0  0  0  0  0
  -23.6400  -29.8110   20.1990 C   0  0  0  0  0  2  0  0  0  0  0  0
  -24.6770  -31.0790   22.1310 N   0  0  0  0  0  0  0  0  0  0  0  0
  -23.5240  -32.1480   23.7680 O   0  0  0  0  0  0  0  0  0  0  0  0
  -22.7620  -29.4520   22.5370 C   0  0  0  0  0  0  0  0  0  0  0  0
  -21.4360  -29.2760   22.4200 N   0  0  0  0  0  0  0  0  0  0  0  0
  -23.4490  -28.8190   23.3440 O   0  0  0  0  0  0  0  0  0  0  0  0
  -20.9420  -29.8390   21.7420 H   0  0  0  0  0  0  0  0  0  0  0  0
  -18.0590  -28.0930   22.9360 C   0  0  0  0  0  0  0  0  0  0  0  0
  -20.6220  -28.3350   23.1900 C   0  0  0  0  0  3  0  0  0  0  0  0
  -20.7100  -26.9090   22.6010 C   0  0  0  0  0  2  0  0  0  0  0  0
  -19.5980  -26.6000   21.5940 C   0  0  0  0  0  2  0  0  0  0  0  0
  -18.2220  -26.7480   22.2500 C   0  0  0  0  0  2  0  0  0  0  0  0
  -19.1860  -28.8440   23.3650 C   0  0  0  0  0  0  0  0  0  0  0  0
  -18.9770  -30.1050   23.9680 C   0  0  0  0  0  3  0  0  0  0  0  0
  -17.6760  -30.6110   24.1480 C   0  0  0  0  0  3  0  0  0  0  0  0
  -16.5640  -29.8550   23.7370 C   0  0  0  0  0  3  0  0  0  0  0  0
  -16.7570  -28.5990   23.1350 C   0  0  0  0  0  3  0  0  0  0  0  0
  -25.8890  -32.5200   23.8550 C   0  0  0  0  0  3  0  0  0  0  0  0
  -25.5750  -33.9180   24.1780 N   0  0  0  0  0  0  0  0  0  0  0  0
  -25.9090  -34.9690   23.4160 C   0  0  0  0  0  0  0  0  0  0  0  0
  -26.5810  -34.8620   22.3870 O   0  0  0  0  0  0  0  0  0  0  0  0
  -24.9740  -34.0720   24.9740 H   0  0  0  0  0  0  0  0  0  0  0  0
  -24.1810  -36.7570   23.0450 C   0  0  0  0  0  1  0  0  0  0  0  0
  -25.4170  -36.3580   23.8660 C   0  0  0  0  0  3  0  0  0  0  0  0
  -27.5460  -37.2470   24.7070 C   0  0  0  0  0  1  0  0  0  0  0  0
  -26.4500  -37.4100   23.7550 N   0  0  0  0  0  0  0  0  0  0  0  0
  -26.0440  -38.3320   23.8940 H   0  0  0  0  0  0  0  0  0  0  0  0
  -26.4030  -31.7550   25.1370 C   0  0  1  0  0  0  0  0  0  0  0  0
  -25.3060  -31.5220   26.2000 C   0  0  0  0  0  1  0  0  0  0  0  0
  -26.9920  -30.3760   24.7570 C   0  0  0  0  0  1  0  0  0  0  0  0
  -27.5500  -32.5540   25.7990 C   0  0  0  0  0  1  0  0  0  0  0  0
  -32.8020  -20.7370   17.8720 N   0  0  0  0  0  0  0  0  0  0  0  0
  -32.8470  -21.7060   17.5710 H   0  0  0  0  0  0  0  0  0  0  0  0
  -33.3100  -20.0880   17.2810 H   0  0  0  0  0  0  0  0  0  0  0  0
  -30.7430  -17.1050   20.5240 C   0  0  0  0  0  2  0  0  0  0  0  0
  -30.0390  -15.9670   20.2260 C   0  0  0  0  0  2  0  0  0  0  0  0
  -30.7060  -14.6430   20.3810 C   0  0  0  0  0  0  0  0  0  0  0  0
  -30.3460  -12.4140   19.3690 C   0  0  0  0  0  2  0  0  0  0  0  0
  -29.4480  -12.5590   18.1230 C   0  0  0  0  0  2  0  0  0  0  0  0
  -27.9690  -12.4220   18.5340 C   0  0  0  0  0  2  0  0  0  0  0  0
  -27.5960  -13.3100   19.7530 C   0  0  0  0  0  3  0  0  0  0  0  0
  -28.6450  -13.2420   20.8810 C   0  0  0  0  0  2  0  0  0  0  0  0
  -29.9660  -13.4930   20.3010 N   0  0  0  0  0  0  0  0  0  0  0  0
  -31.9240  -14.5920   20.2060 O   0  0  0  0  0  0  0  0  0  0  0  0
  -25.2090  -13.8970   20.4870 C   0  0  0  0  0  0  0  0  0  0  0  0
  -24.1420  -13.1230   20.8520 C   0  0  0  0  0  0  0  0  0  0  0  0
  -24.6060  -11.7740   20.8290 C   0  0  0  0  0  0  0  0  0  0  0  0
  -26.2540  -13.0190   20.2490 N   0  0  0  0  0  0  0  0  0  0  0  0
  -25.8990  -11.7350   20.5250 N   0  0  0  0  0  0  0  0  0  0  0  0
  -23.8740  -10.5120   21.0190 C   0  0  0  0  0  0  0  0  0  0  0  0
  -24.2900   -9.5510   21.9670 C   0  0  0  0  0  3  0  0  0  0  0  0
  -23.5590   -8.3560   22.1460 C   0  0  0  0  0  3  0  0  0  0  0  0
  -22.3990   -8.1120   21.3740 C   0  0  0  0  0  0  0  0  0  0  0  0
  -22.0000   -9.0610   20.4180 C   0  0  0  0  0  3  0  0  0  0  0  0
  -22.7320  -10.2470   20.2380 C   0  0  0  0  0  3  0  0  0  0  0  0
  -21.6430   -6.9690   21.4610 O   0  0  0  0  0  0  0  0  0  0  0  0
  -21.5690   -6.2370   22.6200 C   0  0  0  0  0  0  0  0  0  0  0  0
  -21.1160   -6.8050   23.8300 C   0  0  0  0  0  3  0  0  0  0  0  0
  -20.9900   -6.0010   24.9800 C   0  0  0  0  0  3  0  0  0  0  0  0
  -21.3110   -4.6310   24.9210 C   0  0  0  0  0  0  0  0  0  0  0  0
  -21.7590   -4.0640   23.7150 C   0  0  0  0  0  3  0  0  0  0  0  0
  -21.8860   -4.8650   22.5670 C   0  0  0  0  0  0  0  0  0  0  0  0
  -22.2970   -4.3090   21.4030 F   0  0  0  0  0  0  0  0  0  0  0  0
  -21.1830   -3.8560   26.0240 F   0  0  0  0  0  0  0  0  0  0  0  0
  -22.7440  -13.6040   21.1080 C   0  0  0  0  0  0  0  0  0  0  0  0
  -22.0040  -12.9120   21.9670 N   0  0  0  0  0  0  0  0  0  0  0  0
  -22.3130  -14.6290   20.5820 O   0  0  0  0  0  0  0  0  0  0  0  0
  -22.3670  -12.0850   22.4190 H   0  0  0  0  0  0  0  0  0  0  0  0
  -21.0650  -13.2160   22.1770 H   0  0  0  0  0  0  0  0  0  0  0  0
  -25.3690  -15.2680   20.3140 N   0  0  0  0  0  0  0  0  0  0  0  0
  -24.5920  -15.9120   20.4250 H   0  0  0  0  0  0  0  0  0  0  0  0
  -26.2250  -15.7230   20.0250 H   0  0  0  0  0  0  0  0  0  0  0  0
  -32.3460  -17.1780   17.4380 C   0  0  0  0  0  1  0  0  0  0  0  0
  -32.7670  -17.9570   18.6930 C   0  0  0  0  0  2  0  0  0  0  0  0
  2  5  2  0
  3  1  2  0
  3 59  1  0
  4  3  1  0
  5  1  1  0
  5  8  1  0
  6  4  2  0
  6  2  1  0
  7  8  1  0
  7 12  1  0
  8 10  1  0
  9  7  2  0
 11 12  2  0
 12 13  1  0
 13 14  1  0
 15 11  1  0
 16 27  2  0
 17 15  1  0
 17 22  1  0
 18 26  1  0
 18 28  1  0
 19 25  1  0
 19 21  1  0
 20 26  1  0
 21 22  2  0
 21 20  1  0
 23 17  2  0
 24 23  1  0
 24 19  2  0
 25 18  1  0
 26 16  1  0
 28 30  2  0
 29 28  1  0
 31 29  1  0
 32 41  2  0
 32 37  1  0
 33 29  1  0
 33 37  1  0
 34 33  1  0
 35 36  1  0
 35 34  1  0
 36 32  1  0
 37 38  2  0
 38 39  1  0
 40 39  2  0
 41 40  1  0
 42 16  1  0
 42 43  1  0
 42 52  1  0
 43 46  1  0
 44 48  1  0
 44 43  1  0
 45 44  2  0
 48 47  1  0
 50 48  1  0
 50 51  1  0
 50 49  1  0
 52 55  1  1
 52 53  1  0
 54 52  1  0
 56  6  1  0
 57 56  1  0
 58 56  1  0
 60 61  1  0
 60 59  1  0
 62 67  1  0
 63 64  1  0
 63 62  1  0
 65 64  1  0
 65 72  1  0
 65 66  1  0
 67 61  1  0
 67 66  1  0
 68 61  2  0
 69 70  2  0
 70 89  1  0
 71 70  1  0
 71 74  1  0
 72 69  1  0
 72 73  1  0
 73 71  2  0
 74 75  1  0
 75 76  2  0
 77 80  1  0
 77 76  1  0
 78 77  2  0
 79 78  1  0
 79 74  2  0
 80 81  1  0
 81 82  1  0
 82 83  2  0
 84 83  1  0
 84 88  1  0
 85 84  2  0
 86 81  2  0
 86 85  1  0
 87 86  1  0
 89 90  1  0
 90 93  1  0
 90 92  1  0
 91 89  2  0
 94 95  1  0
 94 69  1  0
 96 94  1  0
 97 98  1  0
 98  4  1  0
M  ISO  4  11 101  15 101  60 100  61 100
M  END
>  <TORSDO>  (67) 
F 22

>  <SCORE>  (67) 
-13.658

>  <name>  (67) 
67

>  <ligand_id>  (67) 
67

>  <original_smiles>  (67) 
[H]OC(C(=O)N([H])c1c([H])c(C([H])=C([H])C(=O)N2C([H])([H])C([H])([H])C([H])([H])C([H])(n3nc(-c4c([H])c([H])c(Oc5c([H])c([H])c(F)c([H])c5F)c([H])c4[H])c(C(=O)N([H])[H])c3N([H])[H])C2([H])[H])c(C([H])([H])C([H])([H])[H])c(N([H])[H])c1[H])=C([H])Oc1c([H])c([H])c2c(c1[H])C([H])([H])N(C(=O)C([H])(N([H])C(=O)C([H])(N([H])C([H])([H])[H])C([H])([H])[H])C(C([H])([H])[H])(C([H])([H])[H])C([H])([H])[H])C([H])(C(=O)N([H])C1([H])c3c([H])c([H])c([H])c([H])c3C([H])([H])C([H])([H])C1([H])[H])C2([H])[H]

>  <smiles>  (67) 
[H]OC(C(=O)N([H])c1c([H])c(C([H])=C([H])C(=O)N2C([H])([H])C([H])([H])C([H])([H])C([H])(n3nc(-c4c([H])c([H])c(Oc5c([H])c([H])c(F)c([H])c5F)c([H])c4[H])c(C(=O)N([H])[H])c3N([H])[H])C2([H])[H])c(C([H])([H])C([H])([H])[H])c(N([H])[H])c1[H])=C([H])Oc1c([H])c([H])c2c(c1[H])C([H])([H])N(C(=O)C([H])(N([H])C(=O)C([H])(N([H])C([H])([H])[H])C([H])([H])[H])C(C([H])([H])[H])(C([H])([H])[H])C([H])([H])[H])C([H])(C(=O)N([H])C1([H])c3c([H])c([H])c([H])c([H])c3C([H])([H])C([H])([H])C1([H])[H])C2([H])[H]

$$$$
68:0:0
     RDKit          3D

 98106  0  0  1  0  0  0  0  0999 V2000
  -29.4440  -20.8010   21.1180 C   0  0  0  0  0  0  0  0  0  0  0  0
  -29.6690  -22.0630   20.6700 N   0  0  0  0  0  0  0  0  0  0  0  0
  -28.4430  -20.6130   21.9780 N   0  0  0  0  0  4  0  0  0  0  0  0
  -30.3420  -22.1840   19.9220 H   0  0  0  0  0  0  0  0  0  0  0  0
  -28.3290  -19.7090   22.4090 H   0  0  0  0  0  0  0  0  0  0  0  0
  -27.8460  -21.3700   22.2640 H   0  0  0  0  0  0  0  0  0  0  0  0
  -31.7030  -19.8990   20.8110 C   0  0  0  0  0  3  0  0  0  0  0  0
  -32.1810  -17.5230   20.5930 C   0  0  0  0  0  3  0  0  0  0  0  0
  -30.3150  -19.6430   20.8020 C   0  0  0  0  0  0  0  0  0  0  0  0
  -29.8560  -18.2910   20.6280 C   0  0  0  0  0  0  0  0  0  0  0  0
  -30.7980  -17.2160   20.5450 C   0  0  0  0  0  0  0  0  0  0  0  0
  -32.6270  -18.8510   20.7030 C   0  0  0  0  0  0  0  0  0  0  0  0
  -28.3680  -17.9610   20.5140 C   0  0  0  0  0  1  0  0  0  0  0  0
  -33.9550  -19.1180   20.7430 F   0  0  0  0  0  0  0  0  0  0  0  0
  -31.0010  -14.7760   19.9660 C   0  0  0  0  0  0  0  0  0  0  0  0
  -30.6740  -12.5360   18.9810 C   0  0  0  0  0  2  0  0  0  0  0  0
  -29.6870  -12.6300   17.8000 C   0  0  0  0  0  2  0  0  0  0  0  0
  -28.2350  -12.4940   18.2940 C   0  0  0  0  0  2  0  0  0  0  0  0
  -27.9240  -13.4150   19.5040 C   0  0  0  0  0  3  0  0  0  0  0  0
  -29.0260  -13.3170   20.5840 C   0  0  0  0  0  2  0  0  0  0  0  0
  -30.3210  -13.5960   19.9420 N   0  0  0  0  0  0  0  0  0  0  0  0
  -32.0990  -14.9040   19.4210 O   0  0  0  0  0  0  0  0  0  0  0  0
  -30.3470  -15.8440   20.4800 N   0  0  0  0  0  0  0  0  0  0  0  0
  -29.4030  -15.6640   20.7820 H   0  0  0  0  0  0  0  0  0  0  0  0
  -25.5800  -14.0310   20.3690 C   0  0  0  0  0  0  0  0  0  0  0  0
  -24.5220  -13.2630   20.7740 C   0  0  0  0  0  0  0  0  0  0  0  0
  -24.9580  -11.9060   20.6770 C   0  0  0  0  0  0  0  0  0  0  0  0
  -26.5970  -13.1430   20.0530 N   0  0  0  0  0  0  0  0  0  0  0  0
  -26.2290  -11.8590   20.2960 N   0  0  0  0  0  0  0  0  0  0  0  0
  -24.2220  -10.6500   20.8690 C   0  0  0  0  0  0  0  0  0  0  0  0
  -24.6060   -9.7130   21.8540 C   0  0  0  0  0  3  0  0  0  0  0  0
  -23.8700   -8.5210   22.0320 C   0  0  0  0  0  3  0  0  0  0  0  0
  -22.7370   -8.2580   21.2260 C   0  0  0  0  0  0  0  0  0  0  0  0
  -22.3740   -9.1840   20.2320 C   0  0  0  0  0  3  0  0  0  0  0  0
  -23.1100  -10.3660   20.0520 C   0  0  0  0  0  3  0  0  0  0  0  0
  -21.9790   -7.1160   21.3110 O   0  0  0  0  0  0  0  0  0  0  0  0
  -21.7610   -6.4830   22.5100 C   0  0  0  0  0  0  0  0  0  0  0  0
  -21.1270   -7.1340   23.5900 C   0  0  0  0  0  3  0  0  0  0  0  0
  -20.8600   -6.4260   24.7790 C   0  0  0  0  0  3  0  0  0  0  0  0
  -21.2180   -5.0680   24.8860 C   0  0  0  0  0  0  0  0  0  0  0  0
  -21.8440   -4.4170   23.8090 C   0  0  0  0  0  3  0  0  0  0  0  0
  -22.1120   -5.1230   22.6230 C   0  0  0  0  0  0  0  0  0  0  0  0
  -22.6970   -4.4860   21.5800 F   0  0  0  0  0  0  0  0  0  0  0  0
  -20.9550   -4.3860   26.0250 F   0  0  0  0  0  0  0  0  0  0  0  0
  -23.1500  -13.7540   21.1390 C   0  0  0  0  0  0  0  0  0  0  0  0
  -22.4650  -13.0490   22.0340 N   0  0  0  0  0  0  0  0  0  0  0  0
  -22.6970  -14.7940   20.6650 O   0  0  0  0  0  0  0  0  0  0  0  0
  -22.8460  -12.2070   22.4390 H   0  0  0  0  0  0  0  0  0  0  0  0
  -21.5470  -13.3580   22.3190 H   0  0  0  0  0  0  0  0  0  0  0  0
  -25.7560  -15.4040   20.2190 N   0  0  0  0  0  0  0  0  0  0  0  0
  -24.9990  -16.0610   20.3760 H   0  0  0  0  0  0  0  0  0  0  0  0
  -26.5730  -15.8330   19.8070 H   0  0  0  0  0  0  0  0  0  0  0  0
  -29.7130  -23.7030   22.5420 C   0  0  0  0  0  1  0  0  0  0  0  0
  -29.0430  -23.3150   21.2040 C   0  0  0  0  0  3  0  0  0  0  0  0
  -29.1120  -24.5240   20.2230 C   0  0  0  0  0  0  0  0  0  0  0  0
  -29.9050  -24.5690   19.2770 O   0  0  0  0  0  0  0  0  0  0  0  0
  -28.1100  -25.6740   20.5050 C   0  0  0  0  0  2  0  0  0  0  0  0
  -28.3400  -26.9110   19.7820 O   0  0  0  0  0  0  0  0  0  0  0  0
  -24.6460  -31.9510   23.2360 C   0  0  0  0  0  0  0  0  0  0  0  0
  -27.2130  -27.7100   19.8110 C   0  0  0  0  0  0  0  0  0  0  0  0
  -23.3920  -30.6140   21.5780 C   0  0  0  0  0  3  0  0  0  0  0  0
  -24.8060  -29.1900   20.0010 C   0  0  0  0  0  0  0  0  0  0  0  0
  -25.9020  -31.0290   21.2870 C   0  0  0  0  0  2  0  0  0  0  0  0
  -25.9840  -29.6960   20.5660 C   0  0  0  0  0  0  0  0  0  0  0  0
  -27.1940  -28.9650   20.4680 C   0  0  0  0  0  3  0  0  0  0  0  0
  -26.0220  -27.2380   19.2170 C   0  0  0  0  0  3  0  0  0  0  0  0
  -24.8220  -27.9610   19.3210 C   0  0  0  0  0  3  0  0  0  0  0  0
  -23.5500  -30.0160   20.1540 C   0  0  0  0  0  2  0  0  0  0  0  0
  -24.6680  -31.2090   22.0910 N   0  0  0  0  0  0  0  0  0  0  0  0
  -23.5860  -32.1720   23.8360 O   0  0  0  0  0  0  0  0  0  0  0  0
  -22.8030  -29.5290   22.5090 C   0  0  0  0  0  0  0  0  0  0  0  0
  -21.4840  -29.2970   22.4000 N   0  0  0  0  0  0  0  0  0  0  0  0
  -23.5270  -28.9030   23.2870 O   0  0  0  0  0  0  0  0  0  0  0  0
  -20.9570  -29.8590   21.7470 H   0  0  0  0  0  0  0  0  0  0  0  0
  -18.1810  -27.9100   22.8780 C   0  0  0  0  0  0  0  0  0  0  0  0
  -20.7220  -28.2980   23.1500 C   0  0  0  0  0  3  0  0  0  0  0  0
  -20.8990  -26.8890   22.5360 C   0  0  0  0  0  2  0  0  0  0  0  0
  -19.8120  -26.5330   21.5180 C   0  0  0  0  0  2  0  0  0  0  0  0
  -18.4270  -26.5880   22.1680 C   0  0  0  0  0  2  0  0  0  0  0  0
  -19.2580  -28.7200   23.3240 C   0  0  0  0  0  0  0  0  0  0  0  0
  -18.9750  -29.9540   23.9470 C   0  0  0  0  0  3  0  0  0  0  0  0
  -17.6460  -30.3810   24.1280 C   0  0  0  0  0  3  0  0  0  0  0  0
  -16.5830  -29.5680   23.6980 C   0  0  0  0  0  3  0  0  0  0  0  0
  -16.8510  -28.3340   23.0790 C   0  0  0  0  0  3  0  0  0  0  0  0
  -25.9480  -32.5740   23.8300 C   0  0  0  0  0  3  0  0  0  0  0  0
  -26.4930  -31.7940   25.0900 C   0  0  1  0  0  0  0  0  0  0  0  0
  -25.4190  -31.5360   26.1730 C   0  0  0  0  0  1  0  0  0  0  0  0
  -27.0820  -30.4260   24.6730 C   0  0  0  0  0  1  0  0  0  0  0  0
  -27.6470  -32.5910   25.7410 C   0  0  0  0  0  1  0  0  0  0  0  0
  -25.6520  -33.9710   24.1720 N   0  0  0  0  0  0  0  0  0  0  0  0
  -25.9790  -35.0250   23.4140 C   0  0  0  0  0  0  0  0  0  0  0  0
  -26.6330  -34.9240   22.3710 O   0  0  0  0  0  0  0  0  0  0  0  0
  -25.0700  -34.1260   24.9830 H   0  0  0  0  0  0  0  0  0  0  0  0
  -24.2510  -36.8250   23.0960 C   0  0  0  0  0  1  0  0  0  0  0  0
  -25.5050  -36.4140   23.8840 C   0  0  0  0  0  3  0  0  0  0  0  0
  -27.6560  -37.2870   24.6820 C   0  0  0  0  0  1  0  0  0  0  0  0
  -26.5380  -37.4640   23.7590 N   0  0  0  0  0  0  0  0  0  0  0  0
  -26.1380  -38.3850   23.9190 H   0  0  0  0  0  0  0  0  0  0  0  0
  1  3  2  0
  2  1  1  0
  2 54  1  0
  3  6  1  0
  3  5  1  0
  4  2  1  0
  8 12  1  0
  9  7  1  0
  9  1  1  0
 10  9  2  0
 11  8  2  0
 11 10  1  0
 12 14  1  0
 12  7  2  0
 13 10  1  0
 15 23  1  0
 16 21  1  0
 17 18  1  0
 17 16  1  0
 19 18  1  0
 19 28  1  0
 19 20  1  0
 21 15  1  0
 21 20  1  0
 22 15  2  0
 23 11  1  0
 23 24  1  0
 25 26  2  0
 26 45  1  0
 27 26  1  0
 27 30  1  0
 28 29  1  0
 28 25  1  0
 29 27  2  0
 30 31  1  0
 31 32  2  0
 33 36  1  0
 33 32  1  0
 34 33  2  0
 35 34  1  0
 35 30  2  0
 36 37  1  0
 37 42  2  0
 37 38  1  0
 38 39  2  0
 39 40  1  0
 40 44  1  0
 41 40  2  0
 42 41  1  0
 43 42  1  0
 45 46  1  0
 46 49  1  0
 46 48  1  0
 47 45  2  0
 50 25  1  0
 50 51  1  0
 52 50  1  0
 54 53  1  0
 55 57  1  0
 55 54  1  0
 56 55  2  0
 58 60  1  0
 58 57  1  0
 59 70  2  0
 60 65  1  0
 61 69  1  0
 61 71  1  0
 62 68  1  0
 62 64  1  0
 63 69  1  0
 64 63  1  0
 65 64  2  0
 66 67  1  0
 66 60  2  0
 67 62  2  0
 68 61  1  0
 69 59  1  0
 71 73  2  0
 72 71  1  0
 74 72  1  0
 75 84  2  0
 75 80  1  0
 76 72  1  0
 76 80  1  0
 77 76  1  0
 78 79  1  0
 78 77  1  0
 79 75  1  0
 80 81  2  0
 81 82  1  0
 83 82  2  0
 84 83  1  0
 85 59  1  0
 85 90  1  0
 85 86  1  0
 86 89  1  1
 86 87  1  0
 88 86  1  0
 90 93  1  0
 91 95  1  0
 91 90  1  0
 92 91  2  0
 95 94  1  0
 97 95  1  0
 97 98  1  0
 97 96  1  0
M  ISO  4  15 100  23 100  57 101  58 101
M  END
>  <TORSDO>  (68) 
F 20

>  <SCORE>  (68) 
-13.172

>  <name>  (68) 
68

>  <ligand_id>  (68) 
68

>  <original_smiles>  (68) 
[H]c1c([H])c([H])c2c(c1[H])C([H])([H])C([H])([H])C([H])([H])C2([H])N([H])C(=O)C1([H])N(C(=O)C([H])(N([H])C(=O)C([H])(N([H])C([H])([H])[H])C([H])([H])[H])C(C([H])([H])[H])(C([H])([H])[H])C([H])([H])[H])C([H])([H])c2c([H])c(OC([H])([H])C(=O)C([H])(N([H])C(c3c([H])c(F)c([H])c(N([H])C(=O)N4C([H])([H])C([H])([H])C([H])([H])C([H])(n5nc(-c6c([H])c([H])c(Oc7c([H])c([H])c(F)c([H])c7F)c([H])c6[H])c(C(=O)N([H])[H])c5N([H])[H])C4([H])[H])c3C([H])([H])[H])=[N+]([H])[H])C([H])([H])[H])c([H])c([H])c2C1([H])[H]

>  <smiles>  (68) 
[H]c1c([H])c([H])c2c(c1[H])C([H])([H])C([H])([H])C([H])([H])C2([H])N([H])C(=O)C1([H])N(C(=O)C([H])(N([H])C(=O)C([H])(N([H])C([H])([H])[H])C([H])([H])[H])C(C([H])([H])[H])(C([H])([H])[H])C([H])([H])[H])C([H])([H])c2c([H])c(OC([H])([H])C(=O)C([H])(N([H])C(c3c([H])c(F)c([H])c(N([H])C(=O)N4C([H])([H])C([H])([H])C([H])([H])C([H])(n5nc(-c6c([H])c([H])c(Oc7c([H])c([H])c(F)c([H])c7F)c([H])c6[H])c(C(=O)N([H])[H])c5N([H])[H])C4([H])[H])c3C([H])([H])[H])=[N+]([H])[H])C([H])([H])[H])c([H])c([H])c2C1([H])[H]

$$$$
69:0:0
     RDKit          3D

 95 95  0  0  1  0  0  0  0  0999 V2000
  -25.9830  -12.6570   20.3840 C   0  0  0  0  0 15  0  0  0  0  0  0
  -27.3580  -16.4660   18.4370 C   0  0  0  0  0  1  0  0  0  0  0  0
  -28.3160  -14.5320   18.0360 C   0  0  0  0  0  1  0  0  0  0  0  0
  -25.0750  -14.6720   20.8500 C   0  0  0  0  0  1  0  0  0  0  0  0
  -27.5420  -12.6680   18.7440 N   0  0  0  0  0 15  0  0  0  0  0  0
  -25.7140  -16.4640   19.8160 N   0  0  0  0  0 15  0  0  0  0  0  0
  -29.8650  -18.1020   17.5010 C   0  0  0  0  0  3  0  0  0  0  0  0
  -30.5210  -19.5160   16.8930 C   0  0  0  0  0  3  0  0  0  0  0  0
  -28.2620  -19.5620   16.7400 C   0  0  0  0  0  2  0  0  0  0  0  0
  -28.3060  -18.0400   17.8060 C   0  0  0  0  0  3  0  0  0  0  0  0
  -29.6290  -20.8240   16.5620 C   0  0  0  0  0  2  0  0  0  0  0  0
  -30.4780  -22.2430   15.3850 C   0  0  0  0  0  1  0  0  0  0  0  0
  -31.3810  -22.7830   13.8890 O   0  0  0  0  0  0  0  0  0  0  0  0
  -38.0480  -19.0130   12.5180 C   0  0  0  0  0  0  0  0  0  0  0  0
  -32.4660  -22.0990   13.0010 C   0  0  0  0  0  0  0  0  0  0  0  0
  -37.3860  -21.0490   11.3310 C   0  0  0  0  0  3  0  0  0  0  0  0
  -34.8630  -21.6360   11.2560 C   0  0  0  0  0  0  0  0  0  0  0  0
  -35.5380  -19.4000   12.0710 C   0  0  0  0  0  2  0  0  0  0  0  0
  -34.5010  -20.5970   12.1210 C   0  0  0  0  0  0  0  0  0  0  0  0
  -33.2830  -20.8090   12.9650 C   0  0  0  0  0  3  0  0  0  0  0  0
  -32.8440  -22.8980   11.9190 C   0  0  0  0  0  3  0  0  0  0  0  0
  -33.9930  -22.7210   11.1180 C   0  0  0  0  0  3  0  0  0  0  0  0
  -36.1930  -21.5960   10.5030 C   0  0  0  0  0  2  0  0  0  0  0  0
  -37.0150  -19.7660   12.0050 N   0  0  0  0  0  0  0  0  0  0  0  0
  -39.2300  -19.3960   12.4590 O   0  0  0  0  0  0  0  0  0  0  0  0
  -37.8880  -22.1240   12.3340 C   0  0  0  0  0  0  0  0  0  0  0  0
  -38.2380  -21.7200   13.5700 N   0  0  0  0  0  0  0  0  0  0  0  0
  -37.9650  -23.3050   11.9850 O   0  0  0  0  0  0  0  0  0  0  0  0
  -38.1350  -20.7410   13.7970 H   0  0  0  0  0  0  0  0  0  0  0  0
  -37.3630  -24.0700   16.1950 C   0  0  0  0  0  0  0  0  0  0  0  0
  -38.7830  -22.5790   14.6280 C   0  0  0  0  0  3  0  0  0  0  0  0
  -39.1210  -21.7570   15.8930 C   0  0  0  0  0  2  0  0  0  0  0  0
  -37.9770  -21.7230   16.9130 C   0  0  0  0  0  2  0  0  0  0  0  0
  -37.6230  -23.1410   17.3700 C   0  0  0  0  0  2  0  0  0  0  0  0
  -37.8940  -23.7990   14.9060 C   0  0  0  0  0  0  0  0  0  0  0  0
  -37.5980  -24.6830   13.8460 C   0  0  0  0  0  3  0  0  0  0  0  0
  -36.7880  -25.8150   14.0560 C   0  0  0  0  0  3  0  0  0  0  0  0
  -36.2740  -26.0840   15.3370 C   0  0  0  0  0  3  0  0  0  0  0  0
  -36.5660  -25.2160   16.4030 C   0  0  0  0  0  3  0  0  0  0  0  0
  -37.8020  -17.6300   13.1880 C   0  0  0  0  0  3  0  0  0  0  0  0
  -38.6600  -17.4180   14.4970 C   0  0  1  0  0  0  0  0  0  0  0  0
  -40.1650  -17.7300   14.3170 C   0  0  0  0  0  1  0  0  0  0  0  0
  -38.1430  -18.3000   15.6550 C   0  0  0  0  0  1  0  0  0  0  0  0
  -38.5280  -15.9530   14.9760 C   0  0  0  0  0  1  0  0  0  0  0  0
  -38.1330  -16.5800   12.2030 N   0  0  0  0  0  0  0  0  0  0  0  0
  -37.2450  -15.8290   11.5380 C   0  0  0  0  0  0  0  0  0  0  0  0
  -36.0300  -15.9160   11.7310 O   0  0  0  0  0  0  0  0  0  0  0  0
  -39.1080  -16.4940   11.9540 H   0  0  0  0  0  0  0  0  0  0  0  0
  -37.3130  -15.2280    9.0900 C   0  0  0  0  0  1  0  0  0  0  0  0
  -37.7850  -14.8240   10.4960 C   0  0  0  0  0  3  0  0  0  0  0  0
  -38.0640  -12.8410   11.9210 C   0  0  0  0  0  1  0  0  0  0  0  0
  -37.3900  -13.4230   10.7620 N   0  0  0  0  0  0  0  0  0  0  0  0
  -37.5870  -12.8340    9.9560 H   0  0  0  0  0  0  0  0  0  0  0  0
  -23.0060  -15.7390   21.4220 C   0  0  0  0  0  1  0  0  0  0  0  0
  -24.0560  -14.8060   21.7990 N   0  0  0  0  0  0  0  0  0  0  0  0
  -23.7380  -13.9260   22.1920 H   0  0  0  0  0  0  0  0  0  0  0  0
  -29.8290  -14.6890   18.7830 C   0  0  0  0  0  2  0  0  0  0  0  0
  -32.6710  -14.1960   18.1840 C   0  0  0  0  0  0  0  0  0  0  0  0
  -33.5770  -12.8550   20.0630 C   0  0  0  0  0  2  0  0  0  0  0  0
  -32.3410  -12.5320   20.9250 C   0  0  0  0  0  2  0  0  0  0  0  0
  -32.0910  -13.7780   21.7810 C   0  0  0  0  0  2  0  0  0  0  0  0
  -32.1610  -15.0450   20.8050 C   0  0  0  0  0  2  0  0  0  0  0  0
  -33.4800  -15.2500   20.2110 C   0  0  0  0  0  2  0  0  0  0  0  0
  -33.3660  -14.1360   19.3540 N   0  0  0  0  0  0  0  0  0  0  0  0
  -33.3010  -13.6750   17.2570 O   0  0  0  0  0  0  0  0  0  0  0  0
  -31.3180  -14.7410   18.0810 N   0  0  0  0  0  0  0  0  0  0  0  0
  -31.1740  -14.9280   17.0990 H   0  0  0  0  0  0  0  0  0  0  0  0
  -30.8580  -18.1230   21.1700 C   0  0  0  0  0  1  0  0  0  0  0  0
  -31.4140  -19.5360   21.1620 C   0  0  0  0  0  3  0  0  0  0  0  0
  -32.4010  -19.2450   21.9720 C   0  0  0  0  0  3  0  0  0  0  0  0
  -31.1090  -16.6760   20.5520 N   0  0  0  0  0  1  0  0  0  0  0  0
  -31.3020  -18.4010   21.4120 N   0  0  0  0  0  0  0  0  0  0  0  0
  -33.9350  -19.7090   21.9080 C   0  0  0  0  0  0  0  0  0  0  0  0
  -35.0500  -19.5930   20.9760 C   0  0  0  0  0  3  0  0  0  0  0  0
  -36.3130  -20.2690   21.1700 C   0  0  0  0  0  3  0  0  0  0  0  0
  -36.5010  -21.1350   22.2800 C   0  0  0  0  0  0  0  0  0  0  0  0
  -35.4380  -21.2330   23.1860 C   0  0  0  0  0  3  0  0  0  0  0  0
  -34.2260  -20.5380   23.0080 C   0  0  0  0  0  3  0  0  0  0  0  0
  -37.6380  -21.8530   22.6210 O   0  0  0  0  0  0  0  0  0  0  0  0
  -38.2610  -22.7760   21.8120 C   0  0  0  0  0  0  0  0  0  0  0  0
  -37.5540  -23.7920   21.1330 C   0  0  0  0  0  3  0  0  0  0  0  0
  -38.2510  -24.7500   20.3650 C   0  0  0  0  0  3  0  0  0  0  0  0
  -39.6560  -24.7030   20.2780 C   0  0  0  0  0  0  0  0  0  0  0  0
  -40.3670  -23.7120   20.9750 C   0  0  0  0  0  3  0  0  0  0  0  0
  -39.6740  -22.7610   21.7470 C   0  0  0  0  0  0  0  0  0  0  0  0
  -40.3750  -21.8300   22.4400 F   0  0  0  0  0  0  0  0  0  0  0  0
  -40.3250  -25.6120   19.5290 F   0  0  0  0  0  0  0  0  0  0  0  0
  -30.8700  -20.9080   21.3900 C   0  0  0  0  0  0  0  0  0  0  0  0
  -31.7290  -21.8770   21.0900 N   0  0  0  0  0  0  0  0  0  0  0  0
  -29.7610  -21.0640   21.8730 O   0  0  0  0  0  0  0  0  0  0  0  0
  -32.6300  -21.6660   20.6870 H   0  0  0  0  0  0  0  0  0  0  0  0
  -31.4660  -22.8420   21.2280 H   0  0  0  0  0  0  0  0  0  0  0  0
  -30.7230  -16.5550   20.2010 N   0  0  0  0  0  0  0  0  0  0  0  0
  -30.2750  -17.1390   19.4680 H   0  0  0  0  0  0  0  0  0  0  0  0
  -30.0310  -15.8940   20.5190 H   0  0  0  0  0  0  0  0  0  0  0  0
  3 57  1  0
  4 55  1  0
  7 10  1  0
  8  7  2  0
  9 10  1  0
 10  2  1  0
 11  9  1  0
 11  8  1  0
 13 12  1  0
 15 13  1  0
 16 24  1  0
 16 26  1  0
 17 19  1  0
 18 19  1  0
 19 20  2  0
 20 15  1  0
 21 15  2  0
 22 17  2  0
 22 21  1  0
 23 17  1  0
 23 16  1  0
 24 18  1  0
 24 14  1  0
 25 14  2  0
 26 27  1  0
 27 29  1  0
 28 26  2  0
 30 39  1  0
 30 34  1  0
 31 27  1  0
 31 35  1  0
 31 32  1  0
 32 33  1  0
 33 34  1  0
 35 30  2  0
 36 37  2  0
 36 35  1  0
 37 38  1  0
 38 39  2  0
 40 14  1  0
 40 41  1  0
 41 44  1  1
 41 43  1  0
 42 41  1  0
 45 40  1  0
 46 47  2  0
 46 45  1  0
 48 45  1  0
 50 49  1  0
 50 52  1  0
 50 46  1  0
 52 51  1  0
 53 52  1  0
 54 55  1  0
 55 56  1  0
 58 64  1  0
 59 60  1  0
 60 61  1  0
 62 61  1  0
 63 62  1  0
 64 59  1  0
 64 63  1  0
 65 58  2  0
 66 58  1  0
 66 57  1  0
 67 66  1  0
 68 72  1  0
 69 88  1  0
 69 72  1  0
 69 70  1  0
 70 73  1  0
 72 70  1  0
 73 78  1  0
 74 75  1  0
 74 73  2  0
 75 76  2  0
 76 79  1  0
 76 77  1  0
 78 77  2  0
 80 79  1  0
 81 80  2  0
 82 81  1  0
 83 82  2  0
 83 84  1  0
 84 85  2  0
 85 80  1  0
 85 86  1  0
 87 83  1  0
 88 90  2  0
 89 92  1  0
 89 88  1  0
 91 89  1  0
 93 95  1  0
 93 71  1  0
 94 93  1  0
M  ISO  4  12 101  13 101  58 100  66 100
M  END
>  <TORSDO>  (69) 
F 20

>  <SCORE>  (69) 
2.459

>  <name>  (69) 
69

>  <ligand_id>  (69) 
69

>  <original_smiles>  (69) 
[H]c1nc(C([H])([H])N([H])C(=O)N2C([H])([H])C([H])([H])C([H])([H])C([H])(n3nc(-c4c([H])c([H])c(Oc5c([H])c([H])c(F)c([H])c5F)c([H])c4[H])c(C(=O)N([H])[H])c3N([H])[H])C2([H])[H])c(C2([H])C([H])([H])C([H])([H])C([H])(C([H])([H])Oc3c([H])c([H])c4c(c3[H])C([H])([H])N(C(=O)C([H])(N([H])C(=O)C([H])(N([H])C([H])([H])[H])C([H])([H])[H])C(C([H])([H])[H])(C([H])([H])[H])C([H])([H])[H])C([H])(C(=O)N([H])C3([H])c5c([H])c([H])c([H])c([H])c5C([H])([H])C([H])([H])C3([H])[H])C4([H])[H])C2([H])[H])nc1N([H])C([H])([H])[H]

>  <smiles>  (69) 
[H]c1nc(C([H])([H])N([H])C(=O)N2C([H])([H])C([H])([H])C([H])([H])C([H])(n3nc(-c4c([H])c([H])c(Oc5c([H])c([H])c(F)c([H])c5F)c([H])c4[H])c(C(=O)N([H])[H])c3N([H])[H])C2([H])[H])c(C2([H])C([H])([H])C([H])([H])C([H])(C([H])([H])Oc3c([H])c([H])c4c(c3[H])C([H])([H])N(C(=O)C([H])(N([H])C(=O)C([H])(N([H])C([H])([H])[H])C([H])([H])[H])C(C([H])([H])[H])(C([H])([H])[H])C([H])([H])[H])C([H])(C(=O)N([H])C3([H])c5c([H])c([H])c([H])c([H])c5C([H])([H])C([H])([H])C3([H])[H])C4([H])[H])C2([H])[H])nc1N([H])C([H])([H])[H]

$$$$
70:0:0
     RDKit          3D

 95104  0  0  1  0  0  0  0  0999 V2000
  -31.6270  -22.1230   19.2900 C   0  0  0  0  0  2  0  0  0  0  0  0
  -31.3130  -20.6310   19.5160 C   0  0  0  0  0  2  0  0  0  0  0  0
  -30.3640  -22.9990   19.4240 C   0  0  0  0  0  2  0  0  0  0  0  0
  -30.5960  -20.4520   20.8680 C   0  0  0  0  0  3  0  0  0  0  0  0
  -29.5960  -22.7560   20.7490 C   0  0  0  0  0  3  0  0  0  0  0  0
  -29.3420  -21.2750   20.9170 N   0  0  0  0  0  4  0  0  0  0  0  0
  -28.9100  -21.1100   21.8120 H   0  0  0  0  0  0  0  0  0  0  0  0
  -28.7130  -20.9350   20.2080 H   0  0  0  0  0  0  0  0  0  0  0  0
  -30.6300  -17.5220   23.3350 C   0  0  0  0  0  3  0  0  0  0  0  0
  -30.5560  -18.8170   22.8000 C   0  0  0  0  0  3  0  0  0  0  0  0
  -30.6570  -16.4320   22.4560 C   0  0  0  0  0  3  0  0  0  0  0  0
  -30.5150  -18.9930   21.4050 C   0  0  0  0  0  0  0  0  0  0  0  0
  -30.6150  -16.6390   21.0650 C   0  0  0  0  0  0  0  0  0  0  0  0
  -30.5130  -17.9120   20.5560 N   0  0  0  0  0  0  0  0  0  0  0  0
  -31.2420  -14.3740   20.1150 C   0  0  0  0  0  0  0  0  0  0  0  0
  -30.8540  -12.2240   18.9430 C   0  0  0  0  0  2  0  0  0  0  0  0
  -29.8760  -12.4820   17.7730 C   0  0  0  0  0  2  0  0  0  0  0  0
  -28.4060  -12.4270   18.2470 C   0  0  0  0  0  2  0  0  0  0  0  0
  -28.1560  -13.2660   19.5280 C   0  0  0  0  0  3  0  0  0  0  0  0
  -29.2290  -12.9520   20.5970 C   0  0  0  0  0  2  0  0  0  0  0  0
  -30.5450  -13.2080   19.9900 N   0  0  0  0  0  0  0  0  0  0  0  0
  -32.4250  -14.4840   19.7740 O   0  0  0  0  0  0  0  0  0  0  0  0
  -30.4300  -15.4450   20.3030 N   0  0  0  0  0  0  0  0  0  0  0  0
  -29.4740  -15.1350   20.3170 H   0  0  0  0  0  0  0  0  0  0  0  0
  -25.8250  -14.0400   20.2970 C   0  0  0  0  0  0  0  0  0  0  0  0
  -24.7170  -13.3420   20.6920 C   0  0  0  0  0  0  0  0  0  0  0  0
  -25.0840  -11.9630   20.6520 C   0  0  0  0  0  0  0  0  0  0  0  0
  -26.8010  -13.0870   20.0430 N   0  0  0  0  0  0  0  0  0  0  0  0
  -26.3620  -11.8330   20.3170 N   0  0  0  0  0  0  0  0  0  0  0  0
  -24.2810  -10.7510   20.8570 C   0  0  0  0  0  0  0  0  0  0  0  0
  -24.6570   -9.7650   21.7950 C   0  0  0  0  0  3  0  0  0  0  0  0
  -23.8590   -8.6170   21.9850 C   0  0  0  0  0  3  0  0  0  0  0  0
  -22.6700   -8.4480   21.2370 C   0  0  0  0  0  0  0  0  0  0  0  0
  -22.3110   -9.4220   20.2880 C   0  0  0  0  0  3  0  0  0  0  0  0
  -23.1100  -10.5610   20.0960 C   0  0  0  0  0  3  0  0  0  0  0  0
  -21.8460   -7.3530   21.3370 O   0  0  0  0  0  0  0  0  0  0  0  0
  -21.7330   -6.6400   22.5040 C   0  0  0  0  0  0  0  0  0  0  0  0
  -21.3440   -7.2510   23.7160 C   0  0  0  0  0  3  0  0  0  0  0  0
  -21.1750   -6.4700   24.8760 C   0  0  0  0  0  3  0  0  0  0  0  0
  -21.3840   -5.0790   24.8250 C   0  0  0  0  0  0  0  0  0  0  0  0
  -21.7670   -4.4680   23.6180 C   0  0  0  0  0  3  0  0  0  0  0  0
  -21.9390   -5.2470   22.4610 C   0  0  0  0  0  0  0  0  0  0  0  0
  -22.2870   -4.6500   21.2940 F   0  0  0  0  0  0  0  0  0  0  0  0
  -21.2140   -4.3260   25.9370 F   0  0  0  0  0  0  0  0  0  0  0  0
  -23.3590  -13.9110   20.9920 C   0  0  0  0  0  0  0  0  0  0  0  0
  -22.6110  -13.2790   21.8890 N   0  0  0  0  0  0  0  0  0  0  0  0
  -22.9740  -14.9540   20.4660 O   0  0  0  0  0  0  0  0  0  0  0  0
  -22.9310  -12.4330   22.3360 H   0  0  0  0  0  0  0  0  0  0  0  0
  -21.7030  -13.6490   22.1320 H   0  0  0  0  0  0  0  0  0  0  0  0
  -26.0800  -15.3960   20.1110 N   0  0  0  0  0  0  0  0  0  0  0  0
  -25.3600  -16.0990   20.2350 H   0  0  0  0  0  0  0  0  0  0  0  0
  -26.9290  -15.7740   19.7110 H   0  0  0  0  0  0  0  0  0  0  0  0
  -28.3290  -23.6990   20.8320 C   0  0  0  0  0  2  0  0  0  0  0  0
  -28.5960  -25.1750   21.3140 C   0  0  0  0  0  2  0  0  0  0  0  0
  -28.4910  -26.2560   20.3530 O   0  0  0  0  0  0  0  0  0  0  0  0
  -24.6120  -31.6230   23.1580 C   0  0  0  0  0  0  0  0  0  0  0  0
  -27.3350  -27.0170   20.3560 C   0  0  0  0  0  0  0  0  0  0  0  0
  -23.4640  -30.1720   21.5180 C   0  0  0  0  0  3  0  0  0  0  0  0
  -24.9610  -28.5650   20.2130 C   0  0  0  0  0  0  0  0  0  0  0  0
  -26.0020  -30.4940   21.4160 C   0  0  0  0  0  2  0  0  0  0  0  0
  -26.1020  -29.0950   20.8290 C   0  0  0  0  0  0  0  0  0  0  0  0
  -27.2960  -28.3320   20.8910 C   0  0  0  0  0  3  0  0  0  0  0  0
  -26.1770  -26.5060   19.7400 C   0  0  0  0  0  3  0  0  0  0  0  0
  -24.9960  -27.2700   19.6650 C   0  0  0  0  0  3  0  0  0  0  0  0
  -23.7260  -29.4390   20.1740 C   0  0  0  0  0  2  0  0  0  0  0  0
  -24.7090  -30.7820   22.0880 N   0  0  0  0  0  0  0  0  0  0  0  0
  -23.5120  -31.9240   23.6420 O   0  0  0  0  0  0  0  0  0  0  0  0
  -22.7630  -29.1920   22.4870 C   0  0  0  0  0  0  0  0  0  0  0  0
  -21.4390  -29.0360   22.3290 N   0  0  0  0  0  0  0  0  0  0  0  0
  -23.4110  -28.5720   23.3340 O   0  0  0  0  0  0  0  0  0  0  0  0
  -20.9810  -29.5830   21.6140 H   0  0  0  0  0  0  0  0  0  0  0  0
  -18.0240  -27.9340   22.7740 C   0  0  0  0  0  0  0  0  0  0  0  0
  -20.5820  -28.1340   23.0980 C   0  0  0  0  0  3  0  0  0  0  0  0
  -20.6610  -26.6880   22.5530 C   0  0  0  0  0  2  0  0  0  0  0  0
  -19.5740  -26.3740   21.5200 C   0  0  0  0  0  2  0  0  0  0  0  0
  -18.1820  -26.5660   22.1290 C   0  0  0  0  0  2  0  0  0  0  0  0
  -19.1520  -28.6760   23.2130 C   0  0  0  0  0  0  0  0  0  0  0  0
  -18.9530  -29.9570   23.7730 C   0  0  0  0  0  3  0  0  0  0  0  0
  -17.6570  -30.4930   23.8990 C   0  0  0  0  0  3  0  0  0  0  0  0
  -16.5440  -29.7480   23.4760 C   0  0  0  0  0  3  0  0  0  0  0  0
  -16.7280  -28.4700   22.9180 C   0  0  0  0  0  3  0  0  0  0  0  0
  -25.8770  -32.2650   23.8080 C   0  0  0  0  0  3  0  0  0  0  0  0
  -26.3810  -31.4900   25.0860 C   0  0  1  0  0  0  0  0  0  0  0  0
  -25.2720  -31.2300   26.1310 C   0  0  0  0  0  1  0  0  0  0  0  0
  -26.9880  -30.1230   24.6920 C   0  0  0  0  0  1  0  0  0  0  0  0
  -27.5120  -32.2930   25.7710 C   0  0  0  0  0  1  0  0  0  0  0  0
  -25.5450  -33.6560   24.1430 N   0  0  0  0  0  0  0  0  0  0  0  0
  -25.8800  -34.7180   23.3990 C   0  0  0  0  0  0  0  0  0  0  0  0
  -26.5720  -34.6290   22.3800 O   0  0  0  0  0  0  0  0  0  0  0  0
  -24.9310  -33.7970   24.9320 H   0  0  0  0  0  0  0  0  0  0  0  0
  -24.1320  -36.4850   23.0300 C   0  0  0  0  0  1  0  0  0  0  0  0
  -25.3670  -36.0970   23.8560 C   0  0  0  0  0  3  0  0  0  0  0  0
  -27.4800  -37.0060   24.7180 C   0  0  0  0  0  1  0  0  0  0  0  0
  -26.3870  -37.1650   23.7620 N   0  0  0  0  0  0  0  0  0  0  0  0
  -25.9660  -38.0780   23.9110 H   0  0  0  0  0  0  0  0  0  0  0  0
  1  3  1  0
  1  2  1  0
  2  4  1  0
  3  5  1  0
  4  6  1  0
  4 12  1  0
  5 53  1  0
  5  6  1  0
  6  7  1  0
  8  6  1  0
 10  9  1  0
 11  9  2  0
 12 10  2  0
 13 11  1  0
 14 13  2  0
 14 12  1  0
 15 23  1  0
 16 21  1  0
 17 18  1  0
 17 16  1  0
 19 18  1  0
 19 28  1  0
 19 20  1  0
 21 15  1  0
 21 20  1  0
 22 15  2  0
 23 24  1  0
 23 13  1  0
 25 26  2  0
 26 45  1  0
 27 26  1  0
 27 30  1  0
 28 25  1  0
 28 29  1  0
 29 27  2  0
 30 31  1  0
 31 32  2  0
 33 36  1  0
 33 32  1  0
 34 33  2  0
 35 34  1  0
 35 30  2  0
 36 37  1  0
 37 38  1  0
 38 39  2  0
 40 39  1  0
 40 44  1  0
 41 40  2  0
 42 37  2  0
 42 41  1  0
 43 42  1  0
 45 46  1  0
 46 49  1  0
 46 48  1  0
 47 45  2  0
 50 51  1  0
 50 25  1  0
 52 50  1  0
 53 54  1  0
 55 57  1  0
 55 54  1  0
 56 67  2  0
 57 62  1  0
 58 66  1  0
 58 68  1  0
 59 61  1  0
 60 66  1  0
 61 62  2  0
 61 60  1  0
 63 57  2  0
 64 63  1  0
 64 59  2  0
 65 59  1  0
 65 58  1  0
 66 56  1  0
 68 70  2  0
 69 68  1  0
 71 69  1  0
 72 81  2  0
 72 77  1  0
 73 69  1  0
 73 77  1  0
 74 73  1  0
 75 76  1  0
 75 74  1  0
 76 72  1  0
 77 78  2  0
 78 79  1  0
 80 79  2  0
 81 80  1  0
 82 56  1  0
 82 87  1  0
 82 83  1  0
 83 86  1  1
 83 84  1  0
 85 83  1  0
 87 90  1  0
 88 92  1  0
 88 87  1  0
 89 88  2  0
 92 91  1  0
 94 92  1  0
 94 95  1  0
 94 93  1  0
M  ISO  4  15 100  23 100  54 101  55 101
M  END
>  <TORSDO>  (70) 
F 19

>  <SCORE>  (70) 
-12.798

>  <name>  (70) 
70

>  <ligand_id>  (70) 
70

>  <original_smiles>  (70) 
[H]c1c(N([H])C(=O)N2C([H])([H])C([H])([H])C([H])([H])C([H])(n3nc(-c4c([H])c([H])c(Oc5c([H])c([H])c(F)c([H])c5F)c([H])c4[H])c(C(=O)N([H])[H])c3N([H])[H])C2([H])[H])nc(C2([H])C([H])([H])C([H])([H])C([H])([H])C([H])(C([H])([H])C([H])([H])Oc3c([H])c([H])c4c(c3[H])C([H])([H])N(C(=O)C([H])(N([H])C(=O)C([H])(N([H])C([H])([H])[H])C([H])([H])[H])C(C([H])([H])[H])(C([H])([H])[H])C([H])([H])[H])C([H])(C(=O)N([H])C3([H])c5c([H])c([H])c([H])c([H])c5C([H])([H])C([H])([H])C3([H])[H])C4([H])[H])[N+]2([H])[H])c([H])c1[H]

>  <smiles>  (70) 
[H]c1c(N([H])C(=O)N2C([H])([H])C([H])([H])C([H])([H])C([H])(n3nc(-c4c([H])c([H])c(Oc5c([H])c([H])c(F)c([H])c5F)c([H])c4[H])c(C(=O)N([H])[H])c3N([H])[H])C2([H])[H])nc(C2([H])C([H])([H])C([H])([H])C([H])([H])C([H])(C([H])([H])C([H])([H])Oc3c([H])c([H])c4c(c3[H])C([H])([H])N(C(=O)C([H])(N([H])C(=O)C([H])(N([H])C([H])([H])[H])C([H])([H])[H])C(C([H])([H])[H])(C([H])([H])[H])C([H])([H])[H])C([H])(C(=O)N([H])C3([H])c5c([H])c([H])c([H])c([H])c5C([H])([H])C([H])([H])C3([H])[H])C4([H])[H])[N+]2([H])[H])c([H])c1[H]

$$$$
71:0:0
     RDKit          3D

 97105  0  0  1  0  0  0  0  0999 V2000
  -29.1120  -20.7120   20.8680 C   0  0  0  0  0  0  0  0  0  0  0  0
  -28.5120  -23.1760   20.8120 C   0  0  0  0  0  0  0  0  0  0  0  0
  -29.3150  -22.0100   20.4860 N   0  0  0  0  0  0  0  0  0  0  0  0
  -28.0110  -20.3550   21.5420 N   0  0  0  0  0  4  0  0  0  0  0  0
  -27.5060  -23.0540   21.5250 O   0  0  0  0  0  0  0  0  0  0  0  0
  -30.1300  -22.1300   19.9040 H   0  0  0  0  0  0  0  0  0  0  0  0
  -27.9110  -19.4230   21.9120 H   0  0  0  0  0  0  0  0  0  0  0  0
  -27.3450  -21.0740   21.7960 H   0  0  0  0  0  0  0  0  0  0  0  0
  -32.4540  -18.9710   20.4280 C   0  0  0  0  0  3  0  0  0  0  0  0
  -31.4770  -19.9770   20.5460 C   0  0  0  0  0  3  0  0  0  0  0  0
  -32.0850  -17.6130   20.3940 C   0  0  0  0  0  3  0  0  0  0  0  0
  -29.7440  -18.2550   20.5620 C   0  0  0  0  0  3  0  0  0  0  0  0
  -30.1100  -19.6370   20.6230 C   0  0  0  0  0  0  0  0  0  0  0  0
  -30.7220  -17.2240   20.4460 C   0  0  0  0  0  0  0  0  0  0  0  0
  -31.0000  -14.7600   19.9470 C   0  0  0  0  0  0  0  0  0  0  0  0
  -30.6740  -12.5320   18.9340 C   0  0  0  0  0  2  0  0  0  0  0  0
  -29.6710  -12.6480   17.7670 C   0  0  0  0  0  2  0  0  0  0  0  0
  -28.2270  -12.4940   18.2810 C   0  0  0  0  0  2  0  0  0  0  0  0
  -27.9320  -13.3890   19.5150 C   0  0  0  0  0  3  0  0  0  0  0  0
  -29.0500  -13.2740   20.5770 C   0  0  0  0  0  2  0  0  0  0  0  0
  -30.3310  -13.5720   19.9190 N   0  0  0  0  0  0  0  0  0  0  0  0
  -32.1040  -14.8860   19.4130 O   0  0  0  0  0  0  0  0  0  0  0  0
  -30.3200  -15.8320   20.4340 N   0  0  0  0  0  0  0  0  0  0  0  0
  -29.3830  -15.6320   20.7450 H   0  0  0  0  0  0  0  0  0  0  0  0
  -25.5970  -13.9850   20.4120 C   0  0  0  0  0  0  0  0  0  0  0  0
  -24.5490  -13.2070   20.8270 C   0  0  0  0  0  0  0  0  0  0  0  0
  -24.9940  -11.8530   20.7170 C   0  0  0  0  0  0  0  0  0  0  0  0
  -26.6140  -13.1050   20.0780 N   0  0  0  0  0  0  0  0  0  0  0  0
  -26.2600  -11.8160   20.3200 N   0  0  0  0  0  0  0  0  0  0  0  0
  -24.2690  -10.5910   20.9120 C   0  0  0  0  0  0  0  0  0  0  0  0
  -24.6860   -9.6410   21.8700 C   0  0  0  0  0  3  0  0  0  0  0  0
  -23.9620   -8.4430   22.0520 C   0  0  0  0  0  3  0  0  0  0  0  0
  -22.8070   -8.1860   21.2750 C   0  0  0  0  0  0  0  0  0  0  0  0
  -22.4100   -9.1250   20.3080 C   0  0  0  0  0  3  0  0  0  0  0  0
  -23.1340  -10.3140   20.1230 C   0  0  0  0  0  3  0  0  0  0  0  0
  -22.0570   -7.0390   21.3660 O   0  0  0  0  0  0  0  0  0  0  0  0
  -21.9050   -6.3680   22.5530 C   0  0  0  0  0  0  0  0  0  0  0  0
  -21.2990   -6.9720   23.6770 C   0  0  0  0  0  3  0  0  0  0  0  0
  -21.1010   -6.2240   24.8560 C   0  0  0  0  0  3  0  0  0  0  0  0
  -21.4980   -4.8750   24.9100 C   0  0  0  0  0  0  0  0  0  0  0  0
  -22.0980   -4.2720   23.7900 C   0  0  0  0  0  3  0  0  0  0  0  0
  -22.2980   -5.0160   22.6140 C   0  0  0  0  0  0  0  0  0  0  0  0
  -22.8560   -4.4240   21.5310 F   0  0  0  0  0  0  0  0  0  0  0  0
  -21.3010   -4.1550   26.0380 F   0  0  0  0  0  0  0  0  0  0  0  0
  -23.1780  -13.6850   21.2100 C   0  0  0  0  0  0  0  0  0  0  0  0
  -22.5000  -12.9570   22.0910 N   0  0  0  0  0  0  0  0  0  0  0  0
  -22.7210  -14.7370   20.7660 O   0  0  0  0  0  0  0  0  0  0  0  0
  -22.8830  -12.1050   22.4700 H   0  0  0  0  0  0  0  0  0  0  0  0
  -21.5830  -13.2570   22.3890 H   0  0  0  0  0  0  0  0  0  0  0  0
  -25.7620  -15.3580   20.2680 N   0  0  0  0  0  0  0  0  0  0  0  0
  -25.0040  -16.0110   20.4380 H   0  0  0  0  0  0  0  0  0  0  0  0
  -26.5760  -15.7980   19.8580 H   0  0  0  0  0  0  0  0  0  0  0  0
  -28.3050  -25.5950   20.5710 C   0  0  0  0  0  3  0  0  0  0  0  0
  -28.9750  -24.4580   20.2500 C   0  0  0  0  0  0  0  0  0  0  0  0
  -30.0350  -24.4850   19.4290 O   0  0  0  0  0  0  0  0  0  0  0  0
  -30.1630  -25.3930   19.1780 H   0  0  0  0  0  0  0  0  0  0  0  0
  -28.5600  -26.8800   20.1050 O   0  0  0  0  0  0  0  0  0  0  0  0
  -24.7240  -31.9470   23.3810 C   0  0  0  0  0  0  0  0  0  0  0  0
  -27.4470  -27.7040   20.0780 C   0  0  0  0  0  0  0  0  0  0  0  0
  -23.5600  -30.6440   21.6330 C   0  0  0  0  0  3  0  0  0  0  0  0
  -25.0520  -29.2170   20.1330 C   0  0  0  0  0  0  0  0  0  0  0  0
  -26.0890  -31.0280   21.5070 C   0  0  0  0  0  2  0  0  0  0  0  0
  -26.1990  -29.7010   20.7780 C   0  0  0  0  0  0  0  0  0  0  0  0
  -27.4040  -28.9520   20.7480 C   0  0  0  0  0  3  0  0  0  0  0  0
  -26.2880  -27.2540   19.4100 C   0  0  0  0  0  3  0  0  0  0  0  0
  -25.0930  -27.9950   19.4430 C   0  0  0  0  0  3  0  0  0  0  0  0
  -23.7990  -30.0610   20.2160 C   0  0  0  0  0  2  0  0  0  0  0  0
  -24.8080  -31.2180   22.2330 N   0  0  0  0  0  0  0  0  0  0  0  0
  -23.6310  -32.1770   23.9180 O   0  0  0  0  0  0  0  0  0  0  0  0
  -22.8990  -29.5590   22.5150 C   0  0  0  0  0  0  0  0  0  0  0  0
  -21.5830  -29.3590   22.3370 N   0  0  0  0  0  0  0  0  0  0  0  0
  -23.5700  -28.9030   23.3160 O   0  0  0  0  0  0  0  0  0  0  0  0
  -21.1020  -29.9420   21.6660 H   0  0  0  0  0  0  0  0  0  0  0  0
  -18.2160  -28.0890   22.6790 C   0  0  0  0  0  0  0  0  0  0  0  0
  -20.7620  -28.3650   23.0300 C   0  0  0  0  0  3  0  0  0  0  0  0
  -20.9000  -26.9730   22.3710 C   0  0  0  0  0  2  0  0  0  0  0  0
  -19.8280  -26.6980   21.3110 C   0  0  0  0  0  2  0  0  0  0  0  0
  -18.4280  -26.7860   21.9280 C   0  0  0  0  0  2  0  0  0  0  0  0
  -19.3130  -28.8390   23.1830 C   0  0  0  0  0  0  0  0  0  0  0  0
  -19.0600  -30.0620   23.8420 C   0  0  0  0  0  3  0  0  0  0  0  0
  -17.7460  -30.5350   24.0040 C   0  0  0  0  0  3  0  0  0  0  0  0
  -16.6630  -29.7820   23.5180 C   0  0  0  0  0  3  0  0  0  0  0  0
  -16.8990  -28.5600   22.8610 C   0  0  0  0  0  3  0  0  0  0  0  0
  -25.9930  -32.5490   24.0620 C   0  0  0  0  0  3  0  0  0  0  0  0
  -26.4610  -31.7370   25.3320 C   0  0  1  0  0  0  0  0  0  0  0  0
  -25.3270  -31.4650   26.3480 C   0  0  0  0  0  1  0  0  0  0  0  0
  -27.0590  -30.3720   24.9180 C   0  0  0  0  0  1  0  0  0  0  0  0
  -27.5830  -32.5090   26.0640 C   0  0  0  0  0  1  0  0  0  0  0  0
  -25.6870  -33.9400   24.4190 N   0  0  0  0  0  0  0  0  0  0  0  0
  -26.0490  -35.0080   23.6950 C   0  0  0  0  0  0  0  0  0  0  0  0
  -26.7470  -34.9240   22.6810 O   0  0  0  0  0  0  0  0  0  0  0  0
  -25.0710  -34.0810   25.2060 H   0  0  0  0  0  0  0  0  0  0  0  0
  -24.3480  -36.8240   23.3340 C   0  0  0  0  0  1  0  0  0  0  0  0
  -25.5600  -36.3890   24.1730 C   0  0  0  0  0  3  0  0  0  0  0  0
  -27.6670  -37.2400   25.1000 C   0  0  0  0  0  1  0  0  0  0  0  0
  -26.6040  -37.4340   24.1180 N   0  0  0  0  0  0  0  0  0  0  0  0
  -26.2000  -38.3550   24.2660 H   0  0  0  0  0  0  0  0  0  0  0  0
  1  4  2  0
  2  5  2  0
  3  2  1  0
  3  1  1  0
  4  8  1  0
  4  7  1  0
  6  3  1  0
  9 10  1  0
 10 13  2  0
 11  9  2  0
 11 14  1  0
 12 13  1  0
 13  1  1  0
 14 12  2  0
 15 23  1  0
 16 21  1  0
 17 18  1  0
 17 16  1  0
 19 18  1  0
 19 28  1  0
 19 20  1  0
 21 15  1  0
 21 20  1  0
 22 15  2  0
 23 14  1  0
 23 24  1  0
 25 26  2  0
 26 45  1  0
 27 26  1  0
 27 30  1  0
 28 29  1  0
 28 25  1  0
 29 27  2  0
 30 31  1  0
 31 32  2  0
 33 36  1  0
 33 32  1  0
 34 33  2  0
 35 34  1  0
 35 30  2  0
 36 37  1  0
 37 42  2  0
 37 38  1  0
 38 39  2  0
 39 40  1  0
 40 44  1  0
 41 40  2  0
 42 41  1  0
 43 42  1  0
 45 46  1  0
 46 49  1  0
 46 48  1  0
 47 45  2  0
 50 25  1  0
 50 51  1  0
 52 50  1  0
 54 53  2  0
 54  2  1  0
 55 54  1  0
 56 55  1  0
 57 53  1  0
 58 69  2  0
 59 57  1  0
 59 64  1  0
 60 68  1  0
 60 70  1  0
 61 67  1  0
 61 63  1  0
 62 68  1  0
 63 62  1  0
 64 63  2  0
 65 66  1  0
 65 59  2  0
 66 61  2  0
 67 60  1  0
 68 58  1  0
 70 72  2  0
 71 70  1  0
 73 71  1  0
 74 83  2  0
 74 79  1  0
 75 71  1  0
 75 79  1  0
 76 75  1  0
 77 78  1  0
 77 76  1  0
 78 74  1  0
 79 80  2  0
 80 81  1  0
 82 81  2  0
 83 82  1  0
 84 58  1  0
 84 89  1  0
 84 85  1  0
 85 88  1  1
 85 86  1  0
 87 85  1  0
 89 92  1  0
 90 94  1  0
 90 89  1  0
 91 90  2  0
 94 93  1  0
 96 94  1  0
 96 97  1  0
 96 95  1  0
M  ISO  4  15 100  23 100  53 101  57 101
M  END
>  <TORSDO>  (71) 
F 19

>  <SCORE>  (71) 
-13.859

>  <name>  (71) 
71

>  <ligand_id>  (71) 
71

>  <original_smiles>  (71) 
[H]OC(C(=O)N([H])C(c1c([H])c([H])c([H])c(N([H])C(=O)N2C([H])([H])C([H])([H])C([H])([H])C([H])(n3nc(-c4c([H])c([H])c(Oc5c([H])c([H])c(F)c([H])c5F)c([H])c4[H])c(C(=O)N([H])[H])c3N([H])[H])C2([H])[H])c1[H])=[N+]([H])[H])=C([H])Oc1c([H])c([H])c2c(c1[H])C([H])([H])N(C(=O)C([H])(N([H])C(=O)C([H])(N([H])C([H])([H])[H])C([H])([H])[H])C(C([H])([H])[H])(C([H])([H])[H])C([H])([H])[H])C([H])(C(=O)N([H])C1([H])c3c([H])c([H])c([H])c([H])c3C([H])([H])C([H])([H])C1([H])[H])C2([H])[H]

>  <smiles>  (71) 
[H]OC(C(=O)N([H])C(c1c([H])c([H])c([H])c(N([H])C(=O)N2C([H])([H])C([H])([H])C([H])([H])C([H])(n3nc(-c4c([H])c([H])c(Oc5c([H])c([H])c(F)c([H])c5F)c([H])c4[H])c(C(=O)N([H])[H])c3N([H])[H])C2([H])[H])c1[H])=[N+]([H])[H])=C([H])Oc1c([H])c([H])c2c(c1[H])C([H])([H])N(C(=O)C([H])(N([H])C(=O)C([H])(N([H])C([H])([H])[H])C([H])([H])[H])C(C([H])([H])[H])(C([H])([H])[H])C([H])([H])[H])C([H])(C(=O)N([H])C1([H])c3c([H])c([H])c([H])c([H])c3C([H])([H])C([H])([H])C1([H])[H])C2([H])[H]

$$$$
72:0:0
     RDKit          3D

 96105  0  0  1  0  0  0  0  0999 V2000
  -29.5290  -21.3980   18.8270 C   0  0  0  0  0  2  0  0  0  0  0  0
  -29.5650  -21.8170   21.2600 C   0  0  0  0  0  2  0  0  0  0  0  0
  -28.8500  -22.7780   18.5940 C   0  0  0  0  0  2  0  0  0  0  0  0
  -28.8990  -23.2250   21.0450 C   0  0  0  0  0  2  0  0  0  0  0  0
  -29.1520  -20.7750   20.1860 C   0  0  0  0  0  3  0  0  0  0  0  0
  -29.1520  -23.8920   19.6480 C   0  0  1  0  0  0  0  0  0  0  0  0
  -31.1900  -17.7480   20.5300 C   0  0  0  0  0  3  0  0  0  0  0  0
  -28.9730  -18.1000   20.4290 C   0  0  0  0  0  0  0  0  0  0  0  0
  -29.9950  -17.0830   20.5010 C   0  0  0  0  0  0  0  0  0  0  0  0
  -29.6310  -19.3190   20.3700 C   0  0  0  0  0  0  0  0  0  0  0  0
  -30.9820  -19.1040   20.4570 O   0  0  0  0  0  0  0  0  0  0  0  0
  -30.4830  -14.6330   19.9450 C   0  0  0  0  0  0  0  0  0  0  0  0
  -30.0980  -12.5390   18.6760 C   0  0  0  0  0  2  0  0  0  0  0  0
  -29.0390  -12.8160   17.5860 C   0  0  0  0  0  2  0  0  0  0  0  0
  -27.6140  -12.6310   18.1450 C   0  0  0  0  0  2  0  0  0  0  0  0
  -27.4020  -13.3590   19.4970 C   0  0  0  0  0  3  0  0  0  0  0  0
  -28.5640  -13.0700   20.4760 C   0  0  0  0  0  2  0  0  0  0  0  0
  -29.8200  -13.4450   19.8060 N   0  0  0  0  0  0  0  0  0  0  0  0
  -31.5920  -14.8190   19.4340 O   0  0  0  0  0  0  0  0  0  0  0  0
  -29.7730  -15.6440   20.5260 N   0  0  0  0  0  0  0  0  0  0  0  0
  -28.8900  -15.3380   20.8990 H   0  0  0  0  0  0  0  0  0  0  0  0
  -25.0690  -13.8960   20.4330 C   0  0  0  0  0  0  0  0  0  0  0  0
  -24.0510  -13.0940   20.8750 C   0  0  0  0  0  0  0  0  0  0  0  0
  -24.5290  -11.7530   20.7620 C   0  0  0  0  0  0  0  0  0  0  0  0
  -26.1020  -13.0420   20.0850 N   0  0  0  0  0  0  0  0  0  0  0  0
  -25.7880  -11.7460   20.3410 N   0  0  0  0  0  0  0  0  0  0  0  0
  -23.8420  -10.4720   20.9740 C   0  0  0  0  0  0  0  0  0  0  0  0
  -24.3290   -9.5170   21.8930 C   0  0  0  0  0  3  0  0  0  0  0  0
  -23.6400   -8.3010   22.0930 C   0  0  0  0  0  3  0  0  0  0  0  0
  -22.4500   -8.0320   21.3760 C   0  0  0  0  0  0  0  0  0  0  0  0
  -21.9820   -8.9770   20.4460 C   0  0  0  0  0  3  0  0  0  0  0  0
  -22.6720  -10.1840   20.2430 C   0  0  0  0  0  3  0  0  0  0  0  0
  -21.7290   -6.8690   21.4880 O   0  0  0  0  0  0  0  0  0  0  0  0
  -21.6820   -6.1600   22.6610 C   0  0  0  0  0  0  0  0  0  0  0  0
  -21.2110   -6.7360   23.8610 C   0  0  0  0  0  3  0  0  0  0  0  0
  -21.1160   -5.9510   25.0280 C   0  0  0  0  0  3  0  0  0  0  0  0
  -21.4810   -4.5920   24.9960 C   0  0  0  0  0  0  0  0  0  0  0  0
  -21.9440   -4.0160   23.8000 C   0  0  0  0  0  3  0  0  0  0  0  0
  -22.0420   -4.7970   22.6360 C   0  0  0  0  0  0  0  0  0  0  0  0
  -22.4690   -4.2320   21.4810 F   0  0  0  0  0  0  0  0  0  0  0  0
  -21.3810   -3.8370   26.1150 F   0  0  0  0  0  0  0  0  0  0  0  0
  -22.6750  -13.5380   21.2780 C   0  0  0  0  0  0  0  0  0  0  0  0
  -22.0420  -12.8150   22.1960 N   0  0  0  0  0  0  0  0  0  0  0  0
  -22.1710  -14.5600   20.8150 O   0  0  0  0  0  0  0  0  0  0  0  0
  -22.4640  -11.9880   22.5910 H   0  0  0  0  0  0  0  0  0  0  0  0
  -21.1230  -13.0930   22.5070 H   0  0  0  0  0  0  0  0  0  0  0  0
  -25.1920  -15.2730   20.2740 N   0  0  0  0  0  0  0  0  0  0  0  0
  -24.3900  -15.8790   20.4080 H   0  0  0  0  0  0  0  0  0  0  0  0
  -25.9120  -15.6960   19.7040 H   0  0  0  0  0  0  0  0  0  0  0  0
  -27.4780  -17.9040   20.3810 C   0  0  0  0  0  3  0  0  0  0  0  0
  -27.0540  -17.9540   19.1190 F   0  0  0  0  0  0  0  0  0  0  0  0
  -26.8620  -18.8490   21.0920 F   0  0  0  0  0  0  0  0  0  0  0  0
  -31.1710  -25.0180   20.4080 C   0  0  0  0  0  1  0  0  0  0  0  0
  -30.5250  -24.2200   19.4210 O   0  0  0  0  0  0  0  0  0  0  0  0
  -28.2040  -25.1240   19.2900 C   0  0  0  0  0  2  0  0  0  0  0  0
  -28.3580  -26.5100   19.7570 O   0  0  0  0  0  0  0  0  0  0  0  0
  -24.4690  -31.6370   22.9960 C   0  0  0  0  0  0  0  0  0  0  0  0
  -27.2040  -27.3120   19.7370 C   0  0  0  0  0  0  0  0  0  0  0  0
  -23.2920  -30.2540   21.3260 C   0  0  0  0  0  3  0  0  0  0  0  0
  -24.7760  -28.8220   19.8250 C   0  0  0  0  0  0  0  0  0  0  0  0
  -25.8150  -30.6770   21.1200 C   0  0  0  0  0  2  0  0  0  0  0  0
  -25.9350  -29.3300   20.4260 C   0  0  0  0  0  0  0  0  0  0  0  0
  -27.1490  -28.5840   20.3800 C   0  0  0  0  0  3  0  0  0  0  0  0
  -26.0140  -26.8660   19.1030 C   0  0  0  0  0  3  0  0  0  0  0  0
  -24.8160  -27.5920   19.1580 C   0  0  0  0  0  3  0  0  0  0  0  0
  -23.5090  -29.6420   19.9200 C   0  0  0  0  0  2  0  0  0  0  0  0
  -24.5450  -30.8720   21.8710 N   0  0  0  0  0  0  0  0  0  0  0  0
  -23.3850  -31.8560   23.5550 O   0  0  0  0  0  0  0  0  0  0  0  0
  -22.6850  -29.1760   22.2560 C   0  0  0  0  0  0  0  0  0  0  0  0
  -21.3600  -28.9760   22.1600 N   0  0  0  0  0  0  0  0  0  0  0  0
  -23.4030  -28.5280   23.0210 O   0  0  0  0  0  0  0  0  0  0  0  0
  -20.8390  -29.5530   21.5140 H   0  0  0  0  0  0  0  0  0  0  0  0
  -18.0140  -27.7410   22.7630 C   0  0  0  0  0  0  0  0  0  0  0  0
  -20.5830  -27.9890   22.9130 C   0  0  0  0  0  3  0  0  0  0  0  0
  -20.6540  -26.5970   22.2440 C   0  0  0  0  0  2  0  0  0  0  0  0
  -19.5000  -26.3350   21.2710 C   0  0  0  0  0  2  0  0  0  0  0  0
  -18.1540  -26.4370   21.9950 C   0  0  0  0  0  2  0  0  0  0  0  0
  -19.1540  -28.4780   23.1790 C   0  0  0  0  0  0  0  0  0  0  0  0
  -18.9680  -29.7010   23.8590 C   0  0  0  0  0  3  0  0  0  0  0  0
  -17.6740  -30.1870   24.1250 C   0  0  0  0  0  3  0  0  0  0  0  0
  -16.5490  -29.4460   23.7230 C   0  0  0  0  0  3  0  0  0  0  0  0
  -16.7200  -28.2250   23.0480 C   0  0  0  0  0  3  0  0  0  0  0  0
  -25.7390  -32.2940   23.6210 C   0  0  0  0  0  3  0  0  0  0  0  0
  -26.3040  -31.4960   24.8610 C   0  0  1  0  0  0  0  0  0  0  0  0
  -25.2370  -31.1790   25.9350 C   0  0  0  0  0  1  0  0  0  0  0  0
  -26.9300  -30.1560   24.4110 C   0  0  0  0  0  1  0  0  0  0  0  0
  -27.4350  -32.3070   25.5340 C   0  0  0  0  0  1  0  0  0  0  0  0
  -25.3820  -33.6660   24.0060 N   0  0  0  0  0  0  0  0  0  0  0  0
  -25.6620  -34.7570   23.2810 C   0  0  0  0  0  0  0  0  0  0  0  0
  -26.3190  -34.7160   22.2370 O   0  0  0  0  0  0  0  0  0  0  0  0
  -24.7950  -33.7700   24.8200 H   0  0  0  0  0  0  0  0  0  0  0  0
  -23.8570  -36.4900   23.0240 C   0  0  0  0  0  1  0  0  0  0  0  0
  -25.1300  -36.1090   23.7960 C   0  0  0  0  0  3  0  0  0  0  0  0
  -27.2420  -37.0520   24.6190 C   0  0  0  0  0  1  0  0  0  0  0  0
  -26.1180  -37.2050   23.6990 N   0  0  0  0  0  0  0  0  0  0  0  0
  -25.6780  -38.1030   23.8830 H   0  0  0  0  0  0  0  0  0  0  0  0
  1  5  1  0
  3  1  1  0
  3  6  1  0
  4  2  1  0
  5 10  1  0
  5  2  1  0
  6 55  1  6
  6  4  1  0
  8  9  1  0
  9 20  1  0
  9  7  2  0
 10  8  2  0
 10 11  1  0
 11  7  1  0
 12 20  1  0
 13 18  1  0
 14 15  1  0
 14 13  1  0
 16 15  1  0
 16 25  1  0
 16 17  1  0
 18 12  1  0
 18 17  1  0
 19 12  2  0
 20 21  1  0
 22 23  2  0
 23 42  1  0
 24 23  1  0
 24 27  1  0
 25 26  1  0
 25 22  1  0
 26 24  2  0
 27 28  1  0
 28 29  2  0
 30 33  1  0
 30 29  1  0
 31 30  2  0
 32 31  1  0
 32 27  2  0
 33 34  1  0
 34 35  1  0
 35 36  2  0
 37 36  1  0
 37 41  1  0
 38 37  2  0
 39 34  2  0
 39 38  1  0
 40 39  1  0
 42 43  1  0
 43 46  1  0
 43 45  1  0
 44 42  2  0
 47 48  1  0
 47 22  1  0
 49 47  1  0
 50  8  1  0
 50 52  1  0
 51 50  1  0
 54  6  1  0
 54 53  1  0
 55 56  1  0
 57 68  2  0
 58 56  1  0
 58 63  1  0
 59 67  1  0
 59 69  1  0
 60 66  1  0
 60 62  1  0
 61 67  1  0
 62 61  1  0
 63 62  2  0
 64 65  1  0
 64 58  2  0
 65 60  2  0
 66 59  1  0
 67 57  1  0
 69 71  2  0
 70 69  1  0
 72 70  1  0
 73 82  2  0
 73 78  1  0
 74 70  1  0
 74 78  1  0
 75 74  1  0
 76 77  1  0
 76 75  1  0
 77 73  1  0
 78 79  2  0
 79 80  1  0
 81 80  2  0
 82 81  1  0
 83 57  1  0
 83 88  1  0
 83 84  1  0
 84 87  1  1
 84 85  1  0
 86 84  1  0
 88 91  1  0
 89 93  1  0
 89 88  1  0
 90 89  2  0
 93 92  1  0
 95 93  1  0
 95 96  1  0
 95 94  1  0
M  ISO  4  12 100  20 100  55 101  56 101
M  END
>  <TORSDO>  (72) 
F 20

>  <SCORE>  (72) 
-12.842

>  <name>  (72) 
72

>  <ligand_id>  (72) 
72

>  <original_smiles>  (72) 
[H]c1oc(C2([H])C([H])([H])C([H])([H])C(OC([H])([H])[H])(C([H])([H])Oc3c([H])c([H])c4c(c3[H])C([H])([H])N(C(=O)C([H])(N([H])C(=O)C([H])(N([H])C([H])([H])[H])C([H])([H])[H])C(C([H])([H])[H])(C([H])([H])[H])C([H])([H])[H])C([H])(C(=O)N([H])C3([H])c5c([H])c([H])c([H])c([H])c5C([H])([H])C([H])([H])C3([H])[H])C4([H])[H])C([H])([H])C2([H])[H])c(C([H])(F)F)c1N([H])C(=O)N1C([H])([H])C([H])([H])C([H])([H])C([H])(n2nc(-c3c([H])c([H])c(Oc4c([H])c([H])c(F)c([H])c4F)c([H])c3[H])c(C(=O)N([H])[H])c2N([H])[H])C1([H])[H]

>  <smiles>  (72) 
[H]c1oc(C2([H])C([H])([H])C([H])([H])C(OC([H])([H])[H])(C([H])([H])Oc3c([H])c([H])c4c(c3[H])C([H])([H])N(C(=O)C([H])(N([H])C(=O)C([H])(N([H])C([H])([H])[H])C([H])([H])[H])C(C([H])([H])[H])(C([H])([H])[H])C([H])([H])[H])C([H])(C(=O)N([H])C3([H])c5c([H])c([H])c([H])c([H])c5C([H])([H])C([H])([H])C3([H])[H])C4([H])[H])C([H])([H])C2([H])[H])c(C([H])(F)F)c1N([H])C(=O)N1C([H])([H])C([H])([H])C([H])([H])C([H])(n2nc(-c3c([H])c([H])c(Oc4c([H])c([H])c(F)c([H])c4F)c([H])c3[H])c(C(=O)N([H])[H])c2N([H])[H])C1([H])[H]

$$$$
73:0:0
     RDKit          3D

 95104  0  0  1  0  0  0  0  0999 V2000
  -30.4760  -21.9530   19.6660 C   0  0  0  0  0  2  0  0  0  0  0  0
  -28.6940  -21.2080   21.1860 C   0  0  0  0  0  2  0  0  0  0  0  0
  -29.8590  -23.3840   19.5080 C   0  0  0  0  0  2  0  0  0  0  0  0
  -28.0560  -22.6430   21.1420 C   0  0  0  0  0  2  0  0  0  0  0  0
  -29.3810  -20.8630   19.8520 C   0  0  0  0  0  3  0  0  0  0  0  0
  -28.9410  -23.8600   20.6760 C   0  0  0  0  0  3  0  0  0  0  0  0
  -30.3200  -16.8540   18.5840 C   0  0  0  0  0  3  0  0  0  0  0  0
  -29.7500  -19.3710   19.4900 C   0  0  0  0  0  0  0  0  0  0  0  0
  -30.0490  -17.0470   19.9660 C   0  0  0  0  0  0  0  0  0  0  0  0
  -30.0260  -19.0800   18.1220 C   0  0  0  0  0  0  0  0  0  0  0  0
  -30.3140  -17.8490   17.6770 N   0  0  0  0  0  0  0  0  0  0  0  0
  -29.7700  -18.3350   20.4130 N   0  0  0  0  0  0  0  0  0  0  0  0
  -30.0020  -20.0310   17.1100 N   0  0  0  0  0  0  0  0  0  0  0  0
  -29.6770  -20.9750   17.2830 H   0  0  0  0  0  0  0  0  0  0  0  0
  -30.0370  -19.7510   16.1370 H   0  0  0  0  0  0  0  0  0  0  0  0
  -30.7190  -14.6950   20.5530 C   0  0  0  0  0  0  0  0  0  0  0  0
  -30.4870  -12.4530   19.5390 C   0  0  0  0  0  2  0  0  0  0  0  0
  -29.5960  -12.5880   18.2860 C   0  0  0  0  0  2  0  0  0  0  0  0
  -28.1090  -12.4440   18.6630 C   0  0  0  0  0  2  0  0  0  0  0  0
  -27.7110  -13.3130   19.8870 C   0  0  0  0  0  3  0  0  0  0  0  0
  -28.7330  -13.1910   21.0400 C   0  0  0  0  0  2  0  0  0  0  0  0
  -30.0640  -13.4940   20.4980 N   0  0  0  0  0  0  0  0  0  0  0  0
  -31.9040  -14.7880   20.2190 O   0  0  0  0  0  0  0  0  0  0  0  0
  -29.9810  -15.8290   20.7680 N   0  0  0  0  0  0  0  0  0  0  0  0
  -29.1210  -15.7050   21.2770 H   0  0  0  0  0  0  0  0  0  0  0  0
  -25.2880  -13.8970   20.5140 C   0  0  0  0  0  0  0  0  0  0  0  0
  -24.2160  -13.1200   20.8530 C   0  0  0  0  0  0  0  0  0  0  0  0
  -24.6870  -11.7720   20.8560 C   0  0  0  0  0  0  0  0  0  0  0  0
  -26.3470  -13.0230   20.3280 N   0  0  0  0  0  0  0  0  0  0  0  0
  -25.9890  -11.7400   20.5940 N   0  0  0  0  0  0  0  0  0  0  0  0
  -23.9640  -10.5070   21.0360 C   0  0  0  0  0  0  0  0  0  0  0  0
  -24.3660   -9.5550   21.9980 C   0  0  0  0  0  3  0  0  0  0  0  0
  -23.6420   -8.3550   22.1650 C   0  0  0  0  0  3  0  0  0  0  0  0
  -22.5030   -8.0970   21.3670 C   0  0  0  0  0  0  0  0  0  0  0  0
  -22.1200   -9.0370   20.3940 C   0  0  0  0  0  3  0  0  0  0  0  0
  -22.8450  -10.2290   20.2260 C   0  0  0  0  0  3  0  0  0  0  0  0
  -21.7510   -6.9490   21.4420 O   0  0  0  0  0  0  0  0  0  0  0  0
  -21.6520   -6.2280   22.6040 C   0  0  0  0  0  0  0  0  0  0  0  0
  -21.1350   -6.7960   23.7910 C   0  0  0  0  0  3  0  0  0  0  0  0
  -20.9860   -6.0000   24.9440 C   0  0  0  0  0  3  0  0  0  0  0  0
  -21.3410   -4.6380   24.9120 C   0  0  0  0  0  0  0  0  0  0  0  0
  -21.8490   -4.0710   23.7310 C   0  0  0  0  0  3  0  0  0  0  0  0
  -22.0010   -4.8630   22.5800 C   0  0  0  0  0  0  0  0  0  0  0  0
  -22.4720   -4.3050   21.4380 F   0  0  0  0  0  0  0  0  0  0  0  0
  -21.1910   -3.8720   26.0170 F   0  0  0  0  0  0  0  0  0  0  0  0
  -22.8050  -13.5890   21.0710 C   0  0  0  0  0  0  0  0  0  0  0  0
  -22.0520  -12.8970   21.9180 N   0  0  0  0  0  0  0  0  0  0  0  0
  -22.3800  -14.6070   20.5240 O   0  0  0  0  0  0  0  0  0  0  0  0
  -22.4090  -12.0740   22.3790 H   0  0  0  0  0  0  0  0  0  0  0  0
  -21.1070  -13.1970   22.1090 H   0  0  0  0  0  0  0  0  0  0  0  0
  -25.4490  -15.2670   20.3260 N   0  0  0  0  0  0  0  0  0  0  0  0
  -24.6690  -15.9110   20.3970 H   0  0  0  0  0  0  0  0  0  0  0  0
  -26.3040  -15.7130   20.0250 H   0  0  0  0  0  0  0  0  0  0  0  0
  -27.9880  -25.0800   20.2900 C   0  0  0  0  0  2  0  0  0  0  0  0
  -28.3280  -26.5210   20.3260 O   0  0  0  0  0  0  0  0  0  0  0  0
  -24.5770  -31.9220   23.2960 C   0  0  0  0  0  0  0  0  0  0  0  0
  -27.2230  -27.3900   20.2430 C   0  0  0  0  0  0  0  0  0  0  0  0
  -23.3860  -30.5200   21.6510 C   0  0  0  0  0  3  0  0  0  0  0  0
  -24.8500  -28.9900   20.2250 C   0  0  0  0  0  0  0  0  0  0  0  0
  -25.9270  -30.8530   21.4800 C   0  0  0  0  0  2  0  0  0  0  0  0
  -26.0150  -29.4800   20.8290 C   0  0  0  0  0  0  0  0  0  0  0  0
  -27.2070  -28.6940   20.8270 C   0  0  0  0  0  3  0  0  0  0  0  0
  -26.0310  -26.9670   19.6010 C   0  0  0  0  0  3  0  0  0  0  0  0
  -24.8610  -27.7390   19.6010 C   0  0  0  0  0  3  0  0  0  0  0  0
  -23.6080  -29.8540   20.2690 C   0  0  0  0  0  2  0  0  0  0  0  0
  -24.6480  -31.1150   22.1980 N   0  0  0  0  0  0  0  0  0  0  0  0
  -23.4890  -32.1930   23.8260 O   0  0  0  0  0  0  0  0  0  0  0  0
  -22.7280  -29.4940   22.6050 C   0  0  0  0  0  0  0  0  0  0  0  0
  -21.4050  -29.3030   22.4650 N   0  0  0  0  0  0  0  0  0  0  0  0
  -23.4060  -28.8740   23.4290 O   0  0  0  0  0  0  0  0  0  0  0  0
  -20.9180  -29.8560   21.7740 H   0  0  0  0  0  0  0  0  0  0  0  0
  -18.0340  -28.0790   22.9330 C   0  0  0  0  0  0  0  0  0  0  0  0
  -20.5860  -28.3610   23.2310 C   0  0  0  0  0  3  0  0  0  0  0  0
  -20.7070  -26.9290   22.6620 C   0  0  0  0  0  2  0  0  0  0  0  0
  -19.6210  -26.5910   21.6370 C   0  0  0  0  0  2  0  0  0  0  0  0
  -18.2310  -26.7270   22.2650 C   0  0  0  0  0  2  0  0  0  0  0  0
  -19.1410  -28.8520   23.3720 C   0  0  0  0  0  0  0  0  0  0  0  0
  -18.9040  -30.1160   23.9560 C   0  0  0  0  0  3  0  0  0  0  0  0
  -17.5940  -30.6070   24.1040 C   0  0  0  0  0  3  0  0  0  0  0  0
  -16.5000  -29.8300   23.6830 C   0  0  0  0  0  3  0  0  0  0  0  0
  -16.7210  -28.5670   23.1030 C   0  0  0  0  0  3  0  0  0  0  0  0
  -25.8550  -32.5590   23.9230 C   0  0  0  0  0  3  0  0  0  0  0  0
  -25.5480  -33.9640   24.2260 N   0  0  0  0  0  0  0  0  0  0  0  0
  -25.9000  -35.0030   23.4590 C   0  0  0  0  0  0  0  0  0  0  0  0
  -26.5910  -34.8810   22.4440 O   0  0  0  0  0  0  0  0  0  0  0  0
  -24.9380  -34.1330   25.0110 H   0  0  0  0  0  0  0  0  0  0  0  0
  -24.2080  -36.8120   23.0210 C   0  0  0  0  0  1  0  0  0  0  0  0
  -25.4100  -36.4000   23.8860 C   0  0  0  0  0  3  0  0  0  0  0  0
  -27.5180  -37.2700   24.7980 C   0  0  0  0  0  1  0  0  0  0  0  0
  -26.4570  -37.4420   23.8070 N   0  0  0  0  0  0  0  0  0  0  0  0
  -26.0560  -38.3670   23.9310 H   0  0  0  0  0  0  0  0  0  0  0  0
  -26.3510  -31.8070   25.2190 C   0  0  1  0  0  0  0  0  0  0  0  0
  -25.2430  -31.5900   26.2750 C   0  0  0  0  0  1  0  0  0  0  0  0
  -26.9330  -30.4210   24.8590 C   0  0  0  0  0  1  0  0  0  0  0  0
  -27.4950  -32.6080   25.8820 C   0  0  0  0  0  1  0  0  0  0  0  0
  1  5  1  0
  3  1  1  0
  3  6  1  0
  4  2  1  0
  5  8  1  0
  5  2  1  0
  6 54  1  0
  6  4  1  0
  7  9  1  0
  8 12  1  0
  9 12  2  0
  9 24  1  0
 10  8  2  0
 11 10  1  0
 11  7  2  0
 13 14  1  0
 13 10  1  0
 15 13  1  0
 16 24  1  0
 17 22  1  0
 18 19  1  0
 18 17  1  0
 20 19  1  0
 20 29  1  0
 20 21  1  0
 22 16  1  0
 22 21  1  0
 23 16  2  0
 24 25  1  0
 26 27  2  0
 27 28  1  0
 27 46  1  0
 28 31  1  0
 29 26  1  0
 29 30  1  0
 30 28  2  0
 31 32  1  0
 32 33  2  0
 34 37  1  0
 34 33  1  0
 35 34  2  0
 36 35  1  0
 36 31  2  0
 37 38  1  0
 38 39  1  0
 39 40  2  0
 41 40  1  0
 41 45  1  0
 42 41  2  0
 43 38  2  0
 43 42  1  0
 44 43  1  0
 46 47  1  0
 47 50  1  0
 47 49  1  0
 48 46  2  0
 51 52  1  0
 51 26  1  0
 53 51  1  0
 54 55  1  0
 56 67  2  0
 57 55  1  0
 57 62  1  0
 58 66  1  0
 58 68  1  0
 59 65  1  0
 59 61  1  0
 60 66  1  0
 61 60  1  0
 62 61  2  0
 63 64  1  0
 63 57  2  0
 64 59  2  0
 65 58  1  0
 66 56  1  0
 68 70  2  0
 69 68  1  0
 71 69  1  0
 72 81  2  0
 72 77  1  0
 73 69  1  0
 73 77  1  0
 74 73  1  0
 75 76  1  0
 75 74  1  0
 76 72  1  0
 77 78  2  0
 78 79  1  0
 80 79  2  0
 81 80  1  0
 82 56  1  0
 82 83  1  0
 82 92  1  0
 83 86  1  0
 84 88  1  0
 84 83  1  0
 85 84  2  0
 88 87  1  0
 90 88  1  0
 90 91  1  0
 90 89  1  0
 92 95  1  1
 92 93  1  0
 94 92  1  0
M  ISO  4  16 100  24 100  54 101  55 101
M  END
>  <TORSDO>  (73) 
F 18

>  <SCORE>  (73) 
-14.677

>  <name>  (73) 
73

>  <ligand_id>  (73) 
73

>  <original_smiles>  (73) 
[H]c1nc(N([H])[H])c(C2([H])C([H])([H])C([H])([H])C([H])(C([H])([H])Oc3c([H])c([H])c4c(c3[H])C([H])([H])N(C(=O)C([H])(N([H])C(=O)C([H])(N([H])C([H])([H])[H])C([H])([H])[H])C(C([H])([H])[H])(C([H])([H])[H])C([H])([H])[H])C([H])(C(=O)N([H])C3([H])c5c([H])c([H])c([H])c([H])c5C([H])([H])C([H])([H])C3([H])[H])C4([H])[H])C([H])([H])C2([H])[H])nc1N([H])C(=O)N1C([H])([H])C([H])([H])C([H])([H])C([H])(n2nc(-c3c([H])c([H])c(Oc4c([H])c([H])c(F)c([H])c4F)c([H])c3[H])c(C(=O)N([H])[H])c2N([H])[H])C1([H])[H]

>  <smiles>  (73) 
[H]c1nc(N([H])[H])c(C2([H])C([H])([H])C([H])([H])C([H])(C([H])([H])Oc3c([H])c([H])c4c(c3[H])C([H])([H])N(C(=O)C([H])(N([H])C(=O)C([H])(N([H])C([H])([H])[H])C([H])([H])[H])C(C([H])([H])[H])(C([H])([H])[H])C([H])([H])[H])C([H])(C(=O)N([H])C3([H])c5c([H])c([H])c([H])c([H])c5C([H])([H])C([H])([H])C3([H])[H])C4([H])[H])C([H])([H])C2([H])[H])nc1N([H])C(=O)N1C([H])([H])C([H])([H])C([H])([H])C([H])(n2nc(-c3c([H])c([H])c(Oc4c([H])c([H])c(F)c([H])c4F)c([H])c3[H])c(C(=O)N([H])[H])c2N([H])[H])C1([H])[H]

$$$$
74:0:0
     RDKit          3D

 95103  0  0  1  0  0  0  0  0999 V2000
  -29.2540  -23.2110   20.3860 C   0  0  0  0  0  0  0  0  0  0  0  0
  -29.2260  -21.8780   20.7060 N   0  0  0  0  0  0  0  0  0  0  0  0
  -30.0800  -23.6780   19.6000 O   0  0  0  0  0  0  0  0  0  0  0  0
  -28.4550  -21.6320   21.3110 H   0  0  0  0  0  0  0  0  0  0  0  0
  -27.9090  -25.3350   21.0740 C   0  0  0  0  0  3  0  0  0  0  0  0
  -28.2520  -24.0000   21.1530 C   0  0  0  0  0  0  0  0  0  0  0  0
  -27.5750  -23.3050   22.0870 O   0  0  0  0  0  0  0  0  0  0  0  0
  -26.9730  -23.9020   22.5110 H   0  0  0  0  0  0  0  0  0  0  0  0
  -28.2680  -26.4300   20.2720 O   0  0  0  0  0  0  0  0  0  0  0  0
  -24.6110  -31.8780   23.2300 C   0  0  0  0  0  0  0  0  0  0  0  0
  -27.2250  -27.3560   20.1520 C   0  0  0  0  0  0  0  0  0  0  0  0
  -23.4030  -30.4780   21.5930 C   0  0  0  0  0  3  0  0  0  0  0  0
  -24.8550  -28.9410   20.1510 C   0  0  0  0  0  0  0  0  0  0  0  0
  -25.9390  -30.8100   21.3990 C   0  0  0  0  0  2  0  0  0  0  0  0
  -26.0230  -29.4370   20.7470 C   0  0  0  0  0  0  0  0  0  0  0  0
  -27.2150  -28.6530   20.7450 C   0  0  0  0  0  3  0  0  0  0  0  0
  -26.0430  -26.9130   19.5210 C   0  0  0  0  0  3  0  0  0  0  0  0
  -24.8660  -27.6830   19.5280 C   0  0  0  0  0  3  0  0  0  0  0  0
  -23.6120  -29.8040   20.2110 C   0  0  0  0  0  2  0  0  0  0  0  0
  -24.6690  -31.0720   22.1310 N   0  0  0  0  0  0  0  0  0  0  0  0
  -23.5300  -32.1540   23.7700 O   0  0  0  0  0  0  0  0  0  0  0  0
  -22.7450  -29.4610   22.5560 C   0  0  0  0  0  0  0  0  0  0  0  0
  -21.4180  -29.2860   22.4350 N   0  0  0  0  0  0  0  0  0  0  0  0
  -23.4280  -28.8330   23.3690 O   0  0  0  0  0  0  0  0  0  0  0  0
  -20.9260  -29.8450   21.7510 H   0  0  0  0  0  0  0  0  0  0  0  0
  -18.0410  -28.0970   22.9500 C   0  0  0  0  0  0  0  0  0  0  0  0
  -20.6010  -28.3500   23.2100 C   0  0  0  0  0  3  0  0  0  0  0  0
  -20.6970  -26.9180   22.6320 C   0  0  0  0  0  2  0  0  0  0  0  0
  -19.5890  -26.5990   21.6240 C   0  0  0  0  0  2  0  0  0  0  0  0
  -18.2110  -26.7470   22.2740 C   0  0  0  0  0  2  0  0  0  0  0  0
  -19.1630  -28.8550   23.3750 C   0  0  0  0  0  0  0  0  0  0  0  0
  -18.9490  -30.1190   23.9690 C   0  0  0  0  0  3  0  0  0  0  0  0
  -17.6470  -30.6230   24.1400 C   0  0  0  0  0  3  0  0  0  0  0  0
  -16.5390  -29.8610   23.7320 C   0  0  0  0  0  3  0  0  0  0  0  0
  -16.7360  -28.6000   23.1420 C   0  0  0  0  0  3  0  0  0  0  0  0
  -25.8970  -32.5100   23.8480 C   0  0  0  0  0  3  0  0  0  0  0  0
  -26.4180  -31.7380   25.1200 C   0  0  1  0  0  0  0  0  0  0  0  0
  -25.3290  -31.5010   26.1930 C   0  0  0  0  0  1  0  0  0  0  0  0
  -26.9980  -30.3590   24.7260 C   0  0  0  0  0  1  0  0  0  0  0  0
  -27.5730  -32.5300   25.7780 C   0  0  0  0  0  1  0  0  0  0  0  0
  -25.5890  -33.9080   24.1790 N   0  0  0  0  0  0  0  0  0  0  0  0
  -25.9200  -34.9610   23.4200 C   0  0  0  0  0  0  0  0  0  0  0  0
  -26.5860  -34.8590   22.3860 O   0  0  0  0  0  0  0  0  0  0  0  0
  -24.9960  -34.0620   24.9820 H   0  0  0  0  0  0  0  0  0  0  0  0
  -24.1920  -36.7570   23.0720 C   0  0  0  0  0  1  0  0  0  0  0  0
  -25.4340  -36.3500   23.8800 C   0  0  0  0  0  3  0  0  0  0  0  0
  -27.5730  -37.2310   24.7070 C   0  0  0  0  0  1  0  0  0  0  0  0
  -26.4690  -37.4020   23.7650 N   0  0  0  0  0  0  0  0  0  0  0  0
  -26.0640  -38.3230   23.9150 H   0  0  0  0  0  0  0  0  0  0  0  0
  -31.1270  -20.7100   21.7590 C   0  0  0  0  0  1  0  0  0  0  0  0
  -30.2320  -20.7880   20.5080 C   0  0  0  0  0  3  0  0  0  0  0  0
  -30.6060  -14.6470   20.3990 C   0  0  0  0  0  0  0  0  0  0  0  0
  -30.3720  -12.4050   19.3580 C   0  0  0  0  0  2  0  0  0  0  0  0
  -29.4310  -12.5430   18.1410 C   0  0  0  0  0  2  0  0  0  0  0  0
  -27.9580  -12.3850   18.5680 C   0  0  0  0  0  2  0  0  0  0  0  0
  -27.6010  -13.2400   19.8120 C   0  0  0  0  0  3  0  0  0  0  0  0
  -28.6640  -13.0960   20.9260 C   0  0  0  0  0  2  0  0  0  0  0  0
  -29.9770  -13.4270   20.3480 N   0  0  0  0  0  0  0  0  0  0  0  0
  -31.7550  -14.7850   19.9670 O   0  0  0  0  0  0  0  0  0  0  0  0
  -28.8490  -17.0150   19.0650 C   0  0  0  0  0  3  0  0  0  0  0  0
  -28.4730  -18.2420   18.5100 C   0  0  0  0  0  3  0  0  0  0  0  0
  -29.6720  -17.0060   20.2030 C   0  0  0  0  0  0  0  0  0  0  0  0
  -29.6720  -19.3800   20.0880 C   0  0  0  0  0  0  0  0  0  0  0  0
  -28.8790  -19.4130   19.0260 N   0  0  0  0  0  0  0  0  0  0  0  0
  -30.0640  -18.2280   20.7000 N   0  0  0  0  0  0  0  0  0  0  0  0
  -29.8710  -15.7120   20.8430 N   0  0  0  0  0  0  0  0  0  0  0  0
  -29.0550  -15.4040   21.3450 H   0  0  0  0  0  0  0  0  0  0  0  0
  -25.2080  -13.8400   20.5270 C   0  0  0  0  0  0  0  0  0  0  0  0
  -24.1410  -13.0660   20.8980 C   0  0  0  0  0  0  0  0  0  0  0  0
  -24.6050  -11.7160   20.8700 C   0  0  0  0  0  0  0  0  0  0  0  0
  -26.2530  -12.9590   20.2970 N   0  0  0  0  0  0  0  0  0  0  0  0
  -25.8960  -11.6770   20.5630 N   0  0  0  0  0  0  0  0  0  0  0  0
  -23.8800  -10.4530   21.0620 C   0  0  0  0  0  0  0  0  0  0  0  0
  -24.3240   -9.4800   21.9850 C   0  0  0  0  0  3  0  0  0  0  0  0
  -23.6000   -8.2820   22.1650 C   0  0  0  0  0  3  0  0  0  0  0  0
  -22.4160   -8.0490   21.4230 C   0  0  0  0  0  0  0  0  0  0  0  0
  -21.9930   -9.0100   20.4890 C   0  0  0  0  0  3  0  0  0  0  0  0
  -22.7180  -10.1990   20.3070 C   0  0  0  0  0  3  0  0  0  0  0  0
  -21.6630   -6.9040   21.5140 O   0  0  0  0  0  0  0  0  0  0  0  0
  -21.6400   -6.1460   22.6570 C   0  0  0  0  0  0  0  0  0  0  0  0
  -21.2480   -6.6850   23.9010 C   0  0  0  0  0  3  0  0  0  0  0  0
  -21.1720   -5.8540   25.0360 C   0  0  0  0  0  3  0  0  0  0  0  0
  -21.4780   -4.4850   24.9290 C   0  0  0  0  0  0  0  0  0  0  0  0
  -21.8620   -3.9440   23.6890 C   0  0  0  0  0  3  0  0  0  0  0  0
  -21.9400   -4.7720   22.5560 C   0  0  0  0  0  0  0  0  0  0  0  0
  -22.2920   -4.2420   21.3600 F   0  0  0  0  0  0  0  0  0  0  0  0
  -21.3980   -3.6840   26.0170 F   0  0  0  0  0  0  0  0  0  0  0  0
  -22.7430  -13.5430   21.1700 C   0  0  0  0  0  0  0  0  0  0  0  0
  -22.0160  -12.8470   22.0370 N   0  0  0  0  0  0  0  0  0  0  0  0
  -22.3040  -14.5660   20.6480 O   0  0  0  0  0  0  0  0  0  0  0  0
  -22.3830  -12.0190   22.4810 H   0  0  0  0  0  0  0  0  0  0  0  0
  -21.0780  -13.1480   22.2600 H   0  0  0  0  0  0  0  0  0  0  0  0
  -25.3690  -15.2110   20.3460 N   0  0  0  0  0  0  0  0  0  0  0  0
  -24.5980  -15.8600   20.4550 H   0  0  0  0  0  0  0  0  0  0  0  0
  -26.2120  -15.6540   20.0060 H   0  0  0  0  0  0  0  0  0  0  0  0
  1  2  1  0
  1  6  1  0
  2  4  1  0
  3  1  2  0
  5  6  2  0
  6  7  1  0
  7  8  1  0
  9  5  1  0
 10 21  2  0
 11  9  1  0
 11 16  1  0
 12 20  1  0
 12 22  1  0
 13 19  1  0
 13 15  1  0
 14 20  1  0
 15 14  1  0
 16 15  2  0
 17 18  1  0
 17 11  2  0
 18 13  2  0
 19 12  1  0
 20 10  1  0
 22 24  2  0
 23 22  1  0
 25 23  1  0
 26 35  2  0
 26 31  1  0
 27 23  1  0
 27 31  1  0
 28 27  1  0
 29 30  1  0
 29 28  1  0
 30 26  1  0
 31 32  2  0
 32 33  1  0
 34 33  2  0
 35 34  1  0
 36 10  1  0
 36 41  1  0
 36 37  1  0
 37 40  1  1
 37 38  1  0
 39 37  1  0
 41 44  1  0
 42 46  1  0
 42 41  1  0
 43 42  2  0
 46 45  1  0
 48 46  1  0
 48 49  1  0
 48 47  1  0
 51  2  1  0
 51 50  1  0
 52 66  1  0
 53 58  1  0
 54 55  1  0
 54 53  1  0
 56 55  1  0
 56 71  1  0
 56 57  1  0
 58 52  1  0
 58 57  1  0
 59 52  2  0
 60 62  1  0
 61 64  1  0
 61 60  2  0
 62 65  2  0
 62 66  1  0
 63 51  1  0
 63 65  1  0
 64 63  2  0
 66 67  1  0
 68 69  2  0
 69 88  1  0
 70 69  1  0
 70 73  1  0
 71 68  1  0
 71 72  1  0
 72 70  2  0
 73 74  1  0
 74 75  2  0
 76 79  1  0
 76 75  1  0
 77 76  2  0
 78 77  1  0
 78 73  2  0
 79 80  1  0
 80 81  1  0
 81 82  2  0
 83 82  1  0
 83 87  1  0
 84 83  2  0
 85 80  2  0
 85 84  1  0
 86 85  1  0
 88 89  1  0
 89 92  1  0
 89 91  1  0
 90 88  2  0
 93 94  1  0
 93 68  1  0
 95 93  1  0
M  ISO  4   5 101   9 101  52 100  66 100
M  END
>  <TORSDO>  (74) 
F 19

>  <SCORE>  (74) 
-14.936

>  <name>  (74) 
74

>  <ligand_id>  (74) 
74

>  <original_smiles>  (74) 
[H]OC(C(=O)N([H])C([H])(c1nc([H])c([H])c(N([H])C(=O)N2C([H])([H])C([H])([H])C([H])([H])C([H])(n3nc(-c4c([H])c([H])c(Oc5c([H])c([H])c(F)c([H])c5F)c([H])c4[H])c(C(=O)N([H])[H])c3N([H])[H])C2([H])[H])n1)C([H])([H])[H])=C([H])Oc1c([H])c([H])c2c(c1[H])C([H])([H])N(C(=O)C([H])(N([H])C(=O)C([H])(N([H])C([H])([H])[H])C([H])([H])[H])C(C([H])([H])[H])(C([H])([H])[H])C([H])([H])[H])C([H])(C(=O)N([H])C1([H])c3c([H])c([H])c([H])c([H])c3C([H])([H])C([H])([H])C1([H])[H])C2([H])[H]

>  <smiles>  (74) 
[H]OC(C(=O)N([H])C([H])(c1nc([H])c([H])c(N([H])C(=O)N2C([H])([H])C([H])([H])C([H])([H])C([H])(n3nc(-c4c([H])c([H])c(Oc5c([H])c([H])c(F)c([H])c5F)c([H])c4[H])c(C(=O)N([H])[H])c3N([H])[H])C2([H])[H])n1)C([H])([H])[H])=C([H])Oc1c([H])c([H])c2c(c1[H])C([H])([H])N(C(=O)C([H])(N([H])C(=O)C([H])(N([H])C([H])([H])[H])C([H])([H])[H])C(C([H])([H])[H])(C([H])([H])[H])C([H])([H])[H])C([H])(C(=O)N([H])C1([H])c3c([H])c([H])c([H])c([H])c3C([H])([H])C([H])([H])C1([H])[H])C2([H])[H]

$$$$
75:0:0
     RDKit          3D

 93101  0  0  1  0  0  0  0  0999 V2000
  -28.8560  -22.8450   20.9220 C   0  0  0  0  0  0  0  0  0  0  0  0
  -31.1830  -22.0890   20.5390 C   0  0  0  0  0  1  0  0  0  0  0  0
  -29.7890  -21.8500   20.9300 N   0  0  0  0  0  0  0  0  0  0  0  0
  -27.6690  -22.5970   21.1570 O   0  0  0  0  0  0  0  0  0  0  0  0
  -29.5090  -20.4840   21.4660 C   0  0  0  0  0  2  0  0  0  0  0  0
  -29.7190  -18.3160   18.3000 C   0  0  0  0  0  3  0  0  0  0  0  0
  -29.6190  -19.4480   19.1220 C   0  0  0  0  0  3  0  0  0  0  0  0
  -29.8430  -17.0490   18.8970 C   0  0  0  0  0  3  0  0  0  0  0  0
  -29.6440  -19.2790   20.5160 C   0  0  0  0  0  0  0  0  0  0  0  0
  -29.8790  -16.9240   20.3050 C   0  0  0  0  0  0  0  0  0  0  0  0
  -29.7600  -18.0410   21.0840 N   0  0  0  0  0  0  0  0  0  0  0  0
  -30.6350  -14.5500   20.4050 C   0  0  0  0  0  0  0  0  0  0  0  0
  -30.3390  -12.3680   19.2960 C   0  0  0  0  0  2  0  0  0  0  0  0
  -29.3970  -12.5760   18.0890 C   0  0  0  0  0  2  0  0  0  0  0  0
  -27.9220  -12.4550   18.5150 C   0  0  0  0  0  2  0  0  0  0  0  0
  -27.5900  -13.2870   19.7820 C   0  0  0  0  0  3  0  0  0  0  0  0
  -28.6450  -13.0670   20.8900 C   0  0  0  0  0  2  0  0  0  0  0  0
  -29.9730  -13.3590   20.3250 N   0  0  0  0  0  0  0  0  0  0  0  0
  -31.7760  -14.6960   19.9560 O   0  0  0  0  0  0  0  0  0  0  0  0
  -29.9230  -15.6060   20.8730 N   0  0  0  0  0  0  0  0  0  0  0  0
  -29.1430  -15.3750   21.4670 H   0  0  0  0  0  0  0  0  0  0  0  0
  -25.1950  -13.9030   20.4910 C   0  0  0  0  0  0  0  0  0  0  0  0
  -24.1250  -13.1370   20.8660 C   0  0  0  0  0  0  0  0  0  0  0  0
  -24.5810  -11.7820   20.8410 C   0  0  0  0  0  0  0  0  0  0  0  0
  -26.2370  -13.0170   20.2630 N   0  0  0  0  0  0  0  0  0  0  0  0
  -25.8710  -11.7370   20.5320 N   0  0  0  0  0  0  0  0  0  0  0  0
  -23.8480  -10.5230   21.0370 C   0  0  0  0  0  0  0  0  0  0  0  0
  -24.2880   -9.5510   21.9630 C   0  0  0  0  0  3  0  0  0  0  0  0
  -23.5570   -8.3570   22.1490 C   0  0  0  0  0  3  0  0  0  0  0  0
  -22.3740   -8.1270   21.4090 C   0  0  0  0  0  0  0  0  0  0  0  0
  -21.9530   -9.0860   20.4710 C   0  0  0  0  0  3  0  0  0  0  0  0
  -22.6840  -10.2720   20.2830 C   0  0  0  0  0  3  0  0  0  0  0  0
  -21.6140   -6.9850   21.5020 O   0  0  0  0  0  0  0  0  0  0  0  0
  -21.5830   -6.2320   22.6490 C   0  0  0  0  0  0  0  0  0  0  0  0
  -21.2000   -6.7820   23.8910 C   0  0  0  0  0  3  0  0  0  0  0  0
  -21.1180   -5.9580   25.0320 C   0  0  0  0  0  3  0  0  0  0  0  0
  -21.4070   -4.5840   24.9290 C   0  0  0  0  0  0  0  0  0  0  0  0
  -21.7840   -4.0320   23.6920 C   0  0  0  0  0  3  0  0  0  0  0  0
  -21.8690   -4.8550   22.5550 C   0  0  0  0  0  0  0  0  0  0  0  0
  -22.2110   -4.3150   21.3600 F   0  0  0  0  0  0  0  0  0  0  0  0
  -21.3210   -3.7900   26.0230 F   0  0  0  0  0  0  0  0  0  0  0  0
  -22.7290  -13.6180   21.1370 C   0  0  0  0  0  0  0  0  0  0  0  0
  -21.9980  -12.9310   22.0090 N   0  0  0  0  0  0  0  0  0  0  0  0
  -22.2930  -14.6390   20.6070 O   0  0  0  0  0  0  0  0  0  0  0  0
  -22.3620  -12.1050   22.4620 H   0  0  0  0  0  0  0  0  0  0  0  0
  -21.0600  -13.2350   22.2290 H   0  0  0  0  0  0  0  0  0  0  0  0
  -25.3690  -15.2720   20.3060 N   0  0  0  0  0  0  0  0  0  0  0  0
  -24.6080  -15.9350   20.4070 H   0  0  0  0  0  0  0  0  0  0  0  0
  -26.2210  -15.6990   19.9680 H   0  0  0  0  0  0  0  0  0  0  0  0
  -29.2570  -24.3460   20.7150 C   0  0  0  0  0  2  0  0  0  0  0  0
  -28.4270  -24.9460   18.3740 C   0  0  0  0  0  1  0  0  0  0  0  0
  -28.2550  -25.2060   19.8820 C   0  0  0  0  0  3  0  0  0  0  0  0
  -28.3650  -26.6370   20.1390 O   0  0  0  0  0  0  0  0  0  0  0  0
  -24.6230  -31.9020   23.2260 C   0  0  0  0  0  0  0  0  0  0  0  0
  -27.2060  -27.4110   20.1140 C   0  0  0  0  0  0  0  0  0  0  0  0
  -23.3980  -30.5080   21.5970 C   0  0  0  0  0  3  0  0  0  0  0  0
  -24.8290  -28.9730   20.1510 C   0  0  0  0  0  0  0  0  0  0  0  0
  -25.9310  -30.8430   21.3800 C   0  0  0  0  0  2  0  0  0  0  0  0
  -26.0000  -29.4740   20.7310 C   0  0  0  0  0  0  0  0  0  0  0  0
  -27.1910  -28.7020   20.7080 C   0  0  0  0  0  3  0  0  0  0  0  0
  -26.0060  -26.9470   19.5210 C   0  0  0  0  0  3  0  0  0  0  0  0
  -24.8290  -27.7100   19.5450 C   0  0  0  0  0  3  0  0  0  0  0  0
  -23.5920  -29.8410   20.2110 C   0  0  0  0  0  2  0  0  0  0  0  0
  -24.6700  -31.0990   22.1240 N   0  0  0  0  0  0  0  0  0  0  0  0
  -23.5470  -32.1770   23.7730 O   0  0  0  0  0  0  0  0  0  0  0  0
  -22.7510  -29.4850   22.5590 C   0  0  0  0  0  0  0  0  0  0  0  0
  -21.4260  -29.3010   22.4390 N   0  0  0  0  0  0  0  0  0  0  0  0
  -23.4380  -28.8590   23.3700 O   0  0  0  0  0  0  0  0  0  0  0  0
  -20.9270  -29.8570   21.7580 H   0  0  0  0  0  0  0  0  0  0  0  0
  -18.0580  -28.0900   22.9490 C   0  0  0  0  0  0  0  0  0  0  0  0
  -20.6160  -28.3620   23.2160 C   0  0  0  0  0  3  0  0  0  0  0  0
  -20.7250  -26.9280   22.6490 C   0  0  0  0  0  2  0  0  0  0  0  0
  -19.6250  -26.5930   21.6380 C   0  0  0  0  0  2  0  0  0  0  0  0
  -18.2430  -26.7370   22.2820 C   0  0  0  0  0  2  0  0  0  0  0  0
  -19.1750  -28.8590   23.3740 C   0  0  0  0  0  0  0  0  0  0  0  0
  -18.9520  -30.1240   23.9580 C   0  0  0  0  0  3  0  0  0  0  0  0
  -17.6460  -30.6230   24.1200 C   0  0  0  0  0  3  0  0  0  0  0  0
  -16.5440  -29.8510   23.7130 C   0  0  0  0  0  3  0  0  0  0  0  0
  -16.7520  -28.5850   23.1340 C   0  0  0  0  0  3  0  0  0  0  0  0
  -25.9160  -32.5290   23.8320 C   0  0  0  0  0  3  0  0  0  0  0  0
  -26.4520  -31.7490   25.0950 C   0  0  1  0  0  0  0  0  0  0  0  0
  -25.3760  -31.5050   26.1780 C   0  0  0  0  0  1  0  0  0  0  0  0
  -27.0310  -30.3740   24.6860 C   0  0  0  0  0  1  0  0  0  0  0  0
  -27.6100  -32.5410   25.7470 C   0  0  0  0  0  1  0  0  0  0  0  0
  -25.6100  -33.9240   24.1750 N   0  0  0  0  0  0  0  0  0  0  0  0
  -25.9310  -34.9820   23.4170 C   0  0  0  0  0  0  0  0  0  0  0  0
  -26.5910  -34.8850   22.3780 O   0  0  0  0  0  0  0  0  0  0  0  0
  -25.0230  -34.0750   24.9830 H   0  0  0  0  0  0  0  0  0  0  0  0
  -24.1980  -36.7740   23.0900 C   0  0  0  0  0  1  0  0  0  0  0  0
  -25.4470  -36.3670   23.8880 C   0  0  0  0  0  3  0  0  0  0  0  0
  -27.5890  -37.2440   24.7020 C   0  0  0  0  0  1  0  0  0  0  0  0
  -26.4770  -37.4210   23.7730 N   0  0  0  0  0  0  0  0  0  0  0  0
  -26.0720  -38.3400   23.9340 H   0  0  0  0  0  0  0  0  0  0  0  0
  1  3  1  0
  1  4  2  0
  2  3  1  0
  3  5  1  0
  6  8  2  0
  6  7  1  0
  7  9  2  0
  8 10  1  0
  9 11  1  0
  9  5  1  0
 10 20  1  0
 10 11  2  0
 12 20  1  0
 13 18  1  0
 14 15  1  0
 14 13  1  0
 16 15  1  0
 16 25  1  0
 16 17  1  0
 18 12  1  0
 18 17  1  0
 19 12  2  0
 20 21  1  0
 22 23  2  0
 23 42  1  0
 24 23  1  0
 24 27  1  0
 25 22  1  0
 25 26  1  0
 26 24  2  0
 27 28  1  0
 28 29  2  0
 30 33  1  0
 30 29  1  0
 31 30  2  0
 32 31  1  0
 32 27  2  0
 33 34  1  0
 34 35  1  0
 35 36  2  0
 37 36  1  0
 37 41  1  0
 38 37  2  0
 39 34  2  0
 39 38  1  0
 40 39  1  0
 42 43  1  0
 43 46  1  0
 43 45  1  0
 44 42  2  0
 47 48  1  0
 47 22  1  0
 49 47  1  0
 50  1  1  0
 52 51  1  0
 52 53  1  0
 52 50  1  0
 54 65  2  0
 55 53  1  0
 55 60  1  0
 56 64  1  0
 56 66  1  0
 57 63  1  0
 57 59  1  0
 58 64  1  0
 59 58  1  0
 60 59  2  0
 61 62  1  0
 61 55  2  0
 62 57  2  0
 63 56  1  0
 64 54  1  0
 66 68  2  0
 67 66  1  0
 69 67  1  0
 70 79  2  0
 70 75  1  0
 71 67  1  0
 71 75  1  0
 72 71  1  0
 73 74  1  0
 73 72  1  0
 74 70  1  0
 75 76  2  0
 76 77  1  0
 78 77  2  0
 79 78  1  0
 80 54  1  0
 80 85  1  0
 80 81  1  0
 81 84  1  1
 81 82  1  0
 83 81  1  0
 85 88  1  0
 86 90  1  0
 86 85  1  0
 87 86  2  0
 90 89  1  0
 92 90  1  0
 92 93  1  0
 92 91  1  0
M  ISO  4  12 100  20 100  52 101  53 101
M  END
>  <TORSDO>  (75) 
F 20

>  <SCORE>  (75) 
-13.985

>  <name>  (75) 
75

>  <ligand_id>  (75) 
75

>  <original_smiles>  (75) 
[H]c1c(N([H])C(=O)N2C([H])([H])C([H])([H])C([H])([H])C([H])(n3nc(-c4c([H])c([H])c(Oc5c([H])c([H])c(F)c([H])c5F)c([H])c4[H])c(C(=O)N([H])[H])c3N([H])[H])C2([H])[H])nc(C([H])([H])N(C(=O)C([H])([H])C([H])(Oc2c([H])c([H])c3c(c2[H])C([H])([H])N(C(=O)C([H])(N([H])C(=O)C([H])(N([H])C([H])([H])[H])C([H])([H])[H])C(C([H])([H])[H])(C([H])([H])[H])C([H])([H])[H])C([H])(C(=O)N([H])C2([H])c4c([H])c([H])c([H])c([H])c4C([H])([H])C([H])([H])C2([H])[H])C3([H])[H])C([H])([H])[H])C([H])([H])[H])c([H])c1[H]

>  <smiles>  (75) 
[H]c1c(N([H])C(=O)N2C([H])([H])C([H])([H])C([H])([H])C([H])(n3nc(-c4c([H])c([H])c(Oc5c([H])c([H])c(F)c([H])c5F)c([H])c4[H])c(C(=O)N([H])[H])c3N([H])[H])C2([H])[H])nc(C([H])([H])N(C(=O)C([H])([H])C([H])(Oc2c([H])c([H])c3c(c2[H])C([H])([H])N(C(=O)C([H])(N([H])C(=O)C([H])(N([H])C([H])([H])[H])C([H])([H])[H])C(C([H])([H])[H])(C([H])([H])[H])C([H])([H])[H])C([H])(C(=O)N([H])C2([H])c4c([H])c([H])c([H])c([H])c4C([H])([H])C([H])([H])C2([H])[H])C3([H])[H])C([H])([H])[H])C([H])([H])[H])c([H])c1[H]

$$$$
76:0:0
     RDKit          3D

 95103  0  0  1  0  0  0  0  0999 V2000
  -30.1120  -21.2130   20.4120 C   0  0  0  0  0  0  0  0  0  0  0  0
  -29.5340  -21.9710   21.3730 N   0  0  0  0  0  0  0  0  0  0  0  0
  -30.7130  -21.8200   19.3770 N   0  0  0  0  0  4  0  0  0  0  0  0
  -29.0380  -21.4730   22.0990 H   0  0  0  0  0  0  0  0  0  0  0  0
  -31.1200  -21.2970   18.6160 H   0  0  0  0  0  0  0  0  0  0  0  0
  -30.4850  -22.7930   19.1830 H   0  0  0  0  0  0  0  0  0  0  0  0
  -30.7810  -14.5380   20.1320 C   0  0  0  0  0  0  0  0  0  0  0  0
  -30.4370  -12.4080   18.9350 C   0  0  0  0  0  2  0  0  0  0  0  0
  -29.4280  -12.6540   17.7940 C   0  0  0  0  0  2  0  0  0  0  0  0
  -27.9790  -12.5060   18.2980 C   0  0  0  0  0  2  0  0  0  0  0  0
  -27.7150  -13.2970   19.6080 C   0  0  0  0  0  3  0  0  0  0  0  0
  -28.8290  -13.0230   20.6440 C   0  0  0  0  0  2  0  0  0  0  0  0
  -30.1230  -13.3510   20.0190 N   0  0  0  0  0  0  0  0  0  0  0  0
  -31.8790  -14.7350   19.5980 O   0  0  0  0  0  0  0  0  0  0  0  0
  -28.9620  -19.0350   20.9750 C   0  0  0  0  0  3  0  0  0  0  0  0
  -29.0010  -17.6250   21.0610 C   0  0  0  0  0  3  0  0  0  0  0  0
  -31.2110  -18.9520   20.1510 C   0  0  0  0  0  3  0  0  0  0  0  0
  -30.0920  -19.7350   20.5050 C   0  0  0  0  0  0  0  0  0  0  0  0
  -30.1580  -16.9180   20.6680 C   0  0  0  0  0  0  0  0  0  0  0  0
  -31.2450  -17.5960   20.2260 N   0  0  0  0  0  0  0  0  0  0  0  0
  -30.0790  -15.4980   20.7700 N   0  0  0  0  0  0  0  0  0  0  0  0
  -29.2360  -15.1530   21.1980 H   0  0  0  0  0  0  0  0  0  0  0  0
  -25.3600  -13.8890   20.4640 C   0  0  0  0  0  0  0  0  0  0  0  0
  -24.3120  -13.1070   20.8700 C   0  0  0  0  0  0  0  0  0  0  0  0
  -24.7660  -11.7570   20.7730 C   0  0  0  0  0  0  0  0  0  0  0  0
  -26.3880  -13.0120   20.1490 N   0  0  0  0  0  0  0  0  0  0  0  0
  -26.0360  -11.7240   20.3910 N   0  0  0  0  0  0  0  0  0  0  0  0
  -24.0490  -10.4900   20.9660 C   0  0  0  0  0  0  0  0  0  0  0  0
  -24.4970   -9.5210   21.8920 C   0  0  0  0  0  3  0  0  0  0  0  0
  -23.7810   -8.3190   22.0720 C   0  0  0  0  0  3  0  0  0  0  0  0
  -22.6020   -8.0770   21.3290 C   0  0  0  0  0  0  0  0  0  0  0  0
  -22.1720   -9.0340   20.3920 C   0  0  0  0  0  3  0  0  0  0  0  0
  -22.8900  -10.2280   20.2090 C   0  0  0  0  0  3  0  0  0  0  0  0
  -21.8550   -6.9260   21.4190 O   0  0  0  0  0  0  0  0  0  0  0  0
  -21.7790   -6.2080   22.5860 C   0  0  0  0  0  0  0  0  0  0  0  0
  -21.2620   -6.7700   23.7730 C   0  0  0  0  0  3  0  0  0  0  0  0
  -21.1350   -5.9750   24.9300 C   0  0  0  0  0  3  0  0  0  0  0  0
  -21.5150   -4.6200   24.9000 C   0  0  0  0  0  0  0  0  0  0  0  0
  -22.0260   -4.0580   23.7170 C   0  0  0  0  0  3  0  0  0  0  0  0
  -22.1530   -4.8490   22.5620 C   0  0  0  0  0  0  0  0  0  0  0  0
  -22.6260   -4.2970   21.4190 F   0  0  0  0  0  0  0  0  0  0  0  0
  -21.3870   -3.8550   26.0100 F   0  0  0  0  0  0  0  0  0  0  0  0
  -22.9340  -13.5780   21.2340 C   0  0  0  0  0  0  0  0  0  0  0  0
  -22.2480  -12.8520   22.1110 N   0  0  0  0  0  0  0  0  0  0  0  0
  -22.4740  -14.6240   20.7770 O   0  0  0  0  0  0  0  0  0  0  0  0
  -22.6330  -12.0050   22.5030 H   0  0  0  0  0  0  0  0  0  0  0  0
  -21.3250  -13.1490   22.3950 H   0  0  0  0  0  0  0  0  0  0  0  0
  -25.5200  -15.2630   20.3170 N   0  0  0  0  0  0  0  0  0  0  0  0
  -24.7550  -15.9100   20.4760 H   0  0  0  0  0  0  0  0  0  0  0  0
  -26.3350  -15.7080   19.9160 H   0  0  0  0  0  0  0  0  0  0  0  0
  -29.6480  -23.4280   21.6550 C   0  0  0  0  0  2  0  0  0  0  0  0
  -29.0820  -24.4120   20.6150 C   0  0  0  0  0  0  0  0  0  0  0  0
  -29.1330  -24.1680   19.4030 O   0  0  0  0  0  0  0  0  0  0  0  0
  -28.4950  -25.7310   21.1600 C   0  0  0  0  0  2  0  0  0  0  0  0
  -28.4950  -26.7780   20.1760 O   0  0  0  0  0  0  0  0  0  0  0  0
  -24.5500  -31.8920   23.1970 C   0  0  0  0  0  0  0  0  0  0  0  0
  -27.3330  -27.5110   20.1660 C   0  0  0  0  0  0  0  0  0  0  0  0
  -23.4020  -30.4780   21.5210 C   0  0  0  0  0  3  0  0  0  0  0  0
  -24.9140  -28.9690   20.1240 C   0  0  0  0  0  0  0  0  0  0  0  0
  -25.9250  -30.8790   21.3820 C   0  0  0  0  0  2  0  0  0  0  0  0
  -26.0490  -29.5120   20.7420 C   0  0  0  0  0  0  0  0  0  0  0  0
  -27.2640  -28.7900   20.7610 C   0  0  0  0  0  3  0  0  0  0  0  0
  -26.1860  -26.9760   19.5440 C   0  0  0  0  0  3  0  0  0  0  0  0
  -24.9770  -27.6980   19.5230 C   0  0  0  0  0  3  0  0  0  0  0  0
  -23.6550  -29.8050   20.1450 C   0  0  0  0  0  2  0  0  0  0  0  0
  -24.6420  -31.0980   22.0930 N   0  0  0  0  0  0  0  0  0  0  0  0
  -23.4530  -32.1460   23.7150 O   0  0  0  0  0  0  0  0  0  0  0  0
  -22.7460  -29.4440   22.4630 C   0  0  0  0  0  0  0  0  0  0  0  0
  -21.4190  -29.2740   22.3330 N   0  0  0  0  0  0  0  0  0  0  0  0
  -23.4250  -28.7970   23.2650 O   0  0  0  0  0  0  0  0  0  0  0  0
  -20.9330  -29.8470   21.6590 H   0  0  0  0  0  0  0  0  0  0  0  0
  -18.0300  -28.1320   22.8470 C   0  0  0  0  0  0  0  0  0  0  0  0
  -20.5970  -28.3270   23.0860 C   0  0  0  0  0  3  0  0  0  0  0  0
  -20.6600  -26.9150   22.4600 C   0  0  0  0  0  2  0  0  0  0  0  0
  -19.5350  -26.6500   21.4540 C   0  0  0  0  0  2  0  0  0  0  0  0
  -18.1670  -26.8030   22.1240 C   0  0  0  0  0  2  0  0  0  0  0  0
  -19.1720  -28.8560   23.2840 C   0  0  0  0  0  0  0  0  0  0  0  0
  -18.9900  -30.1030   23.9200 C   0  0  0  0  0  3  0  0  0  0  0  0
  -17.6990  -30.6270   24.1220 C   0  0  0  0  0  3  0  0  0  0  0  0
  -16.5730  -29.9000   23.7020 C   0  0  0  0  0  3  0  0  0  0  0  0
  -16.7390  -28.6540   23.0710 C   0  0  0  0  0  3  0  0  0  0  0  0
  -25.8140  -32.5380   23.8480 C   0  0  0  0  0  3  0  0  0  0  0  0
  -26.3140  -31.7690   25.1330 C   0  0  1  0  0  0  0  0  0  0  0  0
  -25.1990  -31.5080   26.1730 C   0  0  0  0  0  1  0  0  0  0  0  0
  -26.9310  -30.4040   24.7490 C   0  0  0  0  0  1  0  0  0  0  0  0
  -27.4330  -32.5810   25.8270 C   0  0  0  0  0  1  0  0  0  0  0  0
  -25.4820  -33.9300   24.1710 N   0  0  0  0  0  0  0  0  0  0  0  0
  -25.8130  -34.9850   23.4150 C   0  0  0  0  0  0  0  0  0  0  0  0
  -26.5030  -34.8890   22.3960 O   0  0  0  0  0  0  0  0  0  0  0  0
  -24.8690  -34.0790   24.9610 H   0  0  0  0  0  0  0  0  0  0  0  0
  -24.0780  -36.7600   23.0140 C   0  0  0  0  0  1  0  0  0  0  0  0
  -25.2980  -36.3670   23.8610 C   0  0  0  0  0  3  0  0  0  0  0  0
  -27.3910  -37.2800   24.7640 C   0  0  0  0  0  1  0  0  0  0  0  0
  -26.3230  -37.4310   23.7790 N   0  0  0  0  0  0  0  0  0  0  0  0
  -25.9020  -38.3470   23.9060 H   0  0  0  0  0  0  0  0  0  0  0  0
  1 18  1  0
  1  2  1  0
  2 51  1  0
  2  4  1  0
  3  1  2  0
  5  3  1  0
  6  3  1  0
  7 21  1  0
  8 13  1  0
  9 10  1  0
  9  8  1  0
 11 10  1  0
 11 26  1  0
 11 12  1  0
 13  7  1  0
 13 12  1  0
 14  7  2  0
 15 16  1  0
 17 20  2  0
 17 18  1  0
 18 15  2  0
 19 21  1  0
 19 16  2  0
 20 19  1  0
 21 22  1  0
 23 24  2  0
 24 43  1  0
 25 24  1  0
 25 28  1  0
 26 27  1  0
 26 23  1  0
 27 25  2  0
 28 29  1  0
 29 30  2  0
 31 34  1  0
 31 30  1  0
 32 31  2  0
 33 32  1  0
 33 28  2  0
 34 35  1  0
 35 36  1  0
 36 37  2  0
 38 37  1  0
 38 42  1  0
 39 38  2  0
 40 35  2  0
 40 39  1  0
 41 40  1  0
 43 44  1  0
 44 47  1  0
 44 46  1  0
 45 43  2  0
 48 23  1  0
 48 49  1  0
 50 48  1  0
 52 54  1  0
 52 51  1  0
 53 52  2  0
 55 54  1  0
 56 67  2  0
 57 55  1  0
 57 62  1  0
 58 66  1  0
 58 68  1  0
 59 65  1  0
 59 61  1  0
 60 66  1  0
 61 62  2  0
 61 60  1  0
 63 57  2  0
 64 63  1  0
 64 59  2  0
 65 58  1  0
 66 56  1  0
 68 70  2  0
 69 68  1  0
 71 69  1  0
 72 81  2  0
 72 77  1  0
 73 69  1  0
 73 77  1  0
 74 73  1  0
 75 76  1  0
 75 74  1  0
 76 72  1  0
 77 78  2  0
 78 79  1  0
 80 79  2  0
 81 80  1  0
 82 56  1  0
 82 87  1  0
 82 83  1  0
 83 86  1  1
 83 84  1  0
 85 83  1  0
 87 90  1  0
 88 92  1  0
 88 87  1  0
 89 88  2  0
 92 91  1  0
 94 92  1  0
 94 95  1  0
 94 93  1  0
M  ISO  4   7 100  21 100  54 101  55 101
M  END
>  <TORSDO>  (76) 
F 19

>  <SCORE>  (76) 
-13.915

>  <name>  (76) 
76

>  <ligand_id>  (76) 
76

>  <original_smiles>  (76) 
[H]c1nc(N([H])C(=O)N2C([H])([H])C([H])([H])C([H])([H])C([H])(n3nc(-c4c([H])c([H])c(Oc5c([H])c([H])c(F)c([H])c5F)c([H])c4[H])c(C(=O)N([H])[H])c3N([H])[H])C2([H])[H])c([H])c([H])c1C(N([H])C([H])([H])C(=O)C([H])([H])Oc1c([H])c([H])c2c(c1[H])C([H])([H])N(C(=O)C([H])(N([H])C(=O)C([H])(N([H])C([H])([H])[H])C([H])([H])[H])C(C([H])([H])[H])(C([H])([H])[H])C([H])([H])[H])C([H])(C(=O)N([H])C1([H])c3c([H])c([H])c([H])c([H])c3C([H])([H])C([H])([H])C1([H])[H])C2([H])[H])=[N+]([H])[H]

>  <smiles>  (76) 
[H]c1nc(N([H])C(=O)N2C([H])([H])C([H])([H])C([H])([H])C([H])(n3nc(-c4c([H])c([H])c(Oc5c([H])c([H])c(F)c([H])c5F)c([H])c4[H])c(C(=O)N([H])[H])c3N([H])[H])C2([H])[H])c([H])c([H])c1C(N([H])C([H])([H])C(=O)C([H])([H])Oc1c([H])c([H])c2c(c1[H])C([H])([H])N(C(=O)C([H])(N([H])C(=O)C([H])(N([H])C([H])([H])[H])C([H])([H])[H])C(C([H])([H])[H])(C([H])([H])[H])C([H])([H])[H])C([H])(C(=O)N([H])C1([H])c3c([H])c([H])c([H])c([H])c3C([H])([H])C([H])([H])C1([H])[H])C2([H])[H])=[N+]([H])[H]

$$$$
77:0:0
     RDKit          3D

 95104  0  0  1  0  0  0  0  0999 V2000
  -28.6800  -23.8350   19.9500 C   0  0  0  0  0  0  0  0  0  0  0  0
  -30.0920  -23.3910   20.4480 C   0  0  0  0  0  2  0  0  0  0  0  0
  -27.9870  -21.4850   19.9960 C   0  0  0  0  0  2  0  0  0  0  0  0
  -29.4670  -21.0640   19.7320 C   0  0  0  0  0  3  0  0  0  0  0  0
  -27.7390  -22.9560   19.8030 N   0  0  0  0  0  0  0  0  0  0  0  0
  -30.3020  -21.9010   20.6190 N   0  0  0  0  0  4  0  0  0  0  0  0
  -30.0730  -21.6430   21.5640 H   0  0  0  0  0  0  0  0  0  0  0  0
  -31.2710  -21.6780   20.4670 H   0  0  0  0  0  0  0  0  0  0  0  0
  -30.3810  -19.2980   18.1660 C   0  0  0  0  0  3  0  0  0  0  0  0
  -30.7440  -16.9840   18.7100 C   0  0  0  0  0  3  0  0  0  0  0  0
  -30.8070  -18.0270   17.7880 C   0  0  0  0  0  0  0  0  0  0  0  0
  -29.8870  -19.5400   19.4660 C   0  0  0  0  0  0  0  0  0  0  0  0
  -30.2670  -17.1970   20.0200 C   0  0  0  0  0  0  0  0  0  0  0  0
  -29.8360  -18.4820   20.3770 N   0  0  0  0  0  0  0  0  0  0  0  0
  -31.2670  -17.8020   16.5340 F   0  0  0  0  0  0  0  0  0  0  0  0
  -30.9340  -14.8270   20.7240 C   0  0  0  0  0  0  0  0  0  0  0  0
  -30.7460  -12.5560   19.7440 C   0  0  0  0  0  2  0  0  0  0  0  0
  -29.8920  -12.6630   18.4620 C   0  0  0  0  0  2  0  0  0  0  0  0
  -28.3940  -12.5250   18.7950 C   0  0  0  0  0  2  0  0  0  0  0  0
  -27.9620  -13.4120   19.9940 C   0  0  0  0  0  3  0  0  0  0  0  0
  -28.9480  -13.3030   21.1770 C   0  0  0  0  0  2  0  0  0  0  0  0
  -30.2890  -13.6160   20.6700 N   0  0  0  0  0  0  0  0  0  0  0  0
  -32.1420  -14.8920   20.4720 O   0  0  0  0  0  0  0  0  0  0  0  0
  -30.1790  -15.9790   20.8440 N   0  0  0  0  0  0  0  0  0  0  0  0
  -29.3000  -15.8660   21.3250 H   0  0  0  0  0  0  0  0  0  0  0  0
  -25.5300  -14.0180   20.5430 C   0  0  0  0  0  0  0  0  0  0  0  0
  -24.4420  -13.2500   20.8600 C   0  0  0  0  0  0  0  0  0  0  0  0
  -24.9050  -11.9000   20.8920 C   0  0  0  0  0  0  0  0  0  0  0  0
  -26.5870  -13.1350   20.3990 N   0  0  0  0  0  0  0  0  0  0  0  0
  -26.2140  -11.8560   20.6720 N   0  0  0  0  0  0  0  0  0  0  0  0
  -24.1670  -10.6420   21.0650 C   0  0  0  0  0  0  0  0  0  0  0  0
  -24.5410   -9.6940   22.0420 C   0  0  0  0  0  3  0  0  0  0  0  0
  -23.8050   -8.5000   22.2020 C   0  0  0  0  0  3  0  0  0  0  0  0
  -22.6780   -8.2460   21.3830 C   0  0  0  0  0  0  0  0  0  0  0  0
  -22.3230   -9.1840   20.3960 C   0  0  0  0  0  3  0  0  0  0  0  0
  -23.0600  -10.3680   20.2350 C   0  0  0  0  0  3  0  0  0  0  0  0
  -21.9180   -7.1040   21.4480 O   0  0  0  0  0  0  0  0  0  0  0  0
  -21.7990   -6.3860   22.6110 C   0  0  0  0  0  0  0  0  0  0  0  0
  -21.2980   -6.9660   23.7980 C   0  0  0  0  0  3  0  0  0  0  0  0
  -21.1260   -6.1740   24.9500 C   0  0  0  0  0  3  0  0  0  0  0  0
  -21.4430   -4.8030   24.9160 C   0  0  0  0  0  0  0  0  0  0  0  0
  -21.9350   -4.2220   23.7350 C   0  0  0  0  0  3  0  0  0  0  0  0
  -22.1100   -5.0120   22.5850 C   0  0  0  0  0  0  0  0  0  0  0  0
  -22.5650   -4.4430   21.4430 F   0  0  0  0  0  0  0  0  0  0  0  0
  -21.2700   -4.0400   26.0220 F   0  0  0  0  0  0  0  0  0  0  0  0
  -23.0290  -13.7340   21.0260 C   0  0  0  0  0  0  0  0  0  0  0  0
  -22.2490  -13.0660   21.8670 N   0  0  0  0  0  0  0  0  0  0  0  0
  -22.6270  -14.7410   20.4470 O   0  0  0  0  0  0  0  0  0  0  0  0
  -22.5830  -12.2490   22.3570 H   0  0  0  0  0  0  0  0  0  0  0  0
  -21.3010  -13.3760   22.0230 H   0  0  0  0  0  0  0  0  0  0  0  0
  -25.7050  -15.3840   20.3430 N   0  0  0  0  0  0  0  0  0  0  0  0
  -24.9300  -16.0370   20.3750 H   0  0  0  0  0  0  0  0  0  0  0  0
  -26.5770  -15.8170   20.0650 H   0  0  0  0  0  0  0  0  0  0  0  0
  -28.5400  -25.3240   19.3670 C   0  0  0  0  0  2  0  0  0  0  0  0
  -28.3510  -26.5320   20.2140 O   0  0  0  0  0  0  0  0  0  0  0  0
  -24.5560  -31.9120   23.1790 C   0  0  0  0  0  0  0  0  0  0  0  0
  -27.2140  -27.3620   20.1210 C   0  0  0  0  0  0  0  0  0  0  0  0
  -23.3640  -30.4950   21.5450 C   0  0  0  0  0  3  0  0  0  0  0  0
  -24.8270  -28.9570   20.1160 C   0  0  0  0  0  0  0  0  0  0  0  0
  -25.8990  -30.8370   21.3560 C   0  0  0  0  0  2  0  0  0  0  0  0
  -25.9910  -29.4570   20.7110 C   0  0  0  0  0  0  0  0  0  0  0  0
  -27.1820  -28.6680   20.7090 C   0  0  0  0  0  3  0  0  0  0  0  0
  -26.0190  -26.9110   19.5170 C   0  0  0  0  0  3  0  0  0  0  0  0
  -24.8450  -27.6900   19.5130 C   0  0  0  0  0  3  0  0  0  0  0  0
  -23.5790  -29.8140   20.1680 C   0  0  0  0  0  2  0  0  0  0  0  0
  -24.6240  -31.1020   22.0820 N   0  0  0  0  0  0  0  0  0  0  0  0
  -23.4720  -32.1800   23.7160 O   0  0  0  0  0  0  0  0  0  0  0  0
  -22.7160  -29.4760   22.5130 C   0  0  0  0  0  0  0  0  0  0  0  0
  -21.3880  -29.2950   22.4020 N   0  0  0  0  0  0  0  0  0  0  0  0
  -23.4040  -28.8500   23.3220 O   0  0  0  0  0  0  0  0  0  0  0  0
  -20.8900  -29.8520   21.7210 H   0  0  0  0  0  0  0  0  0  0  0  0
  -18.0200  -28.0910   22.9450 C   0  0  0  0  0  0  0  0  0  0  0  0
  -20.5810  -28.3540   23.1800 C   0  0  0  0  0  3  0  0  0  0  0  0
  -20.6770  -26.9240   22.5970 C   0  0  0  0  0  2  0  0  0  0  0  0
  -19.5620  -26.6040   21.5980 C   0  0  0  0  0  2  0  0  0  0  0  0
  -18.1890  -26.7450   22.2600 C   0  0  0  0  0  2  0  0  0  0  0  0
  -19.1430  -28.8540   23.3620 C   0  0  0  0  0  0  0  0  0  0  0  0
  -18.9300  -30.1140   23.9620 C   0  0  0  0  0  3  0  0  0  0  0  0
  -17.6260  -30.6110   24.1480 C   0  0  0  0  0  3  0  0  0  0  0  0
  -16.5180  -29.8470   23.7450 C   0  0  0  0  0  3  0  0  0  0  0  0
  -16.7160  -28.5880   23.1510 C   0  0  0  0  0  3  0  0  0  0  0  0
  -25.8330  -32.5630   23.7940 C   0  0  0  0  0  3  0  0  0  0  0  0
  -25.5050  -33.9560   24.1330 N   0  0  0  0  0  0  0  0  0  0  0  0
  -25.8330  -35.0200   23.3890 C   0  0  0  0  0  0  0  0  0  0  0  0
  -26.5130  -34.9330   22.3620 O   0  0  0  0  0  0  0  0  0  0  0  0
  -24.8990  -34.0950   24.9290 H   0  0  0  0  0  0  0  0  0  0  0  0
  -24.0980  -36.8060   23.0280 C   0  0  0  0  0  1  0  0  0  0  0  0
  -25.3270  -36.3980   23.8560 C   0  0  0  0  0  3  0  0  0  0  0  0
  -27.4400  -37.2860   24.7360 C   0  0  0  0  0  1  0  0  0  0  0  0
  -26.3520  -37.4600   23.7760 N   0  0  0  0  0  0  0  0  0  0  0  0
  -25.9380  -38.3750   23.9320 H   0  0  0  0  0  0  0  0  0  0  0  0
  -26.3690  -31.7950   25.0650 C   0  0  1  0  0  0  0  0  0  0  0  0
  -25.2860  -31.5400   26.1390 C   0  0  0  0  0  1  0  0  0  0  0  0
  -26.9690  -30.4260   24.6680 C   0  0  0  0  0  1  0  0  0  0  0  0
  -27.5140  -32.6030   25.7210 C   0  0  0  0  0  1  0  0  0  0  0  0
  1  2  1  0
  2  6  1  0
  4 12  1  0
  4  3  1  0
  4  6  1  0
  5  1  2  0
  5  3  1  0
  6  7  1  0
  8  6  1  0
  9 12  1  0
 10 13  2  0
 11  9  2  0
 11 10  1  0
 12 14  2  0
 13 14  1  0
 13 24  1  0
 15 11  1  0
 16 24  1  0
 17 22  1  0
 18 19  1  0
 18 17  1  0
 20 19  1  0
 20 29  1  0
 20 21  1  0
 22 16  1  0
 22 21  1  0
 23 16  2  0
 24 25  1  0
 26 27  2  0
 27 28  1  0
 27 46  1  0
 28 31  1  0
 29 26  1  0
 29 30  1  0
 30 28  2  0
 31 32  1  0
 32 33  2  0
 34 37  1  0
 34 33  1  0
 35 34  2  0
 36 35  1  0
 36 31  2  0
 37 38  1  0
 38 39  1  0
 39 40  2  0
 41 40  1  0
 41 45  1  0
 42 41  2  0
 43 38  2  0
 43 42  1  0
 44 43  1  0
 46 47  1  0
 47 50  1  0
 47 49  1  0
 48 46  2  0
 51 52  1  0
 51 26  1  0
 53 51  1  0
 54  1  1  0
 54 55  1  0
 56 67  2  0
 57 55  1  0
 57 62  1  0
 58 66  1  0
 58 68  1  0
 59 65  1  0
 59 61  1  0
 60 66  1  0
 61 60  1  0
 62 61  2  0
 63 57  2  0
 64 63  1  0
 64 59  2  0
 65 58  1  0
 66 56  1  0
 68 70  2  0
 69 68  1  0
 71 69  1  0
 72 81  2  0
 72 77  1  0
 73 69  1  0
 73 77  1  0
 74 73  1  0
 75 76  1  0
 75 74  1  0
 76 72  1  0
 77 78  2  0
 78 79  1  0
 80 79  2  0
 81 80  1  0
 82 56  1  0
 82 83  1  0
 82 92  1  0
 83 86  1  0
 84 88  1  0
 84 83  1  0
 85 84  2  0
 88 87  1  0
 90 88  1  0
 90 91  1  0
 90 89  1  0
 92 95  1  1
 92 93  1  0
 94 92  1  0
M  ISO  4  16 100  24 100  54 101  55 101
M  END
>  <TORSDO>  (77) 
F 18

>  <SCORE>  (77) 
-14.620

>  <name>  (77) 
77

>  <ligand_id>  (77) 
77

>  <original_smiles>  (77) 
[H]c1c([H])c([H])c2c(c1[H])C([H])([H])C([H])([H])C([H])([H])C2([H])N([H])C(=O)C1([H])N(C(=O)C([H])(N([H])C(=O)C([H])(N([H])C([H])([H])[H])C([H])([H])[H])C(C([H])([H])[H])(C([H])([H])[H])C([H])([H])[H])C([H])([H])c2c([H])c(OC([H])([H])C3=NC([H])([H])C([H])(c4nc(N([H])C(=O)N5C([H])([H])C([H])([H])C([H])([H])C([H])(n6nc(-c7c([H])c([H])c(Oc8c([H])c([H])c(F)c([H])c8F)c([H])c7[H])c(C(=O)N([H])[H])c6N([H])[H])C5([H])[H])c([H])c(F)c4[H])[N+]([H])([H])C3([H])[H])c([H])c([H])c2C1([H])[H]

>  <smiles>  (77) 
[H]c1c([H])c([H])c2c(c1[H])C([H])([H])C([H])([H])C([H])([H])C2([H])N([H])C(=O)C1([H])N(C(=O)C([H])(N([H])C(=O)C([H])(N([H])C([H])([H])[H])C([H])([H])[H])C(C([H])([H])[H])(C([H])([H])[H])C([H])([H])[H])C([H])([H])c2c([H])c(OC([H])([H])C3=NC([H])([H])C([H])(c4nc(N([H])C(=O)N5C([H])([H])C([H])([H])C([H])([H])C([H])(n6nc(-c7c([H])c([H])c(Oc8c([H])c([H])c(F)c([H])c8F)c([H])c7[H])c(C(=O)N([H])[H])c6N([H])[H])C5([H])[H])c([H])c(F)c4[H])[N+]([H])([H])C3([H])[H])c([H])c([H])c2C1([H])[H]

$$$$
78:0:0
     RDKit          3D

 97105  0  0  1  0  0  0  0  0999 V2000
  -28.8120  -20.7360   20.7300 C   0  0  0  0  0  0  0  0  0  0  0  0
  -30.0370  -20.4380   21.1960 N   0  0  0  0  0  0  0  0  0  0  0  0
  -28.1780  -20.0190   19.9500 O   0  0  0  0  0  0  0  0  0  0  0  0
  -30.4750  -21.1680   21.7390 H   0  0  0  0  0  0  0  0  0  0  0  0
  -30.3080  -17.9960   20.8260 C   0  0  0  0  0  3  0  0  0  0  0  0
  -32.5320  -17.0860   20.4140 C   0  0  0  0  0  3  0  0  0  0  0  0
  -32.2520  -19.4880   20.7630 C   0  0  0  0  0  0  0  0  0  0  0  0
  -31.1400  -16.8870   20.5510 C   0  0  0  0  0  0  0  0  0  0  0  0
  -30.8510  -19.3040   20.9100 C   0  0  0  0  0  0  0  0  0  0  0  0
  -33.0830  -18.3730   20.5130 C   0  0  0  0  0  0  0  0  0  0  0  0
  -34.4200  -18.5320   20.3620 F   0  0  0  0  0  0  0  0  0  0  0  0
  -31.1010  -14.5580   19.7590 C   0  0  0  0  0  0  0  0  0  0  0  0
  -30.7470  -12.2610   18.9400 C   0  0  0  0  0  2  0  0  0  0  0  0
  -29.7270  -12.2530   17.7870 C   0  0  0  0  0  2  0  0  0  0  0  0
  -28.2900  -12.1570   18.3330 C   0  0  0  0  0  2  0  0  0  0  0  0
  -28.0090  -13.1850   19.4620 C   0  0  0  0  0  3  0  0  0  0  0  0
  -29.1350  -13.1640   20.5190 C   0  0  0  0  0  2  0  0  0  0  0  0
  -30.4160  -13.3870   19.8270 N   0  0  0  0  0  0  0  0  0  0  0  0
  -32.1160  -14.6970   19.0700 O   0  0  0  0  0  0  0  0  0  0  0  0
  -30.5720  -15.5860   20.4430 N   0  0  0  0  0  0  0  0  0  0  0  0
  -29.6590  -15.4350   20.8460 H   0  0  0  0  0  0  0  0  0  0  0  0
  -25.7440  -13.8900   20.4620 C   0  0  0  0  0  0  0  0  0  0  0  0
  -24.6710  -13.1610   20.9000 C   0  0  0  0  0  0  0  0  0  0  0  0
  -25.0330  -11.7880   20.7370 C   0  0  0  0  0  0  0  0  0  0  0  0
  -26.6960  -12.9630   20.0660 N   0  0  0  0  0  0  0  0  0  0  0  0
  -26.2770  -11.6920   20.2850 N   0  0  0  0  0  0  0  0  0  0  0  0
  -24.2480  -10.5630   20.9300 C   0  0  0  0  0  0  0  0  0  0  0  0
  -24.6540   -9.5600   21.8370 C   0  0  0  0  0  3  0  0  0  0  0  0
  -23.8730   -8.3990   22.0190 C   0  0  0  0  0  3  0  0  0  0  0  0
  -22.6710   -8.2320   21.2910 C   0  0  0  0  0  0  0  0  0  0  0  0
  -22.2820   -9.2230   20.3720 C   0  0  0  0  0  3  0  0  0  0  0  0
  -23.0650  -10.3760   20.1890 C   0  0  0  0  0  3  0  0  0  0  0  0
  -21.8610   -7.1260   21.3840 O   0  0  0  0  0  0  0  0  0  0  0  0
  -21.7320   -6.4230   22.5540 C   0  0  0  0  0  0  0  0  0  0  0  0
  -21.2640   -7.0300   23.7410 C   0  0  0  0  0  3  0  0  0  0  0  0
  -21.0820   -6.2540   24.9030 C   0  0  0  0  0  3  0  0  0  0  0  0
  -21.3570   -4.8750   24.8800 C   0  0  0  0  0  0  0  0  0  0  0  0
  -21.8180   -4.2670   23.6990 C   0  0  0  0  0  3  0  0  0  0  0  0
  -22.0020   -5.0390   22.5390 C   0  0  0  0  0  0  0  0  0  0  0  0
  -22.4260   -4.4460   21.3960 F   0  0  0  0  0  0  0  0  0  0  0  0
  -21.1740   -4.1290   25.9940 F   0  0  0  0  0  0  0  0  0  0  0  0
  -23.3460  -13.7030   21.3560 C   0  0  0  0  0  0  0  0  0  0  0  0
  -22.6790  -13.0040   22.2660 N   0  0  0  0  0  0  0  0  0  0  0  0
  -22.9180  -14.7780   20.9380 O   0  0  0  0  0  0  0  0  0  0  0  0
  -23.0400  -12.1320   22.6240 H   0  0  0  0  0  0  0  0  0  0  0  0
  -21.7940  -13.3460   22.6130 H   0  0  0  0  0  0  0  0  0  0  0  0
  -25.9840  -15.2570   20.3490 N   0  0  0  0  0  0  0  0  0  0  0  0
  -25.2830  -15.9530   20.5810 H   0  0  0  0  0  0  0  0  0  0  0  0
  -26.8280  -15.6590   19.9600 H   0  0  0  0  0  0  0  0  0  0  0  0
  -32.7850  -21.6440   19.5270 C   0  0  0  0  0  1  0  0  0  0  0  0
  -32.8870  -20.8730   20.8500 C   0  0  0  0  0  2  0  0  0  0  0  0
  -28.2030  -22.0530   21.2180 C   0  0  0  0  0  2  0  0  0  0  0  0
  -27.9010  -23.0390   20.0620 C   0  0  0  0  0  2  0  0  0  0  0  0
  -27.8700  -24.5110   20.4930 C   0  0  0  0  0  0  0  0  0  0  0  0
  -27.7480  -24.8330   21.6810 O   0  0  0  0  0  0  0  0  0  0  0  0
  -28.0030  -25.5650   19.3810 C   0  0  0  0  0  2  0  0  0  0  0  0
  -27.9880  -26.9010   19.9080 O   0  0  0  0  0  0  0  0  0  0  0  0
  -24.5010  -32.0180   23.3930 C   0  0  0  0  0  0  0  0  0  0  0  0
  -26.8030  -27.6050   20.0020 C   0  0  0  0  0  0  0  0  0  0  0  0
  -23.1480  -30.7100   21.7890 C   0  0  0  0  0  3  0  0  0  0  0  0
  -24.4560  -29.1720   20.2300 C   0  0  0  0  0  0  0  0  0  0  0  0
  -25.6670  -30.9950   21.4430 C   0  0  0  0  0  2  0  0  0  0  0  0
  -25.6640  -29.6440   20.7570 C   0  0  0  0  0  0  0  0  0  0  0  0
  -26.8360  -28.8650   20.6430 C   0  0  0  0  0  3  0  0  0  0  0  0
  -25.5690  -27.1390   19.4870 C   0  0  0  0  0  3  0  0  0  0  0  0
  -24.4020  -27.9190   19.5990 C   0  0  0  0  0  3  0  0  0  0  0  0
  -23.2470  -30.0660   20.3800 C   0  0  0  0  0  2  0  0  0  0  0  0
  -24.4620  -31.2530   22.2650 N   0  0  0  0  0  0  0  0  0  0  0  0
  -23.4660  -32.3060   24.0090 O   0  0  0  0  0  0  0  0  0  0  0  0
  -22.5240  -29.6790   22.7560 C   0  0  0  0  0  0  0  0  0  0  0  0
  -21.2200  -29.4080   22.5820 N   0  0  0  0  0  0  0  0  0  0  0  0
  -23.2110  -29.1240   23.6170 O   0  0  0  0  0  0  0  0  0  0  0  0
  -20.7230  -29.9100   21.8590 H   0  0  0  0  0  0  0  0  0  0  0  0
  -17.9490  -27.9070   22.8830 C   0  0  0  0  0  0  0  0  0  0  0  0
  -20.4340  -28.4440   23.3510 C   0  0  0  0  0  3  0  0  0  0  0  0
  -20.7270  -26.9960   22.8930 C   0  0  0  0  0  2  0  0  0  0  0  0
  -19.7580  -26.4960   21.8160 C   0  0  0  0  0  2  0  0  0  0  0  0
  -18.3150  -26.5420   22.3280 C   0  0  0  0  0  2  0  0  0  0  0  0
  -18.9450  -28.8070   23.3490 C   0  0  0  0  0  0  0  0  0  0  0  0
  -18.5520  -30.0790   23.8220 C   0  0  0  0  0  3  0  0  0  0  0  0
  -17.1960  -30.4550   23.8350 C   0  0  0  0  0  3  0  0  0  0  0  0
  -16.2130  -29.5540   23.3890 C   0  0  0  0  0  3  0  0  0  0  0  0
  -16.5890  -28.2830   22.9200 C   0  0  0  0  0  3  0  0  0  0  0  0
  -25.8450  -32.5840   23.9480 C   0  0  0  0  0  3  0  0  0  0  0  0
  -25.6190  -33.9910   24.3020 N   0  0  0  0  0  0  0  0  0  0  0  0
  -25.9590  -35.0310   23.5300 C   0  0  0  0  0  0  0  0  0  0  0  0
  -26.5670  -34.9050   22.4640 O   0  0  0  0  0  0  0  0  0  0  0  0
  -25.0740  -34.1660   25.1340 H   0  0  0  0  0  0  0  0  0  0  0  0
  -24.2940  -36.8980   23.2780 C   0  0  0  0  0  1  0  0  0  0  0  0
  -25.5590  -36.4370   24.0180 C   0  0  0  0  0  3  0  0  0  0  0  0
  -27.7730  -37.2250   24.7330 C   0  0  0  0  0  1  0  0  0  0  0  0
  -26.6290  -37.4440   23.8510 N   0  0  0  0  0  0  0  0  0  0  0  0
  -26.2720  -38.3810   24.0220 H   0  0  0  0  0  0  0  0  0  0  0  0
  -26.3950  -31.7780   25.1890 C   0  0  1  0  0  0  0  0  0  0  0  0
  -25.3390  -31.5390   26.2930 C   0  0  0  0  0  1  0  0  0  0  0  0
  -26.9390  -30.3980   24.7470 C   0  0  0  0  0  1  0  0  0  0  0  0
  -27.5840  -32.5380   25.8230 C   0  0  0  0  0  1  0  0  0  0  0  0
  1  2  1  0
  1 52  1  0
  2  4  1  0
  3  1  2  0
  5  9  1  0
  6 10  2  0
  6  8  1  0
  7 51  1  0
  7  9  2  0
  8  5  2  0
  9  2  1  0
 10  7  1  0
 11 10  1  0
 12 18  1  0
 12 20  1  0
 13 18  1  0
 14 15  1  0
 14 13  1  0
 16 15  1  0
 16 25  1  0
 16 17  1  0
 18 17  1  0
 19 12  2  0
 20  8  1  0
 20 21  1  0
 22 23  2  0
 23 42  1  0
 24 23  1  0
 24 27  1  0
 25 26  1  0
 25 22  1  0
 26 24  2  0
 27 28  1  0
 28 29  2  0
 30 33  1  0
 30 29  1  0
 31 30  2  0
 32 31  1  0
 32 27  2  0
 33 34  1  0
 34 35  1  0
 35 36  2  0
 37 36  1  0
 37 41  1  0
 38 37  2  0
 39 34  2  0
 39 38  1  0
 40 39  1  0
 42 43  1  0
 43 46  1  0
 43 45  1  0
 44 42  2  0
 47 22  1  0
 47 48  1  0
 49 47  1  0
 50 51  1  0
 53 54  1  0
 53 52  1  0
 54 55  2  0
 56 57  1  0
 56 54  1  0
 57 59  1  0
 58 69  2  0
 59 64  1  0
 60 68  1  0
 60 70  1  0
 61 67  1  0
 61 63  1  0
 62 68  1  0
 63 62  1  0
 64 63  2  0
 65 66  1  0
 65 59  2  0
 66 61  2  0
 67 60  1  0
 68 58  1  0
 70 72  2  0
 71 70  1  0
 73 71  1  0
 74 83  2  0
 74 79  1  0
 75 71  1  0
 76 75  1  0
 77 78  1  0
 77 76  1  0
 78 74  1  0
 79 75  1  0
 79 80  2  0
 80 81  1  0
 82 81  2  0
 83 82  1  0
 84 58  1  0
 84 85  1  0
 84 94  1  0
 85 88  1  0
 86 90  1  0
 86 85  1  0
 87 86  2  0
 90 89  1  0
 92 90  1  0
 92 93  1  0
 92 91  1  0
 94 97  1  1
 94 95  1  0
 96 94  1  0
M  ISO  4  12 100  20 100  56 101  57 101
M  END
>  <TORSDO>  (78) 
F 22

>  <SCORE>  (78) 
-12.875

>  <name>  (78) 
78

>  <ligand_id>  (78) 
78

>  <original_smiles>  (78) 
[H]c1c([H])c([H])c2c(c1[H])C([H])([H])C([H])([H])C([H])([H])C2([H])N([H])C(=O)C1([H])N(C(=O)C([H])(N([H])C(=O)C([H])(N([H])C([H])([H])[H])C([H])([H])[H])C(C([H])([H])[H])(C([H])([H])[H])C([H])([H])[H])C([H])([H])c2c([H])c(OC([H])([H])C(=O)C([H])([H])C([H])([H])C(=O)N([H])c3c([H])c(N([H])C(=O)N4C([H])([H])C([H])([H])C([H])([H])C([H])(n5nc(-c6c([H])c([H])c(Oc7c([H])c([H])c(F)c([H])c7F)c([H])c6[H])c(C(=O)N([H])[H])c5N([H])[H])C4([H])[H])c([H])c(F)c3C([H])([H])C([H])([H])[H])c([H])c([H])c2C1([H])[H]

>  <smiles>  (78) 
[H]c1c([H])c([H])c2c(c1[H])C([H])([H])C([H])([H])C([H])([H])C2([H])N([H])C(=O)C1([H])N(C(=O)C([H])(N([H])C(=O)C([H])(N([H])C([H])([H])[H])C([H])([H])[H])C(C([H])([H])[H])(C([H])([H])[H])C([H])([H])[H])C([H])([H])c2c([H])c(OC([H])([H])C(=O)C([H])([H])C([H])([H])C(=O)N([H])c3c([H])c(N([H])C(=O)N4C([H])([H])C([H])([H])C([H])([H])C([H])(n5nc(-c6c([H])c([H])c(Oc7c([H])c([H])c(F)c([H])c7F)c([H])c6[H])c(C(=O)N([H])[H])c5N([H])[H])C4([H])[H])c([H])c(F)c3C([H])([H])C([H])([H])[H])c([H])c([H])c2C1([H])[H]

$$$$
79:0:0
     RDKit          3D

 97106  0  0  1  0  0  0  0  0999 V2000
  -29.4570  -21.9660   19.6140 C   0  0  0  0  0  2  0  0  0  0  0  0
  -28.9450  -23.4460   19.5770 C   0  0  0  0  0  2  0  0  0  0  0  0
  -29.5960  -23.6220   21.9930 C   0  0  0  0  0  2  0  0  0  0  0  0
  -29.3120  -21.2290   20.9910 C   0  0  1  0  0  0  0  0  0  0  0  0
  -30.0660  -22.1270   22.0650 C   0  0  2  0  0  0  0  0  0  0  0  0
  -29.6170  -24.3710   20.6230 C   0  0  1  0  0  0  0  0  0  0  0  0
  -27.7820  -21.1520   21.2620 C   0  0  0  0  0  1  0  0  0  0  0  0
  -29.8040  -21.6810   23.5270 C   0  0  0  0  0  1  0  0  0  0  0  0
  -31.6040  -22.0350   21.8940 C   0  0  0  0  0  1  0  0  0  0  0  0
  -30.6800  -19.2140   19.9470 C   0  0  0  0  0  3  0  0  0  0  0  0
  -29.3780  -18.8150   21.9350 C   0  0  0  0  0  3  0  0  0  0  0  0
  -31.0150  -17.8290   19.8940 C   0  0  0  0  0  3  0  0  0  0  0  0
  -29.7050  -17.4460   21.8880 C   0  0  0  0  0  3  0  0  0  0  0  0
  -29.8270  -19.7410   20.9570 C   0  0  0  0  0  0  0  0  0  0  0  0
  -30.5010  -16.9190   20.8560 C   0  0  0  0  0  0  0  0  0  0  0  0
  -31.1840  -14.6450   19.9570 C   0  0  0  0  0  0  0  0  0  0  0  0
  -30.7830  -12.5130   18.7560 C   0  0  0  0  0  2  0  0  0  0  0  0
  -29.7560  -12.7550   17.6310 C   0  0  0  0  0  2  0  0  0  0  0  0
  -28.3100  -12.6370   18.1590 C   0  0  0  0  0  2  0  0  0  0  0  0
  -28.0830  -13.4430   19.4660 C   0  0  0  0  0  3  0  0  0  0  0  0
  -29.2120  -13.1550   20.4830 C   0  0  0  0  0  2  0  0  0  0  0  0
  -30.5060  -13.4650   19.8430 N   0  0  0  0  0  0  0  0  0  0  0  0
  -32.1970  -14.9040   19.3010 O   0  0  0  0  0  0  0  0  0  0  0  0
  -30.6680  -15.4940   20.8670 N   0  0  0  0  0  0  0  0  0  0  0  0
  -30.0150  -15.0220   21.4730 H   0  0  0  0  0  0  0  0  0  0  0  0
  -25.7680  -14.0890   20.3970 C   0  0  0  0  0  0  0  0  0  0  0  0
  -24.7040  -13.3320   20.8110 C   0  0  0  0  0  0  0  0  0  0  0  0
  -25.1100  -11.9690   20.6710 C   0  0  0  0  0  0  0  0  0  0  0  0
  -26.7580  -13.1880   20.0350 N   0  0  0  0  0  0  0  0  0  0  0  0
  -26.3680  -11.9050   20.2550 N   0  0  0  0  0  0  0  0  0  0  0  0
  -24.3520  -10.7230   20.8550 C   0  0  0  0  0  0  0  0  0  0  0  0
  -24.7760   -9.7290   21.7660 C   0  0  0  0  0  3  0  0  0  0  0  0
  -24.0250   -8.5470   21.9360 C   0  0  0  0  0  3  0  0  0  0  0  0
  -22.8350   -8.3510   21.1970 C   0  0  0  0  0  0  0  0  0  0  0  0
  -22.4280   -9.3320   20.2760 C   0  0  0  0  0  3  0  0  0  0  0  0
  -23.1800  -10.5060   20.1030 C   0  0  0  0  0  3  0  0  0  0  0  0
  -22.0510   -7.2240   21.2810 O   0  0  0  0  0  0  0  0  0  0  0  0
  -21.9130   -6.5290   22.4560 C   0  0  0  0  0  0  0  0  0  0  0  0
  -21.4270   -7.1410   23.6330 C   0  0  0  0  0  3  0  0  0  0  0  0
  -21.2370   -6.3710   24.7980 C   0  0  0  0  0  3  0  0  0  0  0  0
  -21.5200   -4.9920   24.7860 C   0  0  0  0  0  0  0  0  0  0  0  0
  -21.9980   -4.3800   23.6140 C   0  0  0  0  0  3  0  0  0  0  0  0
  -22.1890   -5.1460   22.4510 C   0  0  0  0  0  0  0  0  0  0  0  0
  -22.6300   -4.5480   21.3180 F   0  0  0  0  0  0  0  0  0  0  0  0
  -21.3300   -4.2510   25.9030 F   0  0  0  0  0  0  0  0  0  0  0  0
  -23.3510  -13.8360   21.2280 C   0  0  0  0  0  0  0  0  0  0  0  0
  -22.6800  -13.1280   22.1290 N   0  0  0  0  0  0  0  0  0  0  0  0
  -22.9030  -14.8940   20.7900 O   0  0  0  0  0  0  0  0  0  0  0  0
  -23.0530  -12.2690   22.5060 H   0  0  0  0  0  0  0  0  0  0  0  0
  -21.7740  -13.4500   22.4440 H   0  0  0  0  0  0  0  0  0  0  0  0
  -25.9680  -15.4620   20.2830 N   0  0  0  0  0  0  0  0  0  0  0  0
  -25.2460  -16.1350   20.5070 H   0  0  0  0  0  0  0  0  0  0  0  0
  -26.8210  -15.8910   19.9460 H   0  0  0  0  0  0  0  0  0  0  0  0
  -31.7360  -25.5830   20.7650 C   0  0  0  0  0  1  0  0  0  0  0  0
  -30.9640  -24.5480   20.1650 O   0  0  0  0  0  0  0  0  0  0  0  0
  -28.8600  -25.7430   20.8270 C   0  0  0  0  0  2  0  0  0  0  0  0
  -28.9330  -26.8040   19.8390 O   0  0  0  0  0  0  0  0  0  0  0  0
  -24.6560  -31.5200   23.0680 C   0  0  0  0  0  0  0  0  0  0  0  0
  -27.7500  -27.5190   19.7980 C   0  0  0  0  0  0  0  0  0  0  0  0
  -23.6040  -30.0820   21.3550 C   0  0  0  0  0  3  0  0  0  0  0  0
  -25.2170  -28.7820   19.8560 C   0  0  0  0  0  0  0  0  0  0  0  0
  -26.0810  -30.7120   21.1880 C   0  0  0  0  0  2  0  0  0  0  0  0
  -26.3140  -29.3910   20.4790 C   0  0  0  0  0  0  0  0  0  0  0  0
  -27.5880  -28.7680   20.4470 C   0  0  0  0  0  3  0  0  0  0  0  0
  -26.6380  -26.9390   19.1520 C   0  0  0  0  0  3  0  0  0  0  0  0
  -25.3750  -27.5580   19.1840 C   0  0  0  0  0  3  0  0  0  0  0  0
  -23.8830  -29.4980   19.9430 C   0  0  0  0  0  2  0  0  0  0  0  0
  -24.7960  -30.7840   21.9290 N   0  0  0  0  0  0  0  0  0  0  0  0
  -23.5530  -31.6500   23.6150 O   0  0  0  0  0  0  0  0  0  0  0  0
  -23.0650  -28.9500   22.2600 C   0  0  0  0  0  0  0  0  0  0  0  0
  -21.7820  -28.5960   22.0770 N   0  0  0  0  0  0  0  0  0  0  0  0
  -23.7980  -28.3980   23.0840 O   0  0  0  0  0  0  0  0  0  0  0  0
  -21.2460  -29.1000   21.3840 H   0  0  0  0  0  0  0  0  0  0  0  0
  -18.6160  -26.8710   22.3310 C   0  0  0  0  0  0  0  0  0  0  0  0
  -21.0730  -27.5340   22.7900 C   0  0  0  0  0  3  0  0  0  0  0  0
  -21.4480  -26.1430   22.2280 C   0  0  0  0  0  2  0  0  0  0  0  0
  -20.4890  -25.6550   21.1390 C   0  0  0  0  0  2  0  0  0  0  0  0
  -19.0580  -25.5730   21.6760 C   0  0  0  0  0  2  0  0  0  0  0  0
  -19.5630  -27.7990   22.8390 C   0  0  0  0  0  0  0  0  0  0  0  0
  -19.1010  -29.0070   23.4050 C   0  0  0  0  0  3  0  0  0  0  0  0
  -17.7240  -29.2910   23.4690 C   0  0  0  0  0  3  0  0  0  0  0  0
  -16.7910  -28.3610   22.9800 C   0  0  0  0  0  3  0  0  0  0  0  0
  -17.2370  -27.1530   22.4150 C   0  0  0  0  0  3  0  0  0  0  0  0
  -25.8690  -32.2530   23.7230 C   0  0  0  0  0  3  0  0  0  0  0  0
  -26.4420  -31.4970   24.9840 C   0  0  1  0  0  0  0  0  0  0  0  0
  -25.3630  -31.1330   26.0310 C   0  0  0  0  0  1  0  0  0  0  0  0
  -27.1550  -30.1880   24.5660 C   0  0  0  0  0  1  0  0  0  0  0  0
  -27.5100  -32.3730   25.6800 C   0  0  0  0  0  1  0  0  0  0  0  0
  -25.4230  -33.6040   24.0870 N   0  0  0  0  0  0  0  0  0  0  0  0
  -25.6660  -34.7050   23.3630 C   0  0  0  0  0  0  0  0  0  0  0  0
  -26.3590  -34.6940   22.3410 O   0  0  0  0  0  0  0  0  0  0  0  0
  -24.8010  -33.6760   24.8780 H   0  0  0  0  0  0  0  0  0  0  0  0
  -23.7790  -36.3330   23.0220 C   0  0  0  0  0  1  0  0  0  0  0  0
  -25.0410  -36.0270   23.8460 C   0  0  0  0  0  3  0  0  0  0  0  0
  -27.0690  -37.0880   24.7350 C   0  0  0  0  0  1  0  0  0  0  0  0
  -25.9690  -37.1770   23.7780 N   0  0  0  0  0  0  0  0  0  0  0  0
  -25.4750  -38.0500   23.9410 H   0  0  0  0  0  0  0  0  0  0  0  0
  1  4  1  0
  2  1  1  0
  2  6  1  0
  3  5  1  0
  4  7  1  1
  4  5  1  0
  5  8  1  1
  6 56  1  1
  6  3  1  0
  9  5  1  0
 10 14  1  0
 12 10  2  0
 12 15  1  0
 13 11  1  0
 14  4  1  0
 14 11  2  0
 15 24  1  0
 15 13  2  0
 16 24  1  0
 17 22  1  0
 18 19  1  0
 18 17  1  0
 20 19  1  0
 20 29  1  0
 20 21  1  0
 22 16  1  0
 22 21  1  0
 23 16  2  0
 24 25  1  0
 26 27  2  0
 27 46  1  0
 28 27  1  0
 28 31  1  0
 29 30  1  0
 29 26  1  0
 30 28  2  0
 31 32  1  0
 32 33  2  0
 34 37  1  0
 34 33  1  0
 35 34  2  0
 36 35  1  0
 36 31  2  0
 37 38  1  0
 38 39  1  0
 39 40  2  0
 41 40  1  0
 41 45  1  0
 42 41  2  0
 43 38  2  0
 43 42  1  0
 44 43  1  0
 46 47  1  0
 47 50  1  0
 47 49  1  0
 48 46  2  0
 51 26  1  0
 51 52  1  0
 53 51  1  0
 55  6  1  0
 55 54  1  0
 57 56  1  0
 58 69  2  0
 59 57  1  0
 59 64  1  0
 60 68  1  0
 60 70  1  0
 61 67  1  0
 61 63  1  0
 62 68  1  0
 63 62  1  0
 64 63  2  0
 65 66  1  0
 65 59  2  0
 66 61  2  0
 67 60  1  0
 68 58  1  0
 70 72  2  0
 71 70  1  0
 73 71  1  0
 74 83  2  0
 74 79  1  0
 75 71  1  0
 75 79  1  0
 76 75  1  0
 77 78  1  0
 77 76  1  0
 78 74  1  0
 79 80  2  0
 80 81  1  0
 82 81  2  0
 83 82  1  0
 84 58  1  0
 84 89  1  0
 84 85  1  0
 85 88  1  1
 85 86  1  0
 87 85  1  0
 89 92  1  0
 90 94  1  0
 90 89  1  0
 91 90  2  0
 94 93  1  0
 96 94  1  0
 96 97  1  0
 96 95  1  0
M  ISO  4  16 100  24 100  56 101  57 101
M  END
>  <TORSDO>  (79) 
F 19

>  <SCORE>  (79) 
-11.170

>  <name>  (79) 
79

>  <ligand_id>  (79) 
79

>  <original_smiles>  (79) 
[H]c1c([H])c([H])c2c(c1[H])C([H])([H])C([H])([H])C([H])([H])C2([H])N([H])C(=O)C1([H])N(C(=O)C([H])(N([H])C(=O)C([H])(N([H])C([H])([H])[H])C([H])([H])[H])C(C([H])([H])[H])(C([H])([H])[H])C([H])([H])[H])C([H])([H])c2c([H])c(OC([H])([H])C3(OC([H])([H])[H])C([H])([H])C([H])([H])C(c4c([H])c([H])c(N([H])C(=O)N5C([H])([H])C([H])([H])C([H])([H])C([H])(n6nc(-c7c([H])c([H])c(Oc8c([H])c([H])c(F)c([H])c8F)c([H])c7[H])c(C(=O)N([H])[H])c6N([H])[H])C5([H])[H])c([H])c4[H])(C([H])([H])[H])C(C([H])([H])[H])(C([H])([H])[H])C3([H])[H])c([H])c([H])c2C1([H])[H]

>  <smiles>  (79) 
[H]c1c([H])c([H])c2c(c1[H])C([H])([H])C([H])([H])C([H])([H])C2([H])N([H])C(=O)C1([H])N(C(=O)C([H])(N([H])C(=O)C([H])(N([H])C([H])([H])[H])C([H])([H])[H])C(C([H])([H])[H])(C([H])([H])[H])C([H])([H])[H])C([H])([H])c2c([H])c(OC([H])([H])C3(OC([H])([H])[H])C([H])([H])C([H])([H])C(c4c([H])c([H])c(N([H])C(=O)N5C([H])([H])C([H])([H])C([H])([H])C([H])(n6nc(-c7c([H])c([H])c(Oc8c([H])c([H])c(F)c([H])c8F)c([H])c7[H])c(C(=O)N([H])[H])c6N([H])[H])C5([H])[H])c([H])c4[H])(C([H])([H])[H])C(C([H])([H])[H])(C([H])([H])[H])C3([H])[H])c([H])c([H])c2C1([H])[H]

$$$$
80:0:0
     RDKit          3D

103111  0  0  1  0  0  0  0  0999 V2000
  -32.0470  -17.5040   21.1350 C   0  0  0  0  0  3  0  0  0  0  0  0
  -31.6590  -19.9000   21.1950 C   0  0  0  0  0  3  0  0  0  0  0  0
  -29.7620  -18.3590   21.2160 C   0  0  0  0  0  3  0  0  0  0  0  0
  -32.5570  -18.8160   21.1270 C   0  0  0  0  0  0  0  0  0  0  0  0
  -30.6550  -17.2620   21.1320 C   0  0  0  0  0  0  0  0  0  0  0  0
  -30.2650  -19.6840   21.2530 C   0  0  0  0  0  0  0  0  0  0  0  0
  -30.9390  -14.8330   20.8700 C   0  0  0  0  0  0  0  0  0  0  0  0
  -30.9060  -12.4000   20.5000 C   0  0  0  0  0  2  0  0  0  0  0  0
  -30.1570  -12.0650   19.1970 C   0  0  0  0  0  2  0  0  0  0  0  0
  -28.6420  -11.9410   19.4500 C   0  0  0  0  0  2  0  0  0  0  0  0
  -28.0690  -13.1270   20.2730 C   0  0  0  0  0  3  0  0  0  0  0  0
  -28.9470  -13.4190   21.5080 C   0  0  0  0  0  2  0  0  0  0  0  0
  -30.3260  -13.6360   21.0410 N   0  0  0  0  0  0  0  0  0  0  0  0
  -32.1020  -14.9330   20.4610 O   0  0  0  0  0  0  0  0  0  0  0  0
  -30.1730  -15.9230   21.0700 N   0  0  0  0  0  0  0  0  0  0  0  0
  -29.1840  -15.7710   21.1960 H   0  0  0  0  0  0  0  0  0  0  0  0
  -25.6450  -13.8080   20.8030 C   0  0  0  0  0  0  0  0  0  0  0  0
  -24.5250  -13.0700   21.0750 C   0  0  0  0  0  0  0  0  0  0  0  0
  -24.9400  -11.7030   21.0610 C   0  0  0  0  0  0  0  0  0  0  0  0
  -26.6750  -12.8950   20.6410 N   0  0  0  0  0  0  0  0  0  0  0  0
  -26.2490  -11.6210   20.8530 N   0  0  0  0  0  0  0  0  0  0  0  0
  -24.1550  -10.4670   21.1760 C   0  0  0  0  0  0  0  0  0  0  0  0
  -24.4160   -9.5160   22.1890 C   0  0  0  0  0  3  0  0  0  0  0  0
  -23.6370   -8.3420   22.2850 C   0  0  0  0  0  3  0  0  0  0  0  0
  -22.5830   -8.1120   21.3670 C   0  0  0  0  0  0  0  0  0  0  0  0
  -22.3420   -9.0510   20.3490 C   0  0  0  0  0  3  0  0  0  0  0  0
  -23.1220  -10.2160   20.2510 C   0  0  0  0  0  3  0  0  0  0  0  0
  -21.7890   -6.9910   21.3720 O   0  0  0  0  0  0  0  0  0  0  0  0
  -21.4430   -6.3590   22.5410 C   0  0  0  0  0  0  0  0  0  0  0  0
  -20.7240   -7.0200   23.5620 C   0  0  0  0  0  3  0  0  0  0  0  0
  -20.3280   -6.3150   24.7140 C   0  0  0  0  0  3  0  0  0  0  0  0
  -20.6420   -4.9480   24.8460 C   0  0  0  0  0  0  0  0  0  0  0  0
  -21.3530   -4.2870   23.8300 C   0  0  0  0  0  3  0  0  0  0  0  0
  -21.7500   -4.9910   22.6790 C   0  0  0  0  0  0  0  0  0  0  0  0
  -22.4180   -4.3430   21.6930 F   0  0  0  0  0  0  0  0  0  0  0  0
  -20.2550   -4.2680   25.9520 F   0  0  0  0  0  0  0  0  0  0  0  0
  -23.1280  -13.5950   21.2450 C   0  0  0  0  0  0  0  0  0  0  0  0
  -22.3150  -12.9330   22.0600 N   0  0  0  0  0  0  0  0  0  0  0  0
  -22.7630  -14.6310   20.6910 O   0  0  0  0  0  0  0  0  0  0  0  0
  -22.6110  -12.0830   22.5180 H   0  0  0  0  0  0  0  0  0  0  0  0
  -21.3820  -13.2820   22.2320 H   0  0  0  0  0  0  0  0  0  0  0  0
  -25.8720  -15.1740   20.6590 N   0  0  0  0  0  0  0  0  0  0  0  0
  -25.1190  -15.8520   20.7170 H   0  0  0  0  0  0  0  0  0  0  0  0
  -26.7640  -15.5830   20.4090 H   0  0  0  0  0  0  0  0  0  0  0  0
  -29.4360  -20.8080   21.3630 N   0  0  0  0  0  0  0  0  0  0  0  0
  -29.9090  -21.6810   21.5890 H   0  0  0  0  0  0  0  0  0  0  0  0
  -28.3720  -21.0200   20.3810 C   0  0  0  0  0  2  0  0  0  0  0  0
  -28.3630  -22.4770   19.8880 C   0  0  0  0  0  0  0  0  0  0  0  0
  -29.4140  -23.1310   19.8760 O   0  0  0  0  0  0  0  0  0  0  0  0
  -27.0070  -23.0700   19.4850 C   0  0  0  0  0  2  0  0  0  0  0  0
  -27.1200  -24.4860   18.9020 C   0  0  0  0  0  0  0  0  0  0  0  0
  -26.9560  -24.6930   17.6930 O   0  0  0  0  0  0  0  0  0  0  0  0
  -27.3840  -25.6320   19.8930 C   0  0  0  0  0  2  0  0  0  0  0  0
  -27.4360  -26.9100   19.2380 O   0  0  0  0  0  0  0  0  0  0  0  0
  -24.7960  -31.9010   23.5640 C   0  0  0  0  0  0  0  0  0  0  0  0
  -26.3820  -27.7480   19.5180 C   0  0  0  0  0  0  0  0  0  0  0  0
  -23.2020  -30.9250   21.9430 C   0  0  0  0  0  3  0  0  0  0  0  0
  -24.2300  -29.4770   20.1120 C   0  0  0  0  0  0  0  0  0  0  0  0
  -25.7010  -31.0290   21.4120 C   0  0  0  0  0  2  0  0  0  0  0  0
  -25.5170  -29.7750   20.5810 C   0  0  0  0  0  0  0  0  0  0  0  0
  -26.5980  -28.9200   20.2790 C   0  0  0  0  0  3  0  0  0  0  0  0
  -25.0840  -27.4620   19.0490 C   0  0  0  0  0  3  0  0  0  0  0  0
  -24.0060  -28.3210   19.3430 C   0  0  0  0  0  3  0  0  0  0  0  0
  -23.1300  -30.4510   20.4660 C   0  0  0  0  0  2  0  0  0  0  0  0
  -24.5940  -31.2880   22.3630 N   0  0  0  0  0  0  0  0  0  0  0  0
  -23.8440  -32.2030   24.2970 O   0  0  0  0  0  0  0  0  0  0  0  0
  -22.5520  -29.8440   22.8380 C   0  0  0  0  0  0  0  0  0  0  0  0
  -21.2400  -29.6270   22.6560 N   0  0  0  0  0  0  0  0  0  0  0  0
  -23.2290  -29.2070   23.6500 O   0  0  0  0  0  0  0  0  0  0  0  0
  -20.7550  -30.1980   21.9780 H   0  0  0  0  0  0  0  0  0  0  0  0
  -17.9760  -28.0810   22.7560 C   0  0  0  0  0  0  0  0  0  0  0  0
  -20.4290  -28.6310   23.3570 C   0  0  0  0  0  3  0  0  0  0  0  0
  -20.7620  -27.2000   22.8730 C   0  0  0  0  0  2  0  0  0  0  0  0
  -19.8510  -26.7210   21.7380 C   0  0  0  0  0  2  0  0  0  0  0  0
  -18.3860  -26.7350   22.1820 C   0  0  0  0  0  2  0  0  0  0  0  0
  -18.9370  -28.9760   23.2940 C   0  0  0  0  0  0  0  0  0  0  0  0
  -18.5070  -30.2290   23.7830 C   0  0  0  0  0  3  0  0  0  0  0  0
  -17.1460  -30.5890   23.7450 C   0  0  0  0  0  3  0  0  0  0  0  0
  -16.1970  -29.6910   23.2260 C   0  0  0  0  0  3  0  0  0  0  0  0
  -16.6120  -28.4390   22.7370 C   0  0  0  0  0  3  0  0  0  0  0  0
  -26.2280  -32.2720   24.0630 C   0  0  0  0  0  3  0  0  0  0  0  0
  -26.8070  -31.2460   25.1150 C   0  0  1  0  0  0  0  0  0  0  0  0
  -25.8500  -30.9600   26.2940 C   0  0  0  0  0  1  0  0  0  0  0  0
  -27.1380  -29.8970   24.4340 C   0  0  0  0  0  1  0  0  0  0  0  0
  -28.1350  -31.7860   25.6980 C   0  0  0  0  0  1  0  0  0  0  0  0
  -26.1580  -33.6230   24.6380 N   0  0  0  0  0  0  0  0  0  0  0  0
  -26.5570  -34.7360   24.0100 C   0  0  0  0  0  0  0  0  0  0  0  0
  -27.0950  -34.7230   22.8980 O   0  0  0  0  0  0  0  0  0  0  0  0
  -25.6830  -33.7140   25.5220 H   0  0  0  0  0  0  0  0  0  0  0  0
  -25.0770  -36.7650   24.1410 C   0  0  0  0  0  1  0  0  0  0  0  0
  -26.3210  -36.0780   24.7270 C   0  0  0  0  0  3  0  0  0  0  0  0
  -28.6290  -36.5420   25.4260 C   0  0  0  0  0  1  0  0  0  0  0  0
  -27.4780  -36.9980   24.6520 N   0  0  0  0  0  0  0  0  0  0  0  0
  -27.2220  -37.9260   24.9780 H   0  0  0  0  0  0  0  0  0  0  0  0
  -34.0590  -19.0610   21.0650 C   0  0  0  0  0  2  0  0  0  0  0  0
  -34.5890  -19.4710   19.6730 C   0  0  0  0  0  2  0  0  0  0  0  0
  -34.2050  -20.8900   19.3460 C   0  0  0  0  0  0  0  0  0  0  0  0
  -33.2950  -21.1410   18.3890 N   0  0  0  0  0  4  0  0  0  0  0  0
  -34.7800  -21.9010   20.0180 N   0  0  0  0  0  0  0  0  0  0  0  0
  -32.7900  -20.3860   17.9350 H   0  0  0  0  0  0  0  0  0  0  0  0
  -33.0380  -22.0700   18.0900 H   0  0  0  0  0  0  0  0  0  0  0  0
  -35.4880  -21.7120   20.7180 H   0  0  0  0  0  0  0  0  0  0  0  0
  -34.5540  -22.8720   19.8590 H   0  0  0  0  0  0  0  0  0  0  0  0
  2  6  2  0
  3  6  1  0
  4  1  2  0
  4  2  1  0
  5  1  1  0
  5  3  2  0
  6 45  1  0
  7 13  1  0
  7 15  1  0
  8 13  1  0
  9 10  1  0
  9  8  1  0
 11 10  1  0
 11 20  1  0
 11 12  1  0
 13 12  1  0
 14  7  2  0
 15  5  1  0
 15 16  1  0
 17 18  2  0
 18 37  1  0
 19 18  1  0
 19 22  1  0
 20 17  1  0
 20 21  1  0
 21 19  2  0
 22 23  1  0
 23 24  2  0
 25 28  1  0
 25 24  1  0
 26 25  2  0
 27 26  1  0
 27 22  2  0
 28 29  1  0
 29 34  2  0
 29 30  1  0
 30 31  2  0
 31 32  1  0
 32 36  1  0
 33 32  2  0
 34 33  1  0
 35 34  1  0
 37 38  1  0
 38 41  1  0
 38 40  1  0
 39 37  2  0
 42 43  1  0
 42 17  1  0
 44 42  1  0
 45 46  1  0
 47 45  1  0
 48 47  1  0
 49 48  2  0
 50 48  1  0
 51 50  1  0
 51 53  1  0
 52 51  2  0
 54 56  1  0
 54 53  1  0
 55 66  2  0
 56 61  1  0
 57 65  1  0
 57 67  1  0
 58 64  1  0
 58 60  1  0
 59 65  1  0
 60 59  1  0
 61 60  2  0
 62 63  1  0
 62 56  2  0
 63 58  2  0
 64 57  1  0
 65 55  1  0
 67 69  2  0
 68 67  1  0
 70 68  1  0
 71 76  1  0
 72 68  1  0
 73 72  1  0
 74 75  1  0
 74 73  1  0
 75 71  1  0
 76 72  1  0
 76 77  2  0
 78 77  1  0
 79 78  2  0
 80 71  2  0
 80 79  1  0
 81 55  1  0
 81 86  1  0
 81 82  1  0
 82 85  1  1
 82 83  1  0
 84 82  1  0
 86 89  1  0
 87 86  1  0
 87 91  1  0
 88 87  2  0
 91 90  1  0
 93 91  1  0
 93 94  1  0
 93 92  1  0
 95  4  1  0
 96 95  1  0
 97 96  1  0
 97 99  1  0
 98 97  2  0
 99102  1  0
100 98  1  0
101 98  1  0
103 99  1  0
M  ISO  4   7 100  15 100  53 101  54 101
M  END
>  <TORSDO>  (80) 
F 25

>  <SCORE>  (80) 
-10.554

>  <name>  (80) 
80

>  <ligand_id>  (80) 
80

>  <original_smiles>  (80) 
[H]c1c([H])c([H])c2c(c1[H])C([H])([H])C([H])([H])C([H])([H])C2([H])N([H])C(=O)C1([H])N(C(=O)C([H])(N([H])C(=O)C([H])(N([H])C([H])([H])[H])C([H])([H])[H])C(C([H])([H])[H])(C([H])([H])[H])C([H])([H])[H])C([H])([H])c2c([H])c(OC([H])([H])C(=O)C([H])([H])C(=O)C([H])([H])N([H])c3c([H])c(N([H])C(=O)N4C([H])([H])C([H])([H])C([H])([H])C([H])(n5nc(-c6c([H])c([H])c(Oc7c([H])c([H])c(F)c([H])c7F)c([H])c6[H])c(C(=O)N([H])[H])c5N([H])[H])C4([H])[H])c([H])c(C([H])([H])C([H])([H])C(N([H])[H])=[N+]([H])[H])c3[H])c([H])c([H])c2C1([H])[H]

>  <smiles>  (80) 
[H]c1c([H])c([H])c2c(c1[H])C([H])([H])C([H])([H])C([H])([H])C2([H])N([H])C(=O)C1([H])N(C(=O)C([H])(N([H])C(=O)C([H])(N([H])C([H])([H])[H])C([H])([H])[H])C(C([H])([H])[H])(C([H])([H])[H])C([H])([H])[H])C([H])([H])c2c([H])c(OC([H])([H])C(=O)C([H])([H])C(=O)C([H])([H])N([H])c3c([H])c(N([H])C(=O)N4C([H])([H])C([H])([H])C([H])([H])C([H])(n5nc(-c6c([H])c([H])c(Oc7c([H])c([H])c(F)c([H])c7F)c([H])c6[H])c(C(=O)N([H])[H])c5N([H])[H])C4([H])[H])c([H])c(C([H])([H])C([H])([H])C(N([H])[H])=[N+]([H])[H])c3[H])c([H])c([H])c2C1([H])[H]

$$$$
81:0:0
     RDKit          3D

 98106  0  0  1  0  0  0  0  0999 V2000
  -28.4580  -20.4020   19.7070 C   0  0  0  0  0  3  0  0  0  0  0  0
  -30.7590  -20.9970   19.8480 C   0  0  0  0  0  3  0  0  0  0  0  0
  -28.8230  -19.0320   19.9040 C   0  0  0  0  0  0  0  0  0  0  0  0
  -29.4210  -21.4370   19.6960 C   0  0  0  0  0  0  0  0  0  0  0  0
  -30.1950  -18.6970   20.1060 C   0  0  0  0  0  0  0  0  0  0  0  0
  -31.1300  -19.6960   20.0500 N   0  0  0  0  0  0  0  0  0  0  0  0
  -30.9230  -14.7920   20.0330 C   0  0  0  0  0  0  0  0  0  0  0  0
  -30.5790  -12.5360   19.0410 C   0  0  0  0  0  2  0  0  0  0  0  0
  -29.5930  -12.6280   17.8600 C   0  0  0  0  0  2  0  0  0  0  0  0
  -28.1450  -12.4630   18.3570 C   0  0  0  0  0  2  0  0  0  0  0  0
  -27.8230  -13.3710   19.5780 C   0  0  0  0  0  3  0  0  0  0  0  0
  -28.9380  -13.3200   20.6470 C   0  0  0  0  0  2  0  0  0  0  0  0
  -30.2130  -13.6160   19.9790 N   0  0  0  0  0  0  0  0  0  0  0  0
  -32.1170  -14.8310   19.7250 O   0  0  0  0  0  0  0  0  0  0  0  0
  -30.7710  -17.3230   20.4880 C   0  0  0  0  0  3  0  0  0  0  0  0
  -32.6150  -18.4310   21.8720 C   0  0  0  0  0  1  0  0  0  0  0  0
  -30.2190  -16.0870   20.1630 N   0  0  0  0  0  0  0  0  0  0  0  0
  -31.8950  -17.3050   21.2580 N   0  0  0  0  0  0  0  0  0  0  0  0
  -29.2110  -16.1400   20.1840 H   0  0  0  0  0  0  0  0  0  0  0  0
  -32.2890  -16.4130   21.5170 H   0  0  0  0  0  0  0  0  0  0  0  0
  -25.4920  -13.9690   20.4590 C   0  0  0  0  0  0  0  0  0  0  0  0
  -24.4320  -13.2010   20.8590 C   0  0  0  0  0  0  0  0  0  0  0  0
  -24.8730  -11.8470   20.7700 C   0  0  0  0  0  0  0  0  0  0  0  0
  -26.5080  -13.0810   20.1430 N   0  0  0  0  0  0  0  0  0  0  0  0
  -26.1460  -11.7970   20.3950 N   0  0  0  0  0  0  0  0  0  0  0  0
  -24.1330  -10.5950   20.9710 C   0  0  0  0  0  0  0  0  0  0  0  0
  -24.5620   -9.6210   21.8990 C   0  0  0  0  0  3  0  0  0  0  0  0
  -23.8210   -8.4340   22.0820 C   0  0  0  0  0  3  0  0  0  0  0  0
  -22.6400   -8.2080   21.3390 C   0  0  0  0  0  0  0  0  0  0  0  0
  -22.2280   -9.1720   20.4020 C   0  0  0  0  0  3  0  0  0  0  0  0
  -22.9670  -10.3540   20.2160 C   0  0  0  0  0  3  0  0  0  0  0  0
  -21.8720   -7.0730   21.4340 O   0  0  0  0  0  0  0  0  0  0  0  0
  -21.7900   -6.3570   22.6020 C   0  0  0  0  0  0  0  0  0  0  0  0
  -21.3190   -6.9360   23.7990 C   0  0  0  0  0  3  0  0  0  0  0  0
  -21.1830   -6.1450   24.9580 C   0  0  0  0  0  3  0  0  0  0  0  0
  -21.5080   -4.7750   24.9190 C   0  0  0  0  0  0  0  0  0  0  0  0
  -21.9730   -4.1960   23.7240 C   0  0  0  0  0  3  0  0  0  0  0  0
  -22.1070   -4.9840   22.5680 C   0  0  0  0  0  0  0  0  0  0  0  0
  -22.5350   -4.4160   21.4160 F   0  0  0  0  0  0  0  0  0  0  0  0
  -21.3710   -4.0140   26.0310 F   0  0  0  0  0  0  0  0  0  0  0  0
  -23.0620  -13.6940   21.2160 C   0  0  0  0  0  0  0  0  0  0  0  0
  -22.3780  -13.0010   22.1220 N   0  0  0  0  0  0  0  0  0  0  0  0
  -22.6070  -14.7300   20.7320 O   0  0  0  0  0  0  0  0  0  0  0  0
  -22.7630  -12.1620   22.5330 H   0  0  0  0  0  0  0  0  0  0  0  0
  -21.4600  -13.3090   22.4050 H   0  0  0  0  0  0  0  0  0  0  0  0
  -25.6600  -15.3410   20.3290 N   0  0  0  0  0  0  0  0  0  0  0  0
  -24.9160  -15.9790   20.5830 H   0  0  0  0  0  0  0  0  0  0  0  0
  -26.5610  -15.8050   20.2670 H   0  0  0  0  0  0  0  0  0  0  0  0
  -28.5510  -23.8480   20.1120 C   0  0  0  0  0  0  0  0  0  0  0  0
  -29.1070  -22.8350   19.3700 N   0  0  0  0  0  0  0  0  0  0  0  0
  -28.1860  -23.6540   21.2740 O   0  0  0  0  0  0  0  0  0  0  0  0
  -29.4110  -23.1360   18.4530 H   0  0  0  0  0  0  0  0  0  0  0  0
  -29.5390  -25.6760   18.5510 C   0  0  0  0  0  1  0  0  0  0  0  0
  -28.3450  -25.2740   19.4250 C   0  0  0  0  0  3  0  0  0  0  0  0
  -28.1520  -26.4450   20.3230 O   0  0  0  0  0  0  0  0  0  0  0  0
  -24.5190  -31.9750   23.2240 C   0  0  0  0  0  0  0  0  0  0  0  0
  -27.0400  -27.3060   20.2360 C   0  0  0  0  0  0  0  0  0  0  0  0
  -23.2890  -30.5580   21.6250 C   0  0  0  0  0  3  0  0  0  0  0  0
  -24.7030  -28.9690   20.2200 C   0  0  0  0  0  0  0  0  0  0  0  0
  -25.8330  -30.8350   21.4240 C   0  0  0  0  0  2  0  0  0  0  0  0
  -25.8860  -29.4450   20.7970 C   0  0  0  0  0  0  0  0  0  0  0  0
  -27.0550  -28.6250   20.8010 C   0  0  0  0  0  3  0  0  0  0  0  0
  -25.8220  -26.8870   19.6540 C   0  0  0  0  0  3  0  0  0  0  0  0
  -24.6730  -27.6970   19.6430 C   0  0  0  0  0  3  0  0  0  0  0  0
  -23.4860  -29.8620   20.2550 C   0  0  0  0  0  2  0  0  0  0  0  0
  -24.5670  -31.1420   22.1450 N   0  0  0  0  0  0  0  0  0  0  0  0
  -23.4450  -32.2760   23.7610 O   0  0  0  0  0  0  0  0  0  0  0  0
  -22.6230  -29.5660   22.6090 C   0  0  0  0  0  0  0  0  0  0  0  0
  -21.3010  -29.3690   22.4740 N   0  0  0  0  0  0  0  0  0  0  0  0
  -23.2980  -28.9730   23.4550 O   0  0  0  0  0  0  0  0  0  0  0  0
  -20.8220  -29.8980   21.7580 H   0  0  0  0  0  0  0  0  0  0  0  0
  -17.9320  -28.1640   22.9800 C   0  0  0  0  0  0  0  0  0  0  0  0
  -20.4830  -28.4570   23.2730 C   0  0  0  0  0  3  0  0  0  0  0  0
  -20.6040  -27.0070   22.7520 C   0  0  0  0  0  2  0  0  0  0  0  0
  -19.5220  -26.6390   21.7350 C   0  0  0  0  0  2  0  0  0  0  0  0
  -18.1310  -26.7920   22.3550 C   0  0  0  0  0  2  0  0  0  0  0  0
  -19.0380  -28.9530   23.3960 C   0  0  0  0  0  0  0  0  0  0  0  0
  -18.8010  -30.2330   23.9370 C   0  0  0  0  0  3  0  0  0  0  0  0
  -17.4900  -30.7230   24.0800 C   0  0  0  0  0  3  0  0  0  0  0  0
  -16.3990  -29.9320   23.6810 C   0  0  0  0  0  3  0  0  0  0  0  0
  -16.6220  -28.6560   23.1370 C   0  0  0  0  0  3  0  0  0  0  0  0
  -25.8130  -32.6130   23.8190 C   0  0  0  0  0  3  0  0  0  0  0  0
  -26.3680  -31.8340   25.0770 C   0  0  1  0  0  0  0  0  0  0  0  0
  -25.2970  -31.5290   26.1500 C   0  0  0  0  0  1  0  0  0  0  0  0
  -27.0000  -30.4890   24.6530 C   0  0  0  0  0  1  0  0  0  0  0  0
  -27.4940  -32.6560   25.7480 C   0  0  0  0  0  1  0  0  0  0  0  0
  -25.5000  -34.0050   24.1690 N   0  0  0  0  0  0  0  0  0  0  0  0
  -25.7950  -35.0670   23.4090 C   0  0  0  0  0  0  0  0  0  0  0  0
  -26.4250  -34.9760   22.3510 O   0  0  0  0  0  0  0  0  0  0  0  0
  -24.9310  -34.1460   24.9920 H   0  0  0  0  0  0  0  0  0  0  0  0
  -24.0320  -36.8440   23.1430 C   0  0  0  0  0  1  0  0  0  0  0  0
  -25.3140  -36.4490   23.8940 C   0  0  0  0  0  3  0  0  0  0  0  0
  -27.4710  -37.3620   24.6340 C   0  0  0  0  0  1  0  0  0  0  0  0
  -26.3270  -37.5140   23.7380 N   0  0  0  0  0  0  0  0  0  0  0  0
  -25.9160  -38.4300   23.9020 H   0  0  0  0  0  0  0  0  0  0  0  0
  -27.7700  -17.9880   19.8680 C   0  0  0  0  0  0  0  0  0  0  0  0
  -26.3430  -18.4470   19.6180 C   0  0  0  0  0  1  0  0  0  0  0  0
  -27.9970  -16.7840   20.0010 O   0  0  0  0  0  0  0  0  0  0  0  0
  1  3  1  0
  2  6  2  0
  3  5  2  0
  4  1  2  0
  4  2  1  0
  5 15  1  0
  6  5  1  0
  7 17  1  0
  8 13  1  0
  9 10  1  0
  9  8  1  0
 11 10  1  0
 11 24  1  0
 11 12  1  0
 13  7  1  0
 13 12  1  0
 14  7  2  0
 15 17  1  0
 15 18  1  0
 17 19  1  0
 18 20  1  0
 18 16  1  0
 21 22  2  0
 22 41  1  0
 23 22  1  0
 23 26  1  0
 24 25  1  0
 24 21  1  0
 25 23  2  0
 26 27  1  0
 27 28  2  0
 29 32  1  0
 29 28  1  0
 30 29  2  0
 31 30  1  0
 31 26  2  0
 32 33  1  0
 33 34  1  0
 34 35  2  0
 36 35  1  0
 36 40  1  0
 37 36  2  0
 38 33  2  0
 38 37  1  0
 39 38  1  0
 41 42  1  0
 42 45  1  0
 42 44  1  0
 43 41  2  0
 46 21  1  0
 46 47  1  0
 48 46  1  0
 49 51  2  0
 50  4  1  0
 50 49  1  0
 52 50  1  0
 54 53  1  0
 54 49  1  0
 54 55  1  0
 56 67  2  0
 57 55  1  0
 57 62  1  0
 58 66  1  0
 58 68  1  0
 59 65  1  0
 59 61  1  0
 60 66  1  0
 61 62  2  0
 61 60  1  0
 63 57  2  0
 64 63  1  0
 64 59  2  0
 65 58  1  0
 66 56  1  0
 68 70  2  0
 69 68  1  0
 71 69  1  0
 72 81  2  0
 72 77  1  0
 73 69  1  0
 73 77  1  0
 74 73  1  0
 75 76  1  0
 75 74  1  0
 76 72  1  0
 77 78  2  0
 78 79  1  0
 80 79  2  0
 81 80  1  0
 82 56  1  0
 82 87  1  0
 82 83  1  0
 83 86  1  1
 83 84  1  0
 85 83  1  0
 87 90  1  0
 88 92  1  0
 88 87  1  0
 89 88  2  0
 92 91  1  0
 94 92  1  0
 94 95  1  0
 94 93  1  0
 96  3  1  0
 96 98  2  0
 97 96  1  0
M  ISO  4   7 100  17 100  54 101  55 101
M  END
>  <TORSDO>  (81) 
F 19

>  <SCORE>  (81) 
-13.641

>  <name>  (81) 
81

>  <ligand_id>  (81) 
81

>  <original_smiles>  (81) 
[H]c1nc(C(N([H])C(=O)N2C([H])([H])C([H])([H])C([H])([H])C([H])(n3nc(-c4c([H])c([H])c(Oc5c([H])c([H])c(F)c([H])c5F)c([H])c4[H])c(C(=O)N([H])[H])c3N([H])[H])C2([H])[H])=[N+]([H])C([H])([H])[H])c(C(=O)C([H])([H])[H])c([H])c1N([H])C(=O)C([H])(Oc1c([H])c([H])c2c(c1[H])C([H])([H])N(C(=O)C([H])(N([H])C(=O)C([H])(N([H])C([H])([H])[H])C([H])([H])[H])C(C([H])([H])[H])(C([H])([H])[H])C([H])([H])[H])C([H])(C(=O)N([H])C1([H])c3c([H])c([H])c([H])c([H])c3C([H])([H])C([H])([H])C1([H])[H])C2([H])[H])C([H])([H])[H]

>  <smiles>  (81) 
[H]c1nc(C(N([H])C(=O)N2C([H])([H])C([H])([H])C([H])([H])C([H])(n3nc(-c4c([H])c([H])c(Oc5c([H])c([H])c(F)c([H])c5F)c([H])c4[H])c(C(=O)N([H])[H])c3N([H])[H])C2([H])[H])=[N+]([H])C([H])([H])[H])c(C(=O)C([H])([H])[H])c([H])c1N([H])C(=O)C([H])(Oc1c([H])c([H])c2c(c1[H])C([H])([H])N(C(=O)C([H])(N([H])C(=O)C([H])(N([H])C([H])([H])[H])C([H])([H])[H])C(C([H])([H])[H])(C([H])([H])[H])C([H])([H])[H])C([H])(C(=O)N([H])C1([H])c3c([H])c([H])c([H])c([H])c3C([H])([H])C([H])([H])C1([H])[H])C2([H])[H])C([H])([H])[H]

$$$$
82:0:0
     RDKit          3D

 99108  0  0  1  0  0  0  0  0999 V2000
  -29.8770  -24.3980   22.4630 C   0  0  0  0  0  0  0  0  0  0  0  0
  -31.5270  -22.0970   24.3620 C   0  0  0  0  0  2  0  0  0  0  0  0
  -31.4360  -20.7650   23.6080 C   0  0  0  0  0  2  0  0  0  0  0  0
  -30.1760  -22.8100   24.3070 C   0  0  0  0  0  2  0  0  0  0  0  0
  -29.5770  -21.8100   22.1960 C   0  0  0  0  0  2  0  0  0  0  0  0
  -30.8500  -20.8800   22.1760 C   0  0  2  0  0  0  0  0  0  0  0  0
  -29.8530  -23.0950   22.8950 N   0  0  0  0  0  0  0  0  0  0  0  0
  -30.3420  -25.2750   23.2010 O   0  0  0  0  0  0  0  0  0  0  0  0
  -31.7340  -18.5480   21.6030 C   0  0  0  0  0  3  0  0  0  0  0  0
  -29.3360  -18.8750   21.4800 C   0  0  0  0  0  3  0  0  0  0  0  0
  -31.5750  -17.1780   21.3050 C   0  0  0  0  0  3  0  0  0  0  0  0
  -29.1730  -17.5010   21.1910 C   0  0  0  0  0  3  0  0  0  0  0  0
  -30.6230  -19.4230   21.6980 C   0  0  0  0  0  0  0  0  0  0  0  0
  -30.2860  -16.6350   21.1000 C   0  0  0  0  0  0  0  0  0  0  0  0
  -30.6860  -14.3560   20.0930 C   0  0  0  0  0  0  0  0  0  0  0  0
  -30.3430  -12.2680   18.8120 C   0  0  0  0  0  2  0  0  0  0  0  0
  -29.3180  -12.5170   17.6850 C   0  0  0  0  0  2  0  0  0  0  0  0
  -27.8760  -12.3400   18.2000 C   0  0  0  0  0  2  0  0  0  0  0  0
  -27.6140  -13.1070   19.5230 C   0  0  0  0  0  3  0  0  0  0  0  0
  -28.7360  -12.8180   20.5450 C   0  0  0  0  0  2  0  0  0  0  0  0
  -30.0240  -13.1790   19.9220 N   0  0  0  0  0  0  0  0  0  0  0  0
  -31.7450  -14.6130   19.5110 O   0  0  0  0  0  0  0  0  0  0  0  0
  -30.0340  -15.2480   20.8670 N   0  0  0  0  0  0  0  0  0  0  0  0
  -29.1580  -14.9000   21.2220 H   0  0  0  0  0  0  0  0  0  0  0  0
  -25.2430  -13.6580   20.3600 C   0  0  0  0  0  0  0  0  0  0  0  0
  -24.2130  -12.8590   20.7820 C   0  0  0  0  0  0  0  0  0  0  0  0
  -24.7020  -11.5190   20.7170 C   0  0  0  0  0  0  0  0  0  0  0  0
  -26.2930  -12.8020   20.0700 N   0  0  0  0  0  0  0  0  0  0  0  0
  -25.9740  -11.5100   20.3390 N   0  0  0  0  0  0  0  0  0  0  0  0
  -24.0170  -10.2400   20.9380 C   0  0  0  0  0  0  0  0  0  0  0  0
  -24.4410   -9.3400   21.9410 C   0  0  0  0  0  3  0  0  0  0  0  0
  -23.7570   -8.1230   22.1460 C   0  0  0  0  0  3  0  0  0  0  0  0
  -22.6340   -7.7970   21.3480 C   0  0  0  0  0  0  0  0  0  0  0  0
  -22.2310   -8.6850   20.3350 C   0  0  0  0  0  3  0  0  0  0  0  0
  -22.9170   -9.8940   20.1290 C   0  0  0  0  0  3  0  0  0  0  0  0
  -21.9230   -6.6260   21.4590 O   0  0  0  0  0  0  0  0  0  0  0  0
  -21.7460   -6.0030   22.6680 C   0  0  0  0  0  0  0  0  0  0  0  0
  -21.1140   -6.6480   23.7530 C   0  0  0  0  0  3  0  0  0  0  0  0
  -20.8910   -5.9470   24.9540 C   0  0  0  0  0  3  0  0  0  0  0  0
  -21.2900   -4.6010   25.0700 C   0  0  0  0  0  0  0  0  0  0  0  0
  -21.9140   -3.9560   23.9880 C   0  0  0  0  0  3  0  0  0  0  0  0
  -22.1390   -4.6550   22.7890 C   0  0  0  0  0  0  0  0  0  0  0  0
  -22.7220   -4.0220   21.7430 F   0  0  0  0  0  0  0  0  0  0  0  0
  -21.0680   -3.9250   26.2210 F   0  0  0  0  0  0  0  0  0  0  0  0
  -22.8220  -13.3020   21.1350 C   0  0  0  0  0  0  0  0  0  0  0  0
  -22.1630  -12.5880   22.0420 N   0  0  0  0  0  0  0  0  0  0  0  0
  -22.3290  -14.3160   20.6420 O   0  0  0  0  0  0  0  0  0  0  0  0
  -22.5770  -11.7700   22.4630 H   0  0  0  0  0  0  0  0  0  0  0  0
  -21.2330  -12.8660   22.3190 H   0  0  0  0  0  0  0  0  0  0  0  0
  -25.3670  -15.0330   20.1830 N   0  0  0  0  0  0  0  0  0  0  0  0
  -24.5900  -15.6690   20.3310 H   0  0  0  0  0  0  0  0  0  0  0  0
  -26.1820  -15.4900   19.7940 H   0  0  0  0  0  0  0  0  0  0  0  0
  -28.7820  -26.0290   21.0490 C   0  0  0  0  0  3  0  0  0  0  0  0
  -29.2970  -24.7820   21.1630 C   0  0  0  0  0  0  0  0  0  0  0  0
  -29.2890  -23.9790   20.0930 O   0  0  0  0  0  0  0  0  0  0  0  0
  -28.8840  -24.4700   19.3890 H   0  0  0  0  0  0  0  0  0  0  0  0
  -28.2690  -26.5230   19.8780 O   0  0  0  0  0  0  0  0  0  0  0  0
  -24.4410  -31.6470   23.0940 C   0  0  0  0  0  0  0  0  0  0  0  0
  -27.1240  -27.2800   19.9520 C   0  0  0  0  0  0  0  0  0  0  0  0
  -23.2450  -30.2600   21.4300 C   0  0  0  0  0  3  0  0  0  0  0  0
  -24.7140  -28.7540   19.9870 C   0  0  0  0  0  0  0  0  0  0  0  0
  -25.7660  -30.6450   21.2360 C   0  0  0  0  0  2  0  0  0  0  0  0
  -25.8660  -29.2810   20.5860 C   0  0  0  0  0  0  0  0  0  0  0  0
  -27.0750  -28.5500   20.5740 C   0  0  0  0  0  3  0  0  0  0  0  0
  -25.9600  -26.7660   19.3480 C   0  0  0  0  0  3  0  0  0  0  0  0
  -24.7540  -27.4910   19.3690 C   0  0  0  0  0  3  0  0  0  0  0  0
  -23.4620  -29.6000   20.0410 C   0  0  0  0  0  2  0  0  0  0  0  0
  -24.5030  -30.8640   21.9800 N   0  0  0  0  0  0  0  0  0  0  0  0
  -23.3580  -31.9000   23.6400 O   0  0  0  0  0  0  0  0  0  0  0  0
  -22.6020  -29.2210   22.3760 C   0  0  0  0  0  0  0  0  0  0  0  0
  -21.2730  -29.0520   22.2660 N   0  0  0  0  0  0  0  0  0  0  0  0
  -23.2930  -28.5690   23.1630 O   0  0  0  0  0  0  0  0  0  0  0  0
  -20.7760  -29.6310   21.6030 H   0  0  0  0  0  0  0  0  0  0  0  0
  -17.8920  -27.9080   22.8260 C   0  0  0  0  0  0  0  0  0  0  0  0
  -20.4620  -28.1000   23.0250 C   0  0  0  0  0  3  0  0  0  0  0  0
  -20.5150  -26.6920   22.3900 C   0  0  0  0  0  2  0  0  0  0  0  0
  -19.3740  -26.4330   21.4000 C   0  0  0  0  0  2  0  0  0  0  0  0
  -18.0170  -26.5830   22.0930 C   0  0  0  0  0  2  0  0  0  0  0  0
  -19.0410  -28.6280   23.2490 C   0  0  0  0  0  0  0  0  0  0  0  0
  -18.8690  -29.8720   23.8930 C   0  0  0  0  0  3  0  0  0  0  0  0
  -17.5830  -30.3940   24.1210 C   0  0  0  0  0  3  0  0  0  0  0  0
  -16.4480  -29.6700   23.7130 C   0  0  0  0  0  3  0  0  0  0  0  0
  -16.6050  -28.4290   23.0700 C   0  0  0  0  0  3  0  0  0  0  0  0
  -25.7230  -32.2780   23.7220 C   0  0  0  0  0  3  0  0  0  0  0  0
  -26.2510  -31.4880   24.9810 C   0  0  1  0  0  0  0  0  0  0  0  0
  -25.1640  -31.2130   26.0450 C   0  0  0  0  0  1  0  0  0  0  0  0
  -26.8530  -30.1280   24.5570 C   0  0  0  0  0  1  0  0  0  0  0  0
  -27.3920  -32.2820   25.6590 C   0  0  0  0  0  1  0  0  0  0  0  0
  -25.4020  -33.6660   24.0760 N   0  0  0  0  0  0  0  0  0  0  0  0
  -25.7370  -34.7350   23.3410 C   0  0  0  0  0  0  0  0  0  0  0  0
  -26.4190  -34.6550   22.3150 O   0  0  0  0  0  0  0  0  0  0  0  0
  -24.7980  -33.8010   24.8740 H   0  0  0  0  0  0  0  0  0  0  0  0
  -24.0070  -36.5260   22.9960 C   0  0  0  0  0  1  0  0  0  0  0  0
  -25.2380  -36.1120   23.8190 C   0  0  0  0  0  3  0  0  0  0  0  0
  -27.3510  -36.9910   24.7050 C   0  0  0  0  0  1  0  0  0  0  0  0
  -26.2660  -37.1710   23.7430 N   0  0  0  0  0  0  0  0  0  0  0  0
  -25.8530  -38.0870   23.9000 H   0  0  0  0  0  0  0  0  0  0  0  0
  -31.7130  -21.5840   20.0040 C   0  0  0  0  0  1  0  0  0  0  0  0
  -31.8720  -21.5450   21.4220 O   0  0  0  0  0  0  0  0  0  0  0  0
  1  7  1  0
  1  8  2  0
  3  2  1  0
  4  2  1  0
  5  7  1  0
  6 99  1  6
  6  5  1  0
  6  3  1  0
  7  4  1  0
  9 13  1  0
 10 13  2  0
 11  9  2  0
 12 10  1  0
 13  6  1  0
 14 12  2  0
 14 11  1  0
 15 23  1  0
 16 21  1  0
 17 18  1  0
 17 16  1  0
 19 18  1  0
 19 28  1  0
 19 20  1  0
 21 15  1  0
 21 20  1  0
 22 15  2  0
 23 14  1  0
 23 24  1  0
 25 26  2  0
 26 45  1  0
 27 26  1  0
 27 30  1  0
 28 29  1  0
 28 25  1  0
 29 27  2  0
 30 31  1  0
 31 32  2  0
 33 36  1  0
 33 32  1  0
 34 33  2  0
 35 34  1  0
 35 30  2  0
 36 37  1  0
 37 42  2  0
 37 38  1  0
 38 39  2  0
 39 40  1  0
 40 44  1  0
 41 40  2  0
 42 41  1  0
 43 42  1  0
 45 46  1  0
 46 49  1  0
 46 48  1  0
 47 45  2  0
 50 51  1  0
 50 25  1  0
 52 50  1  0
 53 54  2  0
 54  1  1  0
 55 54  1  0
 56 55  1  0
 57 59  1  0
 57 53  1  0
 58 69  2  0
 59 64  1  0
 60 68  1  0
 60 70  1  0
 61 67  1  0
 61 63  1  0
 62 68  1  0
 63 62  1  0
 64 63  2  0
 65 66  1  0
 65 59  2  0
 66 61  2  0
 67 60  1  0
 68 58  1  0
 70 72  2  0
 71 70  1  0
 73 71  1  0
 74 83  2  0
 74 79  1  0
 75 71  1  0
 75 79  1  0
 76 75  1  0
 77 78  1  0
 77 76  1  0
 78 74  1  0
 79 80  2  0
 80 81  1  0
 82 81  2  0
 83 82  1  0
 84 58  1  0
 84 89  1  0
 84 85  1  0
 85 88  1  1
 85 86  1  0
 87 85  1  0
 89 92  1  0
 90 94  1  0
 90 89  1  0
 91 90  2  0
 94 93  1  0
 96 94  1  0
 96 97  1  0
 96 95  1  0
 98 99  1  0
M  ISO  4  15 100  23 100  53 101  57 101
M  END
>  <TORSDO>  (82) 
F 20

>  <SCORE>  (82) 
-12.473

>  <name>  (82) 
82

>  <ligand_id>  (82) 
82

>  <original_smiles>  (82) 
[H]OC(C(=O)N1C([H])([H])C([H])([H])C([H])([H])C(OC([H])([H])[H])(c2c([H])c([H])c(N([H])C(=O)N3C([H])([H])C([H])([H])C([H])([H])C([H])(n4nc(-c5c([H])c([H])c(Oc6c([H])c([H])c(F)c([H])c6F)c([H])c5[H])c(C(=O)N([H])[H])c4N([H])[H])C3([H])[H])c([H])c2[H])C1([H])[H])=C([H])Oc1c([H])c([H])c2c(c1[H])C([H])([H])N(C(=O)C([H])(N([H])C(=O)C([H])(N([H])C([H])([H])[H])C([H])([H])[H])C(C([H])([H])[H])(C([H])([H])[H])C([H])([H])[H])C([H])(C(=O)N([H])C1([H])c3c([H])c([H])c([H])c([H])c3C([H])([H])C([H])([H])C1([H])[H])C2([H])[H]

>  <smiles>  (82) 
[H]OC(C(=O)N1C([H])([H])C([H])([H])C([H])([H])C(OC([H])([H])[H])(c2c([H])c([H])c(N([H])C(=O)N3C([H])([H])C([H])([H])C([H])([H])C([H])(n4nc(-c5c([H])c([H])c(Oc6c([H])c([H])c(F)c([H])c6F)c([H])c5[H])c(C(=O)N([H])[H])c4N([H])[H])C3([H])[H])c([H])c2[H])C1([H])[H])=C([H])Oc1c([H])c([H])c2c(c1[H])C([H])([H])N(C(=O)C([H])(N([H])C(=O)C([H])(N([H])C([H])([H])[H])C([H])([H])[H])C(C([H])([H])[H])(C([H])([H])[H])C([H])([H])[H])C([H])(C(=O)N([H])C1([H])c3c([H])c([H])c([H])c([H])c3C([H])([H])C([H])([H])C1([H])[H])C2([H])[H]

$$$$
83:0:0
     RDKit          3D

 94102  0  0  1  0  0  0  0  0999 V2000
  -28.8040  -23.1950   20.0510 C   0  0  0  0  0  0  0  0  0  0  0  0
  -28.4540  -21.8870   20.2290 N   0  0  0  0  0  0  0  0  0  0  0  0
  -29.6150  -23.5240   19.1870 O   0  0  0  0  0  0  0  0  0  0  0  0
  -27.5590  -21.8300   20.6880 H   0  0  0  0  0  0  0  0  0  0  0  0
  -28.0500  -25.4650   21.0750 C   0  0  0  0  0  3  0  0  0  0  0  0
  -28.1980  -24.0940   21.0670 C   0  0  0  0  0  0  0  0  0  0  0  0
  -27.7400  -23.4900   22.1740 O   0  0  0  0  0  0  0  0  0  0  0  0
  -27.4290  -24.1690   22.7600 H   0  0  0  0  0  0  0  0  0  0  0  0
  -28.2940  -26.4940   20.1670 O   0  0  0  0  0  0  0  0  0  0  0  0
  -24.6250  -31.8930   23.2460 C   0  0  0  0  0  0  0  0  0  0  0  0
  -27.2280  -27.3950   20.1120 C   0  0  0  0  0  0  0  0  0  0  0  0
  -23.4060  -30.4910   21.6160 C   0  0  0  0  0  3  0  0  0  0  0  0
  -24.8530  -28.9580   20.1640 C   0  0  0  0  0  0  0  0  0  0  0  0
  -25.9420  -30.8260   21.4050 C   0  0  0  0  0  2  0  0  0  0  0  0
  -26.0270  -29.4590   20.7470 C   0  0  0  0  0  0  0  0  0  0  0  0
  -27.2240  -28.6860   20.7190 C   0  0  0  0  0  3  0  0  0  0  0  0
  -26.0370  -26.9380   19.5120 C   0  0  0  0  0  3  0  0  0  0  0  0
  -24.8560  -27.7020   19.5410 C   0  0  0  0  0  3  0  0  0  0  0  0
  -23.6090  -29.8180   20.2350 C   0  0  0  0  0  2  0  0  0  0  0  0
  -24.6770  -31.0860   22.1460 N   0  0  0  0  0  0  0  0  0  0  0  0
  -23.5450  -32.1740   23.7880 O   0  0  0  0  0  0  0  0  0  0  0  0
  -22.7580  -29.4720   22.5770 C   0  0  0  0  0  0  0  0  0  0  0  0
  -21.4350  -29.2820   22.4520 N   0  0  0  0  0  0  0  0  0  0  0  0
  -23.4440  -28.8460   23.3900 O   0  0  0  0  0  0  0  0  0  0  0  0
  -20.9470  -29.8350   21.7590 H   0  0  0  0  0  0  0  0  0  0  0  0
  -18.0680  -28.0620   22.9540 C   0  0  0  0  0  0  0  0  0  0  0  0
  -20.6220  -28.3440   23.2220 C   0  0  0  0  0  3  0  0  0  0  0  0
  -20.7350  -26.9110   22.6560 C   0  0  0  0  0  2  0  0  0  0  0  0
  -19.6390  -26.5730   21.6410 C   0  0  0  0  0  2  0  0  0  0  0  0
  -18.2560  -26.7110   22.2810 C   0  0  0  0  0  2  0  0  0  0  0  0
  -19.1800  -28.8380   23.3790 C   0  0  0  0  0  0  0  0  0  0  0  0
  -18.9500  -30.1030   23.9650 C   0  0  0  0  0  3  0  0  0  0  0  0
  -17.6420  -30.5960   24.1270 C   0  0  0  0  0  3  0  0  0  0  0  0
  -16.5440  -29.8180   23.7210 C   0  0  0  0  0  3  0  0  0  0  0  0
  -16.7570  -28.5540   23.1420 C   0  0  0  0  0  3  0  0  0  0  0  0
  -25.9170  -32.5270   23.8590 C   0  0  0  0  0  3  0  0  0  0  0  0
  -26.4480  -31.7540   25.1280 C   0  0  1  0  0  0  0  0  0  0  0  0
  -25.3700  -31.5280   26.2070 C   0  0  0  0  0  1  0  0  0  0  0  0
  -27.0260  -30.3710   24.7360 C   0  0  0  0  0  1  0  0  0  0  0  0
  -27.6040  -32.5480   25.7860 C   0  0  0  0  0  1  0  0  0  0  0  0
  -25.6150  -33.9260   24.1930 N   0  0  0  0  0  0  0  0  0  0  0  0
  -25.9290  -34.9740   23.4200 C   0  0  0  0  0  0  0  0  0  0  0  0
  -26.5900  -34.8690   22.3840 O   0  0  0  0  0  0  0  0  0  0  0  0
  -25.0570  -34.0860   25.0190 H   0  0  0  0  0  0  0  0  0  0  0  0
  -24.1990  -36.7630   23.0670 C   0  0  0  0  0  1  0  0  0  0  0  0
  -25.4410  -36.3590   23.8790 C   0  0  0  0  0  3  0  0  0  0  0  0
  -27.5790  -37.2400   24.7080 C   0  0  0  0  0  1  0  0  0  0  0  0
  -26.4720  -37.4140   23.7740 N   0  0  0  0  0  0  0  0  0  0  0  0
  -26.0650  -38.3320   23.9330 H   0  0  0  0  0  0  0  0  0  0  0  0
  -29.3330  -20.7890   20.7240 C   0  0  0  0  0  2  0  0  0  0  0  0
  -30.6090  -14.6320   20.3460 C   0  0  0  0  0  0  0  0  0  0  0  0
  -30.3760  -12.3780   19.3820 C   0  0  0  0  0  2  0  0  0  0  0  0
  -29.4540  -12.5110   18.1500 C   0  0  0  0  0  2  0  0  0  0  0  0
  -27.9750  -12.3720   18.5640 C   0  0  0  0  0  2  0  0  0  0  0  0
  -27.6090  -13.2590   19.7840 C   0  0  0  0  0  3  0  0  0  0  0  0
  -28.6560  -13.1270   20.9170 C   0  0  0  0  0  2  0  0  0  0  0  0
  -29.9770  -13.4210   20.3430 N   0  0  0  0  0  0  0  0  0  0  0  0
  -31.7980  -14.7360   20.0360 O   0  0  0  0  0  0  0  0  0  0  0  0
  -29.7610  -19.4810   18.5300 C   0  0  0  0  0  3  0  0  0  0  0  0
  -29.4970  -18.1860   20.5480 C   0  0  0  0  0  3  0  0  0  0  0  0
  -30.0730  -18.2710   17.8770 C   0  0  0  0  0  3  0  0  0  0  0  0
  -29.4930  -19.4690   19.9130 C   0  0  0  0  0  0  0  0  0  0  0  0
  -29.8460  -16.9940   19.8390 C   0  0  0  0  0  0  0  0  0  0  0  0
  -30.1240  -17.0750   18.5130 N   0  0  0  0  0  0  0  0  0  0  0  0
  -29.8190  -15.7270   20.5410 N   0  0  0  0  0  0  0  0  0  0  0  0
  -28.9640  -15.5360   21.0310 H   0  0  0  0  0  0  0  0  0  0  0  0
  -25.2080  -13.8730   20.4640 C   0  0  0  0  0  0  0  0  0  0  0  0
  -24.1360  -13.1050   20.8240 C   0  0  0  0  0  0  0  0  0  0  0  0
  -24.5990  -11.7540   20.8250 C   0  0  0  0  0  0  0  0  0  0  0  0
  -26.2570  -12.9900   20.2570 N   0  0  0  0  0  0  0  0  0  0  0  0
  -25.8930  -11.7130   20.5360 N   0  0  0  0  0  0  0  0  0  0  0  0
  -23.8700  -10.4930   21.0170 C   0  0  0  0  0  0  0  0  0  0  0  0
  -24.2950   -9.5350   21.9620 C   0  0  0  0  0  3  0  0  0  0  0  0
  -23.5710   -8.3390   22.1470 C   0  0  0  0  0  3  0  0  0  0  0  0
  -22.4050   -8.0910   21.3830 C   0  0  0  0  0  0  0  0  0  0  0  0
  -21.9950   -9.0400   20.4270 C   0  0  0  0  0  3  0  0  0  0  0  0
  -22.7220  -10.2290   20.2410 C   0  0  0  0  0  3  0  0  0  0  0  0
  -21.6510   -6.9440   21.4770 O   0  0  0  0  0  0  0  0  0  0  0  0
  -21.6020   -6.2050   22.6310 C   0  0  0  0  0  0  0  0  0  0  0  0
  -21.1810   -6.7640   23.8560 C   0  0  0  0  0  3  0  0  0  0  0  0
  -21.0810   -5.9520   25.0030 C   0  0  0  0  0  3  0  0  0  0  0  0
  -21.3950   -4.5820   24.9230 C   0  0  0  0  0  0  0  0  0  0  0  0
  -21.8090   -4.0210   23.7020 C   0  0  0  0  0  3  0  0  0  0  0  0
  -21.9110   -4.8310   22.5570 C   0  0  0  0  0  0  0  0  0  0  0  0
  -22.2920   -4.2810   21.3780 F   0  0  0  0  0  0  0  0  0  0  0  0
  -21.2870   -3.7980   26.0220 F   0  0  0  0  0  0  0  0  0  0  0  0
  -22.7320  -13.5850   21.0650 C   0  0  0  0  0  0  0  0  0  0  0  0
  -21.9950  -12.8980   21.9310 N   0  0  0  0  0  0  0  0  0  0  0  0
  -22.3010  -14.5990   20.5240 O   0  0  0  0  0  0  0  0  0  0  0  0
  -22.3620  -12.0780   22.3920 H   0  0  0  0  0  0  0  0  0  0  0  0
  -21.0520  -13.1960   22.1340 H   0  0  0  0  0  0  0  0  0  0  0  0
  -25.3750  -15.2410   20.2680 N   0  0  0  0  0  0  0  0  0  0  0  0
  -24.5960  -15.8840   20.3440 H   0  0  0  0  0  0  0  0  0  0  0  0
  -26.2100  -15.6800   19.9040 H   0  0  0  0  0  0  0  0  0  0  0  0
  1  2  1  0
  1  6  1  0
  2  4  1  0
  2 50  1  0
  3  1  2  0
  6  5  2  0
  6  7  1  0
  7  8  1  0
  9  5  1  0
 10 21  2  0
 11  9  1  0
 11 16  1  0
 12 20  1  0
 12 22  1  0
 13 19  1  0
 13 15  1  0
 14 20  1  0
 15 14  1  0
 16 15  2  0
 17 18  1  0
 17 11  2  0
 18 13  2  0
 19 12  1  0
 20 10  1  0
 22 24  2  0
 23 22  1  0
 25 23  1  0
 26 35  2  0
 26 31  1  0
 27 23  1  0
 27 31  1  0
 28 27  1  0
 29 30  1  0
 29 28  1  0
 30 26  1  0
 31 32  2  0
 32 33  1  0
 34 33  2  0
 35 34  1  0
 36 10  1  0
 36 41  1  0
 36 37  1  0
 37 40  1  1
 37 38  1  0
 39 37  1  0
 41 44  1  0
 42 46  1  0
 42 41  1  0
 43 42  2  0
 46 45  1  0
 48 46  1  0
 48 49  1  0
 48 47  1  0
 51 65  1  0
 52 57  1  0
 53 54  1  0
 53 52  1  0
 55 54  1  0
 55 70  1  0
 55 56  1  0
 57 51  1  0
 57 56  1  0
 58 51  2  0
 59 62  1  0
 61 64  1  0
 61 59  2  0
 62 60  2  0
 62 50  1  0
 63 65  1  0
 63 60  1  0
 64 63  2  0
 65 66  1  0
 67 68  2  0
 68 69  1  0
 68 87  1  0
 69 72  1  0
 70 67  1  0
 70 71  1  0
 71 69  2  0
 72 73  1  0
 73 74  2  0
 75 78  1  0
 75 74  1  0
 76 75  2  0
 77 76  1  0
 77 72  2  0
 78 79  1  0
 79 80  1  0
 80 81  2  0
 82 81  1  0
 82 86  1  0
 83 82  2  0
 84 79  2  0
 84 83  1  0
 85 84  1  0
 87 88  1  0
 88 91  1  0
 88 90  1  0
 89 87  2  0
 92 93  1  0
 92 67  1  0
 94 92  1  0
M  ISO  4   5 101   9 101  51 100  65 100
M  END
>  <TORSDO>  (83) 
F 19

>  <SCORE>  (83) 
-14.582

>  <name>  (83) 
83

>  <ligand_id>  (83) 
83

>  <original_smiles>  (83) 
[H]OC(C(=O)N([H])C([H])([H])c1c([H])c([H])nc(N([H])C(=O)N2C([H])([H])C([H])([H])C([H])([H])C([H])(n3nc(-c4c([H])c([H])c(Oc5c([H])c([H])c(F)c([H])c5F)c([H])c4[H])c(C(=O)N([H])[H])c3N([H])[H])C2([H])[H])c1[H])=C([H])Oc1c([H])c([H])c2c(c1[H])C([H])([H])N(C(=O)C([H])(N([H])C(=O)C([H])(N([H])C([H])([H])[H])C([H])([H])[H])C(C([H])([H])[H])(C([H])([H])[H])C([H])([H])[H])C([H])(C(=O)N([H])C1([H])c3c([H])c([H])c([H])c([H])c3C([H])([H])C([H])([H])C1([H])[H])C2([H])[H]

>  <smiles>  (83) 
[H]OC(C(=O)N([H])C([H])([H])c1c([H])c([H])nc(N([H])C(=O)N2C([H])([H])C([H])([H])C([H])([H])C([H])(n3nc(-c4c([H])c([H])c(Oc5c([H])c([H])c(F)c([H])c5F)c([H])c4[H])c(C(=O)N([H])[H])c3N([H])[H])C2([H])[H])c1[H])=C([H])Oc1c([H])c([H])c2c(c1[H])C([H])([H])N(C(=O)C([H])(N([H])C(=O)C([H])(N([H])C([H])([H])[H])C([H])([H])[H])C(C([H])([H])[H])(C([H])([H])[H])C([H])([H])[H])C([H])(C(=O)N([H])C1([H])c3c([H])c([H])c([H])c([H])c3C([H])([H])C([H])([H])C1([H])[H])C2([H])[H]

$$$$
84:0:0
     RDKit          3D

 91100  0  0  1  0  0  0  0  0999 V2000
  -29.2620  -23.4220   19.7240 C   0  0  0  0  0  3  0  0  0  0  0  0
  -28.6080  -23.9080   20.8070 C   0  0  0  0  0  0  0  0  0  0  0  0
  -29.6430  -21.9250   19.5010 C   0  0  0  0  0  2  0  0  0  0  0  0
  -28.2030  -22.9100   21.8990 C   0  0  0  0  0  2  0  0  0  0  0  0
  -28.9360  -21.5330   21.8630 C   0  0  0  0  0  2  0  0  0  0  0  0
  -28.9710  -20.8850   20.4640 C   0  0  0  0  0  3  0  0  0  0  0  0
  -28.9220  -18.1710   20.3410 C   0  0  0  0  0  3  0  0  0  0  0  0
  -31.1040  -17.8640   20.7000 C   0  0  0  0  0  3  0  0  0  0  0  0
  -29.9440  -17.1660   20.4960 C   0  0  0  0  0  0  0  0  0  0  0  0
  -29.5110  -19.4220   20.4620 C   0  0  0  0  0  0  0  0  0  0  0  0
  -30.8520  -19.2250   20.6940 O   0  0  0  0  0  0  0  0  0  0  0  0
  -30.5830  -14.6620   20.2600 C   0  0  0  0  0  0  0  0  0  0  0  0
  -30.3720  -12.4330   19.1780 C   0  0  0  0  0  2  0  0  0  0  0  0
  -29.3990  -12.5750   17.9850 C   0  0  0  0  0  2  0  0  0  0  0  0
  -27.9330  -12.4210   18.4410 C   0  0  0  0  0  2  0  0  0  0  0  0
  -27.6000  -13.2640   19.7010 C   0  0  0  0  0  3  0  0  0  0  0  0
  -28.6810  -13.0860   20.7900 C   0  0  0  0  0  2  0  0  0  0  0  0
  -29.9760  -13.4360   20.1850 N   0  0  0  0  0  0  0  0  0  0  0  0
  -31.7580  -14.8220   19.9130 O   0  0  0  0  0  0  0  0  0  0  0  0
  -29.7390  -15.7160   20.5020 N   0  0  0  0  0  0  0  0  0  0  0  0
  -28.7820  -15.4240   20.6310 H   0  0  0  0  0  0  0  0  0  0  0  0
  -25.2180  -13.8590   20.4530 C   0  0  0  0  0  0  0  0  0  0  0  0
  -24.1590  -13.0810   20.8410 C   0  0  0  0  0  0  0  0  0  0  0  0
  -24.6260  -11.7320   20.8040 C   0  0  0  0  0  0  0  0  0  0  0  0
  -26.2610  -12.9810   20.2060 N   0  0  0  0  0  0  0  0  0  0  0  0
  -25.9120  -11.6970   20.4770 N   0  0  0  0  0  0  0  0  0  0  0  0
  -23.9070  -10.4670   21.0040 C   0  0  0  0  0  0  0  0  0  0  0  0
  -24.3540   -9.5000   21.9310 C   0  0  0  0  0  3  0  0  0  0  0  0
  -23.6330   -8.3010   22.1190 C   0  0  0  0  0  3  0  0  0  0  0  0
  -22.4490   -8.0630   21.3800 C   0  0  0  0  0  0  0  0  0  0  0  0
  -22.0220   -9.0200   20.4410 C   0  0  0  0  0  3  0  0  0  0  0  0
  -22.7450  -10.2090   20.2510 C   0  0  0  0  0  3  0  0  0  0  0  0
  -21.6990   -6.9170   21.4790 O   0  0  0  0  0  0  0  0  0  0  0  0
  -21.6670   -6.1740   22.6310 C   0  0  0  0  0  0  0  0  0  0  0  0
  -21.2530   -6.7280   23.8640 C   0  0  0  0  0  3  0  0  0  0  0  0
  -21.1670   -5.9100   25.0080 C   0  0  0  0  0  3  0  0  0  0  0  0
  -21.4840   -4.5410   24.9220 C   0  0  0  0  0  0  0  0  0  0  0  0
  -21.8890   -3.9880   23.6940 C   0  0  0  0  0  3  0  0  0  0  0  0
  -21.9770   -4.8020   22.5520 C   0  0  0  0  0  0  0  0  0  0  0  0
  -22.3490   -4.2590   21.3680 F   0  0  0  0  0  0  0  0  0  0  0  0
  -21.3950   -3.7540   26.0200 F   0  0  0  0  0  0  0  0  0  0  0  0
  -22.7650  -13.5540   21.1340 C   0  0  0  0  0  0  0  0  0  0  0  0
  -22.0520  -12.8560   22.0120 N   0  0  0  0  0  0  0  0  0  0  0  0
  -22.3160  -14.5780   20.6220 O   0  0  0  0  0  0  0  0  0  0  0  0
  -22.4290  -12.0270   22.4480 H   0  0  0  0  0  0  0  0  0  0  0  0
  -21.1190  -13.1550   22.2520 H   0  0  0  0  0  0  0  0  0  0  0  0
  -25.3680  -15.2300   20.2650 N   0  0  0  0  0  0  0  0  0  0  0  0
  -24.5790  -15.8630   20.3540 H   0  0  0  0  0  0  0  0  0  0  0  0
  -26.1820  -15.6710   19.8570 H   0  0  0  0  0  0  0  0  0  0  0  0
  -28.1850  -25.3920   21.1290 C   0  0  0  0  0  2  0  0  0  0  0  0
  -28.3500  -26.4940   20.1720 O   0  0  0  0  0  0  0  0  0  0  0  0
  -24.6260  -31.8710   23.2210 C   0  0  0  0  0  0  0  0  0  0  0  0
  -27.2580  -27.3660   20.1380 C   0  0  0  0  0  0  0  0  0  0  0  0
  -23.4250  -30.4720   21.5750 C   0  0  0  0  0  3  0  0  0  0  0  0
  -24.8820  -28.9380   20.1400 C   0  0  0  0  0  0  0  0  0  0  0  0
  -25.9570  -30.8160   21.3840 C   0  0  0  0  0  2  0  0  0  0  0  0
  -26.0480  -29.4410   20.7340 C   0  0  0  0  0  0  0  0  0  0  0  0
  -27.2440  -28.6660   20.7250 C   0  0  0  0  0  3  0  0  0  0  0  0
  -26.0780  -26.9070   19.5200 C   0  0  0  0  0  3  0  0  0  0  0  0
  -24.8980  -27.6740   19.5250 C   0  0  0  0  0  3  0  0  0  0  0  0
  -23.6380  -29.8010   20.1930 C   0  0  0  0  0  2  0  0  0  0  0  0
  -24.6880  -31.0680   22.1180 N   0  0  0  0  0  0  0  0  0  0  0  0
  -23.5420  -32.1400   23.7600 O   0  0  0  0  0  0  0  0  0  0  0  0
  -22.7680  -29.4500   22.5330 C   0  0  0  0  0  0  0  0  0  0  0  0
  -21.4410  -29.2780   22.4160 N   0  0  0  0  0  0  0  0  0  0  0  0
  -23.4510  -28.8170   23.3420 O   0  0  0  0  0  0  0  0  0  0  0  0
  -20.9490  -29.8420   21.7370 H   0  0  0  0  0  0  0  0  0  0  0  0
  -18.0640  -28.0930   22.9330 C   0  0  0  0  0  0  0  0  0  0  0  0
  -20.6240  -28.3370   23.1840 C   0  0  0  0  0  3  0  0  0  0  0  0
  -20.7150  -26.9100   22.5960 C   0  0  0  0  0  2  0  0  0  0  0  0
  -19.6050  -26.6020   21.5880 C   0  0  0  0  0  2  0  0  0  0  0  0
  -18.2280  -26.7490   22.2430 C   0  0  0  0  0  2  0  0  0  0  0  0
  -19.1880  -28.8460   23.3600 C   0  0  0  0  0  0  0  0  0  0  0  0
  -18.9810  -30.1060   23.9640 C   0  0  0  0  0  3  0  0  0  0  0  0
  -17.6800  -30.6110   24.1450 C   0  0  0  0  0  3  0  0  0  0  0  0
  -16.5680  -29.8550   23.7340 C   0  0  0  0  0  3  0  0  0  0  0  0
  -16.7610  -28.5970   23.1320 C   0  0  0  0  0  3  0  0  0  0  0  0
  -25.9080  -32.5040   23.8420 C   0  0  0  0  0  3  0  0  0  0  0  0
  -25.5950  -33.9000   24.1780 N   0  0  0  0  0  0  0  0  0  0  0  0
  -25.9200  -34.9570   23.4210 C   0  0  0  0  0  0  0  0  0  0  0  0
  -26.5850  -34.8600   22.3850 O   0  0  0  0  0  0  0  0  0  0  0  0
  -25.0070  -34.0500   24.9850 H   0  0  0  0  0  0  0  0  0  0  0  0
  -24.1820  -36.7450   23.0840 C   0  0  0  0  0  1  0  0  0  0  0  0
  -25.4300  -36.3420   23.8870 C   0  0  0  0  0  3  0  0  0  0  0  0
  -27.5690  -37.2310   24.7020 C   0  0  0  0  0  1  0  0  0  0  0  0
  -26.4570  -37.4020   23.7700 N   0  0  0  0  0  0  0  0  0  0  0  0
  -26.0480  -38.3180   23.9300 H   0  0  0  0  0  0  0  0  0  0  0  0
  -26.4290  -31.7300   25.1150 C   0  0  1  0  0  0  0  0  0  0  0  0
  -25.3400  -31.4860   26.1850 C   0  0  0  0  0  1  0  0  0  0  0  0
  -27.0140  -30.3550   24.7180 C   0  0  0  0  0  1  0  0  0  0  0  0
  -27.5810  -32.5240   25.7760 C   0  0  0  0  0  1  0  0  0  0  0  0
  1  2  2  0
  2 50  1  0
  2  4  1  0
  3  1  1  0
  3  6  1  0
  5  4  1  0
  6 10  1  0
  6  5  1  0
  7 10  2  0
  7  9  1  0
  9 20  1  0
  9  8  2  0
 10 11  1  0
 11  8  1  0
 12 20  1  0
 13 18  1  0
 14 15  1  0
 14 13  1  0
 16 15  1  0
 16 25  1  0
 16 17  1  0
 18 12  1  0
 18 17  1  0
 19 12  2  0
 20 21  1  0
 22 23  2  0
 23 42  1  0
 24 23  1  0
 24 27  1  0
 25 22  1  0
 25 26  1  0
 26 24  2  0
 27 28  1  0
 28 29  2  0
 30 33  1  0
 30 29  1  0
 31 30  2  0
 32 31  1  0
 32 27  2  0
 33 34  1  0
 34 35  1  0
 35 36  2  0
 37 36  1  0
 37 41  1  0
 38 37  2  0
 39 34  2  0
 39 38  1  0
 40 39  1  0
 42 43  1  0
 43 46  1  0
 43 45  1  0
 44 42  2  0
 47 48  1  0
 47 22  1  0
 49 47  1  0
 51 50  1  0
 52 63  2  0
 53 51  1  0
 53 58  1  0
 54 62  1  0
 54 64  1  0
 55 61  1  0
 55 57  1  0
 56 62  1  0
 57 56  1  0
 58 57  2  0
 59 60  1  0
 59 53  2  0
 60 55  2  0
 61 54  1  0
 62 52  1  0
 64 66  2  0
 65 64  1  0
 67 65  1  0
 68 77  2  0
 68 73  1  0
 69 65  1  0
 69 73  1  0
 70 69  1  0
 71 72  1  0
 71 70  1  0
 72 68  1  0
 73 74  2  0
 74 75  1  0
 76 75  2  0
 77 76  1  0
 78 52  1  0
 78 79  1  0
 78 88  1  0
 79 82  1  0
 80 84  1  0
 80 79  1  0
 81 80  2  0
 84 83  1  0
 86 84  1  0
 86 87  1  0
 86 85  1  0
 88 91  1  1
 88 89  1  0
 90 88  1  0
M  ISO  4  12 100  20 100  50 101  51 101
M  END
>  <TORSDO>  (84) 
F 18

>  <SCORE>  (84) 
-14.852

>  <name>  (84) 
84

>  <ligand_id>  (84) 
84

>  <original_smiles>  (84) 
[H]C1=C(C([H])([H])Oc2c([H])c([H])c3c(c2[H])C([H])([H])N(C(=O)C([H])(N([H])C(=O)C([H])(N([H])C([H])([H])[H])C([H])([H])[H])C(C([H])([H])[H])(C([H])([H])[H])C([H])([H])[H])C([H])(C(=O)N([H])C2([H])c4c([H])c([H])c([H])c([H])c4C([H])([H])C([H])([H])C2([H])[H])C3([H])[H])C([H])([H])C([H])([H])C([H])(c2oc([H])c(N([H])C(=O)N3C([H])([H])C([H])([H])C([H])([H])C([H])(n4nc(-c5c([H])c([H])c(Oc6c([H])c([H])c(F)c([H])c6F)c([H])c5[H])c(C(=O)N([H])[H])c4N([H])[H])C3([H])[H])c2[H])C1([H])[H]

>  <smiles>  (84) 
[H]C1=C(C([H])([H])Oc2c([H])c([H])c3c(c2[H])C([H])([H])N(C(=O)C([H])(N([H])C(=O)C([H])(N([H])C([H])([H])[H])C([H])([H])[H])C(C([H])([H])[H])(C([H])([H])[H])C([H])([H])[H])C([H])(C(=O)N([H])C2([H])c4c([H])c([H])c([H])c([H])c4C([H])([H])C([H])([H])C2([H])[H])C3([H])[H])C([H])([H])C([H])([H])C([H])(c2oc([H])c(N([H])C(=O)N3C([H])([H])C([H])([H])C([H])([H])C([H])(n4nc(-c5c([H])c([H])c(Oc6c([H])c([H])c(F)c([H])c6F)c([H])c5[H])c(C(=O)N([H])[H])c4N([H])[H])C3([H])[H])c2[H])C1([H])[H]

$$$$
85:0:0
     RDKit          3D

 94103  0  0  1  0  0  0  0  0999 V2000
  -28.0130  -21.4610   20.6880 C   0  0  0  0  0  2  0  0  0  0  0  0
  -30.2820  -21.7820   19.6780 C   0  0  0  0  0  2  0  0  0  0  0  0
  -27.6380  -22.9580   20.3280 C   0  0  0  0  0  2  0  0  0  0  0  0
  -29.8910  -23.2420   19.2660 C   0  0  0  0  0  2  0  0  0  0  0  0
  -29.0500  -20.8540   19.6980 C   0  0  0  0  0  3  0  0  0  0  0  0
  -28.8320  -23.9940   20.1640 C   0  0  2  0  0  0  0  0  0  0  0  0
  -29.7400  -17.0300   18.6980 C   0  0  0  0  0  3  0  0  0  0  0  0
  -29.8010  -17.0740   20.0690 C   0  0  0  0  0  0  0  0  0  0  0  0
  -29.2970  -19.3200   19.6170 C   0  0  0  0  0  0  0  0  0  0  0  0
  -29.5520  -18.3890   20.5850 N   0  0  0  0  0  0  0  0  0  0  0  0
  -29.3530  -18.5800   18.0090 S   0  0  0  0  0  0  0  0  0  0  0  0
  -30.7030  -14.7600   20.4920 C   0  0  0  0  0  0  0  0  0  0  0  0
  -30.5040  -12.5030   19.4950 C   0  0  0  0  0  2  0  0  0  0  0  0
  -29.5900  -12.6130   18.2530 C   0  0  0  0  0  2  0  0  0  0  0  0
  -28.1090  -12.4730   18.6520 C   0  0  0  0  0  2  0  0  0  0  0  0
  -27.7220  -13.3470   19.8760 C   0  0  0  0  0  3  0  0  0  0  0  0
  -28.7580  -13.2190   21.0170 C   0  0  0  0  0  2  0  0  0  0  0  0
  -30.0770  -13.5390   20.4550 N   0  0  0  0  0  0  0  0  0  0  0  0
  -31.8660  -14.8920   20.0930 O   0  0  0  0  0  0  0  0  0  0  0  0
  -29.9510  -15.8490   20.8360 N   0  0  0  0  0  0  0  0  0  0  0  0
  -29.1800  -15.6480   21.4540 H   0  0  0  0  0  0  0  0  0  0  0  0
  -25.3120  -13.9250   20.5450 C   0  0  0  0  0  0  0  0  0  0  0  0
  -24.2430  -13.1450   20.8940 C   0  0  0  0  0  0  0  0  0  0  0  0
  -24.7170  -11.7970   20.8690 C   0  0  0  0  0  0  0  0  0  0  0  0
  -26.3690  -13.0550   20.3350 N   0  0  0  0  0  0  0  0  0  0  0  0
  -26.0140  -11.7690   20.5880 N   0  0  0  0  0  0  0  0  0  0  0  0
  -23.9960  -10.5310   21.0430 C   0  0  0  0  0  0  0  0  0  0  0  0
  -24.4040   -9.5700   21.9930 C   0  0  0  0  0  3  0  0  0  0  0  0
  -23.6800   -8.3690   22.1550 C   0  0  0  0  0  3  0  0  0  0  0  0
  -22.5330   -8.1200   21.3620 C   0  0  0  0  0  0  0  0  0  0  0  0
  -22.1500   -9.0650   20.3950 C   0  0  0  0  0  3  0  0  0  0  0  0
  -22.8760  -10.2570   20.2350 C   0  0  0  0  0  3  0  0  0  0  0  0
  -21.7850   -6.9680   21.4350 O   0  0  0  0  0  0  0  0  0  0  0  0
  -21.6810   -6.2480   22.5980 C   0  0  0  0  0  0  0  0  0  0  0  0
  -21.1460   -6.8100   23.7790 C   0  0  0  0  0  3  0  0  0  0  0  0
  -20.9930   -6.0130   24.9310 C   0  0  0  0  0  3  0  0  0  0  0  0
  -21.3640   -4.6550   24.9040 C   0  0  0  0  0  0  0  0  0  0  0  0
  -21.8860   -4.0910   23.7270 C   0  0  0  0  0  3  0  0  0  0  0  0
  -22.0400   -4.8850   22.5760 C   0  0  0  0  0  0  0  0  0  0  0  0
  -22.5270   -4.3320   21.4380 F   0  0  0  0  0  0  0  0  0  0  0  0
  -21.2100   -3.8890   26.0090 F   0  0  0  0  0  0  0  0  0  0  0  0
  -22.8380  -13.6100   21.1430 C   0  0  0  0  0  0  0  0  0  0  0  0
  -22.1040  -12.8970   21.9920 N   0  0  0  0  0  0  0  0  0  0  0  0
  -22.3990  -14.6350   20.6210 O   0  0  0  0  0  0  0  0  0  0  0  0
  -22.4760  -12.0660   22.4290 H   0  0  0  0  0  0  0  0  0  0  0  0
  -21.1590  -13.1840   22.2080 H   0  0  0  0  0  0  0  0  0  0  0  0
  -25.4690  -15.2980   20.3650 N   0  0  0  0  0  0  0  0  0  0  0  0
  -24.6880  -15.9390   20.4190 H   0  0  0  0  0  0  0  0  0  0  0  0
  -26.3230  -15.7420   20.0490 H   0  0  0  0  0  0  0  0  0  0  0  0
  -29.4690  -24.3530   21.5350 C   0  0  0  0  0  0  0  0  0  0  0  0
  -30.7020  -25.2590   21.5670 C   0  0  0  0  0  1  0  0  0  0  0  0
  -29.0070  -23.9270   22.5990 O   0  0  0  0  0  0  0  0  0  0  0  0
  -28.3910  -25.3510   19.4080 C   0  0  0  0  0  2  0  0  0  0  0  0
  -28.2480  -26.6500   20.0950 O   0  0  0  0  0  0  0  0  0  0  0  0
  -24.5300  -31.9390   23.2120 C   0  0  0  0  0  0  0  0  0  0  0  0
  -27.0920  -27.4380   20.0450 C   0  0  0  0  0  0  0  0  0  0  0  0
  -23.2950  -30.5590   21.5780 C   0  0  0  0  0  3  0  0  0  0  0  0
  -24.7180  -29.0310   20.1040 C   0  0  0  0  0  0  0  0  0  0  0  0
  -25.8290  -30.8900   21.3490 C   0  0  0  0  0  2  0  0  0  0  0  0
  -25.8950  -29.5210   20.6830 C   0  0  0  0  0  0  0  0  0  0  0  0
  -27.0800  -28.7330   20.6450 C   0  0  0  0  0  3  0  0  0  0  0  0
  -25.8860  -26.9870   19.4630 C   0  0  0  0  0  3  0  0  0  0  0  0
  -24.7160  -27.7690   19.4900 C   0  0  0  0  0  3  0  0  0  0  0  0
  -23.4810  -29.9020   20.1870 C   0  0  0  0  0  2  0  0  0  0  0  0
  -24.5720  -31.1440   22.1040 N   0  0  0  0  0  0  0  0  0  0  0  0
  -23.4570  -32.2090   23.7710 O   0  0  0  0  0  0  0  0  0  0  0  0
  -22.6520  -29.5300   22.5380 C   0  0  0  0  0  0  0  0  0  0  0  0
  -21.3260  -29.3460   22.4250 N   0  0  0  0  0  0  0  0  0  0  0  0
  -23.3460  -28.9000   23.3400 O   0  0  0  0  0  0  0  0  0  0  0  0
  -20.8250  -29.9040   21.7480 H   0  0  0  0  0  0  0  0  0  0  0  0
  -17.9670  -28.1180   22.9500 C   0  0  0  0  0  0  0  0  0  0  0  0
  -20.5250  -28.4000   23.2020 C   0  0  0  0  0  3  0  0  0  0  0  0
  -20.6360  -26.9720   22.6210 C   0  0  0  0  0  2  0  0  0  0  0  0
  -19.5310  -26.6410   21.6130 C   0  0  0  0  0  2  0  0  0  0  0  0
  -18.1520  -26.7740   22.2670 C   0  0  0  0  0  2  0  0  0  0  0  0
  -19.0820  -28.8880   23.3750 C   0  0  0  0  0  0  0  0  0  0  0  0
  -18.8560  -30.1480   23.9720 C   0  0  0  0  0  3  0  0  0  0  0  0
  -17.5490  -30.6360   24.1500 C   0  0  0  0  0  3  0  0  0  0  0  0
  -16.4480  -29.8630   23.7410 C   0  0  0  0  0  3  0  0  0  0  0  0
  -16.6590  -28.6050   23.1490 C   0  0  0  0  0  3  0  0  0  0  0  0
  -25.8240  -32.5660   23.8160 C   0  0  0  0  0  3  0  0  0  0  0  0
  -26.3500  -31.7980   25.0910 C   0  0  1  0  0  0  0  0  0  0  0  0
  -25.2650  -31.5700   26.1690 C   0  0  0  0  0  1  0  0  0  0  0  0
  -26.9220  -30.4160   24.7010 C   0  0  0  0  0  1  0  0  0  0  0  0
  -27.5120  -32.5890   25.7380 C   0  0  0  0  0  1  0  0  0  0  0  0
  -25.5260  -33.9670   24.1450 N   0  0  0  0  0  0  0  0  0  0  0  0
  -25.8720  -35.0180   23.3880 C   0  0  0  0  0  0  0  0  0  0  0  0
  -26.5460  -34.9090   22.3610 O   0  0  0  0  0  0  0  0  0  0  0  0
  -24.9310  -34.1270   24.9450 H   0  0  0  0  0  0  0  0  0  0  0  0
  -24.1790  -36.8380   23.0070 C   0  0  0  0  0  1  0  0  0  0  0  0
  -25.3950  -36.4110   23.8440 C   0  0  0  0  0  3  0  0  0  0  0  0
  -27.5200  -37.2570   24.7360 C   0  0  0  0  0  1  0  0  0  0  0  0
  -26.4440  -37.4510   23.7670 N   0  0  0  0  0  0  0  0  0  0  0  0
  -26.0450  -38.3730   23.9210 H   0  0  0  0  0  0  0  0  0  0  0  0
  2  5  1  0
  3  1  1  0
  4  2  1  0
  4  6  1  0
  5  9  1  0
  5  1  1  0
  6 53  1  6
  6  3  1  0
  6 50  1  0
  7  8  2  0
  8 10  1  0
  8 20  1  0
  9 10  2  0
 11  7  1  0
 11  9  1  0
 12 20  1  0
 13 18  1  0
 14 15  1  0
 14 13  1  0
 16 15  1  0
 16 25  1  0
 16 17  1  0
 18 12  1  0
 18 17  1  0
 19 12  2  0
 20 21  1  0
 22 23  2  0
 23 42  1  0
 24 23  1  0
 24 27  1  0
 25 22  1  0
 25 26  1  0
 26 24  2  0
 27 28  1  0
 28 29  2  0
 30 33  1  0
 30 29  1  0
 31 30  2  0
 32 31  1  0
 32 27  2  0
 33 34  1  0
 34 35  1  0
 35 36  2  0
 37 36  1  0
 37 41  1  0
 38 37  2  0
 39 34  2  0
 39 38  1  0
 40 39  1  0
 42 43  1  0
 43 46  1  0
 43 45  1  0
 44 42  2  0
 47 48  1  0
 47 22  1  0
 49 47  1  0
 50 51  1  0
 50 52  2  0
 53 54  1  0
 55 66  2  0
 56 54  1  0
 56 61  1  0
 57 65  1  0
 57 67  1  0
 58 64  1  0
 58 60  1  0
 59 65  1  0
 60 59  1  0
 61 60  2  0
 62 63  1  0
 62 56  2  0
 63 58  2  0
 64 57  1  0
 65 55  1  0
 67 69  2  0
 68 67  1  0
 70 68  1  0
 71 80  2  0
 71 76  1  0
 72 68  1  0
 72 76  1  0
 73 72  1  0
 74 75  1  0
 74 73  1  0
 75 71  1  0
 76 77  2  0
 77 78  1  0
 79 78  2  0
 80 79  1  0
 81 55  1  0
 81 86  1  0
 81 82  1  0
 82 85  1  1
 82 83  1  0
 84 82  1  0
 86 89  1  0
 87 91  1  0
 87 86  1  0
 88 87  2  0
 91 90  1  0
 93 91  1  0
 93 94  1  0
 93 92  1  0
M  ISO  4  12 100  20 100  53 101  54 101
M  END
>  <TORSDO>  (85) 
F 19

>  <SCORE>  (85) 
-14.284

>  <name>  (85) 
85

>  <ligand_id>  (85) 
85

>  <original_smiles>  (85) 
[H]c1sc(C2([H])C([H])([H])C([H])([H])C(C(=O)C([H])([H])[H])(C([H])([H])Oc3c([H])c([H])c4c(c3[H])C([H])([H])N(C(=O)C([H])(N([H])C(=O)C([H])(N([H])C([H])([H])[H])C([H])([H])[H])C(C([H])([H])[H])(C([H])([H])[H])C([H])([H])[H])C([H])(C(=O)N([H])C3([H])c5c([H])c([H])c([H])c([H])c5C([H])([H])C([H])([H])C3([H])[H])C4([H])[H])C([H])([H])C2([H])[H])nc1N([H])C(=O)N1C([H])([H])C([H])([H])C([H])([H])C([H])(n2nc(-c3c([H])c([H])c(Oc4c([H])c([H])c(F)c([H])c4F)c([H])c3[H])c(C(=O)N([H])[H])c2N([H])[H])C1([H])[H]

>  <smiles>  (85) 
[H]c1sc(C2([H])C([H])([H])C([H])([H])C(C(=O)C([H])([H])[H])(C([H])([H])Oc3c([H])c([H])c4c(c3[H])C([H])([H])N(C(=O)C([H])(N([H])C(=O)C([H])(N([H])C([H])([H])[H])C([H])([H])[H])C(C([H])([H])[H])(C([H])([H])[H])C([H])([H])[H])C([H])(C(=O)N([H])C3([H])c5c([H])c([H])c([H])c([H])c5C([H])([H])C([H])([H])C3([H])[H])C4([H])[H])C([H])([H])C2([H])[H])nc1N([H])C(=O)N1C([H])([H])C([H])([H])C([H])([H])C([H])(n2nc(-c3c([H])c([H])c(Oc4c([H])c([H])c(F)c([H])c4F)c([H])c3[H])c(C(=O)N([H])[H])c2N([H])[H])C1([H])[H]

$$$$
86:0:0
     RDKit          3D

 94103  0  0  1  0  0  0  0  0999 V2000
  -29.2840  -21.4010   19.3480 C   0  0  0  0  0  2  0  0  0  0  0  0
  -29.9350  -22.1910   21.6010 C   0  0  0  0  0  2  0  0  0  0  0  0
  -28.4650  -22.7230   19.1620 C   0  0  0  0  0  2  0  0  0  0  0  0
  -29.1120  -23.5070   21.4150 C   0  0  0  0  0  2  0  0  0  0  0  0
  -29.3850  -20.9500   20.8230 C   0  0  0  0  0  3  0  0  0  0  0  0
  -28.9810  -23.9830   19.9380 C   0  0  1  0  0  0  0  0  0  0  0  0
  -32.1330  -18.4460   21.9550 C   0  0  0  0  0  3  0  0  0  0  0  0
  -31.4300  -19.6310   21.6760 C   0  0  0  0  0  3  0  0  0  0  0  0
  -31.6030  -17.1950   21.6000 C   0  0  0  0  0  3  0  0  0  0  0  0
  -29.6320  -18.3140   20.6980 C   0  0  0  0  0  3  0  0  0  0  0  0
  -30.1630  -19.6050   21.0480 C   0  0  0  0  0  0  0  0  0  0  0  0
  -30.3500  -17.0920   20.9530 C   0  0  0  0  0  0  0  0  0  0  0  0
  -30.5080  -14.6930   20.1580 C   0  0  0  0  0  0  0  0  0  0  0  0
  -30.1740  -12.5330   18.9830 C   0  0  0  0  0  2  0  0  0  0  0  0
  -29.1610  -12.7160   17.8360 C   0  0  0  0  0  2  0  0  0  0  0  0
  -27.7200  -12.5240   18.3500 C   0  0  0  0  0  2  0  0  0  0  0  0
  -27.4360  -13.3280   19.6470 C   0  0  0  0  0  3  0  0  0  0  0  0
  -28.5660  -13.1540   20.6880 C   0  0  0  0  0  2  0  0  0  0  0  0
  -29.8310  -13.5120   20.0340 N   0  0  0  0  0  0  0  0  0  0  0  0
  -31.6350  -14.8310   19.6730 O   0  0  0  0  0  0  0  0  0  0  0  0
  -29.8220  -15.7720   20.6390 N   0  0  0  0  0  0  0  0  0  0  0  0
  -28.8380  -15.6270   20.8080 H   0  0  0  0  0  0  0  0  0  0  0  0
  -25.0790  -13.8510   20.5260 C   0  0  0  0  0  0  0  0  0  0  0  0
  -24.0500  -13.0440   20.9280 C   0  0  0  0  0  0  0  0  0  0  0  0
  -24.5340  -11.7050   20.8210 C   0  0  0  0  0  0  0  0  0  0  0  0
  -26.1240  -13.0030   20.2000 N   0  0  0  0  0  0  0  0  0  0  0  0
  -25.8050  -11.7030   20.4370 N   0  0  0  0  0  0  0  0  0  0  0  0
  -23.8420  -10.4210   21.0060 C   0  0  0  0  0  0  0  0  0  0  0  0
  -24.3030   -9.4610   21.9340 C   0  0  0  0  0  3  0  0  0  0  0  0
  -23.6100   -8.2430   22.1060 C   0  0  0  0  0  3  0  0  0  0  0  0
  -22.4410   -7.9780   21.3530 C   0  0  0  0  0  0  0  0  0  0  0  0
  -22.0010   -8.9280   20.4140 C   0  0  0  0  0  3  0  0  0  0  0  0
  -22.6940  -10.1370   20.2400 C   0  0  0  0  0  3  0  0  0  0  0  0
  -21.7180   -6.8130   21.4360 O   0  0  0  0  0  0  0  0  0  0  0  0
  -21.6610   -6.0830   22.5960 C   0  0  0  0  0  0  0  0  0  0  0  0
  -21.1310   -6.6210   23.7900 C   0  0  0  0  0  3  0  0  0  0  0  0
  -21.0270   -5.8140   24.9400 C   0  0  0  0  0  3  0  0  0  0  0  0
  -21.4430   -4.4690   24.8970 C   0  0  0  0  0  0  0  0  0  0  0  0
  -21.9650   -3.9310   23.7080 C   0  0  0  0  0  3  0  0  0  0  0  0
  -22.0710   -4.7350   22.5610 C   0  0  0  0  0  0  0  0  0  0  0  0
  -22.5550   -4.2050   21.4120 F   0  0  0  0  0  0  0  0  0  0  0  0
  -21.3350   -3.6920   26.0010 F   0  0  0  0  0  0  0  0  0  0  0  0
  -22.6630  -13.4830   21.2980 C   0  0  0  0  0  0  0  0  0  0  0  0
  -22.0020  -12.7470   22.1830 N   0  0  0  0  0  0  0  0  0  0  0  0
  -22.1750  -14.5140   20.8350 O   0  0  0  0  0  0  0  0  0  0  0  0
  -22.4090  -11.9120   22.5770 H   0  0  0  0  0  0  0  0  0  0  0  0
  -21.0740  -13.0240   22.4720 H   0  0  0  0  0  0  0  0  0  0  0  0
  -25.2050  -15.2310   20.3870 N   0  0  0  0  0  0  0  0  0  0  0  0
  -24.4310  -15.8630   20.5590 H   0  0  0  0  0  0  0  0  0  0  0  0
  -26.0180  -15.6980   20.0080 H   0  0  0  0  0  0  0  0  0  0  0  0
  -31.0910  -25.2050   19.9390 C   0  0  0  0  0  1  0  0  0  0  0  0
  -30.2430  -24.2460   19.3180 O   0  0  0  0  0  0  0  0  0  0  0  0
  -27.9640  -25.1920   19.6990 C   0  0  0  0  0  2  0  0  0  0  0  0
  -28.1670  -26.5900   20.1320 O   0  0  0  0  0  0  0  0  0  0  0  0
  -24.5030  -31.9780   23.2380 C   0  0  0  0  0  0  0  0  0  0  0  0
  -27.0440  -27.4380   20.1020 C   0  0  0  0  0  0  0  0  0  0  0  0
  -23.2610  -30.5870   21.6240 C   0  0  0  0  0  3  0  0  0  0  0  0
  -24.6770  -29.0470   20.1590 C   0  0  0  0  0  0  0  0  0  0  0  0
  -25.7970  -30.9040   21.3850 C   0  0  0  0  0  2  0  0  0  0  0  0
  -25.8610  -29.5310   20.7310 C   0  0  0  0  0  0  0  0  0  0  0  0
  -27.0450  -28.7370   20.6980 C   0  0  0  0  0  3  0  0  0  0  0  0
  -25.8320  -27.0160   19.4990 C   0  0  0  0  0  3  0  0  0  0  0  0
  -24.6640  -27.7930   19.5380 C   0  0  0  0  0  3  0  0  0  0  0  0
  -23.4420  -29.9190   20.2370 C   0  0  0  0  0  2  0  0  0  0  0  0
  -24.5400  -31.1700   22.1400 N   0  0  0  0  0  0  0  0  0  0  0  0
  -23.4320  -32.2570   23.7950 O   0  0  0  0  0  0  0  0  0  0  0  0
  -22.6190  -29.5640   22.5910 C   0  0  0  0  0  0  0  0  0  0  0  0
  -21.2990  -29.3510   22.4590 N   0  0  0  0  0  0  0  0  0  0  0  0
  -23.3070  -28.9660   23.4220 O   0  0  0  0  0  0  0  0  0  0  0  0
  -20.7980  -29.8870   21.7630 H   0  0  0  0  0  0  0  0  0  0  0  0
  -17.9540  -28.0670   22.9450 C   0  0  0  0  0  0  0  0  0  0  0  0
  -20.4990  -28.4070   23.2400 C   0  0  0  0  0  3  0  0  0  0  0  0
  -20.6490  -26.9660   22.6980 C   0  0  0  0  0  2  0  0  0  0  0  0
  -19.5710  -26.5900   21.6770 C   0  0  0  0  0  2  0  0  0  0  0  0
  -18.1770  -26.7090   22.3000 C   0  0  0  0  0  2  0  0  0  0  0  0
  -19.0440  -28.8710   23.3710 C   0  0  0  0  0  0  0  0  0  0  0  0
  -18.7820  -30.1390   23.9320 C   0  0  0  0  0  3  0  0  0  0  0  0
  -17.4600  -30.6060   24.0710 C   0  0  0  0  0  3  0  0  0  0  0  0
  -16.3840  -29.8010   23.6610 C   0  0  0  0  0  3  0  0  0  0  0  0
  -16.6320  -28.5330   23.1040 C   0  0  0  0  0  3  0  0  0  0  0  0
  -25.8010  -32.6070   23.8320 C   0  0  0  0  0  3  0  0  0  0  0  0
  -26.3510  -31.8270   25.0900 C   0  0  1  0  0  0  0  0  0  0  0  0
  -25.2820  -31.5670   26.1760 C   0  0  0  0  0  1  0  0  0  0  0  0
  -26.9400  -30.4590   24.6740 C   0  0  0  0  0  1  0  0  0  0  0  0
  -27.5070  -32.6250   25.7360 C   0  0  0  0  0  1  0  0  0  0  0  0
  -25.4970  -34.0020   24.1810 N   0  0  0  0  0  0  0  0  0  0  0  0
  -25.8060  -35.0600   23.4200 C   0  0  0  0  0  0  0  0  0  0  0  0
  -26.4490  -34.9660   22.3700 O   0  0  0  0  0  0  0  0  0  0  0  0
  -24.9210  -34.1520   24.9950 H   0  0  0  0  0  0  0  0  0  0  0  0
  -24.0730  -36.8590   23.1150 C   0  0  0  0  0  1  0  0  0  0  0  0
  -25.3280  -36.4440   23.9010 C   0  0  0  0  0  3  0  0  0  0  0  0
  -27.4720  -37.3220   24.7140 C   0  0  0  0  0  1  0  0  0  0  0  0
  -26.3580  -37.5000   23.7850 N   0  0  0  0  0  0  0  0  0  0  0  0
  -25.9520  -38.4160   23.9540 H   0  0  0  0  0  0  0  0  0  0  0  0
  1  5  1  0
  3  1  1  0
  3  6  1  0
  4  2  1  0
  5 11  1  0
  5  2  1  0
  6 53  1  1
  6  4  1  0
  8  7  1  0
  9  7  2  0
 10 12  2  0
 10 11  1  0
 11  8  2  0
 12  9  1  0
 13 21  1  0
 14 19  1  0
 15 16  1  0
 15 14  1  0
 17 16  1  0
 17 26  1  0
 17 18  1  0
 19 13  1  0
 19 18  1  0
 20 13  2  0
 21 22  1  0
 21 12  1  0
 23 24  2  0
 24 43  1  0
 25 24  1  0
 25 28  1  0
 26 27  1  0
 26 23  1  0
 27 25  2  0
 28 29  1  0
 29 30  2  0
 31 34  1  0
 31 30  1  0
 32 31  2  0
 33 32  1  0
 33 28  2  0
 34 35  1  0
 35 36  1  0
 36 37  2  0
 38 37  1  0
 38 42  1  0
 39 38  2  0
 40 35  2  0
 40 39  1  0
 41 40  1  0
 43 44  1  0
 44 47  1  0
 44 46  1  0
 45 43  2  0
 48 23  1  0
 48 49  1  0
 50 48  1  0
 52  6  1  0
 52 51  1  0
 53 54  1  0
 55 66  2  0
 56 54  1  0
 56 61  1  0
 57 65  1  0
 57 67  1  0
 58 64  1  0
 58 60  1  0
 59 65  1  0
 60 59  1  0
 61 60  2  0
 62 63  1  0
 62 56  2  0
 63 58  2  0
 64 57  1  0
 65 55  1  0
 67 69  2  0
 68 67  1  0
 70 68  1  0
 71 80  2  0
 71 76  1  0
 72 68  1  0
 72 76  1  0
 73 72  1  0
 74 75  1  0
 74 73  1  0
 75 71  1  0
 76 77  2  0
 77 78  1  0
 79 78  2  0
 80 79  1  0
 81 55  1  0
 81 86  1  0
 81 82  1  0
 82 85  1  1
 82 83  1  0
 84 82  1  0
 86 89  1  0
 87 91  1  0
 87 86  1  0
 88 87  2  0
 91 90  1  0
 93 91  1  0
 93 94  1  0
 93 92  1  0
M  ISO  4  13 100  21 100  53 101  54 101
M  END
>  <TORSDO>  (86) 
F 19

>  <SCORE>  (86) 
-13.965

>  <name>  (86) 
86

>  <ligand_id>  (86) 
86

>  <original_smiles>  (86) 
[H]c1c([H])c([H])c2c(c1[H])C([H])([H])C([H])([H])C([H])([H])C2([H])N([H])C(=O)C1([H])N(C(=O)C([H])(N([H])C(=O)C([H])(N([H])C([H])([H])[H])C([H])([H])[H])C(C([H])([H])[H])(C([H])([H])[H])C([H])([H])[H])C([H])([H])c2c([H])c(OC([H])([H])C3(OC([H])([H])[H])C([H])([H])C([H])([H])C([H])(c4c([H])c([H])c([H])c(N([H])C(=O)N5C([H])([H])C([H])([H])C([H])([H])C([H])(n6nc(-c7c([H])c([H])c(Oc8c([H])c([H])c(F)c([H])c8F)c([H])c7[H])c(C(=O)N([H])[H])c6N([H])[H])C5([H])[H])c4[H])C([H])([H])C3([H])[H])c([H])c([H])c2C1([H])[H]

>  <smiles>  (86) 
[H]c1c([H])c([H])c2c(c1[H])C([H])([H])C([H])([H])C([H])([H])C2([H])N([H])C(=O)C1([H])N(C(=O)C([H])(N([H])C(=O)C([H])(N([H])C([H])([H])[H])C([H])([H])[H])C(C([H])([H])[H])(C([H])([H])[H])C([H])([H])[H])C([H])([H])c2c([H])c(OC([H])([H])C3(OC([H])([H])[H])C([H])([H])C([H])([H])C([H])(c4c([H])c([H])c([H])c(N([H])C(=O)N5C([H])([H])C([H])([H])C([H])([H])C([H])(n6nc(-c7c([H])c([H])c(Oc8c([H])c([H])c(F)c([H])c8F)c([H])c7[H])c(C(=O)N([H])[H])c6N([H])[H])C5([H])[H])c4[H])C([H])([H])C3([H])[H])c([H])c([H])c2C1([H])[H]

$$$$
87:0:0
     RDKit          3D

101109  0  0  1  0  0  0  0  0999 V2000
  -30.6670  -14.5240   20.5980 C   0  0  0  0  0  0  0  0  0  0  0  0
  -30.3630  -12.3810   19.4040 C   0  0  0  0  0  2  0  0  0  0  0  0
  -29.4320  -12.6570   18.2030 C   0  0  0  0  0  2  0  0  0  0  0  0
  -27.9500  -12.5350   18.6150 C   0  0  0  0  0  2  0  0  0  0  0  0
  -27.6230  -13.2840   19.9340 C   0  0  0  0  0  3  0  0  0  0  0  0
  -28.6810  -13.0070   21.0280 C   0  0  0  0  0  2  0  0  0  0  0  0
  -30.0030  -13.3340   20.4710 N   0  0  0  0  0  0  0  0  0  0  0  0
  -31.8310  -14.6610   20.2070 O   0  0  0  0  0  0  0  0  0  0  0  0
  -28.4700  -17.7190   18.3660 C   0  0  0  0  0  3  0  0  0  0  0  0
  -28.9790  -16.6260   19.0730 C   0  0  0  0  0  3  0  0  0  0  0  0
  -28.6680  -19.0290   18.8520 C   0  0  0  0  0  0  0  0  0  0  0  0
  -29.4200  -19.1830   20.0540 C   0  0  0  0  0  0  0  0  0  0  0  0
  -29.6560  -16.8050   20.2920 C   0  0  0  0  0  0  0  0  0  0  0  0
  -29.8730  -18.0870   20.7540 N   0  0  0  0  0  0  0  0  0  0  0  0
  -29.9380  -15.5920   21.0340 N   0  0  0  0  0  0  0  0  0  0  0  0
  -29.1470  -15.2920   21.5810 H   0  0  0  0  0  0  0  0  0  0  0  0
  -25.2230  -13.9000   20.6030 C   0  0  0  0  0  0  0  0  0  0  0  0
  -24.1470  -13.1300   20.9500 C   0  0  0  0  0  0  0  0  0  0  0  0
  -24.6050  -11.7770   20.9250 C   0  0  0  0  0  0  0  0  0  0  0  0
  -26.2670  -13.0120   20.3930 N   0  0  0  0  0  0  0  0  0  0  0  0
  -25.9000  -11.7320   20.6450 N   0  0  0  0  0  0  0  0  0  0  0  0
  -23.8740  -10.5180   21.1000 C   0  0  0  0  0  0  0  0  0  0  0  0
  -24.2810   -9.5540   22.0470 C   0  0  0  0  0  3  0  0  0  0  0  0
  -23.5480   -8.3580   22.2090 C   0  0  0  0  0  3  0  0  0  0  0  0
  -22.3970   -8.1190   21.4220 C   0  0  0  0  0  0  0  0  0  0  0  0
  -22.0120   -9.0720   20.4630 C   0  0  0  0  0  3  0  0  0  0  0  0
  -22.7450  -10.2580   20.2990 C   0  0  0  0  0  3  0  0  0  0  0  0
  -21.6380   -6.9760   21.4940 O   0  0  0  0  0  0  0  0  0  0  0  0
  -21.5360   -6.2530   22.6550 C   0  0  0  0  0  0  0  0  0  0  0  0
  -21.0630   -6.8300   23.8540 C   0  0  0  0  0  3  0  0  0  0  0  0
  -20.9060   -6.0320   25.0050 C   0  0  0  0  0  3  0  0  0  0  0  0
  -21.2140   -4.6580   24.9580 C   0  0  0  0  0  0  0  0  0  0  0  0
  -21.6820   -4.0820   23.7630 C   0  0  0  0  0  3  0  0  0  0  0  0
  -21.8400   -4.8770   22.6150 C   0  0  0  0  0  0  0  0  0  0  0  0
  -22.2700   -4.3130   21.4600 F   0  0  0  0  0  0  0  0  0  0  0  0
  -21.0600   -3.8890   26.0600 F   0  0  0  0  0  0  0  0  0  0  0  0
  -22.7470  -13.6120   21.1970 C   0  0  0  0  0  0  0  0  0  0  0  0
  -22.0070  -12.9210   22.0580 N   0  0  0  0  0  0  0  0  0  0  0  0
  -22.3180  -14.6350   20.6650 O   0  0  0  0  0  0  0  0  0  0  0  0
  -22.3700  -12.0940   22.5090 H   0  0  0  0  0  0  0  0  0  0  0  0
  -21.0670  -13.2260   22.2690 H   0  0  0  0  0  0  0  0  0  0  0  0
  -25.3930  -15.2700   20.4300 N   0  0  0  0  0  0  0  0  0  0  0  0
  -24.6140  -15.9150   20.5060 H   0  0  0  0  0  0  0  0  0  0  0  0
  -26.2430  -15.7150   20.1070 H   0  0  0  0  0  0  0  0  0  0  0  0
  -29.1540  -21.5010   20.6400 C   0  0  0  0  0  2  0  0  0  0  0  0
  -29.9080  -20.4820   20.3680 N   0  0  0  0  0  2  0  0  0  0  0  0
  -29.4810  -22.9650   20.2420 C   0  0  0  0  0  0  0  0  0  0  0  0
  -30.2770  -23.1140   19.3060 O   0  0  0  0  0  0  0  0  0  0  0  0
  -28.9160  -25.4160   20.2950 C   0  0  0  0  0  3  0  0  0  0  0  0
  -28.9040  -24.1960   20.9110 C   0  0  0  0  0  0  0  0  0  0  0  0
  -28.4290  -24.0720   22.1580 O   0  0  0  0  0  0  0  0  0  0  0  0
  -28.1390  -24.9350   22.4260 H   0  0  0  0  0  0  0  0  0  0  0  0
  -28.6250  -26.6270   20.9140 O   0  0  0  0  0  0  0  0  0  0  0  0
  -24.6140  -31.9860   23.3390 C   0  0  0  0  0  0  0  0  0  0  0  0
  -27.4730  -27.3700   20.6830 C   0  0  0  0  0  0  0  0  0  0  0  0
  -23.5240  -30.4870   21.7010 C   0  0  0  0  0  3  0  0  0  0  0  0
  -25.0770  -28.8860   20.4460 C   0  0  0  0  0  0  0  0  0  0  0  0
  -26.0550  -30.8480   21.6460 C   0  0  0  0  0  2  0  0  0  0  0  0
  -26.1900  -29.4430   21.0850 C   0  0  0  0  0  0  0  0  0  0  0  0
  -27.3860  -28.6910   21.2010 C   0  0  0  0  0  3  0  0  0  0  0  0
  -26.3440  -26.8400   20.0220 C   0  0  0  0  0  3  0  0  0  0  0  0
  -25.1520  -27.5880   19.9060 C   0  0  0  0  0  3  0  0  0  0  0  0
  -23.8230  -29.7320   20.3760 C   0  0  0  0  0  2  0  0  0  0  0  0
  -24.7450  -31.1270   22.2870 N   0  0  0  0  0  0  0  0  0  0  0  0
  -23.4990  -32.2780   23.7940 O   0  0  0  0  0  0  0  0  0  0  0  0
  -22.8170  -29.5160   22.6740 C   0  0  0  0  0  0  0  0  0  0  0  0
  -21.5060  -29.3070   22.4660 N   0  0  0  0  0  0  0  0  0  0  0  0
  -23.4480  -28.9520   23.5720 O   0  0  0  0  0  0  0  0  0  0  0  0
  -21.0600  -29.8120   21.7140 H   0  0  0  0  0  0  0  0  0  0  0  0
  -18.1250  -28.0720   22.7860 C   0  0  0  0  0  0  0  0  0  0  0  0
  -20.6490  -28.4020   23.2320 C   0  0  0  0  0  3  0  0  0  0  0  0
  -20.8200  -26.9410   22.7550 C   0  0  0  0  0  2  0  0  0  0  0  0
  -19.8040  -26.5330   21.6830 C   0  0  0  0  0  2  0  0  0  0  0  0
  -18.3750  -26.6880   22.2110 C   0  0  0  0  0  2  0  0  0  0  0  0
  -19.1940  -28.8830   23.2520 C   0  0  0  0  0  0  0  0  0  0  0  0
  -18.9100  -30.1740   23.7460 C   0  0  0  0  0  3  0  0  0  0  0  0
  -17.5890  -30.6570   23.7780 C   0  0  0  0  0  3  0  0  0  0  0  0
  -16.5320  -29.8460   23.3310 C   0  0  0  0  0  3  0  0  0  0  0  0
  -16.8010  -28.5550   22.8440 C   0  0  0  0  0  3  0  0  0  0  0  0
  -25.8530  -32.6620   24.0060 C   0  0  0  0  0  3  0  0  0  0  0  0
  -25.5070  -34.0660   24.2640 N   0  0  0  0  0  0  0  0  0  0  0  0
  -25.8620  -35.0930   23.4810 C   0  0  0  0  0  0  0  0  0  0  0  0
  -26.5850  -34.9610   22.4900 O   0  0  0  0  0  0  0  0  0  0  0  0
  -24.8650  -34.2410   25.0230 H   0  0  0  0  0  0  0  0  0  0  0  0
  -24.1170  -36.8340   22.9800 C   0  0  0  0  0  1  0  0  0  0  0  0
  -25.3310  -36.4900   23.8580 C   0  0  0  0  0  3  0  0  0  0  0  0
  -27.4170  -37.4500   24.7310 C   0  0  0  0  0  1  0  0  0  0  0  0
  -26.3490  -37.5570   23.7390 N   0  0  0  0  0  0  0  0  0  0  0  0
  -25.9210  -38.4740   23.8320 H   0  0  0  0  0  0  0  0  0  0  0  0
  -26.3110  -31.9470   25.3380 C   0  0  1  0  0  0  0  0  0  0  0  0
  -25.1610  -31.7160   26.3450 C   0  0  0  0  0  1  0  0  0  0  0  0
  -26.9480  -30.5720   25.0270 C   0  0  0  0  0  1  0  0  0  0  0  0
  -27.4030  -32.7910   26.0370 C   0  0  0  0  0  1  0  0  0  0  0  0
  -28.2150  -20.1550   18.1310 N   0  0  0  0  0  0  0  0  0  0  0  0
  -28.8290  -20.9640   18.1320 H   0  0  0  0  0  0  0  0  0  0  0  0
  -27.8050  -19.9610   15.7030 C   0  0  0  0  0  1  0  0  0  0  0  0
  -27.1780  -20.0630   17.0990 C   0  0  0  0  0  3  0  0  0  0  0  0
  -25.4550  -21.2590   18.4370 C   0  0  0  0  0  1  0  0  0  0  0  0
  -26.2440  -21.2060   17.1890 N   0  0  0  0  0  4  0  0  0  0  0  0
  -26.7280  -22.0790   17.0560 H   0  0  0  0  0  0  0  0  0  0  0  0
  -25.5850  -21.1230   16.4310 H   0  0  0  0  0  0  0  0  0  0  0  0
  1 15  1  0
  2  7  1  0
  3  4  1  0
  3  2  1  0
  5  4  1  0
  5 20  1  0
  5  6  1  0
  7  1  1  0
  7  6  1  0
  8  1  2  0
  9 11  2  0
  9 10  1  0
 10 13  2  0
 11 12  1  0
 12 46  1  0
 12 14  2  0
 13 14  1  0
 13 15  1  0
 15 16  1  0
 17 18  2  0
 18 37  1  0
 19 18  1  0
 19 22  1  0
 20 17  1  0
 20 21  1  0
 21 19  2  0
 22 23  1  0
 23 24  2  0
 25 28  1  0
 25 24  1  0
 26 25  2  0
 27 26  1  0
 27 22  2  0
 28 29  1  0
 29 30  1  0
 30 31  2  0
 32 31  1  0
 32 36  1  0
 33 32  2  0
 34 29  2  0
 34 33  1  0
 35 34  1  0
 37 38  1  0
 38 41  1  0
 38 40  1  0
 39 37  2  0
 42 43  1  0
 42 17  1  0
 44 42  1  0
 46 45  1  0
 47 45  1  0
 47 50  1  0
 48 47  2  0
 49 50  2  0
 49 53  1  0
 50 51  1  0
 51 52  1  0
 54 65  2  0
 55 53  1  0
 55 60  1  0
 56 64  1  0
 56 66  1  0
 57 59  1  0
 58 64  1  0
 59 60  2  0
 59 58  1  0
 61 55  2  0
 62 61  1  0
 62 57  2  0
 63 57  1  0
 63 56  1  0
 64 54  1  0
 66 68  2  0
 67 66  1  0
 69 67  1  0
 70 79  2  0
 70 75  1  0
 71 67  1  0
 71 75  1  0
 72 71  1  0
 73 74  1  0
 73 72  1  0
 74 70  1  0
 75 76  2  0
 76 77  1  0
 78 77  2  0
 79 78  1  0
 80 54  1  0
 80 81  1  0
 80 90  1  0
 81 84  1  0
 82 86  1  0
 82 81  1  0
 83 82  2  0
 86 85  1  0
 88 89  1  0
 88 86  1  0
 88 87  1  0
 90 93  1  1
 90 91  1  0
 92 90  1  0
 94 95  1  0
 94 11  1  0
 97 96  1  0
 97 99  1  0
 97 94  1  0
 99 98  1  0
100 99  1  0
101 99  1  0
M  ISO  4   1 100  15 100  49 101  53 101
M  END
>  <TORSDO>  (87) 
F 22

>  <SCORE>  (87) 
-12.552

>  <name>  (87) 
87

>  <ligand_id>  (87) 
87

>  <original_smiles>  (87) 
[H]OC(C(=O)C([H])=Nc1nc(N([H])C(=O)N2C([H])([H])C([H])([H])C([H])([H])C([H])(n3nc(-c4c([H])c([H])c(Oc5c([H])c([H])c(F)c([H])c5F)c([H])c4[H])c(C(=O)N([H])[H])c3N([H])[H])C2([H])[H])c([H])c([H])c1N([H])C([H])(C([H])([H])[H])[N+]([H])([H])C([H])([H])[H])=C([H])Oc1c([H])c([H])c2c(c1[H])C([H])([H])N(C(=O)C([H])(N([H])C(=O)C([H])(N([H])C([H])([H])[H])C([H])([H])[H])C(C([H])([H])[H])(C([H])([H])[H])C([H])([H])[H])C([H])(C(=O)N([H])C1([H])c3c([H])c([H])c([H])c([H])c3C([H])([H])C([H])([H])C1([H])[H])C2([H])[H]

>  <smiles>  (87) 
[H]OC(C(=O)C([H])=Nc1nc(N([H])C(=O)N2C([H])([H])C([H])([H])C([H])([H])C([H])(n3nc(-c4c([H])c([H])c(Oc5c([H])c([H])c(F)c([H])c5F)c([H])c4[H])c(C(=O)N([H])[H])c3N([H])[H])C2([H])[H])c([H])c([H])c1N([H])C([H])(C([H])([H])[H])[N+]([H])([H])C([H])([H])[H])=C([H])Oc1c([H])c([H])c2c(c1[H])C([H])([H])N(C(=O)C([H])(N([H])C(=O)C([H])(N([H])C([H])([H])[H])C([H])([H])[H])C(C([H])([H])[H])(C([H])([H])[H])C([H])([H])[H])C([H])(C(=O)N([H])C1([H])c3c([H])c([H])c([H])c([H])c3C([H])([H])C([H])([H])C1([H])[H])C2([H])[H]

$$$$
88:0:0
     RDKit          3D

 94102  0  0  1  0  0  0  0  0999 V2000
  -31.5980  -17.8620   20.6790 C   0  0  0  0  0  3  0  0  0  0  0  0
  -31.0370  -20.2520   20.6000 C   0  0  0  0  0  3  0  0  0  0  0  0
  -29.2820  -18.5730   20.5400 C   0  0  0  0  0  3  0  0  0  0  0  0
  -31.9990  -19.2200   20.6830 C   0  0  0  0  0  0  0  0  0  0  0  0
  -30.2410  -17.4710   20.5890 C   0  0  0  0  0  0  0  0  0  0  0  0
  -29.6540  -19.9860   20.5380 C   0  0  0  0  0  0  0  0  0  0  0  0
  -30.6650  -14.8750   20.3910 C   0  0  0  0  0  0  0  0  0  0  0  0
  -30.4970  -12.5860   19.3990 C   0  0  0  0  0  2  0  0  0  0  0  0
  -29.5730  -12.6300   18.1630 C   0  0  0  0  0  2  0  0  0  0  0  0
  -28.1030  -12.4350   18.5830 C   0  0  0  0  0  2  0  0  0  0  0  0
  -27.7010  -13.3260   19.7890 C   0  0  0  0  0  3  0  0  0  0  0  0
  -28.7510  -13.2800   20.9200 C   0  0  0  0  0  2  0  0  0  0  0  0
  -30.0430  -13.6470   20.3290 N   0  0  0  0  0  0  0  0  0  0  0  0
  -31.8520  -14.9510   20.0640 O   0  0  0  0  0  0  0  0  0  0  0  0
  -29.8890  -16.0170   20.5960 N   0  0  0  0  0  0  0  0  0  0  0  0
  -28.9100  -15.8150   20.7300 H   0  0  0  0  0  0  0  0  0  0  0  0
  -25.2990  -13.8730   20.4990 C   0  0  0  0  0  0  0  0  0  0  0  0
  -24.2470  -13.0800   20.8630 C   0  0  0  0  0  0  0  0  0  0  0  0
  -24.7360  -11.7380   20.8410 C   0  0  0  0  0  0  0  0  0  0  0  0
  -26.3610  -13.0140   20.2720 N   0  0  0  0  0  0  0  0  0  0  0  0
  -26.0290  -11.7240   20.5420 N   0  0  0  0  0  0  0  0  0  0  0  0
  -24.0320  -10.4620   21.0290 C   0  0  0  0  0  0  0  0  0  0  0  0
  -24.4650   -9.5130   21.9810 C   0  0  0  0  0  3  0  0  0  0  0  0
  -23.7590   -8.3020   22.1570 C   0  0  0  0  0  3  0  0  0  0  0  0
  -22.6080   -8.0330   21.3800 C   0  0  0  0  0  0  0  0  0  0  0  0
  -22.1950   -8.9720   20.4180 C   0  0  0  0  0  3  0  0  0  0  0  0
  -22.9010  -10.1740   20.2410 C   0  0  0  0  0  3  0  0  0  0  0  0
  -21.8740   -6.8740   21.4640 O   0  0  0  0  0  0  0  0  0  0  0  0
  -21.7980   -6.1540   22.6290 C   0  0  0  0  0  0  0  0  0  0  0  0
  -21.2970   -6.7170   23.8220 C   0  0  0  0  0  3  0  0  0  0  0  0
  -21.1700   -5.9220   24.9790 C   0  0  0  0  0  3  0  0  0  0  0  0
  -21.5360   -4.5630   24.9420 C   0  0  0  0  0  0  0  0  0  0  0  0
  -22.0310   -3.9980   23.7530 C   0  0  0  0  0  3  0  0  0  0  0  0
  -22.1590   -4.7910   22.5990 C   0  0  0  0  0  0  0  0  0  0  0  0
  -22.6160   -4.2380   21.4500 F   0  0  0  0  0  0  0  0  0  0  0  0
  -21.4080   -3.7950   26.0490 F   0  0  0  0  0  0  0  0  0  0  0  0
  -22.8380  -13.5310   21.1210 C   0  0  0  0  0  0  0  0  0  0  0  0
  -22.1150  -12.8210   21.9810 N   0  0  0  0  0  0  0  0  0  0  0  0
  -22.3880  -14.5470   20.5950 O   0  0  0  0  0  0  0  0  0  0  0  0
  -22.4930  -11.9990   22.4270 H   0  0  0  0  0  0  0  0  0  0  0  0
  -21.1710  -13.1070   22.1970 H   0  0  0  0  0  0  0  0  0  0  0  0
  -25.4370  -15.2470   20.3160 N   0  0  0  0  0  0  0  0  0  0  0  0
  -24.6520  -15.8820   20.4110 H   0  0  0  0  0  0  0  0  0  0  0  0
  -26.2660  -15.6980   19.9550 H   0  0  0  0  0  0  0  0  0  0  0  0
  -33.4390  -19.5990   20.7890 C   0  0  0  0  0  0  0  0  0  0  0  0
  -34.4800  -18.4830   20.7910 C   0  0  0  0  0  1  0  0  0  0  0  0
  -33.8290  -20.7670   20.8810 O   0  0  0  0  0  0  0  0  0  0  0  0
  -28.7310  -21.1090   20.5300 N   0  0  0  0  0  0  0  0  0  0  0  0
  -27.7420  -20.8860   20.6100 H   0  0  0  0  0  0  0  0  0  0  0  0
  -29.0080  -22.4990   19.9530 C   0  0  0  0  0  2  0  0  0  0  0  0
  -28.2910  -23.8230   20.5160 C   0  0  0  0  0  0  0  0  0  0  0  0
  -27.7310  -23.7850   21.6180 O   0  0  0  0  0  0  0  0  0  0  0  0
  -28.2800  -25.1760   19.6530 C   0  0  0  0  0  2  0  0  0  0  0  0
  -28.1730  -26.5070   20.3420 O   0  0  0  0  0  0  0  0  0  0  0  0
  -24.5040  -32.0000   23.2980 C   0  0  0  0  0  0  0  0  0  0  0  0
  -27.0570  -27.3680   20.2510 C   0  0  0  0  0  0  0  0  0  0  0  0
  -23.2810  -30.6040   21.6710 C   0  0  0  0  0  3  0  0  0  0  0  0
  -24.7100  -29.0300   20.2410 C   0  0  0  0  0  0  0  0  0  0  0  0
  -25.8240  -30.8890   21.4770 C   0  0  0  0  0  2  0  0  0  0  0  0
  -25.8860  -29.5040   20.8330 C   0  0  0  0  0  0  0  0  0  0  0  0
  -27.0580  -28.6830   20.8300 C   0  0  0  0  0  3  0  0  0  0  0  0
  -25.8540  -26.9540   19.6390 C   0  0  0  0  0  3  0  0  0  0  0  0
  -24.6990  -27.7640   19.6350 C   0  0  0  0  0  3  0  0  0  0  0  0
  -23.4820  -29.9190   20.2930 C   0  0  0  0  0  2  0  0  0  0  0  0
  -24.5560  -31.1840   22.2050 N   0  0  0  0  0  0  0  0  0  0  0  0
  -23.4250  -32.2910   23.8360 O   0  0  0  0  0  0  0  0  0  0  0  0
  -22.6120  -29.6000   22.6400 C   0  0  0  0  0  0  0  0  0  0  0  0
  -21.2880  -29.4120   22.5000 N   0  0  0  0  0  0  0  0  0  0  0  0
  -23.2830  -28.9920   23.4780 O   0  0  0  0  0  0  0  0  0  0  0  0
  -20.8040  -29.9540   21.7980 H   0  0  0  0  0  0  0  0  0  0  0  0
  -17.9200  -28.1720   22.9560 C   0  0  0  0  0  0  0  0  0  0  0  0
  -20.4660  -28.4810   23.2770 C   0  0  0  0  0  3  0  0  0  0  0  0
  -20.6050  -27.0370   22.7410 C   0  0  0  0  0  2  0  0  0  0  0  0
  -19.5320  -26.6700   21.7100 C   0  0  0  0  0  2  0  0  0  0  0  0
  -18.1320  -26.8090   22.3180 C   0  0  0  0  0  2  0  0  0  0  0  0
  -19.0150  -28.9630   23.3910 C   0  0  0  0  0  0  0  0  0  0  0  0
  -18.7630  -30.2360   23.9460 C   0  0  0  0  0  3  0  0  0  0  0  0
  -17.4470  -30.7190   24.0700 C   0  0  0  0  0  3  0  0  0  0  0  0
  -16.3650  -29.9260   23.6490 C   0  0  0  0  0  3  0  0  0  0  0  0
  -16.6020  -28.6540   23.0990 C   0  0  0  0  0  3  0  0  0  0  0  0
  -25.7940  -32.6250   23.9130 C   0  0  0  0  0  3  0  0  0  0  0  0
  -25.5080  -34.0370   24.2060 N   0  0  0  0  0  0  0  0  0  0  0  0
  -25.8620  -35.0660   23.4250 C   0  0  0  0  0  0  0  0  0  0  0  0
  -26.5330  -34.9250   22.3980 O   0  0  0  0  0  0  0  0  0  0  0  0
  -24.9140  -34.2220   25.0010 H   0  0  0  0  0  0  0  0  0  0  0  0
  -24.1730  -36.8850   23.0170 C   0  0  0  0  0  1  0  0  0  0  0  0
  -25.4000  -36.4740   23.8470 C   0  0  0  0  0  3  0  0  0  0  0  0
  -27.5420  -37.3350   24.6820 C   0  0  0  0  0  1  0  0  0  0  0  0
  -26.4550  -37.5030   23.7210 N   0  0  0  0  0  0  0  0  0  0  0  0
  -26.0660  -38.4340   23.8420 H   0  0  0  0  0  0  0  0  0  0  0  0
  -26.2880  -31.8790   25.2140 C   0  0  1  0  0  0  0  0  0  0  0  0
  -25.1810  -31.6830   26.2770 C   0  0  0  0  0  1  0  0  0  0  0  0
  -26.8570  -30.4860   24.8640 C   0  0  0  0  0  1  0  0  0  0  0  0
  -27.4420  -32.6750   25.8670 C   0  0  0  0  0  1  0  0  0  0  0  0
  1  4  1  0
  2  4  2  0
  3  5  1  0
  4 45  1  0
  5 15  1  0
  5  1  2  0
  6  3  2  0
  6  2  1  0
  7 15  1  0
  8 13  1  0
  9 10  1  0
  9  8  1  0
 11 10  1  0
 11 20  1  0
 11 12  1  0
 13  7  1  0
 13 12  1  0
 14  7  2  0
 15 16  1  0
 17 18  2  0
 18 37  1  0
 19 18  1  0
 19 22  1  0
 20 17  1  0
 20 21  1  0
 21 19  2  0
 22 23  1  0
 23 24  2  0
 25 28  1  0
 25 24  1  0
 26 25  2  0
 27 26  1  0
 27 22  2  0
 28 29  1  0
 29 30  1  0
 30 31  2  0
 32 31  1  0
 32 36  1  0
 33 32  2  0
 34 29  2  0
 34 33  1  0
 35 34  1  0
 37 38  1  0
 38 41  1  0
 38 40  1  0
 39 37  2  0
 42 43  1  0
 42 17  1  0
 44 42  1  0
 45 46  1  0
 45 47  2  0
 48  6  1  0
 48 49  1  0
 50 51  1  0
 50 48  1  0
 51 52  2  0
 53 54  1  0
 53 51  1  0
 55 66  2  0
 56 54  1  0
 56 61  1  0
 57 65  1  0
 57 67  1  0
 58 64  1  0
 58 60  1  0
 59 65  1  0
 60 59  1  0
 61 60  2  0
 62 56  2  0
 63 62  1  0
 63 58  2  0
 64 57  1  0
 65 55  1  0
 67 69  2  0
 68 67  1  0
 70 68  1  0
 71 80  2  0
 71 76  1  0
 72 68  1  0
 72 76  1  0
 73 72  1  0
 74 75  1  0
 74 73  1  0
 75 71  1  0
 76 77  2  0
 77 78  1  0
 79 78  2  0
 80 79  1  0
 81 55  1  0
 81 82  1  0
 81 91  1  0
 82 85  1  0
 83 87  1  0
 83 82  1  0
 84 83  2  0
 87 86  1  0
 89 90  1  0
 89 87  1  0
 89 88  1  0
 91 94  1  1
 91 92  1  0
 93 91  1  0
M  ISO  4   7 100  15 100  53 101  54 101
M  END
>  <TORSDO>  (88) 
F 21

>  <SCORE>  (88) 
-13.333

>  <name>  (88) 
88

>  <ligand_id>  (88) 
88

>  <original_smiles>  (88) 
[H]c1c([H])c([H])c2c(c1[H])C([H])([H])C([H])([H])C([H])([H])C2([H])N([H])C(=O)C1([H])N(C(=O)C([H])(N([H])C(=O)C([H])(N([H])C([H])([H])[H])C([H])([H])[H])C(C([H])([H])[H])(C([H])([H])[H])C([H])([H])[H])C([H])([H])c2c([H])c(OC([H])([H])C(=O)C([H])([H])N([H])c3c([H])c(C(=O)C([H])([H])[H])c([H])c(N([H])C(=O)N4C([H])([H])C([H])([H])C([H])([H])C([H])(n5nc(-c6c([H])c([H])c(Oc7c([H])c([H])c(F)c([H])c7F)c([H])c6[H])c(C(=O)N([H])[H])c5N([H])[H])C4([H])[H])c3[H])c([H])c([H])c2C1([H])[H]

>  <smiles>  (88) 
[H]c1c([H])c([H])c2c(c1[H])C([H])([H])C([H])([H])C([H])([H])C2([H])N([H])C(=O)C1([H])N(C(=O)C([H])(N([H])C(=O)C([H])(N([H])C([H])([H])[H])C([H])([H])[H])C(C([H])([H])[H])(C([H])([H])[H])C([H])([H])[H])C([H])([H])c2c([H])c(OC([H])([H])C(=O)C([H])([H])N([H])c3c([H])c(C(=O)C([H])([H])[H])c([H])c(N([H])C(=O)N4C([H])([H])C([H])([H])C([H])([H])C([H])(n5nc(-c6c([H])c([H])c(Oc7c([H])c([H])c(F)c([H])c7F)c([H])c6[H])c(C(=O)N([H])[H])c5N([H])[H])C4([H])[H])c3[H])c([H])c([H])c2C1([H])[H]

$$$$
89:0:0
     RDKit          3D

 94103  0  0  1  0  0  0  0  0999 V2000
  -31.1250  -17.8580   20.2970 C   0  0  0  0  0  3  0  0  0  0  0  0
  -31.1260  -19.2710   20.1390 C   0  0  0  0  0  3  0  0  0  0  0  0
  -28.7860  -18.0350   20.7240 C   0  0  0  0  0  3  0  0  0  0  0  0
  -29.9160  -17.1800   20.5820 C   0  0  0  0  0  0  0  0  0  0  0  0
  -29.9360  -20.0390   20.2460 C   0  0  0  0  0  0  0  0  0  0  0  0
  -31.0710  -23.2000   18.6040 C   0  0  0  0  0  2  0  0  0  0  0  0
  -29.9490  -24.2130   18.8730 C   0  0  0  0  0  2  0  0  0  0  0  0
  -30.5440  -21.7600   18.6570 C   0  0  0  0  0  2  0  0  0  0  0  0
  -28.8660  -22.4280   20.3470 C   0  0  0  0  0  2  0  0  0  0  0  0
  -29.2780  -23.9840   20.2460 C   0  0  1  0  0  0  0  0  0  0  0  0
  -28.7850  -19.3980   20.5630 N   0  0  0  0  0  0  0  0  0  0  0  0
  -29.9390  -21.4510   19.9560 N   0  0  0  0  0  0  0  0  0  0  0  0
  -30.5740  -14.6720   20.3640 C   0  0  0  0  0  0  0  0  0  0  0  0
  -30.3590  -12.4450   19.2790 C   0  0  0  0  0  2  0  0  0  0  0  0
  -29.4040  -12.5830   18.0730 C   0  0  0  0  0  2  0  0  0  0  0  0
  -27.9350  -12.4180   18.5120 C   0  0  0  0  0  2  0  0  0  0  0  0
  -27.5870  -13.2670   19.7640 C   0  0  0  0  0  3  0  0  0  0  0  0
  -28.6550  -13.1010   20.8690 C   0  0  0  0  0  2  0  0  0  0  0  0
  -29.9580  -13.4510   20.2830 N   0  0  0  0  0  0  0  0  0  0  0  0
  -31.7300  -14.8320   19.9640 O   0  0  0  0  0  0  0  0  0  0  0  0
  -29.7760  -15.7250   20.7380 N   0  0  0  0  0  0  0  0  0  0  0  0
  -28.8640  -15.4220   21.0480 H   0  0  0  0  0  0  0  0  0  0  0  0
  -25.1960  -13.8580   20.4980 C   0  0  0  0  0  0  0  0  0  0  0  0
  -24.1350  -13.0820   20.8760 C   0  0  0  0  0  0  0  0  0  0  0  0
  -24.6010  -11.7320   20.8410 C   0  0  0  0  0  0  0  0  0  0  0  0
  -26.2420  -12.9810   20.2560 N   0  0  0  0  0  0  0  0  0  0  0  0
  -25.8890  -11.6980   20.5240 N   0  0  0  0  0  0  0  0  0  0  0  0
  -23.8800  -10.4670   21.0370 C   0  0  0  0  0  0  0  0  0  0  0  0
  -24.3260   -9.4980   21.9620 C   0  0  0  0  0  3  0  0  0  0  0  0
  -23.6060   -8.2980   22.1450 C   0  0  0  0  0  3  0  0  0  0  0  0
  -22.4250   -8.0590   21.4030 C   0  0  0  0  0  0  0  0  0  0  0  0
  -21.9970   -9.0180   20.4670 C   0  0  0  0  0  3  0  0  0  0  0  0
  -22.7180  -10.2080   20.2820 C   0  0  0  0  0  3  0  0  0  0  0  0
  -21.6750   -6.9120   21.4960 O   0  0  0  0  0  0  0  0  0  0  0  0
  -21.6410   -6.1640   22.6460 C   0  0  0  0  0  0  0  0  0  0  0  0
  -21.2340   -6.7160   23.8800 C   0  0  0  0  0  3  0  0  0  0  0  0
  -21.1470   -5.8950   25.0220 C   0  0  0  0  0  3  0  0  0  0  0  0
  -21.4580   -4.5250   24.9330 C   0  0  0  0  0  0  0  0  0  0  0  0
  -21.8600   -3.9740   23.7030 C   0  0  0  0  0  3  0  0  0  0  0  0
  -21.9480   -4.7910   22.5620 C   0  0  0  0  0  0  0  0  0  0  0  0
  -22.3150   -4.2500   21.3750 F   0  0  0  0  0  0  0  0  0  0  0  0
  -21.3670   -3.7360   26.0280 F   0  0  0  0  0  0  0  0  0  0  0  0
  -22.7370  -13.5550   21.1560 C   0  0  0  0  0  0  0  0  0  0  0  0
  -22.0180  -12.8610   22.0300 N   0  0  0  0  0  0  0  0  0  0  0  0
  -22.2920  -14.5770   20.6330 O   0  0  0  0  0  0  0  0  0  0  0  0
  -22.3900  -12.0350   22.4750 H   0  0  0  0  0  0  0  0  0  0  0  0
  -21.0810  -13.1610   22.2600 H   0  0  0  0  0  0  0  0  0  0  0  0
  -25.3540  -15.2290   20.3160 N   0  0  0  0  0  0  0  0  0  0  0  0
  -24.5760  -15.8740   20.4160 H   0  0  0  0  0  0  0  0  0  0  0  0
  -26.1770  -15.6620   19.9190 H   0  0  0  0  0  0  0  0  0  0  0  0
  -30.7810  -25.3960   21.5800 C   0  0  0  0  0  1  0  0  0  0  0  0
  -30.2190  -24.1130   21.3220 O   0  0  0  0  0  0  0  0  0  0  0  0
  -28.0770  -25.0340   20.4140 C   0  0  0  0  0  2  0  0  0  0  0  0
  -28.3020  -26.4860   20.1650 O   0  0  0  0  0  0  0  0  0  0  0  0
  -24.6290  -31.9030   23.2360 C   0  0  0  0  0  0  0  0  0  0  0  0
  -27.1850  -27.3360   20.1500 C   0  0  0  0  0  0  0  0  0  0  0  0
  -23.4020  -30.5150   21.6060 C   0  0  0  0  0  3  0  0  0  0  0  0
  -24.8300  -28.9610   20.1650 C   0  0  0  0  0  0  0  0  0  0  0  0
  -25.9410  -30.8200   21.3990 C   0  0  0  0  0  2  0  0  0  0  0  0
  -26.0070  -29.4420   20.7510 C   0  0  0  0  0  0  0  0  0  0  0  0
  -27.1890  -28.6410   20.7320 C   0  0  0  0  0  3  0  0  0  0  0  0
  -25.9850  -26.9150   19.5310 C   0  0  0  0  0  3  0  0  0  0  0  0
  -24.8200  -27.7030   19.5470 C   0  0  0  0  0  3  0  0  0  0  0  0
  -23.5990  -29.8420   20.2230 C   0  0  0  0  0  2  0  0  0  0  0  0
  -24.6780  -31.0960   22.1370 N   0  0  0  0  0  0  0  0  0  0  0  0
  -23.5520  -32.1860   23.7810 O   0  0  0  0  0  0  0  0  0  0  0  0
  -22.7430  -29.4990   22.5690 C   0  0  0  0  0  0  0  0  0  0  0  0
  -21.4160  -29.3270   22.4520 N   0  0  0  0  0  0  0  0  0  0  0  0
  -23.4260  -28.8690   23.3820 O   0  0  0  0  0  0  0  0  0  0  0  0
  -20.9250  -29.8860   21.7680 H   0  0  0  0  0  0  0  0  0  0  0  0
  -18.0380  -28.1400   22.9670 C   0  0  0  0  0  0  0  0  0  0  0  0
  -20.5980  -28.3940   23.2270 C   0  0  0  0  0  3  0  0  0  0  0  0
  -20.6950  -26.9600   22.6560 C   0  0  0  0  0  2  0  0  0  0  0  0
  -19.5880  -26.6370   21.6470 C   0  0  0  0  0  2  0  0  0  0  0  0
  -18.2100  -26.7880   22.2950 C   0  0  0  0  0  2  0  0  0  0  0  0
  -19.1600  -28.9000   23.3910 C   0  0  0  0  0  0  0  0  0  0  0  0
  -18.9460  -30.1650   23.9800 C   0  0  0  0  0  3  0  0  0  0  0  0
  -17.6430  -30.6710   24.1490 C   0  0  0  0  0  3  0  0  0  0  0  0
  -16.5360  -29.9070   23.7410 C   0  0  0  0  0  3  0  0  0  0  0  0
  -16.7350  -28.6440   23.1560 C   0  0  0  0  0  3  0  0  0  0  0  0
  -25.9220  -32.5270   23.8460 C   0  0  0  0  0  3  0  0  0  0  0  0
  -25.6190  -33.9220   24.1960 N   0  0  0  0  0  0  0  0  0  0  0  0
  -25.9290  -34.9820   23.4370 C   0  0  0  0  0  0  0  0  0  0  0  0
  -26.5700  -34.8880   22.3880 O   0  0  0  0  0  0  0  0  0  0  0  0
  -25.0460  -34.0680   25.0140 H   0  0  0  0  0  0  0  0  0  0  0  0
  -24.1820  -36.7690   23.1540 C   0  0  0  0  0  1  0  0  0  0  0  0
  -25.4510  -36.3660   23.9200 C   0  0  0  0  0  3  0  0  0  0  0  0
  -27.6110  -37.2540   24.6800 C   0  0  0  0  0  1  0  0  0  0  0  0
  -26.4760  -37.4240   23.7760 N   0  0  0  0  0  0  0  0  0  0  0  0
  -26.0710  -38.3410   23.9450 H   0  0  0  0  0  0  0  0  0  0  0  0
  -26.4530  -31.7420   25.1080 C   0  0  1  0  0  0  0  0  0  0  0  0
  -25.3740  -31.4980   26.1890 C   0  0  0  0  0  1  0  0  0  0  0  0
  -27.0260  -30.3660   24.6960 C   0  0  0  0  0  1  0  0  0  0  0  0
  -27.6150  -32.5260   25.7610 C   0  0  0  0  0  1  0  0  0  0  0  0
  1  4  1  0
  2  5  1  0
  2  1  2  0
  4  3  2  0
  4 21  1  0
  5 11  2  0
  6  8  1  0
  6  7  1  0
  7 10  1  0
  8 12  1  0
 10  9  1  0
 10 53  1  1
 10 52  1  0
 11  3  1  0
 12  5  1  0
 12  9  1  0
 13 21  1  0
 14 19  1  0
 15 16  1  0
 15 14  1  0
 17 16  1  0
 17 26  1  0
 17 18  1  0
 19 13  1  0
 19 18  1  0
 20 13  2  0
 21 22  1  0
 23 24  2  0
 24 43  1  0
 25 24  1  0
 25 28  1  0
 26 23  1  0
 26 27  1  0
 27 25  2  0
 28 29  1  0
 29 30  2  0
 31 34  1  0
 31 30  1  0
 32 31  2  0
 33 32  1  0
 33 28  2  0
 34 35  1  0
 35 36  1  0
 36 37  2  0
 38 37  1  0
 38 42  1  0
 39 38  2  0
 40 35  2  0
 40 39  1  0
 41 40  1  0
 43 44  1  0
 44 47  1  0
 44 46  1  0
 45 43  2  0
 48 49  1  0
 48 23  1  0
 50 48  1  0
 52 51  1  0
 54 53  1  0
 55 66  2  0
 56 54  1  0
 56 61  1  0
 57 65  1  0
 57 67  1  0
 58 64  1  0
 58 60  1  0
 59 65  1  0
 60 59  1  0
 61 60  2  0
 62 63  1  0
 62 56  2  0
 63 58  2  0
 64 57  1  0
 65 55  1  0
 67 69  2  0
 68 67  1  0
 70 68  1  0
 71 80  2  0
 71 76  1  0
 72 68  1  0
 72 76  1  0
 73 72  1  0
 74 75  1  0
 74 73  1  0
 75 71  1  0
 76 77  2  0
 77 78  1  0
 79 78  2  0
 80 79  1  0
 81 55  1  0
 81 82  1  0
 81 91  1  0
 82 85  1  0
 83 87  1  0
 83 82  1  0
 84 83  2  0
 87 86  1  0
 89 87  1  0
 89 90  1  0
 89 88  1  0
 91 94  1  1
 91 92  1  0
 93 91  1  0
M  ISO  4  13 100  21 100  53 101  54 101
M  END
>  <TORSDO>  (89) 
F 18

>  <SCORE>  (89) 
-14.835

>  <name>  (89) 
89

>  <ligand_id>  (89) 
89

>  <original_smiles>  (89) 
[H]c1nc(N2C([H])([H])C([H])([H])C([H])([H])C(OC([H])([H])[H])(C([H])([H])Oc3c([H])c([H])c4c(c3[H])C([H])([H])N(C(=O)C([H])(N([H])C(=O)C([H])(N([H])C([H])([H])[H])C([H])([H])[H])C(C([H])([H])[H])(C([H])([H])[H])C([H])([H])[H])C([H])(C(=O)N([H])C3([H])c5c([H])c([H])c([H])c([H])c5C([H])([H])C([H])([H])C3([H])[H])C4([H])[H])C2([H])[H])c([H])c([H])c1N([H])C(=O)N1C([H])([H])C([H])([H])C([H])([H])C([H])(n2nc(-c3c([H])c([H])c(Oc4c([H])c([H])c(F)c([H])c4F)c([H])c3[H])c(C(=O)N([H])[H])c2N([H])[H])C1([H])[H]

>  <smiles>  (89) 
[H]c1nc(N2C([H])([H])C([H])([H])C([H])([H])C(OC([H])([H])[H])(C([H])([H])Oc3c([H])c([H])c4c(c3[H])C([H])([H])N(C(=O)C([H])(N([H])C(=O)C([H])(N([H])C([H])([H])[H])C([H])([H])[H])C(C([H])([H])[H])(C([H])([H])[H])C([H])([H])[H])C([H])(C(=O)N([H])C3([H])c5c([H])c([H])c([H])c([H])c5C([H])([H])C([H])([H])C3([H])[H])C4([H])[H])C2([H])[H])c([H])c([H])c1N([H])C(=O)N1C([H])([H])C([H])([H])C([H])([H])C([H])(n2nc(-c3c([H])c([H])c(Oc4c([H])c([H])c(F)c([H])c4F)c([H])c3[H])c(C(=O)N([H])[H])c2N([H])[H])C1([H])[H]

$$$$
90:0:0
     RDKit          3D

 97105  0  0  1  0  0  0  0  0999 V2000
  -29.2670  -20.7620   20.3500 C   0  0  0  0  0  0  0  0  0  0  0  0
  -29.7070  -22.0230   20.1400 N   0  0  0  0  0  0  0  0  0  0  0  0
  -28.0720  -20.5100   20.5150 O   0  0  0  0  0  0  0  0  0  0  0  0
  -30.6890  -22.1520   19.9510 H   0  0  0  0  0  0  0  0  0  0  0  0
  -29.8750  -18.2730   20.4040 C   0  0  0  0  0  3  0  0  0  0  0  0
  -31.6680  -19.9200   20.5610 C   0  0  0  0  0  3  0  0  0  0  0  0
  -32.1810  -17.5310   20.6340 C   0  0  0  0  0  3  0  0  0  0  0  0
  -30.2880  -19.6400   20.4270 C   0  0  0  0  0  0  0  0  0  0  0  0
  -30.8120  -17.2050   20.4870 C   0  0  0  0  0  0  0  0  0  0  0  0
  -32.6020  -18.8740   20.6670 C   0  0  0  0  0  0  0  0  0  0  0  0
  -33.9180  -19.1630   20.8090 F   0  0  0  0  0  0  0  0  0  0  0  0
  -31.0390  -14.7510   20.0160 C   0  0  0  0  0  0  0  0  0  0  0  0
  -30.7250  -12.4830   19.0880 C   0  0  0  0  0  2  0  0  0  0  0  0
  -29.7530  -12.5450   17.8920 C   0  0  0  0  0  2  0  0  0  0  0  0
  -28.2950  -12.4250   18.3740 C   0  0  0  0  0  2  0  0  0  0  0  0
  -27.9710  -13.3820   19.5530 C   0  0  0  0  0  3  0  0  0  0  0  0
  -29.0590  -13.3090   20.6500 C   0  0  0  0  0  2  0  0  0  0  0  0
  -30.3620  -13.5690   20.0130 N   0  0  0  0  0  0  0  0  0  0  0  0
  -32.1530  -14.8620   19.4960 O   0  0  0  0  0  0  0  0  0  0  0  0
  -30.3630  -15.8360   20.4670 N   0  0  0  0  0  0  0  0  0  0  0  0
  -29.4040  -15.6660   20.7260 H   0  0  0  0  0  0  0  0  0  0  0  0
  -25.6300  -14.0350   20.3900 C   0  0  0  0  0  0  0  0  0  0  0  0
  -24.5590  -13.2850   20.7970 C   0  0  0  0  0  0  0  0  0  0  0  0
  -24.9820  -11.9220   20.7200 C   0  0  0  0  0  0  0  0  0  0  0  0
  -26.6370  -13.1320   20.0940 N   0  0  0  0  0  0  0  0  0  0  0  0
  -26.2540  -11.8550   20.3510 N   0  0  0  0  0  0  0  0  0  0  0  0
  -24.2300  -10.6760   20.9230 C   0  0  0  0  0  0  0  0  0  0  0  0
  -24.6450   -9.7080   21.8630 C   0  0  0  0  0  3  0  0  0  0  0  0
  -23.8970   -8.5260   22.0530 C   0  0  0  0  0  3  0  0  0  0  0  0
  -22.7170   -8.3050   21.3020 C   0  0  0  0  0  0  0  0  0  0  0  0
  -22.3210   -9.2620   20.3510 C   0  0  0  0  0  3  0  0  0  0  0  0
  -23.0710  -10.4350   20.1590 C   0  0  0  0  0  3  0  0  0  0  0  0
  -21.9410   -7.1770   21.4000 O   0  0  0  0  0  0  0  0  0  0  0  0
  -21.8450   -6.4690   22.5710 C   0  0  0  0  0  0  0  0  0  0  0  0
  -21.3430   -7.0520   23.7550 C   0  0  0  0  0  3  0  0  0  0  0  0
  -21.1970   -6.2690   24.9180 C   0  0  0  0  0  3  0  0  0  0  0  0
  -21.5420   -4.9040   24.8970 C   0  0  0  0  0  0  0  0  0  0  0  0
  -22.0360   -4.3200   23.7170 C   0  0  0  0  0  3  0  0  0  0  0  0
  -22.1840   -5.1000   22.5570 C   0  0  0  0  0  0  0  0  0  0  0  0
  -22.6410   -4.5280   21.4170 F   0  0  0  0  0  0  0  0  0  0  0  0
  -21.3940   -4.1500   26.0110 F   0  0  0  0  0  0  0  0  0  0  0  0
  -23.1910  -13.7940   21.1450 C   0  0  0  0  0  0  0  0  0  0  0  0
  -22.4900  -13.1080   22.0410 N   0  0  0  0  0  0  0  0  0  0  0  0
  -22.7530  -14.8350   20.6570 O   0  0  0  0  0  0  0  0  0  0  0  0
  -22.8580  -12.2650   22.4560 H   0  0  0  0  0  0  0  0  0  0  0  0
  -21.5730  -13.4300   22.3160 H   0  0  0  0  0  0  0  0  0  0  0  0
  -25.8220  -15.4040   20.2260 N   0  0  0  0  0  0  0  0  0  0  0  0
  -25.0750  -16.0750   20.3720 H   0  0  0  0  0  0  0  0  0  0  0  0
  -26.6600  -15.8240   19.8440 H   0  0  0  0  0  0  0  0  0  0  0  0
  -28.9170  -23.2660   20.3310 C   0  0  0  0  0  3  0  0  0  0  0  0
  -30.6190  -24.1190   22.0820 C   0  0  0  0  0  1  0  0  0  0  0  0
  -28.5050  -22.9800   22.8660 C   0  0  0  0  0  1  0  0  0  0  0  0
  -29.1380  -23.8440   21.7610 C   0  0  0  0  0  3  0  0  0  0  0  0
  -29.1100  -24.3430   19.2170 C   0  0  0  0  0  0  0  0  0  0  0  0
  -30.1540  -24.4610   18.5650 O   0  0  0  0  0  0  0  0  0  0  0  0
  -27.9000  -25.2700   18.9530 C   0  0  0  0  0  2  0  0  0  0  0  0
  -28.1680  -26.6950   19.0440 O   0  0  0  0  0  0  0  0  0  0  0  0
  -24.7370  -31.5590   23.0060 C   0  0  0  0  0  0  0  0  0  0  0  0
  -27.0350  -27.4870   19.1880 C   0  0  0  0  0  0  0  0  0  0  0  0
  -23.3750  -30.3700   21.3230 C   0  0  0  0  0  3  0  0  0  0  0  0
  -24.6780  -29.0230   19.5940 C   0  0  0  0  0  0  0  0  0  0  0  0
  -25.8840  -30.7360   20.9480 C   0  0  0  0  0  2  0  0  0  0  0  0
  -25.8950  -29.4540   20.1370 C   0  0  0  0  0  0  0  0  0  0  0  0
  -27.0750  -28.6950   19.9330 C   0  0  0  0  0  3  0  0  0  0  0  0
  -25.7930  -27.1010   18.6230 C   0  0  0  0  0  3  0  0  0  0  0  0
  -24.6240  -27.8490   18.8320 C   0  0  0  0  0  3  0  0  0  0  0  0
  -23.4540  -29.8710   19.8570 C   0  0  0  0  0  2  0  0  0  0  0  0
  -24.6890  -30.8960   21.8160 N   0  0  0  0  0  0  0  0  0  0  0  0
  -23.7100  -31.7660   23.6670 O   0  0  0  0  0  0  0  0  0  0  0  0
  -22.7990  -29.2380   22.2050 C   0  0  0  0  0  0  0  0  0  0  0  0
  -21.4720  -29.0350   22.1320 N   0  0  0  0  0  0  0  0  0  0  0  0
  -23.5390  -28.5500   22.9130 O   0  0  0  0  0  0  0  0  0  0  0  0
  -20.9330  -29.6470   21.5350 H   0  0  0  0  0  0  0  0  0  0  0  0
  -18.1670  -27.6580   22.6180 C   0  0  0  0  0  0  0  0  0  0  0  0
  -20.7190  -28.0050   22.8450 C   0  0  0  0  0  3  0  0  0  0  0  0
  -20.8650  -26.6300   22.1530 C   0  0  0  0  0  2  0  0  0  0  0  0
  -19.7480  -26.3410   21.1450 C   0  0  0  0  0  2  0  0  0  0  0  0
  -18.3800  -26.3740   21.8330 C   0  0  0  0  0  2  0  0  0  0  0  0
  -19.2640  -28.4310   23.0790 C   0  0  0  0  0  0  0  0  0  0  0  0
  -19.0110  -29.6330   23.7740 C   0  0  0  0  0  3  0  0  0  0  0  0
  -17.6920  -30.0630   24.0120 C   0  0  0  0  0  3  0  0  0  0  0  0
  -16.6090  -29.2850   23.5680 C   0  0  0  0  0  3  0  0  0  0  0  0
  -16.8470  -28.0840   22.8770 C   0  0  0  0  0  3  0  0  0  0  0  0
  -26.0790  -32.1110   23.5790 C   0  0  0  0  0  3  0  0  0  0  0  0
  -25.8260  -33.4730   24.0670 N   0  0  0  0  0  0  0  0  0  0  0  0
  -26.1420  -34.5910   23.3990 C   0  0  0  0  0  0  0  0  0  0  0  0
  -26.7510  -34.5800   22.3250 O   0  0  0  0  0  0  0  0  0  0  0  0
  -25.2810  -33.5580   24.9120 H   0  0  0  0  0  0  0  0  0  0  0  0
  -24.4350  -36.4370   23.3320 C   0  0  0  0  0  1  0  0  0  0  0  0
  -25.7150  -35.9340   24.0210 C   0  0  0  0  0  3  0  0  0  0  0  0
  -27.9100  -36.7020   24.8100 C   0  0  0  0  0  1  0  0  0  0  0  0
  -26.7620  -36.9760   23.9490 N   0  0  0  0  0  0  0  0  0  0  0  0
  -26.3850  -37.8850   24.2030 H   0  0  0  0  0  0  0  0  0  0  0  0
  -26.6800  -31.2110   24.7270 C   0  0  1  0  0  0  0  0  0  0  0  0
  -25.6750  -30.8920   25.8580 C   0  0  0  0  0  1  0  0  0  0  0  0
  -27.1910  -29.8670   24.1560 C   0  0  0  0  0  1  0  0  0  0  0  0
  -27.9030  -31.9170   25.3600 C   0  0  0  0  0  1  0  0  0  0  0  0
  1  8  1  0
  1  3  2  0
  2 50  1  0
  2  1  1  0
  4  2  1  0
  5  8  2  0
  5  9  1  0
  6 10  2  0
  7 10  1  0
  8  6  1  0
  9  7  2  0
 10 11  1  0
 12 20  1  0
 13 18  1  0
 14 15  1  0
 14 13  1  0
 16 15  1  0
 16 25  1  0
 16 17  1  0
 18 12  1  0
 18 17  1  0
 19 12  2  0
 20  9  1  0
 20 21  1  0
 22 23  2  0
 23 42  1  0
 24 23  1  0
 24 27  1  0
 25 26  1  0
 25 22  1  0
 26 24  2  0
 27 28  1  0
 28 29  2  0
 30 33  1  0
 30 29  1  0
 31 30  2  0
 32 31  1  0
 32 27  2  0
 33 34  1  0
 34 35  1  0
 35 36  2  0
 37 36  1  0
 37 41  1  0
 38 37  2  0
 39 34  2  0
 39 38  1  0
 40 39  1  0
 42 43  1  0
 43 46  1  0
 43 45  1  0
 44 42  2  0
 47 48  1  0
 47 22  1  0
 49 47  1  0
 50 54  1  0
 50 53  1  0
 53 51  1  0
 53 52  1  0
 55 54  2  0
 56 57  1  0
 56 54  1  0
 57 59  1  0
 58 69  2  0
 59 64  1  0
 60 68  1  0
 60 70  1  0
 61 67  1  0
 61 63  1  0
 62 68  1  0
 63 62  1  0
 64 63  2  0
 65 66  1  0
 65 59  2  0
 66 61  2  0
 67 60  1  0
 68 58  1  0
 70 72  2  0
 71 70  1  0
 73 71  1  0
 74 83  2  0
 74 79  1  0
 75 71  1  0
 75 79  1  0
 76 75  1  0
 77 78  1  0
 77 76  1  0
 78 74  1  0
 79 80  2  0
 80 81  1  0
 82 81  2  0
 83 82  1  0
 84 58  1  0
 84 85  1  0
 84 94  1  0
 85 88  1  0
 86 90  1  0
 86 85  1  0
 87 86  2  0
 90 89  1  0
 92 90  1  0
 92 93  1  0
 92 91  1  0
 94 97  1  1
 94 95  1  0
 96 94  1  0
M  ISO  4  12 100  20 100  56 101  57 101
M  END
>  <TORSDO>  (90) 
F 21

>  <SCORE>  (90) 
-11.967

>  <name>  (90) 
90

>  <ligand_id>  (90) 
90

>  <original_smiles>  (90) 
[H]c1c([H])c([H])c2c(c1[H])C([H])([H])C([H])([H])C([H])([H])C2([H])N([H])C(=O)C1([H])N(C(=O)C([H])(N([H])C(=O)C([H])(N([H])C([H])([H])[H])C([H])([H])[H])C(C([H])([H])[H])(C([H])([H])[H])C([H])([H])[H])C([H])([H])c2c([H])c(OC([H])([H])C(=O)C([H])(N([H])C(=O)c3c([H])c(F)c([H])c(N([H])C(=O)N4C([H])([H])C([H])([H])C([H])([H])C([H])(n5nc(-c6c([H])c([H])c(Oc7c([H])c([H])c(F)c([H])c7F)c([H])c6[H])c(C(=O)N([H])[H])c5N([H])[H])C4([H])[H])c3[H])C([H])(C([H])([H])[H])C([H])([H])[H])c([H])c([H])c2C1([H])[H]

>  <smiles>  (90) 
[H]c1c([H])c([H])c2c(c1[H])C([H])([H])C([H])([H])C([H])([H])C2([H])N([H])C(=O)C1([H])N(C(=O)C([H])(N([H])C(=O)C([H])(N([H])C([H])([H])[H])C([H])([H])[H])C(C([H])([H])[H])(C([H])([H])[H])C([H])([H])[H])C([H])([H])c2c([H])c(OC([H])([H])C(=O)C([H])(N([H])C(=O)c3c([H])c(F)c([H])c(N([H])C(=O)N4C([H])([H])C([H])([H])C([H])([H])C([H])(n5nc(-c6c([H])c([H])c(Oc7c([H])c([H])c(F)c([H])c7F)c([H])c6[H])c(C(=O)N([H])[H])c5N([H])[H])C4([H])[H])c3[H])C([H])(C([H])([H])[H])C([H])([H])[H])c([H])c([H])c2C1([H])[H]

$$$$
91:0:0
     RDKit          3D

 92100  0  0  1  0  0  0  0  0999 V2000
  -29.0620  -22.5510   21.1950 C   0  0  0  0  0  0  0  0  0  0  0  0
  -28.3710  -22.3260   22.1980 O   0  0  0  0  0  0  0  0  0  0  0  0
  -30.3120  -17.4760   20.8740 C   0  0  0  0  0  0  0  0  0  0  0  0
  -29.6070  -21.3130   20.2860 C   0  0  0  0  0  0  0  0  0  0  0  0
  -30.1800  -18.8380   20.0720 C   0  0  0  0  0  2  0  0  0  0  0  0
  -31.3900  -18.7050   22.5600 C   0  0  0  0  0  2  0  0  0  0  0  0
  -30.6880  -20.0620   22.2390 C   0  0  0  0  0  3  0  0  0  0  0  0
  -31.7580  -21.1460   22.5440 C   0  0  0  0  0  1  0  0  0  0  0  0
  -30.7610  -17.4960   22.0610 N   0  0  0  0  0  0  0  0  0  0  0  0
  -30.1220  -20.1460   20.8630 N   0  0  0  0  0  0  0  0  0  0  0  0
  -29.4390  -21.3870   19.0640 O   0  0  0  0  0  0  0  0  0  0  0  0
  -29.7370  -16.1000   20.2950 C   0  0  0  0  0  2  0  0  0  0  0  0
  -30.6420  -14.7880   20.0410 C   0  0  0  0  0  0  0  0  0  0  0  0
  -30.4380  -12.5110   18.9990 C   0  0  0  0  0  2  0  0  0  0  0  0
  -29.4210  -12.5870   17.8340 C   0  0  0  0  0  2  0  0  0  0  0  0
  -27.9790  -12.4050   18.3490 C   0  0  0  0  0  2  0  0  0  0  0  0
  -27.6750  -13.3010   19.5770 C   0  0  0  0  0  3  0  0  0  0  0  0
  -28.7870  -13.1660   20.6400 C   0  0  0  0  0  2  0  0  0  0  0  0
  -30.0620  -13.5330   20.0060 N   0  0  0  0  0  0  0  0  0  0  0  0
  -31.8060  -14.9150   19.6400 O   0  0  0  0  0  0  0  0  0  0  0  0
  -25.3350  -13.9170   20.4380 C   0  0  0  0  0  0  0  0  0  0  0  0
  -24.2830  -13.1490   20.8510 C   0  0  0  0  0  0  0  0  0  0  0  0
  -24.7270  -11.7920   20.7700 C   0  0  0  0  0  0  0  0  0  0  0  0
  -26.3550  -13.0280   20.1320 N   0  0  0  0  0  0  0  0  0  0  0  0
  -25.9990  -11.7430   20.3940 N   0  0  0  0  0  0  0  0  0  0  0  0
  -23.9950  -10.5360   20.9760 C   0  0  0  0  0  0  0  0  0  0  0  0
  -24.4470   -9.5590   21.8890 C   0  0  0  0  0  3  0  0  0  0  0  0
  -23.7160   -8.3680   22.0830 C   0  0  0  0  0  3  0  0  0  0  0  0
  -22.5150   -8.1470   21.3630 C   0  0  0  0  0  0  0  0  0  0  0  0
  -22.0850   -9.1110   20.4360 C   0  0  0  0  0  3  0  0  0  0  0  0
  -22.8180  -10.2950   20.2410 C   0  0  0  0  0  3  0  0  0  0  0  0
  -21.7530   -7.0090   21.4700 O   0  0  0  0  0  0  0  0  0  0  0  0
  -21.7100   -6.2760   22.6290 C   0  0  0  0  0  0  0  0  0  0  0  0
  -21.2780   -6.8360   23.8500 C   0  0  0  0  0  3  0  0  0  0  0  0
  -21.1830   -6.0280   25.0010 C   0  0  0  0  0  3  0  0  0  0  0  0
  -21.5110   -4.6630   24.9320 C   0  0  0  0  0  0  0  0  0  0  0  0
  -21.9360   -4.1000   23.7150 C   0  0  0  0  0  3  0  0  0  0  0  0
  -22.0350   -4.9040   22.5670 C   0  0  0  0  0  0  0  0  0  0  0  0
  -22.4240   -4.3550   21.3920 F   0  0  0  0  0  0  0  0  0  0  0  0
  -21.4130   -3.8830   26.0340 F   0  0  0  0  0  0  0  0  0  0  0  0
  -22.9090  -13.6350   21.2090 C   0  0  0  0  0  0  0  0  0  0  0  0
  -22.2240  -12.9290   22.0990 N   0  0  0  0  0  0  0  0  0  0  0  0
  -22.4560  -14.6770   20.7350 O   0  0  0  0  0  0  0  0  0  0  0  0
  -22.6020  -12.0800   22.4940 H   0  0  0  0  0  0  0  0  0  0  0  0
  -21.3100  -13.2380   22.3960 H   0  0  0  0  0  0  0  0  0  0  0  0
  -25.5030  -15.2900   20.2780 N   0  0  0  0  0  0  0  0  0  0  0  0
  -24.7540  -15.9420   20.4820 H   0  0  0  0  0  0  0  0  0  0  0  0
  -26.3280  -15.7390   19.9020 H   0  0  0  0  0  0  0  0  0  0  0  0
  -29.3560  -24.0710   20.8160 C   0  0  0  0  0  2  0  0  0  0  0  0
  -27.7890  -24.4660   18.8570 C   0  0  0  0  0  1  0  0  0  0  0  0
  -28.1640  -24.9890   20.2640 C   0  0  0  0  0  3  0  0  0  0  0  0
  -28.3550  -26.4770   20.2550 O   0  0  0  0  0  0  0  0  0  0  0  0
  -24.6270  -31.8890   23.2740 C   0  0  0  0  0  0  0  0  0  0  0  0
  -27.2330  -27.3350   20.2110 C   0  0  0  0  0  0  0  0  0  0  0  0
  -23.4210  -30.4960   21.6390 C   0  0  0  0  0  3  0  0  0  0  0  0
  -24.8670  -28.9620   20.2040 C   0  0  0  0  0  0  0  0  0  0  0  0
  -25.9600  -30.8280   21.4350 C   0  0  0  0  0  2  0  0  0  0  0  0
  -26.0440  -29.4510   20.7840 C   0  0  0  0  0  0  0  0  0  0  0  0
  -27.2330  -28.6580   20.7640 C   0  0  0  0  0  3  0  0  0  0  0  0
  -26.0200  -26.9070   19.6190 C   0  0  0  0  0  3  0  0  0  0  0  0
  -24.8580  -27.6960   19.6070 C   0  0  0  0  0  3  0  0  0  0  0  0
  -23.6340  -29.8410   20.2540 C   0  0  0  0  0  2  0  0  0  0  0  0
  -24.6910  -31.0860   22.1740 N   0  0  0  0  0  0  0  0  0  0  0  0
  -23.5450  -32.1630   23.8140 O   0  0  0  0  0  0  0  0  0  0  0  0
  -22.7630  -29.4710   22.5950 C   0  0  0  0  0  0  0  0  0  0  0  0
  -21.4400  -29.2820   22.4610 N   0  0  0  0  0  0  0  0  0  0  0  0
  -23.4450  -28.8510   23.4130 O   0  0  0  0  0  0  0  0  0  0  0  0
  -20.9470  -29.8360   21.7770 H   0  0  0  0  0  0  0  0  0  0  0  0
  -18.0710  -28.0490   22.9450 C   0  0  0  0  0  0  0  0  0  0  0  0
  -20.6260  -28.3440   23.2350 C   0  0  0  0  0  3  0  0  0  0  0  0
  -20.7490  -26.9070   22.6800 C   0  0  0  0  0  2  0  0  0  0  0  0
  -19.6580  -26.5480   21.6660 C   0  0  0  0  0  2  0  0  0  0  0  0
  -18.2670  -26.6910   22.2910 C   0  0  0  0  0  2  0  0  0  0  0  0
  -19.1780  -28.8290   23.3770 C   0  0  0  0  0  0  0  0  0  0  0  0
  -18.9390  -30.0940   23.9560 C   0  0  0  0  0  3  0  0  0  0  0  0
  -17.6240  -30.5790   24.1090 C   0  0  0  0  0  3  0  0  0  0  0  0
  -16.5340  -29.7970   23.6930 C   0  0  0  0  0  3  0  0  0  0  0  0
  -16.7600  -28.5330   23.1190 C   0  0  0  0  0  3  0  0  0  0  0  0
  -25.9110  -32.5270   23.8880 C   0  0  0  0  0  3  0  0  0  0  0  0
  -26.4250  -31.7660   25.1720 C   0  0  1  0  0  0  0  0  0  0  0  0
  -25.3300  -31.5420   26.2440 C   0  0  0  0  0  1  0  0  0  0  0  0
  -27.0080  -30.3870   24.7880 C   0  0  0  0  0  1  0  0  0  0  0  0
  -27.5800  -32.5620   25.8260 C   0  0  0  0  0  1  0  0  0  0  0  0
  -25.6060  -33.9290   24.2070 N   0  0  0  0  0  0  0  0  0  0  0  0
  -25.9360  -34.9740   23.4340 C   0  0  0  0  0  0  0  0  0  0  0  0
  -26.6060  -34.8560   22.4030 O   0  0  0  0  0  0  0  0  0  0  0  0
  -25.0270  -34.0960   25.0170 H   0  0  0  0  0  0  0  0  0  0  0  0
  -24.2200  -36.7700   23.0580 C   0  0  0  0  0  1  0  0  0  0  0  0
  -25.4540  -36.3670   23.8800 C   0  0  0  0  0  3  0  0  0  0  0  0
  -27.5830  -37.2490   24.7230 C   0  0  0  0  0  1  0  0  0  0  0  0
  -26.4900  -37.4160   23.7680 N   0  0  0  0  0  0  0  0  0  0  0  0
  -26.0850  -38.3360   23.9140 H   0  0  0  0  0  0  0  0  0  0  0  0
  1  2  2  0
  3  9  2  0
  4 10  1  0
  4  1  1  0
  5 10  1  0
  5  3  1  0
  7  8  1  0
  7  6  1  0
  9  6  1  0
 10  7  1  0
 11  4  2  0
 12  3  1  0
 13 12  1  0
 14 19  1  0
 15 16  1  0
 15 14  1  0
 17 16  1  0
 17 24  1  0
 17 18  1  0
 19 13  1  0
 19 18  1  0
 20 13  2  0
 21 22  2  0
 22 41  1  0
 23 22  1  0
 23 26  1  0
 24 25  1  0
 24 21  1  0
 25 23  2  0
 26 27  1  0
 27 28  2  0
 29 32  1  0
 29 28  1  0
 30 29  2  0
 31 30  1  0
 31 26  2  0
 32 33  1  0
 33 34  1  0
 34 35  2  0
 36 35  1  0
 36 40  1  0
 37 36  2  0
 38 33  2  0
 38 37  1  0
 39 38  1  0
 41 42  1  0
 42 45  1  0
 42 44  1  0
 43 41  2  0
 46 21  1  0
 46 47  1  0
 48 46  1  0
 49  1  1  0
 51 50  1  0
 51 49  1  0
 52 51  1  0
 53 64  2  0
 54 52  1  0
 54 59  1  0
 55 63  1  0
 55 65  1  0
 56 62  1  0
 56 58  1  0
 57 63  1  0
 58 57  1  0
 59 58  2  0
 60 54  2  0
 61 60  1  0
 61 56  2  0
 62 55  1  0
 63 53  1  0
 65 67  2  0
 66 65  1  0
 68 66  1  0
 69 78  2  0
 69 74  1  0
 70 66  1  0
 70 74  1  0
 71 70  1  0
 72 73  1  0
 72 71  1  0
 73 69  1  0
 74 75  2  0
 75 76  1  0
 77 76  2  0
 78 77  1  0
 79 53  1  0
 79 84  1  0
 79 80  1  0
 80 83  1  1
 80 81  1  0
 82 80  1  0
 84 87  1  0
 85 89  1  0
 85 84  1  0
 86 85  2  0
 89 88  1  0
 91 89  1  0
 91 92  1  0
 91 90  1  0
M  ISO  4  12 100  13 100  51 101  52 101
M  END
>  <TORSDO>  (91) 
F 20

>  <SCORE>  (91) 
-13.879

>  <name>  (91) 
91

>  <ligand_id>  (91) 
91

>  <original_smiles>  (91) 
[H]c1c([H])c([H])c2c(c1[H])C([H])([H])C([H])([H])C([H])([H])C2([H])N([H])C(=O)C1([H])N(C(=O)C([H])(N([H])C(=O)C([H])(N([H])C([H])([H])[H])C([H])([H])[H])C(C([H])([H])[H])(C([H])([H])[H])C([H])([H])[H])C([H])([H])c2c([H])c(OC([H])(C([H])([H])[H])C([H])([H])C(=O)C(=O)N3C([H])([H])C(C([H])([H])C(=O)N4C([H])([H])C([H])([H])C([H])([H])C([H])(n5nc(-c6c([H])c([H])c(Oc7c([H])c([H])c(F)c([H])c7F)c([H])c6[H])c(C(=O)N([H])[H])c5N([H])[H])C4([H])[H])=NC([H])([H])C3([H])C([H])([H])[H])c([H])c([H])c2C1([H])[H]

>  <smiles>  (91) 
[H]c1c([H])c([H])c2c(c1[H])C([H])([H])C([H])([H])C([H])([H])C2([H])N([H])C(=O)C1([H])N(C(=O)C([H])(N([H])C(=O)C([H])(N([H])C([H])([H])[H])C([H])([H])[H])C(C([H])([H])[H])(C([H])([H])[H])C([H])([H])[H])C([H])([H])c2c([H])c(OC([H])(C([H])([H])[H])C([H])([H])C(=O)C(=O)N3C([H])([H])C(C([H])([H])C(=O)N4C([H])([H])C([H])([H])C([H])([H])C([H])(n5nc(-c6c([H])c([H])c(Oc7c([H])c([H])c(F)c([H])c7F)c([H])c6[H])c(C(=O)N([H])[H])c5N([H])[H])C4([H])[H])=NC([H])([H])C3([H])C([H])([H])[H])c([H])c([H])c2C1([H])[H]

$$$$
92:0:0
     RDKit          3D

 97106  0  0  1  0  0  0  0  0999 V2000
  -29.9860  -19.5830   24.2240 C   0  0  0  0  0  2  0  0  0  0  0  0
  -29.0910  -19.8110   22.9840 C   0  0  0  0  0  2  0  0  0  0  0  0
  -31.4960  -19.8470   23.9940 C   0  0  0  0  0  2  0  0  0  0  0  0
  -29.3890  -21.0970   22.1690 C   0  0  0  0  0  2  0  0  0  0  0  0
  -31.8240  -20.4730   22.6080 C   0  0  0  0  0  3  0  0  0  0  0  0
  -30.8310  -21.6640   22.3250 C   0  0  2  0  0  0  0  0  0  0  0  0
  -30.8650  -22.6530   23.5310 C   0  0  0  0  0  1  0  0  0  0  0  0
  -32.5730  -19.2760   20.3400 C   0  0  0  0  0  3  0  0  0  0  0  0
  -32.4470  -17.9200   19.9130 C   0  0  0  0  0  3  0  0  0  0  0  0
  -31.9520  -19.3770   21.5600 C   0  0  0  0  0  0  0  0  0  0  0  0
  -31.7660  -17.2860   20.9160 C   0  0  0  0  0  0  0  0  0  0  0  0
  -31.4060  -18.1600   21.8850 O   0  0  0  0  0  0  0  0  0  0  0  0
  -32.0720  -14.9240   20.4600 C   0  0  0  0  0  0  0  0  0  0  0  0
  -31.7000  -12.7600   19.3560 C   0  0  0  0  0  2  0  0  0  0  0  0
  -30.8140  -13.0110   18.1190 C   0  0  0  0  0  2  0  0  0  0  0  0
  -29.3230  -12.9410   18.5010 C   0  0  0  0  0  2  0  0  0  0  0  0
  -28.9830  -13.8010   19.7490 C   0  0  0  0  0  3  0  0  0  0  0  0
  -29.9960  -13.5530   20.8900 C   0  0  0  0  0  2  0  0  0  0  0  0
  -31.3500  -13.7760   20.3570 N   0  0  0  0  0  0  0  0  0  0  0  0
  -33.2140  -15.0340   20.0050 O   0  0  0  0  0  0  0  0  0  0  0  0
  -31.4140  -15.9740   20.9840 N   0  0  0  0  0  0  0  0  0  0  0  0
  -30.5490  -15.7660   21.4570 H   0  0  0  0  0  0  0  0  0  0  0  0
  -26.5850  -14.5000   20.3640 C   0  0  0  0  0  0  0  0  0  0  0  0
  -25.4810  -13.7720   20.7180 C   0  0  0  0  0  0  0  0  0  0  0  0
  -25.9000  -12.4070   20.7420 C   0  0  0  0  0  0  0  0  0  0  0  0
  -27.6080  -13.5810   20.1920 N   0  0  0  0  0  0  0  0  0  0  0  0
  -27.1970  -12.3190   20.4770 N   0  0  0  0  0  0  0  0  0  0  0  0
  -25.1280  -11.1740   20.9430 C   0  0  0  0  0  0  0  0  0  0  0  0
  -25.4150  -10.2890   22.0070 C   0  0  0  0  0  3  0  0  0  0  0  0
  -24.6460   -9.1190   22.1910 C   0  0  0  0  0  3  0  0  0  0  0  0
  -23.5780   -8.8250   21.3100 C   0  0  0  0  0  0  0  0  0  0  0  0
  -23.3120   -9.6980   20.2410 C   0  0  0  0  0  3  0  0  0  0  0  0
  -24.0810  -10.8580   20.0550 C   0  0  0  0  0  3  0  0  0  0  0  0
  -22.7940   -7.7000   21.3970 O   0  0  0  0  0  0  0  0  0  0  0  0
  -22.3800   -7.2030   22.6060 C   0  0  0  0  0  0  0  0  0  0  0  0
  -21.6520   -7.9900   23.5260 C   0  0  0  0  0  3  0  0  0  0  0  0
  -21.1850   -7.4170   24.7270 C   0  0  0  0  0  3  0  0  0  0  0  0
  -21.4390   -6.0600   25.0050 C   0  0  0  0  0  0  0  0  0  0  0  0
  -22.1590   -5.2750   24.0880 C   0  0  0  0  0  3  0  0  0  0  0  0
  -22.6260   -5.8450   22.8920 C   0  0  0  0  0  0  0  0  0  0  0  0
  -23.3020   -5.0780   22.0010 F   0  0  0  0  0  0  0  0  0  0  0  0
  -20.9840   -5.5080   26.1540 F   0  0  0  0  0  0  0  0  0  0  0  0
  -24.0920  -14.3000   20.9320 C   0  0  0  0  0  0  0  0  0  0  0  0
  -23.3410  -13.6950   21.8460 N   0  0  0  0  0  0  0  0  0  0  0  0
  -23.6820  -15.2880   20.3230 O   0  0  0  0  0  0  0  0  0  0  0  0
  -23.6860  -12.8990   22.3600 H   0  0  0  0  0  0  0  0  0  0  0  0
  -22.4080  -14.0340   22.0360 H   0  0  0  0  0  0  0  0  0  0  0  0
  -26.8000  -15.8590   20.1520 N   0  0  0  0  0  0  0  0  0  0  0  0
  -26.0480  -16.5390   20.2020 H   0  0  0  0  0  0  0  0  0  0  0  0
  -27.6790  -16.2620   19.8480 H   0  0  0  0  0  0  0  0  0  0  0  0
  -31.2300  -22.5690   21.1170 C   0  0  0  0  0  0  0  0  0  0  0  0
  -30.2330  -23.2350   20.5090 N   0  0  0  0  0  0  0  0  0  0  0  0
  -32.4120  -22.7600   20.8250 O   0  0  0  0  0  0  0  0  0  0  0  0
  -29.3000  -22.9760   20.7940 H   0  0  0  0  0  0  0  0  0  0  0  0
  -30.3410  -24.4490   19.6850 C   0  0  0  0  0  2  0  0  0  0  0  0
  -29.2670  -25.4780   20.1230 C   0  0  0  0  0  2  0  0  0  0  0  0
  -29.0740  -26.5820   19.2170 O   0  0  0  0  0  0  0  0  0  0  0  0
  -24.6170  -30.8100   22.8600 C   0  0  0  0  0  0  0  0  0  0  0  0
  -27.8270  -27.1710   19.2930 C   0  0  0  0  0  0  0  0  0  0  0  0
  -23.6030  -29.4590   21.0540 C   0  0  0  0  0  3  0  0  0  0  0  0
  -25.2450  -28.3240   19.4630 C   0  0  0  0  0  0  0  0  0  0  0  0
  -26.0540  -30.1850   20.9210 C   0  0  0  0  0  2  0  0  0  0  0  0
  -26.3260  -28.9270   20.1190 C   0  0  0  0  0  0  0  0  0  0  0  0
  -27.6200  -28.3610   20.0280 C   0  0  0  0  0  3  0  0  0  0  0  0
  -26.7290  -26.5890   18.6220 C   0  0  0  0  0  3  0  0  0  0  0  0
  -25.4420  -27.1540   18.7100 C   0  0  0  0  0  3  0  0  0  0  0  0
  -23.8910  -28.9840   19.6060 C   0  0  0  0  0  2  0  0  0  0  0  0
  -24.7750  -30.1610   21.6710 N   0  0  0  0  0  0  0  0  0  0  0  0
  -23.5120  -30.8660   23.4180 O   0  0  0  0  0  0  0  0  0  0  0  0
  -23.1090  -28.2520   21.8810 C   0  0  0  0  0  0  0  0  0  0  0  0
  -21.8150  -27.9170   21.7380 N   0  0  0  0  0  0  0  0  0  0  0  0
  -23.8840  -27.6230   22.6080 O   0  0  0  0  0  0  0  0  0  0  0  0
  -21.2450  -28.4890   21.1310 H   0  0  0  0  0  0  0  0  0  0  0  0
  -18.6110  -26.3060   22.1740 C   0  0  0  0  0  0  0  0  0  0  0  0
  -21.1400  -26.7950   22.3880 C   0  0  0  0  0  3  0  0  0  0  0  0
  -21.3570  -25.4840   21.5970 C   0  0  0  0  0  2  0  0  0  0  0  0
  -20.2410  -25.1970   20.5870 C   0  0  0  0  0  2  0  0  0  0  0  0
  -18.8870  -25.0970   21.2960 C   0  0  0  0  0  2  0  0  0  0  0  0
  -19.6680  -27.1130   22.6730 C   0  0  0  0  0  0  0  0  0  0  0  0
  -19.3550  -28.2460   23.4550 C   0  0  0  0  0  3  0  0  0  0  0  0
  -18.0180  -28.5730   23.7450 C   0  0  0  0  0  3  0  0  0  0  0  0
  -16.9760  -27.7630   23.2620 C   0  0  0  0  0  3  0  0  0  0  0  0
  -17.2740  -26.6320   22.4810 C   0  0  0  0  0  3  0  0  0  0  0  0
  -25.8090  -31.5340   23.5610 C   0  0  0  0  0  3  0  0  0  0  0  0
  -26.3920  -30.7300   24.7870 C   0  0  1  0  0  0  0  0  0  0  0  0
  -25.3160  -30.2730   25.8010 C   0  0  0  0  0  1  0  0  0  0  0  0
  -27.1510  -29.4710   24.3040 C   0  0  0  0  0  1  0  0  0  0  0  0
  -27.4200  -31.6030   25.5450 C   0  0  0  0  0  1  0  0  0  0  0  0
  -25.3330  -32.8570   23.9870 N   0  0  0  0  0  0  0  0  0  0  0  0
  -25.5580  -33.9970   23.3220 C   0  0  0  0  0  0  0  0  0  0  0  0
  -26.2600  -34.0550   22.3090 O   0  0  0  0  0  0  0  0  0  0  0  0
  -24.7010  -32.8760   24.7740 H   0  0  0  0  0  0  0  0  0  0  0  0
  -23.6390  -35.6010   23.0520 C   0  0  0  0  0  1  0  0  0  0  0  0
  -24.9010  -35.2790   23.8680 C   0  0  0  0  0  3  0  0  0  0  0  0
  -26.8940  -36.3390   24.8350 C   0  0  0  0  0  1  0  0  0  0  0  0
  -25.8060  -36.4500   23.8670 N   0  0  0  0  0  0  0  0  0  0  0  0
  -25.2900  -37.3040   24.0650 H   0  0  0  0  0  0  0  0  0  0  0  0
  2  1  1  0
  3  1  1  0
  4  6  1  0
  4  2  1  0
  5 10  1  0
  5  3  1  0
  6  5  1  0
  6  7  1  1
  8 10  2  0
  9  8  1  0
  9 11  2  0
 10 12  1  0
 11 21  1  0
 11 12  1  0
 13 21  1  0
 14 19  1  0
 15 16  1  0
 15 14  1  0
 17 16  1  0
 17 26  1  0
 17 18  1  0
 19 13  1  0
 19 18  1  0
 20 13  2  0
 21 22  1  0
 23 24  2  0
 24 25  1  0
 24 43  1  0
 25 28  1  0
 26 23  1  0
 26 27  1  0
 27 25  2  0
 28 29  1  0
 29 30  2  0
 31 34  1  0
 31 30  1  0
 32 31  2  0
 33 32  1  0
 33 28  2  0
 34 35  1  0
 35 40  2  0
 35 36  1  0
 36 37  2  0
 37 38  1  0
 38 42  1  0
 39 38  2  0
 40 39  1  0
 41 40  1  0
 43 44  1  0
 44 47  1  0
 44 46  1  0
 45 43  2  0
 48 49  1  0
 48 23  1  0
 50 48  1  0
 51  6  1  0
 52 54  1  0
 52 51  1  0
 53 51  2  0
 55 56  1  0
 55 52  1  0
 57 59  1  0
 57 56  1  0
 58 69  2  0
 59 64  1  0
 60 68  1  0
 60 70  1  0
 61 67  1  0
 61 63  1  0
 62 68  1  0
 63 62  1  0
 64 63  2  0
 65 66  1  0
 65 59  2  0
 66 61  2  0
 67 60  1  0
 68 58  1  0
 70 72  2  0
 71 70  1  0
 73 71  1  0
 74 83  2  0
 74 79  1  0
 75 71  1  0
 75 79  1  0
 76 75  1  0
 77 78  1  0
 77 76  1  0
 78 74  1  0
 79 80  2  0
 80 81  1  0
 82 81  2  0
 83 82  1  0
 84 58  1  0
 84 89  1  0
 84 85  1  0
 85 88  1  1
 85 86  1  0
 87 85  1  0
 89 92  1  0
 90 94  1  0
 90 89  1  0
 91 90  2  0
 94 93  1  0
 96 94  1  0
 96 97  1  0
 96 95  1  0
M  ISO  4  13 100  21 100  56 101  57 101
M  END
>  <TORSDO>  (92) 
F 20

>  <SCORE>  (92) 
-4.837

>  <name>  (92) 
92

>  <ligand_id>  (92) 
92

>  <original_smiles>  (92) 
[H]c1c(N([H])C(=O)N2C([H])([H])C([H])([H])C([H])([H])C([H])(n3nc(-c4c([H])c([H])c(Oc5c([H])c([H])c(F)c([H])c5F)c([H])c4[H])c(C(=O)N([H])[H])c3N([H])[H])C2([H])[H])oc(C2([H])C([H])([H])C([H])([H])C([H])([H])C([H])([H])C2(C(=O)N([H])C([H])([H])C([H])([H])Oc2c([H])c([H])c3c(c2[H])C([H])([H])N(C(=O)C([H])(N([H])C(=O)C([H])(N([H])C([H])([H])[H])C([H])([H])[H])C(C([H])([H])[H])(C([H])([H])[H])C([H])([H])[H])C([H])(C(=O)N([H])C2([H])c4c([H])c([H])c([H])c([H])c4C([H])([H])C([H])([H])C2([H])[H])C3([H])[H])C([H])([H])[H])c1[H]

>  <smiles>  (92) 
[H]c1c(N([H])C(=O)N2C([H])([H])C([H])([H])C([H])([H])C([H])(n3nc(-c4c([H])c([H])c(Oc5c([H])c([H])c(F)c([H])c5F)c([H])c4[H])c(C(=O)N([H])[H])c3N([H])[H])C2([H])[H])oc(C2([H])C([H])([H])C([H])([H])C([H])([H])C([H])([H])C2(C(=O)N([H])C([H])([H])C([H])([H])Oc2c([H])c([H])c3c(c2[H])C([H])([H])N(C(=O)C([H])(N([H])C(=O)C([H])(N([H])C([H])([H])[H])C([H])([H])[H])C(C([H])([H])[H])(C([H])([H])[H])C([H])([H])[H])C([H])(C(=O)N([H])C2([H])c4c([H])c([H])c([H])c([H])c4C([H])([H])C([H])([H])C2([H])[H])C3([H])[H])C([H])([H])[H])c1[H]

$$$$
93:0:0
     RDKit          3D

 95103  0  0  1  0  0  0  0  0999 V2000
  -28.1700  -19.9840   19.8540 C   0  0  0  0  0  3  0  0  0  0  0  0
  -28.2270  -21.3900   19.9760 C   0  0  0  0  0  3  0  0  0  0  0  0
  -29.0220  -19.1540   20.6240 C   0  0  0  0  0  0  0  0  0  0  0  0
  -29.1490  -21.9810   20.8690 C   0  0  0  0  0  0  0  0  0  0  0  0
  -29.9340  -19.7500   21.5210 C   0  0  0  0  0  0  0  0  0  0  0  0
  -30.0000  -21.1520   21.6310 C   0  0  0  0  0  0  0  0  0  0  0  0
  -30.7350  -18.9800   22.2970 F   0  0  0  0  0  0  0  0  0  0  0  0
  -30.8830  -21.7120   22.4940 F   0  0  0  0  0  0  0  0  0  0  0  0
  -29.2710  -23.3620   21.0570 N   0  0  0  0  0  0  0  0  0  0  0  0
  -29.9290  -23.6730   21.7670 H   0  0  0  0  0  0  0  0  0  0  0  0
  -28.5140  -24.3870   20.3410 C   0  0  0  0  0  2  0  0  0  0  0  0
  -28.5780  -26.0730   22.2810 C   0  0  0  0  0  1  0  0  0  0  0  0
  -28.9730  -25.7830   20.8200 C   0  0  0  0  0  3  0  0  0  0  0  0
  -28.6540  -26.8350   19.9040 O   0  0  0  0  0  0  0  0  0  0  0  0
  -24.5960  -31.7320   23.1280 C   0  0  0  0  0  0  0  0  0  0  0  0
  -27.4360  -27.4630   19.9940 C   0  0  0  0  0  0  0  0  0  0  0  0
  -23.4570  -30.3210   21.4430 C   0  0  0  0  0  3  0  0  0  0  0  0
  -24.9810  -28.8600   20.0090 C   0  0  0  0  0  0  0  0  0  0  0  0
  -25.9660  -30.7790   21.2770 C   0  0  0  0  0  2  0  0  0  0  0  0
  -26.1090  -29.4240   20.6200 C   0  0  0  0  0  0  0  0  0  0  0  0
  -27.3410  -28.7330   20.6050 C   0  0  0  0  0  3  0  0  0  0  0  0
  -26.2940  -26.9040   19.3850 C   0  0  0  0  0  3  0  0  0  0  0  0
  -25.0670  -27.5970   19.3920 C   0  0  0  0  0  3  0  0  0  0  0  0
  -23.7050  -29.6720   20.0520 C   0  0  0  0  0  2  0  0  0  0  0  0
  -24.6900  -30.9570   22.0080 N   0  0  0  0  0  0  0  0  0  0  0  0
  -23.5000  -31.9560   23.6610 O   0  0  0  0  0  0  0  0  0  0  0  0
  -22.8340  -29.2590   22.3780 C   0  0  0  0  0  0  0  0  0  0  0  0
  -21.5150  -29.0450   22.2390 N   0  0  0  0  0  0  0  0  0  0  0  0
  -23.5300  -28.6320   23.1810 O   0  0  0  0  0  0  0  0  0  0  0  0
  -21.0150  -29.6010   21.5600 H   0  0  0  0  0  0  0  0  0  0  0  0
  -18.1710  -27.7550   22.6920 C   0  0  0  0  0  0  0  0  0  0  0  0
  -20.7210  -28.0670   22.9810 C   0  0  0  0  0  3  0  0  0  0  0  0
  -20.8600  -26.6560   22.3650 C   0  0  0  0  0  2  0  0  0  0  0  0
  -19.7690  -26.3360   21.3390 C   0  0  0  0  0  2  0  0  0  0  0  0
  -18.3820  -26.4290   21.9820 C   0  0  0  0  0  2  0  0  0  0  0  0
  -19.2700  -28.5320   23.1480 C   0  0  0  0  0  0  0  0  0  0  0  0
  -19.0210  -29.7730   23.7710 C   0  0  0  0  0  3  0  0  0  0  0  0
  -17.7040  -30.2390   23.9470 C   0  0  0  0  0  3  0  0  0  0  0  0
  -16.6190  -29.4600   23.5110 C   0  0  0  0  0  3  0  0  0  0  0  0
  -16.8530  -28.2200   22.8880 C   0  0  0  0  0  3  0  0  0  0  0  0
  -25.8540  -32.3940   23.7730 C   0  0  0  0  0  3  0  0  0  0  0  0
  -26.3830  -31.6150   25.0410 C   0  0  1  0  0  0  0  0  0  0  0  0
  -25.2880  -31.3230   26.0930 C   0  0  0  0  0  1  0  0  0  0  0  0
  -27.0140  -30.2660   24.6230 C   0  0  0  0  0  1  0  0  0  0  0  0
  -27.5020  -32.4350   25.7290 C   0  0  0  0  0  1  0  0  0  0  0  0
  -25.4940  -33.7750   24.1250 N   0  0  0  0  0  0  0  0  0  0  0  0
  -25.7950  -34.8500   23.3860 C   0  0  0  0  0  0  0  0  0  0  0  0
  -26.4760  -34.7870   22.3580 O   0  0  0  0  0  0  0  0  0  0  0  0
  -24.8820  -33.8920   24.9180 H   0  0  0  0  0  0  0  0  0  0  0  0
  -24.0010  -36.5810   23.0550 C   0  0  0  0  0  1  0  0  0  0  0  0
  -25.2560  -36.2110   23.8620 C   0  0  0  0  0  3  0  0  0  0  0  0
  -27.3540  -37.1620   24.7110 C   0  0  0  0  0  1  0  0  0  0  0  0
  -26.2480  -37.3040   23.7660 N   0  0  0  0  0  0  0  0  0  0  0  0
  -25.8090  -38.2060   23.9300 H   0  0  0  0  0  0  0  0  0  0  0  0
  -28.8790  -17.6350   20.5440 C   0  0  0  0  0  2  0  0  0  0  0  0
  -30.8230  -14.5010   20.0320 C   0  0  0  0  0  0  0  0  0  0  0  0
  -30.4770  -12.3350   18.9180 C   0  0  0  0  0  2  0  0  0  0  0  0
  -29.4810  -12.5730   17.7630 C   0  0  0  0  0  2  0  0  0  0  0  0
  -28.0290  -12.4360   18.2620 C   0  0  0  0  0  2  0  0  0  0  0  0
  -27.7590  -13.2690   19.5410 C   0  0  0  0  0  3  0  0  0  0  0  0
  -28.8630  -13.0260   20.5960 C   0  0  0  0  0  2  0  0  0  0  0  0
  -30.1670  -13.3100   19.9700 N   0  0  0  0  0  0  0  0  0  0  0  0
  -31.9570  -14.6640   19.5730 O   0  0  0  0  0  0  0  0  0  0  0  0
  -30.1770  -16.8380   20.3120 C   0  0  0  0  0  0  0  0  0  0  0  0
  -30.0200  -15.5080   20.4240 N   0  0  0  0  0  0  0  0  0  0  0  0
  -31.2290  -17.4100   20.0010 O   0  0  0  0  0  0  0  0  0  0  0  0
  -29.1050  -15.2110   20.7190 H   0  0  0  0  0  0  0  0  0  0  0  0
  -25.4090  -13.9020   20.3750 C   0  0  0  0  0  0  0  0  0  0  0  0
  -24.3530  -13.1390   20.7950 C   0  0  0  0  0  0  0  0  0  0  0  0
  -24.7970  -11.7840   20.7280 C   0  0  0  0  0  0  0  0  0  0  0  0
  -26.4290  -13.0110   20.0830 N   0  0  0  0  0  0  0  0  0  0  0  0
  -26.0690  -11.7320   20.3550 N   0  0  0  0  0  0  0  0  0  0  0  0
  -24.0700  -10.5250   20.9390 C   0  0  0  0  0  0  0  0  0  0  0  0
  -24.5140   -9.5640   21.8730 C   0  0  0  0  0  3  0  0  0  0  0  0
  -23.7880   -8.3700   22.0710 C   0  0  0  0  0  3  0  0  0  0  0  0
  -22.6030   -8.1300   21.3350 C   0  0  0  0  0  0  0  0  0  0  0  0
  -22.1800   -9.0800   20.3890 C   0  0  0  0  0  3  0  0  0  0  0  0
  -22.9070  -10.2650   20.1890 C   0  0  0  0  0  3  0  0  0  0  0  0
  -21.8470   -6.9880   21.4430 O   0  0  0  0  0  0  0  0  0  0  0  0
  -21.7720   -6.2830   22.6170 C   0  0  0  0  0  0  0  0  0  0  0  0
  -21.3140   -6.8730   23.8150 C   0  0  0  0  0  3  0  0  0  0  0  0
  -21.1880   -6.0920   24.9810 C   0  0  0  0  0  3  0  0  0  0  0  0
  -21.5120   -4.7230   24.9510 C   0  0  0  0  0  0  0  0  0  0  0  0
  -21.9660   -4.1320   23.7590 C   0  0  0  0  0  3  0  0  0  0  0  0
  -22.0940   -4.9100   22.5950 C   0  0  0  0  0  0  0  0  0  0  0  0
  -22.5110   -4.3310   21.4420 F   0  0  0  0  0  0  0  0  0  0  0  0
  -21.3840   -3.9710   26.0690 F   0  0  0  0  0  0  0  0  0  0  0  0
  -22.9760  -13.6260   21.1400 C   0  0  0  0  0  0  0  0  0  0  0  0
  -22.2900  -12.9310   22.0420 N   0  0  0  0  0  0  0  0  0  0  0  0
  -22.5200  -14.6560   20.6470 O   0  0  0  0  0  0  0  0  0  0  0  0
  -22.6770  -12.0990   22.4630 H   0  0  0  0  0  0  0  0  0  0  0  0
  -21.3680  -13.2360   22.3160 H   0  0  0  0  0  0  0  0  0  0  0  0
  -25.5770  -15.2710   20.1910 N   0  0  0  0  0  0  0  0  0  0  0  0
  -24.7870  -15.9040   20.2730 H   0  0  0  0  0  0  0  0  0  0  0  0
  -26.3540  -15.6770   19.6880 H   0  0  0  0  0  0  0  0  0  0  0  0
  1  2  2  0
  1  3  1  0
  2  4  1  0
  3  5  2  0
  4  9  1  0
  4  6  2  0
  5  6  1  0
  5  7  1  0
  6  8  1  0
  9 10  1  0
 11 13  1  0
 11  9  1  0
 13 12  1  0
 14 16  1  0
 14 13  1  0
 15 26  2  0
 16 21  1  0
 17 25  1  0
 17 27  1  0
 18 24  1  0
 18 20  1  0
 19 25  1  0
 20 19  1  0
 21 20  2  0
 22 23  1  0
 22 16  2  0
 23 18  2  0
 24 17  1  0
 25 15  1  0
 27 29  2  0
 28 27  1  0
 30 28  1  0
 31 40  2  0
 31 36  1  0
 32 28  1  0
 32 36  1  0
 33 32  1  0
 34 35  1  0
 34 33  1  0
 35 31  1  0
 36 37  2  0
 37 38  1  0
 39 38  2  0
 40 39  1  0
 41 15  1  0
 41 46  1  0
 41 42  1  0
 42 45  1  1
 42 43  1  0
 44 42  1  0
 46 49  1  0
 47 51  1  0
 47 46  1  0
 48 47  2  0
 51 50  1  0
 53 51  1  0
 53 54  1  0
 53 52  1  0
 55  3  1  0
 56 65  1  0
 57 62  1  0
 58 59  1  0
 58 57  1  0
 60 59  1  0
 60 71  1  0
 60 61  1  0
 62 56  1  0
 62 61  1  0
 63 56  2  0
 64 65  1  0
 64 55  1  0
 65 67  1  0
 66 64  2  0
 68 69  2  0
 69 88  1  0
 70 69  1  0
 70 73  1  0
 71 72  1  0
 71 68  1  0
 72 70  2  0
 73 74  1  0
 74 75  2  0
 76 79  1  0
 76 75  1  0
 77 76  2  0
 78 77  1  0
 78 73  2  0
 79 80  1  0
 80 81  1  0
 81 82  2  0
 83 82  1  0
 83 87  1  0
 84 83  2  0
 85 80  2  0
 85 84  1  0
 86 85  1  0
 88 89  1  0
 89 92  1  0
 89 91  1  0
 90 88  2  0
 93 94  1  0
 93 68  1  0
 95 93  1  0
M  ISO  4  13 101  14 101  56 100  65 100
M  END
>  <TORSDO>  (93) 
F 20

>  <SCORE>  (93) 
-13.768

>  <name>  (93) 
93

>  <ligand_id>  (93) 
93

>  <original_smiles>  (93) 
[H]c1c([H])c([H])c2c(c1[H])C([H])([H])C([H])([H])C([H])([H])C2([H])N([H])C(=O)C1([H])N(C(=O)C([H])(N([H])C(=O)C([H])(N([H])C([H])([H])[H])C([H])([H])[H])C(C([H])([H])[H])(C([H])([H])[H])C([H])([H])[H])C([H])([H])c2c([H])c(OC([H])(C([H])([H])[H])C([H])([H])N([H])c3c([H])c([H])c(C([H])([H])C(=O)N([H])C(=O)N4C([H])([H])C([H])([H])C([H])([H])C([H])(n5nc(-c6c([H])c([H])c(Oc7c([H])c([H])c(F)c([H])c7F)c([H])c6[H])c(C(=O)N([H])[H])c5N([H])[H])C4([H])[H])c(F)c3F)c([H])c([H])c2C1([H])[H]

>  <smiles>  (93) 
[H]c1c([H])c([H])c2c(c1[H])C([H])([H])C([H])([H])C([H])([H])C2([H])N([H])C(=O)C1([H])N(C(=O)C([H])(N([H])C(=O)C([H])(N([H])C([H])([H])[H])C([H])([H])[H])C(C([H])([H])[H])(C([H])([H])[H])C([H])([H])[H])C([H])([H])c2c([H])c(OC([H])(C([H])([H])[H])C([H])([H])N([H])c3c([H])c([H])c(C([H])([H])C(=O)N([H])C(=O)N4C([H])([H])C([H])([H])C([H])([H])C([H])(n5nc(-c6c([H])c([H])c(Oc7c([H])c([H])c(F)c([H])c7F)c([H])c6[H])c(C(=O)N([H])[H])c5N([H])[H])C4([H])[H])c(F)c3F)c([H])c([H])c2C1([H])[H]

$$$$
94:0:0
     RDKit          3D

 94102  0  0  1  0  0  0  0  0999 V2000
  -31.5960  -18.9510   21.8200 C   0  0  0  0  0  3  0  0  0  0  0  0
  -31.2410  -17.6270   21.5060 C   0  0  0  0  0  3  0  0  0  0  0  0
  -30.8060  -20.0410   21.4150 C   0  0  0  0  0  3  0  0  0  0  0  0
  -29.2470  -18.4760   20.3590 C   0  0  0  0  0  0  0  0  0  0  0  0
  -30.0710  -17.3290   20.7770 C   0  0  0  0  0  0  0  0  0  0  0  0
  -29.6190  -19.8680   20.6710 C   0  0  0  0  0  0  0  0  0  0  0  0
  -30.5470  -14.7670   20.4190 C   0  0  0  0  0  0  0  0  0  0  0  0
  -30.3550  -12.5090   19.3690 C   0  0  0  0  0  2  0  0  0  0  0  0
  -29.4180  -12.6000   18.1440 C   0  0  0  0  0  2  0  0  0  0  0  0
  -27.9450  -12.4280   18.5690 C   0  0  0  0  0  2  0  0  0  0  0  0
  -27.5720  -13.3030   19.7950 C   0  0  0  0  0  3  0  0  0  0  0  0
  -28.6260  -13.1920   20.9180 C   0  0  0  0  0  2  0  0  0  0  0  0
  -29.9230  -13.5470   20.3290 N   0  0  0  0  0  0  0  0  0  0  0  0
  -31.7390  -14.8740   20.1120 O   0  0  0  0  0  0  0  0  0  0  0  0
  -29.7430  -15.8840   20.6010 N   0  0  0  0  0  0  0  0  0  0  0  0
  -28.7600  -15.6640   20.6470 H   0  0  0  0  0  0  0  0  0  0  0  0
  -25.1820  -13.8990   20.5090 C   0  0  0  0  0  0  0  0  0  0  0  0
  -24.1170  -13.1250   20.8810 C   0  0  0  0  0  0  0  0  0  0  0  0
  -24.5820  -11.7750   20.8620 C   0  0  0  0  0  0  0  0  0  0  0  0
  -26.2270  -13.0180   20.2800 N   0  0  0  0  0  0  0  0  0  0  0  0
  -25.8730  -11.7370   20.5560 N   0  0  0  0  0  0  0  0  0  0  0  0
  -23.8570  -10.5120   21.0550 C   0  0  0  0  0  0  0  0  0  0  0  0
  -24.2950   -9.5420   21.9830 C   0  0  0  0  0  3  0  0  0  0  0  0
  -23.5690   -8.3440   22.1650 C   0  0  0  0  0  3  0  0  0  0  0  0
  -22.3910   -8.1080   21.4170 C   0  0  0  0  0  0  0  0  0  0  0  0
  -21.9720   -9.0660   20.4770 C   0  0  0  0  0  3  0  0  0  0  0  0
  -22.6980  -10.2550   20.2940 C   0  0  0  0  0  3  0  0  0  0  0  0
  -21.6350   -6.9650   21.5070 O   0  0  0  0  0  0  0  0  0  0  0  0
  -21.6040   -6.2130   22.6540 C   0  0  0  0  0  0  0  0  0  0  0  0
  -21.2120   -6.7620   23.8960 C   0  0  0  0  0  3  0  0  0  0  0  0
  -21.1270   -5.9360   25.0350 C   0  0  0  0  0  3  0  0  0  0  0  0
  -21.4240   -4.5630   24.9340 C   0  0  0  0  0  0  0  0  0  0  0  0
  -21.8090   -4.0150   23.6990 C   0  0  0  0  0  3  0  0  0  0  0  0
  -21.8960   -4.8380   22.5610 C   0  0  0  0  0  0  0  0  0  0  0  0
  -22.2480   -4.2990   21.3690 F   0  0  0  0  0  0  0  0  0  0  0  0
  -21.3350   -3.7690   26.0260 F   0  0  0  0  0  0  0  0  0  0  0  0
  -22.7170  -13.6010   21.1420 C   0  0  0  0  0  0  0  0  0  0  0  0
  -21.9840  -12.9090   22.0070 N   0  0  0  0  0  0  0  0  0  0  0  0
  -22.2810  -14.6230   20.6120 O   0  0  0  0  0  0  0  0  0  0  0  0
  -22.3480  -12.0800   22.4520 H   0  0  0  0  0  0  0  0  0  0  0  0
  -21.0450  -13.2100   22.2250 H   0  0  0  0  0  0  0  0  0  0  0  0
  -25.3390  -15.2690   20.3180 N   0  0  0  0  0  0  0  0  0  0  0  0
  -24.5500  -15.9000   20.3990 H   0  0  0  0  0  0  0  0  0  0  0  0
  -26.1370  -15.7070   19.8670 H   0  0  0  0  0  0  0  0  0  0  0  0
  -27.9790  -18.2490   19.6060 C   0  0  0  0  0  3  0  0  0  0  0  0
  -27.6780  -17.2190   18.9290 N   0  0  0  0  0  0  0  0  0  0  0  0
  -28.4470  -16.5600   18.9170 H   0  0  0  0  0  0  0  0  0  0  0  0
  -28.9200  -21.0750   20.2440 N   0  0  0  0  0  0  0  0  0  0  0  0
  -28.1760  -20.9620   19.5620 H   0  0  0  0  0  0  0  0  0  0  0  0
  -28.8690  -22.4160   20.9730 C   0  0  0  0  0  2  0  0  0  0  0  0
  -28.6740  -23.7950   20.1720 C   0  0  0  0  0  0  0  0  0  0  0  0
  -28.9340  -23.8310   18.9650 O   0  0  0  0  0  0  0  0  0  0  0  0
  -28.1310  -25.1050   20.9150 C   0  0  0  0  0  2  0  0  0  0  0  0
  -28.3450  -26.4550   20.2950 O   0  0  0  0  0  0  0  0  0  0  0  0
  -24.6130  -31.9270   23.2640 C   0  0  0  0  0  0  0  0  0  0  0  0
  -27.2460  -27.3320   20.2700 C   0  0  0  0  0  0  0  0  0  0  0  0
  -23.4200  -30.5140   21.6300 C   0  0  0  0  0  3  0  0  0  0  0  0
  -24.8830  -28.9520   20.2220 C   0  0  0  0  0  0  0  0  0  0  0  0
  -25.9610  -30.8350   21.4530 C   0  0  0  0  0  2  0  0  0  0  0  0
  -26.0490  -29.4480   20.8210 C   0  0  0  0  0  0  0  0  0  0  0  0
  -27.2380  -28.6520   20.8280 C   0  0  0  0  0  3  0  0  0  0  0  0
  -26.0600  -26.8930   19.6470 C   0  0  0  0  0  3  0  0  0  0  0  0
  -24.8930  -27.6820   19.6230 C   0  0  0  0  0  3  0  0  0  0  0  0
  -23.6430  -29.8240   20.2560 C   0  0  0  0  0  2  0  0  0  0  0  0
  -24.6840  -31.1110   22.1720 N   0  0  0  0  0  0  0  0  0  0  0  0
  -23.5260  -32.2060   23.7920 O   0  0  0  0  0  0  0  0  0  0  0  0
  -22.7570  -29.5040   22.5960 C   0  0  0  0  0  0  0  0  0  0  0  0
  -21.4310  -29.3220   22.4660 N   0  0  0  0  0  0  0  0  0  0  0  0
  -23.4330  -28.8860   23.4240 O   0  0  0  0  0  0  0  0  0  0  0  0
  -20.9440  -29.8720   21.7730 H   0  0  0  0  0  0  0  0  0  0  0  0
  -18.0560  -28.1090   22.9510 C   0  0  0  0  0  0  0  0  0  0  0  0
  -20.6100  -28.3870   23.2390 C   0  0  0  0  0  3  0  0  0  0  0  0
  -20.7260  -26.9500   22.6800 C   0  0  0  0  0  2  0  0  0  0  0  0
  -19.6350  -26.6090   21.6610 C   0  0  0  0  0  2  0  0  0  0  0  0
  -18.2460  -26.7550   22.2900 C   0  0  0  0  0  2  0  0  0  0  0  0
  -19.1670  -28.8830   23.3810 C   0  0  0  0  0  0  0  0  0  0  0  0
  -18.9350  -30.1510   23.9570 C   0  0  0  0  0  3  0  0  0  0  0  0
  -17.6260  -30.6450   24.1070 C   0  0  0  0  0  3  0  0  0  0  0  0
  -16.5300  -29.8690   23.6930 C   0  0  0  0  0  3  0  0  0  0  0  0
  -16.7460  -28.6030   23.1200 C   0  0  0  0  0  3  0  0  0  0  0  0
  -25.8910  -32.5690   23.8880 C   0  0  0  0  0  3  0  0  0  0  0  0
  -25.5780  -33.9700   24.2050 N   0  0  0  0  0  0  0  0  0  0  0  0
  -25.9130  -35.0180   23.4400 C   0  0  0  0  0  0  0  0  0  0  0  0
  -26.5900  -34.9060   22.4140 O   0  0  0  0  0  0  0  0  0  0  0  0
  -24.9800  -34.1310   25.0020 H   0  0  0  0  0  0  0  0  0  0  0  0
  -24.1860  -36.8060   23.0610 C   0  0  0  0  0  1  0  0  0  0  0  0
  -25.4230  -36.4100   23.8840 C   0  0  0  0  0  3  0  0  0  0  0  0
  -27.5530  -37.3000   24.7180 C   0  0  0  0  0  1  0  0  0  0  0  0
  -26.4550  -37.4630   23.7690 N   0  0  0  0  0  0  0  0  0  0  0  0
  -26.0460  -38.3820   23.9090 H   0  0  0  0  0  0  0  0  0  0  0  0
  -26.4000  -31.8120   25.1760 C   0  0  1  0  0  0  0  0  0  0  0  0
  -25.3000  -31.5870   26.2400 C   0  0  0  0  0  1  0  0  0  0  0  0
  -26.9870  -30.4310   24.8040 C   0  0  0  0  0  1  0  0  0  0  0  0
  -27.5460  -32.6140   25.8370 C   0  0  0  0  0  1  0  0  0  0  0  0
  2  1  1  0
  3  1  2  0
  4  6  2  0
  4  5  1  0
  5  2  2  0
  6  3  1  0
  7 15  1  0
  8 13  1  0
  9 10  1  0
  9  8  1  0
 11 10  1  0
 11 20  1  0
 11 12  1  0
 13  7  1  0
 13 12  1  0
 14  7  2  0
 15 16  1  0
 15  5  1  0
 17 18  2  0
 18 37  1  0
 19 18  1  0
 19 22  1  0
 20 17  1  0
 20 21  1  0
 21 19  2  0
 22 23  1  0
 23 24  2  0
 25 28  1  0
 25 24  1  0
 26 25  2  0
 27 26  1  0
 27 22  2  0
 28 29  1  0
 29 30  1  0
 30 31  2  0
 32 31  1  0
 32 36  1  0
 33 32  2  0
 34 29  2  0
 34 33  1  0
 35 34  1  0
 37 38  1  0
 38 41  1  0
 38 40  1  0
 39 37  2  0
 42 43  1  0
 42 17  1  0
 44 42  1  0
 45  4  1  0
 46 45  2  0
 47 46  1  0
 48  6  1  0
 48 50  1  0
 49 48  1  0
 51 53  1  0
 51 50  1  0
 52 51  2  0
 54 53  1  0
 55 66  2  0
 56 54  1  0
 56 61  1  0
 57 65  1  0
 57 67  1  0
 58 64  1  0
 58 60  1  0
 59 65  1  0
 60 61  2  0
 60 59  1  0
 62 56  2  0
 63 62  1  0
 63 58  2  0
 64 57  1  0
 65 55  1  0
 67 69  2  0
 68 67  1  0
 70 68  1  0
 71 80  2  0
 71 76  1  0
 72 68  1  0
 72 76  1  0
 73 72  1  0
 74 75  1  0
 74 73  1  0
 75 71  1  0
 76 77  2  0
 77 78  1  0
 79 78  2  0
 80 79  1  0
 81 55  1  0
 81 82  1  0
 81 91  1  0
 82 85  1  0
 83 87  1  0
 83 82  1  0
 84 83  2  0
 87 86  1  0
 89 87  1  0
 89 90  1  0
 89 88  1  0
 91 94  1  1
 91 92  1  0
 93 91  1  0
M  ISO  4   7 100  15 100  53 101  54 101
M  END
>  <TORSDO>  (94) 
F 21

>  <SCORE>  (94) 
-13.974

>  <name>  (94) 
94

>  <ligand_id>  (94) 
94

>  <original_smiles>  (94) 
[H]N=C([H])c1c(N([H])C(=O)N2C([H])([H])C([H])([H])C([H])([H])C([H])(n3nc(-c4c([H])c([H])c(Oc5c([H])c([H])c(F)c([H])c5F)c([H])c4[H])c(C(=O)N([H])[H])c3N([H])[H])C2([H])[H])c([H])c([H])c([H])c1N([H])C([H])([H])C(=O)C([H])([H])Oc1c([H])c([H])c2c(c1[H])C([H])([H])N(C(=O)C([H])(N([H])C(=O)C([H])(N([H])C([H])([H])[H])C([H])([H])[H])C(C([H])([H])[H])(C([H])([H])[H])C([H])([H])[H])C([H])(C(=O)N([H])C1([H])c3c([H])c([H])c([H])c([H])c3C([H])([H])C([H])([H])C1([H])[H])C2([H])[H]

>  <smiles>  (94) 
[H]N=C([H])c1c(N([H])C(=O)N2C([H])([H])C([H])([H])C([H])([H])C([H])(n3nc(-c4c([H])c([H])c(Oc5c([H])c([H])c(F)c([H])c5F)c([H])c4[H])c(C(=O)N([H])[H])c3N([H])[H])C2([H])[H])c([H])c([H])c([H])c1N([H])C([H])([H])C(=O)C([H])([H])Oc1c([H])c([H])c2c(c1[H])C([H])([H])N(C(=O)C([H])(N([H])C(=O)C([H])(N([H])C([H])([H])[H])C([H])([H])[H])C(C([H])([H])[H])(C([H])([H])[H])C([H])([H])[H])C([H])(C(=O)N([H])C1([H])c3c([H])c([H])c([H])c([H])c3C([H])([H])C([H])([H])C1([H])[H])C2([H])[H]

$$$$
95:0:0
     RDKit          3D

 96104  0  0  1  0  0  0  0  0999 V2000
  -28.3150  -22.0120   19.5570 C   0  0  0  0  0  2  0  0  0  0  0  0
  -29.1140  -19.8770   20.3360 C   0  0  0  0  0  0  0  0  0  0  0  0
  -28.7600  -24.4700   19.9630 C   0  0  0  0  0  0  0  0  0  0  0  0
  -28.1690  -23.3440   19.3070 N   0  0  0  0  0  0  0  0  0  0  0  0
  -29.1570  -21.3250   20.3880 N   0  0  0  0  0  0  0  0  0  0  0  0
  -28.3590  -19.3550   19.5060 O   0  0  0  0  0  0  0  0  0  0  0  0
  -29.3910  -24.3410   21.0200 O   0  0  0  0  0  0  0  0  0  0  0  0
  -27.6020  -23.5040   18.4870 H   0  0  0  0  0  0  0  0  0  0  0  0
  -29.7810  -21.8460   20.9860 H   0  0  0  0  0  0  0  0  0  0  0  0
  -30.0430  -17.5770   20.8430 C   0  0  0  0  0  3  0  0  0  0  0  0
  -30.5640  -19.3630   22.4240 C   0  0  0  0  0  3  0  0  0  0  0  0
  -31.1820  -17.0320   22.9200 C   0  0  0  0  0  3  0  0  0  0  0  0
  -29.9580  -18.9540   21.2070 C   0  0  0  0  0  0  0  0  0  0  0  0
  -30.6370  -16.6070   21.6890 C   0  0  0  0  0  0  0  0  0  0  0  0
  -31.1700  -18.4040   23.2680 C   0  0  0  0  0  0  0  0  0  0  0  0
  -31.7100  -18.7920   24.4500 F   0  0  0  0  0  0  0  0  0  0  0  0
  -30.7800  -14.6200   20.1800 C   0  0  0  0  0  0  0  0  0  0  0  0
  -30.3980  -12.5600   18.8540 C   0  0  0  0  0  2  0  0  0  0  0  0
  -29.3490  -12.7700   17.7440 C   0  0  0  0  0  2  0  0  0  0  0  0
  -27.9210  -12.5720   18.2780 C   0  0  0  0  0  2  0  0  0  0  0  0
  -27.6610  -13.3620   19.5840 C   0  0  0  0  0  3  0  0  0  0  0  0
  -28.7990  -13.1120   20.6030 C   0  0  0  0  0  2  0  0  0  0  0  0
  -30.0980  -13.4540   19.9880 N   0  0  0  0  0  0  0  0  0  0  0  0
  -31.6450  -15.0280   19.3990 O   0  0  0  0  0  0  0  0  0  0  0  0
  -30.5790  -15.2080   21.3760 N   0  0  0  0  0  0  0  0  0  0  0  0
  -30.2160  -14.6020   22.1000 H   0  0  0  0  0  0  0  0  0  0  0  0
  -25.3030  -13.9020   20.4810 C   0  0  0  0  0  0  0  0  0  0  0  0
  -24.2720  -13.0920   20.8810 C   0  0  0  0  0  0  0  0  0  0  0  0
  -24.7500  -11.7500   20.7560 C   0  0  0  0  0  0  0  0  0  0  0  0
  -26.3450  -13.0480   20.1410 N   0  0  0  0  0  0  0  0  0  0  0  0
  -26.0180  -11.7470   20.3640 N   0  0  0  0  0  0  0  0  0  0  0  0
  -24.0580  -10.4670   20.9350 C   0  0  0  0  0  0  0  0  0  0  0  0
  -24.4850   -9.5200   21.8940 C   0  0  0  0  0  3  0  0  0  0  0  0
  -23.7880   -8.3030   22.0600 C   0  0  0  0  0  3  0  0  0  0  0  0
  -22.6530   -8.0230   21.2630 C   0  0  0  0  0  0  0  0  0  0  0  0
  -22.2480   -8.9570   20.2910 C   0  0  0  0  0  3  0  0  0  0  0  0
  -22.9470  -10.1630   20.1250 C   0  0  0  0  0  3  0  0  0  0  0  0
  -21.9280   -6.8580   21.3360 O   0  0  0  0  0  0  0  0  0  0  0  0
  -21.7640   -6.1900   22.5220 C   0  0  0  0  0  0  0  0  0  0  0  0
  -21.1240   -6.7860   23.6300 C   0  0  0  0  0  3  0  0  0  0  0  0
  -20.9160   -6.0390   24.8060 C   0  0  0  0  0  3  0  0  0  0  0  0
  -21.3340   -4.6970   24.8740 C   0  0  0  0  0  0  0  0  0  0  0  0
  -21.9670   -4.1010   23.7700 C   0  0  0  0  0  3  0  0  0  0  0  0
  -22.1790   -4.8450   22.5970 C   0  0  0  0  0  0  0  0  0  0  0  0
  -22.7730   -4.2600   21.5300 F   0  0  0  0  0  0  0  0  0  0  0  0
  -21.1240   -3.9760   26.0020 F   0  0  0  0  0  0  0  0  0  0  0  0
  -22.8920  -13.5380   21.2720 C   0  0  0  0  0  0  0  0  0  0  0  0
  -22.2180  -12.7840   22.1340 N   0  0  0  0  0  0  0  0  0  0  0  0
  -22.4210  -14.5940   20.8490 O   0  0  0  0  0  0  0  0  0  0  0  0
  -22.6140  -11.9400   22.5160 H   0  0  0  0  0  0  0  0  0  0  0  0
  -21.2870  -13.0590   22.4170 H   0  0  0  0  0  0  0  0  0  0  0  0
  -25.4220  -15.2850   20.3720 N   0  0  0  0  0  0  0  0  0  0  0  0
  -24.6450  -15.8940   20.6050 H   0  0  0  0  0  0  0  0  0  0  0  0
  -26.2550  -15.7850   20.0870 H   0  0  0  0  0  0  0  0  0  0  0  0
  -28.6000  -25.8070   19.1800 C   0  0  0  0  0  2  0  0  0  0  0  0
  -28.2900  -26.9540   19.9960 O   0  0  0  0  0  0  0  0  0  0  0  0
  -24.5280  -32.0220   23.1610 C   0  0  0  0  0  0  0  0  0  0  0  0
  -27.0760  -27.6200   19.9580 C   0  0  0  0  0  0  0  0  0  0  0  0
  -23.2420  -30.6280   21.5550 C   0  0  0  0  0  3  0  0  0  0  0  0
  -24.6430  -29.0830   20.0740 C   0  0  0  0  0  0  0  0  0  0  0  0
  -25.7490  -31.0130   21.2370 C   0  0  0  0  0  2  0  0  0  0  0  0
  -25.8170  -29.6380   20.5970 C   0  0  0  0  0  0  0  0  0  0  0  0
  -27.0260  -28.9120   20.5370 C   0  0  0  0  0  3  0  0  0  0  0  0
  -25.8810  -27.0820   19.4240 C   0  0  0  0  0  3  0  0  0  0  0  0
  -24.6690  -27.8000   19.4940 C   0  0  0  0  0  3  0  0  0  0  0  0
  -23.3940  -29.9250   20.1740 C   0  0  0  0  0  2  0  0  0  0  0  0
  -24.5230  -31.2450   22.0390 N   0  0  0  0  0  0  0  0  0  0  0  0
  -23.4750  -32.2790   23.7650 O   0  0  0  0  0  0  0  0  0  0  0  0
  -22.6370  -29.6150   22.5540 C   0  0  0  0  0  0  0  0  0  0  0  0
  -21.3160  -29.3980   22.4610 N   0  0  0  0  0  0  0  0  0  0  0  0
  -23.3540  -29.0160   23.3610 O   0  0  0  0  0  0  0  0  0  0  0  0
  -20.7980  -29.9330   21.7790 H   0  0  0  0  0  0  0  0  0  0  0  0
  -17.9860  -28.0830   22.9920 C   0  0  0  0  0  0  0  0  0  0  0  0
  -20.5360  -28.4430   23.2490 C   0  0  0  0  0  3  0  0  0  0  0  0
  -20.6830  -27.0080   22.6940 C   0  0  0  0  0  2  0  0  0  0  0  0
  -19.5910  -26.6300   21.6880 C   0  0  0  0  0  2  0  0  0  0  0  0
  -18.2110  -26.7260   22.3390 C   0  0  0  0  0  2  0  0  0  0  0  0
  -19.0770  -28.8940   23.4030 C   0  0  0  0  0  0  0  0  0  0  0  0
  -18.8140  -30.1610   23.9710 C   0  0  0  0  0  3  0  0  0  0  0  0
  -17.4910  -30.6210   24.1210 C   0  0  0  0  0  3  0  0  0  0  0  0
  -16.4180  -29.8070   23.7300 C   0  0  0  0  0  3  0  0  0  0  0  0
  -16.6650  -28.5390   23.1720 C   0  0  0  0  0  3  0  0  0  0  0  0
  -25.8450  -32.6410   23.7310 C   0  0  0  0  0  3  0  0  0  0  0  0
  -25.5500  -34.0260   24.1170 N   0  0  0  0  0  0  0  0  0  0  0  0
  -25.8470  -35.1020   23.3770 C   0  0  0  0  0  0  0  0  0  0  0  0
  -26.4660  -35.0350   22.3120 O   0  0  0  0  0  0  0  0  0  0  0  0
  -25.0020  -34.1520   24.9540 H   0  0  0  0  0  0  0  0  0  0  0  0
  -24.1080  -36.9100   23.1540 C   0  0  0  0  0  1  0  0  0  0  0  0
  -25.3780  -36.4720   23.9010 C   0  0  0  0  0  3  0  0  0  0  0  0
  -27.5370  -37.3370   24.6920 C   0  0  0  0  0  1  0  0  0  0  0  0
  -26.4070  -37.5280   23.7870 N   0  0  0  0  0  0  0  0  0  0  0  0
  -26.0050  -38.4430   23.9690 H   0  0  0  0  0  0  0  0  0  0  0  0
  -26.4370  -31.8380   24.9550 C   0  0  1  0  0  0  0  0  0  0  0  0
  -25.4040  -31.5660   26.0740 C   0  0  0  0  0  1  0  0  0  0  0  0
  -27.0090  -30.4770   24.4910 C   0  0  0  0  0  1  0  0  0  0  0  0
  -27.6120  -32.6260   25.5820 C   0  0  0  0  0  1  0  0  0  0  0  0
  1  5  1  0
  2  5  1  0
  2 13  1  0
  3  7  2  0
  4  1  1  0
  4  3  1  0
  5  9  1  0
  6  2  2  0
  8  4  1  0
 10 13  2  0
 10 14  1  0
 11 15  2  0
 12 15  1  0
 13 11  1  0
 14 12  2  0
 15 16  1  0
 17 25  1  0
 18 23  1  0
 19 20  1  0
 19 18  1  0
 21 20  1  0
 21 30  1  0
 21 22  1  0
 23 17  1  0
 23 22  1  0
 24 17  2  0
 25 14  1  0
 25 26  1  0
 27 28  2  0
 28 47  1  0
 29 28  1  0
 29 32  1  0
 30 31  1  0
 30 27  1  0
 31 29  2  0
 32 33  1  0
 33 34  2  0
 35 38  1  0
 35 34  1  0
 36 35  2  0
 37 36  1  0
 37 32  2  0
 38 39  1  0
 39 44  2  0
 39 40  1  0
 40 41  2  0
 41 42  1  0
 42 46  1  0
 43 42  2  0
 44 43  1  0
 45 44  1  0
 47 48  1  0
 48 51  1  0
 48 50  1  0
 49 47  2  0
 52 27  1  0
 52 53  1  0
 54 52  1  0
 55  3  1  0
 55 56  1  0
 57 68  2  0
 58 56  1  0
 58 63  1  0
 59 67  1  0
 59 69  1  0
 60 66  1  0
 60 62  1  0
 61 67  1  0
 62 61  1  0
 63 62  2  0
 64 65  1  0
 64 58  2  0
 65 60  2  0
 66 59  1  0
 67 57  1  0
 69 71  2  0
 70 69  1  0
 72 70  1  0
 73 82  2  0
 73 78  1  0
 74 70  1  0
 74 78  1  0
 75 74  1  0
 76 77  1  0
 76 75  1  0
 77 73  1  0
 78 79  2  0
 79 80  1  0
 81 80  2  0
 82 81  1  0
 83 57  1  0
 83 84  1  0
 83 93  1  0
 84 87  1  0
 85 89  1  0
 85 84  1  0
 86 85  2  0
 89 88  1  0
 91 89  1  0
 91 92  1  0
 91 90  1  0
 93 96  1  1
 93 94  1  0
 95 93  1  0
M  ISO  4  17 100  25 100  55 101  56 101
M  END
>  <TORSDO>  (95) 
F 18

>  <SCORE>  (95) 
-12.659

>  <name>  (95) 
95

>  <ligand_id>  (95) 
95

>  <original_smiles>  (95) 
[H]C(N([H])C(=O)C([H])([H])Oc1c([H])c([H])c2c(c1[H])C([H])([H])N(C(=O)C([H])(N([H])C(=O)C([H])(N([H])C([H])([H])[H])C([H])([H])[H])C(C([H])([H])[H])(C([H])([H])[H])C([H])([H])[H])C([H])(C(=O)N([H])C1([H])c3c([H])c([H])c([H])c([H])c3C([H])([H])C([H])([H])C1([H])[H])C2([H])[H])=[N+]([H])C(=O)c1c([H])c(F)c([H])c(N([H])C(=O)N2C([H])([H])C([H])([H])C([H])([H])C([H])(n3nc(-c4c([H])c([H])c(Oc5c([H])c([H])c(F)c([H])c5F)c([H])c4[H])c(C(=O)N([H])[H])c3N([H])[H])C2([H])[H])c1[H]

>  <smiles>  (95) 
[H]C(N([H])C(=O)C([H])([H])Oc1c([H])c([H])c2c(c1[H])C([H])([H])N(C(=O)C([H])(N([H])C(=O)C([H])(N([H])C([H])([H])[H])C([H])([H])[H])C(C([H])([H])[H])(C([H])([H])[H])C([H])([H])[H])C([H])(C(=O)N([H])C1([H])c3c([H])c([H])c([H])c([H])c3C([H])([H])C([H])([H])C1([H])[H])C2([H])[H])=[N+]([H])C(=O)c1c([H])c(F)c([H])c(N([H])C(=O)N2C([H])([H])C([H])([H])C([H])([H])C([H])(n3nc(-c4c([H])c([H])c(Oc5c([H])c([H])c(F)c([H])c5F)c([H])c4[H])c(C(=O)N([H])[H])c3N([H])[H])C2([H])[H])c1[H]

$$$$
96:0:0
     RDKit          3D

 94102  0  0  1  0  0  0  0  0999 V2000
  -28.9500  -22.4730   20.1300 C   0  0  0  0  0  0  0  0  0  0  0  0
  -29.5020  -22.7430   19.0660 O   0  0  0  0  0  0  0  0  0  0  0  0
  -30.6220  -14.9980   20.1560 C   0  0  0  0  0  0  0  0  0  0  0  0
  -30.4010  -12.6670   19.1920 C   0  0  0  0  0  2  0  0  0  0  0  0
  -29.4480  -12.6250   17.9800 C   0  0  0  0  0  2  0  0  0  0  0  0
  -27.9940  -12.4220   18.4460 C   0  0  0  0  0  2  0  0  0  0  0  0
  -27.6150  -13.3410   19.6400 C   0  0  0  0  0  3  0  0  0  0  0  0
  -28.7010  -13.3810   20.7350 C   0  0  0  0  0  2  0  0  0  0  0  0
  -29.9470  -13.7820   20.0730 N   0  0  0  0  0  0  0  0  0  0  0  0
  -31.8390  -14.9500   19.9440 O   0  0  0  0  0  0  0  0  0  0  0  0
  -29.3180  -18.5950   21.0980 C   0  0  0  0  0  3  0  0  0  0  0  0
  -29.5780  -17.2070   20.9960 C   0  0  0  0  0  3  0  0  0  0  0  0
  -29.3250  -19.9060   20.2260 C   0  0  0  0  0  0  0  0  0  0  0  0
  -29.4430  -18.1860   18.2570 C   0  0  0  0  0  2  0  0  0  0  0  0
  -30.3220  -16.9540   18.6810 C   0  0  0  0  0  2  0  0  0  0  0  0
  -29.7860  -19.6330   18.7830 C   0  0  0  0  0  3  0  0  0  0  0  0
  -28.9380  -21.1120   20.7250 N   0  0  0  0  0  0  0  0  0  0  0  0
  -29.9710  -16.2630   19.9480 N   0  0  0  0  0  0  0  0  0  0  0  0
  -25.2510  -13.8940   20.4380 C   0  0  0  0  0  0  0  0  0  0  0  0
  -24.1980  -13.1100   20.8210 C   0  0  0  0  0  0  0  0  0  0  0  0
  -24.6720  -11.7620   20.7770 C   0  0  0  0  0  0  0  0  0  0  0  0
  -26.2940  -13.0270   20.1730 N   0  0  0  0  0  0  0  0  0  0  0  0
  -25.9580  -11.7370   20.4450 N   0  0  0  0  0  0  0  0  0  0  0  0
  -23.9560  -10.4940   20.9740 C   0  0  0  0  0  0  0  0  0  0  0  0
  -24.3930   -9.5360   21.9150 C   0  0  0  0  0  3  0  0  0  0  0  0
  -23.6750   -8.3350   22.1000 C   0  0  0  0  0  3  0  0  0  0  0  0
  -22.5060   -8.0820   21.3440 C   0  0  0  0  0  0  0  0  0  0  0  0
  -22.0890   -9.0280   20.3900 C   0  0  0  0  0  3  0  0  0  0  0  0
  -22.8080  -10.2210   20.2040 C   0  0  0  0  0  3  0  0  0  0  0  0
  -21.7590   -6.9330   21.4390 O   0  0  0  0  0  0  0  0  0  0  0  0
  -21.6920   -6.2100   22.6030 C   0  0  0  0  0  0  0  0  0  0  0  0
  -21.2100   -6.7760   23.8040 C   0  0  0  0  0  3  0  0  0  0  0  0
  -21.0930   -5.9790   24.9610 C   0  0  0  0  0  3  0  0  0  0  0  0
  -21.4480   -4.6180   24.9170 C   0  0  0  0  0  0  0  0  0  0  0  0
  -21.9220   -4.0510   23.7220 C   0  0  0  0  0  3  0  0  0  0  0  0
  -22.0400   -4.8440   22.5670 C   0  0  0  0  0  0  0  0  0  0  0  0
  -22.4780   -4.2870   21.4120 F   0  0  0  0  0  0  0  0  0  0  0  0
  -21.3280   -3.8500   26.0270 F   0  0  0  0  0  0  0  0  0  0  0  0
  -22.8020  -13.5760   21.1150 C   0  0  0  0  0  0  0  0  0  0  0  0
  -22.0920  -12.8690   21.9870 N   0  0  0  0  0  0  0  0  0  0  0  0
  -22.3510  -14.6030   20.6070 O   0  0  0  0  0  0  0  0  0  0  0  0
  -22.4700  -12.0400   22.4210 H   0  0  0  0  0  0  0  0  0  0  0  0
  -21.1550  -13.1630   22.2260 H   0  0  0  0  0  0  0  0  0  0  0  0
  -25.4020  -15.2680   20.2650 N   0  0  0  0  0  0  0  0  0  0  0  0
  -24.6400  -15.9210   20.4020 H   0  0  0  0  0  0  0  0  0  0  0  0
  -26.2530  -15.7140   19.9440 H   0  0  0  0  0  0  0  0  0  0  0  0
  -31.2700  -19.9900   18.5650 C   0  0  0  0  0  0  0  0  0  0  0  0
  -31.7060  -20.2400   17.1270 C   0  0  0  0  0  1  0  0  0  0  0  0
  -32.0900  -20.0720   19.4840 O   0  0  0  0  0  0  0  0  0  0  0  0
  -27.9660  -24.9600   20.9320 C   0  0  0  0  0  3  0  0  0  0  0  0
  -28.2100  -23.5510   20.9480 C   0  0  0  0  0  0  0  0  0  0  0  0
  -27.6110  -22.9570   21.9900 O   0  0  0  0  0  0  0  0  0  0  0  0
  -27.8620  -22.0390   21.9200 H   0  0  0  0  0  0  0  0  0  0  0  0
  -28.2630  -26.1950   20.2270 O   0  0  0  0  0  0  0  0  0  0  0  0
  -24.6100  -31.8810   23.2280 C   0  0  0  0  0  0  0  0  0  0  0  0
  -27.2430  -27.2110   20.2010 C   0  0  0  0  0  0  0  0  0  0  0  0
  -23.4320  -30.4840   21.5750 C   0  0  0  0  0  3  0  0  0  0  0  0
  -24.9020  -28.9250   20.1590 C   0  0  0  0  0  0  0  0  0  0  0  0
  -25.9830  -30.7720   21.4310 C   0  0  0  0  0  2  0  0  0  0  0  0
  -26.0760  -29.3830   20.7760 C   0  0  0  0  0  0  0  0  0  0  0  0
  -27.2510  -28.5400   20.7840 C   0  0  0  0  0  3  0  0  0  0  0  0
  -26.0460  -26.8520   19.5490 C   0  0  0  0  0  3  0  0  0  0  0  0
  -24.8990  -27.6700   19.5330 C   0  0  0  0  0  3  0  0  0  0  0  0
  -23.6680  -29.8110   20.1980 C   0  0  0  0  0  2  0  0  0  0  0  0
  -24.6940  -31.0670   22.1330 N   0  0  0  0  0  0  0  0  0  0  0  0
  -23.5170  -32.1590   23.7470 O   0  0  0  0  0  0  0  0  0  0  0  0
  -22.7530  -29.4670   22.5280 C   0  0  0  0  0  0  0  0  0  0  0  0
  -21.4250  -29.2960   22.3960 N   0  0  0  0  0  0  0  0  0  0  0  0
  -23.4230  -28.8380   23.3490 O   0  0  0  0  0  0  0  0  0  0  0  0
  -20.9390  -29.8560   21.7080 H   0  0  0  0  0  0  0  0  0  0  0  0
  -18.0410  -28.1060   22.9060 C   0  0  0  0  0  0  0  0  0  0  0  0
  -20.6030  -28.3550   23.1610 C   0  0  0  0  0  3  0  0  0  0  0  0
  -20.6930  -26.9280   22.5720 C   0  0  0  0  0  2  0  0  0  0  0  0
  -19.5850  -26.6200   21.5600 C   0  0  0  0  0  2  0  0  0  0  0  0
  -18.2080  -26.7650   22.2110 C   0  0  0  0  0  2  0  0  0  0  0  0
  -19.1650  -28.8600   23.3380 C   0  0  0  0  0  0  0  0  0  0  0  0
  -18.9510  -30.1150   23.9480 C   0  0  0  0  0  3  0  0  0  0  0  0
  -17.6490  -30.6180   24.1250 C   0  0  0  0  0  3  0  0  0  0  0  0
  -16.5400  -29.8610   23.7060 C   0  0  0  0  0  3  0  0  0  0  0  0
  -16.7380  -28.6070   23.1030 C   0  0  0  0  0  3  0  0  0  0  0  0
  -25.8790  -32.5230   23.8660 C   0  0  0  0  0  3  0  0  0  0  0  0
  -26.3750  -31.7630   25.1590 C   0  0  1  0  0  0  0  0  0  0  0  0
  -25.2630  -31.5350   26.2120 C   0  0  0  0  0  1  0  0  0  0  0  0
  -26.9660  -30.3810   24.7950 C   0  0  0  0  0  1  0  0  0  0  0  0
  -27.5140  -32.5640   25.8340 C   0  0  0  0  0  1  0  0  0  0  0  0
  -25.5610  -33.9230   24.1860 N   0  0  0  0  0  0  0  0  0  0  0  0
  -25.9010  -34.9750   23.4290 C   0  0  0  0  0  0  0  0  0  0  0  0
  -26.5800  -34.8690   22.4050 O   0  0  0  0  0  0  0  0  0  0  0  0
  -24.9590  -34.0790   24.9810 H   0  0  0  0  0  0  0  0  0  0  0  0
  -24.1790  -36.7700   23.0500 C   0  0  0  0  0  1  0  0  0  0  0  0
  -25.4100  -36.3650   23.8790 C   0  0  0  0  0  3  0  0  0  0  0  0
  -27.5340  -37.2510   24.7360 C   0  0  0  0  0  1  0  0  0  0  0  0
  -26.4450  -37.4170   23.7770 N   0  0  0  0  0  0  0  0  0  0  0  0
  -26.0390  -38.3380   23.9180 H   0  0  0  0  0  0  0  0  0  0  0  0
  1 17  1  0
  1 51  1  0
  2  1  2  0
  4  9  1  0
  5  6  1  0
  5  4  1  0
  7  6  1  0
  7 22  1  0
  7  8  1  0
  9  3  1  0
  9  8  1  0
 10  3  2  0
 12 11  2  0
 13 17  2  0
 13 11  1  0
 14 15  1  0
 14 16  1  0
 15 18  1  0
 16 47  1  0
 16 13  1  0
 18  3  1  0
 18 12  1  0
 19 20  2  0
 20 39  1  0
 21 20  1  0
 21 24  1  0
 22 19  1  0
 22 23  1  0
 23 21  2  0
 24 25  1  0
 25 26  2  0
 27 30  1  0
 27 26  1  0
 28 27  2  0
 29 28  1  0
 29 24  2  0
 30 31  1  0
 31 32  1  0
 32 33  2  0
 34 33  1  0
 34 38  1  0
 35 34  2  0
 36 31  2  0
 36 35  1  0
 37 36  1  0
 39 40  1  0
 40 43  1  0
 40 42  1  0
 41 39  2  0
 44 45  1  0
 44 19  1  0
 46 44  1  0
 47 49  2  0
 48 47  1  0
 50 51  2  0
 51 52  1  0
 53 52  1  0
 54 50  1  0
 55 66  2  0
 56 54  1  0
 56 61  1  0
 57 65  1  0
 57 67  1  0
 58 64  1  0
 58 60  1  0
 59 65  1  0
 60 61  2  0
 60 59  1  0
 62 56  2  0
 63 62  1  0
 63 58  2  0
 64 57  1  0
 65 55  1  0
 67 69  2  0
 68 67  1  0
 70 68  1  0
 71 80  2  0
 71 76  1  0
 72 68  1  0
 72 76  1  0
 73 72  1  0
 74 75  1  0
 74 73  1  0
 75 71  1  0
 76 77  2  0
 77 78  1  0
 79 78  2  0
 80 79  1  0
 81 55  1  0
 81 86  1  0
 81 82  1  0
 82 85  1  1
 82 83  1  0
 84 82  1  0
 86 89  1  0
 87 91  1  0
 87 86  1  0
 88 87  2  0
 91 90  1  0
 93 91  1  0
 93 94  1  0
 93 92  1  0
M  ISO  4   3 100  18 100  50 101  54 101
M  END
>  <TORSDO>  (96) 
F 19

>  <SCORE>  (96) 
-14.694

>  <name>  (96) 
96

>  <ligand_id>  (96) 
96

>  <original_smiles>  (96) 
[H]OC(C(=O)N=C1C([H])=C([H])N(C(=O)N2C([H])([H])C([H])([H])C([H])([H])C([H])(n3nc(-c4c([H])c([H])c(Oc5c([H])c([H])c(F)c([H])c5F)c([H])c4[H])c(C(=O)N([H])[H])c3N([H])[H])C2([H])[H])C([H])([H])C([H])([H])C1([H])C(=O)C([H])([H])[H])=C([H])Oc1c([H])c([H])c2c(c1[H])C([H])([H])N(C(=O)C([H])(N([H])C(=O)C([H])(N([H])C([H])([H])[H])C([H])([H])[H])C(C([H])([H])[H])(C([H])([H])[H])C([H])([H])[H])C([H])(C(=O)N([H])C1([H])c3c([H])c([H])c([H])c([H])c3C([H])([H])C([H])([H])C1([H])[H])C2([H])[H]

>  <smiles>  (96) 
[H]OC(C(=O)N=C1C([H])=C([H])N(C(=O)N2C([H])([H])C([H])([H])C([H])([H])C([H])(n3nc(-c4c([H])c([H])c(Oc5c([H])c([H])c(F)c([H])c5F)c([H])c4[H])c(C(=O)N([H])[H])c3N([H])[H])C2([H])[H])C([H])([H])C([H])([H])C1([H])C(=O)C([H])([H])[H])=C([H])Oc1c([H])c([H])c2c(c1[H])C([H])([H])N(C(=O)C([H])(N([H])C(=O)C([H])(N([H])C([H])([H])[H])C([H])([H])[H])C(C([H])([H])[H])(C([H])([H])[H])C([H])([H])[H])C([H])(C(=O)N([H])C1([H])c3c([H])c([H])c([H])c([H])c3C([H])([H])C([H])([H])C1([H])[H])C2([H])[H]

$$$$
