0:0:0
     RDKit          3D

 97105  0  0  1  0  0  0  0  0999 V2000
  -29.3960  -22.8980   20.7810 C   0  0  0  0  0  0  0  0  0  0  0  0
  -29.5890  -21.7390   20.0950 N   0  0  0  0  0  0  0  0  0  0  0  0
  -29.7740  -23.0040   21.9490 O   0  0  0  0  0  0  0  0  0  0  0  0
  -29.2600  -21.7090   19.1410 H   0  0  0  0  0  0  0  0  0  0  0  0
  -30.3090  -20.5210   20.5770 C   0  0  0  0  0  2  0  0  0  0  0  0
  -30.5090  -17.9490   20.6040 C   0  0  0  0  0  3  0  0  0  0  0  0
  -28.6330  -16.4550   20.2470 C   0  0  0  0  0  3  0  0  0  0  0  0
  -29.6900  -19.1030   20.3760 C   0  0  0  0  0  0  0  0  0  0  0  0
  -28.3140  -18.8880   20.0780 C   0  0  0  0  0  0  0  0  0  0  0  0
  -30.0020  -16.6140   20.5300 C   0  0  0  0  0  0  0  0  0  0  0  0
  -27.8050  -17.5710   20.0220 C   0  0  0  0  0  0  0  0  0  0  0  0
  -27.3290  -20.0280   19.8640 C   0  0  0  0  0  1  0  0  0  0  0  0
  -26.4870  -17.3670   19.7900 F   0  0  0  0  0  0  0  0  0  0  0  0
  -31.1820  -14.4170   20.1970 C   0  0  0  0  0  0  0  0  0  0  0  0
  -30.8450  -12.0900   19.4000 C   0  0  0  0  0  2  0  0  0  0  0  0
  -29.9420  -12.0520   18.1510 C   0  0  0  0  0  2  0  0  0  0  0  0
  -28.4580  -11.9980   18.5580 C   0  0  0  0  0  2  0  0  0  0  0  0
  -28.0960  -13.0610   19.6290 C   0  0  0  0  0  3  0  0  0  0  0  0
  -29.1150  -13.0600   20.7900 C   0  0  0  0  0  2  0  0  0  0  0  0
  -30.4540  -13.2570   20.2180 N   0  0  0  0  0  0  0  0  0  0  0  0
  -32.2590  -14.4900   19.6020 O   0  0  0  0  0  0  0  0  0  0  0  0
  -30.7810  -15.4720   20.9480 N   0  0  0  0  0  0  0  0  0  0  0  0
  -31.6290  -15.8160   21.3730 H   0  0  0  0  0  0  0  0  0  0  0  0
  -25.7420  -13.8480   20.3000 C   0  0  0  0  0  0  0  0  0  0  0  0
  -24.6240  -13.1690   20.6930 C   0  0  0  0  0  0  0  0  0  0  0  0
  -24.9860  -11.7860   20.7010 C   0  0  0  0  0  0  0  0  0  0  0  0
  -26.7260  -12.8910   20.1060 N   0  0  0  0  0  0  0  0  0  0  0  0
  -26.2720  -11.6450   20.4020 N   0  0  0  0  0  0  0  0  0  0  0  0
  -24.1670  -10.5880   20.9220 C   0  0  0  0  0  0  0  0  0  0  0  0
  -24.5430   -9.6000   21.8590 C   0  0  0  0  0  3  0  0  0  0  0  0
  -23.7290   -8.4650   22.0680 C   0  0  0  0  0  3  0  0  0  0  0  0
  -22.5260   -8.3110   21.3400 C   0  0  0  0  0  0  0  0  0  0  0  0
  -22.1680   -9.2860   20.3920 C   0  0  0  0  0  3  0  0  0  0  0  0
  -22.9800  -10.4120   20.1810 C   0  0  0  0  0  3  0  0  0  0  0  0
  -21.6860   -7.2310   21.4550 O   0  0  0  0  0  0  0  0  0  0  0  0
  -21.6130   -6.4970   22.6110 C   0  0  0  0  0  0  0  0  0  0  0  0
  -21.2940   -7.0900   23.8520 C   0  0  0  0  0  3  0  0  0  0  0  0
  -21.1640   -6.2890   25.0040 C   0  0  0  0  0  3  0  0  0  0  0  0
  -21.3420   -4.8950   24.9170 C   0  0  0  0  0  0  0  0  0  0  0  0
  -21.6530   -4.3010   23.6800 C   0  0  0  0  0  3  0  0  0  0  0  0
  -21.7860   -5.1010   22.5310 C   0  0  0  0  0  0  0  0  0  0  0  0
  -22.0660   -4.5220   21.3390 F   0  0  0  0  0  0  0  0  0  0  0  0
  -21.2100   -4.1230   26.0190 F   0  0  0  0  0  0  0  0  0  0  0  0
  -23.2670  -13.7560   20.9510 C   0  0  0  0  0  0  0  0  0  0  0  0
  -22.4940  -13.1500   21.8450 N   0  0  0  0  0  0  0  0  0  0  0  0
  -22.9030  -14.7910   20.3930 O   0  0  0  0  0  0  0  0  0  0  0  0
  -22.7980  -12.3150   22.3230 H   0  0  0  0  0  0  0  0  0  0  0  0
  -21.5790  -13.5270   22.0470 H   0  0  0  0  0  0  0  0  0  0  0  0
  -25.9990  -15.1930   20.0690 N   0  0  0  0  0  0  0  0  0  0  0  0
  -25.3070  -15.9130   20.2370 H   0  0  0  0  0  0  0  0  0  0  0  0
  -26.8890  -15.5710   19.7730 H   0  0  0  0  0  0  0  0  0  0  0  0
  -28.6990  -24.1160   20.0870 C   0  0  0  0  0  2  0  0  0  0  0  0
  -28.6880  -25.4660   20.9080 C   0  0  0  0  0  3  0  0  0  0  0  0
  -27.8650  -25.4400   22.2190 C   0  0  0  0  0  0  0  0  0  0  0  0
  -26.5640  -24.6450   22.2550 C   0  0  0  0  0  1  0  0  0  0  0  0
  -28.2310  -26.0770   23.2090 O   0  0  0  0  0  0  0  0  0  0  0  0
  -28.5310  -26.7310   20.1800 O   0  0  0  0  0  0  0  0  0  0  0  0
  -24.6170  -31.8940   23.2390 C   0  0  0  0  0  0  0  0  0  0  0  0
  -27.3410  -27.4460   20.2040 C   0  0  0  0  0  0  0  0  0  0  0  0
  -23.4410  -30.4800   21.5840 C   0  0  0  0  0  3  0  0  0  0  0  0
  -24.9250  -28.9410   20.1840 C   0  0  0  0  0  0  0  0  0  0  0  0
  -25.9650  -30.8550   21.4120 C   0  0  0  0  0  2  0  0  0  0  0  0
  -26.0730  -29.4790   20.7800 C   0  0  0  0  0  0  0  0  0  0  0  0
  -27.2820  -28.7420   20.7790 C   0  0  0  0  0  3  0  0  0  0  0  0
  -26.1760  -26.9250   19.6010 C   0  0  0  0  0  3  0  0  0  0  0  0
  -24.9740  -27.6640   19.5910 C   0  0  0  0  0  3  0  0  0  0  0  0
  -23.6730  -29.7930   20.2110 C   0  0  0  0  0  2  0  0  0  0  0  0
  -24.6930  -31.0930   22.1370 N   0  0  0  0  0  0  0  0  0  0  0  0
  -23.5280  -32.1550   23.7680 O   0  0  0  0  0  0  0  0  0  0  0  0
  -22.7850  -29.4590   22.5420 C   0  0  0  0  0  0  0  0  0  0  0  0
  -21.4600  -29.2800   22.4150 N   0  0  0  0  0  0  0  0  0  0  0  0
  -23.4680  -28.8310   23.3550 O   0  0  0  0  0  0  0  0  0  0  0  0
  -20.9690  -29.8460   21.7370 H   0  0  0  0  0  0  0  0  0  0  0  0
  -18.0830  -28.0940   22.9140 C   0  0  0  0  0  0  0  0  0  0  0  0
  -20.6440  -28.3370   23.1790 C   0  0  0  0  0  3  0  0  0  0  0  0
  -20.7360  -26.9120   22.5840 C   0  0  0  0  0  2  0  0  0  0  0  0
  -19.6280  -26.6080   21.5700 C   0  0  0  0  0  2  0  0  0  0  0  0
  -18.2510  -26.7500   22.2240 C   0  0  0  0  0  2  0  0  0  0  0  0
  -19.2080  -28.8450   23.3480 C   0  0  0  0  0  0  0  0  0  0  0  0
  -18.9970  -30.1020   23.9560 C   0  0  0  0  0  3  0  0  0  0  0  0
  -17.6960  -30.6080   24.1350 C   0  0  0  0  0  3  0  0  0  0  0  0
  -16.5860  -29.8530   23.7170 C   0  0  0  0  0  3  0  0  0  0  0  0
  -16.7800  -28.6000   23.1110 C   0  0  0  0  0  3  0  0  0  0  0  0
  -25.8900  -32.5370   23.8710 C   0  0  0  0  0  3  0  0  0  0  0  0
  -25.5680  -33.9350   24.1900 N   0  0  0  0  0  0  0  0  0  0  0  0
  -25.9060  -34.9850   23.4300 C   0  0  0  0  0  0  0  0  0  0  0  0
  -26.5900  -34.8790   22.4090 O   0  0  0  0  0  0  0  0  0  0  0  0
  -24.9640  -34.0890   24.9830 H   0  0  0  0  0  0  0  0  0  0  0  0
  -24.1760  -36.7700   23.0430 C   0  0  0  0  0  1  0  0  0  0  0  0
  -25.4070  -36.3730   23.8740 C   0  0  0  0  0  3  0  0  0  0  0  0
  -27.5290  -37.2740   24.7220 C   0  0  0  0  0  1  0  0  0  0  0  0
  -26.4360  -37.4300   23.7680 N   0  0  0  0  0  0  0  0  0  0  0  0
  -26.0220  -38.3490   23.9060 H   0  0  0  0  0  0  0  0  0  0  0  0
  -26.3960  -31.7750   25.1590 C   0  0  1  0  0  0  0  0  0  0  0  0
  -25.2940  -31.5320   26.2160 C   0  0  0  0  0  1  0  0  0  0  0  0
  -26.9930  -30.4000   24.7760 C   0  0  0  0  0  1  0  0  0  0  0  0
  -27.5300  -32.5800   25.8350 C   0  0  0  0  0  1  0  0  0  0  0  0
  1  3  2  0
  2  5  1  0
  2  1  1  0
  4  2  1  0
  7 10  2  0
  8  5  1  0
  8  6  2  0
  9  8  1  0
 10  6  1  0
 10 22  1  0
 11  9  2  0
 11  7  1  0
 12  9  1  0
 13 11  1  0
 14 20  1  0
 14 22  1  0
 15 20  1  0
 16 17  1  0
 16 15  1  0
 18 17  1  0
 18 27  1  0
 18 19  1  0
 20 19  1  0
 21 14  2  0
 22 23  1  0
 24 25  2  0
 25 26  1  0
 25 44  1  0
 26 29  1  0
 27 24  1  0
 27 28  1  0
 28 26  2  0
 29 30  1  0
 30 31  2  0
 32 35  1  0
 32 31  1  0
 33 32  2  0
 34 33  1  0
 34 29  2  0
 35 36  1  0
 36 37  1  0
 37 38  2  0
 39 38  1  0
 39 43  1  0
 40 39  2  0
 41 36  2  0
 41 40  1  0
 42 41  1  0
 44 45  1  0
 45 48  1  0
 45 47  1  0
 46 44  2  0
 49 50  1  0
 49 24  1  0
 51 49  1  0
 52  1  1  0
 53 52  1  0
 53 54  1  0
 54 55  1  0
 54 56  2  0
 57 59  1  0
 57 53  1  0
 58 69  2  0
 59 64  1  0
 60 68  1  0
 60 70  1  0
 61 67  1  0
 61 63  1  0
 62 68  1  0
 63 62  1  0
 64 63  2  0
 65 59  2  0
 66 65  1  0
 66 61  2  0
 67 60  1  0
 68 58  1  0
 70 72  2  0
 71 70  1  0
 73 71  1  0
 74 83  2  0
 74 79  1  0
 75 71  1  0
 75 79  1  0
 76 75  1  0
 77 78  1  0
 77 76  1  0
 78 74  1  0
 79 80  2  0
 80 81  1  0
 82 81  2  0
 83 82  1  0
 84 58  1  0
 84 85  1  0
 84 94  1  0
 85 88  1  0
 86 90  1  0
 86 85  1  0
 87 86  2  0
 90 89  1  0
 92 90  1  0
 92 93  1  0
 92 91  1  0
 94 97  1  1
 94 95  1  0
 96 94  1  0
M  ISO  4  14 100  22 100  53 101  57 101
M  END
>  <TORSDO>  (1) 
F 21

>  <SCORE>  (1) 
-13.696

>  <name>  (1) 
0

>  <ligand_id>  (1) 
0

>  <original_smiles>  (1) 
[H]c1c([H])c([H])c2c(c1[H])C([H])([H])C([H])([H])C([H])([H])C2([H])N([H])C(=O)C1([H])N(C(=O)C([H])(N([H])C(=O)C([H])(N([H])C([H])([H])[H])C([H])([H])[H])C(C([H])([H])[H])(C([H])([H])[H])C([H])([H])[H])C([H])([H])c2c([H])c(OC([H])(C(=O)C([H])([H])[H])C([H])([H])C(=O)N([H])C([H])([H])c3c([H])c(N([H])C(=O)N4C([H])([H])C([H])([H])C([H])([H])C([H])(n5nc(-c6c([H])c([H])c(Oc7c([H])c([H])c(F)c([H])c7F)c([H])c6[H])c(C(=O)N([H])[H])c5N([H])[H])C4([H])[H])c([H])c(F)c3C([H])([H])[H])c([H])c([H])c2C1([H])[H]

>  <smiles>  (1) 
[H]c1c([H])c([H])c2c(c1[H])C([H])([H])C([H])([H])C([H])([H])C2([H])N([H])C(=O)C1([H])N(C(=O)C([H])(N([H])C(=O)C([H])(N([H])C([H])([H])[H])C([H])([H])[H])C(C([H])([H])[H])(C([H])([H])[H])C([H])([H])[H])C([H])([H])c2c([H])c(OC([H])(C(=O)C([H])([H])[H])C([H])([H])C(=O)N([H])C([H])([H])c3c([H])c(N([H])C(=O)N4C([H])([H])C([H])([H])C([H])([H])C([H])(n5nc(-c6c([H])c([H])c(Oc7c([H])c([H])c(F)c([H])c7F)c([H])c6[H])c(C(=O)N([H])[H])c5N([H])[H])C4([H])[H])c([H])c(F)c3C([H])([H])[H])c([H])c([H])c2C1([H])[H]

$$$$
1:0:0
     RDKit          3D

 97105  0  0  1  0  0  0  0  0999 V2000
  -29.2820  -22.9720   20.3170 C   0  0  0  0  0  0  0  0  0  0  0  0
  -30.5280  -23.2020   20.0600 N   0  0  0  0  0  0  0  0  0  0  0  0
  -28.3290  -24.2010   20.3970 C   0  0  0  0  0  0  0  0  0  0  0  0
  -27.2970  -24.1960   21.0790 O   0  0  0  0  0  0  0  0  0  0  0  0
  -28.6620  -25.4720   19.5540 C   0  0  0  0  0  2  0  0  0  0  0  0
  -28.4240  -26.7300   20.2390 O   0  0  0  0  0  0  0  0  0  0  0  0
  -24.5700  -31.9040   23.2320 C   0  0  0  0  0  0  0  0  0  0  0  0
  -27.2290  -27.4310   20.1690 C   0  0  0  0  0  0  0  0  0  0  0  0
  -23.3690  -30.5070   21.5800 C   0  0  0  0  0  3  0  0  0  0  0  0
  -24.8280  -28.9560   20.1670 C   0  0  0  0  0  0  0  0  0  0  0  0
  -25.8990  -30.8520   21.3970 C   0  0  0  0  0  2  0  0  0  0  0  0
  -25.9840  -29.4760   20.7600 C   0  0  0  0  0  0  0  0  0  0  0  0
  -27.1800  -28.7210   20.7540 C   0  0  0  0  0  3  0  0  0  0  0  0
  -26.0510  -26.9240   19.5710 C   0  0  0  0  0  3  0  0  0  0  0  0
  -24.8560  -27.6790   19.5740 C   0  0  0  0  0  3  0  0  0  0  0  0
  -23.5880  -29.8230   20.2030 C   0  0  0  0  0  2  0  0  0  0  0  0
  -24.6310  -31.1050   22.1280 N   0  0  0  0  0  0  0  0  0  0  0  0
  -23.4860  -32.1790   23.7670 O   0  0  0  0  0  0  0  0  0  0  0  0
  -22.7060  -29.4920   22.5400 C   0  0  0  0  0  0  0  0  0  0  0  0
  -21.3780  -29.3220   22.4090 N   0  0  0  0  0  0  0  0  0  0  0  0
  -23.3820  -28.8590   23.3550 O   0  0  0  0  0  0  0  0  0  0  0  0
  -20.8970  -29.8830   21.7190 H   0  0  0  0  0  0  0  0  0  0  0  0
  -17.9920  -28.1720   22.9180 C   0  0  0  0  0  0  0  0  0  0  0  0
  -20.5530  -28.3910   23.1770 C   0  0  0  0  0  3  0  0  0  0  0  0
  -20.6350  -26.9640   22.5890 C   0  0  0  0  0  2  0  0  0  0  0  0
  -19.5230  -26.6650   21.5780 C   0  0  0  0  0  2  0  0  0  0  0  0
  -18.1470  -26.8250   22.2300 C   0  0  0  0  0  2  0  0  0  0  0  0
  -19.1230  -28.9140   23.3490 C   0  0  0  0  0  0  0  0  0  0  0  0
  -18.9250  -30.1720   23.9580 C   0  0  0  0  0  3  0  0  0  0  0  0
  -17.6290  -30.6900   24.1370 C   0  0  0  0  0  3  0  0  0  0  0  0
  -16.5110  -29.9450   23.7230 C   0  0  0  0  0  3  0  0  0  0  0  0
  -16.6940  -28.6880   23.1190 C   0  0  0  0  0  3  0  0  0  0  0  0
  -25.8540  -32.5320   23.8610 C   0  0  0  0  0  3  0  0  0  0  0  0
  -26.3590  -31.7640   25.1440 C   0  0  1  0  0  0  0  0  0  0  0  0
  -25.2570  -31.5340   26.2050 C   0  0  0  0  0  1  0  0  0  0  0  0
  -26.9380  -30.3820   24.7600 C   0  0  0  0  0  1  0  0  0  0  0  0
  -27.5150  -32.5520   25.8090 C   0  0  0  0  0  1  0  0  0  0  0  0
  -25.5540  -33.9350   24.1790 N   0  0  0  0  0  0  0  0  0  0  0  0
  -25.9010  -34.9780   23.4160 C   0  0  0  0  0  0  0  0  0  0  0  0
  -26.5810  -34.8620   22.3920 O   0  0  0  0  0  0  0  0  0  0  0  0
  -24.9530  -34.1030   24.9730 H   0  0  0  0  0  0  0  0  0  0  0  0
  -24.2000  -36.7860   23.0200 C   0  0  0  0  0  1  0  0  0  0  0  0
  -25.4190  -36.3730   23.8590 C   0  0  0  0  0  3  0  0  0  0  0  0
  -27.5440  -37.2410   24.7290 C   0  0  0  0  0  1  0  0  0  0  0  0
  -26.4640  -37.4160   23.7610 N   0  0  0  0  0  0  0  0  0  0  0  0
  -26.0630  -38.3390   23.9010 H   0  0  0  0  0  0  0  0  0  0  0  0
  -31.5490  -22.2880   19.8290 C   0  0  0  0  0  0  0  0  0  0  0  0
  -31.5140  -21.0690   19.6940 O   0  0  0  0  0  0  0  0  0  0  0  0
  -34.1330  -22.1050   19.5360 C   0  0  0  0  0  1  0  0  0  0  0  0
  -32.8960  -23.0120   19.6920 C   0  0  0  0  0  2  0  0  0  0  0  0
  -28.5170  -21.6110   20.5340 C   0  0  0  0  0  2  0  0  0  0  0  0
  -29.1730  -20.3850   21.0590 N   0  0  0  0  0  0  0  0  0  0  0  0
  -29.1930  -20.2860   22.0660 H   0  0  0  0  0  0  0  0  0  0  0  0
  -30.5780  -14.5600   20.4670 C   0  0  0  0  0  0  0  0  0  0  0  0
  -30.3520  -12.3660   19.3620 C   0  0  0  0  0  2  0  0  0  0  0  0
  -29.4070  -12.5370   18.1490 C   0  0  0  0  0  2  0  0  0  0  0  0
  -27.9260  -12.4230   18.5640 C   0  0  0  0  0  2  0  0  0  0  0  0
  -27.5870  -13.2480   19.8330 C   0  0  0  0  0  3  0  0  0  0  0  0
  -28.6370  -13.0250   20.9440 C   0  0  0  0  0  2  0  0  0  0  0  0
  -29.9570  -13.3500   20.3880 N   0  0  0  0  0  0  0  0  0  0  0  0
  -31.7230  -14.7390   20.0380 O   0  0  0  0  0  0  0  0  0  0  0  0
  -29.2970  -18.0650   18.1480 C   0  0  0  0  0  3  0  0  0  0  0  0
  -29.5080  -16.8620   18.8380 C   0  0  0  0  0  3  0  0  0  0  0  0
  -29.1740  -19.2510   18.8830 C   0  0  0  0  0  3  0  0  0  0  0  0
  -29.6200  -16.8560   20.2450 C   0  0  0  0  0  0  0  0  0  0  0  0
  -29.2520  -19.2030   20.2860 C   0  0  0  0  0  0  0  0  0  0  0  0
  -29.4550  -18.0260   20.9430 N   0  0  0  0  0  0  0  0  0  0  0  0
  -29.8020  -15.5900   20.9000 N   0  0  0  0  0  0  0  0  0  0  0  0
  -29.0310  -15.3160   21.4860 H   0  0  0  0  0  0  0  0  0  0  0  0
  -25.1970  -13.8630   20.5540 C   0  0  0  0  0  0  0  0  0  0  0  0
  -24.1260  -13.0940   20.9240 C   0  0  0  0  0  0  0  0  0  0  0  0
  -24.5780  -11.7390   20.8810 C   0  0  0  0  0  0  0  0  0  0  0  0
  -26.2340  -12.9760   20.3120 N   0  0  0  0  0  0  0  0  0  0  0  0
  -25.8670  -11.6950   20.5700 N   0  0  0  0  0  0  0  0  0  0  0  0
  -23.8460  -10.4800   21.0620 C   0  0  0  0  0  0  0  0  0  0  0  0
  -24.2780   -9.5060   21.9890 C   0  0  0  0  0  3  0  0  0  0  0  0
  -23.5500   -8.3100   22.1620 C   0  0  0  0  0  3  0  0  0  0  0  0
  -22.3740   -8.0780   21.4100 C   0  0  0  0  0  0  0  0  0  0  0  0
  -21.9620   -9.0410   20.4720 C   0  0  0  0  0  3  0  0  0  0  0  0
  -22.6890  -10.2310   20.2970 C   0  0  0  0  0  3  0  0  0  0  0  0
  -21.6160   -6.9360   21.4920 O   0  0  0  0  0  0  0  0  0  0  0  0
  -21.5660   -6.1870   22.6410 C   0  0  0  0  0  0  0  0  0  0  0  0
  -21.1280   -6.7300   23.8690 C   0  0  0  0  0  3  0  0  0  0  0  0
  -21.0250   -5.9050   25.0060 C   0  0  0  0  0  3  0  0  0  0  0  0
  -21.3490   -4.5380   24.9200 C   0  0  0  0  0  0  0  0  0  0  0  0
  -21.7810   -3.9940   23.6970 C   0  0  0  0  0  3  0  0  0  0  0  0
  -21.8850   -4.8160   22.5600 C   0  0  0  0  0  0  0  0  0  0  0  0
  -22.2790   -4.2810   21.3790 F   0  0  0  0  0  0  0  0  0  0  0  0
  -21.2460   -3.7440   26.0100 F   0  0  0  0  0  0  0  0  0  0  0  0
  -22.7310  -13.5760   21.1990 C   0  0  0  0  0  0  0  0  0  0  0  0
  -21.9970  -12.8740   22.0550 N   0  0  0  0  0  0  0  0  0  0  0  0
  -22.2990  -14.6070   20.6850 O   0  0  0  0  0  0  0  0  0  0  0  0
  -22.3580  -12.0420   22.4970 H   0  0  0  0  0  0  0  0  0  0  0  0
  -21.0570  -13.1760   22.2700 H   0  0  0  0  0  0  0  0  0  0  0  0
  -25.3830  -15.2310   20.3850 N   0  0  0  0  0  0  0  0  0  0  0  0
  -24.6410  -15.9120   20.5010 H   0  0  0  0  0  0  0  0  0  0  0  0
  -26.2380  -15.6410   20.0290 H   0  0  0  0  0  0  0  0  0  0  0  0
  1  3  1  0
  1 51  1  0
  2  1  2  0
  3  4  2  0
  5  6  1  0
  5  3  1  0
  7 18  2  0
  8  6  1  0
  8 13  1  0
  9 17  1  0
  9 19  1  0
 10 16  1  0
 10 12  1  0
 11 17  1  0
 12 11  1  0
 13 12  2  0
 14 15  1  0
 14  8  2  0
 15 10  2  0
 16  9  1  0
 17  7  1  0
 19 21  2  0
 20 19  1  0
 22 20  1  0
 23 32  2  0
 23 28  1  0
 24 20  1  0
 24 28  1  0
 25 24  1  0
 26 27  1  0
 26 25  1  0
 27 23  1  0
 28 29  2  0
 29 30  1  0
 31 30  2  0
 32 31  1  0
 33  7  1  0
 33 38  1  0
 33 34  1  0
 34 37  1  1
 34 35  1  0
 36 34  1  0
 38 41  1  0
 39 43  1  0
 39 38  1  0
 40 39  2  0
 43 42  1  0
 45 43  1  0
 45 46  1  0
 45 44  1  0
 47  2  1  0
 48 47  2  0
 49 50  1  0
 50 47  1  0
 51 52  1  0
 52 53  1  0
 54 68  1  0
 55 60  1  0
 56 57  1  0
 56 55  1  0
 58 57  1  0
 58 73  1  0
 58 59  1  0
 60 54  1  0
 60 59  1  0
 61 54  2  0
 62 63  2  0
 62 64  1  0
 63 65  1  0
 64 66  2  0
 65 68  1  0
 65 67  2  0
 66 67  1  0
 66 52  1  0
 68 69  1  0
 70 71  2  0
 71 90  1  0
 72 71  1  0
 72 75  1  0
 73 70  1  0
 73 74  1  0
 74 72  2  0
 75 76  1  0
 76 77  2  0
 78 81  1  0
 78 77  1  0
 79 78  2  0
 80 79  1  0
 80 75  2  0
 81 82  1  0
 82 83  1  0
 83 84  2  0
 85 84  1  0
 85 89  1  0
 86 85  2  0
 87 82  2  0
 87 86  1  0
 88 87  1  0
 90 91  1  0
 91 94  1  0
 91 93  1  0
 92 90  2  0
 95 96  1  0
 95 70  1  0
 97 95  1  0
M  ISO  4   5 101   6 101  54 100  68 100
M  END
>  <TORSDO>  (2) 
F 22

>  <SCORE>  (2) 
-13.514

>  <name>  (2) 
1

>  <ligand_id>  (2) 
1

>  <original_smiles>  (2) 
[H]c1c(N([H])C(=O)N2C([H])([H])C([H])([H])C([H])([H])C([H])(n3nc(-c4c([H])c([H])c(Oc5c([H])c([H])c(F)c([H])c5F)c([H])c4[H])c(C(=O)N([H])[H])c3N([H])[H])C2([H])[H])nc(N([H])C([H])([H])C(=NC(=O)C([H])([H])C([H])([H])[H])C(=O)C([H])([H])Oc2c([H])c([H])c3c(c2[H])C([H])([H])N(C(=O)C([H])(N([H])C(=O)C([H])(N([H])C([H])([H])[H])C([H])([H])[H])C(C([H])([H])[H])(C([H])([H])[H])C([H])([H])[H])C([H])(C(=O)N([H])C2([H])c4c([H])c([H])c([H])c([H])c4C([H])([H])C([H])([H])C2([H])[H])C3([H])[H])c([H])c1[H]

>  <smiles>  (2) 
[H]c1c(N([H])C(=O)N2C([H])([H])C([H])([H])C([H])([H])C([H])(n3nc(-c4c([H])c([H])c(Oc5c([H])c([H])c(F)c([H])c5F)c([H])c4[H])c(C(=O)N([H])[H])c3N([H])[H])C2([H])[H])nc(N([H])C([H])([H])C(=NC(=O)C([H])([H])C([H])([H])[H])C(=O)C([H])([H])Oc2c([H])c([H])c3c(c2[H])C([H])([H])N(C(=O)C([H])(N([H])C(=O)C([H])(N([H])C([H])([H])[H])C([H])([H])[H])C(C([H])([H])[H])(C([H])([H])[H])C([H])([H])[H])C([H])(C(=O)N([H])C2([H])c4c([H])c([H])c([H])c([H])c4C([H])([H])C([H])([H])C2([H])[H])C3([H])[H])c([H])c1[H]

$$$$
2:0:0
     RDKit          3D

100108  0  0  1  0  0  0  0  0999 V2000
  -28.9430  -17.7960   20.2470 C   0  0  0  0  0  0  0  0  0  0  0  0
  -27.7330  -18.0870   19.6510 C   0  0  0  0  0  0  0  0  0  0  0  0
  -28.6590  -19.9530   21.0090 C   0  0  0  0  0  0  0  0  0  0  0  0
  -29.4240  -18.8520   21.0430 N   0  0  0  0  0  0  0  0  0  0  0  0
  -27.1340  -19.6470   20.1420 S   0  0  0  0  0  0  0  0  0  0  0  0
  -27.0340  -17.3640   18.6900 N   0  0  0  0  0  0  0  0  0  0  0  0
  -27.2200  -17.6370   17.7310 H   0  0  0  0  0  0  0  0  0  0  0  0
  -26.0330  -17.5110   18.7810 H   0  0  0  0  0  0  0  0  0  0  0  0
  -28.5620  -22.2440   20.9260 C   0  0  0  0  0  3  0  0  0  0  0  0
  -29.0390  -21.1780   21.4640 N   0  0  0  0  0  0  0  0  0  0  0  0
  -29.1050  -23.6520   21.0880 C   0  0  0  0  0  0  0  0  0  0  0  0
  -30.2130  -23.8260   21.6170 O   0  0  0  0  0  0  0  0  0  0  0  0
  -29.0210  -25.8100   19.9480 C   0  0  0  0  0  3  0  0  0  0  0  0
  -28.3340  -24.8040   20.5340 C   0  0  0  0  0  0  0  0  0  0  0  0
  -26.9980  -24.7810   20.6710 O   0  0  0  0  0  0  0  0  0  0  0  0
  -26.7980  -24.1770   21.3820 H   0  0  0  0  0  0  0  0  0  0  0  0
  -28.5840  -26.9590   19.3170 O   0  0  0  0  0  0  0  0  0  0  0  0
  -24.7240  -31.5420   23.1690 C   0  0  0  0  0  0  0  0  0  0  0  0
  -27.3730  -27.5730   19.5300 C   0  0  0  0  0  0  0  0  0  0  0  0
  -23.4930  -30.2990   21.4100 C   0  0  0  0  0  3  0  0  0  0  0  0
  -24.9410  -28.9840   19.7770 C   0  0  0  0  0  0  0  0  0  0  0  0
  -25.9970  -30.7750   21.1730 C   0  0  0  0  0  2  0  0  0  0  0  0
  -26.0980  -29.4790   20.3930 C   0  0  0  0  0  0  0  0  0  0  0  0
  -27.3150  -28.7730   20.2730 C   0  0  0  0  0  3  0  0  0  0  0  0
  -26.2110  -27.1180   18.8800 C   0  0  0  0  0  3  0  0  0  0  0  0
  -24.9860  -27.7970   19.0250 C   0  0  0  0  0  3  0  0  0  0  0  0
  -23.6730  -29.7940   19.9510 C   0  0  0  0  0  2  0  0  0  0  0  0
  -24.7530  -30.8860   21.9730 N   0  0  0  0  0  0  0  0  0  0  0  0
  -23.6560  -31.7180   23.7690 O   0  0  0  0  0  0  0  0  0  0  0  0
  -22.8990  -29.1630   22.2710 C   0  0  0  0  0  0  0  0  0  0  0  0
  -21.5800  -28.9520   22.1470 N   0  0  0  0  0  0  0  0  0  0  0  0
  -23.6200  -28.4800   22.9990 O   0  0  0  0  0  0  0  0  0  0  0  0
  -21.0650  -29.5380   21.5080 H   0  0  0  0  0  0  0  0  0  0  0  0
  -18.2640  -27.5900   22.5710 C   0  0  0  0  0  0  0  0  0  0  0  0
  -20.8080  -27.9060   22.8260 C   0  0  0  0  0  3  0  0  0  0  0  0
  -20.9470  -26.5460   22.0990 C   0  0  0  0  0  2  0  0  0  0  0  0
  -19.8440  -26.3060   21.0670 C   0  0  0  0  0  2  0  0  0  0  0  0
  -18.4720  -26.3340   21.7470 C   0  0  0  0  0  2  0  0  0  0  0  0
  -19.3660  -28.3410   23.0600 C   0  0  0  0  0  0  0  0  0  0  0  0
  -19.1260  -29.5360   23.7800 C   0  0  0  0  0  3  0  0  0  0  0  0
  -17.8070  -29.9690   24.0190 C   0  0  0  0  0  3  0  0  0  0  0  0
  -16.7280  -29.2010   23.5580 C   0  0  0  0  0  3  0  0  0  0  0  0
  -16.9500  -28.0180   22.8390 C   0  0  0  0  0  3  0  0  0  0  0  0
  -26.0120  -32.1330   23.8170 C   0  0  0  0  0  3  0  0  0  0  0  0
  -25.6890  -33.4800   24.3120 N   0  0  0  0  0  0  0  0  0  0  0  0
  -25.9870  -34.6180   23.6700 C   0  0  0  0  0  0  0  0  0  0  0  0
  -26.6410  -34.6450   22.6240 O   0  0  0  0  0  0  0  0  0  0  0  0
  -25.1060  -33.5290   25.1340 H   0  0  0  0  0  0  0  0  0  0  0  0
  -24.2180  -36.3970   23.5540 C   0  0  0  0  0  1  0  0  0  0  0  0
  -25.4850  -35.9340   24.2910 C   0  0  0  0  0  3  0  0  0  0  0  0
  -27.6190  -36.7670   25.1730 C   0  0  0  0  0  1  0  0  0  0  0  0
  -26.4930  -37.0160   24.2740 N   0  0  0  0  0  0  0  0  0  0  0  0
  -26.0710  -37.9040   24.5340 H   0  0  0  0  0  0  0  0  0  0  0  0
  -26.5940  -31.2370   24.9800 C   0  0  1  0  0  0  0  0  0  0  0  0
  -25.5430  -30.8600   26.0500 C   0  0  0  0  0  1  0  0  0  0  0  0
  -27.1830  -29.9240   24.4130 C   0  0  0  0  0  1  0  0  0  0  0  0
  -27.7560  -31.9740   25.6840 C   0  0  0  0  0  1  0  0  0  0  0  0
  -29.8600  -16.6450   19.8720 C   0  0  0  0  0  3  0  0  0  0  0  0
  -30.7800  -14.5120   20.7100 C   0  0  0  0  0  0  0  0  0  0  0  0
  -30.6830  -12.2030   19.8940 C   0  0  0  0  0  2  0  0  0  0  0  0
  -29.8300  -12.2530   18.6040 C   0  0  0  0  0  2  0  0  0  0  0  0
  -28.3190  -12.1600   18.9180 C   0  0  0  0  0  2  0  0  0  0  0  0
  -27.8830  -13.1320   20.0410 C   0  0  0  0  0  3  0  0  0  0  0  0
  -28.8390  -13.0260   21.2500 C   0  0  0  0  0  2  0  0  0  0  0  0
  -30.2040  -13.2870   20.7700 N   0  0  0  0  0  0  0  0  0  0  0  0
  -31.9290  -14.7010   20.2870 O   0  0  0  0  0  0  0  0  0  0  0  0
  -29.9230  -15.5370   20.8430 N   0  0  0  0  0  0  0  0  0  0  0  0
  -29.0350  -15.3080   21.2650 H   0  0  0  0  0  0  0  0  0  0  0  0
  -25.4640  -13.8470   20.5750 C   0  0  0  0  0  0  0  0  0  0  0  0
  -24.3500  -13.1200   20.8950 C   0  0  0  0  0  0  0  0  0  0  0  0
  -24.7700  -11.7530   20.9270 C   0  0  0  0  0  0  0  0  0  0  0  0
  -26.4920  -12.9240   20.4300 N   0  0  0  0  0  0  0  0  0  0  0  0
  -26.0730  -11.6630   20.6990 N   0  0  0  0  0  0  0  0  0  0  0  0
  -23.9980  -10.5140   21.1080 C   0  0  0  0  0  0  0  0  0  0  0  0
  -24.3660   -9.5400   22.0610 C   0  0  0  0  0  3  0  0  0  0  0  0
  -23.5940   -8.3690   22.2190 C   0  0  0  0  0  3  0  0  0  0  0  0
  -22.4430   -8.1640   21.4240 C   0  0  0  0  0  0  0  0  0  0  0  0
  -22.0990   -9.1240   20.4580 C   0  0  0  0  0  3  0  0  0  0  0  0
  -22.8700  -10.2880   20.2980 C   0  0  0  0  0  3  0  0  0  0  0  0
  -21.6510   -7.0450   21.4930 O   0  0  0  0  0  0  0  0  0  0  0  0
  -21.5710   -6.2920   22.6390 C   0  0  0  0  0  0  0  0  0  0  0  0
  -21.1520   -6.8470   23.8690 C   0  0  0  0  0  3  0  0  0  0  0  0
  -21.0250   -6.0220   25.0040 C   0  0  0  0  0  3  0  0  0  0  0  0
  -21.2980   -4.6450   24.9100 C   0  0  0  0  0  0  0  0  0  0  0  0
  -21.7040   -4.0910   23.6840 C   0  0  0  0  0  3  0  0  0  0  0  0
  -21.8390   -4.9120   22.5520 C   0  0  0  0  0  0  0  0  0  0  0  0
  -22.2170   -4.3720   21.3690 F   0  0  0  0  0  0  0  0  0  0  0  0
  -21.1620   -3.8510   25.9960 F   0  0  0  0  0  0  0  0  0  0  0  0
  -22.9550  -13.6470   21.0610 C   0  0  0  0  0  0  0  0  0  0  0  0
  -22.1510  -12.9980   21.9040 N   0  0  0  0  0  0  0  0  0  0  0  0
  -22.5870  -14.6720   20.4910 O   0  0  0  0  0  0  0  0  0  0  0  0
  -22.4570  -12.1760   22.3970 H   0  0  0  0  0  0  0  0  0  0  0  0
  -21.2140  -13.3400   22.0640 H   0  0  0  0  0  0  0  0  0  0  0  0
  -25.6850  -15.2000   20.3770 N   0  0  0  0  0  0  0  0  0  0  0  0
  -24.9410  -15.8860   20.4230 H   0  0  0  0  0  0  0  0  0  0  0  0
  -26.5280  -15.6090   19.9650 H   0  0  0  0  0  0  0  0  0  0  0  0
  -30.9100  -17.9620   18.0440 C   0  0  0  0  0  1  0  0  0  0  0  0
  -31.1000  -17.2320   19.3250 N   0  0  0  0  0  4  0  0  0  0  0  0
  -31.4830  -17.8480   20.0260 H   0  0  0  0  0  0  0  0  0  0  0  0
  -31.7610  -16.4830   19.1870 H   0  0  0  0  0  0  0  0  0  0  0  0
  1  4  1  0
  2  5  1  0
  2  1  2  0
  3  4  2  0
  3 10  1  0
  5  3  1  0
  6  8  1  0
  6  2  1  0
  7  6  1  0
  9 11  1  0
  9 10  2  0
 11 12  2  0
 13 14  2  0
 14 15  1  0
 14 11  1  0
 15 16  1  0
 17 19  1  0
 17 13  1  0
 18 29  2  0
 19 24  1  0
 20 28  1  0
 20 30  1  0
 21 27  1  0
 21 23  1  0
 22 28  1  0
 23 22  1  0
 24 23  2  0
 25 26  1  0
 25 19  2  0
 26 21  2  0
 27 20  1  0
 28 18  1  0
 30 32  2  0
 31 30  1  0
 33 31  1  0
 34 43  2  0
 34 39  1  0
 35 31  1  0
 35 39  1  0
 36 35  1  0
 37 38  1  0
 37 36  1  0
 38 34  1  0
 39 40  2  0
 40 41  1  0
 42 41  2  0
 43 42  1  0
 44 18  1  0
 44 45  1  0
 44 54  1  0
 45 48  1  0
 46 50  1  0
 46 45  1  0
 47 46  2  0
 50 49  1  0
 52 50  1  0
 52 53  1  0
 52 51  1  0
 54 57  1  1
 54 55  1  0
 56 54  1  0
 58  1  1  0
 58 67  1  0
 59 65  1  0
 59 67  1  0
 60 65  1  0
 61 62  1  0
 61 60  1  0
 63 62  1  0
 63 72  1  0
 63 64  1  0
 65 64  1  0
 66 59  2  0
 67 68  1  0
 69 70  2  0
 70 71  1  0
 70 89  1  0
 71 74  1  0
 72 69  1  0
 72 73  1  0
 73 71  2  0
 74 75  1  0
 75 76  2  0
 77 80  1  0
 77 76  1  0
 78 77  2  0
 79 78  1  0
 79 74  2  0
 80 81  1  0
 81 82  1  0
 82 83  2  0
 84 83  1  0
 84 88  1  0
 85 84  2  0
 86 81  2  0
 86 85  1  0
 87 86  1  0
 89 90  1  0
 90 93  1  0
 90 92  1  0
 91 89  2  0
 94 95  1  0
 94 69  1  0
 96 94  1  0
 97 98  1  0
 98 58  1  0
 98 99  1  0
100 98  1  0
M  ISO  4  13 101  17 101  59 100  67 100
M  END
>  <TORSDO>  (3) 
F 23

>  <SCORE>  (3) 
-11.319

>  <name>  (3) 
2

>  <ligand_id>  (3) 
2

>  <original_smiles>  (3) 
[H]OC(C(=O)C([H])=Nc1nc(C([H])(N([H])C(=O)N2C([H])([H])C([H])([H])C([H])([H])C([H])(n3nc(-c4c([H])c([H])c(Oc5c([H])c([H])c(F)c([H])c5F)c([H])c4[H])c(C(=O)N([H])[H])c3N([H])[H])C2([H])[H])[N+]([H])([H])C([H])([H])[H])c(N([H])[H])s1)=C([H])Oc1c([H])c([H])c2c(c1[H])C([H])([H])N(C(=O)C([H])(N([H])C(=O)C([H])(N([H])C([H])([H])[H])C([H])([H])[H])C(C([H])([H])[H])(C([H])([H])[H])C([H])([H])[H])C([H])(C(=O)N([H])C1([H])c3c([H])c([H])c([H])c([H])c3C([H])([H])C([H])([H])C1([H])[H])C2([H])[H]

>  <smiles>  (3) 
[H]OC(C(=O)C([H])=Nc1nc(C([H])(N([H])C(=O)N2C([H])([H])C([H])([H])C([H])([H])C([H])(n3nc(-c4c([H])c([H])c(Oc5c([H])c([H])c(F)c([H])c5F)c([H])c4[H])c(C(=O)N([H])[H])c3N([H])[H])C2([H])[H])[N+]([H])([H])C([H])([H])[H])c(N([H])[H])s1)=C([H])Oc1c([H])c([H])c2c(c1[H])C([H])([H])N(C(=O)C([H])(N([H])C(=O)C([H])(N([H])C([H])([H])[H])C([H])([H])[H])C(C([H])([H])[H])(C([H])([H])[H])C([H])([H])[H])C([H])(C(=O)N([H])C1([H])c3c([H])c([H])c([H])c([H])c3C([H])([H])C([H])([H])C1([H])[H])C2([H])[H]

$$$$
3:0:0
     RDKit          3D

 98107  0  0  1  0  0  0  0  0999 V2000
  -30.0150  -20.2380   18.2940 C   0  0  0  0  0  0  0  0  0  0  0  0
  -28.6200  -19.8320   17.8420 C   0  0  0  0  0  2  0  0  0  0  0  0
  -27.5530  -20.8180   18.3550 C   0  0  0  0  0  2  0  0  0  0  0  0
  -27.7210  -21.1510   19.8560 C   0  0  0  0  0  2  0  0  0  0  0  0
  -30.1270  -20.5650   19.7920 C   0  0  0  0  0  3  0  0  0  0  0  0
  -30.9870  -20.3470   17.4880 N   0  0  0  0  0  0  0  0  0  0  0  0
  -29.1030  -21.6180   20.1670 N   0  0  1  0  0  4  0  0  0  0  0  0
  -30.7240  -20.1090   16.5370 H   0  0  0  0  0  0  0  0  0  0  0  0
  -29.1550  -21.7410   21.1660 H   0  0  0  0  0  0  0  0  0  0  0  0
  -30.6150  -14.5690   20.4570 C   0  0  0  0  0  0  0  0  0  0  0  0
  -30.3690  -12.3740   19.3410 C   0  0  0  0  0  2  0  0  0  0  0  0
  -29.4340  -12.5160   18.1230 C   0  0  0  0  0  2  0  0  0  0  0  0
  -27.9630  -12.3590   18.5460 C   0  0  0  0  0  2  0  0  0  0  0  0
  -27.5940  -13.2420   19.7640 C   0  0  0  0  0  3  0  0  0  0  0  0
  -28.6350  -13.0770   20.8940 C   0  0  0  0  0  2  0  0  0  0  0  0
  -29.9600  -13.3810   20.3310 N   0  0  0  0  0  0  0  0  0  0  0  0
  -31.7920  -14.7140   20.1220 O   0  0  0  0  0  0  0  0  0  0  0  0
  -30.9760  -19.4370   21.9340 C   0  0  0  0  0  3  0  0  0  0  0  0
  -30.9370  -17.1520   22.2530 C   0  0  0  0  0  3  0  0  0  0  0  0
  -30.2600  -19.3110   20.7190 C   0  0  0  0  0  0  0  0  0  0  0  0
  -30.2140  -16.9660   21.0480 C   0  0  0  0  0  0  0  0  0  0  0  0
  -31.3030  -18.3740   22.7040 N   0  0  0  0  0  0  0  0  0  0  0  0
  -29.8520  -18.0640   20.3040 N   0  0  0  0  0  0  0  0  0  0  0  0
  -29.8170  -15.6320   20.7230 N   0  0  0  0  0  0  0  0  0  0  0  0
  -28.8320  -15.4380   20.7820 H   0  0  0  0  0  0  0  0  0  0  0  0
  -25.1910  -13.8640   20.4400 C   0  0  0  0  0  0  0  0  0  0  0  0
  -24.1180  -13.0970   20.8030 C   0  0  0  0  0  0  0  0  0  0  0  0
  -24.5790  -11.7450   20.7990 C   0  0  0  0  0  0  0  0  0  0  0  0
  -26.2370  -12.9770   20.2340 N   0  0  0  0  0  0  0  0  0  0  0  0
  -25.8740  -11.7000   20.5130 N   0  0  0  0  0  0  0  0  0  0  0  0
  -23.8500  -10.4850   20.9950 C   0  0  0  0  0  0  0  0  0  0  0  0
  -24.2640   -9.5370   21.9530 C   0  0  0  0  0  3  0  0  0  0  0  0
  -23.5410   -8.3360   22.1330 C   0  0  0  0  0  3  0  0  0  0  0  0
  -22.3870   -8.0810   21.3550 C   0  0  0  0  0  0  0  0  0  0  0  0
  -21.9900   -9.0220   20.3870 C   0  0  0  0  0  3  0  0  0  0  0  0
  -22.7150  -10.2110   20.2060 C   0  0  0  0  0  3  0  0  0  0  0  0
  -21.6340   -6.9360   21.4460 O   0  0  0  0  0  0  0  0  0  0  0  0
  -21.5640   -6.2120   22.6080 C   0  0  0  0  0  0  0  0  0  0  0  0
  -21.1080   -6.7840   23.8150 C   0  0  0  0  0  3  0  0  0  0  0  0
  -20.9820   -5.9860   24.9690 C   0  0  0  0  0  3  0  0  0  0  0  0
  -21.3040   -4.6160   24.9180 C   0  0  0  0  0  0  0  0  0  0  0  0
  -21.7540   -4.0420   23.7160 C   0  0  0  0  0  3  0  0  0  0  0  0
  -21.8790   -4.8390   22.5630 C   0  0  0  0  0  0  0  0  0  0  0  0
  -22.2930   -4.2780   21.4010 F   0  0  0  0  0  0  0  0  0  0  0  0
  -21.1750   -3.8460   26.0230 F   0  0  0  0  0  0  0  0  0  0  0  0
  -22.7160  -13.5780   21.0440 C   0  0  0  0  0  0  0  0  0  0  0  0
  -21.9710  -12.8900   21.9000 N   0  0  0  0  0  0  0  0  0  0  0  0
  -22.2900  -14.6020   20.5120 O   0  0  0  0  0  0  0  0  0  0  0  0
  -22.3260  -12.0590   22.3540 H   0  0  0  0  0  0  0  0  0  0  0  0
  -21.0320  -13.1970   22.1070 H   0  0  0  0  0  0  0  0  0  0  0  0
  -25.3640  -15.2320   20.2430 N   0  0  0  0  0  0  0  0  0  0  0  0
  -24.5970  -15.8900   20.3190 H   0  0  0  0  0  0  0  0  0  0  0  0
  -26.2060  -15.6480   19.8690 H   0  0  0  0  0  0  0  0  0  0  0  0
  -29.4280  -22.9810   19.5860 C   0  0  0  0  0  2  0  0  0  0  0  0
  -28.6600  -24.1800   20.2170 C   0  0  0  0  0  0  0  0  0  0  0  0
  -28.1250  -24.0850   21.3280 O   0  0  0  0  0  0  0  0  0  0  0  0
  -28.6200  -25.5010   19.3910 C   0  0  0  0  0  2  0  0  0  0  0  0
  -28.4180  -26.7030   20.1800 O   0  0  0  0  0  0  0  0  0  0  0  0
  -24.5940  -31.8850   23.2320 C   0  0  0  0  0  0  0  0  0  0  0  0
  -27.2320  -27.4220   20.1320 C   0  0  0  0  0  0  0  0  0  0  0  0
  -23.3850  -30.4870   21.5890 C   0  0  0  0  0  3  0  0  0  0  0  0
  -24.8350  -28.9530   20.1510 C   0  0  0  0  0  0  0  0  0  0  0  0
  -25.9110  -30.8400   21.3870 C   0  0  0  0  0  2  0  0  0  0  0  0
  -25.9950  -29.4680   20.7390 C   0  0  0  0  0  0  0  0  0  0  0  0
  -27.1910  -28.7100   20.7260 C   0  0  0  0  0  3  0  0  0  0  0  0
  -26.0440  -26.9230   19.5460 C   0  0  0  0  0  3  0  0  0  0  0  0
  -24.8570  -27.6820   19.5490 C   0  0  0  0  0  3  0  0  0  0  0  0
  -23.5890  -29.8110   20.2050 C   0  0  0  0  0  2  0  0  0  0  0  0
  -24.6480  -31.0870   22.1270 N   0  0  0  0  0  0  0  0  0  0  0  0
  -23.5140  -32.1540   23.7760 O   0  0  0  0  0  0  0  0  0  0  0  0
  -22.7370  -29.4620   22.5500 C   0  0  0  0  0  0  0  0  0  0  0  0
  -21.4100  -29.2820   22.4320 N   0  0  0  0  0  0  0  0  0  0  0  0
  -23.4260  -28.8290   23.3540 O   0  0  0  0  0  0  0  0  0  0  0  0
  -20.9150  -29.8500   21.7590 H   0  0  0  0  0  0  0  0  0  0  0  0
  -18.0380  -28.0930   22.9450 C   0  0  0  0  0  0  0  0  0  0  0  0
  -20.5980  -28.3420   23.2020 C   0  0  0  0  0  3  0  0  0  0  0  0
  -20.6900  -26.9110   22.6190 C   0  0  0  0  0  2  0  0  0  0  0  0
  -19.5810  -26.6000   21.6090 C   0  0  0  0  0  2  0  0  0  0  0  0
  -18.2040  -26.7470   22.2600 C   0  0  0  0  0  2  0  0  0  0  0  0
  -19.1610  -28.8490   23.3730 C   0  0  0  0  0  0  0  0  0  0  0  0
  -18.9510  -30.1100   23.9720 C   0  0  0  0  0  3  0  0  0  0  0  0
  -17.6480  -30.6130   24.1490 C   0  0  0  0  0  3  0  0  0  0  0  0
  -16.5390  -29.8530   23.7390 C   0  0  0  0  0  3  0  0  0  0  0  0
  -16.7350  -28.5950   23.1430 C   0  0  0  0  0  3  0  0  0  0  0  0
  -25.8810  -32.5180   23.8470 C   0  0  0  0  0  3  0  0  0  0  0  0
  -26.4060  -31.7450   25.1200 C   0  0  1  0  0  0  0  0  0  0  0  0
  -25.3210  -31.5120   26.1970 C   0  0  0  0  0  1  0  0  0  0  0  0
  -26.9790  -30.3650   24.7230 C   0  0  0  0  0  1  0  0  0  0  0  0
  -27.5620  -32.5360   25.7750 C   0  0  0  0  0  1  0  0  0  0  0  0
  -25.5710  -33.9160   24.1810 N   0  0  0  0  0  0  0  0  0  0  0  0
  -25.9010  -34.9700   23.4230 C   0  0  0  0  0  0  0  0  0  0  0  0
  -26.5670  -34.8690   22.3900 O   0  0  0  0  0  0  0  0  0  0  0  0
  -24.9790  -34.0670   24.9850 H   0  0  0  0  0  0  0  0  0  0  0  0
  -24.1750  -36.7650   23.0690 C   0  0  0  0  0  1  0  0  0  0  0  0
  -25.4130  -36.3570   23.8830 C   0  0  0  0  0  3  0  0  0  0  0  0
  -27.5490  -37.2360   24.7190 C   0  0  0  0  0  1  0  0  0  0  0  0
  -26.4460  -37.4100   23.7780 N   0  0  0  0  0  0  0  0  0  0  0  0
  -26.0400  -38.3290   23.9320 H   0  0  0  0  0  0  0  0  0  0  0  0
  1  5  1  0
  2  1  1  0
  2  3  1  0
  3  4  1  0
  4  7  1  0
  5  7  1  0
  5 20  1  0
  6  1  2  0
  7  9  1  1
  8  6  1  0
 10 24  1  0
 11 16  1  0
 12 13  1  0
 12 11  1  0
 14 13  1  0
 14 29  1  0
 14 15  1  0
 16 10  1  0
 16 15  1  0
 17 10  2  0
 18 22  1  0
 19 22  2  0
 20 18  2  0
 21 19  1  0
 23 20  1  0
 23 21  2  0
 24 25  1  0
 24 21  1  0
 26 27  2  0
 27 46  1  0
 28 27  1  0
 28 31  1  0
 29 26  1  0
 29 30  1  0
 30 28  2  0
 31 32  1  0
 32 33  2  0
 34 37  1  0
 34 33  1  0
 35 34  2  0
 36 35  1  0
 36 31  2  0
 37 38  1  0
 38 39  1  0
 39 40  2  0
 41 40  1  0
 41 45  1  0
 42 41  2  0
 43 38  2  0
 43 42  1  0
 44 43  1  0
 46 47  1  0
 47 50  1  0
 47 49  1  0
 48 46  2  0
 51 52  1  0
 51 26  1  0
 53 51  1  0
 54  7  1  0
 54 55  1  0
 55 56  2  0
 57 58  1  0
 57 55  1  0
 59 70  2  0
 60 58  1  0
 60 65  1  0
 61 69  1  0
 61 71  1  0
 62 68  1  0
 62 64  1  0
 63 69  1  0
 64 63  1  0
 65 64  2  0
 66 67  1  0
 66 60  2  0
 67 62  2  0
 68 61  1  0
 69 59  1  0
 71 73  2  0
 72 71  1  0
 74 72  1  0
 75 84  2  0
 75 80  1  0
 76 72  1  0
 76 80  1  0
 77 76  1  0
 78 79  1  0
 78 77  1  0
 79 75  1  0
 80 81  2  0
 81 82  1  0
 83 82  2  0
 84 83  1  0
 85 59  1  0
 85 90  1  0
 85 86  1  0
 86 89  1  1
 86 87  1  0
 88 86  1  0
 90 93  1  0
 91 95  1  0
 91 90  1  0
 92 91  2  0
 95 94  1  0
 97 95  1  0
 97 98  1  0
 97 96  1  0
M  ISO  4  10 100  24 100  57 101  58 101
M  END
>  <TORSDO>  (4) 
F 19

>  <SCORE>  (4) 
-14.343

>  <name>  (4) 
3

>  <ligand_id>  (4) 
3

>  <original_smiles>  (4) 
[H]N=C1C([H])([H])C([H])([H])C([H])([H])[N+]([H])(C([H])([H])C(=O)C([H])([H])Oc2c([H])c([H])c3c(c2[H])C([H])([H])N(C(=O)C([H])(N([H])C(=O)C([H])(N([H])C([H])([H])[H])C([H])([H])[H])C(C([H])([H])[H])(C([H])([H])[H])C([H])([H])[H])C([H])(C(=O)N([H])C2([H])c4c([H])c([H])c([H])c([H])c4C([H])([H])C([H])([H])C2([H])[H])C3([H])[H])C1([H])c1nc(N([H])C(=O)N2C([H])([H])C([H])([H])C([H])([H])C([H])(n3nc(-c4c([H])c([H])c(Oc5c([H])c([H])c(F)c([H])c5F)c([H])c4[H])c(C(=O)N([H])[H])c3N([H])[H])C2([H])[H])c([H])nc1[H]

>  <smiles>  (4) 
[H]N=C1C([H])([H])C([H])([H])C([H])([H])[N+]([H])(C([H])([H])C(=O)C([H])([H])Oc2c([H])c([H])c3c(c2[H])C([H])([H])N(C(=O)C([H])(N([H])C(=O)C([H])(N([H])C([H])([H])[H])C([H])([H])[H])C(C([H])([H])[H])(C([H])([H])[H])C([H])([H])[H])C([H])(C(=O)N([H])C2([H])c4c([H])c([H])c([H])c([H])c4C([H])([H])C([H])([H])C2([H])[H])C3([H])[H])C1([H])c1nc(N([H])C(=O)N2C([H])([H])C([H])([H])C([H])([H])C([H])(n3nc(-c4c([H])c([H])c(Oc5c([H])c([H])c(F)c([H])c5F)c([H])c4[H])c(C(=O)N([H])[H])c3N([H])[H])C2([H])[H])c([H])nc1[H]

$$$$
4:0:0
     RDKit          3D

 96104  0  0  1  0  0  0  0  0999 V2000
  -30.8420  -20.4070   20.9520 C   0  0  0  0  0  0  0  0  0  0  0  0
  -30.3130  -22.8290   20.7010 C   0  0  0  0  0  0  0  0  0  0  0  0
  -30.0400  -21.4260   20.5520 N   0  0  0  0  0  0  0  0  0  0  0  0
  -31.9790  -20.5920   21.6430 N   0  0  0  0  0  4  0  0  0  0  0  0
  -31.3560  -23.2420   21.2260 O   0  0  0  0  0  0  0  0  0  0  0  0
  -29.1830  -21.1040   20.1350 H   0  0  0  0  0  0  0  0  0  0  0  0
  -32.5640  -19.8100   21.8930 H   0  0  0  0  0  0  0  0  0  0  0  0
  -32.2840  -21.5320   21.8640 H   0  0  0  0  0  0  0  0  0  0  0  0
  -30.3970  -17.9210   21.4530 C   0  0  0  0  0  3  0  0  0  0  0  0
  -30.0230  -17.2680   19.3130 C   0  0  0  0  0  3  0  0  0  0  0  0
  -30.1280  -16.8210   20.5980 C   0  0  0  0  0  0  0  0  0  0  0  0
  -30.4930  -19.0340   20.6550 C   0  0  0  0  0  0  0  0  0  0  0  0
  -30.3090  -19.4720   18.1460 C   0  0  0  0  0  1  0  0  0  0  0  0
  -30.2650  -18.6330   19.3340 N   0  0  0  0  0  0  0  0  0  0  0  0
  -30.6680  -14.4520   20.4820 C   0  0  0  0  0  0  0  0  0  0  0  0
  -30.3560  -12.2940   19.3550 C   0  0  0  0  0  2  0  0  0  0  0  0
  -29.4240  -12.5220   18.1460 C   0  0  0  0  0  2  0  0  0  0  0  0
  -27.9440  -12.4120   18.5670 C   0  0  0  0  0  2  0  0  0  0  0  0
  -27.6120  -13.2430   19.8370 C   0  0  0  0  0  3  0  0  0  0  0  0
  -28.6610  -12.9990   20.9460 C   0  0  0  0  0  2  0  0  0  0  0  0
  -29.9930  -13.2760   20.3850 N   0  0  0  0  0  0  0  0  0  0  0  0
  -31.7950  -14.6240   20.0090 O   0  0  0  0  0  0  0  0  0  0  0  0
  -29.9760  -15.4730   21.0130 N   0  0  0  0  0  0  0  0  0  0  0  0
  -29.1210  -15.2340   21.4930 H   0  0  0  0  0  0  0  0  0  0  0  0
  -25.2070  -13.8620   20.5290 C   0  0  0  0  0  0  0  0  0  0  0  0
  -24.1340  -13.0930   20.8960 C   0  0  0  0  0  0  0  0  0  0  0  0
  -24.5930  -11.7400   20.8720 C   0  0  0  0  0  0  0  0  0  0  0  0
  -26.2530  -12.9780   20.3080 N   0  0  0  0  0  0  0  0  0  0  0  0
  -25.8850  -11.6970   20.5700 N   0  0  0  0  0  0  0  0  0  0  0  0
  -23.8650  -10.4800   21.0650 C   0  0  0  0  0  0  0  0  0  0  0  0
  -24.3040   -9.5060   21.9900 C   0  0  0  0  0  3  0  0  0  0  0  0
  -23.5750   -8.3110   22.1710 C   0  0  0  0  0  3  0  0  0  0  0  0
  -22.3950   -8.0800   21.4280 C   0  0  0  0  0  0  0  0  0  0  0  0
  -21.9740   -9.0420   20.4930 C   0  0  0  0  0  3  0  0  0  0  0  0
  -22.7020  -10.2290   20.3100 C   0  0  0  0  0  3  0  0  0  0  0  0
  -21.6380   -6.9370   21.5180 O   0  0  0  0  0  0  0  0  0  0  0  0
  -21.6100   -6.1810   22.6630 C   0  0  0  0  0  0  0  0  0  0  0  0
  -21.2250   -6.7270   23.9090 C   0  0  0  0  0  3  0  0  0  0  0  0
  -21.1420   -5.8990   25.0440 C   0  0  0  0  0  3  0  0  0  0  0  0
  -21.4350   -4.5260   24.9380 C   0  0  0  0  0  0  0  0  0  0  0  0
  -21.8150   -3.9800   23.6990 C   0  0  0  0  0  3  0  0  0  0  0  0
  -21.8980   -4.8060   22.5650 C   0  0  0  0  0  0  0  0  0  0  0  0
  -22.2430   -4.2720   21.3680 F   0  0  0  0  0  0  0  0  0  0  0  0
  -21.3490   -3.7270   26.0260 F   0  0  0  0  0  0  0  0  0  0  0  0
  -22.7380  -13.5760   21.1580 C   0  0  0  0  0  0  0  0  0  0  0  0
  -22.0040  -12.8890   22.0260 N   0  0  0  0  0  0  0  0  0  0  0  0
  -22.3060  -14.5990   20.6310 O   0  0  0  0  0  0  0  0  0  0  0  0
  -22.3630  -12.0640   22.4810 H   0  0  0  0  0  0  0  0  0  0  0  0
  -21.0680  -13.1990   22.2450 H   0  0  0  0  0  0  0  0  0  0  0  0
  -25.3750  -15.2310   20.3480 N   0  0  0  0  0  0  0  0  0  0  0  0
  -24.6090  -15.8850   20.4660 H   0  0  0  0  0  0  0  0  0  0  0  0
  -26.2290  -15.6710   20.0300 H   0  0  0  0  0  0  0  0  0  0  0  0
  -29.2400  -23.7810   20.1620 C   0  0  0  0  0  2  0  0  0  0  0  0
  -29.8390  -24.9740   19.3850 C   0  0  0  0  0  2  0  0  0  0  0  0
  -28.7920  -26.0260   18.9860 C   0  0  0  0  0  2  0  0  0  0  0  0
  -28.4150  -26.7740   20.1420 O   0  0  0  0  0  0  0  0  0  0  0  0
  -24.5870  -31.8940   23.2340 C   0  0  0  0  0  0  0  0  0  0  0  0
  -27.2260  -27.4700   20.1220 C   0  0  0  0  0  0  0  0  0  0  0  0
  -23.3720  -30.4900   21.5990 C   0  0  0  0  0  3  0  0  0  0  0  0
  -24.8190  -28.9550   20.1670 C   0  0  0  0  0  0  0  0  0  0  0  0
  -25.8940  -30.8520   21.3870 C   0  0  0  0  0  2  0  0  0  0  0  0
  -25.9770  -29.4820   20.7520 C   0  0  0  0  0  0  0  0  0  0  0  0
  -27.1780  -28.7390   20.7390 C   0  0  0  0  0  3  0  0  0  0  0  0
  -26.0430  -26.9430   19.5540 C   0  0  0  0  0  3  0  0  0  0  0  0
  -24.8440  -27.6810   19.5730 C   0  0  0  0  0  3  0  0  0  0  0  0
  -23.5750  -29.8100   20.2190 C   0  0  0  0  0  2  0  0  0  0  0  0
  -24.6370  -31.0940   22.1330 N   0  0  0  0  0  0  0  0  0  0  0  0
  -23.5090  -32.1670   23.7790 O   0  0  0  0  0  0  0  0  0  0  0  0
  -22.7280  -29.4690   22.5630 C   0  0  0  0  0  0  0  0  0  0  0  0
  -21.4030  -29.2870   22.4430 N   0  0  0  0  0  0  0  0  0  0  0  0
  -23.4160  -28.8440   23.3750 O   0  0  0  0  0  0  0  0  0  0  0  0
  -20.9090  -29.8470   21.7620 H   0  0  0  0  0  0  0  0  0  0  0  0
  -18.0320  -28.0950   22.9520 C   0  0  0  0  0  0  0  0  0  0  0  0
  -20.5900  -28.3510   23.2180 C   0  0  0  0  0  3  0  0  0  0  0  0
  -20.6900  -26.9190   22.6440 C   0  0  0  0  0  2  0  0  0  0  0  0
  -19.5860  -26.5960   21.6320 C   0  0  0  0  0  2  0  0  0  0  0  0
  -18.2060  -26.7440   22.2790 C   0  0  0  0  0  2  0  0  0  0  0  0
  -19.1520  -28.8560   23.3790 C   0  0  0  0  0  0  0  0  0  0  0  0
  -18.9360  -30.1210   23.9670 C   0  0  0  0  0  3  0  0  0  0  0  0
  -17.6330  -30.6250   24.1350 C   0  0  0  0  0  3  0  0  0  0  0  0
  -16.5270  -29.8600   23.7250 C   0  0  0  0  0  3  0  0  0  0  0  0
  -16.7280  -28.5970   23.1390 C   0  0  0  0  0  3  0  0  0  0  0  0
  -25.8770  -32.5250   23.8470 C   0  0  0  0  0  3  0  0  0  0  0  0
  -26.4090  -31.7480   25.1140 C   0  0  1  0  0  0  0  0  0  0  0  0
  -25.3290  -31.5040   26.1920 C   0  0  0  0  0  1  0  0  0  0  0  0
  -26.9890  -30.3740   24.7060 C   0  0  0  0  0  1  0  0  0  0  0  0
  -27.5660  -32.5410   25.7670 C   0  0  0  0  0  1  0  0  0  0  0  0
  -25.5690  -33.9210   24.1820 N   0  0  0  0  0  0  0  0  0  0  0  0
  -25.9000  -34.9750   23.4240 C   0  0  0  0  0  0  0  0  0  0  0  0
  -26.5670  -34.8750   22.3900 O   0  0  0  0  0  0  0  0  0  0  0  0
  -24.9730  -34.0730   24.9820 H   0  0  0  0  0  0  0  0  0  0  0  0
  -24.1690  -36.7660   23.0770 C   0  0  0  0  0  1  0  0  0  0  0  0
  -25.4120  -36.3610   23.8850 C   0  0  0  0  0  3  0  0  0  0  0  0
  -27.5500  -37.2430   24.7110 C   0  0  0  0  0  1  0  0  0  0  0  0
  -26.4440  -37.4160   23.7730 N   0  0  0  0  0  0  0  0  0  0  0  0
  -26.0380  -38.3340   23.9270 H   0  0  0  0  0  0  0  0  0  0  0  0
  1  4  2  0
  2  5  2  0
  3  2  1  0
  3  1  1  0
  4  8  1  0
  4  7  1  0
  6  3  1  0
 10 14  1  0
 10 11  2  0
 11 23  1  0
 11  9  1  0
 12  1  1  0
 12  9  2  0
 13 14  1  0
 14 12  1  0
 15 23  1  0
 16 21  1  0
 17 18  1  0
 17 16  1  0
 19 18  1  0
 19 28  1  0
 19 20  1  0
 21 15  1  0
 21 20  1  0
 22 15  2  0
 23 24  1  0
 25 26  2  0
 26 45  1  0
 27 26  1  0
 27 30  1  0
 28 25  1  0
 28 29  1  0
 29 27  2  0
 30 31  1  0
 31 32  2  0
 33 36  1  0
 33 32  1  0
 34 33  2  0
 35 34  1  0
 35 30  2  0
 36 37  1  0
 37 38  1  0
 38 39  2  0
 40 39  1  0
 40 44  1  0
 41 40  2  0
 42 37  2  0
 42 41  1  0
 43 42  1  0
 45 46  1  0
 46 49  1  0
 46 48  1  0
 47 45  2  0
 50 51  1  0
 50 25  1  0
 52 50  1  0
 53  2  1  0
 54 53  1  0
 55 54  1  0
 55 56  1  0
 57 68  2  0
 58 56  1  0
 58 63  1  0
 59 67  1  0
 59 69  1  0
 60 66  1  0
 60 62  1  0
 61 67  1  0
 62 61  1  0
 63 62  2  0
 64 65  1  0
 64 58  2  0
 65 60  2  0
 66 59  1  0
 67 57  1  0
 69 71  2  0
 70 69  1  0
 72 70  1  0
 73 82  2  0
 73 78  1  0
 74 70  1  0
 74 78  1  0
 75 74  1  0
 76 77  1  0
 76 75  1  0
 77 73  1  0
 78 79  2  0
 79 80  1  0
 81 80  2  0
 82 81  1  0
 83 57  1  0
 83 88  1  0
 83 84  1  0
 84 87  1  1
 84 85  1  0
 86 84  1  0
 88 91  1  0
 89 93  1  0
 89 88  1  0
 90 89  2  0
 93 92  1  0
 95 93  1  0
 95 96  1  0
 95 94  1  0
M  ISO  4  15 100  23 100  55 101  56 101
M  END
>  <TORSDO>  (5) 
F 20

>  <SCORE>  (5) 
-14.007

>  <name>  (5) 
4

>  <ligand_id>  (5) 
4

>  <original_smiles>  (5) 
[H]c1c([H])c([H])c2c(c1[H])C([H])([H])C([H])([H])C([H])([H])C2([H])N([H])C(=O)C1([H])N(C(=O)C([H])(N([H])C(=O)C([H])(N([H])C([H])([H])[H])C([H])([H])[H])C(C([H])([H])[H])(C([H])([H])[H])C([H])([H])[H])C([H])([H])c2c([H])c(OC([H])([H])C([H])([H])C([H])([H])C(=O)N([H])C(c3c([H])c(N([H])C(=O)N4C([H])([H])C([H])([H])C([H])([H])C([H])(n5nc(-c6c([H])c([H])c(Oc7c([H])c([H])c(F)c([H])c7F)c([H])c6[H])c(C(=O)N([H])[H])c5N([H])[H])C4([H])[H])c([H])n3C([H])([H])[H])=[N+]([H])[H])c([H])c([H])c2C1([H])[H]

>  <smiles>  (5) 
[H]c1c([H])c([H])c2c(c1[H])C([H])([H])C([H])([H])C([H])([H])C2([H])N([H])C(=O)C1([H])N(C(=O)C([H])(N([H])C(=O)C([H])(N([H])C([H])([H])[H])C([H])([H])[H])C(C([H])([H])[H])(C([H])([H])[H])C([H])([H])[H])C([H])([H])c2c([H])c(OC([H])([H])C([H])([H])C([H])([H])C(=O)N([H])C(c3c([H])c(N([H])C(=O)N4C([H])([H])C([H])([H])C([H])([H])C([H])(n5nc(-c6c([H])c([H])c(Oc7c([H])c([H])c(F)c([H])c7F)c([H])c6[H])c(C(=O)N([H])[H])c5N([H])[H])C4([H])[H])c([H])n3C([H])([H])[H])=[N+]([H])[H])c([H])c([H])c2C1([H])[H]

$$$$
5:0:0
     RDKit          3D

106114  0  0  1  0  0  0  0  0999 V2000
  -29.5060  -25.3910   24.2540 C   0  0  0  0  0  3  0  0  0  0  0  0
  -30.3970  -23.4730   23.0400 C   0  0  0  0  0  3  0  0  0  0  0  0
  -28.9380  -24.5400   25.2240 C   0  0  0  0  0  0  0  0  0  0  0  0
  -30.1910  -24.8690   23.1350 C   0  0  0  0  0  0  0  0  0  0  0  0
  -29.9230  -22.6180   24.0650 C   0  0  0  0  0  0  0  0  0  0  0  0
  -29.1810  -23.1530   25.1390 C   0  0  0  0  0  0  0  0  0  0  0  0
  -28.7250  -22.3140   26.1050 F   0  0  0  0  0  0  0  0  0  0  0  0
  -28.0930  -25.1050   26.3030 C   0  0  0  0  0  0  0  0  0  0  0  0
  -28.4390  -25.0230   27.5210 N   0  0  0  0  0  0  0  0  0  0  0  0
  -29.3130  -24.5210   27.6240 H   0  0  0  0  0  0  0  0  0  0  0  0
  -26.8350  -25.8020   25.7970 C   0  0  0  0  0  0  0  0  0  0  0  0
  -25.6760  -25.9450   26.7760 C   0  0  0  0  0  1  0  0  0  0  0  0
  -26.7170  -26.2580   24.6540 O   0  0  0  0  0  0  0  0  0  0  0  0
  -30.6920  -25.7470   22.1600 N   0  0  0  0  0  0  0  0  0  0  0  0
  -30.8740  -26.6690   22.5430 H   0  0  0  0  0  0  0  0  0  0  0  0
  -29.9410  -25.8880   20.9050 C   0  0  0  0  0  2  0  0  0  0  0  0
  -27.4550  -25.6520   21.3930 C   0  0  0  0  0  1  0  0  0  0  0  0
  -28.7030  -27.7660   22.1240 C   0  0  0  0  0  1  0  0  0  0  0  0
  -28.5870  -26.6550   21.0440 C   0  0  1  0  0  0  0  0  0  0  0  0
  -28.2860  -27.2620   19.7560 O   0  0  0  0  0  0  0  0  0  0  0  0
  -24.4380  -32.0690   23.1930 C   0  0  0  0  0  0  0  0  0  0  0  0
  -27.1230  -28.0050   19.7180 C   0  0  0  0  0  0  0  0  0  0  0  0
  -23.2080  -30.6940   21.5400 C   0  0  0  0  0  3  0  0  0  0  0  0
  -24.6500  -29.3470   19.9240 C   0  0  0  0  0  0  0  0  0  0  0  0
  -25.6830  -31.2440   21.1990 C   0  0  0  0  0  2  0  0  0  0  0  0
  -25.8070  -29.9290   20.4560 C   0  0  0  0  0  0  0  0  0  0  0  0
  -27.0480  -29.2810   20.3130 C   0  0  0  0  0  3  0  0  0  0  0  0
  -25.9570  -27.4480   19.1490 C   0  0  0  0  0  3  0  0  0  0  0  0
  -24.7200  -28.1100   19.2560 C   0  0  0  0  0  3  0  0  0  0  0  0
  -23.3600  -30.1100   20.1100 C   0  0  0  0  0  2  0  0  0  0  0  0
  -24.4650  -31.3430   22.0400 N   0  0  0  0  0  0  0  0  0  0  0  0
  -23.3790  -32.2500   23.8100 O   0  0  0  0  0  0  0  0  0  0  0  0
  -22.6770  -29.5850   22.4750 C   0  0  0  0  0  0  0  0  0  0  0  0
  -21.3880  -29.2460   22.3170 N   0  0  0  0  0  0  0  0  0  0  0  0
  -23.4160  -29.0280   23.2880 O   0  0  0  0  0  0  0  0  0  0  0  0
  -20.8550  -29.7480   21.6230 H   0  0  0  0  0  0  0  0  0  0  0  0
  -18.1900  -27.5890   22.6520 C   0  0  0  0  0  0  0  0  0  0  0  0
  -20.6710  -28.2060   23.0550 C   0  0  0  0  0  3  0  0  0  0  0  0
  -21.0040  -26.8030   22.4960 C   0  0  0  0  0  2  0  0  0  0  0  0
  -20.0120  -26.3280   21.4310 C   0  0  0  0  0  2  0  0  0  0  0  0
  -18.5910  -26.2760   22.0020 C   0  0  0  0  0  2  0  0  0  0  0  0
  -19.1690  -28.5030   23.1290 C   0  0  0  0  0  0  0  0  0  0  0  0
  -18.7480  -29.7230   23.6930 C   0  0  0  0  0  3  0  0  0  0  0  0
  -17.3810  -30.0380   23.7930 C   0  0  0  0  0  3  0  0  0  0  0  0
  -16.4140  -29.1230   23.3340 C   0  0  0  0  0  3  0  0  0  0  0  0
  -16.8210  -27.9030   22.7660 C   0  0  0  0  0  3  0  0  0  0  0  0
  -25.7260  -32.7270   23.7790 C   0  0  0  0  0  3  0  0  0  0  0  0
  -26.3550  -31.9110   24.9750 C   0  0  1  0  0  0  0  0  0  0  0  0
  -25.3440  -31.5820   26.0990 C   0  0  0  0  0  1  0  0  0  0  0  0
  -26.9570  -30.5770   24.4700 C   0  0  0  0  0  1  0  0  0  0  0  0
  -27.5180  -32.7180   25.6010 C   0  0  0  0  0  1  0  0  0  0  0  0
  -25.3690  -34.0870   24.2020 N   0  0  0  0  0  0  0  0  0  0  0  0
  -25.6610  -35.1980   23.5120 C   0  0  0  0  0  0  0  0  0  0  0  0
  -26.3290  -35.1870   22.4730 O   0  0  0  0  0  0  0  0  0  0  0  0
  -24.7580  -34.1660   25.0020 H   0  0  0  0  0  0  0  0  0  0  0  0
  -23.8670  -36.9490   23.2770 C   0  0  0  0  0  1  0  0  0  0  0  0
  -25.1250  -36.5330   24.0600 C   0  0  0  0  0  3  0  0  0  0  0  0
  -27.2210  -37.4370   24.9570 C   0  0  0  0  0  1  0  0  0  0  0  0
  -26.1200  -37.6250   24.0180 N   0  0  0  0  0  0  0  0  0  0  0  0
  -25.6840  -38.5200   24.2210 H   0  0  0  0  0  0  0  0  0  0  0  0
  -30.1670  -21.2390   24.0960 N   0  0  0  0  0  0  0  0  0  0  0  0
  -29.8390  -20.6860   24.8870 H   0  0  0  0  0  0  0  0  0  0  0  0
  -30.8110  -20.4930   23.0220 C   0  0  0  0  0  2  0  0  0  0  0  0
  -30.9200  -19.0080   23.3910 C   0  0  0  0  0  0  0  0  0  0  0  0
  -30.5420  -18.5920   24.4960 O   0  0  0  0  0  0  0  0  0  0  0  0
  -31.4790  -18.0700   22.3220 C   0  0  0  0  0  3  0  0  0  0  0  0
  -32.0650  -17.0110   22.8950 F   0  0  0  0  0  0  0  0  0  0  0  0
  -30.4030  -17.6410   21.2970 C   0  0  0  0  0  2  0  0  0  0  0  0
  -30.7960  -15.2760   20.7320 C   0  0  0  0  0  0  0  0  0  0  0  0
  -30.5830  -13.1880   19.4630 C   0  0  0  0  0  2  0  0  0  0  0  0
  -29.6140  -13.4180   18.2860 C   0  0  0  0  0  2  0  0  0  0  0  0
  -28.1590  -13.1720   18.7270 C   0  0  0  0  0  2  0  0  0  0  0  0
  -27.7920  -13.9140   20.0420 C   0  0  0  0  0  3  0  0  0  0  0  0
  -28.8770  -13.6840   21.1240 C   0  0  0  0  0  2  0  0  0  0  0  0
  -30.1770  -14.0800   20.5570 N   0  0  0  0  0  0  0  0  0  0  0  0
  -31.8810  -15.5570   20.2210 O   0  0  0  0  0  0  0  0  0  0  0  0
  -30.0660  -16.2140   21.3430 N   0  0  0  0  0  0  0  0  0  0  0  0
  -29.1720  -15.9410   21.7240 H   0  0  0  0  0  0  0  0  0  0  0  0
  -25.4080  -14.3250   20.9280 C   0  0  0  0  0  0  0  0  0  0  0  0
  -24.3720  -13.4680   21.1950 C   0  0  0  0  0  0  0  0  0  0  0  0
  -24.8620  -12.1570   20.9160 C   0  0  0  0  0  0  0  0  0  0  0  0
  -26.4630  -13.5260   20.5140 N   0  0  0  0  0  0  0  0  0  0  0  0
  -26.1390  -12.2080   20.5610 N   0  0  0  0  0  0  0  0  0  0  0  0
  -24.1730  -10.8590   20.9060 C   0  0  0  0  0  0  0  0  0  0  0  0
  -24.6140   -9.7830   21.7080 C   0  0  0  0  0  3  0  0  0  0  0  0
  -23.9240   -8.5520   21.6960 C   0  0  0  0  0  3  0  0  0  0  0  0
  -22.7800   -8.3880   20.8800 C   0  0  0  0  0  0  0  0  0  0  0  0
  -22.3590   -9.4550   20.0670 C   0  0  0  0  0  3  0  0  0  0  0  0
  -23.0500  -10.6790   20.0770 C   0  0  0  0  0  3  0  0  0  0  0  0
  -22.0610   -7.2210   20.7860 O   0  0  0  0  0  0  0  0  0  0  0  0
  -21.9590   -6.3500   21.8410 C   0  0  0  0  0  0  0  0  0  0  0  0
  -21.3990   -6.7400   23.0760 C   0  0  0  0  0  3  0  0  0  0  0  0
  -21.2490   -5.7960   24.1110 C   0  0  0  0  0  3  0  0  0  0  0  0
  -21.6510   -4.4610   23.9110 C   0  0  0  0  0  0  0  0  0  0  0  0
  -22.2040   -4.0700   22.6800 C   0  0  0  0  0  3  0  0  0  0  0  0
  -22.3550   -5.0110   21.6470 C   0  0  0  0  0  0  0  0  0  0  0  0
  -22.8700   -4.6230   20.4540 F   0  0  0  0  0  0  0  0  0  0  0  0
  -21.5000   -3.5530   24.9020 F   0  0  0  0  0  0  0  0  0  0  0  0
  -22.9760  -13.8510   21.5920 C   0  0  0  0  0  0  0  0  0  0  0  0
  -22.3010  -13.0010   22.3590 N   0  0  0  0  0  0  0  0  0  0  0  0
  -22.4900  -14.9310   21.2620 O   0  0  0  0  0  0  0  0  0  0  0  0
  -22.7060  -12.1230   22.6460 H   0  0  0  0  0  0  0  0  0  0  0  0
  -21.3670  -13.2370   22.6620 H   0  0  0  0  0  0  0  0  0  0  0  0
  -25.5340  -15.7100   20.9840 N   0  0  0  0  0  0  0  0  0  0  0  0
  -24.7510  -16.3120   21.2120 H   0  0  0  0  0  0  0  0  0  0  0  0
  -26.3550  -16.2230   20.6860 H   0  0  0  0  0  0  0  0  0  0  0  0
  1  3  1  0
  2  4  1  0
  2  5  2  0
  3  8  1  0
  4  1  2  0
  5 61  1  0
  5  6  1  0
  6  3  2  0
  6  7  1  0
  8  9  2  0
  9 10  1  0
 11  8  1  0
 11 12  1  0
 13 11  2  0
 14 15  1  0
 14  4  1  0
 16 19  1  0
 16 14  1  0
 19 17  1  1
 19 18  1  0
 20 19  1  0
 21 32  2  0
 22 20  1  0
 22 27  1  0
 23 31  1  0
 23 33  1  0
 24 30  1  0
 24 26  1  0
 25 31  1  0
 26 25  1  0
 27 26  2  0
 28 29  1  0
 28 22  2  0
 29 24  2  0
 30 23  1  0
 31 21  1  0
 33 35  2  0
 34 33  1  0
 36 34  1  0
 37 46  2  0
 37 42  1  0
 38 34  1  0
 38 42  1  0
 39 38  1  0
 40 41  1  0
 40 39  1  0
 41 37  1  0
 42 43  2  0
 43 44  1  0
 45 44  2  0
 46 45  1  0
 47 21  1  0
 47 52  1  0
 47 48  1  0
 48 51  1  1
 48 49  1  0
 50 48  1  0
 52 55  1  0
 53 57  1  0
 53 52  1  0
 54 53  2  0
 57 56  1  0
 59 57  1  0
 59 60  1  0
 59 58  1  0
 61 62  1  0
 63 64  1  0
 63 61  1  0
 64 65  2  0
 66 67  1  0
 66 64  1  0
 68 77  1  0
 68 66  1  0
 69 77  1  0
 70 75  1  0
 71 72  1  0
 71 70  1  0
 73 72  1  0
 73 82  1  0
 73 74  1  0
 75 69  1  0
 75 74  1  0
 76 69  2  0
 77 78  1  0
 79104  1  0
 79 80  2  0
 80 99  1  0
 81 80  1  0
 82 83  1  0
 82 79  1  0
 83 81  2  0
 84 81  1  0
 84 85  1  0
 86 85  2  0
 87 86  1  0
 88 89  1  0
 88 87  2  0
 89 84  2  0
 90 87  1  0
 90 91  1  0
 91 92  1  0
 92 93  2  0
 94 93  1  0
 94 98  1  0
 95 94  2  0
 96 91  2  0
 96 95  1  0
 97 96  1  0
 99100  1  0
100102  1  0
100103  1  0
101 99  2  0
104105  1  0
106104  1  0
M  ISO  4  19 101  20 101  69 100  77 100
M  END
>  <TORSDO>  (6) 
F 26

>  <SCORE>  (6) 
0.311

>  <name>  (6) 
5

>  <ligand_id>  (6) 
5

>  <original_smiles>  (6) 
[H]N=C(C(=O)C([H])([H])[H])c1c([H])c(N([H])C([H])([H])C(Oc2c([H])c([H])c3c(c2[H])C([H])([H])N(C(=O)C([H])(N([H])C(=O)C([H])(N([H])C([H])([H])[H])C([H])([H])[H])C(C([H])([H])[H])(C([H])([H])[H])C([H])([H])[H])C([H])(C(=O)N([H])C2([H])c4c([H])c([H])c([H])c([H])c4C([H])([H])C([H])([H])C2([H])[H])C3([H])[H])(C([H])([H])[H])C([H])([H])[H])c([H])c(N([H])C([H])([H])C(=O)C([H])(F)C([H])([H])N([H])C(=O)N2C([H])([H])C([H])([H])C([H])([H])C([H])(n3nc(-c4c([H])c([H])c(Oc5c([H])c([H])c(F)c([H])c5F)c([H])c4[H])c(C(=O)N([H])[H])c3N([H])[H])C2([H])[H])c1F

>  <smiles>  (6) 
[H]N=C(C(=O)C([H])([H])[H])c1c([H])c(N([H])C([H])([H])C(Oc2c([H])c([H])c3c(c2[H])C([H])([H])N(C(=O)C([H])(N([H])C(=O)C([H])(N([H])C([H])([H])[H])C([H])([H])[H])C(C([H])([H])[H])(C([H])([H])[H])C([H])([H])[H])C([H])(C(=O)N([H])C2([H])c4c([H])c([H])c([H])c([H])c4C([H])([H])C([H])([H])C2([H])[H])C3([H])[H])(C([H])([H])[H])C([H])([H])[H])c([H])c(N([H])C([H])([H])C(=O)C([H])(F)C([H])([H])N([H])C(=O)N2C([H])([H])C([H])([H])C([H])([H])C([H])(n3nc(-c4c([H])c([H])c(Oc5c([H])c([H])c(F)c([H])c5F)c([H])c4[H])c(C(=O)N([H])[H])c3N([H])[H])C2([H])[H])c1F

$$$$
6:0:0
     RDKit          3D

 96105  0  0  1  0  0  0  0  0999 V2000
  -31.4990  -19.0010   20.0400 C   0  0  0  0  0  3  0  0  0  0  0  0
  -31.4230  -17.6020   20.1790 C   0  0  0  0  0  3  0  0  0  0  0  0
  -29.0970  -17.8020   20.8590 C   0  0  0  0  0  3  0  0  0  0  0  0
  -30.3750  -19.8080   20.3010 C   0  0  0  0  0  0  0  0  0  0  0  0
  -29.1740  -19.2130   20.7190 C   0  0  0  0  0  0  0  0  0  0  0  0
  -30.2140  -16.9750   20.5780 C   0  0  0  0  0  0  0  0  0  0  0  0
  -27.9970  -21.4800   20.3280 C   0  0  0  0  0  0  0  0  0  0  0  0
  -29.2600  -23.1880   19.2340 C   0  0  0  0  0  0  0  0  0  0  0  0
  -27.9900  -20.1140   21.0580 C   0  0  0  0  0  2  0  0  0  0  0  0
  -30.4640  -21.3220   20.1780 C   0  0  0  0  0  2  0  0  0  0  0  0
  -29.1860  -22.0380   19.9620 N   0  0  0  0  0  0  0  0  0  0  0  0
  -26.8990  -22.0140   20.1140 O   0  0  0  0  0  0  0  0  0  0  0  0
  -29.7520  -23.1790   18.1000 O   0  0  0  0  0  0  0  0  0  0  0  0
  -30.7350  -14.5470   20.1100 C   0  0  0  0  0  0  0  0  0  0  0  0
  -30.3420  -12.4210   18.9270 C   0  0  0  0  0  2  0  0  0  0  0  0
  -29.3550  -12.6960   17.7730 C   0  0  0  0  0  2  0  0  0  0  0  0
  -27.8970  -12.5800   18.2650 C   0  0  0  0  0  2  0  0  0  0  0  0
  -27.6390  -13.3840   19.5700 C   0  0  0  0  0  3  0  0  0  0  0  0
  -28.7390  -13.0940   20.6180 C   0  0  0  0  0  2  0  0  0  0  0  0
  -30.0440  -13.3810   20.0010 N   0  0  0  0  0  0  0  0  0  0  0  0
  -31.8490  -14.6970   19.5990 O   0  0  0  0  0  0  0  0  0  0  0  0
  -30.0590  -15.5530   20.7110 N   0  0  0  0  0  0  0  0  0  0  0  0
  -29.1990  -15.2510   21.1400 H   0  0  0  0  0  0  0  0  0  0  0  0
  -25.2940  -14.0250   20.4140 C   0  0  0  0  0  0  0  0  0  0  0  0
  -24.2270  -13.2660   20.8170 C   0  0  0  0  0  0  0  0  0  0  0  0
  -24.6530  -11.9050   20.7230 C   0  0  0  0  0  0  0  0  0  0  0  0
  -26.3040  -13.1250   20.1060 N   0  0  0  0  0  0  0  0  0  0  0  0
  -25.9240  -11.8450   20.3480 N   0  0  0  0  0  0  0  0  0  0  0  0
  -23.9060  -10.6560   20.9120 C   0  0  0  0  0  0  0  0  0  0  0  0
  -24.3640   -9.6470   21.7890 C   0  0  0  0  0  3  0  0  0  0  0  0
  -23.6200   -8.4610   21.9680 C   0  0  0  0  0  3  0  0  0  0  0  0
  -22.4040   -8.2750   21.2690 C   0  0  0  0  0  0  0  0  0  0  0  0
  -21.9630   -9.2710   20.3810 C   0  0  0  0  0  3  0  0  0  0  0  0
  -22.7080  -10.4480   20.2010 C   0  0  0  0  0  3  0  0  0  0  0  0
  -21.6280   -7.1450   21.3600 O   0  0  0  0  0  0  0  0  0  0  0  0
  -21.6300   -6.3570   22.4840 C   0  0  0  0  0  0  0  0  0  0  0  0
  -21.3080   -6.8740   23.7580 C   0  0  0  0  0  3  0  0  0  0  0  0
  -21.2560   -6.0150   24.8740 C   0  0  0  0  0  3  0  0  0  0  0  0
  -21.5150   -4.6390   24.7170 C   0  0  0  0  0  0  0  0  0  0  0  0
  -21.8310   -4.1230   23.4480 C   0  0  0  0  0  3  0  0  0  0  0  0
  -21.8840   -4.9790   22.3350 C   0  0  0  0  0  0  0  0  0  0  0  0
  -22.1650   -4.4710   21.1110 F   0  0  0  0  0  0  0  0  0  0  0  0
  -21.4590   -3.8130   25.7870 F   0  0  0  0  0  0  0  0  0  0  0  0
  -22.8550  -13.7630   21.1700 C   0  0  0  0  0  0  0  0  0  0  0  0
  -22.1630  -13.0650   22.0630 N   0  0  0  0  0  0  0  0  0  0  0  0
  -22.4070  -14.8010   20.6840 O   0  0  0  0  0  0  0  0  0  0  0  0
  -21.2340  -13.3630   22.3250 H   0  0  0  0  0  0  0  0  0  0  0  0
  -22.5470  -12.2360   22.4890 H   0  0  0  0  0  0  0  0  0  0  0  0
  -25.4820  -15.3960   20.2660 N   0  0  0  0  0  0  0  0  0  0  0  0
  -24.7200  -16.0530   20.4030 H   0  0  0  0  0  0  0  0  0  0  0  0
  -26.3060  -15.8280   19.8660 H   0  0  0  0  0  0  0  0  0  0  0  0
  -28.7810  -25.5820   19.2360 C   0  0  0  0  0  3  0  0  0  0  0  0
  -28.9100  -24.4350   19.9430 C   0  0  0  0  0  0  0  0  0  0  0  0
  -28.7830  -24.4530   21.2820 O   0  0  0  0  0  0  0  0  0  0  0  0
  -29.0450  -23.6010   21.6030 H   0  0  0  0  0  0  0  0  0  0  0  0
  -28.6100  -26.8150   19.8200 O   0  0  0  0  0  0  0  0  0  0  0  0
  -24.5410  -31.6690   23.0060 C   0  0  0  0  0  0  0  0  0  0  0  0
  -27.3930  -27.4610   19.7890 C   0  0  0  0  0  0  0  0  0  0  0  0
  -23.4010  -30.2680   21.3170 C   0  0  0  0  0  3  0  0  0  0  0  0
  -24.9240  -28.8470   19.8420 C   0  0  0  0  0  0  0  0  0  0  0  0
  -25.9040  -30.7570   21.1270 C   0  0  0  0  0  2  0  0  0  0  0  0
  -26.0530  -29.4100   20.4480 C   0  0  0  0  0  0  0  0  0  0  0  0
  -27.2860  -28.7220   20.4210 C   0  0  0  0  0  3  0  0  0  0  0  0
  -26.2420  -26.9040   19.1870 C   0  0  0  0  0  3  0  0  0  0  0  0
  -25.0120  -27.5930   19.2110 C   0  0  0  0  0  3  0  0  0  0  0  0
  -23.6400  -29.6440   19.9140 C   0  0  0  0  0  2  0  0  0  0  0  0
  -24.6330  -30.9110   21.8770 N   0  0  0  0  0  0  0  0  0  0  0  0
  -23.4470  -31.8710   23.5520 O   0  0  0  0  0  0  0  0  0  0  0  0
  -22.7990  -29.1860   22.2420 C   0  0  0  0  0  0  0  0  0  0  0  0
  -21.4760  -28.9750   22.1360 N   0  0  0  0  0  0  0  0  0  0  0  0
  -23.5170  -28.5410   23.0110 O   0  0  0  0  0  0  0  0  0  0  0  0
  -20.9570  -29.5500   21.4890 H   0  0  0  0  0  0  0  0  0  0  0  0
  -18.1410  -27.6960   22.6690 C   0  0  0  0  0  0  0  0  0  0  0  0
  -20.7010  -27.9800   22.8760 C   0  0  0  0  0  3  0  0  0  0  0  0
  -20.8070  -26.5870   22.2140 C   0  0  0  0  0  2  0  0  0  0  0  0
  -19.6770  -26.3040   21.2180 C   0  0  0  0  0  2  0  0  0  0  0  0
  -18.3160  -26.3900   21.9120 C   0  0  0  0  0  2  0  0  0  0  0  0
  -19.2610  -28.4500   23.1070 C   0  0  0  0  0  0  0  0  0  0  0  0
  -19.0430  -29.6750   23.7740 C   0  0  0  0  0  3  0  0  0  0  0  0
  -17.7370  -30.1460   24.0060 C   0  0  0  0  0  3  0  0  0  0  0  0
  -16.6320  -29.3870   23.5850 C   0  0  0  0  0  3  0  0  0  0  0  0
  -16.8350  -28.1640   22.9210 C   0  0  0  0  0  3  0  0  0  0  0  0
  -25.7930  -32.3390   23.6520 C   0  0  0  0  0  3  0  0  0  0  0  0
  -25.4180  -33.7050   24.0360 N   0  0  0  0  0  0  0  0  0  0  0  0
  -25.7040  -34.8030   23.3220 C   0  0  0  0  0  0  0  0  0  0  0  0
  -26.3830  -34.7730   22.2920 O   0  0  0  0  0  0  0  0  0  0  0  0
  -24.8120  -33.7990   24.8370 H   0  0  0  0  0  0  0  0  0  0  0  0
  -23.8860  -36.5160   23.0330 C   0  0  0  0  0  1  0  0  0  0  0  0
  -25.1460  -36.1460   23.8310 C   0  0  0  0  0  3  0  0  0  0  0  0
  -27.2350  -37.1010   24.7020 C   0  0  0  0  0  1  0  0  0  0  0  0
  -26.1250  -37.2530   23.7640 N   0  0  0  0  0  0  0  0  0  0  0  0
  -25.6750  -38.1460   23.9460 H   0  0  0  0  0  0  0  0  0  0  0  0
  -26.3500  -31.5450   24.8970 C   0  0  1  0  0  0  0  0  0  0  0  0
  -25.2730  -31.2200   25.9580 C   0  0  0  0  0  1  0  0  0  0  0  0
  -26.9890  -30.2110   24.4450 C   0  0  0  0  0  1  0  0  0  0  0  0
  -27.4660  -32.3640   25.5870 C   0  0  0  0  0  1  0  0  0  0  0  0
  1  2  2  0
  1  4  1  0
  2  6  1  0
  4  5  2  0
  5  3  1  0
  5  9  1  0
  6 22  1  0
  6  3  2  0
  7  9  1  0
  8 53  1  0
  8 11  1  0
 10  4  1  0
 11 10  1  0
 11  7  1  0
 12  7  2  0
 13  8  2  0
 14 22  1  0
 15 20  1  0
 16 17  1  0
 16 15  1  0
 18 17  1  0
 18 27  1  0
 18 19  1  0
 20 14  1  0
 20 19  1  0
 21 14  2  0
 22 23  1  0
 24 25  2  0
 25 44  1  0
 26 25  1  0
 26 29  1  0
 27 28  1  0
 27 24  1  0
 28 26  2  0
 29 30  1  0
 30 31  2  0
 32 35  1  0
 32 31  1  0
 33 32  2  0
 34 33  1  0
 34 29  2  0
 35 36  1  0
 36 37  1  0
 37 38  2  0
 39 38  1  0
 39 43  1  0
 40 39  2  0
 41 36  2  0
 41 40  1  0
 42 41  1  0
 44 45  1  0
 45 47  1  0
 45 48  1  0
 46 44  2  0
 49 50  1  0
 49 24  1  0
 51 49  1  0
 52 56  1  0
 52 53  2  0
 53 54  1  0
 54 55  1  0
 57 68  2  0
 58 56  1  0
 58 63  1  0
 59 67  1  0
 59 69  1  0
 60 66  1  0
 60 62  1  0
 61 67  1  0
 62 61  1  0
 63 62  2  0
 64 65  1  0
 64 58  2  0
 65 60  2  0
 66 59  1  0
 67 57  1  0
 69 71  2  0
 70 69  1  0
 72 70  1  0
 73 82  2  0
 73 78  1  0
 74 70  1  0
 74 78  1  0
 75 74  1  0
 76 77  1  0
 76 75  1  0
 77 73  1  0
 78 79  2  0
 79 80  1  0
 81 80  2  0
 82 81  1  0
 83 57  1  0
 83 84  1  0
 83 93  1  0
 84 87  1  0
 85 89  1  0
 85 84  1  0
 86 85  2  0
 89 88  1  0
 91 89  1  0
 91 92  1  0
 91 90  1  0
 93 96  1  1
 93 94  1  0
 95 93  1  0
M  ISO  4  14 100  22 100  52 101  56 101
M  END
>  <TORSDO>  (7) 
F 18

>  <SCORE>  (7) 
-13.687

>  <name>  (7) 
6

>  <ligand_id>  (7) 
6

>  <original_smiles>  (7) 
[H]OC(C(=O)N1C(=O)C([H])([H])c2c([H])c(N([H])C(=O)N3C([H])([H])C([H])([H])C([H])([H])C([H])(n4nc(-c5c([H])c([H])c(Oc6c([H])c([H])c(F)c([H])c6F)c([H])c5[H])c(C(=O)N([H])[H])c4N([H])[H])C3([H])[H])c([H])c([H])c2C1([H])[H])=C([H])Oc1c([H])c([H])c2c(c1[H])C([H])([H])N(C(=O)C([H])(N([H])C(=O)C([H])(N([H])C([H])([H])[H])C([H])([H])[H])C(C([H])([H])[H])(C([H])([H])[H])C([H])([H])[H])C([H])(C(=O)N([H])C1([H])c3c([H])c([H])c([H])c([H])c3C([H])([H])C([H])([H])C1([H])[H])C2([H])[H]

>  <smiles>  (7) 
[H]OC(C(=O)N1C(=O)C([H])([H])c2c([H])c(N([H])C(=O)N3C([H])([H])C([H])([H])C([H])([H])C([H])(n4nc(-c5c([H])c([H])c(Oc6c([H])c([H])c(F)c([H])c6F)c([H])c5[H])c(C(=O)N([H])[H])c4N([H])[H])C3([H])[H])c([H])c([H])c2C1([H])[H])=C([H])Oc1c([H])c([H])c2c(c1[H])C([H])([H])N(C(=O)C([H])(N([H])C(=O)C([H])(N([H])C([H])([H])[H])C([H])([H])[H])C(C([H])([H])[H])(C([H])([H])[H])C([H])([H])[H])C([H])(C(=O)N([H])C1([H])c3c([H])c([H])c([H])c([H])c3C([H])([H])C([H])([H])C1([H])[H])C2([H])[H]

$$$$
7:0:0
     RDKit          3D

 94102  0  0  1  0  0  0  0  0999 V2000
  -28.9430  -18.6820   18.4320 C   0  0  0  0  0  3  0  0  0  0  0  0
  -28.8480  -20.0180   18.8750 C   0  0  0  0  0  3  0  0  0  0  0  0
  -29.5880  -17.7090   19.2220 C   0  0  0  0  0  3  0  0  0  0  0  0
  -30.0310  -19.4200   20.9130 C   0  0  0  0  0  3  0  0  0  0  0  0
  -29.3880  -20.4050   20.1240 C   0  0  0  0  0  0  0  0  0  0  0  0
  -30.1400  -18.0820   20.4630 C   0  0  0  0  0  0  0  0  0  0  0  0
  -32.4260  -16.9240   21.2290 O   0  0  0  0  0  0  0  0  0  0  0  0
  -30.5400  -17.1380   22.9030 O   0  0  0  0  0  0  0  0  0  0  0  0
  -30.9830  -16.8790   21.5210 S   0  0  1  0  0  0  0  0  0  0  0  0
  -30.8890  -14.3550   20.2290 C   0  0  0  0  0  0  0  0  0  0  0  0
  -30.4600  -12.2490   18.9950 C   0  0  0  0  0  2  0  0  0  0  0  0
  -29.4690  -12.4890   17.8390 C   0  0  0  0  0  2  0  0  0  0  0  0
  -28.0130  -12.3860   18.3330 C   0  0  0  0  0  2  0  0  0  0  0  0
  -27.7570  -13.2220   19.6160 C   0  0  0  0  0  3  0  0  0  0  0  0
  -28.8490  -12.9450   20.6740 C   0  0  0  0  0  2  0  0  0  0  0  0
  -30.1580  -13.2190   20.0580 N   0  0  0  0  0  0  0  0  0  0  0  0
  -31.9350  -14.5630   19.6080 O   0  0  0  0  0  0  0  0  0  0  0  0
  -30.3650  -15.3110   21.1060 N   0  0  0  0  0  0  0  0  0  0  0  0
  -29.4470  -15.1630   21.5150 H   0  0  0  0  0  0  0  0  0  0  0  0
  -25.4100  -13.9050   20.4230 C   0  0  0  0  0  0  0  0  0  0  0  0
  -24.3320  -13.1670   20.8320 C   0  0  0  0  0  0  0  0  0  0  0  0
  -24.7460  -11.8000   20.7720 C   0  0  0  0  0  0  0  0  0  0  0  0
  -26.4150  -12.9900   20.1460 N   0  0  0  0  0  0  0  0  0  0  0  0
  -26.0200  -11.7200   20.4110 N   0  0  0  0  0  0  0  0  0  0  0  0
  -23.9860  -10.5610   20.9830 C   0  0  0  0  0  0  0  0  0  0  0  0
  -24.4250   -9.5710   21.8880 C   0  0  0  0  0  3  0  0  0  0  0  0
  -23.6680   -8.3960   22.0880 C   0  0  0  0  0  3  0  0  0  0  0  0
  -22.4570   -8.2050   21.3810 C   0  0  0  0  0  0  0  0  0  0  0  0
  -22.0370   -9.1830   20.4630 C   0  0  0  0  0  3  0  0  0  0  0  0
  -22.7950  -10.3490   20.2620 C   0  0  0  0  0  3  0  0  0  0  0  0
  -21.6700   -7.0840   21.4900 O   0  0  0  0  0  0  0  0  0  0  0  0
  -21.6430   -6.3330   22.6380 C   0  0  0  0  0  0  0  0  0  0  0  0
  -21.2860   -6.8910   23.8850 C   0  0  0  0  0  3  0  0  0  0  0  0
  -21.2040   -6.0680   25.0260 C   0  0  0  0  0  3  0  0  0  0  0  0
  -21.4660   -4.6890   24.9210 C   0  0  0  0  0  0  0  0  0  0  0  0
  -21.8160   -4.1310   23.6790 C   0  0  0  0  0  3  0  0  0  0  0  0
  -21.9000   -4.9500   22.5390 C   0  0  0  0  0  0  0  0  0  0  0  0
  -22.2160   -4.4050   21.3410 F   0  0  0  0  0  0  0  0  0  0  0  0
  -21.3800   -3.8970   26.0150 F   0  0  0  0  0  0  0  0  0  0  0  0
  -22.9650  -13.6880   21.1660 C   0  0  0  0  0  0  0  0  0  0  0  0
  -22.2530  -13.0100   22.0610 N   0  0  0  0  0  0  0  0  0  0  0  0
  -22.5380  -14.7300   20.6710 O   0  0  0  0  0  0  0  0  0  0  0  0
  -22.6110  -12.1660   22.4820 H   0  0  0  0  0  0  0  0  0  0  0  0
  -21.3360  -13.3400   22.3290 H   0  0  0  0  0  0  0  0  0  0  0  0
  -25.6160  -15.2710   20.2480 N   0  0  0  0  0  0  0  0  0  0  0  0
  -24.8730  -15.9480   20.3820 H   0  0  0  0  0  0  0  0  0  0  0  0
  -26.4580  -15.6800   19.8620 H   0  0  0  0  0  0  0  0  0  0  0  0
  -29.2950  -21.7310   20.6000 N   0  0  0  0  0  0  0  0  0  0  0  0
  -29.6850  -21.9860   21.5060 H   0  0  0  0  0  0  0  0  0  0  0  0
  -28.9440  -22.8580   19.7180 C   0  0  0  0  0  2  0  0  0  0  0  0
  -28.8400  -24.2240   20.4360 C   0  0  0  0  0  0  0  0  0  0  0  0
  -28.8100  -24.2870   21.6730 O   0  0  0  0  0  0  0  0  0  0  0  0
  -28.8070  -25.4920   19.5540 C   0  0  0  0  0  2  0  0  0  0  0  0
  -28.5970  -26.6970   20.3210 O   0  0  0  0  0  0  0  0  0  0  0  0
  -24.6370  -31.8450   23.2400 C   0  0  0  0  0  0  0  0  0  0  0  0
  -27.3930  -27.3770   20.2690 C   0  0  0  0  0  0  0  0  0  0  0  0
  -23.4860  -30.4270   21.5720 C   0  0  0  0  0  3  0  0  0  0  0  0
  -24.9870  -28.8820   20.2070 C   0  0  0  0  0  0  0  0  0  0  0  0
  -26.0170  -30.7890   21.4510 C   0  0  0  0  0  2  0  0  0  0  0  0
  -26.1250  -29.4120   20.8250 C   0  0  0  0  0  0  0  0  0  0  0  0
  -27.3260  -28.6650   20.8550 C   0  0  0  0  0  3  0  0  0  0  0  0
  -26.2240  -26.8550   19.6650 C   0  0  0  0  0  3  0  0  0  0  0  0
  -25.0310  -27.6020   19.6290 C   0  0  0  0  0  3  0  0  0  0  0  0
  -23.7410  -29.7380   20.2050 C   0  0  0  0  0  2  0  0  0  0  0  0
  -24.7300  -31.0360   22.1460 N   0  0  0  0  0  0  0  0  0  0  0  0
  -23.5390  -32.1170   23.7450 O   0  0  0  0  0  0  0  0  0  0  0  0
  -22.8090  -29.4110   22.5200 C   0  0  0  0  0  0  0  0  0  0  0  0
  -21.4890  -29.2270   22.3550 N   0  0  0  0  0  0  0  0  0  0  0  0
  -23.4700  -28.7910   23.3570 O   0  0  0  0  0  0  0  0  0  0  0  0
  -21.0180  -29.7800   21.6530 H   0  0  0  0  0  0  0  0  0  0  0  0
  -18.1030  -28.0300   22.7570 C   0  0  0  0  0  0  0  0  0  0  0  0
  -20.6510  -28.2930   23.1080 C   0  0  0  0  0  3  0  0  0  0  0  0
  -20.7720  -26.8590   22.5430 C   0  0  0  0  0  2  0  0  0  0  0  0
  -19.7020  -26.5280   21.4980 C   0  0  0  0  0  2  0  0  0  0  0  0
  -18.3010  -26.6760   22.0970 C   0  0  0  0  0  2  0  0  0  0  0  0
  -19.2070  -28.7960   23.2170 C   0  0  0  0  0  0  0  0  0  0  0  0
  -18.9690  -30.0640   23.7900 C   0  0  0  0  0  3  0  0  0  0  0  0
  -17.6600  -30.5660   23.9110 C   0  0  0  0  0  3  0  0  0  0  0  0
  -16.5690  -29.7970   23.4690 C   0  0  0  0  0  3  0  0  0  0  0  0
  -16.7910  -28.5320   22.8970 C   0  0  0  0  0  3  0  0  0  0  0  0
  -25.9010  -32.4850   23.8950 C   0  0  0  0  0  3  0  0  0  0  0  0
  -25.5790  -33.8840   24.2070 N   0  0  0  0  0  0  0  0  0  0  0  0
  -25.9190  -34.9300   23.4440 C   0  0  0  0  0  0  0  0  0  0  0  0
  -26.6100  -34.8210   22.4260 O   0  0  0  0  0  0  0  0  0  0  0  0
  -24.9710  -34.0420   24.9970 H   0  0  0  0  0  0  0  0  0  0  0  0
  -24.1810  -36.7010   23.0430 C   0  0  0  0  0  1  0  0  0  0  0  0
  -25.4140  -36.3190   23.8770 C   0  0  0  0  0  3  0  0  0  0  0  0
  -27.5280  -37.2320   24.7270 C   0  0  0  0  0  1  0  0  0  0  0  0
  -26.4380  -37.3800   23.7650 N   0  0  0  0  0  0  0  0  0  0  0  0
  -26.0230  -38.2980   23.8950 H   0  0  0  0  0  0  0  0  0  0  0  0
  -26.3840  -31.7220   25.1890 C   0  0  1  0  0  0  0  0  0  0  0  0
  -25.2630  -31.4840   26.2260 C   0  0  0  0  0  1  0  0  0  0  0  0
  -26.9840  -30.3460   24.8170 C   0  0  0  0  0  1  0  0  0  0  0  0
  -27.5120  -32.5240   25.8810 C   0  0  0  0  0  1  0  0  0  0  0  0
  1  2  2  0
  1  3  1  0
  2  5  1  0
  3  6  2  0
  5 48  1  0
  5  4  2  0
  6  4  1  0
  6  9  1  0
  7  9  2  0
  9  8  2  0
 10 18  1  0
 11 16  1  0
 12 13  1  0
 12 11  1  0
 14 13  1  0
 14 23  1  0
 14 15  1  0
 16 10  1  0
 16 15  1  0
 17 10  2  0
 18 19  1  0
  9 18  1  6
 20 21  2  0
 21 40  1  0
 22 21  1  0
 22 25  1  0
 23 24  1  0
 23 20  1  0
 24 22  2  0
 25 26  1  0
 26 27  2  0
 28 31  1  0
 28 27  1  0
 29 28  2  0
 30 29  1  0
 30 25  2  0
 31 32  1  0
 32 33  1  0
 33 34  2  0
 35 34  1  0
 35 39  1  0
 36 35  2  0
 37 32  2  0
 37 36  1  0
 38 37  1  0
 40 41  1  0
 41 44  1  0
 41 43  1  0
 42 40  2  0
 45 46  1  0
 45 20  1  0
 47 45  1  0
 48 49  1  0
 50 51  1  0
 50 48  1  0
 51 52  2  0
 53 54  1  0
 53 51  1  0
 55 66  2  0
 56 54  1  0
 56 61  1  0
 57 65  1  0
 57 67  1  0
 58 60  1  0
 59 65  1  0
 60 61  2  0
 60 59  1  0
 62 56  2  0
 63 62  1  0
 63 58  2  0
 64 58  1  0
 64 57  1  0
 65 55  1  0
 67 69  2  0
 68 67  1  0
 70 68  1  0
 71 80  2  0
 71 76  1  0
 72 68  1  0
 72 76  1  0
 73 72  1  0
 74 75  1  0
 74 73  1  0
 75 71  1  0
 76 77  2  0
 77 78  1  0
 79 78  2  0
 80 79  1  0
 81 55  1  0
 81 82  1  0
 81 91  1  0
 82 85  1  0
 83 87  1  0
 83 82  1  0
 84 83  2  0
 87 86  1  0
 89 87  1  0
 89 90  1  0
 89 88  1  0
 91 94  1  1
 91 92  1  0
 93 91  1  0
M  ISO  4  10 100  18 100  53 101  54 101
M  END
>  <TORSDO>  (8) 
F 21

>  <SCORE>  (8) 
-13.677

>  <name>  (8) 
7

>  <ligand_id>  (8) 
7

>  <original_smiles>  (8) 
[H]c1c([H])c([H])c2c(c1[H])C([H])([H])C([H])([H])C([H])([H])C2([H])N([H])C(=O)C1([H])N(C(=O)C([H])(N([H])C(=O)C([H])(N([H])C([H])([H])[H])C([H])([H])[H])C(C([H])([H])[H])(C([H])([H])[H])C([H])([H])[H])C([H])([H])c2c([H])c(OC([H])([H])C(=O)C([H])([H])N([H])c3c([H])c([H])c([H])c(S(=O)(=O)N([H])C(=O)N4C([H])([H])C([H])([H])C([H])([H])C([H])(n5nc(-c6c([H])c([H])c(Oc7c([H])c([H])c(F)c([H])c7F)c([H])c6[H])c(C(=O)N([H])[H])c5N([H])[H])C4([H])[H])c3[H])c([H])c([H])c2C1([H])[H]

>  <smiles>  (8) 
[H]c1c([H])c([H])c2c(c1[H])C([H])([H])C([H])([H])C([H])([H])C2([H])N([H])C(=O)C1([H])N(C(=O)C([H])(N([H])C(=O)C([H])(N([H])C([H])([H])[H])C([H])([H])[H])C(C([H])([H])[H])(C([H])([H])[H])C([H])([H])[H])C([H])([H])c2c([H])c(OC([H])([H])C(=O)C([H])([H])N([H])c3c([H])c([H])c([H])c(S(=O)(=O)N([H])C(=O)N4C([H])([H])C([H])([H])C([H])([H])C([H])(n5nc(-c6c([H])c([H])c(Oc7c([H])c([H])c(F)c([H])c7F)c([H])c6[H])c(C(=O)N([H])[H])c5N([H])[H])C4([H])[H])c3[H])c([H])c([H])c2C1([H])[H]

$$$$
8:0:0
     RDKit          3D

103111  0  0  1  0  0  0  0  0999 V2000
  -29.3510  -21.5900   17.6270 C   0  0  0  0  0  2  0  0  0  0  0  0
  -28.8910  -22.8550   17.6240 N   0  0  0  0  0  0  0  0  0  0  0  0
  -29.0180  -20.6700   18.5540 N   0  0  0  0  0  0  0  0  0  0  0  0
  -29.2810  -23.5030   16.9500 H   0  0  0  0  0  0  0  0  0  0  0  0
  -28.3820  -20.9020   19.3010 H   0  0  0  0  0  0  0  0  0  0  0  0
  -29.4470  -19.2690   18.5030 C   0  0  0  0  0  2  0  0  0  0  0  0
  -30.4490  -19.5600   20.8480 C   0  0  0  0  0  3  0  0  0  0  0  0
  -29.9660  -17.3230   20.0260 C   0  0  0  0  0  3  0  0  0  0  0  0
  -30.9280  -17.6190   22.2510 C   0  0  0  0  0  3  0  0  0  0  0  0
  -29.9590  -18.7170   19.8260 C   0  0  0  0  0  0  0  0  0  0  0  0
  -30.9390  -19.0200   22.0550 C   0  0  0  0  0  0  0  0  0  0  0  0
  -30.4590  -16.7660   21.2290 C   0  0  0  0  0  0  0  0  0  0  0  0
  -30.9950  -14.4840   20.5690 C   0  0  0  0  0  0  0  0  0  0  0  0
  -30.6660  -12.3790   19.3360 C   0  0  0  0  0  2  0  0  0  0  0  0
  -29.7400  -12.6420   18.1330 C   0  0  0  0  0  2  0  0  0  0  0  0
  -28.2640  -12.4990   18.5480 C   0  0  0  0  0  2  0  0  0  0  0  0
  -27.9250  -13.3110   19.8260 C   0  0  0  0  0  3  0  0  0  0  0  0
  -28.9630  -13.0390   20.9410 C   0  0  0  0  0  2  0  0  0  0  0  0
  -30.3080  -13.3240   20.4040 N   0  0  0  0  0  0  0  0  0  0  0  0
  -32.0450  -14.7460   19.9740 O   0  0  0  0  0  0  0  0  0  0  0  0
  -30.4450  -15.3620   21.4200 N   0  0  0  0  0  0  0  0  0  0  0  0
  -29.7280  -14.9930   22.0310 H   0  0  0  0  0  0  0  0  0  0  0  0
  -25.5060  -13.9140   20.4810 C   0  0  0  0  0  0  0  0  0  0  0  0
  -24.4360  -13.1390   20.8380 C   0  0  0  0  0  0  0  0  0  0  0  0
  -24.9070  -11.7890   20.8280 C   0  0  0  0  0  0  0  0  0  0  0  0
  -26.5630  -13.0380   20.2810 N   0  0  0  0  0  0  0  0  0  0  0  0
  -26.2010  -11.7550   20.5420 N   0  0  0  0  0  0  0  0  0  0  0  0
  -24.1830  -10.5260   21.0170 C   0  0  0  0  0  0  0  0  0  0  0  0
  -24.5850   -9.5830   21.9890 C   0  0  0  0  0  3  0  0  0  0  0  0
  -23.8620   -8.3830   22.1660 C   0  0  0  0  0  3  0  0  0  0  0  0
  -22.7240   -8.1170   21.3690 C   0  0  0  0  0  0  0  0  0  0  0  0
  -22.3440   -9.0460   20.3840 C   0  0  0  0  0  3  0  0  0  0  0  0
  -23.0670  -10.2380   20.2060 C   0  0  0  0  0  3  0  0  0  0  0  0
  -21.9760   -6.9660   21.4520 O   0  0  0  0  0  0  0  0  0  0  0  0
  -21.8530   -6.2730   22.6290 C   0  0  0  0  0  0  0  0  0  0  0  0
  -21.3100   -6.8640   23.7910 C   0  0  0  0  0  3  0  0  0  0  0  0
  -21.1370   -6.0950   24.9580 C   0  0  0  0  0  3  0  0  0  0  0  0
  -21.4980   -4.7340   24.9650 C   0  0  0  0  0  0  0  0  0  0  0  0
  -22.0350   -4.1410   23.8080 C   0  0  0  0  0  3  0  0  0  0  0  0
  -22.2110   -4.9090   22.6430 C   0  0  0  0  0  0  0  0  0  0  0  0
  -22.7070   -4.3280   21.5250 F   0  0  0  0  0  0  0  0  0  0  0  0
  -21.3230   -3.9920   26.0840 F   0  0  0  0  0  0  0  0  0  0  0  0
  -23.0320  -13.6090   21.0870 C   0  0  0  0  0  0  0  0  0  0  0  0
  -22.2980  -12.9110   21.9450 N   0  0  0  0  0  0  0  0  0  0  0  0
  -22.5960  -14.6310   20.5590 O   0  0  0  0  0  0  0  0  0  0  0  0
  -22.6650  -12.0820   22.3900 H   0  0  0  0  0  0  0  0  0  0  0  0
  -21.3560  -13.2070   22.1600 H   0  0  0  0  0  0  0  0  0  0  0  0
  -25.6660  -15.2840   20.2930 N   0  0  0  0  0  0  0  0  0  0  0  0
  -24.8940  -15.9340   20.3790 H   0  0  0  0  0  0  0  0  0  0  0  0
  -26.5260  -15.7290   20.0000 H   0  0  0  0  0  0  0  0  0  0  0  0
  -31.4730  -19.9670   23.1190 C   0  0  1  0  0  0  0  0  0  0  0  0
  -30.5050  -20.8020   23.4910 F   0  0  0  0  0  0  0  0  0  0  0  0
  -31.9140  -19.3160   24.1960 F   0  0  0  0  0  0  0  0  0  0  0  0
  -32.4810  -20.6860   22.6220 F   0  0  0  0  0  0  0  0  0  0  0  0
  -27.9590  -23.4530   18.5940 C   0  0  0  0  0  3  0  0  0  0  0  0
  -25.4830  -23.6360   19.3240 C   0  0  0  0  0  1  0  0  0  0  0  0
  -26.0910  -24.2060   16.9370 C   0  0  0  0  0  1  0  0  0  0  0  0
  -26.1330  -21.8480   17.7480 C   0  0  0  0  0  1  0  0  0  0  0  0
  -26.4470  -23.3090   18.1500 C   0  0  1  0  0  0  0  0  0  0  0  0
  -28.4460  -24.9100   18.7970 C   0  0  0  0  0  0  0  0  0  0  0  0
  -28.8810  -25.5950   17.8640 O   0  0  0  0  0  0  0  0  0  0  0  0
  -28.4270  -25.4800   20.2230 C   0  0  0  0  0  2  0  0  0  0  0  0
  -28.5000  -26.9120   20.2160 O   0  0  0  0  0  0  0  0  0  0  0  0
  -24.5930  -31.9980   23.2540 C   0  0  0  0  0  0  0  0  0  0  0  0
  -27.3070  -27.6020   20.1950 C   0  0  0  0  0  0  0  0  0  0  0  0
  -23.4110  -30.5840   21.6050 C   0  0  0  0  0  3  0  0  0  0  0  0
  -24.8900  -29.0690   20.1910 C   0  0  0  0  0  0  0  0  0  0  0  0
  -25.9360  -30.9690   21.4270 C   0  0  0  0  0  2  0  0  0  0  0  0
  -26.0380  -29.6050   20.7890 C   0  0  0  0  0  0  0  0  0  0  0  0
  -27.2500  -28.8820   20.7840 C   0  0  0  0  0  3  0  0  0  0  0  0
  -26.1390  -27.0830   19.5940 C   0  0  0  0  0  3  0  0  0  0  0  0
  -24.9340  -27.8020   19.5890 C   0  0  0  0  0  3  0  0  0  0  0  0
  -23.6380  -29.9150   20.2240 C   0  0  0  0  0  2  0  0  0  0  0  0
  -24.6640  -31.2000   22.1520 N   0  0  0  0  0  0  0  0  0  0  0  0
  -23.5050  -32.2570   23.7870 O   0  0  0  0  0  0  0  0  0  0  0  0
  -22.7740  -29.5490   22.5580 C   0  0  0  0  0  0  0  0  0  0  0  0
  -21.4520  -29.3560   22.4320 N   0  0  0  0  0  0  0  0  0  0  0  0
  -23.4680  -28.9270   23.3670 O   0  0  0  0  0  0  0  0  0  0  0  0
  -20.9570  -29.9130   21.7490 H   0  0  0  0  0  0  0  0  0  0  0  0
  -18.0830  -28.1510   22.9380 C   0  0  0  0  0  0  0  0  0  0  0  0
  -20.6420  -28.4090   23.1990 C   0  0  0  0  0  3  0  0  0  0  0  0
  -20.7410  -26.9840   22.6090 C   0  0  0  0  0  2  0  0  0  0  0  0
  -19.6320  -26.6660   21.6000 C   0  0  0  0  0  2  0  0  0  0  0  0
  -18.2560  -26.8050   22.2540 C   0  0  0  0  0  2  0  0  0  0  0  0
  -19.2050  -28.9110   23.3690 C   0  0  0  0  0  0  0  0  0  0  0  0
  -18.9890  -30.1680   23.9710 C   0  0  0  0  0  3  0  0  0  0  0  0
  -17.6860  -30.6680   24.1500 C   0  0  0  0  0  3  0  0  0  0  0  0
  -16.5800  -29.9060   23.7360 C   0  0  0  0  0  3  0  0  0  0  0  0
  -16.7790  -28.6520   23.1340 C   0  0  0  0  0  3  0  0  0  0  0  0
  -25.8680  -32.6430   23.8790 C   0  0  0  0  0  3  0  0  0  0  0  0
  -26.3990  -31.8750   25.1530 C   0  0  1  0  0  0  0  0  0  0  0  0
  -25.3110  -31.6040   26.2170 C   0  0  0  0  0  1  0  0  0  0  0  0
  -27.0140  -30.5130   24.7540 C   0  0  0  0  0  1  0  0  0  0  0  0
  -27.5270  -32.6950   25.8260 C   0  0  0  0  0  1  0  0  0  0  0  0
  -25.5370  -34.0360   24.2120 N   0  0  0  0  0  0  0  0  0  0  0  0
  -25.8710  -35.0970   23.4660 C   0  0  0  0  0  0  0  0  0  0  0  0
  -26.5630  -35.0100   22.4470 O   0  0  0  0  0  0  0  0  0  0  0  0
  -24.9190  -34.1800   24.9980 H   0  0  0  0  0  0  0  0  0  0  0  0
  -24.1410  -36.8840   23.0710 C   0  0  0  0  0  1  0  0  0  0  0  0
  -25.3560  -36.4760   23.9220 C   0  0  0  0  0  3  0  0  0  0  0  0
  -27.4520  -37.3640   24.8470 C   0  0  0  0  0  1  0  0  0  0  0  0
  -26.3830  -37.5380   23.8650 N   0  0  0  0  0  0  0  0  0  0  0  0
  -25.9620  -38.4530   24.0050 H   0  0  0  0  0  0  0  0  0  0  0  0
  1  3  1  0
  2  1  1  0
  2 55  1  0
  3  5  1  0
  4  2  1  0
  6  3  1  0
  6 10  1  0
  7 11  1  0
  8 12  2  0
 10  8  1  0
 10  7  2  0
 11  9  2  0
 11 51  1  0
 12 21  1  0
 12  9  1  0
 13 21  1  0
 14 19  1  0
 15 16  1  0
 15 14  1  0
 17 16  1  0
 17 26  1  0
 17 18  1  0
 19 13  1  0
 19 18  1  0
 20 13  2  0
 21 22  1  0
 23 24  2  0
 24 43  1  0
 25 24  1  0
 25 28  1  0
 26 23  1  0
 26 27  1  0
 27 25  2  0
 28 29  1  0
 29 30  2  0
 31 34  1  0
 31 30  1  0
 32 31  2  0
 33 32  1  0
 33 28  2  0
 34 35  1  0
 35 40  2  0
 35 36  1  0
 36 37  2  0
 37 38  1  0
 38 42  1  0
 39 38  2  0
 40 39  1  0
 41 40  1  0
 43 44  1  0
 44 47  1  0
 44 46  1  0
 45 43  2  0
 48 49  1  0
 48 23  1  0
 50 48  1  0
 51 52  1  1
 51 53  1  0
 54 51  1  0
 55 60  1  0
 59 57  1  6
 58 59  1  0
 59 55  1  0
 59 56  1  0
 60 62  1  0
 61 60  2  0
 63 62  1  0
 64 75  2  0
 65 63  1  0
 65 70  1  0
 66 74  1  0
 66 76  1  0
 67 73  1  0
 67 69  1  0
 68 74  1  0
 69 68  1  0
 70 69  2  0
 71 65  2  0
 72 71  1  0
 72 67  2  0
 73 66  1  0
 74 64  1  0
 76 78  2  0
 77 76  1  0
 79 77  1  0
 80 89  2  0
 80 85  1  0
 81 77  1  0
 81 85  1  0
 82 81  1  0
 83 84  1  0
 83 82  1  0
 84 80  1  0
 85 86  2  0
 86 87  1  0
 88 87  2  0
 89 88  1  0
 90 64  1  0
 90 95  1  0
 90 91  1  0
 91 94  1  1
 91 92  1  0
 93 91  1  0
 95 98  1  0
 96100  1  0
 96 95  1  0
 97 96  2  0
100 99  1  0
102100  1  0
102103  1  0
102101  1  0
M  ISO  4  13 100  21 100  62 101  63 101
M  END
>  <TORSDO>  (9) 
F 23

>  <SCORE>  (9) 
-12.928

>  <name>  (9) 
8

>  <ligand_id>  (9) 
8

>  <original_smiles>  (9) 
[H]C(N([H])C([H])(C(=O)C([H])([H])Oc1c([H])c([H])c2c(c1[H])C([H])([H])N(C(=O)C([H])(N([H])C(=O)C([H])(N([H])C([H])([H])[H])C([H])([H])[H])C(C([H])([H])[H])(C([H])([H])[H])C([H])([H])[H])C([H])(C(=O)N([H])C1([H])c3c([H])c([H])c([H])c([H])c3C([H])([H])C([H])([H])C1([H])[H])C2([H])[H])C(C([H])([H])[H])(C([H])([H])[H])C([H])([H])[H])=[N+]([H])C([H])([H])c1c([H])c(N([H])C(=O)N2C([H])([H])C([H])([H])C([H])([H])C([H])(n3nc(-c4c([H])c([H])c(Oc5c([H])c([H])c(F)c([H])c5F)c([H])c4[H])c(C(=O)N([H])[H])c3N([H])[H])C2([H])[H])c([H])c(C(F)(F)F)c1[H]

>  <smiles>  (9) 
[H]C(N([H])C([H])(C(=O)C([H])([H])Oc1c([H])c([H])c2c(c1[H])C([H])([H])N(C(=O)C([H])(N([H])C(=O)C([H])(N([H])C([H])([H])[H])C([H])([H])[H])C(C([H])([H])[H])(C([H])([H])[H])C([H])([H])[H])C([H])(C(=O)N([H])C1([H])c3c([H])c([H])c([H])c([H])c3C([H])([H])C([H])([H])C1([H])[H])C2([H])[H])C(C([H])([H])[H])(C([H])([H])[H])C([H])([H])[H])=[N+]([H])C([H])([H])c1c([H])c(N([H])C(=O)N2C([H])([H])C([H])([H])C([H])([H])C([H])(n3nc(-c4c([H])c([H])c(Oc5c([H])c([H])c(F)c([H])c5F)c([H])c4[H])c(C(=O)N([H])[H])c3N([H])[H])C2([H])[H])c([H])c(C(F)(F)F)c1[H]

$$$$
9:0:0
     RDKit          3D

 95103  0  0  1  0  0  0  0  0999 V2000
  -30.2560  -22.8990   19.6780 C   0  0  0  0  0  0  0  0  0  0  0  0
  -31.4790  -22.6190   19.4260 N   0  0  0  0  0  0  0  0  0  0  0  0
  -32.0200  -23.4550   19.2640 H   0  0  0  0  0  0  0  0  0  0  0  0
  -29.3170  -21.6750   19.9430 C   0  0  0  0  0  0  0  0  0  0  0  0
  -29.9820  -20.4620   19.8930 N   0  0  0  0  0  0  0  0  0  0  0  0
  -28.1090  -21.8060   20.1610 O   0  0  0  0  0  0  0  0  0  0  0  0
  -30.9580  -20.6020   19.6520 H   0  0  0  0  0  0  0  0  0  0  0  0
  -28.3270  -18.7790   20.5400 C   0  0  0  0  0  3  0  0  0  0  0  0
  -28.3620  -17.3660   20.7440 C   0  0  0  0  0  3  0  0  0  0  0  0
  -29.5840  -19.1560   20.1480 C   0  0  0  0  0  0  0  0  0  0  0  0
  -29.6300  -16.9310   20.4640 C   0  0  0  0  0  0  0  0  0  0  0  0
  -30.4240  -18.0210   20.0920 O   0  0  0  0  0  0  0  0  0  0  0  0
  -30.7140  -14.6470   19.9820 C   0  0  0  0  0  0  0  0  0  0  0  0
  -30.5760  -12.3720   18.9570 C   0  0  0  0  0  2  0  0  0  0  0  0
  -29.5690  -12.4340   17.7830 C   0  0  0  0  0  2  0  0  0  0  0  0
  -28.1170  -12.2500   18.2740 C   0  0  0  0  0  2  0  0  0  0  0  0
  -27.7910  -13.1320   19.5070 C   0  0  0  0  0  3  0  0  0  0  0  0
  -28.8960  -12.9920   20.5790 C   0  0  0  0  0  2  0  0  0  0  0  0
  -30.1750  -13.3830   19.9560 N   0  0  0  0  0  0  0  0  0  0  0  0
  -31.8050  -14.8980   19.4550 O   0  0  0  0  0  0  0  0  0  0  0  0
  -29.9130  -15.5760   20.5810 N   0  0  0  0  0  0  0  0  0  0  0  0
  -29.1940  -15.0930   21.0980 H   0  0  0  0  0  0  0  0  0  0  0  0
  -25.4180  -13.7140   20.3120 C   0  0  0  0  0  0  0  0  0  0  0  0
  -24.3770  -12.9330   20.7380 C   0  0  0  0  0  0  0  0  0  0  0  0
  -24.8550  -11.5880   20.7050 C   0  0  0  0  0  0  0  0  0  0  0  0
  -26.4630  -12.8430   20.0470 N   0  0  0  0  0  0  0  0  0  0  0  0
  -26.1320  -11.5600   20.3410 N   0  0  0  0  0  0  0  0  0  0  0  0
  -24.1560  -10.3190   20.9450 C   0  0  0  0  0  0  0  0  0  0  0  0
  -24.5830   -9.4180   21.9450 C   0  0  0  0  0  3  0  0  0  0  0  0
  -23.8840   -8.2120   22.1700 C   0  0  0  0  0  3  0  0  0  0  0  0
  -22.7430   -7.8990   21.3930 C   0  0  0  0  0  0  0  0  0  0  0  0
  -22.3360   -8.7890   20.3830 C   0  0  0  0  0  3  0  0  0  0  0  0
  -23.0350   -9.9860   20.1590 C   0  0  0  0  0  3  0  0  0  0  0  0
  -22.0180   -6.7390   21.5230 O   0  0  0  0  0  0  0  0  0  0  0  0
  -21.8850   -6.1050   22.7320 C   0  0  0  0  0  0  0  0  0  0  0  0
  -21.3200   -6.7480   23.8530 C   0  0  0  0  0  3  0  0  0  0  0  0
  -21.1370   -6.0370   25.0560 C   0  0  0  0  0  3  0  0  0  0  0  0
  -21.5100   -4.6810   25.1360 C   0  0  0  0  0  0  0  0  0  0  0  0
  -22.0690   -4.0370   24.0180 C   0  0  0  0  0  3  0  0  0  0  0  0
  -22.2530   -4.7460   22.8190 C   0  0  0  0  0  0  0  0  0  0  0  0
  -22.7700   -4.1140   21.7380 F   0  0  0  0  0  0  0  0  0  0  0  0
  -21.3280   -3.9960   26.2890 F   0  0  0  0  0  0  0  0  0  0  0  0
  -22.9870  -13.3960   21.0650 C   0  0  0  0  0  0  0  0  0  0  0  0
  -22.3110  -12.7120   21.9820 N   0  0  0  0  0  0  0  0  0  0  0  0
  -22.5060  -14.4000   20.5390 O   0  0  0  0  0  0  0  0  0  0  0  0
  -22.7130  -11.9010   22.4300 H   0  0  0  0  0  0  0  0  0  0  0  0
  -21.3810  -13.0060   22.2430 H   0  0  0  0  0  0  0  0  0  0  0  0
  -25.5560  -15.0850   20.1090 N   0  0  0  0  0  0  0  0  0  0  0  0
  -24.7830  -15.7290   20.2350 H   0  0  0  0  0  0  0  0  0  0  0  0
  -26.3780  -15.5260   19.7160 H   0  0  0  0  0  0  0  0  0  0  0  0
  -29.8920  -24.4450   19.6790 C   0  0  0  0  0  0  0  0  0  0  0  0
  -30.8100  -25.2890   19.4020 N   0  0  0  0  0  0  0  0  0  0  0  0
  -31.6980  -24.8470   19.2100 H   0  0  0  0  0  0  0  0  0  0  0  0
  -28.4820  -25.0700   19.9760 C   0  0  0  0  0  2  0  0  0  0  0  0
  -28.5160  -26.5530   20.1480 O   0  0  0  0  0  0  0  0  0  0  0  0
  -24.6740  -31.7510   23.3570 C   0  0  0  0  0  0  0  0  0  0  0  0
  -27.3540  -27.3420   20.1450 C   0  0  0  0  0  0  0  0  0  0  0  0
  -23.5030  -30.4350   21.6270 C   0  0  0  0  0  3  0  0  0  0  0  0
  -24.9790  -28.9430   20.1650 C   0  0  0  0  0  0  0  0  0  0  0  0
  -26.0430  -30.7590   21.5090 C   0  0  0  0  0  2  0  0  0  0  0  0
  -26.1350  -29.4100   20.8030 C   0  0  0  0  0  0  0  0  0  0  0  0
  -27.3220  -28.6220   20.7790 C   0  0  0  0  0  3  0  0  0  0  0  0
  -26.1700  -26.9170   19.5000 C   0  0  0  0  0  3  0  0  0  0  0  0
  -24.9980  -27.7010   19.5070 C   0  0  0  0  0  3  0  0  0  0  0  0
  -23.7440  -29.8190   20.2230 C   0  0  0  0  0  2  0  0  0  0  0  0
  -24.7590  -30.9950   22.2230 N   0  0  0  0  0  0  0  0  0  0  0  0
  -23.5790  -32.0070   23.8800 O   0  0  0  0  0  0  0  0  0  0  0  0
  -22.8170  -29.3780   22.5240 C   0  0  0  0  0  0  0  0  0  0  0  0
  -21.4910  -29.2190   22.3660 N   0  0  0  0  0  0  0  0  0  0  0  0
  -23.4760  -28.7060   23.3210 O   0  0  0  0  0  0  0  0  0  0  0  0
  -21.0200  -29.8140   21.7000 H   0  0  0  0  0  0  0  0  0  0  0  0
  -18.0940  -28.0480   22.7670 C   0  0  0  0  0  0  0  0  0  0  0  0
  -20.6520  -28.2520   23.0750 C   0  0  0  0  0  3  0  0  0  0  0  0
  -20.7380  -26.8550   22.4200 C   0  0  0  0  0  2  0  0  0  0  0  0
  -19.6420  -26.6070   21.3790 C   0  0  0  0  0  2  0  0  0  0  0  0
  -18.2560  -26.7370   22.0170 C   0  0  0  0  0  2  0  0  0  0  0  0
  -19.2190  -28.7680   23.2500 C   0  0  0  0  0  0  0  0  0  0  0  0
  -19.0120  -29.9980   23.9110 C   0  0  0  0  0  3  0  0  0  0  0  0
  -17.7140  -30.5090   24.0930 C   0  0  0  0  0  3  0  0  0  0  0  0
  -16.6020  -29.7860   23.6260 C   0  0  0  0  0  3  0  0  0  0  0  0
  -16.7930  -28.5570   22.9690 C   0  0  0  0  0  3  0  0  0  0  0  0
  -25.9450  -32.3480   24.0360 C   0  0  0  0  0  3  0  0  0  0  0  0
  -26.4090  -31.5360   25.3070 C   0  0  1  0  0  0  0  0  0  0  0  0
  -25.2790  -31.2830   26.3310 C   0  0  0  0  0  1  0  0  0  0  0  0
  -26.9880  -30.1610   24.8960 C   0  0  0  0  0  1  0  0  0  0  0  0
  -27.5470  -32.2960   26.0280 C   0  0  0  0  0  1  0  0  0  0  0  0
  -25.6440  -33.7410   24.3950 N   0  0  0  0  0  0  0  0  0  0  0  0
  -26.0240  -34.8100   23.6830 C   0  0  0  0  0  0  0  0  0  0  0  0
  -26.7340  -34.7250   22.6770 O   0  0  0  0  0  0  0  0  0  0  0  0
  -25.0180  -33.8830   25.1740 H   0  0  0  0  0  0  0  0  0  0  0  0
  -24.3480  -36.6490   23.3060 C   0  0  0  0  0  1  0  0  0  0  0  0
  -25.5410  -36.1930   24.1620 C   0  0  0  0  0  3  0  0  0  0  0  0
  -27.6460  -37.0100   25.1270 C   0  0  0  0  0  1  0  0  0  0  0  0
  -26.5970  -37.2280   24.1340 N   0  0  0  0  0  0  0  0  0  0  0  0
  -26.2010  -38.1510   24.2890 H   0  0  0  0  0  0  0  0  0  0  0  0
  1 51  1  0
  1  4  1  0
  2  1  2  0
  3  2  1  0
  4  6  2  0
  5  4  1  0
  5 10  1  0
  7  5  1  0
  8  9  1  0
 10  8  2  0
 11 21  1  0
 11  9  2  0
 12 10  1  0
 12 11  1  0
 13 21  1  0
 14 19  1  0
 15 16  1  0
 15 14  1  0
 17 16  1  0
 17 26  1  0
 17 18  1  0
 19 13  1  0
 19 18  1  0
 20 13  2  0
 21 22  1  0
 23 24  2  0
 24 43  1  0
 25 24  1  0
 25 28  1  0
 26 23  1  0
 26 27  1  0
 27 25  2  0
 28 29  1  0
 29 30  2  0
 31 34  1  0
 31 30  1  0
 32 31  2  0
 33 32  1  0
 33 28  2  0
 34 35  1  0
 35 40  2  0
 35 36  1  0
 36 37  2  0
 37 38  1  0
 38 42  1  0
 39 38  2  0
 40 39  1  0
 41 40  1  0
 43 44  1  0
 44 47  1  0
 44 46  1  0
 45 43  2  0
 48 49  1  0
 48 23  1  0
 50 48  1  0
 51 54  1  0
 52 51  2  0
 53 52  1  0
 54 55  1  0
 56 67  2  0
 57 55  1  0
 57 62  1  0
 58 66  1  0
 58 68  1  0
 59 65  1  0
 59 61  1  0
 60 66  1  0
 61 60  1  0
 62 61  2  0
 63 64  1  0
 63 57  2  0
 64 59  2  0
 65 58  1  0
 66 56  1  0
 68 70  2  0
 69 68  1  0
 71 69  1  0
 72 81  2  0
 72 77  1  0
 73 69  1  0
 73 77  1  0
 74 73  1  0
 75 76  1  0
 75 74  1  0
 76 72  1  0
 77 78  2  0
 78 79  1  0
 80 79  2  0
 81 80  1  0
 82 56  1  0
 82 87  1  0
 82 83  1  0
 83 86  1  1
 83 84  1  0
 85 83  1  0
 87 90  1  0
 88 92  1  0
 88 87  1  0
 89 88  2  0
 92 91  1  0
 94 92  1  0
 94 95  1  0
 94 93  1  0
M  ISO  4  13 100  21 100  54 101  55 101
M  END
>  <TORSDO>  (10) 
F 20

>  <SCORE>  (10) 
-13.117

>  <name>  (10) 
9

>  <ligand_id>  (10) 
9

>  <original_smiles>  (10) 
[H]N=C(C(=O)N([H])c1oc(N([H])C(=O)N2C([H])([H])C([H])([H])C([H])([H])C([H])(n3nc(-c4c([H])c([H])c(Oc5c([H])c([H])c(F)c([H])c5F)c([H])c4[H])c(C(=O)N([H])[H])c3N([H])[H])C2([H])[H])c([H])c1[H])C(=N[H])C([H])([H])Oc1c([H])c([H])c2c(c1[H])C([H])([H])N(C(=O)C([H])(N([H])C(=O)C([H])(N([H])C([H])([H])[H])C([H])([H])[H])C(C([H])([H])[H])(C([H])([H])[H])C([H])([H])[H])C([H])(C(=O)N([H])C1([H])c3c([H])c([H])c([H])c([H])c3C([H])([H])C([H])([H])C1([H])[H])C2([H])[H]

>  <smiles>  (10) 
[H]N=C(C(=O)N([H])c1oc(N([H])C(=O)N2C([H])([H])C([H])([H])C([H])([H])C([H])(n3nc(-c4c([H])c([H])c(Oc5c([H])c([H])c(F)c([H])c5F)c([H])c4[H])c(C(=O)N([H])[H])c3N([H])[H])C2([H])[H])c([H])c1[H])C(=N[H])C([H])([H])Oc1c([H])c([H])c2c(c1[H])C([H])([H])N(C(=O)C([H])(N([H])C(=O)C([H])(N([H])C([H])([H])[H])C([H])([H])[H])C(C([H])([H])[H])(C([H])([H])[H])C([H])([H])[H])C([H])(C(=O)N([H])C1([H])c3c([H])c([H])c([H])c([H])c3C([H])([H])C([H])([H])C1([H])[H])C2([H])[H]

$$$$
10:0:0
     RDKit          3D

 95104  0  0  1  0  0  0  0  0999 V2000
  -29.9580  -21.6990   18.7710 C   0  0  0  0  0  2  0  0  0  0  0  0
  -29.4060  -22.0660   21.1740 C   0  0  0  0  0  2  0  0  0  0  0  0
  -29.4360  -23.1220   18.4310 C   0  0  0  0  0  2  0  0  0  0  0  0
  -28.8490  -23.4910   20.8540 C   0  0  0  0  0  2  0  0  0  0  0  0
  -29.2160  -21.1010   19.9810 C   0  0  0  0  0  3  0  0  0  0  0  0
  -29.4730  -24.1660   19.5940 C   0  0  1  0  0  0  0  0  0  0  0  0
  -28.5850  -17.3820   20.7930 C   0  0  0  0  0  3  0  0  0  0  0  0
  -30.9100  -17.7340   20.2870 C   0  0  0  0  0  3  0  0  0  0  0  0
  -29.8670  -16.8250   20.6030 C   0  0  0  0  0  0  0  0  0  0  0  0
  -28.3740  -18.7630   20.6090 C   0  0  0  0  0  0  0  0  0  0  0  0
  -29.4630  -19.5890   20.2510 C   0  0  0  0  0  0  0  0  0  0  0  0
  -30.7210  -19.0780   20.1360 N   0  0  0  0  0  0  0  0  0  0  0  0
  -27.1290  -19.2790   20.7640 F   0  0  0  0  0  0  0  0  0  0  0  0
  -30.6460  -14.4880   19.9970 C   0  0  0  0  0  0  0  0  0  0  0  0
  -30.2930  -12.3530   18.7870 C   0  0  0  0  0  2  0  0  0  0  0  0
  -29.2500  -12.5830   17.6690 C   0  0  0  0  0  2  0  0  0  0  0  0
  -27.8120  -12.4370   18.2070 C   0  0  0  0  0  2  0  0  0  0  0  0
  -27.5820  -13.2340   19.5180 C   0  0  0  0  0  3  0  0  0  0  0  0
  -28.7170  -12.9480   20.5290 C   0  0  0  0  0  2  0  0  0  0  0  0
  -30.0010  -13.2910   19.8850 N   0  0  0  0  0  0  0  0  0  0  0  0
  -31.6980  -14.7430   19.4040 O   0  0  0  0  0  0  0  0  0  0  0  0
  -30.0000  -15.3970   20.7590 N   0  0  0  0  0  0  0  0  0  0  0  0
  -29.2560  -14.9670   21.2890 H   0  0  0  0  0  0  0  0  0  0  0  0
  -25.2580  -13.8520   20.4360 C   0  0  0  0  0  0  0  0  0  0  0  0
  -24.2060  -13.0850   20.8610 C   0  0  0  0  0  0  0  0  0  0  0  0
  -24.6360  -11.7270   20.7380 C   0  0  0  0  0  0  0  0  0  0  0  0
  -26.2630  -12.9640   20.0890 N   0  0  0  0  0  0  0  0  0  0  0  0
  -25.8960  -11.6790   20.3250 N   0  0  0  0  0  0  0  0  0  0  0  0
  -23.9020  -10.4710   20.9340 C   0  0  0  0  0  0  0  0  0  0  0  0
  -24.3370   -9.4980   21.8600 C   0  0  0  0  0  3  0  0  0  0  0  0
  -23.6050   -8.3050   22.0430 C   0  0  0  0  0  3  0  0  0  0  0  0
  -22.4230   -8.0760   21.2990 C   0  0  0  0  0  0  0  0  0  0  0  0
  -22.0080   -9.0380   20.3610 C   0  0  0  0  0  3  0  0  0  0  0  0
  -22.7390  -10.2220   20.1770 C   0  0  0  0  0  3  0  0  0  0  0  0
  -21.6630   -6.9350   21.3910 O   0  0  0  0  0  0  0  0  0  0  0  0
  -21.5450   -6.2420   22.5680 C   0  0  0  0  0  0  0  0  0  0  0  0
  -21.0310   -6.8430   23.7390 C   0  0  0  0  0  3  0  0  0  0  0  0
  -20.8630   -6.0750   24.9080 C   0  0  0  0  0  3  0  0  0  0  0  0
  -21.1980   -4.7070   24.9080 C   0  0  0  0  0  0  0  0  0  0  0  0
  -21.7040   -4.1060   23.7430 C   0  0  0  0  0  3  0  0  0  0  0  0
  -21.8740   -4.8720   22.5750 C   0  0  0  0  0  0  0  0  0  0  0  0
  -22.3410   -4.2820   21.4480 F   0  0  0  0  0  0  0  0  0  0  0  0
  -21.0300   -3.9680   26.0280 F   0  0  0  0  0  0  0  0  0  0  0  0
  -22.8460  -13.5740   21.2650 C   0  0  0  0  0  0  0  0  0  0  0  0
  -22.1790  -12.8570   22.1640 N   0  0  0  0  0  0  0  0  0  0  0  0
  -22.3850  -14.6240   20.8200 O   0  0  0  0  0  0  0  0  0  0  0  0
  -22.5670  -12.0080   22.5460 H   0  0  0  0  0  0  0  0  0  0  0  0
  -21.2690  -13.1650   22.4760 H   0  0  0  0  0  0  0  0  0  0  0  0
  -25.4340  -15.2260   20.2950 N   0  0  0  0  0  0  0  0  0  0  0  0
  -24.6810  -15.8820   20.4620 H   0  0  0  0  0  0  0  0  0  0  0  0
  -26.2310  -15.6490   19.8350 H   0  0  0  0  0  0  0  0  0  0  0  0
  -31.2450  -25.4310   20.6970 C   0  0  0  0  0  1  0  0  0  0  0  0
  -30.8730  -24.4090   19.7790 O   0  0  0  0  0  0  0  0  0  0  0  0
  -28.7010  -25.4530   19.0940 C   0  0  0  0  0  2  0  0  0  0  0  0
  -28.4890  -26.5860   19.9880 O   0  0  0  0  0  0  0  0  0  0  0  0
  -24.5230  -31.7130   23.0660 C   0  0  0  0  0  0  0  0  0  0  0  0
  -27.3050  -27.3270   19.9390 C   0  0  0  0  0  0  0  0  0  0  0  0
  -23.3760  -30.3140   21.3880 C   0  0  0  0  0  3  0  0  0  0  0  0
  -24.8820  -28.8370   19.9570 C   0  0  0  0  0  0  0  0  0  0  0  0
  -25.9060  -30.7100   21.2430 C   0  0  0  0  0  2  0  0  0  0  0  0
  -26.0280  -29.3510   20.5750 C   0  0  0  0  0  0  0  0  0  0  0  0
  -27.2350  -28.6020   20.5670 C   0  0  0  0  0  3  0  0  0  0  0  0
  -26.1200  -26.8500   19.3190 C   0  0  0  0  0  3  0  0  0  0  0  0
  -24.9260  -27.5870   19.3320 C   0  0  0  0  0  3  0  0  0  0  0  0
  -23.6230  -29.6730   19.9990 C   0  0  0  0  0  2  0  0  0  0  0  0
  -24.6200  -30.9270   21.9570 N   0  0  0  0  0  0  0  0  0  0  0  0
  -23.4270  -31.9540   23.5900 O   0  0  0  0  0  0  0  0  0  0  0  0
  -22.7320  -29.2590   22.3190 C   0  0  0  0  0  0  0  0  0  0  0  0
  -21.4130  -29.0550   22.1740 N   0  0  0  0  0  0  0  0  0  0  0  0
  -23.4190  -28.6290   23.1280 O   0  0  0  0  0  0  0  0  0  0  0  0
  -20.9180  -29.6180   21.4970 H   0  0  0  0  0  0  0  0  0  0  0  0
  -18.0530  -27.8030   22.6350 C   0  0  0  0  0  0  0  0  0  0  0  0
  -20.6060  -28.0890   22.9200 C   0  0  0  0  0  3  0  0  0  0  0  0
  -20.7270  -26.6720   22.3100 C   0  0  0  0  0  2  0  0  0  0  0  0
  -19.6330  -26.3610   21.2840 C   0  0  0  0  0  2  0  0  0  0  0  0
  -18.2480  -26.4730   21.9290 C   0  0  0  0  0  2  0  0  0  0  0  0
  -19.1600  -28.5690   23.0870 C   0  0  0  0  0  0  0  0  0  0  0  0
  -18.9230  -29.8160   23.7070 C   0  0  0  0  0  3  0  0  0  0  0  0
  -17.6110  -30.2960   23.8800 C   0  0  0  0  0  3  0  0  0  0  0  0
  -16.5180  -29.5270   23.4460 C   0  0  0  0  0  3  0  0  0  0  0  0
  -16.7390  -28.2830   22.8290 C   0  0  0  0  0  3  0  0  0  0  0  0
  -25.7830  -32.3650   23.7140 C   0  0  0  0  0  3  0  0  0  0  0  0
  -26.3230  -31.5670   24.9640 C   0  0  1  0  0  0  0  0  0  0  0  0
  -25.2350  -31.2510   26.0160 C   0  0  0  0  0  1  0  0  0  0  0  0
  -26.9570  -30.2270   24.5240 C   0  0  0  0  0  1  0  0  0  0  0  0
  -27.4410  -32.3780   25.6600 C   0  0  0  0  0  1  0  0  0  0  0  0
  -25.4250  -33.7400   24.0910 N   0  0  0  0  0  0  0  0  0  0  0  0
  -25.7100  -34.8270   23.3640 C   0  0  0  0  0  0  0  0  0  0  0  0
  -26.3750  -34.7830   22.3250 O   0  0  0  0  0  0  0  0  0  0  0  0
  -24.8310  -33.8450   24.9010 H   0  0  0  0  0  0  0  0  0  0  0  0
  -23.9050  -36.5580   23.0880 C   0  0  0  0  0  1  0  0  0  0  0  0
  -25.1730  -36.1810   23.8690 C   0  0  0  0  0  3  0  0  0  0  0  0
  -27.2780  -37.1310   24.7030 C   0  0  0  0  0  1  0  0  0  0  0  0
  -26.1620  -37.2770   23.7740 N   0  0  0  0  0  0  0  0  0  0  0  0
  -25.7190  -38.1760   23.9480 H   0  0  0  0  0  0  0  0  0  0  0  0
  1  5  1  0
  3  1  1  0
  3  6  1  0
  4  2  1  0
  5 11  1  0
  5  2  1  0
  6 54  1  6
  6 53  1  0
  6  4  1  0
  8  9  1  0
  9 22  1  0
  9  7  2  0
 10 13  1  0
 10  7  1  0
 11 10  2  0
 12 11  1  0
 12  8  2  0
 14 22  1  0
 15 20  1  0
 16 17  1  0
 16 15  1  0
 18 17  1  0
 18 27  1  0
 18 19  1  0
 20 14  1  0
 20 19  1  0
 21 14  2  0
 22 23  1  0
 24 25  2  0
 25 44  1  0
 26 25  1  0
 26 29  1  0
 27 28  1  0
 27 24  1  0
 28 26  2  0
 29 30  1  0
 30 31  2  0
 32 35  1  0
 32 31  1  0
 33 32  2  0
 34 33  1  0
 34 29  2  0
 35 36  1  0
 36 41  2  0
 36 37  1  0
 37 38  2  0
 39 38  1  0
 39 43  1  0
 40 39  2  0
 41 40  1  0
 42 41  1  0
 44 45  1  0
 45 48  1  0
 45 47  1  0
 46 44  2  0
 49 24  1  0
 49 50  1  0
 51 49  1  0
 53 52  1  0
 54 55  1  0
 56 67  2  0
 57 55  1  0
 57 62  1  0
 58 66  1  0
 58 68  1  0
 59 65  1  0
 59 61  1  0
 60 66  1  0
 61 60  1  0
 62 61  2  0
 63 64  1  0
 63 57  2  0
 64 59  2  0
 65 58  1  0
 66 56  1  0
 68 70  2  0
 69 68  1  0
 71 69  1  0
 72 81  2  0
 72 77  1  0
 73 69  1  0
 73 77  1  0
 74 73  1  0
 75 76  1  0
 75 74  1  0
 76 72  1  0
 77 78  2  0
 78 79  1  0
 80 79  2  0
 81 80  1  0
 82 56  1  0
 82 87  1  0
 82 83  1  0
 83 86  1  1
 83 84  1  0
 85 83  1  0
 87 90  1  0
 88 92  1  0
 88 87  1  0
 89 88  2  0
 92 91  1  0
 94 92  1  0
 94 95  1  0
 94 93  1  0
M  ISO  4  14 100  22 100  54 101  55 101
M  END
>  <TORSDO>  (11) 
F 19

>  <SCORE>  (11) 
-13.598

>  <name>  (11) 
10

>  <ligand_id>  (11) 
10

>  <original_smiles>  (11) 
[H]c1nc(C2([H])C([H])([H])C([H])([H])C(OC([H])([H])[H])(C([H])([H])Oc3c([H])c([H])c4c(c3[H])C([H])([H])N(C(=O)C([H])(N([H])C(=O)C([H])(N([H])C([H])([H])[H])C([H])([H])[H])C(C([H])([H])[H])(C([H])([H])[H])C([H])([H])[H])C([H])(C(=O)N([H])C3([H])c5c([H])c([H])c([H])c([H])c5C([H])([H])C([H])([H])C3([H])[H])C4([H])[H])C([H])([H])C2([H])[H])c(F)c([H])c1N([H])C(=O)N1C([H])([H])C([H])([H])C([H])([H])C([H])(n2nc(-c3c([H])c([H])c(Oc4c([H])c([H])c(F)c([H])c4F)c([H])c3[H])c(C(=O)N([H])[H])c2N([H])[H])C1([H])[H]

>  <smiles>  (11) 
[H]c1nc(C2([H])C([H])([H])C([H])([H])C(OC([H])([H])[H])(C([H])([H])Oc3c([H])c([H])c4c(c3[H])C([H])([H])N(C(=O)C([H])(N([H])C(=O)C([H])(N([H])C([H])([H])[H])C([H])([H])[H])C(C([H])([H])[H])(C([H])([H])[H])C([H])([H])[H])C([H])(C(=O)N([H])C3([H])c5c([H])c([H])c([H])c([H])c5C([H])([H])C([H])([H])C3([H])[H])C4([H])[H])C([H])([H])C2([H])[H])c(F)c([H])c1N([H])C(=O)N1C([H])([H])C([H])([H])C([H])([H])C([H])(n2nc(-c3c([H])c([H])c(Oc4c([H])c([H])c(F)c([H])c4F)c([H])c3[H])c(C(=O)N([H])[H])c2N([H])[H])C1([H])[H]

$$$$
11:0:0
     RDKit          3D

 96104  0  0  1  0  0  0  0  0999 V2000
  -31.2980  -18.3420   21.0950 C   0  0  0  0  0  3  0  0  0  0  0  0
  -29.2220  -19.4190   20.3810 C   0  0  0  0  0  3  0  0  0  0  0  0
  -31.0830  -20.7720   21.1320 C   0  0  0  0  0  3  0  0  0  0  0  0
  -29.9880  -18.2330   20.5900 C   0  0  0  0  0  0  0  0  0  0  0  0
  -31.8540  -19.6120   21.3490 C   0  0  0  0  0  0  0  0  0  0  0  0
  -29.7510  -20.7160   20.6490 C   0  0  0  0  0  0  0  0  0  0  0  0
  -29.2430  -23.2140   20.5870 C   0  0  0  0  0  0  0  0  0  0  0  0
  -28.9650  -21.9020   20.3480 N   0  0  0  0  0  0  0  0  0  0  0  0
  -30.1800  -23.5620   21.3120 O   0  0  0  0  0  0  0  0  0  0  0  0
  -28.0990  -21.7420   19.8500 H   0  0  0  0  0  0  0  0  0  0  0  0
  -28.3510  -24.3270   19.9500 C   0  0  0  0  0  2  0  0  0  0  0  0
  -28.4250  -25.7070   20.6930 C   0  0  0  0  0  2  0  0  0  0  0  0
  -28.1870  -26.8920   19.9120 O   0  0  0  0  0  0  0  0  0  0  0  0
  -24.4930  -32.0640   23.2730 C   0  0  0  0  0  0  0  0  0  0  0  0
  -27.0060  -27.5890   20.0870 C   0  0  0  0  0  0  0  0  0  0  0  0
  -23.2250  -30.6810   21.6630 C   0  0  0  0  0  3  0  0  0  0  0  0
  -24.6190  -29.1110   20.2080 C   0  0  0  0  0  0  0  0  0  0  0  0
  -25.7510  -31.0020   21.3960 C   0  0  0  0  0  2  0  0  0  0  0  0
  -25.8010  -29.6280   20.7510 C   0  0  0  0  0  0  0  0  0  0  0  0
  -27.0010  -28.8760   20.6800 C   0  0  0  0  0  3  0  0  0  0  0  0
  -25.8030  -27.0780   19.5590 C   0  0  0  0  0  3  0  0  0  0  0  0
  -24.6120  -27.8330   19.6180 C   0  0  0  0  0  3  0  0  0  0  0  0
  -23.3890  -29.9920   20.2820 C   0  0  0  0  0  2  0  0  0  0  0  0
  -24.5100  -31.2640   22.1700 N   0  0  0  0  0  0  0  0  0  0  0  0
  -23.4310  -32.3510   23.8410 O   0  0  0  0  0  0  0  0  0  0  0  0
  -22.5850  -29.6700   22.6430 C   0  0  0  0  0  0  0  0  0  0  0  0
  -21.2610  -29.4710   22.5180 N   0  0  0  0  0  0  0  0  0  0  0  0
  -23.2740  -29.0630   23.4650 O   0  0  0  0  0  0  0  0  0  0  0  0
  -20.7640  -30.0090   21.8230 H   0  0  0  0  0  0  0  0  0  0  0  0
  -17.9150  -28.2060   23.0110 C   0  0  0  0  0  0  0  0  0  0  0  0
  -20.4610  -28.5310   23.3020 C   0  0  0  0  0  3  0  0  0  0  0  0
  -20.6050  -27.0910   22.7600 C   0  0  0  0  0  2  0  0  0  0  0  0
  -19.5220  -26.7210   21.7420 C   0  0  0  0  0  2  0  0  0  0  0  0
  -18.1310  -26.8470   22.3690 C   0  0  0  0  0  2  0  0  0  0  0  0
  -19.0100  -29.0040   23.4350 C   0  0  0  0  0  0  0  0  0  0  0  0
  -18.7570  -30.2760   23.9960 C   0  0  0  0  0  3  0  0  0  0  0  0
  -17.4410  -30.7500   24.1380 C   0  0  0  0  0  3  0  0  0  0  0  0
  -16.3590  -29.9520   23.7290 C   0  0  0  0  0  3  0  0  0  0  0  0
  -16.5960  -28.6820   23.1720 C   0  0  0  0  0  3  0  0  0  0  0  0
  -25.8010  -32.6750   23.8640 C   0  0  0  0  0  3  0  0  0  0  0  0
  -25.5250  -34.0810   24.1920 N   0  0  0  0  0  0  0  0  0  0  0  0
  -25.8720  -35.1230   23.4250 C   0  0  0  0  0  0  0  0  0  0  0  0
  -26.5260  -35.0010   22.3870 O   0  0  0  0  0  0  0  0  0  0  0  0
  -24.9440  -34.2520   24.9980 H   0  0  0  0  0  0  0  0  0  0  0  0
  -24.1850  -36.9550   23.0700 C   0  0  0  0  0  1  0  0  0  0  0  0
  -25.4160  -36.5230   23.8810 C   0  0  0  0  0  3  0  0  0  0  0  0
  -27.5700  -37.3600   24.7160 C   0  0  0  0  0  1  0  0  0  0  0  0
  -26.4740  -37.5520   23.7690 N   0  0  0  0  0  0  0  0  0  0  0  0
  -26.0890  -38.4810   23.9140 H   0  0  0  0  0  0  0  0  0  0  0  0
  -26.3330  -31.9010   25.1310 C   0  0  1  0  0  0  0  0  0  0  0  0
  -25.2540  -31.6750   26.2150 C   0  0  0  0  0  1  0  0  0  0  0  0
  -26.8960  -30.5180   24.7280 C   0  0  0  0  0  1  0  0  0  0  0  0
  -27.5030  -32.6860   25.7700 C   0  0  0  0  0  1  0  0  0  0  0  0
  -33.3080  -19.7600   21.7830 C   0  0  1  0  0  0  0  0  0  0  0  0
  -33.8420  -18.6050   22.1850 F   0  0  0  0  0  0  0  0  0  0  0  0
  -34.0230  -20.2130   20.7540 F   0  0  0  0  0  0  0  0  0  0  0  0
  -33.4060  -20.6350   22.7860 F   0  0  0  0  0  0  0  0  0  0  0  0
  -29.4420  -16.8640   20.1610 C   0  0  0  0  0  2  0  0  0  0  0  0
  -30.6160  -14.7020   20.5540 C   0  0  0  0  0  0  0  0  0  0  0  0
  -30.4570  -12.4850   19.4810 C   0  0  0  0  0  2  0  0  0  0  0  0
  -29.5420  -12.6760   18.2530 C   0  0  0  0  0  2  0  0  0  0  0  0
  -28.0550  -12.5270   18.6450 C   0  0  0  0  0  2  0  0  0  0  0  0
  -27.6820  -13.3550   19.9040 C   0  0  0  0  0  3  0  0  0  0  0  0
  -28.7150  -13.1230   21.0340 C   0  0  0  0  0  2  0  0  0  0  0  0
  -30.0440  -13.4660   20.5000 N   0  0  0  0  0  0  0  0  0  0  0  0
  -31.7180  -14.9570   20.0580 O   0  0  0  0  0  0  0  0  0  0  0  0
  -29.7790  -15.6750   20.9700 N   0  0  0  0  0  0  0  0  0  0  0  0
  -28.9990  -15.3240   21.5090 H   0  0  0  0  0  0  0  0  0  0  0  0
  -25.2680  -13.9520   20.5680 C   0  0  0  0  0  0  0  0  0  0  0  0
  -24.1980  -13.1700   20.9160 C   0  0  0  0  0  0  0  0  0  0  0  0
  -24.6660  -11.8220   20.8780 C   0  0  0  0  0  0  0  0  0  0  0  0
  -26.3190  -13.0750   20.3500 N   0  0  0  0  0  0  0  0  0  0  0  0
  -25.9590  -11.7890   20.5880 N   0  0  0  0  0  0  0  0  0  0  0  0
  -23.9430  -10.5550   21.0460 C   0  0  0  0  0  0  0  0  0  0  0  0
  -24.3610   -9.5910   21.9890 C   0  0  0  0  0  3  0  0  0  0  0  0
  -23.6450   -8.3860   22.1450 C   0  0  0  0  0  3  0  0  0  0  0  0
  -22.4950   -8.1370   21.3590 C   0  0  0  0  0  0  0  0  0  0  0  0
  -22.0950   -9.0920   20.4070 C   0  0  0  0  0  3  0  0  0  0  0  0
  -22.8120  -10.2890   20.2490 C   0  0  0  0  0  3  0  0  0  0  0  0
  -21.7490   -6.9870   21.4260 O   0  0  0  0  0  0  0  0  0  0  0  0
  -21.6560   -6.2540   22.5820 C   0  0  0  0  0  0  0  0  0  0  0  0
  -21.1300   -6.8020   23.7720 C   0  0  0  0  0  3  0  0  0  0  0  0
  -20.9900   -5.9940   24.9170 C   0  0  0  0  0  3  0  0  0  0  0  0
  -21.3640   -4.6370   24.8720 C   0  0  0  0  0  0  0  0  0  0  0  0
  -21.8800   -4.0870   23.6860 C   0  0  0  0  0  3  0  0  0  0  0  0
  -22.0240   -4.8940   22.5440 C   0  0  0  0  0  0  0  0  0  0  0  0
  -22.5040   -4.3550   21.3950 F   0  0  0  0  0  0  0  0  0  0  0  0
  -21.2210   -3.8570   25.9680 F   0  0  0  0  0  0  0  0  0  0  0  0
  -22.7950  -13.6400   21.1740 C   0  0  0  0  0  0  0  0  0  0  0  0
  -22.0590  -12.9280   22.0230 N   0  0  0  0  0  0  0  0  0  0  0  0
  -22.3560  -14.6650   20.6570 O   0  0  0  0  0  0  0  0  0  0  0  0
  -22.4270  -12.1020   22.4700 H   0  0  0  0  0  0  0  0  0  0  0  0
  -21.1150  -13.2190   22.2310 H   0  0  0  0  0  0  0  0  0  0  0  0
  -25.4240  -15.3240   20.4010 N   0  0  0  0  0  0  0  0  0  0  0  0
  -24.6450  -15.9680   20.4910 H   0  0  0  0  0  0  0  0  0  0  0  0
  -26.2670  -15.7710   20.0600 H   0  0  0  0  0  0  0  0  0  0  0  0
  1  5  1  0
  2  4  1  0
  2  6  2  0
  3  5  2  0
  4  1  2  0
  5 54  1  0
  6  3  1  0
  7  9  2  0
  8  7  1  0
  8  6  1  0
 10  8  1  0
 11  7  1  0
 11 12  1  0
 13 15  1  0
 13 12  1  0
 14 25  2  0
 15 20  1  0
 16 24  1  0
 16 26  1  0
 17 23  1  0
 17 19  1  0
 18 24  1  0
 19 18  1  0
 20 19  2  0
 21 22  1  0
 21 15  2  0
 22 17  2  0
 23 16  1  0
 24 14  1  0
 26 28  2  0
 27 26  1  0
 29 27  1  0
 30 39  2  0
 30 35  1  0
 31 27  1  0
 31 35  1  0
 32 31  1  0
 33 34  1  0
 33 32  1  0
 34 30  1  0
 35 36  2  0
 36 37  1  0
 38 37  2  0
 39 38  1  0
 40 14  1  0
 40 41  1  0
 40 50  1  0
 41 44  1  0
 42 46  1  0
 42 41  1  0
 43 42  2  0
 46 45  1  0
 48 46  1  0
 48 49  1  0
 48 47  1  0
 50 53  1  1
 50 51  1  0
 52 50  1  0
 54 55  1  1
 54 57  1  0
 56 54  1  0
 58  4  1  0
 58 67  1  0
 59 67  1  0
 60 65  1  0
 61 62  1  0
 61 60  1  0
 63 62  1  0
 63 72  1  0
 63 64  1  0
 65 59  1  0
 65 64  1  0
 66 59  2  0
 67 68  1  0
 69 70  2  0
 70 89  1  0
 71 70  1  0
 71 74  1  0
 72 69  1  0
 72 73  1  0
 73 71  2  0
 74 75  1  0
 75 76  2  0
 77 80  1  0
 77 76  1  0
 78 77  2  0
 79 78  1  0
 79 74  2  0
 80 81  1  0
 81 82  1  0
 82 83  2  0
 84 83  1  0
 84 88  1  0
 85 84  2  0
 86 81  2  0
 86 85  1  0
 87 86  1  0
 89 90  1  0
 90 93  1  0
 90 92  1  0
 91 89  2  0
 94 95  1  0
 94 69  1  0
 96 94  1  0
M  ISO  4  12 101  13 101  59 100  67 100
M  END
>  <TORSDO>  (12) 
F 21

>  <SCORE>  (12) 
-13.327

>  <name>  (12) 
11

>  <ligand_id>  (12) 
11

>  <original_smiles>  (12) 
[H]c1c([H])c([H])c2c(c1[H])C([H])([H])C([H])([H])C([H])([H])C2([H])N([H])C(=O)C1([H])N(C(=O)C([H])(N([H])C(=O)C([H])(N([H])C([H])([H])[H])C([H])([H])[H])C(C([H])([H])[H])(C([H])([H])[H])C([H])([H])[H])C([H])([H])c2c([H])c(OC([H])([H])C([H])([H])C(=O)N([H])c3c([H])c(C(F)(F)F)c([H])c(C([H])([H])N([H])C(=O)N4C([H])([H])C([H])([H])C([H])([H])C([H])(n5nc(-c6c([H])c([H])c(Oc7c([H])c([H])c(F)c([H])c7F)c([H])c6[H])c(C(=O)N([H])[H])c5N([H])[H])C4([H])[H])c3[H])c([H])c([H])c2C1([H])[H]

>  <smiles>  (12) 
[H]c1c([H])c([H])c2c(c1[H])C([H])([H])C([H])([H])C([H])([H])C2([H])N([H])C(=O)C1([H])N(C(=O)C([H])(N([H])C(=O)C([H])(N([H])C([H])([H])[H])C([H])([H])[H])C(C([H])([H])[H])(C([H])([H])[H])C([H])([H])[H])C([H])([H])c2c([H])c(OC([H])([H])C([H])([H])C(=O)N([H])c3c([H])c(C(F)(F)F)c([H])c(C([H])([H])N([H])C(=O)N4C([H])([H])C([H])([H])C([H])([H])C([H])(n5nc(-c6c([H])c([H])c(Oc7c([H])c([H])c(F)c([H])c7F)c([H])c6[H])c(C(=O)N([H])[H])c5N([H])[H])C4([H])[H])c3[H])c([H])c([H])c2C1([H])[H]

$$$$
12:0:0
     RDKit          3D

 92100  0  0  1  0  0  0  0  0999 V2000
  -29.2360  -21.7670   19.9350 C   0  0  0  0  0  0  0  0  0  0  0  0
  -28.8350  -20.3980   20.0550 C   0  0  0  0  0  0  0  0  0  0  0  0
  -30.6870  -21.9790   19.5180 C   0  0  0  0  0  2  0  0  0  0  0  0
  -31.4050  -20.6950   18.9990 C   0  0  0  0  0  2  0  0  0  0  0  0
  -29.7170  -18.9750   19.8020 C   0  0  0  0  0  3  0  0  0  0  0  0
  -31.1980  -19.4100   19.8530 C   0  0  0  0  0  3  0  0  0  0  0  0
  -31.7190  -19.5910   21.2920 C   0  0  0  0  0  1  0  0  0  0  0  0
  -29.4550  -17.4440   20.5300 C   0  0  0  0  0  0  0  0  0  0  0  0
  -28.5130  -17.6850   21.7010 C   0  0  0  0  0  1  0  0  0  0  0  0
  -29.7330  -16.0890   20.4810 N   0  0  0  0  0  0  0  0  0  0  0  0
  -30.5890  -15.0490   19.8470 C   0  0  0  0  0  0  0  0  0  0  0  0
  -30.5360  -12.6850   18.8460 C   0  0  0  0  0  2  0  0  0  0  0  0
  -29.4990  -12.6320   17.6970 C   0  0  0  0  0  2  0  0  0  0  0  0
  -28.0760  -12.3840   18.2380 C   0  0  0  0  0  2  0  0  0  0  0  0
  -27.7570  -13.2660   19.4710 C   0  0  0  0  0  3  0  0  0  0  0  0
  -28.9000  -13.2370   20.5070 C   0  0  0  0  0  2  0  0  0  0  0  0
  -30.1050  -13.7310   19.8230 N   0  0  0  0  0  0  0  0  0  0  0  0
  -31.6950  -15.2170   19.3250 O   0  0  0  0  0  0  0  0  0  0  0  0
  -25.4430  -13.8130   20.4190 C   0  0  0  0  0  0  0  0  0  0  0  0
  -24.4140  -13.0260   20.8500 C   0  0  0  0  0  0  0  0  0  0  0  0
  -24.8760  -11.6770   20.7420 C   0  0  0  0  0  0  0  0  0  0  0  0
  -26.4640  -12.9470   20.0650 N   0  0  0  0  0  0  0  0  0  0  0  0
  -26.1360  -11.6540   20.3230 N   0  0  0  0  0  0  0  0  0  0  0  0
  -24.1680  -10.4090   20.9550 C   0  0  0  0  0  0  0  0  0  0  0  0
  -24.6130   -9.4670   21.9080 C   0  0  0  0  0  3  0  0  0  0  0  0
  -23.9050   -8.2620   22.1090 C   0  0  0  0  0  3  0  0  0  0  0  0
  -22.7370   -7.9910   21.3560 C   0  0  0  0  0  0  0  0  0  0  0  0
  -22.3100   -8.9230   20.3930 C   0  0  0  0  0  3  0  0  0  0  0  0
  -23.0190  -10.1190   20.1920 C   0  0  0  0  0  3  0  0  0  0  0  0
  -21.9990   -6.8360   21.4630 O   0  0  0  0  0  0  0  0  0  0  0  0
  -21.8710   -6.1740   22.6580 C   0  0  0  0  0  0  0  0  0  0  0  0
  -21.3290   -6.7990   23.8020 C   0  0  0  0  0  3  0  0  0  0  0  0
  -21.1500   -6.0600   24.9890 C   0  0  0  0  0  3  0  0  0  0  0  0
  -21.5030   -4.6970   25.0320 C   0  0  0  0  0  0  0  0  0  0  0  0
  -22.0410   -4.0740   23.8920 C   0  0  0  0  0  3  0  0  0  0  0  0
  -22.2200   -4.8100   22.7080 C   0  0  0  0  0  0  0  0  0  0  0  0
  -22.7170   -4.1970   21.6060 F   0  0  0  0  0  0  0  0  0  0  0  0
  -21.3250   -3.9860   26.1700 F   0  0  0  0  0  0  0  0  0  0  0  0
  -23.0440  -13.4920   21.2520 C   0  0  0  0  0  0  0  0  0  0  0  0
  -22.3900  -12.7710   22.1540 N   0  0  0  0  0  0  0  0  0  0  0  0
  -22.5660  -14.5300   20.7980 O   0  0  0  0  0  0  0  0  0  0  0  0
  -22.7910  -11.9290   22.5410 H   0  0  0  0  0  0  0  0  0  0  0  0
  -21.4740  -13.0650   22.4610 H   0  0  0  0  0  0  0  0  0  0  0  0
  -25.5920  -15.1900   20.2710 N   0  0  0  0  0  0  0  0  0  0  0  0
  -24.8430  -15.8420   20.4770 H   0  0  0  0  0  0  0  0  0  0  0  0
  -26.4320  -15.6350   19.9260 H   0  0  0  0  0  0  0  0  0  0  0  0
  -28.4410  -23.1590   20.3020 C   0  0  0  0  0  0  0  0  0  0  0  0
  -27.6910  -23.1350   21.2820 O   0  0  0  0  0  0  0  0  0  0  0  0
  -28.4760  -24.6580   19.5390 C   0  0  0  0  0  2  0  0  0  0  0  0
  -28.3360  -26.0730   20.2410 O   0  0  0  0  0  0  0  0  0  0  0  0
  -24.7080  -31.8350   23.1490 C   0  0  0  0  0  0  0  0  0  0  0  0
  -27.2780  -27.0650   20.1220 C   0  0  0  0  0  0  0  0  0  0  0  0
  -23.5050  -30.4250   21.5230 C   0  0  0  0  0  3  0  0  0  0  0  0
  -24.9490  -28.8360   20.0960 C   0  0  0  0  0  0  0  0  0  0  0  0
  -26.0580  -30.6780   21.3490 C   0  0  0  0  0  2  0  0  0  0  0  0
  -26.1290  -29.2770   20.7040 C   0  0  0  0  0  0  0  0  0  0  0  0
  -27.2860  -28.4050   20.7080 C   0  0  0  0  0  3  0  0  0  0  0  0
  -26.0720  -26.7380   19.4680 C   0  0  0  0  0  3  0  0  0  0  0  0
  -24.9370  -27.5830   19.4640 C   0  0  0  0  0  3  0  0  0  0  0  0
  -23.7200  -29.7340   20.1480 C   0  0  0  0  0  2  0  0  0  0  0  0
  -24.7780  -31.0040   22.0620 N   0  0  0  0  0  0  0  0  0  0  0  0
  -23.6220  -32.1180   23.6790 O   0  0  0  0  0  0  0  0  0  0  0  0
  -22.8290  -29.4260   22.4950 C   0  0  0  0  0  0  0  0  0  0  0  0
  -21.4990  -29.2600   22.3850 N   0  0  0  0  0  0  0  0  0  0  0  0
  -23.5080  -28.8010   23.3160 O   0  0  0  0  0  0  0  0  0  0  0  0
  -21.0060  -29.8180   21.7010 H   0  0  0  0  0  0  0  0  0  0  0  0
  -18.1200  -28.0700   22.9350 C   0  0  0  0  0  0  0  0  0  0  0  0
  -20.6850  -28.3290   23.1680 C   0  0  0  0  0  3  0  0  0  0  0  0
  -20.7740  -26.8940   22.5990 C   0  0  0  0  0  2  0  0  0  0  0  0
  -19.6610  -26.5710   21.5970 C   0  0  0  0  0  2  0  0  0  0  0  0
  -18.2870  -26.7190   22.2560 C   0  0  0  0  0  2  0  0  0  0  0  0
  -19.2460  -28.8310   23.3480 C   0  0  0  0  0  0  0  0  0  0  0  0
  -19.0350  -30.0920   23.9450 C   0  0  0  0  0  3  0  0  0  0  0  0
  -17.7340  -30.5950   24.1280 C   0  0  0  0  0  3  0  0  0  0  0  0
  -16.6230  -29.8320   23.7270 C   0  0  0  0  0  3  0  0  0  0  0  0
  -16.8170  -28.5690   23.1380 C   0  0  0  0  0  3  0  0  0  0  0  0
  -25.9840  -32.4810   23.7680 C   0  0  0  0  0  3  0  0  0  0  0  0
  -26.5220  -31.7030   25.0330 C   0  0  1  0  0  0  0  0  0  0  0  0
  -25.4420  -31.4430   26.1090 C   0  0  0  0  0  1  0  0  0  0  0  0
  -27.1200  -30.3380   24.6270 C   0  0  0  0  0  1  0  0  0  0  0  0
  -27.6740  -32.5030   25.6900 C   0  0  0  0  0  1  0  0  0  0  0  0
  -25.6590  -33.8710   24.1270 N   0  0  0  0  0  0  0  0  0  0  0  0
  -25.9670  -34.9440   23.3880 C   0  0  0  0  0  0  0  0  0  0  0  0
  -26.6210  -34.8700   22.3440 O   0  0  0  0  0  0  0  0  0  0  0  0
  -25.0770  -34.0030   24.9430 H   0  0  0  0  0  0  0  0  0  0  0  0
  -24.2130  -36.7270   23.0990 C   0  0  0  0  0  1  0  0  0  0  0  0
  -25.4740  -36.3200   23.8800 C   0  0  0  0  0  3  0  0  0  0  0  0
  -27.6110  -37.2160   24.6940 C   0  0  0  0  0  1  0  0  0  0  0  0
  -26.4930  -37.3880   23.7680 N   0  0  0  0  0  0  0  0  0  0  0  0
  -26.0800  -38.3010   23.9360 H   0  0  0  0  0  0  0  0  0  0  0  0
  -27.5560  -20.1220   20.3490 O   0  0  0  0  0  0  0  0  0  0  0  0
  -27.4370  -19.1860   20.2850 H   0  0  0  0  0  0  0  0  0  0  0  0
  1  2  2  0
  1 47  1  0
  2 91  1  0
  3  1  1  0
  4  3  1  0
  4  6  1  0
  5  6  1  0
  5  2  1  0
  5  8  1  0
  6  7  1  0
  8  9  1  0
 10  8  2  0
 11 10  1  0
 12 17  1  0
 13 14  1  0
 13 12  1  0
 15 14  1  0
 15 22  1  0
 15 16  1  0
 17 11  1  0
 17 16  1  0
 18 11  2  0
 19 20  2  0
 20 39  1  0
 21 20  1  0
 21 24  1  0
 22 23  1  0
 22 19  1  0
 23 21  2  0
 24 25  1  0
 25 26  2  0
 27 30  1  0
 27 26  1  0
 28 27  2  0
 29 28  1  0
 29 24  2  0
 30 31  1  0
 31 36  2  0
 31 32  1  0
 32 33  2  0
 33 34  1  0
 34 38  1  0
 35 34  2  0
 36 35  1  0
 37 36  1  0
 39 40  1  0
 40 43  1  0
 40 42  1  0
 41 39  2  0
 44 19  1  0
 44 45  1  0
 46 44  1  0
 47 48  2  0
 49 50  1  0
 49 47  1  0
 51 62  2  0
 52 50  1  0
 52 57  1  0
 53 61  1  0
 53 63  1  0
 54 60  1  0
 54 56  1  0
 55 61  1  0
 56 57  2  0
 56 55  1  0
 58 52  2  0
 59 58  1  0
 59 54  2  0
 60 53  1  0
 61 51  1  0
 63 65  2  0
 64 63  1  0
 66 64  1  0
 67 76  2  0
 67 72  1  0
 68 64  1  0
 68 72  1  0
 69 68  1  0
 70 71  1  0
 70 69  1  0
 71 67  1  0
 72 73  2  0
 73 74  1  0
 75 74  2  0
 76 75  1  0
 77 51  1  0
 77 82  1  0
 77 78  1  0
 78 81  1  1
 78 79  1  0
 80 78  1  0
 82 85  1  0
 83 87  1  0
 83 82  1  0
 84 83  2  0
 87 86  1  0
 89 87  1  0
 89 90  1  0
 89 88  1  0
 92 91  1  0
M  ISO  4  10 100  11 100  49 101  50 101
M  END
>  <TORSDO>  (13) 
F 20

>  <SCORE>  (13) 
-12.667

>  <name>  (13) 
12

>  <ligand_id>  (13) 
12

>  <original_smiles>  (13) 
[H]OC1=C(C(=O)C([H])([H])Oc2c([H])c([H])c3c(c2[H])C([H])([H])N(C(=O)C([H])(N([H])C(=O)C([H])(N([H])C([H])([H])[H])C([H])([H])[H])C(C([H])([H])[H])(C([H])([H])[H])C([H])([H])[H])C([H])(C(=O)N([H])C2([H])c4c([H])c([H])c([H])c([H])c4C([H])([H])C([H])([H])C2([H])[H])C3([H])[H])C([H])([H])C([H])([H])C([H])(C([H])([H])[H])C1([H])C(=NC(=O)N1C([H])([H])C([H])([H])C([H])([H])C([H])(n2nc(-c3c([H])c([H])c(Oc4c([H])c([H])c(F)c([H])c4F)c([H])c3[H])c(C(=O)N([H])[H])c2N([H])[H])C1([H])[H])C([H])([H])[H]

>  <smiles>  (13) 
[H]OC1=C(C(=O)C([H])([H])Oc2c([H])c([H])c3c(c2[H])C([H])([H])N(C(=O)C([H])(N([H])C(=O)C([H])(N([H])C([H])([H])[H])C([H])([H])[H])C(C([H])([H])[H])(C([H])([H])[H])C([H])([H])[H])C([H])(C(=O)N([H])C2([H])c4c([H])c([H])c([H])c([H])c4C([H])([H])C([H])([H])C2([H])[H])C3([H])[H])C([H])([H])C([H])([H])C([H])(C([H])([H])[H])C1([H])C(=NC(=O)N1C([H])([H])C([H])([H])C([H])([H])C([H])(n2nc(-c3c([H])c([H])c(Oc4c([H])c([H])c(F)c([H])c4F)c([H])c3[H])c(C(=O)N([H])[H])c2N([H])[H])C1([H])[H])C([H])([H])[H]

$$$$
13:0:0
     RDKit          3D

 99108  0  0  1  0  0  0  0  0999 V2000
  -28.7400  -21.8520   19.2950 C   0  0  0  0  0  2  0  0  0  0  0  0
  -28.3610  -23.3350   19.6150 C   0  0  0  0  0  2  0  0  0  0  0  0
  -30.5300  -23.5700   20.8750 C   0  0  0  0  0  2  0  0  0  0  0  0
  -29.6350  -21.2370   20.3970 C   0  0  0  0  0  3  0  0  0  0  0  0
  -30.9160  -22.1020   20.5210 C   0  0  0  0  0  3  0  0  0  0  0  0
  -29.5720  -24.2820   19.8650 C   0  0  2  0  0  0  0  0  0  0  0  0
  -31.9230  -21.5440   21.5430 C   0  0  0  0  0  1  0  0  0  0  0  0
  -31.0140  -14.6180   19.4570 C   0  0  0  0  0  0  0  0  0  0  0  0
  -30.5710  -12.4550   18.3210 C   0  0  0  0  0  2  0  0  0  0  0  0
  -29.4370  -12.6680   17.2930 C   0  0  0  0  0  2  0  0  0  0  0  0
  -28.0490  -12.5300   17.9530 C   0  0  0  0  0  2  0  0  0  0  0  0
  -27.9320  -13.3480   19.2660 C   0  0  0  0  0  3  0  0  0  0  0  0
  -29.1490  -13.0760   20.1800 C   0  0  0  0  0  2  0  0  0  0  0  0
  -30.3710  -13.4130   19.4230 N   0  0  0  0  0  0  0  0  0  0  0  0
  -32.0090  -14.8580   18.7640 O   0  0  0  0  0  0  0  0  0  0  0  0
  -29.4930  -17.4590   21.2920 C   0  0  0  0  0  3  0  0  0  0  0  0
  -29.2350  -18.8440   21.3610 C   0  0  0  0  0  0  0  0  0  0  0  0
  -29.8270  -19.6840   20.3740 C   0  0  0  0  0  0  0  0  0  0  0  0
  -30.3130  -16.9390   20.2660 C   0  0  0  0  0  0  0  0  0  0  0  0
  -30.6080  -19.1310   19.3980 N   0  0  0  0  0  0  0  0  0  0  0  0
  -30.8450  -17.7980   19.3460 N   0  0  0  0  0  0  0  0  0  0  0  0
  -30.4490  -15.5120   20.2980 N   0  0  0  0  0  0  0  0  0  0  0  0
  -29.8050  -15.0670   20.9320 H   0  0  0  0  0  0  0  0  0  0  0  0
  -25.7330  -13.9910   20.4420 C   0  0  0  0  0  0  0  0  0  0  0  0
  -24.7020  -13.2340   20.9320 C   0  0  0  0  0  0  0  0  0  0  0  0
  -25.0700  -11.8730   20.7010 C   0  0  0  0  0  0  0  0  0  0  0  0
  -26.6670  -13.0900   19.9510 N   0  0  0  0  0  0  0  0  0  0  0  0
  -26.2800  -11.8070   20.1610 N   0  0  0  0  0  0  0  0  0  0  0  0
  -24.3150  -10.6300   20.9120 C   0  0  0  0  0  0  0  0  0  0  0  0
  -24.7800   -9.6240   21.7870 C   0  0  0  0  0  3  0  0  0  0  0  0
  -24.0300   -8.4450   21.9860 C   0  0  0  0  0  3  0  0  0  0  0  0
  -22.7990   -8.2660   21.3100 C   0  0  0  0  0  0  0  0  0  0  0  0
  -22.3510   -9.2610   20.4230 C   0  0  0  0  0  3  0  0  0  0  0  0
  -23.1030  -10.4310   20.2230 C   0  0  0  0  0  3  0  0  0  0  0  0
  -22.0150   -7.1430   21.4220 O   0  0  0  0  0  0  0  0  0  0  0  0
  -21.9060   -6.4550   22.6040 C   0  0  0  0  0  0  0  0  0  0  0  0
  -21.4500   -7.0750   23.7870 C   0  0  0  0  0  3  0  0  0  0  0  0
  -21.2880   -6.3140   24.9630 C   0  0  0  0  0  3  0  0  0  0  0  0
  -21.5730   -4.9350   24.9540 C   0  0  0  0  0  0  0  0  0  0  0  0
  -22.0220   -4.3150   23.7740 C   0  0  0  0  0  3  0  0  0  0  0  0
  -22.1860   -5.0740   22.6020 C   0  0  0  0  0  0  0  0  0  0  0  0
  -22.5990   -4.4680   21.4630 F   0  0  0  0  0  0  0  0  0  0  0  0
  -21.4100   -4.2020   26.0810 F   0  0  0  0  0  0  0  0  0  0  0  0
  -23.4060  -13.7430   21.4940 C   0  0  0  0  0  0  0  0  0  0  0  0
  -22.8180  -13.0150   22.4370 N   0  0  0  0  0  0  0  0  0  0  0  0
  -22.9320  -14.8190   21.1320 O   0  0  0  0  0  0  0  0  0  0  0  0
  -23.2180  -12.1430   22.7500 H   0  0  0  0  0  0  0  0  0  0  0  0
  -21.9550  -13.3360   22.8520 H   0  0  0  0  0  0  0  0  0  0  0  0
  -25.9450  -15.3630   20.3550 N   0  0  0  0  0  0  0  0  0  0  0  0
  -25.2460  -16.0350   20.6530 H   0  0  0  0  0  0  0  0  0  0  0  0
  -26.7390  -15.7940   19.8980 H   0  0  0  0  0  0  0  0  0  0  0  0
  -28.4120  -19.3180   22.3920 N   0  0  0  0  0  0  0  0  0  0  0  0
  -27.8220  -18.6620   22.8910 H   0  0  0  0  0  0  0  0  0  0  0  0
  -27.9870  -20.2340   22.2950 H   0  0  0  0  0  0  0  0  0  0  0  0
  -29.1270  -25.6890   20.4420 C   0  0  0  0  0  2  0  0  0  0  0  0
  -28.9480  -26.7780   19.5070 O   0  0  0  0  0  0  0  0  0  0  0  0
  -24.7170  -31.4570   22.9340 C   0  0  0  0  0  0  0  0  0  0  0  0
  -27.7400  -27.4430   19.5960 C   0  0  0  0  0  0  0  0  0  0  0  0
  -23.6380  -30.0540   21.2070 C   0  0  0  0  0  3  0  0  0  0  0  0
  -25.2220  -28.7400   19.6950 C   0  0  0  0  0  0  0  0  0  0  0  0
  -26.1230  -30.6450   21.0370 C   0  0  0  0  0  2  0  0  0  0  0  0
  -26.3330  -29.3270   20.3160 C   0  0  0  0  0  0  0  0  0  0  0  0
  -27.5980  -28.6870   20.2620 C   0  0  0  0  0  3  0  0  0  0  0  0
  -26.6120  -26.8760   18.9720 C   0  0  0  0  0  3  0  0  0  0  0  0
  -25.3560  -27.5150   19.0190 C   0  0  0  0  0  3  0  0  0  0  0  0
  -23.9040  -29.4810   19.7900 C   0  0  0  0  0  2  0  0  0  0  0  0
  -24.8430  -30.7330   21.7850 N   0  0  0  0  0  0  0  0  0  0  0  0
  -23.6190  -31.5980   23.4870 O   0  0  0  0  0  0  0  0  0  0  0  0
  -23.0840  -28.9230   22.1030 C   0  0  0  0  0  0  0  0  0  0  0  0
  -21.7750  -28.6430   21.9770 N   0  0  0  0  0  0  0  0  0  0  0  0
  -23.8260  -28.3020   22.8670 O   0  0  0  0  0  0  0  0  0  0  0  0
  -21.2310  -29.2030   21.3350 H   0  0  0  0  0  0  0  0  0  0  0  0
  -18.5180  -27.1390   22.4160 C   0  0  0  0  0  0  0  0  0  0  0  0
  -21.0490  -27.5930   22.6890 C   0  0  0  0  0  3  0  0  0  0  0  0
  -21.2650  -26.2150   22.0200 C   0  0  0  0  0  2  0  0  0  0  0  0
  -20.1820  -25.8680   20.9930 C   0  0  0  0  0  2  0  0  0  0  0  0
  -18.7990  -25.8560   21.6530 C   0  0  0  0  0  2  0  0  0  0  0  0
  -19.5740  -27.9620   22.8900 C   0  0  0  0  0  0  0  0  0  0  0  0
  -19.2580  -29.1630   23.5630 C   0  0  0  0  0  3  0  0  0  0  0  0
  -17.9180  -29.5420   23.7680 C   0  0  0  0  0  3  0  0  0  0  0  0
  -16.8770  -28.7150   23.3120 C   0  0  0  0  0  3  0  0  0  0  0  0
  -17.1780  -27.5150   22.6420 C   0  0  0  0  0  3  0  0  0  0  0  0
  -25.9430  -32.1640   23.5930 C   0  0  0  0  0  3  0  0  0  0  0  0
  -26.5420  -31.3610   24.8130 C   0  0  1  0  0  0  0  0  0  0  0  0
  -25.4850  -30.9550   25.8660 C   0  0  0  0  0  1  0  0  0  0  0  0
  -27.2440  -30.0710   24.3270 C   0  0  0  0  0  1  0  0  0  0  0  0
  -27.6220  -32.2120   25.5210 C   0  0  0  0  0  1  0  0  0  0  0  0
  -25.5100  -33.5020   24.0150 N   0  0  0  0  0  0  0  0  0  0  0  0
  -25.7260  -34.6270   23.3190 C   0  0  0  0  0  0  0  0  0  0  0  0
  -26.3830  -34.6510   22.2750 O   0  0  0  0  0  0  0  0  0  0  0  0
  -24.9170  -33.5480   24.8300 H   0  0  0  0  0  0  0  0  0  0  0  0
  -23.8260  -36.2600   23.1030 C   0  0  0  0  0  1  0  0  0  0  0  0
  -25.1170  -35.9300   23.8700 C   0  0  0  0  0  3  0  0  0  0  0  0
  -27.1710  -36.9680   24.7270 C   0  0  0  0  0  1  0  0  0  0  0  0
  -26.0410  -37.0840   23.8080 N   0  0  0  0  0  0  0  0  0  0  0  0
  -25.5500  -37.9500   24.0160 H   0  0  0  0  0  0  0  0  0  0  0  0
  -30.1850  -24.4320   18.5790 O   0  0  0  0  0  0  0  0  0  0  0  0
  -31.7450  -25.3640   17.0300 C   0  0  0  0  0  1  0  0  0  0  0  0
  -31.4310  -25.1180   18.5060 C   0  0  0  0  0  2  0  0  0  0  0  0
  1  2  1  0
  1  4  1  0
  2  6  1  0
  4 18  1  0
  4  5  1  0
  5  3  1  0
  5  7  1  0
  6 55  1  1
  6  3  1  0
  8 22  1  0
  9 14  1  0
 10 11  1  0
 10  9  1  0
 12 11  1  0
 12 27  1  0
 12 13  1  0
 14  8  1  0
 14 13  1  0
 15  8  2  0
 16 17  1  0
 17 52  1  0
 18 17  2  0
 19 22  1  0
 19 16  2  0
 20 18  1  0
 21 20  2  0
 21 19  1  0
 22 23  1  0
 24 25  2  0
 25 44  1  0
 26 29  1  0
 26 25  1  0
 27 28  1  0
 27 24  1  0
 28 26  2  0
 29 30  1  0
 30 31  2  0
 32 35  1  0
 32 31  1  0
 33 32  2  0
 34 33  1  0
 34 29  2  0
 35 36  1  0
 36 37  1  0
 37 38  2  0
 39 38  1  0
 39 43  1  0
 40 39  2  0
 41 36  2  0
 41 40  1  0
 42 41  1  0
 44 45  1  0
 45 47  1  0
 45 48  1  0
 46 44  2  0
 49 24  1  0
 49 50  1  0
 51 49  1  0
 52 53  1  0
 54 52  1  0
 56 58  1  0
 56 55  1  0
 57 68  2  0
 58 63  1  0
 59 67  1  0
 59 69  1  0
 60 66  1  0
 60 62  1  0
 61 67  1  0
 62 61  1  0
 63 62  2  0
 64 65  1  0
 64 58  2  0
 65 60  2  0
 66 59  1  0
 67 57  1  0
 69 71  2  0
 70 69  1  0
 72 70  1  0
 73 82  2  0
 73 78  1  0
 74 70  1  0
 74 78  1  0
 75 74  1  0
 76 77  1  0
 76 75  1  0
 77 73  1  0
 78 79  2  0
 79 80  1  0
 81 80  2  0
 82 81  1  0
 83 57  1  0
 83 88  1  0
 83 84  1  0
 84 87  1  1
 84 85  1  0
 86 84  1  0
 88 91  1  0
 89 93  1  0
 89 88  1  0
 90 89  2  0
 93 92  1  0
 95 93  1  0
 95 96  1  0
 95 94  1  0
 97  6  1  0
 98 99  1  0
 99 97  1  0
M  ISO  4   8 100  22 100  55 101  56 101
M  END
>  <TORSDO>  (14) 
F 20

>  <SCORE>  (14) 
-7.746

>  <name>  (14) 
13

>  <ligand_id>  (14) 
13

>  <original_smiles>  (14) 
[H]c1c([H])c([H])c2c(c1[H])C([H])([H])C([H])([H])C([H])([H])C2([H])N([H])C(=O)C1([H])N(C(=O)C([H])(N([H])C(=O)C([H])(N([H])C([H])([H])[H])C([H])([H])[H])C(C([H])([H])[H])(C([H])([H])[H])C([H])([H])[H])C([H])([H])c2c([H])c(OC([H])([H])C3(OC([H])([H])C([H])([H])[H])C([H])([H])C([H])([H])C([H])(c4nnc(N([H])C(=O)N5C([H])([H])C([H])([H])C([H])([H])C([H])(n6nc(-c7c([H])c([H])c(Oc8c([H])c([H])c(F)c([H])c8F)c([H])c7[H])c(C(=O)N([H])[H])c6N([H])[H])C5([H])[H])c([H])c4N([H])[H])C([H])(C([H])([H])[H])C3([H])[H])c([H])c([H])c2C1([H])[H]

>  <smiles>  (14) 
[H]c1c([H])c([H])c2c(c1[H])C([H])([H])C([H])([H])C([H])([H])C2([H])N([H])C(=O)C1([H])N(C(=O)C([H])(N([H])C(=O)C([H])(N([H])C([H])([H])[H])C([H])([H])[H])C(C([H])([H])[H])(C([H])([H])[H])C([H])([H])[H])C([H])([H])c2c([H])c(OC([H])([H])C3(OC([H])([H])C([H])([H])[H])C([H])([H])C([H])([H])C([H])(c4nnc(N([H])C(=O)N5C([H])([H])C([H])([H])C([H])([H])C([H])(n6nc(-c7c([H])c([H])c(Oc8c([H])c([H])c(F)c([H])c8F)c([H])c7[H])c(C(=O)N([H])[H])c6N([H])[H])C5([H])[H])c([H])c4N([H])[H])C([H])(C([H])([H])[H])C3([H])[H])c([H])c([H])c2C1([H])[H]

$$$$
14:0:0
     RDKit          3D

102110  0  0  1  0  0  0  0  0999 V2000
  -29.1570  -21.3680   20.7770 C   0  0  0  0  0  0  0  0  0  0  0  0
  -29.3960  -22.6050   20.1850 N   0  0  0  0  0  0  0  0  0  0  0  0
  -28.2760  -21.2550   21.6360 O   0  0  0  0  0  0  0  0  0  0  0  0
  -30.0870  -22.5330   19.4500 H   0  0  0  0  0  0  0  0  0  0  0  0
  -31.2970  -20.3690   19.8500 C   0  0  0  0  0  3  0  0  0  0  0  0
  -31.7660  -17.9940   19.8420 C   0  0  0  0  0  3  0  0  0  0  0  0
  -32.1810  -19.3170   19.5860 C   0  0  0  0  0  0  0  0  0  0  0  0
  -30.0290  -20.1130   20.4040 C   0  0  0  0  0  0  0  0  0  0  0  0
  -30.5020  -17.6800   20.3940 C   0  0  0  0  0  0  0  0  0  0  0  0
  -29.6710  -18.7790   20.6730 N   0  0  0  0  0  0  0  0  0  0  0  0
  -30.8930  -15.0390   20.5000 C   0  0  0  0  0  0  0  0  0  0  0  0
  -30.7310  -12.6770   19.6700 C   0  0  0  0  0  2  0  0  0  0  0  0
  -29.8710  -12.6220   18.3920 C   0  0  0  0  0  2  0  0  0  0  0  0
  -28.3810  -12.4580   18.7530 C   0  0  0  0  0  2  0  0  0  0  0  0
  -27.9300  -13.4470   19.8600 C   0  0  0  0  0  3  0  0  0  0  0  0
  -28.9220  -13.4980   21.0410 C   0  0  0  0  0  2  0  0  0  0  0  0
  -30.2430  -13.8200   20.4880 N   0  0  0  0  0  0  0  0  0  0  0  0
  -32.1000  -15.0310   20.2380 O   0  0  0  0  0  0  0  0  0  0  0  0
  -30.1600  -16.2320   20.6240 N   0  0  0  0  0  0  0  0  0  0  0  0
  -29.1930  -16.0730   20.8500 H   0  0  0  0  0  0  0  0  0  0  0  0
  -25.5270  -14.0700   20.4980 C   0  0  0  0  0  0  0  0  0  0  0  0
  -24.4400  -13.3160   20.8400 C   0  0  0  0  0  0  0  0  0  0  0  0
  -24.8850  -11.9590   20.8400 C   0  0  0  0  0  0  0  0  0  0  0  0
  -26.5680  -13.1760   20.3080 N   0  0  0  0  0  0  0  0  0  0  0  0
  -26.1860  -11.9010   20.5780 N   0  0  0  0  0  0  0  0  0  0  0  0
  -24.1360  -10.7070   21.0170 C   0  0  0  0  0  0  0  0  0  0  0  0
  -24.5280   -9.7400   21.9690 C   0  0  0  0  0  3  0  0  0  0  0  0
  -23.7800   -8.5550   22.1370 C   0  0  0  0  0  3  0  0  0  0  0  0
  -22.6230   -8.3300   21.3550 C   0  0  0  0  0  0  0  0  0  0  0  0
  -22.2490   -9.2850   20.3930 C   0  0  0  0  0  3  0  0  0  0  0  0
  -22.9960  -10.4610   20.2240 C   0  0  0  0  0  3  0  0  0  0  0  0
  -21.8510   -7.1970   21.4310 O   0  0  0  0  0  0  0  0  0  0  0  0
  -21.7830   -6.4450   22.5760 C   0  0  0  0  0  0  0  0  0  0  0  0
  -21.3590   -6.9960   23.8050 C   0  0  0  0  0  3  0  0  0  0  0  0
  -21.2410   -6.1690   24.9410 C   0  0  0  0  0  3  0  0  0  0  0  0
  -21.5360   -4.7970   24.8470 C   0  0  0  0  0  0  0  0  0  0  0  0
  -21.9550   -4.2470   23.6230 C   0  0  0  0  0  3  0  0  0  0  0  0
  -22.0740   -5.0690   22.4870 C   0  0  0  0  0  0  0  0  0  0  0  0
  -22.4570   -4.5330   21.3040 F   0  0  0  0  0  0  0  0  0  0  0  0
  -21.4150   -4.0000   25.9340 F   0  0  0  0  0  0  0  0  0  0  0  0
  -23.0380  -13.8150   21.0500 C   0  0  0  0  0  0  0  0  0  0  0  0
  -22.2730  -13.1520   21.9090 N   0  0  0  0  0  0  0  0  0  0  0  0
  -22.6340  -14.8300   20.4860 O   0  0  0  0  0  0  0  0  0  0  0  0
  -22.6170  -12.3320   22.3830 H   0  0  0  0  0  0  0  0  0  0  0  0
  -21.3300  -13.4680   22.0910 H   0  0  0  0  0  0  0  0  0  0  0  0
  -25.7110  -15.4350   20.3110 N   0  0  0  0  0  0  0  0  0  0  0  0
  -24.9360  -16.0830   20.3840 H   0  0  0  0  0  0  0  0  0  0  0  0
  -26.5600  -15.8620   19.9630 H   0  0  0  0  0  0  0  0  0  0  0  0
  -34.4900  -19.1090   19.5080 C   0  0  0  0  0  3  0  0  0  0  0  0
  -33.4240  -19.6270   19.0280 N   0  0  0  0  0  0  0  0  0  0  0  0
  -35.8860  -19.3500   19.0060 C   0  0  0  0  0  0  0  0  0  0  0  0
  -36.9990  -18.5750   19.7000 C   0  0  0  0  0  1  0  0  0  0  0  0
  -36.1530  -20.1360   18.0900 O   0  0  0  0  0  0  0  0  0  0  0  0
  -29.0220  -24.0650   20.5400 C   0  0  0  0  0  3  0  0  0  0  0  0
  -28.5620  -24.3820   21.9210 N   0  0  0  0  0  4  0  0  0  0  0  0
  -27.9250  -25.1650   21.8540 H   0  0  0  0  0  0  0  0  0  0  0  0
  -28.0400  -23.6080   22.3020 H   0  0  0  0  0  0  0  0  0  0  0  0
  -29.1050  -25.4610   24.1300 C   0  0  0  0  0  1  0  0  0  0  0  0
  -29.6420  -24.7790   22.8640 C   0  0  0  0  0  2  0  0  0  0  0  0
  -27.0440  -24.1510   18.8390 C   0  0  0  0  0  1  0  0  0  0  0  0
  -28.2010  -24.9520   19.4470 C   0  0  0  0  0  3  0  0  0  0  0  0
  -28.0760  -26.4680   19.5250 O   0  0  0  0  0  0  0  0  0  0  0  0
  -24.5090  -31.7460   22.9700 C   0  0  0  0  0  0  0  0  0  0  0  0
  -26.9160  -27.2900   19.5600 C   0  0  0  0  0  0  0  0  0  0  0  0
  -23.1960  -30.4110   21.3610 C   0  0  0  0  0  3  0  0  0  0  0  0
  -24.5490  -28.9330   19.7680 C   0  0  0  0  0  0  0  0  0  0  0  0
  -25.7170  -30.7480   21.0090 C   0  0  0  0  0  2  0  0  0  0  0  0
  -25.7580  -29.3920   20.3020 C   0  0  0  0  0  0  0  0  0  0  0  0
  -26.9350  -28.5860   20.1860 C   0  0  0  0  0  3  0  0  0  0  0  0
  -25.6730  -26.9000   19.0120 C   0  0  0  0  0  3  0  0  0  0  0  0
  -24.5120  -27.6940   19.1140 C   0  0  0  0  0  3  0  0  0  0  0  0
  -23.3160  -29.8000   19.9380 C   0  0  0  0  0  2  0  0  0  0  0  0
  -24.4980  -30.9860   21.8360 N   0  0  0  0  0  0  0  0  0  0  0  0
  -23.4650  -31.9890   23.5930 O   0  0  0  0  0  0  0  0  0  0  0  0
  -22.6130  -29.3450   22.3210 C   0  0  0  0  0  0  0  0  0  0  0  0
  -21.2910  -29.1150   22.2410 N   0  0  0  0  0  0  0  0  0  0  0  0
  -23.3490  -28.7300   23.0970 O   0  0  0  0  0  0  0  0  0  0  0  0
  -20.7530  -29.6660   21.5890 H   0  0  0  0  0  0  0  0  0  0  0  0
  -18.0070  -27.6900   22.7640 C   0  0  0  0  0  0  0  0  0  0  0  0
  -20.5440  -28.1280   23.0210 C   0  0  0  0  0  3  0  0  0  0  0  0
  -20.7410  -26.7030   22.4530 C   0  0  0  0  0  2  0  0  0  0  0  0
  -19.6600  -26.3000   21.4450 C   0  0  0  0  0  2  0  0  0  0  0  0
  -18.2730  -26.3530   22.0940 C   0  0  0  0  0  2  0  0  0  0  0  0
  -19.0730  -28.5290   23.1860 C   0  0  0  0  0  0  0  0  0  0  0  0
  -18.7700  -29.7760   23.7730 C   0  0  0  0  0  3  0  0  0  0  0  0
  -17.4340  -30.1890   23.9420 C   0  0  0  0  0  3  0  0  0  0  0  0
  -16.3840  -29.3460   23.5380 C   0  0  0  0  0  3  0  0  0  0  0  0
  -16.6700  -28.1000   22.9540 C   0  0  0  0  0  3  0  0  0  0  0  0
  -25.8290  -32.3650   23.5260 C   0  0  0  0  0  3  0  0  0  0  0  0
  -25.5140  -33.7160   24.0130 N   0  0  0  0  0  0  0  0  0  0  0  0
  -25.7820  -34.8470   23.3490 C   0  0  0  0  0  0  0  0  0  0  0  0
  -26.3890  -34.8640   22.2740 O   0  0  0  0  0  0  0  0  0  0  0  0
  -24.9630  -33.7740   24.8570 H   0  0  0  0  0  0  0  0  0  0  0  0
  -24.0060  -36.6280   23.2850 C   0  0  0  0  0  1  0  0  0  0  0  0
  -25.3010  -36.1710   23.9750 C   0  0  0  0  0  3  0  0  0  0  0  0
  -27.4690  -37.0150   24.7610 C   0  0  0  0  0  1  0  0  0  0  0  0
  -26.3070  -37.2530   23.9080 N   0  0  0  0  0  0  0  0  0  0  0  0
  -25.8950  -38.1450   24.1730 H   0  0  0  0  0  0  0  0  0  0  0  0
  -26.4850  -31.5020   24.6740 C   0  0  1  0  0  0  0  0  0  0  0  0
  -25.5070  -31.1410   25.8180 C   0  0  0  0  0  1  0  0  0  0  0  0
  -27.0560  -30.1820   24.1080 C   0  0  0  0  0  1  0  0  0  0  0  0
  -27.6790  -32.2680   25.2900 C   0  0  0  0  0  1  0  0  0  0  0  0
  1  3  2  0
  2  1  1  0
  4  2  1  0
  5  8  1  0
  6  9  2  0
  7  6  1  0
  7  5  2  0
  8 10  2  0
  8  1  1  0
  9 19  1  0
  9 10  1  0
 11 19  1  0
 12 17  1  0
 13 14  1  0
 13 12  1  0
 15 14  1  0
 15 24  1  0
 15 16  1  0
 17 11  1  0
 17 16  1  0
 18 11  2  0
 19 20  1  0
 21 22  2  0
 22 41  1  0
 23 22  1  0
 23 26  1  0
 24 21  1  0
 24 25  1  0
 25 23  2  0
 26 27  1  0
 27 28  2  0
 29 32  1  0
 29 28  1  0
 30 29  2  0
 31 30  1  0
 31 26  2  0
 32 33  1  0
 33 34  1  0
 34 35  2  0
 36 35  1  0
 36 40  1  0
 37 36  2  0
 38 33  2  0
 38 37  1  0
 39 38  1  0
 41 42  1  0
 42 45  1  0
 42 44  1  0
 43 41  2  0
 46 47  1  0
 46 21  1  0
 48 46  1  0
 50 49  2  0
 50  7  1  0
 51 49  1  0
 51 52  1  0
 53 51  2  0
 54  2  1  0
 54 55  1  0
 55 57  1  0
 55 59  1  0
 56 55  1  0
 59 58  1  0
 61 60  1  0
 61 62  1  0
 61 54  1  0
 62 64  1  0
 63 74  2  0
 64 69  1  0
 65 73  1  0
 65 75  1  0
 66 72  1  0
 66 68  1  0
 67 73  1  0
 68 67  1  0
 69 68  2  0
 70 71  1  0
 70 64  2  0
 71 66  2  0
 72 65  1  0
 73 63  1  0
 75 77  2  0
 76 75  1  0
 78 76  1  0
 79 88  2  0
 79 84  1  0
 80 76  1  0
 80 84  1  0
 81 80  1  0
 82 83  1  0
 82 81  1  0
 83 79  1  0
 84 85  2  0
 85 86  1  0
 87 86  2  0
 88 87  1  0
 89 63  1  0
 89 90  1  0
 89 99  1  0
 90 93  1  0
 91 95  1  0
 91 90  1  0
 92 91  2  0
 95 94  1  0
 97 95  1  0
 97 98  1  0
 97 96  1  0
 99102  1  1
 99100  1  0
101 99  1  0
M  ISO  4  11 100  19 100  61 101  62 101
M  END
>  <TORSDO>  (15) 
F 23

>  <SCORE>  (15) 
-12.334

>  <name>  (15) 
14

>  <ligand_id>  (15) 
14

>  <original_smiles>  (15) 
[H]C(=Nc1c([H])c(C(=O)N([H])C([H])(C([H])(Oc2c([H])c([H])c3c(c2[H])C([H])([H])N(C(=O)C([H])(N([H])C(=O)C([H])(N([H])C([H])([H])[H])C([H])([H])[H])C(C([H])([H])[H])(C([H])([H])[H])C([H])([H])[H])C([H])(C(=O)N([H])C2([H])c4c([H])c([H])c([H])c([H])c4C([H])([H])C([H])([H])C2([H])[H])C3([H])[H])C([H])([H])[H])[N+]([H])([H])C([H])([H])C([H])([H])[H])nc(N([H])C(=O)N2C([H])([H])C([H])([H])C([H])([H])C([H])(n3nc(-c4c([H])c([H])c(Oc5c([H])c([H])c(F)c([H])c5F)c([H])c4[H])c(C(=O)N([H])[H])c3N([H])[H])C2([H])[H])c1[H])C(=O)C([H])([H])[H]

>  <smiles>  (15) 
[H]C(=Nc1c([H])c(C(=O)N([H])C([H])(C([H])(Oc2c([H])c([H])c3c(c2[H])C([H])([H])N(C(=O)C([H])(N([H])C(=O)C([H])(N([H])C([H])([H])[H])C([H])([H])[H])C(C([H])([H])[H])(C([H])([H])[H])C([H])([H])[H])C([H])(C(=O)N([H])C2([H])c4c([H])c([H])c([H])c([H])c4C([H])([H])C([H])([H])C2([H])[H])C3([H])[H])C([H])([H])[H])[N+]([H])([H])C([H])([H])C([H])([H])[H])nc(N([H])C(=O)N2C([H])([H])C([H])([H])C([H])([H])C([H])(n3nc(-c4c([H])c([H])c(Oc5c([H])c([H])c(F)c([H])c5F)c([H])c4[H])c(C(=O)N([H])[H])c3N([H])[H])C2([H])[H])c1[H])C(=O)C([H])([H])[H]

$$$$
15:0:0
     RDKit          3D

 98107  0  0  1  0  0  0  0  0999 V2000
  -28.1280  -22.9370   20.2710 C   0  0  0  0  0  0  0  0  0  0  0  0
  -29.1740  -21.3160   17.5600 C   0  0  0  0  0  2  0  0  0  0  0  0
  -30.6270  -21.8160   17.4260 C   0  0  0  0  0  2  0  0  0  0  0  0
  -30.5550  -22.3890   19.8870 C   0  0  0  0  0  2  0  0  0  0  0  0
  -28.8100  -20.9100   19.0120 C   0  0  0  0  0  3  0  0  0  0  0  0
  -30.9730  -22.8840   18.4870 C   0  0  0  0  0  3  0  0  0  0  0  0
  -32.4580  -23.2640   18.4430 C   0  0  0  0  0  1  0  0  0  0  0  0
  -29.1170  -22.0840   19.8710 N   0  0  0  0  0  0  0  0  0  0  0  0
  -26.9360  -22.6170   20.2260 O   0  0  0  0  0  0  0  0  0  0  0  0
  -29.0740  -19.0960   20.8070 C   0  0  0  0  0  3  0  0  0  0  0  0
  -29.9330  -18.6060   18.5980 C   0  0  0  0  0  3  0  0  0  0  0  0
  -29.3660  -17.7710   21.2110 C   0  0  0  0  0  3  0  0  0  0  0  0
  -30.2450  -17.2910   19.0030 C   0  0  0  0  0  3  0  0  0  0  0  0
  -29.3240  -19.5290   19.4860 C   0  0  0  0  0  0  0  0  0  0  0  0
  -29.9420  -16.8430   20.3110 C   0  0  0  0  0  0  0  0  0  0  0  0
  -30.7550  -14.4930   20.0750 C   0  0  0  0  0  0  0  0  0  0  0  0
  -30.3910  -12.3520   18.9130 C   0  0  0  0  0  2  0  0  0  0  0  0
  -29.3830  -12.6140   17.7740 C   0  0  0  0  0  2  0  0  0  0  0  0
  -27.9340  -12.4800   18.2810 C   0  0  0  0  0  2  0  0  0  0  0  0
  -27.6840  -13.2750   19.5910 C   0  0  0  0  0  3  0  0  0  0  0  0
  -28.7980  -12.9980   20.6260 C   0  0  0  0  0  2  0  0  0  0  0  0
  -30.0950  -13.3050   19.9950 N   0  0  0  0  0  0  0  0  0  0  0  0
  -31.8400  -14.6920   19.5210 O   0  0  0  0  0  0  0  0  0  0  0  0
  -30.0970  -15.4780   20.7220 N   0  0  0  0  0  0  0  0  0  0  0  0
  -29.3990  -15.1470   21.3700 H   0  0  0  0  0  0  0  0  0  0  0  0
  -25.3350  -13.8860   20.4470 C   0  0  0  0  0  0  0  0  0  0  0  0
  -24.2830  -13.1120   20.8610 C   0  0  0  0  0  0  0  0  0  0  0  0
  -24.7280  -11.7580   20.7690 C   0  0  0  0  0  0  0  0  0  0  0  0
  -26.3570  -13.0000   20.1370 N   0  0  0  0  0  0  0  0  0  0  0  0
  -25.9970  -11.7140   20.3840 N   0  0  0  0  0  0  0  0  0  0  0  0
  -24.0010  -10.4980   20.9690 C   0  0  0  0  0  0  0  0  0  0  0  0
  -24.4520   -9.5220   21.8840 C   0  0  0  0  0  3  0  0  0  0  0  0
  -23.7260   -8.3270   22.0740 C   0  0  0  0  0  3  0  0  0  0  0  0
  -22.5310   -8.1010   21.3490 C   0  0  0  0  0  0  0  0  0  0  0  0
  -22.0990   -9.0650   20.4220 C   0  0  0  0  0  3  0  0  0  0  0  0
  -22.8270  -10.2510   20.2310 C   0  0  0  0  0  3  0  0  0  0  0  0
  -21.7730   -6.9590   21.4490 O   0  0  0  0  0  0  0  0  0  0  0  0
  -21.7160   -6.2310   22.6110 C   0  0  0  0  0  0  0  0  0  0  0  0
  -21.2870   -6.8040   23.8280 C   0  0  0  0  0  3  0  0  0  0  0  0
  -21.1780   -6.0030   24.9820 C   0  0  0  0  0  3  0  0  0  0  0  0
  -21.4880   -4.6310   24.9200 C   0  0  0  0  0  0  0  0  0  0  0  0
  -21.9110   -4.0590   23.7080 C   0  0  0  0  0  3  0  0  0  0  0  0
  -22.0210   -4.8570   22.5550 C   0  0  0  0  0  0  0  0  0  0  0  0
  -22.4090   -4.2960   21.3830 F   0  0  0  0  0  0  0  0  0  0  0  0
  -21.3770   -3.8590   26.0270 F   0  0  0  0  0  0  0  0  0  0  0  0
  -22.9090  -13.5960   21.2300 C   0  0  0  0  0  0  0  0  0  0  0  0
  -22.2300  -12.8850   22.1230 N   0  0  0  0  0  0  0  0  0  0  0  0
  -22.4510  -14.6370   20.7640 O   0  0  0  0  0  0  0  0  0  0  0  0
  -22.6150  -12.0390   22.5190 H   0  0  0  0  0  0  0  0  0  0  0  0
  -21.3110  -13.1880   22.4140 H   0  0  0  0  0  0  0  0  0  0  0  0
  -25.5010  -15.2590   20.2960 N   0  0  0  0  0  0  0  0  0  0  0  0
  -24.7460  -15.9150   20.4540 H   0  0  0  0  0  0  0  0  0  0  0  0
  -26.3410  -15.7010   19.9430 H   0  0  0  0  0  0  0  0  0  0  0  0
  -28.2750  -25.3160   19.8660 C   0  0  0  0  0  3  0  0  0  0  0  0
  -28.5140  -24.2850   20.7040 C   0  0  0  0  0  0  0  0  0  0  0  0
  -29.0020  -24.4900   21.9370 O   0  0  0  0  0  0  0  0  0  0  0  0
  -29.1410  -25.4250   22.0240 H   0  0  0  0  0  0  0  0  0  0  0  0
  -28.3910  -26.6530   20.1960 O   0  0  0  0  0  0  0  0  0  0  0  0
  -24.5990  -31.8900   23.2500 C   0  0  0  0  0  0  0  0  0  0  0  0
  -27.2320  -27.4170   20.1730 C   0  0  0  0  0  0  0  0  0  0  0  0
  -23.3960  -30.4980   21.6020 C   0  0  0  0  0  3  0  0  0  0  0  0
  -24.8490  -28.9610   20.1820 C   0  0  0  0  0  0  0  0  0  0  0  0
  -25.9300  -30.8350   21.4230 C   0  0  0  0  0  2  0  0  0  0  0  0
  -26.0110  -29.4660   20.7790 C   0  0  0  0  0  0  0  0  0  0  0  0
  -27.2040  -28.7010   20.7750 C   0  0  0  0  0  3  0  0  0  0  0  0
  -26.0410  -26.9400   19.5720 C   0  0  0  0  0  3  0  0  0  0  0  0
  -24.8590  -27.6960   19.5780 C   0  0  0  0  0  3  0  0  0  0  0  0
  -23.6110  -29.8270   20.2220 C   0  0  0  0  0  2  0  0  0  0  0  0
  -24.6600  -31.0890   22.1500 N   0  0  0  0  0  0  0  0  0  0  0  0
  -23.5150  -32.1670   23.7820 O   0  0  0  0  0  0  0  0  0  0  0  0
  -22.7350  -29.4730   22.5540 C   0  0  0  0  0  0  0  0  0  0  0  0
  -21.4100  -29.2960   22.4180 N   0  0  0  0  0  0  0  0  0  0  0  0
  -23.4120  -28.8450   23.3730 O   0  0  0  0  0  0  0  0  0  0  0  0
  -20.9250  -29.8590   21.7320 H   0  0  0  0  0  0  0  0  0  0  0  0
  -18.0270  -28.1160   22.8940 C   0  0  0  0  0  0  0  0  0  0  0  0
  -20.5850  -28.3620   23.1830 C   0  0  0  0  0  3  0  0  0  0  0  0
  -20.6840  -26.9300   22.6060 C   0  0  0  0  0  2  0  0  0  0  0  0
  -19.5860  -26.6140   21.5860 C   0  0  0  0  0  2  0  0  0  0  0  0
  -18.2020  -26.7650   22.2200 C   0  0  0  0  0  2  0  0  0  0  0  0
  -19.1470  -28.8720   23.3330 C   0  0  0  0  0  0  0  0  0  0  0  0
  -18.9310  -30.1370   23.9220 C   0  0  0  0  0  3  0  0  0  0  0  0
  -17.6270  -30.6460   24.0780 C   0  0  0  0  0  3  0  0  0  0  0  0
  -16.5230  -29.8860   23.6560 C   0  0  0  0  0  3  0  0  0  0  0  0
  -16.7230  -28.6230   23.0700 C   0  0  0  0  0  3  0  0  0  0  0  0
  -25.8820  -32.5160   23.8770 C   0  0  0  0  0  3  0  0  0  0  0  0
  -26.3920  -31.7390   25.1540 C   0  0  1  0  0  0  0  0  0  0  0  0
  -25.2940  -31.5020   26.2170 C   0  0  0  0  0  1  0  0  0  0  0  0
  -26.9720  -30.3600   24.7590 C   0  0  0  0  0  1  0  0  0  0  0  0
  -27.5410  -32.5290   25.8230 C   0  0  0  0  0  1  0  0  0  0  0  0
  -25.5780  -33.9150   24.2060 N   0  0  0  0  0  0  0  0  0  0  0  0
  -25.9050  -34.9630   23.4390 C   0  0  0  0  0  0  0  0  0  0  0  0
  -26.5650  -34.8560   22.4020 O   0  0  0  0  0  0  0  0  0  0  0  0
  -24.9890  -34.0740   25.0100 H   0  0  0  0  0  0  0  0  0  0  0  0
  -24.1650  -36.7460   23.1020 C   0  0  0  0  0  1  0  0  0  0  0  0
  -25.4210  -36.3530   23.8940 C   0  0  0  0  0  3  0  0  0  0  0  0
  -27.5690  -37.2470   24.6810 C   0  0  0  0  0  1  0  0  0  0  0  0
  -26.4490  -37.4070   23.7570 N   0  0  0  0  0  0  0  0  0  0  0  0
  -26.0430  -38.3270   23.9090 H   0  0  0  0  0  0  0  0  0  0  0  0
  1 55  1  0
  2  5  1  0
  3  2  1  0
  3  6  1  0
  5 14  1  0
  5  8  1  0
  6  7  1  0
  6  4  1  0
  8  4  1  0
  8  1  1  0
  9  1  2  0
 10 12  1  0
 11 13  2  0
 11 14  1  0
 13 15  1  0
 14 10  2  0
 15 24  1  0
 15 12  2  0
 16 24  1  0
 17 22  1  0
 18 19  1  0
 18 17  1  0
 20 19  1  0
 20 29  1  0
 20 21  1  0
 22 16  1  0
 22 21  1  0
 23 16  2  0
 24 25  1  0
 26 27  2  0
 27 46  1  0
 28 27  1  0
 28 31  1  0
 29 30  1  0
 29 26  1  0
 30 28  2  0
 31 32  1  0
 32 33  2  0
 34 37  1  0
 34 33  1  0
 35 34  2  0
 36 35  1  0
 36 31  2  0
 37 38  1  0
 38 39  1  0
 39 40  2  0
 41 40  1  0
 41 45  1  0
 42 41  2  0
 43 38  2  0
 43 42  1  0
 44 43  1  0
 46 47  1  0
 47 50  1  0
 47 49  1  0
 48 46  2  0
 51 26  1  0
 51 52  1  0
 53 51  1  0
 54 58  1  0
 54 55  2  0
 55 56  1  0
 56 57  1  0
 59 70  2  0
 60 58  1  0
 60 65  1  0
 61 69  1  0
 61 71  1  0
 62 68  1  0
 62 64  1  0
 63 69  1  0
 64 63  1  0
 65 64  2  0
 66 67  1  0
 66 60  2  0
 67 62  2  0
 68 61  1  0
 69 59  1  0
 71 73  2  0
 72 71  1  0
 74 72  1  0
 75 84  2  0
 75 80  1  0
 76 72  1  0
 76 80  1  0
 77 76  1  0
 78 79  1  0
 78 77  1  0
 79 75  1  0
 80 81  2  0
 81 82  1  0
 83 82  2  0
 84 83  1  0
 85 59  1  0
 85 90  1  0
 85 86  1  0
 86 89  1  1
 86 87  1  0
 88 86  1  0
 90 93  1  0
 91 95  1  0
 91 90  1  0
 92 91  2  0
 95 94  1  0
 97 95  1  0
 97 98  1  0
 97 96  1  0
M  ISO  4  16 100  24 100  54 101  58 101
M  END
>  <TORSDO>  (16) 
F 19

>  <SCORE>  (16) 
-14.443

>  <name>  (16) 
15

>  <ligand_id>  (16) 
15

>  <original_smiles>  (16) 
[H]OC(C(=O)N1C([H])([H])C([H])(C([H])([H])[H])C([H])([H])C([H])([H])C1([H])c1c([H])c([H])c(N([H])C(=O)N2C([H])([H])C([H])([H])C([H])([H])C([H])(n3nc(-c4c([H])c([H])c(Oc5c([H])c([H])c(F)c([H])c5F)c([H])c4[H])c(C(=O)N([H])[H])c3N([H])[H])C2([H])[H])c([H])c1[H])=C([H])Oc1c([H])c([H])c2c(c1[H])C([H])([H])N(C(=O)C([H])(N([H])C(=O)C([H])(N([H])C([H])([H])[H])C([H])([H])[H])C(C([H])([H])[H])(C([H])([H])[H])C([H])([H])[H])C([H])(C(=O)N([H])C1([H])c3c([H])c([H])c([H])c([H])c3C([H])([H])C([H])([H])C1([H])[H])C2([H])[H]

>  <smiles>  (16) 
[H]OC(C(=O)N1C([H])([H])C([H])(C([H])([H])[H])C([H])([H])C([H])([H])C1([H])c1c([H])c([H])c(N([H])C(=O)N2C([H])([H])C([H])([H])C([H])([H])C([H])(n3nc(-c4c([H])c([H])c(Oc5c([H])c([H])c(F)c([H])c5F)c([H])c4[H])c(C(=O)N([H])[H])c3N([H])[H])C2([H])[H])c([H])c1[H])=C([H])Oc1c([H])c([H])c2c(c1[H])C([H])([H])N(C(=O)C([H])(N([H])C(=O)C([H])(N([H])C([H])([H])[H])C([H])([H])[H])C(C([H])([H])[H])(C([H])([H])[H])C([H])([H])[H])C([H])(C(=O)N([H])C1([H])c3c([H])c([H])c([H])c([H])c3C([H])([H])C([H])([H])C1([H])[H])C2([H])[H]

$$$$
16:0:0
     RDKit          3D

 91 99  0  0  1  0  0  0  0  0999 V2000
  -30.2960  -23.5750   21.2390 C   0  0  0  0  0  3  0  0  0  0  0  0
  -30.5300  -22.2110   21.2710 C   0  0  0  0  0  3  0  0  0  0  0  0
  -29.1830  -24.4320   20.6520 C   0  0  0  0  0  0  0  0  0  0  0  0
  -28.3590  -23.9750   19.8510 O   0  0  0  0  0  0  0  0  0  0  0  0
  -29.0870  -25.9590   21.0940 C   0  0  0  0  0  2  0  0  0  0  0  0
  -28.7470  -26.9490   20.0570 O   0  0  0  0  0  0  0  0  0  0  0  0
  -24.6110  -31.9700   23.2620 C   0  0  0  0  0  0  0  0  0  0  0  0
  -27.5660  -27.6930   20.1450 C   0  0  0  0  0  0  0  0  0  0  0  0
  -23.5220  -30.5620   21.5400 C   0  0  0  0  0  3  0  0  0  0  0  0
  -25.0970  -29.1330   20.1210 C   0  0  0  0  0  0  0  0  0  0  0  0
  -26.0340  -31.0410   21.4270 C   0  0  0  0  0  2  0  0  0  0  0  0
  -26.2150  -29.6820   20.7640 C   0  0  0  0  0  0  0  0  0  0  0  0
  -27.4500  -28.9670   20.7800 C   0  0  0  0  0  3  0  0  0  0  0  0
  -26.4330  -27.1920   19.4780 C   0  0  0  0  0  3  0  0  0  0  0  0
  -25.2040  -27.8870   19.4810 C   0  0  0  0  0  3  0  0  0  0  0  0
  -23.8150  -29.9380   20.1510 C   0  0  0  0  0  2  0  0  0  0  0  0
  -24.7360  -31.2120   22.1330 N   0  0  0  0  0  0  0  0  0  0  0  0
  -23.5050  -32.1730   23.7780 O   0  0  0  0  0  0  0  0  0  0  0  0
  -22.8960  -29.4820   22.4510 C   0  0  0  0  0  0  0  0  0  0  0  0
  -21.5850  -29.2390   22.2820 N   0  0  0  0  0  0  0  0  0  0  0  0
  -23.5830  -28.8720   23.2740 O   0  0  0  0  0  0  0  0  0  0  0  0
  -21.0820  -29.7910   21.6010 H   0  0  0  0  0  0  0  0  0  0  0  0
  -18.2710  -27.8440   22.6660 C   0  0  0  0  0  0  0  0  0  0  0  0
  -20.8030  -28.2330   23.0020 C   0  0  0  0  0  3  0  0  0  0  0  0
  -20.9950  -26.8290   22.3810 C   0  0  0  0  0  2  0  0  0  0  0  0
  -19.9320  -26.4860   21.3310 C   0  0  0  0  0  2  0  0  0  0  0  0
  -18.5320  -26.5320   21.9450 C   0  0  0  0  0  2  0  0  0  0  0  0
  -19.3350  -28.6500   23.1460 C   0  0  0  0  0  0  0  0  0  0  0  0
  -19.0330  -29.8770   23.7760 C   0  0  0  0  0  3  0  0  0  0  0  0
  -17.6990  -30.2990   23.9280 C   0  0  0  0  0  3  0  0  0  0  0  0
  -16.6470  -29.4930   23.4550 C   0  0  0  0  0  3  0  0  0  0  0  0
  -16.9360  -28.2650   22.8330 C   0  0  0  0  0  3  0  0  0  0  0  0
  -25.8490  -32.6430   23.9410 C   0  0  0  0  0  3  0  0  0  0  0  0
  -26.3280  -31.8980   25.2450 C   0  0  1  0  0  0  0  0  0  0  0  0
  -25.1880  -31.6160   26.2520 C   0  0  0  0  0  1  0  0  0  0  0  0
  -26.9920  -30.5510   24.8820 C   0  0  0  0  0  1  0  0  0  0  0  0
  -27.4110  -32.7410   25.9630 C   0  0  0  0  0  1  0  0  0  0  0  0
  -25.4920  -34.0360   24.2480 N   0  0  0  0  0  0  0  0  0  0  0  0
  -25.8270  -35.0880   23.4890 C   0  0  0  0  0  0  0  0  0  0  0  0
  -26.5430  -34.9910   22.4880 O   0  0  0  0  0  0  0  0  0  0  0  0
  -24.8720  -34.1850   25.0320 H   0  0  0  0  0  0  0  0  0  0  0  0
  -24.0750  -36.8280   23.0310 C   0  0  0  0  0  1  0  0  0  0  0  0
  -25.2850  -36.4700   23.9090 C   0  0  0  0  0  3  0  0  0  0  0  0
  -27.3440  -37.4150   24.8430 C   0  0  0  0  0  1  0  0  0  0  0  0
  -26.2960  -37.5480   23.8370 N   0  0  0  0  0  0  0  0  0  0  0  0
  -25.8570  -38.4570   23.9620 H   0  0  0  0  0  0  0  0  0  0  0  0
  -28.6040  -20.7780   21.8410 C   0  0  0  0  0  1  0  0  0  0  0  0
  -29.7270  -20.9580   20.8060 C   0  0  0  0  0  3  0  0  0  0  0  0
  -31.6790  -19.3340   19.9510 C   0  0  0  0  0  3  0  0  0  0  0  0
  -31.8440  -17.9120   19.9020 C   0  0  0  0  0  3  0  0  0  0  0  0
  -30.5040  -19.6200   20.5940 C   0  0  0  0  0  0  0  0  0  0  0  0
  -30.7590  -17.3530   20.5300 C   0  0  0  0  0  0  0  0  0  0  0  0
  -29.9230  -18.3930   20.9600 O   0  0  0  0  0  0  0  0  0  0  0  0
  -31.1010  -14.8950   20.1180 C   0  0  0  0  0  0  0  0  0  0  0  0
  -30.7620  -12.6620   19.0540 C   0  0  0  0  0  2  0  0  0  0  0  0
  -29.7880  -12.7930   17.8620 C   0  0  0  0  0  2  0  0  0  0  0  0
  -28.3300  -12.6570   18.3430 C   0  0  0  0  0  2  0  0  0  0  0  0
  -28.0120  -13.5470   19.5750 C   0  0  0  0  0  3  0  0  0  0  0  0
  -29.1050  -13.3950   20.6570 C   0  0  0  0  0  2  0  0  0  0  0  0
  -30.4060  -13.7060   20.0420 N   0  0  0  0  0  0  0  0  0  0  0  0
  -32.2320  -14.9720   19.6290 O   0  0  0  0  0  0  0  0  0  0  0  0
  -30.4610  -15.9960   20.6460 N   0  0  0  0  0  0  0  0  0  0  0  0
  -29.5830  -15.7900   21.1000 H   0  0  0  0  0  0  0  0  0  0  0  0
  -25.6690  -14.1710   20.4440 C   0  0  0  0  0  0  0  0  0  0  0  0
  -24.6010  -13.4120   20.8300 C   0  0  0  0  0  0  0  0  0  0  0  0
  -25.0200  -12.0500   20.7140 C   0  0  0  0  0  0  0  0  0  0  0  0
  -26.6760  -13.2790   20.1110 N   0  0  0  0  0  0  0  0  0  0  0  0
  -26.2910  -11.9930   20.3310 N   0  0  0  0  0  0  0  0  0  0  0  0
  -24.2700  -10.7990   20.8930 C   0  0  0  0  0  0  0  0  0  0  0  0
  -24.6530   -9.8360   21.8530 C   0  0  0  0  0  3  0  0  0  0  0  0
  -23.9040   -8.6500   22.0200 C   0  0  0  0  0  3  0  0  0  0  0  0
  -22.7580   -8.4170   21.2220 C   0  0  0  0  0  0  0  0  0  0  0  0
  -22.3870   -9.3710   20.2570 C   0  0  0  0  0  3  0  0  0  0  0  0
  -23.1390  -10.5480   20.0890 C   0  0  0  0  0  3  0  0  0  0  0  0
  -21.9880   -7.2800   21.2950 O   0  0  0  0  0  0  0  0  0  0  0  0
  -21.8020   -6.6120   22.4770 C   0  0  0  0  0  0  0  0  0  0  0  0
  -21.1930   -7.2250   23.5950 C   0  0  0  0  0  3  0  0  0  0  0  0
  -20.9520   -6.4790   24.7650 C   0  0  0  0  0  3  0  0  0  0  0  0
  -21.3140   -5.1190   24.8210 C   0  0  0  0  0  0  0  0  0  0  0  0
  -21.9200   -4.5050   23.7090 C   0  0  0  0  0  3  0  0  0  0  0  0
  -22.1580   -5.2490   22.5410 C   0  0  0  0  0  0  0  0  0  0  0  0
  -22.7200   -4.6450   21.4650 F   0  0  0  0  0  0  0  0  0  0  0  0
  -21.0750   -4.4010   25.9430 F   0  0  0  0  0  0  0  0  0  0  0  0
  -23.2300  -13.9160   21.1960 C   0  0  0  0  0  0  0  0  0  0  0  0
  -22.5250  -13.2200   22.0810 N   0  0  0  0  0  0  0  0  0  0  0  0
  -22.7950  -14.9670   20.7300 O   0  0  0  0  0  0  0  0  0  0  0  0
  -22.8800  -12.3730   22.5000 H   0  0  0  0  0  0  0  0  0  0  0  0
  -21.6130  -13.5560   22.3640 H   0  0  0  0  0  0  0  0  0  0  0  0
  -25.8640  -15.5460   20.3300 N   0  0  0  0  0  0  0  0  0  0  0  0
  -25.1230  -16.2160   20.5070 H   0  0  0  0  0  0  0  0  0  0  0  0
  -26.7190  -15.9780   20.0020 H   0  0  0  0  0  0  0  0  0  0  0  0
  1  2  2  0
  3  5  1  0
  3  1  1  0
  4  3  2  0
  6  8  1  0
  6  5  1  0
  7 18  2  0
  8 13  1  0
  9 17  1  0
  9 19  1  0
 10 16  1  0
 10 12  1  0
 11 17  1  0
 12 13  2  0
 12 11  1  0
 14 15  1  0
 14  8  2  0
 15 10  2  0
 16  9  1  0
 17  7  1  0
 19 21  2  0
 20 19  1  0
 22 20  1  0
 23 32  2  0
 23 28  1  0
 24 20  1  0
 24 28  1  0
 25 24  1  0
 26 27  1  0
 26 25  1  0
 27 23  1  0
 28 29  2  0
 29 30  1  0
 31 30  2  0
 32 31  1  0
 33  7  1  0
 33 38  1  0
 33 34  1  0
 34 37  1  1
 34 35  1  0
 36 34  1  0
 38 41  1  0
 39 43  1  0
 39 38  1  0
 40 39  2  0
 43 42  1  0
 45 43  1  0
 45 46  1  0
 45 44  1  0
 48  2  1  0
 48 47  1  0
 49 51  2  0
 50 49  1  0
 50 52  2  0
 51 48  1  0
 51 53  1  0
 52 62  1  0
 52 53  1  0
 54 62  1  0
 55 60  1  0
 56 57  1  0
 56 55  1  0
 58 57  1  0
 58 67  1  0
 58 59  1  0
 60 54  1  0
 60 59  1  0
 61 54  2  0
 62 63  1  0
 64 65  2  0
 65 84  1  0
 66 65  1  0
 66 69  1  0
 67 68  1  0
 67 64  1  0
 68 66  2  0
 69 70  1  0
 70 71  2  0
 72 75  1  0
 72 71  1  0
 73 72  2  0
 74 73  1  0
 74 69  2  0
 75 76  1  0
 76 81  2  0
 76 77  1  0
 77 78  2  0
 78 79  1  0
 79 83  1  0
 80 79  2  0
 81 80  1  0
 82 81  1  0
 84 85  1  0
 85 88  1  0
 85 87  1  0
 86 84  2  0
 89 64  1  0
 89 90  1  0
 91 89  1  0
M  ISO  4   5 101   6 101  54 100  62 100
M  END
>  <TORSDO>  (17) 
F 20

>  <SCORE>  (17) 
-12.764

>  <name>  (17) 
16

>  <ligand_id>  (17) 
16

>  <original_smiles>  (17) 
[H]C(C(=O)C([H])([H])Oc1c([H])c([H])c2c(c1[H])C([H])([H])N(C(=O)C([H])(N([H])C(=O)C([H])(N([H])C([H])([H])[H])C([H])([H])[H])C(C([H])([H])[H])(C([H])([H])[H])C([H])([H])[H])C([H])(C(=O)N([H])C1([H])c3c([H])c([H])c([H])c([H])c3C([H])([H])C([H])([H])C1([H])[H])C2([H])[H])=C([H])C([H])(c1oc(N([H])C(=O)N2C([H])([H])C([H])([H])C([H])([H])C([H])(n3nc(-c4c([H])c([H])c(Oc5c([H])c([H])c(F)c([H])c5F)c([H])c4[H])c(C(=O)N([H])[H])c3N([H])[H])C2([H])[H])c([H])c1[H])C([H])([H])[H]

>  <smiles>  (17) 
[H]C(C(=O)C([H])([H])Oc1c([H])c([H])c2c(c1[H])C([H])([H])N(C(=O)C([H])(N([H])C(=O)C([H])(N([H])C([H])([H])[H])C([H])([H])[H])C(C([H])([H])[H])(C([H])([H])[H])C([H])([H])[H])C([H])(C(=O)N([H])C1([H])c3c([H])c([H])c([H])c([H])c3C([H])([H])C([H])([H])C1([H])[H])C2([H])[H])=C([H])C([H])(c1oc(N([H])C(=O)N2C([H])([H])C([H])([H])C([H])([H])C([H])(n3nc(-c4c([H])c([H])c(Oc5c([H])c([H])c(F)c([H])c5F)c([H])c4[H])c(C(=O)N([H])[H])c3N([H])[H])C2([H])[H])c([H])c1[H])C([H])([H])[H]

$$$$
17:0:0
     RDKit          3D

 98106  0  0  1  0  0  0  0  0999 V2000
  -28.7720  -20.7150   20.1010 C   0  0  0  0  0  0  0  0  0  0  0  0
  -29.2590  -21.9740   20.2800 N   0  0  0  0  0  0  0  0  0  0  0  0
  -27.4590  -20.5650   19.9230 N   0  0  0  0  0  4  0  0  0  0  0  0
  -30.2050  -22.0170   20.6390 H   0  0  0  0  0  0  0  0  0  0  0  0
  -27.0910  -19.6320   19.8170 H   0  0  0  0  0  0  0  0  0  0  0  0
  -26.8130  -21.3330   19.9080 H   0  0  0  0  0  0  0  0  0  0  0  0
  -30.8370  -19.7660   19.1580 C   0  0  0  0  0  3  0  0  0  0  0  0
  -31.6340  -18.6960   18.7290 C   0  0  0  0  0  3  0  0  0  0  0  0
  -29.6800  -19.5370   19.9320 C   0  0  0  0  0  0  0  0  0  0  0  0
  -30.2360  -17.0840   19.9600 C   0  0  0  0  0  0  0  0  0  0  0  0
  -31.3140  -17.3740   19.0710 C   0  0  0  0  0  0  0  0  0  0  0  0
  -29.4050  -18.1890   20.3540 C   0  0  0  0  0  0  0  0  0  0  0  0
  -32.0250  -16.4120   18.4390 F   0  0  0  0  0  0  0  0  0  0  0  0
  -28.2990  -17.9330   21.0990 F   0  0  0  0  0  0  0  0  0  0  0  0
  -30.6460  -14.5850   20.3140 C   0  0  0  0  0  0  0  0  0  0  0  0
  -30.3480  -12.3640   19.2950 C   0  0  0  0  0  2  0  0  0  0  0  0
  -29.4120  -12.5050   18.0770 C   0  0  0  0  0  2  0  0  0  0  0  0
  -27.9390  -12.3750   18.5120 C   0  0  0  0  0  2  0  0  0  0  0  0
  -27.5890  -13.2600   19.7390 C   0  0  0  0  0  3  0  0  0  0  0  0
  -28.6510  -13.1310   20.8530 C   0  0  0  0  0  2  0  0  0  0  0  0
  -29.9620  -13.4080   20.2570 N   0  0  0  0  0  0  0  0  0  0  0  0
  -31.8580  -14.6100   20.1200 O   0  0  0  0  0  0  0  0  0  0  0  0
  -29.9000  -15.7260   20.3860 N   0  0  0  0  0  0  0  0  0  0  0  0
  -28.9470  -15.6020   20.6890 H   0  0  0  0  0  0  0  0  0  0  0  0
  -25.2080  -13.8720   20.4850 C   0  0  0  0  0  0  0  0  0  0  0  0
  -24.1400  -13.1030   20.8620 C   0  0  0  0  0  0  0  0  0  0  0  0
  -24.5960  -11.7500   20.8270 C   0  0  0  0  0  0  0  0  0  0  0  0
  -26.2450  -12.9860   20.2400 N   0  0  0  0  0  0  0  0  0  0  0  0
  -25.8840  -11.7070   20.5100 N   0  0  0  0  0  0  0  0  0  0  0  0
  -23.8670  -10.4900   21.0200 C   0  0  0  0  0  0  0  0  0  0  0  0
  -24.2970   -9.5210   21.9520 C   0  0  0  0  0  3  0  0  0  0  0  0
  -23.5680   -8.3250   22.1310 C   0  0  0  0  0  3  0  0  0  0  0  0
  -22.3940   -8.0910   21.3770 C   0  0  0  0  0  0  0  0  0  0  0  0
  -21.9830   -9.0490   20.4340 C   0  0  0  0  0  3  0  0  0  0  0  0
  -22.7120  -10.2350   20.2530 C   0  0  0  0  0  3  0  0  0  0  0  0
  -21.6340   -6.9490   21.4670 O   0  0  0  0  0  0  0  0  0  0  0  0
  -21.5800   -6.2110   22.6210 C   0  0  0  0  0  0  0  0  0  0  0  0
  -21.1380   -6.7660   23.8420 C   0  0  0  0  0  3  0  0  0  0  0  0
  -21.0300   -5.9510   24.9870 C   0  0  0  0  0  3  0  0  0  0  0  0
  -21.3560   -4.5840   24.9110 C   0  0  0  0  0  0  0  0  0  0  0  0
  -21.7920   -4.0270   23.6960 C   0  0  0  0  0  3  0  0  0  0  0  0
  -21.9000   -4.8390   22.5540 C   0  0  0  0  0  0  0  0  0  0  0  0
  -22.2990   -4.2940   21.3780 F   0  0  0  0  0  0  0  0  0  0  0  0
  -21.2460   -3.7990   26.0090 F   0  0  0  0  0  0  0  0  0  0  0  0
  -22.7460  -13.5860   21.1410 C   0  0  0  0  0  0  0  0  0  0  0  0
  -22.0200  -12.8920   22.0100 N   0  0  0  0  0  0  0  0  0  0  0  0
  -22.3100  -14.6140   20.6230 O   0  0  0  0  0  0  0  0  0  0  0  0
  -22.3850  -12.0640   22.4560 H   0  0  0  0  0  0  0  0  0  0  0  0
  -21.0830  -13.1960   22.2390 H   0  0  0  0  0  0  0  0  0  0  0  0
  -25.3780  -15.2410   20.3070 N   0  0  0  0  0  0  0  0  0  0  0  0
  -24.6190  -15.9000   20.4380 H   0  0  0  0  0  0  0  0  0  0  0  0
  -26.2260  -15.6770   19.9690 H   0  0  0  0  0  0  0  0  0  0  0  0
  -28.7210  -23.3190   19.8640 C   0  0  0  0  0  2  0  0  0  0  0  0
  -28.1990  -24.1990   21.0190 C   0  0  0  0  0  0  0  0  0  0  0  0
  -27.3720  -23.7130   21.8460 N   0  0  0  0  0  0  0  0  0  0  0  0
  -27.1690  -22.7460   21.6200 H   0  0  0  0  0  0  0  0  0  0  0  0
  -28.7450  -25.6510   21.1910 C   0  0  0  0  0  2  0  0  0  0  0  0
  -28.4640  -26.6250   20.1560 O   0  0  0  0  0  0  0  0  0  0  0  0
  -24.6200  -31.8860   23.2380 C   0  0  0  0  0  0  0  0  0  0  0  0
  -27.3090  -27.3820   20.2470 C   0  0  0  0  0  0  0  0  0  0  0  0
  -23.4410  -30.4610   21.6000 C   0  0  0  0  0  3  0  0  0  0  0  0
  -24.9180  -28.9090   20.2100 C   0  0  0  0  0  0  0  0  0  0  0  0
  -25.9700  -30.8190   21.4280 C   0  0  0  0  0  2  0  0  0  0  0  0
  -26.0700  -29.4340   20.8120 C   0  0  0  0  0  0  0  0  0  0  0  0
  -27.2730  -28.6790   20.8270 C   0  0  0  0  0  3  0  0  0  0  0  0
  -26.1440  -26.8830   19.6370 C   0  0  0  0  0  3  0  0  0  0  0  0
  -24.9520  -27.6330   19.6210 C   0  0  0  0  0  3  0  0  0  0  0  0
  -23.6710  -29.7660   20.2310 C   0  0  0  0  0  2  0  0  0  0  0  0
  -24.6950  -31.0720   22.1460 N   0  0  0  0  0  0  0  0  0  0  0  0
  -23.5320  -32.1570   23.7660 O   0  0  0  0  0  0  0  0  0  0  0  0
  -22.7850  -29.4460   22.5650 C   0  0  0  0  0  0  0  0  0  0  0  0
  -21.4590  -29.2650   22.4370 N   0  0  0  0  0  0  0  0  0  0  0  0
  -23.4660  -28.8240   23.3830 O   0  0  0  0  0  0  0  0  0  0  0  0
  -20.9710  -29.8210   21.7510 H   0  0  0  0  0  0  0  0  0  0  0  0
  -18.0810  -28.0920   22.9570 C   0  0  0  0  0  0  0  0  0  0  0  0
  -20.6420  -28.3300   23.2100 C   0  0  0  0  0  3  0  0  0  0  0  0
  -20.7280  -26.9000   22.6280 C   0  0  0  0  0  2  0  0  0  0  0  0
  -19.6180  -26.5900   21.6200 C   0  0  0  0  0  2  0  0  0  0  0  0
  -18.2410  -26.7440   22.2750 C   0  0  0  0  0  2  0  0  0  0  0  0
  -19.2080  -28.8430   23.3820 C   0  0  0  0  0  0  0  0  0  0  0  0
  -19.0030  -30.1050   23.9800 C   0  0  0  0  0  3  0  0  0  0  0  0
  -17.7050  -30.6180   24.1560 C   0  0  0  0  0  3  0  0  0  0  0  0
  -16.5910  -29.8630   23.7460 C   0  0  0  0  0  3  0  0  0  0  0  0
  -16.7800  -28.6030   23.1540 C   0  0  0  0  0  3  0  0  0  0  0  0
  -25.8950  -32.5330   23.8640 C   0  0  0  0  0  3  0  0  0  0  0  0
  -26.4130  -31.7720   25.1460 C   0  0  1  0  0  0  0  0  0  0  0  0
  -25.3160  -31.5260   26.2100 C   0  0  0  0  0  1  0  0  0  0  0  0
  -27.0140  -30.4000   24.7620 C   0  0  0  0  0  1  0  0  0  0  0  0
  -27.5510  -32.5810   25.8110 C   0  0  0  0  0  1  0  0  0  0  0  0
  -25.5700  -33.9290   24.1870 N   0  0  0  0  0  0  0  0  0  0  0  0
  -25.8950  -34.9820   23.4250 C   0  0  0  0  0  0  0  0  0  0  0  0
  -26.5690  -34.8800   22.3970 O   0  0  0  0  0  0  0  0  0  0  0  0
  -24.9710  -34.0790   24.9860 H   0  0  0  0  0  0  0  0  0  0  0  0
  -24.1540  -36.7570   23.0470 C   0  0  0  0  0  1  0  0  0  0  0  0
  -25.3900  -36.3660   23.8740 C   0  0  0  0  0  3  0  0  0  0  0  0
  -27.5080  -37.2740   24.7220 C   0  0  0  0  0  1  0  0  0  0  0  0
  -26.4140  -37.4290   23.7670 N   0  0  0  0  0  0  0  0  0  0  0  0
  -25.9980  -38.3460   23.9070 H   0  0  0  0  0  0  0  0  0  0  0  0
  1  2  1  0
  2  4  1  0
  3  1  2  0
  5  3  1  0
  6  3  1  0
  7  9  1  0
  8 11  1  0
  8  7  2  0
  9  1  1  0
  9 12  2  0
 10 12  1  0
 10 23  1  0
 11 10  2  0
 12 14  1  0
 13 11  1  0
 15 23  1  0
 16 21  1  0
 17 18  1  0
 17 16  1  0
 19 18  1  0
 19 28  1  0
 19 20  1  0
 21 15  1  0
 21 20  1  0
 22 15  2  0
 23 24  1  0
 25 26  2  0
 26 45  1  0
 27 26  1  0
 27 30  1  0
 28 25  1  0
 28 29  1  0
 29 27  2  0
 30 31  1  0
 31 32  2  0
 33 36  1  0
 33 32  1  0
 34 33  2  0
 35 34  1  0
 35 30  2  0
 36 37  1  0
 37 38  1  0
 38 39  2  0
 40 39  1  0
 40 44  1  0
 41 40  2  0
 42 37  2  0
 42 41  1  0
 43 42  1  0
 45 46  1  0
 46 49  1  0
 46 48  1  0
 47 45  2  0
 50 51  1  0
 50 25  1  0
 52 50  1  0
 53  2  1  0
 53 54  1  0
 54 57  1  0
 54 55  2  0
 56 55  1  0
 58 60  1  0
 58 57  1  0
 59 70  2  0
 60 65  1  0
 61 69  1  0
 61 71  1  0
 62 68  1  0
 62 64  1  0
 63 69  1  0
 64 65  2  0
 64 63  1  0
 66 60  2  0
 67 66  1  0
 67 62  2  0
 68 61  1  0
 69 59  1  0
 71 73  2  0
 72 71  1  0
 74 72  1  0
 75 84  2  0
 75 80  1  0
 76 72  1  0
 76 80  1  0
 77 76  1  0
 78 79  1  0
 78 77  1  0
 79 75  1  0
 80 81  2  0
 81 82  1  0
 83 82  2  0
 84 83  1  0
 85 59  1  0
 85 90  1  0
 85 86  1  0
 86 89  1  1
 86 87  1  0
 88 86  1  0
 90 93  1  0
 91 95  1  0
 91 90  1  0
 92 91  2  0
 95 94  1  0
 97 95  1  0
 97 98  1  0
 97 96  1  0
M  ISO  4  15 100  23 100  57 101  58 101
M  END
>  <TORSDO>  (18) 
F 20

>  <SCORE>  (18) 
-14.291

>  <name>  (18) 
17

>  <ligand_id>  (18) 
17

>  <original_smiles>  (18) 
[H]N=C(C([H])([H])Oc1c([H])c([H])c2c(c1[H])C([H])([H])N(C(=O)C([H])(N([H])C(=O)C([H])(N([H])C([H])([H])[H])C([H])([H])[H])C(C([H])([H])[H])(C([H])([H])[H])C([H])([H])[H])C([H])(C(=O)N([H])C1([H])c3c([H])c([H])c([H])c([H])c3C([H])([H])C([H])([H])C1([H])[H])C2([H])[H])C([H])([H])N([H])C(c1c([H])c([H])c(F)c(N([H])C(=O)N2C([H])([H])C([H])([H])C([H])([H])C([H])(n3nc(-c4c([H])c([H])c(Oc5c([H])c([H])c(F)c([H])c5F)c([H])c4[H])c(C(=O)N([H])[H])c3N([H])[H])C2([H])[H])c1F)=[N+]([H])[H]

>  <smiles>  (18) 
[H]N=C(C([H])([H])Oc1c([H])c([H])c2c(c1[H])C([H])([H])N(C(=O)C([H])(N([H])C(=O)C([H])(N([H])C([H])([H])[H])C([H])([H])[H])C(C([H])([H])[H])(C([H])([H])[H])C([H])([H])[H])C([H])(C(=O)N([H])C1([H])c3c([H])c([H])c([H])c([H])c3C([H])([H])C([H])([H])C1([H])[H])C2([H])[H])C([H])([H])N([H])C(c1c([H])c([H])c(F)c(N([H])C(=O)N2C([H])([H])C([H])([H])C([H])([H])C([H])(n3nc(-c4c([H])c([H])c(Oc5c([H])c([H])c(F)c([H])c5F)c([H])c4[H])c(C(=O)N([H])[H])c3N([H])[H])C2([H])[H])c1F)=[N+]([H])[H]

$$$$
18:0:0
     RDKit          3D

 94102  0  0  1  0  0  0  0  0999 V2000
  -29.2500  -19.5770   20.0960 C   0  0  0  0  0  3  0  0  0  0  0  0
  -29.7120  -18.2150   20.1590 C   0  0  0  0  0  0  0  0  0  0  0  0
  -30.9580  -18.0480   19.5780 C   0  0  0  0  0  0  0  0  0  0  0  0
  -30.1240  -20.4400   19.4850 C   0  0  0  0  0  0  0  0  0  0  0  0
  -31.5200  -19.5690   18.9050 S   0  0  0  0  0  0  0  0  0  0  0  0
  -28.9530  -17.1320   20.7970 C   0  0  0  0  0  0  0  0  0  0  0  0
  -27.6460  -17.5280   21.4780 C   0  0  0  0  0  1  0  0  0  0  0  0
  -29.2920  -15.9480   20.8380 O   0  0  0  0  0  0  0  0  0  0  0  0
  -30.0290  -21.8270   19.2890 N   0  0  0  0  0  0  0  0  0  0  0  0
  -30.7530  -22.3270   18.7780 H   0  0  0  0  0  0  0  0  0  0  0  0
  -29.2520  -22.6740   20.2100 C   0  0  0  0  0  2  0  0  0  0  0  0
  -29.3170  -24.1960   19.9070 C   0  0  0  0  0  0  0  0  0  0  0  0
  -29.9560  -24.6220   18.9370 O   0  0  0  0  0  0  0  0  0  0  0  0
  -28.5700  -25.1410   20.8750 C   0  0  0  0  0  2  0  0  0  0  0  0
  -28.7810  -26.5450   20.5940 O   0  0  0  0  0  0  0  0  0  0  0  0
  -24.6350  -31.6670   23.3270 C   0  0  0  0  0  0  0  0  0  0  0  0
  -27.6100  -27.2660   20.4980 C   0  0  0  0  0  0  0  0  0  0  0  0
  -23.5720  -30.1740   21.6670 C   0  0  0  0  0  3  0  0  0  0  0  0
  -25.1610  -28.6720   20.3500 C   0  0  0  0  0  0  0  0  0  0  0  0
  -26.0870  -30.6420   21.5770 C   0  0  0  0  0  2  0  0  0  0  0  0
  -26.2660  -29.2620   20.9760 C   0  0  0  0  0  0  0  0  0  0  0  0
  -27.4980  -28.5680   21.0420 C   0  0  0  0  0  3  0  0  0  0  0  0
  -26.4910  -26.6950   19.8590 C   0  0  0  0  0  3  0  0  0  0  0  0
  -25.2690  -27.3890   19.7840 C   0  0  0  0  0  3  0  0  0  0  0  0
  -23.8780  -29.4730   20.3160 C   0  0  0  0  0  2  0  0  0  0  0  0
  -24.7790  -30.8450   22.2490 N   0  0  0  0  0  0  0  0  0  0  0  0
  -23.5180  -31.9020   23.8090 O   0  0  0  0  0  0  0  0  0  0  0  0
  -22.9230  -29.1460   22.6220 C   0  0  0  0  0  0  0  0  0  0  0  0
  -21.6140  -28.9040   22.4400 N   0  0  0  0  0  0  0  0  0  0  0  0
  -23.5940  -28.5680   23.4800 O   0  0  0  0  0  0  0  0  0  0  0  0
  -21.1330  -29.4220   21.7180 H   0  0  0  0  0  0  0  0  0  0  0  0
  -18.2620  -27.6160   22.8500 C   0  0  0  0  0  0  0  0  0  0  0  0
  -20.8020  -27.9490   23.1960 C   0  0  0  0  0  3  0  0  0  0  0  0
  -20.9630  -26.5170   22.6350 C   0  0  0  0  0  2  0  0  0  0  0  0
  -19.9010  -26.1550   21.5920 C   0  0  0  0  0  2  0  0  0  0  0  0
  -18.4960  -26.2670   22.1910 C   0  0  0  0  0  2  0  0  0  0  0  0
  -19.3460  -28.4140   23.3060 C   0  0  0  0  0  0  0  0  0  0  0  0
  -19.0740  -29.6770   23.8770 C   0  0  0  0  0  3  0  0  0  0  0  0
  -17.7520  -30.1420   23.9990 C   0  0  0  0  0  3  0  0  0  0  0  0
  -16.6820  -29.3420   23.5600 C   0  0  0  0  0  3  0  0  0  0  0  0
  -16.9380  -28.0800   22.9910 C   0  0  0  0  0  3  0  0  0  0  0  0
  -25.8610  -32.3700   23.9900 C   0  0  0  0  0  3  0  0  0  0  0  0
  -25.4920  -33.7710   24.2270 N   0  0  0  0  0  0  0  0  0  0  0  0
  -25.8230  -34.7900   23.4220 C   0  0  0  0  0  0  0  0  0  0  0  0
  -26.5420  -34.6530   22.4290 O   0  0  0  0  0  0  0  0  0  0  0  0
  -24.8590  -33.9490   24.9920 H   0  0  0  0  0  0  0  0  0  0  0  0
  -24.0470  -36.4910   22.8960 C   0  0  0  0  0  1  0  0  0  0  0  0
  -25.2680  -36.1830   23.7770 C   0  0  0  0  0  3  0  0  0  0  0  0
  -27.3370  -37.1950   24.6300 C   0  0  0  0  0  1  0  0  0  0  0  0
  -26.2670  -37.2660   23.6390 N   0  0  0  0  0  0  0  0  0  0  0  0
  -25.8220  -38.1780   23.7160 H   0  0  0  0  0  0  0  0  0  0  0  0
  -26.3220  -31.6790   25.3320 C   0  0  1  0  0  0  0  0  0  0  0  0
  -25.1640  -31.4040   26.3180 C   0  0  0  0  0  1  0  0  0  0  0  0
  -27.0240  -30.3320   25.0410 C   0  0  0  0  0  1  0  0  0  0  0  0
  -27.3620  -32.5710   26.0500 C   0  0  0  0  0  1  0  0  0  0  0  0
  -31.8910  -16.8500   19.5620 C   0  0  0  0  0  2  0  0  0  0  0  0
  -31.8810  -14.3650   19.2910 C   0  0  0  0  0  0  0  0  0  0  0  0
  -31.5210  -11.9710   18.8090 C   0  0  0  0  0  2  0  0  0  0  0  0
  -30.5210  -11.8310   17.6460 C   0  0  0  0  0  2  0  0  0  0  0  0
  -29.0750  -11.8260   18.1760 C   0  0  0  0  0  2  0  0  0  0  0  0
  -28.7940  -12.9890   19.1650 C   0  0  0  0  0  3  0  0  0  0  0  0
  -29.9070  -13.0940   20.2310 C   0  0  0  0  0  2  0  0  0  0  0  0
  -31.1940  -13.2120   19.5290 N   0  0  0  0  0  0  0  0  0  0  0  0
  -32.9640  -14.3750   18.7040 O   0  0  0  0  0  0  0  0  0  0  0  0
  -31.2740  -15.5150   19.6460 N   0  0  0  0  0  0  0  0  0  0  0  0
  -30.3820  -15.4520   20.1160 H   0  0  0  0  0  0  0  0  0  0  0  0
  -26.5720  -13.8650   20.1220 C   0  0  0  0  0  0  0  0  0  0  0  0
  -25.4580  -13.2200   20.5860 C   0  0  0  0  0  0  0  0  0  0  0  0
  -25.7400  -11.8230   20.4850 C   0  0  0  0  0  0  0  0  0  0  0  0
  -27.4710  -12.8680   19.7740 N   0  0  0  0  0  0  0  0  0  0  0  0
  -26.9790  -11.6330   20.0470 N   0  0  0  0  0  0  0  0  0  0  0  0
  -24.8830  -10.6540   20.7290 C   0  0  0  0  0  0  0  0  0  0  0  0
  -25.1620   -9.7350   21.7630 C   0  0  0  0  0  3  0  0  0  0  0  0
  -24.3150   -8.6290   21.9890 C   0  0  0  0  0  3  0  0  0  0  0  0
  -23.1710   -8.4370   21.1790 C   0  0  0  0  0  0  0  0  0  0  0  0
  -22.9090   -9.3410   20.1350 C   0  0  0  0  0  3  0  0  0  0  0  0
  -23.7570  -10.4380   19.9090 C   0  0  0  0  0  3  0  0  0  0  0  0
  -22.3050   -7.3780   21.3080 O   0  0  0  0  0  0  0  0  0  0  0  0
  -21.9410   -6.8910   22.5370 C   0  0  0  0  0  0  0  0  0  0  0  0
  -21.2810   -7.6940   23.4920 C   0  0  0  0  0  3  0  0  0  0  0  0
  -20.8620   -7.1350   24.7160 C   0  0  0  0  0  3  0  0  0  0  0  0
  -21.0940   -5.7720   24.9830 C   0  0  0  0  0  0  0  0  0  0  0  0
  -21.7480   -4.9690   24.0320 C   0  0  0  0  0  3  0  0  0  0  0  0
  -22.1680   -5.5260   22.8110 C   0  0  0  0  0  0  0  0  0  0  0  0
  -22.7770   -4.7430   21.8890 F   0  0  0  0  0  0  0  0  0  0  0  0
  -20.6870   -5.2310   26.1560 F   0  0  0  0  0  0  0  0  0  0  0  0
  -24.1650  -13.8580   21.0060 C   0  0  0  0  0  0  0  0  0  0  0  0
  -23.4600  -13.2510   21.9540 N   0  0  0  0  0  0  0  0  0  0  0  0
  -23.7960  -14.9300   20.5280 O   0  0  0  0  0  0  0  0  0  0  0  0
  -23.7710  -12.3840   22.3650 H   0  0  0  0  0  0  0  0  0  0  0  0
  -22.5940  -13.6610   22.2750 H   0  0  0  0  0  0  0  0  0  0  0  0
  -26.8890  -15.2080   19.9490 N   0  0  0  0  0  0  0  0  0  0  0  0
  -26.2250  -15.9510   20.1340 H   0  0  0  0  0  0  0  0  0  0  0  0
  -27.7540  -15.5420   19.5400 H   0  0  0  0  0  0  0  0  0  0  0  0
  1  2  1  0
  2  6  1  0
  3  2  2  0
  4  1  2  0
  5  4  1  0
  5  3  1  0
  6  8  2  0
  6  7  1  0
  9  4  1  0
  9 11  1  0
 10  9  1  0
 12 11  1  0
 12 14  1  0
 13 12  2  0
 15 14  1  0
 16 27  2  0
 17 15  1  0
 17 22  1  0
 18 26  1  0
 18 28  1  0
 19 21  1  0
 20 26  1  0
 21 22  2  0
 21 20  1  0
 23 17  2  0
 24 23  1  0
 24 19  2  0
 25 19  1  0
 25 18  1  0
 26 16  1  0
 28 30  2  0
 29 28  1  0
 31 29  1  0
 32 41  2  0
 32 37  1  0
 33 29  1  0
 33 37  1  0
 34 33  1  0
 35 36  1  0
 35 34  1  0
 36 32  1  0
 37 38  2  0
 38 39  1  0
 40 39  2  0
 41 40  1  0
 42 16  1  0
 42 43  1  0
 42 52  1  0
 43 46  1  0
 44 48  1  0
 44 43  1  0
 45 44  2  0
 48 47  1  0
 50 51  1  0
 50 48  1  0
 50 49  1  0
 52 55  1  1
 52 53  1  0
 54 52  1  0
 56  3  1  0
 56 65  1  0
 57 63  1  0
 57 65  1  0
 58 63  1  0
 59 60  1  0
 59 58  1  0
 61 60  1  0
 61 70  1  0
 61 62  1  0
 63 62  1  0
 64 57  2  0
 65 66  1  0
 67 68  2  0
 68 87  1  0
 69 68  1  0
 69 72  1  0
 70 71  1  0
 70 67  1  0
 71 69  2  0
 72 73  1  0
 73 74  2  0
 75 78  1  0
 75 74  1  0
 76 75  2  0
 77 76  1  0
 77 72  2  0
 78 79  1  0
 79 84  2  0
 79 80  1  0
 80 81  2  0
 81 82  1  0
 82 86  1  0
 83 82  2  0
 84 83  1  0
 85 84  1  0
 87 88  1  0
 88 91  1  0
 88 90  1  0
 89 87  2  0
 92 67  1  0
 92 93  1  0
 94 92  1  0
M  ISO  4  14 101  15 101  57 100  65 100
M  END
>  <TORSDO>  (19) 
F 22

>  <SCORE>  (19) 
-9.159

>  <name>  (19) 
18

>  <ligand_id>  (19) 
18

>  <original_smiles>  (19) 
[H]c1c([H])c([H])c2c(c1[H])C([H])([H])C([H])([H])C([H])([H])C2([H])N([H])C(=O)C1([H])N(C(=O)C([H])(N([H])C(=O)C([H])(N([H])C([H])([H])[H])C([H])([H])[H])C(C([H])([H])[H])(C([H])([H])[H])C([H])([H])[H])C([H])([H])c2c([H])c(OC([H])([H])C(=O)C([H])([H])N([H])c3sc(C([H])([H])N([H])C(=O)N4C([H])([H])C([H])([H])C([H])([H])C([H])(n5nc(-c6c([H])c([H])c(Oc7c([H])c([H])c(F)c([H])c7F)c([H])c6[H])c(C(=O)N([H])[H])c5N([H])[H])C4([H])[H])c(C(=O)C([H])([H])[H])c3[H])c([H])c([H])c2C1([H])[H]

>  <smiles>  (19) 
[H]c1c([H])c([H])c2c(c1[H])C([H])([H])C([H])([H])C([H])([H])C2([H])N([H])C(=O)C1([H])N(C(=O)C([H])(N([H])C(=O)C([H])(N([H])C([H])([H])[H])C([H])([H])[H])C(C([H])([H])[H])(C([H])([H])[H])C([H])([H])[H])C([H])([H])c2c([H])c(OC([H])([H])C(=O)C([H])([H])N([H])c3sc(C([H])([H])N([H])C(=O)N4C([H])([H])C([H])([H])C([H])([H])C([H])(n5nc(-c6c([H])c([H])c(Oc7c([H])c([H])c(F)c([H])c7F)c([H])c6[H])c(C(=O)N([H])[H])c5N([H])[H])C4([H])[H])c(C(=O)C([H])([H])[H])c3[H])c([H])c([H])c2C1([H])[H]

$$$$
19:0:0
     RDKit          3D

 99107  0  0  1  0  0  0  0  0999 V2000
  -29.6790  -21.2210   19.6940 C   0  0  0  0  0  0  0  0  0  0  0  0
  -30.4040  -20.6270   20.6620 N   0  0  0  0  0  0  0  0  0  0  0  0
  -29.4960  -20.7050   18.5880 O   0  0  0  0  0  0  0  0  0  0  0  0
  -30.5720  -21.1820   21.4900 H   0  0  0  0  0  0  0  0  0  0  0  0
  -30.5360  -18.1590   20.3740 C   0  0  0  0  0  3  0  0  0  0  0  0
  -32.7080  -17.0720   20.2150 C   0  0  0  0  0  3  0  0  0  0  0  0
  -32.5860  -19.4870   20.6120 C   0  0  0  0  0  0  0  0  0  0  0  0
  -31.3010  -16.9860   20.1890 C   0  0  0  0  0  0  0  0  0  0  0  0
  -31.1670  -19.4210   20.5460 C   0  0  0  0  0  0  0  0  0  0  0  0
  -33.3490  -18.3060   20.4230 C   0  0  0  0  0  0  0  0  0  0  0  0
  -35.0800  -18.3270   20.4170 Cl  0  0  0  0  0  0  0  0  0  0  0  0
  -31.2210  -14.6470   19.4260 C   0  0  0  0  0  0  0  0  0  0  0  0
  -30.8820  -12.2930   18.7640 C   0  0  0  0  0  2  0  0  0  0  0  0
  -29.8540  -12.1730   17.6210 C   0  0  0  0  0  2  0  0  0  0  0  0
  -28.4230  -12.0990   18.1830 C   0  0  0  0  0  2  0  0  0  0  0  0
  -28.1320  -13.2130   19.2230 C   0  0  0  0  0  3  0  0  0  0  0  0
  -29.2610  -13.2950   20.2740 C   0  0  0  0  0  2  0  0  0  0  0  0
  -30.5380  -13.4790   19.5610 N   0  0  0  0  0  0  0  0  0  0  0  0
  -32.2520  -14.7460   18.7510 O   0  0  0  0  0  0  0  0  0  0  0  0
  -30.6680  -15.7240   20.0130 N   0  0  0  0  0  0  0  0  0  0  0  0
  -29.7370  -15.6130   20.3890 H   0  0  0  0  0  0  0  0  0  0  0  0
  -25.9050  -13.9850   20.2560 C   0  0  0  0  0  0  0  0  0  0  0  0
  -24.8180  -13.2870   20.7100 C   0  0  0  0  0  0  0  0  0  0  0  0
  -25.1390  -11.9050   20.5440 C   0  0  0  0  0  0  0  0  0  0  0  0
  -26.8230  -13.0310   19.8470 N   0  0  0  0  0  0  0  0  0  0  0  0
  -26.3740  -11.7710   20.0770 N   0  0  0  0  0  0  0  0  0  0  0  0
  -24.3230  -10.7010   20.7500 C   0  0  0  0  0  0  0  0  0  0  0  0
  -24.6480   -9.7510   21.7420 C   0  0  0  0  0  3  0  0  0  0  0  0
  -23.8380   -8.6100   21.9320 C   0  0  0  0  0  3  0  0  0  0  0  0
  -22.6890   -8.4130   21.1290 C   0  0  0  0  0  0  0  0  0  0  0  0
  -22.3850   -9.3520   20.1270 C   0  0  0  0  0  3  0  0  0  0  0  0
  -23.1950  -10.4840   19.9350 C   0  0  0  0  0  3  0  0  0  0  0  0
  -21.8580   -7.3230   21.2240 O   0  0  0  0  0  0  0  0  0  0  0  0
  -21.5410   -6.7620   22.4360 C   0  0  0  0  0  0  0  0  0  0  0  0
  -20.8730   -7.4930   23.4420 C   0  0  0  0  0  3  0  0  0  0  0  0
  -20.5050   -6.8590   24.6450 C   0  0  0  0  0  3  0  0  0  0  0  0
  -20.7960   -5.4950   24.8420 C   0  0  0  0  0  0  0  0  0  0  0  0
  -21.4560   -4.7650   23.8380 C   0  0  0  0  0  3  0  0  0  0  0  0
  -21.8260   -5.3970   22.6370 C   0  0  0  0  0  0  0  0  0  0  0  0
  -22.4430   -4.6840   21.6650 F   0  0  0  0  0  0  0  0  0  0  0  0
  -20.4350   -4.8830   25.9950 F   0  0  0  0  0  0  0  0  0  0  0  0
  -23.5150  -13.8650   21.1820 C   0  0  0  0  0  0  0  0  0  0  0  0
  -22.8400  -13.1870   22.1030 N   0  0  0  0  0  0  0  0  0  0  0  0
  -23.1110  -14.9520   20.7690 O   0  0  0  0  0  0  0  0  0  0  0  0
  -23.1820  -12.3040   22.4550 H   0  0  0  0  0  0  0  0  0  0  0  0
  -21.9710  -13.5570   22.4620 H   0  0  0  0  0  0  0  0  0  0  0  0
  -26.1830  -15.3430   20.1370 N   0  0  0  0  0  0  0  0  0  0  0  0
  -25.5070  -16.0630   20.3690 H   0  0  0  0  0  0  0  0  0  0  0  0
  -27.0270  -15.7150   19.7200 H   0  0  0  0  0  0  0  0  0  0  0  0
  -33.5970  -21.5890   19.5720 C   0  0  0  0  0  1  0  0  0  0  0  0
  -33.3000  -20.8170   20.8630 C   0  0  0  0  0  2  0  0  0  0  0  0
  -29.1170  -22.6380   19.9710 C   0  0  0  0  0  2  0  0  0  0  0  0
  -26.8650  -22.5790   21.1450 C   0  0  0  0  0  1  0  0  0  0  0  0
  -26.9570  -21.8970   18.7470 C   0  0  0  0  0  1  0  0  0  0  0  0
  -27.5740  -22.8610   19.8030 C   0  0  2  0  0  0  0  0  0  0  0  0
  -27.3240  -24.3220   19.2980 C   0  0  0  0  0  0  0  0  0  0  0  0
  -27.0450  -24.5260   18.1110 O   0  0  0  0  0  0  0  0  0  0  0  0
  -27.4640  -25.5180   20.2700 C   0  0  0  0  0  2  0  0  0  0  0  0
  -27.5440  -26.7970   19.5910 O   0  0  0  0  0  0  0  0  0  0  0  0
  -24.4240  -31.9730   23.3640 C   0  0  0  0  0  0  0  0  0  0  0  0
  -26.4440  -27.6120   19.7480 C   0  0  0  0  0  0  0  0  0  0  0  0
  -22.9680  -30.7530   21.7840 C   0  0  0  0  0  3  0  0  0  0  0  0
  -24.1660  -29.2480   20.1060 C   0  0  0  0  0  0  0  0  0  0  0  0
  -25.4780  -30.9910   21.3290 C   0  0  0  0  0  2  0  0  0  0  0  0
  -25.4130  -29.6690   20.5900 C   0  0  0  0  0  0  0  0  0  0  0  0
  -26.5590  -28.8590   20.4040 C   0  0  0  0  0  3  0  0  0  0  0  0
  -25.1840  -27.2080   19.2600 C   0  0  0  0  0  3  0  0  0  0  0  0
  -24.0460  -28.0180   19.4380 C   0  0  0  0  0  3  0  0  0  0  0  0
  -22.9860  -30.1600   20.3480 C   0  0  0  0  0  2  0  0  0  0  0  0
  -24.3140  -31.2500   22.2150 N   0  0  0  0  0  0  0  0  0  0  0  0
  -23.4250  -32.2650   24.0380 O   0  0  0  0  0  0  0  0  0  0  0  0
  -22.3670  -29.7040   22.7450 C   0  0  0  0  0  0  0  0  0  0  0  0
  -21.0550  -29.4490   22.6070 N   0  0  0  0  0  0  0  0  0  0  0  0
  -23.0770  -29.1180   23.5690 O   0  0  0  0  0  0  0  0  0  0  0  0
  -20.5440  -29.9730   21.9100 H   0  0  0  0  0  0  0  0  0  0  0  0
  -17.7900  -27.9410   22.9570 C   0  0  0  0  0  0  0  0  0  0  0  0
  -20.2840  -28.4720   23.3740 C   0  0  0  0  0  3  0  0  0  0  0  0
  -20.5680  -27.0340   22.8870 C   0  0  0  0  0  2  0  0  0  0  0  0
  -19.5750  -26.5530   21.8230 C   0  0  0  0  0  2  0  0  0  0  0  0
  -18.1440  -26.5860   22.3680 C   0  0  0  0  0  2  0  0  0  0  0  0
  -18.7960  -28.8330   23.4150 C   0  0  0  0  0  0  0  0  0  0  0  0
  -18.4180  -30.0950   23.9210 C   0  0  0  0  0  3  0  0  0  0  0  0
  -17.0620  -30.4710   23.9760 C   0  0  0  0  0  3  0  0  0  0  0  0
  -16.0690  -29.5790   23.5360 C   0  0  0  0  0  3  0  0  0  0  0  0
  -16.4320  -28.3170   23.0320 C   0  0  0  0  0  3  0  0  0  0  0  0
  -25.8040  -32.4920   23.8750 C   0  0  0  0  0  3  0  0  0  0  0  0
  -25.6410  -33.9070   24.2300 N   0  0  0  0  0  0  0  0  0  0  0  0
  -26.0140  -34.9340   23.4560 C   0  0  0  0  0  0  0  0  0  0  0  0
  -26.6010  -34.7840   22.3820 O   0  0  0  0  0  0  0  0  0  0  0  0
  -25.1030  -34.1060   25.0600 H   0  0  0  0  0  0  0  0  0  0  0  0
  -24.4220  -36.8710   23.2350 C   0  0  0  0  0  1  0  0  0  0  0  0
  -25.6790  -36.3550   23.9540 C   0  0  0  0  0  3  0  0  0  0  0  0
  -27.9340  -37.0460   24.6350 C   0  0  0  0  0  1  0  0  0  0  0  0
  -26.7880  -37.3170   23.7720 N   0  0  0  0  0  0  0  0  0  0  0  0
  -26.4750  -38.2680   23.9460 H   0  0  0  0  0  0  0  0  0  0  0  0
  -26.3670  -31.6690   25.0980 C   0  0  1  0  0  0  0  0  0  0  0  0
  -25.3350  -31.4610   26.2290 C   0  0  0  0  0  1  0  0  0  0  0  0
  -26.8560  -30.2750   24.6420 C   0  0  0  0  0  1  0  0  0  0  0  0
  -27.5910  -32.3990   25.7000 C   0  0  0  0  0  1  0  0  0  0  0  0
  1 52  1  0
  1  2  1  0
  2  4  1  0
  3  1  2  0
  5  9  1  0
  6 10  2  0
  7 51  1  0
  8  6  1  0
  8  5  2  0
  9  7  2  0
  9  2  1  0
 10  7  1  0
 11 10  1  0
 12 18  1  0
 12 20  1  0
 13 18  1  0
 14 15  1  0
 14 13  1  0
 16 15  1  0
 16 25  1  0
 16 17  1  0
 18 17  1  0
 19 12  2  0
 20  8  1  0
 20 21  1  0
 22 23  2  0
 23 42  1  0
 24 23  1  0
 24 27  1  0
 25 26  1  0
 25 22  1  0
 26 24  2  0
 27 28  1  0
 28 29  2  0
 30 33  1  0
 30 29  1  0
 31 30  2  0
 32 31  1  0
 32 27  2  0
 33 34  1  0
 34 39  2  0
 34 35  1  0
 35 36  2  0
 36 37  1  0
 37 41  1  0
 38 37  2  0
 39 38  1  0
 40 39  1  0
 42 43  1  0
 43 45  1  0
 43 46  1  0
 44 42  2  0
 47 22  1  0
 47 48  1  0
 49 47  1  0
 50 51  1  0
 55 54  1  6
 55 52  1  0
 55 53  1  0
 56 55  1  0
 56 58  1  0
 57 56  2  0
 59 61  1  0
 59 58  1  0
 60 71  2  0
 61 66  1  0
 62 70  1  0
 62 72  1  0
 63 69  1  0
 63 65  1  0
 64 70  1  0
 65 64  1  0
 66 65  2  0
 67 68  1  0
 67 61  2  0
 68 63  2  0
 69 62  1  0
 70 60  1  0
 72 74  2  0
 73 72  1  0
 75 73  1  0
 76 85  2  0
 76 81  1  0
 77 73  1  0
 77 81  1  0
 78 77  1  0
 79 80  1  0
 79 78  1  0
 80 76  1  0
 81 82  2  0
 82 83  1  0
 84 83  2  0
 85 84  1  0
 86 60  1  0
 86 87  1  0
 86 96  1  0
 87 90  1  0
 88 92  1  0
 88 87  1  0
 89 88  2  0
 92 91  1  0
 94 95  1  0
 94 92  1  0
 94 93  1  0
 96 99  1  1
 96 97  1  0
 98 96  1  0
M  ISO  4  12 100  20 100  58 101  59 101
M  END
>  <TORSDO>  (20) 
F 22

>  <SCORE>  (20) 
-11.412

>  <name>  (20) 
19

>  <ligand_id>  (20) 
19

>  <original_smiles>  (20) 
[H]c1c([H])c([H])c2c(c1[H])C([H])([H])C([H])([H])C([H])([H])C2([H])N([H])C(=O)C1([H])N(C(=O)C([H])(N([H])C(=O)C([H])(N([H])C([H])([H])[H])C([H])([H])[H])C(C([H])([H])[H])(C([H])([H])[H])C([H])([H])[H])C([H])([H])c2c([H])c(OC([H])([H])C(=O)C(C([H])([H])[H])(C([H])([H])[H])C([H])([H])C(=O)N([H])c3c([H])c(N([H])C(=O)N4C([H])([H])C([H])([H])C([H])([H])C([H])(n5nc(-c6c([H])c([H])c(Oc7c([H])c([H])c(F)c([H])c7F)c([H])c6[H])c(C(=O)N([H])[H])c5N([H])[H])C4([H])[H])c([H])c(Cl)c3C([H])([H])C([H])([H])[H])c([H])c([H])c2C1([H])[H]

>  <smiles>  (20) 
[H]c1c([H])c([H])c2c(c1[H])C([H])([H])C([H])([H])C([H])([H])C2([H])N([H])C(=O)C1([H])N(C(=O)C([H])(N([H])C(=O)C([H])(N([H])C([H])([H])[H])C([H])([H])[H])C(C([H])([H])[H])(C([H])([H])[H])C([H])([H])[H])C([H])([H])c2c([H])c(OC([H])([H])C(=O)C(C([H])([H])[H])(C([H])([H])[H])C([H])([H])C(=O)N([H])c3c([H])c(N([H])C(=O)N4C([H])([H])C([H])([H])C([H])([H])C([H])(n5nc(-c6c([H])c([H])c(Oc7c([H])c([H])c(F)c([H])c7F)c([H])c6[H])c(C(=O)N([H])[H])c5N([H])[H])C4([H])[H])c([H])c(Cl)c3C([H])([H])C([H])([H])[H])c([H])c([H])c2C1([H])[H]

$$$$
20:0:0
     RDKit          3D

 98106  0  0  1  0  0  0  0  0999 V2000
  -31.8830  -21.8440   20.9730 C   0  0  0  0  0  1  0  0  0  0  0  0
  -30.4560  -21.3460   20.6410 C   0  0  0  0  0  3  0  0  0  0  0  0
  -31.5590  -19.0470   20.2350 C   0  0  0  0  0  3  0  0  0  0  0  0
  -31.5610  -17.6320   20.2540 C   0  0  0  0  0  3  0  0  0  0  0  0
  -30.3940  -19.8000   20.5370 C   0  0  0  0  0  0  0  0  0  0  0  0
  -30.3800  -16.9180   20.5660 C   0  0  0  0  0  0  0  0  0  0  0  0
  -29.2000  -19.0760   20.8020 C   0  0  0  0  0  0  0  0  0  0  0  0
  -29.2030  -17.6580   20.8110 C   0  0  0  0  0  0  0  0  0  0  0  0
  -28.0500  -16.9940   21.0750 F   0  0  0  0  0  0  0  0  0  0  0  0
  -30.9520  -14.5120   19.9940 C   0  0  0  0  0  0  0  0  0  0  0  0
  -30.6140  -12.3430   18.8650 C   0  0  0  0  0  2  0  0  0  0  0  0
  -29.6300  -12.5520   17.6940 C   0  0  0  0  0  2  0  0  0  0  0  0
  -28.1680  -12.4410   18.1740 C   0  0  0  0  0  2  0  0  0  0  0  0
  -27.8890  -13.2890   19.4440 C   0  0  0  0  0  3  0  0  0  0  0  0
  -28.9750  -13.0350   20.5150 C   0  0  0  0  0  2  0  0  0  0  0  0
  -30.2860  -13.3270   19.9080 N   0  0  0  0  0  0  0  0  0  0  0  0
  -32.0520  -14.6970   19.4650 O   0  0  0  0  0  0  0  0  0  0  0  0
  -30.2670  -15.4890   20.6230 N   0  0  0  0  0  0  0  0  0  0  0  0
  -29.4470  -15.1670   21.1150 H   0  0  0  0  0  0  0  0  0  0  0  0
  -25.5250  -13.9500   20.2230 C   0  0  0  0  0  0  0  0  0  0  0  0
  -24.4560  -13.2010   20.6320 C   0  0  0  0  0  0  0  0  0  0  0  0
  -24.8890  -11.8410   20.5960 C   0  0  0  0  0  0  0  0  0  0  0  0
  -26.5460  -13.0470   19.9660 N   0  0  0  0  0  0  0  0  0  0  0  0
  -26.1660  -11.7730   20.2460 N   0  0  0  0  0  0  0  0  0  0  0  0
  -24.1450  -10.5950   20.8190 C   0  0  0  0  0  0  0  0  0  0  0  0
  -24.5560   -9.6540   21.7890 C   0  0  0  0  0  3  0  0  0  0  0  0
  -23.8140   -8.4700   21.9970 C   0  0  0  0  0  3  0  0  0  0  0  0
  -22.6480   -8.2210   21.2360 C   0  0  0  0  0  0  0  0  0  0  0  0
  -22.2570   -9.1500   20.2570 C   0  0  0  0  0  3  0  0  0  0  0  0
  -22.9990  -10.3240   20.0460 C   0  0  0  0  0  3  0  0  0  0  0  0
  -21.8800   -7.0870   21.3520 O   0  0  0  0  0  0  0  0  0  0  0  0
  -21.7580   -6.4190   22.5430 C   0  0  0  0  0  0  0  0  0  0  0  0
  -21.2870   -7.0580   23.7110 C   0  0  0  0  0  3  0  0  0  0  0  0
  -21.1110   -6.3160   24.8960 C   0  0  0  0  0  3  0  0  0  0  0  0
  -21.3960   -4.9380   24.9150 C   0  0  0  0  0  0  0  0  0  0  0  0
  -21.8600   -4.2990   23.7520 C   0  0  0  0  0  3  0  0  0  0  0  0
  -22.0380   -5.0380   22.5680 C   0  0  0  0  0  0  0  0  0  0  0  0
  -22.4650   -4.4140   21.4440 F   0  0  0  0  0  0  0  0  0  0  0  0
  -21.2200   -4.2240   26.0510 F   0  0  0  0  0  0  0  0  0  0  0  0
  -23.0770  -13.7080   20.9500 C   0  0  0  0  0  0  0  0  0  0  0  0
  -22.3800  -13.0500   21.8690 N   0  0  0  0  0  0  0  0  0  0  0  0
  -22.6310  -14.7230   20.4170 O   0  0  0  0  0  0  0  0  0  0  0  0
  -22.7550  -12.2290   22.3210 H   0  0  0  0  0  0  0  0  0  0  0  0
  -21.4570  -13.3730   22.1250 H   0  0  0  0  0  0  0  0  0  0  0  0
  -25.7120  -15.3150   20.0300 N   0  0  0  0  0  0  0  0  0  0  0  0
  -24.9680  -15.9900   20.1760 H   0  0  0  0  0  0  0  0  0  0  0  0
  -26.5710  -15.7390   19.7020 H   0  0  0  0  0  0  0  0  0  0  0  0
  -27.9910  -19.7270   21.0670 N   0  0  0  0  0  0  0  0  0  0  0  0
  -28.0190  -20.4420   21.7850 H   0  0  0  0  0  0  0  0  0  0  0  0
  -27.2440  -19.0720   21.2850 H   0  0  0  0  0  0  0  0  0  0  0  0
  -29.8480  -22.0390   19.4640 N   0  0  0  0  0  4  0  0  0  0  0  0
  -30.3330  -21.7360   18.6350 H   0  0  0  0  0  0  0  0  0  0  0  0
  -28.8980  -21.7080   19.3950 H   0  0  0  0  0  0  0  0  0  0  0  0
  -29.8420  -23.5360   19.5130 C   0  0  0  0  0  2  0  0  0  0  0  0
  -28.9080  -24.2290   18.4760 C   0  0  0  0  0  2  0  0  0  0  0  0
  -28.8820  -26.2640   16.8360 C   0  0  0  0  0  1  0  0  0  0  0  0
  -29.2220  -25.7430   18.2480 C   0  0  0  0  0  3  0  0  0  0  0  0
  -28.8330  -26.6430   19.3040 O   0  0  0  0  0  0  0  0  0  0  0  0
  -24.7220  -31.2010   22.8990 C   0  0  0  0  0  0  0  0  0  0  0  0
  -27.5980  -27.2640   19.3510 C   0  0  0  0  0  0  0  0  0  0  0  0
  -23.5950  -29.9520   21.0860 C   0  0  0  0  0  3  0  0  0  0  0  0
  -25.1270  -28.6490   19.5160 C   0  0  0  0  0  0  0  0  0  0  0  0
  -26.1030  -30.4340   20.9700 C   0  0  0  0  0  2  0  0  0  0  0  0
  -26.2540  -29.1500   20.1780 C   0  0  0  0  0  0  0  0  0  0  0  0
  -27.4850  -28.4620   20.0980 C   0  0  0  0  0  3  0  0  0  0  0  0
  -26.4420  -26.7600   18.7140 C   0  0  0  0  0  3  0  0  0  0  0  0
  -25.2160  -27.4510   18.7860 C   0  0  0  0  0  3  0  0  0  0  0  0
  -23.8480  -29.4450   19.6410 C   0  0  0  0  0  2  0  0  0  0  0  0
  -24.8240  -30.5380   21.7110 N   0  0  0  0  0  0  0  0  0  0  0  0
  -23.6240  -31.3620   23.4510 O   0  0  0  0  0  0  0  0  0  0  0  0
  -22.9790  -28.7990   21.9110 C   0  0  0  0  0  0  0  0  0  0  0  0
  -21.6560  -28.6080   21.7790 N   0  0  0  0  0  0  0  0  0  0  0  0
  -23.6870  -28.0850   22.6250 O   0  0  0  0  0  0  0  0  0  0  0  0
  -21.1450  -29.2420   21.1810 H   0  0  0  0  0  0  0  0  0  0  0  0
  -18.3080  -27.3140   22.1840 C   0  0  0  0  0  0  0  0  0  0  0  0
  -20.8690  -27.5600   22.4270 C   0  0  0  0  0  3  0  0  0  0  0  0
  -20.9690  -26.2280   21.6490 C   0  0  0  0  0  2  0  0  0  0  0  0
  -19.8450  -26.0400   20.6260 C   0  0  0  0  0  2  0  0  0  0  0  0
  -18.4780  -26.0750   21.3180 C   0  0  0  0  0  2  0  0  0  0  0  0
  -19.4310  -28.0190   22.6920 C   0  0  0  0  0  0  0  0  0  0  0  0
  -19.2180  -29.1830   23.4620 C   0  0  0  0  0  3  0  0  0  0  0  0
  -17.9140  -29.6410   23.7290 C   0  0  0  0  0  3  0  0  0  0  0  0
  -16.8060  -28.9300   23.2370 C   0  0  0  0  0  3  0  0  0  0  0  0
  -17.0030  -27.7670   22.4710 C   0  0  0  0  0  3  0  0  0  0  0  0
  -25.9730  -31.8070   23.6090 C   0  0  0  0  0  3  0  0  0  0  0  0
  -25.6000  -33.1380   24.1050 N   0  0  0  0  0  0  0  0  0  0  0  0
  -25.9180  -34.2910   23.5010 C   0  0  0  0  0  0  0  0  0  0  0  0
  -26.6270  -34.3460   22.4930 O   0  0  0  0  0  0  0  0  0  0  0  0
  -24.9730  -33.1670   24.8950 H   0  0  0  0  0  0  0  0  0  0  0  0
  -24.1340  -36.0530   23.3090 C   0  0  0  0  0  1  0  0  0  0  0  0
  -25.3590  -35.5900   24.1130 C   0  0  0  0  0  3  0  0  0  0  0  0
  -27.4240  -36.4310   25.1420 C   0  0  0  0  0  1  0  0  0  0  0  0
  -26.3540  -36.6820   24.1810 N   0  0  0  0  0  0  0  0  0  0  0  0
  -25.9060  -37.5610   24.4280 H   0  0  0  0  0  0  0  0  0  0  0  0
  -26.5190  -30.9060   24.7840 C   0  0  1  0  0  0  0  0  0  0  0  0
  -25.4350  -30.4950   25.8070 C   0  0  0  0  0  1  0  0  0  0  0  0
  -27.1610  -29.6140   24.2280 C   0  0  0  0  0  1  0  0  0  0  0  0
  -27.6340  -31.6600   25.5480 C   0  0  0  0  0  1  0  0  0  0  0  0
  2  1  1  0
  3  4  2  0
  3  5  1  0
  4  6  1  0
  5  2  1  0
  5  7  2  0
  6 18  1  0
  6  8  2  0
  7  8  1  0
  7 48  1  0
  8  9  1  0
 10 18  1  0
 11 16  1  0
 12 13  1  0
 12 11  1  0
 14 13  1  0
 14 23  1  0
 14 15  1  0
 16 10  1  0
 16 15  1  0
 17 10  2  0
 18 19  1  0
 20 21  2  0
 21 40  1  0
 22 21  1  0
 22 25  1  0
 23 20  1  0
 23 24  1  0
 24 22  2  0
 25 26  1  0
 26 27  2  0
 28 31  1  0
 28 27  1  0
 29 28  2  0
 30 29  1  0
 30 25  2  0
 31 32  1  0
 32 37  2  0
 32 33  1  0
 33 34  2  0
 34 35  1  0
 35 39  1  0
 36 35  2  0
 37 36  1  0
 38 37  1  0
 40 41  1  0
 41 44  1  0
 41 43  1  0
 42 40  2  0
 45 46  1  0
 45 20  1  0
 47 45  1  0
 48 50  1  0
 48 49  1  0
 51 54  1  0
 51  2  1  0
 52 51  1  0
 53 51  1  0
 55 54  1  0
 57 56  1  0
 57 55  1  0
 57 58  1  0
 58 60  1  0
 59 70  2  0
 60 65  1  0
 61 69  1  0
 61 71  1  0
 62 68  1  0
 62 64  1  0
 63 69  1  0
 64 63  1  0
 65 64  2  0
 66 67  1  0
 66 60  2  0
 67 62  2  0
 68 61  1  0
 69 59  1  0
 71 73  2  0
 72 71  1  0
 74 72  1  0
 75 84  2  0
 75 80  1  0
 76 72  1  0
 76 80  1  0
 77 76  1  0
 78 79  1  0
 78 77  1  0
 79 75  1  0
 80 81  2  0
 81 82  1  0
 83 82  2  0
 84 83  1  0
 85 59  1  0
 85 86  1  0
 85 95  1  0
 86 89  1  0
 87 86  1  0
 87 91  1  0
 88 87  2  0
 91 90  1  0
 91 93  1  0
 93 94  1  0
 93 92  1  0
 95 98  1  1
 95 96  1  0
 97 95  1  0
M  ISO  4  10 100  18 100  57 101  58 101
M  END
>  <TORSDO>  (21) 
F 22

>  <SCORE>  (21) 
-11.444

>  <name>  (21) 
20

>  <ligand_id>  (21) 
20

>  <original_smiles>  (21) 
[H]c1c([H])c([H])c2c(c1[H])C([H])([H])C([H])([H])C([H])([H])C2([H])N([H])C(=O)C1([H])N(C(=O)C([H])(N([H])C(=O)C([H])(N([H])C([H])([H])[H])C([H])([H])[H])C(C([H])([H])[H])(C([H])([H])[H])C([H])([H])[H])C([H])([H])c2c([H])c(OC([H])(C([H])([H])[H])C([H])([H])C([H])([H])[N+]([H])([H])C([H])(c3c([H])c([H])c(N([H])C(=O)N4C([H])([H])C([H])([H])C([H])([H])C([H])(n5nc(-c6c([H])c([H])c(Oc7c([H])c([H])c(F)c([H])c7F)c([H])c6[H])c(C(=O)N([H])[H])c5N([H])[H])C4([H])[H])c(F)c3N([H])[H])C([H])([H])[H])c([H])c([H])c2C1([H])[H]

>  <smiles>  (21) 
[H]c1c([H])c([H])c2c(c1[H])C([H])([H])C([H])([H])C([H])([H])C2([H])N([H])C(=O)C1([H])N(C(=O)C([H])(N([H])C(=O)C([H])(N([H])C([H])([H])[H])C([H])([H])[H])C(C([H])([H])[H])(C([H])([H])[H])C([H])([H])[H])C([H])([H])c2c([H])c(OC([H])(C([H])([H])[H])C([H])([H])C([H])([H])[N+]([H])([H])C([H])(c3c([H])c([H])c(N([H])C(=O)N4C([H])([H])C([H])([H])C([H])([H])C([H])(n5nc(-c6c([H])c([H])c(Oc7c([H])c([H])c(F)c([H])c7F)c([H])c6[H])c(C(=O)N([H])[H])c5N([H])[H])C4([H])[H])c(F)c3N([H])[H])C([H])([H])[H])c([H])c([H])c2C1([H])[H]

$$$$
21:0:0
     RDKit          3D

 95104  0  0  1  0  0  0  0  0999 V2000
  -29.8140  -21.7160   18.8540 C   0  0  0  0  0  2  0  0  0  0  0  0
  -29.7830  -22.1570   21.3020 C   0  0  0  0  0  2  0  0  0  0  0  0
  -29.1610  -23.0900   18.5770 C   0  0  0  0  0  2  0  0  0  0  0  0
  -29.1420  -23.5560   21.0680 C   0  0  0  0  0  2  0  0  0  0  0  0
  -29.3440  -21.1610   20.2090 C   0  0  0  0  0  3  0  0  0  0  0  0
  -29.4090  -24.1830   19.6620 C   0  0  1  0  0  0  0  0  0  0  0  0
  -28.6120  -18.8350   20.9390 C   0  0  0  0  0  3  0  0  0  0  0  0
  -28.7890  -17.4440   21.0900 C   0  0  0  0  0  3  0  0  0  0  0  0
  -31.0850  -17.6560   20.3470 C   0  0  0  0  0  3  0  0  0  0  0  0
  -29.6550  -19.6660   20.4680 C   0  0  0  0  0  0  0  0  0  0  0  0
  -30.0150  -16.8240   20.7650 C   0  0  0  0  0  0  0  0  0  0  0  0
  -30.9100  -19.0590   20.2040 C   0  0  0  0  0  0  0  0  0  0  0  0
  -31.9610  -19.8100   19.7950 F   0  0  0  0  0  0  0  0  0  0  0  0
  -30.6800  -14.4800   20.1080 C   0  0  0  0  0  0  0  0  0  0  0  0
  -30.3020  -12.3640   18.8840 C   0  0  0  0  0  2  0  0  0  0  0  0
  -29.2780  -12.6140   17.7570 C   0  0  0  0  0  2  0  0  0  0  0  0
  -27.8350  -12.4690   18.2780 C   0  0  0  0  0  2  0  0  0  0  0  0
  -27.5920  -13.2530   19.5950 C   0  0  0  0  0  3  0  0  0  0  0  0
  -28.7170  -12.9720   20.6180 C   0  0  0  0  0  2  0  0  0  0  0  0
  -30.0090  -13.2990   19.9820 N   0  0  0  0  0  0  0  0  0  0  0  0
  -31.7360  -14.7120   19.5110 O   0  0  0  0  0  0  0  0  0  0  0  0
  -30.0720  -15.3940   20.8930 N   0  0  0  0  0  0  0  0  0  0  0  0
  -29.3100  -14.9930   21.4170 H   0  0  0  0  0  0  0  0  0  0  0  0
  -25.2520  -13.8500   20.4860 C   0  0  0  0  0  0  0  0  0  0  0  0
  -24.2020  -13.0720   20.8960 C   0  0  0  0  0  0  0  0  0  0  0  0
  -24.6440  -11.7190   20.7790 C   0  0  0  0  0  0  0  0  0  0  0  0
  -26.2690  -12.9700   20.1510 N   0  0  0  0  0  0  0  0  0  0  0  0
  -25.9100  -11.6810   20.3810 N   0  0  0  0  0  0  0  0  0  0  0  0
  -23.9200  -10.4560   20.9690 C   0  0  0  0  0  0  0  0  0  0  0  0
  -24.3650   -9.4790   21.8870 C   0  0  0  0  0  3  0  0  0  0  0  0
  -23.6410   -8.2810   22.0660 C   0  0  0  0  0  3  0  0  0  0  0  0
  -22.4560   -8.0510   21.3260 C   0  0  0  0  0  0  0  0  0  0  0  0
  -22.0280   -9.0160   20.3980 C   0  0  0  0  0  3  0  0  0  0  0  0
  -22.7540  -10.2060   20.2170 C   0  0  0  0  0  3  0  0  0  0  0  0
  -21.7030   -6.9050   21.4140 O   0  0  0  0  0  0  0  0  0  0  0  0
  -21.6160   -6.1880   22.5810 C   0  0  0  0  0  0  0  0  0  0  0  0
  -21.1180   -6.7600   23.7710 C   0  0  0  0  0  3  0  0  0  0  0  0
  -20.9800   -5.9690   24.9280 C   0  0  0  0  0  3  0  0  0  0  0  0
  -21.3290   -4.6050   24.8970 C   0  0  0  0  0  0  0  0  0  0  0  0
  -21.8200   -4.0320   23.7100 C   0  0  0  0  0  3  0  0  0  0  0  0
  -21.9600   -4.8210   22.5550 C   0  0  0  0  0  0  0  0  0  0  0  0
  -22.4120   -4.2590   21.4080 F   0  0  0  0  0  0  0  0  0  0  0  0
  -21.1900   -3.8430   26.0060 F   0  0  0  0  0  0  0  0  0  0  0  0
  -22.8320  -13.5490   21.2830 C   0  0  0  0  0  0  0  0  0  0  0  0
  -22.1580  -12.8280   22.1720 N   0  0  0  0  0  0  0  0  0  0  0  0
  -22.3700  -14.5970   20.8320 O   0  0  0  0  0  0  0  0  0  0  0  0
  -22.5460  -11.9800   22.5580 H   0  0  0  0  0  0  0  0  0  0  0  0
  -21.2430  -13.1300   22.4700 H   0  0  0  0  0  0  0  0  0  0  0  0
  -25.4210  -15.2240   20.3530 N   0  0  0  0  0  0  0  0  0  0  0  0
  -24.6700  -15.8830   20.5360 H   0  0  0  0  0  0  0  0  0  0  0  0
  -26.2490  -15.6650   19.9730 H   0  0  0  0  0  0  0  0  0  0  0  0
  -31.3580  -25.5030   20.3150 C   0  0  0  0  0  1  0  0  0  0  0  0
  -30.7840  -24.5240   19.4580 O   0  0  0  0  0  0  0  0  0  0  0  0
  -28.4250  -25.3610   19.3220 C   0  0  0  0  0  2  0  0  0  0  0  0
  -28.4130  -26.6020   20.0760 O   0  0  0  0  0  0  0  0  0  0  0  0
  -24.5570  -31.7930   23.1770 C   0  0  0  0  0  0  0  0  0  0  0  0
  -27.2480  -27.3710   20.0400 C   0  0  0  0  0  0  0  0  0  0  0  0
  -23.3750  -30.4060   21.5120 C   0  0  0  0  0  3  0  0  0  0  0  0
  -24.8480  -28.9080   20.0700 C   0  0  0  0  0  0  0  0  0  0  0  0
  -25.9080  -30.7650   21.3490 C   0  0  0  0  0  2  0  0  0  0  0  0
  -26.0030  -29.4040   20.6860 C   0  0  0  0  0  0  0  0  0  0  0  0
  -27.2000  -28.6390   20.6790 C   0  0  0  0  0  3  0  0  0  0  0  0
  -26.0660  -26.9260   19.3910 C   0  0  0  0  0  3  0  0  0  0  0  0
  -24.8760  -27.6670   19.4230 C   0  0  0  0  0  3  0  0  0  0  0  0
  -23.6010  -29.7610   20.1210 C   0  0  0  0  0  2  0  0  0  0  0  0
  -24.6310  -31.0040   22.0690 N   0  0  0  0  0  0  0  0  0  0  0  0
  -23.4690  -32.0510   23.7100 O   0  0  0  0  0  0  0  0  0  0  0  0
  -22.7240  -29.3620   22.4480 C   0  0  0  0  0  0  0  0  0  0  0  0
  -21.4040  -29.1590   22.2980 N   0  0  0  0  0  0  0  0  0  0  0  0
  -23.4040  -28.7400   23.2680 O   0  0  0  0  0  0  0  0  0  0  0  0
  -20.9160  -29.7150   21.6100 H   0  0  0  0  0  0  0  0  0  0  0  0
  -18.0420  -27.9030   22.7270 C   0  0  0  0  0  0  0  0  0  0  0  0
  -20.5900  -28.2030   23.0480 C   0  0  0  0  0  3  0  0  0  0  0  0
  -20.7290  -26.7780   22.4670 C   0  0  0  0  0  2  0  0  0  0  0  0
  -19.6510  -26.4400   21.4310 C   0  0  0  0  0  2  0  0  0  0  0  0
  -18.2550  -26.5590   22.0490 C   0  0  0  0  0  2  0  0  0  0  0  0
  -19.1400  -28.6810   23.1820 C   0  0  0  0  0  0  0  0  0  0  0  0
  -18.8890  -29.9380   23.7740 C   0  0  0  0  0  3  0  0  0  0  0  0
  -17.5730  -30.4160   23.9170 C   0  0  0  0  0  3  0  0  0  0  0  0
  -16.4900  -29.6340   23.4790 C   0  0  0  0  0  3  0  0  0  0  0  0
  -16.7250  -28.3800   22.8890 C   0  0  0  0  0  3  0  0  0  0  0  0
  -25.8330  -32.4250   23.8130 C   0  0  0  0  0  3  0  0  0  0  0  0
  -26.3490  -31.6410   25.0810 C   0  0  1  0  0  0  0  0  0  0  0  0
  -25.2510  -31.3750   26.1370 C   0  0  0  0  0  1  0  0  0  0  0  0
  -26.9520  -30.2750   24.6750 C   0  0  0  0  0  1  0  0  0  0  0  0
  -27.4850  -32.4390   25.7640 C   0  0  0  0  0  1  0  0  0  0  0  0
  -25.5090  -33.8160   24.1570 N   0  0  0  0  0  0  0  0  0  0  0  0
  -25.8220  -34.8790   23.4030 C   0  0  0  0  0  0  0  0  0  0  0  0
  -26.4850  -34.7920   22.3660 O   0  0  0  0  0  0  0  0  0  0  0  0
  -24.9190  -33.9580   24.9630 H   0  0  0  0  0  0  0  0  0  0  0  0
  -24.0640  -36.6480   23.0800 C   0  0  0  0  0  1  0  0  0  0  0  0
  -25.3190  -36.2560   23.8740 C   0  0  0  0  0  3  0  0  0  0  0  0
  -27.4470  -37.1700   24.6920 C   0  0  0  0  0  1  0  0  0  0  0  0
  -26.3350  -37.3250   23.7580 N   0  0  0  0  0  0  0  0  0  0  0  0
  -25.9160  -38.2380   23.9120 H   0  0  0  0  0  0  0  0  0  0  0  0
  1  5  1  0
  3  1  1  0
  3  6  1  0
  4  2  1  0
  5 10  1  0
  5  2  1  0
  6 54  1  6
  6  4  1  0
  7  8  1  0
  9 11  1  0
 10  7  2  0
 11 22  1  0
 11  8  2  0
 12  9  2  0
 12 10  1  0
 13 12  1  0
 14 22  1  0
 15 20  1  0
 16 17  1  0
 16 15  1  0
 18 17  1  0
 18 27  1  0
 18 19  1  0
 20 14  1  0
 20 19  1  0
 21 14  2  0
 22 23  1  0
 24 25  2  0
 25 44  1  0
 26 25  1  0
 26 29  1  0
 27 28  1  0
 27 24  1  0
 28 26  2  0
 29 30  1  0
 30 31  2  0
 32 35  1  0
 32 31  1  0
 33 32  2  0
 34 33  1  0
 34 29  2  0
 35 36  1  0
 36 37  1  0
 37 38  2  0
 39 38  1  0
 39 43  1  0
 40 39  2  0
 41 36  2  0
 41 40  1  0
 42 41  1  0
 44 45  1  0
 45 48  1  0
 45 47  1  0
 46 44  2  0
 49 24  1  0
 49 50  1  0
 51 49  1  0
 53  6  1  0
 53 52  1  0
 54 55  1  0
 56 67  2  0
 57 55  1  0
 57 62  1  0
 58 66  1  0
 58 68  1  0
 59 65  1  0
 59 61  1  0
 60 66  1  0
 61 60  1  0
 62 61  2  0
 63 64  1  0
 63 57  2  0
 64 59  2  0
 65 58  1  0
 66 56  1  0
 68 70  2  0
 69 68  1  0
 71 69  1  0
 72 81  2  0
 72 77  1  0
 73 69  1  0
 73 77  1  0
 74 73  1  0
 75 76  1  0
 75 74  1  0
 76 72  1  0
 77 78  2  0
 78 79  1  0
 80 79  2  0
 81 80  1  0
 82 56  1  0
 82 87  1  0
 82 83  1  0
 83 86  1  1
 83 84  1  0
 85 83  1  0
 87 90  1  0
 88 92  1  0
 88 87  1  0
 89 88  2  0
 92 91  1  0
 94 92  1  0
 94 95  1  0
 94 93  1  0
M  ISO  4  14 100  22 100  54 101  55 101
M  END
>  <TORSDO>  (22) 
F 19

>  <SCORE>  (22) 
-13.816

>  <name>  (22) 
21

>  <ligand_id>  (22) 
21

>  <original_smiles>  (22) 
[H]c1c([H])c([H])c2c(c1[H])C([H])([H])C([H])([H])C([H])([H])C2([H])N([H])C(=O)C1([H])N(C(=O)C([H])(N([H])C(=O)C([H])(N([H])C([H])([H])[H])C([H])([H])[H])C(C([H])([H])[H])(C([H])([H])[H])C([H])([H])[H])C([H])([H])c2c([H])c(OC([H])([H])C3(OC([H])([H])[H])C([H])([H])C([H])([H])C([H])(c4c([H])c([H])c(N([H])C(=O)N5C([H])([H])C([H])([H])C([H])([H])C([H])(n6nc(-c7c([H])c([H])c(Oc8c([H])c([H])c(F)c([H])c8F)c([H])c7[H])c(C(=O)N([H])[H])c6N([H])[H])C5([H])[H])c([H])c4F)C([H])([H])C3([H])[H])c([H])c([H])c2C1([H])[H]

>  <smiles>  (22) 
[H]c1c([H])c([H])c2c(c1[H])C([H])([H])C([H])([H])C([H])([H])C2([H])N([H])C(=O)C1([H])N(C(=O)C([H])(N([H])C(=O)C([H])(N([H])C([H])([H])[H])C([H])([H])[H])C(C([H])([H])[H])(C([H])([H])[H])C([H])([H])[H])C([H])([H])c2c([H])c(OC([H])([H])C3(OC([H])([H])[H])C([H])([H])C([H])([H])C([H])(c4c([H])c([H])c(N([H])C(=O)N5C([H])([H])C([H])([H])C([H])([H])C([H])(n6nc(-c7c([H])c([H])c(Oc8c([H])c([H])c(F)c([H])c8F)c([H])c7[H])c(C(=O)N([H])[H])c6N([H])[H])C5([H])[H])c([H])c4F)C([H])([H])C3([H])[H])c([H])c([H])c2C1([H])[H]

$$$$
22:0:0
     RDKit          3D

 94102  0  0  1  0  0  0  0  0999 V2000
  -29.7230  -21.5890   19.7540 C   0  0  0  0  0  2  0  0  0  0  0  0
  -28.7890  -22.7290   20.2020 C   0  0  0  0  0  0  0  0  0  0  0  0
  -27.7250  -22.4540   20.7710 O   0  0  0  0  0  0  0  0  0  0  0  0
  -29.1870  -24.1890   19.8930 C   0  0  0  0  0  2  0  0  0  0  0  0
  -28.6710  -25.4540   22.0910 C   0  0  0  0  0  1  0  0  0  0  0  0
  -28.3250  -25.2760   20.6000 C   0  0  0  0  0  3  0  0  0  0  0  0
  -28.4900  -26.5660   19.9780 O   0  0  0  0  0  0  0  0  0  0  0  0
  -24.6990  -31.6870   23.1660 C   0  0  0  0  0  0  0  0  0  0  0  0
  -27.3500  -27.3380   19.9760 C   0  0  0  0  0  0  0  0  0  0  0  0
  -23.5020  -30.3470   21.4660 C   0  0  0  0  0  3  0  0  0  0  0  0
  -24.9640  -28.8520   20.0050 C   0  0  0  0  0  0  0  0  0  0  0  0
  -26.0310  -30.7020   21.3060 C   0  0  0  0  0  2  0  0  0  0  0  0
  -26.1180  -29.3530   20.6210 C   0  0  0  0  0  0  0  0  0  0  0  0
  -27.3180  -28.6050   20.6030 C   0  0  0  0  0  3  0  0  0  0  0  0
  -26.1840  -26.8520   19.3480 C   0  0  0  0  0  3  0  0  0  0  0  0
  -24.9930  -27.6010   19.3630 C   0  0  0  0  0  3  0  0  0  0  0  0
  -23.7220  -29.7110   20.0680 C   0  0  0  0  0  2  0  0  0  0  0  0
  -24.7620  -30.9250   22.0380 N   0  0  0  0  0  0  0  0  0  0  0  0
  -23.6140  -31.9470   23.7040 O   0  0  0  0  0  0  0  0  0  0  0  0
  -22.8370  -29.2990   22.3860 C   0  0  0  0  0  0  0  0  0  0  0  0
  -21.5120  -29.1270   22.2390 N   0  0  0  0  0  0  0  0  0  0  0  0
  -23.5090  -28.6440   23.1870 O   0  0  0  0  0  0  0  0  0  0  0  0
  -21.0320  -29.7090   21.5670 H   0  0  0  0  0  0  0  0  0  0  0  0
  -18.1230  -27.9580   22.6800 C   0  0  0  0  0  0  0  0  0  0  0  0
  -20.6820  -28.1700   22.9690 C   0  0  0  0  0  3  0  0  0  0  0  0
  -20.7670  -26.7620   22.3330 C   0  0  0  0  0  2  0  0  0  0  0  0
  -19.6640  -26.4980   21.3040 C   0  0  0  0  0  2  0  0  0  0  0  0
  -18.2820  -26.6340   21.9510 C   0  0  0  0  0  2  0  0  0  0  0  0
  -19.2500  -28.6860   23.1450 C   0  0  0  0  0  0  0  0  0  0  0  0
  -19.0470  -29.9280   23.7860 C   0  0  0  0  0  3  0  0  0  0  0  0
  -17.7490  -30.4410   23.9660 C   0  0  0  0  0  3  0  0  0  0  0  0
  -16.6360  -29.7080   23.5190 C   0  0  0  0  0  3  0  0  0  0  0  0
  -16.8230  -28.4690   22.8820 C   0  0  0  0  0  3  0  0  0  0  0  0
  -25.9840  -32.2890   23.8180 C   0  0  0  0  0  3  0  0  0  0  0  0
  -25.6850  -33.6820   24.1760 N   0  0  0  0  0  0  0  0  0  0  0  0
  -26.0290  -34.7460   23.4400 C   0  0  0  0  0  0  0  0  0  0  0  0
  -26.7020  -34.6580   22.4090 O   0  0  0  0  0  0  0  0  0  0  0  0
  -25.0840  -33.8240   24.9740 H   0  0  0  0  0  0  0  0  0  0  0  0
  -24.3210  -36.5630   23.1090 C   0  0  0  0  0  1  0  0  0  0  0  0
  -25.5510  -36.1290   23.9240 C   0  0  0  0  0  3  0  0  0  0  0  0
  -27.6820  -36.9770   24.7990 C   0  0  0  0  0  1  0  0  0  0  0  0
  -26.5950  -37.1730   23.8430 N   0  0  0  0  0  0  0  0  0  0  0  0
  -26.1950  -38.0940   24.0000 H   0  0  0  0  0  0  0  0  0  0  0  0
  -26.4780  -31.4810   25.0800 C   0  0  1  0  0  0  0  0  0  0  0  0
  -25.3660  -31.2180   26.1220 C   0  0  0  0  0  1  0  0  0  0  0  0
  -27.0650  -30.1140   24.6590 C   0  0  0  0  0  1  0  0  0  0  0  0
  -27.6190  -32.2510   25.7840 C   0  0  0  0  0  1  0  0  0  0  0  0
  -28.9580  -20.3540   19.5860 N   0  0  0  0  0  0  0  0  0  0  0  0
  -27.9560  -20.4840   19.6980 H   0  0  0  0  0  0  0  0  0  0  0  0
  -28.8710  -16.8470   20.6880 C   0  0  0  0  0  3  0  0  0  0  0  0
  -31.1400  -17.5560   20.2520 C   0  0  0  0  0  3  0  0  0  0  0  0
  -30.2380  -16.5190   20.6040 C   0  0  0  0  0  0  0  0  0  0  0  0
  -28.4520  -18.1500   20.3700 C   0  0  0  0  0  0  0  0  0  0  0  0
  -29.4190  -19.0990   19.9940 C   0  0  0  0  0  0  0  0  0  0  0  0
  -30.7420  -18.8230   19.9520 N   0  0  0  0  0  0  0  0  0  0  0  0
  -27.1370  -18.4790   20.3960 F   0  0  0  0  0  0  0  0  0  0  0  0
  -31.0720  -14.2810   19.9430 C   0  0  0  0  0  0  0  0  0  0  0  0
  -30.7160  -12.0570   18.9250 C   0  0  0  0  0  2  0  0  0  0  0  0
  -29.7020  -12.1680   17.7680 C   0  0  0  0  0  2  0  0  0  0  0  0
  -28.2540  -12.0690   18.2860 C   0  0  0  0  0  2  0  0  0  0  0  0
  -27.9890  -13.0040   19.4940 C   0  0  0  0  0  3  0  0  0  0  0  0
  -29.0970  -12.8420   20.5580 C   0  0  0  0  0  2  0  0  0  0  0  0
  -30.4050  -13.0970   19.9180 N   0  0  0  0  0  0  0  0  0  0  0  0
  -32.0520  -14.5310   19.2360 O   0  0  0  0  0  0  0  0  0  0  0  0
  -30.6010  -15.1590   20.8430 N   0  0  0  0  0  0  0  0  0  0  0  0
  -30.0430  -14.7030   21.5490 H   0  0  0  0  0  0  0  0  0  0  0  0
  -25.6850  -13.7110   20.4120 C   0  0  0  0  0  0  0  0  0  0  0  0
  -24.6040  -12.9810   20.8300 C   0  0  0  0  0  0  0  0  0  0  0  0
  -24.9800  -11.6100   20.6980 C   0  0  0  0  0  0  0  0  0  0  0  0
  -26.6570  -12.7860   20.0590 N   0  0  0  0  0  0  0  0  0  0  0  0
  -26.2370  -11.5150   20.2850 N   0  0  0  0  0  0  0  0  0  0  0  0
  -24.1970  -10.3820   20.8880 C   0  0  0  0  0  0  0  0  0  0  0  0
  -24.5470   -9.4290   21.8720 C   0  0  0  0  0  3  0  0  0  0  0  0
  -23.7680   -8.2640   22.0480 C   0  0  0  0  0  3  0  0  0  0  0  0
  -22.6290   -8.0440   21.2400 C   0  0  0  0  0  0  0  0  0  0  0  0
  -22.2970   -8.9840   20.2490 C   0  0  0  0  0  3  0  0  0  0  0  0
  -23.0760  -10.1400   20.0700 C   0  0  0  0  0  3  0  0  0  0  0  0
  -21.8300   -6.9290   21.3230 O   0  0  0  0  0  0  0  0  0  0  0  0
  -21.5950   -6.2970   22.5170 C   0  0  0  0  0  0  0  0  0  0  0  0
  -21.0150   -6.9710   23.6140 C   0  0  0  0  0  3  0  0  0  0  0  0
  -20.7260   -6.2660   24.8000 C   0  0  0  0  0  3  0  0  0  0  0  0
  -21.0080   -4.8900   24.8890 C   0  0  0  0  0  0  0  0  0  0  0  0
  -21.5820   -4.2160   23.7960 C   0  0  0  0  0  3  0  0  0  0  0  0
  -21.8710   -4.9180   22.6120 C   0  0  0  0  0  0  0  0  0  0  0  0
  -22.4040   -4.2590   21.5550 F   0  0  0  0  0  0  0  0  0  0  0  0
  -20.7250   -4.2110   26.0250 F   0  0  0  0  0  0  0  0  0  0  0  0
  -23.2620  -13.5200   21.2360 C   0  0  0  0  0  0  0  0  0  0  0  0
  -22.5850  -12.8500   22.1620 N   0  0  0  0  0  0  0  0  0  0  0  0
  -22.8260  -14.5710   20.7690 O   0  0  0  0  0  0  0  0  0  0  0  0
  -22.9520  -12.0000   22.5660 H   0  0  0  0  0  0  0  0  0  0  0  0
  -21.6880  -13.1940   22.4760 H   0  0  0  0  0  0  0  0  0  0  0  0
  -25.9150  -15.0780   20.2880 N   0  0  0  0  0  0  0  0  0  0  0  0
  -25.1960  -15.7640   20.4870 H   0  0  0  0  0  0  0  0  0  0  0  0
  -26.7570  -15.4870   19.9040 H   0  0  0  0  0  0  0  0  0  0  0  0
  1  2  1  0
  2  3  2  0
  4  2  1  0
  4  6  1  0
  6  5  1  0
  7  6  1  0
  8 19  2  0
  9  7  1  0
  9 14  1  0
 10 18  1  0
 10 20  1  0
 11 17  1  0
 11 13  1  0
 12 18  1  0
 13 12  1  0
 14 13  2  0
 15 16  1  0
 15  9  2  0
 16 11  2  0
 17 10  1  0
 18  8  1  0
 20 22  2  0
 21 20  1  0
 23 21  1  0
 24 33  2  0
 24 29  1  0
 25 21  1  0
 25 29  1  0
 26 25  1  0
 27 28  1  0
 27 26  1  0
 28 24  1  0
 29 30  2  0
 30 31  1  0
 32 31  2  0
 33 32  1  0
 34  8  1  0
 34 35  1  0
 34 44  1  0
 35 38  1  0
 36 40  1  0
 36 35  1  0
 37 36  2  0
 40 39  1  0
 42 40  1  0
 42 43  1  0
 42 41  1  0
 44 47  1  1
 44 45  1  0
 46 44  1  0
 48 49  1  0
 48  1  1  0
 48 54  1  0
 51 52  2  0
 52 50  1  0
 52 65  1  0
 53 56  1  0
 53 50  2  0
 54 53  1  0
 55 54  2  0
 55 51  1  0
 57 65  1  0
 58 63  1  0
 59 60  1  0
 59 58  1  0
 61 60  1  0
 61 70  1  0
 61 62  1  0
 63 57  1  0
 63 62  1  0
 64 57  2  0
 65 66  1  0
 67 68  2  0
 68 87  1  0
 69 68  1  0
 69 72  1  0
 70 71  1  0
 70 67  1  0
 71 69  2  0
 72 73  1  0
 73 74  2  0
 75 78  1  0
 75 74  1  0
 76 75  2  0
 77 76  1  0
 77 72  2  0
 78 79  1  0
 79 84  2  0
 79 80  1  0
 80 81  2  0
 81 82  1  0
 82 86  1  0
 83 82  2  0
 84 83  1  0
 85 84  1  0
 87 88  1  0
 88 91  1  0
 88 90  1  0
 89 87  2  0
 92 67  1  0
 92 93  1  0
 94 92  1  0
M  ISO  4   6 101   7 101  57 100  65 100
M  END
>  <TORSDO>  (23) 
F 21

>  <SCORE>  (23) 
-12.945

>  <name>  (23) 
22

>  <ligand_id>  (23) 
22

>  <original_smiles>  (23) 
[H]c1nc(N([H])C([H])([H])C(=O)C([H])([H])C([H])(Oc2c([H])c([H])c3c(c2[H])C([H])([H])N(C(=O)C([H])(N([H])C(=O)C([H])(N([H])C([H])([H])[H])C([H])([H])[H])C(C([H])([H])[H])(C([H])([H])[H])C([H])([H])[H])C([H])(C(=O)N([H])C2([H])c4c([H])c([H])c([H])c([H])c4C([H])([H])C([H])([H])C2([H])[H])C3([H])[H])C([H])([H])[H])c(F)c([H])c1N([H])C(=O)N1C([H])([H])C([H])([H])C([H])([H])C([H])(n2nc(-c3c([H])c([H])c(Oc4c([H])c([H])c(F)c([H])c4F)c([H])c3[H])c(C(=O)N([H])[H])c2N([H])[H])C1([H])[H]

>  <smiles>  (23) 
[H]c1nc(N([H])C([H])([H])C(=O)C([H])([H])C([H])(Oc2c([H])c([H])c3c(c2[H])C([H])([H])N(C(=O)C([H])(N([H])C(=O)C([H])(N([H])C([H])([H])[H])C([H])([H])[H])C(C([H])([H])[H])(C([H])([H])[H])C([H])([H])[H])C([H])(C(=O)N([H])C2([H])c4c([H])c([H])c([H])c([H])c4C([H])([H])C([H])([H])C2([H])[H])C3([H])[H])C([H])([H])[H])c(F)c([H])c1N([H])C(=O)N1C([H])([H])C([H])([H])C([H])([H])C([H])(n2nc(-c3c([H])c([H])c(Oc4c([H])c([H])c(F)c([H])c4F)c([H])c3[H])c(C(=O)N([H])[H])c2N([H])[H])C1([H])[H]

$$$$
23:0:0
     RDKit          3D

100108  0  0  1  0  0  0  0  0999 V2000
  -29.3710  -17.9890   21.3840 C   0  0  0  0  0  3  0  0  0  0  0  0
  -28.6870  -19.2230   21.3470 C   0  0  0  0  0  3  0  0  0  0  0  0
  -30.7660  -20.3480   20.8130 C   0  0  0  0  0  3  0  0  0  0  0  0
  -30.7650  -17.9120   21.1360 C   0  0  0  0  0  0  0  0  0  0  0  0
  -31.4660  -19.1190   20.8290 C   0  0  0  0  0  0  0  0  0  0  0  0
  -29.3870  -20.4170   21.0840 C   0  0  0  0  0  0  0  0  0  0  0  0
  -28.7620  -21.6710   21.1620 N   0  0  0  0  0  0  0  0  0  0  0  0
  -29.3750  -22.3680   21.5780 H   0  0  0  0  0  0  0  0  0  0  0  0
  -28.1660  -22.2080   19.9270 C   0  0  0  0  0  2  0  0  0  0  0  0
  -29.1290  -23.0880   19.0920 C   0  0  0  0  0  0  0  0  0  0  0  0
  -30.2750  -22.6800   18.8520 O   0  0  0  0  0  0  0  0  0  0  0  0
  -28.6910  -24.4960   18.5600 C   0  0  0  0  0  0  0  0  0  0  0  0
  -29.2110  -24.9360   17.5200 O   0  0  0  0  0  0  0  0  0  0  0  0
  -27.8850  -25.3730   20.8380 C   0  0  0  0  0  1  0  0  0  0  0  0
  -27.6160  -25.3240   19.3140 C   0  0  0  0  0  3  0  0  0  0  0  0
  -27.6250  -26.6840   18.8200 O   0  0  0  0  0  0  0  0  0  0  0  0
  -24.4770  -31.4880   23.0250 C   0  0  0  0  0  0  0  0  0  0  0  0
  -26.4930  -27.4320   19.0730 C   0  0  0  0  0  0  0  0  0  0  0  0
  -23.0000  -30.3220   21.4220 C   0  0  0  0  0  3  0  0  0  0  0  0
  -24.1760  -28.9540   19.6220 C   0  0  0  0  0  0  0  0  0  0  0  0
  -25.4810  -30.6680   20.8930 C   0  0  0  0  0  2  0  0  0  0  0  0
  -25.4260  -29.3910   20.0840 C   0  0  0  0  0  0  0  0  0  0  0  0
  -26.5880  -28.6400   19.7990 C   0  0  0  0  0  3  0  0  0  0  0  0
  -25.2260  -27.0070   18.6150 C   0  0  0  0  0  3  0  0  0  0  0  0
  -24.0720  -27.7620   18.8840 C   0  0  0  0  0  3  0  0  0  0  0  0
  -22.9800  -29.8140   19.9550 C   0  0  0  0  0  2  0  0  0  0  0  0
  -24.3480  -30.8310   21.8370 N   0  0  0  0  0  0  0  0  0  0  0  0
  -23.4950  -31.7060   23.7460 O   0  0  0  0  0  0  0  0  0  0  0  0
  -22.4600  -29.1960   22.3350 C   0  0  0  0  0  0  0  0  0  0  0  0
  -21.1420  -28.9500   22.2650 N   0  0  0  0  0  0  0  0  0  0  0  0
  -23.2200  -28.5520   23.0600 O   0  0  0  0  0  0  0  0  0  0  0  0
  -20.5820  -29.5280   21.6530 H   0  0  0  0  0  0  0  0  0  0  0  0
  -17.9140  -27.3710   22.6590 C   0  0  0  0  0  0  0  0  0  0  0  0
  -20.4200  -27.9120   23.0010 C   0  0  0  0  0  3  0  0  0  0  0  0
  -20.6990  -26.5110   22.4100 C   0  0  0  0  0  2  0  0  0  0  0  0
  -19.6650  -26.0820   21.3650 C   0  0  0  0  0  2  0  0  0  0  0  0
  -18.2600  -26.0600   21.9740 C   0  0  0  0  0  2  0  0  0  0  0  0
  -18.9290  -28.2470   23.1270 C   0  0  0  0  0  0  0  0  0  0  0  0
  -18.5530  -29.4710   23.7250 C   0  0  0  0  0  3  0  0  0  0  0  0
  -17.1960  -29.8190   23.8610 C   0  0  0  0  0  3  0  0  0  0  0  0
  -16.1960  -28.9390   23.4110 C   0  0  0  0  0  3  0  0  0  0  0  0
  -16.5560  -27.7170   22.8150 C   0  0  0  0  0  3  0  0  0  0  0  0
  -25.8580  -32.0150   23.5240 C   0  0  0  0  0  3  0  0  0  0  0  0
  -25.6490  -33.3740   24.0400 N   0  0  0  0  0  0  0  0  0  0  0  0
  -25.9580  -34.4950   23.3730 C   0  0  0  0  0  0  0  0  0  0  0  0
  -26.5210  -34.4870   22.2750 O   0  0  0  0  0  0  0  0  0  0  0  0
  -25.1340  -33.4550   24.9050 H   0  0  0  0  0  0  0  0  0  0  0  0
  -24.3300  -36.4140   23.3560 C   0  0  0  0  0  1  0  0  0  0  0  0
  -25.5860  -35.8380   24.0300 C   0  0  0  0  0  3  0  0  0  0  0  0
  -27.8160  -36.4880   24.8280 C   0  0  0  0  0  1  0  0  0  0  0  0
  -26.6770  -36.8360   23.9830 N   0  0  0  0  0  0  0  0  0  0  0  0
  -26.3380  -37.7510   24.2710 H   0  0  0  0  0  0  0  0  0  0  0  0
  -26.5110  -31.0930   24.6260 C   0  0  1  0  0  0  0  0  0  0  0  0
  -25.5690  -30.7670   25.8090 C   0  0  0  0  0  1  0  0  0  0  0  0
  -26.9740  -29.7520   24.0090 C   0  0  0  0  0  1  0  0  0  0  0  0
  -27.7740  -31.7740   25.2000 C   0  0  0  0  0  1  0  0  0  0  0  0
  -32.9580  -19.1750   20.4740 C   0  0  0  0  0  2  0  0  0  0  0  0
  -34.1330  -21.4270   20.3920 C   0  0  0  0  0  1  0  0  0  0  0  0
  -33.2250  -20.6580   22.5960 C   0  0  0  0  0  1  0  0  0  0  0  0
  -35.2000  -19.5180   21.5930 C   0  0  0  0  0  1  0  0  0  0  0  0
  -33.8510  -20.1870   21.2660 C   0  0  1  0  0  0  0  0  0  0  0  0
  -31.4970  -16.5600   21.2290 C   0  0  0  0  0  2  0  0  0  0  0  0
  -30.9960  -14.4520   19.9710 C   0  0  0  0  0  0  0  0  0  0  0  0
  -30.6150  -12.1650   19.1230 C   0  0  0  0  0  2  0  0  0  0  0  0
  -29.6390  -12.1390   17.9340 C   0  0  0  0  0  2  0  0  0  0  0  0
  -28.1880  -12.0340   18.4350 C   0  0  0  0  0  2  0  0  0  0  0  0
  -27.8640  -13.1010   19.5160 C   0  0  0  0  0  3  0  0  0  0  0  0
  -28.9450  -13.1270   20.6210 C   0  0  0  0  0  2  0  0  0  0  0  0
  -30.2700  -13.3030   19.9920 N   0  0  0  0  0  0  0  0  0  0  0  0
  -31.9340  -14.6330   19.1880 O   0  0  0  0  0  0  0  0  0  0  0  0
  -30.7150  -15.3470   20.9340 N   0  0  0  0  0  0  0  0  0  0  0  0
  -30.0090  -15.0800   21.6030 H   0  0  0  0  0  0  0  0  0  0  0  0
  -25.5570  -13.8440   20.3860 C   0  0  0  0  0  0  0  0  0  0  0  0
  -24.4640  -13.1340   20.8100 C   0  0  0  0  0  0  0  0  0  0  0  0
  -24.8330  -11.7580   20.7250 C   0  0  0  0  0  0  0  0  0  0  0  0
  -26.5260  -12.9050   20.0710 N   0  0  0  0  0  0  0  0  0  0  0  0
  -26.0950  -11.6410   20.3300 N   0  0  0  0  0  0  0  0  0  0  0  0
  -24.0350  -10.5400   20.9340 C   0  0  0  0  0  0  0  0  0  0  0  0
  -24.4550   -9.5310   21.8300 C   0  0  0  0  0  3  0  0  0  0  0  0
  -23.6650   -8.3810   22.0350 C   0  0  0  0  0  3  0  0  0  0  0  0
  -22.4400   -8.2300   21.3410 C   0  0  0  0  0  0  0  0  0  0  0  0
  -22.0390   -9.2240   20.4330 C   0  0  0  0  0  3  0  0  0  0  0  0
  -22.8290  -10.3650   20.2260 C   0  0  0  0  0  3  0  0  0  0  0  0
  -21.6210   -7.1330   21.4560 O   0  0  0  0  0  0  0  0  0  0  0  0
  -21.5730   -6.3860   22.6070 C   0  0  0  0  0  0  0  0  0  0  0  0
  -21.2150   -6.9540   23.8490 C   0  0  0  0  0  3  0  0  0  0  0  0
  -21.1090   -6.1360   24.9930 C   0  0  0  0  0  3  0  0  0  0  0  0
  -21.3500   -4.7530   24.8940 C   0  0  0  0  0  0  0  0  0  0  0  0
  -21.7010   -4.1850   23.6580 C   0  0  0  0  0  3  0  0  0  0  0  0
  -21.8070   -4.9990   22.5170 C   0  0  0  0  0  0  0  0  0  0  0  0
  -22.1230   -4.4440   21.3210 F   0  0  0  0  0  0  0  0  0  0  0  0
  -21.2410   -3.9660   25.9920 F   0  0  0  0  0  0  0  0  0  0  0  0
  -23.1230  -13.6940   21.1830 C   0  0  0  0  0  0  0  0  0  0  0  0
  -22.4120  -13.0350   22.0900 N   0  0  0  0  0  0  0  0  0  0  0  0
  -22.7130  -14.7500   20.7040 O   0  0  0  0  0  0  0  0  0  0  0  0
  -22.7570  -12.1830   22.5060 H   0  0  0  0  0  0  0  0  0  0  0  0
  -21.5100  -13.3900   22.3760 H   0  0  0  0  0  0  0  0  0  0  0  0
  -25.7980  -15.2060   20.2250 N   0  0  0  0  0  0  0  0  0  0  0  0
  -25.0860  -15.9060   20.4030 H   0  0  0  0  0  0  0  0  0  0  0  0
  -26.6620  -15.6010   19.8760 H   0  0  0  0  0  0  0  0  0  0  0  0
  2  1  1  0
  3  5  2  0
  3  6  1  0
  4 62  1  0
  4  1  2  0
  5  4  1  0
  6  7  1  0
  6  2  2  0
  7  8  1  0
  9  7  1  0
 10  9  1  0
 11 10  2  0
 12 10  1  0
 12 15  1  0
 13 12  2  0
 15 14  1  0
 16 18  1  0
 16 15  1  0
 17 28  2  0
 18 23  1  0
 19 27  1  0
 19 29  1  0
 20 26  1  0
 20 22  1  0
 21 27  1  0
 22 21  1  0
 23 22  2  0
 24 25  1  0
 24 18  2  0
 25 20  2  0
 26 19  1  0
 27 17  1  0
 29 31  2  0
 30 29  1  0
 32 30  1  0
 33 42  2  0
 33 38  1  0
 34 30  1  0
 34 38  1  0
 35 34  1  0
 36 37  1  0
 36 35  1  0
 37 33  1  0
 38 39  2  0
 39 40  1  0
 41 40  2  0
 42 41  1  0
 43 17  1  0
 43 44  1  0
 43 53  1  0
 44 47  1  0
 45 49  1  0
 45 44  1  0
 46 45  2  0
 49 48  1  0
 51 49  1  0
 51 52  1  0
 51 50  1  0
 53 56  1  1
 53 54  1  0
 55 53  1  0
 57  5  1  0
 57 61  1  0
 61 58  1  6
 61 60  1  0
 61 59  1  0
 63 69  1  0
 63 71  1  0
 64 69  1  0
 65 66  1  0
 65 64  1  0
 67 66  1  0
 67 76  1  0
 67 68  1  0
 69 68  1  0
 70 63  2  0
 71 62  1  0
 71 72  1  0
 73 74  2  0
 74 93  1  0
 75 74  1  0
 75 78  1  0
 76 77  1  0
 76 73  1  0
 77 75  2  0
 78 79  1  0
 79 80  2  0
 81 84  1  0
 81 80  1  0
 82 81  2  0
 83 82  1  0
 83 78  2  0
 84 85  1  0
 85 86  1  0
 86 87  2  0
 88 87  1  0
 88 92  1  0
 89 88  2  0
 90 85  2  0
 90 89  1  0
 91 90  1  0
 93 94  1  0
 94 97  1  0
 94 96  1  0
 95 93  2  0
 98 73  1  0
 98 99  1  0
100 98  1  0
M  ISO  4  15 101  16 101  63 100  71 100
M  END
>  <TORSDO>  (24) 
F 24

>  <SCORE>  (24) 
-10.986

>  <name>  (24) 
23

>  <ligand_id>  (24) 
23

>  <original_smiles>  (24) 
[H]c1c([H])c([H])c2c(c1[H])C([H])([H])C([H])([H])C([H])([H])C2([H])N([H])C(=O)C1([H])N(C(=O)C([H])(N([H])C(=O)C([H])(N([H])C([H])([H])[H])C([H])([H])[H])C(C([H])([H])[H])(C([H])([H])[H])C([H])([H])[H])C([H])([H])c2c([H])c(OC([H])(C(=O)C(=O)C([H])([H])N([H])c3c([H])c([H])c(C([H])([H])N([H])C(=O)N4C([H])([H])C([H])([H])C([H])([H])C([H])(n5nc(-c6c([H])c([H])c(Oc7c([H])c([H])c(F)c([H])c7F)c([H])c6[H])c(C(=O)N([H])[H])c5N([H])[H])C4([H])[H])c(C([H])([H])C(C([H])([H])[H])(C([H])([H])[H])C([H])([H])[H])c3[H])C([H])([H])[H])c([H])c([H])c2C1([H])[H]

>  <smiles>  (24) 
[H]c1c([H])c([H])c2c(c1[H])C([H])([H])C([H])([H])C([H])([H])C2([H])N([H])C(=O)C1([H])N(C(=O)C([H])(N([H])C(=O)C([H])(N([H])C([H])([H])[H])C([H])([H])[H])C(C([H])([H])[H])(C([H])([H])[H])C([H])([H])[H])C([H])([H])c2c([H])c(OC([H])(C(=O)C(=O)C([H])([H])N([H])c3c([H])c([H])c(C([H])([H])N([H])C(=O)N4C([H])([H])C([H])([H])C([H])([H])C([H])(n5nc(-c6c([H])c([H])c(Oc7c([H])c([H])c(F)c([H])c7F)c([H])c6[H])c(C(=O)N([H])[H])c5N([H])[H])C4([H])[H])c(C([H])([H])C(C([H])([H])[H])(C([H])([H])[H])C([H])([H])[H])c3[H])C([H])([H])[H])c([H])c([H])c2C1([H])[H]

$$$$
24:0:0
     RDKit          3D

102110  0  0  1  0  0  0  0  0999 V2000
  -30.1590  -17.3460   21.6800 C   0  0  0  0  0  3  0  0  0  0  0  0
  -29.5230  -19.3510   20.4370 C   0  0  0  0  0  3  0  0  0  0  0  0
  -29.5760  -17.1910   19.3200 C   0  0  0  0  0  3  0  0  0  0  0  0
  -29.9270  -18.7410   21.6500 C   0  0  0  0  0  0  0  0  0  0  0  0
  -29.9790  -16.5490   20.5320 C   0  0  0  0  0  0  0  0  0  0  0  0
  -29.3440  -18.6020   19.2530 C   0  0  0  0  0  0  0  0  0  0  0  0
  -30.7920  -14.2090   21.2010 C   0  0  0  0  0  0  0  0  0  0  0  0
  -30.7790  -11.7290   21.1920 C   0  0  0  0  0  2  0  0  0  0  0  0
  -30.1160  -11.2590   19.8770 C   0  0  0  0  0  2  0  0  0  0  0  0
  -28.5780  -11.2160   20.0040 C   0  0  0  0  0  2  0  0  0  0  0  0
  -27.9910  -12.5060   20.6310 C   0  0  0  0  0  3  0  0  0  0  0  0
  -28.7720  -12.8950   21.9090 C   0  0  0  0  0  2  0  0  0  0  0  0
  -30.1900  -13.0310   21.5370 N   0  0  0  0  0  0  0  0  0  0  0  0
  -32.0150  -14.3250   21.0730 O   0  0  0  0  0  0  0  0  0  0  0  0
  -29.9120  -15.1230   20.7140 N   0  0  0  0  0  0  0  0  0  0  0  0
  -28.9700  -14.7620   20.7380 H   0  0  0  0  0  0  0  0  0  0  0  0
  -25.5980  -13.3860   20.9840 C   0  0  0  0  0  0  0  0  0  0  0  0
  -24.4030  -12.7400   21.1450 C   0  0  0  0  0  0  0  0  0  0  0  0
  -24.7030  -11.3440   21.1300 C   0  0  0  0  0  0  0  0  0  0  0  0
  -26.5570  -12.3880   20.8820 N   0  0  0  0  0  0  0  0  0  0  0  0
  -26.0130  -11.1540   21.0290 N   0  0  0  0  0  0  0  0  0  0  0  0
  -23.8150  -10.1750   21.1440 C   0  0  0  0  0  0  0  0  0  0  0  0
  -24.0090   -9.1140   22.0560 C   0  0  0  0  0  3  0  0  0  0  0  0
  -23.1320   -8.0090   22.0640 C   0  0  0  0  0  3  0  0  0  0  0  0
  -22.0480   -7.9570   21.1570 C   0  0  0  0  0  0  0  0  0  0  0  0
  -21.8740   -9.0040   20.2350 C   0  0  0  0  0  3  0  0  0  0  0  0
  -22.7510  -10.1020   20.2240 C   0  0  0  0  0  3  0  0  0  0  0  0
  -21.1610   -6.9110   21.0750 O   0  0  0  0  0  0  0  0  0  0  0  0
  -20.9150   -6.0900   22.1450 C   0  0  0  0  0  0  0  0  0  0  0  0
  -20.4420   -6.5950   23.3760 C   0  0  0  0  0  3  0  0  0  0  0  0
  -20.1360   -5.7090   24.4290 C   0  0  0  0  0  3  0  0  0  0  0  0
  -20.2920   -4.3210   24.2510 C   0  0  0  0  0  0  0  0  0  0  0  0
  -20.7580   -3.8170   23.0240 C   0  0  0  0  0  3  0  0  0  0  0  0
  -21.0650   -4.7000   21.9730 C   0  0  0  0  0  0  0  0  0  0  0  0
  -21.4930   -4.2070   20.7860 F   0  0  0  0  0  0  0  0  0  0  0  0
  -19.9900   -3.4700   25.2580 F   0  0  0  0  0  0  0  0  0  0  0  0
  -23.0430  -13.3760   21.2120 C   0  0  0  0  0  0  0  0  0  0  0  0
  -22.1150  -12.7620   21.9370 N   0  0  0  0  0  0  0  0  0  0  0  0
  -22.8120  -14.4490   20.6570 O   0  0  0  0  0  0  0  0  0  0  0  0
  -22.3130  -11.8910   22.4080 H   0  0  0  0  0  0  0  0  0  0  0  0
  -21.1940  -13.1680   22.0240 H   0  0  0  0  0  0  0  0  0  0  0  0
  -25.9450  -14.7320   20.8930 N   0  0  0  0  0  0  0  0  0  0  0  0
  -25.2420  -15.4620   20.9050 H   0  0  0  0  0  0  0  0  0  0  0  0
  -26.8700  -15.0810   20.6810 H   0  0  0  0  0  0  0  0  0  0  0  0
  -29.9980  -19.5260   22.9110 C   0  0  0  0  0  0  0  0  0  0  0  0
  -30.4240  -19.0070   23.9840 N   0  0  0  0  0  0  0  0  0  0  0  0
  -30.6870  -18.0360   23.8520 H   0  0  0  0  0  0  0  0  0  0  0  0
  -29.5280  -20.9880   22.8900 C   0  0  0  0  0  2  0  0  0  0  0  0
  -29.8580  -23.4440   22.5170 C   0  0  0  0  0  1  0  0  0  0  0  0
  -31.2680  -21.8480   21.2090 C   0  0  0  0  0  1  0  0  0  0  0  0
  -31.6640  -22.1850   23.6790 C   0  0  0  0  0  1  0  0  0  0  0  0
  -30.5890  -22.0870   22.5750 C   0  0  2  0  0  0  0  0  0  0  0  0
  -28.9010  -19.2180   18.0480 N   0  0  0  0  0  0  0  0  0  0  0  0
  -28.9190  -18.6590   17.1990 H   0  0  0  0  0  0  0  0  0  0  0  0
  -28.5820  -20.6710   17.8500 C   0  0  0  0  0  3  0  0  0  0  0  0
  -29.7070  -21.5460   17.2300 C   0  0  0  0  0  0  0  0  0  0  0  0
  -30.7240  -20.9300   16.7820 N   0  0  0  0  0  2  0  0  0  0  0  0
  -31.3830  -21.6180   16.4280 H   0  0  0  0  0  0  0  0  0  0  0  0
  -29.6670  -23.1060   17.1710 C   0  0  0  0  0  0  0  0  0  0  0  0
  -30.7110  -23.7040   16.8730 O   0  0  0  0  0  0  0  0  0  0  0  0
  -28.3980  -23.9720   17.4230 C   0  0  0  0  0  2  0  0  0  0  0  0
  -28.7690  -25.3570   17.7280 O   0  0  0  0  0  0  0  0  0  0  0  0
  -26.2250  -29.3270   23.1150 C   0  0  0  0  0  0  0  0  0  0  0  0
  -27.7940  -26.2500   18.1520 C   0  0  0  0  0  0  0  0  0  0  0  0
  -24.7320  -29.0560   21.1660 C   0  0  0  0  0  3  0  0  0  0  0  0
  -25.8010  -28.0570   19.0730 C   0  0  0  0  0  0  0  0  0  0  0  0
  -27.2740  -28.9640   20.8750 C   0  0  0  0  0  2  0  0  0  0  0  0
  -27.0520  -28.0270   19.6990 C   0  0  0  0  0  0  0  0  0  0  0  0
  -28.0540  -27.1380   19.2320 C   0  0  0  0  0  3  0  0  0  0  0  0
  -26.5250  -26.3080   17.5360 C   0  0  0  0  0  3  0  0  0  0  0  0
  -25.5360  -27.2040   17.9880 C   0  0  0  0  0  3  0  0  0  0  0  0
  -24.7790  -29.0330   19.6150 C   0  0  0  0  0  2  0  0  0  0  0  0
  -26.1000  -29.1000   21.7760 N   0  0  0  0  0  0  0  0  0  0  0  0
  -25.2320  -29.5320   23.8270 O   0  0  0  0  0  0  0  0  0  0  0  0
  -23.8830  -27.8590   21.6550 C   0  0  0  0  0  0  0  0  0  0  0  0
  -22.5520  -27.9640   21.5010 N   0  0  0  0  0  0  0  0  0  0  0  0
  -24.4200  -26.8590   22.1360 O   0  0  0  0  0  0  0  0  0  0  0  0
  -22.1850  -28.8190   21.1080 H   0  0  0  0  0  0  0  0  0  0  0  0
  -19.0250  -27.1790   21.4360 C   0  0  0  0  0  0  0  0  0  0  0  0
  -21.5640  -26.9440   21.8550 C   0  0  0  0  0  3  0  0  0  0  0  0
  -21.5300  -25.8120   20.8010 C   0  0  0  0  0  2  0  0  0  0  0  0
  -20.4810  -26.0360   19.7080 C   0  0  0  0  0  2  0  0  0  0  0  0
  -19.0820  -26.1470   20.3200 C   0  0  0  0  0  2  0  0  0  0  0  0
  -20.1920  -27.5640   22.1460 C   0  0  0  0  0  0  0  0  0  0  0  0
  -20.0900  -28.5530   23.1480 C   0  0  0  0  0  3  0  0  0  0  0  0
  -18.8500  -29.1490   23.4460 C   0  0  0  0  0  3  0  0  0  0  0  0
  -17.6950  -28.7550   22.7510 C   0  0  0  0  0  3  0  0  0  0  0  0
  -17.7830  -27.7700   21.7500 C   0  0  0  0  0  3  0  0  0  0  0  0
  -27.6220  -29.3660   23.8100 C   0  0  0  0  0  3  0  0  0  0  0  0
  -27.6030  -30.4640   24.7860 N   0  0  0  0  0  0  0  0  0  0  0  0
  -28.1850  -31.6570   24.6010 C   0  0  0  0  0  0  0  0  0  0  0  0
  -28.8620  -31.9230   23.6060 O   0  0  0  0  0  0  0  0  0  0  0  0
  -27.0220  -30.3360   25.6000 H   0  0  0  0  0  0  0  0  0  0  0  0
  -26.9170  -33.7310   25.2420 C   0  0  0  0  0  1  0  0  0  0  0  0
  -27.9830  -32.7200   25.6960 C   0  0  0  0  0  3  0  0  0  0  0  0
  -30.1980  -32.5940   26.7490 C   0  0  0  0  0  1  0  0  0  0  0  0
  -29.2250  -33.4360   26.0580 N   0  0  0  0  0  0  0  0  0  0  0  0
  -29.0200  -34.2350   26.6510 H   0  0  0  0  0  0  0  0  0  0  0  0
  -28.0040  -28.0050   24.5130 C   0  0  1  0  0  0  0  0  0  0  0  0
  -26.9130  -27.4700   25.4690 C   0  0  0  0  0  1  0  0  0  0  0  0
  -28.2900  -26.9100   23.4590 C   0  0  0  0  0  1  0  0  0  0  0  0
  -29.3050  -28.1830   25.3290 C   0  0  0  0  0  1  0  0  0  0  0  0
  2  4  2  0
  3  5  1  0
  4  1  1  0
  4 45  1  0
  5 15  1  0
  5  1  2  0
  6  3  2  0
  6  2  1  0
  7 13  1  0
  8 13  1  0
  9 10  1  0
  9  8  1  0
 11 10  1  0
 11 20  1  0
 11 12  1  0
 13 12  1  0
 14  7  2  0
 15 16  1  0
 15  7  1  0
 17 18  2  0
 18 37  1  0
 19 22  1  0
 19 18  1  0
 20 17  1  0
 20 21  1  0
 21 19  2  0
 22 23  1  0
 23 24  2  0
 25 24  1  0
 26 25  2  0
 27 26  1  0
 27 22  2  0
 28 25  1  0
 28 29  1  0
 29 30  1  0
 30 31  2  0
 32 31  1  0
 32 36  1  0
 33 32  2  0
 34 29  2  0
 34 33  1  0
 35 34  1  0
 37 38  1  0
 38 41  1  0
 38 40  1  0
 39 37  2  0
 42 43  1  0
 42 17  1  0
 44 42  1  0
 45 46  2  0
 47 46  1  0
 48 45  1  0
 52 49  1  6
 50 52  1  0
 52 48  1  0
 52 51  1  0
 53  6  1  0
 54 53  1  0
 55 53  1  0
 56 55  2  0
 57 56  1  0
 58 57  1  0
 59 56  1  0
 59 61  1  0
 60 59  2  0
 61 62  1  0
 62 64  1  0
 63 74  2  0
 64 69  1  0
 65 75  1  0
 65 73  1  0
 66 72  1  0
 66 68  1  0
 67 73  1  0
 68 67  1  0
 69 68  2  0
 70 71  1  0
 70 64  2  0
 71 66  2  0
 72 65  1  0
 73 63  1  0
 75 77  2  0
 76 75  1  0
 78 76  1  0
 79 88  2  0
 79 84  1  0
 80 76  1  0
 80 84  1  0
 81 80  1  0
 82 83  1  0
 82 81  1  0
 83 79  1  0
 84 85  2  0
 85 86  1  0
 87 86  2  0
 88 87  1  0
 89 63  1  0
 89 99  1  0
 89 90  1  0
 90 93  1  0
 91 90  1  0
 91 95  1  0
 92 91  2  0
 95 94  1  0
 95 97  1  0
 97 98  1  0
 97 96  1  0
 99102  1  1
 99100  1  0
101 99  1  0
M  ISO  4   7 100  15 100  61 101  62 101
M  END
>  <TORSDO>  (25) 
F 24

>  <SCORE>  (25) 
-6.171

>  <name>  (25) 
24

>  <ligand_id>  (25) 
24

>  <original_smiles>  (25) 
[H]N=C(C(=O)C([H])([H])Oc1c([H])c([H])c2c(c1[H])C([H])([H])N(C(=O)C([H])(N([H])C(=O)C([H])(N([H])C([H])([H])[H])C([H])([H])[H])C(C([H])([H])[H])(C([H])([H])[H])C([H])([H])[H])C([H])(C(=O)N([H])C1([H])c3c([H])c([H])c([H])c([H])c3C([H])([H])C([H])([H])C1([H])[H])C2([H])[H])C([H])([H])N([H])c1c([H])c(C(=N[H])C([H])([H])C(C([H])([H])[H])(C([H])([H])[H])C([H])([H])[H])c([H])c(N([H])C(=O)N2C([H])([H])C([H])([H])C([H])([H])C([H])(n3nc(-c4c([H])c([H])c(Oc5c([H])c([H])c(F)c([H])c5F)c([H])c4[H])c(C(=O)N([H])[H])c3N([H])[H])C2([H])[H])c1[H]

>  <smiles>  (25) 
[H]N=C(C(=O)C([H])([H])Oc1c([H])c([H])c2c(c1[H])C([H])([H])N(C(=O)C([H])(N([H])C(=O)C([H])(N([H])C([H])([H])[H])C([H])([H])[H])C(C([H])([H])[H])(C([H])([H])[H])C([H])([H])[H])C([H])(C(=O)N([H])C1([H])c3c([H])c([H])c([H])c([H])c3C([H])([H])C([H])([H])C1([H])[H])C2([H])[H])C([H])([H])N([H])c1c([H])c(C(=N[H])C([H])([H])C(C([H])([H])[H])(C([H])([H])[H])C([H])([H])[H])c([H])c(N([H])C(=O)N2C([H])([H])C([H])([H])C([H])([H])C([H])(n3nc(-c4c([H])c([H])c(Oc5c([H])c([H])c(F)c([H])c5F)c([H])c4[H])c(C(=O)N([H])[H])c3N([H])[H])C2([H])[H])c1[H]

$$$$
25:0:0
     RDKit          3D

 99107  0  0  1  0  0  0  0  0999 V2000
  -28.9940  -23.3400   20.1650 C   0  0  0  0  0  0  0  0  0  0  0  0
  -29.1860  -22.0180   19.8350 N   0  0  0  0  0  0  0  0  0  0  0  0
  -29.0600  -23.7350   21.3300 O   0  0  0  0  0  0  0  0  0  0  0  0
  -28.9640  -21.7350   18.8940 H   0  0  0  0  0  0  0  0  0  0  0  0
  -31.0410  -19.9040   22.4010 C   0  0  0  0  0  3  0  0  0  0  0  0
  -31.0160  -18.6340   21.7890 C   0  0  0  0  0  3  0  0  0  0  0  0
  -30.4180  -21.0170   21.8000 C   0  0  0  0  0  3  0  0  0  0  0  0
  -30.3530  -18.4440   20.5600 C   0  0  0  0  0  0  0  0  0  0  0  0
  -29.7480  -20.8900   20.5640 C   0  0  0  0  0  0  0  0  0  0  0  0
  -29.7050  -19.5870   19.9650 C   0  0  0  0  0  0  0  0  0  0  0  0
  -29.0290  -19.4780   18.7470 N   0  0  0  0  0  0  0  0  0  0  0  0
  -29.0170  -18.5510   18.3360 H   0  0  0  0  0  0  0  0  0  0  0  0
  -28.0780  -19.8300   18.7680 H   0  0  0  0  0  0  0  0  0  0  0  0
  -30.4800  -17.0640   19.8440 C   0  0  0  0  0  2  0  0  0  0  0  0
  -31.0400  -14.6590   20.3700 C   0  0  0  0  0  0  0  0  0  0  0  0
  -30.7480  -12.4080   19.3930 C   0  0  0  0  0  2  0  0  0  0  0  0
  -29.8530  -12.5850   18.1480 C   0  0  0  0  0  2  0  0  0  0  0  0
  -28.3640  -12.4910   18.5340 C   0  0  0  0  0  2  0  0  0  0  0  0
  -28.0060  -13.3630   19.7710 C   0  0  0  0  0  3  0  0  0  0  0  0
  -29.0390  -13.1930   20.9110 C   0  0  0  0  0  2  0  0  0  0  0  0
  -30.3720  -13.4650   20.3520 N   0  0  0  0  0  0  0  0  0  0  0  0
  -32.2000  -14.7590   19.9690 O   0  0  0  0  0  0  0  0  0  0  0  0
  -30.2870  -15.7750   20.5820 N   0  0  0  0  0  0  0  0  0  0  0  0
  -29.3640  -15.6080   20.9530 H   0  0  0  0  0  0  0  0  0  0  0  0
  -25.6150  -14.0110   20.4460 C   0  0  0  0  0  0  0  0  0  0  0  0
  -24.5290  -13.2620   20.8090 C   0  0  0  0  0  0  0  0  0  0  0  0
  -24.9630  -11.9030   20.7880 C   0  0  0  0  0  0  0  0  0  0  0  0
  -26.6450  -13.1090   20.2300 N   0  0  0  0  0  0  0  0  0  0  0  0
  -26.2550  -11.8350   20.4890 N   0  0  0  0  0  0  0  0  0  0  0  0
  -24.2050  -10.6580   20.9770 C   0  0  0  0  0  0  0  0  0  0  0  0
  -24.5850   -9.7000   21.9430 C   0  0  0  0  0  3  0  0  0  0  0  0
  -23.8320   -8.5190   22.1170 C   0  0  0  0  0  3  0  0  0  0  0  0
  -22.6830   -8.2890   21.3220 C   0  0  0  0  0  0  0  0  0  0  0  0
  -22.3220   -9.2330   20.3450 C   0  0  0  0  0  3  0  0  0  0  0  0
  -23.0760  -10.4050   20.1720 C   0  0  0  0  0  3  0  0  0  0  0  0
  -21.9070   -7.1590   21.4040 O   0  0  0  0  0  0  0  0  0  0  0  0
  -21.7690   -6.4600   22.5760 C   0  0  0  0  0  0  0  0  0  0  0  0
  -21.2460   -7.0600   23.7420 C   0  0  0  0  0  3  0  0  0  0  0  0
  -21.0560   -6.2880   24.9070 C   0  0  0  0  0  3  0  0  0  0  0  0
  -21.3760   -4.9170   24.9040 C   0  0  0  0  0  0  0  0  0  0  0  0
  -21.8900   -4.3170   23.7420 C   0  0  0  0  0  3  0  0  0  0  0  0
  -22.0820   -5.0860   22.5800 C   0  0  0  0  0  0  0  0  0  0  0  0
  -22.5580   -4.4970   21.4560 F   0  0  0  0  0  0  0  0  0  0  0  0
  -21.1870   -4.1750   26.0200 F   0  0  0  0  0  0  0  0  0  0  0  0
  -23.1400  -13.7710   21.0710 C   0  0  0  0  0  0  0  0  0  0  0  0
  -22.3960  -13.0990   21.9430 N   0  0  0  0  0  0  0  0  0  0  0  0
  -22.7240  -14.7980   20.5350 O   0  0  0  0  0  0  0  0  0  0  0  0
  -22.7420  -12.2650   22.3890 H   0  0  0  0  0  0  0  0  0  0  0  0
  -21.4650  -13.4240   22.1660 H   0  0  0  0  0  0  0  0  0  0  0  0
  -25.8060  -15.3790   20.2680 N   0  0  0  0  0  0  0  0  0  0  0  0
  -25.0420  -16.0400   20.3570 H   0  0  0  0  0  0  0  0  0  0  0  0
  -26.6580  -15.8130   19.9380 H   0  0  0  0  0  0  0  0  0  0  0  0
  -28.3190  -25.5720   19.0560 C   0  0  0  0  0  3  0  0  0  0  0  0
  -28.6890  -24.2440   19.0180 C   0  0  0  0  0  0  0  0  0  0  0  0
  -28.8120  -23.7140   17.6340 N   0  0  0  0  0  4  0  0  0  0  0  0
  -28.6770  -24.4420   16.9560 H   0  0  0  0  0  0  0  0  0  0  0  0
  -28.1270  -23.0060   17.4440 H   0  0  0  0  0  0  0  0  0  0  0  0
  -29.7290  -23.3330   17.4790 H   0  0  0  0  0  0  0  0  0  0  0  0
  -28.1300  -26.4540   20.1210 O   0  0  0  0  0  0  0  0  0  0  0  0
  -24.5460  -31.8870   23.2300 C   0  0  0  0  0  0  0  0  0  0  0  0
  -27.0340  -27.3240   20.0920 C   0  0  0  0  0  0  0  0  0  0  0  0
  -23.2910  -30.5090   21.6120 C   0  0  0  0  0  3  0  0  0  0  0  0
  -24.6890  -28.9440   20.1600 C   0  0  0  0  0  0  0  0  0  0  0  0
  -25.8310  -30.7920   21.3840 C   0  0  0  0  0  2  0  0  0  0  0  0
  -25.8780  -29.4220   20.7280 C   0  0  0  0  0  0  0  0  0  0  0  0
  -27.0550  -28.6180   20.6900 C   0  0  0  0  0  3  0  0  0  0  0  0
  -25.8150  -26.8850   19.5250 C   0  0  0  0  0  3  0  0  0  0  0  0
  -24.6560  -27.6780   19.5590 C   0  0  0  0  0  3  0  0  0  0  0  0
  -23.4680  -29.8370   20.2290 C   0  0  0  0  0  2  0  0  0  0  0  0
  -24.5770  -31.0800   22.1310 N   0  0  0  0  0  0  0  0  0  0  0  0
  -23.4750  -32.1780   23.7840 O   0  0  0  0  0  0  0  0  0  0  0  0
  -22.6310  -29.4990   22.5810 C   0  0  0  0  0  0  0  0  0  0  0  0
  -21.3100  -29.3000   22.4420 N   0  0  0  0  0  0  0  0  0  0  0  0
  -23.3090  -28.8950   23.4140 O   0  0  0  0  0  0  0  0  0  0  0  0
  -20.8180  -29.8430   21.7440 H   0  0  0  0  0  0  0  0  0  0  0  0
  -17.9550  -28.0190   22.8810 C   0  0  0  0  0  0  0  0  0  0  0  0
  -20.4940  -28.3660   23.2200 C   0  0  0  0  0  3  0  0  0  0  0  0
  -20.6570  -26.9150   22.7080 C   0  0  0  0  0  2  0  0  0  0  0  0
  -19.6000  -26.5210   21.6710 C   0  0  0  0  0  2  0  0  0  0  0  0
  -18.1930  -26.6500   22.2620 C   0  0  0  0  0  2  0  0  0  0  0  0
  -19.0370  -28.8300   23.3160 C   0  0  0  0  0  0  0  0  0  0  0  0
  -18.7610  -30.1070   23.8510 C   0  0  0  0  0  3  0  0  0  0  0  0
  -17.4390  -30.5760   23.9520 C   0  0  0  0  0  3  0  0  0  0  0  0
  -16.3720  -29.7630   23.5340 C   0  0  0  0  0  3  0  0  0  0  0  0
  -16.6300  -28.4850   23.0050 C   0  0  0  0  0  3  0  0  0  0  0  0
  -25.8500  -32.5020   23.8270 C   0  0  0  0  0  3  0  0  0  0  0  0
  -25.5610  -33.9010   24.1720 N   0  0  0  0  0  0  0  0  0  0  0  0
  -25.8890  -34.9560   23.4130 C   0  0  0  0  0  0  0  0  0  0  0  0
  -26.5340  -34.8510   22.3670 O   0  0  0  0  0  0  0  0  0  0  0  0
  -24.9880  -34.0570   24.9880 H   0  0  0  0  0  0  0  0  0  0  0  0
  -24.1790  -36.7740   23.1050 C   0  0  0  0  0  1  0  0  0  0  0  0
  -25.4280  -36.3470   23.8920 C   0  0  0  0  0  3  0  0  0  0  0  0
  -27.5840  -37.1990   24.6990 C   0  0  0  0  0  1  0  0  0  0  0  0
  -26.4730  -37.3870   23.7710 N   0  0  0  0  0  0  0  0  0  0  0  0
  -26.0810  -38.3120   23.9300 H   0  0  0  0  0  0  0  0  0  0  0  0
  -26.3830  -31.7190   25.0890 C   0  0  1  0  0  0  0  0  0  0  0  0
  -25.3080  -31.4820   26.1760 C   0  0  0  0  0  1  0  0  0  0  0  0
  -26.9480  -30.3390   24.6790 C   0  0  0  0  0  1  0  0  0  0  0  0
  -27.5500  -32.5000   25.7360 C   0  0  0  0  0  1  0  0  0  0  0  0
  1  3  2  0
  2  1  1  0
  2  9  1  0
  4  2  1  0
  6  5  2  0
  7  5  1  0
  8  6  1  0
  9  7  2  0
 10  8  2  0
 10  9  1  0
 11 13  1  0
 11 10  1  0
 12 11  1  0
 14  8  1  0
 14 23  1  0
 15 23  1  0
 16 21  1  0
 17 18  1  0
 17 16  1  0
 19 18  1  0
 19 28  1  0
 19 20  1  0
 21 15  1  0
 21 20  1  0
 22 15  2  0
 23 24  1  0
 25 26  2  0
 26 45  1  0
 27 26  1  0
 27 30  1  0
 28 25  1  0
 28 29  1  0
 29 27  2  0
 30 31  1  0
 31 32  2  0
 33 36  1  0
 33 32  1  0
 34 33  2  0
 35 34  1  0
 35 30  2  0
 36 37  1  0
 37 42  2  0
 37 38  1  0
 38 39  2  0
 40 39  1  0
 40 44  1  0
 41 40  2  0
 42 41  1  0
 43 42  1  0
 45 46  1  0
 46 49  1  0
 46 48  1  0
 47 45  2  0
 50 51  1  0
 50 25  1  0
 52 50  1  0
 53 59  1  0
 54 53  2  0
 54  1  1  0
 55 54  1  0
 56 55  1  0
 57 55  1  0
 58 55  1  0
 60 71  2  0
 61 59  1  0
 61 66  1  0
 62 70  1  0
 62 72  1  0
 63 69  1  0
 63 65  1  0
 64 70  1  0
 65 64  1  0
 66 65  2  0
 67 68  1  0
 67 61  2  0
 68 63  2  0
 69 62  1  0
 70 60  1  0
 72 74  2  0
 73 72  1  0
 75 73  1  0
 76 85  2  0
 76 81  1  0
 77 73  1  0
 77 81  1  0
 78 77  1  0
 79 80  1  0
 79 78  1  0
 80 76  1  0
 81 82  2  0
 82 83  1  0
 84 83  2  0
 85 84  1  0
 86 60  1  0
 86 87  1  0
 86 96  1  0
 87 90  1  0
 88 92  1  0
 88 87  1  0
 89 88  2  0
 92 91  1  0
 94 92  1  0
 94 95  1  0
 94 93  1  0
 96 99  1  1
 96 97  1  0
 98 96  1  0
M  ISO  4  15 100  23 100  53 101  59 101
M  END
>  <TORSDO>  (26) 
F 21

>  <SCORE>  (26) 
-13.862

>  <name>  (26) 
25

>  <ligand_id>  (26) 
25

>  <original_smiles>  (26) 
[H]C(Oc1c([H])c([H])c2c(c1[H])C([H])([H])N(C(=O)C([H])(N([H])C(=O)C([H])(N([H])C([H])([H])[H])C([H])([H])[H])C(C([H])([H])[H])(C([H])([H])[H])C([H])([H])[H])C([H])(C(=O)N([H])C1([H])c3c([H])c([H])c([H])c([H])c3C([H])([H])C([H])([H])C1([H])[H])C2([H])[H])=C(C(=O)N([H])c1c([H])c([H])c([H])c(C([H])([H])N([H])C(=O)N2C([H])([H])C([H])([H])C([H])([H])C([H])(n3nc(-c4c([H])c([H])c(Oc5c([H])c([H])c(F)c([H])c5F)c([H])c4[H])c(C(=O)N([H])[H])c3N([H])[H])C2([H])[H])c1N([H])[H])[N+]([H])([H])[H]

>  <smiles>  (26) 
[H]C(Oc1c([H])c([H])c2c(c1[H])C([H])([H])N(C(=O)C([H])(N([H])C(=O)C([H])(N([H])C([H])([H])[H])C([H])([H])[H])C(C([H])([H])[H])(C([H])([H])[H])C([H])([H])[H])C([H])(C(=O)N([H])C1([H])c3c([H])c([H])c([H])c([H])c3C([H])([H])C([H])([H])C1([H])[H])C2([H])[H])=C(C(=O)N([H])c1c([H])c([H])c([H])c(C([H])([H])N([H])C(=O)N2C([H])([H])C([H])([H])C([H])([H])C([H])(n3nc(-c4c([H])c([H])c(Oc5c([H])c([H])c(F)c([H])c5F)c([H])c4[H])c(C(=O)N([H])[H])c3N([H])[H])C2([H])[H])c1N([H])[H])[N+]([H])([H])[H]

$$$$
26:0:0
     RDKit          3D

103112  0  0  1  0  0  0  0  0999 V2000
  -29.7090  -18.8790   19.4080 C   0  0  0  0  0  3  0  0  0  0  0  0
  -27.8680  -20.4300   19.8630 C   0  0  0  0  0  3  0  0  0  0  0  0
  -28.9020  -17.7550   19.8260 C   0  0  0  0  0  0  0  0  0  0  0  0
  -27.0550  -19.3630   20.2410 C   0  0  0  0  0  0  0  0  0  0  0  0
  -27.5440  -18.0460   20.1610 C   0  0  0  0  0  0  0  0  0  0  0  0
  -29.1850  -20.2260   19.4010 C   0  0  0  0  0  0  0  0  0  0  0  0
  -28.3080  -15.3000   20.4320 C   0  0  0  0  0  2  0  0  0  0  0  0
  -29.3500  -16.2350   19.7630 C   0  0  0  0  0  3  0  0  0  0  0  0
  -27.0110  -15.8370   21.0440 C   0  0  0  0  0  3  0  0  0  0  0  0
  -25.6400  -19.6660   20.7060 C   0  0  0  0  0  1  0  0  0  0  0  0
  -26.6050  -17.0400   20.3520 N   0  0  0  0  0  0  0  0  0  0  0  0
  -25.6250  -17.2980   20.4370 H   0  0  0  0  0  0  0  0  0  0  0  0
  -31.4420  -14.7440   20.6660 C   0  0  0  0  0  0  0  0  0  0  0  0
  -31.7410  -12.2740   20.8060 C   0  0  0  0  0  2  0  0  0  0  0  0
  -31.3480  -11.5790   19.4800 C   0  0  0  0  0  2  0  0  0  0  0  0
  -29.8270  -11.3200   19.3830 C   0  0  0  0  0  2  0  0  0  0  0  0
  -28.9960  -12.5570   19.8190 C   0  0  0  0  0  3  0  0  0  0  0  0
  -29.5370  -13.0490   21.1760 C   0  0  0  0  0  2  0  0  0  0  0  0
  -30.9120  -13.4960   20.9410 N   0  0  0  0  0  0  0  0  0  0  0  0
  -32.6660  -14.8830   20.7100 O   0  0  0  0  0  0  0  0  0  0  0  0
  -30.7330  -15.8450   20.2110 N   0  0  0  0  0  0  0  0  0  0  0  0
  -31.3730  -16.6140   20.0740 H   0  0  0  0  0  0  0  0  0  0  0  0
  -26.5080  -13.0160   19.3430 C   0  0  0  0  0  0  0  0  0  0  0  0
  -25.3820  -12.2790   19.5880 C   0  0  0  0  0  0  0  0  0  0  0  0
  -25.8260  -11.0780   20.2200 C   0  0  0  0  0  0  0  0  0  0  0  0
  -27.5630  -12.2720   19.8500 N   0  0  0  0  0  0  0  0  0  0  0  0
  -27.1360  -11.1230   20.4260 N   0  0  0  0  0  0  0  0  0  0  0  0
  -25.0910   -9.8620   20.5820 C   0  0  0  0  0  0  0  0  0  0  0  0
  -25.2090   -9.2870   21.8640 C   0  0  0  0  0  3  0  0  0  0  0  0
  -24.4760   -8.1260   22.1970 C   0  0  0  0  0  3  0  0  0  0  0  0
  -23.6110   -7.5350   21.2460 C   0  0  0  0  0  0  0  0  0  0  0  0
  -23.5160   -8.1010   19.9620 C   0  0  0  0  0  3  0  0  0  0  0  0
  -24.2500   -9.2510   19.6310 C   0  0  0  0  0  3  0  0  0  0  0  0
  -22.8800   -6.3940   21.4710 O   0  0  0  0  0  0  0  0  0  0  0  0
  -22.4090   -6.0740   22.7180 C   0  0  0  0  0  0  0  0  0  0  0  0
  -21.5810   -6.9550   23.4490 C   0  0  0  0  0  3  0  0  0  0  0  0
  -21.0640   -6.5570   24.6970 C   0  0  0  0  0  3  0  0  0  0  0  0
  -21.3640   -5.2820   25.2110 C   0  0  0  0  0  0  0  0  0  0  0  0
  -22.1830   -4.4040   24.4840 C   0  0  0  0  0  3  0  0  0  0  0  0
  -22.7020   -4.7970   23.2380 C   0  0  0  0  0  0  0  0  0  0  0  0
  -23.4730   -3.9380   22.5290 F   0  0  0  0  0  0  0  0  0  0  0  0
  -20.8590   -4.9000   26.4080 F   0  0  0  0  0  0  0  0  0  0  0  0
  -23.9830  -12.6250   19.1630 C   0  0  0  0  0  0  0  0  0  0  0  0
  -22.9890  -12.2160   19.9430 N   0  0  0  0  0  0  0  0  0  0  0  0
  -23.7650  -13.3140   18.1660 O   0  0  0  0  0  0  0  0  0  0  0  0
  -23.1610  -11.6410   20.7560 H   0  0  0  0  0  0  0  0  0  0  0  0
  -22.0390  -12.4810   19.7200 H   0  0  0  0  0  0  0  0  0  0  0  0
  -26.7210  -14.2290   18.7080 N   0  0  0  0  0  0  0  0  0  0  0  0
  -25.9620  -14.6910   18.2230 H   0  0  0  0  0  0  0  0  0  0  0  0
  -27.6340  -14.5590   18.4250 H   0  0  0  0  0  0  0  0  0  0  0  0
  -30.0350  -22.5880   19.4740 C   0  0  0  0  0  0  0  0  0  0  0  0
  -29.8450  -21.3910   18.8330 N   0  0  0  0  0  0  0  0  0  0  0  0
  -30.2470  -22.6250   20.6870 O   0  0  0  0  0  0  0  0  0  0  0  0
  -29.9620  -21.3920   17.8260 H   0  0  0  0  0  0  0  0  0  0  0  0
  -30.0530  -23.9470   18.6980 C   0  0  0  0  0  2  0  0  0  0  0  0
  -29.0590  -25.0400   19.2620 C   0  0  0  0  0  2  0  0  0  0  0  0
  -29.3070  -26.4560   18.9430 O   0  0  0  0  0  0  0  0  0  0  0  0
  -26.0030  -31.0080   23.4580 C   0  0  0  0  0  0  0  0  0  0  0  0
  -28.2650  -27.3530   19.1810 C   0  0  0  0  0  0  0  0  0  0  0  0
  -24.7520  -30.3100   21.4660 C   0  0  0  0  0  3  0  0  0  0  0  0
  -26.0770  -29.1110   19.6430 C   0  0  0  0  0  0  0  0  0  0  0  0
  -27.3010  -30.3900   21.4050 C   0  0  0  0  0  2  0  0  0  0  0  0
  -27.2600  -29.2720   20.3750 C   0  0  0  0  0  0  0  0  0  0  0  0
  -28.3600  -28.4000   20.1410 C   0  0  0  0  0  3  0  0  0  0  0  0
  -27.0690  -27.2520   18.4340 C   0  0  0  0  0  3  0  0  0  0  0  0
  -25.9770  -28.1060   18.6700 C   0  0  0  0  0  3  0  0  0  0  0  0
  -24.9400  -30.0640   19.9440 C   0  0  0  0  0  2  0  0  0  0  0  0
  -26.0390  -30.5640   22.1710 N   0  0  0  0  0  0  0  0  0  0  0  0
  -24.9270  -31.2390   24.0330 O   0  0  0  0  0  0  0  0  0  0  0  0
  -23.9480  -29.1370   22.0670 C   0  0  0  0  0  0  0  0  0  0  0  0
  -22.6380  -29.2760   21.9090 N   0  0  0  0  0  0  0  0  0  0  0  0
  -24.4830  -28.1650   22.6000 O   0  0  0  0  0  0  0  0  0  0  0  0
  -22.3610  -30.1710   21.5310 H   0  0  0  0  0  0  0  0  0  0  0  0
  -19.0500  -28.2570   22.1520 C   0  0  0  0  0  0  0  0  0  0  0  0
  -21.5540  -28.3310   21.9740 C   0  0  0  0  0  3  0  0  0  0  0  0
  -21.5510  -27.0350   21.1530 C   0  0  0  0  0  2  0  0  0  0  0  0
  -20.3200  -27.0610   20.2210 C   0  0  0  0  0  2  0  0  0  0  0  0
  -18.9990  -27.2490   21.0000 C   0  0  0  0  0  2  0  0  0  0  0  0
  -20.2810  -28.6970   22.6970 C   0  0  0  0  0  0  0  0  0  0  0  0
  -20.2970  -29.6110   23.7680 C   0  0  0  0  0  3  0  0  0  0  0  0
  -19.0900  -30.1320   24.2650 C   0  0  0  0  0  3  0  0  0  0  0  0
  -17.8640  -29.7240   23.7080 C   0  0  0  0  0  3  0  0  0  0  0  0
  -17.8450  -28.7770   22.6670 C   0  0  0  0  0  3  0  0  0  0  0  0
  -27.3110  -31.2680   24.2600 C   0  0  0  0  0  3  0  0  0  0  0  0
  -27.0350  -32.3540   25.2100 N   0  0  0  0  0  0  0  0  0  0  0  0
  -27.3630  -33.6380   25.0110 C   0  0  0  0  0  0  0  0  0  0  0  0
  -28.0040  -34.0210   24.0290 O   0  0  0  0  0  0  0  0  0  0  0  0
  -26.4720  -32.1240   26.0140 H   0  0  0  0  0  0  0  0  0  0  0  0
  -25.6540  -35.3970   25.5790 C   0  0  0  0  0  1  0  0  0  0  0  0
  -26.9100  -34.6610   26.0730 C   0  0  0  0  0  3  0  0  0  0  0  0
  -29.0850  -35.0530   27.1470 C   0  0  0  0  0  1  0  0  0  0  0  0
  -27.9580  -35.6420   26.4270 N   0  0  0  0  0  0  0  0  0  0  0  0
  -27.5710  -36.3870   27.0000 H   0  0  0  0  0  0  0  0  0  0  0  0
  -27.8400  -29.9860   25.0130 C   0  0  1  0  0  0  0  0  0  0  0  0
  -26.7500  -29.2480   25.8290 C   0  0  0  0  0  1  0  0  0  0  0  0
  -28.4410  -28.9720   24.0080 C   0  0  0  0  0  1  0  0  0  0  0  0
  -28.9760  -30.3790   25.9860 C   0  0  0  0  0  1  0  0  0  0  0  0
  -25.8790  -14.7680   20.9770 C   0  0  0  0  0  0  0  0  0  0  0  0
  -25.2030  -14.6060   19.9490 O   0  0  0  0  0  0  0  0  0  0  0  0
  -25.5990  -13.9160   22.2350 C   0  0  1  0  0  0  0  0  0  0  0  0
  -26.6890  -13.2500   22.6200 F   0  0  0  0  0  0  0  0  0  0  0  0
  -25.1980  -14.6950   23.2390 F   0  0  0  0  0  0  0  0  0  0  0  0
  -24.6320  -13.0280   21.9880 F   0  0  0  0  0  0  0  0  0  0  0  0
  1  3  1  0
  2  4  2  0
  3  5  2  0
  4 10  1  0
  5  4  1  0
  5 11  1  0
  6  1  2  0
  6  2  1  0
  7  9  1  0
  8  3  1  0
  8 21  1  0
  8  7  1  0
  9 98  1  0
 11 12  1  0
 11  9  1  0
 13 20  2  0
 13 19  1  0
 14 19  1  0
 15 14  1  0
 16 15  1  0
 17 16  1  0
 17 26  1  0
 17 18  1  0
 19 18  1  0
 21 13  1  0
 22 21  1  0
 23 24  2  0
 23 26  1  0
 24 25  1  0
 25 27  2  0
 25 28  1  0
 26 27  1  0
 28 29  1  0
 29 30  2  0
 31 34  1  0
 31 30  1  0
 32 31  2  0
 33 32  1  0
 33 28  2  0
 34 35  1  0
 35 40  2  0
 35 36  1  0
 36 37  2  0
 37 38  1  0
 38 42  1  0
 39 38  2  0
 40 39  1  0
 41 40  1  0
 43 24  1  0
 43 44  1  0
 44 46  1  0
 45 43  2  0
 47 44  1  0
 48 23  1  0
 49 48  1  0
 50 48  1  0
 51 53  2  0
 52  6  1  0
 52 51  1  0
 54 52  1  0
 55 56  1  0
 55 51  1  0
 57 59  1  0
 57 56  1  0
 58 69  2  0
 59 64  1  0
 60 70  1  0
 60 68  1  0
 61 67  1  0
 61 63  1  0
 62 68  1  0
 63 62  1  0
 64 63  2  0
 65 66  1  0
 65 59  2  0
 66 61  2  0
 67 60  1  0
 68 58  1  0
 70 72  2  0
 71 70  1  0
 73 71  1  0
 74 83  2  0
 74 79  1  0
 75 71  1  0
 75 79  1  0
 76 75  1  0
 77 78  1  0
 77 76  1  0
 78 74  1  0
 79 80  2  0
 80 81  1  0
 82 81  2  0
 83 82  1  0
 84 58  1  0
 84 94  1  0
 84 85  1  0
 85 88  1  0
 86 85  1  0
 86 90  1  0
 87 86  2  0
 90 89  1  0
 90 92  1  0
 92 93  1  0
 92 91  1  0
 94 95  1  1
 94 97  1  0
 96 94  1  0
 98100  1  0
 99 98  2  0
100101  1  1
100102  1  0
103100  1  0
M  ISO  4  13 100  21 100  56 101  57 101
M  END
>  <TORSDO>  (27) 
F 21

>  <SCORE>  (27) 
4.872

>  <name>  (27) 
26

>  <ligand_id>  (27) 
26

>  <original_smiles>  (27) 
[H]c1c([H])c([H])c2c(c1[H])C([H])([H])C([H])([H])C([H])([H])C2([H])N([H])C(=O)C1([H])N(C(=O)C([H])(N([H])C(=O)C([H])(N([H])C([H])([H])[H])C([H])([H])[H])C(C([H])([H])[H])(C([H])([H])[H])C([H])([H])[H])C([H])([H])c2c([H])c(OC([H])([H])C([H])([H])C(=O)N([H])c3c([H])c(C([H])([H])[H])c4c(c3[H])C([H])(N([H])C(=O)N3C([H])([H])C([H])([H])C([H])([H])C([H])(n5nc(-c6c([H])c([H])c(Oc7c([H])c([H])c(F)c([H])c7F)c([H])c6[H])c(C(=O)N([H])[H])c5N([H])[H])C3([H])[H])C([H])([H])C([H])(C(=O)C(F)(F)F)N4[H])c([H])c([H])c2C1([H])[H]

>  <smiles>  (27) 
[H]c1c([H])c([H])c2c(c1[H])C([H])([H])C([H])([H])C([H])([H])C2([H])N([H])C(=O)C1([H])N(C(=O)C([H])(N([H])C(=O)C([H])(N([H])C([H])([H])[H])C([H])([H])[H])C(C([H])([H])[H])(C([H])([H])[H])C([H])([H])[H])C([H])([H])c2c([H])c(OC([H])([H])C([H])([H])C(=O)N([H])c3c([H])c(C([H])([H])[H])c4c(c3[H])C([H])(N([H])C(=O)N3C([H])([H])C([H])([H])C([H])([H])C([H])(n5nc(-c6c([H])c([H])c(Oc7c([H])c([H])c(F)c([H])c7F)c([H])c6[H])c(C(=O)N([H])[H])c5N([H])[H])C3([H])[H])C([H])([H])C([H])(C(=O)C(F)(F)F)N4[H])c([H])c([H])c2C1([H])[H]

$$$$
27:0:0
     RDKit          3D

 97105  0  0  1  0  0  0  0  0999 V2000
  -29.6670  -20.8940   19.2030 C   0  0  0  0  0  0  0  0  0  0  0  0
  -28.8780  -21.0500   18.1350 N   0  0  0  0  0  4  0  0  0  0  0  0
  -30.1690  -21.9900   19.8080 N   0  0  0  0  0  0  0  0  0  0  0  0
  -28.4760  -20.2420   17.6870 H   0  0  0  0  0  0  0  0  0  0  0  0
  -28.6610  -21.9510   17.7460 H   0  0  0  0  0  0  0  0  0  0  0  0
  -30.7610  -21.8350   20.6160 H   0  0  0  0  0  0  0  0  0  0  0  0
  -30.0270  -18.4980   18.6920 C   0  0  0  0  0  3  0  0  0  0  0  0
  -30.1480  -17.1510   19.0810 C   0  0  0  0  0  3  0  0  0  0  0  0
  -30.1390  -17.8250   21.4200 C   0  0  0  0  0  3  0  0  0  0  0  0
  -29.9400  -19.5230   19.6610 C   0  0  0  0  0  0  0  0  0  0  0  0
  -30.1950  -16.7970   20.4530 C   0  0  0  0  0  0  0  0  0  0  0  0
  -30.0360  -19.1810   21.0320 C   0  0  0  0  0  0  0  0  0  0  0  0
  -30.0070  -20.1410   21.9900 F   0  0  0  0  0  0  0  0  0  0  0  0
  -30.8490  -14.4450   20.1920 C   0  0  0  0  0  0  0  0  0  0  0  0
  -30.4750  -12.3190   19.0310 C   0  0  0  0  0  2  0  0  0  0  0  0
  -29.4840  -12.5750   17.8760 C   0  0  0  0  0  2  0  0  0  0  0  0
  -28.0300  -12.4460   18.3680 C   0  0  0  0  0  2  0  0  0  0  0  0
  -27.7590  -13.2680   19.6580 C   0  0  0  0  0  3  0  0  0  0  0  0
  -28.8550  -12.9980   20.7160 C   0  0  0  0  0  2  0  0  0  0  0  0
  -30.1680  -13.2750   20.1070 N   0  0  0  0  0  0  0  0  0  0  0  0
  -31.9190  -14.6460   19.6090 O   0  0  0  0  0  0  0  0  0  0  0  0
  -30.2350  -15.4300   20.8660 N   0  0  0  0  0  0  0  0  0  0  0  0
  -29.5540  -15.1460   21.5540 H   0  0  0  0  0  0  0  0  0  0  0  0
  -25.4030  -13.8910   20.4970 C   0  0  0  0  0  0  0  0  0  0  0  0
  -24.3440  -13.1170   20.8960 C   0  0  0  0  0  0  0  0  0  0  0  0
  -24.7860  -11.7630   20.8040 C   0  0  0  0  0  0  0  0  0  0  0  0
  -26.4230  -13.0020   20.1890 N   0  0  0  0  0  0  0  0  0  0  0  0
  -26.0570  -11.7170   20.4280 N   0  0  0  0  0  0  0  0  0  0  0  0
  -24.0560  -10.5020   20.9920 C   0  0  0  0  0  0  0  0  0  0  0  0
  -24.4800   -9.5340   21.9290 C   0  0  0  0  0  3  0  0  0  0  0  0
  -23.7480   -8.3380   22.1010 C   0  0  0  0  0  3  0  0  0  0  0  0
  -22.5790   -8.1050   21.3390 C   0  0  0  0  0  0  0  0  0  0  0  0
  -22.1770   -9.0630   20.3910 C   0  0  0  0  0  3  0  0  0  0  0  0
  -22.9090  -10.2480   20.2160 C   0  0  0  0  0  3  0  0  0  0  0  0
  -21.8190   -6.9630   21.4230 O   0  0  0  0  0  0  0  0  0  0  0  0
  -21.7070   -6.2590   22.5940 C   0  0  0  0  0  0  0  0  0  0  0  0
  -21.1530   -6.8320   23.7610 C   0  0  0  0  0  3  0  0  0  0  0  0
  -20.9910   -6.0510   24.9210 C   0  0  0  0  0  3  0  0  0  0  0  0
  -21.3700   -4.6950   24.9170 C   0  0  0  0  0  0  0  0  0  0  0  0
  -21.9160   -4.1200   23.7560 C   0  0  0  0  0  3  0  0  0  0  0  0
  -22.0790   -4.8990   22.5960 C   0  0  0  0  0  0  0  0  0  0  0  0
  -22.5860   -4.3340   21.4740 F   0  0  0  0  0  0  0  0  0  0  0  0
  -21.2080   -3.9410   26.0300 F   0  0  0  0  0  0  0  0  0  0  0  0
  -22.9670  -13.6040   21.2540 C   0  0  0  0  0  0  0  0  0  0  0  0
  -22.2690  -12.8850   22.1270 N   0  0  0  0  0  0  0  0  0  0  0  0
  -22.5200  -14.6530   20.7950 O   0  0  0  0  0  0  0  0  0  0  0  0
  -22.6400  -12.0340   22.5250 H   0  0  0  0  0  0  0  0  0  0  0  0
  -21.3470  -13.1900   22.4050 H   0  0  0  0  0  0  0  0  0  0  0  0
  -25.5790  -15.2630   20.3500 N   0  0  0  0  0  0  0  0  0  0  0  0
  -24.8400  -15.9330   20.5350 H   0  0  0  0  0  0  0  0  0  0  0  0
  -26.4190  -15.6950   19.9850 H   0  0  0  0  0  0  0  0  0  0  0  0
  -29.8870  -23.3930   19.4310 C   0  0  0  0  0  2  0  0  0  0  0  0
  -28.5040  -23.4060   21.5990 C   0  0  0  0  0  1  0  0  0  0  0  0
  -30.4020  -25.0180   21.3140 C   0  0  0  0  0  1  0  0  0  0  0  0
  -29.2840  -24.2690   20.5700 C   0  0  1  0  0  0  0  0  0  0  0  0
  -28.2790  -25.2640   19.9150 C   0  0  0  0  0  2  0  0  0  0  0  0
  -28.4300  -26.6610   20.2250 O   0  0  0  0  0  0  0  0  0  0  0  0
  -24.6460  -31.8980   23.1600 C   0  0  0  0  0  0  0  0  0  0  0  0
  -27.2760  -27.4180   20.1420 C   0  0  0  0  0  0  0  0  0  0  0  0
  -23.4380  -30.4680   21.5470 C   0  0  0  0  0  3  0  0  0  0  0  0
  -24.8850  -28.9310   20.1280 C   0  0  0  0  0  0  0  0  0  0  0  0
  -25.9580  -30.8370   21.3270 C   0  0  0  0  0  2  0  0  0  0  0  0
  -26.0430  -29.4570   20.7140 C   0  0  0  0  0  0  0  0  0  0  0  0
  -27.2380  -28.7030   20.7340 C   0  0  0  0  0  3  0  0  0  0  0  0
  -26.1050  -26.9370   19.5070 C   0  0  0  0  0  3  0  0  0  0  0  0
  -24.9090  -27.6660   19.5290 C   0  0  0  0  0  3  0  0  0  0  0  0
  -23.6410  -29.7810   20.1700 C   0  0  0  0  0  2  0  0  0  0  0  0
  -24.7010  -31.0810   22.0710 N   0  0  0  0  0  0  0  0  0  0  0  0
  -23.5650  -32.1710   23.7010 O   0  0  0  0  0  0  0  0  0  0  0  0
  -22.7960  -29.4560   22.5250 C   0  0  0  0  0  0  0  0  0  0  0  0
  -21.4710  -29.2690   22.4150 N   0  0  0  0  0  0  0  0  0  0  0  0
  -23.4880  -28.8440   23.3440 O   0  0  0  0  0  0  0  0  0  0  0  0
  -20.9670  -29.8290   21.7420 H   0  0  0  0  0  0  0  0  0  0  0  0
  -18.1070  -28.0620   22.9590 C   0  0  0  0  0  0  0  0  0  0  0  0
  -20.6690  -28.3290   23.2020 C   0  0  0  0  0  3  0  0  0  0  0  0
  -20.7660  -26.8960   22.6270 C   0  0  0  0  0  2  0  0  0  0  0  0
  -19.6530  -26.5780   21.6250 C   0  0  0  0  0  2  0  0  0  0  0  0
  -18.2780  -26.7130   22.2830 C   0  0  0  0  0  2  0  0  0  0  0  0
  -19.2300  -28.8280   23.3760 C   0  0  0  0  0  0  0  0  0  0  0  0
  -19.0140  -30.0940   23.9640 C   0  0  0  0  0  3  0  0  0  0  0  0
  -17.7090  -30.5980   24.1300 C   0  0  0  0  0  3  0  0  0  0  0  0
  -16.6040  -29.8290   23.7250 C   0  0  0  0  0  3  0  0  0  0  0  0
  -16.8030  -28.5630   23.1480 C   0  0  0  0  0  3  0  0  0  0  0  0
  -25.9320  -32.5440   23.7630 C   0  0  0  0  0  3  0  0  0  0  0  0
  -26.4980  -31.7540   25.0050 C   0  0  1  0  0  0  0  0  0  0  0  0
  -25.4380  -31.4560   26.0920 C   0  0  0  0  0  1  0  0  0  0  0  0
  -27.1120  -30.4080   24.5580 C   0  0  0  0  0  1  0  0  0  0  0  0
  -27.6450  -32.5560   25.6590 C   0  0  0  0  0  1  0  0  0  0  0  0
  -25.5990  -33.9260   24.1360 N   0  0  0  0  0  0  0  0  0  0  0  0
  -25.8680  -35.0000   23.3820 C   0  0  0  0  0  0  0  0  0  0  0  0
  -26.4950  -34.9340   22.3210 O   0  0  0  0  0  0  0  0  0  0  0  0
  -25.0380  -34.0490   24.9660 H   0  0  0  0  0  0  0  0  0  0  0  0
  -24.0850  -36.7530   23.1190 C   0  0  0  0  0  1  0  0  0  0  0  0
  -25.3610  -36.3670   23.8840 C   0  0  0  0  0  3  0  0  0  0  0  0
  -27.4940  -37.2950   24.6670 C   0  0  0  0  0  1  0  0  0  0  0  0
  -26.3650  -37.4480   23.7540 N   0  0  0  0  0  0  0  0  0  0  0  0
  -25.9410  -38.3580   23.9180 H   0  0  0  0  0  0  0  0  0  0  0  0
  1 10  1  0
  1  3  1  0
  2  1  2  0
  3  6  1  0
  4  2  1  0
  5  2  1  0
  7  8  2  0
  7 10  1  0
  8 11  1  0
 10 12  2  0
 11 22  1  0
 11  9  2  0
 12  9  1  0
 12 13  1  0
 14 22  1  0
 15 20  1  0
 16 17  1  0
 16 15  1  0
 18 17  1  0
 18 27  1  0
 18 19  1  0
 20 14  1  0
 20 19  1  0
 21 14  2  0
 22 23  1  0
 24 25  2  0
 25 44  1  0
 26 25  1  0
 26 29  1  0
 27 28  1  0
 27 24  1  0
 28 26  2  0
 29 30  1  0
 30 31  2  0
 32 35  1  0
 32 31  1  0
 33 32  2  0
 34 33  1  0
 34 29  2  0
 35 36  1  0
 36 41  2  0
 36 37  1  0
 37 38  2  0
 39 38  1  0
 39 43  1  0
 40 39  2  0
 41 40  1  0
 42 41  1  0
 44 45  1  0
 45 48  1  0
 45 47  1  0
 46 44  2  0
 49 24  1  0
 49 50  1  0
 51 49  1  0
 52  3  1  0
 52 55  1  0
 55 54  1  1
 55 53  1  0
 56 57  1  0
 56 55  1  0
 58 69  2  0
 59 57  1  0
 59 64  1  0
 60 68  1  0
 60 70  1  0
 61 67  1  0
 61 63  1  0
 62 68  1  0
 63 64  2  0
 63 62  1  0
 65 66  1  0
 65 59  2  0
 66 61  2  0
 67 60  1  0
 68 58  1  0
 70 72  2  0
 71 70  1  0
 73 71  1  0
 74 83  2  0
 74 79  1  0
 75 71  1  0
 75 79  1  0
 76 75  1  0
 77 78  1  0
 77 76  1  0
 78 74  1  0
 79 80  2  0
 80 81  1  0
 82 81  2  0
 83 82  1  0
 84 58  1  0
 84 89  1  0
 84 85  1  0
 85 88  1  1
 85 86  1  0
 87 85  1  0
 89 92  1  0
 90 94  1  0
 90 89  1  0
 91 90  2  0
 94 93  1  0
 96 94  1  0
 96 97  1  0
 96 95  1  0
M  ISO  4  14 100  22 100  56 101  57 101
M  END
>  <TORSDO>  (28) 
F 20

>  <SCORE>  (28) 
-13.909

>  <name>  (28) 
27

>  <ligand_id>  (28) 
27

>  <original_smiles>  (28) 
[H]c1c([H])c([H])c2c(c1[H])C([H])([H])C([H])([H])C([H])([H])C2([H])N([H])C(=O)C1([H])N(C(=O)C([H])(N([H])C(=O)C([H])(N([H])C([H])([H])[H])C([H])([H])[H])C(C([H])([H])[H])(C([H])([H])[H])C([H])([H])[H])C([H])([H])c2c([H])c(OC([H])([H])C(C([H])([H])[H])(C([H])([H])[H])C([H])([H])[N+]([H])=C(c3c([H])c([H])c(N([H])C(=O)N4C([H])([H])C([H])([H])C([H])([H])C([H])(n5nc(-c6c([H])c([H])c(Oc7c([H])c([H])c(F)c([H])c7F)c([H])c6[H])c(C(=O)N([H])[H])c5N([H])[H])C4([H])[H])c([H])c3F)N([H])[H])c([H])c([H])c2C1([H])[H]

>  <smiles>  (28) 
[H]c1c([H])c([H])c2c(c1[H])C([H])([H])C([H])([H])C([H])([H])C2([H])N([H])C(=O)C1([H])N(C(=O)C([H])(N([H])C(=O)C([H])(N([H])C([H])([H])[H])C([H])([H])[H])C(C([H])([H])[H])(C([H])([H])[H])C([H])([H])[H])C([H])([H])c2c([H])c(OC([H])([H])C(C([H])([H])[H])(C([H])([H])[H])C([H])([H])[N+]([H])=C(c3c([H])c([H])c(N([H])C(=O)N4C([H])([H])C([H])([H])C([H])([H])C([H])(n5nc(-c6c([H])c([H])c(Oc7c([H])c([H])c(F)c([H])c7F)c([H])c6[H])c(C(=O)N([H])[H])c5N([H])[H])C4([H])[H])c([H])c3F)N([H])[H])c([H])c([H])c2C1([H])[H]

$$$$
28:0:0
     RDKit          3D

 96104  0  0  1  0  0  0  0  0999 V2000
  -29.1490  -21.2220   21.2470 N   0  0  0  0  0  4  0  0  0  0  0  0
  -30.0310  -21.3160   21.7250 H   0  0  0  0  0  0  0  0  0  0  0  0
  -28.4870  -20.8880   21.9290 H   0  0  0  0  0  0  0  0  0  0  0  0
  -29.2930  -20.2400   20.1550 C   0  0  0  0  0  2  0  0  0  0  0  0
  -32.4760  -18.3350   21.1290 C   0  0  0  0  0  3  0  0  0  0  0  0
  -31.5890  -19.3780   20.7970 C   0  0  0  0  0  3  0  0  0  0  0  0
  -32.0120  -17.0070   21.1770 C   0  0  0  0  0  3  0  0  0  0  0  0
  -30.2270  -19.1020   20.5380 C   0  0  0  0  0  0  0  0  0  0  0  0
  -30.6610  -16.7210   20.8840 C   0  0  0  0  0  0  0  0  0  0  0  0
  -29.7640  -17.7680   20.5910 C   0  0  0  0  0  0  0  0  0  0  0  0
  -28.4660  -17.4800   20.3180 F   0  0  0  0  0  0  0  0  0  0  0  0
  -30.6990  -14.4740   19.9950 C   0  0  0  0  0  0  0  0  0  0  0  0
  -30.3090  -12.3350   18.8400 C   0  0  0  0  0  2  0  0  0  0  0  0
  -29.2690  -12.5120   17.7170 C   0  0  0  0  0  2  0  0  0  0  0  0
  -27.8420  -12.3340   18.2680 C   0  0  0  0  0  2  0  0  0  0  0  0
  -27.5850  -13.1780   19.5440 C   0  0  0  0  0  3  0  0  0  0  0  0
  -28.7290  -12.9980   20.5670 C   0  0  0  0  0  2  0  0  0  0  0  0
  -30.0020  -13.3120   19.8950 N   0  0  0  0  0  0  0  0  0  0  0  0
  -31.7090  -14.7080   19.3240 O   0  0  0  0  0  0  0  0  0  0  0  0
  -30.2020  -15.3830   20.8410 N   0  0  0  0  0  0  0  0  0  0  0  0
  -29.3000  -15.1850   21.2440 H   0  0  0  0  0  0  0  0  0  0  0  0
  -25.2570  -13.7290   20.4950 C   0  0  0  0  0  0  0  0  0  0  0  0
  -24.2300  -12.9280   20.9210 C   0  0  0  0  0  0  0  0  0  0  0  0
  -24.6940  -11.5850   20.7800 C   0  0  0  0  0  0  0  0  0  0  0  0
  -26.2820  -12.8710   20.1280 N   0  0  0  0  0  0  0  0  0  0  0  0
  -25.9500  -11.5730   20.3530 N   0  0  0  0  0  0  0  0  0  0  0  0
  -23.9950  -10.3070   20.9700 C   0  0  0  0  0  0  0  0  0  0  0  0
  -24.4500   -9.3480   21.9020 C   0  0  0  0  0  3  0  0  0  0  0  0
  -23.7510   -8.1350   22.0810 C   0  0  0  0  0  3  0  0  0  0  0  0
  -22.5820   -7.8720   21.3260 C   0  0  0  0  0  0  0  0  0  0  0  0
  -22.1470   -8.8210   20.3840 C   0  0  0  0  0  3  0  0  0  0  0  0
  -22.8480  -10.0250   20.2040 C   0  0  0  0  0  3  0  0  0  0  0  0
  -21.8520   -6.7110   21.4140 O   0  0  0  0  0  0  0  0  0  0  0  0
  -21.7580   -6.0070   22.5890 C   0  0  0  0  0  0  0  0  0  0  0  0
  -21.1990   -6.5760   23.7550 C   0  0  0  0  0  3  0  0  0  0  0  0
  -21.0570   -5.7950   24.9190 C   0  0  0  0  0  3  0  0  0  0  0  0
  -21.4640   -4.4470   24.9190 C   0  0  0  0  0  0  0  0  0  0  0  0
  -22.0160   -3.8790   23.7570 C   0  0  0  0  0  3  0  0  0  0  0  0
  -22.1600   -4.6570   22.5940 C   0  0  0  0  0  0  0  0  0  0  0  0
  -22.6720   -4.0980   21.4720 F   0  0  0  0  0  0  0  0  0  0  0  0
  -21.3220   -3.6940   26.0350 F   0  0  0  0  0  0  0  0  0  0  0  0
  -22.8610  -13.3770   21.3450 C   0  0  0  0  0  0  0  0  0  0  0  0
  -22.2180  -12.6250   22.2320 N   0  0  0  0  0  0  0  0  0  0  0  0
  -22.3740  -14.4270   20.9280 O   0  0  0  0  0  0  0  0  0  0  0  0
  -22.6270  -11.7730   22.5880 H   0  0  0  0  0  0  0  0  0  0  0  0
  -21.3040  -12.9050   22.5590 H   0  0  0  0  0  0  0  0  0  0  0  0
  -25.4000  -15.1080   20.3750 N   0  0  0  0  0  0  0  0  0  0  0  0
  -24.6480  -15.7530   20.5910 H   0  0  0  0  0  0  0  0  0  0  0  0
  -26.2290  -15.5710   20.0200 H   0  0  0  0  0  0  0  0  0  0  0  0
  -28.7540  -22.5760   20.8000 C   0  0  0  0  0  2  0  0  0  0  0  0
  -29.1100  -23.5910   21.8950 C   0  0  0  0  0  0  0  0  0  0  0  0
  -29.5310  -23.2130   22.9980 O   0  0  0  0  0  0  0  0  0  0  0  0
  -28.9540  -25.1060   21.5870 C   0  0  0  0  0  0  0  0  0  0  0  0
  -29.1500  -25.9470   22.4770 O   0  0  0  0  0  0  0  0  0  0  0  0
  -28.5670  -25.5240   20.1580 C   0  0  0  0  0  2  0  0  0  0  0  0
  -28.5590  -26.9520   20.0250 O   0  0  0  0  0  0  0  0  0  0  0  0
  -24.6240  -31.9100   23.2340 C   0  0  0  0  0  0  0  0  0  0  0  0
  -27.3500  -27.6090   20.0470 C   0  0  0  0  0  0  0  0  0  0  0  0
  -23.4460  -30.5450   21.5400 C   0  0  0  0  0  3  0  0  0  0  0  0
  -24.9290  -29.0680   20.0830 C   0  0  0  0  0  0  0  0  0  0  0  0
  -25.9650  -30.9460   21.3700 C   0  0  0  0  0  2  0  0  0  0  0  0
  -26.0730  -29.5950   20.6930 C   0  0  0  0  0  0  0  0  0  0  0  0
  -27.2850  -28.8750   20.6700 C   0  0  0  0  0  3  0  0  0  0  0  0
  -26.1880  -27.0940   19.4250 C   0  0  0  0  0  3  0  0  0  0  0  0
  -24.9800  -27.8170   19.4450 C   0  0  0  0  0  3  0  0  0  0  0  0
  -23.6750  -29.9090   20.1420 C   0  0  0  0  0  2  0  0  0  0  0  0
  -24.6970  -31.1450   22.1080 N   0  0  0  0  0  0  0  0  0  0  0  0
  -23.5370  -32.1500   23.7750 O   0  0  0  0  0  0  0  0  0  0  0  0
  -22.8040  -29.4850   22.4620 C   0  0  0  0  0  0  0  0  0  0  0  0
  -21.4890  -29.2710   22.2990 N   0  0  0  0  0  0  0  0  0  0  0  0
  -23.4860  -28.8600   23.2790 O   0  0  0  0  0  0  0  0  0  0  0  0
  -21.0010  -29.8320   21.6140 H   0  0  0  0  0  0  0  0  0  0  0  0
  -18.1350  -27.9850   22.6840 C   0  0  0  0  0  0  0  0  0  0  0  0
  -20.6770  -28.2950   23.0270 C   0  0  0  0  0  3  0  0  0  0  0  0
  -20.8280  -26.8820   22.4190 C   0  0  0  0  0  2  0  0  0  0  0  0
  -19.7610  -26.5570   21.3710 C   0  0  0  0  0  2  0  0  0  0  0  0
  -18.3600  -26.6550   21.9840 C   0  0  0  0  0  2  0  0  0  0  0  0
  -19.2250  -28.7630   23.1590 C   0  0  0  0  0  0  0  0  0  0  0  0
  -18.9630  -30.0080   23.7720 C   0  0  0  0  0  3  0  0  0  0  0  0
  -17.6430  -30.4770   23.9150 C   0  0  0  0  0  3  0  0  0  0  0  0
  -16.5670  -29.6960   23.4590 C   0  0  0  0  0  3  0  0  0  0  0  0
  -16.8140  -28.4520   22.8500 C   0  0  0  0  0  3  0  0  0  0  0  0
  -25.8990  -32.5360   23.8820 C   0  0  0  0  0  3  0  0  0  0  0  0
  -25.5710  -33.9170   24.2530 N   0  0  0  0  0  0  0  0  0  0  0  0
  -25.8970  -34.9970   23.5300 C   0  0  0  0  0  0  0  0  0  0  0  0
  -26.5780  -34.9360   22.5020 O   0  0  0  0  0  0  0  0  0  0  0  0
  -24.9670  -34.0390   25.0530 H   0  0  0  0  0  0  0  0  0  0  0  0
  -24.1520  -36.7810   23.2130 C   0  0  0  0  0  1  0  0  0  0  0  0
  -25.3880  -36.3640   24.0260 C   0  0  0  0  0  3  0  0  0  0  0  0
  -27.4970  -37.2490   24.9180 C   0  0  0  0  0  1  0  0  0  0  0  0
  -26.4090  -37.4320   23.9600 N   0  0  0  0  0  0  0  0  0  0  0  0
  -25.9900  -38.3420   24.1310 H   0  0  0  0  0  0  0  0  0  0  0  0
  -26.4200  -31.7290   25.1330 C   0  0  1  0  0  0  0  0  0  0  0  0
  -25.3190  -31.4130   26.1720 C   0  0  0  0  0  1  0  0  0  0  0  0
  -27.0490  -30.3870   24.6890 C   0  0  0  0  0  1  0  0  0  0  0  0
  -27.5340  -32.5270   25.8470 C   0  0  0  0  0  1  0  0  0  0  0  0
  1  2  1  0
  1  3  1  0
  4  8  1  0
  4  1  1  0
  5  7  1  0
  6  5  2  0
  8 10  2  0
  8  6  1  0
  9  7  2  0
 10  9  1  0
 11 10  1  0
 12 20  1  0
 13 18  1  0
 14 15  1  0
 14 13  1  0
 16 15  1  0
 16 25  1  0
 16 17  1  0
 18 12  1  0
 18 17  1  0
 19 12  2  0
 20  9  1  0
 20 21  1  0
 22 23  2  0
 23 42  1  0
 24 23  1  0
 24 27  1  0
 25 26  1  0
 25 22  1  0
 26 24  2  0
 27 28  1  0
 28 29  2  0
 30 33  1  0
 30 29  1  0
 31 30  2  0
 32 31  1  0
 32 27  2  0
 33 34  1  0
 34 39  2  0
 34 35  1  0
 35 36  2  0
 37 36  1  0
 37 41  1  0
 38 37  2  0
 39 38  1  0
 40 39  1  0
 42 43  1  0
 43 46  1  0
 43 45  1  0
 44 42  2  0
 47 22  1  0
 47 48  1  0
 49 47  1  0
 50  1  1  0
 50 51  1  0
 51 52  2  0
 53 51  1  0
 53 54  2  0
 55 53  1  0
 56 58  1  0
 56 55  1  0
 57 68  2  0
 58 63  1  0
 59 67  1  0
 59 69  1  0
 60 66  1  0
 60 62  1  0
 61 67  1  0
 62 61  1  0
 63 62  2  0
 64 65  1  0
 64 58  2  0
 65 60  2  0
 66 59  1  0
 67 57  1  0
 69 71  2  0
 70 69  1  0
 72 70  1  0
 73 82  2  0
 73 78  1  0
 74 70  1  0
 74 78  1  0
 75 74  1  0
 76 77  1  0
 76 75  1  0
 77 73  1  0
 78 79  2  0
 79 80  1  0
 81 80  2  0
 82 81  1  0
 83 57  1  0
 83 84  1  0
 83 93  1  0
 84 87  1  0
 85 89  1  0
 85 84  1  0
 86 85  2  0
 89 88  1  0
 91 89  1  0
 91 92  1  0
 91 90  1  0
 93 96  1  1
 93 94  1  0
 95 93  1  0
M  ISO  4  12 100  20 100  55 101  56 101
M  END
>  <TORSDO>  (29) 
F 22

>  <SCORE>  (29) 
-12.874

>  <name>  (29) 
28

>  <ligand_id>  (29) 
28

>  <original_smiles>  (29) 
[H]c1c([H])c([H])c2c(c1[H])C([H])([H])C([H])([H])C([H])([H])C2([H])N([H])C(=O)C1([H])N(C(=O)C([H])(N([H])C(=O)C([H])(N([H])C([H])([H])[H])C([H])([H])[H])C(C([H])([H])[H])(C([H])([H])[H])C([H])([H])[H])C([H])([H])c2c([H])c(OC([H])([H])C(=O)C(=O)C([H])([H])[N+]([H])([H])C([H])([H])c3c([H])c([H])c([H])c(N([H])C(=O)N4C([H])([H])C([H])([H])C([H])([H])C([H])(n5nc(-c6c([H])c([H])c(Oc7c([H])c([H])c(F)c([H])c7F)c([H])c6[H])c(C(=O)N([H])[H])c5N([H])[H])C4([H])[H])c3F)c([H])c([H])c2C1([H])[H]

>  <smiles>  (29) 
[H]c1c([H])c([H])c2c(c1[H])C([H])([H])C([H])([H])C([H])([H])C2([H])N([H])C(=O)C1([H])N(C(=O)C([H])(N([H])C(=O)C([H])(N([H])C([H])([H])[H])C([H])([H])[H])C(C([H])([H])[H])(C([H])([H])[H])C([H])([H])[H])C([H])([H])c2c([H])c(OC([H])([H])C(=O)C(=O)C([H])([H])[N+]([H])([H])C([H])([H])c3c([H])c([H])c([H])c(N([H])C(=O)N4C([H])([H])C([H])([H])C([H])([H])C([H])(n5nc(-c6c([H])c([H])c(Oc7c([H])c([H])c(F)c([H])c7F)c([H])c6[H])c(C(=O)N([H])[H])c5N([H])[H])C4([H])[H])c3F)c([H])c([H])c2C1([H])[H]

$$$$
29:0:0
     RDKit          3D

 99108  0  0  1  0  0  0  0  0999 V2000
  -26.1100  -20.9950   18.9910 C   0  0  0  0  0  3  0  0  0  0  0  0
  -27.2620  -21.0030   18.2940 C   0  0  0  0  0  3  0  0  0  0  0  0
  -25.9810  -21.7740   20.2950 C   0  0  0  0  0  2  0  0  0  0  0  0
  -28.5560  -21.4820   18.9570 C   0  0  0  0  0  3  0  0  0  0  0  0
  -28.3070  -22.8280   19.8140 C   0  0  0  0  0  3  0  0  0  0  0  0
  -24.9540  -20.0720   18.6050 C   0  0  0  0  0  1  0  0  0  0  0  0
  -27.3970  -20.3120   16.9480 C   0  0  0  0  0  1  0  0  0  0  0  0
  -26.9010  -22.9500   20.3330 N   0  0  0  0  0  4  0  0  0  0  0  0
  -26.8930  -23.3620   21.2540 H   0  0  0  0  0  0  0  0  0  0  0  0
  -26.4640  -23.6250   19.7240 H   0  0  0  0  0  0  0  0  0  0  0  0
  -30.2970  -19.5270   18.7640 C   0  0  0  0  0  3  0  0  0  0  0  0
  -30.7310  -18.1880   19.0230 C   0  0  0  0  0  3  0  0  0  0  0  0
  -29.1400  -18.0700   20.8180 C   0  0  0  0  0  3  0  0  0  0  0  0
  -29.2650  -20.1720   19.5090 C   0  0  0  0  0  0  0  0  0  0  0  0
  -30.1070  -17.4130   20.0370 C   0  0  0  0  0  0  0  0  0  0  0  0
  -28.7590  -19.4140   20.5990 C   0  0  0  0  0  0  0  0  0  0  0  0
  -27.8430  -19.9320   21.4350 F   0  0  0  0  0  0  0  0  0  0  0  0
  -31.0820  -15.0210   19.8600 C   0  0  0  0  0  0  0  0  0  0  0  0
  -30.8690  -12.7470   18.9290 C   0  0  0  0  0  2  0  0  0  0  0  0
  -29.8540  -12.8020   17.7650 C   0  0  0  0  0  2  0  0  0  0  0  0
  -28.4040  -12.6590   18.2720 C   0  0  0  0  0  2  0  0  0  0  0  0
  -28.1010  -13.5690   19.4930 C   0  0  0  0  0  3  0  0  0  0  0  0
  -29.2160  -13.4570   20.5570 C   0  0  0  0  0  2  0  0  0  0  0  0
  -30.4990  -13.7880   19.9010 N   0  0  0  0  0  0  0  0  0  0  0  0
  -32.1830  -15.2190   19.3360 O   0  0  0  0  0  0  0  0  0  0  0  0
  -30.3040  -16.0140   20.3550 N   0  0  0  0  0  0  0  0  0  0  0  0
  -29.5510  -15.6310   20.9090 H   0  0  0  0  0  0  0  0  0  0  0  0
  -25.7860  -14.2080   20.4200 C   0  0  0  0  0  0  0  0  0  0  0  0
  -24.7130  -13.4500   20.8120 C   0  0  0  0  0  0  0  0  0  0  0  0
  -25.1160  -12.0910   20.6610 C   0  0  0  0  0  0  0  0  0  0  0  0
  -26.7730  -13.3080   20.0490 N   0  0  0  0  0  0  0  0  0  0  0  0
  -26.3780  -12.0250   20.2540 N   0  0  0  0  0  0  0  0  0  0  0  0
  -24.3530  -10.8470   20.8340 C   0  0  0  0  0  0  0  0  0  0  0  0
  -24.7340   -9.8800   21.7890 C   0  0  0  0  0  3  0  0  0  0  0  0
  -23.9820   -8.6960   21.9500 C   0  0  0  0  0  3  0  0  0  0  0  0
  -22.8330   -8.4730   21.1530 C   0  0  0  0  0  0  0  0  0  0  0  0
  -22.4710   -9.4290   20.1880 C   0  0  0  0  0  3  0  0  0  0  0  0
  -23.2230  -10.6050   20.0280 C   0  0  0  0  0  3  0  0  0  0  0  0
  -22.0580   -7.3430   21.2200 O   0  0  0  0  0  0  0  0  0  0  0  0
  -21.8460   -6.6820   22.4030 C   0  0  0  0  0  0  0  0  0  0  0  0
  -21.2520   -7.3180   23.5140 C   0  0  0  0  0  3  0  0  0  0  0  0
  -20.9860   -6.5840   24.6870 C   0  0  0  0  0  3  0  0  0  0  0  0
  -21.3050   -5.2140   24.7490 C   0  0  0  0  0  0  0  0  0  0  0  0
  -21.8930   -4.5790   23.6420 C   0  0  0  0  0  3  0  0  0  0  0  0
  -22.1600   -5.3100   22.4710 C   0  0  0  0  0  0  0  0  0  0  0  0
  -22.7090   -4.6880   21.3990 F   0  0  0  0  0  0  0  0  0  0  0  0
  -21.0440   -4.5050   25.8710 F   0  0  0  0  0  0  0  0  0  0  0  0
  -23.3600  -13.9630   21.2120 C   0  0  0  0  0  0  0  0  0  0  0  0
  -22.6780  -13.2560   22.1110 N   0  0  0  0  0  0  0  0  0  0  0  0
  -22.9150  -15.0180   20.7660 O   0  0  0  0  0  0  0  0  0  0  0  0
  -23.0520  -12.4030   22.4970 H   0  0  0  0  0  0  0  0  0  0  0  0
  -21.7700  -13.5800   22.4130 H   0  0  0  0  0  0  0  0  0  0  0  0
  -25.9890  -15.5810   20.3430 N   0  0  0  0  0  0  0  0  0  0  0  0
  -25.2680  -16.2280   20.6440 H   0  0  0  0  0  0  0  0  0  0  0  0
  -26.8490  -16.0400   20.0670 H   0  0  0  0  0  0  0  0  0  0  0  0
  -28.5730  -24.2330   19.0470 C   0  0  0  0  0  0  0  0  0  0  0  0
  -28.7900  -24.2840   17.8300 O   0  0  0  0  0  0  0  0  0  0  0  0
  -28.5630  -25.5970   19.8530 C   0  0  0  0  0  2  0  0  0  0  0  0
  -28.4520  -26.8630   19.0930 O   0  0  0  0  0  0  0  0  0  0  0  0
  -24.6040  -31.6530   22.9000 C   0  0  0  0  0  0  0  0  0  0  0  0
  -27.2880  -27.6170   19.2580 C   0  0  0  0  0  0  0  0  0  0  0  0
  -23.3870  -30.3600   21.1870 C   0  0  0  0  0  3  0  0  0  0  0  0
  -24.8380  -29.0460   19.5420 C   0  0  0  0  0  0  0  0  0  0  0  0
  -25.8840  -30.8550   20.9060 C   0  0  0  0  0  2  0  0  0  0  0  0
  -26.0050  -29.5530   20.1240 C   0  0  0  0  0  0  0  0  0  0  0  0
  -27.2350  -28.8490   19.9760 C   0  0  0  0  0  3  0  0  0  0  0  0
  -26.1010  -27.1520   18.6590 C   0  0  0  0  0  3  0  0  0  0  0  0
  -24.8860  -27.8460   18.8120 C   0  0  0  0  0  3  0  0  0  0  0  0
  -23.5590  -29.8360   19.7380 C   0  0  0  0  0  2  0  0  0  0  0  0
  -24.6440  -30.9690   21.7210 N   0  0  0  0  0  0  0  0  0  0  0  0
  -23.5440  -31.8060   23.5210 O   0  0  0  0  0  0  0  0  0  0  0  0
  -22.8350  -29.2180   22.0680 C   0  0  0  0  0  0  0  0  0  0  0  0
  -21.5110  -29.0030   22.0130 N   0  0  0  0  0  0  0  0  0  0  0  0
  -23.5940  -28.5350   22.7600 O   0  0  0  0  0  0  0  0  0  0  0  0
  -20.9520  -29.6110   21.4260 H   0  0  0  0  0  0  0  0  0  0  0  0
  -18.2310  -27.5950   22.5800 C   0  0  0  0  0  0  0  0  0  0  0  0
  -20.7890  -27.9430   22.7200 C   0  0  0  0  0  3  0  0  0  0  0  0
  -20.9150  -26.5990   21.9630 C   0  0  0  0  0  2  0  0  0  0  0  0
  -19.7530  -26.3440   20.9950 C   0  0  0  0  0  2  0  0  0  0  0  0
  -18.4190  -26.3380   21.7450 C   0  0  0  0  0  2  0  0  0  0  0  0
  -19.3440  -28.3540   23.0280 C   0  0  0  0  0  0  0  0  0  0  0  0
  -19.1130  -29.5330   23.7720 C   0  0  0  0  0  3  0  0  0  0  0  0
  -17.8050  -29.9450   24.0830 C   0  0  0  0  0  3  0  0  0  0  0  0
  -16.7060  -29.1830   23.6510 C   0  0  0  0  0  3  0  0  0  0  0  0
  -16.9190  -28.0120   22.9030 C   0  0  0  0  0  3  0  0  0  0  0  0
  -25.8900  -32.2890   23.5170 C   0  0  0  0  0  3  0  0  0  0  0  0
  -26.5250  -31.4160   24.6690 C   0  0  1  0  0  0  0  0  0  0  0  0
  -25.5170  -31.0190   25.7720 C   0  0  0  0  0  1  0  0  0  0  0  0
  -27.1370  -30.1140   24.0950 C   0  0  0  0  0  1  0  0  0  0  0  0
  -27.6730  -32.1970   25.3470 C   0  0  0  0  0  1  0  0  0  0  0  0
  -25.5230  -33.6200   24.0190 N   0  0  0  0  0  0  0  0  0  0  0  0
  -25.7800  -34.7700   23.3840 C   0  0  0  0  0  0  0  0  0  0  0  0
  -26.4240  -34.8220   22.3310 O   0  0  0  0  0  0  0  0  0  0  0  0
  -24.9340  -33.6450   24.8390 H   0  0  0  0  0  0  0  0  0  0  0  0
  -23.9570  -36.5060   23.2910 C   0  0  0  0  0  1  0  0  0  0  0  0
  -25.2390  -36.0680   24.0160 C   0  0  0  0  0  3  0  0  0  0  0  0
  -27.3490  -36.9640   24.9010 C   0  0  0  0  0  1  0  0  0  0  0  0
  -26.2150  -37.1790   24.0070 N   0  0  0  0  0  0  0  0  0  0  0  0
  -25.7640  -38.0530   24.2650 H   0  0  0  0  0  0  0  0  0  0  0  0
  1  6  1  0
  1  3  1  0
  2  7  1  0
  2  4  1  0
  2  1  1  0
  3  8  1  0
  4 14  1  0
  4  5  1  0
  5 56  1  0
  5  8  1  0
  8  9  1  0
 10  8  1  0
 11 12  2  0
 11 14  1  0
 12 15  1  0
 14 16  2  0
 15 26  1  0
 15 13  2  0
 16 13  1  0
 16 17  1  0
 18 24  1  0
 18 26  1  0
 19 24  1  0
 20 21  1  0
 20 19  1  0
 22 21  1  0
 22 31  1  0
 22 23  1  0
 24 23  1  0
 25 18  2  0
 26 27  1  0
 28 29  2  0
 29 48  1  0
 30 29  1  0
 30 33  1  0
 31 32  1  0
 31 28  1  0
 32 30  2  0
 33 34  1  0
 34 35  2  0
 36 39  1  0
 36 35  1  0
 37 36  2  0
 38 37  1  0
 38 33  2  0
 39 40  1  0
 40 45  2  0
 40 41  1  0
 41 42  2  0
 42 43  1  0
 43 47  1  0
 44 43  2  0
 45 44  1  0
 46 45  1  0
 48 49  1  0
 49 52  1  0
 49 51  1  0
 50 48  2  0
 53 28  1  0
 53 54  1  0
 55 53  1  0
 56 58  1  0
 57 56  2  0
 59 61  1  0
 59 58  1  0
 60 71  2  0
 61 66  1  0
 62 70  1  0
 62 72  1  0
 63 69  1  0
 63 65  1  0
 64 70  1  0
 65 64  1  0
 66 65  2  0
 67 68  1  0
 67 61  2  0
 68 63  2  0
 69 62  1  0
 70 60  1  0
 72 74  2  0
 73 72  1  0
 75 73  1  0
 76 85  2  0
 76 81  1  0
 77 73  1  0
 77 81  1  0
 78 77  1  0
 79 80  1  0
 79 78  1  0
 80 76  1  0
 81 82  2  0
 82 83  1  0
 84 83  2  0
 85 84  1  0
 86 60  1  0
 86 91  1  0
 86 87  1  0
 87 90  1  1
 87 88  1  0
 89 87  1  0
 91 94  1  0
 92 96  1  0
 92 91  1  0
 93 92  2  0
 96 95  1  0
 98 96  1  0
 98 99  1  0
 98 97  1  0
M  ISO  4  18 100  26 100  58 101  59 101
M  END
>  <TORSDO>  (30) 
F 19

>  <SCORE>  (30) 
-10.234

>  <name>  (30) 
29

>  <ligand_id>  (30) 
29

>  <original_smiles>  (30) 
[H]c1c([H])c([H])c2c(c1[H])C([H])([H])C([H])([H])C([H])([H])C2([H])N([H])C(=O)C1([H])N(C(=O)C([H])(N([H])C(=O)C([H])(N([H])C([H])([H])[H])C([H])([H])[H])C(C([H])([H])[H])(C([H])([H])[H])C([H])([H])[H])C([H])([H])c2c([H])c(OC([H])([H])C(=O)C3([H])C([H])(c4c([H])c([H])c(N([H])C(=O)N5C([H])([H])C([H])([H])C([H])([H])C([H])(n6nc(-c7c([H])c([H])c(Oc8c([H])c([H])c(F)c([H])c8F)c([H])c7[H])c(C(=O)N([H])[H])c6N([H])[H])C5([H])[H])c([H])c4F)C(C([H])([H])[H])=C(C([H])([H])[H])C([H])([H])[N+]3([H])[H])c([H])c([H])c2C1([H])[H]

>  <smiles>  (30) 
[H]c1c([H])c([H])c2c(c1[H])C([H])([H])C([H])([H])C([H])([H])C2([H])N([H])C(=O)C1([H])N(C(=O)C([H])(N([H])C(=O)C([H])(N([H])C([H])([H])[H])C([H])([H])[H])C(C([H])([H])[H])(C([H])([H])[H])C([H])([H])[H])C([H])([H])c2c([H])c(OC([H])([H])C(=O)C3([H])C([H])(c4c([H])c([H])c(N([H])C(=O)N5C([H])([H])C([H])([H])C([H])([H])C([H])(n6nc(-c7c([H])c([H])c(Oc8c([H])c([H])c(F)c([H])c8F)c([H])c7[H])c(C(=O)N([H])[H])c6N([H])[H])C5([H])[H])c([H])c4F)C(C([H])([H])[H])=C(C([H])([H])[H])C([H])([H])[N+]3([H])[H])c([H])c([H])c2C1([H])[H]

$$$$
30:0:0
     RDKit          3D

101109  0  0  1  0  0  0  0  0999 V2000
  -29.1980  -17.0850   19.3330 C   0  0  0  0  0  3  0  0  0  0  0  0
  -30.0890  -18.0320   21.3890 C   0  0  0  0  0  3  0  0  0  0  0  0
  -28.8300  -18.3700   18.8900 C   0  0  0  0  0  0  0  0  0  0  0  0
  -29.1630  -19.5210   19.6640 C   0  0  0  0  0  0  0  0  0  0  0  0
  -29.8400  -16.8880   20.5730 C   0  0  0  0  0  0  0  0  0  0  0  0
  -29.7470  -19.3530   20.9570 C   0  0  0  0  0  0  0  0  0  0  0  0
  -28.9700  -20.9180   19.0660 C   0  0  0  0  0  1  0  0  0  0  0  0
  -30.7310  -14.5920   20.2980 C   0  0  0  0  0  0  0  0  0  0  0  0
  -30.3470  -12.5940   18.8980 C   0  0  0  0  0  2  0  0  0  0  0  0
  -29.3610  -12.9740   17.7720 C   0  0  0  0  0  2  0  0  0  0  0  0
  -27.8990  -12.8240   18.2410 C   0  0  0  0  0  2  0  0  0  0  0  0
  -27.6370  -13.4820   19.6210 C   0  0  0  0  0  3  0  0  0  0  0  0
  -28.7290  -13.0860   20.6400 C   0  0  0  0  0  2  0  0  0  0  0  0
  -30.0410  -13.4370   20.0700 N   0  0  0  0  0  0  0  0  0  0  0  0
  -31.8310  -14.8160   19.7910 O   0  0  0  0  0  0  0  0  0  0  0  0
  -30.0870  -15.5400   21.0190 N   0  0  0  0  0  0  0  0  0  0  0  0
  -29.3480  -15.1590   21.5920 H   0  0  0  0  0  0  0  0  0  0  0  0
  -25.2420  -14.0640   20.3540 C   0  0  0  0  0  0  0  0  0  0  0  0
  -24.1890  -13.2810   20.7410 C   0  0  0  0  0  0  0  0  0  0  0  0
  -24.6670  -11.9350   20.7140 C   0  0  0  0  0  0  0  0  0  0  0  0
  -26.2940  -13.1930   20.1180 N   0  0  0  0  0  0  0  0  0  0  0  0
  -25.9520  -11.9090   20.3860 N   0  0  0  0  0  0  0  0  0  0  0  0
  -23.9590  -10.6660   20.9240 C   0  0  0  0  0  0  0  0  0  0  0  0
  -24.4050   -9.7230   21.8760 C   0  0  0  0  0  3  0  0  0  0  0  0
  -23.6980   -8.5180   22.0720 C   0  0  0  0  0  3  0  0  0  0  0  0
  -22.5360   -8.2430   21.3120 C   0  0  0  0  0  0  0  0  0  0  0  0
  -22.1130   -9.1750   20.3500 C   0  0  0  0  0  3  0  0  0  0  0  0
  -22.8200  -10.3730   20.1510 C   0  0  0  0  0  3  0  0  0  0  0  0
  -21.8000   -7.0890   21.4170 O   0  0  0  0  0  0  0  0  0  0  0  0
  -21.7460   -6.3750   22.5870 C   0  0  0  0  0  0  0  0  0  0  0  0
  -21.2980   -6.9530   23.7950 C   0  0  0  0  0  3  0  0  0  0  0  0
  -21.1900   -6.1630   24.9560 C   0  0  0  0  0  3  0  0  0  0  0  0
  -21.5190   -4.7950   24.9130 C   0  0  0  0  0  0  0  0  0  0  0  0
  -21.9660   -4.2170   23.7120 C   0  0  0  0  0  3  0  0  0  0  0  0
  -22.0750   -5.0040   22.5520 C   0  0  0  0  0  0  0  0  0  0  0  0
  -22.4820   -4.4360   21.3910 F   0  0  0  0  0  0  0  0  0  0  0  0
  -21.4110   -4.0340   26.0280 F   0  0  0  0  0  0  0  0  0  0  0  0
  -22.7890  -13.7430   21.0290 C   0  0  0  0  0  0  0  0  0  0  0  0
  -22.0860  -13.0470   21.9160 N   0  0  0  0  0  0  0  0  0  0  0  0
  -22.3270  -14.7560   20.5040 O   0  0  0  0  0  0  0  0  0  0  0  0
  -22.4720  -12.2300   22.3660 H   0  0  0  0  0  0  0  0  0  0  0  0
  -21.1470  -13.3340   22.1520 H   0  0  0  0  0  0  0  0  0  0  0  0
  -25.3890  -15.4370   20.1700 N   0  0  0  0  0  0  0  0  0  0  0  0
  -24.6080  -16.0760   20.2930 H   0  0  0  0  0  0  0  0  0  0  0  0
  -26.2340  -15.8950   19.8590 H   0  0  0  0  0  0  0  0  0  0  0  0
  -28.0740  -18.4550   17.6340 C   0  0  0  0  0  0  0  0  0  0  0  0
  -28.5530  -17.9370   16.5040 N   0  0  0  0  0  4  0  0  0  0  0  0
  -26.8740  -19.0350   17.6140 N   0  0  0  0  0  0  0  0  0  0  0  0
  -29.4870  -17.5520   16.4820 H   0  0  0  0  0  0  0  0  0  0  0  0
  -28.0570  -18.0050   15.6290 H   0  0  0  0  0  0  0  0  0  0  0  0
  -26.4910  -19.3870   18.4780 H   0  0  0  0  0  0  0  0  0  0  0  0
  -26.3090  -19.1100   16.7840 H   0  0  0  0  0  0  0  0  0  0  0  0
  -30.0240  -20.4650   21.8000 N   0  0  0  0  0  0  0  0  0  0  0  0
  -30.5990  -20.2700   22.6170 H   0  0  0  0  0  0  0  0  0  0  0  0
  -28.9840  -21.4990   22.0570 C   0  0  0  0  0  2  0  0  0  0  0  0
  -29.4740  -22.9800   22.1190 C   0  0  0  0  0  0  0  0  0  0  0  0
  -30.5310  -23.2440   22.7050 O   0  0  0  0  0  0  0  0  0  0  0  0
  -28.6210  -24.1280   21.4440 C   0  0  0  0  0  0  0  0  0  0  0  0
  -27.7760  -23.8520   20.5820 O   0  0  0  0  0  0  0  0  0  0  0  0
  -28.8520  -25.6050   21.8920 C   0  0  0  0  0  2  0  0  0  0  0  0
  -28.7640  -26.5750   20.8160 O   0  0  0  0  0  0  0  0  0  0  0  0
  -24.6810  -31.8930   23.3440 C   0  0  0  0  0  0  0  0  0  0  0  0
  -27.5990  -27.3140   20.7390 C   0  0  0  0  0  0  0  0  0  0  0  0
  -23.6230  -30.3800   21.6970 C   0  0  0  0  0  3  0  0  0  0  0  0
  -25.2000  -28.7940   20.4700 C   0  0  0  0  0  0  0  0  0  0  0  0
  -26.1510  -30.7710   21.6720 C   0  0  0  0  0  2  0  0  0  0  0  0
  -26.3030  -29.3650   21.1200 C   0  0  0  0  0  0  0  0  0  0  0  0
  -27.5070  -28.6310   21.2510 C   0  0  0  0  0  3  0  0  0  0  0  0
  -26.4840  -26.7640   20.0780 C   0  0  0  0  0  3  0  0  0  0  0  0
  -25.2850  -27.4910   19.9470 C   0  0  0  0  0  3  0  0  0  0  0  0
  -23.9470  -29.6330   20.3750 C   0  0  0  0  0  2  0  0  0  0  0  0
  -24.8320  -31.0350   22.2960 N   0  0  0  0  0  0  0  0  0  0  0  0
  -23.5580  -32.1750   23.7880 O   0  0  0  0  0  0  0  0  0  0  0  0
  -22.9160  -29.4010   22.6620 C   0  0  0  0  0  0  0  0  0  0  0  0
  -21.6010  -29.2060   22.4610 N   0  0  0  0  0  0  0  0  0  0  0  0
  -23.5490  -28.8200   23.5470 O   0  0  0  0  0  0  0  0  0  0  0  0
  -21.1510  -29.7230   21.7200 H   0  0  0  0  0  0  0  0  0  0  0  0
  -18.2030  -28.0320   22.8270 C   0  0  0  0  0  0  0  0  0  0  0  0
  -20.7430  -28.2970   23.2240 C   0  0  0  0  0  3  0  0  0  0  0  0
  -20.8730  -26.8460   22.7090 C   0  0  0  0  0  2  0  0  0  0  0  0
  -19.8250  -26.4870   21.6500 C   0  0  0  0  0  2  0  0  0  0  0  0
  -18.4110  -26.6570   22.2130 C   0  0  0  0  0  2  0  0  0  0  0  0
  -19.3000  -28.8070   23.2890 C   0  0  0  0  0  0  0  0  0  0  0  0
  -19.0530  -30.0920   23.8190 C   0  0  0  0  0  3  0  0  0  0  0  0
  -17.7420  -30.6000   23.8940 C   0  0  0  0  0  3  0  0  0  0  0  0
  -16.6590  -29.8230   23.4520 C   0  0  0  0  0  3  0  0  0  0  0  0
  -16.8900  -28.5400   22.9230 C   0  0  0  0  0  3  0  0  0  0  0  0
  -25.9100  -32.5770   24.0220 C   0  0  0  0  0  3  0  0  0  0  0  0
  -25.5430  -33.9740   24.2930 N   0  0  0  0  0  0  0  0  0  0  0  0
  -25.8820  -35.0120   23.5160 C   0  0  0  0  0  0  0  0  0  0  0  0
  -26.6080  -34.8990   22.5260 O   0  0  0  0  0  0  0  0  0  0  0  0
  -24.9040  -34.1390   25.0590 H   0  0  0  0  0  0  0  0  0  0  0  0
  -24.1160  -36.7310   23.0280 C   0  0  0  0  0  1  0  0  0  0  0  0
  -25.3320  -36.3970   23.9050 C   0  0  0  0  0  3  0  0  0  0  0  0
  -27.3970  -37.3790   24.8000 C   0  0  0  0  0  1  0  0  0  0  0  0
  -26.3370  -37.4770   23.8010 N   0  0  0  0  0  0  0  0  0  0  0  0
  -25.8940  -38.3870   23.9010 H   0  0  0  0  0  0  0  0  0  0  0  0
  -26.3760  -31.8530   25.3460 C   0  0  1  0  0  0  0  0  0  0  0  0
  -25.2270  -31.5860   26.3440 C   0  0  0  0  0  1  0  0  0  0  0  0
  -27.0440  -30.4950   25.0220 C   0  0  0  0  0  1  0  0  0  0  0  0
  -27.4460  -32.7100   26.0640 C   0  0  0  0  0  1  0  0  0  0  0  0
  1  5  1  0
  3  1  2  0
  3  4  1  0
  4  6  2  0
  5 16  1  0
  5  2  2  0
  6  2  1  0
  6 53  1  0
  7  4  1  0
  8 16  1  0
  9 14  1  0
 10 11  1  0
 10  9  1  0
 12 11  1  0
 12 21  1  0
 12 13  1  0
 14  8  1  0
 14 13  1  0
 15  8  2  0
 16 17  1  0
 18 19  2  0
 19 38  1  0
 20 19  1  0
 20 23  1  0
 21 18  1  0
 21 22  1  0
 22 20  2  0
 23 24  1  0
 24 25  2  0
 26 29  1  0
 26 25  1  0
 27 26  2  0
 28 27  1  0
 28 23  2  0
 29 30  1  0
 30 31  1  0
 31 32  2  0
 33 32  1  0
 33 37  1  0
 34 33  2  0
 35 30  2  0
 35 34  1  0
 36 35  1  0
 38 39  1  0
 39 42  1  0
 39 41  1  0
 40 38  2  0
 43 44  1  0
 43 18  1  0
 45 43  1  0
 46  3  1  0
 47 46  2  0
 48 46  1  0
 48 51  1  0
 49 47  1  0
 50 47  1  0
 52 48  1  0
 53 55  1  0
 53 54  1  0
 55 56  1  0
 56 57  2  0
 58 60  1  0
 58 56  1  0
 59 58  2  0
 61 60  1  0
 62 73  2  0
 63 61  1  0
 63 68  1  0
 64 72  1  0
 64 74  1  0
 65 67  1  0
 66 72  1  0
 67 68  2  0
 67 66  1  0
 69 63  2  0
 70 69  1  0
 70 65  2  0
 71 65  1  0
 71 64  1  0
 72 62  1  0
 74 76  2  0
 75 74  1  0
 77 75  1  0
 78 87  2  0
 78 83  1  0
 79 75  1  0
 79 83  1  0
 80 79  1  0
 81 82  1  0
 81 80  1  0
 82 78  1  0
 83 84  2  0
 84 85  1  0
 86 85  2  0
 87 86  1  0
 88 62  1  0
 88 89  1  0
 88 98  1  0
 89 92  1  0
 90 94  1  0
 90 89  1  0
 91 90  2  0
 94 93  1  0
 96 97  1  0
 96 94  1  0
 96 95  1  0
 98101  1  1
 98 99  1  0
100 98  1  0
M  ISO  4   8 100  16 100  60 101  61 101
M  END
>  <TORSDO>  (31) 
F 22

>  <SCORE>  (31) 
-12.653

>  <name>  (31) 
30

>  <ligand_id>  (31) 
30

>  <original_smiles>  (31) 
[H]c1c([H])c([H])c2c(c1[H])C([H])([H])C([H])([H])C([H])([H])C2([H])N([H])C(=O)C1([H])N(C(=O)C([H])(N([H])C(=O)C([H])(N([H])C([H])([H])[H])C([H])([H])[H])C(C([H])([H])[H])(C([H])([H])[H])C([H])([H])[H])C([H])([H])c2c([H])c(OC([H])([H])C(=O)C(=O)C([H])([H])N([H])c3c([H])c(N([H])C(=O)N4C([H])([H])C([H])([H])C([H])([H])C([H])(n5nc(-c6c([H])c([H])c(Oc7c([H])c([H])c(F)c([H])c7F)c([H])c6[H])c(C(=O)N([H])[H])c5N([H])[H])C4([H])[H])c([H])c(C(N([H])[H])=[N+]([H])[H])c3C([H])([H])[H])c([H])c([H])c2C1([H])[H]

>  <smiles>  (31) 
[H]c1c([H])c([H])c2c(c1[H])C([H])([H])C([H])([H])C([H])([H])C2([H])N([H])C(=O)C1([H])N(C(=O)C([H])(N([H])C(=O)C([H])(N([H])C([H])([H])[H])C([H])([H])[H])C(C([H])([H])[H])(C([H])([H])[H])C([H])([H])[H])C([H])([H])c2c([H])c(OC([H])([H])C(=O)C(=O)C([H])([H])N([H])c3c([H])c(N([H])C(=O)N4C([H])([H])C([H])([H])C([H])([H])C([H])(n5nc(-c6c([H])c([H])c(Oc7c([H])c([H])c(F)c([H])c7F)c([H])c6[H])c(C(=O)N([H])[H])c5N([H])[H])C4([H])[H])c([H])c(C(N([H])[H])=[N+]([H])[H])c3C([H])([H])[H])c([H])c([H])c2C1([H])[H]

$$$$
31:0:0
     RDKit          3D

101110  0  0  1  0  0  0  0  0999 V2000
  -30.3160  -20.7950   20.6940 C   0  0  0  0  0  2  0  0  0  0  0  0
  -27.7860  -18.2720   19.1610 C   0  0  0  0  0  3  0  0  0  0  0  0
  -28.2750  -17.0430   19.6210 C   0  0  0  0  0  3  0  0  0  0  0  0
  -29.9630  -18.2190   20.9250 C   0  0  0  0  0  3  0  0  0  0  0  0
  -28.3730  -19.4860   19.5650 C   0  0  0  0  0  0  0  0  0  0  0  0
  -29.5100  -19.4890   20.4250 C   0  0  0  0  0  0  0  0  0  0  0  0
  -29.3490  -16.9850   20.5310 C   0  0  0  0  0  0  0  0  0  0  0  0
  -30.4310  -14.7380   20.5130 C   0  0  0  0  0  0  0  0  0  0  0  0
  -30.2340  -12.6300   19.2370 C   0  0  0  0  0  2  0  0  0  0  0  0
  -29.2420  -12.8540   18.0750 C   0  0  0  0  0  2  0  0  0  0  0  0
  -27.7900  -12.6100   18.5340 C   0  0  0  0  0  2  0  0  0  0  0  0
  -27.4500  -13.3300   19.8650 C   0  0  0  0  0  3  0  0  0  0  0  0
  -28.5480  -13.1020   20.9270 C   0  0  0  0  0  2  0  0  0  0  0  0
  -29.8370  -13.5190   20.3460 N   0  0  0  0  0  0  0  0  0  0  0  0
  -31.5490  -14.9900   20.0590 O   0  0  0  0  0  0  0  0  0  0  0  0
  -29.6720  -15.7000   21.1000 N   0  0  0  0  0  0  0  0  0  0  0  0
  -28.8810  -15.2740   21.5550 H   0  0  0  0  0  0  0  0  0  0  0  0
  -25.0310  -13.7920   20.5940 C   0  0  0  0  0  0  0  0  0  0  0  0
  -24.0100  -12.9550   20.9600 C   0  0  0  0  0  0  0  0  0  0  0  0
  -24.5540  -11.6350   20.9240 C   0  0  0  0  0  0  0  0  0  0  0  0
  -26.1240  -12.9730   20.3540 N   0  0  0  0  0  0  0  0  0  0  0  0
  -25.8430  -11.6720   20.6090 N   0  0  0  0  0  0  0  0  0  0  0  0
  -23.9110  -10.3290   21.1130 C   0  0  0  0  0  0  0  0  0  0  0  0
  -24.3660   -9.4140   22.0890 C   0  0  0  0  0  3  0  0  0  0  0  0
  -23.7170   -8.1720   22.2580 C   0  0  0  0  0  3  0  0  0  0  0  0
  -22.6040   -7.8350   21.4510 C   0  0  0  0  0  0  0  0  0  0  0  0
  -22.1700   -8.7410   20.4680 C   0  0  0  0  0  3  0  0  0  0  0  0
  -22.8210   -9.9750   20.2950 C   0  0  0  0  0  3  0  0  0  0  0  0
  -21.9260   -6.6440   21.5320 O   0  0  0  0  0  0  0  0  0  0  0  0
  -21.8300   -5.9480   22.7110 C   0  0  0  0  0  0  0  0  0  0  0  0
  -21.2470   -6.5170   23.8640 C   0  0  0  0  0  3  0  0  0  0  0  0
  -21.1040   -5.7460   25.0330 C   0  0  0  0  0  3  0  0  0  0  0  0
  -21.5350   -4.4060   25.0530 C   0  0  0  0  0  0  0  0  0  0  0  0
  -22.1120   -3.8350   23.9040 C   0  0  0  0  0  3  0  0  0  0  0  0
  -22.2540   -4.6040   22.7350 C   0  0  0  0  0  0  0  0  0  0  0  0
  -22.7930   -4.0450   21.6250 F   0  0  0  0  0  0  0  0  0  0  0  0
  -21.3910   -3.6640   26.1750 F   0  0  0  0  0  0  0  0  0  0  0  0
  -22.5900  -13.3470   21.2420 C   0  0  0  0  0  0  0  0  0  0  0  0
  -21.9160  -12.6190   22.1250 N   0  0  0  0  0  0  0  0  0  0  0  0
  -22.0800  -14.3370   20.7160 O   0  0  0  0  0  0  0  0  0  0  0  0
  -22.3390  -11.8190   22.5740 H   0  0  0  0  0  0  0  0  0  0  0  0
  -20.9680  -12.8700   22.3650 H   0  0  0  0  0  0  0  0  0  0  0  0
  -25.1130  -15.1700   20.4250 N   0  0  0  0  0  0  0  0  0  0  0  0
  -24.3120  -15.7800   20.5320 H   0  0  0  0  0  0  0  0  0  0  0  0
  -25.9500  -15.6660   20.1440 H   0  0  0  0  0  0  0  0  0  0  0  0
  -26.5270  -21.0380   19.5350 C   0  0  0  0  0  3  0  0  0  0  0  0
  -27.7260  -20.6940   19.0240 C   0  0  0  0  0  0  0  0  0  0  0  0
  -25.6480  -22.1590   19.0170 C   0  0  0  0  0  2  0  0  0  0  0  0
  -28.2840  -21.4060   17.7910 C   0  0  0  0  0  2  0  0  0  0  0  0
  -26.0020  -22.5400   17.5750 C   0  0  0  0  0  2  0  0  0  0  0  0
  -27.5190  -22.6880   17.3970 C   0  0  0  0  0  2  0  0  0  0  0  0
  -29.7790  -21.9220   21.6530 C   0  0  0  0  0  3  0  0  0  0  0  0
  -29.3390  -21.3860   22.9600 N   0  0  0  0  0  4  0  0  0  0  0  0
  -28.5360  -20.7880   22.8650 H   0  0  0  0  0  0  0  0  0  0  0  0
  -29.0990  -22.1370   23.5840 H   0  0  0  0  0  0  0  0  0  0  0  0
  -30.0790  -20.8630   23.3910 H   0  0  0  0  0  0  0  0  0  0  0  0
  -28.7660  -22.9780   21.0800 C   0  0  0  0  0  2  0  0  0  0  0  0
  -29.3100  -24.3660   20.6480 C   0  0  0  0  0  0  0  0  0  0  0  0
  -30.2530  -24.4650   19.8580 O   0  0  0  0  0  0  0  0  0  0  0  0
  -28.5840  -25.6160   21.2150 C   0  0  0  0  0  2  0  0  0  0  0  0
  -28.7210  -26.8070   20.3990 O   0  0  0  0  0  0  0  0  0  0  0  0
  -24.7290  -31.9870   23.2730 C   0  0  0  0  0  0  0  0  0  0  0  0
  -27.5590  -27.5540   20.3330 C   0  0  0  0  0  0  0  0  0  0  0  0
  -23.5920  -30.5160   21.6410 C   0  0  0  0  0  3  0  0  0  0  0  0
  -25.1220  -28.9990   20.2640 C   0  0  0  0  0  0  0  0  0  0  0  0
  -26.1050  -30.9510   21.4690 C   0  0  0  0  0  2  0  0  0  0  0  0
  -26.2520  -29.5630   20.8680 C   0  0  0  0  0  0  0  0  0  0  0  0
  -27.4740  -28.8490   20.9000 C   0  0  0  0  0  3  0  0  0  0  0  0
  -26.4150  -27.0150   19.7040 C   0  0  0  0  0  3  0  0  0  0  0  0
  -25.1980  -27.7240   19.6750 C   0  0  0  0  0  3  0  0  0  0  0  0
  -23.8480  -29.8200   20.2770 C   0  0  0  0  0  2  0  0  0  0  0  0
  -24.8260  -31.1680   22.1870 N   0  0  0  0  0  0  0  0  0  0  0  0
  -23.6330  -32.2350   23.7910 O   0  0  0  0  0  0  0  0  0  0  0  0
  -22.9550  -29.4960   22.6110 C   0  0  0  0  0  0  0  0  0  0  0  0
  -21.6410  -29.2630   22.4600 N   0  0  0  0  0  0  0  0  0  0  0  0
  -23.6430  -28.9160   23.4560 O   0  0  0  0  0  0  0  0  0  0  0  0
  -21.1450  -29.7890   21.7530 H   0  0  0  0  0  0  0  0  0  0  0  0
  -18.3000  -27.9720   22.9190 C   0  0  0  0  0  0  0  0  0  0  0  0
  -20.8410  -28.3160   23.2360 C   0  0  0  0  0  3  0  0  0  0  0  0
  -21.0000  -26.8780   22.6900 C   0  0  0  0  0  2  0  0  0  0  0  0
  -19.9290  -26.5040   21.6600 C   0  0  0  0  0  2  0  0  0  0  0  0
  -18.5310  -26.6160   22.2740 C   0  0  0  0  0  2  0  0  0  0  0  0
  -19.3840  -28.7780   23.3570 C   0  0  0  0  0  0  0  0  0  0  0  0
  -19.1140  -30.0460   23.9150 C   0  0  0  0  0  3  0  0  0  0  0  0
  -17.7920  -30.5090   24.0440 C   0  0  0  0  0  3  0  0  0  0  0  0
  -16.7210  -29.7010   23.6240 C   0  0  0  0  0  3  0  0  0  0  0  0
  -16.9760  -28.4350   23.0680 C   0  0  0  0  0  3  0  0  0  0  0  0
  -25.9880  -32.6680   23.8980 C   0  0  0  0  0  3  0  0  0  0  0  0
  -26.5170  -31.9220   25.1840 C   0  0  1  0  0  0  0  0  0  0  0  0
  -25.4210  -31.6390   26.2390 C   0  0  0  0  0  1  0  0  0  0  0  0
  -27.1600  -30.5690   24.8000 C   0  0  0  0  0  1  0  0  0  0  0  0
  -27.6290  -32.7580   25.8580 C   0  0  0  0  0  1  0  0  0  0  0  0
  -25.6340  -34.0590   24.2090 N   0  0  0  0  0  0  0  0  0  0  0  0
  -25.9490  -35.1110   23.4430 C   0  0  0  0  0  0  0  0  0  0  0  0
  -26.6390  -35.0140   22.4250 O   0  0  0  0  0  0  0  0  0  0  0  0
  -25.0190  -34.2030   24.9980 H   0  0  0  0  0  0  0  0  0  0  0  0
  -24.1790  -36.8460   23.0180 C   0  0  0  0  0  1  0  0  0  0  0  0
  -25.4080  -36.4900   23.8680 C   0  0  0  0  0  3  0  0  0  0  0  0
  -27.4950  -37.4440   24.7430 C   0  0  0  0  0  1  0  0  0  0  0  0
  -26.4120  -37.5720   23.7700 N   0  0  0  0  0  0  0  0  0  0  0  0
  -25.9780  -38.4800   23.8970 H   0  0  0  0  0  0  0  0  0  0  0  0
  2  5  2  0
  2  3  1  0
  3  7  2  0
  5  6  1  0
  6  1  1  0
  6  4  2  0
  7  4  1  0
  7 16  1  0
  8 16  1  0
  9 14  1  0
 10 11  1  0
 10  9  1  0
 12 11  1  0
 12 21  1  0
 12 13  1  0
 14  8  1  0
 14 13  1  0
 15  8  2  0
 16 17  1  0
 18 19  2  0
 19 38  1  0
 20 19  1  0
 20 23  1  0
 21 18  1  0
 21 22  1  0
 22 20  2  0
 23 24  1  0
 24 25  2  0
 26 29  1  0
 26 25  1  0
 27 26  2  0
 28 27  1  0
 28 23  2  0
 29 30  1  0
 30 35  2  0
 30 31  1  0
 31 32  2  0
 32 33  1  0
 33 37  1  0
 34 33  2  0
 35 34  1  0
 36 35  1  0
 38 39  1  0
 39 42  1  0
 39 41  1  0
 40 38  2  0
 43 44  1  0
 43 18  1  0
 45 43  1  0
 47 46  2  0
 47  5  1  0
 48 46  1  0
 49 47  1  0
 50 48  1  0
 51 50  1  0
 51 49  1  0
 52  1  1  0
 52 53  1  0
 53 56  1  0
 53 55  1  0
 54 53  1  0
 57 52  1  0
 58 57  1  0
 58 60  1  0
 59 58  2  0
 61 60  1  0
 62 73  2  0
 63 61  1  0
 63 68  1  0
 64 72  1  0
 64 74  1  0
 65 71  1  0
 65 67  1  0
 66 72  1  0
 67 68  2  0
 67 66  1  0
 69 63  2  0
 70 69  1  0
 70 65  2  0
 71 64  1  0
 72 62  1  0
 74 76  2  0
 75 74  1  0
 77 75  1  0
 78 87  2  0
 78 83  1  0
 79 75  1  0
 79 83  1  0
 80 79  1  0
 81 82  1  0
 81 80  1  0
 82 78  1  0
 83 84  2  0
 84 85  1  0
 86 85  2  0
 87 86  1  0
 88 62  1  0
 88 93  1  0
 88 89  1  0
 89 92  1  1
 89 90  1  0
 91 89  1  0
 93 96  1  0
 94 98  1  0
 94 93  1  0
 95 94  2  0
 98 97  1  0
100 98  1  0
100101  1  0
100 99  1  0
M  ISO  4   8 100  16 100  60 101  61 101
M  END
>  <TORSDO>  (32) 
F 23

>  <SCORE>  (32) 
-12.742

>  <name>  (32) 
31

>  <ligand_id>  (32) 
31

>  <original_smiles>  (32) 
[H]C1=C(c2c([H])c([H])c(N([H])C(=O)N3C([H])([H])C([H])([H])C([H])([H])C([H])(n4nc(-c5c([H])c([H])c(Oc6c([H])c([H])c(F)c([H])c6F)c([H])c5[H])c(C(=O)N([H])[H])c4N([H])[H])C3([H])[H])c([H])c2C([H])([H])C([H])(C([H])([H])C(=O)C([H])([H])Oc2c([H])c([H])c3c(c2[H])C([H])([H])N(C(=O)C([H])(N([H])C(=O)C([H])(N([H])C([H])([H])[H])C([H])([H])[H])C(C([H])([H])[H])(C([H])([H])[H])C([H])([H])[H])C([H])(C(=O)N([H])C2([H])c4c([H])c([H])c([H])c([H])c4C([H])([H])C([H])([H])C2([H])[H])C3([H])[H])[N+]([H])([H])[H])C([H])([H])C([H])([H])C([H])([H])C1([H])[H]

>  <smiles>  (32) 
[H]C1=C(c2c([H])c([H])c(N([H])C(=O)N3C([H])([H])C([H])([H])C([H])([H])C([H])(n4nc(-c5c([H])c([H])c(Oc6c([H])c([H])c(F)c([H])c6F)c([H])c5[H])c(C(=O)N([H])[H])c4N([H])[H])C3([H])[H])c([H])c2C([H])([H])C([H])(C([H])([H])C(=O)C([H])([H])Oc2c([H])c([H])c3c(c2[H])C([H])([H])N(C(=O)C([H])(N([H])C(=O)C([H])(N([H])C([H])([H])[H])C([H])([H])[H])C(C([H])([H])[H])(C([H])([H])[H])C([H])([H])[H])C([H])(C(=O)N([H])C2([H])c4c([H])c([H])c([H])c([H])c4C([H])([H])C([H])([H])C2([H])[H])C3([H])[H])[N+]([H])([H])[H])C([H])([H])C([H])([H])C([H])([H])C1([H])[H]

$$$$
32:0:0
     RDKit          3D

 99107  0  0  1  0  0  0  0  0999 V2000
  -29.0250  -20.6010   20.7460 C   0  0  0  0  0  0  0  0  0  0  0  0
  -29.2420  -21.8910   20.4080 N   0  0  0  0  0  0  0  0  0  0  0  0
  -27.7930  -20.2650   21.1380 N   0  0  0  0  0  4  0  0  0  0  0  0
  -30.2050  -22.1300   20.1760 H   0  0  0  0  0  0  0  0  0  0  0  0
  -27.6220  -19.3340   21.4860 H   0  0  0  0  0  0  0  0  0  0  0  0
  -27.0220  -20.9090   21.1140 H   0  0  0  0  0  0  0  0  0  0  0  0
  -29.7290  -18.1920   20.6060 C   0  0  0  0  0  3  0  0  0  0  0  0
  -32.0520  -17.4930   20.7440 C   0  0  0  0  0  3  0  0  0  0  0  0
  -30.0990  -19.5660   20.7250 C   0  0  0  0  0  0  0  0  0  0  0  0
  -30.6890  -17.1440   20.6110 C   0  0  0  0  0  0  0  0  0  0  0  0
  -31.4870  -19.8770   20.8490 C   0  0  0  0  0  0  0  0  0  0  0  0
  -32.4410  -18.8380   20.8510 C   0  0  0  0  0  0  0  0  0  0  0  0
  -33.7570  -19.1450   20.9800 F   0  0  0  0  0  0  0  0  0  0  0  0
  -30.9450  -14.7180   20.0190 C   0  0  0  0  0  0  0  0  0  0  0  0
  -30.6280  -12.4910   19.0000 C   0  0  0  0  0  2  0  0  0  0  0  0
  -29.6350  -12.6030   17.8260 C   0  0  0  0  0  2  0  0  0  0  0  0
  -28.1840  -12.4590   18.3270 C   0  0  0  0  0  2  0  0  0  0  0  0
  -27.8810  -13.3660   19.5500 C   0  0  0  0  0  3  0  0  0  0  0  0
  -28.9850  -13.2420   20.6240 C   0  0  0  0  0  2  0  0  0  0  0  0
  -30.2760  -13.5320   19.9800 N   0  0  0  0  0  0  0  0  0  0  0  0
  -32.0460  -14.8650   19.4840 O   0  0  0  0  0  0  0  0  0  0  0  0
  -30.2630  -15.7700   20.5310 N   0  0  0  0  0  0  0  0  0  0  0  0
  -29.3160  -15.5680   20.8130 H   0  0  0  0  0  0  0  0  0  0  0  0
  -25.5410  -13.9830   20.4250 C   0  0  0  0  0  0  0  0  0  0  0  0
  -24.4850  -13.2150   20.8330 C   0  0  0  0  0  0  0  0  0  0  0  0
  -24.9190  -11.8590   20.7280 C   0  0  0  0  0  0  0  0  0  0  0  0
  -26.5550  -13.0940   20.1010 N   0  0  0  0  0  0  0  0  0  0  0  0
  -26.1880  -11.8090   20.3410 N   0  0  0  0  0  0  0  0  0  0  0  0
  -24.1840  -10.6010   20.9190 C   0  0  0  0  0  0  0  0  0  0  0  0
  -24.5900   -9.6460   21.8770 C   0  0  0  0  0  3  0  0  0  0  0  0
  -23.8560   -8.4530   22.0540 C   0  0  0  0  0  3  0  0  0  0  0  0
  -22.7010   -8.2080   21.2730 C   0  0  0  0  0  0  0  0  0  0  0  0
  -22.3150   -9.1510   20.3050 C   0  0  0  0  0  3  0  0  0  0  0  0
  -23.0490  -10.3350   20.1260 C   0  0  0  0  0  3  0  0  0  0  0  0
  -21.9420   -7.0670   21.3570 O   0  0  0  0  0  0  0  0  0  0  0  0
  -21.7870   -6.3920   22.5420 C   0  0  0  0  0  0  0  0  0  0  0  0
  -21.1970   -6.9960   23.6740 C   0  0  0  0  0  3  0  0  0  0  0  0
  -20.9940   -6.2450   24.8480 C   0  0  0  0  0  3  0  0  0  0  0  0
  -21.3700   -4.8890   24.8910 C   0  0  0  0  0  0  0  0  0  0  0  0
  -21.9530   -4.2840   23.7640 C   0  0  0  0  0  3  0  0  0  0  0  0
  -22.1580   -5.0320   22.5910 C   0  0  0  0  0  0  0  0  0  0  0  0
  -22.7000   -4.4380   21.5010 F   0  0  0  0  0  0  0  0  0  0  0  0
  -21.1690   -4.1650   26.0170 F   0  0  0  0  0  0  0  0  0  0  0  0
  -23.1140  -13.7040   21.2050 C   0  0  0  0  0  0  0  0  0  0  0  0
  -22.4240  -12.9860   22.0840 N   0  0  0  0  0  0  0  0  0  0  0  0
  -22.6670  -14.7560   20.7510 O   0  0  0  0  0  0  0  0  0  0  0  0
  -22.8010  -12.1330   22.4720 H   0  0  0  0  0  0  0  0  0  0  0  0
  -21.5070  -13.2940   22.3740 H   0  0  0  0  0  0  0  0  0  0  0  0
  -25.7180  -15.3560   20.2810 N   0  0  0  0  0  0  0  0  0  0  0  0
  -24.9610  -16.0120   20.4380 H   0  0  0  0  0  0  0  0  0  0  0  0
  -26.5360  -15.7870   19.8680 H   0  0  0  0  0  0  0  0  0  0  0  0
  -31.9920  -21.1810   20.9840 N   0  0  0  0  0  0  0  0  0  0  0  0
  -31.5500  -21.7470   21.7000 H   0  0  0  0  0  0  0  0  0  0  0  0
  -32.9980  -21.1830   21.1330 H   0  0  0  0  0  0  0  0  0  0  0  0
  -28.2950  -23.0410   20.5060 C   0  0  0  0  0  2  0  0  0  0  0  0
  -28.8920  -24.4330   20.1960 C   0  0  0  0  0  0  0  0  0  0  0  0
  -29.9400  -24.5480   19.5490 O   0  0  0  0  0  0  0  0  0  0  0  0
  -28.1360  -25.6540   20.7720 C   0  0  0  0  0  2  0  0  0  0  0  0
  -28.3460  -26.8910   20.0470 O   0  0  0  0  0  0  0  0  0  0  0  0
  -24.5770  -32.0100   23.2840 C   0  0  0  0  0  0  0  0  0  0  0  0
  -27.2150  -27.6800   20.0400 C   0  0  0  0  0  0  0  0  0  0  0  0
  -23.3630  -30.6470   21.6160 C   0  0  0  0  0  3  0  0  0  0  0  0
  -24.8140  -29.1730   20.1200 C   0  0  0  0  0  0  0  0  0  0  0  0
  -25.8840  -31.0370   21.3960 C   0  0  0  0  0  2  0  0  0  0  0  0
  -25.9760  -29.6870   20.7100 C   0  0  0  0  0  0  0  0  0  0  0  0
  -27.1830  -28.9490   20.6640 C   0  0  0  0  0  3  0  0  0  0  0  0
  -26.0390  -27.1900   19.4310 C   0  0  0  0  0  3  0  0  0  0  0  0
  -24.8410  -27.9250   19.4740 C   0  0  0  0  0  3  0  0  0  0  0  0
  -23.5610  -30.0160   20.2120 C   0  0  0  0  0  2  0  0  0  0  0  0
  -24.6270  -31.2440   22.1570 N   0  0  0  0  0  0  0  0  0  0  0  0
  -23.5010  -32.2540   23.8480 O   0  0  0  0  0  0  0  0  0  0  0  0
  -22.7340  -29.5900   22.5520 C   0  0  0  0  0  0  0  0  0  0  0  0
  -21.4160  -29.3740   22.4130 N   0  0  0  0  0  0  0  0  0  0  0  0
  -23.4300  -28.9680   23.3590 O   0  0  0  0  0  0  0  0  0  0  0  0
  -20.9150  -29.9300   21.7340 H   0  0  0  0  0  0  0  0  0  0  0  0
  -18.0780  -28.0560   22.8410 C   0  0  0  0  0  0  0  0  0  0  0  0
  -20.6200  -28.4010   23.1610 C   0  0  0  0  0  3  0  0  0  0  0  0
  -20.7830  -26.9800   22.5710 C   0  0  0  0  0  2  0  0  0  0  0  0
  -19.7100  -26.6300   21.5350 C   0  0  0  0  0  2  0  0  0  0  0  0
  -18.3140  -26.7200   22.1570 C   0  0  0  0  0  2  0  0  0  0  0  0
  -19.1620  -28.8520   23.2990 C   0  0  0  0  0  0  0  0  0  0  0  0
  -18.8890  -30.1010   23.8960 C   0  0  0  0  0  3  0  0  0  0  0  0
  -17.5650  -30.5560   24.0450 C   0  0  0  0  0  3  0  0  0  0  0  0
  -16.4960  -29.7570   23.6040 C   0  0  0  0  0  3  0  0  0  0  0  0
  -16.7520  -28.5090   23.0090 C   0  0  0  0  0  3  0  0  0  0  0  0
  -25.8660  -32.6340   23.9070 C   0  0  0  0  0  3  0  0  0  0  0  0
  -25.5690  -34.0370   24.2220 N   0  0  0  0  0  0  0  0  0  0  0  0
  -25.9120  -35.0780   23.4520 C   0  0  0  0  0  0  0  0  0  0  0  0
  -26.5830  -34.9570   22.4230 O   0  0  0  0  0  0  0  0  0  0  0  0
  -24.9750  -34.2050   25.0210 H   0  0  0  0  0  0  0  0  0  0  0  0
  -24.1970  -36.8790   23.0760 C   0  0  0  0  0  1  0  0  0  0  0  0
  -25.4350  -36.4750   23.8930 C   0  0  0  0  0  3  0  0  0  0  0  0
  -27.5740  -37.3570   24.7180 C   0  0  0  0  0  1  0  0  0  0  0  0
  -26.4760  -37.5190   23.7670 N   0  0  0  0  0  0  0  0  0  0  0  0
  -26.0750  -38.4430   23.9010 H   0  0  0  0  0  0  0  0  0  0  0  0
  -26.3720  -31.8670   25.1900 C   0  0  1  0  0  0  0  0  0  0  0  0
  -25.2660  -31.6240   26.2440 C   0  0  0  0  0  1  0  0  0  0  0  0
  -26.9680  -30.4940   24.8040 C   0  0  0  0  0  1  0  0  0  0  0  0
  -27.5080  -32.6700   25.8670 C   0  0  0  0  0  1  0  0  0  0  0  0
  1  3  2  0
  2 55  1  0
  2  1  1  0
  3  5  1  0
  4  2  1  0
  6  3  1  0
  7 10  2  0
  7  9  1  0
  8 12  2  0
  9  1  1  0
  9 11  2  0
 10  8  1  0
 11 12  1  0
 11 52  1  0
 12 13  1  0
 14 22  1  0
 15 20  1  0
 16 17  1  0
 16 15  1  0
 18 17  1  0
 18 27  1  0
 18 19  1  0
 20 14  1  0
 20 19  1  0
 21 14  2  0
 22 10  1  0
 22 23  1  0
 24 25  2  0
 25 44  1  0
 26 25  1  0
 26 29  1  0
 27 28  1  0
 27 24  1  0
 28 26  2  0
 29 30  1  0
 30 31  2  0
 32 35  1  0
 32 31  1  0
 33 32  2  0
 34 33  1  0
 34 29  2  0
 35 36  1  0
 36 41  2  0
 36 37  1  0
 37 38  2  0
 38 39  1  0
 39 43  1  0
 40 39  2  0
 41 40  1  0
 42 41  1  0
 44 45  1  0
 45 48  1  0
 45 47  1  0
 46 44  2  0
 49 24  1  0
 49 50  1  0
 51 49  1  0
 52 54  1  0
 52 53  1  0
 56 55  1  0
 56 58  1  0
 57 56  2  0
 59 58  1  0
 60 71  2  0
 61 59  1  0
 61 66  1  0
 62 70  1  0
 62 72  1  0
 63 69  1  0
 63 65  1  0
 64 70  1  0
 65 64  1  0
 66 65  2  0
 67 68  1  0
 67 61  2  0
 68 63  2  0
 69 62  1  0
 70 60  1  0
 72 74  2  0
 73 72  1  0
 75 73  1  0
 76 85  2  0
 76 81  1  0
 77 73  1  0
 77 81  1  0
 78 77  1  0
 79 80  1  0
 79 78  1  0
 80 76  1  0
 81 82  2  0
 82 83  1  0
 84 83  2  0
 85 84  1  0
 86 60  1  0
 86 87  1  0
 86 96  1  0
 87 90  1  0
 88 92  1  0
 88 87  1  0
 89 88  2  0
 92 91  1  0
 94 92  1  0
 94 95  1  0
 94 93  1  0
 96 99  1  1
 96 97  1  0
 98 96  1  0
M  ISO  4  14 100  22 100  58 101  59 101
M  END
>  <TORSDO>  (33) 
F 21

>  <SCORE>  (33) 
-13.661

>  <name>  (33) 
32

>  <ligand_id>  (33) 
32

>  <original_smiles>  (33) 
[H]c1c([H])c([H])c2c(c1[H])C([H])([H])C([H])([H])C([H])([H])C2([H])N([H])C(=O)C1([H])N(C(=O)C([H])(N([H])C(=O)C([H])(N([H])C([H])([H])[H])C([H])([H])[H])C(C([H])([H])[H])(C([H])([H])[H])C([H])([H])[H])C([H])([H])c2c([H])c(OC([H])([H])C(=O)C([H])([H])N([H])C(c3c([H])c(N([H])C(=O)N4C([H])([H])C([H])([H])C([H])([H])C([H])(n5nc(-c6c([H])c([H])c(Oc7c([H])c([H])c(F)c([H])c7F)c([H])c6[H])c(C(=O)N([H])[H])c5N([H])[H])C4([H])[H])c([H])c(F)c3N([H])[H])=[N+]([H])[H])c([H])c([H])c2C1([H])[H]

>  <smiles>  (33) 
[H]c1c([H])c([H])c2c(c1[H])C([H])([H])C([H])([H])C([H])([H])C2([H])N([H])C(=O)C1([H])N(C(=O)C([H])(N([H])C(=O)C([H])(N([H])C([H])([H])[H])C([H])([H])[H])C(C([H])([H])[H])(C([H])([H])[H])C([H])([H])[H])C([H])([H])c2c([H])c(OC([H])([H])C(=O)C([H])([H])N([H])C(c3c([H])c(N([H])C(=O)N4C([H])([H])C([H])([H])C([H])([H])C([H])(n5nc(-c6c([H])c([H])c(Oc7c([H])c([H])c(F)c([H])c7F)c([H])c6[H])c(C(=O)N([H])[H])c5N([H])[H])C4([H])[H])c([H])c(F)c3N([H])[H])=[N+]([H])[H])c([H])c([H])c2C1([H])[H]

$$$$
33:0:0
     RDKit          3D

 95103  0  0  1  0  0  0  0  0999 V2000
  -29.2050  -21.9140   21.3140 N   0  0  0  0  0  0  0  0  0  0  0  0
  -28.9410  -22.4150   22.1580 H   0  0  0  0  0  0  0  0  0  0  0  0
  -30.3510  -20.3970   22.7660 C   0  0  0  0  0  3  0  0  0  0  0  0
  -29.8810  -19.5730   20.5380 C   0  0  0  0  0  3  0  0  0  0  0  0
  -30.9890  -19.1760   23.0590 C   0  0  0  0  0  2  0  0  0  0  0  0
  -29.7900  -20.6330   21.4920 C   0  0  0  0  0  0  0  0  0  0  0  0
  -30.5410  -18.3470   20.8820 C   0  0  0  0  0  0  0  0  0  0  0  0
  -31.0660  -18.2140   22.1180 N   0  0  0  0  0  0  0  0  0  0  0  0
  -31.5570  -17.3480   22.3460 H   0  0  0  0  0  0  0  0  0  0  0  0
  -30.7590  -17.1720   19.9080 C   0  0  0  0  0  2  0  0  0  0  0  0
  -31.1970  -14.7010   20.1630 C   0  0  0  0  0  0  0  0  0  0  0  0
  -30.9090  -12.4350   19.2280 C   0  0  0  0  0  2  0  0  0  0  0  0
  -29.9790  -12.5310   18.0000 C   0  0  0  0  0  2  0  0  0  0  0  0
  -28.4990  -12.4410   18.4270 C   0  0  0  0  0  2  0  0  0  0  0  0
  -28.1570  -13.3820   19.6120 C   0  0  0  0  0  3  0  0  0  0  0  0
  -29.2030  -13.2620   20.7440 C   0  0  0  0  0  2  0  0  0  0  0  0
  -30.5290  -13.5130   20.1590 N   0  0  0  0  0  0  0  0  0  0  0  0
  -32.3540  -14.8080   19.7500 O   0  0  0  0  0  0  0  0  0  0  0  0
  -30.4470  -15.8040   20.4060 N   0  0  0  0  0  0  0  0  0  0  0  0
  -29.4930  -15.6310   20.6850 H   0  0  0  0  0  0  0  0  0  0  0  0
  -25.7890  -14.0770   20.3360 C   0  0  0  0  0  0  0  0  0  0  0  0
  -24.6960  -13.3470   20.7150 C   0  0  0  0  0  0  0  0  0  0  0  0
  -25.1070  -11.9790   20.6880 C   0  0  0  0  0  0  0  0  0  0  0  0
  -26.7990  -13.1580   20.1020 N   0  0  0  0  0  0  0  0  0  0  0  0
  -26.3930  -11.8910   20.3740 N   0  0  0  0  0  0  0  0  0  0  0  0
  -24.3360  -10.7450   20.8880 C   0  0  0  0  0  0  0  0  0  0  0  0
  -24.6980   -9.7990   21.8710 C   0  0  0  0  0  3  0  0  0  0  0  0
  -23.9310   -8.6290   22.0560 C   0  0  0  0  0  3  0  0  0  0  0  0
  -22.7860   -8.3970   21.2560 C   0  0  0  0  0  0  0  0  0  0  0  0
  -22.4430   -9.3310   20.2630 C   0  0  0  0  0  3  0  0  0  0  0  0
  -23.2120  -10.4920   20.0760 C   0  0  0  0  0  3  0  0  0  0  0  0
  -21.9960   -7.2770   21.3480 O   0  0  0  0  0  0  0  0  0  0  0  0
  -21.8080   -6.6230   22.5390 C   0  0  0  0  0  0  0  0  0  0  0  0
  -21.2800   -7.2780   23.6730 C   0  0  0  0  0  3  0  0  0  0  0  0
  -21.0390   -6.5520   24.8560 C   0  0  0  0  0  3  0  0  0  0  0  0
  -21.3160   -5.1720   24.9050 C   0  0  0  0  0  0  0  0  0  0  0  0
  -21.8370   -4.5170   23.7750 C   0  0  0  0  0  3  0  0  0  0  0  0
  -22.0790   -5.2410   22.5950 C   0  0  0  0  0  0  0  0  0  0  0  0
  -22.5610   -4.6010   21.5020 F   0  0  0  0  0  0  0  0  0  0  0  0
  -21.0770   -4.4730   26.0390 F   0  0  0  0  0  0  0  0  0  0  0  0
  -23.3180  -13.8770   20.9900 C   0  0  0  0  0  0  0  0  0  0  0  0
  -22.5740  -13.2190   21.8720 N   0  0  0  0  0  0  0  0  0  0  0  0
  -22.9120  -14.9080   20.4570 O   0  0  0  0  0  0  0  0  0  0  0  0
  -22.9160  -12.3840   22.3260 H   0  0  0  0  0  0  0  0  0  0  0  0
  -21.6480  -13.5560   22.0980 H   0  0  0  0  0  0  0  0  0  0  0  0
  -26.0040  -15.4400   20.1470 N   0  0  0  0  0  0  0  0  0  0  0  0
  -25.2570  -16.1190   20.2470 H   0  0  0  0  0  0  0  0  0  0  0  0
  -26.8510  -15.8420   19.7690 H   0  0  0  0  0  0  0  0  0  0  0  0
  -28.9360  -22.7260   20.1100 C   0  0  0  0  0  3  0  0  0  0  0  0
  -28.3930  -24.1510   20.5460 C   0  0  0  0  0  0  0  0  0  0  0  0
  -28.1230  -24.3780   21.7320 O   0  0  0  0  0  0  0  0  0  0  0  0
  -28.1940  -25.2860   19.4950 C   0  0  0  0  0  2  0  0  0  0  0  0
  -28.1380  -26.6240   20.0750 O   0  0  0  0  0  0  0  0  0  0  0  0
  -24.5930  -31.8770   23.3680 C   0  0  0  0  0  0  0  0  0  0  0  0
  -26.9730  -27.3840   20.0980 C   0  0  0  0  0  0  0  0  0  0  0  0
  -23.2880  -30.5630   21.7300 C   0  0  0  0  0  3  0  0  0  0  0  0
  -24.6380  -29.0060   20.2210 C   0  0  0  0  0  0  0  0  0  0  0  0
  -25.8200  -30.8250   21.4630 C   0  0  0  0  0  2  0  0  0  0  0  0
  -25.8340  -29.4640   20.7860 C   0  0  0  0  0  0  0  0  0  0  0  0
  -26.9990  -28.6610   20.7190 C   0  0  0  0  0  3  0  0  0  0  0  0
  -25.7510  -26.9480   19.5350 C   0  0  0  0  0  3  0  0  0  0  0  0
  -24.5950  -27.7490   19.5940 C   0  0  0  0  0  3  0  0  0  0  0  0
  -23.4290  -29.9110   20.3290 C   0  0  0  0  0  2  0  0  0  0  0  0
  -24.5880  -31.1030   22.2440 N   0  0  0  0  0  0  0  0  0  0  0  0
  -23.5390  -32.1720   23.9480 O   0  0  0  0  0  0  0  0  0  0  0  0
  -22.6270  -29.5420   22.6860 C   0  0  0  0  0  0  0  0  0  0  0  0
  -21.3050  -29.3560   22.5450 N   0  0  0  0  0  0  0  0  0  0  0  0
  -23.3030  -28.9220   23.5110 O   0  0  0  0  0  0  0  0  0  0  0  0
  -20.8200  -29.9090   21.8510 H   0  0  0  0  0  0  0  0  0  0  0  0
  -17.9450  -28.0840   22.9430 C   0  0  0  0  0  0  0  0  0  0  0  0
  -20.4820  -28.4160   23.3070 C   0  0  0  0  0  3  0  0  0  0  0  0
  -20.6440  -26.9740   22.7700 C   0  0  0  0  0  2  0  0  0  0  0  0
  -19.5910  -26.5990   21.7230 C   0  0  0  0  0  2  0  0  0  0  0  0
  -18.1810  -26.7240   22.3090 C   0  0  0  0  0  2  0  0  0  0  0  0
  -19.0260  -28.8850   23.3970 C   0  0  0  0  0  0  0  0  0  0  0  0
  -18.7530  -30.1570   23.9460 C   0  0  0  0  0  3  0  0  0  0  0  0
  -17.4300  -30.6280   24.0490 C   0  0  0  0  0  3  0  0  0  0  0  0
  -16.3630  -29.8240   23.6120 C   0  0  0  0  0  3  0  0  0  0  0  0
  -16.6210  -28.5550   23.0640 C   0  0  0  0  0  3  0  0  0  0  0  0
  -25.9180  -32.4470   23.9640 C   0  0  0  0  0  3  0  0  0  0  0  0
  -25.6660  -33.8410   24.3530 N   0  0  0  0  0  0  0  0  0  0  0  0
  -26.0040  -34.9080   23.6190 C   0  0  0  0  0  0  0  0  0  0  0  0
  -26.6330  -34.8220   22.5600 O   0  0  0  0  0  0  0  0  0  0  0  0
  -25.1080  -33.9850   25.1810 H   0  0  0  0  0  0  0  0  0  0  0  0
  -24.3110  -36.7550   23.4030 C   0  0  0  0  0  1  0  0  0  0  0  0
  -25.5780  -36.2940   24.1410 C   0  0  0  0  0  3  0  0  0  0  0  0
  -27.7740  -37.0940   24.8930 C   0  0  0  0  0  1  0  0  0  0  0  0
  -26.6330  -37.3220   24.0110 N   0  0  0  0  0  0  0  0  0  0  0  0
  -26.2610  -38.2470   24.2050 H   0  0  0  0  0  0  0  0  0  0  0  0
  -26.4550  -31.6140   25.1920 C   0  0  1  0  0  0  0  0  0  0  0  0
  -25.3900  -31.3590   26.2850 C   0  0  0  0  0  1  0  0  0  0  0  0
  -26.9930  -30.2410   24.7260 C   0  0  0  0  0  1  0  0  0  0  0  0
  -27.6440  -32.3560   25.8480 C   0  0  0  0  0  1  0  0  0  0  0  0
  -31.4130  -23.5120   19.8580 C   0  0  0  0  0  1  0  0  0  0  0  0
  -30.1900  -22.8430   19.2050 C   0  0  0  0  0  2  0  0  0  0  0  0
  1  6  1  0
  1  2  1  0
  3  5  1  0
  4  7  2  0
  4  6  1  0
  6  3  2  0
  7  8  1  0
  8  9  1  0
  8  5  1  0
 10 19  1  0
 10  7  1  0
 11 19  1  0
 12 17  1  0
 13 14  1  0
 13 12  1  0
 15 14  1  0
 15 24  1  0
 15 16  1  0
 17 11  1  0
 17 16  1  0
 18 11  2  0
 19 20  1  0
 21 22  2  0
 22 41  1  0
 23 22  1  0
 23 26  1  0
 24 21  1  0
 24 25  1  0
 25 23  2  0
 26 27  1  0
 27 28  2  0
 29 32  1  0
 29 28  1  0
 30 29  2  0
 31 30  1  0
 31 26  2  0
 32 33  1  0
 33 38  2  0
 33 34  1  0
 34 35  2  0
 35 36  1  0
 36 40  1  0
 37 36  2  0
 38 37  1  0
 39 38  1  0
 41 42  1  0
 42 45  1  0
 42 44  1  0
 43 41  2  0
 46 47  1  0
 46 21  1  0
 48 46  1  0
 49 95  1  0
 49 50  1  0
 49  1  1  0
 50 51  2  0
 52 53  1  0
 52 50  1  0
 53 55  1  0
 54 65  2  0
 55 60  1  0
 56 64  1  0
 56 66  1  0
 57 63  1  0
 57 59  1  0
 58 64  1  0
 59 58  1  0
 60 59  2  0
 61 62  1  0
 61 55  2  0
 62 57  2  0
 63 56  1  0
 64 54  1  0
 66 68  2  0
 67 66  1  0
 69 67  1  0
 70 79  2  0
 70 75  1  0
 71 67  1  0
 71 75  1  0
 72 71  1  0
 73 74  1  0
 73 72  1  0
 74 70  1  0
 75 76  2  0
 76 77  1  0
 78 77  2  0
 79 78  1  0
 80 54  1  0
 80 81  1  0
 80 90  1  0
 81 84  1  0
 82 86  1  0
 82 81  1  0
 83 82  2  0
 86 85  1  0
 88 86  1  0
 88 89  1  0
 88 87  1  0
 90 93  1  1
 90 91  1  0
 92 90  1  0
 95 94  1  0
M  ISO  4  11 100  19 100  52 101  53 101
M  END
>  <TORSDO>  (34) 
F 22

>  <SCORE>  (34) 
-12.420

>  <name>  (34) 
33

>  <ligand_id>  (34) 
33

>  <original_smiles>  (34) 
[H]c1c([H])c([H])c2c(c1[H])C([H])([H])C([H])([H])C([H])([H])C2([H])N([H])C(=O)C1([H])N(C(=O)C([H])(N([H])C(=O)C([H])(N([H])C([H])([H])[H])C([H])([H])[H])C(C([H])([H])[H])(C([H])([H])[H])C([H])([H])[H])C([H])([H])c2c([H])c(OC([H])([H])C(=O)C([H])(N([H])c3c([H])c([H])[n+]([H])c(C([H])([H])N([H])C(=O)N4C([H])([H])C([H])([H])C([H])([H])C([H])(n5nc(-c6c([H])c([H])c(Oc7c([H])c([H])c(F)c([H])c7F)c([H])c6[H])c(C(=O)N([H])[H])c5N([H])[H])C4([H])[H])c3[H])C([H])([H])C([H])([H])[H])c([H])c([H])c2C1([H])[H]

>  <smiles>  (34) 
[H]c1c([H])c([H])c2c(c1[H])C([H])([H])C([H])([H])C([H])([H])C2([H])N([H])C(=O)C1([H])N(C(=O)C([H])(N([H])C(=O)C([H])(N([H])C([H])([H])[H])C([H])([H])[H])C(C([H])([H])[H])(C([H])([H])[H])C([H])([H])[H])C([H])([H])c2c([H])c(OC([H])([H])C(=O)C([H])(N([H])c3c([H])c([H])[n+]([H])c(C([H])([H])N([H])C(=O)N4C([H])([H])C([H])([H])C([H])([H])C([H])(n5nc(-c6c([H])c([H])c(Oc7c([H])c([H])c(F)c([H])c7F)c([H])c6[H])c(C(=O)N([H])[H])c5N([H])[H])C4([H])[H])c3[H])C([H])([H])C([H])([H])[H])c([H])c([H])c2C1([H])[H]

$$$$
34:0:0
     RDKit          3D

101110  0  0  1  0  0  0  0  0999 V2000
  -32.7390  -21.7740   16.5540 C   0  0  0  0  0  0  0  0  0  0  0  0
  -33.4560  -23.3480   18.3840 C   0  0  0  0  0  1  0  0  0  0  0  0
  -32.5280  -22.8700   17.3480 N   0  0  0  0  0  0  0  0  0  0  0  0
  -31.9110  -21.3730   15.7260 O   0  0  0  0  0  0  0  0  0  0  0  0
  -29.0830  -25.3340   16.9510 C   0  0  0  0  0  3  0  0  0  0  0  0
  -31.4950  -25.0260   16.8660 C   0  0  0  0  0  3  0  0  0  0  0  0
  -28.9110  -23.9810   17.3160 C   0  0  0  0  0  0  0  0  0  0  0  0
  -30.0460  -23.1400   17.4480 C   0  0  0  0  0  0  0  0  0  0  0  0
  -30.3710  -25.8660   16.7320 C   0  0  0  0  0  0  0  0  0  0  0  0
  -31.3460  -23.6590   17.1960 C   0  0  0  0  0  0  0  0  0  0  0  0
  -27.5250  -23.4660   17.6270 C   0  0  0  0  0  0  0  0  0  0  0  0
  -29.8200  -21.7070   17.9150 C   0  0  0  0  0  2  0  0  0  0  0  0
  -28.4570  -21.1730   17.4480 C   0  0  0  0  0  2  0  0  0  0  0  0
  -26.0600  -21.5310   17.9910 C   0  0  0  0  0  1  0  0  0  0  0  0
  -27.3650  -22.1240   17.6870 N   0  0  0  0  0  0  0  0  0  0  0  0
  -26.5940  -24.2600   17.8040 O   0  0  0  0  0  0  0  0  0  0  0  0
  -29.6590  -28.2040   16.2530 C   0  0  0  0  0  0  0  0  0  0  0  0
  -29.3920  -30.5800   15.6280 C   0  0  0  0  0  2  0  0  0  0  0  0
  -29.8900  -30.8170   14.1890 C   0  0  0  0  0  2  0  0  0  0  0  0
  -31.4090  -31.0800   14.1680 C   0  0  0  0  0  2  0  0  0  0  0  0
  -32.2080  -30.0270   14.9810 C   0  0  0  0  0  3  0  0  0  0  0  0
  -31.5790  -29.8340   16.3780 C   0  0  0  0  0  2  0  0  0  0  0  0
  -30.1640  -29.4630   16.1910 N   0  0  0  0  0  0  0  0  0  0  0  0
  -28.4730  -27.9420   16.0250 O   0  0  0  0  0  0  0  0  0  0  0  0
  -30.5760  -27.2480   16.4760 N   0  0  0  0  0  0  0  0  0  0  0  0
  -31.5330  -27.5630   16.4580 H   0  0  0  0  0  0  0  0  0  0  0  0
  -34.5690  -30.4940   14.0610 C   0  0  0  0  0  0  0  0  0  0  0  0
  -35.7200  -30.9160   14.6710 C   0  0  0  0  0  0  0  0  0  0  0  0
  -35.4050  -31.0460   16.0580 C   0  0  0  0  0  0  0  0  0  0  0  0
  -33.6240  -30.3800   15.0700 N   0  0  0  0  0  0  0  0  0  0  0  0
  -34.1550  -30.6660   16.2860 N   0  0  0  0  0  0  0  0  0  0  0  0
  -36.2060  -31.5650   17.1750 C   0  0  0  0  0  0  0  0  0  0  0  0
  -36.2880  -30.8790   18.4060 C   0  0  0  0  0  3  0  0  0  0  0  0
  -37.0770  -31.3900   19.4600 C   0  0  0  0  0  3  0  0  0  0  0  0
  -37.7970  -32.5950   19.2860 C   0  0  0  0  0  0  0  0  0  0  0  0
  -37.6930  -33.2870   18.0660 C   0  0  0  0  0  3  0  0  0  0  0  0
  -36.9040  -32.7800   17.0210 C   0  0  0  0  0  3  0  0  0  0  0  0
  -38.5690  -33.1800   20.2620 O   0  0  0  0  0  0  0  0  0  0  0  0
  -38.7630  -32.5810   21.4810 C   0  0  0  0  0  0  0  0  0  0  0  0
  -39.5720  -31.4320   21.6270 C   0  0  0  0  0  3  0  0  0  0  0  0
  -39.8010  -30.8910   22.9080 C   0  0  0  0  0  3  0  0  0  0  0  0
  -39.2320  -31.5000   24.0420 C   0  0  0  0  0  0  0  0  0  0  0  0
  -38.4300  -32.6460   23.8990 C   0  0  0  0  0  3  0  0  0  0  0  0
  -38.1990  -33.1870   22.6210 C   0  0  0  0  0  0  0  0  0  0  0  0
  -37.4440  -34.3040   22.4910 F   0  0  0  0  0  0  0  0  0  0  0  0
  -39.4570  -30.9850   25.2730 F   0  0  0  0  0  0  0  0  0  0  0  0
  -37.0120  -31.2720   13.9950 C   0  0  0  0  0  0  0  0  0  0  0  0
  -38.1380  -31.0370   14.6610 N   0  0  0  0  0  0  0  0  0  0  0  0
  -37.0320  -31.7170   12.8490 O   0  0  0  0  0  0  0  0  0  0  0  0
  -38.1220  -30.6510   15.5930 H   0  0  0  0  0  0  0  0  0  0  0  0
  -39.0280  -31.2440   14.2310 H   0  0  0  0  0  0  0  0  0  0  0  0
  -34.2400  -30.2180   12.7370 N   0  0  0  0  0  0  0  0  0  0  0  0
  -34.8990  -30.3560   11.9780 H   0  0  0  0  0  0  0  0  0  0  0  0
  -33.3140  -29.9670   12.4160 H   0  0  0  0  0  0  0  0  0  0  0  0
  -34.0490  -21.0040   16.7250 C   0  0  0  0  0  0  0  0  0  0  0  0
  -34.6980  -20.4610   15.7770 N   0  0  0  0  0  0  0  0  0  0  0  0
  -34.2360  -20.6030   14.8870 H   0  0  0  0  0  0  0  0  0  0  0  0
  -34.5820  -20.8810   18.1540 C   0  0  0  0  0  2  0  0  0  0  0  0
  -34.7360  -19.4250   18.6470 C   0  0  0  0  0  2  0  0  0  0  0  0
  -34.6660  -18.4050   17.4960 C   0  0  0  0  0  2  0  0  0  0  0  0
  -34.9020  -19.0360   16.2400 O   0  0  0  0  0  0  0  0  0  0  0  0
  -38.5460  -15.8890   10.9870 C   0  0  0  0  0  0  0  0  0  0  0  0
  -34.8950  -18.1960   15.1560 C   0  0  0  0  0  0  0  0  0  0  0  0
  -36.0850  -15.6380   10.9060 C   0  0  0  0  0  3  0  0  0  0  0  0
  -34.8260  -16.3920   12.9930 C   0  0  0  0  0  0  0  0  0  0  0  0
  -37.2890  -15.9750   13.1350 C   0  0  0  0  0  2  0  0  0  0  0  0
  -36.0400  -16.6690   13.6340 C   0  0  0  0  0  0  0  0  0  0  0  0
  -36.0820  -17.5730   14.7170 C   0  0  0  0  0  3  0  0  0  0  0  0
  -33.6790  -17.9110   14.5090 C   0  0  0  0  0  3  0  0  0  0  0  0
  -33.6400  -17.0140   13.4230 C   0  0  0  0  0  3  0  0  0  0  0  0
  -34.8700  -15.4080   11.8450 C   0  0  0  0  0  2  0  0  0  0  0  0
  -37.3600  -15.8620   11.6600 N   0  0  0  0  0  0  0  0  0  0  0  0
  -38.5940  -15.6870    9.7660 O   0  0  0  0  0  0  0  0  0  0  0  0
  -35.7410  -16.7840    9.9290 C   0  0  0  0  0  0  0  0  0  0  0  0
  -34.4370  -17.0040    9.7030 N   0  0  0  0  0  0  0  0  0  0  0  0
  -36.6320  -17.4670    9.4170 O   0  0  0  0  0  0  0  0  0  0  0  0
  -33.7680  -16.3970   10.1550 H   0  0  0  0  0  0  0  0  0  0  0  0
  -31.4580  -18.9440    9.0540 C   0  0  0  0  0  0  0  0  0  0  0  0
  -33.8760  -18.0550    8.8520 C   0  0  0  0  0  3  0  0  0  0  0  0
  -34.3240  -19.4560    9.3300 C   0  0  0  0  0  2  0  0  0  0  0  0
  -33.3300  -20.1080   10.2960 C   0  0  0  0  0  2  0  0  0  0  0  0
  -31.9570  -20.2560    9.6370 C   0  0  0  0  0  2  0  0  0  0  0  0
  -32.3590  -17.9040    8.7010 C   0  0  0  0  0  0  0  0  0  0  0  0
  -31.8410  -16.6900    8.1980 C   0  0  0  0  0  3  0  0  0  0  0  0
  -30.4540  -16.5100    8.0420 C   0  0  0  0  0  3  0  0  0  0  0  0
  -29.5680  -17.5480    8.3770 C   0  0  0  0  0  3  0  0  0  0  0  0
  -30.0710  -18.7620    8.8790 C   0  0  0  0  0  3  0  0  0  0  0  0
  -39.8980  -16.1500   11.7210 C   0  0  0  0  0  3  0  0  0  0  0  0
  -39.6050  -16.9540   12.9150 N   0  0  0  0  0  0  0  0  0  0  0  0
  -40.1800  -18.1300   13.1990 C   0  0  0  0  0  0  0  0  0  0  0  0
  -41.0780  -18.6220   12.5090 O   0  0  0  0  0  0  0  0  0  0  0  0
  -38.8420  -16.6400   13.4970 H   0  0  0  0  0  0  0  0  0  0  0  0
  -38.7990  -20.0650   14.0170 C   0  0  0  0  0  1  0  0  0  0  0  0
  -39.6800  -18.8820   14.4470 C   0  0  0  0  0  3  0  0  0  0  0  0
  -41.6130  -18.2900   15.8390 C   0  0  0  0  0  1  0  0  0  0  0  0
  -40.7720  -19.3640   15.3200 N   0  0  0  0  0  0  0  0  0  0  0  0
  -40.3980  -19.8840   16.1100 H   0  0  0  0  0  0  0  0  0  0  0  0
  -40.6610  -14.8250   12.1120 C   0  0  1  0  0  0  0  0  0  0  0  0
  -39.7680  -13.7800   12.8190 C   0  0  0  0  0  1  0  0  0  0  0  0
  -41.2700  -14.1570   10.8580 C   0  0  0  0  0  1  0  0  0  0  0  0
  -41.8430  -15.1590   13.0530 C   0  0  0  0  0  1  0  0  0  0  0  0
  1 55  1  0
  1  3  1  0
  3  2  1  0
  4  1  2  0
  5  7  1  0
  6 10  2  0
  7  8  2  0
  7 11  1  0
  8 12  1  0
  9  6  1  0
  9  5  2  0
 10  3  1  0
 10  8  1  0
 11 15  1  0
 11 16  2  0
 13 15  1  0
 13 12  1  0
 15 14  1  0
 17 25  1  0
 18 23  1  0
 19 18  1  0
 20 19  1  0
 21 20  1  0
 21 30  1  0
 21 22  1  0
 23 17  1  0
 23 22  1  0
 24 17  2  0
 25  9  1  0
 26 25  1  0
 27 28  2  0
 27 30  1  0
 28 29  1  0
 29 31  2  0
 29 32  1  0
 30 31  1  0
 32 33  1  0
 33 34  2  0
 35 34  1  0
 35 38  1  0
 36 35  2  0
 37 32  2  0
 37 36  1  0
 38 39  1  0
 39 40  2  0
 39 44  1  0
 40 41  1  0
 41 42  2  0
 42 46  1  0
 43 42  1  0
 44 43  2  0
 45 44  1  0
 47 48  1  0
 47 28  1  0
 48 50  1  0
 49 47  2  0
 51 48  1  0
 52 27  1  0
 53 52  1  0
 54 52  1  0
 55 58  1  0
 56 55  2  0
 57 56  1  0
 58 59  1  0
 60 59  1  0
 61 60  1  0
 62 72  1  0
 63 61  1  0
 64 74  1  0
 64 72  1  0
 64 71  1  0
 65 70  2  0
 65 67  1  0
 66 67  1  0
 67 68  2  0
 68 63  1  0
 69 63  2  0
 70 69  1  0
 71 65  1  0
 72 66  1  0
 73 62  2  0
 75 74  1  0
 75 77  1  0
 76 74  2  0
 78 82  1  0
 79 80  1  0
 79 75  1  0
 80 81  1  0
 82 81  1  0
 83 79  1  0
 83 78  2  0
 84 83  1  0
 85 84  2  0
 85 86  1  0
 86 87  2  0
 87 78  1  0
 88 62  1  0
 88 98  1  0
 88 89  1  0
 89 90  1  0
 89 92  1  0
 90 94  1  0
 91 90  2  0
 94 93  1  0
 94 96  1  0
 96 95  1  0
 96 97  1  0
 98 99  1  1
 98101  1  0
100 98  1  0
M  ISO  4  17 100  25 100  60 101  61 101
M  END
>  <TORSDO>  (35) 
F 21

>  <SCORE>  (35) 
-1.403

>  <name>  (35) 
34

>  <ligand_id>  (35) 
34

>  <original_smiles>  (35) 
[H]N=C(C(=O)N(c1c([H])c(N([H])C(=O)N2C([H])([H])C([H])([H])C([H])([H])C([H])(n3nc(-c4c([H])c([H])c(Oc5c([H])c([H])c(F)c([H])c5F)c([H])c4[H])c(C(=O)N([H])[H])c3N([H])[H])C2([H])[H])c([H])c2c1C([H])([H])C([H])([H])N(C([H])([H])[H])C2=O)C([H])([H])[H])C([H])([H])C([H])([H])C([H])([H])Oc1c([H])c([H])c2c(c1[H])C([H])([H])N(C(=O)C([H])(N([H])C(=O)C([H])(N([H])C([H])([H])[H])C([H])([H])[H])C(C([H])([H])[H])(C([H])([H])[H])C([H])([H])[H])C([H])(C(=O)N([H])C1([H])c3c([H])c([H])c([H])c([H])c3C([H])([H])C([H])([H])C1([H])[H])C2([H])[H]

>  <smiles>  (35) 
[H]N=C(C(=O)N(c1c([H])c(N([H])C(=O)N2C([H])([H])C([H])([H])C([H])([H])C([H])(n3nc(-c4c([H])c([H])c(Oc5c([H])c([H])c(F)c([H])c5F)c([H])c4[H])c(C(=O)N([H])[H])c3N([H])[H])C2([H])[H])c([H])c2c1C([H])([H])C([H])([H])N(C([H])([H])[H])C2=O)C([H])([H])[H])C([H])([H])C([H])([H])C([H])([H])Oc1c([H])c([H])c2c(c1[H])C([H])([H])N(C(=O)C([H])(N([H])C(=O)C([H])(N([H])C([H])([H])[H])C([H])([H])[H])C(C([H])([H])[H])(C([H])([H])[H])C([H])([H])[H])C([H])(C(=O)N([H])C1([H])c3c([H])c([H])c([H])c([H])c3C([H])([H])C([H])([H])C1([H])[H])C2([H])[H]

$$$$
35:0:0
     RDKit          3D

 92101  0  0  1  0  0  0  0  0999 V2000
  -29.2320  -23.5260   19.7270 C   0  0  0  0  0  3  0  0  0  0  0  0
  -28.5540  -23.9710   20.8090 C   0  0  0  0  0  0  0  0  0  0  0  0
  -29.6190  -22.0450   19.4530 C   0  0  0  0  0  2  0  0  0  0  0  0
  -28.1050  -22.9370   21.8430 C   0  0  0  0  0  2  0  0  0  0  0  0
  -28.9370  -21.6250   21.8530 C   0  0  0  0  0  2  0  0  0  0  0  0
  -29.1130  -20.9520   20.4700 C   0  0  0  0  0  3  0  0  0  0  0  0
  -32.2320  -18.7460   21.0610 C   0  0  0  0  0  3  0  0  0  0  0  0
  -31.3750  -19.8450   20.8870 C   0  0  0  0  0  3  0  0  0  0  0  0
  -31.7540  -17.4310   20.9250 C   0  0  0  0  0  3  0  0  0  0  0  0
  -29.5360  -18.3110   20.4350 C   0  0  0  0  0  3  0  0  0  0  0  0
  -30.0100  -19.6670   20.5760 C   0  0  0  0  0  0  0  0  0  0  0  0
  -30.4030  -17.1670   20.5900 C   0  0  0  0  0  0  0  0  0  0  0  0
  -30.6380  -14.6640   20.0900 C   0  0  0  0  0  0  0  0  0  0  0  0
  -30.3050  -12.4620   18.9950 C   0  0  0  0  0  2  0  0  0  0  0  0
  -29.3110  -12.6210   17.8270 C   0  0  0  0  0  2  0  0  0  0  0  0
  -27.8620  -12.4600   18.3270 C   0  0  0  0  0  2  0  0  0  0  0  0
  -27.5670  -13.3060   19.5950 C   0  0  0  0  0  3  0  0  0  0  0  0
  -28.6800  -13.1530   20.6560 C   0  0  0  0  0  2  0  0  0  0  0  0
  -29.9580  -13.4790   20.0080 N   0  0  0  0  0  0  0  0  0  0  0  0
  -31.7840  -14.7530   19.6410 O   0  0  0  0  0  0  0  0  0  0  0  0
  -29.9370  -15.7820   20.4720 N   0  0  0  0  0  0  0  0  0  0  0  0
  -28.9580  -15.6260   20.6540 H   0  0  0  0  0  0  0  0  0  0  0  0
  -25.2120  -13.8850   20.4370 C   0  0  0  0  0  0  0  0  0  0  0  0
  -24.1660  -13.1030   20.8480 C   0  0  0  0  0  0  0  0  0  0  0  0
  -24.6300  -11.7540   20.7770 C   0  0  0  0  0  0  0  0  0  0  0  0
  -26.2470  -13.0120   20.1420 N   0  0  0  0  0  0  0  0  0  0  0  0
  -25.9050  -11.7240   20.4080 N   0  0  0  0  0  0  0  0  0  0  0  0
  -23.9180  -10.4870   20.9840 C   0  0  0  0  0  0  0  0  0  0  0  0
  -24.3750   -9.5230   21.9090 C   0  0  0  0  0  3  0  0  0  0  0  0
  -23.6620   -8.3210   22.1040 C   0  0  0  0  0  3  0  0  0  0  0  0
  -22.4750   -8.0740   21.3730 C   0  0  0  0  0  0  0  0  0  0  0  0
  -22.0360   -9.0260   20.4360 C   0  0  0  0  0  3  0  0  0  0  0  0
  -22.7510  -10.2190   20.2400 C   0  0  0  0  0  3  0  0  0  0  0  0
  -21.7300   -6.9240   21.4780 O   0  0  0  0  0  0  0  0  0  0  0  0
  -21.6930   -6.1940   22.6390 C   0  0  0  0  0  0  0  0  0  0  0  0
  -21.2450   -6.7510   23.8560 C   0  0  0  0  0  3  0  0  0  0  0  0
  -21.1580   -5.9450   25.0100 C   0  0  0  0  0  3  0  0  0  0  0  0
  -21.5080   -4.5840   24.9460 C   0  0  0  0  0  0  0  0  0  0  0  0
  -21.9500   -4.0260   23.7340 C   0  0  0  0  0  3  0  0  0  0  0  0
  -22.0390   -4.8280   22.5820 C   0  0  0  0  0  0  0  0  0  0  0  0
  -22.4440   -4.2800   21.4110 F   0  0  0  0  0  0  0  0  0  0  0  0
  -21.4180   -3.8070   26.0510 F   0  0  0  0  0  0  0  0  0  0  0  0
  -22.7820  -13.5720   21.1910 C   0  0  0  0  0  0  0  0  0  0  0  0
  -22.0950  -12.8570   22.0750 N   0  0  0  0  0  0  0  0  0  0  0  0
  -22.3210  -14.6060   20.7120 O   0  0  0  0  0  0  0  0  0  0  0  0
  -22.4820  -12.0190   22.4830 H   0  0  0  0  0  0  0  0  0  0  0  0
  -21.1680  -13.1520   22.3470 H   0  0  0  0  0  0  0  0  0  0  0  0
  -25.3630  -15.2580   20.2680 N   0  0  0  0  0  0  0  0  0  0  0  0
  -24.5950  -15.9050   20.4160 H   0  0  0  0  0  0  0  0  0  0  0  0
  -26.1820  -15.7030   19.8760 H   0  0  0  0  0  0  0  0  0  0  0  0
  -28.1590  -25.4450   21.1680 C   0  0  0  0  0  2  0  0  0  0  0  0
  -28.3640  -26.5510   20.2290 O   0  0  0  0  0  0  0  0  0  0  0  0
  -24.6150  -31.8970   23.2550 C   0  0  0  0  0  0  0  0  0  0  0  0
  -27.2750  -27.4190   20.1750 C   0  0  0  0  0  0  0  0  0  0  0  0
  -23.4280  -30.5050   21.5930 C   0  0  0  0  0  3  0  0  0  0  0  0
  -24.8990  -28.9810   20.1600 C   0  0  0  0  0  0  0  0  0  0  0  0
  -25.9630  -30.8540   21.4240 C   0  0  0  0  0  2  0  0  0  0  0  0
  -26.0580  -29.4850   20.7680 C   0  0  0  0  0  0  0  0  0  0  0  0
  -27.2540  -28.7120   20.7690 C   0  0  0  0  0  3  0  0  0  0  0  0
  -26.1040  -26.9570   19.5440 C   0  0  0  0  0  3  0  0  0  0  0  0
  -24.9210  -27.7210   19.5390 C   0  0  0  0  0  3  0  0  0  0  0  0
  -23.6530  -29.8420   20.2090 C   0  0  0  0  0  2  0  0  0  0  0  0
  -24.6870  -31.1020   22.1490 N   0  0  0  0  0  0  0  0  0  0  0  0
  -23.5280  -32.1630   23.7870 O   0  0  0  0  0  0  0  0  0  0  0  0
  -22.7670  -29.4770   22.5400 C   0  0  0  0  0  0  0  0  0  0  0  0
  -21.4420  -29.2990   22.4080 N   0  0  0  0  0  0  0  0  0  0  0  0
  -23.4460  -28.8430   23.3530 O   0  0  0  0  0  0  0  0  0  0  0  0
  -20.9550  -29.8620   21.7240 H   0  0  0  0  0  0  0  0  0  0  0  0
  -18.0620  -28.1060   22.8920 C   0  0  0  0  0  0  0  0  0  0  0  0
  -20.6210  -28.3530   23.1650 C   0  0  0  0  0  3  0  0  0  0  0  0
  -20.7180  -26.9300   22.5690 C   0  0  0  0  0  2  0  0  0  0  0  0
  -19.6150  -26.6250   21.5510 C   0  0  0  0  0  2  0  0  0  0  0  0
  -18.2340  -26.7660   22.1980 C   0  0  0  0  0  2  0  0  0  0  0  0
  -19.1840  -28.8590   23.3330 C   0  0  0  0  0  0  0  0  0  0  0  0
  -18.9700  -30.1140   23.9410 C   0  0  0  0  0  3  0  0  0  0  0  0
  -17.6670  -30.6180   24.1140 C   0  0  0  0  0  3  0  0  0  0  0  0
  -16.5600  -29.8630   23.6910 C   0  0  0  0  0  3  0  0  0  0  0  0
  -16.7580  -28.6080   23.0850 C   0  0  0  0  0  3  0  0  0  0  0  0
  -25.8930  -32.5290   23.8910 C   0  0  0  0  0  3  0  0  0  0  0  0
  -25.5770  -33.9250   24.2250 N   0  0  0  0  0  0  0  0  0  0  0  0
  -25.9100  -34.9810   23.4700 C   0  0  0  0  0  0  0  0  0  0  0  0
  -26.5850  -34.8830   22.4420 O   0  0  0  0  0  0  0  0  0  0  0  0
  -24.9790  -34.0750   25.0230 H   0  0  0  0  0  0  0  0  0  0  0  0
  -24.1820  -36.7730   23.1120 C   0  0  0  0  0  1  0  0  0  0  0  0
  -25.4180  -36.3660   23.9300 C   0  0  0  0  0  3  0  0  0  0  0  0
  -27.5420  -37.2540   24.7840 C   0  0  0  0  0  1  0  0  0  0  0  0
  -26.4490  -37.4220   23.8300 N   0  0  0  0  0  0  0  0  0  0  0  0
  -26.0410  -38.3410   23.9750 H   0  0  0  0  0  0  0  0  0  0  0  0
  -26.3990  -31.7520   25.1670 C   0  0  1  0  0  0  0  0  0  0  0  0
  -25.2980  -31.5060   26.2240 C   0  0  0  0  0  1  0  0  0  0  0  0
  -26.9910  -30.3790   24.7730 C   0  0  0  0  0  1  0  0  0  0  0  0
  -27.5420  -32.5460   25.8440 C   0  0  0  0  0  1  0  0  0  0  0  0
  1  2  2  0
  2 51  1  0
  2  4  1  0
  3  1  1  0
  3  6  1  0
  4  5  1  0
  6 11  1  0
  6  5  1  0
  8  7  2  0
  9  7  1  0
 10 11  2  0
 10 12  1  0
 11  8  1  0
 12  9  2  0
 13 21  1  0
 14 19  1  0
 15 16  1  0
 15 14  1  0
 17 16  1  0
 17 26  1  0
 17 18  1  0
 19 13  1  0
 19 18  1  0
 20 13  2  0
 21 12  1  0
 21 22  1  0
 23 24  2  0
 24 43  1  0
 25 24  1  0
 25 28  1  0
 26 27  1  0
 26 23  1  0
 27 25  2  0
 28 29  1  0
 29 30  2  0
 31 34  1  0
 31 30  1  0
 32 31  2  0
 33 32  1  0
 33 28  2  0
 34 35  1  0
 35 36  1  0
 36 37  2  0
 38 37  1  0
 38 42  1  0
 39 38  2  0
 40 35  2  0
 40 39  1  0
 41 40  1  0
 43 44  1  0
 44 47  1  0
 44 46  1  0
 45 43  2  0
 48 49  1  0
 48 23  1  0
 50 48  1  0
 52 51  1  0
 53 64  2  0
 54 52  1  0
 54 59  1  0
 55 63  1  0
 55 65  1  0
 56 62  1  0
 56 58  1  0
 57 63  1  0
 58 59  2  0
 58 57  1  0
 60 54  2  0
 61 60  1  0
 61 56  2  0
 62 55  1  0
 63 53  1  0
 65 67  2  0
 66 65  1  0
 68 66  1  0
 69 78  2  0
 69 74  1  0
 70 66  1  0
 70 74  1  0
 71 70  1  0
 72 73  1  0
 72 71  1  0
 73 69  1  0
 74 75  2  0
 75 76  1  0
 77 76  2  0
 78 77  1  0
 79 53  1  0
 79 80  1  0
 79 89  1  0
 80 83  1  0
 81 85  1  0
 81 80  1  0
 82 81  2  0
 85 84  1  0
 87 85  1  0
 87 88  1  0
 87 86  1  0
 89 92  1  1
 89 90  1  0
 91 89  1  0
M  ISO  4  13 100  21 100  51 101  52 101
M  END
>  <TORSDO>  (36) 
F 18

>  <SCORE>  (36) 
-14.995

>  <name>  (36) 
35

>  <ligand_id>  (36) 
35

>  <original_smiles>  (36) 
[H]C1=C(C([H])([H])Oc2c([H])c([H])c3c(c2[H])C([H])([H])N(C(=O)C([H])(N([H])C(=O)C([H])(N([H])C([H])([H])[H])C([H])([H])[H])C(C([H])([H])[H])(C([H])([H])[H])C([H])([H])[H])C([H])(C(=O)N([H])C2([H])c4c([H])c([H])c([H])c([H])c4C([H])([H])C([H])([H])C2([H])[H])C3([H])[H])C([H])([H])C([H])([H])C([H])(c2c([H])c([H])c([H])c(N([H])C(=O)N3C([H])([H])C([H])([H])C([H])([H])C([H])(n4nc(-c5c([H])c([H])c(Oc6c([H])c([H])c(F)c([H])c6F)c([H])c5[H])c(C(=O)N([H])[H])c4N([H])[H])C3([H])[H])c2[H])C1([H])[H]

>  <smiles>  (36) 
[H]C1=C(C([H])([H])Oc2c([H])c([H])c3c(c2[H])C([H])([H])N(C(=O)C([H])(N([H])C(=O)C([H])(N([H])C([H])([H])[H])C([H])([H])[H])C(C([H])([H])[H])(C([H])([H])[H])C([H])([H])[H])C([H])(C(=O)N([H])C2([H])c4c([H])c([H])c([H])c([H])c4C([H])([H])C([H])([H])C2([H])[H])C3([H])[H])C([H])([H])C([H])([H])C([H])(c2c([H])c([H])c([H])c(N([H])C(=O)N3C([H])([H])C([H])([H])C([H])([H])C([H])(n4nc(-c5c([H])c([H])c(Oc6c([H])c([H])c(F)c([H])c6F)c([H])c5[H])c(C(=O)N([H])[H])c4N([H])[H])C3([H])[H])c2[H])C1([H])[H]

$$$$
36:0:0
     RDKit          3D

 96104  0  0  1  0  0  0  0  0999 V2000
  -28.9610  -20.5350   20.7370 C   0  0  0  0  0  0  0  0  0  0  0  0
  -29.2420  -21.8220   20.4270 N   0  0  0  0  0  0  0  0  0  0  0  0
  -27.7250  -20.2570   21.1520 N   0  0  0  0  0  4  0  0  0  0  0  0
  -30.1490  -22.0330   20.0240 H   0  0  0  0  0  0  0  0  0  0  0  0
  -27.4860  -19.2850   21.2980 H   0  0  0  0  0  0  0  0  0  0  0  0
  -26.9940  -20.9440   21.2160 H   0  0  0  0  0  0  0  0  0  0  0  0
  -32.3530  -18.8390   20.7900 C   0  0  0  0  0  3  0  0  0  0  0  0
  -31.3480  -19.8230   20.7680 C   0  0  0  0  0  3  0  0  0  0  0  0
  -32.0150  -17.4750   20.7370 C   0  0  0  0  0  3  0  0  0  0  0  0
  -29.9840  -19.4600   20.6880 C   0  0  0  0  0  0  0  0  0  0  0  0
  -30.6610  -17.0690   20.6450 C   0  0  0  0  0  0  0  0  0  0  0  0
  -29.6530  -18.0710   20.6300 C   0  0  0  0  0  0  0  0  0  0  0  0
  -28.3560  -17.6720   20.5820 F   0  0  0  0  0  0  0  0  0  0  0  0
  -30.9250  -14.6510   20.0430 C   0  0  0  0  0  0  0  0  0  0  0  0
  -30.5580  -12.4800   18.9290 C   0  0  0  0  0  2  0  0  0  0  0  0
  -29.5510  -12.6690   17.7760 C   0  0  0  0  0  2  0  0  0  0  0  0
  -28.1050  -12.5230   18.2910 C   0  0  0  0  0  2  0  0  0  0  0  0
  -27.8330  -13.3700   19.5630 C   0  0  0  0  0  3  0  0  0  0  0  0
  -28.9520  -13.1770   20.6130 C   0  0  0  0  0  2  0  0  0  0  0  0
  -30.2380  -13.4780   19.9650 N   0  0  0  0  0  0  0  0  0  0  0  0
  -32.0200  -14.8020   19.4980 O   0  0  0  0  0  0  0  0  0  0  0  0
  -30.2690  -15.6860   20.6140 N   0  0  0  0  0  0  0  0  0  0  0  0
  -29.3290  -15.4920   20.9180 H   0  0  0  0  0  0  0  0  0  0  0  0
  -25.4930  -13.9690   20.4480 C   0  0  0  0  0  0  0  0  0  0  0  0
  -24.4430  -13.1910   20.8580 C   0  0  0  0  0  0  0  0  0  0  0  0
  -24.8880  -11.8380   20.7500 C   0  0  0  0  0  0  0  0  0  0  0  0
  -26.5120  -13.0870   20.1200 N   0  0  0  0  0  0  0  0  0  0  0  0
  -26.1550  -11.8000   20.3590 N   0  0  0  0  0  0  0  0  0  0  0  0
  -24.1630  -10.5750   20.9420 C   0  0  0  0  0  0  0  0  0  0  0  0
  -24.5920   -9.6120   21.8820 C   0  0  0  0  0  3  0  0  0  0  0  0
  -23.8660   -8.4150   22.0610 C   0  0  0  0  0  3  0  0  0  0  0  0
  -22.6970   -8.1710   21.3010 C   0  0  0  0  0  0  0  0  0  0  0  0
  -22.2880   -9.1230   20.3500 C   0  0  0  0  0  3  0  0  0  0  0  0
  -23.0140  -10.3120   20.1690 C   0  0  0  0  0  3  0  0  0  0  0  0
  -21.9450   -7.0260   21.3880 O   0  0  0  0  0  0  0  0  0  0  0  0
  -21.8310   -6.3280   22.5640 C   0  0  0  0  0  0  0  0  0  0  0  0
  -21.2800   -6.9100   23.7260 C   0  0  0  0  0  3  0  0  0  0  0  0
  -21.1180   -6.1350   24.8930 C   0  0  0  0  0  3  0  0  0  0  0  0
  -21.4950   -4.7800   24.8970 C   0  0  0  0  0  0  0  0  0  0  0  0
  -22.0400   -4.1970   23.7380 C   0  0  0  0  0  3  0  0  0  0  0  0
  -22.2040   -4.9690   22.5740 C   0  0  0  0  0  0  0  0  0  0  0  0
  -22.7090   -4.3960   21.4550 F   0  0  0  0  0  0  0  0  0  0  0  0
  -21.3330   -4.0330   26.0140 F   0  0  0  0  0  0  0  0  0  0  0  0
  -23.0710  -13.6700   21.2380 C   0  0  0  0  0  0  0  0  0  0  0  0
  -22.3910  -12.9430   22.1170 N   0  0  0  0  0  0  0  0  0  0  0  0
  -22.6150  -14.7220   20.7910 O   0  0  0  0  0  0  0  0  0  0  0  0
  -22.7730  -12.0900   22.4980 H   0  0  0  0  0  0  0  0  0  0  0  0
  -21.4720  -13.2430   22.4120 H   0  0  0  0  0  0  0  0  0  0  0  0
  -25.6600  -15.3430   20.3100 N   0  0  0  0  0  0  0  0  0  0  0  0
  -24.9070  -15.9970   20.4950 H   0  0  0  0  0  0  0  0  0  0  0  0
  -26.4980  -15.7950   19.9660 H   0  0  0  0  0  0  0  0  0  0  0  0
  -28.3590  -23.0130   20.5860 C   0  0  0  0  0  2  0  0  0  0  0  0
  -29.0290  -24.3720   20.2830 C   0  0  0  0  0  0  0  0  0  0  0  0
  -30.0400  -24.4350   19.5720 O   0  0  0  0  0  0  0  0  0  0  0  0
  -28.4000  -25.6220   20.9430 C   0  0  0  0  0  2  0  0  0  0  0  0
  -28.5970  -26.8490   20.2020 O   0  0  0  0  0  0  0  0  0  0  0  0
  -24.6490  -31.9250   23.2860 C   0  0  0  0  0  0  0  0  0  0  0  0
  -27.4530  -27.6160   20.1580 C   0  0  0  0  0  0  0  0  0  0  0  0
  -23.5110  -30.5420   21.5790 C   0  0  0  0  0  3  0  0  0  0  0  0
  -25.0330  -29.0780   20.1450 C   0  0  0  0  0  0  0  0  0  0  0  0
  -26.0330  -30.9610   21.4490 C   0  0  0  0  0  2  0  0  0  0  0  0
  -26.1670  -29.6100   20.7740 C   0  0  0  0  0  0  0  0  0  0  0  0
  -27.3840  -28.8880   20.7750 C   0  0  0  0  0  3  0  0  0  0  0  0
  -26.3060  -27.1040   19.5160 C   0  0  0  0  0  3  0  0  0  0  0  0
  -25.0980  -27.8260   19.5100 C   0  0  0  0  0  3  0  0  0  0  0  0
  -23.7680  -29.9060   20.1870 C   0  0  0  0  0  2  0  0  0  0  0  0
  -24.7480  -31.1560   22.1640 N   0  0  0  0  0  0  0  0  0  0  0  0
  -23.5490  -32.1590   23.8070 O   0  0  0  0  0  0  0  0  0  0  0  0
  -22.8610  -29.4820   22.4970 C   0  0  0  0  0  0  0  0  0  0  0  0
  -21.5410  -29.2840   22.3430 N   0  0  0  0  0  0  0  0  0  0  0  0
  -23.5410  -28.8420   23.3030 O   0  0  0  0  0  0  0  0  0  0  0  0
  -21.0540  -29.8540   21.6660 H   0  0  0  0  0  0  0  0  0  0  0  0
  -18.1710  -28.0530   22.7750 C   0  0  0  0  0  0  0  0  0  0  0  0
  -20.7270  -28.3120   23.0700 C   0  0  0  0  0  3  0  0  0  0  0  0
  -20.8400  -26.9060   22.4340 C   0  0  0  0  0  2  0  0  0  0  0  0
  -19.7430  -26.6220   21.4030 C   0  0  0  0  0  2  0  0  0  0  0  0
  -18.3580  -26.7340   22.0460 C   0  0  0  0  0  2  0  0  0  0  0  0
  -19.2840  -28.8020   23.2430 C   0  0  0  0  0  0  0  0  0  0  0  0
  -19.0580  -30.0390   23.8840 C   0  0  0  0  0  3  0  0  0  0  0  0
  -17.7500  -30.5280   24.0640 C   0  0  0  0  0  3  0  0  0  0  0  0
  -16.6520  -29.7760   23.6130 C   0  0  0  0  0  3  0  0  0  0  0  0
  -16.8630  -28.5410   22.9750 C   0  0  0  0  0  3  0  0  0  0  0  0
  -25.9060  -32.5670   23.9520 C   0  0  0  0  0  3  0  0  0  0  0  0
  -26.3700  -31.8120   25.2580 C   0  0  1  0  0  0  0  0  0  0  0  0
  -25.2330  -31.5780   26.2780 C   0  0  0  0  0  1  0  0  0  0  0  0
  -26.9780  -30.4340   24.9040 C   0  0  0  0  0  1  0  0  0  0  0  0
  -27.4860  -32.6190   25.9620 C   0  0  0  0  0  1  0  0  0  0  0  0
  -25.5830  -33.9690   24.2490 N   0  0  0  0  0  0  0  0  0  0  0  0
  -25.9420  -35.0090   23.4850 C   0  0  0  0  0  0  0  0  0  0  0  0
  -26.6510  -34.8900   22.4820 O   0  0  0  0  0  0  0  0  0  0  0  0
  -24.9590  -34.1350   25.0240 H   0  0  0  0  0  0  0  0  0  0  0  0
  -24.2260  -36.7900   23.0330 C   0  0  0  0  0  1  0  0  0  0  0  0
  -25.4340  -36.4030   23.9000 C   0  0  0  0  0  3  0  0  0  0  0  0
  -27.5270  -37.3110   24.8080 C   0  0  0  0  0  1  0  0  0  0  0  0
  -26.4680  -37.4560   23.8120 N   0  0  0  0  0  0  0  0  0  0  0  0
  -26.0540  -38.3780   23.9220 H   0  0  0  0  0  0  0  0  0  0  0  0
  1  3  2  0
  2 52  1  0
  2  1  1  0
  3  6  1  0
  3  5  1  0
  4  2  1  0
  8  7  1  0
  9  7  2  0
 10  1  1  0
 10  8  2  0
 11  9  1  0
 12 11  2  0
 12 10  1  0
 13 12  1  0
 14 22  1  0
 15 20  1  0
 16 17  1  0
 16 15  1  0
 18 17  1  0
 18 27  1  0
 18 19  1  0
 20 14  1  0
 20 19  1  0
 21 14  2  0
 22 11  1  0
 22 23  1  0
 24 25  2  0
 25 44  1  0
 26 25  1  0
 26 29  1  0
 27 28  1  0
 27 24  1  0
 28 26  2  0
 29 30  1  0
 30 31  2  0
 32 35  1  0
 32 31  1  0
 33 32  2  0
 34 33  1  0
 34 29  2  0
 35 36  1  0
 36 41  2  0
 36 37  1  0
 37 38  2  0
 38 39  1  0
 39 43  1  0
 40 39  2  0
 41 40  1  0
 42 41  1  0
 44 45  1  0
 45 48  1  0
 45 47  1  0
 46 44  2  0
 49 24  1  0
 49 50  1  0
 51 49  1  0
 53 52  1  0
 53 55  1  0
 54 53  2  0
 56 55  1  0
 57 68  2  0
 58 56  1  0
 58 63  1  0
 59 67  1  0
 59 69  1  0
 60 66  1  0
 60 62  1  0
 61 67  1  0
 62 63  2  0
 62 61  1  0
 64 58  2  0
 65 64  1  0
 65 60  2  0
 66 59  1  0
 67 57  1  0
 69 71  2  0
 70 69  1  0
 72 70  1  0
 73 82  2  0
 73 78  1  0
 74 70  1  0
 74 78  1  0
 75 74  1  0
 76 77  1  0
 76 75  1  0
 77 73  1  0
 78 79  2  0
 79 80  1  0
 81 80  2  0
 82 81  1  0
 83 57  1  0
 83 88  1  0
 83 84  1  0
 84 87  1  1
 84 85  1  0
 86 84  1  0
 88 91  1  0
 89 93  1  0
 89 88  1  0
 90 89  2  0
 93 92  1  0
 95 93  1  0
 95 96  1  0
 95 94  1  0
M  ISO  4  14 100  22 100  55 101  56 101
M  END
>  <TORSDO>  (37) 
F 20

>  <SCORE>  (37) 
-13.825

>  <name>  (37) 
36

>  <ligand_id>  (37) 
36

>  <original_smiles>  (37) 
[H]c1c([H])c(C(N([H])C([H])([H])C(=O)C([H])([H])Oc2c([H])c([H])c3c(c2[H])C([H])([H])N(C(=O)C([H])(N([H])C(=O)C([H])(N([H])C([H])([H])[H])C([H])([H])[H])C(C([H])([H])[H])(C([H])([H])[H])C([H])([H])[H])C([H])(C(=O)N([H])C2([H])c4c([H])c([H])c([H])c([H])c4C([H])([H])C([H])([H])C2([H])[H])C3([H])[H])=[N+]([H])[H])c(F)c(N([H])C(=O)N2C([H])([H])C([H])([H])C([H])([H])C([H])(n3nc(-c4c([H])c([H])c(Oc5c([H])c([H])c(F)c([H])c5F)c([H])c4[H])c(C(=O)N([H])[H])c3N([H])[H])C2([H])[H])c1[H]

>  <smiles>  (37) 
[H]c1c([H])c(C(N([H])C([H])([H])C(=O)C([H])([H])Oc2c([H])c([H])c3c(c2[H])C([H])([H])N(C(=O)C([H])(N([H])C(=O)C([H])(N([H])C([H])([H])[H])C([H])([H])[H])C(C([H])([H])[H])(C([H])([H])[H])C([H])([H])[H])C([H])(C(=O)N([H])C2([H])c4c([H])c([H])c([H])c([H])c4C([H])([H])C([H])([H])C2([H])[H])C3([H])[H])=[N+]([H])[H])c(F)c(N([H])C(=O)N2C([H])([H])C([H])([H])C([H])([H])C([H])(n3nc(-c4c([H])c([H])c(Oc5c([H])c([H])c(F)c([H])c5F)c([H])c4[H])c(C(=O)N([H])[H])c3N([H])[H])C2([H])[H])c1[H]

$$$$
37:0:0
     RDKit          3D

 98106  0  0  1  0  0  0  0  0999 V2000
  -29.3150  -22.3840   20.0860 C   0  0  0  0  0  0  0  0  0  0  0  0
  -29.1110  -21.0610   19.9560 N   0  0  0  0  0  0  0  0  0  0  0  0
  -30.1550  -22.8820   20.8400 O   0  0  0  0  0  0  0  0  0  0  0  0
  -28.3930  -20.8140   19.2850 H   0  0  0  0  0  0  0  0  0  0  0  0
  -28.3430  -23.2190   19.2580 C   0  0  0  0  0  0  0  0  0  0  0  0
  -27.1900  -22.7320   18.9430 N   0  0  0  0  0  0  0  0  0  0  0  0
  -26.3080  -23.4210   18.1330 C   0  0  0  0  0  0  0  0  0  0  0  0
  -24.8980  -23.4900   18.7090 C   0  0  0  0  0  1  0  0  0  0  0  0
  -26.5390  -23.9430   17.0410 O   0  0  0  0  0  0  0  0  0  0  0  0
  -28.8570  -24.6490   18.9650 C   0  0  0  0  0  2  0  0  0  0  0  0
  -28.6130  -25.6180   20.1360 C   0  0  0  0  0  2  0  0  0  0  0  0
  -28.7180  -26.9860   19.7130 O   0  0  0  0  0  0  0  0  0  0  0  0
  -24.7380  -31.7090   23.1750 C   0  0  0  0  0  0  0  0  0  0  0  0
  -27.5270  -27.6650   19.7400 C   0  0  0  0  0  0  0  0  0  0  0  0
  -23.5570  -30.3450   21.4830 C   0  0  0  0  0  3  0  0  0  0  0  0
  -25.0510  -29.0060   19.9060 C   0  0  0  0  0  0  0  0  0  0  0  0
  -26.0440  -30.8800   21.2250 C   0  0  0  0  0  2  0  0  0  0  0  0
  -26.1920  -29.5630   20.4980 C   0  0  0  0  0  0  0  0  0  0  0  0
  -27.4350  -28.9000   20.4130 C   0  0  0  0  0  3  0  0  0  0  0  0
  -26.3750  -27.1260   19.1270 C   0  0  0  0  0  3  0  0  0  0  0  0
  -25.1380  -27.7860   19.2120 C   0  0  0  0  0  3  0  0  0  0  0  0
  -23.7560  -29.7740   20.0520 C   0  0  0  0  0  2  0  0  0  0  0  0
  -24.7990  -30.9870   22.0230 N   0  0  0  0  0  0  0  0  0  0  0  0
  -23.6620  -31.8800   23.7680 O   0  0  0  0  0  0  0  0  0  0  0  0
  -23.0060  -29.2220   22.3890 C   0  0  0  0  0  0  0  0  0  0  0  0
  -21.7120  -28.9020   22.2240 N   0  0  0  0  0  0  0  0  0  0  0  0
  -23.7380  -28.6450   23.1980 O   0  0  0  0  0  0  0  0  0  0  0  0
  -21.1770  -29.4320   21.5480 H   0  0  0  0  0  0  0  0  0  0  0  0
  -18.4890  -27.3090   22.5570 C   0  0  0  0  0  0  0  0  0  0  0  0
  -20.9860  -27.8550   22.9400 C   0  0  0  0  0  3  0  0  0  0  0  0
  -21.2770  -26.4610   22.3410 C   0  0  0  0  0  2  0  0  0  0  0  0
  -20.2610  -26.0390   21.2730 C   0  0  0  0  0  2  0  0  0  0  0  0
  -18.8510  -26.0030   21.8690 C   0  0  0  0  0  2  0  0  0  0  0  0
  -19.4930  -28.1840   23.0470 C   0  0  0  0  0  0  0  0  0  0  0  0
  -19.1070  -29.3990   23.6550 C   0  0  0  0  0  3  0  0  0  0  0  0
  -17.7470  -29.7410   23.7760 C   0  0  0  0  0  3  0  0  0  0  0  0
  -16.7570  -28.8640   23.3000 C   0  0  0  0  0  3  0  0  0  0  0  0
  -17.1290  -27.6490   22.6970 C   0  0  0  0  0  3  0  0  0  0  0  0
  -26.0080  -32.3750   23.7950 C   0  0  0  0  0  3  0  0  0  0  0  0
  -25.6600  -33.7600   24.1360 N   0  0  0  0  0  0  0  0  0  0  0  0
  -25.9790  -34.8290   23.3930 C   0  0  0  0  0  0  0  0  0  0  0  0
  -26.6700  -34.7530   22.3750 O   0  0  0  0  0  0  0  0  0  0  0  0
  -25.0540  -33.8900   24.9330 H   0  0  0  0  0  0  0  0  0  0  0  0
  -24.2220  -36.5860   23.0060 C   0  0  0  0  0  1  0  0  0  0  0  0
  -25.4440  -36.1970   23.8540 C   0  0  0  0  0  3  0  0  0  0  0  0
  -27.5250  -37.1170   24.7770 C   0  0  0  0  0  1  0  0  0  0  0  0
  -26.4560  -37.2740   23.7940 N   0  0  0  0  0  0  0  0  0  0  0  0
  -26.0240  -38.1830   23.9380 H   0  0  0  0  0  0  0  0  0  0  0  0
  -26.5570  -31.6080   25.0620 C   0  0  1  0  0  0  0  0  0  0  0  0
  -25.4700  -31.3040   26.1190 C   0  0  0  0  0  1  0  0  0  0  0  0
  -27.2070  -30.2670   24.6470 C   0  0  0  0  0  1  0  0  0  0  0  0
  -27.6640  -32.4450   25.7430 C   0  0  0  0  0  1  0  0  0  0  0  0
  -28.4180  -19.4540   21.6510 C   0  0  0  0  0  1  0  0  0  0  0  0
  -29.6060  -20.0130   20.8460 C   0  0  0  0  0  3  0  0  0  0  0  0
  -32.3780  -18.4180   18.7200 C   0  0  0  0  0  3  0  0  0  0  0  0
  -31.5400  -19.3630   19.3400 C   0  0  0  0  0  3  0  0  0  0  0  0
  -32.1360  -17.0430   18.8860 C   0  0  0  0  0  3  0  0  0  0  0  0
  -30.2080  -17.5580   20.2870 C   0  0  0  0  0  3  0  0  0  0  0  0
  -30.4510  -18.9470   20.1350 C   0  0  0  0  0  0  0  0  0  0  0  0
  -31.0370  -16.5970   19.6610 C   0  0  0  0  0  0  0  0  0  0  0  0
  -31.3510  -14.1330   19.3560 C   0  0  0  0  0  0  0  0  0  0  0  0
  -31.0060  -11.7680   18.7460 C   0  0  0  0  0  2  0  0  0  0  0  0
  -29.9980  -11.7000   17.5820 C   0  0  0  0  0  2  0  0  0  0  0  0
  -28.5560  -11.6510   18.1230 C   0  0  0  0  0  2  0  0  0  0  0  0
  -28.2800  -12.7520   19.1820 C   0  0  0  0  0  3  0  0  0  0  0  0
  -29.4020  -12.7950   20.2440 C   0  0  0  0  0  2  0  0  0  0  0  0
  -30.6880  -12.9620   19.5450 N   0  0  0  0  0  0  0  0  0  0  0  0
  -32.3890  -14.2040   18.6910 O   0  0  0  0  0  0  0  0  0  0  0  0
  -30.7500  -15.2190   19.8820 N   0  0  0  0  0  0  0  0  0  0  0  0
  -29.8940  -15.0170   20.3800 H   0  0  0  0  0  0  0  0  0  0  0  0
  -26.0170  -13.5470   20.1120 C   0  0  0  0  0  0  0  0  0  0  0  0
  -24.9330  -12.8640   20.5950 C   0  0  0  0  0  0  0  0  0  0  0  0
  -25.2860  -11.4800   20.5410 C   0  0  0  0  0  0  0  0  0  0  0  0
  -26.9630  -12.5860   19.7940 N   0  0  0  0  0  0  0  0  0  0  0  0
  -26.5310  -11.3380   20.1020 N   0  0  0  0  0  0  0  0  0  0  0  0
  -24.4870  -10.2800   20.8210 C   0  0  0  0  0  0  0  0  0  0  0  0
  -24.7620   -9.4530   21.9330 C   0  0  0  0  0  3  0  0  0  0  0  0
  -23.9720   -8.3130   22.1910 C   0  0  0  0  0  3  0  0  0  0  0  0
  -22.8910   -7.9900   21.3380 C   0  0  0  0  0  0  0  0  0  0  0  0
  -22.6340   -8.8030   20.2200 C   0  0  0  0  0  3  0  0  0  0  0  0
  -23.4240   -9.9360   19.9620 C   0  0  0  0  0  3  0  0  0  0  0  0
  -22.0860   -6.8880   21.4950 O   0  0  0  0  0  0  0  0  0  0  0  0
  -21.6540   -6.4850   22.7330 C   0  0  0  0  0  0  0  0  0  0  0  0
  -20.8690   -7.3220   23.5560 C   0  0  0  0  0  3  0  0  0  0  0  0
  -20.3880   -6.8430   24.7920 C   0  0  0  0  0  3  0  0  0  0  0  0
  -20.6840   -5.5290   25.2000 C   0  0  0  0  0  0  0  0  0  0  0  0
  -21.4590   -4.6920   24.3780 C   0  0  0  0  0  3  0  0  0  0  0  0
  -21.9420   -5.1700   23.1490 C   0  0  0  0  0  0  0  0  0  0  0  0
  -22.6720   -4.3540   22.3520 F   0  0  0  0  0  0  0  0  0  0  0  0
  -20.2170   -5.0670   26.3840 F   0  0  0  0  0  0  0  0  0  0  0  0
  -23.6120  -13.4510   21.0000 C   0  0  0  0  0  0  0  0  0  0  0  0
  -22.9420  -12.8410   21.9720 N   0  0  0  0  0  0  0  0  0  0  0  0
  -23.1870  -14.4850   20.4890 O   0  0  0  0  0  0  0  0  0  0  0  0
  -23.3000  -12.0020   22.4050 H   0  0  0  0  0  0  0  0  0  0  0  0
  -22.0640  -13.2210   22.2940 H   0  0  0  0  0  0  0  0  0  0  0  0
  -26.2710  -14.8980   19.8950 N   0  0  0  0  0  0  0  0  0  0  0  0
  -25.5830  -15.6210   20.0770 H   0  0  0  0  0  0  0  0  0  0  0  0
  -27.1040  -15.2480   19.4380 H   0  0  0  0  0  0  0  0  0  0  0  0
  1  3  2  0
  2  1  1  0
  2 54  1  0
  4  2  1  0
  5  1  1  0
  6  5  2  0
  7  8  1  0
  7  6  1  0
  9  7  2  0
 10  5  1  0
 10 11  1  0
 12 14  1  0
 12 11  1  0
 13 24  2  0
 14 19  1  0
 15 23  1  0
 15 25  1  0
 16 22  1  0
 16 18  1  0
 17 23  1  0
 18 17  1  0
 19 18  2  0
 20 21  1  0
 20 14  2  0
 21 16  2  0
 22 15  1  0
 23 13  1  0
 25 27  2  0
 26 25  1  0
 28 26  1  0
 29 38  2  0
 29 34  1  0
 30 26  1  0
 30 34  1  0
 31 30  1  0
 32 33  1  0
 32 31  1  0
 33 29  1  0
 34 35  2  0
 35 36  1  0
 37 36  2  0
 38 37  1  0
 39 13  1  0
 39 40  1  0
 39 49  1  0
 40 43  1  0
 41 45  1  0
 41 40  1  0
 42 41  2  0
 45 44  1  0
 47 45  1  0
 47 48  1  0
 47 46  1  0
 49 52  1  1
 49 50  1  0
 51 49  1  0
 54 53  1  0
 55 57  2  0
 55 56  1  0
 56 59  2  0
 57 60  1  0
 59 58  1  0
 59 54  1  0
 60 69  1  0
 60 58  2  0
 61 67  1  0
 61 69  1  0
 62 67  1  0
 63 64  1  0
 63 62  1  0
 65 64  1  0
 65 74  1  0
 65 66  1  0
 67 66  1  0
 68 61  2  0
 69 70  1  0
 71 72  2  0
 72 91  1  0
 73 72  1  0
 73 76  1  0
 74 75  1  0
 74 71  1  0
 75 73  2  0
 76 77  1  0
 77 78  2  0
 79 82  1  0
 79 78  1  0
 80 79  2  0
 81 80  1  0
 81 76  2  0
 82 83  1  0
 83 88  2  0
 83 84  1  0
 84 85  2  0
 85 86  1  0
 86 90  1  0
 87 86  2  0
 88 87  1  0
 89 88  1  0
 91 92  1  0
 92 95  1  0
 92 94  1  0
 93 91  2  0
 96 97  1  0
 96 71  1  0
 98 96  1  0
M  ISO  4  11 101  12 101  61 100  69 100
M  END
>  <TORSDO>  (38) 
F 22

>  <SCORE>  (38) 
-9.261

>  <name>  (38) 
37

>  <ligand_id>  (38) 
37

>  <original_smiles>  (38) 
[H]c1c([H])c([H])c2c(c1[H])C([H])([H])C([H])([H])C([H])([H])C2([H])N([H])C(=O)C1([H])N(C(=O)C([H])(N([H])C(=O)C([H])(N([H])C([H])([H])[H])C([H])([H])[H])C(C([H])([H])[H])(C([H])([H])[H])C([H])([H])[H])C([H])([H])c2c([H])c(OC([H])([H])C([H])([H])C(=NC(=O)C([H])([H])[H])C(=O)N([H])C([H])(c3c([H])c([H])c([H])c(N([H])C(=O)N4C([H])([H])C([H])([H])C([H])([H])C([H])(n5nc(-c6c([H])c([H])c(Oc7c([H])c([H])c(F)c([H])c7F)c([H])c6[H])c(C(=O)N([H])[H])c5N([H])[H])C4([H])[H])c3[H])C([H])([H])[H])c([H])c([H])c2C1([H])[H]

>  <smiles>  (38) 
[H]c1c([H])c([H])c2c(c1[H])C([H])([H])C([H])([H])C([H])([H])C2([H])N([H])C(=O)C1([H])N(C(=O)C([H])(N([H])C(=O)C([H])(N([H])C([H])([H])[H])C([H])([H])[H])C(C([H])([H])[H])(C([H])([H])[H])C([H])([H])[H])C([H])([H])c2c([H])c(OC([H])([H])C([H])([H])C(=NC(=O)C([H])([H])[H])C(=O)N([H])C([H])(c3c([H])c([H])c([H])c(N([H])C(=O)N4C([H])([H])C([H])([H])C([H])([H])C([H])(n5nc(-c6c([H])c([H])c(Oc7c([H])c([H])c(F)c([H])c7F)c([H])c6[H])c(C(=O)N([H])[H])c5N([H])[H])C4([H])[H])c3[H])C([H])([H])[H])c([H])c([H])c2C1([H])[H]

$$$$
38:0:0
     RDKit          3D

 99107  0  0  1  0  0  0  0  0999 V2000
  -29.3790  -21.7200   21.8360 C   0  0  0  0  0  2  0  0  0  0  0  0
  -31.3440  -17.5580   21.7060 C   0  0  0  0  0  3  0  0  0  0  0  0
  -29.2910  -17.7290   20.4490 C   0  0  0  0  0  3  0  0  0  0  0  0
  -31.4090  -18.9730   21.7290 C   0  0  0  0  0  0  0  0  0  0  0  0
  -30.2680  -16.9250   21.0600 C   0  0  0  0  0  0  0  0  0  0  0  0
  -30.3710  -19.6830   21.0750 C   0  0  0  0  0  0  0  0  0  0  0  0
  -29.3430  -19.0770   20.4480 N   0  0  0  0  0  0  0  0  0  0  0  0
  -30.3630  -21.0690   20.9690 N   0  0  0  0  0  0  0  0  0  0  0  0
  -30.1590  -21.3390   20.0140 H   0  0  0  0  0  0  0  0  0  0  0  0
  -30.5540  -14.7100   20.0820 C   0  0  0  0  0  0  0  0  0  0  0  0
  -30.2390  -12.5400   18.9490 C   0  0  0  0  0  2  0  0  0  0  0  0
  -29.2250  -12.6540   17.7920 C   0  0  0  0  0  2  0  0  0  0  0  0
  -27.7830  -12.4800   18.3020 C   0  0  0  0  0  2  0  0  0  0  0  0
  -27.4800  -13.3630   19.5410 C   0  0  0  0  0  3  0  0  0  0  0  0
  -28.5890  -13.2140   20.6050 C   0  0  0  0  0  2  0  0  0  0  0  0
  -29.8890  -13.5290   19.9790 N   0  0  0  0  0  0  0  0  0  0  0  0
  -31.5120  -15.0170   19.3660 O   0  0  0  0  0  0  0  0  0  0  0  0
  -30.1340  -15.5130   21.0720 N   0  0  0  0  0  0  0  0  0  0  0  0
  -29.4180  -15.1330   21.6720 H   0  0  0  0  0  0  0  0  0  0  0  0
  -25.1280  -13.9320   20.4230 C   0  0  0  0  0  0  0  0  0  0  0  0
  -24.0910  -13.1420   20.8430 C   0  0  0  0  0  0  0  0  0  0  0  0
  -24.5590  -11.7950   20.7450 C   0  0  0  0  0  0  0  0  0  0  0  0
  -26.1610  -13.0680   20.0970 N   0  0  0  0  0  0  0  0  0  0  0  0
  -25.8260  -11.7770   20.3450 N   0  0  0  0  0  0  0  0  0  0  0  0
  -23.8560  -10.5220   20.9510 C   0  0  0  0  0  0  0  0  0  0  0  0
  -24.3000   -9.5820   21.9100 C   0  0  0  0  0  3  0  0  0  0  0  0
  -23.6000   -8.3700   22.1030 C   0  0  0  0  0  3  0  0  0  0  0  0
  -22.4400   -8.0920   21.3370 C   0  0  0  0  0  0  0  0  0  0  0  0
  -22.0170   -9.0200   20.3670 C   0  0  0  0  0  3  0  0  0  0  0  0
  -22.7190  -10.2230   20.1740 C   0  0  0  0  0  3  0  0  0  0  0  0
  -21.7070   -6.9340   21.4400 O   0  0  0  0  0  0  0  0  0  0  0  0
  -21.5890   -6.2600   22.6280 C   0  0  0  0  0  0  0  0  0  0  0  0
  -21.0400   -6.8650   23.7800 C   0  0  0  0  0  3  0  0  0  0  0  0
  -20.8790   -6.1140   24.9620 C   0  0  0  0  0  3  0  0  0  0  0  0
  -21.2500   -4.7560   24.9900 C   0  0  0  0  0  0  0  0  0  0  0  0
  -21.7920   -4.1510   23.8420 C   0  0  0  0  0  3  0  0  0  0  0  0
  -21.9600   -4.9000   22.6650 C   0  0  0  0  0  0  0  0  0  0  0  0
  -22.4620   -4.3060   21.5550 F   0  0  0  0  0  0  0  0  0  0  0  0
  -21.0870   -4.0310   26.1200 F   0  0  0  0  0  0  0  0  0  0  0  0
  -22.7120  -13.5980   21.2220 C   0  0  0  0  0  0  0  0  0  0  0  0
  -22.0500  -12.8720   22.1180 N   0  0  0  0  0  0  0  0  0  0  0  0
  -22.2300  -14.6300   20.7570 O   0  0  0  0  0  0  0  0  0  0  0  0
  -22.4490  -12.0350   22.5190 H   0  0  0  0  0  0  0  0  0  0  0  0
  -21.1260  -13.1560   22.4080 H   0  0  0  0  0  0  0  0  0  0  0  0
  -25.2730  -15.3090   20.2730 N   0  0  0  0  0  0  0  0  0  0  0  0
  -24.5120  -15.9570   20.4420 H   0  0  0  0  0  0  0  0  0  0  0  0
  -26.1000  -15.7590   19.8980 H   0  0  0  0  0  0  0  0  0  0  0  0
  -32.3120  -20.7530   23.3990 C   0  0  0  0  0  1  0  0  0  0  0  0
  -33.7000  -20.0350   21.3730 C   0  0  0  0  0  1  0  0  0  0  0  0
  -32.6330  -19.6230   22.4000 C   0  0  0  0  0  3  0  0  0  0  0  0
  -29.1200  -23.1620   21.3790 C   0  0  0  0  0  0  0  0  0  0  0  0
  -30.0010  -24.0070   21.5760 O   0  0  0  0  0  0  0  0  0  0  0  0
  -27.2230  -22.2990   19.8960 C   0  0  0  0  0  1  0  0  0  0  0  0
  -26.7080  -23.8710   21.8020 C   0  0  0  0  0  1  0  0  0  0  0  0
  -27.7560  -23.5090   20.7170 C   0  0  1  0  0  0  0  0  0  0  0  0
  -27.9480  -24.7190   19.7620 C   0  0  0  0  0  0  0  0  0  0  0  0
  -27.8500  -24.5980   18.5330 O   0  0  0  0  0  0  0  0  0  0  0  0
  -28.2760  -26.0850   20.3870 C   0  0  0  0  0  2  0  0  0  0  0  0
  -27.9940  -27.1400   19.4770 O   0  0  0  0  0  0  0  0  0  0  0  0
  -24.5380  -31.9810   23.3920 C   0  0  0  0  0  0  0  0  0  0  0  0
  -26.8270  -27.8160   19.7190 C   0  0  0  0  0  0  0  0  0  0  0  0
  -23.1670  -30.7460   21.7380 C   0  0  0  0  0  3  0  0  0  0  0  0
  -24.4640  -29.3110   20.0790 C   0  0  0  0  0  0  0  0  0  0  0  0
  -25.6750  -31.0840   21.3680 C   0  0  0  0  0  2  0  0  0  0  0  0
  -25.6750  -29.7750   20.6090 C   0  0  0  0  0  0  0  0  0  0  0  0
  -26.8600  -29.0330   20.4320 C   0  0  0  0  0  3  0  0  0  0  0  0
  -25.6050  -27.3480   19.1970 C   0  0  0  0  0  3  0  0  0  0  0  0
  -24.4220  -28.0940   19.3760 C   0  0  0  0  0  3  0  0  0  0  0  0
  -23.2490  -30.1840   20.2930 C   0  0  0  0  0  2  0  0  0  0  0  0
  -24.4810  -31.2830   22.2220 N   0  0  0  0  0  0  0  0  0  0  0  0
  -23.5110  -32.2250   24.0400 O   0  0  0  0  0  0  0  0  0  0  0  0
  -22.5720  -29.6590   22.6580 C   0  0  0  0  0  0  0  0  0  0  0  0
  -21.2550  -29.4330   22.5440 N   0  0  0  0  0  0  0  0  0  0  0  0
  -23.2940  -29.0200   23.4280 O   0  0  0  0  0  0  0  0  0  0  0  0
  -20.7330  -30.0060   21.8970 H   0  0  0  0  0  0  0  0  0  0  0  0
  -17.9600  -28.0070   22.9380 C   0  0  0  0  0  0  0  0  0  0  0  0
  -20.4870  -28.4300   23.2800 C   0  0  0  0  0  3  0  0  0  0  0  0
  -20.7000  -27.0190   22.6850 C   0  0  0  0  0  2  0  0  0  0  0  0
  -19.6460  -26.6400   21.6390 C   0  0  0  0  0  2  0  0  0  0  0  0
  -18.2420  -26.6830   22.2510 C   0  0  0  0  0  2  0  0  0  0  0  0
  -19.0140  -28.8330   23.4090 C   0  0  0  0  0  0  0  0  0  0  0  0
  -18.6970  -30.0730   24.0070 C   0  0  0  0  0  3  0  0  0  0  0  0
  -17.3580  -30.4830   24.1470 C   0  0  0  0  0  3  0  0  0  0  0  0
  -16.3190  -29.6530   23.6940 C   0  0  0  0  0  3  0  0  0  0  0  0
  -16.6200  -28.4180   23.0930 C   0  0  0  0  0  3  0  0  0  0  0  0
  -25.8890  -32.5290   23.9540 C   0  0  0  0  0  3  0  0  0  0  0  0
  -25.6630  -33.9230   24.3580 N   0  0  0  0  0  0  0  0  0  0  0  0
  -26.0130  -34.9920   23.6270 C   0  0  0  0  0  0  0  0  0  0  0  0
  -26.6300  -34.9030   22.5630 O   0  0  0  0  0  0  0  0  0  0  0  0
  -25.1120  -34.0710   25.1880 H   0  0  0  0  0  0  0  0  0  0  0  0
  -24.3610  -36.8800   23.4230 C   0  0  0  0  0  1  0  0  0  0  0  0
  -25.6120  -36.3790   24.1640 C   0  0  0  0  0  3  0  0  0  0  0  0
  -27.8180  -37.1260   24.9440 C   0  0  0  0  0  1  0  0  0  0  0  0
  -26.6910  -37.3870   24.0530 N   0  0  0  0  0  0  0  0  0  0  0  0
  -26.3360  -38.3180   24.2530 H   0  0  0  0  0  0  0  0  0  0  0  0
  -26.4540  -31.6830   25.1600 C   0  0  1  0  0  0  0  0  0  0  0  0
  -25.4190  -31.4270   26.2780 C   0  0  0  0  0  1  0  0  0  0  0  0
  -26.9700  -30.3100   24.6700 C   0  0  0  0  0  1  0  0  0  0  0  0
  -27.6660  -32.4110   25.7870 C   0  0  0  0  0  1  0  0  0  0  0  0
  2  4  1  0
  3  5  1  0
  4 50  1  0
  5 18  1  0
  5  2  2  0
  6  4  2  0
  7  3  2  0
  7  6  1  0
  8  6  1  0
  8  1  1  0
  9  8  1  0
 10 18  1  0
 11 16  1  0
 12 13  1  0
 12 11  1  0
 14 13  1  0
 14 23  1  0
 14 15  1  0
 16 10  1  0
 16 15  1  0
 17 10  2  0
 18 19  1  0
 20 21  2  0
 21 40  1  0
 22 21  1  0
 22 25  1  0
 23 24  1  0
 23 20  1  0
 24 22  2  0
 25 26  1  0
 26 27  2  0
 28 31  1  0
 28 27  1  0
 29 28  2  0
 30 29  1  0
 30 25  2  0
 31 32  1  0
 32 37  2  0
 32 33  1  0
 33 34  2  0
 34 35  1  0
 35 39  1  0
 36 35  2  0
 37 36  1  0
 38 37  1  0
 40 41  1  0
 41 44  1  0
 41 43  1  0
 42 40  2  0
 45 20  1  0
 45 46  1  0
 47 45  1  0
 49 50  1  0
 50 48  1  0
 51 52  2  0
 51  1  1  0
 55 53  1  6
 55 51  1  0
 55 54  1  0
 56 58  1  0
 56 55  1  0
 57 56  2  0
 59 61  1  0
 59 58  1  0
 60 71  2  0
 61 66  1  0
 62 70  1  0
 62 72  1  0
 63 69  1  0
 63 65  1  0
 64 70  1  0
 65 64  1  0
 66 65  2  0
 67 68  1  0
 67 61  2  0
 68 63  2  0
 69 62  1  0
 70 60  1  0
 72 74  2  0
 73 72  1  0
 75 73  1  0
 76 85  2  0
 76 81  1  0
 77 73  1  0
 77 81  1  0
 78 77  1  0
 79 80  1  0
 79 78  1  0
 80 76  1  0
 81 82  2  0
 82 83  1  0
 84 83  2  0
 85 84  1  0
 86 60  1  0
 86 87  1  0
 86 96  1  0
 87 90  1  0
 88 92  1  0
 88 87  1  0
 89 88  2  0
 92 91  1  0
 94 92  1  0
 94 95  1  0
 94 93  1  0
 96 99  1  1
 96 97  1  0
 98 96  1  0
M  ISO  4  10 100  18 100  58 101  59 101
M  END
>  <TORSDO>  (39) 
F 22

>  <SCORE>  (39) 
-13.390

>  <name>  (39) 
38

>  <ligand_id>  (39) 
38

>  <original_smiles>  (39) 
[H]c1nc(N([H])C([H])([H])C(=O)C(C(=O)C([H])([H])Oc2c([H])c([H])c3c(c2[H])C([H])([H])N(C(=O)C([H])(N([H])C(=O)C([H])(N([H])C([H])([H])[H])C([H])([H])[H])C(C([H])([H])[H])(C([H])([H])[H])C([H])([H])[H])C([H])(C(=O)N([H])C2([H])c4c([H])c([H])c([H])c([H])c4C([H])([H])C([H])([H])C2([H])[H])C3([H])[H])(C([H])([H])[H])C([H])([H])[H])c(C([H])(C([H])([H])[H])C([H])([H])[H])c([H])c1N([H])C(=O)N1C([H])([H])C([H])([H])C([H])([H])C([H])(n2nc(-c3c([H])c([H])c(Oc4c([H])c([H])c(F)c([H])c4F)c([H])c3[H])c(C(=O)N([H])[H])c2N([H])[H])C1([H])[H]

>  <smiles>  (39) 
[H]c1nc(N([H])C([H])([H])C(=O)C(C(=O)C([H])([H])Oc2c([H])c([H])c3c(c2[H])C([H])([H])N(C(=O)C([H])(N([H])C(=O)C([H])(N([H])C([H])([H])[H])C([H])([H])[H])C(C([H])([H])[H])(C([H])([H])[H])C([H])([H])[H])C([H])(C(=O)N([H])C2([H])c4c([H])c([H])c([H])c([H])c4C([H])([H])C([H])([H])C2([H])[H])C3([H])[H])(C([H])([H])[H])C([H])([H])[H])c(C([H])(C([H])([H])[H])C([H])([H])[H])c([H])c1N([H])C(=O)N1C([H])([H])C([H])([H])C([H])([H])C([H])(n2nc(-c3c([H])c([H])c(Oc4c([H])c([H])c(F)c([H])c4F)c([H])c3[H])c(C(=O)N([H])[H])c2N([H])[H])C1([H])[H]

$$$$
39:0:0
     RDKit          3D

 96105  0  0  1  0  0  0  0  0999 V2000
  -30.2550  -20.9680   21.4160 C   0  0  0  0  0  2  0  0  0  0  0  0
  -28.2880  -24.2340   21.4000 C   0  0  0  0  0  0  0  0  0  0  0  0
  -27.9110  -25.5260   21.1480 C   0  0  0  0  0  3  0  0  0  0  0  0
  -27.8170  -23.5500   22.6640 C   0  0  0  0  0  2  0  0  0  0  0  0
  -29.1230  -23.1900   20.6270 C   0  0  0  0  0  2  0  0  0  0  0  0
  -28.6800  -22.2980   22.7980 C   0  0  0  0  0  2  0  0  0  0  0  0
  -29.0640  -21.9010   21.4230 N   0  0  2  0  0  4  0  0  0  0  0  0
  -28.2820  -21.3730   21.0630 H   0  0  0  0  0  0  0  0  0  0  0  0
  -28.1000  -26.3770   20.0590 O   0  0  0  0  0  0  0  0  0  0  0  0
  -24.5190  -31.7640   23.0890 C   0  0  0  0  0  0  0  0  0  0  0  0
  -27.0620  -27.2930   19.9320 C   0  0  0  0  0  0  0  0  0  0  0  0
  -23.2840  -30.4140   21.4260 C   0  0  0  0  0  3  0  0  0  0  0  0
  -24.7110  -28.8890   19.9490 C   0  0  0  0  0  0  0  0  0  0  0  0
  -25.8190  -30.7290   21.2250 C   0  0  0  0  0  2  0  0  0  0  0  0
  -25.8840  -29.3690   20.5490 C   0  0  0  0  0  0  0  0  0  0  0  0
  -27.0660  -28.5790   20.5370 C   0  0  0  0  0  3  0  0  0  0  0  0
  -25.8800  -26.8530   19.3000 C   0  0  0  0  0  3  0  0  0  0  0  0
  -24.7100  -27.6360   19.3110 C   0  0  0  0  0  3  0  0  0  0  0  0
  -23.4760  -29.7630   20.0300 C   0  0  0  0  0  2  0  0  0  0  0  0
  -24.5590  -30.9830   21.9710 N   0  0  0  0  0  0  0  0  0  0  0  0
  -23.4450  -32.0410   23.6410 O   0  0  0  0  0  0  0  0  0  0  0  0
  -22.6210  -29.3850   22.3720 C   0  0  0  0  0  0  0  0  0  0  0  0
  -21.2900  -29.2380   22.2650 N   0  0  0  0  0  0  0  0  0  0  0  0
  -23.3020  -28.7230   23.1600 O   0  0  0  0  0  0  0  0  0  0  0  0
  -20.8020  -29.8210   21.6000 H   0  0  0  0  0  0  0  0  0  0  0  0
  -17.8910  -28.1350   22.8210 C   0  0  0  0  0  0  0  0  0  0  0  0
  -20.4630  -28.3000   23.0260 C   0  0  0  0  0  3  0  0  0  0  0  0
  -20.5010  -26.8880   22.3980 C   0  0  0  0  0  2  0  0  0  0  0  0
  -19.3610  -26.6400   21.4040 C   0  0  0  0  0  2  0  0  0  0  0  0
  -18.0030  -26.8070   22.0930 C   0  0  0  0  0  2  0  0  0  0  0  0
  -19.0470  -28.8440   23.2450 C   0  0  0  0  0  0  0  0  0  0  0  0
  -18.8880  -30.0920   23.8870 C   0  0  0  0  0  3  0  0  0  0  0  0
  -17.6070  -30.6300   24.1090 C   0  0  0  0  0  3  0  0  0  0  0  0
  -16.4660  -29.9170   23.7010 C   0  0  0  0  0  3  0  0  0  0  0  0
  -16.6090  -28.6710   23.0630 C   0  0  0  0  0  3  0  0  0  0  0  0
  -25.8170  -32.3660   23.7130 C   0  0  0  0  0  3  0  0  0  0  0  0
  -26.3570  -31.5370   24.9430 C   0  0  1  0  0  0  0  0  0  0  0  0
  -25.2870  -31.2660   26.0250 C   0  0  0  0  0  1  0  0  0  0  0  0
  -26.9210  -30.1740   24.4820 C   0  0  0  0  0  1  0  0  0  0  0  0
  -27.5300  -32.2940   25.6100 C   0  0  0  0  0  1  0  0  0  0  0  0
  -25.5200  -33.7480   24.1080 N   0  0  0  0  0  0  0  0  0  0  0  0
  -25.8650  -34.8340   23.4020 C   0  0  0  0  0  0  0  0  0  0  0  0
  -26.5370  -34.7730   22.3690 O   0  0  0  0  0  0  0  0  0  0  0  0
  -24.9240  -33.8680   24.9150 H   0  0  0  0  0  0  0  0  0  0  0  0
  -24.1570  -36.6590   23.1220 C   0  0  0  0  0  1  0  0  0  0  0  0
  -25.3860  -36.2020   23.9240 C   0  0  0  0  0  3  0  0  0  0  0  0
  -27.5240  -37.0210   24.8130 C   0  0  0  0  0  1  0  0  0  0  0  0
  -26.4310  -37.2490   23.8720 N   0  0  0  0  0  0  0  0  0  0  0  0
  -26.0330  -38.1650   24.0630 H   0  0  0  0  0  0  0  0  0  0  0  0
  -30.0140  -18.3200   18.6740 C   0  0  0  0  0  3  0  0  0  0  0  0
  -30.0260  -19.5430   19.3550 C   0  0  0  0  0  3  0  0  0  0  0  0
  -30.0890  -18.3230   21.4680 C   0  0  0  0  0  3  0  0  0  0  0  0
  -30.0470  -17.0890   19.3650 C   0  0  0  0  0  0  0  0  0  0  0  0
  -30.0770  -19.5740   20.7550 C   0  0  0  0  0  0  0  0  0  0  0  0
  -30.0960  -17.0500   20.7970 C   0  0  0  0  0  0  0  0  0  0  0  0
  -30.8460  -14.7110   21.5310 C   0  0  0  0  0  0  0  0  0  0  0  0
  -30.8470  -12.3300   20.8330 C   0  0  0  0  0  2  0  0  0  0  0  0
  -30.1410  -12.2130   19.4640 C   0  0  0  0  0  2  0  0  0  0  0  0
  -28.6150  -12.0970   19.6340 C   0  0  0  0  0  2  0  0  0  0  0  0
  -28.0280  -13.1210   20.6410 C   0  0  0  0  0  3  0  0  0  0  0  0
  -28.8670  -13.1830   21.9360 C   0  0  0  0  0  2  0  0  0  0  0  0
  -30.2580  -13.4750   21.5540 N   0  0  0  0  0  0  0  0  0  0  0  0
  -32.0590  -14.8440   21.3420 O   0  0  0  0  0  0  0  0  0  0  0  0
  -30.0120  -15.7970   21.5550 N   0  0  0  0  0  0  0  0  0  0  0  0
  -29.1010  -15.6010   21.9440 H   0  0  0  0  0  0  0  0  0  0  0  0
  -25.5560  -13.7420   20.9790 C   0  0  0  0  0  0  0  0  0  0  0  0
  -24.4400  -12.9790   21.1950 C   0  0  0  0  0  0  0  0  0  0  0  0
  -24.8930  -11.6250   21.2520 C   0  0  0  0  0  0  0  0  0  0  0  0
  -26.6190  -12.8540   20.9190 N   0  0  0  0  0  0  0  0  0  0  0  0
  -26.2150  -11.5770   21.1470 N   0  0  0  0  0  0  0  0  0  0  0  0
  -24.1390  -10.3690   21.3430 C   0  0  0  0  0  0  0  0  0  0  0  0
  -24.4630   -9.3840   22.3020 C   0  0  0  0  0  3  0  0  0  0  0  0
  -23.7130   -8.1920   22.3840 C   0  0  0  0  0  3  0  0  0  0  0  0
  -22.6230   -7.9760   21.5080 C   0  0  0  0  0  0  0  0  0  0  0  0
  -22.3200   -8.9510   20.5400 C   0  0  0  0  0  3  0  0  0  0  0  0
  -23.0710  -10.1360   20.4550 C   0  0  0  0  0  3  0  0  0  0  0  0
  -21.8550   -6.8360   21.4970 O   0  0  0  0  0  0  0  0  0  0  0  0
  -21.7180   -6.0480   22.6130 C   0  0  0  0  0  0  0  0  0  0  0  0
  -21.2080   -6.5580   23.8260 C   0  0  0  0  0  3  0  0  0  0  0  0
  -21.0220   -5.7000   24.9280 C   0  0  0  0  0  3  0  0  0  0  0  0
  -21.3320   -4.3310   24.8150 C   0  0  0  0  0  0  0  0  0  0  0  0
  -21.8320   -3.8190   23.6040 C   0  0  0  0  0  3  0  0  0  0  0  0
  -22.0210   -4.6750   22.5050 C   0  0  0  0  0  0  0  0  0  0  0  0
  -22.4820   -4.1740   21.3330 F   0  0  0  0  0  0  0  0  0  0  0  0
  -21.1470   -3.5030   25.8690 F   0  0  0  0  0  0  0  0  0  0  0  0
  -23.0200  -13.4660   21.2450 C   0  0  0  0  0  0  0  0  0  0  0  0
  -22.1650  -12.7930   22.0060 N   0  0  0  0  0  0  0  0  0  0  0  0
  -22.6700  -14.4800   20.6430 O   0  0  0  0  0  0  0  0  0  0  0  0
  -22.4500  -11.9740   22.5220 H   0  0  0  0  0  0  0  0  0  0  0  0
  -21.2090  -13.1090   22.0760 H   0  0  0  0  0  0  0  0  0  0  0  0
  -25.7540  -15.1080   20.8100 N   0  0  0  0  0  0  0  0  0  0  0  0
  -24.9850  -15.7680   20.8160 H   0  0  0  0  0  0  0  0  0  0  0  0
  -26.6450  -15.5430   20.6170 H   0  0  0  0  0  0  0  0  0  0  0  0
  -30.0550  -15.9090   18.4710 C   0  0  0  0  0  0  0  0  0  0  0  0
  -28.6970  -15.4600   17.9530 C   0  0  0  0  0  1  0  0  0  0  0  0
  -31.0840  -15.3520   18.0860 O   0  0  0  0  0  0  0  0  0  0  0  0
  1  7  1  0
  2  4  1  0
  3  2  2  0
  4  6  1  0
  5  2  1  0
  5  7  1  0
  7  6  1  0
  7  8  1  6
  9  3  1  0
 10 21  2  0
 11  9  1  0
 11 16  1  0
 12 20  1  0
 12 22  1  0
 13 19  1  0
 13 15  1  0
 14 20  1  0
 15 14  1  0
 16 15  2  0
 17 18  1  0
 17 11  2  0
 18 13  2  0
 19 12  1  0
 20 10  1  0
 22 24  2  0
 23 22  1  0
 25 23  1  0
 26 35  2  0
 26 31  1  0
 27 23  1  0
 27 31  1  0
 28 27  1  0
 29 30  1  0
 29 28  1  0
 30 26  1  0
 31 32  2  0
 32 33  1  0
 34 33  2  0
 35 34  1  0
 36 10  1  0
 36 41  1  0
 36 37  1  0
 37 40  1  1
 37 38  1  0
 39 37  1  0
 41 44  1  0
 42 46  1  0
 42 41  1  0
 43 42  2  0
 46 45  1  0
 48 46  1  0
 48 49  1  0
 48 47  1  0
 50 51  2  0
 50 53  1  0
 51 54  1  0
 53 55  2  0
 54  1  1  0
 54 52  2  0
 55 52  1  0
 55 64  1  0
 56 62  1  0
 56 64  1  0
 57 62  1  0
 58 59  1  0
 58 57  1  0
 60 59  1  0
 60 69  1  0
 60 61  1  0
 62 61  1  0
 63 56  2  0
 64 65  1  0
 66 67  2  0
 67 86  1  0
 67 68  1  0
 68 71  1  0
 69 66  1  0
 69 70  1  0
 70 68  2  0
 71 72  1  0
 72 73  2  0
 74 73  1  0
 75 74  2  0
 76 75  1  0
 76 71  2  0
 77 74  1  0
 77 78  1  0
 78 79  1  0
 79 80  2  0
 81 80  1  0
 81 85  1  0
 82 81  2  0
 83 78  2  0
 83 82  1  0
 84 83  1  0
 86 87  1  0
 87 90  1  0
 87 89  1  0
 88 86  2  0
 91 92  1  0
 91 66  1  0
 93 91  1  0
 94 53  1  0
 95 94  1  0
 96 94  2  0
M  ISO  4   3 101   9 101  56 100  64 100
M  END
>  <TORSDO>  (40) 
F 19

>  <SCORE>  (40) 
-9.596

>  <name>  (40) 
39

>  <ligand_id>  (40) 
39

>  <original_smiles>  (40) 
[H]C(Oc1c([H])c([H])c2c(c1[H])C([H])([H])N(C(=O)C([H])(N([H])C(=O)C([H])(N([H])C([H])([H])[H])C([H])([H])[H])C(C([H])([H])[H])(C([H])([H])[H])C([H])([H])[H])C([H])(C(=O)N([H])C1([H])c3c([H])c([H])c([H])c([H])c3C([H])([H])C([H])([H])C1([H])[H])C2([H])[H])=C1C([H])([H])C([H])([H])[N+]([H])(C([H])([H])c2c([H])c([H])c(C(=O)C([H])([H])[H])c(N([H])C(=O)N3C([H])([H])C([H])([H])C([H])([H])C([H])(n4nc(-c5c([H])c([H])c(Oc6c([H])c([H])c(F)c([H])c6F)c([H])c5[H])c(C(=O)N([H])[H])c4N([H])[H])C3([H])[H])c2[H])C1([H])[H]

>  <smiles>  (40) 
[H]C(Oc1c([H])c([H])c2c(c1[H])C([H])([H])N(C(=O)C([H])(N([H])C(=O)C([H])(N([H])C([H])([H])[H])C([H])([H])[H])C(C([H])([H])[H])(C([H])([H])[H])C([H])([H])[H])C([H])(C(=O)N([H])C1([H])c3c([H])c([H])c([H])c([H])c3C([H])([H])C([H])([H])C1([H])[H])C2([H])[H])=C1C([H])([H])C([H])([H])[N+]([H])(C([H])([H])c2c([H])c([H])c(C(=O)C([H])([H])[H])c(N([H])C(=O)N3C([H])([H])C([H])([H])C([H])([H])C([H])(n4nc(-c5c([H])c([H])c(Oc6c([H])c([H])c(F)c([H])c6F)c([H])c5[H])c(C(=O)N([H])[H])c4N([H])[H])C3([H])[H])c2[H])C1([H])[H]

$$$$
40:0:0
     RDKit          3D

 94103  0  0  1  0  0  0  0  0999 V2000
  -31.4200  -23.5910   21.5250 C   0  0  0  0  0  2  0  0  0  0  0  0
  -31.3880  -22.1440   21.0040 C   0  0  0  0  0  2  0  0  0  0  0  0
  -30.6300  -24.5280   20.5970 C   0  0  0  0  0  2  0  0  0  0  0  0
  -29.9430  -21.6170   20.8240 C   0  0  0  0  0  3  0  0  0  0  0  0
  -29.1780  -24.0420   20.4100 C   0  0  0  0  0  3  0  0  0  0  0  0
  -29.1730  -22.5820   19.9450 N   0  0  0  0  0  4  0  0  0  0  0  0
  -28.2220  -22.2530   19.8910 H   0  0  0  0  0  0  0  0  0  0  0  0
  -29.5510  -22.5210   19.0130 H   0  0  0  0  0  0  0  0  0  0  0  0
  -28.7650  -19.2820   20.8390 C   0  0  0  0  0  3  0  0  0  0  0  0
  -31.0450  -19.3170   20.0940 C   0  0  0  0  0  3  0  0  0  0  0  0
  -28.7790  -17.8590   20.7860 C   0  0  0  0  0  3  0  0  0  0  0  0
  -31.0660  -17.8880   20.0490 C   0  0  0  0  0  3  0  0  0  0  0  0
  -29.9050  -20.0630   20.5180 C   0  0  0  0  0  0  0  0  0  0  0  0
  -29.9320  -17.1160   20.4160 C   0  0  0  0  0  0  0  0  0  0  0  0
  -30.6200  -14.6430   19.9290 C   0  0  0  0  0  0  0  0  0  0  0  0
  -30.3160  -12.4410   18.8070 C   0  0  0  0  0  2  0  0  0  0  0  0
  -29.2630  -12.6100   17.6880 C   0  0  0  0  0  2  0  0  0  0  0  0
  -27.8350  -12.4400   18.2430 C   0  0  0  0  0  2  0  0  0  0  0  0
  -27.5950  -13.2660   19.5330 C   0  0  0  0  0  3  0  0  0  0  0  0
  -28.7450  -13.0600   20.5440 C   0  0  0  0  0  2  0  0  0  0  0  0
  -30.0030  -13.4200   19.8680 N   0  0  0  0  0  0  0  0  0  0  0  0
  -31.7300  -14.8290   19.4210 O   0  0  0  0  0  0  0  0  0  0  0  0
  -29.8550  -15.6540   20.4450 N   0  0  0  0  0  0  0  0  0  0  0  0
  -29.0050  -15.3000   20.8560 H   0  0  0  0  0  0  0  0  0  0  0  0
  -25.2780  -13.8590   20.4780 C   0  0  0  0  0  0  0  0  0  0  0  0
  -24.2390  -13.0810   20.9120 C   0  0  0  0  0  0  0  0  0  0  0  0
  -24.6820  -11.7290   20.7910 C   0  0  0  0  0  0  0  0  0  0  0  0
  -26.2890  -12.9800   20.1210 N   0  0  0  0  0  0  0  0  0  0  0  0
  -25.9400  -11.6920   20.3690 N   0  0  0  0  0  0  0  0  0  0  0  0
  -23.9630  -10.4650   20.9980 C   0  0  0  0  0  0  0  0  0  0  0  0
  -24.4330   -9.4860   21.9030 C   0  0  0  0  0  3  0  0  0  0  0  0
  -23.7130   -8.2880   22.0980 C   0  0  0  0  0  3  0  0  0  0  0  0
  -22.5110   -8.0580   21.3880 C   0  0  0  0  0  0  0  0  0  0  0  0
  -22.0600   -9.0270   20.4720 C   0  0  0  0  0  3  0  0  0  0  0  0
  -22.7800  -10.2160   20.2750 C   0  0  0  0  0  3  0  0  0  0  0  0
  -21.7590   -6.9130   21.4950 O   0  0  0  0  0  0  0  0  0  0  0  0
  -21.7120   -6.1890   22.6590 C   0  0  0  0  0  0  0  0  0  0  0  0
  -21.2660   -6.7590   23.8710 C   0  0  0  0  0  3  0  0  0  0  0  0
  -21.1670   -5.9610   25.0290 C   0  0  0  0  0  3  0  0  0  0  0  0
  -21.5020   -4.5960   24.9740 C   0  0  0  0  0  0  0  0  0  0  0  0
  -21.9400   -4.0260   23.7670 C   0  0  0  0  0  3  0  0  0  0  0  0
  -22.0410   -4.8200   22.6120 C   0  0  0  0  0  0  0  0  0  0  0  0
  -22.4440   -4.2610   21.4450 F   0  0  0  0  0  0  0  0  0  0  0  0
  -21.3980   -3.8270   26.0830 F   0  0  0  0  0  0  0  0  0  0  0  0
  -22.8770  -13.5570   21.3250 C   0  0  0  0  0  0  0  0  0  0  0  0
  -22.2180  -12.8300   22.2220 N   0  0  0  0  0  0  0  0  0  0  0  0
  -22.4070  -14.6080   20.8890 O   0  0  0  0  0  0  0  0  0  0  0  0
  -22.6100  -11.9770   22.5920 H   0  0  0  0  0  0  0  0  0  0  0  0
  -21.3100  -13.1330   22.5440 H   0  0  0  0  0  0  0  0  0  0  0  0
  -25.4400  -15.2340   20.3350 N   0  0  0  0  0  0  0  0  0  0  0  0
  -24.6860  -15.8860   20.5250 H   0  0  0  0  0  0  0  0  0  0  0  0
  -26.2450  -15.6770   19.9090 H   0  0  0  0  0  0  0  0  0  0  0  0
  -28.3260  -25.0660   19.5370 C   0  0  0  0  0  2  0  0  0  0  0  0
  -28.3700  -26.5010   19.9070 O   0  0  0  0  0  0  0  0  0  0  0  0
  -24.4670  -31.6760   23.0300 C   0  0  0  0  0  0  0  0  0  0  0  0
  -27.2130  -27.2950   19.8470 C   0  0  0  0  0  0  0  0  0  0  0  0
  -23.3050  -30.2940   21.3440 C   0  0  0  0  0  3  0  0  0  0  0  0
  -24.8020  -28.8340   19.8720 C   0  0  0  0  0  0  0  0  0  0  0  0
  -25.8340  -30.6920   21.1780 C   0  0  0  0  0  2  0  0  0  0  0  0
  -25.9530  -29.3380   20.4920 C   0  0  0  0  0  0  0  0  0  0  0  0
  -27.1580  -28.5770   20.4750 C   0  0  0  0  0  3  0  0  0  0  0  0
  -26.0420  -26.8520   19.1860 C   0  0  0  0  0  3  0  0  0  0  0  0
  -24.8490  -27.5980   19.2110 C   0  0  0  0  0  3  0  0  0  0  0  0
  -23.5410  -29.6690   19.9450 C   0  0  0  0  0  2  0  0  0  0  0  0
  -24.5530  -30.9030   21.9070 N   0  0  0  0  0  0  0  0  0  0  0  0
  -23.3770  -31.9060   23.5710 O   0  0  0  0  0  0  0  0  0  0  0  0
  -22.6730  -29.2290   22.2710 C   0  0  0  0  0  0  0  0  0  0  0  0
  -21.3480  -29.0390   22.1570 N   0  0  0  0  0  0  0  0  0  0  0  0
  -23.3730  -28.5770   23.0500 O   0  0  0  0  0  0  0  0  0  0  0  0
  -20.8430  -29.6190   21.5020 H   0  0  0  0  0  0  0  0  0  0  0  0
  -17.9870  -27.8120   22.6740 C   0  0  0  0  0  0  0  0  0  0  0  0
  -20.5490  -28.0620   22.8990 C   0  0  0  0  0  3  0  0  0  0  0  0
  -20.6390  -26.6610   22.2500 C   0  0  0  0  0  2  0  0  0  0  0  0
  -19.5150  -26.3870   21.2480 C   0  0  0  0  0  2  0  0  0  0  0  0
  -18.1490  -26.4970   21.9310 C   0  0  0  0  0  2  0  0  0  0  0  0
  -19.1140  -28.5560   23.1140 C   0  0  0  0  0  0  0  0  0  0  0  0
  -18.9080  -29.7880   23.7710 C   0  0  0  0  0  3  0  0  0  0  0  0
  -17.6080  -30.2770   23.9940 C   0  0  0  0  0  3  0  0  0  0  0  0
  -16.4940  -29.5300   23.5720 C   0  0  0  0  0  3  0  0  0  0  0  0
  -16.6850  -28.3000   22.9160 C   0  0  0  0  0  3  0  0  0  0  0  0
  -25.7340  -32.3220   23.6720 C   0  0  0  0  0  3  0  0  0  0  0  0
  -25.3850  -33.6970   24.0540 N   0  0  0  0  0  0  0  0  0  0  0  0
  -25.6840  -34.7860   23.3330 C   0  0  0  0  0  0  0  0  0  0  0  0
  -26.3510  -34.7390   22.2950 O   0  0  0  0  0  0  0  0  0  0  0  0
  -24.7950  -33.8040   24.8640 H   0  0  0  0  0  0  0  0  0  0  0  0
  -23.9010  -36.5370   23.0510 C   0  0  0  0  0  1  0  0  0  0  0  0
  -25.1570  -36.1410   23.8430 C   0  0  0  0  0  3  0  0  0  0  0  0
  -27.2640  -37.0660   24.7000 C   0  0  0  0  0  1  0  0  0  0  0  0
  -26.1560  -37.2290   23.7630 N   0  0  0  0  0  0  0  0  0  0  0  0
  -25.7230  -38.1310   23.9390 H   0  0  0  0  0  0  0  0  0  0  0  0
  -26.2760  -31.5200   24.9180 C   0  0  1  0  0  0  0  0  0  0  0  0
  -25.1940  -31.2130   25.9790 C   0  0  0  0  0  1  0  0  0  0  0  0
  -26.8990  -30.1760   24.4740 C   0  0  0  0  0  1  0  0  0  0  0  0
  -27.4040  -32.3220   25.6090 C   0  0  0  0  0  1  0  0  0  0  0  0
  2  1  1  0
  3  1  1  0
  4 13  1  0
  4  2  1  0
  5 53  1  0
  5  3  1  0
  6  5  1  0
  6  4  1  0
  7  6  1  0
  8  6  1  0
 10 13  1  0
 11  9  1  0
 12 10  2  0
 12 14  1  0
 13  9  2  0
 14 23  1  0
 14 11  2  0
 15 23  1  0
 16 21  1  0
 17 18  1  0
 17 16  1  0
 19 18  1  0
 19 28  1  0
 19 20  1  0
 21 15  1  0
 21 20  1  0
 22 15  2  0
 23 24  1  0
 25 26  2  0
 26 45  1  0
 27 26  1  0
 27 30  1  0
 28 29  1  0
 28 25  1  0
 29 27  2  0
 30 31  1  0
 31 32  2  0
 33 36  1  0
 33 32  1  0
 34 33  2  0
 35 34  1  0
 35 30  2  0
 36 37  1  0
 37 38  1  0
 38 39  2  0
 40 39  1  0
 40 44  1  0
 41 40  2  0
 42 37  2  0
 42 41  1  0
 43 42  1  0
 45 46  1  0
 46 49  1  0
 46 48  1  0
 47 45  2  0
 50 25  1  0
 50 51  1  0
 52 50  1  0
 53 54  1  0
 55 66  2  0
 56 54  1  0
 56 61  1  0
 57 65  1  0
 57 67  1  0
 58 64  1  0
 58 60  1  0
 59 65  1  0
 60 59  1  0
 61 60  2  0
 62 63  1  0
 62 56  2  0
 63 58  2  0
 64 57  1  0
 65 55  1  0
 67 69  2  0
 68 67  1  0
 70 68  1  0
 71 80  2  0
 71 76  1  0
 72 68  1  0
 72 76  1  0
 73 72  1  0
 74 75  1  0
 74 73  1  0
 75 71  1  0
 76 77  2  0
 77 78  1  0
 79 78  2  0
 80 79  1  0
 81 55  1  0
 81 82  1  0
 81 91  1  0
 82 85  1  0
 83 87  1  0
 83 82  1  0
 84 83  2  0
 87 86  1  0
 89 87  1  0
 89 90  1  0
 89 88  1  0
 91 94  1  1
 91 92  1  0
 93 91  1  0
M  ISO  4  15 100  23 100  53 101  54 101
M  END
>  <TORSDO>  (41) 
F 18

>  <SCORE>  (41) 
-13.581

>  <name>  (41) 
40

>  <ligand_id>  (41) 
40

>  <original_smiles>  (41) 
[H]c1c([H])c([H])c2c(c1[H])C([H])([H])C([H])([H])C([H])([H])C2([H])N([H])C(=O)C1([H])N(C(=O)C([H])(N([H])C(=O)C([H])(N([H])C([H])([H])[H])C([H])([H])[H])C(C([H])([H])[H])(C([H])([H])[H])C([H])([H])[H])C([H])([H])c2c([H])c(OC([H])([H])C3([H])C([H])([H])C([H])([H])C([H])([H])C([H])(c4c([H])c([H])c(N([H])C(=O)N5C([H])([H])C([H])([H])C([H])([H])C([H])(n6nc(-c7c([H])c([H])c(Oc8c([H])c([H])c(F)c([H])c8F)c([H])c7[H])c(C(=O)N([H])[H])c6N([H])[H])C5([H])[H])c([H])c4[H])[N+]3([H])[H])c([H])c([H])c2C1([H])[H]

>  <smiles>  (41) 
[H]c1c([H])c([H])c2c(c1[H])C([H])([H])C([H])([H])C([H])([H])C2([H])N([H])C(=O)C1([H])N(C(=O)C([H])(N([H])C(=O)C([H])(N([H])C([H])([H])[H])C([H])([H])[H])C(C([H])([H])[H])(C([H])([H])[H])C([H])([H])[H])C([H])([H])c2c([H])c(OC([H])([H])C3([H])C([H])([H])C([H])([H])C([H])([H])C([H])(c4c([H])c([H])c(N([H])C(=O)N5C([H])([H])C([H])([H])C([H])([H])C([H])(n6nc(-c7c([H])c([H])c(Oc8c([H])c([H])c(F)c([H])c8F)c([H])c7[H])c(C(=O)N([H])[H])c6N([H])[H])C5([H])[H])c([H])c4[H])[N+]3([H])[H])c([H])c([H])c2C1([H])[H]

$$$$
41:0:0
     RDKit          3D

 95103  0  0  1  0  0  0  0  0999 V2000
  -30.5970  -19.1540   23.0850 C   0  0  0  0  0  3  0  0  0  0  0  0
  -30.7730  -20.4960   22.6890 C   0  0  0  0  0  3  0  0  0  0  0  0
  -31.5300  -19.7470   20.5190 C   0  0  0  0  0  3  0  0  0  0  0  0
  -31.4070  -18.3590   20.9100 C   0  0  0  0  0  0  0  0  0  0  0  0
  -30.9520  -18.0760   22.2410 C   0  0  0  0  0  0  0  0  0  0  0  0
  -31.2650  -20.8300   21.4100 C   0  0  0  0  0  0  0  0  0  0  0  0
  -32.1040  -14.8850   19.4770 C   0  0  0  0  0  0  0  0  0  0  0  0
  -31.6210  -12.6690   18.4830 C   0  0  0  0  0  2  0  0  0  0  0  0
  -30.5370  -12.8380   17.3970 C   0  0  0  0  0  2  0  0  0  0  0  0
  -29.1330  -12.7330   18.0210 C   0  0  0  0  0  2  0  0  0  0  0  0
  -28.9730  -13.6120   19.2900 C   0  0  0  0  0  3  0  0  0  0  0  0
  -30.1670  -13.4390   20.2560 C   0  0  0  0  0  2  0  0  0  0  0  0
  -31.3990  -13.7130   19.5040 N   0  0  0  0  0  0  0  0  0  0  0  0
  -33.1680  -14.9450   18.8530 O   0  0  0  0  0  0  0  0  0  0  0  0
  -31.9660  -17.2820   19.9730 C   0  0  0  0  0  0  0  0  0  0  0  0
  -31.5370  -15.9850   20.0630 N   0  0  0  0  0  0  0  0  0  0  0  0
  -32.7860  -17.6630   19.1290 O   0  0  0  0  0  0  0  0  0  0  0  0
  -30.7340  -15.8220   20.6440 H   0  0  0  0  0  0  0  0  0  0  0  0
  -26.7870  -14.2760   20.4650 C   0  0  0  0  0  0  0  0  0  0  0  0
  -25.7220  -13.5360   20.9080 C   0  0  0  0  0  0  0  0  0  0  0  0
  -26.0450  -12.1730   20.6320 C   0  0  0  0  0  0  0  0  0  0  0  0
  -27.6950  -13.3620   19.9530 N   0  0  0  0  0  0  0  0  0  0  0  0
  -27.2620  -12.0850   20.1090 N   0  0  0  0  0  0  0  0  0  0  0  0
  -25.2430  -10.9500   20.7800 C   0  0  0  0  0  0  0  0  0  0  0  0
  -25.6200   -9.9210   21.6690 C   0  0  0  0  0  3  0  0  0  0  0  0
  -24.8180   -8.7670   21.8110 C   0  0  0  0  0  3  0  0  0  0  0  0
  -23.6240   -8.6350   21.0620 C   0  0  0  0  0  0  0  0  0  0  0  0
  -23.2660   -9.6530   20.1600 C   0  0  0  0  0  3  0  0  0  0  0  0
  -24.0690  -10.7970   20.0160 C   0  0  0  0  0  3  0  0  0  0  0  0
  -22.7980   -7.5390   21.1150 O   0  0  0  0  0  0  0  0  0  0  0  0
  -22.4760   -6.9370   22.3050 C   0  0  0  0  0  0  0  0  0  0  0  0
  -21.8630   -7.6490   23.3580 C   0  0  0  0  0  3  0  0  0  0  0  0
  -21.4870   -6.9740   24.5370 C   0  0  0  0  0  3  0  0  0  0  0  0
  -21.7120   -5.5900   24.6600 C   0  0  0  0  0  0  0  0  0  0  0  0
  -22.3190   -4.8800   23.6100 C   0  0  0  0  0  3  0  0  0  0  0  0
  -22.6960   -5.5510   22.4330 C   0  0  0  0  0  0  0  0  0  0  0  0
  -23.2600   -4.8570   21.4160 F   0  0  0  0  0  0  0  0  0  0  0  0
  -21.3440   -4.9410   25.7890 F   0  0  0  0  0  0  0  0  0  0  0  0
  -24.4370  -14.0690   21.4720 C   0  0  0  0  0  0  0  0  0  0  0  0
  -23.8160  -13.3330   22.3860 N   0  0  0  0  0  0  0  0  0  0  0  0
  -24.0010  -15.1710   21.1370 O   0  0  0  0  0  0  0  0  0  0  0  0
  -24.1780  -12.4340   22.6670 H   0  0  0  0  0  0  0  0  0  0  0  0
  -22.9610  -13.6710   22.8070 H   0  0  0  0  0  0  0  0  0  0  0  0
  -27.0510  -15.6410   20.4310 N   0  0  0  0  0  0  0  0  0  0  0  0
  -26.3820  -16.3340   20.7520 H   0  0  0  0  0  0  0  0  0  0  0  0
  -27.8730  -16.0550   20.0110 H   0  0  0  0  0  0  0  0  0  0  0  0
  -29.8690  -15.7320   22.2790 C   0  0  0  0  0  1  0  0  0  0  0  0
  -30.9130  -16.6810   22.8900 C   0  0  0  0  0  2  0  0  0  0  0  0
  -31.5860  -22.2020   21.1750 N   0  0  0  0  0  0  0  0  0  0  0  0
  -31.7050  -22.7800   22.0070 H   0  0  0  0  0  0  0  0  0  0  0  0
  -31.2370  -23.0410   19.9960 C   0  0  0  0  0  2  0  0  0  0  0  0
  -31.0060  -24.5650   20.3500 C   0  0  0  0  0  0  0  0  0  0  0  0
  -31.5300  -25.0300   21.3700 O   0  0  0  0  0  0  0  0  0  0  0  0
  -30.0930  -25.4720   19.4550 C   0  0  0  0  0  2  0  0  0  0  0  0
  -29.8770  -26.8410   19.9680 O   0  0  0  0  0  0  0  0  0  0  0  0
  -24.9890  -30.9240   23.2680 C   0  0  0  0  0  0  0  0  0  0  0  0
  -28.5940  -27.3990   19.9140 C   0  0  0  0  0  0  0  0  0  0  0  0
  -24.1530  -29.4910   21.4380 C   0  0  0  0  0  3  0  0  0  0  0  0
  -25.9380  -28.4500   19.9370 C   0  0  0  0  0  0  0  0  0  0  0  0
  -26.5630  -30.3630   21.4060 C   0  0  0  0  0  2  0  0  0  0  0  0
  -26.9520  -29.1100   20.6380 C   0  0  0  0  0  0  0  0  0  0  0  0
  -28.2810  -28.5970   20.6200 C   0  0  0  0  0  3  0  0  0  0  0  0
  -27.5520  -26.7920   19.1740 C   0  0  0  0  0  3  0  0  0  0  0  0
  -26.2390  -27.2940   19.2000 C   0  0  0  0  0  3  0  0  0  0  0  0
  -24.5380  -29.0250   20.0090 C   0  0  0  0  0  2  0  0  0  0  0  0
  -25.2490  -30.2740   22.0980 N   0  0  0  0  0  0  0  0  0  0  0  0
  -23.8590  -30.9050   23.7760 O   0  0  0  0  0  0  0  0  0  0  0  0
  -23.7010  -28.2590   22.2580 C   0  0  0  0  0  0  0  0  0  0  0  0
  -22.4990  -27.7390   21.9550 N   0  0  0  0  0  0  0  0  0  0  0  0
  -24.4340  -27.7760   23.1260 O   0  0  0  0  0  0  0  0  0  0  0  0
  -21.9480  -28.1940   21.2410 H   0  0  0  0  0  0  0  0  0  0  0  0
  -19.5930  -25.5910   21.8970 C   0  0  0  0  0  0  0  0  0  0  0  0
  -21.8950  -26.5570   22.5720 C   0  0  0  0  0  3  0  0  0  0  0  0
  -22.4970  -25.2560   21.9920 C   0  0  0  0  0  2  0  0  0  0  0  0
  -21.6960  -24.6980   20.8120 C   0  0  0  0  0  2  0  0  0  0  0  0
  -20.2540  -24.3980   21.2290 C   0  0  0  0  0  2  0  0  0  0  0  0
  -20.3640  -26.6130   22.5120 C   0  0  0  0  0  0  0  0  0  0  0  0
  -19.6980  -27.7210   23.0830 C   0  0  0  0  0  3  0  0  0  0  0  0
  -18.2930  -27.8120   23.0490 C   0  0  0  0  0  3  0  0  0  0  0  0
  -17.5360  -26.7880   22.4530 C   0  0  0  0  0  3  0  0  0  0  0  0
  -18.1860  -25.6790   21.8810 C   0  0  0  0  0  3  0  0  0  0  0  0
  -26.0900  -31.7400   24.0120 C   0  0  0  0  0  3  0  0  0  0  0  0
  -25.5430  -33.0750   24.2920 N   0  0  0  0  0  0  0  0  0  0  0  0
  -25.7920  -34.1690   23.5580 C   0  0  0  0  0  0  0  0  0  0  0  0
  -26.5730  -34.1710   22.6030 O   0  0  0  0  0  0  0  0  0  0  0  0
  -24.8630  -33.1400   25.0330 H   0  0  0  0  0  0  0  0  0  0  0  0
  -23.8640  -35.6810   23.0060 C   0  0  0  0  0  1  0  0  0  0  0  0
  -25.0600  -35.4670   23.9470 C   0  0  0  0  0  3  0  0  0  0  0  0
  -26.9340  -36.6630   24.9900 C   0  0  0  0  0  1  0  0  0  0  0  0
  -25.9290  -36.6620   23.9300 N   0  0  0  0  0  0  0  0  0  0  0  0
  -25.3750  -37.5110   24.0170 H   0  0  0  0  0  0  0  0  0  0  0  0
  -26.5820  -31.0490   25.3420 C   0  0  1  0  0  0  0  0  0  0  0  0
  -25.4300  -30.6360   26.2880 C   0  0  0  0  0  1  0  0  0  0  0  0
  -27.4100  -29.7830   25.0210 C   0  0  0  0  0  1  0  0  0  0  0  0
  -27.5160  -32.0080   26.1180 C   0  0  0  0  0  1  0  0  0  0  0  0
  2  1  1  0
  3  4  2  0
  3  6  1  0
  4  5  1  0
  5 48  1  0
  5  1  2  0
  6  2  2  0
  7 13  1  0
  7 16  1  0
  8 13  1  0
  9 10  1  0
  9  8  1  0
 11 10  1  0
 11 22  1  0
 11 12  1  0
 13 12  1  0
 14  7  2  0
 15 16  1  0
 15  4  1  0
 16 18  1  0
 17 15  2  0
 19 20  2  0
 20 39  1  0
 21 24  1  0
 21 20  1  0
 22 23  1  0
 22 19  1  0
 23 21  2  0
 24 25  1  0
 25 26  2  0
 27 30  1  0
 27 26  1  0
 28 27  2  0
 29 28  1  0
 29 24  2  0
 30 31  1  0
 31 36  2  0
 31 32  1  0
 32 33  2  0
 33 34  1  0
 34 38  1  0
 35 34  2  0
 36 35  1  0
 37 36  1  0
 39 40  1  0
 40 42  1  0
 40 43  1  0
 41 39  2  0
 44 19  1  0
 44 45  1  0
 46 44  1  0
 47 48  1  0
 49  6  1  0
 49 50  1  0
 51 52  1  0
 51 49  1  0
 52 53  2  0
 54 55  1  0
 54 52  1  0
 56 67  2  0
 57 55  1  0
 57 62  1  0
 58 66  1  0
 58 68  1  0
 59 65  1  0
 59 61  1  0
 60 66  1  0
 61 60  1  0
 62 61  2  0
 63 64  1  0
 63 57  2  0
 64 59  2  0
 65 58  1  0
 66 56  1  0
 68 70  2  0
 69 68  1  0
 71 69  1  0
 72 77  1  0
 73 69  1  0
 74 73  1  0
 75 76  1  0
 75 74  1  0
 76 72  1  0
 77 73  1  0
 77 78  2  0
 79 78  1  0
 80 79  2  0
 81 72  2  0
 81 80  1  0
 82 56  1  0
 82 83  1  0
 82 92  1  0
 83 86  1  0
 84 88  1  0
 84 83  1  0
 85 84  2  0
 88 87  1  0
 90 88  1  0
 90 91  1  0
 90 89  1  0
 92 95  1  1
 92 93  1  0
 94 92  1  0
M  ISO  4   7 100  16 100  54 101  55 101
M  END
>  <TORSDO>  (42) 
F 21

>  <SCORE>  (42) 
-7.093

>  <name>  (42) 
41

>  <ligand_id>  (42) 
41

>  <original_smiles>  (42) 
[H]c1c([H])c([H])c2c(c1[H])C([H])([H])C([H])([H])C([H])([H])C2([H])N([H])C(=O)C1([H])N(C(=O)C([H])(N([H])C(=O)C([H])(N([H])C([H])([H])[H])C([H])([H])[H])C(C([H])([H])[H])(C([H])([H])[H])C([H])([H])[H])C([H])([H])c2c([H])c(OC([H])([H])C(=O)C([H])([H])N([H])c3c([H])c([H])c(C([H])([H])C([H])([H])[H])c(C(=O)N([H])C(=O)N4C([H])([H])C([H])([H])C([H])([H])C([H])(n5nc(-c6c([H])c([H])c(Oc7c([H])c([H])c(F)c([H])c7F)c([H])c6[H])c(C(=O)N([H])[H])c5N([H])[H])C4([H])[H])c3[H])c([H])c([H])c2C1([H])[H]

>  <smiles>  (42) 
[H]c1c([H])c([H])c2c(c1[H])C([H])([H])C([H])([H])C([H])([H])C2([H])N([H])C(=O)C1([H])N(C(=O)C([H])(N([H])C(=O)C([H])(N([H])C([H])([H])[H])C([H])([H])[H])C(C([H])([H])[H])(C([H])([H])[H])C([H])([H])[H])C([H])([H])c2c([H])c(OC([H])([H])C(=O)C([H])([H])N([H])c3c([H])c([H])c(C([H])([H])C([H])([H])[H])c(C(=O)N([H])C(=O)N4C([H])([H])C([H])([H])C([H])([H])C([H])(n5nc(-c6c([H])c([H])c(Oc7c([H])c([H])c(F)c([H])c7F)c([H])c6[H])c(C(=O)N([H])[H])c5N([H])[H])C4([H])[H])c3[H])c([H])c([H])c2C1([H])[H]

$$$$
42:0:0
     RDKit          3D

 99107  0  0  1  0  0  0  0  0999 V2000
  -29.5920  -19.1300   20.9120 C   0  0  0  0  0  3  0  0  0  0  0  0
  -30.6040  -21.3070   20.5570 C   0  0  0  0  0  3  0  0  0  0  0  0
  -30.8640  -18.5000   20.8610 C   0  0  0  0  0  0  0  0  0  0  0  0
  -32.0190  -19.3010   20.5660 C   0  0  0  0  0  0  0  0  0  0  0  0
  -29.4400  -20.5320   20.7360 C   0  0  0  0  0  0  0  0  0  0  0  0
  -31.8720  -20.7130   20.4300 C   0  0  0  0  0  0  0  0  0  0  0  0
  -32.9310  -21.5880   20.1480 N   0  0  0  0  0  0  0  0  0  0  0  0
  -32.8070  -22.5950   20.1390 H   0  0  0  0  0  0  0  0  0  0  0  0
  -33.8860  -21.2840   19.9970 H   0  0  0  0  0  0  0  0  0  0  0  0
  -27.7150  -22.2200   20.4130 C   0  0  0  0  0  0  0  0  0  0  0  0
  -26.2490  -22.5310   20.6510 C   0  0  0  0  0  1  0  0  0  0  0  0
  -28.1470  -21.0820   20.8420 N   0  0  0  0  0  0  0  0  0  0  0  0
  -28.4350  -23.3260   19.6060 C   0  0  0  0  0  2  0  0  0  0  0  0
  -28.5770  -24.6910   20.3280 C   0  0  0  0  0  0  0  0  0  0  0  0
  -28.4030  -24.8160   21.5460 O   0  0  0  0  0  0  0  0  0  0  0  0
  -28.9740  -25.9080   19.4590 C   0  0  0  0  0  2  0  0  0  0  0  0
  -28.8080  -27.1710   20.1410 O   0  0  0  0  0  0  0  0  0  0  0  0
  -24.6460  -31.9830   23.3550 C   0  0  0  0  0  0  0  0  0  0  0  0
  -27.5880  -27.8240   20.1230 C   0  0  0  0  0  0  0  0  0  0  0  0
  -23.5600  -30.6230   21.5980 C   0  0  0  0  0  3  0  0  0  0  0  0
  -25.1270  -29.2330   20.1430 C   0  0  0  0  0  0  0  0  0  0  0  0
  -26.0750  -31.0990   21.5120 C   0  0  0  0  0  2  0  0  0  0  0  0
  -26.2410  -29.7710   20.7960 C   0  0  0  0  0  0  0  0  0  0  0  0
  -27.4720  -29.0730   20.7820 C   0  0  0  0  0  3  0  0  0  0  0  0
  -26.4430  -27.2980   19.4780 C   0  0  0  0  0  3  0  0  0  0  0  0
  -25.2220  -27.9980   19.4830 C   0  0  0  0  0  3  0  0  0  0  0  0
  -23.8420  -30.0290   20.1930 C   0  0  0  0  0  2  0  0  0  0  0  0
  -24.7760  -31.2480   22.2140 N   0  0  0  0  0  0  0  0  0  0  0  0
  -23.5350  -32.1780   23.8690 O   0  0  0  0  0  0  0  0  0  0  0  0
  -22.9250  -29.5230   22.4780 C   0  0  0  0  0  0  0  0  0  0  0  0
  -21.6070  -29.3220   22.3260 N   0  0  0  0  0  0  0  0  0  0  0  0
  -23.6160  -28.8540   23.2520 O   0  0  0  0  0  0  0  0  0  0  0  0
  -21.1110  -29.9180   21.6770 H   0  0  0  0  0  0  0  0  0  0  0  0
  -18.2430  -28.0670   22.7510 C   0  0  0  0  0  0  0  0  0  0  0  0
  -20.8020  -28.3140   23.0160 C   0  0  0  0  0  3  0  0  0  0  0  0
  -20.9040  -26.9410   22.3100 C   0  0  0  0  0  2  0  0  0  0  0  0
  -19.7930  -26.7060   21.2850 C   0  0  0  0  0  2  0  0  0  0  0  0
  -18.4180  -26.7860   21.9540 C   0  0  0  0  0  2  0  0  0  0  0  0
  -19.3640  -28.7950   23.2340 C   0  0  0  0  0  0  0  0  0  0  0  0
  -19.1460  -30.0000   23.9380 C   0  0  0  0  0  3  0  0  0  0  0  0
  -17.8420  -30.4780   24.1610 C   0  0  0  0  0  3  0  0  0  0  0  0
  -16.7370  -29.7460   23.6970 C   0  0  0  0  0  3  0  0  0  0  0  0
  -16.9390  -28.5410   22.9990 C   0  0  0  0  0  3  0  0  0  0  0  0
  -25.8800  -32.6340   24.0550 C   0  0  0  0  0  3  0  0  0  0  0  0
  -25.5280  -34.0240   24.3680 N   0  0  0  0  0  0  0  0  0  0  0  0
  -25.8820  -35.0840   23.6290 C   0  0  0  0  0  0  0  0  0  0  0  0
  -26.6120  -34.9950   22.6370 O   0  0  0  0  0  0  0  0  0  0  0  0
  -24.8880  -34.1660   25.1360 H   0  0  0  0  0  0  0  0  0  0  0  0
  -24.1390  -36.8390   23.1830 C   0  0  0  0  0  1  0  0  0  0  0  0
  -25.3450  -36.4620   24.0580 C   0  0  0  0  0  3  0  0  0  0  0  0
  -27.4150  -37.3920   24.9970 C   0  0  0  0  0  1  0  0  0  0  0  0
  -26.3610  -37.5360   23.9950 N   0  0  0  0  0  0  0  0  0  0  0  0
  -25.9290  -38.4480   24.1210 H   0  0  0  0  0  0  0  0  0  0  0  0
  -26.3350  -31.8680   25.3580 C   0  0  1  0  0  0  0  0  0  0  0  0
  -25.1830  -31.5990   26.3550 C   0  0  0  0  0  1  0  0  0  0  0  0
  -26.9720  -30.5060   24.9970 C   0  0  0  0  0  1  0  0  0  0  0  0
  -27.4290  -32.6840   26.0900 C   0  0  0  0  0  1  0  0  0  0  0  0
  -31.0270  -17.0270   21.1260 C   0  0  0  0  0  2  0  0  0  0  0  0
  -30.2970  -16.0240   20.7810 N   0  0  0  0  0  2  0  0  0  0  0  0
  -31.0310  -14.8420   20.5650 C   0  0  0  0  0  0  0  0  0  0  0  0
  -30.7640  -12.5600   19.6830 C   0  0  0  0  0  2  0  0  0  0  0  0
  -29.9260  -12.6440   18.3920 C   0  0  0  0  0  2  0  0  0  0  0  0
  -28.4260  -12.5360   18.7260 C   0  0  0  0  0  2  0  0  0  0  0  0
  -27.9970  -13.5000   19.8670 C   0  0  0  0  0  3  0  0  0  0  0  0
  -28.9750  -13.4460   21.0620 C   0  0  0  0  0  2  0  0  0  0  0  0
  -30.3350  -13.6680   20.5570 N   0  0  0  0  0  0  0  0  0  0  0  0
  -32.2200  -14.8380   20.2310 O   0  0  0  0  0  0  0  0  0  0  0  0
  -25.5780  -14.1430   20.4490 C   0  0  0  0  0  0  0  0  0  0  0  0
  -24.4820  -13.3920   20.7770 C   0  0  0  0  0  0  0  0  0  0  0  0
  -24.9260  -12.0340   20.8000 C   0  0  0  0  0  0  0  0  0  0  0  0
  -26.6210  -13.2450   20.2870 N   0  0  0  0  0  0  0  0  0  0  0  0
  -26.2300  -11.9730   20.5600 N   0  0  0  0  0  0  0  0  0  0  0  0
  -24.1750  -10.7850   20.9790 C   0  0  0  0  0  0  0  0  0  0  0  0
  -24.5510   -9.8270   21.9460 C   0  0  0  0  0  3  0  0  0  0  0  0
  -23.8020   -8.6420   22.1110 C   0  0  0  0  0  3  0  0  0  0  0  0
  -22.6600   -8.4070   21.3090 C   0  0  0  0  0  0  0  0  0  0  0  0
  -22.3040   -9.3520   20.3310 C   0  0  0  0  0  3  0  0  0  0  0  0
  -23.0540  -10.5280   20.1640 C   0  0  0  0  0  3  0  0  0  0  0  0
  -21.8860   -7.2750   21.3820 O   0  0  0  0  0  0  0  0  0  0  0  0
  -21.7960   -6.5370   22.5350 C   0  0  0  0  0  0  0  0  0  0  0  0
  -21.3330   -7.1000   23.7460 C   0  0  0  0  0  3  0  0  0  0  0  0
  -21.1900   -6.2890   24.8890 C   0  0  0  0  0  3  0  0  0  0  0  0
  -21.4990   -4.9170   24.8240 C   0  0  0  0  0  0  0  0  0  0  0  0
  -21.9560   -4.3540   23.6190 C   0  0  0  0  0  3  0  0  0  0  0  0
  -22.1010   -5.1630   22.4780 C   0  0  0  0  0  0  0  0  0  0  0  0
  -22.5200   -4.6120   21.3120 F   0  0  0  0  0  0  0  0  0  0  0  0
  -21.3550   -4.1360   25.9200 F   0  0  0  0  0  0  0  0  0  0  0  0
  -23.0800  -13.8910   20.9660 C   0  0  0  0  0  0  0  0  0  0  0  0
  -22.3020  -13.2280   21.8160 N   0  0  0  0  0  0  0  0  0  0  0  0
  -22.6800  -14.9050   20.3970 O   0  0  0  0  0  0  0  0  0  0  0  0
  -22.6380  -12.4090   22.3020 H   0  0  0  0  0  0  0  0  0  0  0  0
  -21.3570  -13.5460   21.9860 H   0  0  0  0  0  0  0  0  0  0  0  0
  -25.7730  -15.5060   20.2520 N   0  0  0  0  0  0  0  0  0  0  0  0
  -25.0240  -16.1870   20.3200 H   0  0  0  0  0  0  0  0  0  0  0  0
  -26.6650  -15.9190   20.0040 H   0  0  0  0  0  0  0  0  0  0  0  0
  -33.3500  -18.6470   20.3010 C   0  0  0  0  0  0  0  0  0  0  0  0
  -33.4900  -17.6950   19.5280 O   0  0  0  0  0  0  0  0  0  0  0  0
  -35.7880  -19.3990   20.1700 C   0  0  0  0  0  1  0  0  0  0  0  0
  -34.5670  -19.1600   21.0770 C   0  0  0  0  0  2  0  0  0  0  0  0
  2  5  1  0
  3  1  1  0
  3 58  1  0
  4  3  2  0
  5 12  1  0
  5  1  2  0
  6  2  2  0
  6  4  1  0
  7  6  1  0
  8  7  1  0
  9  7  1  0
 10 11  1  0
 10 12  2  0
 13 14  1  0
 13 10  1  0
 14 15  2  0
 16 17  1  0
 16 14  1  0
 18 29  2  0
 19 17  1  0
 19 24  1  0
 20 28  1  0
 20 30  1  0
 21 27  1  0
 21 23  1  0
 22 28  1  0
 23 22  1  0
 24 23  2  0
 25 26  1  0
 25 19  2  0
 26 21  2  0
 27 20  1  0
 28 18  1  0
 30 32  2  0
 31 30  1  0
 33 31  1  0
 34 43  2  0
 34 39  1  0
 35 31  1  0
 35 39  1  0
 36 35  1  0
 37 38  1  0
 37 36  1  0
 38 34  1  0
 39 40  2  0
 40 41  1  0
 42 41  2  0
 43 42  1  0
 44 18  1  0
 44 45  1  0
 44 54  1  0
 45 48  1  0
 46 50  1  0
 46 45  1  0
 47 46  2  0
 50 49  1  0
 52 50  1  0
 52 53  1  0
 52 51  1  0
 54 57  1  1
 54 55  1  0
 56 54  1  0
 59 58  1  0
 60 59  1  0
 61 66  1  0
 62 63  1  0
 62 61  1  0
 64 63  1  0
 64 71  1  0
 64 65  1  0
 66 60  1  0
 66 65  1  0
 67 60  2  0
 68 69  2  0
 69 70  1  0
 69 88  1  0
 70 73  1  0
 71 68  1  0
 71 72  1  0
 72 70  2  0
 73 74  1  0
 74 75  2  0
 76 79  1  0
 76 75  1  0
 77 76  2  0
 78 77  1  0
 78 73  2  0
 79 80  1  0
 80 81  1  0
 81 82  2  0
 83 82  1  0
 83 87  1  0
 84 83  2  0
 85 80  2  0
 85 84  1  0
 86 85  1  0
 88 89  1  0
 89 92  1  0
 89 91  1  0
 90 88  2  0
 93 94  1  0
 93 68  1  0
 95 93  1  0
 96  4  1  0
 96 99  1  0
 97 96  2  0
 98 99  1  0
M  ISO  4  16 101  17 101  59 100  60 100
M  END
>  <TORSDO>  (43) 
F 24

>  <SCORE>  (43) 
-12.299

>  <name>  (43) 
42

>  <ligand_id>  (43) 
42

>  <original_smiles>  (43) 
[H]C(=NC(=O)N1C([H])([H])C([H])([H])C([H])([H])C([H])(n2nc(-c3c([H])c([H])c(Oc4c([H])c([H])c(F)c([H])c4F)c([H])c3[H])c(C(=O)N([H])[H])c2N([H])[H])C1([H])[H])c1c([H])c(N=C(C([H])([H])[H])C([H])([H])C(=O)C([H])([H])Oc2c([H])c([H])c3c(c2[H])C([H])([H])N(C(=O)C([H])(N([H])C(=O)C([H])(N([H])C([H])([H])[H])C([H])([H])[H])C(C([H])([H])[H])(C([H])([H])[H])C([H])([H])[H])C([H])(C(=O)N([H])C2([H])c4c([H])c([H])c([H])c([H])c4C([H])([H])C([H])([H])C2([H])[H])C3([H])[H])c([H])c(N([H])[H])c1C(=O)C([H])([H])C([H])([H])[H]

>  <smiles>  (43) 
[H]C(=NC(=O)N1C([H])([H])C([H])([H])C([H])([H])C([H])(n2nc(-c3c([H])c([H])c(Oc4c([H])c([H])c(F)c([H])c4F)c([H])c3[H])c(C(=O)N([H])[H])c2N([H])[H])C1([H])[H])c1c([H])c(N=C(C([H])([H])[H])C([H])([H])C(=O)C([H])([H])Oc2c([H])c([H])c3c(c2[H])C([H])([H])N(C(=O)C([H])(N([H])C(=O)C([H])(N([H])C([H])([H])[H])C([H])([H])[H])C(C([H])([H])[H])(C([H])([H])[H])C([H])([H])[H])C([H])(C(=O)N([H])C2([H])c4c([H])c([H])c([H])c([H])c4C([H])([H])C([H])([H])C2([H])[H])C3([H])[H])c([H])c(N([H])[H])c1C(=O)C([H])([H])C([H])([H])[H]

$$$$
43:0:0
     RDKit          3D

 96104  0  0  1  0  0  0  0  0999 V2000
  -29.1130  -20.6140   20.7900 C   0  0  0  0  0  0  0  0  0  0  0  0
  -29.3570  -21.9030   20.4620 N   0  0  0  0  0  0  0  0  0  0  0  0
  -27.8880  -20.3100   21.2260 N   0  0  0  0  0  4  0  0  0  0  0  0
  -30.3040  -22.1380   20.1760 H   0  0  0  0  0  0  0  0  0  0  0  0
  -27.7000  -19.3770   21.5600 H   0  0  0  0  0  0  0  0  0  0  0  0
  -27.1400  -20.9810   21.2560 H   0  0  0  0  0  0  0  0  0  0  0  0
  -32.0900  -17.4820   20.7320 C   0  0  0  0  0  3  0  0  0  0  0  0
  -32.4780  -18.8320   20.8020 C   0  0  0  0  0  3  0  0  0  0  0  0
  -29.7570  -18.1690   20.6290 C   0  0  0  0  0  3  0  0  0  0  0  0
  -30.1360  -19.5410   20.7180 C   0  0  0  0  0  0  0  0  0  0  0  0
  -30.7240  -17.1250   20.6260 C   0  0  0  0  0  0  0  0  0  0  0  0
  -31.5130  -19.8570   20.7940 C   0  0  0  0  0  0  0  0  0  0  0  0
  -31.9320  -21.1440   20.8700 F   0  0  0  0  0  0  0  0  0  0  0  0
  -30.9640  -14.7030   20.0150 C   0  0  0  0  0  0  0  0  0  0  0  0
  -30.6250  -12.5020   18.9500 C   0  0  0  0  0  2  0  0  0  0  0  0
  -29.6360  -12.6490   17.7760 C   0  0  0  0  0  2  0  0  0  0  0  0
  -28.1840  -12.5050   18.2730 C   0  0  0  0  0  2  0  0  0  0  0  0
  -27.8860  -13.3860   19.5160 C   0  0  0  0  0  3  0  0  0  0  0  0
  -28.9890  -13.2320   20.5890 C   0  0  0  0  0  2  0  0  0  0  0  0
  -30.2830  -13.5260   19.9530 N   0  0  0  0  0  0  0  0  0  0  0  0
  -32.0640  -14.8480   19.4740 O   0  0  0  0  0  0  0  0  0  0  0  0
  -30.3010  -15.7510   20.5600 N   0  0  0  0  0  0  0  0  0  0  0  0
  -29.3610  -15.5490   20.8620 H   0  0  0  0  0  0  0  0  0  0  0  0
  -25.5360  -13.9950   20.3660 C   0  0  0  0  0  0  0  0  0  0  0  0
  -24.4810  -13.2230   20.7740 C   0  0  0  0  0  0  0  0  0  0  0  0
  -24.9250  -11.8690   20.6860 C   0  0  0  0  0  0  0  0  0  0  0  0
  -26.5580  -13.1100   20.0600 N   0  0  0  0  0  0  0  0  0  0  0  0
  -26.1970  -11.8250   20.3090 N   0  0  0  0  0  0  0  0  0  0  0  0
  -24.1970  -10.6090   20.8830 C   0  0  0  0  0  0  0  0  0  0  0  0
  -24.5970   -9.6690   21.8590 C   0  0  0  0  0  3  0  0  0  0  0  0
  -23.8700   -8.4730   22.0420 C   0  0  0  0  0  3  0  0  0  0  0  0
  -22.7280   -8.2090   21.2490 C   0  0  0  0  0  0  0  0  0  0  0  0
  -22.3480   -9.1360   20.2630 C   0  0  0  0  0  3  0  0  0  0  0  0
  -23.0760  -10.3250   20.0790 C   0  0  0  0  0  3  0  0  0  0  0  0
  -21.9760   -7.0630   21.3380 O   0  0  0  0  0  0  0  0  0  0  0  0
  -21.8090   -6.4030   22.5290 C   0  0  0  0  0  0  0  0  0  0  0  0
  -21.1850   -7.0140   23.6380 C   0  0  0  0  0  3  0  0  0  0  0  0
  -20.9710   -6.2760   24.8210 C   0  0  0  0  0  3  0  0  0  0  0  0
  -21.3710   -4.9290   24.8930 C   0  0  0  0  0  0  0  0  0  0  0  0
  -21.9890   -4.3180   23.7870 C   0  0  0  0  0  3  0  0  0  0  0  0
  -22.2040   -5.0520   22.6080 C   0  0  0  0  0  0  0  0  0  0  0  0
  -22.7800   -4.4520   21.5380 F   0  0  0  0  0  0  0  0  0  0  0  0
  -21.1600   -4.2180   26.0250 F   0  0  0  0  0  0  0  0  0  0  0  0
  -23.1050  -13.7070   21.1310 C   0  0  0  0  0  0  0  0  0  0  0  0
  -22.4080  -12.9870   22.0030 N   0  0  0  0  0  0  0  0  0  0  0  0
  -22.6560  -14.7570   20.6710 O   0  0  0  0  0  0  0  0  0  0  0  0
  -22.7850  -12.1360   22.3960 H   0  0  0  0  0  0  0  0  0  0  0  0
  -21.4870  -13.2910   22.2840 H   0  0  0  0  0  0  0  0  0  0  0  0
  -25.7050  -15.3670   20.2110 N   0  0  0  0  0  0  0  0  0  0  0  0
  -24.9430  -16.0210   20.3580 H   0  0  0  0  0  0  0  0  0  0  0  0
  -26.5240  -15.8020   19.8070 H   0  0  0  0  0  0  0  0  0  0  0  0
  -28.4450  -23.0730   20.6120 C   0  0  0  0  0  2  0  0  0  0  0  0
  -29.0690  -24.4510   20.2960 C   0  0  0  0  0  0  0  0  0  0  0  0
  -30.1070  -24.5420   19.6300 O   0  0  0  0  0  0  0  0  0  0  0  0
  -28.3500  -25.6870   20.8880 C   0  0  0  0  0  2  0  0  0  0  0  0
  -28.5540  -26.9140   20.1480 O   0  0  0  0  0  0  0  0  0  0  0  0
  -24.6160  -31.9630   23.2890 C   0  0  0  0  0  0  0  0  0  0  0  0
  -27.4110  -27.6840   20.1110 C   0  0  0  0  0  0  0  0  0  0  0  0
  -23.4740  -30.5960   21.5740 C   0  0  0  0  0  3  0  0  0  0  0  0
  -24.9900  -29.1460   20.1200 C   0  0  0  0  0  0  0  0  0  0  0  0
  -25.9960  -31.0170   21.4390 C   0  0  0  0  0  2  0  0  0  0  0  0
  -26.1260  -29.6730   20.7500 C   0  0  0  0  0  0  0  0  0  0  0  0
  -27.3440  -28.9500   20.7400 C   0  0  0  0  0  3  0  0  0  0  0  0
  -26.2630  -27.1800   19.4650 C   0  0  0  0  0  3  0  0  0  0  0  0
  -25.0540  -27.9010   19.4720 C   0  0  0  0  0  3  0  0  0  0  0  0
  -23.7250  -29.9740   20.1750 C   0  0  0  0  0  2  0  0  0  0  0  0
  -24.7130  -31.2050   22.1600 N   0  0  0  0  0  0  0  0  0  0  0  0
  -23.5190  -32.1910   23.8170 O   0  0  0  0  0  0  0  0  0  0  0  0
  -22.8270  -29.5260   22.4840 C   0  0  0  0  0  0  0  0  0  0  0  0
  -21.5100  -29.3210   22.3250 N   0  0  0  0  0  0  0  0  0  0  0  0
  -23.5080  -28.8870   23.2890 O   0  0  0  0  0  0  0  0  0  0  0  0
  -21.0210  -29.8910   21.6500 H   0  0  0  0  0  0  0  0  0  0  0  0
  -18.1500  -28.0480   22.7220 C   0  0  0  0  0  0  0  0  0  0  0  0
  -20.6990  -28.3380   23.0440 C   0  0  0  0  0  3  0  0  0  0  0  0
  -20.8350  -26.9340   22.4130 C   0  0  0  0  0  2  0  0  0  0  0  0
  -19.7550  -26.6340   21.3690 C   0  0  0  0  0  2  0  0  0  0  0  0
  -18.3610  -26.7300   21.9970 C   0  0  0  0  0  2  0  0  0  0  0  0
  -19.2490  -28.8110   23.2000 C   0  0  0  0  0  0  0  0  0  0  0  0
  -18.9980  -30.0470   23.8360 C   0  0  0  0  0  3  0  0  0  0  0  0
  -17.6820  -30.5180   24.0000 C   0  0  0  0  0  3  0  0  0  0  0  0
  -16.5980  -29.7510   23.5390 C   0  0  0  0  0  3  0  0  0  0  0  0
  -16.8330  -28.5180   22.9060 C   0  0  0  0  0  3  0  0  0  0  0  0
  -25.8760  -32.5990   23.9560 C   0  0  0  0  0  3  0  0  0  0  0  0
  -26.3490  -31.8290   25.2500 C   0  0  1  0  0  0  0  0  0  0  0  0
  -25.2160  -31.5700   26.2690 C   0  0  0  0  0  1  0  0  0  0  0  0
  -26.9700  -30.4630   24.8750 C   0  0  0  0  0  1  0  0  0  0  0  0
  -27.4580  -32.6380   25.9650 C   0  0  0  0  0  1  0  0  0  0  0  0
  -25.5520  -33.9960   24.2720 N   0  0  0  0  0  0  0  0  0  0  0  0
  -25.9070  -35.0470   23.5210 C   0  0  0  0  0  0  0  0  0  0  0  0
  -26.6140  -34.9420   22.5140 O   0  0  0  0  0  0  0  0  0  0  0  0
  -24.9290  -34.1510   25.0510 H   0  0  0  0  0  0  0  0  0  0  0  0
  -24.1900  -36.8340   23.0950 C   0  0  0  0  0  1  0  0  0  0  0  0
  -25.3990  -36.4350   23.9560 C   0  0  0  0  0  3  0  0  0  0  0  0
  -27.4920  -37.3320   24.8750 C   0  0  0  0  0  1  0  0  0  0  0  0
  -26.4330  -37.4900   23.8820 N   0  0  0  0  0  0  0  0  0  0  0  0
  -26.0180  -38.4100   24.0040 H   0  0  0  0  0  0  0  0  0  0  0  0
  1  3  2  0
  2 52  1  0
  2  1  1  0
  3  6  1  0
  3  5  1  0
  4  2  1  0
  7  8  1  0
  9 10  2  0
 10  1  1  0
 10 12  1  0
 11  9  1  0
 11  7  2  0
 12  8  2  0
 12 13  1  0
 14 22  1  0
 15 20  1  0
 16 17  1  0
 16 15  1  0
 18 17  1  0
 18 27  1  0
 18 19  1  0
 20 14  1  0
 20 19  1  0
 21 14  2  0
 22 11  1  0
 22 23  1  0
 24 25  2  0
 25 44  1  0
 26 25  1  0
 26 29  1  0
 27 28  1  0
 27 24  1  0
 28 26  2  0
 29 30  1  0
 30 31  2  0
 32 35  1  0
 32 31  1  0
 33 32  2  0
 34 33  1  0
 34 29  2  0
 35 36  1  0
 36 41  2  0
 36 37  1  0
 37 38  2  0
 38 39  1  0
 39 43  1  0
 40 39  2  0
 41 40  1  0
 42 41  1  0
 44 45  1  0
 45 48  1  0
 45 47  1  0
 46 44  2  0
 49 50  1  0
 49 24  1  0
 51 49  1  0
 53 52  1  0
 53 55  1  0
 54 53  2  0
 56 55  1  0
 57 68  2  0
 58 56  1  0
 58 63  1  0
 59 67  1  0
 59 69  1  0
 60 66  1  0
 60 62  1  0
 61 67  1  0
 62 61  1  0
 63 62  2  0
 64 65  1  0
 64 58  2  0
 65 60  2  0
 66 59  1  0
 67 57  1  0
 69 71  2  0
 70 69  1  0
 72 70  1  0
 73 82  2  0
 73 78  1  0
 74 70  1  0
 74 78  1  0
 75 74  1  0
 76 77  1  0
 76 75  1  0
 77 73  1  0
 78 79  2  0
 79 80  1  0
 81 80  2  0
 82 81  1  0
 83 57  1  0
 83 88  1  0
 83 84  1  0
 84 87  1  1
 84 85  1  0
 86 84  1  0
 88 91  1  0
 89 93  1  0
 89 88  1  0
 90 89  2  0
 93 92  1  0
 95 93  1  0
 95 96  1  0
 95 94  1  0
M  ISO  4  14 100  22 100  55 101  56 101
M  END
>  <TORSDO>  (44) 
F 20

>  <SCORE>  (44) 
-13.762

>  <name>  (44) 
43

>  <ligand_id>  (44) 
43

>  <original_smiles>  (44) 
[H]c1c([H])c([H])c2c(c1[H])C([H])([H])C([H])([H])C([H])([H])C2([H])N([H])C(=O)C1([H])N(C(=O)C([H])(N([H])C(=O)C([H])(N([H])C([H])([H])[H])C([H])([H])[H])C(C([H])([H])[H])(C([H])([H])[H])C([H])([H])[H])C([H])([H])c2c([H])c(OC([H])([H])C(=O)C([H])([H])N([H])C(c3c([H])c(N([H])C(=O)N4C([H])([H])C([H])([H])C([H])([H])C([H])(n5nc(-c6c([H])c([H])c(Oc7c([H])c([H])c(F)c([H])c7F)c([H])c6[H])c(C(=O)N([H])[H])c5N([H])[H])C4([H])[H])c([H])c([H])c3F)=[N+]([H])[H])c([H])c([H])c2C1([H])[H]

>  <smiles>  (44) 
[H]c1c([H])c([H])c2c(c1[H])C([H])([H])C([H])([H])C([H])([H])C2([H])N([H])C(=O)C1([H])N(C(=O)C([H])(N([H])C(=O)C([H])(N([H])C([H])([H])[H])C([H])([H])[H])C(C([H])([H])[H])(C([H])([H])[H])C([H])([H])[H])C([H])([H])c2c([H])c(OC([H])([H])C(=O)C([H])([H])N([H])C(c3c([H])c(N([H])C(=O)N4C([H])([H])C([H])([H])C([H])([H])C([H])(n5nc(-c6c([H])c([H])c(Oc7c([H])c([H])c(F)c([H])c7F)c([H])c6[H])c(C(=O)N([H])[H])c5N([H])[H])C4([H])[H])c([H])c([H])c3F)=[N+]([H])[H])c([H])c([H])c2C1([H])[H]

$$$$
44:0:0
     RDKit          3D

 96105  0  0  1  0  0  0  0  0999 V2000
  -31.2260  -18.9040   22.2150 C   0  0  0  0  0  3  0  0  0  0  0  0
  -29.1970  -18.4690   20.3840 C   0  0  0  0  0  3  0  0  0  0  0  0
  -30.5630  -20.0310   21.6720 C   0  0  0  0  0  0  0  0  0  0  0  0
  -29.4890  -19.8460   20.7610 C   0  0  0  0  0  0  0  0  0  0  0  0
  -30.9260  -17.5750   21.8400 C   0  0  0  0  0  0  0  0  0  0  0  0
  -29.9270  -17.3040   20.8670 C   0  0  0  0  0  0  0  0  0  0  0  0
  -30.9380  -21.3640   22.2300 C   0  0  0  0  0  0  0  0  0  0  0  0
  -28.3640  -23.6990   20.4090 C   0  0  0  0  0  0  0  0  0  0  0  0
  -28.5710  -21.0870   20.3310 C   0  0  0  0  0  2  0  0  0  0  0  0
  -31.2930  -22.5110   21.2710 C   0  0  0  0  0  2  0  0  0  0  0  0
  -30.5360  -22.5340   19.9300 C   0  0  0  0  0  2  0  0  0  0  0  0
  -31.6730  -16.4680   22.5710 C   0  0  0  0  0  1  0  0  0  0  0  0
  -29.0890  -22.5230   20.1540 N   0  0  0  0  0  0  0  0  0  0  0  0
  -31.0440  -21.5600   23.4440 O   0  0  0  0  0  0  0  0  0  0  0  0
  -27.5260  -23.6710   21.3150 O   0  0  0  0  0  0  0  0  0  0  0  0
  -30.3460  -14.8400   20.0490 C   0  0  0  0  0  0  0  0  0  0  0  0
  -30.1170  -12.6400   18.8860 C   0  0  0  0  0  2  0  0  0  0  0  0
  -29.0910  -12.7860   17.7410 C   0  0  0  0  0  2  0  0  0  0  0  0
  -27.6560  -12.5710   18.2650 C   0  0  0  0  0  2  0  0  0  0  0  0
  -27.3720  -13.3640   19.5680 C   0  0  0  0  0  3  0  0  0  0  0  0
  -28.5040  -13.1840   20.5960 C   0  0  0  0  0  2  0  0  0  0  0  0
  -29.7480  -13.6070   19.9430 N   0  0  0  0  0  0  0  0  0  0  0  0
  -31.4720  -15.0130   19.5680 O   0  0  0  0  0  0  0  0  0  0  0  0
  -29.5800  -15.8990   20.5210 N   0  0  0  0  0  0  0  0  0  0  0  0
  -28.6160  -15.6530   20.6930 H   0  0  0  0  0  0  0  0  0  0  0  0
  -25.0380  -13.8850   20.4810 C   0  0  0  0  0  0  0  0  0  0  0  0
  -24.0140  -13.0750   20.8980 C   0  0  0  0  0  0  0  0  0  0  0  0
  -24.5000  -11.7370   20.7890 C   0  0  0  0  0  0  0  0  0  0  0  0
  -26.0720  -13.0340   20.1370 N   0  0  0  0  0  0  0  0  0  0  0  0
  -25.7640  -11.7370   20.3840 N   0  0  0  0  0  0  0  0  0  0  0  0
  -23.8140  -10.4550   20.9920 C   0  0  0  0  0  0  0  0  0  0  0  0
  -24.3040   -9.4930   21.9020 C   0  0  0  0  0  3  0  0  0  0  0  0
  -23.6190   -8.2740   22.0920 C   0  0  0  0  0  3  0  0  0  0  0  0
  -22.4290   -8.0100   21.3720 C   0  0  0  0  0  0  0  0  0  0  0  0
  -21.9590   -8.9620   20.4510 C   0  0  0  0  0  3  0  0  0  0  0  0
  -22.6450  -10.1720   20.2600 C   0  0  0  0  0  3  0  0  0  0  0  0
  -21.7090   -6.8450   21.4700 O   0  0  0  0  0  0  0  0  0  0  0  0
  -21.6900   -6.1090   22.6270 C   0  0  0  0  0  0  0  0  0  0  0  0
  -21.2450   -6.6550   23.8500 C   0  0  0  0  0  3  0  0  0  0  0  0
  -21.1760   -5.8410   25.0000 C   0  0  0  0  0  3  0  0  0  0  0  0
  -21.5410   -4.4830   24.9240 C   0  0  0  0  0  0  0  0  0  0  0  0
  -21.9780   -3.9370   23.7050 C   0  0  0  0  0  3  0  0  0  0  0  0
  -22.0500   -4.7490   22.5590 C   0  0  0  0  0  0  0  0  0  0  0  0
  -22.4510   -4.2130   21.3820 F   0  0  0  0  0  0  0  0  0  0  0  0
  -21.4670   -3.6990   26.0270 F   0  0  0  0  0  0  0  0  0  0  0  0
  -22.6330  -13.5160   21.2810 C   0  0  0  0  0  0  0  0  0  0  0  0
  -21.9810  -12.7810   22.1760 N   0  0  0  0  0  0  0  0  0  0  0  0
  -22.1420  -14.5490   20.8250 O   0  0  0  0  0  0  0  0  0  0  0  0
  -22.3970  -11.9480   22.5670 H   0  0  0  0  0  0  0  0  0  0  0  0
  -21.0560  -13.0590   22.4720 H   0  0  0  0  0  0  0  0  0  0  0  0
  -25.1630  -15.2630   20.3470 N   0  0  0  0  0  0  0  0  0  0  0  0
  -24.3950  -15.8910   20.5530 H   0  0  0  0  0  0  0  0  0  0  0  0
  -25.9770  -15.7380   19.9780 H   0  0  0  0  0  0  0  0  0  0  0  0
  -29.1880  -25.0220   18.1970 C   0  0  0  0  0  1  0  0  0  0  0  0
  -28.3340  -25.0320   19.4810 C   0  0  0  0  0  3  0  0  0  0  0  0
  -28.3380  -26.4260   20.1010 O   0  0  0  0  0  0  0  0  0  0  0  0
  -24.6320  -31.9110   23.1860 C   0  0  0  0  0  0  0  0  0  0  0  0
  -27.2450  -27.3410   20.0240 C   0  0  0  0  0  0  0  0  0  0  0  0
  -23.4380  -30.5330   21.5280 C   0  0  0  0  0  3  0  0  0  0  0  0
  -24.8930  -29.0210   20.0610 C   0  0  0  0  0  0  0  0  0  0  0  0
  -25.9850  -30.8440   21.3550 C   0  0  0  0  0  2  0  0  0  0  0  0
  -26.0680  -29.4730   20.6730 C   0  0  0  0  0  0  0  0  0  0  0  0
  -27.2400  -28.6420   20.6530 C   0  0  0  0  0  3  0  0  0  0  0  0
  -26.0440  -26.9890   19.3600 C   0  0  0  0  0  3  0  0  0  0  0  0
  -24.8880  -27.7910   19.3940 C   0  0  0  0  0  3  0  0  0  0  0  0
  -23.6570  -29.8990   20.1330 C   0  0  0  0  0  2  0  0  0  0  0  0
  -24.7050  -31.1150   22.0790 N   0  0  0  0  0  0  0  0  0  0  0  0
  -23.5490  -32.1740   23.7270 O   0  0  0  0  0  0  0  0  0  0  0  0
  -22.7850  -29.4920   22.4700 C   0  0  0  0  0  0  0  0  0  0  0  0
  -21.4590  -29.3110   22.3530 N   0  0  0  0  0  0  0  0  0  0  0  0
  -23.4710  -28.8590   23.2750 O   0  0  0  0  0  0  0  0  0  0  0  0
  -20.9600  -29.8780   21.6830 H   0  0  0  0  0  0  0  0  0  0  0  0
  -18.0910  -28.0780   22.8650 C   0  0  0  0  0  0  0  0  0  0  0  0
  -20.6510  -28.3510   23.1130 C   0  0  0  0  0  3  0  0  0  0  0  0
  -20.7560  -26.9290   22.5150 C   0  0  0  0  0  2  0  0  0  0  0  0
  -19.6450  -26.6160   21.5060 C   0  0  0  0  0  2  0  0  0  0  0  0
  -18.2680  -26.7440   22.1620 C   0  0  0  0  0  2  0  0  0  0  0  0
  -19.2070  -28.8410   23.2980 C   0  0  0  0  0  0  0  0  0  0  0  0
  -18.9840  -30.0910   23.9170 C   0  0  0  0  0  3  0  0  0  0  0  0
  -17.6760  -30.5760   24.1050 C   0  0  0  0  0  3  0  0  0  0  0  0
  -16.5750  -29.8110   23.6850 C   0  0  0  0  0  3  0  0  0  0  0  0
  -16.7820  -28.5640   23.0700 C   0  0  0  0  0  3  0  0  0  0  0  0
  -25.9120  -32.5500   23.8130 C   0  0  0  0  0  3  0  0  0  0  0  0
  -25.5920  -33.9440   24.1540 N   0  0  0  0  0  0  0  0  0  0  0  0
  -25.9160  -35.0040   23.4040 C   0  0  0  0  0  0  0  0  0  0  0  0
  -26.5800  -34.9110   22.3690 O   0  0  0  0  0  0  0  0  0  0  0  0
  -25.0050  -34.0890   24.9610 H   0  0  0  0  0  0  0  0  0  0  0  0
  -24.1760  -36.7910   23.0680 C   0  0  0  0  0  1  0  0  0  0  0  0
  -25.4210  -36.3860   23.8720 C   0  0  0  0  0  3  0  0  0  0  0  0
  -27.5490  -37.2780   24.7090 C   0  0  0  0  0  1  0  0  0  0  0  0
  -26.4480  -37.4450   23.7660 N   0  0  0  0  0  0  0  0  0  0  0  0
  -26.0360  -38.3620   23.9240 H   0  0  0  0  0  0  0  0  0  0  0  0
  -26.4260  -31.7760   25.0880 C   0  0  1  0  0  0  0  0  0  0  0  0
  -25.3310  -31.5230   26.1500 C   0  0  0  0  0  1  0  0  0  0  0  0
  -27.0240  -30.4070   24.6960 C   0  0  0  0  0  1  0  0  0  0  0  0
  -27.5680  -32.5770   25.7590 C   0  0  0  0  0  1  0  0  0  0  0  0
  2  4  2  0
  2  6  1  0
  3  1  2  0
  3  7  1  0
  4  3  1  0
  5  1  1  0
  5 12  1  0
  6  5  2  0
  7 14  2  0
  8 15  2  0
  9  4  1  0
 10  7  1  0
 11 13  1  0
 11 10  1  0
 13  9  1  0
 13  8  1  0
 16 24  1  0
 17 22  1  0
 18 19  1  0
 18 17  1  0
 20 19  1  0
 20 29  1  0
 20 21  1  0
 22 16  1  0
 22 21  1  0
 23 16  2  0
 24 25  1  0
 24  6  1  0
 26 27  2  0
 27 46  1  0
 28 27  1  0
 28 31  1  0
 29 30  1  0
 29 26  1  0
 30 28  2  0
 31 32  1  0
 32 33  2  0
 34 37  1  0
 34 33  1  0
 35 34  2  0
 36 35  1  0
 36 31  2  0
 37 38  1  0
 38 39  1  0
 39 40  2  0
 41 40  1  0
 41 45  1  0
 42 41  2  0
 43 38  2  0
 43 42  1  0
 44 43  1  0
 46 47  1  0
 47 50  1  0
 47 49  1  0
 48 46  2  0
 51 26  1  0
 51 52  1  0
 53 51  1  0
 55 54  1  0
 55 56  1  0
 55  8  1  0
 57 68  2  0
 58 56  1  0
 58 63  1  0
 59 67  1  0
 59 69  1  0
 60 66  1  0
 60 62  1  0
 61 67  1  0
 62 61  1  0
 63 62  2  0
 64 65  1  0
 64 58  2  0
 65 60  2  0
 66 59  1  0
 67 57  1  0
 69 71  2  0
 70 69  1  0
 72 70  1  0
 73 82  2  0
 73 78  1  0
 74 70  1  0
 74 78  1  0
 75 74  1  0
 76 77  1  0
 76 75  1  0
 77 73  1  0
 78 79  2  0
 79 80  1  0
 81 80  2  0
 82 81  1  0
 83 57  1  0
 83 84  1  0
 83 93  1  0
 84 87  1  0
 85 89  1  0
 85 84  1  0
 86 85  2  0
 89 88  1  0
 91 89  1  0
 91 92  1  0
 91 90  1  0
 93 96  1  1
 93 94  1  0
 95 93  1  0
M  ISO  4  16 100  24 100  55 101  56 101
M  END
>  <TORSDO>  (45) 
F 17

>  <SCORE>  (45) 
-14.271

>  <name>  (45) 
44

>  <ligand_id>  (45) 
44

>  <original_smiles>  (45) 
[H]c1c([H])c([H])c2c(c1[H])C([H])([H])C([H])([H])C([H])([H])C2([H])N([H])C(=O)C1([H])N(C(=O)C([H])(N([H])C(=O)C([H])(N([H])C([H])([H])[H])C([H])([H])[H])C(C([H])([H])[H])(C([H])([H])[H])C([H])([H])[H])C([H])([H])c2c([H])c(OC([H])(C(=O)N3C([H])([H])c4c([H])c(N([H])C(=O)N5C([H])([H])C([H])([H])C([H])([H])C([H])(n6nc(-c7c([H])c([H])c(Oc8c([H])c([H])c(F)c([H])c8F)c([H])c7[H])c(C(=O)N([H])[H])c6N([H])[H])C5([H])[H])c(C([H])([H])[H])c([H])c4C(=O)C([H])([H])C3([H])[H])C([H])([H])[H])c([H])c([H])c2C1([H])[H]

>  <smiles>  (45) 
[H]c1c([H])c([H])c2c(c1[H])C([H])([H])C([H])([H])C([H])([H])C2([H])N([H])C(=O)C1([H])N(C(=O)C([H])(N([H])C(=O)C([H])(N([H])C([H])([H])[H])C([H])([H])[H])C(C([H])([H])[H])(C([H])([H])[H])C([H])([H])[H])C([H])([H])c2c([H])c(OC([H])(C(=O)N3C([H])([H])c4c([H])c(N([H])C(=O)N5C([H])([H])C([H])([H])C([H])([H])C([H])(n6nc(-c7c([H])c([H])c(Oc8c([H])c([H])c(F)c([H])c8F)c([H])c7[H])c(C(=O)N([H])[H])c6N([H])[H])C5([H])[H])c(C([H])([H])[H])c([H])c4C(=O)C([H])([H])C3([H])[H])C([H])([H])[H])c([H])c([H])c2C1([H])[H]

$$$$
45:0:0
     RDKit          3D

 96105  0  0  1  0  0  0  0  0999 V2000
  -28.7850  -19.3020   21.0440 C   0  0  0  0  0  3  0  0  0  0  0  0
  -28.8280  -17.8810   21.0550 C   0  0  0  0  0  3  0  0  0  0  0  0
  -30.7990  -17.9190   19.6740 C   0  0  0  0  0  3  0  0  0  0  0  0
  -29.7440  -20.0790   20.3490 C   0  0  0  0  0  0  0  0  0  0  0  0
  -30.7610  -19.3570   19.6420 C   0  0  0  0  0  0  0  0  0  0  0  0
  -29.8430  -17.1450   20.3930 C   0  0  0  0  0  0  0  0  0  0  0  0
  -30.5580  -14.6640   19.9870 C   0  0  0  0  0  0  0  0  0  0  0  0
  -30.2760  -12.4280   18.9250 C   0  0  0  0  0  2  0  0  0  0  0  0
  -29.2540  -12.5740   17.7730 C   0  0  0  0  0  2  0  0  0  0  0  0
  -27.8120  -12.4100   18.2950 C   0  0  0  0  0  2  0  0  0  0  0  0
  -27.5370  -13.2630   19.5610 C   0  0  0  0  0  3  0  0  0  0  0  0
  -28.6670  -13.0990   20.6050 C   0  0  0  0  0  2  0  0  0  0  0  0
  -29.9400  -13.4390   19.9480 N   0  0  0  0  0  0  0  0  0  0  0  0
  -31.6720  -14.8410   19.4860 O   0  0  0  0  0  0  0  0  0  0  0  0
  -29.7970  -15.6850   20.4920 N   0  0  0  0  0  0  0  0  0  0  0  0
  -28.9650  -15.3310   20.9380 H   0  0  0  0  0  0  0  0  0  0  0  0
  -25.2000  -13.8620   20.4460 C   0  0  0  0  0  0  0  0  0  0  0  0
  -24.1500  -13.0890   20.8630 C   0  0  0  0  0  0  0  0  0  0  0  0
  -24.5930  -11.7340   20.7610 C   0  0  0  0  0  0  0  0  0  0  0  0
  -26.2180  -12.9800   20.1230 N   0  0  0  0  0  0  0  0  0  0  0  0
  -25.8600  -11.6920   20.3700 N   0  0  0  0  0  0  0  0  0  0  0  0
  -23.8660  -10.4730   20.9590 C   0  0  0  0  0  0  0  0  0  0  0  0
  -24.3150   -9.4960   21.8720 C   0  0  0  0  0  3  0  0  0  0  0  0
  -23.5880   -8.3000   22.0580 C   0  0  0  0  0  3  0  0  0  0  0  0
  -22.3960   -8.0730   21.3270 C   0  0  0  0  0  0  0  0  0  0  0  0
  -21.9660   -9.0410   20.4030 C   0  0  0  0  0  3  0  0  0  0  0  0
  -22.6940  -10.2280   20.2170 C   0  0  0  0  0  3  0  0  0  0  0  0
  -21.6380   -6.9310   21.4240 O   0  0  0  0  0  0  0  0  0  0  0  0
  -21.5630   -6.2130   22.5910 C   0  0  0  0  0  0  0  0  0  0  0  0
  -21.0660   -6.7810   23.7850 C   0  0  0  0  0  3  0  0  0  0  0  0
  -20.9430   -5.9870   24.9430 C   0  0  0  0  0  3  0  0  0  0  0  0
  -21.3060   -4.6280   24.9070 C   0  0  0  0  0  0  0  0  0  0  0  0
  -21.7960   -4.0600   23.7170 C   0  0  0  0  0  3  0  0  0  0  0  0
  -21.9210   -4.8510   22.5620 C   0  0  0  0  0  0  0  0  0  0  0  0
  -22.3740   -4.2940   21.4120 F   0  0  0  0  0  0  0  0  0  0  0  0
  -21.1810   -3.8620   26.0170 F   0  0  0  0  0  0  0  0  0  0  0  0
  -22.7790  -13.5710   21.2400 C   0  0  0  0  0  0  0  0  0  0  0  0
  -22.1020  -12.8600   22.1360 N   0  0  0  0  0  0  0  0  0  0  0  0
  -22.3180  -14.6130   20.7790 O   0  0  0  0  0  0  0  0  0  0  0  0
  -22.4840  -12.0130   22.5330 H   0  0  0  0  0  0  0  0  0  0  0  0
  -21.1860  -13.1690   22.4350 H   0  0  0  0  0  0  0  0  0  0  0  0
  -25.3690  -15.2360   20.2900 N   0  0  0  0  0  0  0  0  0  0  0  0
  -24.6050  -15.8900   20.4200 H   0  0  0  0  0  0  0  0  0  0  0  0
  -26.1890  -15.6640   19.8790 H   0  0  0  0  0  0  0  0  0  0  0  0
  -29.0750  -22.5550   19.9060 C   0  0  0  0  0  3  0  0  0  0  0  0
  -29.7810  -21.5870   20.5740 C   0  0  0  0  0  0  0  0  0  0  0  0
  -29.1420  -24.0360   20.2890 C   0  0  0  0  0  0  0  0  0  0  0  0
  -30.6290  -22.0810   21.7360 C   0  0  0  0  0  2  0  0  0  0  0  0
  -31.1120  -23.5350   21.5140 C   0  0  0  0  0  2  0  0  0  0  0  0
  -30.0580  -24.4540   21.0800 N   0  0  0  0  0  0  0  0  0  0  0  0
  -28.0490  -25.0430   19.7660 C   0  0  0  0  0  2  0  0  0  0  0  0
  -28.2500  -26.4990   19.9850 O   0  0  0  0  0  0  0  0  0  0  0  0
  -24.5140  -31.7940   23.1410 C   0  0  0  0  0  0  0  0  0  0  0  0
  -27.1240  -27.3370   19.9400 C   0  0  0  0  0  0  0  0  0  0  0  0
  -23.2960  -30.4320   21.4750 C   0  0  0  0  0  3  0  0  0  0  0  0
  -24.7440  -28.9330   19.9870 C   0  0  0  0  0  0  0  0  0  0  0  0
  -25.8310  -30.7740   21.2730 C   0  0  0  0  0  2  0  0  0  0  0  0
  -25.9140  -29.4140   20.5870 C   0  0  0  0  0  0  0  0  0  0  0  0
  -27.1060  -28.6280   20.5570 C   0  0  0  0  0  3  0  0  0  0  0  0
  -25.9290  -26.9140   19.3070 C   0  0  0  0  0  3  0  0  0  0  0  0
  -24.7530  -27.6890   19.3350 C   0  0  0  0  0  3  0  0  0  0  0  0
  -23.5000  -29.7960   20.0740 C   0  0  0  0  0  2  0  0  0  0  0  0
  -24.5650  -31.0140   22.0200 N   0  0  0  0  0  0  0  0  0  0  0  0
  -23.4370  -32.0510   23.6970 O   0  0  0  0  0  0  0  0  0  0  0  0
  -22.6520  -29.3850   22.4160 C   0  0  0  0  0  0  0  0  0  0  0  0
  -21.3300  -29.1860   22.2800 N   0  0  0  0  0  0  0  0  0  0  0  0
  -23.3400  -28.7540   23.2230 O   0  0  0  0  0  0  0  0  0  0  0  0
  -20.8320  -29.7460   21.6030 H   0  0  0  0  0  0  0  0  0  0  0  0
  -17.9770  -27.9090   22.7310 C   0  0  0  0  0  0  0  0  0  0  0  0
  -20.5260  -28.2190   23.0300 C   0  0  0  0  0  3  0  0  0  0  0  0
  -20.6660  -26.7990   22.4370 C   0  0  0  0  0  2  0  0  0  0  0  0
  -19.5820  -26.4660   21.4070 C   0  0  0  0  0  2  0  0  0  0  0  0
  -18.1900  -26.5720   22.0380 C   0  0  0  0  0  2  0  0  0  0  0  0
  -19.0750  -28.6890   23.1810 C   0  0  0  0  0  0  0  0  0  0  0  0
  -18.8220  -29.9390   23.7870 C   0  0  0  0  0  3  0  0  0  0  0  0
  -17.5050  -30.4090   23.9490 C   0  0  0  0  0  3  0  0  0  0  0  0
  -16.4220  -29.6250   23.5150 C   0  0  0  0  0  3  0  0  0  0  0  0
  -16.6590  -28.3780   22.9100 C   0  0  0  0  0  3  0  0  0  0  0  0
  -25.8040  -32.4110   23.7660 C   0  0  0  0  0  3  0  0  0  0  0  0
  -26.3150  -31.6310   25.0390 C   0  0  1  0  0  0  0  0  0  0  0  0
  -25.2180  -31.3930   26.1050 C   0  0  0  0  0  1  0  0  0  0  0  0
  -26.8940  -30.2530   24.6380 C   0  0  0  0  0  1  0  0  0  0  0  0
  -27.4710  -32.4140   25.7080 C   0  0  0  0  0  1  0  0  0  0  0  0
  -25.5060  -33.8080   24.1070 N   0  0  0  0  0  0  0  0  0  0  0  0
  -25.8260  -34.8620   23.3450 C   0  0  0  0  0  0  0  0  0  0  0  0
  -26.4780  -34.7610   22.3020 O   0  0  0  0  0  0  0  0  0  0  0  0
  -24.9300  -33.9590   24.9220 H   0  0  0  0  0  0  0  0  0  0  0  0
  -24.1040  -36.6660   23.0210 C   0  0  0  0  0  1  0  0  0  0  0  0
  -25.3520  -36.2510   23.8160 C   0  0  0  0  0  3  0  0  0  0  0  0
  -27.4930  -37.1350   24.6280 C   0  0  0  0  0  1  0  0  0  0  0  0
  -26.3860  -37.3010   23.6930 N   0  0  0  0  0  0  0  0  0  0  0  0
  -25.9810  -38.2220   23.8400 H   0  0  0  0  0  0  0  0  0  0  0  0
  -31.8380  -20.1180   18.8610 C   0  0  1  0  0  0  0  0  0  0  0  0
  -32.5660  -19.3060   18.0940 F   0  0  0  0  0  0  0  0  0  0  0  0
  -31.2800  -21.0310   18.0650 F   0  0  0  0  0  0  0  0  0  0  0  0
  -32.6720  -20.7380   19.6970 F   0  0  0  0  0  0  0  0  0  0  0  0
  1  2  1  0
  3  6  1  0
  4 46  1  0
  4  1  2  0
  5  3  2  0
  5  4  1  0
  6 15  1  0
  6  2  2  0
  7 15  1  0
  8 13  1  0
  9 10  1  0
  9  8  1  0
 11 10  1  0
 11 20  1  0
 11 12  1  0
 13  7  1  0
 13 12  1  0
 14  7  2  0
 15 16  1  0
 17 18  2  0
 18 37  1  0
 19 18  1  0
 19 22  1  0
 20 21  1  0
 20 17  1  0
 21 19  2  0
 22 23  1  0
 23 24  2  0
 25 28  1  0
 25 24  1  0
 26 25  2  0
 27 26  1  0
 27 22  2  0
 28 29  1  0
 29 30  1  0
 30 31  2  0
 32 31  1  0
 32 36  1  0
 33 32  2  0
 34 29  2  0
 34 33  1  0
 35 34  1  0
 37 38  1  0
 38 41  1  0
 38 40  1  0
 39 37  2  0
 42 43  1  0
 42 17  1  0
 44 42  1  0
 45 47  1  0
 45 46  2  0
 46 48  1  0
 47 50  2  0
 49 48  1  0
 50 49  1  0
 51 52  1  0
 51 47  1  0
 53 64  2  0
 54 52  1  0
 54 59  1  0
 55 63  1  0
 55 65  1  0
 56 62  1  0
 56 58  1  0
 57 63  1  0
 58 57  1  0
 59 58  2  0
 60 61  1  0
 60 54  2  0
 61 56  2  0
 62 55  1  0
 63 53  1  0
 65 67  2  0
 66 65  1  0
 68 66  1  0
 69 78  2  0
 69 74  1  0
 70 66  1  0
 70 74  1  0
 71 70  1  0
 72 73  1  0
 72 71  1  0
 73 69  1  0
 74 75  2  0
 75 76  1  0
 77 76  2  0
 78 77  1  0
 79 53  1  0
 79 84  1  0
 79 80  1  0
 80 83  1  1
 80 81  1  0
 82 80  1  0
 84 87  1  0
 85 89  1  0
 85 84  1  0
 86 85  2  0
 89 88  1  0
 91 89  1  0
 91 92  1  0
 91 90  1  0
 93  5  1  0
 93 96  1  1
 94 93  1  0
 95 93  1  0
M  ISO  4   7 100  15 100  51 101  52 101
M  END
>  <TORSDO>  (46) 
F 19

>  <SCORE>  (46) 
-13.514

>  <name>  (46) 
45

>  <ligand_id>  (46) 
45

>  <original_smiles>  (46) 
[H]C1=C(c2c([H])c([H])c(N([H])C(=O)N3C([H])([H])C([H])([H])C([H])([H])C([H])(n4nc(-c5c([H])c([H])c(Oc6c([H])c([H])c(F)c([H])c6F)c([H])c5[H])c(C(=O)N([H])[H])c4N([H])[H])C3([H])[H])c([H])c2C(F)(F)F)C([H])([H])C([H])([H])N=C1C([H])([H])Oc1c([H])c([H])c2c(c1[H])C([H])([H])N(C(=O)C([H])(N([H])C(=O)C([H])(N([H])C([H])([H])[H])C([H])([H])[H])C(C([H])([H])[H])(C([H])([H])[H])C([H])([H])[H])C([H])(C(=O)N([H])C1([H])c3c([H])c([H])c([H])c([H])c3C([H])([H])C([H])([H])C1([H])[H])C2([H])[H]

>  <smiles>  (46) 
[H]C1=C(c2c([H])c([H])c(N([H])C(=O)N3C([H])([H])C([H])([H])C([H])([H])C([H])(n4nc(-c5c([H])c([H])c(Oc6c([H])c([H])c(F)c([H])c6F)c([H])c5[H])c(C(=O)N([H])[H])c4N([H])[H])C3([H])[H])c([H])c2C(F)(F)F)C([H])([H])C([H])([H])N=C1C([H])([H])Oc1c([H])c([H])c2c(c1[H])C([H])([H])N(C(=O)C([H])(N([H])C(=O)C([H])(N([H])C([H])([H])[H])C([H])([H])[H])C(C([H])([H])[H])(C([H])([H])[H])C([H])([H])[H])C([H])(C(=O)N([H])C1([H])c3c([H])c([H])c([H])c([H])c3C([H])([H])C([H])([H])C1([H])[H])C2([H])[H]

$$$$
46:0:0
     RDKit          3D

101110  0  0  1  0  0  0  0  0999 V2000
  -30.3090  -17.6860   18.0740 C   0  0  0  0  0  3  0  0  0  0  0  0
  -30.4670  -16.4630   18.7360 C   0  0  0  0  0  3  0  0  0  0  0  0
  -29.8940  -17.5690   20.8260 C   0  0  0  0  0  3  0  0  0  0  0  0
  -29.9150  -18.8620   18.7560 C   0  0  0  0  0  0  0  0  0  0  0  0
  -30.2330  -16.3670   20.1200 C   0  0  0  0  0  0  0  0  0  0  0  0
  -29.7590  -18.8410   20.1750 C   0  0  0  0  0  0  0  0  0  0  0  0
  -30.9290  -13.9830   20.3070 C   0  0  0  0  0  0  0  0  0  0  0  0
  -30.4210  -12.0500   18.8870 C   0  0  0  0  0  2  0  0  0  0  0  0
  -29.4720  -12.5540   17.7770 C   0  0  0  0  0  2  0  0  0  0  0  0
  -28.0080  -12.4900   18.2520 C   0  0  0  0  0  2  0  0  0  0  0  0
  -27.7930  -13.1220   19.6510 C   0  0  0  0  0  3  0  0  0  0  0  0
  -28.8510  -12.6130   20.6560 C   0  0  0  0  0  2  0  0  0  0  0  0
  -30.1780  -12.8710   20.0820 N   0  0  0  0  0  0  0  0  0  0  0  0
  -32.0990  -14.0740   19.9260 O   0  0  0  0  0  0  0  0  0  0  0  0
  -30.2400  -15.0660   20.7500 N   0  0  0  0  0  0  0  0  0  0  0  0
  -29.3830  -14.8370   21.2370 H   0  0  0  0  0  0  0  0  0  0  0  0
  -25.4220  -13.8150   20.3620 C   0  0  0  0  0  0  0  0  0  0  0  0
  -24.3310  -13.0790   20.7500 C   0  0  0  0  0  0  0  0  0  0  0  0
  -24.7480  -11.7120   20.7360 C   0  0  0  0  0  0  0  0  0  0  0  0
  -26.4320  -12.8930   20.1350 N   0  0  0  0  0  0  0  0  0  0  0  0
  -26.0330  -11.6250   20.4200 N   0  0  0  0  0  0  0  0  0  0  0  0
  -23.9880  -10.4750   20.9560 C   0  0  0  0  0  0  0  0  0  0  0  0
  -24.3840   -9.5230   21.9200 C   0  0  0  0  0  3  0  0  0  0  0  0
  -23.6250   -8.3510   22.1220 C   0  0  0  0  0  3  0  0  0  0  0  0
  -22.4580   -8.1210   21.3580 C   0  0  0  0  0  0  0  0  0  0  0  0
  -22.0820   -9.0600   20.3810 C   0  0  0  0  0  3  0  0  0  0  0  0
  -22.8410  -10.2230   20.1780 C   0  0  0  0  0  3  0  0  0  0  0  0
  -21.6690   -7.0010   21.4700 O   0  0  0  0  0  0  0  0  0  0  0  0
  -21.5710   -6.3020   22.6470 C   0  0  0  0  0  0  0  0  0  0  0  0
  -21.1280   -6.9070   23.8430 C   0  0  0  0  0  3  0  0  0  0  0  0
  -20.9870   -6.1350   25.0130 C   0  0  0  0  0  3  0  0  0  0  0  0
  -21.2740   -4.7560   24.9870 C   0  0  0  0  0  0  0  0  0  0  0  0
  -21.7040   -4.1490   23.7940 C   0  0  0  0  0  3  0  0  0  0  0  0
  -21.8550   -4.9210   22.6290 C   0  0  0  0  0  0  0  0  0  0  0  0
  -22.2550   -4.3280   21.4780 F   0  0  0  0  0  0  0  0  0  0  0  0
  -21.1280   -4.0130   26.1070 F   0  0  0  0  0  0  0  0  0  0  0  0
  -22.9540  -13.6010   21.0350 C   0  0  0  0  0  0  0  0  0  0  0  0
  -22.2160  -12.9340   21.9150 N   0  0  0  0  0  0  0  0  0  0  0  0
  -22.5440  -14.6360   20.5090 O   0  0  0  0  0  0  0  0  0  0  0  0
  -22.5630  -12.0940   22.3600 H   0  0  0  0  0  0  0  0  0  0  0  0
  -21.2950  -13.2660   22.1680 H   0  0  0  0  0  0  0  0  0  0  0  0
  -25.6400  -15.1720   20.1610 N   0  0  0  0  0  0  0  0  0  0  0  0
  -24.9040  -15.8680   20.2430 H   0  0  0  0  0  0  0  0  0  0  0  0
  -26.5070  -15.5520   19.8000 H   0  0  0  0  0  0  0  0  0  0  0  0
  -27.9290  -21.7720   17.0330 C   0  0  0  0  0  2  0  0  0  0  0  0
  -29.0960  -22.7270   16.6830 C   0  0  0  0  0  2  0  0  0  0  0  0
  -28.2960  -20.8050   18.1720 C   0  0  0  0  0  2  0  0  0  0  0  0
  -30.4520  -22.0140   16.5260 C   0  0  0  0  0  2  0  0  0  0  0  0
  -29.6210  -20.0760   17.8650 C   0  0  0  0  0  3  0  0  0  0  0  0
  -30.7590  -21.1050   17.7310 C   0  0  0  0  0  3  0  0  0  0  0  0
  -32.1750  -20.5180   17.6580 C   0  0  0  0  0  1  0  0  0  0  0  0
  -29.3720  -20.0140   20.8870 N   0  0  0  0  0  0  0  0  0  0  0  0
  -28.6050  -19.8540   21.5330 H   0  0  0  0  0  0  0  0  0  0  0  0
  -30.3790  -20.9160   21.5030 C   0  0  0  0  0  2  0  0  0  0  0  0
  -29.8590  -22.3150   22.0730 C   0  0  2  0  0  0  0  0  0  0  0  0
  -30.4360  -22.4410   23.2720 F   0  0  0  0  0  0  0  0  0  0  0  0
  -28.5470  -22.2410   22.3110 F   0  0  0  0  0  0  0  0  0  0  0  0
  -30.1500  -23.6490   21.2880 C   0  0  0  0  0  0  0  0  0  0  0  0
  -30.5670  -23.6570   20.1230 O   0  0  0  0  0  0  0  0  0  0  0  0
  -29.8530  -24.9780   22.0470 C   0  0  0  0  0  2  0  0  0  0  0  0
  -30.0350  -26.2050   21.2920 O   0  0  0  0  0  0  0  0  0  0  0  0
  -25.3890  -31.2490   23.4280 C   0  0  0  0  0  0  0  0  0  0  0  0
  -28.8600  -26.8970   21.0670 C   0  0  0  0  0  0  0  0  0  0  0  0
  -24.5950  -29.6540   21.7180 C   0  0  0  0  0  3  0  0  0  0  0  0
  -26.3860  -28.1910   20.6350 C   0  0  0  0  0  0  0  0  0  0  0  0
  -27.0860  -30.2300   21.9020 C   0  0  0  0  0  2  0  0  0  0  0  0
  -27.3930  -28.8500   21.3500 C   0  0  0  0  0  0  0  0  0  0  0  0
  -28.6460  -28.2150   21.5500 C   0  0  0  0  0  3  0  0  0  0  0  0
  -27.8390  -26.2620   20.3410 C   0  0  0  0  0  3  0  0  0  0  0  0
  -26.6030  -26.9010   20.1240 C   0  0  0  0  0  3  0  0  0  0  0  0
  -25.0870  -28.9360   20.4340 C   0  0  0  0  0  2  0  0  0  0  0  0
  -25.6980  -30.3960   22.4100 N   0  0  0  0  0  0  0  0  0  0  0  0
  -24.2120  -31.4510   23.7620 O   0  0  0  0  0  0  0  0  0  0  0  0
  -23.8810  -28.6260   22.6290 C   0  0  0  0  0  0  0  0  0  0  0  0
  -22.6090  -28.3250   22.3180 N   0  0  0  0  0  0  0  0  0  0  0  0
  -24.4740  -28.0990   23.5730 O   0  0  0  0  0  0  0  0  0  0  0  0
  -22.1890  -28.8100   21.5380 H   0  0  0  0  0  0  0  0  0  0  0  0
  -19.2820  -26.9120   22.4020 C   0  0  0  0  0  0  0  0  0  0  0  0
  -21.7540  -27.3590   23.0050 C   0  0  0  0  0  3  0  0  0  0  0  0
  -22.0290  -25.9230   22.5050 C   0  0  0  0  0  2  0  0  0  0  0  0
  -21.1000  -25.4900   21.3660 C   0  0  0  0  0  2  0  0  0  0  0  0
  -19.6360  -25.5550   21.8150 C   0  0  0  0  0  2  0  0  0  0  0  0
  -20.2770  -27.7640   22.9400 C   0  0  0  0  0  0  0  0  0  0  0  0
  -19.9010  -29.0290   23.4460 C   0  0  0  0  0  3  0  0  0  0  0  0
  -18.5540  -29.4410   23.4170 C   0  0  0  0  0  3  0  0  0  0  0  0
  -17.5700  -28.5850   22.8980 C   0  0  0  0  0  3  0  0  0  0  0  0
  -17.9300  -27.3200   22.3990 C   0  0  0  0  0  3  0  0  0  0  0  0
  -26.4950  -32.0320   24.2010 C   0  0  0  0  0  3  0  0  0  0  0  0
  -26.0180  -33.4110   24.3830 N   0  0  0  0  0  0  0  0  0  0  0  0
  -26.3630  -34.4430   23.5960 C   0  0  0  0  0  0  0  0  0  0  0  0
  -27.1800  -34.3430   22.6780 O   0  0  0  0  0  0  0  0  0  0  0  0
  -25.3110  -33.5670   25.0870 H   0  0  0  0  0  0  0  0  0  0  0  0
  -24.5450  -36.0240   22.8850 C   0  0  0  0  0  1  0  0  0  0  0  0
  -25.6940  -35.8030   23.8780 C   0  0  0  0  0  3  0  0  0  0  0  0
  -27.6060  -36.9520   24.9080 C   0  0  0  0  0  1  0  0  0  0  0  0
  -26.6350  -36.9440   23.8170 N   0  0  0  0  0  0  0  0  0  0  0  0
  -26.1300  -37.8250   23.8320 H   0  0  0  0  0  0  0  0  0  0  0  0
  -26.8660  -31.3850   25.5910 C   0  0  1  0  0  0  0  0  0  0  0  0
  -25.6410  -31.0940   26.4880 C   0  0  0  0  0  1  0  0  0  0  0  0
  -27.6270  -30.0530   25.3890 C   0  0  0  0  0  1  0  0  0  0  0  0
  -27.8200  -32.3270   26.3630 C   0  0  0  0  0  1  0  0  0  0  0  0
  1  2  2  0
  1  4  1  0
  2  5  1  0
  4  6  2  0
  5 15  1  0
  5  3  2  0
  6  3  1  0
  6 52  1  0
  7 15  1  0
  8 13  1  0
  9 10  1  0
  9  8  1  0
 11 10  1  0
 11 20  1  0
 11 12  1  0
 13  7  1  0
 13 12  1  0
 14  7  2  0
 15 16  1  0
 17 18  2  0
 18 37  1  0
 19 18  1  0
 19 22  1  0
 20 17  1  0
 20 21  1  0
 21 19  2  0
 22 23  1  0
 23 24  2  0
 25 28  1  0
 25 24  1  0
 26 25  2  0
 27 26  1  0
 27 22  2  0
 28 29  1  0
 29 30  1  0
 30 31  2  0
 32 31  1  0
 32 36  1  0
 33 32  2  0
 34 29  2  0
 34 33  1  0
 35 34  1  0
 37 38  1  0
 38 41  1  0
 38 40  1  0
 39 37  2  0
 42 43  1  0
 42 17  1  0
 44 42  1  0
 45 47  1  0
 46 45  1  0
 48 46  1  0
 48 50  1  0
 49 47  1  0
 49  4  1  0
 50 51  1  0
 50 49  1  0
 52 54  1  0
 52 53  1  0
 54 55  1  0
 55 57  1  1
 55 56  1  0
 58 60  1  0
 58 55  1  0
 59 58  2  0
 61 60  1  0
 62 73  2  0
 63 61  1  0
 63 68  1  0
 64 72  1  0
 64 74  1  0
 65 67  1  0
 66 72  1  0
 67 68  2  0
 67 66  1  0
 69 63  2  0
 70 69  1  0
 70 65  2  0
 71 65  1  0
 71 64  1  0
 72 62  1  0
 74 76  2  0
 75 74  1  0
 77 75  1  0
 78 83  1  0
 79 75  1  0
 80 79  1  0
 81 82  1  0
 81 80  1  0
 82 78  1  0
 83 79  1  0
 83 84  2  0
 85 84  1  0
 86 85  2  0
 87 78  2  0
 87 86  1  0
 88 62  1  0
 88 89  1  0
 88 98  1  0
 89 92  1  0
 90 94  1  0
 90 89  1  0
 91 90  2  0
 94 93  1  0
 96 97  1  0
 96 94  1  0
 96 95  1  0
 98101  1  1
 98 99  1  0
100 98  1  0
M  ISO  4   7 100  15 100  60 101  61 101
M  END
>  <TORSDO>  (47) 
F 22

>  <SCORE>  (47) 
-11.530

>  <name>  (47) 
46

>  <ligand_id>  (47) 
46

>  <original_smiles>  (47) 
[H]c1c([H])c([H])c2c(c1[H])C([H])([H])C([H])([H])C([H])([H])C2([H])N([H])C(=O)C1([H])N(C(=O)C([H])(N([H])C(=O)C([H])(N([H])C([H])([H])[H])C([H])([H])[H])C(C([H])([H])[H])(C([H])([H])[H])C([H])([H])[H])C([H])([H])c2c([H])c(OC([H])([H])C(=O)C(F)(F)C([H])([H])N([H])c3c([H])c(N([H])C(=O)N4C([H])([H])C([H])([H])C([H])([H])C([H])(n5nc(-c6c([H])c([H])c(Oc7c([H])c([H])c(F)c([H])c7F)c([H])c6[H])c(C(=O)N([H])[H])c5N([H])[H])C4([H])[H])c([H])c([H])c3C3([H])C([H])([H])C([H])([H])C([H])([H])C([H])([H])C3([H])C([H])([H])[H])c([H])c([H])c2C1([H])[H]

>  <smiles>  (47) 
[H]c1c([H])c([H])c2c(c1[H])C([H])([H])C([H])([H])C([H])([H])C2([H])N([H])C(=O)C1([H])N(C(=O)C([H])(N([H])C(=O)C([H])(N([H])C([H])([H])[H])C([H])([H])[H])C(C([H])([H])[H])(C([H])([H])[H])C([H])([H])[H])C([H])([H])c2c([H])c(OC([H])([H])C(=O)C(F)(F)C([H])([H])N([H])c3c([H])c(N([H])C(=O)N4C([H])([H])C([H])([H])C([H])([H])C([H])(n5nc(-c6c([H])c([H])c(Oc7c([H])c([H])c(F)c([H])c7F)c([H])c6[H])c(C(=O)N([H])[H])c5N([H])[H])C4([H])[H])c([H])c([H])c3C3([H])C([H])([H])C([H])([H])C([H])([H])C([H])([H])C3([H])C([H])([H])[H])c([H])c([H])c2C1([H])[H]

$$$$
47:0:0
     RDKit          3D

101109  0  0  1  0  0  0  0  0999 V2000
  -28.7730  -18.4370   20.2270 C   0  0  0  0  0  3  0  0  0  0  0  0
  -30.0180  -18.3280   19.5780 C   0  0  0  0  0  3  0  0  0  0  0  0
  -28.5080  -19.4980   21.1120 C   0  0  0  0  0  3  0  0  0  0  0  0
  -30.7900  -20.2780   20.8140 C   0  0  0  0  0  3  0  0  0  0  0  0
  -31.0630  -19.2380   19.8770 C   0  0  0  0  0  0  0  0  0  0  0  0
  -29.4910  -20.4700   21.3690 C   0  0  0  0  0  0  0  0  0  0  0  0
  -28.3730  -22.4820   22.1570 C   0  0  0  0  0  3  0  0  0  0  0  0
  -29.2550  -21.5360   22.2550 N   0  0  0  0  0  0  0  0  0  0  0  0
  -27.3360  -22.9550   21.1130 C   0  0  0  0  0  0  0  0  0  0  0  0
  -26.6850  -22.1900   20.3890 O   0  0  0  0  0  0  0  0  0  0  0  0
  -27.1720  -24.4980   21.0040 C   0  0  0  0  0  2  0  0  0  0  0  0
  -24.9100  -24.9720   19.6970 C   0  0  0  0  0  1  0  0  0  0  0  0
  -25.7350  -25.1330   20.9970 C   0  0  0  0  0  3  0  0  0  0  0  0
  -25.8920  -26.5570   21.1180 O   0  0  0  0  0  0  0  0  0  0  0  0
  -27.4770  -32.0100   25.3220 C   0  0  0  0  0  0  0  0  0  0  0  0
  -25.4470  -27.2760   22.2160 C   0  0  0  0  0  0  0  0  0  0  0  0
  -25.6470  -30.5610   26.1360 C   0  0  0  0  0  3  0  0  0  0  0  0
  -24.7270  -28.8750   24.4570 C   0  0  0  0  0  0  0  0  0  0  0  0
  -26.0890  -30.8030   23.6370 C   0  0  0  0  0  2  0  0  0  0  0  0
  -25.5790  -29.3870   23.4730 C   0  0  0  0  0  0  0  0  0  0  0  0
  -25.9320  -28.5970   22.3600 C   0  0  0  0  0  3  0  0  0  0  0  0
  -24.5660  -26.7850   23.2110 C   0  0  0  0  0  3  0  0  0  0  0  0
  -24.2050  -27.5770   24.3220 C   0  0  0  0  0  3  0  0  0  0  0  0
  -24.4000  -29.7890   25.6190 C   0  0  0  0  0  2  0  0  0  0  0  0
  -26.4650  -31.1460   25.0280 N   0  0  0  0  0  0  0  0  0  0  0  0
  -27.7000  -32.3540   26.4940 O   0  0  0  0  0  0  0  0  0  0  0  0
  -26.4470  -29.6270   27.0740 C   0  0  0  0  0  0  0  0  0  0  0  0
  -26.0110  -29.5350   28.3380 N   0  0  0  0  0  0  0  0  0  0  0  0
  -27.4150  -28.9820   26.6570 O   0  0  0  0  0  0  0  0  0  0  0  0
  -25.2240  -30.1140   28.6020 H   0  0  0  0  0  0  0  0  0  0  0  0
  -25.7570  -28.6750   31.8430 C   0  0  0  0  0  0  0  0  0  0  0  0
  -26.5790  -28.6910   29.3920 C   0  0  0  0  0  3  0  0  0  0  0  0
  -26.0280  -27.2500   29.3070 C   0  0  0  0  0  2  0  0  0  0  0  0
  -24.7970  -27.0150   30.1880 C   0  0  0  0  0  2  0  0  0  0  0  0
  -25.1310  -27.3030   31.6560 C   0  0  0  0  0  2  0  0  0  0  0  0
  -26.4220  -29.3350   30.7760 C   0  0  0  0  0  0  0  0  0  0  0  0
  -26.9620  -30.6220   30.9920 C   0  0  0  0  0  3  0  0  0  0  0  0
  -26.8430  -31.2500   32.2490 C   0  0  0  0  0  3  0  0  0  0  0  0
  -26.1960  -30.5880   33.3020 C   0  0  0  0  0  3  0  0  0  0  0  0
  -25.6590  -29.3030   33.1020 C   0  0  0  0  0  3  0  0  0  0  0  0
  -28.3870  -32.6170   24.2090 C   0  0  0  0  0  3  0  0  0  0  0  0
  -28.4860  -34.0620   24.4630 N   0  0  0  0  0  0  0  0  0  0  0  0
  -27.9360  -35.0060   23.6910 C   0  0  0  0  0  0  0  0  0  0  0  0
  -27.3500  -34.7460   22.6330 O   0  0  0  0  0  0  0  0  0  0  0  0
  -28.9060  -34.3430   25.3380 H   0  0  0  0  0  0  0  0  0  0  0  0
  -26.6810  -36.9740   24.6320 C   0  0  0  0  0  1  0  0  0  0  0  0
  -28.0530  -36.4690   24.1580 C   0  0  0  0  0  3  0  0  0  0  0  0
  -29.9990  -37.1490   22.8200 C   0  0  0  0  0  1  0  0  0  0  0  0
  -28.5870  -37.3740   23.1150 N   0  0  0  0  0  0  0  0  0  0  0  0
  -28.4750  -38.3450   23.3930 H   0  0  0  0  0  0  0  0  0  0  0  0
  -29.8220  -31.9610   24.1540 C   0  0  1  0  0  0  0  0  0  0  0  0
  -30.5420  -31.9190   25.5220 C   0  0  0  0  0  1  0  0  0  0  0  0
  -29.7380  -30.5120   23.6220 C   0  0  0  0  0  1  0  0  0  0  0  0
  -30.7160  -32.7340   23.1570 C   0  0  0  0  0  1  0  0  0  0  0  0
  -32.4380  -19.1150   19.1660 C   0  0  0  0  0  3  0  0  0  0  0  0
  -33.0900  -17.1110   17.7110 C   0  0  0  0  0  0  0  0  0  0  0  0
  -33.7410  -15.0340   16.5260 C   0  0  0  0  0  2  0  0  0  0  0  0
  -32.5160  -14.3260   15.9160 C   0  0  0  0  0  2  0  0  0  0  0  0
  -31.8940  -13.3540   16.9330 C   0  0  0  0  0  2  0  0  0  0  0  0
  -31.6490  -14.0260   18.3110 C   0  0  0  0  0  3  0  0  0  0  0  0
  -32.8900  -14.8250   18.7880 C   0  0  0  0  0  2  0  0  0  0  0  0
  -33.3090  -15.7630   17.7330 N   0  0  0  0  0  0  0  0  0  0  0  0
  -33.1790  -17.7740   16.6760 O   0  0  0  0  0  0  0  0  0  0  0  0
  -32.8320  -17.7060   18.8920 N   0  0  0  0  0  0  0  0  0  0  0  0
  -32.8850  -17.1010   19.6960 H   0  0  0  0  0  0  0  0  0  0  0  0
  -30.0170  -12.9730   20.0080 C   0  0  0  0  0  0  0  0  0  0  0  0
  -30.0880  -11.8380   20.7650 C   0  0  0  0  0  0  0  0  0  0  0  0
  -31.3580  -11.2480   20.4780 C   0  0  0  0  0  0  0  0  0  0  0  0
  -31.2140  -13.0470   19.3120 N   0  0  0  0  0  0  0  0  0  0  0  0
  -32.0460  -12.0240   19.6470 N   0  0  0  0  0  0  0  0  0  0  0  0
  -31.9380   -9.9690   20.9090 C   0  0  0  0  0  0  0  0  0  0  0  0
  -33.3070   -9.8550   21.2420 C   0  0  0  0  0  3  0  0  0  0  0  0
  -33.8380   -8.6170   21.6690 C   0  0  0  0  0  3  0  0  0  0  0  0
  -32.9990   -7.4830   21.7690 C   0  0  0  0  0  0  0  0  0  0  0  0
  -31.6420   -7.5960   21.4140 C   0  0  0  0  0  3  0  0  0  0  0  0
  -31.1150   -8.8260   20.9870 C   0  0  0  0  0  3  0  0  0  0  0  0
  -33.4340   -6.2350   22.1460 O   0  0  0  0  0  0  0  0  0  0  0  0
  -34.6870   -6.0380   22.6690 C   0  0  0  0  0  0  0  0  0  0  0  0
  -35.2380   -6.9100   23.6330 C   0  0  0  0  0  3  0  0  0  0  0  0
  -36.4980   -6.6310   24.1970 C   0  0  0  0  0  3  0  0  0  0  0  0
  -37.2050   -5.4780   23.8100 C   0  0  0  0  0  0  0  0  0  0  0  0
  -36.6530   -4.6020   22.8570 C   0  0  0  0  0  3  0  0  0  0  0  0
  -35.3960   -4.8790   22.2950 C   0  0  0  0  0  0  0  0  0  0  0  0
  -34.8610   -4.0210   21.3920 F   0  0  0  0  0  0  0  0  0  0  0  0
  -38.4090   -5.2040   24.3570 F   0  0  0  0  0  0  0  0  0  0  0  0
  -29.0030  -11.2670   21.6360 C   0  0  0  0  0  0  0  0  0  0  0  0
  -29.3640  -10.5090   22.6620 N   0  0  0  0  0  0  0  0  0  0  0  0
  -27.8150  -11.5360   21.4340 O   0  0  0  0  0  0  0  0  0  0  0  0
  -30.3340  -10.3060   22.8510 H   0  0  0  0  0  0  0  0  0  0  0  0
  -28.6540  -10.1310   23.2750 H   0  0  0  0  0  0  0  0  0  0  0  0
  -29.0240  -13.9360   19.8340 N   0  0  0  0  0  0  0  0  0  0  0  0
  -28.1230  -13.8640   20.2940 H   0  0  0  0  0  0  0  0  0  0  0  0
  -29.0830  -14.7170   19.1930 H   0  0  0  0  0  0  0  0  0  0  0  0
  -32.5010  -20.1030   18.0490 N   0  0  0  0  0  4  0  0  0  0  0  0
  -31.6870  -20.4120   18.5600 H   0  0  0  0  0  0  0  0  0  0  0  0
  -33.4910  -20.1140   18.2440 H   0  0  0  0  0  0  0  0  0  0  0  0
  -32.7170  -21.5580   18.2060 C   0  0  0  0  0  2  0  0  0  0  0  0
  -34.9440  -21.4210   16.9760 C   0  0  0  0  0  1  0  0  0  0  0  0
  -32.9230  -22.2230   15.7320 C   0  0  0  0  0  1  0  0  0  0  0  0
  -33.9320  -23.6510   17.5280 C   0  0  0  0  0  1  0  0  0  0  0  0
  -33.6190  -22.1950   17.1120 C   0  0  1  0  0  0  0  0  0  0  0  0
  1  3  1  0
  2  5  1  0
  2  1  2  0
  3  6  2  0
  4  6  1  0
  5  4  2  0
  6  8  1  0
  7  8  2  0
  9  7  1  0
 10  9  2  0
 11  9  1  0
 13 12  1  0
 13 11  1  0
 13 14  1  0
 14 16  1  0
 15 26  2  0
 16 21  2  0
 16 22  1  0
 17 27  1  0
 18 24  1  0
 19 25  1  0
 20 19  1  0
 20 18  2  0
 21 20  1  0
 22 23  2  0
 23 18  1  0
 24 17  1  0
 25 15  1  0
 25 17  1  0
 27 28  1  0
 28 30  1  0
 29 27  2  0
 31 40  1  0
 32 28  1  0
 32 36  1  0
 33 32  1  0
 33 34  1  0
 34 35  1  0
 35 31  1  0
 36 37  1  0
 36 31  2  0
 37 38  2  0
 38 39  1  0
 40 39  2  0
 41 42  1  0
 41 15  1  0
 42 45  1  0
 43 47  1  0
 43 42  1  0
 44 43  2  0
 47 46  1  0
 48 49  1  0
 49 50  1  0
 49 47  1  0
 51 41  1  0
 51 52  1  1
 53 51  1  0
 54 51  1  0
 55 64  1  0
 55  5  1  0
 56 62  1  0
 56 64  1  0
 57 62  1  0
 58 57  1  0
 58 59  1  0
 60 59  1  0
 60 61  1  0
 60 69  1  0
 62 61  1  0
 63 56  2  0
 64 65  1  0
 66 67  2  0
 67 86  1  0
 68 67  1  0
 68 71  1  0
 69 70  1  0
 69 66  1  0
 70 68  2  0
 71 76  2  0
 71 72  1  0
 72 73  2  0
 73 74  1  0
 74 77  1  0
 75 74  2  0
 76 75  1  0
 77 78  1  0
 78 79  1  0
 79 80  2  0
 81 80  1  0
 81 85  1  0
 82 81  2  0
 83 78  2  0
 83 82  1  0
 84 83  1  0
 86 87  1  0
 87 89  1  0
 87 90  1  0
 88 86  2  0
 91 66  1  0
 91 92  1  0
 93 91  1  0
 94 97  1  0
 94 96  1  0
 94 95  1  0
 94 55  1  0
101 98  1  6
 99101  1  0
101100  1  0
101 97  1  0
M  ISO  4  13 101  14 101  56 100  64 100
M  END
>  <TORSDO>  (48) 
F 24

>  <SCORE>  (48) 
-6.193

>  <name>  (48) 
47

>  <ligand_id>  (48) 
47

>  <original_smiles>  (48) 
[H]C(=Nc1c([H])c([H])c([H])c(C([H])(N([H])C(=O)N2C([H])([H])C([H])([H])C([H])([H])C([H])(n3nc(-c4c([H])c([H])c(Oc5c([H])c([H])c(F)c([H])c5F)c([H])c4[H])c(C(=O)N([H])[H])c3N([H])[H])C2([H])[H])[N+]([H])([H])C([H])([H])C(C([H])([H])[H])(C([H])([H])[H])C([H])([H])[H])c1[H])C(=O)C([H])([H])C([H])(Oc1c([H])c([H])c2c(c1[H])C([H])([H])N(C(=O)C([H])(N([H])C(=O)C([H])(N([H])C([H])([H])[H])C([H])([H])[H])C(C([H])([H])[H])(C([H])([H])[H])C([H])([H])[H])C([H])(C(=O)N([H])C1([H])c3c([H])c([H])c([H])c([H])c3C([H])([H])C([H])([H])C1([H])[H])C2([H])[H])C([H])([H])[H]

>  <smiles>  (48) 
[H]C(=Nc1c([H])c([H])c([H])c(C([H])(N([H])C(=O)N2C([H])([H])C([H])([H])C([H])([H])C([H])(n3nc(-c4c([H])c([H])c(Oc5c([H])c([H])c(F)c([H])c5F)c([H])c4[H])c(C(=O)N([H])[H])c3N([H])[H])C2([H])[H])[N+]([H])([H])C([H])([H])C(C([H])([H])[H])(C([H])([H])[H])C([H])([H])[H])c1[H])C(=O)C([H])([H])C([H])(Oc1c([H])c([H])c2c(c1[H])C([H])([H])N(C(=O)C([H])(N([H])C(=O)C([H])(N([H])C([H])([H])[H])C([H])([H])[H])C(C([H])([H])[H])(C([H])([H])[H])C([H])([H])[H])C([H])(C(=O)N([H])C1([H])c3c([H])c([H])c([H])c([H])c3C([H])([H])C([H])([H])C1([H])[H])C2([H])[H])C([H])([H])[H]

$$$$
48:0:0
     RDKit          3D

 96104  0  0  1  0  0  0  0  0999 V2000
  -30.4820  -19.9050   20.6510 C   0  0  0  0  0  3  0  0  0  0  0  0
  -31.9550  -20.0470   18.7350 C   0  0  0  0  0  3  0  0  0  0  0  0
  -30.9500  -18.5920   20.9380 C   0  0  0  0  0  0  0  0  0  0  0  0
  -31.9510  -18.0040   20.1050 C   0  0  0  0  0  0  0  0  0  0  0  0
  -30.9980  -20.6560   19.5690 C   0  0  0  0  0  0  0  0  0  0  0  0
  -32.4260  -18.7470   18.9980 C   0  0  0  0  0  0  0  0  0  0  0  0
  -33.3820  -18.2280   18.1900 F   0  0  0  0  0  0  0  0  0  0  0  0
  -30.3570  -17.8680   22.1020 C   0  0  0  0  0  0  0  0  0  0  0  0
  -30.4530  -18.5410   23.4690 C   0  0  0  0  0  1  0  0  0  0  0  0
  -29.8200  -16.7600   22.0260 O   0  0  0  0  0  0  0  0  0  0  0  0
  -30.6020  -21.9800   19.2870 N   0  0  0  0  0  0  0  0  0  0  0  0
  -31.1650  -22.5420   18.6500 H   0  0  0  0  0  0  0  0  0  0  0  0
  -29.7410  -22.7450   20.1980 C   0  0  0  0  0  2  0  0  0  0  0  0
  -29.9010  -24.2760   20.0730 C   0  0  0  0  0  0  0  0  0  0  0  0
  -31.0110  -24.7890   19.8850 O   0  0  0  0  0  0  0  0  0  0  0  0
  -28.6070  -25.1060   20.1530 C   0  0  0  0  0  2  0  0  0  0  0  0
  -28.8130  -26.5350   20.1230 O   0  0  0  0  0  0  0  0  0  0  0  0
  -24.8810  -31.5480   23.3320 C   0  0  0  0  0  0  0  0  0  0  0  0
  -27.6420  -27.2720   20.1090 C   0  0  0  0  0  0  0  0  0  0  0  0
  -23.7230  -30.1920   21.6200 C   0  0  0  0  0  3  0  0  0  0  0  0
  -25.2220  -28.7500   20.1510 C   0  0  0  0  0  0  0  0  0  0  0  0
  -26.2470  -30.6040   21.4720 C   0  0  0  0  0  2  0  0  0  0  0  0
  -26.3670  -29.2640   20.7730 C   0  0  0  0  0  0  0  0  0  0  0  0
  -27.5820  -28.5370   20.7460 C   0  0  0  0  0  3  0  0  0  0  0  0
  -26.4750  -26.7840   19.4720 C   0  0  0  0  0  3  0  0  0  0  0  0
  -25.2730  -27.5100   19.4960 C   0  0  0  0  0  3  0  0  0  0  0  0
  -23.9610  -29.5800   20.2150 C   0  0  0  0  0  2  0  0  0  0  0  0
  -24.9680  -30.7930   22.2000 N   0  0  0  0  0  0  0  0  0  0  0  0
  -23.7870  -31.7770   23.8670 O   0  0  0  0  0  0  0  0  0  0  0  0
  -23.0780  -29.1190   22.5270 C   0  0  0  0  0  0  0  0  0  0  0  0
  -21.7710  -28.8790   22.3350 N   0  0  0  0  0  0  0  0  0  0  0  0
  -23.7540  -28.5090   23.3600 O   0  0  0  0  0  0  0  0  0  0  0  0
  -21.2880  -29.4280   21.6380 H   0  0  0  0  0  0  0  0  0  0  0  0
  -18.4450  -27.5000   22.6270 C   0  0  0  0  0  0  0  0  0  0  0  0
  -20.9660  -27.8870   23.0460 C   0  0  0  0  0  3  0  0  0  0  0  0
  -21.1780  -26.4720   22.4590 C   0  0  0  0  0  2  0  0  0  0  0  0
  -20.1510  -26.1080   21.3810 C   0  0  0  0  0  2  0  0  0  0  0  0
  -18.7300  -26.1710   21.9480 C   0  0  0  0  0  2  0  0  0  0  0  0
  -19.4950  -28.3120   23.1300 C   0  0  0  0  0  0  0  0  0  0  0  0
  -19.1780  -29.5530   23.7220 C   0  0  0  0  0  3  0  0  0  0  0  0
  -17.8410  -29.9840   23.8190 C   0  0  0  0  0  3  0  0  0  0  0  0
  -16.8030  -29.1690   23.3350 C   0  0  0  0  0  3  0  0  0  0  0  0
  -17.1060  -27.9290   22.7450 C   0  0  0  0  0  3  0  0  0  0  0  0
  -26.1460  -32.1760   23.9940 C   0  0  0  0  0  3  0  0  0  0  0  0
  -25.7980  -33.5420   24.4030 N   0  0  0  0  0  0  0  0  0  0  0  0
  -26.1340  -34.6480   23.7240 C   0  0  0  0  0  0  0  0  0  0  0  0
  -26.8400  -34.6240   22.7120 O   0  0  0  0  0  0  0  0  0  0  0  0
  -25.1730  -33.6340   25.1900 H   0  0  0  0  0  0  0  0  0  0  0  0
  -24.3840  -36.4280   23.4220 C   0  0  0  0  0  1  0  0  0  0  0  0
  -25.6010  -35.9930   24.2520 C   0  0  0  0  0  3  0  0  0  0  0  0
  -27.6860  -36.8550   25.2210 C   0  0  0  0  0  1  0  0  0  0  0  0
  -26.6160  -37.0700   24.2500 N   0  0  0  0  0  0  0  0  0  0  0  0
  -26.1870  -37.9690   24.4470 H   0  0  0  0  0  0  0  0  0  0  0  0
  -26.6820  -31.3440   25.2240 C   0  0  1  0  0  0  0  0  0  0  0  0
  -25.5830  -30.9650   26.2410 C   0  0  0  0  0  1  0  0  0  0  0  0
  -27.3570  -30.0370   24.7460 C   0  0  0  0  0  1  0  0  0  0  0  0
  -27.7660  -32.1560   25.9720 C   0  0  0  0  0  1  0  0  0  0  0  0
  -32.6450  -16.6680   20.4370 C   0  0  0  0  0  2  0  0  0  0  0  0
  -32.3570  -14.2940   19.6930 C   0  0  0  0  0  0  0  0  0  0  0  0
  -31.8950  -11.9320   19.1300 C   0  0  0  0  0  2  0  0  0  0  0  0
  -30.9270  -11.8260   17.9370 C   0  0  0  0  0  2  0  0  0  0  0  0
  -29.4630  -11.8810   18.4150 C   0  0  0  0  0  2  0  0  0  0  0  0
  -29.1960  -13.0550   19.3940 C   0  0  0  0  0  3  0  0  0  0  0  0
  -30.2710  -13.1120   20.5000 C   0  0  0  0  0  2  0  0  0  0  0  0
  -31.5910  -13.1800   19.8500 N   0  0  0  0  0  0  0  0  0  0  0  0
  -33.4320  -14.2800   19.0900 O   0  0  0  0  0  0  0  0  0  0  0  0
  -31.8770  -15.4320   20.2240 N   0  0  0  0  0  0  0  0  0  0  0  0
  -30.9620  -15.3940   20.6520 H   0  0  0  0  0  0  0  0  0  0  0  0
  -26.9750  -14.0150   20.2700 C   0  0  0  0  0  0  0  0  0  0  0  0
  -25.8170  -13.4120   20.6820 C   0  0  0  0  0  0  0  0  0  0  0  0
  -26.0470  -12.0050   20.5860 C   0  0  0  0  0  0  0  0  0  0  0  0
  -27.8470  -12.9850   19.9510 N   0  0  0  0  0  0  0  0  0  0  0  0
  -27.2940  -11.7690   20.1970 N   0  0  0  0  0  0  0  0  0  0  0  0
  -25.1360  -10.8720   20.7860 C   0  0  0  0  0  0  0  0  0  0  0  0
  -25.3390   -9.9340   21.8230 C   0  0  0  0  0  3  0  0  0  0  0  0
  -24.4370   -8.8640   22.0050 C   0  0  0  0  0  3  0  0  0  0  0  0
  -23.3180   -8.7230   21.1510 C   0  0  0  0  0  0  0  0  0  0  0  0
  -23.1330   -9.6470   20.1060 C   0  0  0  0  0  3  0  0  0  0  0  0
  -24.0330  -10.7080   19.9230 C   0  0  0  0  0  3  0  0  0  0  0  0
  -22.4040   -7.7010   21.2400 O   0  0  0  0  0  0  0  0  0  0  0  0
  -21.9690   -7.2270   22.4510 C   0  0  0  0  0  0  0  0  0  0  0  0
  -21.3140   -8.0580   23.3850 C   0  0  0  0  0  3  0  0  0  0  0  0
  -20.8220   -7.5130   24.5880 C   0  0  0  0  0  3  0  0  0  0  0  0
  -20.9730   -6.1400   24.8540 C   0  0  0  0  0  0  0  0  0  0  0  0
  -21.6190   -5.3090   23.9210 C   0  0  0  0  0  3  0  0  0  0  0  0
  -22.1120   -5.8500   22.7220 C   0  0  0  0  0  0  0  0  0  0  0  0
  -22.7150   -5.0420   21.8180 F   0  0  0  0  0  0  0  0  0  0  0  0
  -20.4920   -5.6150   26.0060 F   0  0  0  0  0  0  0  0  0  0  0  0
  -24.5360  -14.0990   21.0580 C   0  0  0  0  0  0  0  0  0  0  0  0
  -23.7680  -13.5110   21.9680 N   0  0  0  0  0  0  0  0  0  0  0  0
  -24.2320  -15.1910   20.5790 O   0  0  0  0  0  0  0  0  0  0  0  0
  -24.0260  -12.6240   22.3760 H   0  0  0  0  0  0  0  0  0  0  0  0
  -22.9090  -13.9540   22.2630 H   0  0  0  0  0  0  0  0  0  0  0  0
  -27.3530  -15.3460   20.1220 N   0  0  0  0  0  0  0  0  0  0  0  0
  -26.7230  -16.1160   20.3160 H   0  0  0  0  0  0  0  0  0  0  0  0
  -28.2650  -15.6500   19.8040 H   0  0  0  0  0  0  0  0  0  0  0  0
  1  3  1  0
  2  6  2  0
  2  5  1  0
  3  8  1  0
  4 58  1  0
  4  3  2  0
  5  1  2  0
  6  4  1  0
  7  6  1  0
  8  9  1  0
 10  8  2  0
 11  5  1  0
 11 13  1  0
 12 11  1  0
 14 16  1  0
 14 13  1  0
 15 14  2  0
 17 16  1  0
 18 29  2  0
 19 17  1  0
 19 24  1  0
 20 28  1  0
 20 30  1  0
 21 27  1  0
 21 23  1  0
 22 28  1  0
 23 22  1  0
 24 23  2  0
 25 26  1  0
 25 19  2  0
 26 21  2  0
 27 20  1  0
 28 18  1  0
 30 32  2  0
 31 30  1  0
 33 31  1  0
 34 43  2  0
 34 39  1  0
 35 31  1  0
 35 39  1  0
 36 35  1  0
 37 38  1  0
 37 36  1  0
 38 34  1  0
 39 40  2  0
 40 41  1  0
 42 41  2  0
 43 42  1  0
 44 18  1  0
 44 45  1  0
 44 54  1  0
 45 48  1  0
 46 50  1  0
 46 45  1  0
 47 46  2  0
 50 49  1  0
 52 50  1  0
 52 53  1  0
 52 51  1  0
 54 57  1  1
 54 55  1  0
 56 54  1  0
 59 65  1  0
 59 67  1  0
 60 65  1  0
 61 62  1  0
 61 60  1  0
 63 62  1  0
 63 72  1  0
 63 64  1  0
 65 64  1  0
 66 59  2  0
 67 58  1  0
 67 68  1  0
 69 70  2  0
 70 89  1  0
 71 70  1  0
 71 74  1  0
 72 73  1  0
 72 69  1  0
 73 71  2  0
 74 75  1  0
 75 76  2  0
 77 80  1  0
 77 76  1  0
 78 77  2  0
 79 78  1  0
 79 74  2  0
 80 81  1  0
 81 86  2  0
 81 82  1  0
 82 83  2  0
 83 84  1  0
 84 88  1  0
 85 84  2  0
 86 85  1  0
 87 86  1  0
 89 90  1  0
 90 93  1  0
 90 92  1  0
 91 89  2  0
 94 69  1  0
 94 95  1  0
 96 94  1  0
M  ISO  4  16 101  17 101  59 100  67 100
M  END
>  <TORSDO>  (49) 
F 22

>  <SCORE>  (49) 
-9.587

>  <name>  (49) 
48

>  <ligand_id>  (49) 
48

>  <original_smiles>  (49) 
[H]c1c([H])c([H])c2c(c1[H])C([H])([H])C([H])([H])C([H])([H])C2([H])N([H])C(=O)C1([H])N(C(=O)C([H])(N([H])C(=O)C([H])(N([H])C([H])([H])[H])C([H])([H])[H])C(C([H])([H])[H])(C([H])([H])[H])C([H])([H])[H])C([H])([H])c2c([H])c(OC([H])([H])C(=O)C([H])([H])N([H])c3c([H])c(F)c(C([H])([H])N([H])C(=O)N4C([H])([H])C([H])([H])C([H])([H])C([H])(n5nc(-c6c([H])c([H])c(Oc7c([H])c([H])c(F)c([H])c7F)c([H])c6[H])c(C(=O)N([H])[H])c5N([H])[H])C4([H])[H])c(C(=O)C([H])([H])[H])c3[H])c([H])c([H])c2C1([H])[H]

>  <smiles>  (49) 
[H]c1c([H])c([H])c2c(c1[H])C([H])([H])C([H])([H])C([H])([H])C2([H])N([H])C(=O)C1([H])N(C(=O)C([H])(N([H])C(=O)C([H])(N([H])C([H])([H])[H])C([H])([H])[H])C(C([H])([H])[H])(C([H])([H])[H])C([H])([H])[H])C([H])([H])c2c([H])c(OC([H])([H])C(=O)C([H])([H])N([H])c3c([H])c(F)c(C([H])([H])N([H])C(=O)N4C([H])([H])C([H])([H])C([H])([H])C([H])(n5nc(-c6c([H])c([H])c(Oc7c([H])c([H])c(F)c([H])c7F)c([H])c6[H])c(C(=O)N([H])[H])c5N([H])[H])C4([H])[H])c(C(=O)C([H])([H])[H])c3[H])c([H])c([H])c2C1([H])[H]

$$$$
49:0:0
     RDKit          3D

 99108  0  0  1  0  0  0  0  0999 V2000
  -30.2990  -21.8080   18.8400 C   0  0  0  0  0  2  0  0  0  0  0  0
  -28.9860  -22.0760   20.9310 C   0  0  0  0  0  2  0  0  0  0  0  0
  -29.8600  -23.2250   18.3820 C   0  0  0  0  0  2  0  0  0  0  0  0
  -28.5140  -23.4930   20.4830 C   0  0  0  0  0  2  0  0  0  0  0  0
  -29.2210  -21.1400   19.7190 C   0  0  0  0  0  3  0  0  0  0  0  0
  -29.5150  -24.2150   19.5340 C   0  0  1  0  0  0  0  0  0  0  0  0
  -30.6690  -19.2130   20.6920 C   0  0  0  0  0  3  0  0  0  0  0  0
  -30.9550  -17.8420   20.9350 C   0  0  0  0  0  3  0  0  0  0  0  0
  -28.8230  -17.2520   19.9740 C   0  0  0  0  0  3  0  0  0  0  0  0
  -28.5300  -18.6110   19.7080 C   0  0  0  0  0  0  0  0  0  0  0  0
  -29.4640  -19.6350   20.0640 C   0  0  0  0  0  0  0  0  0  0  0  0
  -30.0300  -16.8370   20.5700 C   0  0  0  0  0  0  0  0  0  0  0  0
  -30.8720  -14.4980   20.1220 C   0  0  0  0  0  0  0  0  0  0  0  0
  -30.5560  -12.3400   18.9460 C   0  0  0  0  0  2  0  0  0  0  0  0
  -29.5470  -12.5540   17.7970 C   0  0  0  0  0  2  0  0  0  0  0  0
  -28.0940  -12.4120   18.2960 C   0  0  0  0  0  2  0  0  0  0  0  0
  -27.8260  -13.2230   19.5910 C   0  0  0  0  0  3  0  0  0  0  0  0
  -28.9350  -12.9620   20.6360 C   0  0  0  0  0  2  0  0  0  0  0  0
  -30.2320  -13.2960   20.0180 N   0  0  0  0  0  0  0  0  0  0  0  0
  -31.9520  -14.7310   19.5680 O   0  0  0  0  0  0  0  0  0  0  0  0
  -30.1880  -15.4310   20.8210 N   0  0  0  0  0  0  0  0  0  0  0  0
  -29.4030  -15.0160   21.2980 H   0  0  0  0  0  0  0  0  0  0  0  0
  -25.4770  -13.8380   20.4510 C   0  0  0  0  0  0  0  0  0  0  0  0
  -24.4200  -13.0690   20.8560 C   0  0  0  0  0  0  0  0  0  0  0  0
  -24.8560  -11.7130   20.7490 C   0  0  0  0  0  0  0  0  0  0  0  0
  -26.4940  -12.9520   20.1310 N   0  0  0  0  0  0  0  0  0  0  0  0
  -26.1260  -11.6660   20.3660 N   0  0  0  0  0  0  0  0  0  0  0  0
  -24.1200  -10.4560   20.9320 C   0  0  0  0  0  0  0  0  0  0  0  0
  -24.5130   -9.5050   21.8990 C   0  0  0  0  0  3  0  0  0  0  0  0
  -23.7800   -8.3120   22.0690 C   0  0  0  0  0  3  0  0  0  0  0  0
  -22.6380   -8.0600   21.2710 C   0  0  0  0  0  0  0  0  0  0  0  0
  -22.2640   -9.0000   20.2950 C   0  0  0  0  0  3  0  0  0  0  0  0
  -22.9990  -10.1860   20.1230 C   0  0  0  0  0  3  0  0  0  0  0  0
  -21.8790   -6.9170   21.3490 O   0  0  0  0  0  0  0  0  0  0  0  0
  -21.6740   -6.2690   22.5400 C   0  0  0  0  0  0  0  0  0  0  0  0
  -21.0590   -6.9070   23.6390 C   0  0  0  0  0  3  0  0  0  0  0  0
  -20.8050   -6.1830   24.8210 C   0  0  0  0  0  3  0  0  0  0  0  0
  -21.1560   -4.8220   24.9030 C   0  0  0  0  0  0  0  0  0  0  0  0
  -21.7640   -4.1840   23.8080 C   0  0  0  0  0  3  0  0  0  0  0  0
  -22.0200   -4.9060   22.6280 C   0  0  0  0  0  0  0  0  0  0  0  0
  -22.5860   -4.2810   21.5680 F   0  0  0  0  0  0  0  0  0  0  0  0
  -20.9050   -4.1240   26.0360 F   0  0  0  0  0  0  0  0  0  0  0  0
  -23.0480  -13.5570   21.2240 C   0  0  0  0  0  0  0  0  0  0  0  0
  -22.3710  -12.8550   22.1270 N   0  0  0  0  0  0  0  0  0  0  0  0
  -22.5870  -14.5930   20.7480 O   0  0  0  0  0  0  0  0  0  0  0  0
  -22.7570  -12.0170   22.5340 H   0  0  0  0  0  0  0  0  0  0  0  0
  -21.4530  -13.1640   22.4160 H   0  0  0  0  0  0  0  0  0  0  0  0
  -25.6490  -15.2100   20.3050 N   0  0  0  0  0  0  0  0  0  0  0  0
  -24.8850  -15.8630   20.4470 H   0  0  0  0  0  0  0  0  0  0  0  0
  -26.4380  -15.6360   19.8380 H   0  0  0  0  0  0  0  0  0  0  0  0
  -27.2320  -18.8880   19.0020 C   0  0  0  0  0  0  0  0  0  0  0  0
  -26.4980  -19.8810   19.4810 N   0  0  0  0  0  0  0  0  0  0  0  0
  -26.8540  -18.1910   18.0630 O   0  0  0  0  0  0  0  0  0  0  0  0
  -26.8210  -20.3990   20.2820 H   0  0  0  0  0  0  0  0  0  0  0  0
  -25.6060  -20.1030   19.0630 H   0  0  0  0  0  0  0  0  0  0  0  0
  -30.8490  -25.3760   21.2290 C   0  0  0  0  0  1  0  0  0  0  0  0
  -30.7770  -24.4120   20.1830 O   0  0  0  0  0  0  0  0  0  0  0  0
  -28.9670  -25.5510   18.8930 C   0  0  0  0  0  2  0  0  0  0  0  0
  -28.6700  -26.6540   19.7870 O   0  0  0  0  0  0  0  0  0  0  0  0
  -24.6210  -31.6240   22.9230 C   0  0  0  0  0  0  0  0  0  0  0  0
  -27.4610  -27.3380   19.7420 C   0  0  0  0  0  0  0  0  0  0  0  0
  -23.4840  -30.2200   21.2360 C   0  0  0  0  0  3  0  0  0  0  0  0
  -25.0060  -28.7780   19.7830 C   0  0  0  0  0  0  0  0  0  0  0  0
  -26.0000  -30.6710   21.0730 C   0  0  0  0  0  2  0  0  0  0  0  0
  -26.1410  -29.3200   20.3940 C   0  0  0  0  0  0  0  0  0  0  0  0
  -27.3660  -28.6070   20.3730 C   0  0  0  0  0  3  0  0  0  0  0  0
  -26.2900  -26.8100   19.1450 C   0  0  0  0  0  3  0  0  0  0  0  0
  -25.0770  -27.5220   19.1590 C   0  0  0  0  0  3  0  0  0  0  0  0
  -23.7300  -29.5890   19.8410 C   0  0  0  0  0  2  0  0  0  0  0  0
  -24.7180  -30.8540   21.8030 N   0  0  0  0  0  0  0  0  0  0  0  0
  -23.5250  -31.8410   23.4600 O   0  0  0  0  0  0  0  0  0  0  0  0
  -22.8650  -29.1500   22.1640 C   0  0  0  0  0  0  0  0  0  0  0  0
  -21.5380  -28.9600   22.0620 N   0  0  0  0  0  0  0  0  0  0  0  0
  -23.5730  -28.4940   22.9330 O   0  0  0  0  0  0  0  0  0  0  0  0
  -21.0270  -29.5430   21.4140 H   0  0  0  0  0  0  0  0  0  0  0  0
  -18.1780  -27.7690   22.6540 C   0  0  0  0  0  0  0  0  0  0  0  0
  -20.7500  -27.9800   22.8090 C   0  0  0  0  0  3  0  0  0  0  0  0
  -20.8020  -26.5910   22.1300 C   0  0  0  0  0  2  0  0  0  0  0  0
  -19.6450  -26.3520   21.1560 C   0  0  0  0  0  2  0  0  0  0  0  0
  -18.3000  -26.4670   21.8800 C   0  0  0  0  0  2  0  0  0  0  0  0
  -19.3280  -28.4880   23.0770 C   0  0  0  0  0  0  0  0  0  0  0  0
  -19.1580  -29.7090   23.7630 C   0  0  0  0  0  3  0  0  0  0  0  0
  -17.8720  -30.2130   24.0290 C   0  0  0  0  0  3  0  0  0  0  0  0
  -16.7370  -29.4900   23.6220 C   0  0  0  0  0  3  0  0  0  0  0  0
  -16.8910  -28.2700   22.9420 C   0  0  0  0  0  3  0  0  0  0  0  0
  -25.8760  -32.2900   23.5690 C   0  0  0  0  0  3  0  0  0  0  0  0
  -26.4570  -31.4700   24.7850 C   0  0  1  0  0  0  0  0  0  0  0  0
  -25.3990  -31.0990   25.8500 C   0  0  0  0  0  1  0  0  0  0  0  0
  -27.1140  -30.1580   24.2950 C   0  0  0  0  0  1  0  0  0  0  0  0
  -27.5700  -32.2870   25.4840 C   0  0  0  0  0  1  0  0  0  0  0  0
  -25.4900  -33.6420   23.9930 N   0  0  0  0  0  0  0  0  0  0  0  0
  -25.7620  -34.7610   23.3090 C   0  0  0  0  0  0  0  0  0  0  0  0
  -26.4360  -34.7660   22.2750 O   0  0  0  0  0  0  0  0  0  0  0  0
  -24.8900  -33.7090   24.8020 H   0  0  0  0  0  0  0  0  0  0  0  0
  -23.9360  -36.4750   23.0710 C   0  0  0  0  0  1  0  0  0  0  0  0
  -25.1970  -36.0860   23.8580 C   0  0  0  0  0  3  0  0  0  0  0  0
  -27.2740  -37.0350   24.7610 C   0  0  0  0  0  1  0  0  0  0  0  0
  -26.1690  -37.1990   23.8210 N   0  0  0  0  0  0  0  0  0  0  0  0
  -25.7110  -38.0840   24.0220 H   0  0  0  0  0  0  0  0  0  0  0  0
  1  5  1  0
  3  1  1  0
  3  6  1  0
  4  2  1  0
  5 11  1  0
  5  2  1  0
  6 58  1  6
  6 57  1  0
  6  4  1  0
  7  8  1  0
  9 12  1  0
 10  9  2  0
 10 11  1  0
 11  7  2  0
 12 21  1  0
 12  8  2  0
 13 21  1  0
 14 19  1  0
 15 16  1  0
 15 14  1  0
 17 16  1  0
 17 26  1  0
 17 18  1  0
 19 13  1  0
 19 18  1  0
 20 13  2  0
 21 22  1  0
 23 24  2  0
 24 43  1  0
 25 24  1  0
 25 28  1  0
 26 27  1  0
 26 23  1  0
 27 25  2  0
 28 29  1  0
 29 30  2  0
 31 34  1  0
 31 30  1  0
 32 31  2  0
 33 32  1  0
 33 28  2  0
 34 35  1  0
 35 40  2  0
 35 36  1  0
 36 37  2  0
 37 38  1  0
 38 42  1  0
 39 38  2  0
 40 39  1  0
 41 40  1  0
 43 44  1  0
 44 47  1  0
 44 46  1  0
 45 43  2  0
 48 49  1  0
 48 23  1  0
 50 48  1  0
 51 52  1  0
 51 10  1  0
 52 54  1  0
 53 51  2  0
 55 52  1  0
 57 56  1  0
 58 59  1  0
 60 71  2  0
 61 59  1  0
 61 66  1  0
 62 70  1  0
 62 72  1  0
 63 69  1  0
 63 65  1  0
 64 70  1  0
 65 64  1  0
 66 65  2  0
 67 68  1  0
 67 61  2  0
 68 63  2  0
 69 62  1  0
 70 60  1  0
 72 74  2  0
 73 72  1  0
 75 73  1  0
 76 85  2  0
 76 81  1  0
 77 73  1  0
 77 81  1  0
 78 77  1  0
 79 80  1  0
 79 78  1  0
 80 76  1  0
 81 82  2  0
 82 83  1  0
 84 83  2  0
 85 84  1  0
 86 60  1  0
 86 91  1  0
 86 87  1  0
 87 90  1  1
 87 88  1  0
 89 87  1  0
 91 94  1  0
 92 96  1  0
 92 91  1  0
 93 92  2  0
 96 95  1  0
 98 96  1  0
 98 99  1  0
 98 97  1  0
M  ISO  4  13 100  21 100  58 101  59 101
M  END
>  <TORSDO>  (50) 
F 20

>  <SCORE>  (50) 
-12.788

>  <name>  (50) 
49

>  <ligand_id>  (50) 
49

>  <original_smiles>  (50) 
[H]c1c([H])c([H])c2c(c1[H])C([H])([H])C([H])([H])C([H])([H])C2([H])N([H])C(=O)C1([H])N(C(=O)C([H])(N([H])C(=O)C([H])(N([H])C([H])([H])[H])C([H])([H])[H])C(C([H])([H])[H])(C([H])([H])[H])C([H])([H])[H])C([H])([H])c2c([H])c(OC([H])([H])C3(OC([H])([H])[H])C([H])([H])C([H])([H])C([H])(c4c([H])c([H])c(N([H])C(=O)N5C([H])([H])C([H])([H])C([H])([H])C([H])(n6nc(-c7c([H])c([H])c(Oc8c([H])c([H])c(F)c([H])c8F)c([H])c7[H])c(C(=O)N([H])[H])c6N([H])[H])C5([H])[H])c([H])c4C(=O)N([H])[H])C([H])([H])C3([H])[H])c([H])c([H])c2C1([H])[H]

>  <smiles>  (50) 
[H]c1c([H])c([H])c2c(c1[H])C([H])([H])C([H])([H])C([H])([H])C2([H])N([H])C(=O)C1([H])N(C(=O)C([H])(N([H])C(=O)C([H])(N([H])C([H])([H])[H])C([H])([H])[H])C(C([H])([H])[H])(C([H])([H])[H])C([H])([H])[H])C([H])([H])c2c([H])c(OC([H])([H])C3(OC([H])([H])[H])C([H])([H])C([H])([H])C([H])(c4c([H])c([H])c(N([H])C(=O)N5C([H])([H])C([H])([H])C([H])([H])C([H])(n6nc(-c7c([H])c([H])c(Oc8c([H])c([H])c(F)c([H])c8F)c([H])c7[H])c(C(=O)N([H])[H])c6N([H])[H])C5([H])[H])c([H])c4C(=O)N([H])[H])C([H])([H])C3([H])[H])c([H])c([H])c2C1([H])[H]

$$$$
50:0:0
     RDKit          3D

 94102  0  0  1  0  0  0  0  0999 V2000
  -30.2230  -19.2640   21.2900 C   0  0  0  0  0  0  0  0  0  0  0  0
  -30.0750  -18.3730   20.2350 C   0  0  0  0  0  0  0  0  0  0  0  0
  -28.8410  -20.1510   19.8870 C   0  0  0  0  0  0  0  0  0  0  0  0
  -29.1820  -18.9840   19.3370 N   0  0  0  0  0  0  0  0  0  0  0  0
  -28.1240  -21.2290   19.3570 N   0  0  0  0  0  0  0  0  0  0  0  0
  -29.3780  -20.3440   21.1040 O   0  0  0  0  0  0  0  0  0  0  0  0
  -27.9180  -21.0930   18.3750 H   0  0  0  0  0  0  0  0  0  0  0  0
  -31.1570  -19.3430   22.4050 C   0  0  0  0  0  0  0  0  0  0  0  0
  -31.3150  -20.7010   23.0820 C   0  0  0  0  0  1  0  0  0  0  0  0
  -31.8460  -18.3860   22.7670 O   0  0  0  0  0  0  0  0  0  0  0  0
  -30.8490  -17.1010   19.8240 C   0  0  0  0  0  2  0  0  0  0  0  0
  -30.9030  -14.6000   19.6350 C   0  0  0  0  0  0  0  0  0  0  0  0
  -30.5520  -12.3190   18.7440 C   0  0  0  0  0  2  0  0  0  0  0  0
  -29.5360  -12.3600   17.5800 C   0  0  0  0  0  2  0  0  0  0  0  0
  -28.1060  -12.2290   18.1310 C   0  0  0  0  0  2  0  0  0  0  0  0
  -27.8250  -13.1880   19.3190 C   0  0  0  0  0  3  0  0  0  0  0  0
  -28.9590  -13.1430   20.3720 C   0  0  0  0  0  2  0  0  0  0  0  0
  -30.2180  -13.4180   19.6730 N   0  0  0  0  0  0  0  0  0  0  0  0
  -32.0260  -14.6650   19.1310 O   0  0  0  0  0  0  0  0  0  0  0  0
  -30.2530  -15.7420   20.0000 N   0  0  0  0  0  0  0  0  0  0  0  0
  -29.3350  -15.6800   20.4170 H   0  0  0  0  0  0  0  0  0  0  0  0
  -25.5070  -13.8480   20.2130 C   0  0  0  0  0  0  0  0  0  0  0  0
  -24.4500  -13.1020   20.6620 C   0  0  0  0  0  0  0  0  0  0  0  0
  -24.8650  -11.7390   20.5850 C   0  0  0  0  0  0  0  0  0  0  0  0
  -26.5050  -12.9400   19.9010 N   0  0  0  0  0  0  0  0  0  0  0  0
  -26.1280  -11.6640   20.1800 N   0  0  0  0  0  0  0  0  0  0  0  0
  -24.1180  -10.4960   20.8230 C   0  0  0  0  0  0  0  0  0  0  0  0
  -24.5480   -9.5490   21.7770 C   0  0  0  0  0  3  0  0  0  0  0  0
  -23.8040   -8.3700   22.0030 C   0  0  0  0  0  3  0  0  0  0  0  0
  -22.6140   -8.1310   21.2750 C   0  0  0  0  0  0  0  0  0  0  0  0
  -22.2020   -9.0680   20.3110 C   0  0  0  0  0  3  0  0  0  0  0  0
  -22.9470  -10.2370   20.0850 C   0  0  0  0  0  3  0  0  0  0  0  0
  -21.8430   -7.0020   21.4070 O   0  0  0  0  0  0  0  0  0  0  0  0
  -21.7530   -6.3260   22.5980 C   0  0  0  0  0  0  0  0  0  0  0  0
  -21.2580   -6.9430   23.7690 C   0  0  0  0  0  3  0  0  0  0  0  0
  -21.1190   -6.1930   24.9530 C   0  0  0  0  0  3  0  0  0  0  0  0
  -21.4610   -4.8290   24.9690 C   0  0  0  0  0  0  0  0  0  0  0  0
  -21.9470   -4.2110   23.8040 C   0  0  0  0  0  3  0  0  0  0  0  0
  -22.0890   -4.9580   22.6210 C   0  0  0  0  0  0  0  0  0  0  0  0
  -22.5380   -4.3530   21.4940 F   0  0  0  0  0  0  0  0  0  0  0  0
  -21.3190   -4.1060   26.1060 F   0  0  0  0  0  0  0  0  0  0  0  0
  -23.0930  -13.6190   21.0440 C   0  0  0  0  0  0  0  0  0  0  0  0
  -22.4210  -12.9490   21.9760 N   0  0  0  0  0  0  0  0  0  0  0  0
  -22.6390  -14.6520   20.5540 O   0  0  0  0  0  0  0  0  0  0  0  0
  -22.8030  -12.1160   22.3980 H   0  0  0  0  0  0  0  0  0  0  0  0
  -21.5140  -13.2810   22.2720 H   0  0  0  0  0  0  0  0  0  0  0  0
  -25.6980  -15.2120   20.0270 N   0  0  0  0  0  0  0  0  0  0  0  0
  -24.9490  -15.8780   20.1790 H   0  0  0  0  0  0  0  0  0  0  0  0
  -26.5080  -15.6190   19.5740 H   0  0  0  0  0  0  0  0  0  0  0  0
  -27.4150  -22.4110   19.9000 C   0  0  0  0  0  2  0  0  0  0  0  0
  -28.2190  -23.7330   20.1070 C   0  0  0  0  0  0  0  0  0  0  0  0
  -29.1440  -23.7610   20.9270 O   0  0  0  0  0  0  0  0  0  0  0  0
  -27.8300  -24.9900   19.2630 C   0  0  0  0  0  2  0  0  0  0  0  0
  -27.9240  -26.2890   19.9480 O   0  0  0  0  0  0  0  0  0  0  0  0
  -24.6370  -31.7320   23.3580 C   0  0  0  0  0  0  0  0  0  0  0  0
  -26.8200  -27.1420   20.0190 C   0  0  0  0  0  0  0  0  0  0  0  0
  -23.2870  -30.4750   21.7200 C   0  0  0  0  0  3  0  0  0  0  0  0
  -24.5670  -28.8770   20.2040 C   0  0  0  0  0  0  0  0  0  0  0  0
  -25.8340  -30.6240   21.4550 C   0  0  0  0  0  2  0  0  0  0  0  0
  -25.7910  -29.2690   20.7620 C   0  0  0  0  0  0  0  0  0  0  0  0
  -26.9200  -28.4090   20.6680 C   0  0  0  0  0  3  0  0  0  0  0  0
  -25.5620  -26.7780   19.4850 C   0  0  0  0  0  3  0  0  0  0  0  0
  -24.4530  -27.6350   19.5670 C   0  0  0  0  0  3  0  0  0  0  0  0
  -23.3990  -29.8330   20.3150 C   0  0  0  0  0  2  0  0  0  0  0  0
  -24.6090  -30.9560   22.2350 N   0  0  0  0  0  0  0  0  0  0  0  0
  -23.5940  -32.0630   23.9380 O   0  0  0  0  0  0  0  0  0  0  0  0
  -22.5830  -29.4790   22.6750 C   0  0  0  0  0  0  0  0  0  0  0  0
  -21.2590  -29.3180   22.5200 N   0  0  0  0  0  0  0  0  0  0  0  0
  -23.2330  -28.8490   23.5140 O   0  0  0  0  0  0  0  0  0  0  0  0
  -20.7870  -29.8950   21.8380 H   0  0  0  0  0  0  0  0  0  0  0  0
  -17.8920  -28.0180   22.8490 C   0  0  0  0  0  0  0  0  0  0  0  0
  -20.4190  -28.3700   23.2550 C   0  0  0  0  0  3  0  0  0  0  0  0
  -20.6150  -26.9290   22.7220 C   0  0  0  0  0  2  0  0  0  0  0  0
  -19.5530  -26.4940   21.7020 C   0  0  0  0  0  2  0  0  0  0  0  0
  -18.1380  -26.6360   22.2640 C   0  0  0  0  0  2  0  0  0  0  0  0
  -18.9610  -28.8330   23.3040 C   0  0  0  0  0  0  0  0  0  0  0  0
  -18.6720  -30.1160   23.8170 C   0  0  0  0  0  3  0  0  0  0  0  0
  -17.3500  -30.5900   23.8750 C   0  0  0  0  0  3  0  0  0  0  0  0
  -16.2940  -29.7750   23.4310 C   0  0  0  0  0  3  0  0  0  0  0  0
  -16.5660  -28.4900   22.9320 C   0  0  0  0  0  3  0  0  0  0  0  0
  -25.9780  -32.2580   23.9510 C   0  0  0  0  0  3  0  0  0  0  0  0
  -25.7770  -33.6640   24.3300 N   0  0  0  0  0  0  0  0  0  0  0  0
  -26.1570  -34.7140   23.5890 C   0  0  0  0  0  0  0  0  0  0  0  0
  -26.7830  -34.5950   22.5330 O   0  0  0  0  0  0  0  0  0  0  0  0
  -25.2220  -33.8360   25.1550 H   0  0  0  0  0  0  0  0  0  0  0  0
  -24.5380  -36.6240   23.3500 C   0  0  0  0  0  1  0  0  0  0  0  0
  -25.7810  -36.1180   24.0980 C   0  0  0  0  0  3  0  0  0  0  0  0
  -27.9990  -36.8420   24.8690 C   0  0  0  0  0  1  0  0  0  0  0  0
  -26.8790  -37.1020   23.9690 N   0  0  0  0  0  0  0  0  0  0  0  0
  -26.5420  -38.0440   24.1460 H   0  0  0  0  0  0  0  0  0  0  0  0
  -26.4830  -31.4150   25.1870 C   0  0  1  0  0  0  0  0  0  0  0  0
  -25.4160  -31.2160   26.2870 C   0  0  0  0  0  1  0  0  0  0  0  0
  -26.9620  -30.0160   24.7370 C   0  0  0  0  0  1  0  0  0  0  0  0
  -27.7080  -32.1110   25.8280 C   0  0  0  0  0  1  0  0  0  0  0  0
  1  8  1  0
  2  1  2  0
  3  6  1  0
  4  3  2  0
  4  2  1  0
  5  3  1  0
  5 50  1  0
  6  1  1  0
  7  5  1  0
  8 10  2  0
  8  9  1  0
 11 20  1  0
 11  2  1  0
 12 18  1  0
 12 20  1  0
 13 18  1  0
 14 15  1  0
 14 13  1  0
 16 15  1  0
 16 25  1  0
 16 17  1  0
 18 17  1  0
 19 12  2  0
 20 21  1  0
 22 23  2  0
 23 42  1  0
 24 23  1  0
 24 27  1  0
 25 26  1  0
 25 22  1  0
 26 24  2  0
 27 28  1  0
 28 29  2  0
 30 33  1  0
 30 29  1  0
 31 30  2  0
 32 31  1  0
 32 27  2  0
 33 34  1  0
 34 39  2  0
 34 35  1  0
 35 36  2  0
 36 37  1  0
 37 41  1  0
 38 37  2  0
 39 38  1  0
 40 39  1  0
 42 43  1  0
 43 46  1  0
 43 45  1  0
 44 42  2  0
 47 48  1  0
 47 22  1  0
 49 47  1  0
 50 51  1  0
 51 52  2  0
 53 54  1  0
 53 51  1  0
 54 56  1  0
 55 66  2  0
 56 61  1  0
 57 65  1  0
 57 67  1  0
 58 64  1  0
 58 60  1  0
 59 65  1  0
 60 59  1  0
 61 60  2  0
 62 63  1  0
 62 56  2  0
 63 58  2  0
 64 57  1  0
 65 55  1  0
 67 69  2  0
 68 67  1  0
 70 68  1  0
 71 80  2  0
 71 76  1  0
 72 68  1  0
 72 76  1  0
 73 72  1  0
 74 75  1  0
 74 73  1  0
 75 71  1  0
 76 77  2  0
 77 78  1  0
 79 78  2  0
 80 79  1  0
 81 55  1  0
 81 82  1  0
 81 91  1  0
 82 85  1  0
 83 87  1  0
 83 82  1  0
 84 83  2  0
 87 86  1  0
 89 87  1  0
 89 90  1  0
 89 88  1  0
 91 94  1  1
 91 92  1  0
 93 91  1  0
M  ISO  4  12 100  20 100  53 101  54 101
M  END
>  <TORSDO>  (51) 
F 21

>  <SCORE>  (51) 
-12.652

>  <name>  (51) 
50

>  <ligand_id>  (51) 
50

>  <original_smiles>  (51) 
[H]c1c([H])c([H])c2c(c1[H])C([H])([H])C([H])([H])C([H])([H])C2([H])N([H])C(=O)C1([H])N(C(=O)C([H])(N([H])C(=O)C([H])(N([H])C([H])([H])[H])C([H])([H])[H])C(C([H])([H])[H])(C([H])([H])[H])C([H])([H])[H])C([H])([H])c2c([H])c(OC([H])([H])C(=O)C([H])([H])N([H])c3nc(C([H])([H])N([H])C(=O)N4C([H])([H])C([H])([H])C([H])([H])C([H])(n5nc(-c6c([H])c([H])c(Oc7c([H])c([H])c(F)c([H])c7F)c([H])c6[H])c(C(=O)N([H])[H])c5N([H])[H])C4([H])[H])c(C(=O)C([H])([H])[H])o3)c([H])c([H])c2C1([H])[H]

>  <smiles>  (51) 
[H]c1c([H])c([H])c2c(c1[H])C([H])([H])C([H])([H])C([H])([H])C2([H])N([H])C(=O)C1([H])N(C(=O)C([H])(N([H])C(=O)C([H])(N([H])C([H])([H])[H])C([H])([H])[H])C(C([H])([H])[H])(C([H])([H])[H])C([H])([H])[H])C([H])([H])c2c([H])c(OC([H])([H])C(=O)C([H])([H])N([H])c3nc(C([H])([H])N([H])C(=O)N4C([H])([H])C([H])([H])C([H])([H])C([H])(n5nc(-c6c([H])c([H])c(Oc7c([H])c([H])c(F)c([H])c7F)c([H])c6[H])c(C(=O)N([H])[H])c5N([H])[H])C4([H])[H])c(C(=O)C([H])([H])[H])o3)c([H])c([H])c2C1([H])[H]

$$$$
51:0:0
     RDKit          3D

 98106  0  0  1  0  0  0  0  0999 V2000
  -29.5910  -20.4910   20.0510 C   0  0  0  0  0  3  0  0  0  0  0  0
  -31.1310  -15.0550   19.3430 C   0  0  0  0  0  0  0  0  0  0  0  0
  -30.9380  -12.6850   18.3740 C   0  0  0  0  0  2  0  0  0  0  0  0
  -29.7940  -12.6190   17.3290 C   0  0  0  0  0  2  0  0  0  0  0  0
  -28.4300  -12.3900   18.0100 C   0  0  0  0  0  2  0  0  0  0  0  0
  -28.2290  -13.3080   19.2460 C   0  0  0  0  0  3  0  0  0  0  0  0
  -29.4680  -13.2850   20.1720 C   0  0  0  0  0  2  0  0  0  0  0  0
  -30.6180  -13.7500   19.3740 N   0  0  0  0  0  0  0  0  0  0  0  0
  -32.2020  -15.2460   18.7440 O   0  0  0  0  0  0  0  0  0  0  0  0
  -29.8930  -17.6100   20.1610 C   0  0  0  0  0  3  0  0  0  0  0  0
  -30.2540  -16.2020   19.9440 N   0  0  0  0  0  0  0  0  0  0  0  0
  -30.2270  -18.9830   19.7440 N   0  0  0  0  0  0  0  0  0  0  0  0
  -29.5030  -15.7680   20.4490 H   0  0  0  0  0  0  0  0  0  0  0  0
  -30.9980  -19.0370   19.0930 H   0  0  0  0  0  0  0  0  0  0  0  0
  -26.0800  -13.9090   20.5010 C   0  0  0  0  0  0  0  0  0  0  0  0
  -25.0660  -13.1540   21.0140 C   0  0  0  0  0  0  0  0  0  0  0  0
  -25.4140  -11.7960   20.7380 C   0  0  0  0  0  0  0  0  0  0  0  0
  -26.9940  -13.0180   19.9660 N   0  0  0  0  0  0  0  0  0  0  0  0
  -26.6110  -11.7320   20.1630 N   0  0  0  0  0  0  0  0  0  0  0  0
  -24.6480  -10.5610   20.9360 C   0  0  0  0  0  0  0  0  0  0  0  0
  -25.0750   -9.5610   21.8360 C   0  0  0  0  0  3  0  0  0  0  0  0
  -24.3110   -8.3900   22.0200 C   0  0  0  0  0  3  0  0  0  0  0  0
  -23.1020   -8.2110   21.3070 C   0  0  0  0  0  0  0  0  0  0  0  0
  -22.6920   -9.1980   20.3940 C   0  0  0  0  0  3  0  0  0  0  0  0
  -23.4590  -10.3610   20.2070 C   0  0  0  0  0  3  0  0  0  0  0  0
  -22.3080   -7.0940   21.4060 O   0  0  0  0  0  0  0  0  0  0  0  0
  -22.0740   -6.4790   22.6100 C   0  0  0  0  0  0  0  0  0  0  0  0
  -21.4850   -7.1670   23.6920 C   0  0  0  0  0  3  0  0  0  0  0  0
  -21.1990   -6.4810   24.8890 C   0  0  0  0  0  3  0  0  0  0  0  0
  -21.4920   -5.1090   25.0030 C   0  0  0  0  0  0  0  0  0  0  0  0
  -22.0720   -4.4210   23.9220 C   0  0  0  0  0  3  0  0  0  0  0  0
  -22.3590   -5.1040   22.7280 C   0  0  0  0  0  0  0  0  0  0  0  0
  -22.9010   -4.4330   21.6820 F   0  0  0  0  0  0  0  0  0  0  0  0
  -21.2090   -4.4460   26.1480 F   0  0  0  0  0  0  0  0  0  0  0  0
  -23.7940  -13.6660   21.6210 C   0  0  0  0  0  0  0  0  0  0  0  0
  -23.2290  -12.9330   22.5720 N   0  0  0  0  0  0  0  0  0  0  0  0
  -23.3170  -14.7510   21.2800 O   0  0  0  0  0  0  0  0  0  0  0  0
  -23.6360  -12.0600   22.8690 H   0  0  0  0  0  0  0  0  0  0  0  0
  -22.3760  -13.2480   23.0130 H   0  0  0  0  0  0  0  0  0  0  0  0
  -26.2880  -15.2800   20.4180 N   0  0  0  0  0  0  0  0  0  0  0  0
  -25.5190  -15.8870   20.6750 H   0  0  0  0  0  0  0  0  0  0  0  0
  -26.8660  -15.6830   19.6940 H   0  0  0  0  0  0  0  0  0  0  0  0
  -27.4490  -18.1500   20.7760 C   0  0  0  0  0  1  0  0  0  0  0  0
  -29.2920  -17.7380   22.6070 C   0  0  0  0  0  1  0  0  0  0  0  0
  -28.7670  -17.4780   21.1840 C   0  0  0  0  0  3  0  0  0  0  0  0
  -31.5300  -21.5110   23.1930 C   0  0  0  0  0  3  0  0  0  0  0  0
  -31.2530  -20.9440   21.9380 C   0  0  0  0  0  3  0  0  0  0  0  0
  -30.4930  -22.1330   23.9020 C   0  0  0  0  0  3  0  0  0  0  0  0
  -29.9400  -21.0220   21.4350 C   0  0  0  0  0  0  0  0  0  0  0  0
  -28.9720  -21.7000   22.2080 C   0  0  0  0  0  0  0  0  0  0  0  0
  -29.2370  -22.2240   23.4210 N   0  0  0  0  0  0  0  0  0  0  0  0
  -27.7200  -21.8850   21.7210 F   0  0  0  0  0  0  0  0  0  0  0  0
  -29.3010  -23.1800   18.8900 C   0  0  0  0  0  3  0  0  0  0  0  0
  -29.7600  -21.8020   19.0330 C   0  0  0  0  0  0  0  0  0  0  0  0
  -30.7140  -21.3390   17.9410 C   0  0  0  0  0  1  0  0  0  0  0  0
  -28.6440  -24.6050   21.0250 C   0  0  0  0  0  1  0  0  0  0  0  0
  -28.3730  -24.4220   19.5270 C   0  0  0  0  0  3  0  0  0  0  0  0
  -28.5150  -25.9500   19.0970 O   0  0  0  0  0  0  0  0  0  0  0  0
  -24.8560  -31.1640   23.0030 C   0  0  0  0  0  0  0  0  0  0  0  0
  -27.4550  -26.9370   19.2710 C   0  0  0  0  0  0  0  0  0  0  0  0
  -23.6570  -29.9980   21.2010 C   0  0  0  0  0  3  0  0  0  0  0  0
  -25.1060  -28.6590   19.5470 C   0  0  0  0  0  0  0  0  0  0  0  0
  -26.2050  -30.3130   21.0470 C   0  0  0  0  0  2  0  0  0  0  0  0
  -26.2950  -29.0250   20.1940 C   0  0  0  0  0  0  0  0  0  0  0  0
  -27.4720  -28.1850   20.0380 C   0  0  0  0  0  3  0  0  0  0  0  0
  -26.2340  -26.6920   18.6120 C   0  0  0  0  0  3  0  0  0  0  0  0
  -25.0910  -27.5100   18.7410 C   0  0  0  0  0  3  0  0  0  0  0  0
  -23.8730  -29.5310   19.7390 C   0  0  0  0  0  2  0  0  0  0  0  0
  -24.9280  -30.5000   21.8100 N   0  0  0  0  0  0  0  0  0  0  0  0
  -23.7730  -31.3590   23.5760 O   0  0  0  0  0  0  0  0  0  0  0  0
  -23.0010  -28.8510   22.0140 C   0  0  0  0  0  0  0  0  0  0  0  0
  -21.6750  -28.6730   21.8740 N   0  0  0  0  0  0  0  0  0  0  0  0
  -23.6880  -28.1280   22.7370 O   0  0  0  0  0  0  0  0  0  0  0  0
  -21.1660  -29.3280   21.2990 H   0  0  0  0  0  0  0  0  0  0  0  0
  -18.3370  -27.2950   22.1550 C   0  0  0  0  0  0  0  0  0  0  0  0
  -20.8800  -27.6160   22.5050 C   0  0  0  0  0  3  0  0  0  0  0  0
  -21.0470  -26.2680   21.7610 C   0  0  0  0  0  2  0  0  0  0  0  0
  -19.9730  -26.0280   20.6920 C   0  0  0  0  0  2  0  0  0  0  0  0
  -18.5730  -26.0460   21.3210 C   0  0  0  0  0  2  0  0  0  0  0  0
  -19.4210  -28.0410   22.6900 C   0  0  0  0  0  0  0  0  0  0  0  0
  -19.1470  -29.2170   23.4180 C   0  0  0  0  0  3  0  0  0  0  0  0
  -17.8230  -29.6490   23.6250 C   0  0  0  0  0  3  0  0  0  0  0  0
  -16.7530  -28.8970   23.1090 C   0  0  0  0  0  3  0  0  0  0  0  0
  -17.0100  -27.7200   22.3800 C   0  0  0  0  0  3  0  0  0  0  0  0
  -26.1350  -31.7280   23.7010 C   0  0  0  0  0  3  0  0  0  0  0  0
  -26.6730  -30.7920   24.8510 C   0  0  1  0  0  0  0  0  0  0  0  0
  -25.5990  -30.4020   25.8910 C   0  0  0  0  0  1  0  0  0  0  0  0
  -27.2620  -29.4830   24.2750 C   0  0  0  0  0  1  0  0  0  0  0  0
  -27.8260  -31.4970   25.6040 C   0  0  0  0  0  1  0  0  0  0  0  0
  -25.8050  -33.0590   24.2350 N   0  0  0  0  0  0  0  0  0  0  0  0
  -26.1610  -34.2200   23.6710 C   0  0  0  0  0  0  0  0  0  0  0  0
  -26.8660  -34.2840   22.6610 O   0  0  0  0  0  0  0  0  0  0  0  0
  -25.1900  -33.0870   25.0350 H   0  0  0  0  0  0  0  0  0  0  0  0
  -24.4490  -36.0580   23.5550 C   0  0  0  0  0  1  0  0  0  0  0  0
  -25.6570  -35.5170   24.3360 C   0  0  0  0  0  3  0  0  0  0  0  0
  -27.7520  -36.2470   25.3910 C   0  0  0  0  0  1  0  0  0  0  0  0
  -26.6910  -36.5690   24.4370 N   0  0  0  0  0  0  0  0  0  0  0  0
  -26.2750  -37.4530   24.7140 H   0  0  0  0  0  0  0  0  0  0  0  0
  1 54  1  0
  1 49  1  0
  2  8  1  0
  2 11  1  0
  3  8  1  0
  4  5  1  0
  4  3  1  0
  6  5  1  0
  6 18  1  0
  6  7  1  0
  8  7  1  0
  9  2  2  0
 10 45  1  0
 11 10  1  0
 11 13  1  0
 12  1  1  0
 12 10  1  0
 14 12  1  0
 15 16  2  0
 16 35  1  0
 17 20  1  0
 17 16  1  0
 18 19  1  0
 18 15  1  0
 19 17  2  0
 20 21  1  0
 21 22  2  0
 23 26  1  0
 23 22  1  0
 24 23  2  0
 25 24  1  0
 25 20  2  0
 26 27  1  0
 27 32  2  0
 27 28  1  0
 28 29  2  0
 29 30  1  0
 30 34  1  0
 31 30  2  0
 32 31  1  0
 33 32  1  0
 35 36  1  0
 36 38  1  0
 36 39  1  0
 37 35  2  0
 40 15  1  0
 40 41  1  0
 42 40  1  0
 43 45  1  0
 45 44  1  0
 46 48  1  0
 47 46  2  0
 49 47  1  0
 49 50  2  0
 50 51  1  0
 51 48  2  0
 52 50  1  0
 53 54  2  0
 53 57  1  0
 55 54  1  0
 57 56  1  0
 58 60  1  0
 58 57  1  0
 59 70  2  0
 60 65  1  0
 61 69  1  0
 61 71  1  0
 62 68  1  0
 62 64  1  0
 63 69  1  0
 64 63  1  0
 65 64  2  0
 66 67  1  0
 66 60  2  0
 67 62  2  0
 68 61  1  0
 69 59  1  0
 71 73  2  0
 72 71  1  0
 74 72  1  0
 75 84  2  0
 75 80  1  0
 76 72  1  0
 76 80  1  0
 77 76  1  0
 78 79  1  0
 78 77  1  0
 79 75  1  0
 80 81  2  0
 81 82  1  0
 83 82  2  0
 84 83  1  0
 85 59  1  0
 85 90  1  0
 85 86  1  0
 86 89  1  1
 86 87  1  0
 88 86  1  0
 90 93  1  0
 91 90  1  0
 91 95  1  0
 92 91  2  0
 95 94  1  0
 95 97  1  0
 97 98  1  0
 97 96  1  0
M  ISO  4   2 100  11 100  57 101  58 101
M  END
>  <TORSDO>  (52) 
F 20

>  <SCORE>  (52) 
-7.913

>  <name>  (52) 
51

>  <ligand_id>  (52) 
51

>  <original_smiles>  (52) 
[H]C(=C(C([H])([H])[H])C([H])(c1c(F)nc([H])c([H])c1[H])[N+]([H])=C(N([H])C(=O)N1C([H])([H])C([H])([H])C([H])([H])C([H])(n2nc(-c3c([H])c([H])c(Oc4c([H])c([H])c(F)c([H])c4F)c([H])c3[H])c(C(=O)N([H])[H])c2N([H])[H])C1([H])[H])C([H])(C([H])([H])[H])C([H])([H])[H])C([H])(Oc1c([H])c([H])c2c(c1[H])C([H])([H])N(C(=O)C([H])(N([H])C(=O)C([H])(N([H])C([H])([H])[H])C([H])([H])[H])C(C([H])([H])[H])(C([H])([H])[H])C([H])([H])[H])C([H])(C(=O)N([H])C1([H])c3c([H])c([H])c([H])c([H])c3C([H])([H])C([H])([H])C1([H])[H])C2([H])[H])C([H])([H])[H]

>  <smiles>  (52) 
[H]C(=C(C([H])([H])[H])C([H])(c1c(F)nc([H])c([H])c1[H])[N+]([H])=C(N([H])C(=O)N1C([H])([H])C([H])([H])C([H])([H])C([H])(n2nc(-c3c([H])c([H])c(Oc4c([H])c([H])c(F)c([H])c4F)c([H])c3[H])c(C(=O)N([H])[H])c2N([H])[H])C1([H])[H])C([H])(C([H])([H])[H])C([H])([H])[H])C([H])(Oc1c([H])c([H])c2c(c1[H])C([H])([H])N(C(=O)C([H])(N([H])C(=O)C([H])(N([H])C([H])([H])[H])C([H])([H])[H])C(C([H])([H])[H])(C([H])([H])[H])C([H])([H])[H])C([H])(C(=O)N([H])C1([H])c3c([H])c([H])c([H])c([H])c3C([H])([H])C([H])([H])C1([H])[H])C2([H])[H])C([H])([H])[H]

$$$$
52:0:0
     RDKit          3D

103111  0  0  1  0  0  0  0  0999 V2000
  -28.5230  -20.5260   21.3170 N   0  0  0  0  0  0  0  0  0  0  0  0
  -27.5400  -20.6420   21.0820 H   0  0  0  0  0  0  0  0  0  0  0  0
  -29.7060  -18.3400   21.1560 C   0  0  0  0  0  3  0  0  0  0  0  0
  -28.8910  -19.4120   19.1160 C   0  0  0  0  0  0  0  0  0  0  0  0
  -29.4430  -18.3350   18.3490 C   0  0  0  0  0  0  0  0  0  0  0  0
  -30.1440  -17.2770   19.0030 C   0  0  0  0  0  0  0  0  0  0  0  0
  -29.1100  -19.4810   20.5270 C   0  0  0  0  0  0  0  0  0  0  0  0
  -30.1730  -17.1920   20.4290 C   0  0  0  0  0  0  0  0  0  0  0  0
  -30.7630  -16.1950   18.1350 C   0  0  0  0  0  1  0  0  0  0  0  0
  -31.1860  -14.8430   20.8740 C   0  0  0  0  0  0  0  0  0  0  0  0
  -31.0390  -12.5800   19.8580 C   0  0  0  0  0  2  0  0  0  0  0  0
  -30.1980  -12.6520   18.5600 C   0  0  0  0  0  2  0  0  0  0  0  0
  -28.6780  -12.6340   18.8480 C   0  0  0  0  0  2  0  0  0  0  0  0
  -28.2500  -13.5210   20.0490 C   0  0  0  0  0  3  0  0  0  0  0  0
  -29.2000  -13.3160   21.2480 C   0  0  0  0  0  2  0  0  0  0  0  0
  -30.5640  -13.6240   20.7880 N   0  0  0  0  0  0  0  0  0  0  0  0
  -32.3800  -14.9840   20.5910 O   0  0  0  0  0  0  0  0  0  0  0  0
  -30.3730  -15.9150   21.1290 N   0  0  0  0  0  0  0  0  0  0  0  0
  -29.5380  -15.6170   21.6060 H   0  0  0  0  0  0  0  0  0  0  0  0
  -25.8270  -14.2300   20.5310 C   0  0  0  0  0  0  0  0  0  0  0  0
  -24.6980  -13.5050   20.7980 C   0  0  0  0  0  0  0  0  0  0  0  0
  -25.1050  -12.1350   20.8110 C   0  0  0  0  0  0  0  0  0  0  0  0
  -26.8510  -13.3060   20.4040 N   0  0  0  0  0  0  0  0  0  0  0  0
  -26.4140  -12.0410   20.6320 N   0  0  0  0  0  0  0  0  0  0  0  0
  -24.3150  -10.9030   20.9310 C   0  0  0  0  0  0  0  0  0  0  0  0
  -24.6430   -9.9080   21.8780 C   0  0  0  0  0  3  0  0  0  0  0  0
  -23.8620   -8.7390   21.9870 C   0  0  0  0  0  3  0  0  0  0  0  0
  -22.7370   -8.5560   21.1500 C   0  0  0  0  0  0  0  0  0  0  0  0
  -22.4280   -9.5380   20.1940 C   0  0  0  0  0  3  0  0  0  0  0  0
  -23.2080  -10.6990   20.0830 C   0  0  0  0  0  3  0  0  0  0  0  0
  -21.9340   -7.4400   21.1690 O   0  0  0  0  0  0  0  0  0  0  0  0
  -21.7680   -6.6940   22.3070 C   0  0  0  0  0  0  0  0  0  0  0  0
  -21.2660   -7.2570   23.5010 C   0  0  0  0  0  3  0  0  0  0  0  0
  -21.0470   -6.4410   24.6280 C   0  0  0  0  0  3  0  0  0  0  0  0
  -21.3180   -5.0600   24.5620 C   0  0  0  0  0  0  0  0  0  0  0  0
  -21.8120   -4.4960   23.3710 C   0  0  0  0  0  3  0  0  0  0  0  0
  -22.0340   -5.3110   22.2470 C   0  0  0  0  0  0  0  0  0  0  0  0
  -22.4910   -4.7580   21.0970 F   0  0  0  0  0  0  0  0  0  0  0  0
  -21.0970   -4.2740   25.6400 F   0  0  0  0  0  0  0  0  0  0  0  0
  -23.3020  -14.0390   20.9370 C   0  0  0  0  0  0  0  0  0  0  0  0
  -22.4710  -13.3870   21.7430 N   0  0  0  0  0  0  0  0  0  0  0  0
  -22.9520  -15.0730   20.3650 O   0  0  0  0  0  0  0  0  0  0  0  0
  -22.7610  -12.5500   22.2300 H   0  0  0  0  0  0  0  0  0  0  0  0
  -21.5310  -13.7320   21.8770 H   0  0  0  0  0  0  0  0  0  0  0  0
  -26.0710  -15.5910   20.3600 N   0  0  0  0  0  0  0  0  0  0  0  0
  -25.3360  -16.2880   20.4090 H   0  0  0  0  0  0  0  0  0  0  0  0
  -26.9640  -15.9740   20.0750 H   0  0  0  0  0  0  0  0  0  0  0  0
  -27.9110  -20.3540   18.4810 C   0  0  0  0  0  0  0  0  0  0  0  0
  -28.3960  -21.2670   17.3650 C   0  0  0  0  0  1  0  0  0  0  0  0
  -26.7390  -20.4550   18.8530 O   0  0  0  0  0  0  0  0  0  0  0  0
  -30.1800  -18.8980   15.9010 C   0  0  0  0  0  1  0  0  0  0  0  0
  -29.1560  -18.2120   16.8310 C   0  0  0  0  0  2  0  0  0  0  0  0
  -29.1150  -21.8710   21.6100 C   0  0  0  0  0  2  0  0  0  0  0  0
  -29.3060  -22.8970   20.4410 C   0  0  0  0  0  0  0  0  0  0  0  0
  -30.2180  -22.6530   19.6440 O   0  0  0  0  0  0  0  0  0  0  0  0
  -26.8920  -23.8030   20.3810 C   0  0  0  0  0  1  0  0  0  0  0  0
  -28.3870  -24.1690   20.1770 C   0  0  2  0  0  0  0  0  0  0  0  0
  -28.6750  -24.4660   18.7570 N   0  0  0  0  0  4  0  0  0  0  0  0
  -27.9470  -24.1810   18.1310 H   0  0  0  0  0  0  0  0  0  0  0  0
  -29.5100  -23.9340   18.5460 H   0  0  0  0  0  0  0  0  0  0  0  0
  -28.8870  -25.4470   18.6440 H   0  0  0  0  0  0  0  0  0  0  0  0
  -28.7130  -25.5090   20.9580 C   0  0  0  0  0  2  0  0  0  0  0  0
  -28.5780  -26.7770   20.2160 O   0  0  0  0  0  0  0  0  0  0  0  0
  -24.6630  -31.9670   23.3050 C   0  0  0  0  0  0  0  0  0  0  0  0
  -27.3980  -27.5180   20.2650 C   0  0  0  0  0  0  0  0  0  0  0  0
  -23.4990  -30.5500   21.6460 C   0  0  0  0  0  3  0  0  0  0  0  0
  -24.9920  -29.0420   20.2350 C   0  0  0  0  0  0  0  0  0  0  0  0
  -26.0270  -30.9350   21.4860 C   0  0  0  0  0  2  0  0  0  0  0  0
  -26.1400  -29.5610   20.8480 C   0  0  0  0  0  0  0  0  0  0  0  0
  -27.3440  -28.8070   20.8610 C   0  0  0  0  0  3  0  0  0  0  0  0
  -26.2340  -27.0490   19.6180 C   0  0  0  0  0  3  0  0  0  0  0  0
  -25.0390  -27.7890   19.6110 C   0  0  0  0  0  3  0  0  0  0  0  0
  -23.7360  -29.8840   20.2680 C   0  0  0  0  0  2  0  0  0  0  0  0
  -24.7480  -31.1640   22.2040 N   0  0  0  0  0  0  0  0  0  0  0  0
  -23.5710  -32.2240   23.8300 O   0  0  0  0  0  0  0  0  0  0  0  0
  -22.8520  -29.5160   22.5930 C   0  0  0  0  0  0  0  0  0  0  0  0
  -21.5340  -29.3060   22.4410 N   0  0  0  0  0  0  0  0  0  0  0  0
  -23.5360  -28.9040   23.4180 O   0  0  0  0  0  0  0  0  0  0  0  0
  -21.0400  -29.8520   21.7490 H   0  0  0  0  0  0  0  0  0  0  0  0
  -18.1740  -28.0540   22.8980 C   0  0  0  0  0  0  0  0  0  0  0  0
  -20.7240  -28.3470   23.1940 C   0  0  0  0  0  3  0  0  0  0  0  0
  -20.8550  -26.9240   22.6050 C   0  0  0  0  0  2  0  0  0  0  0  0
  -19.7670  -26.5960   21.5770 C   0  0  0  0  0  2  0  0  0  0  0  0
  -18.3770  -26.7140   22.2080 C   0  0  0  0  0  2  0  0  0  0  0  0
  -19.2770  -28.8290   23.3460 C   0  0  0  0  0  0  0  0  0  0  0  0
  -19.0350  -30.0820   23.9490 C   0  0  0  0  0  3  0  0  0  0  0  0
  -17.7220  -30.5650   24.1030 C   0  0  0  0  0  3  0  0  0  0  0  0
  -16.6340  -29.7880   23.6720 C   0  0  0  0  0  3  0  0  0  0  0  0
  -16.8610  -28.5350   23.0730 C   0  0  0  0  0  3  0  0  0  0  0  0
  -25.9350  -32.6110   23.9410 C   0  0  0  0  0  3  0  0  0  0  0  0
  -26.4330  -31.8600   25.2340 C   0  0  1  0  0  0  0  0  0  0  0  0
  -25.3110  -31.5910   26.2630 C   0  0  0  0  0  1  0  0  0  0  0  0
  -27.0720  -30.5010   24.8640 C   0  0  0  0  0  1  0  0  0  0  0  0
  -27.5370  -32.6890   25.9300 C   0  0  0  0  0  1  0  0  0  0  0  0
  -25.6140  -34.0130   24.2450 N   0  0  0  0  0  0  0  0  0  0  0  0
  -25.9450  -35.0540   23.4680 C   0  0  0  0  0  0  0  0  0  0  0  0
  -26.6250  -34.9370   22.4460 O   0  0  0  0  0  0  0  0  0  0  0  0
  -25.0200  -34.1790   25.0440 H   0  0  0  0  0  0  0  0  0  0  0  0
  -24.1950  -36.8120   23.0710 C   0  0  0  0  0  1  0  0  0  0  0  0
  -25.4390  -36.4460   23.8950 C   0  0  0  0  0  3  0  0  0  0  0  0
  -27.5600  -37.3740   24.7130 C   0  0  0  0  0  1  0  0  0  0  0  0
  -26.4600  -37.5090   23.7610 N   0  0  0  0  0  0  0  0  0  0  0  0
  -26.0410  -38.4260   23.8920 H   0  0  0  0  0  0  0  0  0  0  0  0
  1 53  1  0
  2  1  1  0
  4  7  2  0
  5  6  2  0
  5  4  1  0
  6  8  1  0
  7  3  1  0
  7  1  1  0
  8 18  1  0
  8  3  2  0
  9  6  1  0
 10 18  1  0
 11 16  1  0
 12 13  1  0
 12 11  1  0
 14 13  1  0
 14 23  1  0
 14 15  1  0
 16 10  1  0
 16 15  1  0
 17 10  2  0
 18 19  1  0
 20 21  2  0
 21 22  1  0
 21 40  1  0
 22 25  1  0
 23 20  1  0
 23 24  1  0
 24 22  2  0
 25 26  1  0
 26 27  2  0
 28 31  1  0
 28 27  1  0
 29 28  2  0
 30 29  1  0
 30 25  2  0
 31 32  1  0
 32 33  1  0
 33 34  2  0
 35 34  1  0
 35 39  1  0
 36 35  2  0
 37 32  2  0
 37 36  1  0
 38 37  1  0
 40 41  1  0
 41 44  1  0
 41 43  1  0
 42 40  2  0
 45 46  1  0
 45 20  1  0
 47 45  1  0
 48 50  2  0
 48  4  1  0
 49 48  1  0
 51 52  1  0
 52  5  1  0
 54 53  1  0
 55 54  2  0
 57 56  1  6
 57 54  1  0
 57 62  1  0
 58 57  1  0
 59 58  1  0
 60 58  1  0
 61 58  1  0
 63 65  1  0
 63 62  1  0
 64 75  2  0
 65 70  1  0
 66 74  1  0
 66 76  1  0
 67 73  1  0
 67 69  1  0
 68 74  1  0
 69 70  2  0
 69 68  1  0
 71 65  2  0
 72 71  1  0
 72 67  2  0
 73 66  1  0
 74 64  1  0
 76 78  2  0
 77 76  1  0
 79 77  1  0
 80 89  2  0
 80 85  1  0
 81 77  1  0
 81 85  1  0
 82 81  1  0
 83 84  1  0
 83 82  1  0
 84 80  1  0
 85 86  2  0
 86 87  1  0
 88 87  2  0
 89 88  1  0
 90 64  1  0
 90 95  1  0
 90 91  1  0
 91 94  1  1
 91 92  1  0
 93 91  1  0
 95 98  1  0
 96100  1  0
 96 95  1  0
 97 96  2  0
100 99  1  0
102103  1  0
102100  1  0
102101  1  0
M  ISO  4  10 100  18 100  62 101  63 101
M  END
>  <TORSDO>  (53) 
F 24

>  <SCORE>  (53) 
-12.178

>  <name>  (53) 
52

>  <ligand_id>  (53) 
52

>  <original_smiles>  (53) 
[H]c1c([H])c([H])c2c(c1[H])C([H])([H])C([H])([H])C([H])([H])C2([H])N([H])C(=O)C1([H])N(C(=O)C([H])(N([H])C(=O)C([H])(N([H])C([H])([H])[H])C([H])([H])[H])C(C([H])([H])[H])(C([H])([H])[H])C([H])([H])[H])C([H])([H])c2c([H])c(OC([H])([H])C(C(=O)C([H])([H])N([H])c3c([H])c(N([H])C(=O)N4C([H])([H])C([H])([H])C([H])([H])C([H])(n5nc(-c6c([H])c([H])c(Oc7c([H])c([H])c(F)c([H])c7F)c([H])c6[H])c(C(=O)N([H])[H])c5N([H])[H])C4([H])[H])c(C([H])([H])[H])c(C([H])([H])C([H])([H])[H])c3C(=O)C([H])([H])[H])(C([H])([H])[H])[N+]([H])([H])[H])c([H])c([H])c2C1([H])[H]

>  <smiles>  (53) 
[H]c1c([H])c([H])c2c(c1[H])C([H])([H])C([H])([H])C([H])([H])C2([H])N([H])C(=O)C1([H])N(C(=O)C([H])(N([H])C(=O)C([H])(N([H])C([H])([H])[H])C([H])([H])[H])C(C([H])([H])[H])(C([H])([H])[H])C([H])([H])[H])C([H])([H])c2c([H])c(OC([H])([H])C(C(=O)C([H])([H])N([H])c3c([H])c(N([H])C(=O)N4C([H])([H])C([H])([H])C([H])([H])C([H])(n5nc(-c6c([H])c([H])c(Oc7c([H])c([H])c(F)c([H])c7F)c([H])c6[H])c(C(=O)N([H])[H])c5N([H])[H])C4([H])[H])c(C([H])([H])[H])c(C([H])([H])C([H])([H])[H])c3C(=O)C([H])([H])[H])(C([H])([H])[H])[N+]([H])([H])[H])c([H])c([H])c2C1([H])[H]

$$$$
53:0:0
     RDKit          3D

100108  0  0  1  0  0  0  0  0999 V2000
  -30.2470  -21.3350   19.3350 C   0  0  0  0  0  0  0  0  0  0  0  0
  -30.8210  -20.3150   18.6900 N   0  0  0  0  0  0  0  0  0  0  0  0
  -29.3880  -21.2090   20.2190 O   0  0  0  0  0  0  0  0  0  0  0  0
  -31.4410  -20.5900   17.9440 H   0  0  0  0  0  0  0  0  0  0  0  0
  -30.9510  -16.7060   18.5550 C   0  0  0  0  0  3  0  0  0  0  0  0
  -31.2070  -18.0180   18.0680 C   0  0  0  0  0  0  0  0  0  0  0  0
  -30.3210  -16.6560   19.7770 C   0  0  0  0  0  0  0  0  0  0  0  0
  -30.6970  -18.9840   18.9020 C   0  0  0  0  0  0  0  0  0  0  0  0
  -29.9030  -18.2570   20.2920 S   0  0  0  0  0  0  0  0  0  0  0  0
  -30.7760  -14.4490   20.4710 C   0  0  0  0  0  0  0  0  0  0  0  0
  -30.4280  -12.3100   19.3770 C   0  0  0  0  0  2  0  0  0  0  0  0
  -29.5230  -12.5700   18.1570 C   0  0  0  0  0  2  0  0  0  0  0  0
  -28.0400  -12.4480   18.5580 C   0  0  0  0  0  2  0  0  0  0  0  0
  -27.6880  -13.2850   19.8180 C   0  0  0  0  0  3  0  0  0  0  0  0
  -28.7240  -13.0690   20.9480 C   0  0  0  0  0  2  0  0  0  0  0  0
  -30.0670  -13.3010   20.3960 N   0  0  0  0  0  0  0  0  0  0  0  0
  -31.9770  -14.5260   20.2040 O   0  0  0  0  0  0  0  0  0  0  0  0
  -30.0360  -15.5620   20.5320 N   0  0  0  0  0  0  0  0  0  0  0  0
  -29.1110  -15.5000   20.9300 H   0  0  0  0  0  0  0  0  0  0  0  0
  -25.2750  -13.8940   20.4730 C   0  0  0  0  0  0  0  0  0  0  0  0
  -24.2010  -13.1230   20.8270 C   0  0  0  0  0  0  0  0  0  0  0  0
  -24.6650  -11.7730   20.8240 C   0  0  0  0  0  0  0  0  0  0  0  0
  -26.3270  -13.0130   20.2760 N   0  0  0  0  0  0  0  0  0  0  0  0
  -25.9630  -11.7330   20.5470 N   0  0  0  0  0  0  0  0  0  0  0  0
  -23.9370  -10.5110   21.0140 C   0  0  0  0  0  0  0  0  0  0  0  0
  -24.3490   -9.5590   21.9720 C   0  0  0  0  0  3  0  0  0  0  0  0
  -23.6240   -8.3600   22.1490 C   0  0  0  0  0  3  0  0  0  0  0  0
  -22.4720   -8.1070   21.3660 C   0  0  0  0  0  0  0  0  0  0  0  0
  -22.0790   -9.0490   20.3990 C   0  0  0  0  0  3  0  0  0  0  0  0
  -22.8060  -10.2370   20.2200 C   0  0  0  0  0  3  0  0  0  0  0  0
  -21.7200   -6.9600   21.4500 O   0  0  0  0  0  0  0  0  0  0  0  0
  -21.6420   -6.2340   22.6120 C   0  0  0  0  0  0  0  0  0  0  0  0
  -21.1680   -6.8010   23.8150 C   0  0  0  0  0  3  0  0  0  0  0  0
  -21.0350   -6.0020   24.9670 C   0  0  0  0  0  3  0  0  0  0  0  0
  -21.3680   -4.6350   24.9180 C   0  0  0  0  0  0  0  0  0  0  0  0
  -21.8370   -4.0670   23.7210 C   0  0  0  0  0  3  0  0  0  0  0  0
  -21.9700   -4.8650   22.5700 C   0  0  0  0  0  0  0  0  0  0  0  0
  -22.4010   -4.3070   21.4110 F   0  0  0  0  0  0  0  0  0  0  0  0
  -21.2360   -3.8630   26.0220 F   0  0  0  0  0  0  0  0  0  0  0  0
  -22.7960  -13.6000   21.0640 C   0  0  0  0  0  0  0  0  0  0  0  0
  -22.0510  -12.9100   21.9210 N   0  0  0  0  0  0  0  0  0  0  0  0
  -22.3670  -14.6200   20.5250 O   0  0  0  0  0  0  0  0  0  0  0  0
  -22.4090  -12.0830   22.3760 H   0  0  0  0  0  0  0  0  0  0  0  0
  -21.1090  -13.2130   22.1230 H   0  0  0  0  0  0  0  0  0  0  0  0
  -25.4380  -15.2630   20.2790 N   0  0  0  0  0  0  0  0  0  0  0  0
  -24.6610  -15.9130   20.3410 H   0  0  0  0  0  0  0  0  0  0  0  0
  -26.2890  -15.7000   19.9500 H   0  0  0  0  0  0  0  0  0  0  0  0
  -33.2830  -17.5180   16.7220 C   0  0  0  0  0  1  0  0  0  0  0  0
  -31.9560  -18.2920   16.7810 C   0  0  0  0  0  3  0  0  0  0  0  0
  -29.8160  -18.8620   15.4600 C   0  0  0  0  0  1  0  0  0  0  0  0
  -31.0940  -18.0110   15.5340 C   0  0  0  0  0  2  0  0  0  0  0  0
  -30.5600  -22.8840   17.3460 C   0  0  0  0  0  1  0  0  0  0  0  0
  -32.1510  -22.9750   19.3480 C   0  0  0  0  0  1  0  0  0  0  0  0
  -30.6970  -22.7380   18.8820 C   0  0  2  0  0  0  0  0  0  0  0  0
  -29.6980  -24.9680   19.5700 C   0  0  0  0  0  0  0  0  0  0  0  0
  -29.7800  -23.6420   19.5600 N   0  0  0  0  0  0  0  0  0  0  0  0
  -30.4840  -25.7090   18.9730 O   0  0  0  0  0  0  0  0  0  0  0  0
  -29.0990  -23.1310   20.1140 H   0  0  0  0  0  0  0  0  0  0  0  0
  -28.5260  -25.5220   20.3750 C   0  0  0  0  0  2  0  0  0  0  0  0
  -28.4630  -26.9210   20.1670 O   0  0  0  0  0  0  0  0  0  0  0  0
  -24.5580  -31.9240   23.2570 C   0  0  0  0  0  0  0  0  0  0  0  0
  -27.2380  -27.5310   20.1980 C   0  0  0  0  0  0  0  0  0  0  0  0
  -23.3570  -30.5110   21.6160 C   0  0  0  0  0  3  0  0  0  0  0  0
  -24.8180  -28.9730   20.2060 C   0  0  0  0  0  0  0  0  0  0  0  0
  -25.8730  -30.8960   21.4120 C   0  0  0  0  0  2  0  0  0  0  0  0
  -25.9660  -29.5240   20.7880 C   0  0  0  0  0  0  0  0  0  0  0  0
  -27.1770  -28.8090   20.7800 C   0  0  0  0  0  3  0  0  0  0  0  0
  -26.0780  -26.9770   19.6110 C   0  0  0  0  0  3  0  0  0  0  0  0
  -24.8660  -27.6960   19.6190 C   0  0  0  0  0  3  0  0  0  0  0  0
  -23.5680  -29.8180   20.2420 C   0  0  0  0  0  2  0  0  0  0  0  0
  -24.6140  -31.1250   22.1540 N   0  0  0  0  0  0  0  0  0  0  0  0
  -23.4770  -32.1930   23.7960 O   0  0  0  0  0  0  0  0  0  0  0  0
  -22.7130  -29.4910   22.5800 C   0  0  0  0  0  0  0  0  0  0  0  0
  -21.3900  -29.3020   22.4490 N   0  0  0  0  0  0  0  0  0  0  0  0
  -23.4000  -28.8690   23.3950 O   0  0  0  0  0  0  0  0  0  0  0  0
  -20.9010  -29.8570   21.7600 H   0  0  0  0  0  0  0  0  0  0  0  0
  -18.0170  -28.1190   22.9500 C   0  0  0  0  0  0  0  0  0  0  0  0
  -20.5760  -28.3650   23.2180 C   0  0  0  0  0  3  0  0  0  0  0  0
  -20.6710  -26.9360   22.6380 C   0  0  0  0  0  2  0  0  0  0  0  0
  -19.5650  -26.6200   21.6240 C   0  0  0  0  0  2  0  0  0  0  0  0
  -18.1860  -26.7710   22.2730 C   0  0  0  0  0  2  0  0  0  0  0  0
  -19.1390  -28.8750   23.3800 C   0  0  0  0  0  0  0  0  0  0  0  0
  -18.9290  -30.1410   23.9720 C   0  0  0  0  0  3  0  0  0  0  0  0
  -17.6270  -30.6470   24.1410 C   0  0  0  0  0  3  0  0  0  0  0  0
  -16.5190  -29.8880   23.7280 C   0  0  0  0  0  3  0  0  0  0  0  0
  -16.7140  -28.6270   23.1380 C   0  0  0  0  0  3  0  0  0  0  0  0
  -25.8440  -32.5580   23.8750 C   0  0  0  0  0  3  0  0  0  0  0  0
  -25.5370  -33.9590   24.1890 N   0  0  0  0  0  0  0  0  0  0  0  0
  -25.8840  -35.0010   23.4240 C   0  0  0  0  0  0  0  0  0  0  0  0
  -26.5700  -34.8870   22.4050 O   0  0  0  0  0  0  0  0  0  0  0  0
  -24.9360  -34.1220   24.9830 H   0  0  0  0  0  0  0  0  0  0  0  0
  -24.1780  -36.8000   23.0100 C   0  0  0  0  0  1  0  0  0  0  0  0
  -25.3920  -36.3950   23.8600 C   0  0  0  0  0  3  0  0  0  0  0  0
  -27.5080  -37.2710   24.7470 C   0  0  0  0  0  1  0  0  0  0  0  0
  -26.4330  -37.4410   23.7710 N   0  0  0  0  0  0  0  0  0  0  0  0
  -26.0280  -38.3650   23.9030 H   0  0  0  0  0  0  0  0  0  0  0  0
  -26.3580  -31.7960   25.1590 C   0  0  1  0  0  0  0  0  0  0  0  0
  -25.2640  -31.5660   26.2260 C   0  0  0  0  0  1  0  0  0  0  0  0
  -26.9440  -30.4170   24.7740 C   0  0  0  0  0  1  0  0  0  0  0  0
  -27.5070  -32.5950   25.8170 C   0  0  0  0  0  1  0  0  0  0  0  0
  1  3  2  0
  2  8  1  0
  2  1  1  0
  4  2  1  0
  5  7  2  0
  6  5  1  0
  6  8  2  0
  7  9  1  0
  7 18  1  0
  8  9  1  0
 10 18  1  0
 11 16  1  0
 12 13  1  0
 12 11  1  0
 14 13  1  0
 14 23  1  0
 14 15  1  0
 16 10  1  0
 16 15  1  0
 17 10  2  0
 18 19  1  0
 20 21  2  0
 21 40  1  0
 22 21  1  0
 22 25  1  0
 23 20  1  0
 23 24  1  0
 24 22  2  0
 25 26  1  0
 26 27  2  0
 28 31  1  0
 28 27  1  0
 29 28  2  0
 30 29  1  0
 30 25  2  0
 31 32  1  0
 32 33  1  0
 33 34  2  0
 35 34  1  0
 35 39  1  0
 36 35  2  0
 37 32  2  0
 37 36  1  0
 38 37  1  0
 40 41  1  0
 41 44  1  0
 41 43  1  0
 42 40  2  0
 45 46  1  0
 45 20  1  0
 47 45  1  0
 49 48  1  0
 49  6  1  0
 50 51  1  0
 51 49  1  0
 54 52  1  6
 54  1  1  0
 54 53  1  0
 54 56  1  0
 55 59  1  0
 56 55  1  0
 56 58  1  0
 57 55  2  0
 60 62  1  0
 60 59  1  0
 61 72  2  0
 62 67  1  0
 63 71  1  0
 63 73  1  0
 64 70  1  0
 64 66  1  0
 65 71  1  0
 66 65  1  0
 67 66  2  0
 68 69  1  0
 68 62  2  0
 69 64  2  0
 70 63  1  0
 71 61  1  0
 73 75  2  0
 74 73  1  0
 76 74  1  0
 77 86  2  0
 77 82  1  0
 78 74  1  0
 78 82  1  0
 79 78  1  0
 80 81  1  0
 80 79  1  0
 81 77  1  0
 82 83  2  0
 83 84  1  0
 85 84  2  0
 86 85  1  0
 87 61  1  0
 87 88  1  0
 87 97  1  0
 88 91  1  0
 89 93  1  0
 89 88  1  0
 90 89  2  0
 93 92  1  0
 95 93  1  0
 95 96  1  0
 95 94  1  0
 97100  1  1
 97 98  1  0
 99 97  1  0
M  ISO  4  10 100  18 100  59 101  60 101
M  END
>  <TORSDO>  (54) 
F 22

>  <SCORE>  (54) 
-13.268

>  <name>  (54) 
53

>  <ligand_id>  (54) 
53

>  <original_smiles>  (54) 
[H]c1c([H])c([H])c2c(c1[H])C([H])([H])C([H])([H])C([H])([H])C2([H])N([H])C(=O)C1([H])N(C(=O)C([H])(N([H])C(=O)C([H])(N([H])C([H])([H])[H])C([H])([H])[H])C(C([H])([H])[H])(C([H])([H])[H])C([H])([H])[H])C([H])([H])c2c([H])c(OC([H])([H])C(=O)N([H])C(C(=O)N([H])c3sc(N([H])C(=O)N4C([H])([H])C([H])([H])C([H])([H])C([H])(n5nc(-c6c([H])c([H])c(Oc7c([H])c([H])c(F)c([H])c7F)c([H])c6[H])c(C(=O)N([H])[H])c5N([H])[H])C4([H])[H])c([H])c3C([H])(C([H])([H])[H])C([H])([H])C([H])([H])[H])(C([H])([H])[H])C([H])([H])[H])c([H])c([H])c2C1([H])[H]

>  <smiles>  (54) 
[H]c1c([H])c([H])c2c(c1[H])C([H])([H])C([H])([H])C([H])([H])C2([H])N([H])C(=O)C1([H])N(C(=O)C([H])(N([H])C(=O)C([H])(N([H])C([H])([H])[H])C([H])([H])[H])C(C([H])([H])[H])(C([H])([H])[H])C([H])([H])[H])C([H])([H])c2c([H])c(OC([H])([H])C(=O)N([H])C(C(=O)N([H])c3sc(N([H])C(=O)N4C([H])([H])C([H])([H])C([H])([H])C([H])(n5nc(-c6c([H])c([H])c(Oc7c([H])c([H])c(F)c([H])c7F)c([H])c6[H])c(C(=O)N([H])[H])c5N([H])[H])C4([H])[H])c([H])c3C([H])(C([H])([H])[H])C([H])([H])C([H])([H])[H])(C([H])([H])[H])C([H])([H])[H])c([H])c([H])c2C1([H])[H]

$$$$
54:0:0
     RDKit          3D

101110  0  0  1  0  0  0  0  0999 V2000
  -30.7180  -22.7310   21.6980 C   0  0  0  0  0  0  0  0  0  0  0  0
  -31.1620  -22.4280   20.5880 O   0  0  0  0  0  0  0  0  0  0  0  0
  -31.0440  -17.5720   21.6050 C   0  0  0  0  0  3  0  0  0  0  0  0
  -28.8620  -17.8240   20.5340 C   0  0  0  0  0  3  0  0  0  0  0  0
  -30.8580  -18.8280   22.2330 C   0  0  0  0  0  0  0  0  0  0  0  0
  -29.6890  -19.5830   22.0000 C   0  0  0  0  0  0  0  0  0  0  0  0
  -30.0220  -17.0500   20.7800 C   0  0  0  0  0  0  0  0  0  0  0  0
  -28.7010  -19.0880   21.1320 C   0  0  0  0  0  0  0  0  0  0  0  0
  -31.8660  -19.4000   23.2070 C   0  0  0  0  0  2  0  0  0  0  0  0
  -32.0150  -20.9130   22.9690 C   0  0  0  0  0  2  0  0  0  0  0  0
  -30.6600  -21.6900   22.8420 C   0  0  0  0  0  3  0  0  0  0  0  0
  -29.4970  -20.8120   22.6470 N   0  0  0  0  0  0  0  0  0  0  0  0
  -27.5800  -19.8180   20.8960 F   0  0  0  0  0  0  0  0  0  0  0  0
  -28.6230  -21.2660   22.4000 H   0  0  0  0  0  0  0  0  0  0  0  0
  -30.9120  -14.8170   19.8930 C   0  0  0  0  0  0  0  0  0  0  0  0
  -30.6840  -12.6690   18.6890 C   0  0  0  0  0  2  0  0  0  0  0  0
  -29.6050  -12.8290   17.5940 C   0  0  0  0  0  2  0  0  0  0  0  0
  -28.1810  -12.6370   18.1610 C   0  0  0  0  0  2  0  0  0  0  0  0
  -27.9370  -13.4510   19.4590 C   0  0  0  0  0  3  0  0  0  0  0  0
  -29.0920  -13.1890   20.4520 C   0  0  0  0  0  2  0  0  0  0  0  0
  -30.3480  -13.5850   19.7840 N   0  0  0  0  0  0  0  0  0  0  0  0
  -32.0150  -15.1180   19.4250 O   0  0  0  0  0  0  0  0  0  0  0  0
  -29.9900  -15.7140   20.3000 N   0  0  0  0  0  0  0  0  0  0  0  0
  -29.0820  -15.2790   20.3590 H   0  0  0  0  0  0  0  0  0  0  0  0
  -25.6420  -14.0310   20.4830 C   0  0  0  0  0  0  0  0  0  0  0  0
  -24.6080  -13.2390   20.9040 C   0  0  0  0  0  0  0  0  0  0  0  0
  -25.0380  -11.8910   20.6990 C   0  0  0  0  0  0  0  0  0  0  0  0
  -26.6350  -13.1610   20.0560 N   0  0  0  0  0  0  0  0  0  0  0  0
  -26.2830  -11.8660   20.2420 N   0  0  0  0  0  0  0  0  0  0  0  0
  -24.3150  -10.6250   20.8490 C   0  0  0  0  0  0  0  0  0  0  0  0
  -24.7610   -9.6230   21.7390 C   0  0  0  0  0  3  0  0  0  0  0  0
  -24.0400   -8.4190   21.8760 C   0  0  0  0  0  3  0  0  0  0  0  0
  -22.8600   -8.2090   21.1250 C   0  0  0  0  0  0  0  0  0  0  0  0
  -22.4350   -9.2000   20.2220 C   0  0  0  0  0  3  0  0  0  0  0  0
  -23.1570  -10.3960   20.0820 C   0  0  0  0  0  3  0  0  0  0  0  0
  -22.1070   -7.0600   21.1770 O   0  0  0  0  0  0  0  0  0  0  0  0
  -21.9440   -6.3590   22.3440 C   0  0  0  0  0  0  0  0  0  0  0  0
  -21.3910   -6.9540   23.4980 C   0  0  0  0  0  3  0  0  0  0  0  0
  -21.1750   -6.1790   24.6550 C   0  0  0  0  0  3  0  0  0  0  0  0
  -21.5050   -4.8090   24.6580 C   0  0  0  0  0  0  0  0  0  0  0  0
  -22.0530   -4.2160   23.5080 C   0  0  0  0  0  3  0  0  0  0  0  0
  -22.2690   -4.9870   22.3530 C   0  0  0  0  0  0  0  0  0  0  0  0
  -22.7760   -4.4040   21.2400 F   0  0  0  0  0  0  0  0  0  0  0  0
  -21.2930   -4.0630   25.7670 F   0  0  0  0  0  0  0  0  0  0  0  0
  -23.2580  -13.7010   21.3710 C   0  0  0  0  0  0  0  0  0  0  0  0
  -22.6270  -12.9470   22.2640 N   0  0  0  0  0  0  0  0  0  0  0  0
  -22.7750  -14.7640   20.9800 O   0  0  0  0  0  0  0  0  0  0  0  0
  -23.0290  -12.0850   22.5980 H   0  0  0  0  0  0  0  0  0  0  0  0
  -21.7240  -13.2320   22.6150 H   0  0  0  0  0  0  0  0  0  0  0  0
  -25.8110  -15.4090   20.3940 N   0  0  0  0  0  0  0  0  0  0  0  0
  -25.0520  -16.0470   20.6110 H   0  0  0  0  0  0  0  0  0  0  0  0
  -26.5480  -15.8430   19.8550 H   0  0  0  0  0  0  0  0  0  0  0  0
  -30.0890  -24.1300   21.9120 C   0  0  0  0  0  2  0  0  0  0  0  0
  -31.3870  -25.6010   20.2890 C   0  0  0  0  0  1  0  0  0  0  0  0
  -29.9820  -25.0650   20.6530 C   0  0  1  0  0  0  0  0  0  0  0  0
  -29.4140  -24.3250   19.4970 N   0  0  0  0  0  4  0  0  0  0  0  0
  -29.9300  -23.4680   19.3630 H   0  0  0  0  0  0  0  0  0  0  0  0
  -29.4680  -24.8810   18.6590 H   0  0  0  0  0  0  0  0  0  0  0  0
  -28.4450  -24.0930   19.6470 H   0  0  0  0  0  0  0  0  0  0  0  0
  -29.0470  -26.2720   20.9260 C   0  0  0  0  0  2  0  0  0  0  0  0
  -28.7220  -26.9020   19.6750 O   0  0  0  0  0  0  0  0  0  0  0  0
  -24.6980  -31.7140   22.9840 C   0  0  0  0  0  0  0  0  0  0  0  0
  -27.5340  -27.5870   19.7020 C   0  0  0  0  0  0  0  0  0  0  0  0
  -23.5430  -30.3340   21.2840 C   0  0  0  0  0  3  0  0  0  0  0  0
  -25.0610  -28.9420   19.7760 C   0  0  0  0  0  0  0  0  0  0  0  0
  -26.0410  -30.8390   21.0830 C   0  0  0  0  0  2  0  0  0  0  0  0
  -26.1930  -29.5050   20.3850 C   0  0  0  0  0  0  0  0  0  0  0  0
  -27.4300  -28.8330   20.3530 C   0  0  0  0  0  3  0  0  0  0  0  0
  -26.3970  -27.0290   19.0810 C   0  0  0  0  0  3  0  0  0  0  0  0
  -25.1580  -27.7000   19.1210 C   0  0  0  0  0  3  0  0  0  0  0  0
  -23.7730  -29.7280   19.8700 C   0  0  0  0  0  2  0  0  0  0  0  0
  -24.7790  -30.9720   21.8440 N   0  0  0  0  0  0  0  0  0  0  0  0
  -23.6120  -31.9060   23.5470 O   0  0  0  0  0  0  0  0  0  0  0  0
  -22.9510  -29.2400   22.1970 C   0  0  0  0  0  0  0  0  0  0  0  0
  -21.6290  -29.0280   22.0990 N   0  0  0  0  0  0  0  0  0  0  0  0
  -23.6770  -28.5830   22.9510 O   0  0  0  0  0  0  0  0  0  0  0  0
  -21.1010  -29.6130   21.4630 H   0  0  0  0  0  0  0  0  0  0  0  0
  -18.3010  -27.7460   22.6560 C   0  0  0  0  0  0  0  0  0  0  0  0
  -20.8630  -28.0240   22.8350 C   0  0  0  0  0  3  0  0  0  0  0  0
  -20.9610  -26.6440   22.1460 C   0  0  0  0  0  2  0  0  0  0  0  0
  -19.8190  -26.3800   21.1600 C   0  0  0  0  0  2  0  0  0  0  0  0
  -18.4660  -26.4510   21.8740 C   0  0  0  0  0  2  0  0  0  0  0  0
  -19.4280  -28.4920   23.0930 C   0  0  0  0  0  0  0  0  0  0  0  0
  -19.2210  -29.7040   23.7850 C   0  0  0  0  0  3  0  0  0  0  0  0
  -17.9210  -30.1730   24.0460 C   0  0  0  0  0  3  0  0  0  0  0  0
  -16.8090  -29.4230   23.6270 C   0  0  0  0  0  3  0  0  0  0  0  0
  -16.9980  -28.2110   22.9390 C   0  0  0  0  0  3  0  0  0  0  0  0
  -25.9620  -32.3740   23.6210 C   0  0  0  0  0  3  0  0  0  0  0  0
  -25.5880  -33.7330   24.0320 N   0  0  0  0  0  0  0  0  0  0  0  0
  -25.8740  -34.8430   23.3390 C   0  0  0  0  0  0  0  0  0  0  0  0
  -26.5500  -34.8310   22.3050 O   0  0  0  0  0  0  0  0  0  0  0  0
  -24.9840  -33.8170   24.8360 H   0  0  0  0  0  0  0  0  0  0  0  0
  -24.0710  -36.5740   23.0750 C   0  0  0  0  0  1  0  0  0  0  0  0
  -25.3250  -36.1790   23.8720 C   0  0  0  0  0  3  0  0  0  0  0  0
  -27.4080  -37.1070   24.7770 C   0  0  0  0  0  1  0  0  0  0  0  0
  -26.3110  -37.2810   23.8280 N   0  0  0  0  0  0  0  0  0  0  0  0
  -25.8610  -38.1710   24.0240 H   0  0  0  0  0  0  0  0  0  0  0  0
  -26.5400  -31.5540   24.8400 C   0  0  1  0  0  0  0  0  0  0  0  0
  -25.4760  -31.1860   25.9010 C   0  0  0  0  0  1  0  0  0  0  0  0
  -27.1990  -30.2410   24.3530 C   0  0  0  0  0  1  0  0  0  0  0  0
  -27.6510  -32.3720   25.5400 C   0  0  0  0  0  1  0  0  0  0  0  0
  1 53  1  0
  2  1  2  0
  3  5  1  0
  4  7  1  0
  4  8  2  0
  5  9  1  0
  6  5  2  0
  6 12  1  0
  7  3  2  0
  8  6  1  0
 10  9  1  0
 11  1  1  0
 11 10  1  0
 12 11  1  0
 13  8  1  0
 14 12  1  0
 15 23  1  0
 16 21  1  0
 17 18  1  0
 17 16  1  0
 19 18  1  0
 19 28  1  0
 19 20  1  0
 21 15  1  0
 21 20  1  0
 22 15  2  0
 23 24  1  0
 23  7  1  0
 25 26  2  0
 26 45  1  0
 27 30  1  0
 27 26  1  0
 28 29  1  0
 28 25  1  0
 29 27  2  0
 30 31  1  0
 31 32  2  0
 33 36  1  0
 33 32  1  0
 34 33  2  0
 35 34  1  0
 35 30  2  0
 36 37  1  0
 37 42  2  0
 37 38  1  0
 38 39  2  0
 39 40  1  0
 40 44  1  0
 41 40  2  0
 42 41  1  0
 43 42  1  0
 45 46  1  0
 46 48  1  0
 46 49  1  0
 47 45  2  0
 50 25  1  0
 50 51  1  0
 52 50  1  0
 55 54  1  6
 55 60  1  0
 55 53  1  0
 56 59  1  0
 56 55  1  0
 57 56  1  0
 58 56  1  0
 61 63  1  0
 61 60  1  0
 62 73  2  0
 63 68  1  0
 64 72  1  0
 64 74  1  0
 65 71  1  0
 65 67  1  0
 66 72  1  0
 67 66  1  0
 68 67  2  0
 69 70  1  0
 69 63  2  0
 70 65  2  0
 71 64  1  0
 72 62  1  0
 74 76  2  0
 75 74  1  0
 77 75  1  0
 78 87  2  0
 78 83  1  0
 79 75  1  0
 79 83  1  0
 80 79  1  0
 81 82  1  0
 81 80  1  0
 82 78  1  0
 83 84  2  0
 84 85  1  0
 86 85  2  0
 87 86  1  0
 88 62  1  0
 88 89  1  0
 88 98  1  0
 89 92  1  0
 90 94  1  0
 90 89  1  0
 91 90  2  0
 94 93  1  0
 96 94  1  0
 96 97  1  0
 96 95  1  0
 98101  1  1
 98 99  1  0
100 98  1  0
M  ISO  4  15 100  23 100  60 101  61 101
M  END
>  <TORSDO>  (55) 
F 21

>  <SCORE>  (55) 
-11.313

>  <name>  (55) 
54

>  <ligand_id>  (55) 
54

>  <original_smiles>  (55) 
[H]c1c([H])c([H])c2c(c1[H])C([H])([H])C([H])([H])C([H])([H])C2([H])N([H])C(=O)C1([H])N(C(=O)C([H])(N([H])C(=O)C([H])(N([H])C([H])([H])[H])C([H])([H])[H])C(C([H])([H])[H])(C([H])([H])[H])C([H])([H])[H])C([H])([H])c2c([H])c(OC([H])([H])C(C([H])([H])[H])(C([H])([H])C(=O)C3([H])N([H])c4c(F)c([H])c(N([H])C(=O)N5C([H])([H])C([H])([H])C([H])([H])C([H])(n6nc(-c7c([H])c([H])c(Oc8c([H])c([H])c(F)c([H])c8F)c([H])c7[H])c(C(=O)N([H])[H])c6N([H])[H])C5([H])[H])c([H])c4C([H])([H])C3([H])[H])[N+]([H])([H])[H])c([H])c([H])c2C1([H])[H]

>  <smiles>  (55) 
[H]c1c([H])c([H])c2c(c1[H])C([H])([H])C([H])([H])C([H])([H])C2([H])N([H])C(=O)C1([H])N(C(=O)C([H])(N([H])C(=O)C([H])(N([H])C([H])([H])[H])C([H])([H])[H])C(C([H])([H])[H])(C([H])([H])[H])C([H])([H])[H])C([H])([H])c2c([H])c(OC([H])([H])C(C([H])([H])[H])(C([H])([H])C(=O)C3([H])N([H])c4c(F)c([H])c(N([H])C(=O)N5C([H])([H])C([H])([H])C([H])([H])C([H])(n6nc(-c7c([H])c([H])c(Oc8c([H])c([H])c(F)c([H])c8F)c([H])c7[H])c(C(=O)N([H])[H])c6N([H])[H])C5([H])[H])c([H])c4C([H])([H])C3([H])[H])[N+]([H])([H])[H])c([H])c([H])c2C1([H])[H]

$$$$
55:0:0
     RDKit          3D

 97105  0  0  1  0  0  0  0  0999 V2000
  -29.1710  -20.5760   20.7510 C   0  0  0  0  0  0  0  0  0  0  0  0
  -27.8890  -20.3320   21.0110 N   0  0  0  0  0  4  0  0  0  0  0  0
  -29.6350  -21.8380   20.8930 N   0  0  0  0  0  0  0  0  0  0  0  0
  -27.5140  -19.4210   20.7970 H   0  0  0  0  0  0  0  0  0  0  0  0
  -27.2570  -21.0310   21.3570 H   0  0  0  0  0  0  0  0  0  0  0  0
  -30.6400  -21.9510   20.8460 H   0  0  0  0  0  0  0  0  0  0  0  0
  -29.7730  -18.1250   20.6930 C   0  0  0  0  0  3  0  0  0  0  0  0
  -31.0580  -19.7260   19.3630 C   0  0  0  0  0  3  0  0  0  0  0  0
  -31.5200  -17.3370   19.2030 C   0  0  0  0  0  3  0  0  0  0  0  0
  -30.0210  -19.4660   20.2830 C   0  0  0  0  0  0  0  0  0  0  0  0
  -30.5070  -17.0350   20.1530 C   0  0  0  0  0  0  0  0  0  0  0  0
  -31.8060  -18.6640   18.8320 C   0  0  0  0  0  0  0  0  0  0  0  0
  -32.7950  -18.9210   17.9400 F   0  0  0  0  0  0  0  0  0  0  0  0
  -30.8190  -14.5500   20.2300 C   0  0  0  0  0  0  0  0  0  0  0  0
  -30.4050  -12.4080   19.1150 C   0  0  0  0  0  2  0  0  0  0  0  0
  -29.4570  -12.6600   17.9250 C   0  0  0  0  0  2  0  0  0  0  0  0
  -27.9900  -12.5420   18.3770 C   0  0  0  0  0  2  0  0  0  0  0  0
  -27.6870  -13.3600   19.6630 C   0  0  0  0  0  3  0  0  0  0  0  0
  -28.7700  -13.1530   20.7500 C   0  0  0  0  0  2  0  0  0  0  0  0
  -30.0850  -13.4090   20.1440 N   0  0  0  0  0  0  0  0  0  0  0  0
  -31.9930  -14.5940   19.8640 O   0  0  0  0  0  0  0  0  0  0  0  0
  -30.1520  -15.6850   20.5370 N   0  0  0  0  0  0  0  0  0  0  0  0
  -29.2410  -15.5530   20.9440 H   0  0  0  0  0  0  0  0  0  0  0  0
  -25.3080  -13.9640   20.4260 C   0  0  0  0  0  0  0  0  0  0  0  0
  -24.2440  -13.1890   20.8050 C   0  0  0  0  0  0  0  0  0  0  0  0
  -24.7030  -11.8360   20.7590 C   0  0  0  0  0  0  0  0  0  0  0  0
  -26.3450  -13.0820   20.1690 N   0  0  0  0  0  0  0  0  0  0  0  0
  -25.9880  -11.7970   20.4310 N   0  0  0  0  0  0  0  0  0  0  0  0
  -23.9770  -10.5750   20.9530 C   0  0  0  0  0  0  0  0  0  0  0  0
  -24.3950   -9.6230   21.9110 C   0  0  0  0  0  3  0  0  0  0  0  0
  -23.6690   -8.4250   22.0940 C   0  0  0  0  0  3  0  0  0  0  0  0
  -22.5130   -8.1720   21.3210 C   0  0  0  0  0  0  0  0  0  0  0  0
  -22.1140   -9.1120   20.3540 C   0  0  0  0  0  3  0  0  0  0  0  0
  -22.8400  -10.2990   20.1680 C   0  0  0  0  0  3  0  0  0  0  0  0
  -21.7620   -7.0230   21.4090 O   0  0  0  0  0  0  0  0  0  0  0  0
  -21.6680   -6.3140   22.5800 C   0  0  0  0  0  0  0  0  0  0  0  0
  -21.1400   -6.8850   23.7570 C   0  0  0  0  0  3  0  0  0  0  0  0
  -20.9960   -6.0990   24.9180 C   0  0  0  0  0  3  0  0  0  0  0  0
  -21.3710   -4.7420   24.9020 C   0  0  0  0  0  0  0  0  0  0  0  0
  -21.8910   -4.1700   23.7270 C   0  0  0  0  0  3  0  0  0  0  0  0
  -22.0360   -4.9540   22.5700 C   0  0  0  0  0  0  0  0  0  0  0  0
  -22.5170   -4.3910   21.4350 F   0  0  0  0  0  0  0  0  0  0  0  0
  -21.2280   -3.9840   26.0140 F   0  0  0  0  0  0  0  0  0  0  0  0
  -22.8530  -13.6660   21.1030 C   0  0  0  0  0  0  0  0  0  0  0  0
  -22.1350  -12.9580   21.9680 N   0  0  0  0  0  0  0  0  0  0  0  0
  -22.4130  -14.7000   20.6030 O   0  0  0  0  0  0  0  0  0  0  0  0
  -22.5020  -12.1200   22.3930 H   0  0  0  0  0  0  0  0  0  0  0  0
  -21.2030  -13.2580   22.2080 H   0  0  0  0  0  0  0  0  0  0  0  0
  -25.4730  -15.3360   20.2580 N   0  0  0  0  0  0  0  0  0  0  0  0
  -24.7120  -15.9910   20.4030 H   0  0  0  0  0  0  0  0  0  0  0  0
  -26.3170  -15.7780   19.9190 H   0  0  0  0  0  0  0  0  0  0  0  0
  -28.8720  -23.0270   21.3630 C   0  0  0  0  0  2  0  0  0  0  0  0
  -29.2370  -24.3760   20.6650 C   0  0  0  0  0  2  0  0  0  0  0  0
  -28.7260  -25.9590   22.6240 C   0  0  0  0  0  1  0  0  0  0  0  0
  -28.3800  -25.5710   21.1780 C   0  0  2  0  0  0  0  0  0  0  0  0
  -27.1200  -25.0670   21.1830 F   0  0  0  0  0  0  0  0  0  0  0  0
  -28.4780  -26.6710   20.3440 O   0  0  0  0  0  0  0  0  0  0  0  0
  -24.5670  -31.8800   23.2480 C   0  0  0  0  0  0  0  0  0  0  0  0
  -27.3640  -27.4850   20.2530 C   0  0  0  0  0  0  0  0  0  0  0  0
  -23.4350  -30.4600   21.5720 C   0  0  0  0  0  3  0  0  0  0  0  0
  -24.9570  -28.9670   20.1750 C   0  0  0  0  0  0  0  0  0  0  0  0
  -25.9580  -30.8730   21.4420 C   0  0  0  0  0  2  0  0  0  0  0  0
  -26.0910  -29.5060   20.8020 C   0  0  0  0  0  0  0  0  0  0  0  0
  -27.3030  -28.7730   20.8390 C   0  0  0  0  0  3  0  0  0  0  0  0
  -26.2290  -26.9930   19.5740 C   0  0  0  0  0  3  0  0  0  0  0  0
  -25.0230  -27.7090   19.5550 C   0  0  0  0  0  3  0  0  0  0  0  0
  -23.6930  -29.7930   20.1950 C   0  0  0  0  0  2  0  0  0  0  0  0
  -24.6690  -31.0870   22.1470 N   0  0  0  0  0  0  0  0  0  0  0  0
  -23.4660  -32.1290   23.7580 O   0  0  0  0  0  0  0  0  0  0  0  0
  -22.7780  -29.4220   22.5100 C   0  0  0  0  0  0  0  0  0  0  0  0
  -21.4560  -29.2340   22.3660 N   0  0  0  0  0  0  0  0  0  0  0  0
  -23.4550  -28.7930   23.3270 O   0  0  0  0  0  0  0  0  0  0  0  0
  -20.9710  -29.7990   21.6810 H   0  0  0  0  0  0  0  0  0  0  0  0
  -18.0740  -28.0500   22.8440 C   0  0  0  0  0  0  0  0  0  0  0  0
  -20.6340  -28.2840   23.1150 C   0  0  0  0  0  3  0  0  0  0  0  0
  -20.7230  -26.8660   22.5050 C   0  0  0  0  0  2  0  0  0  0  0  0
  -19.6160  -26.5730   21.4870 C   0  0  0  0  0  2  0  0  0  0  0  0
  -18.2380  -26.7150   22.1370 C   0  0  0  0  0  2  0  0  0  0  0  0
  -19.1980  -28.7940   23.2890 C   0  0  0  0  0  0  0  0  0  0  0  0
  -18.9900  -30.0430   23.9120 C   0  0  0  0  0  3  0  0  0  0  0  0
  -17.6880  -30.5510   24.0900 C   0  0  0  0  0  3  0  0  0  0  0  0
  -16.5780  -29.8040   23.6580 C   0  0  0  0  0  3  0  0  0  0  0  0
  -16.7710  -28.5550   23.0440 C   0  0  0  0  0  3  0  0  0  0  0  0
  -25.8230  -32.5350   23.9030 C   0  0  0  0  0  3  0  0  0  0  0  0
  -26.3030  -31.7890   25.2080 C   0  0  1  0  0  0  0  0  0  0  0  0
  -25.1740  -31.5510   26.2370 C   0  0  0  0  0  1  0  0  0  0  0  0
  -26.9180  -30.4140   24.8550 C   0  0  0  0  0  1  0  0  0  0  0  0
  -27.4230  -32.6060   25.8980 C   0  0  0  0  0  1  0  0  0  0  0  0
  -25.4880  -33.9360   24.1990 N   0  0  0  0  0  0  0  0  0  0  0  0
  -25.8350  -34.9750   23.4290 C   0  0  0  0  0  0  0  0  0  0  0  0
  -26.5390  -34.8600   22.4230 O   0  0  0  0  0  0  0  0  0  0  0  0
  -24.8650  -34.0980   24.9760 H   0  0  0  0  0  0  0  0  0  0  0  0
  -24.1130  -36.7460   22.9710 C   0  0  0  0  0  1  0  0  0  0  0  0
  -25.3190  -36.3670   23.8440 C   0  0  0  0  0  3  0  0  0  0  0  0
  -27.4050  -37.2810   24.7620 C   0  0  0  0  0  1  0  0  0  0  0  0
  -26.3500  -37.4240   23.7600 N   0  0  0  0  0  0  0  0  0  0  0  0
  -25.9340  -38.3440   23.8680 H   0  0  0  0  0  0  0  0  0  0  0  0
  1  3  1  0
  1  2  2  0
  2  5  1  0
  3 52  1  0
  4  2  1  0
  6  3  1  0
  8 10  2  0
  9 11  1  0
 10  7  1  0
 10  1  1  0
 11 22  1  0
 11  7  2  0
 12  9  2  0
 12  8  1  0
 13 12  1  0
 14 22  1  0
 15 20  1  0
 16 17  1  0
 16 15  1  0
 18 17  1  0
 18 27  1  0
 18 19  1  0
 20 14  1  0
 20 19  1  0
 21 14  2  0
 22 23  1  0
 24 25  2  0
 25 44  1  0
 26 25  1  0
 26 29  1  0
 27 24  1  0
 27 28  1  0
 28 26  2  0
 29 30  1  0
 30 31  2  0
 32 35  1  0
 32 31  1  0
 33 32  2  0
 34 33  1  0
 34 29  2  0
 35 36  1  0
 36 37  1  0
 37 38  2  0
 39 38  1  0
 39 43  1  0
 40 39  2  0
 41 36  2  0
 41 40  1  0
 42 41  1  0
 44 45  1  0
 45 48  1  0
 45 47  1  0
 46 44  2  0
 49 50  1  0
 49 24  1  0
 51 49  1  0
 53 55  1  0
 53 52  1  0
 55 56  1  0
 55 54  1  1
 57 55  1  0
 58 69  2  0
 59 57  1  0
 59 64  1  0
 60 68  1  0
 60 70  1  0
 61 67  1  0
 61 63  1  0
 62 68  1  0
 63 64  2  0
 63 62  1  0
 65 59  2  0
 66 65  1  0
 66 61  2  0
 67 60  1  0
 68 58  1  0
 70 72  2  0
 71 70  1  0
 73 71  1  0
 74 83  2  0
 74 79  1  0
 75 71  1  0
 75 79  1  0
 76 75  1  0
 77 78  1  0
 77 76  1  0
 78 74  1  0
 79 80  2  0
 80 81  1  0
 82 81  2  0
 83 82  1  0
 84 58  1  0
 84 89  1  0
 84 85  1  0
 85 88  1  1
 85 86  1  0
 87 85  1  0
 89 92  1  0
 90 94  1  0
 90 89  1  0
 91 90  2  0
 94 93  1  0
 96 94  1  0
 96 97  1  0
 96 95  1  0
M  ISO  4  14 100  22 100  55 101  57 101
M  END
>  <TORSDO>  (56) 
F 20

>  <SCORE>  (56) 
-14.287

>  <name>  (56) 
55

>  <ligand_id>  (56) 
55

>  <original_smiles>  (56) 
[H]c1c([H])c([H])c2c(c1[H])C([H])([H])C([H])([H])C([H])([H])C2([H])N([H])C(=O)C1([H])N(C(=O)C([H])(N([H])C(=O)C([H])(N([H])C([H])([H])[H])C([H])([H])[H])C(C([H])([H])[H])(C([H])([H])[H])C([H])([H])[H])C([H])([H])c2c([H])c(OC(F)(C([H])([H])[H])C([H])([H])C([H])([H])[N+]([H])=C(c3c([H])c(F)c([H])c(N([H])C(=O)N4C([H])([H])C([H])([H])C([H])([H])C([H])(n5nc(-c6c([H])c([H])c(Oc7c([H])c([H])c(F)c([H])c7F)c([H])c6[H])c(C(=O)N([H])[H])c5N([H])[H])C4([H])[H])c3[H])N([H])[H])c([H])c([H])c2C1([H])[H]

>  <smiles>  (56) 
[H]c1c([H])c([H])c2c(c1[H])C([H])([H])C([H])([H])C([H])([H])C2([H])N([H])C(=O)C1([H])N(C(=O)C([H])(N([H])C(=O)C([H])(N([H])C([H])([H])[H])C([H])([H])[H])C(C([H])([H])[H])(C([H])([H])[H])C([H])([H])[H])C([H])([H])c2c([H])c(OC(F)(C([H])([H])[H])C([H])([H])C([H])([H])[N+]([H])=C(c3c([H])c(F)c([H])c(N([H])C(=O)N4C([H])([H])C([H])([H])C([H])([H])C([H])(n5nc(-c6c([H])c([H])c(Oc7c([H])c([H])c(F)c([H])c7F)c([H])c6[H])c(C(=O)N([H])[H])c5N([H])[H])C4([H])[H])c3[H])N([H])[H])c([H])c([H])c2C1([H])[H]

$$$$
56:0:0
     RDKit          3D

 94103  0  0  1  0  0  0  0  0999 V2000
  -29.2840  -21.4010   19.3480 C   0  0  0  0  0  2  0  0  0  0  0  0
  -29.9350  -22.1910   21.6010 C   0  0  0  0  0  2  0  0  0  0  0  0
  -28.4650  -22.7230   19.1620 C   0  0  0  0  0  2  0  0  0  0  0  0
  -29.1120  -23.5070   21.4150 C   0  0  0  0  0  2  0  0  0  0  0  0
  -29.3850  -20.9500   20.8230 C   0  0  0  0  0  3  0  0  0  0  0  0
  -28.9810  -23.9830   19.9380 C   0  0  1  0  0  0  0  0  0  0  0  0
  -32.1330  -18.4460   21.9550 C   0  0  0  0  0  3  0  0  0  0  0  0
  -31.4300  -19.6310   21.6760 C   0  0  0  0  0  3  0  0  0  0  0  0
  -31.6030  -17.1950   21.6000 C   0  0  0  0  0  3  0  0  0  0  0  0
  -29.6320  -18.3140   20.6980 C   0  0  0  0  0  3  0  0  0  0  0  0
  -30.1630  -19.6050   21.0480 C   0  0  0  0  0  0  0  0  0  0  0  0
  -30.3500  -17.0920   20.9530 C   0  0  0  0  0  0  0  0  0  0  0  0
  -30.5080  -14.6930   20.1580 C   0  0  0  0  0  0  0  0  0  0  0  0
  -30.1740  -12.5330   18.9830 C   0  0  0  0  0  2  0  0  0  0  0  0
  -29.1610  -12.7160   17.8360 C   0  0  0  0  0  2  0  0  0  0  0  0
  -27.7200  -12.5240   18.3500 C   0  0  0  0  0  2  0  0  0  0  0  0
  -27.4360  -13.3280   19.6470 C   0  0  0  0  0  3  0  0  0  0  0  0
  -28.5660  -13.1540   20.6880 C   0  0  0  0  0  2  0  0  0  0  0  0
  -29.8310  -13.5120   20.0340 N   0  0  0  0  0  0  0  0  0  0  0  0
  -31.6350  -14.8310   19.6730 O   0  0  0  0  0  0  0  0  0  0  0  0
  -29.8220  -15.7720   20.6390 N   0  0  0  0  0  0  0  0  0  0  0  0
  -28.8380  -15.6270   20.8080 H   0  0  0  0  0  0  0  0  0  0  0  0
  -25.0790  -13.8510   20.5260 C   0  0  0  0  0  0  0  0  0  0  0  0
  -24.0500  -13.0440   20.9280 C   0  0  0  0  0  0  0  0  0  0  0  0
  -24.5340  -11.7050   20.8210 C   0  0  0  0  0  0  0  0  0  0  0  0
  -26.1240  -13.0030   20.2000 N   0  0  0  0  0  0  0  0  0  0  0  0
  -25.8050  -11.7030   20.4370 N   0  0  0  0  0  0  0  0  0  0  0  0
  -23.8420  -10.4210   21.0060 C   0  0  0  0  0  0  0  0  0  0  0  0
  -24.3030   -9.4610   21.9340 C   0  0  0  0  0  3  0  0  0  0  0  0
  -23.6100   -8.2430   22.1060 C   0  0  0  0  0  3  0  0  0  0  0  0
  -22.4410   -7.9780   21.3530 C   0  0  0  0  0  0  0  0  0  0  0  0
  -22.0010   -8.9280   20.4140 C   0  0  0  0  0  3  0  0  0  0  0  0
  -22.6940  -10.1370   20.2400 C   0  0  0  0  0  3  0  0  0  0  0  0
  -21.7180   -6.8130   21.4360 O   0  0  0  0  0  0  0  0  0  0  0  0
  -21.6610   -6.0830   22.5960 C   0  0  0  0  0  0  0  0  0  0  0  0
  -21.1310   -6.6210   23.7900 C   0  0  0  0  0  3  0  0  0  0  0  0
  -21.0270   -5.8140   24.9400 C   0  0  0  0  0  3  0  0  0  0  0  0
  -21.4430   -4.4690   24.8970 C   0  0  0  0  0  0  0  0  0  0  0  0
  -21.9650   -3.9310   23.7080 C   0  0  0  0  0  3  0  0  0  0  0  0
  -22.0710   -4.7350   22.5610 C   0  0  0  0  0  0  0  0  0  0  0  0
  -22.5550   -4.2050   21.4120 F   0  0  0  0  0  0  0  0  0  0  0  0
  -21.3350   -3.6920   26.0010 F   0  0  0  0  0  0  0  0  0  0  0  0
  -22.6630  -13.4830   21.2980 C   0  0  0  0  0  0  0  0  0  0  0  0
  -22.0020  -12.7470   22.1830 N   0  0  0  0  0  0  0  0  0  0  0  0
  -22.1750  -14.5140   20.8350 O   0  0  0  0  0  0  0  0  0  0  0  0
  -22.4090  -11.9120   22.5770 H   0  0  0  0  0  0  0  0  0  0  0  0
  -21.0740  -13.0240   22.4720 H   0  0  0  0  0  0  0  0  0  0  0  0
  -25.2050  -15.2310   20.3870 N   0  0  0  0  0  0  0  0  0  0  0  0
  -24.4310  -15.8630   20.5590 H   0  0  0  0  0  0  0  0  0  0  0  0
  -26.0180  -15.6980   20.0080 H   0  0  0  0  0  0  0  0  0  0  0  0
  -31.0910  -25.2050   19.9390 C   0  0  0  0  0  1  0  0  0  0  0  0
  -30.2430  -24.2460   19.3180 O   0  0  0  0  0  0  0  0  0  0  0  0
  -27.9640  -25.1920   19.6990 C   0  0  0  0  0  2  0  0  0  0  0  0
  -28.1670  -26.5900   20.1320 O   0  0  0  0  0  0  0  0  0  0  0  0
  -24.5030  -31.9780   23.2380 C   0  0  0  0  0  0  0  0  0  0  0  0
  -27.0440  -27.4380   20.1020 C   0  0  0  0  0  0  0  0  0  0  0  0
  -23.2610  -30.5870   21.6240 C   0  0  0  0  0  3  0  0  0  0  0  0
  -24.6770  -29.0470   20.1590 C   0  0  0  0  0  0  0  0  0  0  0  0
  -25.7970  -30.9040   21.3850 C   0  0  0  0  0  2  0  0  0  0  0  0
  -25.8610  -29.5310   20.7310 C   0  0  0  0  0  0  0  0  0  0  0  0
  -27.0450  -28.7370   20.6980 C   0  0  0  0  0  3  0  0  0  0  0  0
  -25.8320  -27.0160   19.4990 C   0  0  0  0  0  3  0  0  0  0  0  0
  -24.6640  -27.7930   19.5380 C   0  0  0  0  0  3  0  0  0  0  0  0
  -23.4420  -29.9190   20.2370 C   0  0  0  0  0  2  0  0  0  0  0  0
  -24.5400  -31.1700   22.1400 N   0  0  0  0  0  0  0  0  0  0  0  0
  -23.4320  -32.2570   23.7950 O   0  0  0  0  0  0  0  0  0  0  0  0
  -22.6190  -29.5640   22.5910 C   0  0  0  0  0  0  0  0  0  0  0  0
  -21.2990  -29.3510   22.4590 N   0  0  0  0  0  0  0  0  0  0  0  0
  -23.3070  -28.9660   23.4220 O   0  0  0  0  0  0  0  0  0  0  0  0
  -20.7980  -29.8870   21.7630 H   0  0  0  0  0  0  0  0  0  0  0  0
  -17.9540  -28.0670   22.9450 C   0  0  0  0  0  0  0  0  0  0  0  0
  -20.4990  -28.4070   23.2400 C   0  0  0  0  0  3  0  0  0  0  0  0
  -20.6490  -26.9660   22.6980 C   0  0  0  0  0  2  0  0  0  0  0  0
  -19.5710  -26.5900   21.6770 C   0  0  0  0  0  2  0  0  0  0  0  0
  -18.1770  -26.7090   22.3000 C   0  0  0  0  0  2  0  0  0  0  0  0
  -19.0440  -28.8710   23.3710 C   0  0  0  0  0  0  0  0  0  0  0  0
  -18.7820  -30.1390   23.9320 C   0  0  0  0  0  3  0  0  0  0  0  0
  -17.4600  -30.6060   24.0710 C   0  0  0  0  0  3  0  0  0  0  0  0
  -16.3840  -29.8010   23.6610 C   0  0  0  0  0  3  0  0  0  0  0  0
  -16.6320  -28.5330   23.1040 C   0  0  0  0  0  3  0  0  0  0  0  0
  -25.8010  -32.6070   23.8320 C   0  0  0  0  0  3  0  0  0  0  0  0
  -26.3510  -31.8270   25.0900 C   0  0  1  0  0  0  0  0  0  0  0  0
  -25.2820  -31.5670   26.1760 C   0  0  0  0  0  1  0  0  0  0  0  0
  -26.9400  -30.4590   24.6740 C   0  0  0  0  0  1  0  0  0  0  0  0
  -27.5070  -32.6250   25.7360 C   0  0  0  0  0  1  0  0  0  0  0  0
  -25.4970  -34.0020   24.1810 N   0  0  0  0  0  0  0  0  0  0  0  0
  -25.8060  -35.0600   23.4200 C   0  0  0  0  0  0  0  0  0  0  0  0
  -26.4490  -34.9660   22.3700 O   0  0  0  0  0  0  0  0  0  0  0  0
  -24.9210  -34.1520   24.9950 H   0  0  0  0  0  0  0  0  0  0  0  0
  -24.0730  -36.8590   23.1150 C   0  0  0  0  0  1  0  0  0  0  0  0
  -25.3280  -36.4440   23.9010 C   0  0  0  0  0  3  0  0  0  0  0  0
  -27.4720  -37.3220   24.7140 C   0  0  0  0  0  1  0  0  0  0  0  0
  -26.3580  -37.5000   23.7850 N   0  0  0  0  0  0  0  0  0  0  0  0
  -25.9520  -38.4160   23.9540 H   0  0  0  0  0  0  0  0  0  0  0  0
  1  5  1  0
  3  1  1  0
  3  6  1  0
  4  2  1  0
  5 11  1  0
  5  2  1  0
  6 53  1  1
  6  4  1  0
  8  7  1  0
  9  7  2  0
 10 12  2  0
 10 11  1  0
 11  8  2  0
 12  9  1  0
 13 21  1  0
 14 19  1  0
 15 16  1  0
 15 14  1  0
 17 16  1  0
 17 26  1  0
 17 18  1  0
 19 13  1  0
 19 18  1  0
 20 13  2  0
 21 22  1  0
 21 12  1  0
 23 24  2  0
 24 43  1  0
 25 24  1  0
 25 28  1  0
 26 27  1  0
 26 23  1  0
 27 25  2  0
 28 29  1  0
 29 30  2  0
 31 34  1  0
 31 30  1  0
 32 31  2  0
 33 32  1  0
 33 28  2  0
 34 35  1  0
 35 36  1  0
 36 37  2  0
 38 37  1  0
 38 42  1  0
 39 38  2  0
 40 35  2  0
 40 39  1  0
 41 40  1  0
 43 44  1  0
 44 47  1  0
 44 46  1  0
 45 43  2  0
 48 23  1  0
 48 49  1  0
 50 48  1  0
 52  6  1  0
 52 51  1  0
 53 54  1  0
 55 66  2  0
 56 54  1  0
 56 61  1  0
 57 65  1  0
 57 67  1  0
 58 64  1  0
 58 60  1  0
 59 65  1  0
 60 59  1  0
 61 60  2  0
 62 63  1  0
 62 56  2  0
 63 58  2  0
 64 57  1  0
 65 55  1  0
 67 69  2  0
 68 67  1  0
 70 68  1  0
 71 80  2  0
 71 76  1  0
 72 68  1  0
 72 76  1  0
 73 72  1  0
 74 75  1  0
 74 73  1  0
 75 71  1  0
 76 77  2  0
 77 78  1  0
 79 78  2  0
 80 79  1  0
 81 55  1  0
 81 86  1  0
 81 82  1  0
 82 85  1  1
 82 83  1  0
 84 82  1  0
 86 89  1  0
 87 91  1  0
 87 86  1  0
 88 87  2  0
 91 90  1  0
 93 91  1  0
 93 94  1  0
 93 92  1  0
M  ISO  4  13 100  21 100  53 101  54 101
M  END
>  <TORSDO>  (57) 
F 19

>  <SCORE>  (57) 
-13.965

>  <name>  (57) 
56

>  <ligand_id>  (57) 
56

>  <original_smiles>  (57) 
[H]c1c([H])c([H])c2c(c1[H])C([H])([H])C([H])([H])C([H])([H])C2([H])N([H])C(=O)C1([H])N(C(=O)C([H])(N([H])C(=O)C([H])(N([H])C([H])([H])[H])C([H])([H])[H])C(C([H])([H])[H])(C([H])([H])[H])C([H])([H])[H])C([H])([H])c2c([H])c(OC([H])([H])C3(OC([H])([H])[H])C([H])([H])C([H])([H])C([H])(c4c([H])c([H])c([H])c(N([H])C(=O)N5C([H])([H])C([H])([H])C([H])([H])C([H])(n6nc(-c7c([H])c([H])c(Oc8c([H])c([H])c(F)c([H])c8F)c([H])c7[H])c(C(=O)N([H])[H])c6N([H])[H])C5([H])[H])c4[H])C([H])([H])C3([H])[H])c([H])c([H])c2C1([H])[H]

>  <smiles>  (57) 
[H]c1c([H])c([H])c2c(c1[H])C([H])([H])C([H])([H])C([H])([H])C2([H])N([H])C(=O)C1([H])N(C(=O)C([H])(N([H])C(=O)C([H])(N([H])C([H])([H])[H])C([H])([H])[H])C(C([H])([H])[H])(C([H])([H])[H])C([H])([H])[H])C([H])([H])c2c([H])c(OC([H])([H])C3(OC([H])([H])[H])C([H])([H])C([H])([H])C([H])(c4c([H])c([H])c([H])c(N([H])C(=O)N5C([H])([H])C([H])([H])C([H])([H])C([H])(n6nc(-c7c([H])c([H])c(Oc8c([H])c([H])c(F)c([H])c8F)c([H])c7[H])c(C(=O)N([H])[H])c6N([H])[H])C5([H])[H])c4[H])C([H])([H])C3([H])[H])c([H])c([H])c2C1([H])[H]

$$$$
57:0:0
     RDKit          3D

 99107  0  0  1  0  0  0  0  0999 V2000
  -29.7940  -22.7240   19.8750 C   0  0  0  0  0  0  0  0  0  0  0  0
  -30.2580  -21.5490   20.4780 N   0  0  0  0  0  0  0  0  0  0  0  0
  -29.4270  -22.7120   18.6980 O   0  0  0  0  0  0  0  0  0  0  0  0
  -30.7540  -21.6870   21.3480 H   0  0  0  0  0  0  0  0  0  0  0  0
  -29.0020  -19.8820   19.1660 C   0  0  0  0  0  3  0  0  0  0  0  0
  -29.2260  -17.4670   19.3520 C   0  0  0  0  0  3  0  0  0  0  0  0
  -30.6480  -18.9240   20.6770 C   0  0  0  0  0  3  0  0  0  0  0  0
  -28.5490  -18.5970   18.8490 C   0  0  0  0  0  0  0  0  0  0  0  0
  -30.0290  -20.1240   20.0980 C   0  0  0  0  0  0  0  0  0  0  0  0
  -30.2840  -17.5600   20.2870 C   0  0  0  0  0  0  0  0  0  0  0  0
  -31.3960  -15.1680   20.5010 C   0  0  0  0  0  0  0  0  0  0  0  0
  -31.2390  -12.8430   19.5660 C   0  0  0  0  0  2  0  0  0  0  0  0
  -30.3410  -12.8550   18.3070 C   0  0  0  0  0  2  0  0  0  0  0  0
  -28.8600  -12.6860   18.6950 C   0  0  0  0  0  2  0  0  0  0  0  0
  -28.4500  -13.6110   19.8650 C   0  0  0  0  0  3  0  0  0  0  0  0
  -29.4680  -13.5830   21.0290 C   0  0  0  0  0  2  0  0  0  0  0  0
  -30.7860  -13.9270   20.4750 N   0  0  0  0  0  0  0  0  0  0  0  0
  -32.5570  -15.2850   20.0980 O   0  0  0  0  0  0  0  0  0  0  0  0
  -30.6720  -16.2710   20.9440 N   0  0  0  0  0  0  0  0  0  0  0  0
  -29.9230  -15.9310   21.5290 H   0  0  0  0  0  0  0  0  0  0  0  0
  -26.0690  -14.2820   20.5380 C   0  0  0  0  0  0  0  0  0  0  0  0
  -24.9570  -13.5440   20.8270 C   0  0  0  0  0  0  0  0  0  0  0  0
  -25.3690  -12.1780   20.7610 C   0  0  0  0  0  0  0  0  0  0  0  0
  -27.0830  -13.3700   20.3030 N   0  0  0  0  0  0  0  0  0  0  0  0
  -26.6670  -12.0950   20.4980 N   0  0  0  0  0  0  0  0  0  0  0  0
  -24.5910  -10.9410   20.8760 C   0  0  0  0  0  0  0  0  0  0  0  0
  -24.8870   -9.9760   21.8640 C   0  0  0  0  0  3  0  0  0  0  0  0
  -24.1160   -8.7990   21.9660 C   0  0  0  0  0  3  0  0  0  0  0  0
  -23.0340   -8.5800   21.0810 C   0  0  0  0  0  0  0  0  0  0  0  0
  -22.7570   -9.5360   20.0840 C   0  0  0  0  0  3  0  0  0  0  0  0
  -23.5290  -10.7050   19.9800 C   0  0  0  0  0  3  0  0  0  0  0  0
  -22.2440   -7.4560   21.0920 O   0  0  0  0  0  0  0  0  0  0  0  0
  -21.9020   -6.8310   22.2630 C   0  0  0  0  0  0  0  0  0  0  0  0
  -21.1030   -7.4640   23.2400 C   0  0  0  0  0  3  0  0  0  0  0  0
  -20.7140   -6.7590   24.3960 C   0  0  0  0  0  3  0  0  0  0  0  0
  -21.1150   -5.4220   24.5740 C   0  0  0  0  0  0  0  0  0  0  0  0
  -21.9080   -4.7880   23.6010 C   0  0  0  0  0  3  0  0  0  0  0  0
  -22.2990   -5.4910   22.4460 C   0  0  0  0  0  0  0  0  0  0  0  0
  -23.0430   -4.8690   21.5010 F   0  0  0  0  0  0  0  0  0  0  0  0
  -20.7340   -4.7410   25.6800 F   0  0  0  0  0  0  0  0  0  0  0  0
  -23.5730  -14.0670   21.0720 C   0  0  0  0  0  0  0  0  0  0  0  0
  -22.8010  -13.3750   21.8990 N   0  0  0  0  0  0  0  0  0  0  0  0
  -23.1870  -15.1220   20.5680 O   0  0  0  0  0  0  0  0  0  0  0  0
  -23.1330  -12.5190   22.3200 H   0  0  0  0  0  0  0  0  0  0  0  0
  -21.8710  -13.7030   22.1130 H   0  0  0  0  0  0  0  0  0  0  0  0
  -26.2980  -15.6500   20.4410 N   0  0  0  0  0  0  0  0  0  0  0  0
  -25.5540  -16.3280   20.5510 H   0  0  0  0  0  0  0  0  0  0  0  0
  -27.2030  -16.0730   20.3060 H   0  0  0  0  0  0  0  0  0  0  0  0
  -27.2790  -18.4690   17.9990 C   0  0  0  0  0  2  0  0  0  0  0  0
  -25.9360  -20.6640   17.9370 C   0  0  0  0  0  1  0  0  0  0  0  0
  -24.7300  -18.5100   18.0550 C   0  0  0  0  0  1  0  0  0  0  0  0
  -25.9610  -19.3580   20.0690 C   0  0  0  0  0  1  0  0  0  0  0  0
  -26.0090  -19.2360   18.5260 C   0  0  1  0  0  0  0  0  0  0  0  0
  -31.2610  -24.5840   20.7640 C   0  0  0  0  0  1  0  0  0  0  0  0
  -29.7840  -24.1750   20.5870 C   0  0  2  0  0  0  0  0  0  0  0  0
  -27.6100  -23.7710   22.0080 C   0  0  0  0  0  1  0  0  0  0  0  0
  -29.1190  -24.0850   21.9880 C   0  0  0  0  0  2  0  0  0  0  0  0
  -29.0660  -25.3760   19.7450 C   0  0  0  0  0  2  0  0  0  0  0  0
  -29.0260  -26.7980   20.2410 O   0  0  0  0  0  0  0  0  0  0  0  0
  -24.7740  -31.7990   23.3240 C   0  0  0  0  0  0  0  0  0  0  0  0
  -27.8570  -27.5910   20.1470 C   0  0  0  0  0  0  0  0  0  0  0  0
  -23.7610  -30.4410   21.5270 C   0  0  0  0  0  3  0  0  0  0  0  0
  -25.3890  -29.0760   20.0990 C   0  0  0  0  0  0  0  0  0  0  0  0
  -26.2840  -30.9140   21.5270 C   0  0  0  0  0  2  0  0  0  0  0  0
  -26.4890  -29.5860   20.7990 C   0  0  0  0  0  0  0  0  0  0  0  0
  -27.7190  -28.8550   20.8180 C   0  0  0  0  0  3  0  0  0  0  0  0
  -26.7300  -27.1570   19.4070 C   0  0  0  0  0  3  0  0  0  0  0  0
  -25.5140  -27.8690   19.3950 C   0  0  0  0  0  3  0  0  0  0  0  0
  -24.1000  -29.8730   20.1240 C   0  0  0  0  0  2  0  0  0  0  0  0
  -24.9540  -31.0680   22.1830 N   0  0  0  0  0  0  0  0  0  0  0  0
  -23.6450  -31.9750   23.8060 O   0  0  0  0  0  0  0  0  0  0  0  0
  -23.1070  -29.3270   22.3810 C   0  0  0  0  0  0  0  0  0  0  0  0
  -21.7970  -29.1000   22.1860 N   0  0  0  0  0  0  0  0  0  0  0  0
  -23.7800  -28.6740   23.1840 O   0  0  0  0  0  0  0  0  0  0  0  0
  -21.3090  -29.6800   21.5180 H   0  0  0  0  0  0  0  0  0  0  0  0
  -18.4490  -27.7740   22.5210 C   0  0  0  0  0  0  0  0  0  0  0  0
  -20.9950  -28.0710   22.8530 C   0  0  0  0  0  3  0  0  0  0  0  0
  -21.1420  -26.7040   22.1410 C   0  0  0  0  0  2  0  0  0  0  0  0
  -20.0610  -26.4510   21.0860 C   0  0  0  0  0  2  0  0  0  0  0  0
  -18.6690  -26.5010   21.7230 C   0  0  0  0  0  2  0  0  0  0  0  0
  -19.5410  -28.5200   23.0390 C   0  0  0  0  0  0  0  0  0  0  0  0
  -19.2810  -29.7110   23.7510 C   0  0  0  0  0  3  0  0  0  0  0  0
  -17.9610  -30.1610   23.9440 C   0  0  0  0  0  3  0  0  0  0  0  0
  -16.8840  -29.4140   23.4380 C   0  0  0  0  0  3  0  0  0  0  0  0
  -17.1290  -28.2210   22.7340 C   0  0  0  0  0  3  0  0  0  0  0  0
  -25.9760  -32.4660   24.0620 C   0  0  0  0  0  3  0  0  0  0  0  0
  -25.6060  -33.8620   24.3400 N   0  0  0  0  0  0  0  0  0  0  0  0
  -26.0040  -34.9160   23.6170 C   0  0  0  0  0  0  0  0  0  0  0  0
  -26.7900  -34.8170   22.6690 O   0  0  0  0  0  0  0  0  0  0  0  0
  -24.9180  -34.0100   25.0650 H   0  0  0  0  0  0  0  0  0  0  0  0
  -24.3200  -36.6920   23.0330 C   0  0  0  0  0  1  0  0  0  0  0  0
  -25.4450  -36.3000   24.0030 C   0  0  0  0  0  3  0  0  0  0  0  0
  -27.4160  -37.2320   25.1360 C   0  0  0  0  0  1  0  0  0  0  0  0
  -26.4730  -37.3630   24.0280 N   0  0  0  0  0  0  0  0  0  0  0  0
  -26.0400  -38.2810   24.0860 H   0  0  0  0  0  0  0  0  0  0  0  0
  -26.3760  -31.7220   25.3950 C   0  0  1  0  0  0  0  0  0  0  0  0
  -25.1840  -31.4680   26.3480 C   0  0  0  0  0  1  0  0  0  0  0  0
  -27.0310  -30.3550   25.0880 C   0  0  0  0  0  1  0  0  0  0  0  0
  -27.4330  -32.5520   26.1620 C   0  0  0  0  0  1  0  0  0  0  0  0
  1  2  1  0
  1 55  1  0
  2  4  1  0
  3  1  2  0
  5  9  1  0
  6 10  2  0
  8  5  2  0
  8  6  1  0
  9  2  1  0
  9  7  2  0
 10  7  1  0
 10 19  1  0
 11 19  1  0
 12 17  1  0
 13 14  1  0
 13 12  1  0
 15 14  1  0
 15 24  1  0
 15 16  1  0
 17 11  1  0
 17 16  1  0
 18 11  2  0
 19 20  1  0
 21 22  2  0
 22 41  1  0
 23 22  1  0
 23 26  1  0
 24 25  1  0
 24 21  1  0
 25 23  2  0
 26 27  1  0
 27 28  2  0
 29 32  1  0
 29 28  1  0
 30 29  2  0
 31 30  1  0
 31 26  2  0
 32 33  1  0
 33 38  2  0
 33 34  1  0
 34 35  2  0
 35 36  1  0
 36 40  1  0
 37 36  2  0
 38 37  1  0
 39 38  1  0
 41 42  1  0
 42 45  1  0
 42 44  1  0
 43 41  2  0
 46 21  1  0
 46 47  1  0
 48 46  1  0
 49 53  1  0
 49  8  1  0
 53 50  1  6
 51 53  1  0
 53 52  1  0
 55 54  1  1
 55 57  1  0
 57 56  1  0
 58 59  1  0
 58 55  1  0
 60 71  2  0
 61 59  1  0
 61 66  1  0
 62 70  1  0
 62 72  1  0
 63 69  1  0
 63 65  1  0
 64 70  1  0
 65 66  2  0
 65 64  1  0
 67 61  2  0
 68 67  1  0
 68 63  2  0
 69 62  1  0
 70 60  1  0
 72 74  2  0
 73 72  1  0
 75 73  1  0
 76 85  2  0
 76 81  1  0
 77 73  1  0
 77 81  1  0
 78 77  1  0
 79 80  1  0
 79 78  1  0
 80 76  1  0
 81 82  2  0
 82 83  1  0
 84 83  2  0
 85 84  1  0
 86 60  1  0
 86 87  1  0
 86 96  1  0
 87 90  1  0
 88 92  1  0
 88 87  1  0
 89 88  2  0
 92 91  1  0
 92 94  1  0
 94 95  1  0
 94 93  1  0
 96 99  1  1
 96 97  1  0
 98 96  1  0
M  ISO  4  11 100  19 100  58 101  59 101
M  END
>  <TORSDO>  (58) 
F 22

>  <SCORE>  (58) 
-8.184

>  <name>  (58) 
57

>  <ligand_id>  (58) 
57

>  <original_smiles>  (58) 
[H]c1c([H])c([H])c2c(c1[H])C([H])([H])C([H])([H])C([H])([H])C2([H])N([H])C(=O)C1([H])N(C(=O)C([H])(N([H])C(=O)C([H])(N([H])C([H])([H])[H])C([H])([H])[H])C(C([H])([H])[H])(C([H])([H])[H])C([H])([H])[H])C([H])([H])c2c([H])c(OC([H])([H])C(C(=O)N([H])c3c([H])c(N([H])C(=O)N4C([H])([H])C([H])([H])C([H])([H])C([H])(n5nc(-c6c([H])c([H])c(Oc7c([H])c([H])c(F)c([H])c7F)c([H])c6[H])c(C(=O)N([H])[H])c5N([H])[H])C4([H])[H])c([H])c(C([H])([H])C(C([H])([H])[H])(C([H])([H])[H])C([H])([H])[H])c3[H])(C([H])([H])[H])C([H])([H])C([H])([H])[H])c([H])c([H])c2C1([H])[H]

>  <smiles>  (58) 
[H]c1c([H])c([H])c2c(c1[H])C([H])([H])C([H])([H])C([H])([H])C2([H])N([H])C(=O)C1([H])N(C(=O)C([H])(N([H])C(=O)C([H])(N([H])C([H])([H])[H])C([H])([H])[H])C(C([H])([H])[H])(C([H])([H])[H])C([H])([H])[H])C([H])([H])c2c([H])c(OC([H])([H])C(C(=O)N([H])c3c([H])c(N([H])C(=O)N4C([H])([H])C([H])([H])C([H])([H])C([H])(n5nc(-c6c([H])c([H])c(Oc7c([H])c([H])c(F)c([H])c7F)c([H])c6[H])c(C(=O)N([H])[H])c5N([H])[H])C4([H])[H])c([H])c(C([H])([H])C(C([H])([H])[H])(C([H])([H])[H])C([H])([H])[H])c3[H])(C([H])([H])[H])C([H])([H])C([H])([H])[H])c([H])c([H])c2C1([H])[H]

$$$$
58:0:0
     RDKit          3D

100108  0  0  1  0  0  0  0  0999 V2000
  -28.4440  -17.0400   20.0350 C   0  0  0  0  0  3  0  0  0  0  0  0
  -28.4980  -19.4670   19.9680 C   0  0  0  0  0  3  0  0  0  0  0  0
  -30.2570  -18.2090   21.1280 C   0  0  0  0  0  3  0  0  0  0  0  0
  -27.8740  -18.2570   19.6320 C   0  0  0  0  0  0  0  0  0  0  0  0
  -29.6430  -16.9610   20.7680 C   0  0  0  0  0  0  0  0  0  0  0  0
  -29.6810  -19.4750   20.7370 C   0  0  0  0  0  0  0  0  0  0  0  0
  -30.6990  -14.6550   20.6080 C   0  0  0  0  0  0  0  0  0  0  0  0
  -30.4740  -12.4690   19.4450 C   0  0  0  0  0  2  0  0  0  0  0  0
  -29.5470  -12.6320   18.2180 C   0  0  0  0  0  2  0  0  0  0  0  0
  -28.0740  -12.4280   18.6220 C   0  0  0  0  0  2  0  0  0  0  0  0
  -27.6910  -13.2600   19.8690 C   0  0  0  0  0  3  0  0  0  0  0  0
  -28.7320  -13.1010   21.0050 C   0  0  0  0  0  2  0  0  0  0  0  0
  -30.0620  -13.4490   20.4720 N   0  0  0  0  0  0  0  0  0  0  0  0
  -31.8160  -14.8560   20.1240 O   0  0  0  0  0  0  0  0  0  0  0  0
  -30.0160  -15.6400   21.2600 N   0  0  0  0  0  0  0  0  0  0  0  0
  -29.2660  -15.2140   21.7830 H   0  0  0  0  0  0  0  0  0  0  0  0
  -25.2830  -13.8890   20.5400 C   0  0  0  0  0  0  0  0  0  0  0  0
  -24.2110  -13.1230   20.9040 C   0  0  0  0  0  0  0  0  0  0  0  0
  -24.6730  -11.7730   20.8860 C   0  0  0  0  0  0  0  0  0  0  0  0
  -26.3310  -13.0020   20.3240 N   0  0  0  0  0  0  0  0  0  0  0  0
  -25.9650  -11.7260   20.5930 N   0  0  0  0  0  0  0  0  0  0  0  0
  -23.9470  -10.5140   21.0670 C   0  0  0  0  0  0  0  0  0  0  0  0
  -24.3630   -9.5550   22.0150 C   0  0  0  0  0  3  0  0  0  0  0  0
  -23.6380   -8.3560   22.1820 C   0  0  0  0  0  3  0  0  0  0  0  0
  -22.4850   -8.1110   21.4000 C   0  0  0  0  0  0  0  0  0  0  0  0
  -22.0890   -9.0600   20.4400 C   0  0  0  0  0  3  0  0  0  0  0  0
  -22.8160  -10.2490   20.2710 C   0  0  0  0  0  3  0  0  0  0  0  0
  -21.7350   -6.9630   21.4740 O   0  0  0  0  0  0  0  0  0  0  0  0
  -21.6500   -6.2340   22.6330 C   0  0  0  0  0  0  0  0  0  0  0  0
  -21.1800   -6.8000   23.8380 C   0  0  0  0  0  3  0  0  0  0  0  0
  -21.0450   -5.9980   24.9880 C   0  0  0  0  0  3  0  0  0  0  0  0
  -21.3710   -4.6290   24.9330 C   0  0  0  0  0  0  0  0  0  0  0  0
  -21.8360   -4.0630   23.7340 C   0  0  0  0  0  3  0  0  0  0  0  0
  -21.9720   -4.8630   22.5860 C   0  0  0  0  0  0  0  0  0  0  0  0
  -22.4010   -4.3080   21.4270 F   0  0  0  0  0  0  0  0  0  0  0  0
  -21.2330   -3.8550   26.0360 F   0  0  0  0  0  0  0  0  0  0  0  0
  -22.8090  -13.6040   21.1480 C   0  0  0  0  0  0  0  0  0  0  0  0
  -22.0640  -12.9190   22.0080 N   0  0  0  0  0  0  0  0  0  0  0  0
  -22.3830  -14.6250   20.6090 O   0  0  0  0  0  0  0  0  0  0  0  0
  -22.4180  -12.0940   22.4680 H   0  0  0  0  0  0  0  0  0  0  0  0
  -21.1250  -13.2280   22.2110 H   0  0  0  0  0  0  0  0  0  0  0  0
  -25.4320  -15.2550   20.3430 N   0  0  0  0  0  0  0  0  0  0  0  0
  -24.5810  -15.8080   20.3460 H   0  0  0  0  0  0  0  0  0  0  0  0
  -26.0750  -15.5700   19.6320 H   0  0  0  0  0  0  0  0  0  0  0  0
  -26.6030  -18.2570   18.9120 C   0  0  0  0  0  0  0  0  0  0  0  0
  -26.3690  -17.3600   17.9580 N   0  0  0  0  0  4  0  0  0  0  0  0
  -25.6470  -19.1280   19.2290 N   0  0  0  0  0  0  0  0  0  0  0  0
  -27.1320  -16.7930   17.6190 H   0  0  0  0  0  0  0  0  0  0  0  0
  -25.4880  -17.3020   17.4690 H   0  0  0  0  0  0  0  0  0  0  0  0
  -25.7910  -19.7490   20.0100 H   0  0  0  0  0  0  0  0  0  0  0  0
  -24.7570  -19.1530   18.7600 H   0  0  0  0  0  0  0  0  0  0  0  0
  -30.2310  -20.7310   21.1100 N   0  0  0  0  0  0  0  0  0  0  0  0
  -31.0710  -20.7750   21.6860 H   0  0  0  0  0  0  0  0  0  0  0  0
  -29.5480  -22.0420   20.8630 C   0  0  0  0  0  2  0  0  0  0  0  0
  -30.3650  -23.2820   21.3180 C   0  0  0  0  0  0  0  0  0  0  0  0
  -31.3940  -23.0780   21.9820 O   0  0  0  0  0  0  0  0  0  0  0  0
  -29.9830  -24.7850   20.9690 C   0  0  0  0  0  0  0  0  0  0  0  0
  -30.9020  -25.6200   20.9630 O   0  0  0  0  0  0  0  0  0  0  0  0
  -28.5410  -25.2760   20.6450 C   0  0  0  0  0  2  0  0  0  0  0  0
  -28.5290  -26.7320   20.6000 O   0  0  0  0  0  0  0  0  0  0  0  0
  -24.6110  -32.0160   23.3680 C   0  0  0  0  0  0  0  0  0  0  0  0
  -27.3350  -27.4380   20.5340 C   0  0  0  0  0  0  0  0  0  0  0  0
  -23.4490  -30.5690   21.7310 C   0  0  0  0  0  3  0  0  0  0  0  0
  -24.9410  -28.9700   20.4070 C   0  0  0  0  0  0  0  0  0  0  0  0
  -25.9830  -30.9070   21.6000 C   0  0  0  0  0  2  0  0  0  0  0  0
  -26.0840  -29.5100   21.0130 C   0  0  0  0  0  0  0  0  0  0  0  0
  -27.2800  -28.7540   21.0630 C   0  0  0  0  0  3  0  0  0  0  0  0
  -26.1740  -26.9150   19.9260 C   0  0  0  0  0  3  0  0  0  0  0  0
  -24.9850  -27.6740   19.8590 C   0  0  0  0  0  3  0  0  0  0  0  0
  -23.7030  -29.8420   20.3810 C   0  0  0  0  0  2  0  0  0  0  0  0
  -24.6980  -31.1810   22.2930 N   0  0  0  0  0  0  0  0  0  0  0  0
  -23.5150  -32.3100   23.8650 O   0  0  0  0  0  0  0  0  0  0  0  0
  -22.7590  -29.5840   22.7040 C   0  0  0  0  0  0  0  0  0  0  0  0
  -21.4390  -29.4030   22.5380 N   0  0  0  0  0  0  0  0  0  0  0  0
  -23.4110  -28.9840   23.5620 O   0  0  0  0  0  0  0  0  0  0  0  0
  -20.9720  -29.9420   21.8220 H   0  0  0  0  0  0  0  0  0  0  0  0
  -18.0470  -28.2260   22.9510 C   0  0  0  0  0  0  0  0  0  0  0  0
  -20.5930  -28.4910   23.3090 C   0  0  0  0  0  3  0  0  0  0  0  0
  -20.7140  -27.0410   22.7860 C   0  0  0  0  0  2  0  0  0  0  0  0
  -19.6500  -26.6850   21.7430 C   0  0  0  0  0  2  0  0  0  0  0  0
  -18.2460  -26.8550   22.3300 C   0  0  0  0  0  2  0  0  0  0  0  0
  -19.1500  -29.0000   23.3980 C   0  0  0  0  0  0  0  0  0  0  0  0
  -18.9130  -30.2830   23.9390 C   0  0  0  0  0  3  0  0  0  0  0  0
  -17.6050  -30.7920   24.0370 C   0  0  0  0  0  3  0  0  0  0  0  0
  -16.5150  -30.0160   23.6070 C   0  0  0  0  0  3  0  0  0  0  0  0
  -16.7360  -28.7340   23.0710 C   0  0  0  0  0  3  0  0  0  0  0  0
  -25.8790  -32.6620   24.0100 C   0  0  0  0  0  3  0  0  0  0  0  0
  -25.5660  -34.0680   24.2930 N   0  0  0  0  0  0  0  0  0  0  0  0
  -25.9040  -35.0970   23.5050 C   0  0  0  0  0  0  0  0  0  0  0  0
  -26.5850  -34.9620   22.4840 O   0  0  0  0  0  0  0  0  0  0  0  0
  -24.9640  -34.2470   25.0840 H   0  0  0  0  0  0  0  0  0  0  0  0
  -24.1630  -36.8650   23.0970 C   0  0  0  0  0  1  0  0  0  0  0  0
  -25.4120  -36.4980   23.9140 C   0  0  0  0  0  3  0  0  0  0  0  0
  -27.5460  -37.4290   24.6970 C   0  0  0  0  0  1  0  0  0  0  0  0
  -26.4370  -37.5530   23.7550 N   0  0  0  0  0  0  0  0  0  0  0  0
  -26.0250  -38.4750   23.8710 H   0  0  0  0  0  0  0  0  0  0  0  0
  -26.3580  -31.9210   25.3180 C   0  0  1  0  0  0  0  0  0  0  0  0
  -25.2340  -31.7050   26.3580 C   0  0  0  0  0  1  0  0  0  0  0  0
  -26.9560  -30.5370   24.9730 C   0  0  0  0  0  1  0  0  0  0  0  0
  -27.4850  -32.7340   26.0000 C   0  0  0  0  0  1  0  0  0  0  0  0
  1  5  1  0
  2  6  2  0
  4  2  1  0
  4  1  2  0
  5  3  2  0
  5 15  1  0
  6 52  1  0
  6  3  1  0
  7 15  1  0
  8 13  1  0
  9 10  1  0
  9  8  1  0
 11 10  1  0
 11 20  1  0
 11 12  1  0
 13  7  1  0
 13 12  1  0
 14  7  2  0
 15 16  1  0
 17 18  2  0
 18 37  1  0
 19 18  1  0
 19 22  1  0
 20 17  1  0
 20 21  1  0
 21 19  2  0
 22 23  1  0
 23 24  2  0
 25 28  1  0
 25 24  1  0
 26 25  2  0
 27 26  1  0
 27 22  2  0
 28 29  1  0
 29 30  1  0
 30 31  2  0
 32 31  1  0
 32 36  1  0
 33 32  2  0
 34 29  2  0
 34 33  1  0
 35 34  1  0
 37 38  1  0
 38 41  1  0
 38 40  1  0
 39 37  2  0
 42 43  1  0
 42 17  1  0
 44 42  1  0
 45 47  1  0
 45  4  1  0
 46 45  2  0
 47 50  1  0
 48 46  1  0
 49 46  1  0
 51 47  1  0
 52 53  1  0
 54 52  1  0
 54 55  1  0
 55 56  2  0
 57 55  1  0
 58 57  2  0
 59 57  1  0
 60 59  1  0
 61 72  2  0
 62 60  1  0
 62 67  1  0
 63 71  1  0
 63 73  1  0
 64 66  1  0
 65 71  1  0
 66 67  2  0
 66 65  1  0
 68 62  2  0
 69 68  1  0
 69 64  2  0
 70 64  1  0
 70 63  1  0
 71 61  1  0
 73 75  2  0
 74 73  1  0
 76 74  1  0
 77 86  2  0
 77 82  1  0
 78 74  1  0
 78 82  1  0
 79 78  1  0
 80 81  1  0
 80 79  1  0
 81 77  1  0
 82 83  2  0
 83 84  1  0
 85 84  2  0
 86 85  1  0
 87 61  1  0
 87 88  1  0
 87 97  1  0
 88 91  1  0
 89 93  1  0
 89 88  1  0
 90 89  2  0
 93 92  1  0
 95 96  1  0
 95 93  1  0
 95 94  1  0
 97100  1  1
 97 98  1  0
 99 97  1  0
M  ISO  4   7 100  15 100  59 101  60 101
M  END
>  <TORSDO>  (59) 
F 22

>  <SCORE>  (59) 
-10.766

>  <name>  (59) 
58

>  <ligand_id>  (59) 
58

>  <original_smiles>  (59) 
[H]c1c([H])c([H])c2c(c1[H])C([H])([H])C([H])([H])C([H])([H])C2([H])N([H])C(=O)C1([H])N(C(=O)C([H])(N([H])C(=O)C([H])(N([H])C([H])([H])[H])C([H])([H])[H])C(C([H])([H])[H])(C([H])([H])[H])C([H])([H])[H])C([H])([H])c2c([H])c(OC([H])([H])C(=O)C(=O)C([H])([H])N([H])c3c([H])c(C(N([H])[H])=[N+]([H])[H])c([H])c(N([H])C(=O)N4C([H])([H])C([H])([H])C([H])([H])C([H])(n5nc(-c6c([H])c([H])c(Oc7c([H])c([H])c(F)c([H])c7F)c([H])c6[H])c(C(=O)N([H])[H])c5N([H])[H])C4([H])[H])c3[H])c([H])c([H])c2C1([H])[H]

>  <smiles>  (59) 
[H]c1c([H])c([H])c2c(c1[H])C([H])([H])C([H])([H])C([H])([H])C2([H])N([H])C(=O)C1([H])N(C(=O)C([H])(N([H])C(=O)C([H])(N([H])C([H])([H])[H])C([H])([H])[H])C(C([H])([H])[H])(C([H])([H])[H])C([H])([H])[H])C([H])([H])c2c([H])c(OC([H])([H])C(=O)C(=O)C([H])([H])N([H])c3c([H])c(C(N([H])[H])=[N+]([H])[H])c([H])c(N([H])C(=O)N4C([H])([H])C([H])([H])C([H])([H])C([H])(n5nc(-c6c([H])c([H])c(Oc7c([H])c([H])c(F)c([H])c7F)c([H])c6[H])c(C(=O)N([H])[H])c5N([H])[H])C4([H])[H])c3[H])c([H])c([H])c2C1([H])[H]

$$$$
59:0:0
     RDKit          3D

 95103  0  0  1  0  0  0  0  0999 V2000
  -29.1220  -20.6310   20.7840 C   0  0  0  0  0  0  0  0  0  0  0  0
  -29.3820  -21.9100   20.4320 N   0  0  0  0  0  0  0  0  0  0  0  0
  -27.9210  -20.3450   21.2840 N   0  0  0  0  0  4  0  0  0  0  0  0
  -30.2680  -22.1130   19.9830 H   0  0  0  0  0  0  0  0  0  0  0  0
  -27.7490  -19.4140   21.6350 H   0  0  0  0  0  0  0  0  0  0  0  0
  -27.1800  -21.0200   21.3460 H   0  0  0  0  0  0  0  0  0  0  0  0
  -32.4730  -18.8630   20.7460 C   0  0  0  0  0  3  0  0  0  0  0  0
  -31.4980  -19.8780   20.7520 C   0  0  0  0  0  3  0  0  0  0  0  0
  -32.0940  -17.5090   20.6750 C   0  0  0  0  0  3  0  0  0  0  0  0
  -29.7520  -18.1780   20.6000 C   0  0  0  0  0  3  0  0  0  0  0  0
  -30.1270  -19.5500   20.6860 C   0  0  0  0  0  0  0  0  0  0  0  0
  -30.7270  -17.1410   20.5860 C   0  0  0  0  0  0  0  0  0  0  0  0
  -30.9760  -14.7100   20.0020 C   0  0  0  0  0  0  0  0  0  0  0  0
  -30.6300  -12.4990   18.9580 C   0  0  0  0  0  2  0  0  0  0  0  0
  -29.6300  -12.6390   17.7920 C   0  0  0  0  0  2  0  0  0  0  0  0
  -28.1830  -12.5000   18.3010 C   0  0  0  0  0  2  0  0  0  0  0  0
  -27.8960  -13.3910   19.5400 C   0  0  0  0  0  3  0  0  0  0  0  0
  -29.0070  -13.2440   20.6050 C   0  0  0  0  0  2  0  0  0  0  0  0
  -30.2970  -13.5310   19.9560 N   0  0  0  0  0  0  0  0  0  0  0  0
  -32.0750  -14.8490   19.4540 O   0  0  0  0  0  0  0  0  0  0  0  0
  -30.3130  -15.7630   20.5340 N   0  0  0  0  0  0  0  0  0  0  0  0
  -29.3740  -15.5610   20.8420 H   0  0  0  0  0  0  0  0  0  0  0  0
  -25.5620  -14.0120   20.4280 C   0  0  0  0  0  0  0  0  0  0  0  0
  -24.5050  -13.2450   20.8390 C   0  0  0  0  0  0  0  0  0  0  0  0
  -24.9350  -11.8870   20.7280 C   0  0  0  0  0  0  0  0  0  0  0  0
  -26.5720  -13.1210   20.0970 N   0  0  0  0  0  0  0  0  0  0  0  0
  -26.2020  -11.8360   20.3350 N   0  0  0  0  0  0  0  0  0  0  0  0
  -24.1970  -10.6320   20.9180 C   0  0  0  0  0  0  0  0  0  0  0  0
  -24.5940   -9.6800   21.8830 C   0  0  0  0  0  3  0  0  0  0  0  0
  -23.8580   -8.4890   22.0590 C   0  0  0  0  0  3  0  0  0  0  0  0
  -22.7090   -8.2420   21.2710 C   0  0  0  0  0  0  0  0  0  0  0  0
  -22.3310   -9.1820   20.2960 C   0  0  0  0  0  3  0  0  0  0  0  0
  -23.0680  -10.3650   20.1180 C   0  0  0  0  0  3  0  0  0  0  0  0
  -21.9470   -7.1020   21.3550 O   0  0  0  0  0  0  0  0  0  0  0  0
  -21.7760   -6.4360   22.5420 C   0  0  0  0  0  0  0  0  0  0  0  0
  -21.1540   -7.0440   23.6540 C   0  0  0  0  0  3  0  0  0  0  0  0
  -20.9370   -6.3010   24.8330 C   0  0  0  0  0  3  0  0  0  0  0  0
  -21.3300   -4.9520   24.8980 C   0  0  0  0  0  0  0  0  0  0  0  0
  -21.9450   -4.3430   23.7890 C   0  0  0  0  0  3  0  0  0  0  0  0
  -22.1640   -5.0820   22.6140 C   0  0  0  0  0  0  0  0  0  0  0  0
  -22.7380   -4.4860   21.5410 F   0  0  0  0  0  0  0  0  0  0  0  0
  -21.1150   -4.2350   26.0260 F   0  0  0  0  0  0  0  0  0  0  0  0
  -23.1380  -13.7370   21.2190 C   0  0  0  0  0  0  0  0  0  0  0  0
  -22.4470  -13.0130   22.0920 N   0  0  0  0  0  0  0  0  0  0  0  0
  -22.6950  -14.7960   20.7780 O   0  0  0  0  0  0  0  0  0  0  0  0
  -22.8200  -12.1550   22.4700 H   0  0  0  0  0  0  0  0  0  0  0  0
  -21.5320  -13.3220   22.3880 H   0  0  0  0  0  0  0  0  0  0  0  0
  -25.7430  -15.3850   20.2870 N   0  0  0  0  0  0  0  0  0  0  0  0
  -24.9900  -16.0440   20.4540 H   0  0  0  0  0  0  0  0  0  0  0  0
  -26.5620  -15.8150   19.8790 H   0  0  0  0  0  0  0  0  0  0  0  0
  -28.4970  -23.0960   20.6300 C   0  0  0  0  0  2  0  0  0  0  0  0
  -29.1160  -24.4650   20.2650 C   0  0  0  0  0  0  0  0  0  0  0  0
  -30.1110  -24.5390   19.5340 O   0  0  0  0  0  0  0  0  0  0  0  0
  -28.4450  -25.7130   20.8880 C   0  0  0  0  0  2  0  0  0  0  0  0
  -28.6320  -26.9360   20.1360 O   0  0  0  0  0  0  0  0  0  0  0  0
  -24.7130  -31.9540   23.3550 C   0  0  0  0  0  0  0  0  0  0  0  0
  -27.4880  -27.7060   20.1170 C   0  0  0  0  0  0  0  0  0  0  0  0
  -23.5590  -30.6040   21.6340 C   0  0  0  0  0  3  0  0  0  0  0  0
  -25.0670  -29.1670   20.1570 C   0  0  0  0  0  0  0  0  0  0  0  0
  -26.0810  -31.0250   21.4860 C   0  0  0  0  0  2  0  0  0  0  0  0
  -26.2060  -29.6880   20.7840 C   0  0  0  0  0  0  0  0  0  0  0  0
  -27.4250  -28.9660   20.7590 C   0  0  0  0  0  3  0  0  0  0  0  0
  -26.3350  -27.2080   19.4750 C   0  0  0  0  0  3  0  0  0  0  0  0
  -25.1260  -27.9280   19.4960 C   0  0  0  0  0  3  0  0  0  0  0  0
  -23.8020  -29.9940   20.2270 C   0  0  0  0  0  2  0  0  0  0  0  0
  -24.8020  -31.2060   22.2180 N   0  0  0  0  0  0  0  0  0  0  0  0
  -23.6190  -32.1770   23.8920 O   0  0  0  0  0  0  0  0  0  0  0  0
  -22.9190  -29.5250   22.5380 C   0  0  0  0  0  0  0  0  0  0  0  0
  -21.5990  -29.3240   22.3890 N   0  0  0  0  0  0  0  0  0  0  0  0
  -23.6060  -28.8740   23.3290 O   0  0  0  0  0  0  0  0  0  0  0  0
  -21.1050  -29.9040   21.7240 H   0  0  0  0  0  0  0  0  0  0  0  0
  -18.2380  -28.0670   22.8160 C   0  0  0  0  0  0  0  0  0  0  0  0
  -20.7930  -28.3360   23.1040 C   0  0  0  0  0  3  0  0  0  0  0  0
  -20.9110  -26.9410   22.4480 C   0  0  0  0  0  2  0  0  0  0  0  0
  -19.8130  -26.6650   21.4170 C   0  0  0  0  0  2  0  0  0  0  0  0
  -18.4290  -26.7590   22.0670 C   0  0  0  0  0  2  0  0  0  0  0  0
  -19.3490  -28.8150   23.2900 C   0  0  0  0  0  0  0  0  0  0  0  0
  -19.1160  -30.0420   23.9500 C   0  0  0  0  0  3  0  0  0  0  0  0
  -17.8060  -30.5190   24.1420 C   0  0  0  0  0  3  0  0  0  0  0  0
  -16.7100  -29.7660   23.6850 C   0  0  0  0  0  3  0  0  0  0  0  0
  -16.9270  -28.5420   23.0280 C   0  0  0  0  0  3  0  0  0  0  0  0
  -25.9770  -32.5840   24.0190 C   0  0  0  0  0  3  0  0  0  0  0  0
  -26.4510  -31.8090   25.3110 C   0  0  1  0  0  0  0  0  0  0  0  0
  -25.3190  -31.5540   26.3330 C   0  0  0  0  0  1  0  0  0  0  0  0
  -27.0630  -30.4400   24.9320 C   0  0  0  0  0  1  0  0  0  0  0  0
  -27.5660  -32.6110   26.0220 C   0  0  0  0  0  1  0  0  0  0  0  0
  -25.6590  -33.9810   24.3380 N   0  0  0  0  0  0  0  0  0  0  0  0
  -26.0160  -35.0320   23.5890 C   0  0  0  0  0  0  0  0  0  0  0  0
  -26.7200  -34.9270   22.5800 O   0  0  0  0  0  0  0  0  0  0  0  0
  -25.0400  -34.1370   25.1200 H   0  0  0  0  0  0  0  0  0  0  0  0
  -24.3040  -36.8270   23.1710 C   0  0  0  0  0  1  0  0  0  0  0  0
  -25.5140  -36.4220   24.0280 C   0  0  0  0  0  3  0  0  0  0  0  0
  -27.6130  -37.3090   24.9440 C   0  0  0  0  0  1  0  0  0  0  0  0
  -26.5520  -37.4730   23.9530 N   0  0  0  0  0  0  0  0  0  0  0  0
  -26.1410  -38.3940   24.0780 H   0  0  0  0  0  0  0  0  0  0  0  0
  1  3  2  0
  2 51  1  0
  2  1  1  0
  3  6  1  0
  3  5  1  0
  4  2  1  0
  7  8  1  0
  9  7  2  0
 10 11  1  0
 11  8  2  0
 11  1  1  0
 12 10  2  0
 12  9  1  0
 13 21  1  0
 14 19  1  0
 15 16  1  0
 15 14  1  0
 17 16  1  0
 17 26  1  0
 17 18  1  0
 19 13  1  0
 19 18  1  0
 20 13  2  0
 21 12  1  0
 21 22  1  0
 23 24  2  0
 24 43  1  0
 25 24  1  0
 25 28  1  0
 26 27  1  0
 26 23  1  0
 27 25  2  0
 28 29  1  0
 29 30  2  0
 31 34  1  0
 31 30  1  0
 32 31  2  0
 33 32  1  0
 33 28  2  0
 34 35  1  0
 35 40  2  0
 35 36  1  0
 36 37  2  0
 37 38  1  0
 38 42  1  0
 39 38  2  0
 40 39  1  0
 41 40  1  0
 43 44  1  0
 44 47  1  0
 44 46  1  0
 45 43  2  0
 48 23  1  0
 48 49  1  0
 50 48  1  0
 52 51  1  0
 52 54  1  0
 53 52  2  0
 55 54  1  0
 56 67  2  0
 57 55  1  0
 57 62  1  0
 58 66  1  0
 58 68  1  0
 59 65  1  0
 59 61  1  0
 60 66  1  0
 61 60  1  0
 62 61  2  0
 63 64  1  0
 63 57  2  0
 64 59  2  0
 65 58  1  0
 66 56  1  0
 68 70  2  0
 69 68  1  0
 71 69  1  0
 72 81  2  0
 72 77  1  0
 73 69  1  0
 73 77  1  0
 74 73  1  0
 75 76  1  0
 75 74  1  0
 76 72  1  0
 77 78  2  0
 78 79  1  0
 80 79  2  0
 81 80  1  0
 82 56  1  0
 82 87  1  0
 82 83  1  0
 83 86  1  1
 83 84  1  0
 85 83  1  0
 87 90  1  0
 88 92  1  0
 88 87  1  0
 89 88  2  0
 92 91  1  0
 94 92  1  0
 94 95  1  0
 94 93  1  0
M  ISO  4  13 100  21 100  54 101  55 101
M  END
>  <TORSDO>  (60) 
F 20

>  <SCORE>  (60) 
-13.565

>  <name>  (60) 
59

>  <ligand_id>  (60) 
59

>  <original_smiles>  (60) 
[H]c1c([H])c(C(N([H])C([H])([H])C(=O)C([H])([H])Oc2c([H])c([H])c3c(c2[H])C([H])([H])N(C(=O)C([H])(N([H])C(=O)C([H])(N([H])C([H])([H])[H])C([H])([H])[H])C(C([H])([H])[H])(C([H])([H])[H])C([H])([H])[H])C([H])(C(=O)N([H])C2([H])c4c([H])c([H])c([H])c([H])c4C([H])([H])C([H])([H])C2([H])[H])C3([H])[H])=[N+]([H])[H])c([H])c(N([H])C(=O)N2C([H])([H])C([H])([H])C([H])([H])C([H])(n3nc(-c4c([H])c([H])c(Oc5c([H])c([H])c(F)c([H])c5F)c([H])c4[H])c(C(=O)N([H])[H])c3N([H])[H])C2([H])[H])c1[H]

>  <smiles>  (60) 
[H]c1c([H])c(C(N([H])C([H])([H])C(=O)C([H])([H])Oc2c([H])c([H])c3c(c2[H])C([H])([H])N(C(=O)C([H])(N([H])C(=O)C([H])(N([H])C([H])([H])[H])C([H])([H])[H])C(C([H])([H])[H])(C([H])([H])[H])C([H])([H])[H])C([H])(C(=O)N([H])C2([H])c4c([H])c([H])c([H])c([H])c4C([H])([H])C([H])([H])C2([H])[H])C3([H])[H])=[N+]([H])[H])c([H])c(N([H])C(=O)N2C([H])([H])C([H])([H])C([H])([H])C([H])(n3nc(-c4c([H])c([H])c(Oc5c([H])c([H])c(F)c([H])c5F)c([H])c4[H])c(C(=O)N([H])[H])c3N([H])[H])C2([H])[H])c1[H]

$$$$
61:0:0
     RDKit          3D

 97105  0  0  1  0  0  0  0  0999 V2000
  -29.0690  -20.2400   20.2060 C   0  0  0  0  0  0  0  0  0  0  0  0
  -29.2870  -21.5500   20.4590 N   0  0  0  0  0  0  0  0  0  0  0  0
  -27.8970  -19.8530   19.7000 N   0  0  0  0  0  4  0  0  0  0  0  0
  -30.1610  -21.8000   20.9020 H   0  0  0  0  0  0  0  0  0  0  0  0
  -27.7900  -18.8790   19.4630 H   0  0  0  0  0  0  0  0  0  0  0  0
  -27.0820  -20.4400   19.6410 H   0  0  0  0  0  0  0  0  0  0  0  0
  -29.6930  -17.8640   20.7290 C   0  0  0  0  0  3  0  0  0  0  0  0
  -31.4540  -19.5360   20.4440 C   0  0  0  0  0  3  0  0  0  0  0  0
  -32.0250  -17.2240   20.9760 C   0  0  0  0  0  3  0  0  0  0  0  0
  -30.0800  -19.2060   20.4700 C   0  0  0  0  0  0  0  0  0  0  0  0
  -30.6560  -16.8530   20.9450 C   0  0  0  0  0  0  0  0  0  0  0  0
  -32.4200  -18.5540   20.7200 C   0  0  0  0  0  0  0  0  0  0  0  0
  -33.7350  -18.8900   20.7340 F   0  0  0  0  0  0  0  0  0  0  0  0
  -30.7450  -14.4470   20.4450 C   0  0  0  0  0  0  0  0  0  0  0  0
  -30.3130  -12.3070   19.3120 C   0  0  0  0  0  2  0  0  0  0  0  0
  -29.3780  -12.5300   18.1090 C   0  0  0  0  0  2  0  0  0  0  0  0
  -27.9070  -12.4080   18.5470 C   0  0  0  0  0  2  0  0  0  0  0  0
  -27.5840  -13.2550   19.8090 C   0  0  0  0  0  3  0  0  0  0  0  0
  -28.6550  -13.0730   20.9170 C   0  0  0  0  0  2  0  0  0  0  0  0
  -29.9880  -13.3190   20.3330 N   0  0  0  0  0  0  0  0  0  0  0  0
  -31.8360  -14.5560   19.8880 O   0  0  0  0  0  0  0  0  0  0  0  0
  -30.2150  -15.4940   21.1070 N   0  0  0  0  0  0  0  0  0  0  0  0
  -29.3000  -15.3430   21.5030 H   0  0  0  0  0  0  0  0  0  0  0  0
  -25.1920  -13.8540   20.5550 C   0  0  0  0  0  0  0  0  0  0  0  0
  -24.1240  -13.0800   20.9290 C   0  0  0  0  0  0  0  0  0  0  0  0
  -24.5800  -11.7270   20.8780 C   0  0  0  0  0  0  0  0  0  0  0  0
  -26.2330  -12.9750   20.3030 N   0  0  0  0  0  0  0  0  0  0  0  0
  -25.8700  -11.6900   20.5580 N   0  0  0  0  0  0  0  0  0  0  0  0
  -23.8510  -10.4640   21.0600 C   0  0  0  0  0  0  0  0  0  0  0  0
  -24.2840   -9.4870   21.9830 C   0  0  0  0  0  3  0  0  0  0  0  0
  -23.5550   -8.2930   22.1590 C   0  0  0  0  0  3  0  0  0  0  0  0
  -22.3780   -8.0620   21.4100 C   0  0  0  0  0  0  0  0  0  0  0  0
  -21.9600   -9.0300   20.4810 C   0  0  0  0  0  3  0  0  0  0  0  0
  -22.6890  -10.2170   20.3030 C   0  0  0  0  0  3  0  0  0  0  0  0
  -21.6170   -6.9210   21.4960 O   0  0  0  0  0  0  0  0  0  0  0  0
  -21.5670   -6.1740   22.6460 C   0  0  0  0  0  0  0  0  0  0  0  0
  -21.1420   -6.7250   23.8740 C   0  0  0  0  0  3  0  0  0  0  0  0
  -21.0390   -5.9030   25.0150 C   0  0  0  0  0  3  0  0  0  0  0  0
  -21.3490   -4.5330   24.9270 C   0  0  0  0  0  0  0  0  0  0  0  0
  -21.7670   -3.9830   23.7030 C   0  0  0  0  0  3  0  0  0  0  0  0
  -21.8710   -4.8000   22.5640 C   0  0  0  0  0  0  0  0  0  0  0  0
  -22.2530   -4.2600   21.3800 F   0  0  0  0  0  0  0  0  0  0  0  0
  -21.2440   -3.7420   26.0200 F   0  0  0  0  0  0  0  0  0  0  0  0
  -22.7290  -13.5600   21.2160 C   0  0  0  0  0  0  0  0  0  0  0  0
  -22.0060  -12.8610   22.0820 N   0  0  0  0  0  0  0  0  0  0  0  0
  -22.2880  -14.5860   20.7010 O   0  0  0  0  0  0  0  0  0  0  0  0
  -22.3740  -12.0360   22.5300 H   0  0  0  0  0  0  0  0  0  0  0  0
  -21.0670  -13.1610   22.3030 H   0  0  0  0  0  0  0  0  0  0  0  0
  -25.3580  -15.2250   20.3890 N   0  0  0  0  0  0  0  0  0  0  0  0
  -24.6020  -15.8870   20.5290 H   0  0  0  0  0  0  0  0  0  0  0  0
  -26.2120  -15.6620   20.0670 H   0  0  0  0  0  0  0  0  0  0  0  0
  -28.3030  -22.6540   20.3040 C   0  0  0  0  0  2  0  0  0  0  0  0
  -28.9330  -24.0590   20.2130 C   0  0  0  0  0  0  0  0  0  0  0  0
  -30.1810  -24.2700   20.1480 N   0  0  0  0  0  0  0  0  0  0  0  0
  -30.6960  -23.4010   20.1470 H   0  0  0  0  0  0  0  0  0  0  0  0
  -27.8710  -25.1520   20.0820 C   0  0  0  0  0  2  0  0  0  0  0  0
  -28.2480  -26.5580   20.2030 O   0  0  0  0  0  0  0  0  0  0  0  0
  -24.6030  -31.9400   23.2550 C   0  0  0  0  0  0  0  0  0  0  0  0
  -27.1470  -27.4150   20.1600 C   0  0  0  0  0  0  0  0  0  0  0  0
  -23.3800  -30.5640   21.6180 C   0  0  0  0  0  3  0  0  0  0  0  0
  -24.8070  -29.0260   20.1870 C   0  0  0  0  0  0  0  0  0  0  0  0
  -25.9250  -30.8670   21.4320 C   0  0  0  0  0  2  0  0  0  0  0  0
  -25.9840  -29.4990   20.7780 C   0  0  0  0  0  0  0  0  0  0  0  0
  -27.1640  -28.7010   20.7640 C   0  0  0  0  0  3  0  0  0  0  0  0
  -25.9420  -27.0000   19.5380 C   0  0  0  0  0  3  0  0  0  0  0  0
  -24.7800  -27.7770   19.5670 C   0  0  0  0  0  3  0  0  0  0  0  0
  -23.5810  -29.9050   20.2340 C   0  0  0  0  0  2  0  0  0  0  0  0
  -24.6530  -31.1390   22.1560 N   0  0  0  0  0  0  0  0  0  0  0  0
  -23.5230  -32.2280   23.7900 O   0  0  0  0  0  0  0  0  0  0  0  0
  -22.7220  -29.5370   22.5690 C   0  0  0  0  0  0  0  0  0  0  0  0
  -21.3950  -29.3660   22.4390 N   0  0  0  0  0  0  0  0  0  0  0  0
  -23.4000  -28.9030   23.3820 O   0  0  0  0  0  0  0  0  0  0  0  0
  -20.9150  -29.9270   21.7490 H   0  0  0  0  0  0  0  0  0  0  0  0
  -18.0020  -28.2200   22.9520 C   0  0  0  0  0  0  0  0  0  0  0  0
  -20.5650  -28.4380   23.2100 C   0  0  0  0  0  3  0  0  0  0  0  0
  -20.6430  -27.0080   22.6310 C   0  0  0  0  0  2  0  0  0  0  0  0
  -19.5300  -26.7020   21.6230 C   0  0  0  0  0  2  0  0  0  0  0  0
  -18.1540  -26.8690   22.2730 C   0  0  0  0  0  2  0  0  0  0  0  0
  -19.1340  -28.9640   23.3770 C   0  0  0  0  0  0  0  0  0  0  0  0
  -18.9400  -30.2290   23.9710 C   0  0  0  0  0  3  0  0  0  0  0  0
  -17.6440  -30.7500   24.1430 C   0  0  0  0  0  3  0  0  0  0  0  0
  -16.5250  -30.0040   23.7320 C   0  0  0  0  0  3  0  0  0  0  0  0
  -16.7050  -28.7410   23.1420 C   0  0  0  0  0  3  0  0  0  0  0  0
  -25.8940  -32.5550   23.8740 C   0  0  0  0  0  3  0  0  0  0  0  0
  -26.4060  -31.7730   25.1440 C   0  0  1  0  0  0  0  0  0  0  0  0
  -25.3110  -31.5380   26.2100 C   0  0  0  0  0  1  0  0  0  0  0  0
  -26.9820  -30.3960   24.7420 C   0  0  0  0  0  1  0  0  0  0  0  0
  -27.5610  -32.5570   25.8090 C   0  0  0  0  0  1  0  0  0  0  0  0
  -25.5940  -33.9530   24.2100 N   0  0  0  0  0  0  0  0  0  0  0  0
  -25.9130  -35.0060   23.4450 C   0  0  0  0  0  0  0  0  0  0  0  0
  -26.5650  -34.9040   22.4030 O   0  0  0  0  0  0  0  0  0  0  0  0
  -25.0100  -34.1030   25.0200 H   0  0  0  0  0  0  0  0  0  0  0  0
  -24.1760  -36.7980   23.1250 C   0  0  0  0  0  1  0  0  0  0  0  0
  -25.4320  -36.3940   23.9110 C   0  0  0  0  0  3  0  0  0  0  0  0
  -27.5840  -37.2790   24.6970 C   0  0  0  0  0  1  0  0  0  0  0  0
  -26.4610  -37.4490   23.7780 N   0  0  0  0  0  0  0  0  0  0  0  0
  -26.0560  -38.3680   23.9380 H   0  0  0  0  0  0  0  0  0  0  0  0
  1  2  1  0
  1 10  1  0
  2  4  1  0
  3  1  2  0
  5  3  1  0
  6  3  1  0
  7 11  1  0
  8 10  1  0
  8 12  2  0
 10  7  2  0
 11  9  2  0
 11 22  1  0
 12 13  1  0
 12  9  1  0
 14 22  1  0
 15 20  1  0
 16 17  1  0
 16 15  1  0
 18 17  1  0
 18 27  1  0
 18 19  1  0
 20 14  1  0
 20 19  1  0
 21 14  2  0
 22 23  1  0
 24 25  2  0
 25 44  1  0
 26 25  1  0
 26 29  1  0
 27 24  1  0
 27 28  1  0
 28 26  2  0
 29 30  1  0
 30 31  2  0
 32 35  1  0
 32 31  1  0
 33 32  2  0
 34 33  1  0
 34 29  2  0
 35 36  1  0
 36 37  1  0
 37 38  2  0
 39 38  1  0
 39 43  1  0
 40 39  2  0
 41 36  2  0
 41 40  1  0
 42 41  1  0
 44 45  1  0
 45 48  1  0
 45 47  1  0
 46 44  2  0
 49 50  1  0
 49 24  1  0
 51 49  1  0
 52  2  1  0
 53 52  1  0
 54 53  2  0
 55 54  1  0
 56 57  1  0
 56 53  1  0
 58 69  2  0
 59 57  1  0
 59 64  1  0
 60 68  1  0
 60 70  1  0
 61 67  1  0
 61 63  1  0
 62 68  1  0
 63 62  1  0
 64 63  2  0
 65 66  1  0
 65 59  2  0
 66 61  2  0
 67 60  1  0
 68 58  1  0
 70 72  2  0
 71 70  1  0
 73 71  1  0
 74 83  2  0
 74 79  1  0
 75 71  1  0
 75 79  1  0
 76 75  1  0
 77 78  1  0
 77 76  1  0
 78 74  1  0
 79 80  2  0
 80 81  1  0
 82 81  2  0
 83 82  1  0
 84 58  1  0
 84 89  1  0
 84 85  1  0
 85 88  1  1
 85 86  1  0
 87 85  1  0
 89 92  1  0
 90 94  1  0
 90 89  1  0
 91 90  2  0
 94 93  1  0
 96 94  1  0
 96 97  1  0
 96 95  1  0
M  ISO  4  14 100  22 100  56 101  57 101
M  END
>  <TORSDO>  (61) 
F 20

>  <SCORE>  (61) 
-14.193

>  <name>  (61) 
61

>  <ligand_id>  (61) 
61

>  <original_smiles>  (61) 
[H]N=C(C([H])([H])Oc1c([H])c([H])c2c(c1[H])C([H])([H])N(C(=O)C([H])(N([H])C(=O)C([H])(N([H])C([H])([H])[H])C([H])([H])[H])C(C([H])([H])[H])(C([H])([H])[H])C([H])([H])[H])C([H])(C(=O)N([H])C1([H])c3c([H])c([H])c([H])c([H])c3C([H])([H])C([H])([H])C1([H])[H])C2([H])[H])C([H])([H])N([H])C(c1c([H])c(F)c([H])c(N([H])C(=O)N2C([H])([H])C([H])([H])C([H])([H])C([H])(n3nc(-c4c([H])c([H])c(Oc5c([H])c([H])c(F)c([H])c5F)c([H])c4[H])c(C(=O)N([H])[H])c3N([H])[H])C2([H])[H])c1[H])=[N+]([H])[H]

>  <smiles>  (61) 
[H]N=C(C([H])([H])Oc1c([H])c([H])c2c(c1[H])C([H])([H])N(C(=O)C([H])(N([H])C(=O)C([H])(N([H])C([H])([H])[H])C([H])([H])[H])C(C([H])([H])[H])(C([H])([H])[H])C([H])([H])[H])C([H])(C(=O)N([H])C1([H])c3c([H])c([H])c([H])c([H])c3C([H])([H])C([H])([H])C1([H])[H])C2([H])[H])C([H])([H])N([H])C(c1c([H])c(F)c([H])c(N([H])C(=O)N2C([H])([H])C([H])([H])C([H])([H])C([H])(n3nc(-c4c([H])c([H])c(Oc5c([H])c([H])c(F)c([H])c5F)c([H])c4[H])c(C(=O)N([H])[H])c3N([H])[H])C2([H])[H])c1[H])=[N+]([H])[H]

$$$$
62:0:0
     RDKit          3D

 98106  0  0  1  0  0  0  0  0999 V2000
  -30.3640  -20.9970   20.4430 N   0  0  0  0  0  0  0  0  0  0  0  0
  -31.2000  -21.3080   19.9490 H   0  0  0  0  0  0  0  0  0  0  0  0
  -29.0370  -18.8940   20.7190 C   0  0  0  0  0  3  0  0  0  0  0  0
  -30.2610  -19.6010   20.6350 C   0  0  0  0  0  0  0  0  0  0  0  0
  -29.0600  -17.4890   20.8440 C   0  0  0  0  0  0  0  0  0  0  0  0
  -31.4410  -18.8350   20.7430 C   0  0  0  0  0  0  0  0  0  0  0  0
  -30.2970  -16.8090   20.8780 C   0  0  0  0  0  0  0  0  0  0  0  0
  -31.4730  -17.4950   20.8570 N   0  0  0  0  0  0  0  0  0  0  0  0
  -32.6730  -19.4760   20.7300 N   0  0  0  0  0  0  0  0  0  0  0  0
  -27.9000  -16.7870   20.9000 F   0  0  0  0  0  0  0  0  0  0  0  0
  -32.6430  -20.4420   21.0280 H   0  0  0  0  0  0  0  0  0  0  0  0
  -33.4520  -18.9630   21.1200 H   0  0  0  0  0  0  0  0  0  0  0  0
  -30.7890  -14.4730   20.1670 C   0  0  0  0  0  0  0  0  0  0  0  0
  -30.4000  -12.3820   18.9120 C   0  0  0  0  0  2  0  0  0  0  0  0
  -29.3980  -12.6620   17.7740 C   0  0  0  0  0  2  0  0  0  0  0  0
  -27.9480  -12.5080   18.2730 C   0  0  0  0  0  2  0  0  0  0  0  0
  -27.6850  -13.2690   19.6010 C   0  0  0  0  0  3  0  0  0  0  0  0
  -28.8000  -12.9840   20.6320 C   0  0  0  0  0  2  0  0  0  0  0  0
  -30.0980  -13.3090   20.0140 N   0  0  0  0  0  0  0  0  0  0  0  0
  -31.8540  -14.6850   19.5810 O   0  0  0  0  0  0  0  0  0  0  0  0
  -30.1830  -15.3940   20.9380 N   0  0  0  0  0  0  0  0  0  0  0  0
  -29.3320  -15.0760   21.3760 H   0  0  0  0  0  0  0  0  0  0  0  0
  -25.3190  -13.8280   20.4470 C   0  0  0  0  0  0  0  0  0  0  0  0
  -24.2790  -13.0330   20.8480 C   0  0  0  0  0  0  0  0  0  0  0  0
  -24.7530  -11.6890   20.7650 C   0  0  0  0  0  0  0  0  0  0  0  0
  -26.3610  -12.9660   20.1420 N   0  0  0  0  0  0  0  0  0  0  0  0
  -26.0260  -11.6730   20.3890 N   0  0  0  0  0  0  0  0  0  0  0  0
  -24.0530  -10.4150   20.9700 C   0  0  0  0  0  0  0  0  0  0  0  0
  -24.4850   -9.4810   21.9360 C   0  0  0  0  0  3  0  0  0  0  0  0
  -23.7850   -8.2700   22.1250 C   0  0  0  0  0  3  0  0  0  0  0  0
  -22.6380   -7.9850   21.3480 C   0  0  0  0  0  0  0  0  0  0  0  0
  -22.2240   -8.9080   20.3710 C   0  0  0  0  0  3  0  0  0  0  0  0
  -22.9250  -10.1100   20.1810 C   0  0  0  0  0  3  0  0  0  0  0  0
  -21.9080   -6.8240   21.4460 O   0  0  0  0  0  0  0  0  0  0  0  0
  -21.7670   -6.1590   22.6360 C   0  0  0  0  0  0  0  0  0  0  0  0
  -21.1940   -6.7740   23.7690 C   0  0  0  0  0  3  0  0  0  0  0  0
  -21.0020   -6.0330   24.9520 C   0  0  0  0  0  3  0  0  0  0  0  0
  -21.3750   -4.6760   25.0010 C   0  0  0  0  0  0  0  0  0  0  0  0
  -21.9430   -4.0590   23.8720 C   0  0  0  0  0  3  0  0  0  0  0  0
  -22.1330   -4.7980   22.6920 C   0  0  0  0  0  0  0  0  0  0  0  0
  -22.6590   -4.1940   21.5990 F   0  0  0  0  0  0  0  0  0  0  0  0
  -21.1850   -3.9590   26.1350 F   0  0  0  0  0  0  0  0  0  0  0  0
  -22.8930  -13.4880   21.2090 C   0  0  0  0  0  0  0  0  0  0  0  0
  -22.2250  -12.7670   22.1030 N   0  0  0  0  0  0  0  0  0  0  0  0
  -22.4140  -14.5180   20.7370 O   0  0  0  0  0  0  0  0  0  0  0  0
  -22.6240  -11.9350   22.5120 H   0  0  0  0  0  0  0  0  0  0  0  0
  -21.2970  -13.0510   22.3850 H   0  0  0  0  0  0  0  0  0  0  0  0
  -25.4620  -15.2050   20.3070 N   0  0  0  0  0  0  0  0  0  0  0  0
  -24.7220  -15.8470   20.5620 H   0  0  0  0  0  0  0  0  0  0  0  0
  -26.3480  -15.6720   20.1610 H   0  0  0  0  0  0  0  0  0  0  0  0
  -29.1900  -21.8140   20.0990 C   0  0  0  0  0  2  0  0  0  0  0  0
  -29.5610  -23.2070   19.5620 C   0  0  0  0  0  0  0  0  0  0  0  0
  -30.6450  -23.3060   18.8980 N   0  0  0  0  0  0  0  0  0  0  0  0
  -30.8200  -24.2510   18.5780 H   0  0  0  0  0  0  0  0  0  0  0  0
  -28.5840  -24.3470   19.8730 C   0  0  0  0  0  0  0  0  0  0  0  0
  -27.6060  -24.2040   20.6170 O   0  0  0  0  0  0  0  0  0  0  0  0
  -28.8380  -25.7150   19.2060 C   0  0  0  0  0  2  0  0  0  0  0  0
  -28.5860  -26.8040   20.1090 O   0  0  0  0  0  0  0  0  0  0  0  0
  -24.5900  -31.8000   23.2020 C   0  0  0  0  0  0  0  0  0  0  0  0
  -27.3720  -27.4600   20.0880 C   0  0  0  0  0  0  0  0  0  0  0  0
  -23.4390  -30.4110   21.5080 C   0  0  0  0  0  3  0  0  0  0  0  0
  -24.9450  -28.9160   20.0920 C   0  0  0  0  0  0  0  0  0  0  0  0
  -25.9620  -30.8060   21.3760 C   0  0  0  0  0  2  0  0  0  0  0  0
  -26.0790  -29.4460   20.7190 C   0  0  0  0  0  0  0  0  0  0  0  0
  -27.2890  -28.7200   20.7240 C   0  0  0  0  0  3  0  0  0  0  0  0
  -26.2120  -26.9340   19.4700 C   0  0  0  0  0  3  0  0  0  0  0  0
  -25.0050  -27.6560   19.4720 C   0  0  0  0  0  3  0  0  0  0  0  0
  -23.6870  -29.7540   20.1240 C   0  0  0  0  0  2  0  0  0  0  0  0
  -24.6800  -31.0200   22.0870 N   0  0  0  0  0  0  0  0  0  0  0  0
  -23.4940  -32.0460   23.7250 O   0  0  0  0  0  0  0  0  0  0  0  0
  -22.7850  -29.3630   22.4370 C   0  0  0  0  0  0  0  0  0  0  0  0
  -21.4620  -29.1800   22.2920 N   0  0  0  0  0  0  0  0  0  0  0  0
  -23.4630  -28.7190   23.2410 O   0  0  0  0  0  0  0  0  0  0  0  0
  -20.9790  -29.7520   21.6140 H   0  0  0  0  0  0  0  0  0  0  0  0
  -18.0800  -28.0010   22.7570 C   0  0  0  0  0  0  0  0  0  0  0  0
  -20.6400  -28.2220   23.0310 C   0  0  0  0  0  3  0  0  0  0  0  0
  -20.7280  -26.8140   22.3980 C   0  0  0  0  0  2  0  0  0  0  0  0
  -19.6200  -26.5400   21.3770 C   0  0  0  0  0  2  0  0  0  0  0  0
  -18.2410  -26.6760   22.0300 C   0  0  0  0  0  2  0  0  0  0  0  0
  -19.2070  -28.7340   23.2110 C   0  0  0  0  0  0  0  0  0  0  0  0
  -19.0040  -29.9780   23.8500 C   0  0  0  0  0  3  0  0  0  0  0  0
  -17.7040  -30.4870   24.0370 C   0  0  0  0  0  3  0  0  0  0  0  0
  -16.5910  -29.7490   23.5990 C   0  0  0  0  0  3  0  0  0  0  0  0
  -16.7790  -28.5070   22.9650 C   0  0  0  0  0  3  0  0  0  0  0  0
  -25.8540  -32.4360   23.8590 C   0  0  0  0  0  3  0  0  0  0  0  0
  -25.5310  -33.8330   24.1760 N   0  0  0  0  0  0  0  0  0  0  0  0
  -25.8800  -34.8840   23.4210 C   0  0  0  0  0  0  0  0  0  0  0  0
  -26.5800  -34.7790   22.4100 O   0  0  0  0  0  0  0  0  0  0  0  0
  -24.9160  -33.9870   24.9610 H   0  0  0  0  0  0  0  0  0  0  0  0
  -24.1590  -36.6690   23.0040 C   0  0  0  0  0  1  0  0  0  0  0  0
  -25.3740  -36.2720   23.8580 C   0  0  0  0  0  3  0  0  0  0  0  0
  -27.4740  -37.1700   24.7590 C   0  0  0  0  0  1  0  0  0  0  0  0
  -26.4050  -37.3280   23.7760 N   0  0  0  0  0  0  0  0  0  0  0  0
  -25.9910  -38.2480   23.9030 H   0  0  0  0  0  0  0  0  0  0  0  0
  -26.3370  -31.6670   25.1510 C   0  0  1  0  0  0  0  0  0  0  0  0
  -25.2110  -31.4230   26.1820 C   0  0  0  0  0  1  0  0  0  0  0  0
  -26.9400  -30.2950   24.7730 C   0  0  0  0  0  1  0  0  0  0  0  0
  -27.4590  -32.4700   25.8490 C   0  0  0  0  0  1  0  0  0  0  0  0
  1  4  1  0
  2  1  1  0
  3  5  1  0
  4  3  2  0
  4  6  1  0
  5  7  2  0
  5 10  1  0
  6  8  2  0
  7 21  1  0
  8  7  1  0
  9  6  1  0
  9 11  1  0
  9 12  1  0
 13 21  1  0
 14 19  1  0
 15 16  1  0
 15 14  1  0
 17 16  1  0
 17 26  1  0
 17 18  1  0
 19 13  1  0
 19 18  1  0
 20 13  2  0
 21 22  1  0
 23 24  2  0
 24 43  1  0
 25 24  1  0
 25 28  1  0
 26 27  1  0
 26 23  1  0
 27 25  2  0
 28 29  1  0
 29 30  2  0
 31 34  1  0
 31 30  1  0
 32 31  2  0
 33 32  1  0
 33 28  2  0
 34 35  1  0
 35 40  2  0
 35 36  1  0
 36 37  2  0
 37 38  1  0
 38 42  1  0
 39 38  2  0
 40 39  1  0
 41 40  1  0
 43 44  1  0
 44 47  1  0
 44 46  1  0
 45 43  2  0
 48 23  1  0
 48 49  1  0
 50 48  1  0
 51  1  1  0
 52 55  1  0
 52 51  1  0
 53 52  2  0
 54 53  1  0
 55 56  2  0
 57 55  1  0
 57 58  1  0
 59 70  2  0
 60 58  1  0
 60 65  1  0
 61 69  1  0
 61 71  1  0
 62 68  1  0
 62 64  1  0
 63 69  1  0
 64 65  2  0
 64 63  1  0
 66 67  1  0
 66 60  2  0
 67 62  2  0
 68 61  1  0
 69 59  1  0
 71 73  2  0
 72 71  1  0
 74 72  1  0
 75 84  2  0
 75 80  1  0
 76 72  1  0
 76 80  1  0
 77 76  1  0
 78 79  1  0
 78 77  1  0
 79 75  1  0
 80 81  2  0
 81 82  1  0
 83 82  2  0
 84 83  1  0
 85 59  1  0
 85 86  1  0
 85 95  1  0
 86 89  1  0
 87 91  1  0
 87 86  1  0
 88 87  2  0
 91 90  1  0
 93 91  1  0
 93 94  1  0
 93 92  1  0
 95 98  1  1
 95 96  1  0
 97 95  1  0
M  ISO  4  13 100  21 100  57 101  58 101
M  END
>  <TORSDO>  (62) 
F 21

>  <SCORE>  (62) 
-13.384

>  <name>  (62) 
62

>  <ligand_id>  (62) 
62

>  <original_smiles>  (62) 
[H]N=C(C(=O)C([H])([H])Oc1c([H])c([H])c2c(c1[H])C([H])([H])N(C(=O)C([H])(N([H])C(=O)C([H])(N([H])C([H])([H])[H])C([H])([H])[H])C(C([H])([H])[H])(C([H])([H])[H])C([H])([H])[H])C([H])(C(=O)N([H])C1([H])c3c([H])c([H])c([H])c([H])c3C([H])([H])C([H])([H])C1([H])[H])C2([H])[H])C([H])([H])N([H])c1c(N([H])[H])nc(N([H])C(=O)N2C([H])([H])C([H])([H])C([H])([H])C([H])(n3nc(-c4c([H])c([H])c(Oc5c([H])c([H])c(F)c([H])c5F)c([H])c4[H])c(C(=O)N([H])[H])c3N([H])[H])C2([H])[H])c(F)c1[H]

>  <smiles>  (62) 
[H]N=C(C(=O)C([H])([H])Oc1c([H])c([H])c2c(c1[H])C([H])([H])N(C(=O)C([H])(N([H])C(=O)C([H])(N([H])C([H])([H])[H])C([H])([H])[H])C(C([H])([H])[H])(C([H])([H])[H])C([H])([H])[H])C([H])(C(=O)N([H])C1([H])c3c([H])c([H])c([H])c([H])c3C([H])([H])C([H])([H])C1([H])[H])C2([H])[H])C([H])([H])N([H])c1c(N([H])[H])nc(N([H])C(=O)N2C([H])([H])C([H])([H])C([H])([H])C([H])(n3nc(-c4c([H])c([H])c(Oc5c([H])c([H])c(F)c([H])c5F)c([H])c4[H])c(C(=O)N([H])[H])c3N([H])[H])C2([H])[H])c(F)c1[H]

$$$$
63:0:0
     RDKit          3D

105115  0  0  1  0  0  0  0  0999 V2000
  -29.2840  -18.2570   19.8510 C   0  0  0  0  0  3  0  0  0  0  0  0
  -27.0270  -18.2220   19.0320 C   0  0  0  0  0  3  0  0  0  0  0  0
  -28.2750  -16.0790   19.1960 C   0  0  0  0  0  0  0  0  0  0  0  0
  -29.2670  -16.8350   20.0210 C   0  0  0  0  0  0  0  0  0  0  0  0
  -28.1530  -18.9720   19.3930 C   0  0  0  0  0  0  0  0  0  0  0  0
  -27.0710  -16.8190   18.9340 C   0  0  0  0  0  0  0  0  0  0  0  0
  -28.6550  -21.4140   19.9860 C   0  0  0  0  0  0  0  0  0  0  0  0
  -27.9870  -20.4000   19.3870 N   0  0  0  0  0  0  0  0  0  0  0  0
  -29.7050  -21.2640   20.6160 O   0  0  0  0  0  0  0  0  0  0  0  0
  -27.1600  -20.7120   18.8920 H   0  0  0  0  0  0  0  0  0  0  0  0
  -27.9770  -22.8050   19.8800 C   0  0  0  0  0  2  0  0  0  0  0  0
  -28.9130  -24.0330   19.9930 C   0  0  0  0  0  0  0  0  0  0  0  0
  -29.7840  -24.2590   19.1430 O   0  0  0  0  0  0  0  0  0  0  0  0
  -28.6700  -25.0140   21.1660 C   0  0  0  0  0  2  0  0  0  0  0  0
  -28.8500  -26.4090   20.8110 O   0  0  0  0  0  0  0  0  0  0  0  0
  -24.8300  -31.6730   23.5250 C   0  0  0  0  0  0  0  0  0  0  0  0
  -27.6910  -27.1550   20.7260 C   0  0  0  0  0  0  0  0  0  0  0  0
  -23.7380  -30.2000   21.8700 C   0  0  0  0  0  3  0  0  0  0  0  0
  -25.2860  -28.6450   20.5720 C   0  0  0  0  0  0  0  0  0  0  0  0
  -26.2700  -30.5850   21.7990 C   0  0  0  0  0  2  0  0  0  0  0  0
  -26.4090  -29.1970   21.2030 C   0  0  0  0  0  0  0  0  0  0  0  0
  -27.6180  -28.4610   21.2730 C   0  0  0  0  0  3  0  0  0  0  0  0
  -26.5470  -26.6260   20.0870 C   0  0  0  0  0  3  0  0  0  0  0  0
  -25.3510  -27.3600   20.0110 C   0  0  0  0  0  3  0  0  0  0  0  0
  -24.0320  -29.4870   20.5250 C   0  0  0  0  0  2  0  0  0  0  0  0
  -24.9610  -30.8360   22.4560 N   0  0  0  0  0  0  0  0  0  0  0  0
  -23.7170  -31.9450   23.9930 O   0  0  0  0  0  0  0  0  0  0  0  0
  -23.0500  -29.1970   22.8240 C   0  0  0  0  0  0  0  0  0  0  0  0
  -21.7510  -28.9440   22.5940 N   0  0  0  0  0  0  0  0  0  0  0  0
  -23.6850  -28.6480   23.7290 O   0  0  0  0  0  0  0  0  0  0  0  0
  -21.2980  -29.4410   21.8390 H   0  0  0  0  0  0  0  0  0  0  0  0
  -18.4350  -27.5200   22.7870 C   0  0  0  0  0  0  0  0  0  0  0  0
  -20.9120  -28.0080   23.3430 C   0  0  0  0  0  3  0  0  0  0  0  0
  -21.1900  -26.5470   22.9180 C   0  0  0  0  0  2  0  0  0  0  0  0
  -20.2510  -26.0540   21.8110 C   0  0  0  0  0  2  0  0  0  0  0  0
  -18.7920  -26.1380   22.2660 C   0  0  0  0  0  2  0  0  0  0  0  0
  -19.4320  -28.4030   23.2780 C   0  0  0  0  0  0  0  0  0  0  0  0
  -19.0500  -29.6900   23.7180 C   0  0  0  0  0  3  0  0  0  0  0  0
  -17.7030  -30.0950   23.6760 C   0  0  0  0  0  3  0  0  0  0  0  0
  -16.7180  -29.2100   23.2040 C   0  0  0  0  0  3  0  0  0  0  0  0
  -17.0840  -27.9260   22.7650 C   0  0  0  0  0  3  0  0  0  0  0  0
  -26.0690  -32.3470   24.1910 C   0  0  0  0  0  3  0  0  0  0  0  0
  -25.7470  -33.7670   24.3900 N   0  0  0  0  0  0  0  0  0  0  0  0
  -26.1780  -34.7620   23.6040 C   0  0  0  0  0  0  0  0  0  0  0  0
  -26.9580  -34.5830   22.6640 O   0  0  0  0  0  0  0  0  0  0  0  0
  -25.0690  -33.9800   25.1080 H   0  0  0  0  0  0  0  0  0  0  0  0
  -24.5510  -36.5510   22.9150 C   0  0  0  0  0  1  0  0  0  0  0  0
  -25.6640  -36.1830   23.9090 C   0  0  0  0  0  3  0  0  0  0  0  0
  -27.6850  -37.0880   24.9680 C   0  0  0  0  0  1  0  0  0  0  0  0
  -26.7240  -37.2120   23.8750 N   0  0  0  0  0  0  0  0  0  0  0  0
  -26.3230  -38.1450   23.9120 H   0  0  0  0  0  0  0  0  0  0  0  0
  -26.4830  -31.6730   25.5560 C   0  0  1  0  0  0  0  0  0  0  0  0
  -25.3120  -31.5190   26.5550 C   0  0  0  0  0  1  0  0  0  0  0  0
  -27.0830  -30.2680   25.3110 C   0  0  0  0  0  1  0  0  0  0  0  0
  -27.5880  -32.5110   26.2400 C   0  0  0  0  0  1  0  0  0  0  0  0
  -25.8550  -16.2170   18.5840 N   0  0  0  0  0  0  0  0  0  0  0  0
  -25.0950  -16.7940   18.2380 H   0  0  0  0  0  0  0  0  0  0  0  0
  -25.8860  -15.3060   18.1360 H   0  0  0  0  0  0  0  0  0  0  0  0
  -28.3700  -14.7300   18.3110 C   0  0  0  0  0  0  0  0  0  0  0  0
  -27.6650  -14.5980   17.3050 O   0  0  0  0  0  0  0  0  0  0  0  0
  -29.2660  -10.2220   18.1820 C   0  0  0  0  0  2  0  0  0  0  0  0
  -28.9500  -10.2700   20.0620 C   0  0  0  0  0  1  0  0  0  0  0  0
  -29.4220  -11.9520   17.4520 C   0  0  0  0  0  3  0  0  0  0  0  0
  -29.0540  -13.0560   20.1460 C   0  0  1  0  0  0  0  0  0  0  0  0
  -29.3090  -13.4700   18.5270 C   0  0  1  0  0  0  0  0  0  0  0  0
  -30.1060  -17.6300   22.4330 C   0  0  0  0  0  1  0  0  0  0  0  0
  -29.8960  -16.4390   21.4680 C   0  0  0  0  0  3  0  0  0  0  0  0
  -31.6110  -14.3420   21.7350 C   0  0  0  0  0  0  0  0  0  0  0  0
  -31.6790  -12.4730   20.0860 C   0  0  0  0  0  2  0  0  0  0  0  0
  -30.9730  -12.5090   18.4360 C   0  0  0  0  0  2  0  0  0  0  0  0
  -28.1300  -13.1690   19.0210 C   0  0  0  0  0  2  0  0  0  0  0  0
  -28.1040  -13.3940   20.7230 C   0  0  0  0  0  2  0  0  0  0  0  0
  -29.4060  -13.0100   21.7520 C   0  0  0  0  0  2  0  0  0  0  0  0
  -30.9250  -13.1980   21.3430 N   0  0  0  0  0  0  0  0  0  0  0  0
  -32.8320  -14.3580   21.7180 O   0  0  0  0  0  0  0  0  0  0  0  0
  -31.1500  -15.6300   21.5450 N   0  0  0  0  0  0  0  0  0  0  0  0
  -31.9500  -16.2400   21.5910 H   0  0  0  0  0  0  0  0  0  0  0  0
  -25.7760  -13.9600   21.3290 C   0  0  0  0  0  0  0  0  0  0  0  0
  -24.7090  -13.1580   21.5300 C   0  0  0  0  0  0  0  0  0  0  0  0
  -25.1910  -11.8110   21.4760 C   0  0  0  0  0  0  0  0  0  0  0  0
  -26.8280  -13.0830   21.1970 N   0  0  0  0  0  0  0  0  0  0  0  0
  -26.4970  -11.7880   21.3290 N   0  0  0  0  0  0  0  0  0  0  0  0
  -24.4840  -10.5430   21.5070 C   0  0  0  0  0  0  0  0  0  0  0  0
  -24.8200   -9.5460   22.4480 C   0  0  0  0  0  3  0  0  0  0  0  0
  -24.0910   -8.3430   22.4940 C   0  0  0  0  0  3  0  0  0  0  0  0
  -23.0190   -8.1340   21.5930 C   0  0  0  0  0  0  0  0  0  0  0  0
  -22.7170   -9.1150   20.6310 C   0  0  0  0  0  3  0  0  0  0  0  0
  -23.4480  -10.3110   20.5840 C   0  0  0  0  0  3  0  0  0  0  0  0
  -22.2590   -6.9930   21.5580 O   0  0  0  0  0  0  0  0  0  0  0  0
  -21.9380   -6.3150   22.7050 C   0  0  0  0  0  0  0  0  0  0  0  0
  -21.2230   -6.9250   23.7580 C   0  0  0  0  0  3  0  0  0  0  0  0
  -20.8540   -6.1690   24.8890 C   0  0  0  0  0  3  0  0  0  0  0  0
  -21.1900   -4.8020   24.9610 C   0  0  0  0  0  0  0  0  0  0  0  0
  -21.8990   -4.1940   23.9100 C   0  0  0  0  0  3  0  0  0  0  0  0
  -22.2690   -4.9480   22.7850 C   0  0  0  0  0  0  0  0  0  0  0  0
  -22.9350   -4.3540   21.7650 F   0  0  0  0  0  0  0  0  0  0  0  0
  -20.8260   -4.0720   26.0400 F   0  0  0  0  0  0  0  0  0  0  0  0
  -23.3020  -13.6260   21.6690 C   0  0  0  0  0  0  0  0  0  0  0  0
  -22.5240  -12.9370   22.4890 N   0  0  0  0  0  0  0  0  0  0  0  0
  -22.9130  -14.6450   21.1010 O   0  0  0  0  0  0  0  0  0  0  0  0
  -22.8690  -12.1200   22.9700 H   0  0  0  0  0  0  0  0  0  0  0  0
  -21.5680  -13.2280   22.6400 H   0  0  0  0  0  0  0  0  0  0  0  0
  -25.9150  -15.3480   21.2110 N   0  0  0  0  0  0  0  0  0  0  0  0
  -25.1010  -15.9510   21.2210 H   0  0  0  0  0  0  0  0  0  0  0  0
  -26.7520  -15.8270   20.9100 H   0  0  0  0  0  0  0  0  0  0  0  0
  1  4  1  0
  2  5  1  0
  3  4  2  0
  4 67  1  0
  5  1  2  0
  6  2  2  0
  6  3  1  0
  7  9  2  0
  8  5  1  0
  8  7  1  0
 10  8  1  0
 11  7  1  0
 11 12  1  0
 12 14  1  0
 13 12  2  0
 15 14  1  0
 16 27  2  0
 17 15  1  0
 17 22  1  0
 18 26  1  0
 18 28  1  0
 19 21  1  0
 20 26  1  0
 21 22  2  0
 21 20  1  0
 23 17  2  0
 24 23  1  0
 24 19  2  0
 25 19  1  0
 25 18  1  0
 26 16  1  0
 28 30  2  0
 29 28  1  0
 31 29  1  0
 32 37  1  0
 33 29  1  0
 34 33  1  0
 35 36  1  0
 35 34  1  0
 36 32  1  0
 37 33  1  0
 37 38  2  0
 39 38  1  0
 40 39  2  0
 41 32  2  0
 41 40  1  0
 42 16  1  0
 42 43  1  0
 42 52  1  0
 43 46  1  0
 44 48  1  0
 44 43  1  0
 45 44  2  0
 48 47  1  0
 50 48  1  0
 50 51  1  0
 50 49  1  0
 52 55  1  1
 52 53  1  0
 54 52  1  0
 56  6  1  0
 57 56  1  0
 58 56  1  0
 59 65  1  0
 59  3  1  0
 60 59  2  0
 61 62  1  0
 63 61  1  0
 63 70  1  0
 63 65  1  0
 64 72  1  1
 64 73  1  0
 65 71  1  6
 65 64  1  0
 67 76  1  0
 67 66  1  0
 69 74  1  0
 70 69  1  0
 71 64  1  0
 72 81  1  0
 74 68  1  0
 74 73  1  0
 75 68  2  0
 76 77  1  0
 76 68  1  0
 78 79  2  0
 79 98  1  0
 80 83  1  0
 80 79  1  0
 81 78  1  0
 81 82  1  0
 82 80  2  0
 83 84  1  0
 84 85  2  0
 86 85  1  0
 87 86  2  0
 88 87  1  0
 88 83  2  0
 89 86  1  0
 89 90  1  0
 90 95  2  0
 90 91  1  0
 91 92  2  0
 92 93  1  0
 93 97  1  0
 94 93  2  0
 95 94  1  0
 96 95  1  0
 98 99  1  0
 99102  1  0
 99101  1  0
100 98  2  0
103104  1  0
103 78  1  0
105103  1  0
M  ISO  4  14 101  15 101  68 100  76 100
M  END
>  <TORSDO>  (63) 
F 24

>  <SCORE>  (63) 
-3.364

>  <name>  (63) 
63

>  <ligand_id>  (63) 
63

>  <original_smiles>  (63) 
[H]c1c([H])c([H])c2c(c1[H])C([H])([H])C([H])([H])C([H])([H])C2([H])N([H])C(=O)C1([H])N(C(=O)C([H])(N([H])C(=O)C([H])(N([H])C([H])([H])[H])C([H])([H])[H])C(C([H])([H])[H])(C([H])([H])[H])C([H])([H])[H])C([H])([H])c2c([H])c(OC([H])([H])C(=O)C([H])([H])C(=O)N([H])c3c([H])c(N([H])[H])c(C(=O)C4([H])C([H])([H])C([H])([H])C([H])([H])C4([H])[H])c(C([H])(N([H])C(=O)N4C([H])([H])C([H])([H])C([H])([H])C([H])(n5nc(-c6c([H])c([H])c(Oc7c([H])c([H])c(F)c([H])c7F)c([H])c6[H])c(C(=O)N([H])[H])c5N([H])[H])C4([H])[H])C([H])([H])[H])c3[H])c([H])c([H])c2C1([H])[H]

>  <smiles>  (63) 
[H]c1c([H])c([H])c2c(c1[H])C([H])([H])C([H])([H])C([H])([H])C2([H])N([H])C(=O)C1([H])N(C(=O)C([H])(N([H])C(=O)C([H])(N([H])C([H])([H])[H])C([H])([H])[H])C(C([H])([H])[H])(C([H])([H])[H])C([H])([H])[H])C([H])([H])c2c([H])c(OC([H])([H])C(=O)C([H])([H])C(=O)N([H])c3c([H])c(N([H])[H])c(C(=O)C4([H])C([H])([H])C([H])([H])C([H])([H])C4([H])[H])c(C([H])(N([H])C(=O)N4C([H])([H])C([H])([H])C([H])([H])C([H])(n5nc(-c6c([H])c([H])c(Oc7c([H])c([H])c(F)c([H])c7F)c([H])c6[H])c(C(=O)N([H])[H])c5N([H])[H])C4([H])[H])C([H])([H])[H])c3[H])c([H])c([H])c2C1([H])[H]

$$$$
64:0:0
     RDKit          3D

 99107  0  0  1  0  0  0  0  0999 V2000
  -28.5460  -22.8430   20.3230 C   0  0  0  0  0  0  0  0  0  0  0  0
  -30.7430  -21.8550   19.7350 C   0  0  0  0  0  1  0  0  0  0  0  0
  -29.3810  -21.7640   20.2750 N   0  0  0  0  0  0  0  0  0  0  0  0
  -27.3630  -22.7030   20.6580 O   0  0  0  0  0  0  0  0  0  0  0  0
  -28.9040  -20.5100   20.9300 C   0  0  0  0  0  2  0  0  0  0  0  0
  -31.1840  -17.5600   20.9840 C   0  0  0  0  0  0  0  0  0  0  0  0
  -30.1080  -16.7470   20.7120 C   0  0  0  0  0  0  0  0  0  0  0  0
  -29.6130  -19.1940   20.6830 C   0  0  0  0  0  0  0  0  0  0  0  0
  -30.8960  -18.9300   20.9700 N   0  0  0  0  0  0  0  0  0  0  0  0
  -28.6990  -17.7190   20.3520 S   0  0  0  0  0  0  0  0  0  0  0  0
  -30.6620  -14.4840   20.0630 C   0  0  0  0  0  0  0  0  0  0  0  0
  -30.3340  -12.3400   18.8820 C   0  0  0  0  0  2  0  0  0  0  0  0
  -29.3030  -12.5470   17.7540 C   0  0  0  0  0  2  0  0  0  0  0  0
  -27.8600  -12.3850   18.2780 C   0  0  0  0  0  2  0  0  0  0  0  0
  -27.6030  -13.2010   19.5720 C   0  0  0  0  0  3  0  0  0  0  0  0
  -28.7300  -12.9490   20.5970 C   0  0  0  0  0  2  0  0  0  0  0  0
  -30.0160  -13.2900   19.9590 N   0  0  0  0  0  0  0  0  0  0  0  0
  -31.7130  -14.7370   19.4660 O   0  0  0  0  0  0  0  0  0  0  0  0
  -30.0140  -15.3930   20.8080 N   0  0  0  0  0  0  0  0  0  0  0  0
  -29.1590  -15.0430   21.2130 H   0  0  0  0  0  0  0  0  0  0  0  0
  -25.2550  -13.7900   20.4560 C   0  0  0  0  0  0  0  0  0  0  0  0
  -24.2150  -13.0060   20.8800 C   0  0  0  0  0  0  0  0  0  0  0  0
  -24.6750  -11.6570   20.7860 C   0  0  0  0  0  0  0  0  0  0  0  0
  -26.2830  -12.9170   20.1320 N   0  0  0  0  0  0  0  0  0  0  0  0
  -25.9410  -11.6280   20.3860 N   0  0  0  0  0  0  0  0  0  0  0  0
  -23.9670  -10.3880   21.0010 C   0  0  0  0  0  0  0  0  0  0  0  0
  -24.4170   -9.4420   21.9480 C   0  0  0  0  0  3  0  0  0  0  0  0
  -23.7100   -8.2370   22.1480 C   0  0  0  0  0  3  0  0  0  0  0  0
  -22.5390   -7.9680   21.4000 C   0  0  0  0  0  0  0  0  0  0  0  0
  -22.1100   -8.9010   20.4400 C   0  0  0  0  0  3  0  0  0  0  0  0
  -22.8160  -10.0990   20.2400 C   0  0  0  0  0  3  0  0  0  0  0  0
  -21.8040   -6.8120   21.5080 O   0  0  0  0  0  0  0  0  0  0  0  0
  -21.7110   -6.1250   22.6920 C   0  0  0  0  0  0  0  0  0  0  0  0
  -21.1980   -6.7260   23.8620 C   0  0  0  0  0  3  0  0  0  0  0  0
  -21.0560   -5.9650   25.0400 C   0  0  0  0  0  3  0  0  0  0  0  0
  -21.4170   -4.6040   25.0480 C   0  0  0  0  0  0  0  0  0  0  0  0
  -21.9210   -4.0020   23.8810 C   0  0  0  0  0  3  0  0  0  0  0  0
  -22.0660   -4.7620   22.7070 C   0  0  0  0  0  0  0  0  0  0  0  0
  -22.5340   -4.1730   21.5790 F   0  0  0  0  0  0  0  0  0  0  0  0
  -21.2740   -3.8700   26.1750 F   0  0  0  0  0  0  0  0  0  0  0  0
  -22.8400  -13.4710   21.2640 C   0  0  0  0  0  0  0  0  0  0  0  0
  -22.1740  -12.7490   22.1590 N   0  0  0  0  0  0  0  0  0  0  0  0
  -22.3650  -14.5080   20.8040 O   0  0  0  0  0  0  0  0  0  0  0  0
  -22.5710  -11.9100   22.5540 H   0  0  0  0  0  0  0  0  0  0  0  0
  -21.2520  -13.0400   22.4550 H   0  0  0  0  0  0  0  0  0  0  0  0
  -25.4080  -15.1640   20.2980 N   0  0  0  0  0  0  0  0  0  0  0  0
  -24.6550  -15.8190   20.4780 H   0  0  0  0  0  0  0  0  0  0  0  0
  -26.2370  -15.6110   19.9280 H   0  0  0  0  0  0  0  0  0  0  0  0
  -32.4490  -17.1260   21.3630 N   0  0  0  0  0  0  0  0  0  0  0  0
  -32.5500  -16.1470   21.6000 H   0  0  0  0  0  0  0  0  0  0  0  0
  -33.0240  -17.7520   21.9140 H   0  0  0  0  0  0  0  0  0  0  0  0
  -29.0390  -24.2870   20.0120 C   0  0  0  0  0  2  0  0  0  0  0  0
  -28.1840  -25.3910   20.7240 C   0  0  0  0  0  3  0  0  0  0  0  0
  -28.5250  -25.4830   22.2240 C   0  0  0  0  0  0  0  0  0  0  0  0
  -27.5180  -25.6350   23.0740 N   0  0  0  0  0  0  0  0  0  0  0  0
  -29.6890  -25.4340   22.6230 O   0  0  0  0  0  0  0  0  0  0  0  0
  -26.5700  -25.6970   22.7310 H   0  0  0  0  0  0  0  0  0  0  0  0
  -27.6960  -25.7120   24.0630 H   0  0  0  0  0  0  0  0  0  0  0  0
  -28.3290  -26.7180   20.1580 O   0  0  0  0  0  0  0  0  0  0  0  0
  -24.5070  -31.9150   23.2330 C   0  0  0  0  0  0  0  0  0  0  0  0
  -27.1730  -27.4760   20.1480 C   0  0  0  0  0  0  0  0  0  0  0  0
  -23.3080  -30.5010   21.5990 C   0  0  0  0  0  3  0  0  0  0  0  0
  -24.7650  -28.9680   20.1730 C   0  0  0  0  0  0  0  0  0  0  0  0
  -25.8320  -30.8690   21.3990 C   0  0  0  0  0  2  0  0  0  0  0  0
  -25.9250  -29.5000   20.7570 C   0  0  0  0  0  0  0  0  0  0  0  0
  -27.1310  -28.7610   20.7420 C   0  0  0  0  0  3  0  0  0  0  0  0
  -26.0010  -26.9730   19.5430 C   0  0  0  0  0  3  0  0  0  0  0  0
  -24.7980  -27.7020   19.5650 C   0  0  0  0  0  3  0  0  0  0  0  0
  -23.5170  -29.8160   20.2220 C   0  0  0  0  0  2  0  0  0  0  0  0
  -24.5670  -31.1090   22.1350 N   0  0  0  0  0  0  0  0  0  0  0  0
  -23.4260  -32.1810   23.7760 O   0  0  0  0  0  0  0  0  0  0  0  0
  -22.6640  -29.4800   22.5650 C   0  0  0  0  0  0  0  0  0  0  0  0
  -21.3390  -29.2860   22.4440 N   0  0  0  0  0  0  0  0  0  0  0  0
  -23.3530  -28.8630   23.3830 O   0  0  0  0  0  0  0  0  0  0  0  0
  -20.8400  -29.8340   21.7560 H   0  0  0  0  0  0  0  0  0  0  0  0
  -17.9820  -28.0660   22.9650 C   0  0  0  0  0  0  0  0  0  0  0  0
  -20.5380  -28.3450   23.2250 C   0  0  0  0  0  3  0  0  0  0  0  0
  -20.6480  -26.9130   22.6520 C   0  0  0  0  0  2  0  0  0  0  0  0
  -19.5450  -26.5770   21.6440 C   0  0  0  0  0  2  0  0  0  0  0  0
  -18.1650  -26.7150   22.2940 C   0  0  0  0  0  2  0  0  0  0  0  0
  -19.0950  -28.8370   23.3880 C   0  0  0  0  0  0  0  0  0  0  0  0
  -18.8710  -30.1010   23.9750 C   0  0  0  0  0  3  0  0  0  0  0  0
  -17.5630  -30.5940   24.1410 C   0  0  0  0  0  3  0  0  0  0  0  0
  -16.4620  -29.8210   23.7330 C   0  0  0  0  0  3  0  0  0  0  0  0
  -16.6730  -28.5570   23.1550 C   0  0  0  0  0  3  0  0  0  0  0  0
  -25.7910  -32.5580   23.8430 C   0  0  0  0  0  3  0  0  0  0  0  0
  -25.4720  -33.9520   24.1730 N   0  0  0  0  0  0  0  0  0  0  0  0
  -25.7930  -35.0080   23.4100 C   0  0  0  0  0  0  0  0  0  0  0  0
  -26.4610  -34.9090   22.3780 O   0  0  0  0  0  0  0  0  0  0  0  0
  -24.8790  -34.1030   24.9760 H   0  0  0  0  0  0  0  0  0  0  0  0
  -24.0530  -36.7850   23.0540 C   0  0  0  0  0  1  0  0  0  0  0  0
  -25.2950  -36.3910   23.8680 C   0  0  0  0  0  3  0  0  0  0  0  0
  -27.4210  -37.2900   24.7070 C   0  0  0  0  0  1  0  0  0  0  0  0
  -26.3210  -37.4510   23.7590 N   0  0  0  0  0  0  0  0  0  0  0  0
  -25.9080  -38.3690   23.9040 H   0  0  0  0  0  0  0  0  0  0  0  0
  -26.3260  -31.7930   25.1150 C   0  0  1  0  0  0  0  0  0  0  0  0
  -25.2430  -31.5440   26.1900 C   0  0  0  0  0  1  0  0  0  0  0  0
  -26.9200  -30.4210   24.7220 C   0  0  0  0  0  1  0  0  0  0  0  0
  -27.4730  -32.5980   25.7680 C   0  0  0  0  0  1  0  0  0  0  0  0
  1  4  2  0
  2  3  1  0
  3  1  1  0
  3  5  1  0
  6 49  1  0
  7 19  1  0
  7  6  2  0
  8  5  1  0
  8  9  2  0
  9  6  1  0
 10  8  1  0
 10  7  1  0
 11 19  1  0
 12 17  1  0
 13 14  1  0
 13 12  1  0
 15 14  1  0
 15 24  1  0
 15 16  1  0
 17 11  1  0
 17 16  1  0
 18 11  2  0
 19 20  1  0
 21 22  2  0
 22 41  1  0
 23 22  1  0
 23 26  1  0
 24 25  1  0
 24 21  1  0
 25 23  2  0
 26 27  1  0
 27 28  2  0
 29 32  1  0
 29 28  1  0
 30 29  2  0
 31 30  1  0
 31 26  2  0
 32 33  1  0
 33 38  2  0
 33 34  1  0
 34 35  2  0
 35 36  1  0
 36 40  1  0
 37 36  2  0
 38 37  1  0
 39 38  1  0
 41 42  1  0
 42 45  1  0
 42 44  1  0
 43 41  2  0
 46 21  1  0
 46 47  1  0
 48 46  1  0
 49 50  1  0
 49 51  1  0
 52  1  1  0
 53 52  1  0
 53 54  1  0
 54 56  2  0
 54 55  1  0
 55 58  1  0
 57 55  1  0
 59 53  1  0
 60 71  2  0
 61 59  1  0
 61 66  1  0
 62 70  1  0
 62 72  1  0
 63 69  1  0
 63 65  1  0
 64 70  1  0
 65 64  1  0
 66 65  2  0
 67 68  1  0
 67 61  2  0
 68 63  2  0
 69 62  1  0
 70 60  1  0
 72 74  2  0
 73 72  1  0
 75 73  1  0
 76 85  2  0
 76 81  1  0
 77 73  1  0
 77 81  1  0
 78 77  1  0
 79 80  1  0
 79 78  1  0
 80 76  1  0
 81 82  2  0
 82 83  1  0
 84 83  2  0
 85 84  1  0
 86 60  1  0
 86 87  1  0
 86 96  1  0
 87 90  1  0
 88 92  1  0
 88 87  1  0
 89 88  2  0
 92 91  1  0
 94 92  1  0
 94 95  1  0
 94 93  1  0
 96 99  1  1
 96 97  1  0
 98 96  1  0
M  ISO  4  11 100  19 100  53 101  59 101
M  END
>  <TORSDO>  (64) 
F 22

>  <SCORE>  (64) 
-12.969

>  <name>  (64) 
64

>  <ligand_id>  (64) 
64

>  <original_smiles>  (64) 
[H]c1c([H])c([H])c2c(c1[H])C([H])([H])C([H])([H])C([H])([H])C2([H])N([H])C(=O)C1([H])N(C(=O)C([H])(N([H])C(=O)C([H])(N([H])C([H])([H])[H])C([H])([H])[H])C(C([H])([H])[H])(C([H])([H])[H])C([H])([H])[H])C([H])([H])c2c([H])c(OC([H])(C(=O)N([H])[H])C([H])([H])C(=O)N(C([H])([H])[H])C([H])([H])c3nc(N([H])[H])c(N([H])C(=O)N4C([H])([H])C([H])([H])C([H])([H])C([H])(n5nc(-c6c([H])c([H])c(Oc7c([H])c([H])c(F)c([H])c7F)c([H])c6[H])c(C(=O)N([H])[H])c5N([H])[H])C4([H])[H])s3)c([H])c([H])c2C1([H])[H]

>  <smiles>  (64) 
[H]c1c([H])c([H])c2c(c1[H])C([H])([H])C([H])([H])C([H])([H])C2([H])N([H])C(=O)C1([H])N(C(=O)C([H])(N([H])C(=O)C([H])(N([H])C([H])([H])[H])C([H])([H])[H])C(C([H])([H])[H])(C([H])([H])[H])C([H])([H])[H])C([H])([H])c2c([H])c(OC([H])(C(=O)N([H])[H])C([H])([H])C(=O)N(C([H])([H])[H])C([H])([H])c3nc(N([H])[H])c(N([H])C(=O)N4C([H])([H])C([H])([H])C([H])([H])C([H])(n5nc(-c6c([H])c([H])c(Oc7c([H])c([H])c(F)c([H])c7F)c([H])c6[H])c(C(=O)N([H])[H])c5N([H])[H])C4([H])[H])s3)c([H])c([H])c2C1([H])[H]

$$$$
65:0:0
     RDKit          3D

 95104  0  0  1  0  0  0  0  0999 V2000
  -25.6830  -20.7480   19.5340 C   0  0  0  0  0  2  0  0  0  0  0  0
  -25.9820  -21.7220   20.6570 C   0  0  0  0  0  2  0  0  0  0  0  0
  -26.9110  -19.8660   19.4210 C   0  0  0  0  0  2  0  0  0  0  0  0
  -27.1120  -22.6520   20.2190 C   0  0  0  0  0  2  0  0  0  0  0  0
  -28.2510  -20.6120   19.1270 C   0  0  0  0  0  3  0  0  0  0  0  0
  -28.3950  -22.0240   19.7270 N   0  0  1  0  0  4  0  0  0  0  0  0
  -28.9820  -21.9250   20.5420 H   0  0  0  0  0  0  0  0  0  0  0  0
  -31.5140  -18.2620   19.5580 C   0  0  0  0  0  3  0  0  0  0  0  0
  -30.4090  -17.5880   20.0210 C   0  0  0  0  0  0  0  0  0  0  0  0
  -29.4310  -19.6690   19.5040 C   0  0  0  0  0  0  0  0  0  0  0  0
  -29.2660  -18.4180   20.0180 N   0  0  0  0  0  0  0  0  0  0  0  0
  -31.1280  -19.9150   19.0760 S   0  0  0  0  0  0  0  0  0  0  0  0
  -31.2020  -15.1550   20.2810 C   0  0  0  0  0  0  0  0  0  0  0  0
  -31.0750  -12.8020   19.5120 C   0  0  0  0  0  2  0  0  0  0  0  0
  -30.1730  -12.7620   18.2570 C   0  0  0  0  0  2  0  0  0  0  0  0
  -28.6870  -12.6350   18.6460 C   0  0  0  0  0  2  0  0  0  0  0  0
  -28.2700  -13.6400   19.7510 C   0  0  0  0  0  3  0  0  0  0  0  0
  -29.2840  -13.6380   20.9170 C   0  0  0  0  0  2  0  0  0  0  0  0
  -30.6150  -13.9220   20.3540 N   0  0  0  0  0  0  0  0  0  0  0  0
  -32.3760  -15.2920   19.9180 O   0  0  0  0  0  0  0  0  0  0  0  0
  -30.3520  -16.2090   20.4660 N   0  0  0  0  0  0  0  0  0  0  0  0
  -29.4440  -15.9190   20.7910 H   0  0  0  0  0  0  0  0  0  0  0  0
  -25.9000  -14.3170   20.4790 C   0  0  0  0  0  0  0  0  0  0  0  0
  -24.7960  -13.5770   20.8080 C   0  0  0  0  0  0  0  0  0  0  0  0
  -25.1990  -12.2080   20.7200 C   0  0  0  0  0  0  0  0  0  0  0  0
  -26.9060  -13.4010   20.2130 N   0  0  0  0  0  0  0  0  0  0  0  0
  -26.4880  -12.1260   20.4180 N   0  0  0  0  0  0  0  0  0  0  0  0
  -24.4180  -10.9710   20.8480 C   0  0  0  0  0  0  0  0  0  0  0  0
  -24.7480   -9.9850   21.8030 C   0  0  0  0  0  3  0  0  0  0  0  0
  -23.9700   -8.8130   21.9200 C   0  0  0  0  0  3  0  0  0  0  0  0
  -22.8500   -8.6190   21.0770 C   0  0  0  0  0  0  0  0  0  0  0  0
  -22.5410   -9.5930   20.1120 C   0  0  0  0  0  3  0  0  0  0  0  0
  -23.3190  -10.7560   19.9940 C   0  0  0  0  0  3  0  0  0  0  0  0
  -22.0530   -7.4990   21.1010 O   0  0  0  0  0  0  0  0  0  0  0  0
  -21.8100   -6.8120   22.2640 C   0  0  0  0  0  0  0  0  0  0  0  0
  -21.1890   -7.4240   23.3730 C   0  0  0  0  0  3  0  0  0  0  0  0
  -20.8960   -6.6640   24.5240 C   0  0  0  0  0  3  0  0  0  0  0  0
  -21.2120   -5.2930   24.5620 C   0  0  0  0  0  0  0  0  0  0  0  0
  -21.8250   -4.6810   23.4550 C   0  0  0  0  0  3  0  0  0  0  0  0
  -22.1210   -5.4380   22.3080 C   0  0  0  0  0  0  0  0  0  0  0  0
  -22.6940   -4.8390   21.2360 F   0  0  0  0  0  0  0  0  0  0  0  0
  -20.9240   -4.5600   25.6620 F   0  0  0  0  0  0  0  0  0  0  0  0
  -23.4180  -14.1020   21.0950 C   0  0  0  0  0  0  0  0  0  0  0  0
  -22.6590  -13.4040   21.9320 N   0  0  0  0  0  0  0  0  0  0  0  0
  -23.0250  -15.1630   20.6130 O   0  0  0  0  0  0  0  0  0  0  0  0
  -22.9890  -12.5420   22.3400 H   0  0  0  0  0  0  0  0  0  0  0  0
  -21.7340  -13.7370   22.1680 H   0  0  0  0  0  0  0  0  0  0  0  0
  -26.1290  -15.6860   20.3680 N   0  0  0  0  0  0  0  0  0  0  0  0
  -25.4010  -16.3740   20.5240 H   0  0  0  0  0  0  0  0  0  0  0  0
  -27.0070  -16.1010   20.0790 H   0  0  0  0  0  0  0  0  0  0  0  0
  -29.0820  -23.0100   18.7850 C   0  0  0  0  0  2  0  0  0  0  0  0
  -29.2230  -24.4990   19.2980 C   0  0  0  0  0  0  0  0  0  0  0  0
  -29.6380  -24.7350   20.4380 O   0  0  0  0  0  0  0  0  0  0  0  0
  -28.8810  -25.6760   18.3190 C   0  0  0  0  0  2  0  0  0  0  0  0
  -28.7010  -26.9890   18.9490 O   0  0  0  0  0  0  0  0  0  0  0  0
  -24.5320  -31.3780   22.7950 C   0  0  0  0  0  0  0  0  0  0  0  0
  -27.4550  -27.6130   19.0500 C   0  0  0  0  0  0  0  0  0  0  0  0
  -23.3950  -30.0820   21.0250 C   0  0  0  0  0  3  0  0  0  0  0  0
  -24.9250  -28.8970   19.3560 C   0  0  0  0  0  0  0  0  0  0  0  0
  -25.8690  -30.7100   20.7900 C   0  0  0  0  0  2  0  0  0  0  0  0
  -26.0580  -29.4460   19.9650 C   0  0  0  0  0  0  0  0  0  0  0  0
  -27.3210  -28.8140   19.8070 C   0  0  0  0  0  3  0  0  0  0  0  0
  -26.2870  -27.0900   18.4470 C   0  0  0  0  0  3  0  0  0  0  0  0
  -25.0370  -27.7220   18.5960 C   0  0  0  0  0  3  0  0  0  0  0  0
  -23.6060  -29.6120   19.5600 C   0  0  0  0  0  2  0  0  0  0  0  0
  -24.6190  -30.7350   21.5950 N   0  0  0  0  0  0  0  0  0  0  0  0
  -23.4540  -31.4640   23.4020 O   0  0  0  0  0  0  0  0  0  0  0  0
  -22.8940  -28.8830   21.8640 C   0  0  0  0  0  0  0  0  0  0  0  0
  -21.5930  -28.5720   21.7520 N   0  0  0  0  0  0  0  0  0  0  0  0
  -23.6740  -28.2400   22.5730 O   0  0  0  0  0  0  0  0  0  0  0  0
  -21.0190  -29.1530   21.1570 H   0  0  0  0  0  0  0  0  0  0  0  0
  -18.3980  -26.9290   22.1540 C   0  0  0  0  0  0  0  0  0  0  0  0
  -20.9150  -27.4580   22.4150 C   0  0  0  0  0  3  0  0  0  0  0  0
  -21.1660  -26.1300   21.6660 C   0  0  0  0  0  2  0  0  0  0  0  0
  -20.0800  -25.8030   20.6370 C   0  0  0  0  0  2  0  0  0  0  0  0
  -18.7120  -25.7010   21.3160 C   0  0  0  0  0  2  0  0  0  0  0  0
  -19.4310  -27.7640   22.6560 C   0  0  0  0  0  0  0  0  0  0  0  0
  -19.0840  -28.9130   23.3970 C   0  0  0  0  0  3  0  0  0  0  0  0
  -17.7350  -29.2310   23.6420 C   0  0  0  0  0  3  0  0  0  0  0  0
  -16.7160  -28.3930   23.1570 C   0  0  0  0  0  3  0  0  0  0  0  0
  -17.0480  -27.2430   22.4180 C   0  0  0  0  0  3  0  0  0  0  0  0
  -25.7740  -32.0580   23.4490 C   0  0  0  0  0  3  0  0  0  0  0  0
  -26.3880  -31.2220   24.6380 C   0  0  1  0  0  0  0  0  0  0  0  0
  -25.3510  -30.8050   25.7080 C   0  0  0  0  0  1  0  0  0  0  0  0
  -27.0610  -29.9350   24.1080 C   0  0  0  0  0  1  0  0  0  0  0  0
  -27.4950  -32.0430   25.3400 C   0  0  0  0  0  1  0  0  0  0  0  0
  -25.3580  -33.3890   23.9130 N   0  0  0  0  0  0  0  0  0  0  0  0
  -25.6380  -34.5380   23.2820 C   0  0  0  0  0  0  0  0  0  0  0  0
  -26.3430  -34.5910   22.2710 O   0  0  0  0  0  0  0  0  0  0  0  0
  -24.7320  -33.4170   24.7060 H   0  0  0  0  0  0  0  0  0  0  0  0
  -23.8130  -36.2520   23.0410 C   0  0  0  0  0  1  0  0  0  0  0  0
  -25.0410  -35.8330   23.8660 C   0  0  0  0  0  3  0  0  0  0  0  0
  -27.0700  -36.7450   24.9040 C   0  0  0  0  0  1  0  0  0  0  0  0
  -26.0060  -36.9510   23.9240 N   0  0  0  0  0  0  0  0  0  0  0  0
  -25.5350  -37.8230   24.1470 H   0  0  0  0  0  0  0  0  0  0  0  0
  1  2  1  0
  3  1  1  0
  4  2  1  0
  5  3  1  0
  5 10  1  0
  5  6  1  0
  6  4  1  0
  6  7  1  1
  8  9  2  0
  9 21  1  0
 10 11  2  0
 11  9  1  0
 12 10  1  0
 12  8  1  0
 13 19  1  0
 13 21  1  0
 14 19  1  0
 15 16  1  0
 15 14  1  0
 17 16  1  0
 17 26  1  0
 17 18  1  0
 19 18  1  0
 20 13  2  0
 21 22  1  0
 23 24  2  0
 24 43  1  0
 25 24  1  0
 25 28  1  0
 26 27  1  0
 26 23  1  0
 27 25  2  0
 28 29  1  0
 29 30  2  0
 31 34  1  0
 31 30  1  0
 32 31  2  0
 33 32  1  0
 33 28  2  0
 34 35  1  0
 35 40  2  0
 35 36  1  0
 36 37  2  0
 37 38  1  0
 38 42  1  0
 39 38  2  0
 40 39  1  0
 41 40  1  0
 43 44  1  0
 44 47  1  0
 44 46  1  0
 45 43  2  0
 48 23  1  0
 48 49  1  0
 50 48  1  0
 51 52  1  0
 51  6  1  0
 52 53  2  0
 54 55  1  0
 54 52  1  0
 55 57  1  0
 56 67  2  0
 57 62  1  0
 58 66  1  0
 58 68  1  0
 59 65  1  0
 59 61  1  0
 60 66  1  0
 61 60  1  0
 62 61  2  0
 63 64  1  0
 63 57  2  0
 64 59  2  0
 65 58  1  0
 66 56  1  0
 68 70  2  0
 69 68  1  0
 71 69  1  0
 72 81  2  0
 72 77  1  0
 73 69  1  0
 73 77  1  0
 74 73  1  0
 75 76  1  0
 75 74  1  0
 76 72  1  0
 77 78  2  0
 78 79  1  0
 80 79  2  0
 81 80  1  0
 82 56  1  0
 82 87  1  0
 82 83  1  0
 83 86  1  1
 83 84  1  0
 85 83  1  0
 87 90  1  0
 88 92  1  0
 88 87  1  0
 89 88  2  0
 92 91  1  0
 92 94  1  0
 94 95  1  0
 94 93  1  0
M  ISO  4  13 100  21 100  54 101  55 101
M  END
>  <TORSDO>  (65) 
F 20

>  <SCORE>  (65) 
-8.196

>  <name>  (65) 
65

>  <ligand_id>  (65) 
65

>  <original_smiles>  (65) 
[H]c1sc(C2([H])C([H])([H])C([H])([H])C([H])([H])C([H])([H])[N+]2([H])C([H])([H])C(=O)C([H])([H])Oc2c([H])c([H])c3c(c2[H])C([H])([H])N(C(=O)C([H])(N([H])C(=O)C([H])(N([H])C([H])([H])[H])C([H])([H])[H])C(C([H])([H])[H])(C([H])([H])[H])C([H])([H])[H])C([H])(C(=O)N([H])C2([H])c4c([H])c([H])c([H])c([H])c4C([H])([H])C([H])([H])C2([H])[H])C3([H])[H])nc1N([H])C(=O)N1C([H])([H])C([H])([H])C([H])([H])C([H])(n2nc(-c3c([H])c([H])c(Oc4c([H])c([H])c(F)c([H])c4F)c([H])c3[H])c(C(=O)N([H])[H])c2N([H])[H])C1([H])[H]

>  <smiles>  (65) 
[H]c1sc(C2([H])C([H])([H])C([H])([H])C([H])([H])C([H])([H])[N+]2([H])C([H])([H])C(=O)C([H])([H])Oc2c([H])c([H])c3c(c2[H])C([H])([H])N(C(=O)C([H])(N([H])C(=O)C([H])(N([H])C([H])([H])[H])C([H])([H])[H])C(C([H])([H])[H])(C([H])([H])[H])C([H])([H])[H])C([H])(C(=O)N([H])C2([H])c4c([H])c([H])c([H])c([H])c4C([H])([H])C([H])([H])C2([H])[H])C3([H])[H])nc1N([H])C(=O)N1C([H])([H])C([H])([H])C([H])([H])C([H])(n2nc(-c3c([H])c([H])c(Oc4c([H])c([H])c(F)c([H])c4F)c([H])c3[H])c(C(=O)N([H])[H])c2N([H])[H])C1([H])[H]

$$$$
66:0:0
     RDKit          3D

 98106  0  0  1  0  0  0  0  0999 V2000
  -28.9880  -20.4280   20.4340 C   0  0  0  0  0  0  0  0  0  0  0  0
  -27.6870  -20.1680   20.2890 N   0  0  0  0  0  4  0  0  0  0  0  0
  -29.3800  -21.7190   20.2650 N   0  0  0  0  0  0  0  0  0  0  0  0
  -27.3970  -19.1980   20.3490 H   0  0  0  0  0  0  0  0  0  0  0  0
  -27.0150  -20.8470   19.9790 H   0  0  0  0  0  0  0  0  0  0  0  0
  -30.3750  -21.9040   20.3030 H   0  0  0  0  0  0  0  0  0  0  0  0
  -32.1610  -18.5860   21.4730 C   0  0  0  0  0  3  0  0  0  0  0  0
  -31.2410  -19.6210   21.2010 C   0  0  0  0  0  3  0  0  0  0  0  0
  -31.7890  -17.2380   21.3090 C   0  0  0  0  0  3  0  0  0  0  0  0
  -29.9300  -19.3220   20.7540 C   0  0  0  0  0  0  0  0  0  0  0  0
  -30.4780  -16.9090   20.8950 C   0  0  0  0  0  0  0  0  0  0  0  0
  -29.5580  -17.9500   20.6330 C   0  0  0  0  0  0  0  0  0  0  0  0
  -28.3000  -17.5920   20.2590 F   0  0  0  0  0  0  0  0  0  0  0  0
  -30.6670  -14.5620   20.1280 C   0  0  0  0  0  0  0  0  0  0  0  0
  -30.2770  -12.4480   18.9170 C   0  0  0  0  0  2  0  0  0  0  0  0
  -29.2670  -12.6730   17.7730 C   0  0  0  0  0  2  0  0  0  0  0  0
  -27.8210  -12.5160   18.2860 C   0  0  0  0  0  2  0  0  0  0  0  0
  -27.5530  -13.3220   19.5860 C   0  0  0  0  0  3  0  0  0  0  0  0
  -28.6720  -13.0850   20.6260 C   0  0  0  0  0  2  0  0  0  0  0  0
  -29.9600  -13.4060   19.9860 N   0  0  0  0  0  0  0  0  0  0  0  0
  -31.7610  -14.7450   19.5920 O   0  0  0  0  0  0  0  0  0  0  0  0
  -30.0320  -15.5570   20.7740 N   0  0  0  0  0  0  0  0  0  0  0  0
  -29.0690  -15.3830   21.0090 H   0  0  0  0  0  0  0  0  0  0  0  0
  -25.2010  -13.8980   20.4570 C   0  0  0  0  0  0  0  0  0  0  0  0
  -24.1560  -13.1110   20.8610 C   0  0  0  0  0  0  0  0  0  0  0  0
  -24.6160  -11.7620   20.7610 C   0  0  0  0  0  0  0  0  0  0  0  0
  -26.2300  -13.0270   20.1360 N   0  0  0  0  0  0  0  0  0  0  0  0
  -25.8860  -11.7360   20.3760 N   0  0  0  0  0  0  0  0  0  0  0  0
  -23.9050  -10.4920   20.9550 C   0  0  0  0  0  0  0  0  0  0  0  0
  -24.3550   -9.5300   21.8880 C   0  0  0  0  0  3  0  0  0  0  0  0
  -23.6440   -8.3240   22.0710 C   0  0  0  0  0  3  0  0  0  0  0  0
  -22.4710   -8.0720   21.3220 C   0  0  0  0  0  0  0  0  0  0  0  0
  -22.0400   -9.0240   20.3820 C   0  0  0  0  0  3  0  0  0  0  0  0
  -22.7500  -10.2210   20.1960 C   0  0  0  0  0  3  0  0  0  0  0  0
  -21.7330   -6.9170   21.4130 O   0  0  0  0  0  0  0  0  0  0  0  0
  -21.6610   -6.1980   22.5780 C   0  0  0  0  0  0  0  0  0  0  0  0
  -21.1410   -6.7560   23.7660 C   0  0  0  0  0  3  0  0  0  0  0  0
  -21.0180   -5.9590   24.9230 C   0  0  0  0  0  3  0  0  0  0  0  0
  -21.4070   -4.6070   24.8920 C   0  0  0  0  0  0  0  0  0  0  0  0
  -21.9190   -4.0480   23.7060 C   0  0  0  0  0  3  0  0  0  0  0  0
  -22.0410   -4.8410   22.5520 C   0  0  0  0  0  0  0  0  0  0  0  0
  -22.5170   -4.2930   21.4080 F   0  0  0  0  0  0  0  0  0  0  0  0
  -21.2800   -3.8390   25.9990 F   0  0  0  0  0  0  0  0  0  0  0  0
  -22.7770  -13.5770   21.2270 C   0  0  0  0  0  0  0  0  0  0  0  0
  -22.0960  -12.8460   22.1000 N   0  0  0  0  0  0  0  0  0  0  0  0
  -22.3160  -14.6250   20.7770 O   0  0  0  0  0  0  0  0  0  0  0  0
  -22.4850  -12.0000   22.4890 H   0  0  0  0  0  0  0  0  0  0  0  0
  -21.1710  -13.1370   22.3830 H   0  0  0  0  0  0  0  0  0  0  0  0
  -25.3600  -15.2740   20.3220 N   0  0  0  0  0  0  0  0  0  0  0  0
  -24.6050  -15.9250   20.5160 H   0  0  0  0  0  0  0  0  0  0  0  0
  -26.1930  -15.7290   19.9750 H   0  0  0  0  0  0  0  0  0  0  0  0
  -28.4760  -22.8520   19.9140 C   0  0  0  0  0  2  0  0  0  0  0  0
  -29.0660  -24.2920   20.0120 C   0  0  0  0  0  2  0  0  0  0  0  0
  -27.9780  -25.3250   20.4370 C   0  0  0  0  0  3  0  0  0  0  0  0
  -27.7770  -25.2520   21.9620 C   0  0  0  0  0  0  0  0  0  0  0  0
  -28.6480  -26.1440   22.8360 C   0  0  0  0  0  1  0  0  0  0  0  0
  -26.9450  -24.4930   22.4670 O   0  0  0  0  0  0  0  0  0  0  0  0
  -28.2270  -26.7060   20.0340 O   0  0  0  0  0  0  0  0  0  0  0  0
  -24.5460  -31.9580   23.2050 C   0  0  0  0  0  0  0  0  0  0  0  0
  -27.0950  -27.5140   20.0100 C   0  0  0  0  0  0  0  0  0  0  0  0
  -23.3020  -30.5770   21.5750 C   0  0  0  0  0  3  0  0  0  0  0  0
  -24.7160  -29.0570   20.1000 C   0  0  0  0  0  0  0  0  0  0  0  0
  -25.8310  -30.9200   21.3370 C   0  0  0  0  0  2  0  0  0  0  0  0
  -25.8950  -29.5580   20.6700 C   0  0  0  0  0  0  0  0  0  0  0  0
  -27.0890  -28.7920   20.6210 C   0  0  0  0  0  3  0  0  0  0  0  0
  -25.9010  -27.0570   19.4050 C   0  0  0  0  0  3  0  0  0  0  0  0
  -24.7180  -27.8080   19.4630 C   0  0  0  0  0  3  0  0  0  0  0  0
  -23.4780  -29.9180   20.1840 C   0  0  0  0  0  2  0  0  0  0  0  0
  -24.5780  -31.1670   22.0940 N   0  0  0  0  0  0  0  0  0  0  0  0
  -23.4750  -32.2300   23.7670 O   0  0  0  0  0  0  0  0  0  0  0  0
  -22.6670  -29.5460   22.5360 C   0  0  0  0  0  0  0  0  0  0  0  0
  -21.3440  -29.3550   22.4170 N   0  0  0  0  0  0  0  0  0  0  0  0
  -23.3630  -28.9210   23.3400 O   0  0  0  0  0  0  0  0  0  0  0  0
  -20.8430  -29.9240   21.7490 H   0  0  0  0  0  0  0  0  0  0  0  0
  -17.9820  -28.1270   22.9490 C   0  0  0  0  0  0  0  0  0  0  0  0
  -20.5410  -28.3970   23.1770 C   0  0  0  0  0  3  0  0  0  0  0  0
  -20.6490  -26.9800   22.5690 C   0  0  0  0  0  2  0  0  0  0  0  0
  -19.5220  -26.6520   21.5850 C   0  0  0  0  0  2  0  0  0  0  0  0
  -18.1590  -26.7770   22.2720 C   0  0  0  0  0  2  0  0  0  0  0  0
  -19.1030  -28.8920   23.3640 C   0  0  0  0  0  0  0  0  0  0  0  0
  -18.8880  -30.1510   23.9650 C   0  0  0  0  0  3  0  0  0  0  0  0
  -17.5840  -30.6460   24.1510 C   0  0  0  0  0  3  0  0  0  0  0  0
  -16.4770  -29.8800   23.7500 C   0  0  0  0  0  3  0  0  0  0  0  0
  -16.6770  -28.6200   23.1570 C   0  0  0  0  0  3  0  0  0  0  0  0
  -25.8460  -32.5750   23.8050 C   0  0  0  0  0  3  0  0  0  0  0  0
  -25.5510  -33.9700   24.1550 N   0  0  0  0  0  0  0  0  0  0  0  0
  -25.8800  -35.0290   23.4020 C   0  0  0  0  0  0  0  0  0  0  0  0
  -26.5370  -34.9340   22.3620 O   0  0  0  0  0  0  0  0  0  0  0  0
  -24.9740  -34.1170   24.9690 H   0  0  0  0  0  0  0  0  0  0  0  0
  -24.1750  -36.8440   23.0580 C   0  0  0  0  0  1  0  0  0  0  0  0
  -25.4010  -36.4140   23.8780 C   0  0  0  0  0  3  0  0  0  0  0  0
  -27.5320  -37.2590   24.7590 C   0  0  0  0  0  1  0  0  0  0  0  0
  -26.4480  -37.4550   23.8000 N   0  0  0  0  0  0  0  0  0  0  0  0
  -26.0510  -38.3770   23.9560 H   0  0  0  0  0  0  0  0  0  0  0  0
  -26.3900  -31.7890   25.0600 C   0  0  1  0  0  0  0  0  0  0  0  0
  -25.3170  -31.5360   26.1450 C   0  0  0  0  0  1  0  0  0  0  0  0
  -26.9690  -30.4180   24.6400 C   0  0  0  0  0  1  0  0  0  0  0  0
  -27.5490  -32.5800   25.7130 C   0  0  0  0  0  1  0  0  0  0  0  0
  1 10  1  0
  2  4  1  0
  2  1  2  0
  3  6  1  0
  3  1  1  0
  5  2  1  0
  8  7  2  0
  9  7  1  0
 10  8  1  0
 11  9  2  0
 12 10  2  0
 12 11  1  0
 13 12  1  0
 14 22  1  0
 15 20  1  0
 16 17  1  0
 16 15  1  0
 18 17  1  0
 18 27  1  0
 18 19  1  0
 20 14  1  0
 20 19  1  0
 21 14  2  0
 22 11  1  0
 22 23  1  0
 24 25  2  0
 25 44  1  0
 26 25  1  0
 26 29  1  0
 27 28  1  0
 27 24  1  0
 28 26  2  0
 29 30  1  0
 30 31  2  0
 32 35  1  0
 32 31  1  0
 33 32  2  0
 34 33  1  0
 34 29  2  0
 35 36  1  0
 36 37  1  0
 37 38  2  0
 39 38  1  0
 39 43  1  0
 40 39  2  0
 41 36  2  0
 41 40  1  0
 42 41  1  0
 44 45  1  0
 45 48  1  0
 45 47  1  0
 46 44  2  0
 49 24  1  0
 49 50  1  0
 51 49  1  0
 52 53  1  0
 52  3  1  0
 54 53  1  0
 54 55  1  0
 55 57  2  0
 55 56  1  0
 58 54  1  0
 59 70  2  0
 60 58  1  0
 60 65  1  0
 61 69  1  0
 61 71  1  0
 62 68  1  0
 62 64  1  0
 63 69  1  0
 64 63  1  0
 65 64  2  0
 66 67  1  0
 66 60  2  0
 67 62  2  0
 68 61  1  0
 69 59  1  0
 71 73  2  0
 72 71  1  0
 74 72  1  0
 75 84  2  0
 75 80  1  0
 76 72  1  0
 76 80  1  0
 77 76  1  0
 78 79  1  0
 78 77  1  0
 79 75  1  0
 80 81  2  0
 81 82  1  0
 83 82  2  0
 84 83  1  0
 85 59  1  0
 85 86  1  0
 85 95  1  0
 86 89  1  0
 87 91  1  0
 87 86  1  0
 88 87  2  0
 91 90  1  0
 93 91  1  0
 93 94  1  0
 93 92  1  0
 95 98  1  1
 95 96  1  0
 97 95  1  0
M  ISO  4  14 100  22 100  54 101  58 101
M  END
>  <TORSDO>  (66) 
F 21

>  <SCORE>  (66) 
-13.698

>  <name>  (66) 
66

>  <ligand_id>  (66) 
66

>  <original_smiles>  (66) 
[H]c1c([H])c(C(N([H])[H])=[N+]([H])C([H])([H])C([H])([H])C([H])(Oc2c([H])c([H])c3c(c2[H])C([H])([H])N(C(=O)C([H])(N([H])C(=O)C([H])(N([H])C([H])([H])[H])C([H])([H])[H])C(C([H])([H])[H])(C([H])([H])[H])C([H])([H])[H])C([H])(C(=O)N([H])C2([H])c4c([H])c([H])c([H])c([H])c4C([H])([H])C([H])([H])C2([H])[H])C3([H])[H])C(=O)C([H])([H])[H])c(F)c(N([H])C(=O)N2C([H])([H])C([H])([H])C([H])([H])C([H])(n3nc(-c4c([H])c([H])c(Oc5c([H])c([H])c(F)c([H])c5F)c([H])c4[H])c(C(=O)N([H])[H])c3N([H])[H])C2([H])[H])c1[H]

>  <smiles>  (66) 
[H]c1c([H])c(C(N([H])[H])=[N+]([H])C([H])([H])C([H])([H])C([H])(Oc2c([H])c([H])c3c(c2[H])C([H])([H])N(C(=O)C([H])(N([H])C(=O)C([H])(N([H])C([H])([H])[H])C([H])([H])[H])C(C([H])([H])[H])(C([H])([H])[H])C([H])([H])[H])C([H])(C(=O)N([H])C2([H])c4c([H])c([H])c([H])c([H])c4C([H])([H])C([H])([H])C2([H])[H])C3([H])[H])C(=O)C([H])([H])[H])c(F)c(N([H])C(=O)N2C([H])([H])C([H])([H])C([H])([H])C([H])(n3nc(-c4c([H])c([H])c(Oc5c([H])c([H])c(F)c([H])c5F)c([H])c4[H])c(C(=O)N([H])[H])c3N([H])[H])C2([H])[H])c1[H]

$$$$
67:0:0
     RDKit          3D

 93101  0  0  1  0  0  0  0  0999 V2000
  -30.5090  -19.4010   19.8670 C   0  0  0  0  0  3  0  0  0  0  0  0
  -29.8910  -18.1240   20.0820 C   0  0  0  0  0  0  0  0  0  0  0  0
  -28.5410  -18.3570   19.8910 C   0  0  0  0  0  0  0  0  0  0  0  0
  -29.5190  -20.3110   19.6270 C   0  0  0  0  0  0  0  0  0  0  0  0
  -28.3090  -19.6950   19.6190 O   0  0  0  0  0  0  0  0  0  0  0  0
  -27.3910  -17.4500   19.9760 C   0  0  0  0  0  0  0  0  0  0  0  0
  -25.9960  -17.9950   19.6860 C   0  0  0  0  0  1  0  0  0  0  0  0
  -27.5150  -16.2590   20.2710 O   0  0  0  0  0  0  0  0  0  0  0  0
  -28.8810  -22.5790   19.7200 C   0  0  0  0  0  3  0  0  0  0  0  0
  -29.7350  -21.6650   19.4080 N   0  0  0  0  0  0  0  0  0  0  0  0
  -29.0650  -24.0940   19.5230 C   0  0  0  0  0  0  0  0  0  0  0  0
  -29.9840  -24.5570   18.8330 O   0  0  0  0  0  0  0  0  0  0  0  0
  -28.0650  -25.0510   20.2230 C   0  0  0  0  0  2  0  0  0  0  0  0
  -28.3070  -26.4620   19.9360 O   0  0  0  0  0  0  0  0  0  0  0  0
  -24.6160  -31.6910   23.1310 C   0  0  0  0  0  0  0  0  0  0  0  0
  -27.1790  -27.2650   19.9370 C   0  0  0  0  0  0  0  0  0  0  0  0
  -23.3890  -30.3500   21.4560 C   0  0  0  0  0  3  0  0  0  0  0  0
  -24.8190  -28.8330   19.9840 C   0  0  0  0  0  0  0  0  0  0  0  0
  -25.9210  -30.6740   21.2630 C   0  0  0  0  0  2  0  0  0  0  0  0
  -25.9880  -29.3180   20.5820 C   0  0  0  0  0  0  0  0  0  0  0  0
  -27.1760  -28.5430   20.5510 C   0  0  0  0  0  3  0  0  0  0  0  0
  -25.9960  -26.8130   19.3130 C   0  0  0  0  0  3  0  0  0  0  0  0
  -24.8200  -27.5840   19.3420 C   0  0  0  0  0  3  0  0  0  0  0  0
  -23.5870  -29.7080   20.0580 C   0  0  0  0  0  2  0  0  0  0  0  0
  -24.6610  -30.9180   22.0080 N   0  0  0  0  0  0  0  0  0  0  0  0
  -23.5390  -31.9630   23.6800 O   0  0  0  0  0  0  0  0  0  0  0  0
  -22.7270  -29.3100   22.3910 C   0  0  0  0  0  0  0  0  0  0  0  0
  -21.3960  -29.1630   22.2770 N   0  0  0  0  0  0  0  0  0  0  0  0
  -23.4060  -28.6420   23.1740 O   0  0  0  0  0  0  0  0  0  0  0  0
  -20.9100  -29.7540   21.6180 H   0  0  0  0  0  0  0  0  0  0  0  0
  -17.9990  -28.0410   22.7960 C   0  0  0  0  0  0  0  0  0  0  0  0
  -20.5690  -28.2170   23.0250 C   0  0  0  0  0  3  0  0  0  0  0  0
  -20.6190  -26.8080   22.3920 C   0  0  0  0  0  2  0  0  0  0  0  0
  -19.4890  -26.5570   21.3890 C   0  0  0  0  0  2  0  0  0  0  0  0
  -18.1240  -26.7150   22.0650 C   0  0  0  0  0  2  0  0  0  0  0  0
  -19.1470  -28.7540   23.2330 C   0  0  0  0  0  0  0  0  0  0  0  0
  -18.9760  -29.9990   23.8760 C   0  0  0  0  0  3  0  0  0  0  0  0
  -17.6900  -30.5290   24.0870 C   0  0  0  0  0  3  0  0  0  0  0  0
  -16.5560  -29.8120   23.6670 C   0  0  0  0  0  3  0  0  0  0  0  0
  -16.7120  -28.5700   23.0270 C   0  0  0  0  0  3  0  0  0  0  0  0
  -25.9110  -32.2900   23.7630 C   0  0  0  0  0  3  0  0  0  0  0  0
  -25.6240  -33.6850   24.1240 N   0  0  0  0  0  0  0  0  0  0  0  0
  -25.9730  -34.7480   23.3860 C   0  0  0  0  0  0  0  0  0  0  0  0
  -26.6410  -34.6550   22.3540 O   0  0  0  0  0  0  0  0  0  0  0  0
  -25.0360  -33.8300   24.9310 H   0  0  0  0  0  0  0  0  0  0  0  0
  -24.2690  -36.5680   23.0700 C   0  0  0  0  0  1  0  0  0  0  0  0
  -25.5040  -36.1330   23.8730 C   0  0  0  0  0  3  0  0  0  0  0  0
  -27.6560  -36.9650   24.7120 C   0  0  0  0  0  1  0  0  0  0  0  0
  -26.5500  -37.1750   23.7830 N   0  0  0  0  0  0  0  0  0  0  0  0
  -26.1560  -38.0940   23.9620 H   0  0  0  0  0  0  0  0  0  0  0  0
  -26.4190  -31.4820   25.0200 C   0  0  1  0  0  0  0  0  0  0  0  0
  -25.3250  -31.2360   26.0860 C   0  0  0  0  0  1  0  0  0  0  0  0
  -26.9800  -30.1060   24.5920 C   0  0  0  0  0  1  0  0  0  0  0  0
  -27.5820  -32.2440   25.6970 C   0  0  0  0  0  1  0  0  0  0  0  0
  -30.6500  -16.8620   20.5370 C   0  0  0  0  0  2  0  0  0  0  0  0
  -30.6600  -14.4150   20.0450 C   0  0  0  0  0  0  0  0  0  0  0  0
  -30.2980  -12.2020   19.0180 C   0  0  0  0  0  2  0  0  0  0  0  0
  -29.3160  -12.3550   17.8390 C   0  0  0  0  0  2  0  0  0  0  0  0
  -27.8630  -12.2280   18.3330 C   0  0  0  0  0  2  0  0  0  0  0  0
  -27.5700  -13.1090   19.5790 C   0  0  0  0  0  3  0  0  0  0  0  0
  -28.6740  -12.9680   20.6510 C   0  0  0  0  0  2  0  0  0  0  0  0
  -29.9630  -13.2450   20.0040 N   0  0  0  0  0  0  0  0  0  0  0  0
  -31.7950  -14.5090   19.5730 O   0  0  0  0  0  0  0  0  0  0  0  0
  -30.0120  -15.5250   20.4740 N   0  0  0  0  0  0  0  0  0  0  0  0
  -29.0770  -15.4310   20.8480 H   0  0  0  0  0  0  0  0  0  0  0  0
  -25.2140  -13.7220   20.4030 C   0  0  0  0  0  0  0  0  0  0  0  0
  -24.1610  -12.9550   20.8240 C   0  0  0  0  0  0  0  0  0  0  0  0
  -24.6140  -11.6010   20.7720 C   0  0  0  0  0  0  0  0  0  0  0  0
  -26.2430  -12.8360   20.1260 N   0  0  0  0  0  0  0  0  0  0  0  0
  -25.8890  -11.5560   20.4050 N   0  0  0  0  0  0  0  0  0  0  0  0
  -23.8890  -10.3420   20.9960 C   0  0  0  0  0  0  0  0  0  0  0  0
  -24.3620   -9.3660   21.9000 C   0  0  0  0  0  3  0  0  0  0  0  0
  -23.6370   -8.1740   22.1120 C   0  0  0  0  0  3  0  0  0  0  0  0
  -22.4230   -7.9500   21.4200 C   0  0  0  0  0  0  0  0  0  0  0  0
  -21.9680   -8.9130   20.5040 C   0  0  0  0  0  3  0  0  0  0  0  0
  -22.6940  -10.0970   20.2890 C   0  0  0  0  0  3  0  0  0  0  0  0
  -21.6660   -6.8100   21.5420 O   0  0  0  0  0  0  0  0  0  0  0  0
  -21.6840   -6.0530   22.6870 C   0  0  0  0  0  0  0  0  0  0  0  0
  -21.3500   -6.5990   23.9470 C   0  0  0  0  0  3  0  0  0  0  0  0
  -21.3130   -5.7700   25.0850 C   0  0  0  0  0  3  0  0  0  0  0  0
  -21.5990   -4.3960   24.9660 C   0  0  0  0  0  0  0  0  0  0  0  0
  -21.9260   -3.8510   23.7130 C   0  0  0  0  0  3  0  0  0  0  0  0
  -21.9650   -4.6770   22.5760 C   0  0  0  0  0  0  0  0  0  0  0  0
  -22.2590   -4.1420   21.3670 F   0  0  0  0  0  0  0  0  0  0  0  0
  -21.5550   -3.5980   26.0580 F   0  0  0  0  0  0  0  0  0  0  0  0
  -22.7810  -13.4410   21.1610 C   0  0  0  0  0  0  0  0  0  0  0  0
  -22.0930  -12.7540   22.0660 N   0  0  0  0  0  0  0  0  0  0  0  0
  -22.3240  -14.4650   20.6580 O   0  0  0  0  0  0  0  0  0  0  0  0
  -22.4760  -11.9250   22.4950 H   0  0  0  0  0  0  0  0  0  0  0  0
  -21.1680  -13.0630   22.3330 H   0  0  0  0  0  0  0  0  0  0  0  0
  -25.3720  -15.0910   20.2100 N   0  0  0  0  0  0  0  0  0  0  0  0
  -24.6130  -15.7450   20.3510 H   0  0  0  0  0  0  0  0  0  0  0  0
  -26.2190  -15.5240   19.8660 H   0  0  0  0  0  0  0  0  0  0  0  0
  1  2  1  0
  2 55  1  0
  3  6  1  0
  3  2  2  0
  4  1  2  0
  5  4  1  0
  5  3  1  0
  6  8  2  0
  7  6  1  0
 10  4  1  0
 10  9  2  0
 11  9  1  0
 11 13  1  0
 12 11  2  0
 14 16  1  0
 14 13  1  0
 15 26  2  0
 16 21  1  0
 17 25  1  0
 17 27  1  0
 18 24  1  0
 18 20  1  0
 19 25  1  0
 20 19  1  0
 21 20  2  0
 22 23  1  0
 22 16  2  0
 23 18  2  0
 24 17  1  0
 25 15  1  0
 27 29  2  0
 28 27  1  0
 30 28  1  0
 31 40  2  0
 31 36  1  0
 32 28  1  0
 32 36  1  0
 33 32  1  0
 34 35  1  0
 34 33  1  0
 35 31  1  0
 36 37  2  0
 37 38  1  0
 39 38  2  0
 40 39  1  0
 41 15  1  0
 41 42  1  0
 41 51  1  0
 42 45  1  0
 43 47  1  0
 43 42  1  0
 44 43  2  0
 47 46  1  0
 49 47  1  0
 49 50  1  0
 49 48  1  0
 51 54  1  1
 51 52  1  0
 53 51  1  0
 56 64  1  0
 57 62  1  0
 58 59  1  0
 58 57  1  0
 60 59  1  0
 60 69  1  0
 60 61  1  0
 62 56  1  0
 62 61  1  0
 63 56  2  0
 64 55  1  0
 64 65  1  0
 66 67  2  0
 67 86  1  0
 68 67  1  0
 68 71  1  0
 69 66  1  0
 69 70  1  0
 70 68  2  0
 71 72  1  0
 72 73  2  0
 74 77  1  0
 74 73  1  0
 75 74  2  0
 76 75  1  0
 76 71  2  0
 77 78  1  0
 78 79  1  0
 79 80  2  0
 81 80  1  0
 81 85  1  0
 82 81  2  0
 83 78  2  0
 83 82  1  0
 84 83  1  0
 86 87  1  0
 87 90  1  0
 87 89  1  0
 88 86  2  0
 91 92  1  0
 91 66  1  0
 93 91  1  0
M  ISO  4  13 101  14 101  56 100  64 100
M  END
>  <TORSDO>  (67) 
F 21

>  <SCORE>  (67) 
-13.138

>  <name>  (67) 
67

>  <ligand_id>  (67) 
67

>  <original_smiles>  (67) 
[H]C(=Nc1oc(C(=O)C([H])([H])[H])c(C([H])([H])N([H])C(=O)N2C([H])([H])C([H])([H])C([H])([H])C([H])(n3nc(-c4c([H])c([H])c(Oc5c([H])c([H])c(F)c([H])c5F)c([H])c4[H])c(C(=O)N([H])[H])c3N([H])[H])C2([H])[H])c1[H])C(=O)C([H])([H])Oc1c([H])c([H])c2c(c1[H])C([H])([H])N(C(=O)C([H])(N([H])C(=O)C([H])(N([H])C([H])([H])[H])C([H])([H])[H])C(C([H])([H])[H])(C([H])([H])[H])C([H])([H])[H])C([H])(C(=O)N([H])C1([H])c3c([H])c([H])c([H])c([H])c3C([H])([H])C([H])([H])C1([H])[H])C2([H])[H]

>  <smiles>  (67) 
[H]C(=Nc1oc(C(=O)C([H])([H])[H])c(C([H])([H])N([H])C(=O)N2C([H])([H])C([H])([H])C([H])([H])C([H])(n3nc(-c4c([H])c([H])c(Oc5c([H])c([H])c(F)c([H])c5F)c([H])c4[H])c(C(=O)N([H])[H])c3N([H])[H])C2([H])[H])c1[H])C(=O)C([H])([H])Oc1c([H])c([H])c2c(c1[H])C([H])([H])N(C(=O)C([H])(N([H])C(=O)C([H])(N([H])C([H])([H])[H])C([H])([H])[H])C(C([H])([H])[H])(C([H])([H])[H])C([H])([H])[H])C([H])(C(=O)N([H])C1([H])c3c([H])c([H])c([H])c([H])c3C([H])([H])C([H])([H])C1([H])[H])C2([H])[H]

$$$$
68:0:0
     RDKit          3D

101110  0  0  1  0  0  0  0  0999 V2000
  -31.0040  -17.1530   21.4320 C   0  0  0  0  0  3  0  0  0  0  0  0
  -29.0030  -17.7170   20.1760 C   0  0  0  0  0  3  0  0  0  0  0  0
  -31.2060  -18.5170   21.7110 C   0  0  0  0  0  0  0  0  0  0  0  0
  -30.2990  -19.5000   21.2430 C   0  0  0  0  0  0  0  0  0  0  0  0
  -29.8850  -16.7270   20.6930 C   0  0  0  0  0  0  0  0  0  0  0  0
  -29.2050  -19.1080   20.4120 C   0  0  0  0  0  0  0  0  0  0  0  0
  -32.4470  -18.9210   22.4940 C   0  0  0  0  0  2  0  0  0  0  0  0
  -30.5330  -20.9450   21.6950 C   0  0  0  0  0  2  0  0  0  0  0  0
  -33.4060  -19.7620   21.6250 C   0  0  0  0  0  2  0  0  0  0  0  0
  -31.7410  -21.5900   20.9840 C   0  0  0  0  0  2  0  0  0  0  0  0
  -33.1380  -21.2870   21.5690 C   0  0  2  0  0  0  0  0  0  0  0  0
  -34.1610  -21.9120   20.6010 C   0  0  0  0  0  1  0  0  0  0  0  0
  -33.3590  -21.9490   22.9470 C   0  0  0  0  0  1  0  0  0  0  0  0
  -30.4350  -14.2770   20.4420 C   0  0  0  0  0  0  0  0  0  0  0  0
  -30.2730  -11.9030   19.7440 C   0  0  0  0  0  2  0  0  0  0  0  0
  -29.3640  -11.8310   18.4980 C   0  0  0  0  0  2  0  0  0  0  0  0
  -27.8820  -11.7220   18.9080 C   0  0  0  0  0  2  0  0  0  0  0  0
  -27.4790  -12.7810   19.9680 C   0  0  0  0  0  3  0  0  0  0  0  0
  -28.5020  -12.8210   21.1260 C   0  0  0  0  0  2  0  0  0  0  0  0
  -29.8280  -13.0590   20.5380 N   0  0  0  0  0  0  0  0  0  0  0  0
  -31.6000  -14.4100   20.0520 O   0  0  0  0  0  0  0  0  0  0  0  0
  -29.5930  -15.3290   20.5690 N   0  0  0  0  0  0  0  0  0  0  0  0
  -28.6240  -15.0730   20.6740 H   0  0  0  0  0  0  0  0  0  0  0  0
  -25.1090  -13.4930   20.6630 C   0  0  0  0  0  0  0  0  0  0  0  0
  -24.0100  -12.7650   21.0350 C   0  0  0  0  0  0  0  0  0  0  0  0
  -24.4150  -11.3970   21.0160 C   0  0  0  0  0  0  0  0  0  0  0  0
  -26.1180  -12.5670   20.4480 N   0  0  0  0  0  0  0  0  0  0  0  0
  -25.7050  -11.3020   20.7150 N   0  0  0  0  0  0  0  0  0  0  0  0
  -23.6400  -10.1650   21.2090 C   0  0  0  0  0  0  0  0  0  0  0  0
  -24.0590   -9.1610   22.1110 C   0  0  0  0  0  3  0  0  0  0  0  0
  -23.2850   -7.9970   22.2930 C   0  0  0  0  0  3  0  0  0  0  0  0
  -22.0810   -7.8250   21.5730 C   0  0  0  0  0  0  0  0  0  0  0  0
  -21.6780   -8.8160   20.6610 C   0  0  0  0  0  3  0  0  0  0  0  0
  -22.4530   -9.9730   20.4740 C   0  0  0  0  0  3  0  0  0  0  0  0
  -21.2800   -6.7120   21.6670 O   0  0  0  0  0  0  0  0  0  0  0  0
  -21.2960   -5.9020   22.7730 C   0  0  0  0  0  0  0  0  0  0  0  0
  -20.9470   -6.3850   24.0530 C   0  0  0  0  0  3  0  0  0  0  0  0
  -20.9100   -5.5010   25.1510 C   0  0  0  0  0  3  0  0  0  0  0  0
  -21.2170   -4.1400   24.9710 C   0  0  0  0  0  0  0  0  0  0  0  0
  -21.5640   -3.6580   23.6970 C   0  0  0  0  0  3  0  0  0  0  0  0
  -21.6020   -4.5360   22.6010 C   0  0  0  0  0  0  0  0  0  0  0  0
  -21.9130   -4.0640   21.3700 F   0  0  0  0  0  0  0  0  0  0  0  0
  -21.1760   -3.2900   26.0240 F   0  0  0  0  0  0  0  0  0  0  0  0
  -22.6310  -13.2990   21.3020 C   0  0  0  0  0  0  0  0  0  0  0  0
  -21.8800  -12.6390   22.1740 N   0  0  0  0  0  0  0  0  0  0  0  0
  -22.2340  -14.3390   20.7730 O   0  0  0  0  0  0  0  0  0  0  0  0
  -22.2130  -11.7900   22.6100 H   0  0  0  0  0  0  0  0  0  0  0  0
  -20.9600  -12.9840   22.4110 H   0  0  0  0  0  0  0  0  0  0  0  0
  -25.3320  -14.8530   20.4730 N   0  0  0  0  0  0  0  0  0  0  0  0
  -24.5930  -15.5420   20.5640 H   0  0  0  0  0  0  0  0  0  0  0  0
  -26.1880  -15.2450   20.1020 H   0  0  0  0  0  0  0  0  0  0  0  0
  -28.2940  -20.0310   19.8380 N   0  0  0  0  0  0  0  0  0  0  0  0
  -27.3110  -19.9930   20.1100 H   0  0  0  0  0  0  0  0  0  0  0  0
  -28.7060  -21.3390   19.2750 C   0  0  0  0  0  2  0  0  0  0  0  0
  -27.9680  -22.5700   19.8390 C   0  0  0  0  0  0  0  0  0  0  0  0
  -26.8110  -22.3950   20.3430 N   0  0  0  0  0  0  0  0  0  0  0  0
  -26.4050  -23.2670   20.6660 H   0  0  0  0  0  0  0  0  0  0  0  0
  -28.6680  -23.9340   19.6940 C   0  0  0  0  0  0  0  0  0  0  0  0
  -29.8330  -24.1440   20.0520 O   0  0  0  0  0  0  0  0  0  0  0  0
  -27.8170  -25.0260   19.0030 C   0  0  0  0  0  2  0  0  0  0  0  0
  -28.0530  -26.3780   19.4640 O   0  0  0  0  0  0  0  0  0  0  0  0
  -24.9090  -31.5030   23.2830 C   0  0  0  0  0  0  0  0  0  0  0  0
  -26.9630  -27.2340   19.5480 C   0  0  0  0  0  0  0  0  0  0  0  0
  -23.5000  -30.4330   21.5610 C   0  0  0  0  0  3  0  0  0  0  0  0
  -24.7280  -28.9700   19.8680 C   0  0  0  0  0  0  0  0  0  0  0  0
  -26.0370  -30.5800   21.2560 C   0  0  0  0  0  2  0  0  0  0  0  0
  -25.9590  -29.2990   20.4470 C   0  0  0  0  0  0  0  0  0  0  0  0
  -27.0740  -28.4410   20.2840 C   0  0  0  0  0  3  0  0  0  0  0  0
  -25.7140  -26.9470   18.9420 C   0  0  0  0  0  3  0  0  0  0  0  0
  -24.6060  -27.7990   19.1100 C   0  0  0  0  0  3  0  0  0  0  0  0
  -23.5700  -29.9150   20.0990 C   0  0  0  0  0  2  0  0  0  0  0  0
  -24.8410  -30.8430   22.0930 N   0  0  0  0  0  0  0  0  0  0  0  0
  -23.8860  -31.8000   23.9120 O   0  0  0  0  0  0  0  0  0  0  0  0
  -22.7960  -29.3640   22.4300 C   0  0  0  0  0  0  0  0  0  0  0  0
  -21.4590  -29.2950   22.3260 N   0  0  0  0  0  0  0  0  0  0  0  0
  -23.4500  -28.6040   23.1510 O   0  0  0  0  0  0  0  0  0  0  0  0
  -20.9940  -29.9540   21.7160 H   0  0  0  0  0  0  0  0  0  0  0  0
  -18.0160  -28.2800   22.7630 C   0  0  0  0  0  0  0  0  0  0  0  0
  -20.5890  -28.3410   23.0200 C   0  0  0  0  0  3  0  0  0  0  0  0
  -20.5910  -26.9670   22.3120 C   0  0  0  0  0  2  0  0  0  0  0  0
  -19.4600  -26.8150   21.2900 C   0  0  0  0  0  2  0  0  0  0  0  0
  -18.0960  -26.9910   21.9650 C   0  0  0  0  0  2  0  0  0  0  0  0
  -19.1880  -28.9210   23.2460 C   0  0  0  0  0  0  0  0  0  0  0  0
  -19.0630  -30.1350   23.9550 C   0  0  0  0  0  3  0  0  0  0  0  0
  -17.7960  -30.7030   24.1940 C   0  0  0  0  0  3  0  0  0  0  0  0
  -16.6370  -30.0510   23.7390 C   0  0  0  0  0  3  0  0  0  0  0  0
  -16.7480  -28.8450   23.0240 C   0  0  0  0  0  3  0  0  0  0  0  0
  -26.2790  -31.9380   23.8950 C   0  0  0  0  0  3  0  0  0  0  0  0
  -26.1330  -33.3160   24.3760 N   0  0  0  0  0  0  0  0  0  0  0  0
  -26.5730  -34.4010   23.7260 C   0  0  0  0  0  0  0  0  0  0  0  0
  -27.2200  -34.3360   22.6760 O   0  0  0  0  0  0  0  0  0  0  0  0
  -25.5620  -33.4500   25.1990 H   0  0  0  0  0  0  0  0  0  0  0  0
  -25.0630  -36.4080   23.6010 C   0  0  0  0  0  1  0  0  0  0  0  0
  -26.2530  -35.7790   24.3420 C   0  0  0  0  0  3  0  0  0  0  0  0
  -28.4730  -36.3220   25.2380 C   0  0  0  0  0  1  0  0  0  0  0  0
  -27.4000  -36.7140   24.3270 N   0  0  0  0  0  0  0  0  0  0  0  0
  -27.1030  -37.6540   24.5780 H   0  0  0  0  0  0  0  0  0  0  0  0
  -26.7620  -30.9920   25.0600 C   0  0  1  0  0  0  0  0  0  0  0  0
  -25.7000  -30.7720   26.1630 C   0  0  0  0  0  1  0  0  0  0  0  0
  -27.1600  -29.6070   24.4980 C   0  0  0  0  0  1  0  0  0  0  0  0
  -28.0230  -31.5860   25.7290 C   0  0  0  0  0  1  0  0  0  0  0  0
  1  3  1  0
  2  6  2  0
  2  5  1  0
  3  7  1  0
  4  8  1  0
  4  3  2  0
  5  1  2  0
  6  4  1  0
  9  7  1  0
 10 11  1  0
 10  8  1  0
 11  9  1  0
 11 13  1  1
 12 11  1  0
 14 20  1  0
 14 22  1  0
 15 20  1  0
 16 17  1  0
 16 15  1  0
 18 17  1  0
 18 27  1  0
 18 19  1  0
 20 19  1  0
 21 14  2  0
 22 23  1  0
 22  5  1  0
 24 25  2  0
 25 44  1  0
 26 25  1  0
 26 29  1  0
 27 24  1  0
 27 28  1  0
 28 26  2  0
 29 30  1  0
 30 31  2  0
 32 35  1  0
 32 31  1  0
 33 32  2  0
 34 33  1  0
 34 29  2  0
 35 36  1  0
 36 37  1  0
 37 38  2  0
 39 38  1  0
 39 43  1  0
 40 39  2  0
 41 36  2  0
 41 40  1  0
 42 41  1  0
 44 45  1  0
 45 48  1  0
 45 47  1  0
 46 44  2  0
 49 50  1  0
 49 24  1  0
 51 49  1  0
 52 53  1  0
 52  6  1  0
 54 52  1  0
 54 55  1  0
 55 56  2  0
 56 57  1  0
 58 55  1  0
 58 59  2  0
 60 61  1  0
 60 58  1  0
 61 63  1  0
 62 73  2  0
 63 68  1  0
 64 72  1  0
 64 74  1  0
 65 71  1  0
 65 67  1  0
 66 72  1  0
 67 66  1  0
 68 67  2  0
 69 70  1  0
 69 63  2  0
 70 65  2  0
 71 64  1  0
 72 62  1  0
 74 76  2  0
 75 74  1  0
 77 75  1  0
 78 87  2  0
 78 83  1  0
 79 75  1  0
 79 83  1  0
 80 79  1  0
 81 82  1  0
 81 80  1  0
 82 78  1  0
 83 84  2  0
 84 85  1  0
 86 85  2  0
 87 86  1  0
 88 62  1  0
 88 89  1  0
 88 98  1  0
 89 92  1  0
 90 94  1  0
 90 89  1  0
 91 90  2  0
 94 93  1  0
 96 94  1  0
 96 97  1  0
 96 95  1  0
 98101  1  1
 98 99  1  0
100 98  1  0
M  ISO  4  14 100  22 100  60 101  61 101
M  END
>  <TORSDO>  (68) 
F 21

>  <SCORE>  (68) 
-10.665

>  <name>  (68) 
68

>  <ligand_id>  (68) 
68

>  <original_smiles>  (68) 
[H]N=C(C(=O)C([H])([H])Oc1c([H])c([H])c2c(c1[H])C([H])([H])N(C(=O)C([H])(N([H])C(=O)C([H])(N([H])C([H])([H])[H])C([H])([H])[H])C(C([H])([H])[H])(C([H])([H])[H])C([H])([H])[H])C([H])(C(=O)N([H])C1([H])c3c([H])c([H])c([H])c([H])c3C([H])([H])C([H])([H])C1([H])[H])C2([H])[H])C([H])([H])N([H])c1c([H])c(N([H])C(=O)N2C([H])([H])C([H])([H])C([H])([H])C([H])(n3nc(-c4c([H])c([H])c(Oc5c([H])c([H])c(F)c([H])c5F)c([H])c4[H])c(C(=O)N([H])[H])c3N([H])[H])C2([H])[H])c([H])c2c1C([H])([H])C([H])([H])C(C([H])([H])[H])(C([H])([H])[H])C([H])([H])C2([H])[H]

>  <smiles>  (68) 
[H]N=C(C(=O)C([H])([H])Oc1c([H])c([H])c2c(c1[H])C([H])([H])N(C(=O)C([H])(N([H])C(=O)C([H])(N([H])C([H])([H])[H])C([H])([H])[H])C(C([H])([H])[H])(C([H])([H])[H])C([H])([H])[H])C([H])(C(=O)N([H])C1([H])c3c([H])c([H])c([H])c([H])c3C([H])([H])C([H])([H])C1([H])[H])C2([H])[H])C([H])([H])N([H])c1c([H])c(N([H])C(=O)N2C([H])([H])C([H])([H])C([H])([H])C([H])(n3nc(-c4c([H])c([H])c(Oc5c([H])c([H])c(F)c([H])c5F)c([H])c4[H])c(C(=O)N([H])[H])c3N([H])[H])C2([H])[H])c([H])c2c1C([H])([H])C([H])([H])C(C([H])([H])[H])(C([H])([H])[H])C([H])([H])C2([H])[H]

$$$$
69:0:0
     RDKit          3D

101109  0  0  1  0  0  0  0  0999 V2000
  -30.1730  -19.3540   20.3830 C   0  0  0  0  0  3  0  0  0  0  0  0
  -28.5250  -17.6980   19.7620 C   0  0  0  0  0  3  0  0  0  0  0  0
  -27.9210  -20.0650   19.8430 C   0  0  0  0  0  3  0  0  0  0  0  0
  -29.8580  -17.9790   20.1510 C   0  0  0  0  0  0  0  0  0  0  0  0
  -29.2300  -20.4070   20.2380 C   0  0  0  0  0  0  0  0  0  0  0  0
  -27.5540  -18.7200   19.6330 C   0  0  0  0  0  0  0  0  0  0  0  0
  -29.5840  -21.7490   20.5340 N   0  0  0  0  0  0  0  0  0  0  0  0
  -30.4590  -21.8640   21.0400 H   0  0  0  0  0  0  0  0  0  0  0  0
  -29.2890  -24.2140   20.2960 C   0  0  0  0  0  3  0  0  0  0  0  0
  -28.9220  -22.9150   20.1160 C   0  0  0  0  0  3  0  0  0  0  0  0
  -29.1750  -25.6680   18.2510 C   0  0  0  0  0  1  0  0  0  0  0  0
  -28.5600  -25.3980   19.6340 C   0  0  0  0  0  3  0  0  0  0  0  0
  -28.5400  -26.6580   20.3680 O   0  0  0  0  0  0  0  0  0  0  0  0
  -24.7070  -31.9520   23.3350 C   0  0  0  0  0  0  0  0  0  0  0  0
  -27.3910  -27.4520   20.3000 C   0  0  0  0  0  0  0  0  0  0  0  0
  -23.5370  -30.5630   21.6700 C   0  0  0  0  0  3  0  0  0  0  0  0
  -25.0140  -29.0310   20.2670 C   0  0  0  0  0  0  0  0  0  0  0  0
  -26.0780  -30.8860   21.5440 C   0  0  0  0  0  2  0  0  0  0  0  0
  -26.1670  -29.5180   20.8920 C   0  0  0  0  0  0  0  0  0  0  0  0
  -27.3550  -28.7360   20.9120 C   0  0  0  0  0  3  0  0  0  0  0  0
  -26.2090  -27.0160   19.6460 C   0  0  0  0  0  3  0  0  0  0  0  0
  -25.0330  -27.7810   19.6400 C   0  0  0  0  0  3  0  0  0  0  0  0
  -23.7750  -29.8970   20.2930 C   0  0  0  0  0  2  0  0  0  0  0  0
  -24.7910  -31.1490   22.2390 N   0  0  0  0  0  0  0  0  0  0  0  0
  -23.6140  -32.2330   23.8450 O   0  0  0  0  0  0  0  0  0  0  0  0
  -22.8550  -29.5390   22.6080 C   0  0  0  0  0  0  0  0  0  0  0  0
  -21.5320  -29.3650   22.4480 N   0  0  0  0  0  0  0  0  0  0  0  0
  -23.5160  -28.9060   23.4360 O   0  0  0  0  0  0  0  0  0  0  0  0
  -21.0590  -29.9270   21.7530 H   0  0  0  0  0  0  0  0  0  0  0  0
  -18.1330  -28.2200   22.9030 C   0  0  0  0  0  0  0  0  0  0  0  0
  -20.6930  -28.4320   23.2000 C   0  0  0  0  0  3  0  0  0  0  0  0
  -20.7740  -27.0070   22.6030 C   0  0  0  0  0  2  0  0  0  0  0  0
  -19.6780  -26.7170   21.5750 C   0  0  0  0  0  2  0  0  0  0  0  0
  -18.2930  -26.8790   22.2060 C   0  0  0  0  0  2  0  0  0  0  0  0
  -19.2600  -28.9570   23.3540 C   0  0  0  0  0  0  0  0  0  0  0  0
  -19.0570  -30.2150   23.9610 C   0  0  0  0  0  3  0  0  0  0  0  0
  -17.7600  -30.7370   24.1230 C   0  0  0  0  0  3  0  0  0  0  0  0
  -16.6470  -29.9950   23.6920 C   0  0  0  0  0  3  0  0  0  0  0  0
  -16.8340  -28.7380   23.0880 C   0  0  0  0  0  3  0  0  0  0  0  0
  -25.9790  -32.5770   23.9850 C   0  0  0  0  0  3  0  0  0  0  0  0
  -26.5050  -31.7690   25.2340 C   0  0  1  0  0  0  0  0  0  0  0  0
  -25.4040  -31.4430   26.2720 C   0  0  0  0  0  1  0  0  0  0  0  0
  -27.1470  -30.4330   24.7950 C   0  0  0  0  0  1  0  0  0  0  0  0
  -27.6160  -32.5770   25.9460 C   0  0  0  0  0  1  0  0  0  0  0  0
  -25.6460  -33.9560   24.3630 N   0  0  0  0  0  0  0  0  0  0  0  0
  -25.9790  -35.0420   23.6540 C   0  0  0  0  0  0  0  0  0  0  0  0
  -26.6670  -34.9880   22.6300 O   0  0  0  0  0  0  0  0  0  0  0  0
  -25.0240  -34.0710   25.1510 H   0  0  0  0  0  0  0  0  0  0  0  0
  -24.2440  -36.8370   23.3380 C   0  0  0  0  0  1  0  0  0  0  0  0
  -25.4670  -36.4020   24.1590 C   0  0  0  0  0  3  0  0  0  0  0  0
  -27.5730  -37.2640   25.0840 C   0  0  0  0  0  1  0  0  0  0  0  0
  -26.4920  -37.4670   24.1230 N   0  0  0  0  0  0  0  0  0  0  0  0
  -26.0730  -38.3750   24.3020 H   0  0  0  0  0  0  0  0  0  0  0  0
  -26.2060  -18.4520   19.3490 N   0  0  0  0  0  0  0  0  0  0  0  0
  -25.5860  -19.2360   19.5200 H   0  0  0  0  0  0  0  0  0  0  0  0
  -25.5840  -17.2140   19.3380 C   0  0  0  0  0  3  0  0  0  0  0  0
  -24.2970  -17.0010   19.6720 C   0  0  0  0  0  0  0  0  0  0  0  0
  -23.6710  -15.6220   19.6120 C   0  0  0  0  0  1  0  0  0  0  0  0
  -23.3570  -18.0980   20.1450 C   0  0  0  0  0  1  0  0  0  0  0  0
  -30.9030  -16.8920   20.3940 C   0  0  0  0  0  3  0  0  0  0  0  0
  -30.9500  -14.4400   19.9330 C   0  0  0  0  0  0  0  0  0  0  0  0
  -30.6220  -12.1630   19.0310 C   0  0  0  0  0  2  0  0  0  0  0  0
  -29.5690  -12.2060   17.9060 C   0  0  0  0  0  2  0  0  0  0  0  0
  -28.1530  -12.0420   18.4890 C   0  0  0  0  0  2  0  0  0  0  0  0
  -27.8910  -12.9750   19.7000 C   0  0  0  0  0  3  0  0  0  0  0  0
  -29.0590  -12.9400   20.7120 C   0  0  0  0  0  2  0  0  0  0  0  0
  -30.3020  -13.2400   19.9860 N   0  0  0  0  0  0  0  0  0  0  0  0
  -31.9860  -14.5820   19.2810 O   0  0  0  0  0  0  0  0  0  0  0  0
  -30.3840  -15.5040   20.5490 N   0  0  0  0  0  0  0  0  0  0  0  0
  -29.5430  -15.3590   21.0810 H   0  0  0  0  0  0  0  0  0  0  0  0
  -25.6540  -13.5460   20.8300 C   0  0  0  0  0  0  0  0  0  0  0  0
  -24.6160  -12.7650   21.2560 C   0  0  0  0  0  0  0  0  0  0  0  0
  -25.0010  -11.4150   20.9900 C   0  0  0  0  0  0  0  0  0  0  0  0
  -26.6100  -12.6740   20.3370 N   0  0  0  0  0  0  0  0  0  0  0  0
  -26.2290  -11.3790   20.4890 N   0  0  0  0  0  0  0  0  0  0  0  0
  -24.2490  -10.1620   21.1310 C   0  0  0  0  0  0  0  0  0  0  0  0
  -24.7230   -9.1000   21.9350 C   0  0  0  0  0  3  0  0  0  0  0  0
  -23.9730   -7.9150   22.0720 C   0  0  0  0  0  3  0  0  0  0  0  0
  -22.7320   -7.7790   21.4050 C   0  0  0  0  0  0  0  0  0  0  0  0
  -22.2750   -8.8270   20.5870 C   0  0  0  0  0  3  0  0  0  0  0  0
  -23.0260  -10.0070   20.4480 C   0  0  0  0  0  3  0  0  0  0  0  0
  -21.9460   -6.6530   21.4570 O   0  0  0  0  0  0  0  0  0  0  0  0
  -21.9150   -5.8470   22.5660 C   0  0  0  0  0  0  0  0  0  0  0  0
  -21.5400   -6.3410   23.8340 C   0  0  0  0  0  3  0  0  0  0  0  0
  -21.4580   -5.4640   24.9350 C   0  0  0  0  0  3  0  0  0  0  0  0
  -21.7380   -4.0940   24.7680 C   0  0  0  0  0  0  0  0  0  0  0  0
  -22.1060   -3.6000   23.5040 C   0  0  0  0  0  3  0  0  0  0  0  0
  -22.1910   -4.4730   22.4060 C   0  0  0  0  0  0  0  0  0  0  0  0
  -22.5260   -3.9890   21.1860 F   0  0  0  0  0  0  0  0  0  0  0  0
  -21.6510   -3.2490   25.8220 F   0  0  0  0  0  0  0  0  0  0  0  0
  -23.2970  -13.2450   21.7920 C   0  0  0  0  0  0  0  0  0  0  0  0
  -22.6830  -12.4770   22.6850 N   0  0  0  0  0  0  0  0  0  0  0  0
  -22.8280  -14.3320   21.4580 O   0  0  0  0  0  0  0  0  0  0  0  0
  -23.0750  -11.5930   22.9730 H   0  0  0  0  0  0  0  0  0  0  0  0
  -21.8020  -12.7750   23.0850 H   0  0  0  0  0  0  0  0  0  0  0  0
  -25.8570  -14.9230   20.7980 N   0  0  0  0  0  0  0  0  0  0  0  0
  -25.1550  -15.5820   21.1160 H   0  0  0  0  0  0  0  0  0  0  0  0
  -26.6690  -15.3770   20.3990 H   0  0  0  0  0  0  0  0  0  0  0  0
  -31.6130  -17.3340   21.6930 C   0  0  0  0  0  0  0  0  0  0  0  0
  -30.8130  -17.3630   22.9910 C   0  0  0  0  0  1  0  0  0  0  0  0
  -32.8100  -17.6350   21.7260 O   0  0  0  0  0  0  0  0  0  0  0  0
  2  4  1  0
  3  5  2  0
  4  1  2  0
  4 60  1  0
  5  1  1  0
  5  7  1  0
  6  2  2  0
  6  3  1  0
  7  8  1  0
 10  9  2  0
 10  7  1  0
 12 11  1  0
 12  9  1  0
 12 13  1  0
 14 25  2  0
 15 13  1  0
 15 20  1  0
 16 24  1  0
 16 26  1  0
 17 23  1  0
 17 19  1  0
 18 24  1  0
 19 20  2  0
 19 18  1  0
 21 15  2  0
 22 21  1  0
 22 17  2  0
 23 16  1  0
 24 14  1  0
 26 28  2  0
 27 26  1  0
 29 27  1  0
 30 39  2  0
 30 35  1  0
 31 27  1  0
 31 35  1  0
 32 31  1  0
 33 34  1  0
 33 32  1  0
 34 30  1  0
 35 36  2  0
 36 37  1  0
 38 37  2  0
 39 38  1  0
 40 14  1  0
 40 45  1  0
 40 41  1  0
 41 44  1  1
 41 42  1  0
 43 41  1  0
 45 48  1  0
 46 50  1  0
 46 45  1  0
 47 46  2  0
 50 49  1  0
 52 50  1  0
 52 53  1  0
 52 51  1  0
 54 55  1  0
 54  6  1  0
 56 54  1  0
 56 57  2  0
 57 59  1  0
 58 57  1  0
 60 69  1  0
 60 99  1  0
 61 67  1  0
 61 69  1  0
 62 67  1  0
 63 64  1  0
 63 62  1  0
 65 64  1  0
 65 74  1  0
 65 66  1  0
 67 66  1  0
 68 61  2  0
 69 70  1  0
 71 72  2  0
 72 91  1  0
 73 76  1  0
 73 72  1  0
 74 75  1  0
 74 71  1  0
 75 73  2  0
 76 77  1  0
 77 78  2  0
 79 82  1  0
 79 78  1  0
 80 79  2  0
 81 80  1  0
 81 76  2  0
 82 83  1  0
 83 84  1  0
 84 85  2  0
 86 85  1  0
 86 90  1  0
 87 86  2  0
 88 83  2  0
 88 87  1  0
 89 88  1  0
 91 92  1  0
 92 94  1  0
 92 95  1  0
 93 91  2  0
 96 71  1  0
 96 97  1  0
 98 96  1  0
 99101  2  0
 99100  1  0
M  ISO  4  12 101  13 101  61 100  69 100
M  END
>  <TORSDO>  (69) 
F 23

>  <SCORE>  (69) 
-6.282

>  <name>  (69) 
69

>  <ligand_id>  (69) 
69

>  <original_smiles>  (69) 
[H]C(=C(C([H])([H])[H])C([H])([H])[H])N([H])c1c([H])c(N([H])C([H])=C([H])C([H])(Oc2c([H])c([H])c3c(c2[H])C([H])([H])N(C(=O)C([H])(N([H])C(=O)C([H])(N([H])C([H])([H])[H])C([H])([H])[H])C(C([H])([H])[H])(C([H])([H])[H])C([H])([H])[H])C([H])(C(=O)N([H])C2([H])c4c([H])c([H])c([H])c([H])c4C([H])([H])C([H])([H])C2([H])[H])C3([H])[H])C([H])([H])[H])c([H])c(C([H])(C(=O)C([H])([H])[H])N([H])C(=O)N2C([H])([H])C([H])([H])C([H])([H])C([H])(n3nc(-c4c([H])c([H])c(Oc5c([H])c([H])c(F)c([H])c5F)c([H])c4[H])c(C(=O)N([H])[H])c3N([H])[H])C2([H])[H])c1[H]

>  <smiles>  (69) 
[H]C(=C(C([H])([H])[H])C([H])([H])[H])N([H])c1c([H])c(N([H])C([H])=C([H])C([H])(Oc2c([H])c([H])c3c(c2[H])C([H])([H])N(C(=O)C([H])(N([H])C(=O)C([H])(N([H])C([H])([H])[H])C([H])([H])[H])C(C([H])([H])[H])(C([H])([H])[H])C([H])([H])[H])C([H])(C(=O)N([H])C2([H])c4c([H])c([H])c([H])c([H])c4C([H])([H])C([H])([H])C2([H])[H])C3([H])[H])C([H])([H])[H])c([H])c(C([H])(C(=O)C([H])([H])[H])N([H])C(=O)N2C([H])([H])C([H])([H])C([H])([H])C([H])(n3nc(-c4c([H])c([H])c(Oc5c([H])c([H])c(F)c([H])c5F)c([H])c4[H])c(C(=O)N([H])[H])c3N([H])[H])C2([H])[H])c1[H]

$$$$
70:0:0
     RDKit          3D

 97105  0  0  1  0  0  0  0  0999 V2000
  -29.5980  -23.0180   21.1620 C   0  0  0  0  0  0  0  0  0  0  0  0
  -29.5150  -21.9500   20.3410 N   0  0  0  0  0  0  0  0  0  0  0  0
  -29.6870  -22.8710   22.3820 O   0  0  0  0  0  0  0  0  0  0  0  0
  -29.5320  -22.1380   19.3480 H   0  0  0  0  0  0  0  0  0  0  0  0
  -29.0340  -20.5990   20.7220 C   0  0  0  0  0  2  0  0  0  0  0  0
  -32.3570  -18.6770   21.0790 C   0  0  0  0  0  3  0  0  0  0  0  0
  -31.4160  -19.7160   20.9610 C   0  0  0  0  0  3  0  0  0  0  0  0
  -31.9480  -17.3310   21.0090 C   0  0  0  0  0  3  0  0  0  0  0  0
  -30.0470  -19.4320   20.7790 C   0  0  0  0  0  0  0  0  0  0  0  0
  -30.5870  -17.0000   20.8020 C   0  0  0  0  0  0  0  0  0  0  0  0
  -29.6410  -18.0610   20.7050 C   0  0  0  0  0  0  0  0  0  0  0  0
  -30.7600  -14.5740   20.1800 C   0  0  0  0  0  0  0  0  0  0  0  0
  -30.3770  -12.4170   19.0370 C   0  0  0  0  0  2  0  0  0  0  0  0
  -29.3960  -12.6250   17.8660 C   0  0  0  0  0  2  0  0  0  0  0  0
  -27.9400  -12.4860   18.3530 C   0  0  0  0  0  2  0  0  0  0  0  0
  -27.6510  -13.3110   19.6370 C   0  0  0  0  0  3  0  0  0  0  0  0
  -28.7530  -13.1120   20.7030 C   0  0  0  0  0  2  0  0  0  0  0  0
  -30.0510  -13.4120   20.0750 N   0  0  0  0  0  0  0  0  0  0  0  0
  -31.8700  -14.6990   19.6560 O   0  0  0  0  0  0  0  0  0  0  0  0
  -30.1320  -15.6310   20.7460 N   0  0  0  0  0  0  0  0  0  0  0  0
  -29.1800  -15.4820   21.0460 H   0  0  0  0  0  0  0  0  0  0  0  0
  -25.2840  -13.8970   20.4490 C   0  0  0  0  0  0  0  0  0  0  0  0
  -24.2340  -13.1180   20.8530 C   0  0  0  0  0  0  0  0  0  0  0  0
  -24.6940  -11.7680   20.7830 C   0  0  0  0  0  0  0  0  0  0  0  0
  -26.3210  -13.0220   20.1660 N   0  0  0  0  0  0  0  0  0  0  0  0
  -25.9710  -11.7350   20.4220 N   0  0  0  0  0  0  0  0  0  0  0  0
  -23.9740  -10.5030   20.9830 C   0  0  0  0  0  0  0  0  0  0  0  0
  -24.4200   -9.5370   21.9120 C   0  0  0  0  0  3  0  0  0  0  0  0
  -23.6980   -8.3380   22.0990 C   0  0  0  0  0  3  0  0  0  0  0  0
  -22.5170   -8.0980   21.3570 C   0  0  0  0  0  0  0  0  0  0  0  0
  -22.0890   -9.0530   20.4180 C   0  0  0  0  0  3  0  0  0  0  0  0
  -22.8110  -10.2430   20.2300 C   0  0  0  0  0  3  0  0  0  0  0  0
  -21.7670   -6.9500   21.4530 O   0  0  0  0  0  0  0  0  0  0  0  0
  -21.7190   -6.2180   22.6130 C   0  0  0  0  0  0  0  0  0  0  0  0
  -21.2650   -6.7760   23.8270 C   0  0  0  0  0  3  0  0  0  0  0  0
  -21.1650   -5.9700   24.9790 C   0  0  0  0  0  3  0  0  0  0  0  0
  -21.5090   -4.6060   24.9160 C   0  0  0  0  0  0  0  0  0  0  0  0
  -21.9550   -4.0460   23.7050 C   0  0  0  0  0  3  0  0  0  0  0  0
  -22.0560   -4.8500   22.5560 C   0  0  0  0  0  0  0  0  0  0  0  0
  -22.4670   -4.3010   21.3870 F   0  0  0  0  0  0  0  0  0  0  0  0
  -21.4060   -3.8290   26.0200 F   0  0  0  0  0  0  0  0  0  0  0  0
  -22.8510  -13.5940   21.1910 C   0  0  0  0  0  0  0  0  0  0  0  0
  -22.1530  -12.8800   22.0660 N   0  0  0  0  0  0  0  0  0  0  0  0
  -22.3970  -14.6350   20.7140 O   0  0  0  0  0  0  0  0  0  0  0  0
  -22.5350  -12.0410   22.4770 H   0  0  0  0  0  0  0  0  0  0  0  0
  -21.2260  -13.1800   22.3330 H   0  0  0  0  0  0  0  0  0  0  0  0
  -25.4310  -15.2680   20.2760 N   0  0  0  0  0  0  0  0  0  0  0  0
  -24.6530  -15.9040   20.4090 H   0  0  0  0  0  0  0  0  0  0  0  0
  -26.2440  -15.7150   19.8770 H   0  0  0  0  0  0  0  0  0  0  0  0
  -28.3040  -17.7090   20.5180 N   0  0  0  0  0  0  0  0  0  0  0  0
  -27.6600  -18.4470   20.2600 H   0  0  0  0  0  0  0  0  0  0  0  0
  -28.1630  -16.8850   19.9480 H   0  0  0  0  0  0  0  0  0  0  0  0
  -29.5360  -24.4590   20.5560 C   0  0  0  0  0  2  0  0  0  0  0  0
  -28.1230  -25.6520   22.3590 C   0  0  0  0  0  1  0  0  0  0  0  0
  -27.0110  -24.4420   20.4630 C   0  0  0  0  0  1  0  0  0  0  0  0
  -28.2380  -25.3120   20.8580 C   0  0  2  0  0  0  0  0  0  0  0  0
  -28.3280  -26.6120   20.1600 O   0  0  0  0  0  0  0  0  0  0  0  0
  -24.5630  -31.9000   23.2390 C   0  0  0  0  0  0  0  0  0  0  0  0
  -27.2080  -27.4410   20.1320 C   0  0  0  0  0  0  0  0  0  0  0  0
  -23.3690  -30.5070   21.5860 C   0  0  0  0  0  3  0  0  0  0  0  0
  -24.8300  -28.9970   20.1400 C   0  0  0  0  0  0  0  0  0  0  0  0
  -25.9000  -30.8590   21.4070 C   0  0  0  0  0  2  0  0  0  0  0  0
  -25.9880  -29.4910   20.7520 C   0  0  0  0  0  0  0  0  0  0  0  0
  -27.1810  -28.7190   20.7520 C   0  0  0  0  0  3  0  0  0  0  0  0
  -26.0500  -27.0240   19.4380 C   0  0  0  0  0  3  0  0  0  0  0  0
  -24.8570  -27.7620   19.4770 C   0  0  0  0  0  3  0  0  0  0  0  0
  -23.5850  -29.8540   20.1960 C   0  0  0  0  0  2  0  0  0  0  0  0
  -24.6280  -31.1050   22.1330 N   0  0  0  0  0  0  0  0  0  0  0  0
  -23.4790  -32.1620   23.7790 O   0  0  0  0  0  0  0  0  0  0  0  0
  -22.7220  -29.4700   22.5330 C   0  0  0  0  0  0  0  0  0  0  0  0
  -21.3960  -29.2900   22.4110 N   0  0  0  0  0  0  0  0  0  0  0  0
  -23.4100  -28.8360   23.3370 O   0  0  0  0  0  0  0  0  0  0  0  0
  -20.9000  -29.8580   21.7380 H   0  0  0  0  0  0  0  0  0  0  0  0
  -18.0240  -28.0940   22.9260 C   0  0  0  0  0  0  0  0  0  0  0  0
  -20.5850  -28.3420   23.1780 C   0  0  0  0  0  3  0  0  0  0  0  0
  -20.6770  -26.9190   22.5820 C   0  0  0  0  0  2  0  0  0  0  0  0
  -19.5660  -26.6130   21.5720 C   0  0  0  0  0  2  0  0  0  0  0  0
  -18.1900  -26.7530   22.2320 C   0  0  0  0  0  2  0  0  0  0  0  0
  -19.1490  -28.8470   23.3580 C   0  0  0  0  0  0  0  0  0  0  0  0
  -18.9380  -30.1030   23.9690 C   0  0  0  0  0  3  0  0  0  0  0  0
  -17.6360  -30.6060   24.1520 C   0  0  0  0  0  3  0  0  0  0  0  0
  -16.5270  -29.8490   23.7380 C   0  0  0  0  0  3  0  0  0  0  0  0
  -16.7220  -28.5950   23.1320 C   0  0  0  0  0  3  0  0  0  0  0  0
  -25.8430  -32.5370   23.8620 C   0  0  0  0  0  3  0  0  0  0  0  0
  -25.5340  -33.9390   24.1760 N   0  0  0  0  0  0  0  0  0  0  0  0
  -25.8850  -34.9840   23.4130 C   0  0  0  0  0  0  0  0  0  0  0  0
  -26.5730  -34.8690   22.3960 O   0  0  0  0  0  0  0  0  0  0  0  0
  -24.9290  -34.1030   24.9670 H   0  0  0  0  0  0  0  0  0  0  0  0
  -24.1820  -36.7830   22.9960 C   0  0  0  0  0  1  0  0  0  0  0  0
  -25.3930  -36.3780   23.8510 C   0  0  0  0  0  3  0  0  0  0  0  0
  -27.5060  -37.2460   24.7510 C   0  0  0  0  0  1  0  0  0  0  0  0
  -26.4390  -37.4230   23.7700 N   0  0  0  0  0  0  0  0  0  0  0  0
  -26.0340  -38.3470   23.9030 H   0  0  0  0  0  0  0  0  0  0  0  0
  -26.3510  -31.7760   25.1480 C   0  0  1  0  0  0  0  0  0  0  0  0
  -25.2520  -31.5440   26.2090 C   0  0  0  0  0  1  0  0  0  0  0  0
  -26.9400  -30.3980   24.7700 C   0  0  0  0  0  1  0  0  0  0  0  0
  -27.4940  -32.5780   25.8140 C   0  0  0  0  0  1  0  0  0  0  0  0
  1  3  2  0
  2  5  1  0
  2  1  1  0
  4  2  1  0
  5  9  1  0
  7  6  2  0
  8  6  1  0
  9  7  1  0
 10  8  2  0
 11  9  2  0
 11 10  1  0
 12 20  1  0
 13 18  1  0
 14 15  1  0
 14 13  1  0
 16 15  1  0
 16 25  1  0
 16 17  1  0
 18 12  1  0
 18 17  1  0
 19 12  2  0
 20 10  1  0
 20 21  1  0
 22 23  2  0
 23 42  1  0
 24 23  1  0
 24 27  1  0
 25 26  1  0
 25 22  1  0
 26 24  2  0
 27 28  1  0
 28 29  2  0
 30 33  1  0
 30 29  1  0
 31 30  2  0
 32 31  1  0
 32 27  2  0
 33 34  1  0
 34 35  1  0
 35 36  2  0
 37 36  1  0
 37 41  1  0
 38 37  2  0
 39 34  2  0
 39 38  1  0
 40 39  1  0
 42 43  1  0
 43 46  1  0
 43 45  1  0
 44 42  2  0
 47 48  1  0
 47 22  1  0
 49 47  1  0
 50 11  1  0
 51 50  1  0
 52 50  1  0
 53 56  1  0
 53  1  1  0
 56 55  1  6
 56 54  1  0
 57 56  1  0
 58 69  2  0
 59 57  1  0
 59 64  1  0
 60 68  1  0
 60 70  1  0
 61 67  1  0
 61 63  1  0
 62 68  1  0
 63 62  1  0
 64 63  2  0
 65 66  1  0
 65 59  2  0
 66 61  2  0
 67 60  1  0
 68 58  1  0
 70 72  2  0
 71 70  1  0
 73 71  1  0
 74 83  2  0
 74 79  1  0
 75 71  1  0
 75 79  1  0
 76 75  1  0
 77 78  1  0
 77 76  1  0
 78 74  1  0
 79 80  2  0
 80 81  1  0
 82 81  2  0
 83 82  1  0
 84 58  1  0
 84 85  1  0
 84 94  1  0
 85 88  1  0
 86 90  1  0
 86 85  1  0
 87 86  2  0
 90 89  1  0
 92 90  1  0
 92 93  1  0
 92 91  1  0
 94 97  1  1
 94 95  1  0
 96 94  1  0
M  ISO  4  12 100  20 100  56 101  57 101
M  END
>  <TORSDO>  (70) 
F 21

>  <SCORE>  (70) 
-14.139

>  <name>  (70) 
70

>  <ligand_id>  (70) 
70

>  <original_smiles>  (70) 
[H]c1c([H])c(N([H])C(=O)N2C([H])([H])C([H])([H])C([H])([H])C([H])(n3nc(-c4c([H])c([H])c(Oc5c([H])c([H])c(F)c([H])c5F)c([H])c4[H])c(C(=O)N([H])[H])c3N([H])[H])C2([H])[H])c(N([H])[H])c(C([H])([H])N([H])C(=O)C([H])([H])C(Oc2c([H])c([H])c3c(c2[H])C([H])([H])N(C(=O)C([H])(N([H])C(=O)C([H])(N([H])C([H])([H])[H])C([H])([H])[H])C(C([H])([H])[H])(C([H])([H])[H])C([H])([H])[H])C([H])(C(=O)N([H])C2([H])c4c([H])c([H])c([H])c([H])c4C([H])([H])C([H])([H])C2([H])[H])C3([H])[H])(C([H])([H])[H])C([H])([H])[H])c1[H]

>  <smiles>  (70) 
[H]c1c([H])c(N([H])C(=O)N2C([H])([H])C([H])([H])C([H])([H])C([H])(n3nc(-c4c([H])c([H])c(Oc5c([H])c([H])c(F)c([H])c5F)c([H])c4[H])c(C(=O)N([H])[H])c3N([H])[H])C2([H])[H])c(N([H])[H])c(C([H])([H])N([H])C(=O)C([H])([H])C(Oc2c([H])c([H])c3c(c2[H])C([H])([H])N(C(=O)C([H])(N([H])C(=O)C([H])(N([H])C([H])([H])[H])C([H])([H])[H])C(C([H])([H])[H])(C([H])([H])[H])C([H])([H])[H])C([H])(C(=O)N([H])C2([H])c4c([H])c([H])c([H])c([H])c4C([H])([H])C([H])([H])C2([H])[H])C3([H])[H])(C([H])([H])[H])C([H])([H])[H])c1[H]

$$$$
71:0:0
     RDKit          3D

 99107  0  0  1  0  0  0  0  0999 V2000
  -31.1100  -21.7300   18.8490 C   0  0  0  0  0  1  0  0  0  0  0  0
  -29.7600  -21.1940   19.3690 C   0  0  0  0  0  3  0  0  0  0  0  0
  -31.0700  -19.1210   20.2240 C   0  0  0  0  0  3  0  0  0  0  0  0
  -31.1710  -17.7500   20.5660 C   0  0  0  0  0  3  0  0  0  0  0  0
  -29.8250  -19.7330   19.9040 C   0  0  0  0  0  0  0  0  0  0  0  0
  -30.0170  -16.9350   20.6010 C   0  0  0  0  0  0  0  0  0  0  0  0
  -28.6650  -18.9180   19.9960 C   0  0  0  0  0  0  0  0  0  0  0  0
  -28.7720  -17.5450   20.3400 C   0  0  0  0  0  0  0  0  0  0  0  0
  -27.6530  -16.7860   20.3920 F   0  0  0  0  0  0  0  0  0  0  0  0
  -30.7350  -14.5500   20.3500 C   0  0  0  0  0  0  0  0  0  0  0  0
  -30.4320  -12.4010   19.1710 C   0  0  0  0  0  2  0  0  0  0  0  0
  -29.4520  -12.6240   18.0010 C   0  0  0  0  0  2  0  0  0  0  0  0
  -27.9900  -12.4810   18.4700 C   0  0  0  0  0  2  0  0  0  0  0  0
  -27.6890  -13.2780   19.7670 C   0  0  0  0  0  3  0  0  0  0  0  0
  -28.7800  -13.0300   20.8340 C   0  0  0  0  0  2  0  0  0  0  0  0
  -30.0840  -13.3570   20.2350 N   0  0  0  0  0  0  0  0  0  0  0  0
  -31.8530  -14.7480   19.8690 O   0  0  0  0  0  0  0  0  0  0  0  0
  -30.0120  -15.5360   20.9170 N   0  0  0  0  0  0  0  0  0  0  0  0
  -29.1290  -15.2130   21.2820 H   0  0  0  0  0  0  0  0  0  0  0  0
  -25.3050  -13.8520   20.5490 C   0  0  0  0  0  0  0  0  0  0  0  0
  -24.2500  -13.0660   20.9230 C   0  0  0  0  0  0  0  0  0  0  0  0
  -24.7170  -11.7190   20.8510 C   0  0  0  0  0  0  0  0  0  0  0  0
  -26.3500  -12.9840   20.2750 N   0  0  0  0  0  0  0  0  0  0  0  0
  -26.0000  -11.6930   20.5110 N   0  0  0  0  0  0  0  0  0  0  0  0
  -23.9980  -10.4510   21.0300 C   0  0  0  0  0  0  0  0  0  0  0  0
  -24.4150   -9.4950   21.9810 C   0  0  0  0  0  3  0  0  0  0  0  0
  -23.6950   -8.2920   22.1450 C   0  0  0  0  0  3  0  0  0  0  0  0
  -22.5460   -8.0390   21.3600 C   0  0  0  0  0  0  0  0  0  0  0  0
  -22.1490   -8.9860   20.4000 C   0  0  0  0  0  3  0  0  0  0  0  0
  -22.8680  -10.1810   20.2340 C   0  0  0  0  0  3  0  0  0  0  0  0
  -21.8010   -6.8860   21.4340 O   0  0  0  0  0  0  0  0  0  0  0  0
  -21.6830   -6.1800   22.6050 C   0  0  0  0  0  0  0  0  0  0  0  0
  -21.0870   -6.7420   23.7550 C   0  0  0  0  0  3  0  0  0  0  0  0
  -20.9220   -5.9590   24.9160 C   0  0  0  0  0  3  0  0  0  0  0  0
  -21.3410   -4.6140   24.9240 C   0  0  0  0  0  0  0  0  0  0  0  0
  -21.9290   -4.0520   23.7780 C   0  0  0  0  0  3  0  0  0  0  0  0
  -22.0970   -4.8330   22.6200 C   0  0  0  0  0  0  0  0  0  0  0  0
  -22.6440   -4.2810   21.5110 F   0  0  0  0  0  0  0  0  0  0  0  0
  -21.1760   -3.8600   26.0350 F   0  0  0  0  0  0  0  0  0  0  0  0
  -22.8610  -13.5350   21.2460 C   0  0  0  0  0  0  0  0  0  0  0  0
  -22.1550  -12.8080   22.1040 N   0  0  0  0  0  0  0  0  0  0  0  0
  -22.4120  -14.5820   20.7790 O   0  0  0  0  0  0  0  0  0  0  0  0
  -22.5290  -11.9600   22.5020 H   0  0  0  0  0  0  0  0  0  0  0  0
  -21.2250  -13.1010   22.3660 H   0  0  0  0  0  0  0  0  0  0  0  0
  -25.4450  -15.2260   20.4050 N   0  0  0  0  0  0  0  0  0  0  0  0
  -24.6820  -15.8570   20.6160 H   0  0  0  0  0  0  0  0  0  0  0  0
  -26.3180  -15.7170   20.2290 H   0  0  0  0  0  0  0  0  0  0  0  0
  -27.3890  -19.4250   19.7290 N   0  0  0  0  0  0  0  0  0  0  0  0
  -27.2900  -20.2830   19.2030 H   0  0  0  0  0  0  0  0  0  0  0  0
  -26.6410  -18.7570   19.5780 H   0  0  0  0  0  0  0  0  0  0  0  0
  -28.5900  -23.3660   19.8950 C   0  0  0  0  0  0  0  0  0  0  0  0
  -29.1420  -22.1870   20.2730 N   0  0  0  0  0  0  0  0  0  0  0  0
  -28.5200  -23.7070   18.7120 O   0  0  0  0  0  0  0  0  0  0  0  0
  -29.1250  -21.9470   21.2540 H   0  0  0  0  0  0  0  0  0  0  0  0
  -27.9930  -24.2930   20.9790 C   0  0  0  0  0  2  0  0  0  0  0  0
  -28.2190  -26.1780   22.6540 C   0  0  0  0  0  1  0  0  0  0  0  0
  -30.2310  -25.5000   21.3590 C   0  0  0  0  0  1  0  0  0  0  0  0
  -28.7020  -25.6690   21.2720 C   0  0  1  0  0  0  0  0  0  0  0  0
  -28.5300  -26.6980   20.2590 O   0  0  0  0  0  0  0  0  0  0  0  0
  -24.5410  -31.8750   23.1430 C   0  0  0  0  0  0  0  0  0  0  0  0
  -27.3560  -27.4260   20.2250 C   0  0  0  0  0  0  0  0  0  0  0  0
  -23.4130  -30.4320   21.4820 C   0  0  0  0  0  3  0  0  0  0  0  0
  -24.9400  -28.8970   20.1260 C   0  0  0  0  0  0  0  0  0  0  0  0
  -25.9370  -30.8290   21.3620 C   0  0  0  0  0  2  0  0  0  0  0  0
  -26.0680  -29.4490   20.7450 C   0  0  0  0  0  0  0  0  0  0  0  0
  -27.2810  -28.7240   20.7860 C   0  0  0  0  0  3  0  0  0  0  0  0
  -26.2170  -26.8910   19.5910 C   0  0  0  0  0  3  0  0  0  0  0  0
  -25.0080  -27.6160   19.5470 C   0  0  0  0  0  3  0  0  0  0  0  0
  -23.6810  -29.7380   20.1190 C   0  0  0  0  0  2  0  0  0  0  0  0
  -24.6460  -31.0600   22.0540 N   0  0  0  0  0  0  0  0  0  0  0  0
  -23.4390  -32.1370   23.6440 O   0  0  0  0  0  0  0  0  0  0  0  0
  -22.7460  -29.4130   22.4330 C   0  0  0  0  0  0  0  0  0  0  0  0
  -21.4230  -29.2360   22.2870 N   0  0  0  0  0  0  0  0  0  0  0  0
  -23.4140  -28.7840   23.2560 O   0  0  0  0  0  0  0  0  0  0  0  0
  -20.9470  -29.7850   21.5850 H   0  0  0  0  0  0  0  0  0  0  0  0
  -18.0240  -28.1150   22.7890 C   0  0  0  0  0  0  0  0  0  0  0  0
  -20.5890  -28.3050   23.0460 C   0  0  0  0  0  3  0  0  0  0  0  0
  -20.6530  -26.8850   22.4380 C   0  0  0  0  0  2  0  0  0  0  0  0
  -19.5360  -26.6130   21.4270 C   0  0  0  0  0  2  0  0  0  0  0  0
  -18.1630  -26.7770   22.0860 C   0  0  0  0  0  2  0  0  0  0  0  0
  -19.1640  -28.8410   23.2270 C   0  0  0  0  0  0  0  0  0  0  0  0
  -18.9810  -30.0970   23.8440 C   0  0  0  0  0  3  0  0  0  0  0  0
  -17.6900  -30.6250   24.0350 C   0  0  0  0  0  3  0  0  0  0  0  0
  -16.5640  -29.8950   23.6160 C   0  0  0  0  0  3  0  0  0  0  0  0
  -16.7320  -28.6430   22.9970 C   0  0  0  0  0  3  0  0  0  0  0  0
  -25.7980  -32.5330   23.7960 C   0  0  0  0  0  3  0  0  0  0  0  0
  -25.4440  -33.9180   24.1330 N   0  0  0  0  0  0  0  0  0  0  0  0
  -25.7530  -34.9850   23.3850 C   0  0  0  0  0  0  0  0  0  0  0  0
  -26.4400  -34.9100   22.3600 O   0  0  0  0  0  0  0  0  0  0  0  0
  -24.8330  -34.0490   24.9250 H   0  0  0  0  0  0  0  0  0  0  0  0
  -23.9920  -36.7390   23.0010 C   0  0  0  0  0  1  0  0  0  0  0  0
  -25.2190  -36.3540   23.8440 C   0  0  0  0  0  3  0  0  0  0  0  0
  -27.2930  -37.2910   24.7640 C   0  0  0  0  0  1  0  0  0  0  0  0
  -26.2270  -37.4350   23.7760 N   0  0  0  0  0  0  0  0  0  0  0  0
  -25.7910  -38.3420   23.9120 H   0  0  0  0  0  0  0  0  0  0  0  0
  -26.3100  -31.7600   25.0730 C   0  0  1  0  0  0  0  0  0  0  0  0
  -25.2010  -31.4700   26.1120 C   0  0  0  0  0  1  0  0  0  0  0  0
  -26.9480  -30.4080   24.6750 C   0  0  0  0  0  1  0  0  0  0  0  0
  -27.4170  -32.5820   25.7740 C   0  0  0  0  0  1  0  0  0  0  0  0
  2  1  1  0
  2  5  1  0
  2 52  1  0
  3  4  1  0
  4  6  2  0
  5  7  1  0
  5  3  2  0
  6 18  1  0
  7  8  2  0
  8  9  1  0
  8  6  1  0
 10 18  1  0
 11 16  1  0
 12 13  1  0
 12 11  1  0
 14 13  1  0
 14 23  1  0
 14 15  1  0
 16 10  1  0
 16 15  1  0
 17 10  2  0
 18 19  1  0
 20 21  2  0
 21 40  1  0
 22 21  1  0
 22 25  1  0
 23 24  1  0
 23 20  1  0
 24 22  2  0
 25 26  1  0
 26 27  2  0
 28 31  1  0
 28 27  1  0
 29 28  2  0
 30 29  1  0
 30 25  2  0
 31 32  1  0
 32 37  2  0
 32 33  1  0
 33 34  2  0
 34 35  1  0
 35 39  1  0
 36 35  2  0
 37 36  1  0
 38 37  1  0
 40 41  1  0
 41 44  1  0
 41 43  1  0
 42 40  2  0
 45 20  1  0
 45 46  1  0
 47 45  1  0
 48  7  1  0
 49 48  1  0
 50 48  1  0
 51 52  1  0
 51 55  1  0
 52 54  1  0
 53 51  2  0
 55 58  1  0
 58 57  1  1
 58 56  1  0
 59 58  1  0
 60 71  2  0
 61 59  1  0
 61 66  1  0
 62 70  1  0
 62 72  1  0
 63 65  1  0
 64 70  1  0
 65 66  2  0
 65 64  1  0
 67 61  2  0
 68 67  1  0
 68 63  2  0
 69 63  1  0
 69 62  1  0
 70 60  1  0
 72 74  2  0
 73 72  1  0
 75 73  1  0
 76 85  2  0
 76 81  1  0
 77 73  1  0
 77 81  1  0
 78 77  1  0
 79 80  1  0
 79 78  1  0
 80 76  1  0
 81 82  2  0
 82 83  1  0
 84 83  2  0
 85 84  1  0
 86 60  1  0
 86 87  1  0
 86 96  1  0
 87 90  1  0
 88 92  1  0
 88 87  1  0
 89 88  2  0
 92 91  1  0
 94 92  1  0
 94 95  1  0
 94 93  1  0
 96 99  1  1
 96 97  1  0
 98 96  1  0
M  ISO  4  10 100  18 100  58 101  59 101
M  END
>  <TORSDO>  (71) 
F 21

>  <SCORE>  (71) 
-14.348

>  <name>  (71) 
71

>  <ligand_id>  (71) 
71

>  <original_smiles>  (71) 
[H]c1c([H])c([H])c2c(c1[H])C([H])([H])C([H])([H])C([H])([H])C2([H])N([H])C(=O)C1([H])N(C(=O)C([H])(N([H])C(=O)C([H])(N([H])C([H])([H])[H])C([H])([H])[H])C(C([H])([H])[H])(C([H])([H])[H])C([H])([H])[H])C([H])([H])c2c([H])c(OC(C([H])([H])[H])(C([H])([H])[H])C([H])([H])C(=O)N([H])C([H])(c3c([H])c([H])c(N([H])C(=O)N4C([H])([H])C([H])([H])C([H])([H])C([H])(n5nc(-c6c([H])c([H])c(Oc7c([H])c([H])c(F)c([H])c7F)c([H])c6[H])c(C(=O)N([H])[H])c5N([H])[H])C4([H])[H])c(F)c3N([H])[H])C([H])([H])[H])c([H])c([H])c2C1([H])[H]

>  <smiles>  (71) 
[H]c1c([H])c([H])c2c(c1[H])C([H])([H])C([H])([H])C([H])([H])C2([H])N([H])C(=O)C1([H])N(C(=O)C([H])(N([H])C(=O)C([H])(N([H])C([H])([H])[H])C([H])([H])[H])C(C([H])([H])[H])(C([H])([H])[H])C([H])([H])[H])C([H])([H])c2c([H])c(OC(C([H])([H])[H])(C([H])([H])[H])C([H])([H])C(=O)N([H])C([H])(c3c([H])c([H])c(N([H])C(=O)N4C([H])([H])C([H])([H])C([H])([H])C([H])(n5nc(-c6c([H])c([H])c(Oc7c([H])c([H])c(F)c([H])c7F)c([H])c6[H])c(C(=O)N([H])[H])c5N([H])[H])C4([H])[H])c(F)c3N([H])[H])C([H])([H])[H])c([H])c([H])c2C1([H])[H]

$$$$
72:0:0
     RDKit          3D

100108  0  0  1  0  0  0  0  0999 V2000
  -30.3190  -17.6310   21.6810 C   0  0  0  0  0  3  0  0  0  0  0  0
  -30.7070  -17.0180   19.3640 C   0  0  0  0  0  3  0  0  0  0  0  0
  -30.2700  -18.9970   21.3300 C   0  0  0  0  0  0  0  0  0  0  0  0
  -30.5580  -16.6310   20.7180 C   0  0  0  0  0  0  0  0  0  0  0  0
  -30.4030  -19.3860   19.9700 C   0  0  0  0  0  0  0  0  0  0  0  0
  -30.6190  -18.3770   18.9930 C   0  0  0  0  0  0  0  0  0  0  0  0
  -30.7730  -18.7050   17.6860 F   0  0  0  0  0  0  0  0  0  0  0  0
  -31.2940  -14.2270   20.7830 C   0  0  0  0  0  0  0  0  0  0  0  0
  -31.2300  -11.7780   20.4510 C   0  0  0  0  0  2  0  0  0  0  0  0
  -30.4650  -11.4520   19.1530 C   0  0  0  0  0  2  0  0  0  0  0  0
  -28.9480  -11.3730   19.4100 C   0  0  0  0  0  2  0  0  0  0  0  0
  -28.4140  -12.5950   20.2020 C   0  0  0  0  0  3  0  0  0  0  0  0
  -29.2910  -12.8500   21.4480 C   0  0  0  0  0  2  0  0  0  0  0  0
  -30.6880  -13.0280   21.0030 N   0  0  0  0  0  0  0  0  0  0  0  0
  -32.4160  -14.3350   20.2770 O   0  0  0  0  0  0  0  0  0  0  0  0
  -30.5680  -15.2840   21.1830 N   0  0  0  0  0  0  0  0  0  0  0  0
  -29.7900  -15.0330   21.7730 H   0  0  0  0  0  0  0  0  0  0  0  0
  -26.0050  -13.3830   20.6710 C   0  0  0  0  0  0  0  0  0  0  0  0
  -24.8590  -12.6920   20.9630 C   0  0  0  0  0  0  0  0  0  0  0  0
  -25.2290  -11.3140   21.0070 C   0  0  0  0  0  0  0  0  0  0  0  0
  -27.0060  -12.4280   20.5590 N   0  0  0  0  0  0  0  0  0  0  0  0
  -26.5350  -11.1810   20.8150 N   0  0  0  0  0  0  0  0  0  0  0  0
  -24.4070  -10.1070   21.1620 C   0  0  0  0  0  0  0  0  0  0  0  0
  -24.6910   -9.1440   22.1570 C   0  0  0  0  0  3  0  0  0  0  0  0
  -23.8750   -8.0000   22.2970 C   0  0  0  0  0  3  0  0  0  0  0  0
  -22.7620   -7.8130   21.4450 C   0  0  0  0  0  0  0  0  0  0  0  0
  -22.4980   -8.7630   20.4430 C   0  0  0  0  0  3  0  0  0  0  0  0
  -23.3140   -9.8980   20.2990 C   0  0  0  0  0  3  0  0  0  0  0  0
  -21.9300   -6.7190   21.4910 O   0  0  0  0  0  0  0  0  0  0  0  0
  -21.7430   -6.0080   22.6490 C   0  0  0  0  0  0  0  0  0  0  0  0
  -21.2080   -6.6030   23.8120 C   0  0  0  0  0  3  0  0  0  0  0  0
  -20.9680   -5.8180   24.9580 C   0  0  0  0  0  3  0  0  0  0  0  0
  -21.2510   -4.4390   24.9400 C   0  0  0  0  0  0  0  0  0  0  0  0
  -21.7790   -3.8440   23.7810 C   0  0  0  0  0  3  0  0  0  0  0  0
  -22.0210   -4.6260   22.6370 C   0  0  0  0  0  0  0  0  0  0  0  0
  -22.5100   -4.0430   21.5170 F   0  0  0  0  0  0  0  0  0  0  0  0
  -21.0130   -3.6830   26.0380 F   0  0  0  0  0  0  0  0  0  0  0  0
  -23.4790  -13.2660   21.1020 C   0  0  0  0  0  0  0  0  0  0  0  0
  -22.6370  -12.6450   21.9200 N   0  0  0  0  0  0  0  0  0  0  0  0
  -23.1540  -14.3020   20.5210 O   0  0  0  0  0  0  0  0  0  0  0  0
  -22.9070  -11.8060   22.4100 H   0  0  0  0  0  0  0  0  0  0  0  0
  -21.7070  -13.0140   22.0580 H   0  0  0  0  0  0  0  0  0  0  0  0
  -26.2790  -14.7340   20.4780 N   0  0  0  0  0  0  0  0  0  0  0  0
  -25.5550  -15.4440   20.4970 H   0  0  0  0  0  0  0  0  0  0  0  0
  -27.1910  -15.1030   20.2390 H   0  0  0  0  0  0  0  0  0  0  0  0
  -30.3540  -20.7510   19.6320 N   0  0  0  0  0  0  0  0  0  0  0  0
  -30.9330  -21.4070   20.1410 H   0  0  0  0  0  0  0  0  0  0  0  0
  -29.3220  -21.3100   18.7390 C   0  0  0  0  0  2  0  0  0  0  0  0
  -28.6340  -22.5570   19.3120 C   0  0  0  0  0  3  0  0  0  0  0  0
  -28.3790  -22.5620   20.5570 N   0  0  0  0  0  2  0  0  0  0  0  0
  -28.6780  -21.6760   20.9450 H   0  0  0  0  0  0  0  0  0  0  0  0
  -28.3050  -23.6870   18.3360 C   0  0  0  0  0  0  0  0  0  0  0  0
  -28.3710  -23.5650   17.1060 O   0  0  0  0  0  0  0  0  0  0  0  0
  -27.8650  -25.0170   18.9770 C   0  0  0  0  0  2  0  0  0  0  0  0
  -27.7290  -26.0800   18.0180 O   0  0  0  0  0  0  0  0  0  0  0  0
  -25.3760  -30.5460   23.0300 C   0  0  0  0  0  0  0  0  0  0  0  0
  -26.7760  -26.9940   18.3940 C   0  0  0  0  0  0  0  0  0  0  0  0
  -23.7810  -30.0140   21.2160 C   0  0  0  0  0  3  0  0  0  0  0  0
  -24.7660  -28.8080   19.1920 C   0  0  0  0  0  0  0  0  0  0  0  0
  -26.3020  -29.9650   20.7920 C   0  0  0  0  0  2  0  0  0  0  0  0
  -26.0480  -28.8950   19.7490 C   0  0  0  0  0  0  0  0  0  0  0  0
  -27.0610  -27.9950   19.3480 C   0  0  0  0  0  3  0  0  0  0  0  0
  -25.4850  -26.9250   17.8320 C   0  0  0  0  0  3  0  0  0  0  0  0
  -24.4780  -27.8240   18.2300 C   0  0  0  0  0  3  0  0  0  0  0  0
  -23.7390  -29.8070   19.6760 C   0  0  0  0  0  2  0  0  0  0  0  0
  -25.1780  -30.1640   21.7370 N   0  0  0  0  0  0  0  0  0  0  0  0
  -24.4220  -30.8120   23.7740 O   0  0  0  0  0  0  0  0  0  0  0  0
  -22.9960  -28.8650   21.8910 C   0  0  0  0  0  0  0  0  0  0  0  0
  -21.6570  -28.9570   21.8590 N   0  0  0  0  0  0  0  0  0  0  0  0
  -23.5870  -27.9100   22.4010 O   0  0  0  0  0  0  0  0  0  0  0  0
  -21.2510  -29.7790   21.4370 H   0  0  0  0  0  0  0  0  0  0  0  0
  -18.1430  -28.2350   22.2950 C   0  0  0  0  0  0  0  0  0  0  0  0
  -20.7130  -27.9770   22.3940 C   0  0  0  0  0  3  0  0  0  0  0  0
  -20.5300  -26.7910   21.4180 C   0  0  0  0  0  2  0  0  0  0  0  0
  -19.3480  -26.9750   20.4600 C   0  0  0  0  0  2  0  0  0  0  0  0
  -18.0430  -27.1410   21.2430 C   0  0  0  0  0  2  0  0  0  0  0  0
  -19.3980  -28.6380   22.8240 C   0  0  0  0  0  0  0  0  0  0  0  0
  -19.4390  -29.6810   23.7730 C   0  0  0  0  0  3  0  0  0  0  0  0
  -18.2570  -30.3170   24.1970 C   0  0  0  0  0  3  0  0  0  0  0  0
  -17.0150  -29.9030   23.6840 C   0  0  0  0  0  3  0  0  0  0  0  0
  -16.9600  -28.8610   22.7400 C   0  0  0  0  0  3  0  0  0  0  0  0
  -26.8120  -30.6890   23.6300 C   0  0  0  0  0  3  0  0  0  0  0  0
  -26.8060  -31.8570   24.5190 N   0  0  0  0  0  0  0  0  0  0  0  0
  -27.3480  -33.0450   24.2170 C   0  0  0  0  0  0  0  0  0  0  0  0
  -27.9740  -33.2470   23.1730 O   0  0  0  0  0  0  0  0  0  0  0  0
  -26.2670  -31.7750   25.3690 H   0  0  0  0  0  0  0  0  0  0  0  0
  -26.0600  -35.1380   24.7450 C   0  0  0  0  0  1  0  0  0  0  0  0
  -27.1650  -34.1880   25.2320 C   0  0  0  0  0  3  0  0  0  0  0  0
  -29.4190  -34.1930   26.2100 C   0  0  0  0  0  1  0  0  0  0  0  0
  -28.4040  -34.9550   25.4870 N   0  0  0  0  0  0  0  0  0  0  0  0
  -28.2030  -35.7980   26.0180 H   0  0  0  0  0  0  0  0  0  0  0  0
  -27.2960  -29.4010   24.4040 C   0  0  1  0  0  0  0  0  0  0  0  0
  -26.2910  -28.9000   25.4670 C   0  0  0  0  0  1  0  0  0  0  0  0
  -27.5560  -28.2410   23.4150 C   0  0  0  0  0  1  0  0  0  0  0  0
  -28.6370  -29.6900   25.1180 C   0  0  0  0  0  1  0  0  0  0  0  0
  -30.0620  -20.0090   22.4590 C   0  0  0  0  0  2  0  0  0  0  0  0
  -31.5960  -21.0730   24.1660 C   0  0  0  0  0  1  0  0  0  0  0  0
  -32.5000  -20.6940   21.8650 C   0  0  0  0  0  1  0  0  0  0  0  0
  -30.7540  -22.4350   22.2460 C   0  0  0  0  0  1  0  0  0  0  0  0
  -31.2240  -21.0310   22.6710 C   0  0  1  0  0  0  0  0  0  0  0  0
  2  4  1  0
  3  1  1  0
  3 96  1  0
  4 16  1  0
  4  1  2  0
  5  3  2  0
  6  2  2  0
  6  5  1  0
  7  6  1  0
  8 14  1  0
  8 16  1  0
  9 14  1  0
 10 11  1  0
 10  9  1  0
 12 11  1  0
 12 21  1  0
 12 13  1  0
 14 13  1  0
 15  8  2  0
 16 17  1  0
 18 19  2  0
 19 20  1  0
 19 38  1  0
 20 23  1  0
 21 18  1  0
 21 22  1  0
 22 20  2  0
 23 24  1  0
 24 25  2  0
 26 29  1  0
 26 25  1  0
 27 26  2  0
 28 27  1  0
 28 23  2  0
 29 30  1  0
 30 31  1  0
 31 32  2  0
 33 32  1  0
 33 37  1  0
 34 33  2  0
 35 30  2  0
 35 34  1  0
 36 35  1  0
 38 39  1  0
 39 42  1  0
 39 41  1  0
 40 38  2  0
 43 44  1  0
 43 18  1  0
 45 43  1  0
 46  5  1  0
 46 47  1  0
 48 46  1  0
 49 48  1  0
 49 50  1  0
 50 51  1  0
 52 54  1  0
 52 49  1  0
 53 52  2  0
 55 57  1  0
 55 54  1  0
 56 67  2  0
 57 62  1  0
 58 66  1  0
 58 68  1  0
 59 65  1  0
 59 61  1  0
 60 66  1  0
 61 60  1  0
 62 61  2  0
 63 64  1  0
 63 57  2  0
 64 59  2  0
 65 58  1  0
 66 56  1  0
 68 70  2  0
 69 68  1  0
 71 69  1  0
 72 81  2  0
 72 77  1  0
 73 69  1  0
 73 77  1  0
 74 73  1  0
 75 76  1  0
 75 74  1  0
 76 72  1  0
 77 78  2  0
 78 79  1  0
 80 79  2  0
 81 80  1  0
 82 56  1  0
 82 92  1  0
 82 83  1  0
 83 86  1  0
 84 83  1  0
 84 88  1  0
 85 84  2  0
 88 87  1  0
 88 90  1  0
 90 91  1  0
 90 89  1  0
 92 95  1  1
 92 93  1  0
 94 92  1  0
 96100  1  0
100 98  1  6
 99100  1  0
100 97  1  0
M  ISO  4   8 100  16 100  54 101  55 101
M  END
>  <TORSDO>  (72) 
F 23

>  <SCORE>  (72) 
-10.480

>  <name>  (72) 
72

>  <ligand_id>  (72) 
72

>  <original_smiles>  (72) 
[H]N=C(C(=O)C([H])([H])Oc1c([H])c([H])c2c(c1[H])C([H])([H])N(C(=O)C([H])(N([H])C(=O)C([H])(N([H])C([H])([H])[H])C([H])([H])[H])C(C([H])([H])[H])(C([H])([H])[H])C([H])([H])[H])C([H])(C(=O)N([H])C1([H])c3c([H])c([H])c([H])c([H])c3C([H])([H])C([H])([H])C1([H])[H])C2([H])[H])C([H])([H])N([H])c1c(F)c([H])c(N([H])C(=O)N2C([H])([H])C([H])([H])C([H])([H])C([H])(n3nc(-c4c([H])c([H])c(Oc5c([H])c([H])c(F)c([H])c5F)c([H])c4[H])c(C(=O)N([H])[H])c3N([H])[H])C2([H])[H])c([H])c1C([H])([H])C(C([H])([H])[H])(C([H])([H])[H])C([H])([H])[H]

>  <smiles>  (72) 
[H]N=C(C(=O)C([H])([H])Oc1c([H])c([H])c2c(c1[H])C([H])([H])N(C(=O)C([H])(N([H])C(=O)C([H])(N([H])C([H])([H])[H])C([H])([H])[H])C(C([H])([H])[H])(C([H])([H])[H])C([H])([H])[H])C([H])(C(=O)N([H])C1([H])c3c([H])c([H])c([H])c([H])c3C([H])([H])C([H])([H])C1([H])[H])C2([H])[H])C([H])([H])N([H])c1c(F)c([H])c(N([H])C(=O)N2C([H])([H])C([H])([H])C([H])([H])C([H])(n3nc(-c4c([H])c([H])c(Oc5c([H])c([H])c(F)c([H])c5F)c([H])c4[H])c(C(=O)N([H])[H])c3N([H])[H])C2([H])[H])c([H])c1C([H])([H])C(C([H])([H])[H])(C([H])([H])[H])C([H])([H])[H]

$$$$
73:0:0
     RDKit          3D

101109  0  0  1  0  0  0  0  0999 V2000
  -31.4980  -17.4580   20.1070 C   0  0  0  0  0  3  0  0  0  0  0  0
  -31.5820  -18.8690   20.2940 C   0  0  0  0  0  0  0  0  0  0  0  0
  -30.5410  -16.8370   20.8840 C   0  0  0  0  0  0  0  0  0  0  0  0
  -30.6610  -19.3560   21.1940 C   0  0  0  0  0  0  0  0  0  0  0  0
  -29.6620  -18.0490   21.8000 S   0  0  0  0  0  0  0  0  0  0  0  0
  -30.8790  -14.4750   20.4260 C   0  0  0  0  0  0  0  0  0  0  0  0
  -30.5530  -12.2960   19.3380 C   0  0  0  0  0  2  0  0  0  0  0  0
  -29.6320  -12.4890   18.1170 C   0  0  0  0  0  2  0  0  0  0  0  0
  -28.1530  -12.3740   18.5340 C   0  0  0  0  0  2  0  0  0  0  0  0
  -27.8080  -13.2440   19.7740 C   0  0  0  0  0  3  0  0  0  0  0  0
  -28.8500  -13.0480   20.8980 C   0  0  0  0  0  2  0  0  0  0  0  0
  -30.1850  -13.3100   20.3370 N   0  0  0  0  0  0  0  0  0  0  0  0
  -32.0050  -14.6090   19.9400 O   0  0  0  0  0  0  0  0  0  0  0  0
  -30.2190  -15.5130   20.9760 N   0  0  0  0  0  0  0  0  0  0  0  0
  -29.3450  -15.2880   21.4270 H   0  0  0  0  0  0  0  0  0  0  0  0
  -25.4120  -13.8790   20.4680 C   0  0  0  0  0  0  0  0  0  0  0  0
  -24.3320  -13.1180   20.8270 C   0  0  0  0  0  0  0  0  0  0  0  0
  -24.7760  -11.7600   20.7900 C   0  0  0  0  0  0  0  0  0  0  0  0
  -26.4470  -12.9860   20.2410 N   0  0  0  0  0  0  0  0  0  0  0  0
  -26.0670  -11.7060   20.4910 N   0  0  0  0  0  0  0  0  0  0  0  0
  -24.0320  -10.5060   20.9680 C   0  0  0  0  0  0  0  0  0  0  0  0
  -24.4440   -9.5300   21.9020 C   0  0  0  0  0  3  0  0  0  0  0  0
  -23.7010   -8.3400   22.0680 C   0  0  0  0  0  3  0  0  0  0  0  0
  -22.5330   -8.1190   21.3000 C   0  0  0  0  0  0  0  0  0  0  0  0
  -22.1410   -9.0860   20.3560 C   0  0  0  0  0  3  0  0  0  0  0  0
  -22.8840  -10.2660   20.1880 C   0  0  0  0  0  3  0  0  0  0  0  0
  -21.7640   -6.9840   21.3750 O   0  0  0  0  0  0  0  0  0  0  0  0
  -21.6910   -6.2390   22.5240 C   0  0  0  0  0  0  0  0  0  0  0  0
  -21.2400   -6.7920   23.7430 C   0  0  0  0  0  3  0  0  0  0  0  0
  -21.1150   -5.9730   24.8840 C   0  0  0  0  0  3  0  0  0  0  0  0
  -21.4300   -4.6030   24.8060 C   0  0  0  0  0  0  0  0  0  0  0  0
  -21.8760   -4.0500   23.5920 C   0  0  0  0  0  3  0  0  0  0  0  0
  -22.0030   -4.8660   22.4540 C   0  0  0  0  0  0  0  0  0  0  0  0
  -22.4110   -4.3240   21.2810 F   0  0  0  0  0  0  0  0  0  0  0  0
  -21.3030   -3.8140   25.8990 F   0  0  0  0  0  0  0  0  0  0  0  0
  -22.9400  -13.6120   21.0950 C   0  0  0  0  0  0  0  0  0  0  0  0
  -22.2010  -12.9230   21.9590 N   0  0  0  0  0  0  0  0  0  0  0  0
  -22.5150  -14.6430   20.5750 O   0  0  0  0  0  0  0  0  0  0  0  0
  -22.5570  -12.0890   22.4000 H   0  0  0  0  0  0  0  0  0  0  0  0
  -21.2670  -13.2370   22.1830 H   0  0  0  0  0  0  0  0  0  0  0  0
  -25.5950  -15.2480   20.2980 N   0  0  0  0  0  0  0  0  0  0  0  0
  -24.8350  -15.9110   20.4000 H   0  0  0  0  0  0  0  0  0  0  0  0
  -26.4540  -15.6770   19.9750 H   0  0  0  0  0  0  0  0  0  0  0  0
  -32.5580  -19.7040   19.5410 C   0  0  0  0  0  0  0  0  0  0  0  0
  -32.2290  -20.7720   18.9340 N   0  0  0  0  0  0  0  0  0  0  0  0
  -31.2350  -20.9490   19.0260 H   0  0  0  0  0  0  0  0  0  0  0  0
  -34.0150  -19.2700   19.5450 C   0  0  0  0  0  2  0  0  0  0  0  0
  -34.6720  -19.7330   18.3130 N   0  0  0  0  0  4  0  0  0  0  0  0
  -34.3410  -19.2070   17.5260 H   0  0  0  0  0  0  0  0  0  0  0  0
  -35.6700  -19.6660   18.3760 H   0  0  0  0  0  0  0  0  0  0  0  0
  -34.3900  -20.6900   18.1840 H   0  0  0  0  0  0  0  0  0  0  0  0
  -30.5000  -20.6700   21.6480 N   0  0  0  0  0  0  0  0  0  0  0  0
  -31.2030  -21.3780   21.4400 H   0  0  0  0  0  0  0  0  0  0  0  0
  -29.1760  -21.2600   21.8090 C   0  0  0  0  0  2  0  0  0  0  0  0
  -29.2670  -22.7940   21.8700 C   0  0  0  0  0  0  0  0  0  0  0  0
  -30.3420  -23.3490   22.1380 O   0  0  0  0  0  0  0  0  0  0  0  0
  -27.9990  -23.6000   21.5960 C   0  0  0  0  0  2  0  0  0  0  0  0
  -28.2550  -24.6100   20.4760 C   0  0  0  0  0  0  0  0  0  0  0  0
  -28.0820  -24.2970   19.2920 O   0  0  0  0  0  0  0  0  0  0  0  0
  -28.7260  -26.0180   20.8860 C   0  0  0  0  0  2  0  0  0  0  0  0
  -28.5520  -26.9690   19.8270 O   0  0  0  0  0  0  0  0  0  0  0  0
  -24.7220  -31.7930   23.4010 C   0  0  0  0  0  0  0  0  0  0  0  0
  -27.3900  -27.6920   19.9190 C   0  0  0  0  0  0  0  0  0  0  0  0
  -23.5270  -30.5570   21.6210 C   0  0  0  0  0  3  0  0  0  0  0  0
  -24.9920  -29.1660   20.0640 C   0  0  0  0  0  0  0  0  0  0  0  0
  -26.0520  -30.9370   21.4770 C   0  0  0  0  0  2  0  0  0  0  0  0
  -26.1430  -29.6350   20.7120 C   0  0  0  0  0  0  0  0  0  0  0  0
  -27.3470  -28.9020   20.6440 C   0  0  0  0  0  3  0  0  0  0  0  0
  -26.2310  -27.2350   19.2620 C   0  0  0  0  0  3  0  0  0  0  0  0
  -25.0290  -27.9620   19.3390 C   0  0  0  0  0  3  0  0  0  0  0  0
  -23.7460  -30.0150   20.1840 C   0  0  0  0  0  2  0  0  0  0  0  0
  -24.7850  -31.1040   22.2260 N   0  0  0  0  0  0  0  0  0  0  0  0
  -23.6380  -32.0120   23.9570 O   0  0  0  0  0  0  0  0  0  0  0  0
  -22.8710  -29.4470   22.4720 C   0  0  0  0  0  0  0  0  0  0  0  0
  -21.5460  -29.2840   22.3240 N   0  0  0  0  0  0  0  0  0  0  0  0
  -23.5490  -28.7380   23.2200 O   0  0  0  0  0  0  0  0  0  0  0  0
  -21.0610  -29.9110   21.6960 H   0  0  0  0  0  0  0  0  0  0  0  0
  -18.1620  -28.0730   22.6990 C   0  0  0  0  0  0  0  0  0  0  0  0
  -20.7220  -28.2780   22.9920 C   0  0  0  0  0  3  0  0  0  0  0  0
  -20.8110  -26.9150   22.2680 C   0  0  0  0  0  2  0  0  0  0  0  0
  -19.7060  -26.7110   21.2260 C   0  0  0  0  0  2  0  0  0  0  0  0
  -18.3260  -26.8010   21.8840 C   0  0  0  0  0  2  0  0  0  0  0  0
  -19.2880  -28.7750   23.2050 C   0  0  0  0  0  0  0  0  0  0  0  0
  -19.0830  -29.9730   23.9240 C   0  0  0  0  0  3  0  0  0  0  0  0
  -17.7830  -30.4680   24.1430 C   0  0  0  0  0  3  0  0  0  0  0  0
  -16.6710  -29.7600   23.6540 C   0  0  0  0  0  3  0  0  0  0  0  0
  -16.8610  -28.5650   22.9380 C   0  0  0  0  0  3  0  0  0  0  0  0
  -26.0050  -32.3570   24.0870 C   0  0  0  0  0  3  0  0  0  0  0  0
  -26.4810  -31.4960   25.3200 C   0  0  1  0  0  0  0  0  0  0  0  0
  -25.3630  -31.2150   26.3490 C   0  0  0  0  0  1  0  0  0  0  0  0
  -27.0440  -30.1340   24.8490 C   0  0  0  0  0  1  0  0  0  0  0  0
  -27.6350  -32.2220   26.0520 C   0  0  0  0  0  1  0  0  0  0  0  0
  -25.7150  -33.7370   24.4990 N   0  0  0  0  0  0  0  0  0  0  0  0
  -26.0910  -34.8270   23.8160 C   0  0  0  0  0  0  0  0  0  0  0  0
  -26.7880  -34.7730   22.7990 O   0  0  0  0  0  0  0  0  0  0  0  0
  -25.1060  -33.8540   25.2940 H   0  0  0  0  0  0  0  0  0  0  0  0
  -24.4180  -36.6790   23.5110 C   0  0  0  0  0  1  0  0  0  0  0  0
  -25.6150  -36.1930   24.3450 C   0  0  0  0  0  3  0  0  0  0  0  0
  -27.7290  -36.9700   25.3230 C   0  0  0  0  0  1  0  0  0  0  0  0
  -26.6740  -37.2250   24.3450 N   0  0  0  0  0  0  0  0  0  0  0  0
  -26.2830  -38.1450   24.5350 H   0  0  0  0  0  0  0  0  0  0  0  0
  1  2  1  0
  1  3  2  0
  2  4  2  0
  3 14  1  0
  3  5  1  0
  4 52  1  0
  4  5  1  0
  6 14  1  0
  7 12  1  0
  8  9  1  0
  8  7  1  0
 10  9  1  0
 10 19  1  0
 10 11  1  0
 12  6  1  0
 12 11  1  0
 13  6  2  0
 14 15  1  0
 16 17  2  0
 17 36  1  0
 18 17  1  0
 18 21  1  0
 19 16  1  0
 19 20  1  0
 20 18  2  0
 21 22  1  0
 22 23  2  0
 24 27  1  0
 24 23  1  0
 25 24  2  0
 26 25  1  0
 26 21  2  0
 27 28  1  0
 28 29  1  0
 29 30  2  0
 31 30  1  0
 31 35  1  0
 32 31  2  0
 33 28  2  0
 33 32  1  0
 34 33  1  0
 36 37  1  0
 37 40  1  0
 37 39  1  0
 38 36  2  0
 41 42  1  0
 41 16  1  0
 43 41  1  0
 44 47  1  0
 44  2  1  0
 45 46  1  0
 45 44  2  0
 48 50  1  0
 48 47  1  0
 49 48  1  0
 51 48  1  0
 52 54  1  0
 53 52  1  0
 54 55  1  0
 55 56  2  0
 57 55  1  0
 58 60  1  0
 58 57  1  0
 59 58  2  0
 61 63  1  0
 61 60  1  0
 62 73  2  0
 63 68  1  0
 64 72  1  0
 64 74  1  0
 65 71  1  0
 65 67  1  0
 66 72  1  0
 67 66  1  0
 68 67  2  0
 69 70  1  0
 69 63  2  0
 70 65  2  0
 71 64  1  0
 72 62  1  0
 74 76  2  0
 75 74  1  0
 77 75  1  0
 78 87  2  0
 78 83  1  0
 79 75  1  0
 79 83  1  0
 80 79  1  0
 81 82  1  0
 81 80  1  0
 82 78  1  0
 83 84  2  0
 84 85  1  0
 86 85  2  0
 87 86  1  0
 88 62  1  0
 88 93  1  0
 88 89  1  0
 89 92  1  1
 89 90  1  0
 91 89  1  0
 93 96  1  0
 94 98  1  0
 94 93  1  0
 95 94  2  0
 98 97  1  0
 98100  1  0
100101  1  0
100 99  1  0
M  ISO  4   6 100  14 100  60 101  61 101
M  END
>  <TORSDO>  (73) 
F 25

>  <SCORE>  (73) 
-11.773

>  <name>  (73) 
73

>  <ligand_id>  (73) 
73

>  <original_smiles>  (73) 
[H]N=C(c1c(N([H])C([H])([H])C(=O)C([H])([H])C(=O)C([H])([H])Oc2c([H])c([H])c3c(c2[H])C([H])([H])N(C(=O)C([H])(N([H])C(=O)C([H])(N([H])C([H])([H])[H])C([H])([H])[H])C(C([H])([H])[H])(C([H])([H])[H])C([H])([H])[H])C([H])(C(=O)N([H])C2([H])c4c([H])c([H])c([H])c([H])c4C([H])([H])C([H])([H])C2([H])[H])C3([H])[H])sc(N([H])C(=O)N2C([H])([H])C([H])([H])C([H])([H])C([H])(n3nc(-c4c([H])c([H])c(Oc5c([H])c([H])c(F)c([H])c5F)c([H])c4[H])c(C(=O)N([H])[H])c3N([H])[H])C2([H])[H])c1[H])C([H])([H])[N+]([H])([H])[H]

>  <smiles>  (73) 
[H]N=C(c1c(N([H])C([H])([H])C(=O)C([H])([H])C(=O)C([H])([H])Oc2c([H])c([H])c3c(c2[H])C([H])([H])N(C(=O)C([H])(N([H])C(=O)C([H])(N([H])C([H])([H])[H])C([H])([H])[H])C(C([H])([H])[H])(C([H])([H])[H])C([H])([H])[H])C([H])(C(=O)N([H])C2([H])c4c([H])c([H])c([H])c([H])c4C([H])([H])C([H])([H])C2([H])[H])C3([H])[H])sc(N([H])C(=O)N2C([H])([H])C([H])([H])C([H])([H])C([H])(n3nc(-c4c([H])c([H])c(Oc5c([H])c([H])c(F)c([H])c5F)c([H])c4[H])c(C(=O)N([H])[H])c3N([H])[H])C2([H])[H])c1[H])C([H])([H])[N+]([H])([H])[H]

$$$$
74:0:0
     RDKit          3D

 98106  0  0  1  0  0  0  0  0999 V2000
  -31.9620  -20.9910   20.7230 C   0  0  0  0  0  3  0  0  0  0  0  0
  -31.4950  -19.6730   20.5770 C   0  0  0  0  0  3  0  0  0  0  0  0
  -31.0700  -22.0760   20.6810 C   0  0  0  0  0  3  0  0  0  0  0  0
  -29.2230  -20.5190   20.3760 C   0  0  0  0  0  3  0  0  0  0  0  0
  -30.1130  -19.4110   20.4170 C   0  0  0  0  0  0  0  0  0  0  0  0
  -29.6900  -21.8550   20.4890 C   0  0  0  0  0  0  0  0  0  0  0  0
  -28.7760  -22.9190   20.3940 N   0  0  0  0  0  0  0  0  0  0  0  0
  -27.8290  -22.7170   20.0850 H   0  0  0  0  0  0  0  0  0  0  0  0
  -29.1930  -24.3360   20.4410 C   0  0  0  0  0  2  0  0  0  0  0  0
  -27.9950  -25.3010   20.6360 C   0  0  0  0  0  3  0  0  0  0  0  0
  -27.4630  -25.2410   22.0870 C   0  0  0  0  0  0  0  0  0  0  0  0
  -26.1360  -24.5270   22.3210 C   0  0  0  0  0  1  0  0  0  0  0  0
  -28.0710  -25.7580   23.0300 O   0  0  0  0  0  0  0  0  0  0  0  0
  -28.3040  -26.6770   20.2800 O   0  0  0  0  0  0  0  0  0  0  0  0
  -24.5860  -31.9700   23.2470 C   0  0  0  0  0  0  0  0  0  0  0  0
  -27.1920  -27.4930   20.1790 C   0  0  0  0  0  0  0  0  0  0  0  0
  -23.3780  -30.5820   21.5960 C   0  0  0  0  0  3  0  0  0  0  0  0
  -24.8250  -29.0430   20.1730 C   0  0  0  0  0  0  0  0  0  0  0  0
  -25.9130  -30.9100   21.4210 C   0  0  0  0  0  2  0  0  0  0  0  0
  -25.9870  -29.5440   20.7740 C   0  0  0  0  0  0  0  0  0  0  0  0
  -27.1780  -28.7760   20.7760 C   0  0  0  0  0  3  0  0  0  0  0  0
  -26.0190  -27.0350   19.5340 C   0  0  0  0  0  3  0  0  0  0  0  0
  -24.8370  -27.7880   19.5480 C   0  0  0  0  0  3  0  0  0  0  0  0
  -23.5900  -29.9130   20.2140 C   0  0  0  0  0  2  0  0  0  0  0  0
  -24.6440  -31.1700   22.1450 N   0  0  0  0  0  0  0  0  0  0  0  0
  -23.5050  -32.2520   23.7790 O   0  0  0  0  0  0  0  0  0  0  0  0
  -22.7140  -29.5600   22.5480 C   0  0  0  0  0  0  0  0  0  0  0  0
  -21.3880  -29.3940   22.4160 N   0  0  0  0  0  0  0  0  0  0  0  0
  -23.3880  -28.9240   23.3610 O   0  0  0  0  0  0  0  0  0  0  0  0
  -20.9040  -29.9640   21.7350 H   0  0  0  0  0  0  0  0  0  0  0  0
  -17.9940  -28.2630   22.9310 C   0  0  0  0  0  0  0  0  0  0  0  0
  -20.5580  -28.4640   23.1840 C   0  0  0  0  0  3  0  0  0  0  0  0
  -20.6260  -27.0380   22.5930 C   0  0  0  0  0  2  0  0  0  0  0  0
  -19.5090  -26.7480   21.5850 C   0  0  0  0  0  2  0  0  0  0  0  0
  -18.1360  -26.9160   22.2410 C   0  0  0  0  0  2  0  0  0  0  0  0
  -19.1320  -28.9950   23.3600 C   0  0  0  0  0  0  0  0  0  0  0  0
  -18.9460  -30.2580   23.9660 C   0  0  0  0  0  3  0  0  0  0  0  0
  -17.6530  -30.7850   24.1460 C   0  0  0  0  0  3  0  0  0  0  0  0
  -16.5300  -30.0490   23.7330 C   0  0  0  0  0  3  0  0  0  0  0  0
  -16.7010  -28.7900   23.1320 C   0  0  0  0  0  3  0  0  0  0  0  0
  -25.8730  -32.5890   23.8720 C   0  0  0  0  0  3  0  0  0  0  0  0
  -25.5740  -33.9910   24.1950 N   0  0  0  0  0  0  0  0  0  0  0  0
  -25.9140  -35.0370   23.4290 C   0  0  0  0  0  0  0  0  0  0  0  0
  -26.5880  -34.9230   22.4000 O   0  0  0  0  0  0  0  0  0  0  0  0
  -24.9800  -34.1540   24.9940 H   0  0  0  0  0  0  0  0  0  0  0  0
  -24.2000  -36.8390   23.0560 C   0  0  0  0  0  1  0  0  0  0  0  0
  -25.4340  -36.4310   23.8760 C   0  0  0  0  0  3  0  0  0  0  0  0
  -27.5700  -37.3050   24.7150 C   0  0  0  0  0  1  0  0  0  0  0  0
  -26.4740  -37.4770   23.7640 N   0  0  0  0  0  0  0  0  0  0  0  0
  -26.0720  -38.4000   23.9060 H   0  0  0  0  0  0  0  0  0  0  0  0
  -26.3780  -31.8170   25.1530 C   0  0  1  0  0  0  0  0  0  0  0  0
  -25.2760  -31.5850   26.2140 C   0  0  0  0  0  1  0  0  0  0  0  0
  -26.9570  -30.4350   24.7680 C   0  0  0  0  0  1  0  0  0  0  0  0
  -27.5270  -32.6060   25.8230 C   0  0  0  0  0  1  0  0  0  0  0  0
  -29.5990  -17.9600   20.2510 C   0  0  0  0  0  3  0  0  0  0  0  0
  -29.6190  -17.5070   18.7660 C   0  0  0  0  0  2  0  0  0  0  0  0
  -28.7230  -18.3210   17.8470 C   0  0  0  0  0  3  0  0  0  0  0  0
  -28.9660  -18.4980   16.6160 N   0  0  0  0  0  0  0  0  0  0  0  0
  -29.8280  -18.0420   16.3300 H   0  0  0  0  0  0  0  0  0  0  0  0
  -30.3440  -16.9410   21.1810 C   0  0  0  0  0  2  0  0  0  0  0  0
  -30.6690  -14.5200   20.5600 C   0  0  0  0  0  0  0  0  0  0  0  0
  -30.4090  -12.3700   19.3830 C   0  0  0  0  0  2  0  0  0  0  0  0
  -29.4790  -12.5900   18.1710 C   0  0  0  0  0  2  0  0  0  0  0  0
  -27.9930  -12.4620   18.5720 C   0  0  0  0  0  2  0  0  0  0  0  0
  -27.6440  -13.2650   19.8540 C   0  0  0  0  0  3  0  0  0  0  0  0
  -28.6850  -13.0210   20.9680 C   0  0  0  0  0  2  0  0  0  0  0  0
  -30.0140  -13.3380   20.4180 N   0  0  0  0  0  0  0  0  0  0  0  0
  -31.8080  -14.7130   20.1290 O   0  0  0  0  0  0  0  0  0  0  0  0
  -29.9240  -15.5310   21.0490 N   0  0  0  0  0  0  0  0  0  0  0  0
  -28.9850  -15.2990   21.3350 H   0  0  0  0  0  0  0  0  0  0  0  0
  -25.2320  -13.8600   20.5090 C   0  0  0  0  0  0  0  0  0  0  0  0
  -24.1610  -13.0820   20.8620 C   0  0  0  0  0  0  0  0  0  0  0  0
  -24.6310  -11.7330   20.8480 C   0  0  0  0  0  0  0  0  0  0  0  0
  -26.2860  -12.9810   20.3070 N   0  0  0  0  0  0  0  0  0  0  0  0
  -25.9270  -11.6980   20.5680 N   0  0  0  0  0  0  0  0  0  0  0  0
  -23.9060  -10.4680   21.0350 C   0  0  0  0  0  0  0  0  0  0  0  0
  -24.3270   -9.5120   21.9860 C   0  0  0  0  0  3  0  0  0  0  0  0
  -23.6080   -8.3110   22.1600 C   0  0  0  0  0  3  0  0  0  0  0  0
  -22.4550   -8.0550   21.3810 C   0  0  0  0  0  0  0  0  0  0  0  0
  -22.0540   -8.9990   20.4210 C   0  0  0  0  0  3  0  0  0  0  0  0
  -22.7730  -10.1940   20.2450 C   0  0  0  0  0  3  0  0  0  0  0  0
  -21.7110   -6.9010   21.4610 O   0  0  0  0  0  0  0  0  0  0  0  0
  -21.6380   -6.1700   22.6170 C   0  0  0  0  0  0  0  0  0  0  0  0
  -21.1680   -6.7300   23.8250 C   0  0  0  0  0  3  0  0  0  0  0  0
  -21.0480   -5.9260   24.9740 C   0  0  0  0  0  3  0  0  0  0  0  0
  -21.3830   -4.5600   24.9160 C   0  0  0  0  0  0  0  0  0  0  0  0
  -21.8450   -3.9970   23.7130 C   0  0  0  0  0  3  0  0  0  0  0  0
  -21.9680   -4.8010   22.5650 C   0  0  0  0  0  0  0  0  0  0  0  0
  -22.3960   -4.2500   21.4040 F   0  0  0  0  0  0  0  0  0  0  0  0
  -21.2570   -3.7840   26.0190 F   0  0  0  0  0  0  0  0  0  0  0  0
  -22.7560  -13.5520   21.1050 C   0  0  0  0  0  0  0  0  0  0  0  0
  -22.0190  -12.8520   21.9610 N   0  0  0  0  0  0  0  0  0  0  0  0
  -22.3200  -14.5710   20.5740 O   0  0  0  0  0  0  0  0  0  0  0  0
  -22.3880  -12.0260   22.4110 H   0  0  0  0  0  0  0  0  0  0  0  0
  -21.0750  -13.1420   22.1670 H   0  0  0  0  0  0  0  0  0  0  0  0
  -25.3940  -15.2270   20.3230 N   0  0  0  0  0  0  0  0  0  0  0  0
  -24.6250  -15.8830   20.4050 H   0  0  0  0  0  0  0  0  0  0  0  0
  -26.2460  -15.6650   19.9940 H   0  0  0  0  0  0  0  0  0  0  0  0
  2  1  2  0
  3  1  1  0
  4  5  2  0
  4  6  1  0
  5  2  1  0
  6  3  2  0
  7  9  1  0
  7  6  1  0
  8  7  1  0
 10  9  1  0
 10 11  1  0
 11 12  1  0
 11 13  2  0
 14 10  1  0
 15 26  2  0
 16 14  1  0
 16 21  1  0
 17 25  1  0
 17 27  1  0
 18 24  1  0
 18 20  1  0
 19 25  1  0
 20 21  2  0
 20 19  1  0
 22 23  1  0
 22 16  2  0
 23 18  2  0
 24 17  1  0
 25 15  1  0
 27 29  2  0
 28 27  1  0
 30 28  1  0
 31 40  2  0
 31 36  1  0
 32 28  1  0
 32 36  1  0
 33 32  1  0
 34 35  1  0
 34 33  1  0
 35 31  1  0
 36 37  2  0
 37 38  1  0
 39 38  2  0
 40 39  1  0
 41 15  1  0
 41 42  1  0
 41 51  1  0
 42 45  1  0
 43 47  1  0
 43 42  1  0
 44 43  2  0
 47 46  1  0
 49 47  1  0
 49 50  1  0
 49 48  1  0
 51 54  1  1
 51 52  1  0
 53 51  1  0
 55 56  1  0
 55  5  1  0
 55 60  1  0
 57 56  1  0
 58 57  2  0
 59 58  1  0
 61 69  1  0
 62 67  1  0
 63 64  1  0
 63 62  1  0
 65 64  1  0
 65 74  1  0
 65 66  1  0
 67 61  1  0
 67 66  1  0
 68 61  2  0
 69 60  1  0
 69 70  1  0
 71 72  2  0
 72 91  1  0
 73 72  1  0
 73 76  1  0
 74 71  1  0
 74 75  1  0
 75 73  2  0
 76 77  1  0
 77 78  2  0
 79 82  1  0
 79 78  1  0
 80 79  2  0
 81 80  1  0
 81 76  2  0
 82 83  1  0
 83 84  1  0
 84 85  2  0
 86 85  1  0
 86 90  1  0
 87 86  2  0
 88 83  2  0
 88 87  1  0
 89 88  1  0
 91 92  1  0
 92 95  1  0
 92 94  1  0
 93 91  2  0
 96 97  1  0
 96 71  1  0
 98 96  1  0
M  ISO  4  10 101  14 101  61 100  69 100
M  END
>  <TORSDO>  (74) 
F 24

>  <SCORE>  (74) 
-13.011

>  <name>  (74) 
74

>  <ligand_id>  (74) 
74

>  <original_smiles>  (74) 
[H]N=C([H])C([H])([H])C([H])(c1c([H])c([H])c([H])c(N([H])C([H])([H])C([H])(Oc2c([H])c([H])c3c(c2[H])C([H])([H])N(C(=O)C([H])(N([H])C(=O)C([H])(N([H])C([H])([H])[H])C([H])([H])[H])C(C([H])([H])[H])(C([H])([H])[H])C([H])([H])[H])C([H])(C(=O)N([H])C2([H])c4c([H])c([H])c([H])c([H])c4C([H])([H])C([H])([H])C2([H])[H])C3([H])[H])C(=O)C([H])([H])[H])c1[H])C([H])([H])N([H])C(=O)N1C([H])([H])C([H])([H])C([H])([H])C([H])(n2nc(-c3c([H])c([H])c(Oc4c([H])c([H])c(F)c([H])c4F)c([H])c3[H])c(C(=O)N([H])[H])c2N([H])[H])C1([H])[H]

>  <smiles>  (74) 
[H]N=C([H])C([H])([H])C([H])(c1c([H])c([H])c([H])c(N([H])C([H])([H])C([H])(Oc2c([H])c([H])c3c(c2[H])C([H])([H])N(C(=O)C([H])(N([H])C(=O)C([H])(N([H])C([H])([H])[H])C([H])([H])[H])C(C([H])([H])[H])(C([H])([H])[H])C([H])([H])[H])C([H])(C(=O)N([H])C2([H])c4c([H])c([H])c([H])c([H])c4C([H])([H])C([H])([H])C2([H])[H])C3([H])[H])C(=O)C([H])([H])[H])c1[H])C([H])([H])N([H])C(=O)N1C([H])([H])C([H])([H])C([H])([H])C([H])(n2nc(-c3c([H])c([H])c(Oc4c([H])c([H])c(F)c([H])c4F)c([H])c3[H])c(C(=O)N([H])[H])c2N([H])[H])C1([H])[H]

$$$$
75:0:0
     RDKit          3D

 98106  0  0  1  0  0  0  0  0999 V2000
  -30.5180  -20.5060   20.2200 C   0  0  0  0  0  2  0  0  0  0  0  0
  -28.5660  -18.8720   20.3440 C   0  0  0  0  0  3  0  0  0  0  0  0
  -30.5980  -17.9160   20.4480 C   0  0  0  0  0  3  0  0  0  0  0  0
  -28.3540  -17.5200   20.4910 C   0  0  0  0  0  0  0  0  0  0  0  0
  -29.6550  -16.9180   20.5790 C   0  0  0  0  0  0  0  0  0  0  0  0
  -29.9230  -19.1430   20.2920 N   0  0  0  0  0  0  0  0  0  0  0  0
  -30.6160  -14.5200   20.2330 C   0  0  0  0  0  0  0  0  0  0  0  0
  -30.5080  -12.1970   19.3480 C   0  0  0  0  0  2  0  0  0  0  0  0
  -29.5840  -12.2050   18.1090 C   0  0  0  0  0  2  0  0  0  0  0  0
  -28.0990  -12.0650   18.5110 C   0  0  0  0  0  2  0  0  0  0  0  0
  -27.7030  -13.0300   19.6610 C   0  0  0  0  0  3  0  0  0  0  0  0
  -28.7310  -12.9460   20.8110 C   0  0  0  0  0  2  0  0  0  0  0  0
  -30.0580  -13.2710   20.2510 N   0  0  0  0  0  0  0  0  0  0  0  0
  -31.7280  -14.7400   19.7380 O   0  0  0  0  0  0  0  0  0  0  0  0
  -29.8080  -15.4850   20.7490 N   0  0  0  0  0  0  0  0  0  0  0  0
  -29.0500  -15.0690   21.2680 H   0  0  0  0  0  0  0  0  0  0  0  0
  -25.3110  -13.6950   20.3440 C   0  0  0  0  0  0  0  0  0  0  0  0
  -24.2250  -12.9490   20.7160 C   0  0  0  0  0  0  0  0  0  0  0  0
  -24.6590  -11.5870   20.7020 C   0  0  0  0  0  0  0  0  0  0  0  0
  -26.3400  -12.7890   20.1290 N   0  0  0  0  0  0  0  0  0  0  0  0
  -25.9490  -11.5170   20.4000 N   0  0  0  0  0  0  0  0  0  0  0  0
  -23.9060  -10.3420   20.9010 C   0  0  0  0  0  0  0  0  0  0  0  0
  -24.2960   -9.3920   21.8700 C   0  0  0  0  0  3  0  0  0  0  0  0
  -23.5450   -8.2110   22.0570 C   0  0  0  0  0  3  0  0  0  0  0  0
  -22.3910   -7.9720   21.2730 C   0  0  0  0  0  0  0  0  0  0  0  0
  -22.0200   -8.9110   20.2950 C   0  0  0  0  0  3  0  0  0  0  0  0
  -22.7730  -10.0830   20.1050 C   0  0  0  0  0  3  0  0  0  0  0  0
  -21.6180   -6.8390   21.3650 O   0  0  0  0  0  0  0  0  0  0  0  0
  -21.5000   -6.1420   22.5400 C   0  0  0  0  0  0  0  0  0  0  0  0
  -20.9780   -6.7370   23.7100 C   0  0  0  0  0  3  0  0  0  0  0  0
  -20.8070   -5.9650   24.8770 C   0  0  0  0  0  3  0  0  0  0  0  0
  -21.1490   -4.6000   24.8750 C   0  0  0  0  0  0  0  0  0  0  0  0
  -21.6640   -4.0040   23.7100 C   0  0  0  0  0  3  0  0  0  0  0  0
  -21.8360   -4.7730   22.5450 C   0  0  0  0  0  0  0  0  0  0  0  0
  -22.3120   -4.1900   21.4190 F   0  0  0  0  0  0  0  0  0  0  0  0
  -20.9790   -3.8550   25.9920 F   0  0  0  0  0  0  0  0  0  0  0  0
  -22.8360  -13.4570   20.9750 C   0  0  0  0  0  0  0  0  0  0  0  0
  -22.0860  -12.7830   21.8400 N   0  0  0  0  0  0  0  0  0  0  0  0
  -22.4250  -14.4890   20.4460 O   0  0  0  0  0  0  0  0  0  0  0  0
  -22.4310  -11.9490   22.2910 H   0  0  0  0  0  0  0  0  0  0  0  0
  -21.1530  -13.1060   22.0530 H   0  0  0  0  0  0  0  0  0  0  0  0
  -25.5030  -15.0610   20.1480 N   0  0  0  0  0  0  0  0  0  0  0  0
  -24.7190  -15.7010   20.1650 H   0  0  0  0  0  0  0  0  0  0  0  0
  -26.3300  -15.4560   19.7170 H   0  0  0  0  0  0  0  0  0  0  0  0
  -26.9930  -16.8930   20.5930 C   0  0  0  0  0  0  0  0  0  0  0  0
  -26.8760  -15.8110   21.1820 O   0  0  0  0  0  0  0  0  0  0  0  0
  -25.7360  -17.5450   20.0060 C   0  0  0  0  0  3  0  0  0  0  0  0
  -25.8670  -18.5690   18.8900 C   0  0  0  0  0  1  0  0  0  0  0  0
  -24.5650  -17.2340   20.3840 N   0  0  0  0  0  2  0  0  0  0  0  0
  -24.6330  -16.5250   21.1110 H   0  0  0  0  0  0  0  0  0  0  0  0
  -29.6170  -22.9610   20.3030 C   0  0  0  0  0  3  0  0  0  0  0  0
  -29.6520  -21.7110   19.7430 C   0  0  0  0  0  0  0  0  0  0  0  0
  -28.8680  -24.1600   19.7730 C   0  0  0  0  0  0  0  0  0  0  0  0
  -28.4400  -24.1890   18.6140 O   0  0  0  0  0  0  0  0  0  0  0  0
  -28.5960  -25.3890   20.7030 C   0  0  0  0  0  2  0  0  0  0  0  0
  -28.5970  -26.6900   20.0400 O   0  0  0  0  0  0  0  0  0  0  0  0
  -24.6350  -31.8260   23.1480 C   0  0  0  0  0  0  0  0  0  0  0  0
  -27.4220  -27.4280   20.0810 C   0  0  0  0  0  0  0  0  0  0  0  0
  -23.4890  -30.4190   21.4700 C   0  0  0  0  0  3  0  0  0  0  0  0
  -25.0000  -28.9180   20.0600 C   0  0  0  0  0  0  0  0  0  0  0  0
  -26.0130  -30.8220   21.3200 C   0  0  0  0  0  2  0  0  0  0  0  0
  -26.1420  -29.4520   20.6730 C   0  0  0  0  0  0  0  0  0  0  0  0
  -27.3570  -28.7180   20.6750 C   0  0  0  0  0  3  0  0  0  0  0  0
  -26.2620  -26.9200   19.4610 C   0  0  0  0  0  3  0  0  0  0  0  0
  -25.0590  -27.6520   19.4500 C   0  0  0  0  0  3  0  0  0  0  0  0
  -23.7400  -29.7570   20.0890 C   0  0  0  0  0  2  0  0  0  0  0  0
  -24.7300  -31.0380   22.0390 N   0  0  0  0  0  0  0  0  0  0  0  0
  -23.5390  -32.0720   23.6710 O   0  0  0  0  0  0  0  0  0  0  0  0
  -22.8370  -29.3770   22.4090 C   0  0  0  0  0  0  0  0  0  0  0  0
  -21.5100  -29.2050   22.2880 N   0  0  0  0  0  0  0  0  0  0  0  0
  -23.5230  -28.7260   23.2010 O   0  0  0  0  0  0  0  0  0  0  0  0
  -21.0180  -29.7820   21.6200 H   0  0  0  0  0  0  0  0  0  0  0  0
  -18.1250  -28.0620   22.8320 C   0  0  0  0  0  0  0  0  0  0  0  0
  -20.6960  -28.2500   23.0390 C   0  0  0  0  0  3  0  0  0  0  0  0
  -20.7470  -26.8470   22.3920 C   0  0  0  0  0  2  0  0  0  0  0  0
  -19.6090  -26.5990   21.3970 C   0  0  0  0  0  2  0  0  0  0  0  0
  -18.2490  -26.7430   22.0880 C   0  0  0  0  0  2  0  0  0  0  0  0
  -19.2730  -28.7770   23.2640 C   0  0  0  0  0  0  0  0  0  0  0  0
  -19.1020  -30.0150   23.9210 C   0  0  0  0  0  3  0  0  0  0  0  0
  -17.8140  -30.5370   24.1500 C   0  0  0  0  0  3  0  0  0  0  0  0
  -16.6810  -29.8180   23.7320 C   0  0  0  0  0  3  0  0  0  0  0  0
  -16.8370  -28.5820   23.0790 C   0  0  0  0  0  3  0  0  0  0  0  0
  -25.8960  -32.4760   23.8000 C   0  0  0  0  0  3  0  0  0  0  0  0
  -25.5550  -33.8640   24.1390 N   0  0  0  0  0  0  0  0  0  0  0  0
  -25.8800  -34.9290   23.3940 C   0  0  0  0  0  0  0  0  0  0  0  0
  -26.5680  -34.8480   22.3720 O   0  0  0  0  0  0  0  0  0  0  0  0
  -24.9450  -33.9990   24.9320 H   0  0  0  0  0  0  0  0  0  0  0  0
  -24.1260  -36.6930   23.0200 C   0  0  0  0  0  1  0  0  0  0  0  0
  -25.3580  -36.3030   23.8540 C   0  0  0  0  0  3  0  0  0  0  0  0
  -27.4580  -37.2180   24.7380 C   0  0  0  0  0  1  0  0  0  0  0  0
  -26.3730  -37.3770   23.7740 N   0  0  0  0  0  0  0  0  0  0  0  0
  -25.9460  -38.2870   23.9240 H   0  0  0  0  0  0  0  0  0  0  0  0
  -26.4050  -31.7000   25.0760 C   0  0  1  0  0  0  0  0  0  0  0  0
  -25.2990  -31.4320   26.1220 C   0  0  0  0  0  1  0  0  0  0  0  0
  -27.0180  -30.3360   24.6760 C   0  0  0  0  0  1  0  0  0  0  0  0
  -27.5330  -32.5030   25.7630 C   0  0  0  0  0  1  0  0  0  0  0  0
  -28.9500  -21.3750   18.6480 O   0  0  0  0  0  0  0  0  0  0  0  0
  -28.4980  -22.1610   18.3560 H   0  0  0  0  0  0  0  0  0  0  0  0
  1  6  1  0
  2  4  2  0
  3  5  2  0
  4  5  1  0
  4 45  1  0
  5 15  1  0
  6  2  1  0
  6  3  1  0
  7 13  1  0
  7 15  1  0
  8 13  1  0
  9 10  1  0
  9  8  1  0
 11 10  1  0
 11 20  1  0
 11 12  1  0
 13 12  1  0
 14  7  2  0
 15 16  1  0
 17 18  2  0
 18 37  1  0
 19 18  1  0
 19 22  1  0
 20 17  1  0
 20 21  1  0
 21 19  2  0
 22 23  1  0
 23 24  2  0
 25 28  1  0
 25 24  1  0
 26 25  2  0
 27 26  1  0
 27 22  2  0
 28 29  1  0
 29 34  2  0
 29 30  1  0
 30 31  2  0
 32 31  1  0
 32 36  1  0
 33 32  2  0
 34 33  1  0
 35 34  1  0
 37 38  1  0
 38 41  1  0
 38 40  1  0
 39 37  2  0
 42 43  1  0
 42 17  1  0
 44 42  1  0
 45 46  2  0
 47 48  1  0
 47 49  1  0
 47 45  1  0
 49 50  1  0
 52  1  1  0
 52 51  2  0
 53 51  1  0
 53 55  1  0
 54 53  2  0
 56 58  1  0
 56 55  1  0
 57 68  2  0
 58 63  1  0
 59 67  1  0
 59 69  1  0
 60 66  1  0
 60 62  1  0
 61 67  1  0
 62 63  2  0
 62 61  1  0
 64 58  2  0
 65 64  1  0
 65 60  2  0
 66 59  1  0
 67 57  1  0
 69 71  2  0
 70 69  1  0
 72 70  1  0
 73 82  2  0
 73 78  1  0
 74 70  1  0
 74 78  1  0
 75 74  1  0
 76 77  1  0
 76 75  1  0
 77 73  1  0
 78 79  2  0
 79 80  1  0
 81 80  2  0
 82 81  1  0
 83 57  1  0
 83 84  1  0
 83 93  1  0
 84 87  1  0
 85 89  1  0
 85 84  1  0
 86 85  2  0
 89 88  1  0
 91 89  1  0
 91 92  1  0
 91 90  1  0
 93 96  1  1
 93 94  1  0
 95 93  1  0
 97 52  1  0
 98 97  1  0
M  ISO  4   7 100  15 100  55 101  56 101
M  END
>  <TORSDO>  (75) 
F 23

>  <SCORE>  (75) 
-11.557

>  <name>  (75) 
75

>  <ligand_id>  (75) 
75

>  <original_smiles>  (75) 
[H]N=C(C(=O)c1c(N([H])C(=O)N2C([H])([H])C([H])([H])C([H])([H])C([H])(n3nc(-c4c([H])c([H])c(Oc5c([H])c([H])c(F)c([H])c5F)c([H])c4[H])c(C(=O)N([H])[H])c3N([H])[H])C2([H])[H])c([H])n(C([H])([H])C(O[H])=C([H])C(=O)C([H])([H])Oc2c([H])c([H])c3c(c2[H])C([H])([H])N(C(=O)C([H])(N([H])C(=O)C([H])(N([H])C([H])([H])[H])C([H])([H])[H])C(C([H])([H])[H])(C([H])([H])[H])C([H])([H])[H])C([H])(C(=O)N([H])C2([H])c4c([H])c([H])c([H])c([H])c4C([H])([H])C([H])([H])C2([H])[H])C3([H])[H])c1[H])C([H])([H])[H]

>  <smiles>  (75) 
[H]N=C(C(=O)c1c(N([H])C(=O)N2C([H])([H])C([H])([H])C([H])([H])C([H])(n3nc(-c4c([H])c([H])c(Oc5c([H])c([H])c(F)c([H])c5F)c([H])c4[H])c(C(=O)N([H])[H])c3N([H])[H])C2([H])[H])c([H])n(C([H])([H])C(O[H])=C([H])C(=O)C([H])([H])Oc2c([H])c([H])c3c(c2[H])C([H])([H])N(C(=O)C([H])(N([H])C(=O)C([H])(N([H])C([H])([H])[H])C([H])([H])[H])C(C([H])([H])[H])(C([H])([H])[H])C([H])([H])[H])C([H])(C(=O)N([H])C2([H])c4c([H])c([H])c([H])c([H])c4C([H])([H])C([H])([H])C2([H])[H])C3([H])[H])c1[H])C([H])([H])[H]

$$$$
76:0:0
     RDKit          3D

102110  0  0  1  0  0  0  0  0999 V2000
  -29.7090  -19.5670   18.4980 C   0  0  0  0  0  3  0  0  0  0  0  0
  -29.6080  -17.1490   18.7410 C   0  0  0  0  0  3  0  0  0  0  0  0
  -30.3410  -18.5250   20.6220 C   0  0  0  0  0  3  0  0  0  0  0  0
  -29.4060  -18.3050   17.9580 C   0  0  0  0  0  0  0  0  0  0  0  0
  -30.1590  -19.6870   19.8260 C   0  0  0  0  0  0  0  0  0  0  0  0
  -30.0840  -17.2430   20.0720 C   0  0  0  0  0  0  0  0  0  0  0  0
  -31.0160  -15.0360   20.4900 C   0  0  0  0  0  0  0  0  0  0  0  0
  -30.7540  -12.9300   19.2650 C   0  0  0  0  0  2  0  0  0  0  0  0
  -29.8350  -13.2180   18.0570 C   0  0  0  0  0  2  0  0  0  0  0  0
  -28.3480  -13.0870   18.4530 C   0  0  0  0  0  2  0  0  0  0  0  0
  -27.9950  -13.8300   19.7700 C   0  0  0  0  0  3  0  0  0  0  0  0
  -29.0350  -13.5270   20.8730 C   0  0  0  0  0  2  0  0  0  0  0  0
  -30.3710  -13.8500   20.3440 N   0  0  0  0  0  0  0  0  0  0  0  0
  -32.1730  -15.2340   20.1080 O   0  0  0  0  0  0  0  0  0  0  0  0
  -30.2330  -16.0630   20.8640 N   0  0  0  0  0  0  0  0  0  0  0  0
  -29.3910  -15.7690   21.3340 H   0  0  0  0  0  0  0  0  0  0  0  0
  -25.5610  -14.4060   20.3700 C   0  0  0  0  0  0  0  0  0  0  0  0
  -24.4960  -13.6190   20.7190 C   0  0  0  0  0  0  0  0  0  0  0  0
  -24.9850  -12.2770   20.7310 C   0  0  0  0  0  0  0  0  0  0  0  0
  -26.6320  -13.5410   20.2030 N   0  0  0  0  0  0  0  0  0  0  0  0
  -26.2870  -12.2590   20.4760 N   0  0  0  0  0  0  0  0  0  0  0  0
  -24.2810  -11.0040   20.9200 C   0  0  0  0  0  0  0  0  0  0  0  0
  -24.6450  -10.1060   21.9460 C   0  0  0  0  0  3  0  0  0  0  0  0
  -23.9420   -8.8940   22.1190 C   0  0  0  0  0  3  0  0  0  0  0  0
  -22.8610   -8.5740   21.2630 C   0  0  0  0  0  0  0  0  0  0  0  0
  -22.5160   -9.4640   20.2310 C   0  0  0  0  0  3  0  0  0  0  0  0
  -23.2210  -10.6660   20.0570 C   0  0  0  0  0  3  0  0  0  0  0  0
  -22.1350   -7.4090   21.3410 O   0  0  0  0  0  0  0  0  0  0  0  0
  -21.9260   -6.7720   22.5360 C   0  0  0  0  0  0  0  0  0  0  0  0
  -21.2980   -7.4160   23.6250 C   0  0  0  0  0  3  0  0  0  0  0  0
  -21.0330   -6.7000   24.8090 C   0  0  0  0  0  3  0  0  0  0  0  0
  -21.3900   -5.3420   24.9060 C   0  0  0  0  0  0  0  0  0  0  0  0
  -22.0130   -4.6980   23.8230 C   0  0  0  0  0  3  0  0  0  0  0  0
  -22.2750   -5.4100   22.6390 C   0  0  0  0  0  0  0  0  0  0  0  0
  -22.8550   -4.7790   21.5910 F   0  0  0  0  0  0  0  0  0  0  0  0
  -21.1310   -4.6520   26.0410 F   0  0  0  0  0  0  0  0  0  0  0  0
  -23.0800  -14.0710   20.9290 C   0  0  0  0  0  0  0  0  0  0  0  0
  -22.3390  -13.3830   21.7890 N   0  0  0  0  0  0  0  0  0  0  0  0
  -22.6380  -15.0710   20.3670 O   0  0  0  0  0  0  0  0  0  0  0  0
  -22.7090  -12.5800   22.2720 H   0  0  0  0  0  0  0  0  0  0  0  0
  -21.3880  -13.6720   21.9670 H   0  0  0  0  0  0  0  0  0  0  0  0
  -25.7000  -15.7780   20.1630 N   0  0  0  0  0  0  0  0  0  0  0  0
  -24.9080  -16.4100   20.2160 H   0  0  0  0  0  0  0  0  0  0  0  0
  -26.5410  -16.2360   19.8410 H   0  0  0  0  0  0  0  0  0  0  0  0
  -28.8750  -18.2080   16.5980 C   0  0  0  0  0  0  0  0  0  0  0  0
  -27.0940  -18.9540   14.9580 C   0  0  0  0  0  1  0  0  0  0  0  0
  -27.7640  -18.8800   16.2680 N   0  0  0  0  0  0  0  0  0  0  0  0
  -29.4840  -17.4590   15.6850 N   0  0  0  0  0  4  0  0  0  0  0  0
  -27.2950  -19.3590   17.0310 H   0  0  0  0  0  0  0  0  0  0  0  0
  -30.3870  -17.0640   15.8960 H   0  0  0  0  0  0  0  0  0  0  0  0
  -29.0960  -17.3120   14.7690 H   0  0  0  0  0  0  0  0  0  0  0  0
  -30.1390  -21.6040   21.4180 C   0  0  0  0  0  0  0  0  0  0  0  0
  -30.4690  -20.9960   20.2690 N   0  0  0  0  0  0  0  0  0  0  0  0
  -29.5730  -21.0730   22.3800 O   0  0  0  0  0  0  0  0  0  0  0  0
  -30.8690  -21.6360   19.5930 H   0  0  0  0  0  0  0  0  0  0  0  0
  -30.5620  -23.0970   21.3750 C   0  0  0  0  0  0  0  0  0  0  0  0
  -31.4550  -23.4840   20.6060 O   0  0  0  0  0  0  0  0  0  0  0  0
  -29.8330  -24.0550   22.3300 C   0  0  0  0  0  2  0  0  0  0  0  0
  -29.7320  -25.4640   21.7390 C   0  0  0  0  0  0  0  0  0  0  0  0
  -30.5790  -26.3250   22.0090 O   0  0  0  0  0  0  0  0  0  0  0  0
  -28.5290  -25.7790   20.8390 C   0  0  0  0  0  2  0  0  0  0  0  0
  -28.5570  -27.1590   20.4760 O   0  0  0  0  0  0  0  0  0  0  0  0
  -24.4730  -32.2330   23.2780 C   0  0  0  0  0  0  0  0  0  0  0  0
  -27.3440  -27.8000   20.4250 C   0  0  0  0  0  0  0  0  0  0  0  0
  -23.3550  -30.7470   21.6430 C   0  0  0  0  0  3  0  0  0  0  0  0
  -24.8970  -29.2030   20.3210 C   0  0  0  0  0  0  0  0  0  0  0  0
  -25.8740  -31.1790   21.5090 C   0  0  0  0  0  2  0  0  0  0  0  0
  -26.0180  -29.7940   20.9180 C   0  0  0  0  0  0  0  0  0  0  0  0
  -27.2430  -29.1000   20.9620 C   0  0  0  0  0  3  0  0  0  0  0  0
  -26.2060  -27.2090   19.8310 C   0  0  0  0  0  3  0  0  0  0  0  0
  -24.9830  -27.9090   19.7770 C   0  0  0  0  0  3  0  0  0  0  0  0
  -23.6270  -30.0220   20.2970 C   0  0  0  0  0  2  0  0  0  0  0  0
  -24.5830  -31.4030   22.2020 N   0  0  0  0  0  0  0  0  0  0  0  0
  -23.3690  -32.4920   23.7800 O   0  0  0  0  0  0  0  0  0  0  0  0
  -22.7050  -29.7400   22.6180 C   0  0  0  0  0  0  0  0  0  0  0  0
  -21.3870  -29.5300   22.4660 N   0  0  0  0  0  0  0  0  0  0  0  0
  -23.3830  -29.1450   23.4600 O   0  0  0  0  0  0  0  0  0  0  0  0
  -20.9020  -30.0650   21.7590 H   0  0  0  0  0  0  0  0  0  0  0  0
  -18.0130  -28.3400   22.9640 C   0  0  0  0  0  0  0  0  0  0  0  0
  -20.5700  -28.5970   23.2410 C   0  0  0  0  0  3  0  0  0  0  0  0
  -20.6730  -27.1620   22.6770 C   0  0  0  0  0  2  0  0  0  0  0  0
  -19.5760  -26.8330   21.6600 C   0  0  0  0  0  2  0  0  0  0  0  0
  -18.1910  -26.9860   22.2960 C   0  0  0  0  0  2  0  0  0  0  0  0
  -19.1310  -29.1040   23.3910 C   0  0  0  0  0  0  0  0  0  0  0  0
  -18.9130  -30.3720   23.9710 C   0  0  0  0  0  3  0  0  0  0  0  0
  -17.6100  -30.8770   24.1290 C   0  0  0  0  0  3  0  0  0  0  0  0
  -16.5060  -30.1090   23.7210 C   0  0  0  0  0  3  0  0  0  0  0  0
  -16.7070  -28.8420   23.1430 C   0  0  0  0  0  3  0  0  0  0  0  0
  -25.7250  -32.9170   23.9160 C   0  0  0  0  0  3  0  0  0  0  0  0
  -25.3500  -34.2940   24.2570 N   0  0  0  0  0  0  0  0  0  0  0  0
  -25.6440  -35.3690   23.5120 C   0  0  0  0  0  0  0  0  0  0  0  0
  -26.3320  -35.3080   22.4900 O   0  0  0  0  0  0  0  0  0  0  0  0
  -24.7390  -34.4120   25.0510 H   0  0  0  0  0  0  0  0  0  0  0  0
  -23.8460  -37.0900   23.1440 C   0  0  0  0  0  1  0  0  0  0  0  0
  -25.0860  -36.7280   23.9780 C   0  0  0  0  0  3  0  0  0  0  0  0
  -27.1610  -37.6940   24.8650 C   0  0  0  0  0  1  0  0  0  0  0  0
  -26.0720  -37.8280   23.9000 N   0  0  0  0  0  0  0  0  0  0  0  0
  -25.6230  -38.7260   24.0540 H   0  0  0  0  0  0  0  0  0  0  0  0
  -26.2740  -32.1550   25.1840 C   0  0  1  0  0  0  0  0  0  0  0  0
  -25.1790  -31.8080   26.2200 C   0  0  0  0  0  1  0  0  0  0  0  0
  -26.9680  -30.8350   24.7730 C   0  0  0  0  0  1  0  0  0  0  0  0
  -27.3440  -33.0170   25.8940 C   0  0  0  0  0  1  0  0  0  0  0  0
  1  5  1  0
  2  6  2  0
  4  1  2  0
  4  2  1  0
  5 53  1  0
  5  3  2  0
  6  3  1  0
  6 15  1  0
  7 15  1  0
  8 13  1  0
  9 10  1  0
  9  8  1  0
 11 10  1  0
 11 20  1  0
 11 12  1  0
 13  7  1  0
 13 12  1  0
 14  7  2  0
 15 16  1  0
 17 18  2  0
 18 19  1  0
 18 37  1  0
 19 22  1  0
 20 17  1  0
 20 21  1  0
 21 19  2  0
 22 23  1  0
 23 24  2  0
 25 28  1  0
 25 24  1  0
 26 25  2  0
 27 26  1  0
 27 22  2  0
 28 29  1  0
 29 34  2  0
 29 30  1  0
 30 31  2  0
 31 32  1  0
 32 36  1  0
 33 32  2  0
 34 33  1  0
 35 34  1  0
 37 38  1  0
 38 41  1  0
 38 40  1  0
 39 37  2  0
 42 43  1  0
 42 17  1  0
 44 42  1  0
 45  4  1  0
 46 47  1  0
 47 45  1  0
 47 49  1  0
 48 50  1  0
 48 45  2  0
 51 48  1  0
 52 54  2  0
 53 52  1  0
 55 53  1  0
 56 52  1  0
 56 58  1  0
 57 56  2  0
 59 60  2  0
 59 58  1  0
 61 59  1  0
 62 61  1  0
 63 74  2  0
 64 62  1  0
 64 69  1  0
 65 73  1  0
 65 75  1  0
 66 68  1  0
 67 73  1  0
 68 69  2  0
 68 67  1  0
 70 64  2  0
 71 70  1  0
 71 66  2  0
 72 66  1  0
 72 65  1  0
 73 63  1  0
 75 77  2  0
 76 75  1  0
 78 76  1  0
 79 88  2  0
 79 84  1  0
 80 76  1  0
 80 84  1  0
 81 80  1  0
 82 83  1  0
 82 81  1  0
 83 79  1  0
 84 85  2  0
 85 86  1  0
 87 86  2  0
 88 87  1  0
 89 63  1  0
 89 90  1  0
 89 99  1  0
 90 93  1  0
 91 95  1  0
 91 90  1  0
 92 91  2  0
 95 94  1  0
 97 95  1  0
 97 98  1  0
 97 96  1  0
 99102  1  1
 99100  1  0
101 99  1  0
M  ISO  4   7 100  15 100  61 101  62 101
M  END
>  <TORSDO>  (76) 
F 22

>  <SCORE>  (76) 
-9.851

>  <name>  (76) 
76

>  <ligand_id>  (76) 
76

>  <original_smiles>  (76) 
[H]c1c([H])c([H])c2c(c1[H])C([H])([H])C([H])([H])C([H])([H])C2([H])N([H])C(=O)C1([H])N(C(=O)C([H])(N([H])C(=O)C([H])(N([H])C([H])([H])[H])C([H])([H])[H])C(C([H])([H])[H])(C([H])([H])[H])C([H])([H])[H])C([H])([H])c2c([H])c(OC([H])([H])C(=O)C([H])([H])C(=O)C(=O)N([H])c3c([H])c(C(N([H])C([H])([H])[H])=[N+]([H])[H])c([H])c(N([H])C(=O)N4C([H])([H])C([H])([H])C([H])([H])C([H])(n5nc(-c6c([H])c([H])c(Oc7c([H])c([H])c(F)c([H])c7F)c([H])c6[H])c(C(=O)N([H])[H])c5N([H])[H])C4([H])[H])c3[H])c([H])c([H])c2C1([H])[H]

>  <smiles>  (76) 
[H]c1c([H])c([H])c2c(c1[H])C([H])([H])C([H])([H])C([H])([H])C2([H])N([H])C(=O)C1([H])N(C(=O)C([H])(N([H])C(=O)C([H])(N([H])C([H])([H])[H])C([H])([H])[H])C(C([H])([H])[H])(C([H])([H])[H])C([H])([H])[H])C([H])([H])c2c([H])c(OC([H])([H])C(=O)C([H])([H])C(=O)C(=O)N([H])c3c([H])c(C(N([H])C([H])([H])[H])=[N+]([H])[H])c([H])c(N([H])C(=O)N4C([H])([H])C([H])([H])C([H])([H])C([H])(n5nc(-c6c([H])c([H])c(Oc7c([H])c([H])c(F)c([H])c7F)c([H])c6[H])c(C(=O)N([H])[H])c5N([H])[H])C4([H])[H])c3[H])c([H])c([H])c2C1([H])[H]

$$$$
77:0:0
     RDKit          3D

 99107  0  0  1  0  0  0  0  0999 V2000
  -31.2780  -20.9020   20.5580 C   0  0  0  0  0  0  0  0  0  0  0  0
  -30.5020  -21.7700   21.2090 N   0  0  0  0  0  0  0  0  0  0  0  0
  -32.2290  -21.3510   19.7380 N   0  0  0  0  0  4  0  0  0  0  0  0
  -29.8590  -21.4390   21.9260 H   0  0  0  0  0  0  0  0  0  0  0  0
  -32.7950  -20.6870   19.2280 H   0  0  0  0  0  0  0  0  0  0  0  0
  -32.4670  -22.3240   19.6720 H   0  0  0  0  0  0  0  0  0  0  0  0
  -29.6910  -19.0170   20.5810 C   0  0  0  0  0  3  0  0  0  0  0  0
  -29.3930  -17.6500   20.7200 C   0  0  0  0  0  3  0  0  0  0  0  0
  -31.7520  -17.1960   21.1620 C   0  0  0  0  0  3  0  0  0  0  0  0
  -31.0190  -19.4760   20.7200 C   0  0  0  0  0  0  0  0  0  0  0  0
  -30.4250  -16.7310   20.9900 C   0  0  0  0  0  0  0  0  0  0  0  0
  -32.0530  -18.5630   21.0150 C   0  0  0  0  0  0  0  0  0  0  0  0
  -33.3350  -18.9830   21.1610 F   0  0  0  0  0  0  0  0  0  0  0  0
  -30.7110  -14.4000   20.3650 C   0  0  0  0  0  0  0  0  0  0  0  0
  -30.3140  -12.3120   19.1380 C   0  0  0  0  0  2  0  0  0  0  0  0
  -29.3560  -12.5970   17.9660 C   0  0  0  0  0  2  0  0  0  0  0  0
  -27.8880  -12.4820   18.4290 C   0  0  0  0  0  2  0  0  0  0  0  0
  -27.6030  -13.2780   19.7310 C   0  0  0  0  0  3  0  0  0  0  0  0
  -28.6750  -12.9810   20.8040 C   0  0  0  0  0  2  0  0  0  0  0  0
  -29.9950  -13.2590   20.2130 N   0  0  0  0  0  0  0  0  0  0  0  0
  -31.8000  -14.5890   19.8130 O   0  0  0  0  0  0  0  0  0  0  0  0
  -30.0980  -15.3590   21.0670 N   0  0  0  0  0  0  0  0  0  0  0  0
  -29.1710  -15.1250   21.3850 H   0  0  0  0  0  0  0  0  0  0  0  0
  -25.2200  -13.8990   20.4910 C   0  0  0  0  0  0  0  0  0  0  0  0
  -24.1510  -13.1320   20.8720 C   0  0  0  0  0  0  0  0  0  0  0  0
  -24.6000  -11.7770   20.8130 C   0  0  0  0  0  0  0  0  0  0  0  0
  -26.2530  -13.0140   20.2300 N   0  0  0  0  0  0  0  0  0  0  0  0
  -25.8830  -11.7300   20.4770 N   0  0  0  0  0  0  0  0  0  0  0  0
  -23.8670  -10.5190   21.0020 C   0  0  0  0  0  0  0  0  0  0  0  0
  -24.2830   -9.5560   21.9490 C   0  0  0  0  0  3  0  0  0  0  0  0
  -23.5530   -8.3610   22.1230 C   0  0  0  0  0  3  0  0  0  0  0  0
  -22.3930   -8.1190   21.3490 C   0  0  0  0  0  0  0  0  0  0  0  0
  -21.9940   -9.0730   20.3940 C   0  0  0  0  0  3  0  0  0  0  0  0
  -22.7260  -10.2590   20.2190 C   0  0  0  0  0  3  0  0  0  0  0  0
  -21.6330   -6.9770   21.4310 O   0  0  0  0  0  0  0  0  0  0  0  0
  -21.5430   -6.2580   22.5950 C   0  0  0  0  0  0  0  0  0  0  0  0
  -21.0430   -6.8290   23.7880 C   0  0  0  0  0  3  0  0  0  0  0  0
  -20.8980   -6.0350   24.9410 C   0  0  0  0  0  3  0  0  0  0  0  0
  -21.2450   -4.6700   24.9070 C   0  0  0  0  0  0  0  0  0  0  0  0
  -21.7390   -4.1000   23.7220 C   0  0  0  0  0  3  0  0  0  0  0  0
  -21.8840   -4.8910   22.5690 C   0  0  0  0  0  0  0  0  0  0  0  0
  -22.3400   -4.3290   21.4220 F   0  0  0  0  0  0  0  0  0  0  0  0
  -21.0990   -3.9060   26.0160 F   0  0  0  0  0  0  0  0  0  0  0  0
  -22.7650  -13.6200   21.1790 C   0  0  0  0  0  0  0  0  0  0  0  0
  -22.0390  -12.9110   22.0360 N   0  0  0  0  0  0  0  0  0  0  0  0
  -22.3340  -14.6650   20.6940 O   0  0  0  0  0  0  0  0  0  0  0  0
  -22.3990  -12.0670   22.4560 H   0  0  0  0  0  0  0  0  0  0  0  0
  -21.1080  -13.2230   22.2760 H   0  0  0  0  0  0  0  0  0  0  0  0
  -25.3910  -15.2710   20.3270 N   0  0  0  0  0  0  0  0  0  0  0  0
  -24.6220  -15.9220   20.4450 H   0  0  0  0  0  0  0  0  0  0  0  0
  -26.2130  -15.7020   19.9250 H   0  0  0  0  0  0  0  0  0  0  0  0
  -30.4020  -23.2260   21.0910 C   0  0  0  0  0  2  0  0  0  0  0  0
  -29.2410  -23.6700   21.9830 C   0  0  0  0  0  3  0  0  0  0  0  0
  -28.9670  -22.9760   23.0180 N   0  0  0  0  0  2  0  0  0  0  0  0
  -28.1880  -23.4150   23.5030 H   0  0  0  0  0  0  0  0  0  0  0  0
  -28.4730  -24.9220   21.6040 C   0  0  0  0  0  0  0  0  0  0  0  0
  -27.6960  -25.4480   22.4140 O   0  0  0  0  0  0  0  0  0  0  0  0
  -28.6270  -25.4930   20.1780 C   0  0  0  0  0  2  0  0  0  0  0  0
  -28.5050  -26.9070   20.1700 O   0  0  0  0  0  0  0  0  0  0  0  0
  -24.5600  -31.8830   23.2180 C   0  0  0  0  0  0  0  0  0  0  0  0
  -27.2680  -27.5030   20.1640 C   0  0  0  0  0  0  0  0  0  0  0  0
  -23.3680  -30.4690   21.5720 C   0  0  0  0  0  3  0  0  0  0  0  0
  -24.8390  -28.9310   20.1700 C   0  0  0  0  0  0  0  0  0  0  0  0
  -25.8830  -30.8590   21.3760 C   0  0  0  0  0  2  0  0  0  0  0  0
  -25.9820  -29.4890   20.7490 C   0  0  0  0  0  0  0  0  0  0  0  0
  -27.1960  -28.7830   20.7400 C   0  0  0  0  0  3  0  0  0  0  0  0
  -26.1060  -26.9310   19.5950 C   0  0  0  0  0  3  0  0  0  0  0  0
  -24.8910  -27.6470   19.5960 C   0  0  0  0  0  3  0  0  0  0  0  0
  -23.5860  -29.7750   20.2000 C   0  0  0  0  0  2  0  0  0  0  0  0
  -24.6230  -31.0850   22.1130 N   0  0  0  0  0  0  0  0  0  0  0  0
  -23.4750  -32.1490   23.7520 O   0  0  0  0  0  0  0  0  0  0  0  0
  -22.7180  -29.4490   22.5340 C   0  0  0  0  0  0  0  0  0  0  0  0
  -21.3940  -29.2700   22.4040 N   0  0  0  0  0  0  0  0  0  0  0  0
  -23.4030  -28.8220   23.3470 O   0  0  0  0  0  0  0  0  0  0  0  0
  -20.9040  -29.8320   21.7220 H   0  0  0  0  0  0  0  0  0  0  0  0
  -18.0130  -28.1220   22.9250 C   0  0  0  0  0  0  0  0  0  0  0  0
  -20.5750  -28.3360   23.1740 C   0  0  0  0  0  3  0  0  0  0  0  0
  -20.6490  -26.9120   22.5780 C   0  0  0  0  0  2  0  0  0  0  0  0
  -19.5310  -26.6190   21.5730 C   0  0  0  0  0  2  0  0  0  0  0  0
  -18.1590  -26.7790   22.2340 C   0  0  0  0  0  2  0  0  0  0  0  0
  -19.1470  -28.8610   23.3540 C   0  0  0  0  0  0  0  0  0  0  0  0
  -18.9540  -30.1230   23.9590 C   0  0  0  0  0  3  0  0  0  0  0  0
  -17.6590  -30.6420   24.1460 C   0  0  0  0  0  3  0  0  0  0  0  0
  -16.5390  -29.8990   23.7330 C   0  0  0  0  0  3  0  0  0  0  0  0
  -16.7180  -28.6430   23.1280 C   0  0  0  0  0  3  0  0  0  0  0  0
  -25.8410  -32.5160   23.8470 C   0  0  0  0  0  3  0  0  0  0  0  0
  -25.5270  -33.9140   24.1670 N   0  0  0  0  0  0  0  0  0  0  0  0
  -25.8810  -34.9640   23.4150 C   0  0  0  0  0  0  0  0  0  0  0  0
  -26.5760  -34.8590   22.3990 O   0  0  0  0  0  0  0  0  0  0  0  0
  -24.9040  -34.0680   24.9470 H   0  0  0  0  0  0  0  0  0  0  0  0
  -24.1800  -36.7710   23.0020 C   0  0  0  0  0  1  0  0  0  0  0  0
  -25.3860  -36.3540   23.8590 C   0  0  0  0  0  3  0  0  0  0  0  0
  -27.4910  -37.2250   24.7780 C   0  0  0  0  0  1  0  0  0  0  0  0
  -26.4290  -37.4010   23.7890 N   0  0  0  0  0  0  0  0  0  0  0  0
  -26.0230  -38.3230   23.9190 H   0  0  0  0  0  0  0  0  0  0  0  0
  -26.3590  -31.7480   25.1240 C   0  0  1  0  0  0  0  0  0  0  0  0
  -25.2610  -31.5050   26.1870 C   0  0  0  0  0  1  0  0  0  0  0  0
  -26.9480  -30.3720   24.7290 C   0  0  0  0  0  1  0  0  0  0  0  0
  -27.5020  -32.5510   25.7900 C   0  0  0  0  0  1  0  0  0  0  0  0
  1 10  1  0
  1  2  1  0
  2  4  1  0
  3  1  2  0
  5  3  1  0
  6  3  1  0
  7  8  2  0
  7 10  1  0
  8 11  1  0
 10 12  2  0
 11 22  1  0
 11  9  2  0
 12 13  1  0
 12  9  1  0
 14 22  1  0
 15 20  1  0
 16 17  1  0
 16 15  1  0
 18 17  1  0
 18 27  1  0
 18 19  1  0
 20 14  1  0
 20 19  1  0
 21 14  2  0
 22 23  1  0
 24 25  2  0
 25 44  1  0
 26 25  1  0
 26 29  1  0
 27 28  1  0
 27 24  1  0
 28 26  2  0
 29 30  1  0
 30 31  2  0
 32 35  1  0
 32 31  1  0
 33 32  2  0
 34 33  1  0
 34 29  2  0
 35 36  1  0
 36 37  1  0
 37 38  2  0
 39 38  1  0
 39 43  1  0
 40 39  2  0
 41 36  2  0
 41 40  1  0
 42 41  1  0
 44 45  1  0
 45 48  1  0
 45 47  1  0
 46 44  2  0
 49 50  1  0
 49 24  1  0
 51 49  1  0
 52  2  1  0
 53 52  1  0
 53 54  1  0
 54 55  1  0
 56 53  1  0
 56 57  2  0
 58 56  1  0
 59 58  1  0
 60 71  2  0
 61 59  1  0
 61 66  1  0
 62 70  1  0
 62 72  1  0
 63 69  1  0
 63 65  1  0
 64 70  1  0
 65 64  1  0
 66 65  2  0
 67 68  1  0
 67 61  2  0
 68 63  2  0
 69 62  1  0
 70 60  1  0
 72 74  2  0
 73 72  1  0
 75 73  1  0
 76 85  2  0
 76 81  1  0
 77 73  1  0
 77 81  1  0
 78 77  1  0
 79 80  1  0
 79 78  1  0
 80 76  1  0
 81 82  2  0
 82 83  1  0
 84 83  2  0
 85 84  1  0
 86 60  1  0
 86 87  1  0
 86 96  1  0
 87 90  1  0
 88 92  1  0
 88 87  1  0
 89 88  2  0
 92 91  1  0
 94 92  1  0
 94 95  1  0
 94 93  1  0
 96 99  1  1
 96 97  1  0
 98 96  1  0
M  ISO  4  14 100  22 100  58 101  59 101
M  END
>  <TORSDO>  (77) 
F 21

>  <SCORE>  (77) 
-14.003

>  <name>  (77) 
77

>  <ligand_id>  (77) 
77

>  <original_smiles>  (77) 
[H]N=C(C(=O)C([H])([H])Oc1c([H])c([H])c2c(c1[H])C([H])([H])N(C(=O)C([H])(N([H])C(=O)C([H])(N([H])C([H])([H])[H])C([H])([H])[H])C(C([H])([H])[H])(C([H])([H])[H])C([H])([H])[H])C([H])(C(=O)N([H])C1([H])c3c([H])c([H])c([H])c([H])c3C([H])([H])C([H])([H])C1([H])[H])C2([H])[H])C([H])([H])N([H])C(c1c([H])c([H])c(N([H])C(=O)N2C([H])([H])C([H])([H])C([H])([H])C([H])(n3nc(-c4c([H])c([H])c(Oc5c([H])c([H])c(F)c([H])c5F)c([H])c4[H])c(C(=O)N([H])[H])c3N([H])[H])C2([H])[H])c([H])c1F)=[N+]([H])[H]

>  <smiles>  (77) 
[H]N=C(C(=O)C([H])([H])Oc1c([H])c([H])c2c(c1[H])C([H])([H])N(C(=O)C([H])(N([H])C(=O)C([H])(N([H])C([H])([H])[H])C([H])([H])[H])C(C([H])([H])[H])(C([H])([H])[H])C([H])([H])[H])C([H])(C(=O)N([H])C1([H])c3c([H])c([H])c([H])c([H])c3C([H])([H])C([H])([H])C1([H])[H])C2([H])[H])C([H])([H])N([H])C(c1c([H])c([H])c(N([H])C(=O)N2C([H])([H])C([H])([H])C([H])([H])C([H])(n3nc(-c4c([H])c([H])c(Oc5c([H])c([H])c(F)c([H])c5F)c([H])c4[H])c(C(=O)N([H])[H])c3N([H])[H])C2([H])[H])c([H])c1F)=[N+]([H])[H]

$$$$
78:0:0
     RDKit          3D

100108  0  0  1  0  0  0  0  0999 V2000
  -30.0990  -16.9140   22.3980 C   0  0  0  0  0  3  0  0  0  0  0  0
  -29.9130  -17.4620   20.0290 C   0  0  0  0  0  3  0  0  0  0  0  0
  -30.6010  -18.2040   22.6840 C   0  0  0  0  0  0  0  0  0  0  0  0
  -29.7810  -16.5280   21.0830 C   0  0  0  0  0  0  0  0  0  0  0  0
  -30.3920  -18.7690   20.2900 C   0  0  0  0  0  0  0  0  0  0  0  0
  -30.7590  -19.1340   21.6150 C   0  0  0  0  0  0  0  0  0  0  0  0
  -29.9780  -14.2090   20.2970 C   0  0  0  0  0  0  0  0  0  0  0  0
  -29.9430  -11.8150   19.6740 C   0  0  0  0  0  2  0  0  0  0  0  0
  -29.0110  -11.5720   18.4720 C   0  0  0  0  0  2  0  0  0  0  0  0
  -27.5580  -11.3590   18.9390 C   0  0  0  0  0  2  0  0  0  0  0  0
  -27.0910  -12.4460   19.9440 C   0  0  0  0  0  3  0  0  0  0  0  0
  -28.1360  -12.6590   21.0620 C   0  0  0  0  0  2  0  0  0  0  0  0
  -29.4280  -12.9710   20.4260 N   0  0  0  0  0  0  0  0  0  0  0  0
  -31.0170  -14.4190   19.6640 O   0  0  0  0  0  0  0  0  0  0  0  0
  -29.2850  -15.2140   20.8600 N   0  0  0  0  0  0  0  0  0  0  0  0
  -28.4470  -14.9490   21.3540 H   0  0  0  0  0  0  0  0  0  0  0  0
  -24.7090  -12.9900   20.7590 C   0  0  0  0  0  0  0  0  0  0  0  0
  -23.6820  -12.1880   21.1800 C   0  0  0  0  0  0  0  0  0  0  0  0
  -24.1840  -10.8510   21.1420 C   0  0  0  0  0  0  0  0  0  0  0  0
  -25.7690  -12.1360   20.4870 N   0  0  0  0  0  0  0  0  0  0  0  0
  -25.4590  -10.8470   20.7730 N   0  0  0  0  0  0  0  0  0  0  0  0
  -23.5090   -9.5700   21.3790 C   0  0  0  0  0  0  0  0  0  0  0  0
  -24.0490   -8.6020   22.2530 C   0  0  0  0  0  3  0  0  0  0  0  0
  -23.3730   -7.3840   22.4790 C   0  0  0  0  0  3  0  0  0  0  0  0
  -22.1410   -7.1250   21.8310 C   0  0  0  0  0  0  0  0  0  0  0  0
  -21.6190   -8.0830   20.9450 C   0  0  0  0  0  3  0  0  0  0  0  0
  -22.2950   -9.2940   20.7160 C   0  0  0  0  0  3  0  0  0  0  0  0
  -21.4270   -5.9590   21.9700 O   0  0  0  0  0  0  0  0  0  0  0  0
  -21.5240   -5.1860   23.1000 C   0  0  0  0  0  0  0  0  0  0  0  0
  -21.1680   -5.6800   24.3740 C   0  0  0  0  0  3  0  0  0  0  0  0
  -21.2150   -4.8290   25.4980 C   0  0  0  0  0  3  0  0  0  0  0  0
  -21.6080   -3.4860   25.3490 C   0  0  0  0  0  0  0  0  0  0  0  0
  -21.9570   -2.9910   24.0810 C   0  0  0  0  0  3  0  0  0  0  0  0
  -21.9130   -3.8380   22.9590 C   0  0  0  0  0  0  0  0  0  0  0  0
  -22.2280   -3.3500   21.7360 F   0  0  0  0  0  0  0  0  0  0  0  0
  -21.6470   -2.6680   26.4270 F   0  0  0  0  0  0  0  0  0  0  0  0
  -22.2840  -12.6230   21.5120 C   0  0  0  0  0  0  0  0  0  0  0  0
  -21.6200  -11.9180   22.4220 N   0  0  0  0  0  0  0  0  0  0  0  0
  -21.7870  -13.6260   20.9980 O   0  0  0  0  0  0  0  0  0  0  0  0
  -22.0340  -11.1080   22.8580 H   0  0  0  0  0  0  0  0  0  0  0  0
  -20.6850  -12.1930   22.6870 H   0  0  0  0  0  0  0  0  0  0  0  0
  -24.8270  -14.3640   20.5720 N   0  0  0  0  0  0  0  0  0  0  0  0
  -24.0670  -15.0070   20.7680 H   0  0  0  0  0  0  0  0  0  0  0  0
  -25.6730  -14.8340   20.2710 H   0  0  0  0  0  0  0  0  0  0  0  0
  -30.2660  -21.4600   21.9410 C   0  0  0  0  0  1  0  0  0  0  0  0
  -31.2860  -20.4240   21.8190 N   0  0  0  0  0  0  0  0  0  0  0  0
  -32.0070  -20.6530   21.1410 H   0  0  0  0  0  0  0  0  0  0  0  0
  -30.9740  -18.5310   24.0870 C   0  0  0  0  0  3  0  0  0  0  0  0
  -30.6610  -17.8550   25.1130 N   0  0  0  0  0  0  0  0  0  0  0  0
  -31.0390  -18.2740   25.9560 H   0  0  0  0  0  0  0  0  0  0  0  0
  -30.5360  -19.7390   19.2790 N   0  0  0  0  0  0  0  0  0  0  0  0
  -31.0440  -20.5550   19.6090 H   0  0  0  0  0  0  0  0  0  0  0  0
  -29.3550  -20.1830   18.5370 C   0  0  0  0  0  2  0  0  0  0  0  0
  -29.2520  -21.7210   18.5080 C   0  0  0  0  0  0  0  0  0  0  0  0
  -30.0340  -22.4030   19.1850 O   0  0  0  0  0  0  0  0  0  0  0  0
  -28.1180  -22.3370   17.6750 C   0  0  0  0  0  2  0  0  0  0  0  0
  -28.2710  -23.8530   17.4470 C   0  0  0  0  0  0  0  0  0  0  0  0
  -28.9560  -24.2960   16.5170 O   0  0  0  0  0  0  0  0  0  0  0  0
  -27.4840  -24.7930   18.3770 C   0  0  0  0  0  2  0  0  0  0  0  0
  -27.7110  -26.1810   18.0570 O   0  0  0  0  0  0  0  0  0  0  0  0
  -25.3570  -30.5810   23.1410 C   0  0  0  0  0  0  0  0  0  0  0  0
  -26.7220  -27.0450   18.4710 C   0  0  0  0  0  0  0  0  0  0  0  0
  -23.7280  -30.0010   21.3720 C   0  0  0  0  0  3  0  0  0  0  0  0
  -24.6870  -28.8120   19.3300 C   0  0  0  0  0  0  0  0  0  0  0  0
  -26.2390  -30.0130   20.8800 C   0  0  0  0  0  2  0  0  0  0  0  0
  -25.9840  -28.9340   19.8470 C   0  0  0  0  0  0  0  0  0  0  0  0
  -27.0070  -28.0600   19.4130 C   0  0  0  0  0  3  0  0  0  0  0  0
  -25.4120  -26.9440   17.9510 C   0  0  0  0  0  3  0  0  0  0  0  0
  -24.3960  -27.8190   18.3810 C   0  0  0  0  0  3  0  0  0  0  0  0
  -23.6500  -29.7880   19.8370 C   0  0  0  0  0  2  0  0  0  0  0  0
  -25.1340  -30.1910   21.8530 N   0  0  0  0  0  0  0  0  0  0  0  0
  -24.4140  -30.8220   23.9080 O   0  0  0  0  0  0  0  0  0  0  0  0
  -22.9950  -28.8310   22.0690 C   0  0  0  0  0  0  0  0  0  0  0  0
  -21.6530  -28.8480   22.0160 N   0  0  0  0  0  0  0  0  0  0  0  0
  -23.6280  -27.9250   22.6160 O   0  0  0  0  0  0  0  0  0  0  0  0
  -21.2090  -29.6310   21.5560 H   0  0  0  0  0  0  0  0  0  0  0  0
  -18.1820  -27.9040   22.3560 C   0  0  0  0  0  0  0  0  0  0  0  0
  -20.7570  -27.8340   22.5690 C   0  0  0  0  0  3  0  0  0  0  0  0
  -20.6950  -26.5880   21.6540 C   0  0  0  0  0  2  0  0  0  0  0  0
  -19.5470  -26.6380   20.6420 C   0  0  0  0  0  2  0  0  0  0  0  0
  -18.2000  -26.7530   21.3630 C   0  0  0  0  0  2  0  0  0  0  0  0
  -19.3830  -28.4210   22.9100 C   0  0  0  0  0  0  0  0  0  0  0  0
  -19.3120  -29.5140   23.8000 C   0  0  0  0  0  3  0  0  0  0  0  0
  -18.0710  -30.0850   24.1420 C   0  0  0  0  0  3  0  0  0  0  0  0
  -16.8840  -29.5590   23.6040 C   0  0  0  0  0  3  0  0  0  0  0  0
  -16.9400  -28.4690   22.7170 C   0  0  0  0  0  3  0  0  0  0  0  0
  -26.8010  -30.7690   23.7020 C   0  0  0  0  0  3  0  0  0  0  0  0
  -26.8250  -32.0360   24.4430 N   0  0  0  0  0  0  0  0  0  0  0  0
  -27.3680  -33.1740   23.9890 C   0  0  0  0  0  0  0  0  0  0  0  0
  -27.9720  -33.2450   22.9150 O   0  0  0  0  0  0  0  0  0  0  0  0
  -26.2990  -32.0670   25.3040 H   0  0  0  0  0  0  0  0  0  0  0  0
  -26.1050  -35.3270   24.2970 C   0  0  0  0  0  1  0  0  0  0  0  0
  -27.2170  -34.4310   24.8660 C   0  0  0  0  0  3  0  0  0  0  0  0
  -29.4950  -34.5310   25.7790 C   0  0  0  0  0  1  0  0  0  0  0  0
  -28.4670  -35.2120   24.9950 N   0  0  0  0  0  0  0  0  0  0  0  0
  -28.2840  -36.1130   25.4290 H   0  0  0  0  0  0  0  0  0  0  0  0
  -27.2710  -29.5760   24.6220 C   0  0  1  0  0  0  0  0  0  0  0  0
  -26.2710  -29.2300   25.7480 C   0  0  0  0  0  1  0  0  0  0  0  0
  -27.5010  -28.2970   23.7820 C   0  0  0  0  0  1  0  0  0  0  0  0
  -28.6270  -29.9240   25.2810 C   0  0  0  0  0  1  0  0  0  0  0  0
  1  3  1  0
  2  5  2  0
  2  4  1  0
  3 48  1  0
  4  1  2  0
  5  6  1  0
  6 46  1  0
  6  3  2  0
  7 13  1  0
  7 15  1  0
  8 13  1  0
  9 10  1  0
  9  8  1  0
 11 10  1  0
 11 20  1  0
 11 12  1  0
 13 12  1  0
 14  7  2  0
 15  4  1  0
 15 16  1  0
 17 18  2  0
 18 37  1  0
 19 18  1  0
 19 22  1  0
 20 17  1  0
 20 21  1  0
 21 19  2  0
 22 23  1  0
 23 24  2  0
 25 28  1  0
 25 24  1  0
 26 25  2  0
 27 26  1  0
 27 22  2  0
 28 29  1  0
 29 30  1  0
 30 31  2  0
 32 31  1  0
 32 36  1  0
 33 32  2  0
 34 29  2  0
 34 33  1  0
 35 34  1  0
 37 38  1  0
 38 41  1  0
 38 40  1  0
 39 37  2  0
 42 17  1  0
 42 43  1  0
 44 42  1  0
 46 45  1  0
 47 46  1  0
 48 49  2  0
 49 50  1  0
 51 52  1  0
 51  5  1  0
 53 51  1  0
 54 53  1  0
 54 55  2  0
 56 54  1  0
 57 56  1  0
 57 59  1  0
 58 57  2  0
 60 59  1  0
 60 62  1  0
 61 72  2  0
 62 67  1  0
 63 71  1  0
 63 73  1  0
 64 70  1  0
 64 66  1  0
 65 71  1  0
 66 65  1  0
 67 66  2  0
 68 69  1  0
 68 62  2  0
 69 64  2  0
 70 63  1  0
 71 61  1  0
 73 75  2  0
 74 73  1  0
 76 74  1  0
 77 86  2  0
 77 82  1  0
 78 74  1  0
 78 82  1  0
 79 78  1  0
 80 81  1  0
 80 79  1  0
 81 77  1  0
 82 83  2  0
 83 84  1  0
 85 84  2  0
 86 85  1  0
 87 61  1  0
 87 88  1  0
 87 97  1  0
 88 91  1  0
 89 88  1  0
 89 93  1  0
 90 89  2  0
 93 92  1  0
 93 95  1  0
 95 96  1  0
 95 94  1  0
 97100  1  1
 97 98  1  0
 99 97  1  0
M  ISO  4   7 100  15 100  59 101  60 101
M  END
>  <TORSDO>  (78) 
F 24

>  <SCORE>  (78) 
-7.065

>  <name>  (78) 
78

>  <ligand_id>  (78) 
78

>  <original_smiles>  (78) 
[H]N=C([H])c1c([H])c(N([H])C(=O)N2C([H])([H])C([H])([H])C([H])([H])C([H])(n3nc(-c4c([H])c([H])c(Oc5c([H])c([H])c(F)c([H])c5F)c([H])c4[H])c(C(=O)N([H])[H])c3N([H])[H])C2([H])[H])c([H])c(N([H])C([H])([H])C(=O)C([H])([H])C(=O)C([H])([H])Oc2c([H])c([H])c3c(c2[H])C([H])([H])N(C(=O)C([H])(N([H])C(=O)C([H])(N([H])C([H])([H])[H])C([H])([H])[H])C(C([H])([H])[H])(C([H])([H])[H])C([H])([H])[H])C([H])(C(=O)N([H])C2([H])c4c([H])c([H])c([H])c([H])c4C([H])([H])C([H])([H])C2([H])[H])C3([H])[H])c1N([H])C([H])([H])[H]

>  <smiles>  (78) 
[H]N=C([H])c1c([H])c(N([H])C(=O)N2C([H])([H])C([H])([H])C([H])([H])C([H])(n3nc(-c4c([H])c([H])c(Oc5c([H])c([H])c(F)c([H])c5F)c([H])c4[H])c(C(=O)N([H])[H])c3N([H])[H])C2([H])[H])c([H])c(N([H])C([H])([H])C(=O)C([H])([H])C(=O)C([H])([H])Oc2c([H])c([H])c3c(c2[H])C([H])([H])N(C(=O)C([H])(N([H])C(=O)C([H])(N([H])C([H])([H])[H])C([H])([H])[H])C(C([H])([H])[H])(C([H])([H])[H])C([H])([H])[H])C([H])(C(=O)N([H])C2([H])c4c([H])c([H])c([H])c([H])c4C([H])([H])C([H])([H])C2([H])[H])C3([H])[H])c1N([H])C([H])([H])[H]

$$$$
79:0:0
     RDKit          3D

 91 99  0  0  1  0  0  0  0  0999 V2000
  -28.3880  -20.4030   20.8660 C   0  0  0  0  0  3  0  0  0  0  0  0
  -29.6160  -18.6860   20.1850 C   0  0  0  0  0  0  0  0  0  0  0  0
  -30.0550  -19.9050   19.6040 C   0  0  0  0  0  0  0  0  0  0  0  0
  -28.5390  -19.0680   21.0030 N   0  0  0  0  0  0  0  0  0  0  0  0
  -29.2500  -21.0150   20.0310 N   0  0  0  0  0  0  0  0  0  0  0  0
  -31.0940  -20.1440   18.7070 N   0  0  0  0  0  0  0  0  0  0  0  0
  -31.3420  -21.0580   18.3420 H   0  0  0  0  0  0  0  0  0  0  0  0
  -31.7240  -19.4200   18.3690 H   0  0  0  0  0  0  0  0  0  0  0  0
  -30.2170  -17.2470   19.9410 C   0  0  0  0  0  3  0  0  0  0  0  0
  -29.8870  -16.0480   20.4020 N   0  0  0  0  0  0  0  0  0  0  0  0
  -30.6630  -14.8880   20.0230 C   0  0  0  0  0  0  0  0  0  0  0  0
  -30.4250  -12.5990   19.0270 C   0  0  0  0  0  2  0  0  0  0  0  0
  -29.4340  -12.6690   17.8410 C   0  0  0  0  0  2  0  0  0  0  0  0
  -27.9850  -12.4850   18.3310 C   0  0  0  0  0  2  0  0  0  0  0  0
  -27.6580  -13.3680   19.5660 C   0  0  0  0  0  3  0  0  0  0  0  0
  -28.7670  -13.2960   20.6370 C   0  0  0  0  0  2  0  0  0  0  0  0
  -30.0400  -13.6540   19.9970 N   0  0  0  0  0  0  0  0  0  0  0  0
  -31.8150  -14.9480   19.5860 O   0  0  0  0  0  0  0  0  0  0  0  0
  -25.3160  -13.9310   20.4430 C   0  0  0  0  0  0  0  0  0  0  0  0
  -24.2720  -13.1460   20.8510 C   0  0  0  0  0  0  0  0  0  0  0  0
  -24.7320  -11.7970   20.7590 C   0  0  0  0  0  0  0  0  0  0  0  0
  -26.3450  -13.0610   20.1260 N   0  0  0  0  0  0  0  0  0  0  0  0
  -26.0050  -11.7700   20.3810 N   0  0  0  0  0  0  0  0  0  0  0  0
  -24.0170  -10.5300   20.9590 C   0  0  0  0  0  0  0  0  0  0  0  0
  -24.4660   -9.5630   21.8860 C   0  0  0  0  0  3  0  0  0  0  0  0
  -23.7490   -8.3620   22.0730 C   0  0  0  0  0  3  0  0  0  0  0  0
  -22.5680   -8.1170   21.3340 C   0  0  0  0  0  0  0  0  0  0  0  0
  -22.1370   -9.0710   20.3960 C   0  0  0  0  0  3  0  0  0  0  0  0
  -22.8540  -10.2640   20.2070 C   0  0  0  0  0  3  0  0  0  0  0  0
  -21.8200   -6.9660   21.4320 O   0  0  0  0  0  0  0  0  0  0  0  0
  -21.7570   -6.2450   22.5960 C   0  0  0  0  0  0  0  0  0  0  0  0
  -21.2600   -6.8040   23.7930 C   0  0  0  0  0  3  0  0  0  0  0  0
  -21.1490   -6.0060   24.9490 C   0  0  0  0  0  3  0  0  0  0  0  0
  -21.5220   -4.6500   24.9080 C   0  0  0  0  0  0  0  0  0  0  0  0
  -22.0110   -4.0890   23.7160 C   0  0  0  0  0  3  0  0  0  0  0  0
  -22.1240   -4.8850   22.5610 C   0  0  0  0  0  0  0  0  0  0  0  0
  -22.5770   -4.3340   21.4090 F   0  0  0  0  0  0  0  0  0  0  0  0
  -21.4060   -3.8820   26.0160 F   0  0  0  0  0  0  0  0  0  0  0  0
  -22.8930  -13.6150   21.2090 C   0  0  0  0  0  0  0  0  0  0  0  0
  -22.2080  -12.8940   22.0890 N   0  0  0  0  0  0  0  0  0  0  0  0
  -22.4300  -14.6530   20.7400 O   0  0  0  0  0  0  0  0  0  0  0  0
  -22.5950  -12.0510   22.4900 H   0  0  0  0  0  0  0  0  0  0  0  0
  -21.2820  -13.1870   22.3670 H   0  0  0  0  0  0  0  0  0  0  0  0
  -25.4720  -15.3060   20.2940 N   0  0  0  0  0  0  0  0  0  0  0  0
  -24.7270  -15.9680   20.4820 H   0  0  0  0  0  0  0  0  0  0  0  0
  -26.3310  -15.7510   19.9920 H   0  0  0  0  0  0  0  0  0  0  0  0
  -29.2710  -22.4840   19.5610 C   0  0  0  0  0  2  0  0  0  0  0  0
  -28.7040  -23.7880   20.3160 C   0  0  0  0  0  0  0  0  0  0  0  0
  -28.4170  -23.7200   21.5160 O   0  0  0  0  0  0  0  0  0  0  0  0
  -28.5020  -25.1760   19.5140 C   0  0  0  0  0  2  0  0  0  0  0  0
  -28.3890  -26.4870   20.2630 O   0  0  0  0  0  0  0  0  0  0  0  0
  -24.6630  -31.9510   23.2800 C   0  0  0  0  0  0  0  0  0  0  0  0
  -27.2690  -27.3570   20.1920 C   0  0  0  0  0  0  0  0  0  0  0  0
  -23.4570  -30.5550   21.6420 C   0  0  0  0  0  3  0  0  0  0  0  0
  -24.9040  -29.0090   20.1990 C   0  0  0  0  0  0  0  0  0  0  0  0
  -26.0000  -30.8650   21.4510 C   0  0  0  0  0  2  0  0  0  0  0  0
  -26.0770  -29.4850   20.7960 C   0  0  0  0  0  0  0  0  0  0  0  0
  -27.2560  -28.6690   20.7850 C   0  0  0  0  0  3  0  0  0  0  0  0
  -26.0600  -26.9450   19.5830 C   0  0  0  0  0  3  0  0  0  0  0  0
  -24.9010  -27.7470   19.5860 C   0  0  0  0  0  3  0  0  0  0  0  0
  -23.6690  -29.8880   20.2560 C   0  0  0  0  0  2  0  0  0  0  0  0
  -24.7270  -31.1420   22.1820 N   0  0  0  0  0  0  0  0  0  0  0  0
  -23.5790  -32.2240   23.8170 O   0  0  0  0  0  0  0  0  0  0  0  0
  -22.7970  -29.5360   22.6010 C   0  0  0  0  0  0  0  0  0  0  0  0
  -21.4760  -29.3280   22.4540 N   0  0  0  0  0  0  0  0  0  0  0  0
  -23.4720  -28.9340   23.4390 O   0  0  0  0  0  0  0  0  0  0  0  0
  -20.9890  -29.8630   21.7520 H   0  0  0  0  0  0  0  0  0  0  0  0
  -18.1300  -28.0180   22.8730 C   0  0  0  0  0  0  0  0  0  0  0  0
  -20.6670  -28.3800   23.2230 C   0  0  0  0  0  3  0  0  0  0  0  0
  -20.8410  -26.9390   22.6880 C   0  0  0  0  0  2  0  0  0  0  0  0
  -19.7870  -26.5490   21.6460 C   0  0  0  0  0  2  0  0  0  0  0  0
  -18.3790  -26.6600   22.2380 C   0  0  0  0  0  2  0  0  0  0  0  0
  -19.2040  -28.8310   23.3210 C   0  0  0  0  0  0  0  0  0  0  0  0
  -18.9180  -30.0990   23.8720 C   0  0  0  0  0  3  0  0  0  0  0  0
  -17.5910  -30.5550   23.9790 C   0  0  0  0  0  3  0  0  0  0  0  0
  -16.5300  -29.7400   23.5470 C   0  0  0  0  0  3  0  0  0  0  0  0
  -16.8010  -28.4730   23.0010 C   0  0  0  0  0  3  0  0  0  0  0  0
  -25.9440  -32.5880   23.8990 C   0  0  0  0  0  3  0  0  0  0  0  0
  -25.6400  -33.9930   24.2050 N   0  0  0  0  0  0  0  0  0  0  0  0
  -25.9820  -35.0350   23.4350 C   0  0  0  0  0  0  0  0  0  0  0  0
  -26.6550  -34.9110   22.4080 O   0  0  0  0  0  0  0  0  0  0  0  0
  -25.0460  -34.1630   25.0030 H   0  0  0  0  0  0  0  0  0  0  0  0
  -24.2740  -36.8380   23.0390 C   0  0  0  0  0  1  0  0  0  0  0  0
  -25.5020  -36.4320   23.8700 C   0  0  0  0  0  3  0  0  0  0  0  0
  -27.6300  -37.3130   24.7210 C   0  0  0  0  0  1  0  0  0  0  0  0
  -26.5430  -37.4760   23.7600 N   0  0  0  0  0  0  0  0  0  0  0  0
  -26.1410  -38.4010   23.8900 H   0  0  0  0  0  0  0  0  0  0  0  0
  -26.4450  -31.8370   25.1950 C   0  0  1  0  0  0  0  0  0  0  0  0
  -25.3420  -31.6270   26.2580 C   0  0  0  0  0  1  0  0  0  0  0  0
  -27.0250  -30.4500   24.8320 C   0  0  0  0  0  1  0  0  0  0  0  0
  -27.5900  -32.6390   25.8560 C   0  0  0  0  0  1  0  0  0  0  0  0
  1  4  2  0
  2  4  1  0
  3  5  1  0
  3  2  2  0
  5  1  1  0
  6  3  1  0
  7  6  1  0
  8  6  1  0
  9  2  1  0
  9 10  2  0
 11 10  1  0
 12 17  1  0
 13 14  1  0
 13 12  1  0
 15 14  1  0
 15 22  1  0
 15 16  1  0
 17 11  1  0
 17 16  1  0
 18 11  2  0
 19 20  2  0
 20 39  1  0
 21 20  1  0
 21 24  1  0
 22 23  1  0
 22 19  1  0
 23 21  2  0
 24 25  1  0
 25 26  2  0
 27 30  1  0
 27 26  1  0
 28 27  2  0
 29 28  1  0
 29 24  2  0
 30 31  1  0
 31 32  1  0
 32 33  2  0
 34 33  1  0
 34 38  1  0
 35 34  2  0
 36 31  2  0
 36 35  1  0
 37 36  1  0
 39 40  1  0
 40 43  1  0
 40 42  1  0
 41 39  2  0
 44 19  1  0
 44 45  1  0
 46 44  1  0
 47  5  1  0
 47 48  1  0
 48 49  2  0
 50 51  1  0
 50 48  1  0
 52 63  2  0
 53 51  1  0
 53 58  1  0
 54 62  1  0
 54 64  1  0
 55 61  1  0
 55 57  1  0
 56 62  1  0
 57 56  1  0
 58 57  2  0
 59 60  1  0
 59 53  2  0
 60 55  2  0
 61 54  1  0
 62 52  1  0
 64 66  2  0
 65 64  1  0
 67 65  1  0
 68 77  2  0
 68 73  1  0
 69 65  1  0
 69 73  1  0
 70 69  1  0
 71 72  1  0
 71 70  1  0
 72 68  1  0
 73 74  2  0
 74 75  1  0
 76 75  2  0
 77 76  1  0
 78 52  1  0
 78 79  1  0
 78 88  1  0
 79 82  1  0
 80 84  1  0
 80 79  1  0
 81 80  2  0
 84 83  1  0
 86 84  1  0
 86 87  1  0
 86 85  1  0
 88 91  1  1
 88 89  1  0
 90 88  1  0
M  ISO  4  10 100  11 100  50 101  51 101
M  END
>  <TORSDO>  (79) 
F 21

>  <SCORE>  (79) 
-13.265

>  <name>  (79) 
79

>  <ligand_id>  (79) 
79

>  <original_smiles>  (79) 
[H]C(=NC(=O)N1C([H])([H])C([H])([H])C([H])([H])C([H])(n2nc(-c3c([H])c([H])c(Oc4c([H])c([H])c(F)c([H])c4F)c([H])c3[H])c(C(=O)N([H])[H])c2N([H])[H])C1([H])[H])c1nc([H])n(C([H])([H])C(=O)C([H])([H])Oc2c([H])c([H])c3c(c2[H])C([H])([H])N(C(=O)C([H])(N([H])C(=O)C([H])(N([H])C([H])([H])[H])C([H])([H])[H])C(C([H])([H])[H])(C([H])([H])[H])C([H])([H])[H])C([H])(C(=O)N([H])C2([H])c4c([H])c([H])c([H])c([H])c4C([H])([H])C([H])([H])C2([H])[H])C3([H])[H])c1N([H])[H]

>  <smiles>  (79) 
[H]C(=NC(=O)N1C([H])([H])C([H])([H])C([H])([H])C([H])(n2nc(-c3c([H])c([H])c(Oc4c([H])c([H])c(F)c([H])c4F)c([H])c3[H])c(C(=O)N([H])[H])c2N([H])[H])C1([H])[H])c1nc([H])n(C([H])([H])C(=O)C([H])([H])Oc2c([H])c([H])c3c(c2[H])C([H])([H])N(C(=O)C([H])(N([H])C(=O)C([H])(N([H])C([H])([H])[H])C([H])([H])[H])C(C([H])([H])[H])(C([H])([H])[H])C([H])([H])[H])C([H])(C(=O)N([H])C2([H])c4c([H])c([H])c([H])c([H])c4C([H])([H])C([H])([H])C2([H])[H])C3([H])[H])c1N([H])[H]

$$$$
80:0:0
     RDKit          3D

 94102  0  0  1  0  0  0  0  0999 V2000
  -30.5880  -19.3710   20.1830 C   0  0  0  0  0  3  0  0  0  0  0  0
  -29.9860  -18.0740   20.3100 C   0  0  0  0  0  0  0  0  0  0  0  0
  -28.6510  -18.2810   20.0190 C   0  0  0  0  0  0  0  0  0  0  0  0
  -29.5870  -20.2500   19.8840 C   0  0  0  0  0  0  0  0  0  0  0  0
  -28.3980  -19.6150   19.7720 O   0  0  0  0  0  0  0  0  0  0  0  0
  -27.5180  -17.3530   19.9840 C   0  0  0  0  0  0  0  0  0  0  0  0
  -26.1690  -17.8880   19.5280 C   0  0  0  0  0  1  0  0  0  0  0  0
  -27.6240  -16.1660   20.3030 O   0  0  0  0  0  0  0  0  0  0  0  0
  -29.7170  -21.6380   19.7210 N   0  0  0  0  0  0  0  0  0  0  0  0
  -30.6320  -22.0790   19.6590 H   0  0  0  0  0  0  0  0  0  0  0  0
  -28.6170  -22.5760   20.0240 C   0  0  0  0  0  2  0  0  0  0  0  0
  -28.9460  -24.0720   19.7470 C   0  0  0  0  0  0  0  0  0  0  0  0
  -29.9270  -24.3830   19.0600 O   0  0  0  0  0  0  0  0  0  0  0  0
  -28.0180  -25.1470   20.3710 C   0  0  0  0  0  2  0  0  0  0  0  0
  -28.2700  -26.5020   19.9050 O   0  0  0  0  0  0  0  0  0  0  0  0
  -24.5790  -31.7270   23.0980 C   0  0  0  0  0  0  0  0  0  0  0  0
  -27.1460  -27.3060   19.9050 C   0  0  0  0  0  0  0  0  0  0  0  0
  -23.3460  -30.3710   21.4390 C   0  0  0  0  0  3  0  0  0  0  0  0
  -24.7750  -28.8550   19.9620 C   0  0  0  0  0  0  0  0  0  0  0  0
  -25.8760  -30.7090   21.2240 C   0  0  0  0  0  2  0  0  0  0  0  0
  -25.9450  -29.3510   20.5500 C   0  0  0  0  0  0  0  0  0  0  0  0
  -27.1390  -28.5860   20.5130 C   0  0  0  0  0  3  0  0  0  0  0  0
  -25.9600  -26.8390   19.2960 C   0  0  0  0  0  3  0  0  0  0  0  0
  -24.7780  -27.6010   19.3280 C   0  0  0  0  0  3  0  0  0  0  0  0
  -23.5380  -29.7230   20.0420 C   0  0  0  0  0  2  0  0  0  0  0  0
  -24.6210  -30.9500   21.9780 N   0  0  0  0  0  0  0  0  0  0  0  0
  -23.5060  -31.9950   23.6550 O   0  0  0  0  0  0  0  0  0  0  0  0
  -22.6970  -29.3340   22.3820 C   0  0  0  0  0  0  0  0  0  0  0  0
  -21.3660  -29.1760   22.2780 N   0  0  0  0  0  0  0  0  0  0  0  0
  -23.3850  -28.6750   23.1660 O   0  0  0  0  0  0  0  0  0  0  0  0
  -20.8730  -29.7600   21.6170 H   0  0  0  0  0  0  0  0  0  0  0  0
  -17.9790  -28.0420   22.8310 C   0  0  0  0  0  0  0  0  0  0  0  0
  -20.5490  -28.2300   23.0370 C   0  0  0  0  0  3  0  0  0  0  0  0
  -20.6010  -26.8190   22.4070 C   0  0  0  0  0  2  0  0  0  0  0  0
  -19.4630  -26.5590   21.4140 C   0  0  0  0  0  2  0  0  0  0  0  0
  -18.1040  -26.7140   22.1020 C   0  0  0  0  0  2  0  0  0  0  0  0
  -19.1280  -28.7620   23.2550 C   0  0  0  0  0  0  0  0  0  0  0  0
  -18.9570  -30.0070   23.8960 C   0  0  0  0  0  3  0  0  0  0  0  0
  -17.6700  -30.5330   24.1170 C   0  0  0  0  0  3  0  0  0  0  0  0
  -16.5360  -29.8100   23.7090 C   0  0  0  0  0  3  0  0  0  0  0  0
  -16.6920  -28.5650   23.0720 C   0  0  0  0  0  3  0  0  0  0  0  0
  -25.8770  -32.3350   23.7180 C   0  0  0  0  0  3  0  0  0  0  0  0
  -25.5790  -33.7240   24.0940 N   0  0  0  0  0  0  0  0  0  0  0  0
  -25.8970  -34.7960   23.3570 C   0  0  0  0  0  0  0  0  0  0  0  0
  -26.5450  -34.7200   22.3090 O   0  0  0  0  0  0  0  0  0  0  0  0
  -25.0040  -33.8570   24.9130 H   0  0  0  0  0  0  0  0  0  0  0  0
  -24.1630  -36.5980   23.0870 C   0  0  0  0  0  1  0  0  0  0  0  0
  -25.4200  -36.1720   23.8610 C   0  0  0  0  0  3  0  0  0  0  0  0
  -27.5730  -37.0320   24.6690 C   0  0  0  0  0  1  0  0  0  0  0  0
  -26.4510  -37.2280   23.7550 N   0  0  0  0  0  0  0  0  0  0  0  0
  -26.0480  -38.1430   23.9400 H   0  0  0  0  0  0  0  0  0  0  0  0
  -26.4110  -31.5230   24.9610 C   0  0  1  0  0  0  0  0  0  0  0  0
  -25.3370  -31.2600   26.0420 C   0  0  0  0  0  1  0  0  0  0  0  0
  -26.9770  -30.1540   24.5160 C   0  0  0  0  0  1  0  0  0  0  0  0
  -27.5800  -32.2880   25.6240 C   0  0  0  0  0  1  0  0  0  0  0  0
  -30.7230  -16.8070   20.7760 C   0  0  0  0  0  2  0  0  0  0  0  0
  -30.6980  -14.4190   20.0340 C   0  0  0  0  0  0  0  0  0  0  0  0
  -30.3250  -12.2310   18.9550 C   0  0  0  0  0  2  0  0  0  0  0  0
  -29.3240  -12.4030   17.7960 C   0  0  0  0  0  2  0  0  0  0  0  0
  -27.8780  -12.2600   18.3080 C   0  0  0  0  0  2  0  0  0  0  0  0
  -27.6010  -13.1200   19.5720 C   0  0  0  0  0  3  0  0  0  0  0  0
  -28.7190  -12.9560   20.6260 C   0  0  0  0  0  2  0  0  0  0  0  0
  -30.0020  -13.2490   19.9710 N   0  0  0  0  0  0  0  0  0  0  0  0
  -31.8020  -14.5480   19.5000 O   0  0  0  0  0  0  0  0  0  0  0  0
  -30.0850  -15.4850   20.5970 N   0  0  0  0  0  0  0  0  0  0  0  0
  -29.1730  -15.3520   21.0170 H   0  0  0  0  0  0  0  0  0  0  0  0
  -25.2580  -13.7160   20.4490 C   0  0  0  0  0  0  0  0  0  0  0  0
  -24.2100  -12.9400   20.8660 C   0  0  0  0  0  0  0  0  0  0  0  0
  -24.6570  -11.5870   20.7680 C   0  0  0  0  0  0  0  0  0  0  0  0
  -26.2810  -12.8350   20.1310 N   0  0  0  0  0  0  0  0  0  0  0  0
  -25.9260  -11.5480   20.3780 N   0  0  0  0  0  0  0  0  0  0  0  0
  -23.9320  -10.3250   20.9680 C   0  0  0  0  0  0  0  0  0  0  0  0
  -24.3870   -9.3480   21.8810 C   0  0  0  0  0  3  0  0  0  0  0  0
  -23.6630   -8.1510   22.0700 C   0  0  0  0  0  3  0  0  0  0  0  0
  -22.4690   -7.9220   21.3450 C   0  0  0  0  0  0  0  0  0  0  0  0
  -22.0330   -8.8870   20.4200 C   0  0  0  0  0  3  0  0  0  0  0  0
  -22.7590  -10.0750   20.2290 C   0  0  0  0  0  3  0  0  0  0  0  0
  -21.7130   -6.7790   21.4440 O   0  0  0  0  0  0  0  0  0  0  0  0
  -21.6600   -6.0490   22.6050 C   0  0  0  0  0  0  0  0  0  0  0  0
  -21.2040   -6.6100   23.8180 C   0  0  0  0  0  3  0  0  0  0  0  0
  -21.1000   -5.8060   24.9700 C   0  0  0  0  0  3  0  0  0  0  0  0
  -21.4420   -4.4420   24.9100 C   0  0  0  0  0  0  0  0  0  0  0  0
  -21.8910   -3.8800   23.7020 C   0  0  0  0  0  3  0  0  0  0  0  0
  -21.9960   -4.6820   22.5520 C   0  0  0  0  0  0  0  0  0  0  0  0
  -22.4100   -4.1310   21.3860 F   0  0  0  0  0  0  0  0  0  0  0  0
  -21.3340   -3.6670   26.0150 F   0  0  0  0  0  0  0  0  0  0  0  0
  -22.8390  -13.4200   21.2410 C   0  0  0  0  0  0  0  0  0  0  0  0
  -22.1600  -12.7060   22.1330 N   0  0  0  0  0  0  0  0  0  0  0  0
  -22.3780  -14.4630   20.7790 O   0  0  0  0  0  0  0  0  0  0  0  0
  -22.5450  -11.8610   22.5290 H   0  0  0  0  0  0  0  0  0  0  0  0
  -21.2420  -13.0090   22.4240 H   0  0  0  0  0  0  0  0  0  0  0  0
  -25.4170  -15.0880   20.2880 N   0  0  0  0  0  0  0  0  0  0  0  0
  -24.6570  -15.7400   20.4470 H   0  0  0  0  0  0  0  0  0  0  0  0
  -26.2500  -15.5230   19.9130 H   0  0  0  0  0  0  0  0  0  0  0  0
  1  2  1  0
  2 56  1  0
  3  2  2  0
  4  1  2  0
  5  4  1  0
  5  3  1  0
  6  3  1  0
  6  8  2  0
  7  6  1  0
  9  4  1  0
  9 11  1  0
 10  9  1  0
 12 11  1  0
 12 14  1  0
 13 12  2  0
 15 17  1  0
 15 14  1  0
 16 27  2  0
 17 22  1  0
 18 26  1  0
 18 28  1  0
 19 25  1  0
 19 21  1  0
 20 26  1  0
 21 20  1  0
 22 21  2  0
 23 24  1  0
 23 17  2  0
 24 19  2  0
 25 18  1  0
 26 16  1  0
 28 30  2  0
 29 28  1  0
 31 29  1  0
 32 41  2  0
 32 37  1  0
 33 29  1  0
 33 37  1  0
 34 33  1  0
 35 36  1  0
 35 34  1  0
 36 32  1  0
 37 38  2  0
 38 39  1  0
 40 39  2  0
 41 40  1  0
 42 16  1  0
 42 43  1  0
 42 52  1  0
 43 46  1  0
 44 48  1  0
 44 43  1  0
 45 44  2  0
 48 47  1  0
 50 48  1  0
 50 51  1  0
 50 49  1  0
 52 55  1  1
 52 53  1  0
 54 52  1  0
 57 65  1  0
 58 63  1  0
 59 60  1  0
 59 58  1  0
 61 60  1  0
 61 70  1  0
 61 62  1  0
 63 57  1  0
 63 62  1  0
 64 57  2  0
 65 56  1  0
 65 66  1  0
 67 68  2  0
 68 87  1  0
 69 68  1  0
 69 72  1  0
 70 71  1  0
 70 67  1  0
 71 69  2  0
 72 73  1  0
 73 74  2  0
 75 78  1  0
 75 74  1  0
 76 75  2  0
 77 76  1  0
 77 72  2  0
 78 79  1  0
 79 80  1  0
 80 81  2  0
 82 81  1  0
 82 86  1  0
 83 82  2  0
 84 79  2  0
 84 83  1  0
 85 84  1  0
 87 88  1  0
 88 91  1  0
 88 90  1  0
 89 87  2  0
 92 93  1  0
 92 67  1  0
 94 92  1  0
M  ISO  4  14 101  15 101  57 100  65 100
M  END
>  <TORSDO>  (80) 
F 22

>  <SCORE>  (80) 
-12.926

>  <name>  (80) 
80

>  <ligand_id>  (80) 
80

>  <original_smiles>  (80) 
[H]c1c([H])c([H])c2c(c1[H])C([H])([H])C([H])([H])C([H])([H])C2([H])N([H])C(=O)C1([H])N(C(=O)C([H])(N([H])C(=O)C([H])(N([H])C([H])([H])[H])C([H])([H])[H])C(C([H])([H])[H])(C([H])([H])[H])C([H])([H])[H])C([H])([H])c2c([H])c(OC([H])([H])C(=O)C([H])([H])N([H])c3oc(C(=O)C([H])([H])[H])c(C([H])([H])N([H])C(=O)N4C([H])([H])C([H])([H])C([H])([H])C([H])(n5nc(-c6c([H])c([H])c(Oc7c([H])c([H])c(F)c([H])c7F)c([H])c6[H])c(C(=O)N([H])[H])c5N([H])[H])C4([H])[H])c3[H])c([H])c([H])c2C1([H])[H]

>  <smiles>  (80) 
[H]c1c([H])c([H])c2c(c1[H])C([H])([H])C([H])([H])C([H])([H])C2([H])N([H])C(=O)C1([H])N(C(=O)C([H])(N([H])C(=O)C([H])(N([H])C([H])([H])[H])C([H])([H])[H])C(C([H])([H])[H])(C([H])([H])[H])C([H])([H])[H])C([H])([H])c2c([H])c(OC([H])([H])C(=O)C([H])([H])N([H])c3oc(C(=O)C([H])([H])[H])c(C([H])([H])N([H])C(=O)N4C([H])([H])C([H])([H])C([H])([H])C([H])(n5nc(-c6c([H])c([H])c(Oc7c([H])c([H])c(F)c([H])c7F)c([H])c6[H])c(C(=O)N([H])[H])c5N([H])[H])C4([H])[H])c3[H])c([H])c([H])c2C1([H])[H]

$$$$
81:0:0
     RDKit          3D

 98106  0  0  1  0  0  0  0  0999 V2000
  -30.2260  -19.8000   19.8510 C   0  0  0  0  0  3  0  0  0  0  0  0
  -29.9870  -18.0080   21.4700 C   0  0  0  0  0  3  0  0  0  0  0  0
  -30.4460  -18.8640   18.8200 C   0  0  0  0  0  0  0  0  0  0  0  0
  -30.3620  -17.4750   19.1080 C   0  0  0  0  0  0  0  0  0  0  0  0
  -29.9870  -19.3880   21.1720 C   0  0  0  0  0  0  0  0  0  0  0  0
  -30.1940  -17.0380   20.4600 C   0  0  0  0  0  0  0  0  0  0  0  0
  -30.3590  -16.4900   17.9450 C   0  0  0  0  0  1  0  0  0  0  0  0
  -30.9020  -14.6310   20.5360 C   0  0  0  0  0  0  0  0  0  0  0  0
  -30.6790  -12.4060   19.5110 C   0  0  0  0  0  2  0  0  0  0  0  0
  -29.7810  -12.5320   18.2610 C   0  0  0  0  0  2  0  0  0  0  0  0
  -28.2870  -12.4510   18.6350 C   0  0  0  0  0  2  0  0  0  0  0  0
  -27.9050  -13.3380   19.8500 C   0  0  0  0  0  3  0  0  0  0  0  0
  -28.9170  -13.1520   21.0040 C   0  0  0  0  0  2  0  0  0  0  0  0
  -30.2620  -13.4340   20.4740 N   0  0  0  0  0  0  0  0  0  0  0  0
  -32.0670  -14.7980   20.1620 O   0  0  0  0  0  0  0  0  0  0  0  0
  -30.1000  -15.6650   20.8590 N   0  0  0  0  0  0  0  0  0  0  0  0
  -29.2490  -15.4040   21.3330 H   0  0  0  0  0  0  0  0  0  0  0  0
  -25.4900  -13.9770   20.4770 C   0  0  0  0  0  0  0  0  0  0  0  0
  -24.4030  -13.2170   20.8220 C   0  0  0  0  0  0  0  0  0  0  0  0
  -24.8540  -11.8610   20.8220 C   0  0  0  0  0  0  0  0  0  0  0  0
  -26.5340  -13.0840   20.2900 N   0  0  0  0  0  0  0  0  0  0  0  0
  -26.1530  -11.8080   20.5550 N   0  0  0  0  0  0  0  0  0  0  0  0
  -24.1130  -10.6060   21.0040 C   0  0  0  0  0  0  0  0  0  0  0  0
  -24.4980   -9.6590   21.9790 C   0  0  0  0  0  3  0  0  0  0  0  0
  -23.7610   -8.4670   22.1470 C   0  0  0  0  0  3  0  0  0  0  0  0
  -22.6260   -8.2150   21.3420 C   0  0  0  0  0  0  0  0  0  0  0  0
  -22.2620   -9.1500   20.3570 C   0  0  0  0  0  3  0  0  0  0  0  0
  -22.9980  -10.3330   20.1860 C   0  0  0  0  0  3  0  0  0  0  0  0
  -21.8640   -7.0730   21.4180 O   0  0  0  0  0  0  0  0  0  0  0  0
  -21.7350   -6.3720   22.5890 C   0  0  0  0  0  0  0  0  0  0  0  0
  -21.1980   -6.9590   23.7550 C   0  0  0  0  0  3  0  0  0  0  0  0
  -21.0170   -6.1820   24.9160 C   0  0  0  0  0  3  0  0  0  0  0  0
  -21.3640   -4.8170   24.9120 C   0  0  0  0  0  0  0  0  0  0  0  0
  -21.8930   -4.2290   23.7490 C   0  0  0  0  0  3  0  0  0  0  0  0
  -22.0750   -5.0040   22.5910 C   0  0  0  0  0  0  0  0  0  0  0  0
  -22.5650   -4.4280   21.4680 F   0  0  0  0  0  0  0  0  0  0  0  0
  -21.1840   -4.0680   26.0250 F   0  0  0  0  0  0  0  0  0  0  0  0
  -23.0020  -13.7050   21.0480 C   0  0  0  0  0  0  0  0  0  0  0  0
  -22.2440  -13.0230   21.9000 N   0  0  0  0  0  0  0  0  0  0  0  0
  -22.5850  -14.7270   20.5020 O   0  0  0  0  0  0  0  0  0  0  0  0
  -22.5950  -12.1980   22.3640 H   0  0  0  0  0  0  0  0  0  0  0  0
  -21.2990  -13.3270   22.0900 H   0  0  0  0  0  0  0  0  0  0  0  0
  -25.6710  -15.3440   20.2890 N   0  0  0  0  0  0  0  0  0  0  0  0
  -24.9090  -16.0080   20.3700 H   0  0  0  0  0  0  0  0  0  0  0  0
  -26.5340  -15.7700   19.9760 H   0  0  0  0  0  0  0  0  0  0  0  0
  -29.6910  -20.3320   22.1670 N   0  0  0  0  0  0  0  0  0  0  0  0
  -29.2440  -19.9350   22.9900 H   0  0  0  0  0  0  0  0  0  0  0  0
  -30.7120  -21.3310   22.5110 C   0  0  0  0  0  2  0  0  0  0  0  0
  -30.8130  -22.6060   21.6250 C   0  0  0  0  0  2  0  0  0  0  0  0
  -29.5680  -23.4970   21.5020 C   0  0  0  0  0  0  0  0  0  0  0  0
  -28.4560  -23.1290   21.8950 O   0  0  0  0  0  0  0  0  0  0  0  0
  -29.7830  -24.8990   20.9080 C   0  0  0  0  0  2  0  0  0  0  0  0
  -28.5460  -25.4700   20.1880 C   0  0  0  0  0  2  0  0  0  0  0  0
  -28.6590  -26.8880   20.0040 O   0  0  0  0  0  0  0  0  0  0  0  0
  -24.5910  -31.7520   23.1870 C   0  0  0  0  0  0  0  0  0  0  0  0
  -27.4610  -27.5680   19.9760 C   0  0  0  0  0  0  0  0  0  0  0  0
  -23.4600  -30.3580   21.4860 C   0  0  0  0  0  3  0  0  0  0  0  0
  -24.9940  -28.9490   20.0130 C   0  0  0  0  0  0  0  0  0  0  0  0
  -25.9650  -30.8490   21.3160 C   0  0  0  0  0  2  0  0  0  0  0  0
  -26.1220  -29.5090   20.6270 C   0  0  0  0  0  0  0  0  0  0  0  0
  -27.3590  -28.8290   20.6030 C   0  0  0  0  0  3  0  0  0  0  0  0
  -26.3170  -27.0220   19.3490 C   0  0  0  0  0  3  0  0  0  0  0  0
  -25.0870  -27.7020   19.3700 C   0  0  0  0  0  3  0  0  0  0  0  0
  -23.7090  -29.7430   20.0810 C   0  0  0  0  0  2  0  0  0  0  0  0
  -24.6890  -30.9990   22.0550 N   0  0  0  0  0  0  0  0  0  0  0  0
  -23.4950  -31.9520   23.7310 O   0  0  0  0  0  0  0  0  0  0  0  0
  -22.8550  -29.2700   22.4010 C   0  0  0  0  0  0  0  0  0  0  0  0
  -21.5480  -29.0090   22.2350 N   0  0  0  0  0  0  0  0  0  0  0  0
  -23.5570  -28.6660   23.2170 O   0  0  0  0  0  0  0  0  0  0  0  0
  -21.0420  -29.5550   21.5510 H   0  0  0  0  0  0  0  0  0  0  0  0
  -18.2470  -27.5900   22.5950 C   0  0  0  0  0  0  0  0  0  0  0  0
  -20.7730  -28.0020   22.9560 C   0  0  0  0  0  3  0  0  0  0  0  0
  -20.9850  -26.5960   22.3500 C   0  0  0  0  0  2  0  0  0  0  0  0
  -19.9370  -26.2280   21.2950 C   0  0  0  0  0  2  0  0  0  0  0  0
  -18.5310  -26.2710   21.8970 C   0  0  0  0  0  2  0  0  0  0  0  0
  -19.3010  -28.4100   23.0790 C   0  0  0  0  0  0  0  0  0  0  0  0
  -18.9830  -29.6420   23.6900 C   0  0  0  0  0  3  0  0  0  0  0  0
  -17.6440  -30.0570   23.8230 C   0  0  0  0  0  3  0  0  0  0  0  0
  -16.6050  -29.2330   23.3570 C   0  0  0  0  0  3  0  0  0  0  0  0
  -16.9070  -28.0010   22.7500 C   0  0  0  0  0  3  0  0  0  0  0  0
  -25.8440  -32.4170   23.8390 C   0  0  0  0  0  3  0  0  0  0  0  0
  -25.4840  -33.8010   24.1740 N   0  0  0  0  0  0  0  0  0  0  0  0
  -25.7930  -34.8670   23.4250 C   0  0  0  0  0  0  0  0  0  0  0  0
  -26.4830  -34.7920   22.4040 O   0  0  0  0  0  0  0  0  0  0  0  0
  -24.8730  -33.9300   24.9660 H   0  0  0  0  0  0  0  0  0  0  0  0
  -24.0140  -36.6020   23.0450 C   0  0  0  0  0  1  0  0  0  0  0  0
  -25.2510  -36.2350   23.8800 C   0  0  0  0  0  3  0  0  0  0  0  0
  -27.3330  -37.1850   24.7680 C   0  0  0  0  0  1  0  0  0  0  0  0
  -26.2500  -37.3220   23.7970 N   0  0  0  0  0  0  0  0  0  0  0  0
  -25.8090  -38.2260   23.9410 H   0  0  0  0  0  0  0  0  0  0  0  0
  -26.3610  -31.6490   25.1170 C   0  0  1  0  0  0  0  0  0  0  0  0
  -25.2550  -31.3670   26.1600 C   0  0  0  0  0  1  0  0  0  0  0  0
  -26.9980  -30.2980   24.7170 C   0  0  0  0  0  1  0  0  0  0  0  0
  -27.4700  -32.4760   25.8080 C   0  0  0  0  0  1  0  0  0  0  0  0
  -30.6990  -19.3780   17.3960 C   0  0  0  0  0  2  0  0  0  0  0  0
  -31.6620  -20.5660   17.3060 C   0  0  0  0  0  0  0  0  0  0  0  0
  -31.0620  -21.9530   17.1050 C   0  0  0  0  0  1  0  0  0  0  0  0
  -32.8830  -20.4110   17.3920 O   0  0  0  0  0  0  0  0  0  0  0  0
  1  5  1  0
  3  4  1  0
  3  1  2  0
  4  6  2  0
  5  2  2  0
  5 46  1  0
  6 16  1  0
  6  2  1  0
  7  4  1  0
  8 16  1  0
  9 14  1  0
 10 11  1  0
 10  9  1  0
 12 11  1  0
 12 21  1  0
 12 13  1  0
 14  8  1  0
 14 13  1  0
 15  8  2  0
 16 17  1  0
 18 19  2  0
 19 38  1  0
 20 19  1  0
 20 23  1  0
 21 18  1  0
 21 22  1  0
 22 20  2  0
 23 24  1  0
 24 25  2  0
 26 29  1  0
 26 25  1  0
 27 26  2  0
 28 27  1  0
 28 23  2  0
 29 30  1  0
 30 35  2  0
 30 31  1  0
 31 32  2  0
 33 32  1  0
 33 37  1  0
 34 33  2  0
 35 34  1  0
 36 35  1  0
 38 39  1  0
 39 42  1  0
 39 41  1  0
 40 38  2  0
 43 44  1  0
 43 18  1  0
 45 43  1  0
 46 48  1  0
 46 47  1  0
 49 48  1  0
 50 49  1  0
 50 51  2  0
 52 50  1  0
 53 52  1  0
 54 53  1  0
 55 66  2  0
 56 54  1  0
 56 61  1  0
 57 65  1  0
 57 67  1  0
 58 64  1  0
 58 60  1  0
 59 65  1  0
 60 59  1  0
 61 60  2  0
 62 63  1  0
 62 56  2  0
 63 58  2  0
 64 57  1  0
 65 55  1  0
 67 69  2  0
 68 67  1  0
 70 68  1  0
 71 80  2  0
 71 76  1  0
 72 68  1  0
 72 76  1  0
 73 72  1  0
 74 75  1  0
 74 73  1  0
 75 71  1  0
 76 77  2  0
 77 78  1  0
 79 78  2  0
 80 79  1  0
 81 55  1  0
 81 82  1  0
 81 91  1  0
 82 85  1  0
 83 87  1  0
 83 82  1  0
 84 83  2  0
 87 86  1  0
 89 87  1  0
 89 90  1  0
 89 88  1  0
 91 94  1  1
 91 92  1  0
 93 91  1  0
 95  3  1  0
 96 98  2  0
 96 95  1  0
 97 96  1  0
M  ISO  4   8 100  16 100  53 101  54 101
M  END
>  <TORSDO>  (81) 
F 24

>  <SCORE>  (81) 
-11.830

>  <name>  (81) 
81

>  <ligand_id>  (81) 
81

>  <original_smiles>  (81) 
[H]c1c([H])c([H])c2c(c1[H])C([H])([H])C([H])([H])C([H])([H])C2([H])N([H])C(=O)C1([H])N(C(=O)C([H])(N([H])C(=O)C([H])(N([H])C([H])([H])[H])C([H])([H])[H])C(C([H])([H])[H])(C([H])([H])[H])C([H])([H])[H])C([H])([H])c2c([H])c(OC([H])([H])C([H])([H])C(=O)C([H])([H])C([H])([H])N([H])c3c([H])c(N([H])C(=O)N4C([H])([H])C([H])([H])C([H])([H])C([H])(n5nc(-c6c([H])c([H])c(Oc7c([H])c([H])c(F)c([H])c7F)c([H])c6[H])c(C(=O)N([H])[H])c5N([H])[H])C4([H])[H])c(C([H])([H])[H])c(C([H])([H])C(=O)C([H])([H])[H])c3[H])c([H])c([H])c2C1([H])[H]

>  <smiles>  (81) 
[H]c1c([H])c([H])c2c(c1[H])C([H])([H])C([H])([H])C([H])([H])C2([H])N([H])C(=O)C1([H])N(C(=O)C([H])(N([H])C(=O)C([H])(N([H])C([H])([H])[H])C([H])([H])[H])C(C([H])([H])[H])(C([H])([H])[H])C([H])([H])[H])C([H])([H])c2c([H])c(OC([H])([H])C([H])([H])C(=O)C([H])([H])C([H])([H])N([H])c3c([H])c(N([H])C(=O)N4C([H])([H])C([H])([H])C([H])([H])C([H])(n5nc(-c6c([H])c([H])c(Oc7c([H])c([H])c(F)c([H])c7F)c([H])c6[H])c(C(=O)N([H])[H])c5N([H])[H])C4([H])[H])c(C([H])([H])[H])c(C([H])([H])C(=O)C([H])([H])[H])c3[H])c([H])c([H])c2C1([H])[H]

$$$$
82:0:0
     RDKit          3D

103111  0  0  1  0  0  0  0  0999 V2000
  -30.8390  -21.4010   20.9900 C   0  0  0  0  0  3  0  0  0  0  0  0
  -30.9220  -20.2290   21.4990 N   0  0  0  0  0  0  0  0  0  0  0  0
  -28.7840  -19.3920   20.5180 C   0  0  0  0  0  3  0  0  0  0  0  0
  -28.4090  -16.9960   20.3770 C   0  0  0  0  0  3  0  0  0  0  0  0
  -30.4750  -17.8410   21.3510 C   0  0  0  0  0  3  0  0  0  0  0  0
  -27.9660  -18.3070   20.1450 C   0  0  0  0  0  0  0  0  0  0  0  0
  -30.0640  -19.1790   21.1040 C   0  0  0  0  0  0  0  0  0  0  0  0
  -29.6490  -16.7440   20.9980 C   0  0  0  0  0  0  0  0  0  0  0  0
  -30.5790  -14.5340   20.5370 C   0  0  0  0  0  0  0  0  0  0  0  0
  -30.3080  -12.4340   19.2680 C   0  0  0  0  0  2  0  0  0  0  0  0
  -29.3190  -12.6500   18.1040 C   0  0  0  0  0  2  0  0  0  0  0  0
  -27.8660  -12.4250   18.5680 C   0  0  0  0  0  2  0  0  0  0  0  0
  -27.5380  -13.1860   19.8760 C   0  0  0  0  0  3  0  0  0  0  0  0
  -28.6350  -12.9680   20.9470 C   0  0  0  0  0  2  0  0  0  0  0  0
  -29.9400  -13.3410   20.3660 N   0  0  0  0  0  0  0  0  0  0  0  0
  -31.6270  -14.8330   19.9560 O   0  0  0  0  0  0  0  0  0  0  0  0
  -29.9670  -15.4020   21.3580 N   0  0  0  0  0  0  0  0  0  0  0  0
  -29.2570  -14.9430   21.9070 H   0  0  0  0  0  0  0  0  0  0  0  0
  -25.1370  -13.7140   20.6420 C   0  0  0  0  0  0  0  0  0  0  0  0
  -24.0920  -12.8990   20.9870 C   0  0  0  0  0  0  0  0  0  0  0  0
  -24.5950  -11.5630   20.9190 C   0  0  0  0  0  0  0  0  0  0  0  0
  -26.2040  -12.8680   20.3730 N   0  0  0  0  0  0  0  0  0  0  0  0
  -25.8830  -11.5710   20.6000 N   0  0  0  0  0  0  0  0  0  0  0  0
  -23.9190  -10.2740   21.0940 C   0  0  0  0  0  0  0  0  0  0  0  0
  -24.3780   -9.3240   22.0330 C   0  0  0  0  0  3  0  0  0  0  0  0
  -23.7040   -8.0950   22.1960 C   0  0  0  0  0  3  0  0  0  0  0  0
  -22.5570   -7.8100   21.4200 C   0  0  0  0  0  0  0  0  0  0  0  0
  -22.1160   -8.7490   20.4710 C   0  0  0  0  0  3  0  0  0  0  0  0
  -22.7920   -9.9680   20.3050 C   0  0  0  0  0  3  0  0  0  0  0  0
  -21.8520   -6.6340   21.4910 O   0  0  0  0  0  0  0  0  0  0  0  0
  -21.7770   -5.9070   22.6510 C   0  0  0  0  0  0  0  0  0  0  0  0
  -21.2340   -6.4490   23.8370 C   0  0  0  0  0  3  0  0  0  0  0  0
  -21.1130   -5.6440   24.9880 C   0  0  0  0  0  3  0  0  0  0  0  0
  -21.5260   -4.2980   24.9520 C   0  0  0  0  0  0  0  0  0  0  0  0
  -22.0650   -3.7570   23.7720 C   0  0  0  0  0  3  0  0  0  0  0  0
  -22.1860   -4.5580   22.6250 C   0  0  0  0  0  0  0  0  0  0  0  0
  -22.6850   -4.0250   21.4830 F   0  0  0  0  0  0  0  0  0  0  0  0
  -21.4020   -3.5230   26.0550 F   0  0  0  0  0  0  0  0  0  0  0  0
  -22.6860  -13.3230   21.2960 C   0  0  0  0  0  0  0  0  0  0  0  0
  -21.9940  -12.5800   22.1530 N   0  0  0  0  0  0  0  0  0  0  0  0
  -22.2110  -14.3510   20.8170 O   0  0  0  0  0  0  0  0  0  0  0  0
  -22.3910  -11.7440   22.5570 H   0  0  0  0  0  0  0  0  0  0  0  0
  -21.0550  -12.8500   22.4020 H   0  0  0  0  0  0  0  0  0  0  0  0
  -25.2740  -15.1000   20.5500 N   0  0  0  0  0  0  0  0  0  0  0  0
  -24.4180  -15.5230   20.8960 H   0  0  0  0  0  0  0  0  0  0  0  0
  -26.0480  -15.3760   21.1450 H   0  0  0  0  0  0  0  0  0  0  0  0
  -26.6610  -18.5290   19.5140 C   0  0  0  0  0  0  0  0  0  0  0  0
  -26.5250  -19.4520   18.5660 N   0  0  0  0  0  4  0  0  0  0  0  0
  -25.5880  -17.8110   19.8470 N   0  0  0  0  0  0  0  0  0  0  0  0
  -27.3420  -19.9440   18.2390 H   0  0  0  0  0  0  0  0  0  0  0  0
  -25.6560  -19.6090   18.0810 H   0  0  0  0  0  0  0  0  0  0  0  0
  -25.6420  -17.0460   20.5190 H   0  0  0  0  0  0  0  0  0  0  0  0
  -24.6910  -17.9570   19.4130 H   0  0  0  0  0  0  0  0  0  0  0  0
  -33.0680  -22.5910   20.7620 C   0  0  0  0  0  1  0  0  0  0  0  0
  -31.6770  -22.5970   21.4290 C   0  0  0  0  0  3  0  0  0  0  0  0
  -30.2250  -24.5410   22.2050 C   0  0  0  0  0  3  0  0  0  0  0  0
  -30.9030  -23.9080   21.2160 C   0  0  0  0  0  0  0  0  0  0  0  0
  -29.4360  -25.8020   22.1620 C   0  0  0  0  0  0  0  0  0  0  0  0
  -28.6060  -26.0400   23.0430 O   0  0  0  0  0  0  0  0  0  0  0  0
  -29.6140  -26.8560   21.0560 C   0  0  0  0  0  2  0  0  0  0  0  0
  -28.5840  -26.7220   20.0690 O   0  0  0  0  0  0  0  0  0  0  0  0
  -24.6220  -31.8280   23.2030 C   0  0  0  0  0  0  0  0  0  0  0  0
  -27.4300  -27.4780   20.1500 C   0  0  0  0  0  0  0  0  0  0  0  0
  -23.4720  -30.4210   21.5220 C   0  0  0  0  0  3  0  0  0  0  0  0
  -24.9850  -28.9160   20.1240 C   0  0  0  0  0  0  0  0  0  0  0  0
  -25.9900  -30.8280   21.3810 C   0  0  0  0  0  2  0  0  0  0  0  0
  -26.1160  -29.4600   20.7480 C   0  0  0  0  0  0  0  0  0  0  0  0
  -27.3350  -28.7490   20.7700 C   0  0  0  0  0  3  0  0  0  0  0  0
  -26.2830  -26.9520   19.5180 C   0  0  0  0  0  3  0  0  0  0  0  0
  -25.0620  -27.6540   19.5100 C   0  0  0  0  0  3  0  0  0  0  0  0
  -23.7240  -29.7500   20.1450 C   0  0  0  0  0  2  0  0  0  0  0  0
  -24.7100  -31.0400   22.0950 N   0  0  0  0  0  0  0  0  0  0  0  0
  -23.5250  -32.0790   23.7240 O   0  0  0  0  0  0  0  0  0  0  0  0
  -22.8170  -29.3810   22.4620 C   0  0  0  0  0  0  0  0  0  0  0  0
  -21.4990  -29.1770   22.3020 N   0  0  0  0  0  0  0  0  0  0  0  0
  -23.4910  -28.7640   23.2900 O   0  0  0  0  0  0  0  0  0  0  0  0
  -21.0170  -29.7280   21.6060 H   0  0  0  0  0  0  0  0  0  0  0  0
  -18.1350  -27.9290   22.7110 C   0  0  0  0  0  0  0  0  0  0  0  0
  -20.6800  -28.2200   23.0450 C   0  0  0  0  0  3  0  0  0  0  0  0
  -20.8180  -26.7960   22.4570 C   0  0  0  0  0  2  0  0  0  0  0  0
  -19.7440  -26.4670   21.4150 C   0  0  0  0  0  2  0  0  0  0  0  0
  -18.3460  -26.5870   22.0280 C   0  0  0  0  0  2  0  0  0  0  0  0
  -19.2320  -28.7010   23.1740 C   0  0  0  0  0  0  0  0  0  0  0  0
  -18.9820  -29.9560   23.7730 C   0  0  0  0  0  3  0  0  0  0  0  0
  -17.6680  -30.4390   23.9120 C   0  0  0  0  0  3  0  0  0  0  0  0
  -16.5840  -29.6630   23.4650 C   0  0  0  0  0  3  0  0  0  0  0  0
  -16.8180  -28.4100   22.8710 C   0  0  0  0  0  3  0  0  0  0  0  0
  -25.8870  -32.4700   23.8550 C   0  0  0  0  0  3  0  0  0  0  0  0
  -25.5570  -33.8630   24.1790 N   0  0  0  0  0  0  0  0  0  0  0  0
  -25.8920  -34.9190   23.4230 C   0  0  0  0  0  0  0  0  0  0  0  0
  -26.5820  -34.8220   22.4050 O   0  0  0  0  0  0  0  0  0  0  0  0
  -24.9460  -34.0120   24.9690 H   0  0  0  0  0  0  0  0  0  0  0  0
  -24.1490  -36.6890   23.0320 C   0  0  0  0  0  1  0  0  0  0  0  0
  -25.3790  -36.3010   23.8690 C   0  0  0  0  0  3  0  0  0  0  0  0
  -27.4830  -37.2140   24.7450 C   0  0  0  0  0  1  0  0  0  0  0  0
  -26.4020  -37.3650   23.7750 N   0  0  0  0  0  0  0  0  0  0  0  0
  -25.9810  -38.2810   23.9100 H   0  0  0  0  0  0  0  0  0  0  0  0
  -26.3870  -31.6970   25.1380 C   0  0  1  0  0  0  0  0  0  0  0  0
  -25.2730  -31.4410   26.1790 C   0  0  0  0  0  1  0  0  0  0  0  0
  -26.9950  -30.3270   24.7490 C   0  0  0  0  0  1  0  0  0  0  0  0
  -27.5140  -32.5000   25.8290 C   0  0  0  0  0  1  0  0  0  0  0  0
  -31.0030  -24.3110   19.9350 O   0  0  0  0  0  0  0  0  0  0  0  0
  -30.4760  -25.0870   19.8080 H   0  0  0  0  0  0  0  0  0  0  0  0
  1 55  1  0
  1  2  2  0
  3  7  1  0
  4  8  2  0
  6  4  1  0
  6  3  2  0
  7  5  2  0
  7  2  1  0
  8  5  1  0
  8 17  1  0
  9 17  1  0
 10 15  1  0
 11 12  1  0
 11 10  1  0
 13 12  1  0
 13 22  1  0
 13 14  1  0
 15  9  1  0
 15 14  1  0
 16  9  2  0
 17 18  1  0
 19 20  2  0
 20 39  1  0
 21 20  1  0
 21 24  1  0
 22 23  1  0
 22 19  1  0
 23 21  2  0
 24 25  1  0
 25 26  2  0
 27 30  1  0
 27 26  1  0
 28 27  2  0
 29 28  1  0
 29 24  2  0
 30 31  1  0
 31 32  1  0
 32 33  2  0
 34 33  1  0
 34 38  1  0
 35 34  2  0
 36 31  2  0
 36 35  1  0
 37 36  1  0
 39 40  1  0
 40 43  1  0
 40 42  1  0
 41 39  2  0
 44 19  1  0
 44 45  1  0
 44 46  1  0
 47 49  1  0
 47  6  1  0
 48 47  2  0
 49 52  1  0
 50 48  1  0
 51 48  1  0
 53 49  1  0
 55 54  1  0
 57 55  1  0
 57 56  2  0
 58 56  1  0
 58 59  2  0
 60 58  1  0
 61 63  1  0
 61 60  1  0
 62 73  2  0
 63 68  1  0
 64 72  1  0
 64 74  1  0
 65 71  1  0
 65 67  1  0
 66 72  1  0
 67 68  2  0
 67 66  1  0
 69 63  2  0
 70 69  1  0
 70 65  2  0
 71 64  1  0
 72 62  1  0
 74 76  2  0
 75 74  1  0
 77 75  1  0
 78 87  2  0
 78 83  1  0
 79 75  1  0
 79 83  1  0
 80 79  1  0
 81 82  1  0
 81 80  1  0
 82 78  1  0
 83 84  2  0
 84 85  1  0
 86 85  2  0
 87 86  1  0
 88 62  1  0
 88 89  1  0
 88 98  1  0
 89 92  1  0
 90 94  1  0
 90 89  1  0
 91 90  2  0
 94 93  1  0
 96 94  1  0
 96 97  1  0
 96 95  1  0
 98101  1  1
 98 99  1  0
100 98  1  0
102 57  1  0
103102  1  0
M  ISO  4   9 100  17 100  60 101  61 101
M  END
>  <TORSDO>  (82) 
F 23

>  <SCORE>  (82) 
-12.856

>  <name>  (82) 
82

>  <ligand_id>  (82) 
82

>  <original_smiles>  (82) 
[H]OC(=C([H])C(=O)C([H])([H])Oc1c([H])c([H])c2c(c1[H])C([H])([H])N(C(=O)C([H])(N([H])C(=O)C([H])(N([H])C([H])([H])[H])C([H])([H])[H])C(C([H])([H])[H])(C([H])([H])[H])C([H])([H])[H])C([H])(C(=O)N([H])C1([H])c3c([H])c([H])c([H])c([H])c3C([H])([H])C([H])([H])C1([H])[H])C2([H])[H])C([H])(C([H])=Nc1c([H])c(C(N([H])[H])=[N+]([H])[H])c([H])c(N([H])C(=O)N2C([H])([H])C([H])([H])C([H])([H])C([H])(n3nc(-c4c([H])c([H])c(Oc5c([H])c([H])c(F)c([H])c5F)c([H])c4[H])c(C(=O)N([H])[H])c3N([H])[H])C2([H])[H])c1[H])C([H])([H])[H]

>  <smiles>  (82) 
[H]OC(=C([H])C(=O)C([H])([H])Oc1c([H])c([H])c2c(c1[H])C([H])([H])N(C(=O)C([H])(N([H])C(=O)C([H])(N([H])C([H])([H])[H])C([H])([H])[H])C(C([H])([H])[H])(C([H])([H])[H])C([H])([H])[H])C([H])(C(=O)N([H])C1([H])c3c([H])c([H])c([H])c([H])c3C([H])([H])C([H])([H])C1([H])[H])C2([H])[H])C([H])(C([H])=Nc1c([H])c(C(N([H])[H])=[N+]([H])[H])c([H])c(N([H])C(=O)N2C([H])([H])C([H])([H])C([H])([H])C([H])(n3nc(-c4c([H])c([H])c(Oc5c([H])c([H])c(F)c([H])c5F)c([H])c4[H])c(C(=O)N([H])[H])c3N([H])[H])C2([H])[H])c1[H])C([H])([H])[H]

$$$$
83:0:0
     RDKit          3D

103111  0  0  1  0  0  0  0  0999 V2000
  -29.8690  -17.8580   20.6420 C   0  0  0  0  0  3  0  0  0  0  0  0
  -28.9610  -19.4250   22.2940 C   0  0  0  0  0  3  0  0  0  0  0  0
  -29.1320  -17.0580   22.8200 C   0  0  0  0  0  3  0  0  0  0  0  0
  -29.4930  -19.1970   21.0000 C   0  0  0  0  0  0  0  0  0  0  0  0
  -29.6850  -16.7790   21.5550 C   0  0  0  0  0  0  0  0  0  0  0  0
  -28.7700  -18.3620   23.2000 C   0  0  0  0  0  0  0  0  0  0  0  0
  -30.5950  -14.5340   20.5990 C   0  0  0  0  0  0  0  0  0  0  0  0
  -30.4570  -12.3530   19.4070 C   0  0  0  0  0  2  0  0  0  0  0  0
  -29.5050  -12.5200   18.1990 C   0  0  0  0  0  2  0  0  0  0  0  0
  -28.0230  -12.3600   18.6060 C   0  0  0  0  0  2  0  0  0  0  0  0
  -27.6630  -13.1850   19.8680 C   0  0  0  0  0  3  0  0  0  0  0  0
  -28.7040  -12.9160   20.9770 C   0  0  0  0  0  2  0  0  0  0  0  0
  -30.0300  -13.3000   20.4480 N   0  0  0  0  0  0  0  0  0  0  0  0
  -31.6950  -14.8420   20.1220 O   0  0  0  0  0  0  0  0  0  0  0  0
  -29.7730  -15.3760   21.2670 N   0  0  0  0  0  0  0  0  0  0  0  0
  -29.0060  -14.8530   21.6600 H   0  0  0  0  0  0  0  0  0  0  0  0
  -25.2620  -13.8120   20.5640 C   0  0  0  0  0  0  0  0  0  0  0  0
  -24.1850  -13.0430   20.9150 C   0  0  0  0  0  0  0  0  0  0  0  0
  -24.6360  -11.6880   20.8720 C   0  0  0  0  0  0  0  0  0  0  0  0
  -26.3010  -12.9220   20.3290 N   0  0  0  0  0  0  0  0  0  0  0  0
  -25.9270  -11.6400   20.5700 N   0  0  0  0  0  0  0  0  0  0  0  0
  -23.9020  -10.4280   21.0400 C   0  0  0  0  0  0  0  0  0  0  0  0
  -24.3590   -9.4210   21.9180 C   0  0  0  0  0  3  0  0  0  0  0  0
  -23.6270   -8.2240   22.0760 C   0  0  0  0  0  3  0  0  0  0  0  0
  -22.4260   -8.0270   21.3540 C   0  0  0  0  0  0  0  0  0  0  0  0
  -21.9880   -9.0250   20.4650 C   0  0  0  0  0  3  0  0  0  0  0  0
  -22.7190  -10.2140   20.3050 C   0  0  0  0  0  3  0  0  0  0  0  0
  -21.6620   -6.8880   21.4240 O   0  0  0  0  0  0  0  0  0  0  0  0
  -21.6840   -6.0730   22.5270 C   0  0  0  0  0  0  0  0  0  0  0  0
  -21.4010   -6.5630   23.8210 C   0  0  0  0  0  3  0  0  0  0  0  0
  -21.3650   -5.6780   24.9170 C   0  0  0  0  0  3  0  0  0  0  0  0
  -21.6040   -4.3050   24.7210 C   0  0  0  0  0  0  0  0  0  0  0  0
  -21.8810   -3.8130   23.4340 C   0  0  0  0  0  3  0  0  0  0  0  0
  -21.9190   -4.6950   22.3400 C   0  0  0  0  0  0  0  0  0  0  0  0
  -22.1670   -4.2140   21.0980 F   0  0  0  0  0  0  0  0  0  0  0  0
  -21.5620   -3.4530   25.7730 F   0  0  0  0  0  0  0  0  0  0  0  0
  -22.7880  -13.5270   21.1810 C   0  0  0  0  0  0  0  0  0  0  0  0
  -22.0490  -12.8300   22.0370 N   0  0  0  0  0  0  0  0  0  0  0  0
  -22.3600  -14.5580   20.6650 O   0  0  0  0  0  0  0  0  0  0  0  0
  -22.4040  -11.9940   22.4770 H   0  0  0  0  0  0  0  0  0  0  0  0
  -21.1120  -13.1380   22.2550 H   0  0  0  0  0  0  0  0  0  0  0  0
  -25.4420  -15.1840   20.4060 N   0  0  0  0  0  0  0  0  0  0  0  0
  -24.6840  -15.8480   20.5220 H   0  0  0  0  0  0  0  0  0  0  0  0
  -26.3000  -15.6180   20.0880 H   0  0  0  0  0  0  0  0  0  0  0  0
  -29.5960  -20.3520   20.0090 C   0  0  0  0  0  0  0  0  0  0  0  0
  -29.1440  -21.5780   20.3840 N   0  0  0  0  0  0  0  0  0  0  0  0
  -30.0590  -20.1550   18.8850 O   0  0  0  0  0  0  0  0  0  0  0  0
  -28.7810  -21.6620   21.3230 H   0  0  0  0  0  0  0  0  0  0  0  0
  -29.0670  -22.7800   19.5150 C   0  0  0  0  0  3  0  0  0  0  0  0
  -28.7250  -24.1390   20.2380 C   0  0  0  0  0  3  0  0  0  0  0  0
  -28.5910  -25.4210   19.3310 C   0  0  0  0  0  3  0  0  0  0  0  0
  -29.8270  -25.6060   18.4350 C   0  0  0  0  0  0  0  0  0  0  0  0
  -29.7800  -25.0060   17.0330 C   0  0  0  0  0  1  0  0  0  0  0  0
  -30.8360  -26.1980   18.8300 O   0  0  0  0  0  0  0  0  0  0  0  0
  -28.4190  -26.6480   20.1010 O   0  0  0  0  0  0  0  0  0  0  0  0
  -24.6190  -31.8630   23.2050 C   0  0  0  0  0  0  0  0  0  0  0  0
  -27.2380  -27.3850   20.0780 C   0  0  0  0  0  0  0  0  0  0  0  0
  -23.4090  -30.4860   21.5480 C   0  0  0  0  0  3  0  0  0  0  0  0
  -24.8540  -28.9450   20.1130 C   0  0  0  0  0  0  0  0  0  0  0  0
  -25.9450  -30.8080   21.3700 C   0  0  0  0  0  2  0  0  0  0  0  0
  -26.0180  -29.4410   20.7110 C   0  0  0  0  0  0  0  0  0  0  0  0
  -27.2070  -28.6680   20.6910 C   0  0  0  0  0  3  0  0  0  0  0  0
  -26.0390  -26.9070   19.4950 C   0  0  0  0  0  3  0  0  0  0  0  0
  -24.8620  -27.6790   19.5080 C   0  0  0  0  0  3  0  0  0  0  0  0
  -23.6190  -29.8180   20.1640 C   0  0  0  0  0  2  0  0  0  0  0  0
  -24.6760  -31.0680   22.0980 N   0  0  0  0  0  0  0  0  0  0  0  0
  -23.5380  -32.1420   23.7420 O   0  0  0  0  0  0  0  0  0  0  0  0
  -22.7440  -29.4630   22.4970 C   0  0  0  0  0  0  0  0  0  0  0  0
  -21.4160  -29.3030   22.3700 N   0  0  0  0  0  0  0  0  0  0  0  0
  -23.4180  -28.8170   23.3030 O   0  0  0  0  0  0  0  0  0  0  0  0
  -20.9330  -29.8780   21.6950 H   0  0  0  0  0  0  0  0  0  0  0  0
  -18.0280  -28.1380   22.8490 C   0  0  0  0  0  0  0  0  0  0  0  0
  -20.5870  -28.3670   23.1300 C   0  0  0  0  0  3  0  0  0  0  0  0
  -20.6760  -26.9400   22.5410 C   0  0  0  0  0  2  0  0  0  0  0  0
  -19.5750  -26.6380   21.5200 C   0  0  0  0  0  2  0  0  0  0  0  0
  -18.1930  -26.7930   22.1620 C   0  0  0  0  0  2  0  0  0  0  0  0
  -19.1530  -28.8840   23.2890 C   0  0  0  0  0  0  0  0  0  0  0  0
  -18.9460  -30.1450   23.8900 C   0  0  0  0  0  3  0  0  0  0  0  0
  -17.6460  -30.6580   24.0560 C   0  0  0  0  0  3  0  0  0  0  0  0
  -16.5350  -29.9080   23.6330 C   0  0  0  0  0  3  0  0  0  0  0  0
  -16.7270  -28.6500   23.0350 C   0  0  0  0  0  3  0  0  0  0  0  0
  -25.9080  -32.4780   23.8360 C   0  0  0  0  0  3  0  0  0  0  0  0
  -25.5920  -33.8590   24.2290 N   0  0  0  0  0  0  0  0  0  0  0  0
  -25.9040  -34.9450   23.5110 C   0  0  0  0  0  0  0  0  0  0  0  0
  -26.5610  -34.8910   22.4670 O   0  0  0  0  0  0  0  0  0  0  0  0
  -25.0080  -33.9730   25.0440 H   0  0  0  0  0  0  0  0  0  0  0  0
  -24.1490  -36.7300   23.2640 C   0  0  0  0  0  1  0  0  0  0  0  0
  -25.4120  -36.3090   24.0330 C   0  0  0  0  0  3  0  0  0  0  0  0
  -27.5580  -37.1810   24.8460 C   0  0  0  0  0  1  0  0  0  0  0  0
  -26.4300  -37.3770   23.9400 N   0  0  0  0  0  0  0  0  0  0  0  0
  -26.0190  -38.2850   24.1390 H   0  0  0  0  0  0  0  0  0  0  0  0
  -26.4490  -31.6580   25.0720 C   0  0  1  0  0  0  0  0  0  0  0  0
  -25.3740  -31.3740   26.1460 C   0  0  0  0  0  1  0  0  0  0  0  0
  -27.0320  -30.3010   24.6140 C   0  0  0  0  0  1  0  0  0  0  0  0
  -27.6070  -32.4320   25.7470 C   0  0  0  0  0  1  0  0  0  0  0  0
  -28.1800  -18.5290   24.4570 N   0  0  0  0  0  0  0  0  0  0  0  0
  -27.9880  -17.7350   25.0670 H   0  0  0  0  0  0  0  0  0  0  0  0
  -27.9720  -19.8280   25.0830 C   0  0  0  0  0  2  0  0  0  0  0  0
  -27.3410  -19.6220   26.4660 C   0  0  0  0  0  0  0  0  0  0  0  0
  -26.2270  -20.6820   28.3920 C   0  0  0  0  0  1  0  0  0  0  0  0
  -26.8690  -20.7040   27.0840 N   0  0  0  0  0  0  0  0  0  0  0  0
  -27.2780  -18.4940   26.9650 O   0  0  0  0  0  0  0  0  0  0  0  0
  -26.9480  -21.5960   26.6110 H   0  0  0  0  0  0  0  0  0  0  0  0
  1  4  2  0
  1  5  1  0
  2  6  2  0
  3  6  1  0
  4  2  1  0
  5  3  2  0
  6 96  1  0
  7 15  1  0
  8 13  1  0
  9 10  1  0
  9  8  1  0
 11 10  1  0
 11 20  1  0
 11 12  1  0
 13  7  1  0
 13 12  1  0
 14  7  2  0
 15  5  1  0
 15 16  1  0
 17 18  2  0
 18 37  1  0
 19 18  1  0
 19 22  1  0
 20 17  1  0
 20 21  1  0
 21 19  2  0
 22 23  1  0
 23 24  2  0
 25 28  1  0
 25 24  1  0
 26 25  2  0
 27 26  1  0
 27 22  2  0
 28 29  1  0
 29 30  1  0
 30 31  2  0
 32 31  1  0
 32 36  1  0
 33 32  2  0
 34 29  2  0
 34 33  1  0
 35 34  1  0
 37 38  1  0
 38 41  1  0
 38 40  1  0
 39 37  2  0
 42 43  1  0
 42 17  1  0
 44 42  1  0
 45 46  1  0
 45  4  1  0
 46 48  1  0
 47 45  2  0
 49 50  2  0
 49 46  1  0
 51 55  1  0
 51 50  1  0
 52 54  2  0
 52 51  1  0
 53 52  1  0
 56 67  2  0
 57 55  1  0
 57 62  1  0
 58 66  1  0
 58 68  1  0
 59 65  1  0
 59 61  1  0
 60 66  1  0
 61 60  1  0
 62 61  2  0
 63 64  1  0
 63 57  2  0
 64 59  2  0
 65 58  1  0
 66 56  1  0
 68 70  2  0
 69 68  1  0
 71 69  1  0
 72 81  2  0
 72 77  1  0
 73 69  1  0
 73 77  1  0
 74 73  1  0
 75 76  1  0
 75 74  1  0
 76 72  1  0
 77 78  2  0
 78 79  1  0
 80 79  2  0
 81 80  1  0
 82 56  1  0
 82 83  1  0
 82 92  1  0
 83 86  1  0
 84 88  1  0
 84 83  1  0
 85 84  2  0
 88 87  1  0
 90 88  1  0
 90 91  1  0
 90 89  1  0
 92 95  1  1
 92 93  1  0
 94 92  1  0
 96 97  1  0
 96 98  1  0
 98 99  1  0
 99102  2  0
 99101  1  0
101100  1  0
103101  1  0
M  ISO  4   7 100  15 100  51 101  55 101
M  END
>  <TORSDO>  (83) 
F 24

>  <SCORE>  (83) 
19.376

>  <name>  (83) 
83

>  <ligand_id>  (83) 
83

>  <original_smiles>  (83) 
[H]c1c([H])c([H])c2c(c1[H])C([H])([H])C([H])([H])C([H])([H])C2([H])N([H])C(=O)C1([H])N(C(=O)C([H])(N([H])C(=O)C([H])(N([H])C([H])([H])[H])C([H])([H])[H])C(C([H])([H])[H])(C([H])([H])[H])C([H])([H])[H])C([H])([H])c2c([H])c(OC([H])(C(=O)C([H])([H])[H])C([H])([H])C([H])([H])N([H])C(=O)c3c([H])c(N([H])C(=O)N4C([H])([H])C([H])([H])C([H])([H])C([H])(n5nc(-c6c([H])c([H])c(Oc7c([H])c([H])c(F)c([H])c7F)c([H])c6[H])c(C(=O)N([H])[H])c5N([H])[H])C4([H])[H])c([H])c(N([H])C([H])([H])C(=O)N([H])C([H])([H])[H])c3[H])c([H])c([H])c2C1([H])[H]

>  <smiles>  (83) 
[H]c1c([H])c([H])c2c(c1[H])C([H])([H])C([H])([H])C([H])([H])C2([H])N([H])C(=O)C1([H])N(C(=O)C([H])(N([H])C(=O)C([H])(N([H])C([H])([H])[H])C([H])([H])[H])C(C([H])([H])[H])(C([H])([H])[H])C([H])([H])[H])C([H])([H])c2c([H])c(OC([H])(C(=O)C([H])([H])[H])C([H])([H])C([H])([H])N([H])C(=O)c3c([H])c(N([H])C(=O)N4C([H])([H])C([H])([H])C([H])([H])C([H])(n5nc(-c6c([H])c([H])c(Oc7c([H])c([H])c(F)c([H])c7F)c([H])c6[H])c(C(=O)N([H])[H])c5N([H])[H])C4([H])[H])c([H])c(N([H])C([H])([H])C(=O)N([H])C([H])([H])[H])c3[H])c([H])c([H])c2C1([H])[H]

$$$$
84:0:0
     RDKit          3D

 96105  0  0  1  0  0  0  0  0999 V2000
  -27.1920  -21.2780   18.5340 C   0  0  0  0  0  2  0  0  0  0  0  0
  -28.2740  -20.2270   18.8350 C   0  0  0  0  0  2  0  0  0  0  0  0
  -27.7430  -22.6970   18.7380 C   0  0  0  0  0  2  0  0  0  0  0  0
  -28.8770  -20.4170   20.2470 C   0  0  0  0  0  3  0  0  0  0  0  0
  -28.3590  -22.8660   20.1470 C   0  0  0  0  0  3  0  0  0  0  0  0
  -29.3870  -21.8150   20.3940 N   0  0  0  0  0  4  0  0  0  0  0  0
  -30.1550  -21.9740   19.7620 H   0  0  0  0  0  0  0  0  0  0  0  0
  -29.7340  -21.9370   21.3310 H   0  0  0  0  0  0  0  0  0  0  0  0
  -32.1450  -18.5740   21.2390 C   0  0  0  0  0  3  0  0  0  0  0  0
  -31.2430  -19.6050   20.9140 C   0  0  0  0  0  3  0  0  0  0  0  0
  -31.7320  -17.2310   21.2210 C   0  0  0  0  0  3  0  0  0  0  0  0
  -29.4910  -17.9430   20.5890 C   0  0  0  0  0  3  0  0  0  0  0  0
  -29.8970  -19.3070   20.5890 C   0  0  0  0  0  0  0  0  0  0  0  0
  -30.4050  -16.8940   20.8690 C   0  0  0  0  0  0  0  0  0  0  0  0
  -30.6280  -14.5010   20.2300 C   0  0  0  0  0  0  0  0  0  0  0  0
  -30.2500  -12.3740   19.0420 C   0  0  0  0  0  2  0  0  0  0  0  0
  -29.2590  -12.6110   17.8840 C   0  0  0  0  0  2  0  0  0  0  0  0
  -27.8060  -12.4630   18.3770 C   0  0  0  0  0  2  0  0  0  0  0  0
  -27.5270  -13.2730   19.6720 C   0  0  0  0  0  3  0  0  0  0  0  0
  -28.6310  -13.0350   20.7270 C   0  0  0  0  0  2  0  0  0  0  0  0
  -29.9280  -13.3410   20.1040 N   0  0  0  0  0  0  0  0  0  0  0  0
  -31.7360  -14.6570   19.7090 O   0  0  0  0  0  0  0  0  0  0  0  0
  -29.9730  -15.5280   20.8140 N   0  0  0  0  0  0  0  0  0  0  0  0
  -29.0230  -15.3360   21.0870 H   0  0  0  0  0  0  0  0  0  0  0  0
  -25.1620  -13.8600   20.4970 C   0  0  0  0  0  0  0  0  0  0  0  0
  -24.1100  -13.0790   20.8940 C   0  0  0  0  0  0  0  0  0  0  0  0
  -24.5700  -11.7290   20.8130 C   0  0  0  0  0  0  0  0  0  0  0  0
  -26.1960  -12.9860   20.2040 N   0  0  0  0  0  0  0  0  0  0  0  0
  -25.8450  -11.6980   20.4510 N   0  0  0  0  0  0  0  0  0  0  0  0
  -23.8510  -10.4620   21.0060 C   0  0  0  0  0  0  0  0  0  0  0  0
  -24.2980   -9.4940   21.9330 C   0  0  0  0  0  3  0  0  0  0  0  0
  -23.5800   -8.2910   22.1120 C   0  0  0  0  0  3  0  0  0  0  0  0
  -22.4040   -8.0490   21.3650 C   0  0  0  0  0  0  0  0  0  0  0  0
  -21.9760   -9.0050   20.4280 C   0  0  0  0  0  3  0  0  0  0  0  0
  -22.6950  -10.1990   20.2460 C   0  0  0  0  0  3  0  0  0  0  0  0
  -21.6560   -6.8990   21.4560 O   0  0  0  0  0  0  0  0  0  0  0  0
  -21.6000   -6.1660   22.6140 C   0  0  0  0  0  0  0  0  0  0  0  0
  -21.1110   -6.7140   23.8200 C   0  0  0  0  0  3  0  0  0  0  0  0
  -21.0060   -5.9060   24.9700 C   0  0  0  0  0  3  0  0  0  0  0  0
  -21.3800   -4.5490   24.9130 C   0  0  0  0  0  0  0  0  0  0  0  0
  -21.8630   -4.0010   23.7120 C   0  0  0  0  0  3  0  0  0  0  0  0
  -21.9690   -4.8070   22.5660 C   0  0  0  0  0  0  0  0  0  0  0  0
  -22.4150   -4.2680   21.4040 F   0  0  0  0  0  0  0  0  0  0  0  0
  -21.2720   -3.7700   26.0150 F   0  0  0  0  0  0  0  0  0  0  0  0
  -22.7260  -13.5490   21.2340 C   0  0  0  0  0  0  0  0  0  0  0  0
  -22.0320  -12.8280   22.1080 N   0  0  0  0  0  0  0  0  0  0  0  0
  -22.2690  -14.5910   20.7630 O   0  0  0  0  0  0  0  0  0  0  0  0
  -22.4150  -11.9850   22.5100 H   0  0  0  0  0  0  0  0  0  0  0  0
  -21.1040  -13.1230   22.3780 H   0  0  0  0  0  0  0  0  0  0  0  0
  -25.3190  -15.2350   20.3390 N   0  0  0  0  0  0  0  0  0  0  0  0
  -24.5560  -15.8850   20.4870 H   0  0  0  0  0  0  0  0  0  0  0  0
  -26.1460  -15.6760   19.9580 H   0  0  0  0  0  0  0  0  0  0  0  0
  -29.0030  -24.2710   20.2890 C   0  0  0  0  0  0  0  0  0  0  0  0
  -30.1820  -24.5010   19.9940 O   0  0  0  0  0  0  0  0  0  0  0  0
  -28.0880  -25.3940   20.8170 C   0  0  0  0  0  2  0  0  0  0  0  0
  -28.3210  -26.6820   20.2040 O   0  0  0  0  0  0  0  0  0  0  0  0
  -24.5240  -31.8990   23.2450 C   0  0  0  0  0  0  0  0  0  0  0  0
  -27.1830  -27.4610   20.1700 C   0  0  0  0  0  0  0  0  0  0  0  0
  -23.3280  -30.5000   21.5940 C   0  0  0  0  0  3  0  0  0  0  0  0
  -24.7920  -28.9740   20.1680 C   0  0  0  0  0  0  0  0  0  0  0  0
  -25.8560  -30.8620   21.4110 C   0  0  0  0  0  2  0  0  0  0  0  0
  -25.9480  -29.4940   20.7650 C   0  0  0  0  0  0  0  0  0  0  0  0
  -27.1510  -28.7470   20.7590 C   0  0  0  0  0  3  0  0  0  0  0  0
  -26.0140  -26.9660   19.5520 C   0  0  0  0  0  3  0  0  0  0  0  0
  -24.8200  -27.7090   19.5580 C   0  0  0  0  0  3  0  0  0  0  0  0
  -23.5460  -29.8270   20.2130 C   0  0  0  0  0  2  0  0  0  0  0  0
  -24.5880  -31.1010   22.1420 N   0  0  0  0  0  0  0  0  0  0  0  0
  -23.4400  -32.1680   23.7810 O   0  0  0  0  0  0  0  0  0  0  0  0
  -22.6730  -29.4740   22.5480 C   0  0  0  0  0  0  0  0  0  0  0  0
  -21.3490  -29.2930   22.4150 N   0  0  0  0  0  0  0  0  0  0  0  0
  -23.3530  -28.8460   23.3630 O   0  0  0  0  0  0  0  0  0  0  0  0
  -20.8620  -29.8530   21.7280 H   0  0  0  0  0  0  0  0  0  0  0  0
  -17.9670  -28.1250   22.9200 C   0  0  0  0  0  0  0  0  0  0  0  0
  -20.5290  -28.3520   23.1770 C   0  0  0  0  0  3  0  0  0  0  0  0
  -20.6130  -26.9280   22.5810 C   0  0  0  0  0  2  0  0  0  0  0  0
  -19.5020  -26.6300   21.5700 C   0  0  0  0  0  2  0  0  0  0  0  0
  -18.1250  -26.7830   22.2260 C   0  0  0  0  0  2  0  0  0  0  0  0
  -19.0970  -28.8680   23.3530 C   0  0  0  0  0  0  0  0  0  0  0  0
  -18.8960  -30.1260   23.9620 C   0  0  0  0  0  3  0  0  0  0  0  0
  -17.5980  -30.6410   24.1410 C   0  0  0  0  0  3  0  0  0  0  0  0
  -16.4830  -29.8920   23.7260 C   0  0  0  0  0  3  0  0  0  0  0  0
  -16.6680  -28.6370   23.1210 C   0  0  0  0  0  3  0  0  0  0  0  0
  -25.8060  -32.5310   23.8720 C   0  0  0  0  0  3  0  0  0  0  0  0
  -26.3040  -31.7720   25.1640 C   0  0  1  0  0  0  0  0  0  0  0  0
  -25.1960  -31.5510   26.2190 C   0  0  0  0  0  1  0  0  0  0  0  0
  -26.8870  -30.3880   24.7940 C   0  0  0  0  0  1  0  0  0  0  0  0
  -27.4480  -32.5700   25.8320 C   0  0  0  0  0  1  0  0  0  0  0  0
  -25.5030  -33.9340   24.1780 N   0  0  0  0  0  0  0  0  0  0  0  0
  -25.8660  -34.9730   23.4130 C   0  0  0  0  0  0  0  0  0  0  0  0
  -26.5610  -34.8500   22.4010 O   0  0  0  0  0  0  0  0  0  0  0  0
  -24.8900  -34.1050   24.9620 H   0  0  0  0  0  0  0  0  0  0  0  0
  -24.1840  -36.7890   22.9680 C   0  0  0  0  0  1  0  0  0  0  0  0
  -25.3790  -36.3720   23.8390 C   0  0  0  0  0  3  0  0  0  0  0  0
  -27.4800  -37.2340   24.7720 C   0  0  0  0  0  1  0  0  0  0  0  0
  -26.4330  -37.4080   23.7700 N   0  0  0  0  0  0  0  0  0  0  0  0
  -26.0340  -38.3360   23.8850 H   0  0  0  0  0  0  0  0  0  0  0  0
  1  3  1  0
  1  2  1  0
  2  4  1  0
  3  5  1  0
  4  6  1  0
  4 13  1  0
  5 53  1  0
  5  6  1  0
  6  8  1  0
  7  6  1  0
 10  9  2  0
 11  9  1  0
 12 13  2  0
 12 14  1  0
 13 10  1  0
 14 11  2  0
 15 23  1  0
 16 21  1  0
 17 18  1  0
 17 16  1  0
 19 18  1  0
 19 28  1  0
 19 20  1  0
 21 15  1  0
 21 20  1  0
 22 15  2  0
 23 14  1  0
 23 24  1  0
 25 26  2  0
 26 45  1  0
 27 26  1  0
 27 30  1  0
 28 29  1  0
 28 25  1  0
 29 27  2  0
 30 31  1  0
 31 32  2  0
 33 36  1  0
 33 32  1  0
 34 33  2  0
 35 34  1  0
 35 30  2  0
 36 37  1  0
 37 38  1  0
 38 39  2  0
 40 39  1  0
 40 44  1  0
 41 40  2  0
 42 37  2  0
 42 41  1  0
 43 42  1  0
 45 46  1  0
 46 49  1  0
 46 48  1  0
 47 45  2  0
 50 51  1  0
 50 25  1  0
 52 50  1  0
 53 55  1  0
 54 53  2  0
 56 55  1  0
 57 68  2  0
 58 56  1  0
 58 63  1  0
 59 67  1  0
 59 69  1  0
 60 66  1  0
 60 62  1  0
 61 67  1  0
 62 61  1  0
 63 62  2  0
 64 65  1  0
 64 58  2  0
 65 60  2  0
 66 59  1  0
 67 57  1  0
 69 71  2  0
 70 69  1  0
 72 70  1  0
 73 82  2  0
 73 78  1  0
 74 70  1  0
 74 78  1  0
 75 74  1  0
 76 77  1  0
 76 75  1  0
 77 73  1  0
 78 79  2  0
 79 80  1  0
 81 80  2  0
 82 81  1  0
 83 57  1  0
 83 88  1  0
 83 84  1  0
 84 87  1  1
 84 85  1  0
 86 84  1  0
 88 91  1  0
 89 93  1  0
 89 88  1  0
 90 89  2  0
 93 92  1  0
 95 93  1  0
 95 96  1  0
 95 94  1  0
M  ISO  4  15 100  23 100  55 101  56 101
M  END
>  <TORSDO>  (84) 
F 19

>  <SCORE>  (84) 
-14.580

>  <name>  (84) 
84

>  <ligand_id>  (84) 
84

>  <original_smiles>  (84) 
[H]c1c([H])c([H])c2c(c1[H])C([H])([H])C([H])([H])C([H])([H])C2([H])N([H])C(=O)C1([H])N(C(=O)C([H])(N([H])C(=O)C([H])(N([H])C([H])([H])[H])C([H])([H])[H])C(C([H])([H])[H])(C([H])([H])[H])C([H])([H])[H])C([H])([H])c2c([H])c(OC([H])([H])C(=O)C3([H])C([H])([H])C([H])([H])C([H])([H])C([H])(c4c([H])c([H])c([H])c(N([H])C(=O)N5C([H])([H])C([H])([H])C([H])([H])C([H])(n6nc(-c7c([H])c([H])c(Oc8c([H])c([H])c(F)c([H])c8F)c([H])c7[H])c(C(=O)N([H])[H])c6N([H])[H])C5([H])[H])c4[H])[N+]3([H])[H])c([H])c([H])c2C1([H])[H]

>  <smiles>  (84) 
[H]c1c([H])c([H])c2c(c1[H])C([H])([H])C([H])([H])C([H])([H])C2([H])N([H])C(=O)C1([H])N(C(=O)C([H])(N([H])C(=O)C([H])(N([H])C([H])([H])[H])C([H])([H])[H])C(C([H])([H])[H])(C([H])([H])[H])C([H])([H])[H])C([H])([H])c2c([H])c(OC([H])([H])C(=O)C3([H])C([H])([H])C([H])([H])C([H])([H])C([H])(c4c([H])c([H])c([H])c(N([H])C(=O)N5C([H])([H])C([H])([H])C([H])([H])C([H])(n6nc(-c7c([H])c([H])c(Oc8c([H])c([H])c(F)c([H])c8F)c([H])c7[H])c(C(=O)N([H])[H])c6N([H])[H])C5([H])[H])c4[H])[N+]3([H])[H])c([H])c([H])c2C1([H])[H]

$$$$
85:0:0
     RDKit          3D

 94102  0  0  1  0  0  0  0  0999 V2000
  -30.3360  -21.3720   20.8820 C   0  0  0  0  0  0  0  0  0  0  0  0
  -30.2760  -20.2110   21.5620 N   0  0  0  0  0  0  0  0  0  0  0  0
  -30.9500  -21.4830   19.8180 O   0  0  0  0  0  0  0  0  0  0  0  0
  -29.7270  -20.1980   22.4110 H   0  0  0  0  0  0  0  0  0  0  0  0
  -33.0590  -17.7750   20.9100 C   0  0  0  0  0  3  0  0  0  0  0  0
  -32.3370  -16.6000   20.6350 C   0  0  0  0  0  3  0  0  0  0  0  0
  -30.2470  -17.8090   20.9800 C   0  0  0  0  0  3  0  0  0  0  0  0
  -32.3890  -18.9800   21.2060 C   0  0  0  0  0  0  0  0  0  0  0  0
  -30.9220  -16.6030   20.6500 C   0  0  0  0  0  0  0  0  0  0  0  0
  -30.9700  -19.0070   21.2280 C   0  0  0  0  0  0  0  0  0  0  0  0
  -33.2200  -20.2220   21.4930 C   0  0  0  0  0  1  0  0  0  0  0  0
  -30.6000  -14.4350   19.5120 C   0  0  0  0  0  0  0  0  0  0  0  0
  -30.1520  -12.2360   18.4830 C   0  0  0  0  0  2  0  0  0  0  0  0
  -29.0720  -12.3410   17.3920 C   0  0  0  0  0  2  0  0  0  0  0  0
  -27.6720  -12.1690   18.0100 C   0  0  0  0  0  2  0  0  0  0  0  0
  -27.4560  -13.0740   19.2540 C   0  0  0  0  0  3  0  0  0  0  0  0
  -28.6480  -12.9840   20.2370 C   0  0  0  0  0  2  0  0  0  0  0  0
  -29.8850  -13.2740   19.4940 N   0  0  0  0  0  0  0  0  0  0  0  0
  -31.5540  -14.6260   18.7540 O   0  0  0  0  0  0  0  0  0  0  0  0
  -30.1950  -15.4010   20.3630 N   0  0  0  0  0  0  0  0  0  0  0  0
  -29.3080  -15.2680   20.8230 H   0  0  0  0  0  0  0  0  0  0  0  0
  -25.1750  -13.6380   20.3000 C   0  0  0  0  0  0  0  0  0  0  0  0
  -24.1770  -12.8490   20.8060 C   0  0  0  0  0  0  0  0  0  0  0  0
  -24.6420  -11.5030   20.6860 C   0  0  0  0  0  0  0  0  0  0  0  0
  -26.1880  -12.7750   19.9140 N   0  0  0  0  0  0  0  0  0  0  0  0
  -25.8770  -11.4830   20.2000 N   0  0  0  0  0  0  0  0  0  0  0  0
  -23.9620  -10.2300   20.9590 C   0  0  0  0  0  0  0  0  0  0  0  0
  -24.4240   -9.3400   21.9550 C   0  0  0  0  0  3  0  0  0  0  0  0
  -23.7420   -8.1300   22.2080 C   0  0  0  0  0  3  0  0  0  0  0  0
  -22.5810   -7.8010   21.4670 C   0  0  0  0  0  0  0  0  0  0  0  0
  -22.1390   -8.6790   20.4600 C   0  0  0  0  0  3  0  0  0  0  0  0
  -22.8220   -9.8790   20.2060 C   0  0  0  0  0  3  0  0  0  0  0  0
  -21.8680   -6.6380   21.6290 O   0  0  0  0  0  0  0  0  0  0  0  0
  -21.7270   -6.0440   22.8580 C   0  0  0  0  0  0  0  0  0  0  0  0
  -21.1140   -6.7080   23.9410 C   0  0  0  0  0  3  0  0  0  0  0  0
  -20.9280   -6.0360   25.1660 C   0  0  0  0  0  3  0  0  0  0  0  0
  -21.3440   -4.6990   25.3050 C   0  0  0  0  0  0  0  0  0  0  0  0
  -21.9490   -4.0340   24.2260 C   0  0  0  0  0  3  0  0  0  0  0  0
  -22.1380   -4.7040   23.0050 C   0  0  0  0  0  0  0  0  0  0  0  0
  -22.7040   -4.0500   21.9600 F   0  0  0  0  0  0  0  0  0  0  0  0
  -21.1580   -4.0510   26.4790 F   0  0  0  0  0  0  0  0  0  0  0  0
  -22.8270  -13.3050   21.2800 C   0  0  0  0  0  0  0  0  0  0  0  0
  -22.2510  -12.6060   22.2520 N   0  0  0  0  0  0  0  0  0  0  0  0
  -22.2980  -14.3170   20.8260 O   0  0  0  0  0  0  0  0  0  0  0  0
  -22.6920  -11.7860   22.6410 H   0  0  0  0  0  0  0  0  0  0  0  0
  -21.3500  -12.8930   22.6110 H   0  0  0  0  0  0  0  0  0  0  0  0
  -25.3010  -15.0120   20.1190 N   0  0  0  0  0  0  0  0  0  0  0  0
  -24.5540  -15.6640   20.3340 H   0  0  0  0  0  0  0  0  0  0  0  0
  -26.0960  -15.4580   19.6790 H   0  0  0  0  0  0  0  0  0  0  0  0
  -29.6120  -22.6050   21.4680 C   0  0  0  0  0  2  0  0  0  0  0  0
  -28.4380  -23.1240   20.5850 C   0  0  0  0  0  2  0  0  0  0  0  0
  -28.5920  -24.5410   19.9590 C   0  0  0  0  0  2  0  0  0  0  0  0
  -28.2340  -25.7390   20.8660 C   0  0  0  0  0  2  0  0  0  0  0  0
  -28.2220  -26.9620   20.1060 O   0  0  0  0  0  0  0  0  0  0  0  0
  -24.5970  -32.0630   23.4870 C   0  0  0  0  0  0  0  0  0  0  0  0
  -27.0640  -27.7050   20.1730 C   0  0  0  0  0  0  0  0  0  0  0  0
  -23.3130  -30.7530   21.8240 C   0  0  0  0  0  3  0  0  0  0  0  0
  -24.6930  -29.2460   20.2950 C   0  0  0  0  0  0  0  0  0  0  0  0
  -25.8340  -31.0790   21.5610 C   0  0  0  0  0  2  0  0  0  0  0  0
  -25.8760  -29.7330   20.8660 C   0  0  0  0  0  0  0  0  0  0  0  0
  -27.0650  -28.9720   20.7970 C   0  0  0  0  0  3  0  0  0  0  0  0
  -25.8690  -27.2290   19.5960 C   0  0  0  0  0  3  0  0  0  0  0  0
  -24.6830  -27.9930   19.6560 C   0  0  0  0  0  3  0  0  0  0  0  0
  -23.4660  -30.1220   20.4130 C   0  0  0  0  0  2  0  0  0  0  0  0
  -24.6010  -31.3100   22.3500 N   0  0  0  0  0  0  0  0  0  0  0  0
  -23.5380  -32.3320   24.0730 O   0  0  0  0  0  0  0  0  0  0  0  0
  -22.6680  -29.7080   22.7630 C   0  0  0  0  0  0  0  0  0  0  0  0
  -21.3540  -29.4790   22.5940 N   0  0  0  0  0  0  0  0  0  0  0  0
  -23.3460  -29.1030   23.5990 O   0  0  0  0  0  0  0  0  0  0  0  0
  -20.8680  -30.0220   21.8930 H   0  0  0  0  0  0  0  0  0  0  0  0
  -18.0270  -28.1090   22.9160 C   0  0  0  0  0  0  0  0  0  0  0  0
  -20.5450  -28.5100   23.3310 C   0  0  0  0  0  3  0  0  0  0  0  0
  -20.7620  -27.0790   22.7900 C   0  0  0  0  0  2  0  0  0  0  0  0
  -19.7410  -26.6800   21.7190 C   0  0  0  0  0  2  0  0  0  0  0  0
  -18.3160  -26.7590   22.2770 C   0  0  0  0  0  2  0  0  0  0  0  0
  -19.0750  -28.9380   23.3950 C   0  0  0  0  0  0  0  0  0  0  0  0
  -18.7550  -30.1970   23.9470 C   0  0  0  0  0  3  0  0  0  0  0  0
  -17.4190  -30.6290   24.0250 C   0  0  0  0  0  3  0  0  0  0  0  0
  -16.3830  -29.7960   23.5670 C   0  0  0  0  0  3  0  0  0  0  0  0
  -16.6870  -28.5390   23.0170 C   0  0  0  0  0  3  0  0  0  0  0  0
  -25.9150  -32.6380   24.0950 C   0  0  0  0  0  3  0  0  0  0  0  0
  -25.6690  -34.0480   24.4270 N   0  0  0  0  0  0  0  0  0  0  0  0
  -26.0420  -35.0830   23.6630 C   0  0  0  0  0  0  0  0  0  0  0  0
  -26.6990  -34.9470   22.6270 O   0  0  0  0  0  0  0  0  0  0  0  0
  -25.0930  -34.2310   25.2340 H   0  0  0  0  0  0  0  0  0  0  0  0
  -24.3880  -36.9460   23.3170 C   0  0  0  0  0  1  0  0  0  0  0  0
  -25.6170  -36.4920   24.1210 C   0  0  0  0  0  3  0  0  0  0  0  0
  -27.7910  -37.2870   24.9370 C   0  0  0  0  0  1  0  0  0  0  0  0
  -26.6920  -37.5000   23.9990 N   0  0  0  0  0  0  0  0  0  0  0  0
  -26.3260  -38.4370   24.1450 H   0  0  0  0  0  0  0  0  0  0  0  0
  -26.4140  -31.8450   25.3660 C   0  0  1  0  0  0  0  0  0  0  0  0
  -25.3080  -31.5980   26.4190 C   0  0  0  0  0  1  0  0  0  0  0  0
  -26.9970  -30.4710   24.9580 C   0  0  0  0  0  1  0  0  0  0  0  0
  -27.5630  -32.6240   26.0520 C   0  0  0  0  0  1  0  0  0  0  0  0
  1 50  1  0
  1  2  1  0
  2  4  1  0
  3  1  2  0
  5  8  1  0
  6  9  1  0
  6  5  2  0
  7 10  1  0
  8 10  2  0
  8 11  1  0
  9  7  2  0
 10  2  1  0
 12 20  1  0
 13 18  1  0
 14 15  1  0
 14 13  1  0
 16 15  1  0
 16 25  1  0
 16 17  1  0
 18 12  1  0
 18 17  1  0
 19 12  2  0
 20  9  1  0
 20 21  1  0
 22 23  2  0
 23 42  1  0
 24 23  1  0
 24 27  1  0
 25 26  1  0
 25 22  1  0
 26 24  2  0
 27 28  1  0
 28 29  2  0
 30 33  1  0
 30 29  1  0
 31 30  2  0
 32 31  1  0
 32 27  2  0
 33 34  1  0
 34 39  2  0
 34 35  1  0
 35 36  2  0
 36 37  1  0
 37 41  1  0
 38 37  2  0
 39 38  1  0
 40 39  1  0
 42 43  1  0
 43 46  1  0
 43 45  1  0
 44 42  2  0
 47 22  1  0
 47 48  1  0
 49 47  1  0
 51 50  1  0
 52 51  1  0
 52 53  1  0
 54 56  1  0
 54 53  1  0
 55 66  2  0
 56 61  1  0
 57 65  1  0
 57 67  1  0
 58 64  1  0
 58 60  1  0
 59 65  1  0
 60 59  1  0
 61 60  2  0
 62 63  1  0
 62 56  2  0
 63 58  2  0
 64 57  1  0
 65 55  1  0
 67 69  2  0
 68 67  1  0
 70 68  1  0
 71 80  2  0
 71 76  1  0
 72 68  1  0
 72 76  1  0
 73 72  1  0
 74 75  1  0
 74 73  1  0
 75 71  1  0
 76 77  2  0
 77 78  1  0
 79 78  2  0
 80 79  1  0
 81 55  1  0
 81 82  1  0
 81 91  1  0
 82 85  1  0
 83 87  1  0
 83 82  1  0
 84 83  2  0
 87 86  1  0
 89 87  1  0
 89 90  1  0
 89 88  1  0
 91 94  1  1
 91 92  1  0
 93 91  1  0
M  ISO  4  12 100  20 100  53 101  54 101
M  END
>  <TORSDO>  (85) 
F 21

>  <SCORE>  (85) 
-11.685

>  <name>  (85) 
85

>  <ligand_id>  (85) 
85

>  <original_smiles>  (85) 
[H]c1c([H])c([H])c2c(c1[H])C([H])([H])C([H])([H])C([H])([H])C2([H])N([H])C(=O)C1([H])N(C(=O)C([H])(N([H])C(=O)C([H])(N([H])C([H])([H])[H])C([H])([H])[H])C(C([H])([H])[H])(C([H])([H])[H])C([H])([H])[H])C([H])([H])c2c([H])c(OC([H])([H])C([H])([H])C([H])([H])C([H])([H])C(=O)N([H])c3c([H])c(N([H])C(=O)N4C([H])([H])C([H])([H])C([H])([H])C([H])(n5nc(-c6c([H])c([H])c(Oc7c([H])c([H])c(F)c([H])c7F)c([H])c6[H])c(C(=O)N([H])[H])c5N([H])[H])C4([H])[H])c([H])c([H])c3C([H])([H])[H])c([H])c([H])c2C1([H])[H]

>  <smiles>  (85) 
[H]c1c([H])c([H])c2c(c1[H])C([H])([H])C([H])([H])C([H])([H])C2([H])N([H])C(=O)C1([H])N(C(=O)C([H])(N([H])C(=O)C([H])(N([H])C([H])([H])[H])C([H])([H])[H])C(C([H])([H])[H])(C([H])([H])[H])C([H])([H])[H])C([H])([H])c2c([H])c(OC([H])([H])C([H])([H])C([H])([H])C([H])([H])C(=O)N([H])c3c([H])c(N([H])C(=O)N4C([H])([H])C([H])([H])C([H])([H])C([H])(n5nc(-c6c([H])c([H])c(Oc7c([H])c([H])c(F)c([H])c7F)c([H])c6[H])c(C(=O)N([H])[H])c5N([H])[H])C4([H])[H])c([H])c([H])c3C([H])([H])[H])c([H])c([H])c2C1([H])[H]

$$$$
86:0:0
     RDKit          3D

 97105  0  0  1  0  0  0  0  0999 V2000
  -29.3350  -20.3790   20.2860 N   0  0  0  0  0  0  0  0  0  0  0  0
  -28.9850  -20.3120   21.2370 H   0  0  0  0  0  0  0  0  0  0  0  0
  -31.9120  -18.5360   18.3080 C   0  0  0  0  0  3  0  0  0  0  0  0
  -31.7420  -17.2090   18.7280 C   0  0  0  0  0  3  0  0  0  0  0  0
  -31.1050  -19.5570   18.8280 C   0  0  0  0  0  3  0  0  0  0  0  0
  -29.9000  -17.9050   20.1860 C   0  0  0  0  0  0  0  0  0  0  0  0
  -30.7590  -16.8520   19.6820 C   0  0  0  0  0  0  0  0  0  0  0  0
  -30.0920  -19.2830   19.7730 C   0  0  0  0  0  0  0  0  0  0  0  0
  -31.2530  -14.3500   19.5560 C   0  0  0  0  0  0  0  0  0  0  0  0
  -30.7220  -12.2700   18.3500 C   0  0  0  0  0  2  0  0  0  0  0  0
  -29.6760  -12.6180   17.2700 C   0  0  0  0  0  2  0  0  0  0  0  0
  -28.2470  -12.5310   17.8460 C   0  0  0  0  0  2  0  0  0  0  0  0
  -28.1000  -13.2800   19.1980 C   0  0  0  0  0  3  0  0  0  0  0  0
  -29.2530  -12.9320   20.1660 C   0  0  0  0  0  2  0  0  0  0  0  0
  -30.5220  -13.2020   19.4720 N   0  0  0  0  0  0  0  0  0  0  0  0
  -32.3850  -14.4320   19.0750 O   0  0  0  0  0  0  0  0  0  0  0  0
  -30.5930  -15.4420   20.0340 N   0  0  0  0  0  0  0  0  0  0  0  0
  -29.7790  -15.2180   20.5840 H   0  0  0  0  0  0  0  0  0  0  0  0
  -25.8160  -13.9570   20.1650 C   0  0  0  0  0  0  0  0  0  0  0  0
  -24.7580  -13.2170   20.6200 C   0  0  0  0  0  0  0  0  0  0  0  0
  -25.1540  -11.8500   20.5050 C   0  0  0  0  0  0  0  0  0  0  0  0
  -26.7920  -13.0420   19.8050 N   0  0  0  0  0  0  0  0  0  0  0  0
  -26.4040  -11.7670   20.0670 N   0  0  0  0  0  0  0  0  0  0  0  0
  -24.3940  -10.6120   20.7290 C   0  0  0  0  0  0  0  0  0  0  0  0
  -24.7990   -9.6620   21.6910 C   0  0  0  0  0  3  0  0  0  0  0  0
  -24.0430   -8.4890   21.9020 C   0  0  0  0  0  3  0  0  0  0  0  0
  -22.8670   -8.2580   21.1500 C   0  0  0  0  0  0  0  0  0  0  0  0
  -22.4810   -9.1970   20.1760 C   0  0  0  0  0  3  0  0  0  0  0  0
  -23.2380  -10.3610   19.9650 C   0  0  0  0  0  3  0  0  0  0  0  0
  -22.0830   -7.1370   21.2680 O   0  0  0  0  0  0  0  0  0  0  0  0
  -21.9210   -6.4960   22.4710 C   0  0  0  0  0  0  0  0  0  0  0  0
  -21.4270   -7.1650   23.6110 C   0  0  0  0  0  3  0  0  0  0  0  0
  -21.2090   -6.4520   24.8080 C   0  0  0  0  0  3  0  0  0  0  0  0
  -21.4760   -5.0710   24.8620 C   0  0  0  0  0  0  0  0  0  0  0  0
  -21.9610   -4.4020   23.7260 C   0  0  0  0  0  3  0  0  0  0  0  0
  -22.1800   -5.1110   22.5320 C   0  0  0  0  0  0  0  0  0  0  0  0
  -22.6290   -4.4570   21.4340 F   0  0  0  0  0  0  0  0  0  0  0  0
  -21.2590   -4.3840   26.0090 F   0  0  0  0  0  0  0  0  0  0  0  0
  -23.4170  -13.7420   21.0430 C   0  0  0  0  0  0  0  0  0  0  0  0
  -22.7750  -13.0830   22.0030 N   0  0  0  0  0  0  0  0  0  0  0  0
  -22.9510  -14.7720   20.5570 O   0  0  0  0  0  0  0  0  0  0  0  0
  -23.1670  -12.2510   22.4170 H   0  0  0  0  0  0  0  0  0  0  0  0
  -21.8790  -13.4180   22.3290 H   0  0  0  0  0  0  0  0  0  0  0  0
  -26.0240  -15.3240   20.0060 N   0  0  0  0  0  0  0  0  0  0  0  0
  -25.2840  -15.9960   20.1780 H   0  0  0  0  0  0  0  0  0  0  0  0
  -26.8170  -15.7230   19.5230 H   0  0  0  0  0  0  0  0  0  0  0  0
  -28.8210  -17.5440   21.1640 C   0  0  0  0  0  0  0  0  0  0  0  0
  -27.3770  -17.6660   20.6890 C   0  0  0  0  0  1  0  0  0  0  0  0
  -29.0380  -17.0910   22.2910 O   0  0  0  0  0  0  0  0  0  0  0  0
  -29.2610  -21.7540   19.7070 C   0  0  0  0  0  2  0  0  0  0  0  0
  -30.2340  -22.8030   20.3030 C   0  0  0  0  0  3  0  0  0  0  0  0
  -31.2490  -22.3650   20.9300 N   0  0  0  0  0  2  0  0  0  0  0  0
  -31.7960  -23.1600   21.2490 H   0  0  0  0  0  0  0  0  0  0  0  0
  -30.0150  -24.3310   20.1340 C   0  0  0  0  0  0  0  0  0  0  0  0
  -30.9310  -25.1010   20.4600 O   0  0  0  0  0  0  0  0  0  0  0  0
  -28.6950  -24.9520   19.6010 C   0  0  0  0  0  2  0  0  0  0  0  0
  -28.7380  -26.4070   19.6980 O   0  0  0  0  0  0  0  0  0  0  0  0
  -24.8070  -31.3410   23.0500 C   0  0  0  0  0  0  0  0  0  0  0  0
  -27.5420  -27.1070   19.7280 C   0  0  0  0  0  0  0  0  0  0  0  0
  -23.6210  -29.9760   21.3640 C   0  0  0  0  0  3  0  0  0  0  0  0
  -25.1000  -28.5540   19.8440 C   0  0  0  0  0  0  0  0  0  0  0  0
  -26.1320  -30.4250   21.1430 C   0  0  0  0  0  2  0  0  0  0  0  0
  -26.2530  -29.0860   20.4350 C   0  0  0  0  0  0  0  0  0  0  0  0
  -27.4770  -28.3730   20.3660 C   0  0  0  0  0  3  0  0  0  0  0  0
  -26.3670  -26.5970   19.1340 C   0  0  0  0  0  3  0  0  0  0  0  0
  -25.1540  -27.3120   19.1890 C   0  0  0  0  0  3  0  0  0  0  0  0
  -23.8300  -29.3690   19.9500 C   0  0  0  0  0  2  0  0  0  0  0  0
  -24.8720  -30.5940   21.9100 N   0  0  0  0  0  0  0  0  0  0  0  0
  -23.7260  -31.5500   23.6190 O   0  0  0  0  0  0  0  0  0  0  0  0
  -23.0210  -28.8910   22.2860 C   0  0  0  0  0  0  0  0  0  0  0  0
  -21.7030  -28.6580   22.1600 N   0  0  0  0  0  0  0  0  0  0  0  0
  -23.7360  -28.2620   23.0700 O   0  0  0  0  0  0  0  0  0  0  0  0
  -21.1840  -29.2210   21.4990 H   0  0  0  0  0  0  0  0  0  0  0  0
  -18.3820  -27.3200   22.6470 C   0  0  0  0  0  0  0  0  0  0  0  0
  -20.9330  -27.6560   22.8940 C   0  0  0  0  0  3  0  0  0  0  0  0
  -21.0760  -26.2590   22.2460 C   0  0  0  0  0  2  0  0  0  0  0  0
  -19.9710  -25.9470   21.2330 C   0  0  0  0  0  2  0  0  0  0  0  0
  -18.5950  -26.0120   21.9050 C   0  0  0  0  0  2  0  0  0  0  0  0
  -19.4790  -28.0990   23.0990 C   0  0  0  0  0  0  0  0  0  0  0  0
  -19.2260  -29.3240   23.7540 C   0  0  0  0  0  3  0  0  0  0  0  0
  -17.9080  -29.7700   23.9610 C   0  0  0  0  0  3  0  0  0  0  0  0
  -16.8250  -28.9870   23.5270 C   0  0  0  0  0  3  0  0  0  0  0  0
  -17.0620  -27.7630   22.8760 C   0  0  0  0  0  3  0  0  0  0  0  0
  -26.0800  -31.9880   23.6790 C   0  0  0  0  0  3  0  0  0  0  0  0
  -25.7330  -33.3600   24.0730 N   0  0  0  0  0  0  0  0  0  0  0  0
  -26.0120  -34.4520   23.3500 C   0  0  0  0  0  0  0  0  0  0  0  0
  -26.6610  -34.4130   22.3010 O   0  0  0  0  0  0  0  0  0  0  0  0
  -25.1510  -33.4610   24.8920 H   0  0  0  0  0  0  0  0  0  0  0  0
  -24.2010  -36.1820   23.1260 C   0  0  0  0  0  1  0  0  0  0  0  0
  -25.4880  -35.8030   23.8740 C   0  0  0  0  0  3  0  0  0  0  0  0
  -27.6150  -36.7500   24.6560 C   0  0  0  0  0  1  0  0  0  0  0  0
  -26.4740  -36.9010   23.7570 N   0  0  0  0  0  0  0  0  0  0  0  0
  -26.0370  -37.7990   23.9480 H   0  0  0  0  0  0  0  0  0  0  0  0
  -26.6430  -31.1800   24.9130 C   0  0  1  0  0  0  0  0  0  0  0  0
  -25.5710  -30.8390   25.9730 C   0  0  0  0  0  1  0  0  0  0  0  0
  -27.2860  -29.8520   24.4480 C   0  0  0  0  0  1  0  0  0  0  0  0
  -27.7600  -31.9930   25.6060 C   0  0  0  0  0  1  0  0  0  0  0  0
  1  2  1  0
  3  4  2  0
  3  5  1  0
  4  7  1  0
  5  8  2  0
  6 47  1  0
  7 17  1  0
  7  6  2  0
  8  6  1  0
  8  1  1  0
  9 17  1  0
 10 15  1  0
 11 12  1  0
 11 10  1  0
 13 12  1  0
 13 22  1  0
 13 14  1  0
 15  9  1  0
 15 14  1  0
 16  9  2  0
 17 18  1  0
 19 20  2  0
 20 39  1  0
 21 20  1  0
 21 24  1  0
 22 23  1  0
 22 19  1  0
 23 21  2  0
 24 25  1  0
 25 26  2  0
 27 30  1  0
 27 26  1  0
 28 27  2  0
 29 28  1  0
 29 24  2  0
 30 31  1  0
 31 36  2  0
 31 32  1  0
 32 33  2  0
 33 34  1  0
 34 38  1  0
 35 34  2  0
 36 35  1  0
 37 36  1  0
 39 40  1  0
 40 43  1  0
 40 42  1  0
 41 39  2  0
 44 19  1  0
 44 45  1  0
 46 44  1  0
 47 49  2  0
 48 47  1  0
 50  1  1  0
 51 50  1  0
 51 52  1  0
 52 53  1  0
 54 51  1  0
 54 55  2  0
 56 57  1  0
 56 54  1  0
 57 59  1  0
 58 69  2  0
 59 64  1  0
 60 68  1  0
 60 70  1  0
 61 67  1  0
 61 63  1  0
 62 68  1  0
 63 62  1  0
 64 63  2  0
 65 66  1  0
 65 59  2  0
 66 61  2  0
 67 60  1  0
 68 58  1  0
 70 72  2  0
 71 70  1  0
 73 71  1  0
 74 83  2  0
 74 79  1  0
 75 71  1  0
 75 79  1  0
 76 75  1  0
 77 78  1  0
 77 76  1  0
 78 74  1  0
 79 80  2  0
 80 81  1  0
 82 81  2  0
 83 82  1  0
 84 58  1  0
 84 85  1  0
 84 94  1  0
 85 88  1  0
 86 90  1  0
 86 85  1  0
 87 86  2  0
 90 89  1  0
 92 90  1  0
 92 93  1  0
 92 91  1  0
 94 97  1  1
 94 95  1  0
 96 94  1  0
M  ISO  4   9 100  17 100  56 101  57 101
M  END
>  <TORSDO>  (86) 
F 22

>  <SCORE>  (86) 
-9.557

>  <name>  (86) 
86

>  <ligand_id>  (86) 
86

>  <original_smiles>  (86) 
[H]N=C(C(=O)C([H])([H])Oc1c([H])c([H])c2c(c1[H])C([H])([H])N(C(=O)C([H])(N([H])C(=O)C([H])(N([H])C([H])([H])[H])C([H])([H])[H])C(C([H])([H])[H])(C([H])([H])[H])C([H])([H])[H])C([H])(C(=O)N([H])C1([H])c3c([H])c([H])c([H])c([H])c3C([H])([H])C([H])([H])C1([H])[H])C2([H])[H])C([H])([H])N([H])c1c([H])c([H])c([H])c(N([H])C(=O)N2C([H])([H])C([H])([H])C([H])([H])C([H])(n3nc(-c4c([H])c([H])c(Oc5c([H])c([H])c(F)c([H])c5F)c([H])c4[H])c(C(=O)N([H])[H])c3N([H])[H])C2([H])[H])c1C(=O)C([H])([H])[H]

>  <smiles>  (86) 
[H]N=C(C(=O)C([H])([H])Oc1c([H])c([H])c2c(c1[H])C([H])([H])N(C(=O)C([H])(N([H])C(=O)C([H])(N([H])C([H])([H])[H])C([H])([H])[H])C(C([H])([H])[H])(C([H])([H])[H])C([H])([H])[H])C([H])(C(=O)N([H])C1([H])c3c([H])c([H])c([H])c([H])c3C([H])([H])C([H])([H])C1([H])[H])C2([H])[H])C([H])([H])N([H])c1c([H])c([H])c([H])c(N([H])C(=O)N2C([H])([H])C([H])([H])C([H])([H])C([H])(n3nc(-c4c([H])c([H])c(Oc5c([H])c([H])c(F)c([H])c5F)c([H])c4[H])c(C(=O)N([H])[H])c3N([H])[H])C2([H])[H])c1C(=O)C([H])([H])[H]

$$$$
87:0:0
     RDKit          3D

100108  0  0  1  0  0  0  0  0999 V2000
  -30.0920  -18.1400   20.0000 C   0  0  0  0  0  3  0  0  0  0  0  0
  -31.8760  -17.5840   21.5580 C   0  0  0  0  0  3  0  0  0  0  0  0
  -30.1060  -19.5040   20.4080 C   0  0  0  0  0  0  0  0  0  0  0  0
  -30.9910  -19.8840   21.4710 C   0  0  0  0  0  0  0  0  0  0  0  0
  -30.9450  -17.1720   20.5850 C   0  0  0  0  0  0  0  0  0  0  0  0
  -31.9030  -18.9250   22.0050 C   0  0  0  0  0  0  0  0  0  0  0  0
  -31.5190  -14.7200   20.3080 C   0  0  0  0  0  0  0  0  0  0  0  0
  -31.3070  -12.3410   19.6560 C   0  0  0  0  0  2  0  0  0  0  0  0
  -30.4340  -12.2550   18.3840 C   0  0  0  0  0  2  0  0  0  0  0  0
  -28.9300  -12.2280   18.7310 C   0  0  0  0  0  2  0  0  0  0  0  0
  -28.5330  -13.3260   19.7520 C   0  0  0  0  0  3  0  0  0  0  0  0
  -29.5120  -13.3450   20.9460 C   0  0  0  0  0  2  0  0  0  0  0  0
  -30.8710  -13.5260   20.4050 N   0  0  0  0  0  0  0  0  0  0  0  0
  -32.6970  -14.8270   19.9470 O   0  0  0  0  0  0  0  0  0  0  0  0
  -30.6870  -15.7800   20.3990 N   0  0  0  0  0  0  0  0  0  0  0  0
  -29.7190  -15.5120   20.4930 H   0  0  0  0  0  0  0  0  0  0  0  0
  -26.1920  -14.1730   20.4080 C   0  0  0  0  0  0  0  0  0  0  0  0
  -25.0400  -13.5120   20.7400 C   0  0  0  0  0  0  0  0  0  0  0  0
  -25.3600  -12.1210   20.7050 C   0  0  0  0  0  0  0  0  0  0  0  0
  -27.1450  -13.1910   20.1890 N   0  0  0  0  0  0  0  0  0  0  0  0
  -26.6460  -11.9510   20.4270 N   0  0  0  0  0  0  0  0  0  0  0  0
  -24.5040  -10.9400   20.8620 C   0  0  0  0  0  0  0  0  0  0  0  0
  -24.8060   -9.9290   21.8020 C   0  0  0  0  0  3  0  0  0  0  0  0
  -23.9580   -8.8090   21.9450 C   0  0  0  0  0  3  0  0  0  0  0  0
  -22.7940   -8.6940   21.1480 C   0  0  0  0  0  0  0  0  0  0  0  0
  -22.5100   -9.6930   20.1980 C   0  0  0  0  0  3  0  0  0  0  0  0
  -23.3590  -10.8030   20.0530 C   0  0  0  0  0  3  0  0  0  0  0  0
  -21.9270   -7.6280   21.1990 O   0  0  0  0  0  0  0  0  0  0  0  0
  -21.7800   -6.8750   22.3380 C   0  0  0  0  0  0  0  0  0  0  0  0
  -21.3520   -7.4440   23.5570 C   0  0  0  0  0  3  0  0  0  0  0  0
  -21.1460   -6.6210   24.6820 C   0  0  0  0  0  3  0  0  0  0  0  0
  -21.3580   -5.2320   24.5900 C   0  0  0  0  0  0  0  0  0  0  0  0
  -21.7780   -4.6650   23.3740 C   0  0  0  0  0  3  0  0  0  0  0  0
  -21.9870   -5.4840   22.2510 C   0  0  0  0  0  0  0  0  0  0  0  0
  -22.3720   -4.9290   21.0770 F   0  0  0  0  0  0  0  0  0  0  0  0
  -21.1530   -4.4400   25.6680 F   0  0  0  0  0  0  0  0  0  0  0  0
  -23.6930  -14.1310   20.9830 C   0  0  0  0  0  0  0  0  0  0  0  0
  -22.8870  -13.5340   21.8540 N   0  0  0  0  0  0  0  0  0  0  0  0
  -23.3620  -15.1810   20.4320 O   0  0  0  0  0  0  0  0  0  0  0  0
  -23.1650  -12.6890   22.3290 H   0  0  0  0  0  0  0  0  0  0  0  0
  -21.9810  -13.9340   22.0530 H   0  0  0  0  0  0  0  0  0  0  0  0
  -26.5040  -15.5220   20.2550 N   0  0  0  0  0  0  0  0  0  0  0  0
  -25.8070  -16.2530   20.3600 H   0  0  0  0  0  0  0  0  0  0  0  0
  -27.3990  -15.8740   19.9390 H   0  0  0  0  0  0  0  0  0  0  0  0
  -29.0450  -20.4370   19.8400 C   0  0  0  0  0  0  0  0  0  0  0  0
  -29.3620  -21.7170   19.5400 N   0  0  0  0  0  0  0  0  0  0  0  0
  -27.9000  -20.0100   19.6820 O   0  0  0  0  0  0  0  0  0  0  0  0
  -30.3320  -21.9930   19.6470 H   0  0  0  0  0  0  0  0  0  0  0  0
  -28.3480  -22.7870   19.4600 C   0  0  0  0  0  2  0  0  0  0  0  0
  -28.8740  -24.2380   19.2100 C   0  0  0  0  0  2  0  0  0  0  0  0
  -27.7900  -25.4570   21.1720 C   0  0  0  0  0  1  0  0  0  0  0  0
  -27.8300  -25.3190   19.6410 C   0  0  0  0  0  3  0  0  0  0  0  0
  -28.0210  -26.6480   19.0930 O   0  0  0  0  0  0  0  0  0  0  0  0
  -24.4570  -31.5590   22.8620 C   0  0  0  0  0  0  0  0  0  0  0  0
  -26.8930  -27.4520   19.1840 C   0  0  0  0  0  0  0  0  0  0  0  0
  -23.1550  -30.3310   21.1570 C   0  0  0  0  0  3  0  0  0  0  0  0
  -24.5170  -28.9590   19.4920 C   0  0  0  0  0  0  0  0  0  0  0  0
  -25.6700  -30.7030   20.8610 C   0  0  0  0  0  2  0  0  0  0  0  0
  -25.7130  -29.4140   20.0660 C   0  0  0  0  0  0  0  0  0  0  0  0
  -26.9060  -28.6670   19.9070 C   0  0  0  0  0  3  0  0  0  0  0  0
  -25.6830  -27.0350   18.5840 C   0  0  0  0  0  3  0  0  0  0  0  0
  -24.4960  -27.7700   18.7480 C   0  0  0  0  0  3  0  0  0  0  0  0
  -23.2820  -29.8070   19.7030 C   0  0  0  0  0  2  0  0  0  0  0  0
  -24.4480  -30.8730   21.6840 N   0  0  0  0  0  0  0  0  0  0  0  0
  -23.4080  -31.7760   23.4840 O   0  0  0  0  0  0  0  0  0  0  0  0
  -22.5560  -29.2110   22.0370 C   0  0  0  0  0  0  0  0  0  0  0  0
  -21.2230  -29.0640   21.9920 N   0  0  0  0  0  0  0  0  0  0  0  0
  -23.2850  -28.4850   22.7190 O   0  0  0  0  0  0  0  0  0  0  0  0
  -20.6990  -29.7100   21.4190 H   0  0  0  0  0  0  0  0  0  0  0  0
  -17.8630  -27.8910   22.6380 C   0  0  0  0  0  0  0  0  0  0  0  0
  -20.4400  -28.0540   22.7070 C   0  0  0  0  0  3  0  0  0  0  0  0
  -20.4480  -26.7050   21.9520 C   0  0  0  0  0  2  0  0  0  0  0  0
  -19.2490  -26.5280   21.0120 C   0  0  0  0  0  2  0  0  0  0  0  0
  -17.9330  -26.6320   21.7900 C   0  0  0  0  0  2  0  0  0  0  0  0
  -19.0400  -28.5670   23.0530 C   0  0  0  0  0  0  0  0  0  0  0  0
  -18.9200  -29.7500   23.8130 C   0  0  0  0  0  3  0  0  0  0  0  0
  -17.6540  -30.2610   24.1550 C   0  0  0  0  0  3  0  0  0  0  0  0
  -16.4900  -29.5770   23.7560 C   0  0  0  0  0  3  0  0  0  0  0  0
  -16.5980  -28.3920   23.0060 C   0  0  0  0  0  3  0  0  0  0  0  0
  -25.7810  -32.1230   23.4670 C   0  0  0  0  0  3  0  0  0  0  0  0
  -25.4930  -33.4690   23.9780 N   0  0  0  0  0  0  0  0  0  0  0  0
  -25.7970  -34.6060   23.3390 C   0  0  0  0  0  0  0  0  0  0  0  0
  -26.4240  -34.6290   22.2750 O   0  0  0  0  0  0  0  0  0  0  0  0
  -24.9410  -33.5220   24.8220 H   0  0  0  0  0  0  0  0  0  0  0  0
  -24.0620  -36.4220   23.2590 C   0  0  0  0  0  1  0  0  0  0  0  0
  -25.3290  -35.9250   23.9760 C   0  0  0  0  0  3  0  0  0  0  0  0
  -27.4920  -36.7020   24.8400 C   0  0  0  0  0  1  0  0  0  0  0  0
  -26.3620  -36.9840   23.9580 N   0  0  0  0  0  0  0  0  0  0  0  0
  -25.9640  -37.8780   24.2300 H   0  0  0  0  0  0  0  0  0  0  0  0
  -26.3800  -31.2100   24.6060 C   0  0  1  0  0  0  0  0  0  0  0  0
  -25.3540  -30.8300   25.6980 C   0  0  0  0  0  1  0  0  0  0  0  0
  -26.9480  -29.8980   24.0150 C   0  0  0  0  0  1  0  0  0  0  0  0
  -27.5630  -31.9360   25.2890 C   0  0  0  0  0  1  0  0  0  0  0  0
  -32.8070  -19.2290   23.0310 N   0  0  0  0  0  0  0  0  0  0  0  0
  -33.5280  -18.5620   23.2940 H   0  0  0  0  0  0  0  0  0  0  0  0
  -33.0640  -20.1880   23.2400 H   0  0  0  0  0  0  0  0  0  0  0  0
  -30.9130  -21.2490   22.0770 C   0  0  0  0  0  0  0  0  0  0  0  0
  -31.2920  -22.2720   21.4960 O   0  0  0  0  0  0  0  0  0  0  0  0
  -30.1590  -22.7440   24.0340 C   0  0  0  0  0  1  0  0  0  0  0  0
  -30.2500  -21.3200   23.4590 C   0  0  0  0  0  2  0  0  0  0  0  0
  1  3  2  0
  1  5  1  0
  2  6  1  0
  3  4  1  0
  4  6  2  0
  4 97  1  0
  5  2  2  0
  6 94  1  0
  7 15  1  0
  7 13  1  0
  8 13  1  0
  9 10  1  0
  9  8  1  0
 11 10  1  0
 11 20  1  0
 11 12  1  0
 13 12  1  0
 14  7  2  0
 15 16  1  0
 15  5  1  0
 17 18  2  0
 18 37  1  0
 19 18  1  0
 19 22  1  0
 20 17  1  0
 20 21  1  0
 21 19  2  0
 22 23  1  0
 23 24  2  0
 25 28  1  0
 25 24  1  0
 26 25  2  0
 27 26  1  0
 27 22  2  0
 28 29  1  0
 29 30  1  0
 30 31  2  0
 32 31  1  0
 32 36  1  0
 33 32  2  0
 34 29  2  0
 34 33  1  0
 35 34  1  0
 37 38  1  0
 38 41  1  0
 38 40  1  0
 39 37  2  0
 42 43  1  0
 42 17  1  0
 44 42  1  0
 45  3  1  0
 46 48  1  0
 46 45  1  0
 47 45  2  0
 49 46  1  0
 50 49  1  0
 50 52  1  0
 52 51  1  0
 53 55  1  0
 53 52  1  0
 54 65  2  0
 55 60  1  0
 56 64  1  0
 56 66  1  0
 57 63  1  0
 57 59  1  0
 58 64  1  0
 59 58  1  0
 60 59  2  0
 61 62  1  0
 61 55  2  0
 62 57  2  0
 63 56  1  0
 64 54  1  0
 66 68  2  0
 67 66  1  0
 69 67  1  0
 70 79  2  0
 70 75  1  0
 71 67  1  0
 71 75  1  0
 72 71  1  0
 73 74  1  0
 73 72  1  0
 74 70  1  0
 75 76  2  0
 76 77  1  0
 78 77  2  0
 79 78  1  0
 80 54  1  0
 80 81  1  0
 80 90  1  0
 81 84  1  0
 82 86  1  0
 82 81  1  0
 83 82  2  0
 86 85  1  0
 88 86  1  0
 88 89  1  0
 88 87  1  0
 90 93  1  1
 90 91  1  0
 92 90  1  0
 94 96  1  0
 94 95  1  0
 97100  1  0
 98 97  2  0
100 99  1  0
M  ISO  4   7 100  15 100  52 101  53 101
M  END
>  <TORSDO>  (87) 
F 23

>  <SCORE>  (87) 
-11.058

>  <name>  (87) 
87

>  <ligand_id>  (87) 
87

>  <original_smiles>  (87) 
[H]c1c([H])c([H])c2c(c1[H])C([H])([H])C([H])([H])C([H])([H])C2([H])N([H])C(=O)C1([H])N(C(=O)C([H])(N([H])C(=O)C([H])(N([H])C([H])([H])[H])C([H])([H])[H])C(C([H])([H])[H])(C([H])([H])[H])C([H])([H])[H])C([H])([H])c2c([H])c(OC([H])(C([H])([H])[H])C([H])([H])C([H])([H])N([H])C(=O)c3c([H])c(N([H])C(=O)N4C([H])([H])C([H])([H])C([H])([H])C([H])(n5nc(-c6c([H])c([H])c(Oc7c([H])c([H])c(F)c([H])c7F)c([H])c6[H])c(C(=O)N([H])[H])c5N([H])[H])C4([H])[H])c([H])c(N([H])[H])c3C(=O)C([H])([H])C([H])([H])[H])c([H])c([H])c2C1([H])[H]

>  <smiles>  (87) 
[H]c1c([H])c([H])c2c(c1[H])C([H])([H])C([H])([H])C([H])([H])C2([H])N([H])C(=O)C1([H])N(C(=O)C([H])(N([H])C(=O)C([H])(N([H])C([H])([H])[H])C([H])([H])[H])C(C([H])([H])[H])(C([H])([H])[H])C([H])([H])[H])C([H])([H])c2c([H])c(OC([H])(C([H])([H])[H])C([H])([H])C([H])([H])N([H])C(=O)c3c([H])c(N([H])C(=O)N4C([H])([H])C([H])([H])C([H])([H])C([H])(n5nc(-c6c([H])c([H])c(Oc7c([H])c([H])c(F)c([H])c7F)c([H])c6[H])c(C(=O)N([H])[H])c5N([H])[H])C4([H])[H])c([H])c(N([H])[H])c3C(=O)C([H])([H])C([H])([H])[H])c([H])c([H])c2C1([H])[H]

$$$$
88:0:0
     RDKit          3D

 98 99  0  0  1  0  0  0  0  0999 V2000
  -29.0920  -11.9060   21.3070 C   0  0  0  0  0 15  0  0  0  0  0  0
  -28.4740  -15.6520   20.3830 C   0  0  0  0  0 15  0  0  0  0  0  0
  -30.6060  -11.8500   19.6460 C   0  0  0  0  0  1  0  0  0  0  0  0
  -28.2870  -14.0170   21.7400 C   0  0  0  0  0  1  0  0  0  0  0  0
  -30.1080  -15.6500   19.1350 C   0  0  0  0  0  1  0  0  0  0  0  0
  -31.3360  -13.8470   18.8530 C   0  0  0  0  0  1  0  0  0  0  0  0
  -30.1210  -14.5460   21.3700 C   0  0  0  0  0  0  0  0  0  0  0  0
  -29.2380  -13.5350   17.9710 C   0  0  0  0  0  1  0  0  0  0  0  0
  -28.9120  -12.1950   17.5080 C   0  0  0  0  0  2  0  0  0  0  0  0
  -27.9540  -11.8960   18.5900 C   0  0  0  0  0  2  0  0  0  0  0  0
  -27.9860  -13.0620   19.6940 C   0  0  0  0  0  3  0  0  0  0  0  0
  -30.3420  -13.6450   20.8830 C   0  0  0  0  0  2  0  0  0  0  0  0
  -29.3560  -13.7040   19.8740 N   0  0  0  0  0  2  0  0  0  0  0  0
  -31.1440  -15.5180   21.4020 O   0  0  0  0  0  0  0  0  0  0  0  0
  -29.2060  -14.6560   22.5020 N   0  0  0  0  0  0  0  0  0  0  0  0
  -29.0880  -15.5480   22.9600 H   0  0  0  0  0  0  0  0  0  0  0  0
  -25.3870  -13.6620   20.4320 C   0  0  0  0  0  0  0  0  0  0  0  0
  -24.2900  -12.9130   20.7860 C   0  0  0  0  0  0  0  0  0  0  0  0
  -24.7480  -11.5660   20.7970 C   0  0  0  0  0  0  0  0  0  0  0  0
  -26.5130  -12.7970   20.2860 N   0  0  0  0  0  0  0  0  0  0  0  0
  -26.0660  -11.5230   20.5580 N   0  0  0  0  0  0  0  0  0  0  0  0
  -23.9910  -10.3120   20.9940 C   0  0  0  0  0  0  0  0  0  0  0  0
  -24.4120   -9.3510   21.9400 C   0  0  0  0  0  3  0  0  0  0  0  0
  -23.6760   -8.1630   22.1370 C   0  0  0  0  0  3  0  0  0  0  0  0
  -22.4950   -7.9240   21.3930 C   0  0  0  0  0  0  0  0  0  0  0  0
  -22.0830   -8.8760   20.4430 C   0  0  0  0  0  3  0  0  0  0  0  0
  -22.8220  -10.0570   20.2430 C   0  0  0  0  0  3  0  0  0  0  0  0
  -21.7370   -6.7810   21.4980 O   0  0  0  0  0  0  0  0  0  0  0  0
  -21.7180   -6.0340   22.6500 C   0  0  0  0  0  0  0  0  0  0  0  0
  -21.3380   -6.5900   23.8920 C   0  0  0  0  0  3  0  0  0  0  0  0
  -21.2640   -5.7730   25.0370 C   0  0  0  0  0  3  0  0  0  0  0  0
  -21.5630   -4.4000   24.9440 C   0  0  0  0  0  0  0  0  0  0  0  0
  -21.9390   -3.8430   23.7090 C   0  0  0  0  0  3  0  0  0  0  0  0
  -22.0120   -4.6570   22.5650 C   0  0  0  0  0  0  0  0  0  0  0  0
  -22.3520   -4.1090   21.3740 F   0  0  0  0  0  0  0  0  0  0  0  0
  -21.4850   -3.6140   26.0430 F   0  0  0  0  0  0  0  0  0  0  0  0
  -22.8710  -13.3950   21.0140 C   0  0  0  0  0  0  0  0  0  0  0  0
  -22.1230  -12.7290   21.8890 N   0  0  0  0  0  0  0  0  0  0  0  0
  -22.4280  -14.4010   20.4580 O   0  0  0  0  0  0  0  0  0  0  0  0
  -22.4820  -11.9150   22.3680 H   0  0  0  0  0  0  0  0  0  0  0  0
  -21.1810  -13.0350   22.0850 H   0  0  0  0  0  0  0  0  0  0  0  0
  -25.4640  -15.0340   20.1990 N   0  0  0  0  0  0  0  0  0  0  0  0
  -24.6390  -15.6220   20.2390 H   0  0  0  0  0  0  0  0  0  0  0  0
  -26.2920  -15.5250   19.8930 H   0  0  0  0  0  0  0  0  0  0  0  0
  -32.4900  -13.9290   18.0730 N   0  0  0  0  0  0  0  0  0  0  0  0
  -33.1420  -13.1510   18.0940 H   0  0  0  0  0  0  0  0  0  0  0  0
  -32.9340  -14.8360   17.9660 H   0  0  0  0  0  0  0  0  0  0  0  0
  -31.3480  -10.5650   19.3490 C   0  0  0  0  0  2  0  0  0  0  0  0
  -32.0130  -10.6480   18.1970 F   0  0  0  0  0  0  0  0  0  0  0  0
  -30.2970  -17.1160   18.7320 N   0  0  0  0  0  0  0  0  0  0  0  0
  -31.1690  -17.2450   18.2290 H   0  0  0  0  0  0  0  0  0  0  0  0
  -29.6830  -19.8660   18.9010 C   0  0  0  0  0  3  0  0  0  0  0  0
  -29.4960  -18.4160   18.9790 C   0  0  0  0  0  3  0  0  0  0  0  0
  -28.6700  -21.2450   19.1150 C   0  0  0  0  0  2  0  0  0  0  0  0
  -29.0250  -22.9310   19.2520 C   0  0  0  0  0  0  0  0  0  0  0  0
  -30.2250  -23.2180   19.3030 O   0  0  0  0  0  0  0  0  0  0  0  0
  -27.9270  -24.2630   19.3210 C   0  0  0  0  0  2  0  0  0  0  0  0
  -28.2410  -25.8320   19.6050 O   0  0  0  0  0  0  0  0  0  0  0  0
  -24.7040  -31.6050   22.9640 C   0  0  0  0  0  0  0  0  0  0  0  0
  -27.2090  -26.8900   19.6740 C   0  0  0  0  0  0  0  0  0  0  0  0
  -23.4780  -30.2700   21.3000 C   0  0  0  0  0  3  0  0  0  0  0  0
  -24.8950  -28.7210   19.8000 C   0  0  0  0  0  0  0  0  0  0  0  0
  -26.0440  -30.4890   21.1170 C   0  0  0  0  0  2  0  0  0  0  0  0
  -26.0970  -29.1120   20.4010 C   0  0  0  0  0  0  0  0  0  0  0  0
  -27.2510  -28.2160   20.3200 C   0  0  0  0  0  3  0  0  0  0  0  0
  -25.9630  -26.6290   19.0620 C   0  0  0  0  0  3  0  0  0  0  0  0
  -24.8460  -27.4970   19.1190 C   0  0  0  0  0  3  0  0  0  0  0  0
  -23.6800  -29.6380   19.8980 C   0  0  0  0  0  2  0  0  0  0  0  0
  -24.7640  -30.8100   21.8480 N   0  0  0  0  0  0  0  0  0  0  0  0
  -23.6230  -31.8820   23.5090 O   0  0  0  0  0  0  0  0  0  0  0  0
  -22.7960  -29.2420   22.2410 C   0  0  0  0  0  0  0  0  0  0  0  0
  -21.4600  -29.1060   22.1480 N   0  0  0  0  0  0  0  0  0  0  0  0
  -23.4730  -28.5700   23.0240 O   0  0  0  0  0  0  0  0  0  0  0  0
  -20.9690  -29.6990   21.4940 H   0  0  0  0  0  0  0  0  0  0  0  0
  -18.0680  -27.9400   22.7030 C   0  0  0  0  0  0  0  0  0  0  0  0
  -20.6400  -28.1520   22.9020 C   0  0  0  0  0  3  0  0  0  0  0  0
  -20.6990  -26.7440   22.2660 C   0  0  0  0  0  2  0  0  0  0  0  0
  -19.5620  -26.4830   21.2720 C   0  0  0  0  0  2  0  0  0  0  0  0
  -18.2020  -26.6200   21.9630 C   0  0  0  0  0  2  0  0  0  0  0  0
  -19.2120  -28.6670   23.1290 C   0  0  0  0  0  0  0  0  0  0  0  0
  -19.0300  -29.9020   23.7880 C   0  0  0  0  0  3  0  0  0  0  0  0
  -17.7380  -30.4120   24.0220 C   0  0  0  0  0  3  0  0  0  0  0  0
  -16.6100  -29.6830   23.6070 C   0  0  0  0  0  3  0  0  0  0  0  0
  -16.7760  -28.4480   22.9540 C   0  0  0  0  0  3  0  0  0  0  0  0
  -25.9880  -32.2200   23.5980 C   0  0  0  0  0  3  0  0  0  0  0  0
  -25.6690  -33.5960   24.0200 N   0  0  0  0  0  0  0  0  0  0  0  0
  -25.9750  -34.7020   23.3280 C   0  0  0  0  0  0  0  0  0  0  0  0
  -26.6200  -34.6700   22.2760 O   0  0  0  0  0  0  0  0  0  0  0  0
  -25.0930  -33.6930   24.8420 H   0  0  0  0  0  0  0  0  0  0  0  0
  -24.2260  -36.5040   23.1450 C   0  0  0  0  0  1  0  0  0  0  0  0
  -25.4940  -36.0560   23.8890 C   0  0  0  0  0  3  0  0  0  0  0  0
  -27.6510  -36.9040   24.7050 C   0  0  0  0  0  1  0  0  0  0  0  0
  -26.5170  -37.1240   23.8120 N   0  0  0  0  0  0  0  0  0  0  0  0
  -26.1090  -38.0280   24.0340 H   0  0  0  0  0  0  0  0  0  0  0  0
  -26.5310  -31.3880   24.8260 C   0  0  1  0  0  0  0  0  0  0  0  0
  -25.4600  -31.1030   25.9060 C   0  0  0  0  0  1  0  0  0  0  0  0
  -27.1050  -30.0290   24.3670 C   0  0  0  0  0  1  0  0  0  0  0  0
  -27.6970  -32.1490   25.4990 C   0  0  0  0  0  1  0  0  0  0  0  0
  4 15  1  0
  7 14  2  0
  7 15  1  0
  9  8  1  0
  9 10  1  0
 11 10  1  0
 11 13  1  0
 11 20  1  0
 12  7  1  0
 13 12  1  0
 15 16  1  0
 17 18  2  0
 18 19  1  0
 18 37  1  0
 19 22  1  0
 20 17  1  0
 20 21  1  0
 21 19  2  0
 22 23  1  0
 23 24  2  0
 25 28  1  0
 25 24  1  0
 26 25  2  0
 27 26  1  0
 27 22  2  0
 28 29  1  0
 29 30  1  0
 30 31  2  0
 32 31  1  0
 32 36  1  0
 33 32  2  0
 34 29  2  0
 34 33  1  0
 35 34  1  0
 37 38  1  0
 38 41  1  0
 38 40  1  0
 39 37  2  0
 42 43  1  0
 42 17  1  0
 44 42  1  0
 45 46  1  0
 45  6  1  0
 47 45  1  0
 48  3  1  0
 49 48  1  0
 50 53  1  0
 50  5  1  0
 51 50  1  0
 52 53  2  0
 52 54  1  0
 54 55  1  0
 55 56  2  0
 55 57  1  0
 57 58  1  0
 58 60  1  0
 59 70  2  0
 60 65  1  0
 61 69  1  0
 61 71  1  0
 62 68  1  0
 62 64  1  0
 63 69  1  0
 64 63  1  0
 65 64  2  0
 66 67  1  0
 66 60  2  0
 67 62  2  0
 68 61  1  0
 69 59  1  0
 71 73  2  0
 72 71  1  0
 74 72  1  0
 75 84  2  0
 75 80  1  0
 76 72  1  0
 76 80  1  0
 77 76  1  0
 78 79  1  0
 78 77  1  0
 79 75  1  0
 80 81  2  0
 81 82  1  0
 83 82  2  0
 84 83  1  0
 85 59  1  0
 85 86  1  0
 85 95  1  0
 86 89  1  0
 87 91  1  0
 87 86  1  0
 88 87  2  0
 91 90  1  0
 93 91  1  0
 93 94  1  0
 93 92  1  0
 95 98  1  1
 95 96  1  0
 97 95  1  0
M  ISO  4   7 100  15 100  57 101  58 101
M  END
>  <TORSDO>  (88) 
F 23

>  <SCORE>  (88) 
-10.784

>  <name>  (88) 
88

>  <ligand_id>  (88) 
88

>  <original_smiles>  (88) 
[H]C(=C([H])C([H])([H])C(=O)C([H])([H])Oc1c([H])c([H])c2c(c1[H])C([H])([H])N(C(=O)C([H])(N([H])C(=O)C([H])(N([H])C([H])([H])[H])C([H])([H])[H])C(C([H])([H])[H])(C([H])([H])[H])C([H])([H])[H])C([H])(C(=O)N([H])C1([H])c3c([H])c([H])c([H])c([H])c3C([H])([H])C([H])([H])C1([H])[H])C2([H])[H])N([H])c1c([H])c(N([H])C(=O)N2C([H])([H])C([H])([H])C([H])([H])C([H])(n3nc(-c4c([H])c([H])c(Oc5c([H])c([H])c(F)c([H])c5F)c([H])c4[H])c(C(=O)N([H])[H])c3N([H])[H])C2([H])[H])c([H])c(C([H])([H])F)c1N([H])[H]

>  <smiles>  (88) 
[H]C(=C([H])C([H])([H])C(=O)C([H])([H])Oc1c([H])c([H])c2c(c1[H])C([H])([H])N(C(=O)C([H])(N([H])C(=O)C([H])(N([H])C([H])([H])[H])C([H])([H])[H])C(C([H])([H])[H])(C([H])([H])[H])C([H])([H])[H])C([H])(C(=O)N([H])C1([H])c3c([H])c([H])c([H])c([H])c3C([H])([H])C([H])([H])C1([H])[H])C2([H])[H])N([H])c1c([H])c(N([H])C(=O)N2C([H])([H])C([H])([H])C([H])([H])C([H])(n3nc(-c4c([H])c([H])c(Oc5c([H])c([H])c(F)c([H])c5F)c([H])c4[H])c(C(=O)N([H])[H])c3N([H])[H])C2([H])[H])c([H])c(C([H])([H])F)c1N([H])[H]

$$$$
89:0:0
     RDKit          3D

 97105  0  0  1  0  0  0  0  0999 V2000
  -30.8650  -21.2900   19.4430 C   0  0  0  0  0  0  0  0  0  0  0  0
  -32.0440  -21.2170   18.8840 N   0  0  0  0  0  2  0  0  0  0  0  0
  -31.0020  -15.0150   19.9210 C   0  0  0  0  0  0  0  0  0  0  0  0
  -30.8410  -12.7110   18.9180 C   0  0  0  0  0  2  0  0  0  0  0  0
  -29.8090  -12.7460   17.7650 C   0  0  0  0  0  2  0  0  0  0  0  0
  -28.3720  -12.5510   18.2890 C   0  0  0  0  0  2  0  0  0  0  0  0
  -28.0690  -13.4310   19.5300 C   0  0  0  0  0  3  0  0  0  0  0  0
  -29.2040  -13.3420   20.5740 C   0  0  0  0  0  2  0  0  0  0  0  0
  -30.4490  -13.7480   19.9040 N   0  0  0  0  0  0  0  0  0  0  0  0
  -32.1440  -15.1870   19.4800 O   0  0  0  0  0  0  0  0  0  0  0  0
  -30.2490  -19.9530   20.0660 C   0  0  0  0  0  0  0  0  0  0  0  0
  -29.4910  -19.8920   21.2280 C   0  0  0  0  0  0  0  0  0  0  0  0
  -30.1280  -17.5370   20.4570 C   0  0  0  0  0  0  0  0  0  0  0  0
  -30.5400  -18.5670   19.6490 N   0  0  0  0  0  0  0  0  0  0  0  0
  -30.1410  -16.0480   20.2860 N   0  0  0  0  0  0  0  0  0  0  0  0
  -29.1880  -18.2350   21.7740 S   0  0  0  0  0  0  0  0  0  0  0  0
  -29.2980  -15.6380   20.6540 H   0  0  0  0  0  0  0  0  0  0  0  0
  -25.7570  -14.0230   20.4750 C   0  0  0  0  0  0  0  0  0  0  0  0
  -24.7060  -13.2490   20.8870 C   0  0  0  0  0  0  0  0  0  0  0  0
  -25.1380  -11.8950   20.7490 C   0  0  0  0  0  0  0  0  0  0  0  0
  -26.7590  -13.1390   20.1070 N   0  0  0  0  0  0  0  0  0  0  0  0
  -26.3990  -11.8500   20.3320 N   0  0  0  0  0  0  0  0  0  0  0  0
  -24.4010  -10.6360   20.9290 C   0  0  0  0  0  0  0  0  0  0  0  0
  -24.8140   -9.6670   21.8700 C   0  0  0  0  0  3  0  0  0  0  0  0
  -24.0790   -8.4740   22.0400 C   0  0  0  0  0  3  0  0  0  0  0  0
  -22.9160   -8.2410   21.2670 C   0  0  0  0  0  0  0  0  0  0  0  0
  -22.5210   -9.1990   20.3160 C   0  0  0  0  0  3  0  0  0  0  0  0
  -23.2580  -10.3830   20.1450 C   0  0  0  0  0  3  0  0  0  0  0  0
  -22.1540   -7.1000   21.3460 O   0  0  0  0  0  0  0  0  0  0  0  0
  -21.9770   -6.4310   22.5300 C   0  0  0  0  0  0  0  0  0  0  0  0
  -21.3810   -7.0490   23.6520 C   0  0  0  0  0  3  0  0  0  0  0  0
  -21.1540   -6.3040   24.8260 C   0  0  0  0  0  3  0  0  0  0  0  0
  -21.5150   -4.9450   24.8800 C   0  0  0  0  0  0  0  0  0  0  0  0
  -22.1040   -4.3280   23.7640 C   0  0  0  0  0  3  0  0  0  0  0  0
  -22.3340   -5.0690   22.5910 C   0  0  0  0  0  0  0  0  0  0  0  0
  -22.8820   -4.4640   21.5100 F   0  0  0  0  0  0  0  0  0  0  0  0
  -21.2900   -4.2280   26.0060 F   0  0  0  0  0  0  0  0  0  0  0  0
  -23.3450  -13.7350   21.2930 C   0  0  0  0  0  0  0  0  0  0  0  0
  -22.6800  -13.0160   22.1900 N   0  0  0  0  0  0  0  0  0  0  0  0
  -22.8820  -14.7850   20.8500 O   0  0  0  0  0  0  0  0  0  0  0  0
  -23.0690  -12.1630   22.5630 H   0  0  0  0  0  0  0  0  0  0  0  0
  -21.7710  -13.3210   22.5050 H   0  0  0  0  0  0  0  0  0  0  0  0
  -25.9350  -15.3990   20.3570 N   0  0  0  0  0  0  0  0  0  0  0  0
  -25.1880  -16.0540   20.5620 H   0  0  0  0  0  0  0  0  0  0  0  0
  -26.7300  -15.8370   19.9110 H   0  0  0  0  0  0  0  0  0  0  0  0
  -28.9750  -20.9040   22.0330 N   0  0  0  0  0  0  0  0  0  0  0  0
  -28.3890  -20.6700   22.8300 H   0  0  0  0  0  0  0  0  0  0  0  0
  -28.7420  -21.8340   21.6760 H   0  0  0  0  0  0  0  0  0  0  0  0
  -30.3450  -22.8700   19.3440 C   0  0  0  0  0  0  0  0  0  0  0  0
  -31.1860  -23.6000   18.7180 N   0  0  0  0  0  2  0  0  0  0  0  0
  -31.9380  -22.9500   18.4780 H   0  0  0  0  0  0  0  0  0  0  0  0
  -29.0920  -23.7460   19.8330 C   0  0  0  0  0  0  0  0  0  0  0  0
  -28.3340  -23.3650   20.7320 O   0  0  0  0  0  0  0  0  0  0  0  0
  -28.7710  -25.1750   19.1090 C   0  0  0  0  0  2  0  0  0  0  0  0
  -28.6500  -26.4900   19.8720 O   0  0  0  0  0  0  0  0  0  0  0  0
  -24.7050  -31.6770   23.1380 C   0  0  0  0  0  0  0  0  0  0  0  0
  -27.5120  -27.3500   19.8190 C   0  0  0  0  0  0  0  0  0  0  0  0
  -23.5680  -30.3320   21.4110 C   0  0  0  0  0  3  0  0  0  0  0  0
  -25.0880  -28.9270   19.8950 C   0  0  0  0  0  0  0  0  0  0  0  0
  -26.1020  -30.7420   21.2700 C   0  0  0  0  0  2  0  0  0  0  0  0
  -26.2380  -29.4030   20.5330 C   0  0  0  0  0  0  0  0  0  0  0  0
  -27.4460  -28.6290   20.4860 C   0  0  0  0  0  3  0  0  0  0  0  0
  -26.3280  -26.9520   19.1560 C   0  0  0  0  0  3  0  0  0  0  0  0
  -25.1400  -27.7110   19.1980 C   0  0  0  0  0  3  0  0  0  0  0  0
  -23.8160  -29.7510   19.9940 C   0  0  0  0  0  2  0  0  0  0  0  0
  -24.8110  -30.9340   21.9960 N   0  0  0  0  0  0  0  0  0  0  0  0
  -23.6080  -31.8780   23.6790 O   0  0  0  0  0  0  0  0  0  0  0  0
  -22.9390  -29.2350   22.3040 C   0  0  0  0  0  0  0  0  0  0  0  0
  -21.6190  -29.0170   22.1650 N   0  0  0  0  0  0  0  0  0  0  0  0
  -23.6380  -28.5850   23.0860 O   0  0  0  0  0  0  0  0  0  0  0  0
  -21.1080  -29.5950   21.5120 H   0  0  0  0  0  0  0  0  0  0  0  0
  -18.2850  -27.6790   22.6140 C   0  0  0  0  0  0  0  0  0  0  0  0
  -20.8370  -28.0030   22.8770 C   0  0  0  0  0  3  0  0  0  0  0  0
  -20.9770  -26.6180   22.2040 C   0  0  0  0  0  2  0  0  0  0  0  0
  -19.8760  -26.3320   21.1790 C   0  0  0  0  0  2  0  0  0  0  0  0
  -18.4980  -26.3870   21.8420 C   0  0  0  0  0  2  0  0  0  0  0  0
  -19.3840  -28.4470   23.0860 C   0  0  0  0  0  0  0  0  0  0  0  0
  -19.1280  -29.6570   23.7650 C   0  0  0  0  0  3  0  0  0  0  0  0
  -17.8080  -30.1010   23.9750 C   0  0  0  0  0  3  0  0  0  0  0  0
  -16.7260  -29.3290   23.5170 C   0  0  0  0  0  3  0  0  0  0  0  0
  -16.9650  -28.1180   22.8440 C   0  0  0  0  0  3  0  0  0  0  0  0
  -25.9560  -32.3250   23.8060 C   0  0  0  0  0  3  0  0  0  0  0  0
  -25.5980  -33.7010   24.1790 N   0  0  0  0  0  0  0  0  0  0  0  0
  -25.9100  -34.7910   23.4630 C   0  0  0  0  0  0  0  0  0  0  0  0
  -26.5940  -34.7420   22.4380 O   0  0  0  0  0  0  0  0  0  0  0  0
  -24.9920  -33.8110   24.9790 H   0  0  0  0  0  0  0  0  0  0  0  0
  -24.1300  -36.5410   23.1540 C   0  0  0  0  0  1  0  0  0  0  0  0
  -25.3760  -36.1480   23.9620 C   0  0  0  0  0  3  0  0  0  0  0  0
  -27.4700  -37.0740   24.8530 C   0  0  0  0  0  1  0  0  0  0  0  0
  -26.3790  -37.2350   23.8960 N   0  0  0  0  0  0  0  0  0  0  0  0
  -25.9420  -38.1380   24.0600 H   0  0  0  0  0  0  0  0  0  0  0  0
  -26.4680  -31.5270   25.0680 C   0  0  1  0  0  0  0  0  0  0  0  0
  -25.3600  -31.2280   26.1040 C   0  0  0  0  0  1  0  0  0  0  0  0
  -27.0960  -30.1790   24.6480 C   0  0  0  0  0  1  0  0  0  0  0  0
  -27.5840  -32.3330   25.7770 C   0  0  0  0  0  1  0  0  0  0  0  0
  -33.6790  -19.9770   20.2610 C   0  0  0  0  0  1  0  0  0  0  0  0
  -32.9830  -20.1080   18.8970 C   0  0  0  0  0  2  0  0  0  0  0  0
  1 11  1  0
  2 97  1  0
  2  1  1  0
  3 15  1  0
  4  9  1  0
  5  6  1  0
  5  4  1  0
  7  6  1  0
  7 21  1  0
  7  8  1  0
  9  3  1  0
  9  8  1  0
 10  3  2  0
 11 12  2  0
 12 16  1  0
 12 46  1  0
 13 16  1  0
 14 11  1  0
 14 13  2  0
 15 13  1  0
 15 17  1  0
 18 19  2  0
 19 38  1  0
 20 19  1  0
 20 23  1  0
 21 22  1  0
 21 18  1  0
 22 20  2  0
 23 24  1  0
 24 25  2  0
 26 29  1  0
 26 25  1  0
 27 26  2  0
 28 27  1  0
 28 23  2  0
 29 30  1  0
 30 35  2  0
 30 31  1  0
 31 32  2  0
 32 33  1  0
 33 37  1  0
 34 33  2  0
 35 34  1  0
 36 35  1  0
 38 39  1  0
 39 42  1  0
 39 41  1  0
 40 38  2  0
 43 18  1  0
 43 44  1  0
 45 43  1  0
 46 47  1  0
 48 46  1  0
 49  1  2  0
 49 52  1  0
 50 49  1  0
 51 50  1  0
 52 53  2  0
 54 52  1  0
 54 55  1  0
 56 67  2  0
 57 55  1  0
 57 62  1  0
 58 66  1  0
 58 68  1  0
 59 65  1  0
 59 61  1  0
 60 66  1  0
 61 60  1  0
 62 61  2  0
 63 64  1  0
 63 57  2  0
 64 59  2  0
 65 58  1  0
 66 56  1  0
 68 70  2  0
 69 68  1  0
 71 69  1  0
 72 81  2  0
 72 77  1  0
 73 69  1  0
 73 77  1  0
 74 73  1  0
 75 76  1  0
 75 74  1  0
 76 72  1  0
 77 78  2  0
 78 79  1  0
 80 79  2  0
 81 80  1  0
 82 56  1  0
 82 83  1  0
 82 92  1  0
 83 86  1  0
 84 88  1  0
 84 83  1  0
 85 84  2  0
 88 87  1  0
 90 88  1  0
 90 91  1  0
 90 89  1  0
 92 95  1  1
 92 93  1  0
 94 92  1  0
 97 96  1  0
M  ISO  4   3 100  15 100  54 101  55 101
M  END
>  <TORSDO>  (89) 
F 21

>  <SCORE>  (89) 
-11.400

>  <name>  (89) 
89

>  <ligand_id>  (89) 
89

>  <original_smiles>  (89) 
[H]N=C(C(=O)C([H])([H])Oc1c([H])c([H])c2c(c1[H])C([H])([H])N(C(=O)C([H])(N([H])C(=O)C([H])(N([H])C([H])([H])[H])C([H])([H])[H])C(C([H])([H])[H])(C([H])([H])[H])C([H])([H])[H])C([H])(C(=O)N([H])C1([H])c3c([H])c([H])c([H])c([H])c3C([H])([H])C([H])([H])C1([H])[H])C2([H])[H])C(=NC([H])([H])C([H])([H])[H])c1nc(N([H])C(=O)N2C([H])([H])C([H])([H])C([H])([H])C([H])(n3nc(-c4c([H])c([H])c(Oc5c([H])c([H])c(F)c([H])c5F)c([H])c4[H])c(C(=O)N([H])[H])c3N([H])[H])C2([H])[H])sc1N([H])[H]

>  <smiles>  (89) 
[H]N=C(C(=O)C([H])([H])Oc1c([H])c([H])c2c(c1[H])C([H])([H])N(C(=O)C([H])(N([H])C(=O)C([H])(N([H])C([H])([H])[H])C([H])([H])[H])C(C([H])([H])[H])(C([H])([H])[H])C([H])([H])[H])C([H])(C(=O)N([H])C1([H])c3c([H])c([H])c([H])c([H])c3C([H])([H])C([H])([H])C1([H])[H])C2([H])[H])C(=NC([H])([H])C([H])([H])[H])c1nc(N([H])C(=O)N2C([H])([H])C([H])([H])C([H])([H])C([H])(n3nc(-c4c([H])c([H])c(Oc5c([H])c([H])c(F)c([H])c5F)c([H])c4[H])c(C(=O)N([H])[H])c3N([H])[H])C2([H])[H])sc1N([H])[H]

$$$$
90:0:0
     RDKit          3D

 99107  0  0  1  0  0  0  0  0999 V2000
  -28.6260  -19.3980   19.1720 C   0  0  0  0  0  3  0  0  0  0  0  0
  -29.6490  -17.1910   19.0850 C   0  0  0  0  0  3  0  0  0  0  0  0
  -29.6350  -18.4320   21.1750 C   0  0  0  0  0  3  0  0  0  0  0  0
  -28.9600  -18.2390   18.4470 C   0  0  0  0  0  0  0  0  0  0  0  0
  -28.9830  -19.5120   20.5410 C   0  0  0  0  0  0  0  0  0  0  0  0
  -29.9660  -17.2630   20.4630 C   0  0  0  0  0  0  0  0  0  0  0  0
  -31.2710  -15.2130   20.5520 C   0  0  0  0  0  0  0  0  0  0  0  0
  -30.9360  -13.1120   19.3110 C   0  0  0  0  0  2  0  0  0  0  0  0
  -30.0260  -13.3180   18.0860 C   0  0  0  0  0  2  0  0  0  0  0  0
  -28.5420  -13.1930   18.4830 C   0  0  0  0  0  2  0  0  0  0  0  0
  -28.1700  -14.0140   19.7460 C   0  0  0  0  0  3  0  0  0  0  0  0
  -29.2030  -13.8020   20.8760 C   0  0  0  0  0  2  0  0  0  0  0  0
  -30.5410  -14.0890   20.3300 N   0  0  0  0  0  0  0  0  0  0  0  0
  -32.4060  -15.3920   20.1100 O   0  0  0  0  0  0  0  0  0  0  0  0
  -30.6340  -16.2180   21.1600 N   0  0  0  0  0  0  0  0  0  0  0  0
  -31.1390  -16.5490   21.9690 H   0  0  0  0  0  0  0  0  0  0  0  0
  -25.7620  -14.6410   20.3930 C   0  0  0  0  0  0  0  0  0  0  0  0
  -24.6770  -13.8720   20.7170 C   0  0  0  0  0  0  0  0  0  0  0  0
  -25.1280  -12.5180   20.6750 C   0  0  0  0  0  0  0  0  0  0  0  0
  -26.8050  -13.7500   20.1850 N   0  0  0  0  0  0  0  0  0  0  0  0
  -26.4250  -12.4690   20.4090 N   0  0  0  0  0  0  0  0  0  0  0  0
  -24.3870  -11.2590   20.8160 C   0  0  0  0  0  0  0  0  0  0  0  0
  -24.7680  -10.2840   21.7620 C   0  0  0  0  0  3  0  0  0  0  0  0
  -24.0310   -9.0870   21.8910 C   0  0  0  0  0  3  0  0  0  0  0  0
  -22.8980   -8.8600   21.0760 C   0  0  0  0  0  0  0  0  0  0  0  0
  -22.5370   -9.8260   20.1190 C   0  0  0  0  0  3  0  0  0  0  0  0
  -23.2730  -11.0130   19.9870 C   0  0  0  0  0  3  0  0  0  0  0  0
  -22.1350   -7.7180   21.1160 O   0  0  0  0  0  0  0  0  0  0  0  0
  -21.9910   -6.9910   22.2710 C   0  0  0  0  0  0  0  0  0  0  0  0
  -21.4680   -7.5610   23.4510 C   0  0  0  0  0  3  0  0  0  0  0  0
  -21.2710   -6.7610   24.5940 C   0  0  0  0  0  3  0  0  0  0  0  0
  -21.5880   -5.3900   24.5570 C   0  0  0  0  0  0  0  0  0  0  0  0
  -22.1040   -4.8180   23.3810 C   0  0  0  0  0  3  0  0  0  0  0  0
  -22.3030   -5.6170   22.2390 C   0  0  0  0  0  0  0  0  0  0  0  0
  -22.7830   -5.0580   21.1020 F   0  0  0  0  0  0  0  0  0  0  0  0
  -21.3930   -4.6170   25.6510 F   0  0  0  0  0  0  0  0  0  0  0  0
  -23.2780  -14.3590   20.9550 C   0  0  0  0  0  0  0  0  0  0  0  0
  -22.5190  -13.6590   21.7930 N   0  0  0  0  0  0  0  0  0  0  0  0
  -22.8630  -15.3940   20.4370 O   0  0  0  0  0  0  0  0  0  0  0  0
  -22.8610  -12.8200   22.2370 H   0  0  0  0  0  0  0  0  0  0  0  0
  -21.5810  -13.9720   21.9930 H   0  0  0  0  0  0  0  0  0  0  0  0
  -25.9410  -16.0120   20.2390 N   0  0  0  0  0  0  0  0  0  0  0  0
  -25.1720  -16.6650   20.3360 H   0  0  0  0  0  0  0  0  0  0  0  0
  -26.8090  -16.4510   19.9600 H   0  0  0  0  0  0  0  0  0  0  0  0
  -28.6170  -18.1170   17.0320 C   0  0  0  0  0  0  0  0  0  0  0  0
  -27.3700  -18.3150   16.6150 N   0  0  0  0  0  0  0  0  0  0  0  0
  -29.5520  -17.7820   16.1450 N   0  0  0  0  0  4  0  0  0  0  0  0
  -26.6510  -18.5500   17.2830 H   0  0  0  0  0  0  0  0  0  0  0  0
  -27.0930  -18.2020   15.6530 H   0  0  0  0  0  0  0  0  0  0  0  0
  -30.5160  -17.7590   16.4370 H   0  0  0  0  0  0  0  0  0  0  0  0
  -29.3520  -17.6090   15.1730 H   0  0  0  0  0  0  0  0  0  0  0  0
  -28.0080  -21.5840   20.8810 C   0  0  0  0  0  3  0  0  0  0  0  0
  -28.8050  -20.6830   21.2820 N   0  0  0  0  0  0  0  0  0  0  0  0
  -26.4900  -23.4000   21.7510 C   0  0  0  0  0  1  0  0  0  0  0  0
  -27.9460  -22.9480   21.5320 C   0  0  0  0  0  3  0  0  0  0  0  0
  -28.7810  -23.9270   20.6820 C   0  0  0  0  0  2  0  0  0  0  0  0
  -28.7500  -25.3800   21.1630 C   0  0  0  0  0  2  0  0  0  0  0  0
  -29.5730  -26.2870   20.2320 C   0  0  0  0  0  2  0  0  0  0  0  0
  -29.3970  -27.6630   20.5430 O   0  0  0  0  0  0  0  0  0  0  0  0
  -24.8610  -32.0920   23.6790 C   0  0  0  0  0  0  0  0  0  0  0  0
  -28.1390  -28.2190   20.4680 C   0  0  0  0  0  0  0  0  0  0  0  0
  -23.9200  -30.7620   21.8170 C   0  0  0  0  0  3  0  0  0  0  0  0
  -25.6140  -29.4870   20.4010 C   0  0  0  0  0  0  0  0  0  0  0  0
  -26.4070  -31.3460   21.8770 C   0  0  0  0  0  2  0  0  0  0  0  0
  -26.6640  -30.0540   21.1330 C   0  0  0  0  0  0  0  0  0  0  0  0
  -27.9260  -29.4260   21.1650 C   0  0  0  0  0  3  0  0  0  0  0  0
  -27.0680  -27.6570   19.7300 C   0  0  0  0  0  3  0  0  0  0  0  0
  -25.8090  -28.2840   19.7000 C   0  0  0  0  0  3  0  0  0  0  0  0
  -24.2990  -30.2310   20.4070 C   0  0  0  0  0  2  0  0  0  0  0  0
  -25.0740  -31.4090   22.5200 N   0  0  0  0  0  0  0  0  0  0  0  0
  -23.7190  -32.2270   24.1430 O   0  0  0  0  0  0  0  0  0  0  0  0
  -23.2870  -29.6060   22.6220 C   0  0  0  0  0  0  0  0  0  0  0  0
  -21.9970  -29.3380   22.3670 N   0  0  0  0  0  0  0  0  0  0  0  0
  -23.9560  -28.9560   23.4280 O   0  0  0  0  0  0  0  0  0  0  0  0
  -21.5220  -29.9220   21.6930 H   0  0  0  0  0  0  0  0  0  0  0  0
  -18.6970  -27.8740   22.4940 C   0  0  0  0  0  0  0  0  0  0  0  0
  -21.2050  -28.2700   22.9720 C   0  0  0  0  0  3  0  0  0  0  0  0
  -21.4520  -26.9220   22.2560 C   0  0  0  0  0  2  0  0  0  0  0  0
  -20.4400  -26.6310   21.1430 C   0  0  0  0  0  2  0  0  0  0  0  0
  -19.0170  -26.6170   21.7060 C   0  0  0  0  0  2  0  0  0  0  0  0
  -19.7270  -28.6580   23.0760 C   0  0  0  0  0  0  0  0  0  0  0  0
  -19.3800  -29.8340   23.7740 C   0  0  0  0  0  3  0  0  0  0  0  0
  -18.0340  -30.2290   23.8970 C   0  0  0  0  0  3  0  0  0  0  0  0
  -17.0180  -29.4430   23.3270 C   0  0  0  0  0  3  0  0  0  0  0  0
  -17.3490  -28.2660   22.6330 C   0  0  0  0  0  3  0  0  0  0  0  0
  -26.0350  -32.7590   24.4620 C   0  0  0  0  0  3  0  0  0  0  0  0
  -25.6270  -34.1310   24.7860 N   0  0  0  0  0  0  0  0  0  0  0  0
  -25.9940  -35.2170   24.0920 C   0  0  0  0  0  0  0  0  0  0  0  0
  -26.7840  -35.1710   23.1440 O   0  0  0  0  0  0  0  0  0  0  0  0
  -24.9390  -34.2340   25.5170 H   0  0  0  0  0  0  0  0  0  0  0  0
  -24.2280  -36.9320   23.5770 C   0  0  0  0  0  1  0  0  0  0  0  0
  -25.3880  -36.5680   24.5160 C   0  0  0  0  0  3  0  0  0  0  0  0
  -27.3700  -37.5330   25.5990 C   0  0  0  0  0  1  0  0  0  0  0  0
  -26.3710  -37.6730   24.5430 N   0  0  0  0  0  0  0  0  0  0  0  0
  -25.9040  -38.5680   24.6640 H   0  0  0  0  0  0  0  0  0  0  0  0
  -26.4380  -31.9740   25.7710 C   0  0  1  0  0  0  0  0  0  0  0  0
  -25.2380  -31.6440   26.6900 C   0  0  0  0  0  1  0  0  0  0  0  0
  -27.1380  -30.6430   25.4130 C   0  0  0  0  0  1  0  0  0  0  0  0
  -27.4540  -32.8040   26.5910 C   0  0  0  0  0  1  0  0  0  0  0  0
  1  5  1  0
  2  6  2  0
  4  2  1  0
  4  1  2  0
  5  3  2  0
  5 53  1  0
  6 15  1  0
  6  3  1  0
  7 15  1  0
  8 13  1  0
  9 10  1  0
  9  8  1  0
 11 10  1  0
 11 20  1  0
 11 12  1  0
 13  7  1  0
 13 12  1  0
 14  7  2  0
 15 16  1  0
 17 18  2  0
 18 37  1  0
 19 18  1  0
 19 22  1  0
 20 17  1  0
 20 21  1  0
 21 19  2  0
 22 23  1  0
 23 24  2  0
 25 28  1  0
 25 24  1  0
 26 25  2  0
 27 26  1  0
 27 22  2  0
 28 29  1  0
 29 30  1  0
 30 31  2  0
 32 31  1  0
 32 36  1  0
 33 32  2  0
 34 29  2  0
 34 33  1  0
 35 34  1  0
 37 38  1  0
 38 41  1  0
 38 40  1  0
 39 37  2  0
 42 43  1  0
 42 17  1  0
 44 42  1  0
 45  4  1  0
 46 45  1  0
 46 48  1  0
 47 50  1  0
 47 45  2  0
 49 46  1  0
 51 47  1  0
 52 53  2  0
 52 55  1  0
 55 54  1  0
 56 57  1  0
 56 55  1  0
 58 59  1  0
 58 57  1  0
 60 71  2  0
 61 59  1  0
 61 66  1  0
 62 70  1  0
 62 72  1  0
 63 69  1  0
 63 65  1  0
 64 70  1  0
 65 66  2  0
 65 64  1  0
 67 61  2  0
 68 67  1  0
 68 63  2  0
 69 62  1  0
 70 60  1  0
 72 74  2  0
 73 72  1  0
 75 73  1  0
 76 85  2  0
 76 81  1  0
 77 73  1  0
 77 81  1  0
 78 77  1  0
 79 80  1  0
 79 78  1  0
 80 76  1  0
 81 82  2  0
 82 83  1  0
 84 83  2  0
 85 84  1  0
 86 60  1  0
 86 87  1  0
 86 96  1  0
 87 90  1  0
 88 92  1  0
 88 87  1  0
 89 88  2  0
 92 91  1  0
 92 94  1  0
 94 95  1  0
 94 93  1  0
 96 99  1  1
 96 97  1  0
 98 96  1  0
M  ISO  4   7 100  15 100  58 101  59 101
M  END
>  <TORSDO>  (90) 
F 22

>  <SCORE>  (90) 
-9.812

>  <name>  (90) 
90

>  <ligand_id>  (90) 
90

>  <original_smiles>  (90) 
[H]C(=Nc1c([H])c(C(N([H])[H])=[N+]([H])[H])c([H])c(N([H])C(=O)N2C([H])([H])C([H])([H])C([H])([H])C([H])(n3nc(-c4c([H])c([H])c(Oc5c([H])c([H])c(F)c([H])c5F)c([H])c4[H])c(C(=O)N([H])[H])c3N([H])[H])C2([H])[H])c1[H])C([H])(C([H])([H])[H])C([H])([H])C([H])([H])C([H])([H])Oc1c([H])c([H])c2c(c1[H])C([H])([H])N(C(=O)C([H])(N([H])C(=O)C([H])(N([H])C([H])([H])[H])C([H])([H])[H])C(C([H])([H])[H])(C([H])([H])[H])C([H])([H])[H])C([H])(C(=O)N([H])C1([H])c3c([H])c([H])c([H])c([H])c3C([H])([H])C([H])([H])C1([H])[H])C2([H])[H]

>  <smiles>  (90) 
[H]C(=Nc1c([H])c(C(N([H])[H])=[N+]([H])[H])c([H])c(N([H])C(=O)N2C([H])([H])C([H])([H])C([H])([H])C([H])(n3nc(-c4c([H])c([H])c(Oc5c([H])c([H])c(F)c([H])c5F)c([H])c4[H])c(C(=O)N([H])[H])c3N([H])[H])C2([H])[H])c1[H])C([H])(C([H])([H])[H])C([H])([H])C([H])([H])C([H])([H])Oc1c([H])c([H])c2c(c1[H])C([H])([H])N(C(=O)C([H])(N([H])C(=O)C([H])(N([H])C([H])([H])[H])C([H])([H])[H])C(C([H])([H])[H])(C([H])([H])[H])C([H])([H])[H])C([H])(C(=O)N([H])C1([H])c3c([H])c([H])c([H])c([H])c3C([H])([H])C([H])([H])C1([H])[H])C2([H])[H]

$$$$
91:0:0
     RDKit          3D

 94103  0  0  1  0  0  0  0  0999 V2000
  -31.6860  -14.6340   19.0560 C   0  0  0  0  0  0  0  0  0  0  0  0
  -31.1560  -12.3650   18.1460 C   0  0  0  0  0  2  0  0  0  0  0  0
  -30.0240  -12.4380   17.0990 C   0  0  0  0  0  2  0  0  0  0  0  0
  -28.6460  -12.3580   17.7820 C   0  0  0  0  0  2  0  0  0  0  0  0
  -28.5310  -13.3230   18.9890 C   0  0  0  0  0  3  0  0  0  0  0  0
  -29.7540  -13.2080   19.9160 C   0  0  0  0  0  2  0  0  0  0  0  0
  -30.9620  -13.4640   19.1190 N   0  0  0  0  0  0  0  0  0  0  0  0
  -32.6730  -14.7070   18.3160 O   0  0  0  0  0  0  0  0  0  0  0  0
  -31.2620  -17.5480   18.0960 C   0  0  0  0  0  3  0  0  0  0  0  0
  -31.0950  -18.9090   17.6970 C   0  0  0  0  0  3  0  0  0  0  0  0
  -30.3420  -19.4770   19.8880 C   0  0  0  0  0  3  0  0  0  0  0  0
  -30.5050  -18.1160   20.3110 C   0  0  0  0  0  0  0  0  0  0  0  0
  -31.0150  -17.0930   19.4250 C   0  0  0  0  0  0  0  0  0  0  0  0
  -30.6480  -19.9240   18.5820 C   0  0  0  0  0  0  0  0  0  0  0  0
  -30.0980  -17.8660   21.7650 C   0  0  0  0  0  2  0  0  0  0  0  0
  -29.6970  -16.4340   22.1210 C   0  0  0  0  0  2  0  0  0  0  0  0
  -30.9230  -15.5500   22.3580 C   0  0  0  0  0  2  0  0  0  0  0  0
  -31.9440  -15.6100   21.2110 C   0  0  0  0  0  2  0  0  0  0  0  0
  -31.3370  -15.7030   19.8670 N   0  0  0  0  0  0  0  0  0  0  0  0
  -26.4450  -14.0870   20.2800 C   0  0  0  0  0  0  0  0  0  0  0  0
  -25.3750  -13.3980   20.7840 C   0  0  0  0  0  0  0  0  0  0  0  0
  -25.6230  -12.0200   20.5000 C   0  0  0  0  0  0  0  0  0  0  0  0
  -27.2820  -13.1340   19.7220 N   0  0  0  0  0  0  0  0  0  0  0  0
  -26.8050  -11.8760   19.9120 N   0  0  0  0  0  0  0  0  0  0  0  0
  -24.7760  -10.8370   20.7000 C   0  0  0  0  0  0  0  0  0  0  0  0
  -25.1980   -9.7510   21.4990 C   0  0  0  0  0  3  0  0  0  0  0  0
  -24.3580   -8.6340   21.6900 C   0  0  0  0  0  3  0  0  0  0  0  0
  -23.0800   -8.5940   21.0840 C   0  0  0  0  0  0  0  0  0  0  0  0
  -22.6730   -9.6670   20.2700 C   0  0  0  0  0  3  0  0  0  0  0  0
  -23.5130  -10.7770   20.0760 C   0  0  0  0  0  3  0  0  0  0  0  0
  -22.2060   -7.5390   21.1930 O   0  0  0  0  0  0  0  0  0  0  0  0
  -22.1210   -6.7910   22.3390 C   0  0  0  0  0  0  0  0  0  0  0  0
  -21.7520   -7.3620   23.5770 C   0  0  0  0  0  3  0  0  0  0  0  0
  -21.6090   -6.5440   24.7150 C   0  0  0  0  0  3  0  0  0  0  0  0
  -21.8260   -5.1560   24.6180 C   0  0  0  0  0  0  0  0  0  0  0  0
  -22.1880   -4.5850   23.3850 C   0  0  0  0  0  3  0  0  0  0  0  0
  -22.3310   -5.4000   22.2490 C   0  0  0  0  0  0  0  0  0  0  0  0
  -22.6600   -4.8410   21.0580 F   0  0  0  0  0  0  0  0  0  0  0  0
  -21.6810   -4.3680   25.7090 F   0  0  0  0  0  0  0  0  0  0  0  0
  -24.1440  -13.9920   21.4060 C   0  0  0  0  0  0  0  0  0  0  0  0
  -23.5260  -13.2790   22.3420 N   0  0  0  0  0  0  0  0  0  0  0  0
  -23.7500  -15.1160   21.0980 O   0  0  0  0  0  0  0  0  0  0  0  0
  -23.8630  -12.3670   22.6120 H   0  0  0  0  0  0  0  0  0  0  0  0
  -22.7050  -13.6520   22.7960 H   0  0  0  0  0  0  0  0  0  0  0  0
  -26.7660  -15.4400   20.2280 N   0  0  0  0  0  0  0  0  0  0  0  0
  -26.1450  -16.1570   20.5880 H   0  0  0  0  0  0  0  0  0  0  0  0
  -27.5960  -15.8180   19.7900 H   0  0  0  0  0  0  0  0  0  0  0  0
  -30.5400  -21.2870   18.1370 N   0  0  0  0  0  0  0  0  0  0  0  0
  -30.9090  -21.5220   17.2180 H   0  0  0  0  0  0  0  0  0  0  0  0
  -29.9060  -22.4520   18.8460 C   0  0  0  0  0  2  0  0  0  0  0  0
  -29.6330  -23.7660   17.9920 C   0  0  0  0  0  0  0  0  0  0  0  0
  -30.0420  -23.8240   16.8260 O   0  0  0  0  0  0  0  0  0  0  0  0
  -28.8370  -24.9800   18.6260 C   0  0  0  0  0  2  0  0  0  0  0  0
  -28.5430  -26.1500   17.7540 O   0  0  0  0  0  0  0  0  0  0  0  0
  -24.9660  -30.3950   22.3850 C   0  0  0  0  0  0  0  0  0  0  0  0
  -27.3870  -26.8760   18.0720 C   0  0  0  0  0  0  0  0  0  0  0  0
  -23.6220  -29.2460   20.6600 C   0  0  0  0  0  3  0  0  0  0  0  0
  -24.9390  -28.1890   18.7400 C   0  0  0  0  0  0  0  0  0  0  0  0
  -26.0680  -29.8680   20.1990 C   0  0  0  0  0  2  0  0  0  0  0  0
  -26.1480  -28.6700   19.2600 C   0  0  0  0  0  0  0  0  0  0  0  0
  -27.3750  -28.0280   18.9160 C   0  0  0  0  0  3  0  0  0  0  0  0
  -26.1520  -26.4510   17.5370 C   0  0  0  0  0  3  0  0  0  0  0  0
  -24.9410  -27.0870   17.8680 C   0  0  0  0  0  3  0  0  0  0  0  0
  -23.6630  -28.8960   19.1500 C   0  0  0  0  0  2  0  0  0  0  0  0
  -24.9120  -29.8430   21.1380 N   0  0  0  0  0  0  0  0  0  0  0  0
  -23.9640  -30.4390   23.1140 O   0  0  0  0  0  0  0  0  0  0  0  0
  -23.1970  -27.9890   21.4550 C   0  0  0  0  0  0  0  0  0  0  0  0
  -21.9070  -27.6270   21.3690 N   0  0  0  0  0  0  0  0  0  0  0  0
  -24.0250  -27.3480   22.1090 O   0  0  0  0  0  0  0  0  0  0  0  0
  -21.2870  -28.2080   20.8210 H   0  0  0  0  0  0  0  0  0  0  0  0
  -18.8250  -25.7650   21.7090 C   0  0  0  0  0  0  0  0  0  0  0  0
  -21.2980  -26.4550   22.0000 C   0  0  0  0  0  3  0  0  0  0  0  0
  -21.6420  -25.1630   21.2230 C   0  0  0  0  0  2  0  0  0  0  0  0
  -20.5870  -24.7870   20.1790 C   0  0  0  0  0  2  0  0  0  0  0  0
  -19.2230  -24.5810   20.8440 C   0  0  0  0  0  2  0  0  0  0  0  0
  -19.7980  -26.6530   22.2390 C   0  0  0  0  0  0  0  0  0  0  0  0
  -19.3690  -27.7580   23.0070 C   0  0  0  0  0  3  0  0  0  0  0  0
  -18.0010  -27.9790   23.2510 C   0  0  0  0  0  3  0  0  0  0  0  0
  -17.0430  -27.0870   22.7370 C   0  0  0  0  0  3  0  0  0  0  0  0
  -17.4550  -25.9820   21.9720 C   0  0  0  0  0  3  0  0  0  0  0  0
  -26.2810  -31.0160   22.9470 C   0  0  0  0  0  3  0  0  0  0  0  0
  -27.1240  -30.0040   23.8190 C   0  0  1  0  0  0  0  0  0  0  0  0
  -26.3060  -29.3110   24.9330 C   0  0  0  0  0  1  0  0  0  0  0  0
  -27.7400  -28.8990   22.9300 C   0  0  0  0  0  1  0  0  0  0  0  0
  -28.3060  -30.7460   24.4850 C   0  0  0  0  0  1  0  0  0  0  0  0
  -25.9120  -32.1970   23.7390 N   0  0  0  0  0  0  0  0  0  0  0  0
  -26.0580  -33.4650   23.3310 C   0  0  0  0  0  0  0  0  0  0  0  0
  -26.5900  -33.7650   22.2590 O   0  0  0  0  0  0  0  0  0  0  0  0
  -25.4180  -32.0260   24.6030 H   0  0  0  0  0  0  0  0  0  0  0  0
  -24.2000  -35.1170   23.7130 C   0  0  0  0  0  1  0  0  0  0  0  0
  -25.5300  -34.5770   24.2590 C   0  0  0  0  0  3  0  0  0  0  0  0
  -27.6690  -35.3230   25.2080 C   0  0  0  0  0  1  0  0  0  0  0  0
  -26.4840  -35.6930   24.4400 N   0  0  0  0  0  0  0  0  0  0  0  0
  -26.0350  -36.4770   24.9080 H   0  0  0  0  0  0  0  0  0  0  0  0
  1  7  1  0
  1 19  1  0
  2  7  1  0
  3  4  1  0
  3  2  1  0
  5  4  1  0
  5 23  1  0
  5  6  1  0
  7  6  1  0
  8  1  2  0
  9 13  1  0
 10  9  2  0
 10 14  1  0
 11 12  1  0
 12 15  1  0
 13 19  1  0
 13 12  2  0
 14 11  2  0
 15 16  1  0
 16 17  1  0
 18 17  1  0
 19 18  1  0
 20 21  2  0
 21 40  1  0
 22 25  1  0
 22 21  1  0
 23 24  1  0
 23 20  1  0
 24 22  2  0
 25 26  1  0
 26 27  2  0
 28 31  1  0
 28 27  1  0
 29 28  2  0
 30 29  1  0
 30 25  2  0
 31 32  1  0
 32 33  1  0
 33 34  2  0
 35 34  1  0
 35 39  1  0
 36 35  2  0
 37 32  2  0
 37 36  1  0
 38 37  1  0
 40 41  1  0
 41 43  1  0
 41 44  1  0
 42 40  2  0
 45 20  1  0
 45 46  1  0
 47 45  1  0
 48 14  1  0
 48 50  1  0
 49 48  1  0
 51 53  1  0
 51 50  1  0
 52 51  2  0
 54 56  1  0
 54 53  1  0
 55 66  2  0
 56 61  1  0
 57 65  1  0
 57 67  1  0
 58 64  1  0
 58 60  1  0
 59 65  1  0
 60 59  1  0
 61 60  2  0
 62 63  1  0
 62 56  2  0
 63 58  2  0
 64 57  1  0
 65 55  1  0
 67 69  2  0
 68 67  1  0
 70 68  1  0
 71 80  2  0
 71 76  1  0
 72 68  1  0
 72 76  1  0
 73 72  1  0
 74 75  1  0
 74 73  1  0
 75 71  1  0
 76 77  2  0
 77 78  1  0
 79 78  2  0
 80 79  1  0
 81 55  1  0
 81 86  1  0
 81 82  1  0
 82 85  1  1
 82 83  1  0
 84 82  1  0
 86 89  1  0
 87 86  1  0
 87 91  1  0
 88 87  2  0
 91 90  1  0
 91 93  1  0
 93 94  1  0
 93 92  1  0
M  ISO  4   1 100  19 100  53 101  54 101
M  END
>  <TORSDO>  (91) 
F 19

>  <SCORE>  (91) 
-6.873

>  <name>  (91) 
91

>  <ligand_id>  (91) 
91

>  <original_smiles>  (91) 
[H]c1c([H])c([H])c2c(c1[H])C([H])([H])C([H])([H])C([H])([H])C2([H])N([H])C(=O)C1([H])N(C(=O)C([H])(N([H])C(=O)C([H])(N([H])C([H])([H])[H])C([H])([H])[H])C(C([H])([H])[H])(C([H])([H])[H])C([H])([H])[H])C([H])([H])c2c([H])c(OC([H])([H])C(=O)C([H])([H])N([H])c3c([H])c([H])c4c(c3[H])C([H])([H])C([H])([H])C([H])([H])C([H])([H])N4C(=O)N3C([H])([H])C([H])([H])C([H])([H])C([H])(n4nc(-c5c([H])c([H])c(Oc6c([H])c([H])c(F)c([H])c6F)c([H])c5[H])c(C(=O)N([H])[H])c4N([H])[H])C3([H])[H])c([H])c([H])c2C1([H])[H]

>  <smiles>  (91) 
[H]c1c([H])c([H])c2c(c1[H])C([H])([H])C([H])([H])C([H])([H])C2([H])N([H])C(=O)C1([H])N(C(=O)C([H])(N([H])C(=O)C([H])(N([H])C([H])([H])[H])C([H])([H])[H])C(C([H])([H])[H])(C([H])([H])[H])C([H])([H])[H])C([H])([H])c2c([H])c(OC([H])([H])C(=O)C([H])([H])N([H])c3c([H])c([H])c4c(c3[H])C([H])([H])C([H])([H])C([H])([H])C([H])([H])N4C(=O)N3C([H])([H])C([H])([H])C([H])([H])C([H])(n4nc(-c5c([H])c([H])c(Oc6c([H])c([H])c(F)c([H])c6F)c([H])c5[H])c(C(=O)N([H])[H])c4N([H])[H])C3([H])[H])c([H])c([H])c2C1([H])[H]

$$$$
92:0:0
     RDKit          3D

 98106  0  0  1  0  0  0  0  0999 V2000
  -30.7380  -20.0390   19.5300 C   0  0  0  0  0  3  0  0  0  0  0  0
  -30.7740  -18.6140   19.4110 C   0  0  0  0  0  0  0  0  0  0  0  0
  -29.8440  -18.0730   20.2660 C   0  0  0  0  0  0  0  0  0  0  0  0
  -29.7780  -20.2950   20.4650 C   0  0  0  0  0  0  0  0  0  0  0  0
  -29.2370  -19.1210   20.9480 O   0  0  0  0  0  0  0  0  0  0  0  0
  -31.5680  -17.8690   18.4060 C   0  0  0  0  0  0  0  0  0  0  0  0
  -30.9740  -17.2270   17.4850 N   0  0  0  0  0  0  0  0  0  0  0  0
  -29.9700  -17.3250   17.5560 H   0  0  0  0  0  0  0  0  0  0  0  0
  -33.0850  -17.9410   18.5630 C   0  0  0  0  0  0  0  0  0  0  0  0
  -33.8440  -17.4380   17.7240 O   0  0  0  0  0  0  0  0  0  0  0  0
  -35.2160  -18.6800   19.8120 C   0  0  0  0  0  1  0  0  0  0  0  0
  -33.6760  -18.6600   19.7890 C   0  0  0  0  0  2  0  0  0  0  0  0
  -29.3410  -21.5670   20.9050 N   0  0  0  0  0  0  0  0  0  0  0  0
  -28.6420  -21.5870   21.6430 H   0  0  0  0  0  0  0  0  0  0  0  0
  -29.2650  -22.7200   19.9670 C   0  0  0  0  0  2  0  0  0  0  0  0
  -29.0870  -24.1480   20.5830 C   0  0  0  0  0  0  0  0  0  0  0  0
  -29.5820  -24.4270   21.6800 O   0  0  0  0  0  0  0  0  0  0  0  0
  -28.2490  -25.1900   19.7790 C   0  0  0  0  0  2  0  0  0  0  0  0
  -28.3500  -26.5820   20.2340 O   0  0  0  0  0  0  0  0  0  0  0  0
  -24.5830  -31.9030   23.2360 C   0  0  0  0  0  0  0  0  0  0  0  0
  -27.2090  -27.3850   20.1670 C   0  0  0  0  0  0  0  0  0  0  0  0
  -23.3800  -30.5010   21.5990 C   0  0  0  0  0  3  0  0  0  0  0  0
  -24.8310  -28.9640   20.1680 C   0  0  0  0  0  0  0  0  0  0  0  0
  -25.9160  -30.8320   21.4140 C   0  0  0  0  0  2  0  0  0  0  0  0
  -25.9960  -29.4580   20.7680 C   0  0  0  0  0  0  0  0  0  0  0  0
  -27.1840  -28.6750   20.7700 C   0  0  0  0  0  3  0  0  0  0  0  0
  -26.0240  -26.9450   19.5260 C   0  0  0  0  0  3  0  0  0  0  0  0
  -24.8460  -27.7110   19.5400 C   0  0  0  0  0  3  0  0  0  0  0  0
  -23.5920  -29.8290   20.2180 C   0  0  0  0  0  2  0  0  0  0  0  0
  -24.6450  -31.0950   22.1400 N   0  0  0  0  0  0  0  0  0  0  0  0
  -23.5010  -32.1790   23.7710 O   0  0  0  0  0  0  0  0  0  0  0  0
  -22.7260  -29.4780   22.5570 C   0  0  0  0  0  0  0  0  0  0  0  0
  -21.4010  -29.2930   22.4260 N   0  0  0  0  0  0  0  0  0  0  0  0
  -23.4060  -28.8570   23.3770 O   0  0  0  0  0  0  0  0  0  0  0  0
  -20.9120  -29.8460   21.7360 H   0  0  0  0  0  0  0  0  0  0  0  0
  -18.0270  -28.0950   22.9170 C   0  0  0  0  0  0  0  0  0  0  0  0
  -20.5830  -28.3560   23.1960 C   0  0  0  0  0  3  0  0  0  0  0  0
  -20.6890  -26.9240   22.6230 C   0  0  0  0  0  2  0  0  0  0  0  0
  -19.5900  -26.5980   21.6060 C   0  0  0  0  0  2  0  0  0  0  0  0
  -18.2070  -26.7450   22.2460 C   0  0  0  0  0  2  0  0  0  0  0  0
  -19.1430  -28.8590   23.3490 C   0  0  0  0  0  0  0  0  0  0  0  0
  -18.9210  -30.1240   23.9350 C   0  0  0  0  0  3  0  0  0  0  0  0
  -17.6150  -30.6250   24.0950 C   0  0  0  0  0  3  0  0  0  0  0  0
  -16.5130  -29.8570   23.6820 C   0  0  0  0  0  3  0  0  0  0  0  0
  -16.7190  -28.5940   23.0990 C   0  0  0  0  0  3  0  0  0  0  0  0
  -25.8680  -32.5360   23.8550 C   0  0  0  0  0  3  0  0  0  0  0  0
  -25.5630  -33.9380   24.1730 N   0  0  0  0  0  0  0  0  0  0  0  0
  -25.9000  -34.9830   23.4060 C   0  0  0  0  0  0  0  0  0  0  0  0
  -26.5720  -34.8690   22.3770 O   0  0  0  0  0  0  0  0  0  0  0  0
  -24.9670  -34.1010   24.9720 H   0  0  0  0  0  0  0  0  0  0  0  0
  -24.1800  -36.7770   23.0280 C   0  0  0  0  0  1  0  0  0  0  0  0
  -25.4140  -36.3760   23.8510 C   0  0  0  0  0  3  0  0  0  0  0  0
  -27.5450  -37.2590   24.6920 C   0  0  0  0  0  1  0  0  0  0  0  0
  -26.4510  -37.4240   23.7380 N   0  0  0  0  0  0  0  0  0  0  0  0
  -26.0470  -38.3470   23.8750 H   0  0  0  0  0  0  0  0  0  0  0  0
  -26.3790  -31.7730   25.1380 C   0  0  1  0  0  0  0  0  0  0  0  0
  -25.2830  -31.5450   26.2050 C   0  0  0  0  0  1  0  0  0  0  0  0
  -26.9600  -30.3910   24.7570 C   0  0  0  0  0  1  0  0  0  0  0  0
  -27.5310  -32.5700   25.7960 C   0  0  0  0  0  1  0  0  0  0  0  0
  -29.2250  -16.6790   20.4030 C   0  0  0  0  0  2  0  0  0  0  0  0
  -30.6250  -14.5820   20.4530 C   0  0  0  0  0  0  0  0  0  0  0  0
  -30.3790  -12.3930   19.3220 C   0  0  0  0  0  2  0  0  0  0  0  0
  -29.4370  -12.5870   18.1130 C   0  0  0  0  0  2  0  0  0  0  0  0
  -27.9620  -12.4380   18.5350 C   0  0  0  0  0  2  0  0  0  0  0  0
  -27.6180  -13.2650   19.8020 C   0  0  0  0  0  3  0  0  0  0  0  0
  -28.6720  -13.0440   20.9140 C   0  0  0  0  0  2  0  0  0  0  0  0
  -30.0000  -13.3690   20.3620 N   0  0  0  0  0  0  0  0  0  0  0  0
  -31.7100  -14.8130   19.9140 O   0  0  0  0  0  0  0  0  0  0  0  0
  -29.9340  -15.5620   21.0810 N   0  0  0  0  0  0  0  0  0  0  0  0
  -29.3630  -15.1790   21.8210 H   0  0  0  0  0  0  0  0  0  0  0  0
  -25.2150  -13.8740   20.4960 C   0  0  0  0  0  0  0  0  0  0  0  0
  -24.1460  -13.1030   20.8670 C   0  0  0  0  0  0  0  0  0  0  0  0
  -24.6080  -11.7520   20.8450 C   0  0  0  0  0  0  0  0  0  0  0  0
  -26.2620  -12.9920   20.2740 N   0  0  0  0  0  0  0  0  0  0  0  0
  -25.8990  -11.7110   20.5400 N   0  0  0  0  0  0  0  0  0  0  0  0
  -23.8830  -10.4900   21.0390 C   0  0  0  0  0  0  0  0  0  0  0  0
  -24.3190   -9.5240   21.9730 C   0  0  0  0  0  3  0  0  0  0  0  0
  -23.5950   -8.3260   22.1540 C   0  0  0  0  0  3  0  0  0  0  0  0
  -22.4200   -8.0860   21.4020 C   0  0  0  0  0  0  0  0  0  0  0  0
  -22.0040   -9.0410   20.4580 C   0  0  0  0  0  3  0  0  0  0  0  0
  -22.7280  -10.2310   20.2740 C   0  0  0  0  0  3  0  0  0  0  0  0
  -21.6650   -6.9420   21.4950 O   0  0  0  0  0  0  0  0  0  0  0  0
  -21.6240   -6.1970   22.6470 C   0  0  0  0  0  0  0  0  0  0  0  0
  -21.2000   -6.7490   23.8750 C   0  0  0  0  0  3  0  0  0  0  0  0
  -21.1060   -5.9310   25.0180 C   0  0  0  0  0  3  0  0  0  0  0  0
  -21.4280   -4.5630   24.9350 C   0  0  0  0  0  0  0  0  0  0  0  0
  -21.8440   -4.0100   23.7110 C   0  0  0  0  0  3  0  0  0  0  0  0
  -21.9400   -4.8260   22.5700 C   0  0  0  0  0  0  0  0  0  0  0  0
  -22.3220   -4.2840   21.3880 F   0  0  0  0  0  0  0  0  0  0  0  0
  -21.3300   -3.7750   26.0320 F   0  0  0  0  0  0  0  0  0  0  0  0
  -22.7480  -13.5810   21.1340 C   0  0  0  0  0  0  0  0  0  0  0  0
  -22.0170  -12.8880   22.0020 N   0  0  0  0  0  0  0  0  0  0  0  0
  -22.3120  -14.6050   20.6100 O   0  0  0  0  0  0  0  0  0  0  0  0
  -22.3820  -12.0610   22.4500 H   0  0  0  0  0  0  0  0  0  0  0  0
  -21.0790  -13.1910   22.2200 H   0  0  0  0  0  0  0  0  0  0  0  0
  -25.3790  -15.2430   20.3070 N   0  0  0  0  0  0  0  0  0  0  0  0
  -24.6070  -15.8960   20.3940 H   0  0  0  0  0  0  0  0  0  0  0  0
  -26.2130  -15.6690   19.9260 H   0  0  0  0  0  0  0  0  0  0  0  0
  1  4  2  0
  2  1  1  0
  2  3  2  0
  3 60  1  0
  3  5  1  0
  4 13  1  0
  4  5  1  0
  6  9  1  0
  6  2  1  0
  7  8  1  0
  7  6  2  0
  9 12  1  0
 10  9  2  0
 12 11  1  0
 13 14  1  0
 15 16  1  0
 15 13  1  0
 16 17  2  0
 18 19  1  0
 18 16  1  0
 20 31  2  0
 21 19  1  0
 21 26  1  0
 22 30  1  0
 22 32  1  0
 23 29  1  0
 23 25  1  0
 24 30  1  0
 25 26  2  0
 25 24  1  0
 27 28  1  0
 27 21  2  0
 28 23  2  0
 29 22  1  0
 30 20  1  0
 32 34  2  0
 33 32  1  0
 35 33  1  0
 36 45  2  0
 36 41  1  0
 37 33  1  0
 37 41  1  0
 38 37  1  0
 39 40  1  0
 39 38  1  0
 40 36  1  0
 41 42  2  0
 42 43  1  0
 44 43  2  0
 45 44  1  0
 46 20  1  0
 46 47  1  0
 46 56  1  0
 47 50  1  0
 48 52  1  0
 48 47  1  0
 49 48  2  0
 52 51  1  0
 54 52  1  0
 54 55  1  0
 54 53  1  0
 56 59  1  1
 56 57  1  0
 58 56  1  0
 60 69  1  0
 61 69  1  0
 62 67  1  0
 63 64  1  0
 63 62  1  0
 65 64  1  0
 65 74  1  0
 65 66  1  0
 67 61  1  0
 67 66  1  0
 68 61  2  0
 69 70  1  0
 71 72  2  0
 72 91  1  0
 73 72  1  0
 73 76  1  0
 74 71  1  0
 74 75  1  0
 75 73  2  0
 76 77  1  0
 77 78  2  0
 79 82  1  0
 79 78  1  0
 80 79  2  0
 81 80  1  0
 81 76  2  0
 82 83  1  0
 83 84  1  0
 84 85  2  0
 86 85  1  0
 86 90  1  0
 87 86  2  0
 88 83  2  0
 88 87  1  0
 89 88  1  0
 91 92  1  0
 92 95  1  0
 92 94  1  0
 93 91  2  0
 96 97  1  0
 96 71  1  0
 98 96  1  0
M  ISO  4  18 101  19 101  61 100  69 100
M  END
>  <TORSDO>  (92) 
F 24

>  <SCORE>  (92) 
-12.896

>  <name>  (92) 
92

>  <ligand_id>  (92) 
92

>  <original_smiles>  (92) 
[H]N=C(C(=O)C([H])([H])C([H])([H])[H])c1c(C([H])([H])N([H])C(=O)N2C([H])([H])C([H])([H])C([H])([H])C([H])(n3nc(-c4c([H])c([H])c(Oc5c([H])c([H])c(F)c([H])c5F)c([H])c4[H])c(C(=O)N([H])[H])c3N([H])[H])C2([H])[H])oc(N([H])C([H])([H])C(=O)C([H])([H])Oc2c([H])c([H])c3c(c2[H])C([H])([H])N(C(=O)C([H])(N([H])C(=O)C([H])(N([H])C([H])([H])[H])C([H])([H])[H])C(C([H])([H])[H])(C([H])([H])[H])C([H])([H])[H])C([H])(C(=O)N([H])C2([H])c4c([H])c([H])c([H])c([H])c4C([H])([H])C([H])([H])C2([H])[H])C3([H])[H])c1[H]

>  <smiles>  (92) 
[H]N=C(C(=O)C([H])([H])C([H])([H])[H])c1c(C([H])([H])N([H])C(=O)N2C([H])([H])C([H])([H])C([H])([H])C([H])(n3nc(-c4c([H])c([H])c(Oc5c([H])c([H])c(F)c([H])c5F)c([H])c4[H])c(C(=O)N([H])[H])c3N([H])[H])C2([H])[H])oc(N([H])C([H])([H])C(=O)C([H])([H])Oc2c([H])c([H])c3c(c2[H])C([H])([H])N(C(=O)C([H])(N([H])C(=O)C([H])(N([H])C([H])([H])[H])C([H])([H])[H])C(C([H])([H])[H])(C([H])([H])[H])C([H])([H])[H])C([H])(C(=O)N([H])C2([H])c4c([H])c([H])c([H])c([H])c4C([H])([H])C([H])([H])C2([H])[H])C3([H])[H])c1[H]

$$$$
93:0:0
     RDKit          3D

 99107  0  0  1  0  0  0  0  0999 V2000
  -29.8820  -22.5570   20.8420 C   0  0  0  0  0  3  0  0  0  0  0  0
  -30.1560  -21.6790   19.9450 N   0  0  0  0  0  0  0  0  0  0  0  0
  -31.9150  -18.0020   21.1550 C   0  0  0  0  0  3  0  0  0  0  0  0
  -31.9610  -20.4340   21.0340 C   0  0  0  0  0  3  0  0  0  0  0  0
  -30.6850  -17.9770   20.4640 C   0  0  0  0  0  0  0  0  0  0  0  0
  -30.0890  -19.2090   20.0500 C   0  0  0  0  0  0  0  0  0  0  0  0
  -30.7200  -20.4500   20.3530 C   0  0  0  0  0  0  0  0  0  0  0  0
  -32.5520  -19.2220   21.4320 C   0  0  0  0  0  0  0  0  0  0  0  0
  -33.7380  -19.2300   22.0850 F   0  0  0  0  0  0  0  0  0  0  0  0
  -27.5630  -19.3370   20.2630 C   0  0  0  0  0  1  0  0  0  0  0  0
  -28.7520  -19.2020   19.3050 C   0  0  0  0  0  2  0  0  0  0  0  0
  -29.9990  -16.6440   20.1430 C   0  0  0  0  0  2  0  0  0  0  0  0
  -31.0910  -14.4450   20.0940 C   0  0  0  0  0  0  0  0  0  0  0  0
  -30.7220  -12.2910   18.9590 C   0  0  0  0  0  2  0  0  0  0  0  0
  -29.7570  -12.5310   17.7770 C   0  0  0  0  0  2  0  0  0  0  0  0
  -28.2870  -12.4470   18.2350 C   0  0  0  0  0  2  0  0  0  0  0  0
  -28.0080  -13.2910   19.5060 C   0  0  0  0  0  3  0  0  0  0  0  0
  -29.0760  -13.0130   20.5910 C   0  0  0  0  0  2  0  0  0  0  0  0
  -30.4110  -13.2690   20.0110 N   0  0  0  0  0  0  0  0  0  0  0  0
  -32.1350  -14.6760   19.4770 O   0  0  0  0  0  0  0  0  0  0  0  0
  -30.4590  -15.4060   20.7810 N   0  0  0  0  0  0  0  0  0  0  0  0
  -29.7880  -15.0370   21.4400 H   0  0  0  0  0  0  0  0  0  0  0  0
  -25.6390  -13.9810   20.2540 C   0  0  0  0  0  0  0  0  0  0  0  0
  -24.5560  -13.2460   20.6550 C   0  0  0  0  0  0  0  0  0  0  0  0
  -24.9740  -11.8800   20.6230 C   0  0  0  0  0  0  0  0  0  0  0  0
  -26.6530  -13.0670   20.0100 N   0  0  0  0  0  0  0  0  0  0  0  0
  -26.2540  -11.7980   20.2840 N   0  0  0  0  0  0  0  0  0  0  0  0
  -24.2150  -10.6430   20.8410 C   0  0  0  0  0  0  0  0  0  0  0  0
  -24.6170   -9.6900   21.8030 C   0  0  0  0  0  3  0  0  0  0  0  0
  -23.8620   -8.5150   22.0070 C   0  0  0  0  0  3  0  0  0  0  0  0
  -22.6890   -8.2850   21.2500 C   0  0  0  0  0  0  0  0  0  0  0  0
  -22.3070   -9.2240   20.2760 C   0  0  0  0  0  3  0  0  0  0  0  0
  -23.0630  -10.3910   20.0700 C   0  0  0  0  0  3  0  0  0  0  0  0
  -21.9070   -7.1610   21.3620 O   0  0  0  0  0  0  0  0  0  0  0  0
  -21.7970   -6.4750   22.5440 C   0  0  0  0  0  0  0  0  0  0  0  0
  -21.3170   -7.0910   23.7200 C   0  0  0  0  0  3  0  0  0  0  0  0
  -21.1530   -6.3340   24.8970 C   0  0  0  0  0  3  0  0  0  0  0  0
  -21.4580   -4.9590   24.8970 C   0  0  0  0  0  0  0  0  0  0  0  0
  -21.9300   -4.3410   23.7250 C   0  0  0  0  0  3  0  0  0  0  0  0
  -22.0960   -5.0970   22.5520 C   0  0  0  0  0  0  0  0  0  0  0  0
  -22.5310   -4.4930   21.4200 F   0  0  0  0  0  0  0  0  0  0  0  0
  -21.2930   -4.2270   26.0250 F   0  0  0  0  0  0  0  0  0  0  0  0
  -23.1810  -13.7660   20.9590 C   0  0  0  0  0  0  0  0  0  0  0  0
  -22.4580  -13.1020   21.8560 N   0  0  0  0  0  0  0  0  0  0  0  0
  -22.7570  -14.7950   20.4360 O   0  0  0  0  0  0  0  0  0  0  0  0
  -22.8150  -12.2710   22.3040 H   0  0  0  0  0  0  0  0  0  0  0  0
  -21.5330  -13.4300   22.0980 H   0  0  0  0  0  0  0  0  0  0  0  0
  -25.8390  -15.3450   20.0610 N   0  0  0  0  0  0  0  0  0  0  0  0
  -25.0890  -16.0180   20.1810 H   0  0  0  0  0  0  0  0  0  0  0  0
  -26.6890  -15.7580   19.7020 H   0  0  0  0  0  0  0  0  0  0  0  0
  -29.3370  -23.9740   20.6720 C   0  0  0  0  0  0  0  0  0  0  0  0
  -29.1210  -24.6260   21.7010 O   0  0  0  0  0  0  0  0  0  0  0  0
  -28.6320  -25.8190   19.1140 C   0  0  0  0  0  3  0  0  0  0  0  0
  -29.0790  -24.5490   19.3120 C   0  0  0  0  0  0  0  0  0  0  0  0
  -29.3060  -23.7340   18.0940 N   0  0  0  0  0  4  0  0  0  0  0  0
  -29.5040  -22.7800   18.3570 H   0  0  0  0  0  0  0  0  0  0  0  0
  -30.0970  -24.0690   17.5730 H   0  0  0  0  0  0  0  0  0  0  0  0
  -28.4990  -23.7340   17.4970 H   0  0  0  0  0  0  0  0  0  0  0  0
  -28.3800  -26.7420   20.1040 O   0  0  0  0  0  0  0  0  0  0  0  0
  -24.5320  -31.8810   23.1870 C   0  0  0  0  0  0  0  0  0  0  0  0
  -27.2060  -27.4680   20.0750 C   0  0  0  0  0  0  0  0  0  0  0  0
  -23.3350  -30.4810   21.5350 C   0  0  0  0  0  3  0  0  0  0  0  0
  -24.7960  -28.9560   20.1090 C   0  0  0  0  0  0  0  0  0  0  0  0
  -25.8590  -30.8510   21.3450 C   0  0  0  0  0  2  0  0  0  0  0  0
  -25.9520  -29.4850   20.6970 C   0  0  0  0  0  0  0  0  0  0  0  0
  -27.1580  -28.7450   20.6820 C   0  0  0  0  0  3  0  0  0  0  0  0
  -26.0230  -26.9460   19.5020 C   0  0  0  0  0  3  0  0  0  0  0  0
  -24.8260  -27.6830   19.5120 C   0  0  0  0  0  3  0  0  0  0  0  0
  -23.5490  -29.8080   20.1540 C   0  0  0  0  0  2  0  0  0  0  0  0
  -24.5930  -31.0860   22.0800 N   0  0  0  0  0  0  0  0  0  0  0  0
  -23.4490  -32.1460   23.7250 O   0  0  0  0  0  0  0  0  0  0  0  0
  -22.6860  -29.4520   22.4900 C   0  0  0  0  0  0  0  0  0  0  0  0
  -21.3600  -29.2810   22.3740 N   0  0  0  0  0  0  0  0  0  0  0  0
  -23.3750  -28.8110   23.2900 O   0  0  0  0  0  0  0  0  0  0  0  0
  -20.8670  -29.8520   21.7010 H   0  0  0  0  0  0  0  0  0  0  0  0
  -17.9780  -28.1240   22.9060 C   0  0  0  0  0  0  0  0  0  0  0  0
  -20.5440  -28.3390   23.1390 C   0  0  0  0  0  3  0  0  0  0  0  0
  -20.6150  -26.9180   22.5350 C   0  0  0  0  0  2  0  0  0  0  0  0
  -19.4920  -26.6310   21.5330 C   0  0  0  0  0  2  0  0  0  0  0  0
  -18.1230  -26.7850   22.2030 C   0  0  0  0  0  2  0  0  0  0  0  0
  -19.1150  -28.8610   23.3310 C   0  0  0  0  0  0  0  0  0  0  0  0
  -18.9260  -30.1160   23.9490 C   0  0  0  0  0  3  0  0  0  0  0  0
  -17.6330  -30.6350   24.1460 C   0  0  0  0  0  3  0  0  0  0  0  0
  -16.5110  -29.8940   23.7370 C   0  0  0  0  0  3  0  0  0  0  0  0
  -16.6840  -28.6410   23.1230 C   0  0  0  0  0  3  0  0  0  0  0  0
  -25.8160  -32.5120   23.8110 C   0  0  0  0  0  3  0  0  0  0  0  0
  -25.5020  -33.9070   24.1480 N   0  0  0  0  0  0  0  0  0  0  0  0
  -25.8350  -34.9640   23.3960 C   0  0  0  0  0  0  0  0  0  0  0  0
  -26.5100  -34.8670   22.3680 O   0  0  0  0  0  0  0  0  0  0  0  0
  -24.9040  -34.0570   24.9470 H   0  0  0  0  0  0  0  0  0  0  0  0
  -24.1080  -36.7550   23.0340 C   0  0  0  0  0  1  0  0  0  0  0  0
  -25.3390  -36.3470   23.8580 C   0  0  0  0  0  3  0  0  0  0  0  0
  -27.4580  -37.2290   24.7280 C   0  0  0  0  0  1  0  0  0  0  0  0
  -26.3710  -37.4020   23.7670 N   0  0  0  0  0  0  0  0  0  0  0  0
  -25.9610  -38.3210   23.9160 H   0  0  0  0  0  0  0  0  0  0  0  0
  -26.3390  -31.7350   25.0820 C   0  0  1  0  0  0  0  0  0  0  0  0
  -25.2480  -31.4820   26.1470 C   0  0  0  0  0  1  0  0  0  0  0  0
  -26.9320  -30.3640   24.6790 C   0  0  0  0  0  1  0  0  0  0  0  0
  -27.4830  -32.5320   25.7520 C   0  0  0  0  0  1  0  0  0  0  0  0
  2  7  1  0
  2  1  2  0
  3  8  1  0
  4  8  2  0
  5  3  2  0
  6  7  2  0
  6  5  1  0
  7  4  1  0
  8  9  1  0
 11  6  1  0
 11 10  1  0
 12  5  1  0
 12 21  1  0
 13 21  1  0
 14 19  1  0
 15 16  1  0
 15 14  1  0
 17 16  1  0
 17 26  1  0
 17 18  1  0
 19 13  1  0
 19 18  1  0
 20 13  2  0
 21 22  1  0
 23 24  2  0
 24 43  1  0
 25 24  1  0
 25 28  1  0
 26 23  1  0
 26 27  1  0
 27 25  2  0
 28 29  1  0
 29 30  2  0
 31 34  1  0
 31 30  1  0
 32 31  2  0
 33 32  1  0
 33 28  2  0
 34 35  1  0
 35 40  2  0
 35 36  1  0
 36 37  2  0
 38 37  1  0
 38 42  1  0
 39 38  2  0
 40 39  1  0
 41 40  1  0
 43 44  1  0
 44 47  1  0
 44 46  1  0
 45 43  2  0
 48 49  1  0
 48 23  1  0
 50 48  1  0
 51  1  1  0
 51 52  2  0
 53 54  2  0
 53 59  1  0
 54 51  1  0
 55 56  1  0
 55 54  1  0
 57 55  1  0
 58 55  1  0
 60 71  2  0
 61 59  1  0
 61 66  1  0
 62 70  1  0
 62 72  1  0
 63 69  1  0
 63 65  1  0
 64 70  1  0
 65 64  1  0
 66 65  2  0
 67 68  1  0
 67 61  2  0
 68 63  2  0
 69 62  1  0
 70 60  1  0
 72 74  2  0
 73 72  1  0
 75 73  1  0
 76 85  2  0
 76 81  1  0
 77 73  1  0
 77 81  1  0
 78 77  1  0
 79 80  1  0
 79 78  1  0
 80 76  1  0
 81 82  2  0
 82 83  1  0
 84 83  2  0
 85 84  1  0
 86 60  1  0
 86 87  1  0
 86 96  1  0
 87 90  1  0
 88 92  1  0
 88 87  1  0
 89 88  2  0
 92 91  1  0
 94 92  1  0
 94 95  1  0
 94 93  1  0
 96 99  1  1
 96 97  1  0
 98 96  1  0
M  ISO  4  13 100  21 100  53 101  59 101
M  END
>  <TORSDO>  (93) 
F 22

>  <SCORE>  (93) 
-13.313

>  <name>  (93) 
93

>  <ligand_id>  (93) 
93

>  <original_smiles>  (93) 
[H]C(=Nc1c([H])c(F)c([H])c(C([H])([H])N([H])C(=O)N2C([H])([H])C([H])([H])C([H])([H])C([H])(n3nc(-c4c([H])c([H])c(Oc5c([H])c([H])c(F)c([H])c5F)c([H])c4[H])c(C(=O)N([H])[H])c3N([H])[H])C2([H])[H])c1C([H])([H])C([H])([H])[H])C(=O)C(=C([H])Oc1c([H])c([H])c2c(c1[H])C([H])([H])N(C(=O)C([H])(N([H])C(=O)C([H])(N([H])C([H])([H])[H])C([H])([H])[H])C(C([H])([H])[H])(C([H])([H])[H])C([H])([H])[H])C([H])(C(=O)N([H])C1([H])c3c([H])c([H])c([H])c([H])c3C([H])([H])C([H])([H])C1([H])[H])C2([H])[H])[N+]([H])([H])[H]

>  <smiles>  (93) 
[H]C(=Nc1c([H])c(F)c([H])c(C([H])([H])N([H])C(=O)N2C([H])([H])C([H])([H])C([H])([H])C([H])(n3nc(-c4c([H])c([H])c(Oc5c([H])c([H])c(F)c([H])c5F)c([H])c4[H])c(C(=O)N([H])[H])c3N([H])[H])C2([H])[H])c1C([H])([H])C([H])([H])[H])C(=O)C(=C([H])Oc1c([H])c([H])c2c(c1[H])C([H])([H])N(C(=O)C([H])(N([H])C(=O)C([H])(N([H])C([H])([H])[H])C([H])([H])[H])C(C([H])([H])[H])(C([H])([H])[H])C([H])([H])[H])C([H])(C(=O)N([H])C1([H])c3c([H])c([H])c([H])c([H])c3C([H])([H])C([H])([H])C1([H])[H])C2([H])[H])[N+]([H])([H])[H]

$$$$
94:0:0
     RDKit          3D

100108  0  0  1  0  0  0  0  0999 V2000
  -29.5780  -20.7490   21.9940 C   0  0  0  0  0  3  0  0  0  0  0  0
  -30.8160  -20.5040   21.8360 N   0  0  0  0  0  0  0  0  0  0  0  0
  -32.6460  -19.5150   20.7130 C   0  0  0  0  0  3  0  0  0  0  0  0
  -32.6960  -17.2020   19.9690 C   0  0  0  0  0  3  0  0  0  0  0  0
  -30.7190  -18.0730   21.1210 C   0  0  0  0  0  3  0  0  0  0  0  0
  -33.3240  -18.4580   20.0800 C   0  0  0  0  0  0  0  0  0  0  0  0
  -31.3490  -19.3480   21.2390 C   0  0  0  0  0  0  0  0  0  0  0  0
  -31.3830  -17.0040   20.4620 C   0  0  0  0  0  0  0  0  0  0  0  0
  -31.2680  -14.6300   19.7270 C   0  0  0  0  0  0  0  0  0  0  0  0
  -31.0040  -12.2180   19.2470 C   0  0  0  0  0  2  0  0  0  0  0  0
  -30.0420  -11.9660   18.0700 C   0  0  0  0  0  2  0  0  0  0  0  0
  -28.5870  -11.8960   18.5690 C   0  0  0  0  0  2  0  0  0  0  0  0
  -28.2160  -13.1000   19.4770 C   0  0  0  0  0  3  0  0  0  0  0  0
  -29.2840  -13.3110   20.5740 C   0  0  0  0  0  2  0  0  0  0  0  0
  -30.5960  -13.4640   19.9200 N   0  0  0  0  0  0  0  0  0  0  0  0
  -32.2850  -14.6970   19.0260 O   0  0  0  0  0  0  0  0  0  0  0  0
  -30.7540  -15.7230   20.3290 N   0  0  0  0  0  0  0  0  0  0  0  0
  -29.8400  -15.6130   20.7400 H   0  0  0  0  0  0  0  0  0  0  0  0
  -25.9620  -13.9180   20.4140 C   0  0  0  0  0  0  0  0  0  0  0  0
  -24.8430  -13.2420   20.8220 C   0  0  0  0  0  0  0  0  0  0  0  0
  -25.1430  -11.8540   20.6730 C   0  0  0  0  0  0  0  0  0  0  0  0
  -26.8800  -12.9450   20.0480 N   0  0  0  0  0  0  0  0  0  0  0  0
  -26.3930  -11.6960   20.2580 N   0  0  0  0  0  0  0  0  0  0  0  0
  -24.2940  -10.6690   20.8480 C   0  0  0  0  0  0  0  0  0  0  0  0
  -24.6650   -9.6170   21.7160 C   0  0  0  0  0  3  0  0  0  0  0  0
  -23.8240   -8.4950   21.8790 C   0  0  0  0  0  3  0  0  0  0  0  0
  -22.5990   -8.4180   21.1770 C   0  0  0  0  0  0  0  0  0  0  0  0
  -22.2460   -9.4570   20.2980 C   0  0  0  0  0  3  0  0  0  0  0  0
  -23.0860  -10.5700   20.1310 C   0  0  0  0  0  3  0  0  0  0  0  0
  -21.7310   -7.3550   21.2540 O   0  0  0  0  0  0  0  0  0  0  0  0
  -21.6170   -6.6010   22.3940 C   0  0  0  0  0  0  0  0  0  0  0  0
  -21.2520   -7.1730   23.6320 C   0  0  0  0  0  3  0  0  0  0  0  0
  -21.0770   -6.3500   24.7640 C   0  0  0  0  0  3  0  0  0  0  0  0
  -21.2580   -4.9590   24.6580 C   0  0  0  0  0  0  0  0  0  0  0  0
  -21.6150   -4.3870   23.4240 C   0  0  0  0  0  3  0  0  0  0  0  0
  -21.7900   -5.2060   22.2950 C   0  0  0  0  0  0  0  0  0  0  0  0
  -22.1140   -4.6470   21.1040 F   0  0  0  0  0  0  0  0  0  0  0  0
  -21.0830   -4.1670   25.7420 F   0  0  0  0  0  0  0  0  0  0  0  0
  -23.5330  -13.8490   21.2380 C   0  0  0  0  0  0  0  0  0  0  0  0
  -22.8080  -13.1910   22.1350 N   0  0  0  0  0  0  0  0  0  0  0  0
  -23.1690  -14.9410   20.8020 O   0  0  0  0  0  0  0  0  0  0  0  0
  -23.1170  -12.3050   22.5090 H   0  0  0  0  0  0  0  0  0  0  0  0
  -21.9300  -13.5780   22.4500 H   0  0  0  0  0  0  0  0  0  0  0  0
  -26.2680  -15.2710   20.3050 N   0  0  0  0  0  0  0  0  0  0  0  0
  -25.5890  -15.9950   20.5160 H   0  0  0  0  0  0  0  0  0  0  0  0
  -27.1350  -15.6380   19.9330 H   0  0  0  0  0  0  0  0  0  0  0  0
  -34.7060  -18.6960   19.4830 C   0  0  0  0  0  2  0  0  0  0  0  0
  -35.6630  -19.1980   20.4780 N   0  0  0  0  0  4  0  0  0  0  0  0
  -35.3450  -20.0670   20.8640 H   0  0  0  0  0  0  0  0  0  0  0  0
  -36.5510  -19.3590   20.0370 H   0  0  0  0  0  0  0  0  0  0  0  0
  -35.7850  -18.5300   21.2160 H   0  0  0  0  0  0  0  0  0  0  0  0
  -29.1100  -22.0720   22.6130 C   0  0  0  0  0  2  0  0  0  0  0  0
  -28.5170  -23.8790   20.8830 C   0  0  0  0  0  3  0  0  0  0  0  0
  -28.1550  -22.8780   21.7300 C   0  0  0  0  0  0  0  0  0  0  0  0
  -27.5810  -24.6440   20.0170 C   0  0  0  0  0  0  0  0  0  0  0  0
  -26.3670  -24.4140   19.9660 O   0  0  0  0  0  0  0  0  0  0  0  0
  -28.1520  -25.7200   19.0680 C   0  0  0  0  0  2  0  0  0  0  0  0
  -28.1350  -27.0460   19.6230 O   0  0  0  0  0  0  0  0  0  0  0  0
  -24.5840  -31.9390   23.3460 C   0  0  0  0  0  0  0  0  0  0  0  0
  -26.9530  -27.7610   19.7110 C   0  0  0  0  0  0  0  0  0  0  0  0
  -23.2460  -30.6810   21.6920 C   0  0  0  0  0  3  0  0  0  0  0  0
  -24.5770  -29.2730   20.0270 C   0  0  0  0  0  0  0  0  0  0  0  0
  -25.7580  -31.0390   21.3430 C   0  0  0  0  0  2  0  0  0  0  0  0
  -25.7770  -29.7310   20.5820 C   0  0  0  0  0  0  0  0  0  0  0  0
  -26.9630  -28.9770   20.4330 C   0  0  0  0  0  3  0  0  0  0  0  0
  -25.7360  -27.3380   19.1280 C   0  0  0  0  0  3  0  0  0  0  0  0
  -24.5500  -28.0750   19.2990 C   0  0  0  0  0  3  0  0  0  0  0  0
  -23.3450  -30.1230   20.2470 C   0  0  0  0  0  2  0  0  0  0  0  0
  -24.5510  -31.2330   22.1830 N   0  0  0  0  0  0  0  0  0  0  0  0
  -23.5480  -32.1680   23.9880 O   0  0  0  0  0  0  0  0  0  0  0  0
  -22.6640  -29.5800   22.6080 C   0  0  0  0  0  0  0  0  0  0  0  0
  -21.3680  -29.2780   22.4300 N   0  0  0  0  0  0  0  0  0  0  0  0
  -23.3740  -29.0050   23.4360 O   0  0  0  0  0  0  0  0  0  0  0  0
  -20.8520  -29.7930   21.7310 H   0  0  0  0  0  0  0  0  0  0  0  0
  -18.1270  -27.7120   22.7210 C   0  0  0  0  0  0  0  0  0  0  0  0
  -20.6180  -28.2510   23.1530 C   0  0  0  0  0  3  0  0  0  0  0  0
  -20.9200  -26.8440   22.5890 C   0  0  0  0  0  2  0  0  0  0  0  0
  -19.9260  -26.4010   21.5130 C   0  0  0  0  0  2  0  0  0  0  0  0
  -18.4970  -26.3920   22.0660 C   0  0  0  0  0  2  0  0  0  0  0  0
  -19.1240  -28.5910   23.2180 C   0  0  0  0  0  0  0  0  0  0  0  0
  -18.7300  -29.8220   23.7850 C   0  0  0  0  0  3  0  0  0  0  0  0
  -17.3710  -30.1750   23.8660 C   0  0  0  0  0  3  0  0  0  0  0  0
  -16.3870  -29.2900   23.3920 C   0  0  0  0  0  3  0  0  0  0  0  0
  -16.7650  -28.0620   22.8220 C   0  0  0  0  0  3  0  0  0  0  0  0
  -25.9190  -32.5150   23.9150 C   0  0  0  0  0  3  0  0  0  0  0  0
  -25.6560  -33.8950   24.3420 N   0  0  0  0  0  0  0  0  0  0  0  0
  -25.9550  -34.9850   23.6230 C   0  0  0  0  0  0  0  0  0  0  0  0
  -26.5500  -34.9340   22.5430 O   0  0  0  0  0  0  0  0  0  0  0  0
  -25.1230  -34.0100   25.1910 H   0  0  0  0  0  0  0  0  0  0  0  0
  -24.2250  -36.8070   23.5030 C   0  0  0  0  0  1  0  0  0  0  0  0
  -25.5210  -36.3490   24.1920 C   0  0  0  0  0  3  0  0  0  0  0  0
  -27.7280  -37.1650   24.8960 C   0  0  0  0  0  1  0  0  0  0  0  0
  -26.5560  -37.3990   24.0540 N   0  0  0  0  0  0  0  0  0  0  0  0
  -26.1770  -38.3120   24.2870 H   0  0  0  0  0  0  0  0  0  0  0  0
  -26.5070  -31.6640   25.1080 C   0  0  1  0  0  0  0  0  0  0  0  0
  -25.4650  -31.3250   26.2000 C   0  0  0  0  0  1  0  0  0  0  0  0
  -27.1000  -30.3340   24.5890 C   0  0  0  0  0  1  0  0  0  0  0  0
  -27.6660  -32.4380   25.7780 C   0  0  0  0  0  1  0  0  0  0  0  0
  -26.8870  -22.4840   21.9420 O   0  0  0  0  0  0  0  0  0  0  0  0
  -26.8800  -21.8720   22.6670 H   0  0  0  0  0  0  0  0  0  0  0  0
  1 52  1  0
  2  1  2  0
  3  7  1  0
  4  6  1  0
  4  8  2  0
  5  7  2  0
  6  3  2  0
  7  2  1  0
  8  5  1  0
  9 15  1  0
  9 17  1  0
 10 15  1  0
 11 12  1  0
 11 10  1  0
 13 12  1  0
 13 22  1  0
 13 14  1  0
 15 14  1  0
 16  9  2  0
 17  8  1  0
 17 18  1  0
 19 20  2  0
 20 39  1  0
 21 20  1  0
 21 24  1  0
 22 23  1  0
 22 19  1  0
 23 21  2  0
 24 25  1  0
 25 26  2  0
 27 30  1  0
 27 26  1  0
 28 27  2  0
 29 28  1  0
 29 24  2  0
 30 31  1  0
 31 32  1  0
 32 33  2  0
 34 33  1  0
 34 38  1  0
 35 34  2  0
 36 31  2  0
 36 35  1  0
 37 36  1  0
 39 40  1  0
 40 43  1  0
 40 42  1  0
 41 39  2  0
 44 19  1  0
 44 45  1  0
 46 44  1  0
 47  6  1  0
 47 48  1  0
 48 49  1  0
 48 51  1  0
 50 48  1  0
 53 54  2  0
 54 99  1  0
 54 52  1  0
 55 53  1  0
 56 55  2  0
 57 58  1  0
 57 55  1  0
 58 60  1  0
 59 70  2  0
 60 65  1  0
 61 69  1  0
 61 71  1  0
 62 68  1  0
 62 64  1  0
 63 69  1  0
 64 63  1  0
 65 64  2  0
 66 67  1  0
 66 60  2  0
 67 62  2  0
 68 61  1  0
 69 59  1  0
 71 73  2  0
 72 71  1  0
 74 72  1  0
 75 84  2  0
 75 80  1  0
 76 72  1  0
 76 80  1  0
 77 76  1  0
 78 79  1  0
 78 77  1  0
 79 75  1  0
 80 81  2  0
 81 82  1  0
 83 82  2  0
 84 83  1  0
 85 59  1  0
 85 86  1  0
 85 95  1  0
 86 89  1  0
 87 91  1  0
 87 86  1  0
 88 87  2  0
 91 90  1  0
 93 91  1  0
 93 94  1  0
 93 92  1  0
 95 98  1  1
 95 96  1  0
 97 95  1  0
 99100  1  0
M  ISO  4   9 100  17 100  57 101  58 101
M  END
>  <TORSDO>  (94) 
F 24

>  <SCORE>  (94) 
-12.320

>  <name>  (94) 
94

>  <ligand_id>  (94) 
94

>  <original_smiles>  (94) 
[H]OC(=C([H])C(=O)C([H])([H])Oc1c([H])c([H])c2c(c1[H])C([H])([H])N(C(=O)C([H])(N([H])C(=O)C([H])(N([H])C([H])([H])[H])C([H])([H])[H])C(C([H])([H])[H])(C([H])([H])[H])C([H])([H])[H])C([H])(C(=O)N([H])C1([H])c3c([H])c([H])c([H])c([H])c3C([H])([H])C([H])([H])C1([H])[H])C2([H])[H])C([H])([H])C([H])=Nc1c([H])c(N([H])C(=O)N2C([H])([H])C([H])([H])C([H])([H])C([H])(n3nc(-c4c([H])c([H])c(Oc5c([H])c([H])c(F)c([H])c5F)c([H])c4[H])c(C(=O)N([H])[H])c3N([H])[H])C2([H])[H])c([H])c(C([H])([H])[N+]([H])([H])[H])c1[H]

>  <smiles>  (94) 
[H]OC(=C([H])C(=O)C([H])([H])Oc1c([H])c([H])c2c(c1[H])C([H])([H])N(C(=O)C([H])(N([H])C(=O)C([H])(N([H])C([H])([H])[H])C([H])([H])[H])C(C([H])([H])[H])(C([H])([H])[H])C([H])([H])[H])C([H])(C(=O)N([H])C1([H])c3c([H])c([H])c([H])c([H])c3C([H])([H])C([H])([H])C1([H])[H])C2([H])[H])C([H])([H])C([H])=Nc1c([H])c(N([H])C(=O)N2C([H])([H])C([H])([H])C([H])([H])C([H])(n3nc(-c4c([H])c([H])c(Oc5c([H])c([H])c(F)c([H])c5F)c([H])c4[H])c(C(=O)N([H])[H])c3N([H])[H])C2([H])[H])c([H])c(C([H])([H])[N+]([H])([H])[H])c1[H]

$$$$
