0:0:0
     RDKit          3D

 92100  0  0  1  0  0  0  0  0999 V2000
  -30.0610  -19.3180   20.4040 C   0  0  0  0  0  3  0  0  0  0  0  0
  -28.3220  -17.6520   20.0240 C   0  0  0  0  0  3  0  0  0  0  0  0
  -27.8740  -20.0190   19.6160 C   0  0  0  0  0  3  0  0  0  0  0  0
  -29.6450  -17.9570   20.4110 C   0  0  0  0  0  0  0  0  0  0  0  0
  -29.1890  -20.3730   20.0170 C   0  0  0  0  0  0  0  0  0  0  0  0
  -27.4460  -18.6780   19.6280 C   0  0  0  0  0  0  0  0  0  0  0  0
  -26.1800  -18.3760   19.2540 F   0  0  0  0  0  0  0  0  0  0  0  0
  -28.9410  -22.7290   20.2220 C   0  0  0  0  0  3  0  0  0  0  0  0
  -29.6850  -21.7010   19.9910 N   0  0  0  0  0  0  0  0  0  0  0  0
  -29.3130  -24.2090   20.1260 C   0  0  0  0  0  0  0  0  0  0  0  0
  -30.4000  -24.6010   19.6770 O   0  0  0  0  0  0  0  0  0  0  0  0
  -28.2500  -25.2160   20.6230 C   0  0  0  0  0  2  0  0  0  0  0  0
  -28.4750  -26.5750   20.1670 O   0  0  0  0  0  0  0  0  0  0  0  0
  -24.5950  -31.7490   23.2000 C   0  0  0  0  0  0  0  0  0  0  0  0
  -27.3290  -27.3460   20.1310 C   0  0  0  0  0  0  0  0  0  0  0  0
  -23.4380  -30.3690   21.5050 C   0  0  0  0  0  3  0  0  0  0  0  0
  -24.9360  -28.8590   20.0940 C   0  0  0  0  0  0  0  0  0  0  0  0
  -25.9680  -30.7360   21.3790 C   0  0  0  0  0  2  0  0  0  0  0  0
  -26.0780  -29.3740   20.7210 C   0  0  0  0  0  0  0  0  0  0  0  0
  -27.2810  -28.6270   20.7340 C   0  0  0  0  0  3  0  0  0  0  0  0
  -26.1730  -26.8560   19.4850 C   0  0  0  0  0  3  0  0  0  0  0  0
  -24.9780  -27.6010   19.4710 C   0  0  0  0  0  3  0  0  0  0  0  0
  -23.6870  -29.7130   20.1220 C   0  0  0  0  0  2  0  0  0  0  0  0
  -24.6840  -30.9650   22.0870 N   0  0  0  0  0  0  0  0  0  0  0  0
  -23.4990  -32.0090   23.7150 O   0  0  0  0  0  0  0  0  0  0  0  0
  -22.7660  -29.3290   22.4320 C   0  0  0  0  0  0  0  0  0  0  0  0
  -21.4380  -29.1770   22.2970 N   0  0  0  0  0  0  0  0  0  0  0  0
  -23.4360  -28.6660   23.2280 O   0  0  0  0  0  0  0  0  0  0  0  0
  -20.9590  -29.7640   21.6300 H   0  0  0  0  0  0  0  0  0  0  0  0
  -18.0350  -28.0720   22.7980 C   0  0  0  0  0  0  0  0  0  0  0  0
  -20.6030  -28.2300   23.0360 C   0  0  0  0  0  3  0  0  0  0  0  0
  -20.6470  -26.8250   22.3910 C   0  0  0  0  0  2  0  0  0  0  0  0
  -19.5180  -26.5890   21.3810 C   0  0  0  0  0  2  0  0  0  0  0  0
  -18.1530  -26.7510   22.0560 C   0  0  0  0  0  2  0  0  0  0  0  0
  -19.1870  -28.7740   23.2450 C   0  0  0  0  0  0  0  0  0  0  0  0
  -19.0220  -30.0140   23.8980 C   0  0  0  0  0  3  0  0  0  0  0  0
  -17.7380  -30.5510   24.1110 C   0  0  0  0  0  3  0  0  0  0  0  0
  -16.6020  -29.8450   23.6810 C   0  0  0  0  0  3  0  0  0  0  0  0
  -16.7510  -28.6070   23.0300 C   0  0  0  0  0  3  0  0  0  0  0  0
  -25.8620  -32.3740   23.8610 C   0  0  0  0  0  3  0  0  0  0  0  0
  -26.3390  -31.5980   25.1500 C   0  0  1  0  0  0  0  0  0  0  0  0
  -25.2110  -31.3580   26.1830 C   0  0  0  0  0  1  0  0  0  0  0  0
  -26.9310  -30.2210   24.7710 C   0  0  0  0  0  1  0  0  0  0  0  0
  -27.4680  -32.3890   25.8520 C   0  0  0  0  0  1  0  0  0  0  0  0
  -25.5490  -33.7730   24.1820 N   0  0  0  0  0  0  0  0  0  0  0  0
  -25.9050  -34.8240   23.4320 C   0  0  0  0  0  0  0  0  0  0  0  0
  -26.6020  -34.7180   22.4190 O   0  0  0  0  0  0  0  0  0  0  0  0
  -24.9330  -33.9300   24.9670 H   0  0  0  0  0  0  0  0  0  0  0  0
  -24.1860  -36.6150   23.0330 C   0  0  0  0  0  1  0  0  0  0  0  0
  -25.4080  -36.2140   23.8740 C   0  0  0  0  0  3  0  0  0  0  0  0
  -27.5210  -37.1010   24.7540 C   0  0  0  0  0  1  0  0  0  0  0  0
  -26.4430  -37.2650   23.7820 N   0  0  0  0  0  0  0  0  0  0  0  0
  -26.0340  -38.1860   23.9150 H   0  0  0  0  0  0  0  0  0  0  0  0
  -30.6170  -16.8550   20.8610 C   0  0  0  0  0  2  0  0  0  0  0  0
  -30.7640  -14.4050   20.3710 C   0  0  0  0  0  0  0  0  0  0  0  0
  -30.4270  -12.2030   19.3120 C   0  0  0  0  0  2  0  0  0  0  0  0
  -29.4870  -12.3600   18.1000 C   0  0  0  0  0  2  0  0  0  0  0  0
  -28.0140  -12.2550   18.5370 C   0  0  0  0  0  2  0  0  0  0  0  0
  -27.6850  -13.1510   19.7620 C   0  0  0  0  0  3  0  0  0  0  0  0
  -28.7400  -12.9780   20.8780 C   0  0  0  0  0  2  0  0  0  0  0  0
  -30.0660  -13.2390   20.2930 N   0  0  0  0  0  0  0  0  0  0  0  0
  -31.8950  -14.5330   19.8950 O   0  0  0  0  0  0  0  0  0  0  0  0
  -30.1020  -15.4700   20.8610 N   0  0  0  0  0  0  0  0  0  0  0  0
  -29.1750  -15.3120   21.2220 H   0  0  0  0  0  0  0  0  0  0  0  0
  -25.3050  -13.8120   20.4820 C   0  0  0  0  0  0  0  0  0  0  0  0
  -24.2230  -13.0650   20.8610 C   0  0  0  0  0  0  0  0  0  0  0  0
  -24.6530  -11.7020   20.8320 C   0  0  0  0  0  0  0  0  0  0  0  0
  -26.3300  -12.9080   20.2500 N   0  0  0  0  0  0  0  0  0  0  0  0
  -25.9410  -11.6340   20.5170 N   0  0  0  0  0  0  0  0  0  0  0  0
  -23.9010  -10.4580   21.0300 C   0  0  0  0  0  0  0  0  0  0  0  0
  -24.3300   -9.4730   21.9480 C   0  0  0  0  0  3  0  0  0  0  0  0
  -23.5800   -8.2930   22.1340 C   0  0  0  0  0  3  0  0  0  0  0  0
  -22.3850   -8.0870   21.4020 C   0  0  0  0  0  0  0  0  0  0  0  0
  -21.9750   -9.0600   20.4730 C   0  0  0  0  0  3  0  0  0  0  0  0
  -22.7250  -10.2320   20.2860 C   0  0  0  0  0  3  0  0  0  0  0  0
  -21.6060   -6.9600   21.4980 O   0  0  0  0  0  0  0  0  0  0  0  0
  -21.5720   -6.2040   22.6420 C   0  0  0  0  0  0  0  0  0  0  0  0
  -21.1960   -6.7550   23.8880 C   0  0  0  0  0  3  0  0  0  0  0  0
  -21.1050   -5.9270   25.0250 C   0  0  0  0  0  3  0  0  0  0  0  0
  -21.3830   -4.5510   24.9180 C   0  0  0  0  0  0  0  0  0  0  0  0
  -21.7520   -4.0000   23.6780 C   0  0  0  0  0  3  0  0  0  0  0  0
  -21.8420   -4.8250   22.5440 C   0  0  0  0  0  0  0  0  0  0  0  0
  -22.1780   -4.2860   21.3470 F   0  0  0  0  0  0  0  0  0  0  0  0
  -21.2890   -3.7540   26.0080 F   0  0  0  0  0  0  0  0  0  0  0  0
  -22.8380  -13.5730   21.1400 C   0  0  0  0  0  0  0  0  0  0  0  0
  -22.1050  -12.9040   22.0240 N   0  0  0  0  0  0  0  0  0  0  0  0
  -22.4130  -14.5980   20.6080 O   0  0  0  0  0  0  0  0  0  0  0  0
  -22.4620  -12.0730   22.4750 H   0  0  0  0  0  0  0  0  0  0  0  0
  -21.1750  -13.2250   22.2530 H   0  0  0  0  0  0  0  0  0  0  0  0
  -25.5000  -15.1770   20.2930 N   0  0  0  0  0  0  0  0  0  0  0  0
  -24.7500  -15.8490   20.4130 H   0  0  0  0  0  0  0  0  0  0  0  0
  -26.3420  -15.5880   19.9150 H   0  0  0  0  0  0  0  0  0  0  0  0
  1  4  1  0
  2  4  2  0
  3  6  2  0
  3  5  1  0
  4 54  1  0
  5  1  2  0
  6  2  1  0
  7  6  1  0
  9  5  1  0
  9  8  2  0
 10  8  1  0
 10 12  1  0
 11 10  2  0
 13 12  1  0
 14 25  2  0
 15 13  1  0
 15 20  1  0
 16 24  1  0
 16 26  1  0
 17 23  1  0
 17 19  1  0
 18 24  1  0
 19 20  2  0
 19 18  1  0
 21 15  2  0
 22 21  1  0
 22 17  2  0
 23 16  1  0
 24 14  1  0
 26 28  2  0
 27 26  1  0
 29 27  1  0
 30 39  2  0
 30 35  1  0
 31 27  1  0
 31 35  1  0
 32 31  1  0
 33 34  1  0
 33 32  1  0
 34 30  1  0
 35 36  2  0
 36 37  1  0
 38 37  2  0
 39 38  1  0
 40 14  1  0
 40 45  1  0
 40 41  1  0
 41 44  1  1
 41 42  1  0
 43 41  1  0
 45 48  1  0
 46 50  1  0
 46 45  1  0
 47 46  2  0
 50 49  1  0
 52 50  1  0
 52 53  1  0
 52 51  1  0
 54 63  1  0
 55 63  1  0
 56 61  1  0
 57 58  1  0
 57 56  1  0
 59 58  1  0
 59 68  1  0
 59 60  1  0
 61 55  1  0
 61 60  1  0
 62 55  2  0
 63 64  1  0
 65 66  2  0
 66 85  1  0
 67 66  1  0
 67 70  1  0
 68 65  1  0
 68 69  1  0
 69 67  2  0
 70 71  1  0
 71 72  2  0
 73 76  1  0
 73 72  1  0
 74 73  2  0
 75 74  1  0
 75 70  2  0
 76 77  1  0
 77 78  1  0
 78 79  2  0
 80 79  1  0
 80 84  1  0
 81 80  2  0
 82 77  2  0
 82 81  1  0
 83 82  1  0
 85 86  1  0
 86 89  1  0
 86 88  1  0
 87 85  2  0
 90 91  1  0
 90 65  1  0
 92 90  1  0
M  ISO  4  12 101  13 101  55 100  63 100
M  END
>  <TORSDO>  (1) 
F 20

>  <SCORE>  (1) 
-13.926

>  <name>  (1) 
0

>  <ligand_id>  (1) 
0

>  <original_smiles>  (1) 
[H]C(=Nc1c([H])c(F)c([H])c(C([H])([H])N([H])C(=O)N2C([H])([H])C([H])([H])C([H])([H])C([H])(n3nc(-c4c([H])c([H])c(Oc5c([H])c([H])c(F)c([H])c5F)c([H])c4[H])c(C(=O)N([H])[H])c3N([H])[H])C2([H])[H])c1[H])C(=O)C([H])([H])Oc1c([H])c([H])c2c(c1[H])C([H])([H])N(C(=O)C([H])(N([H])C(=O)C([H])(N([H])C([H])([H])[H])C([H])([H])[H])C(C([H])([H])[H])(C([H])([H])[H])C([H])([H])[H])C([H])(C(=O)N([H])C1([H])c3c([H])c([H])c([H])c([H])c3C([H])([H])C([H])([H])C1([H])[H])C2([H])[H]

>  <smiles>  (1) 
[H]C(=Nc1c([H])c(F)c([H])c(C([H])([H])N([H])C(=O)N2C([H])([H])C([H])([H])C([H])([H])C([H])(n3nc(-c4c([H])c([H])c(Oc5c([H])c([H])c(F)c([H])c5F)c([H])c4[H])c(C(=O)N([H])[H])c3N([H])[H])C2([H])[H])c1[H])C(=O)C([H])([H])Oc1c([H])c([H])c2c(c1[H])C([H])([H])N(C(=O)C([H])(N([H])C(=O)C([H])(N([H])C([H])([H])[H])C([H])([H])[H])C(C([H])([H])[H])(C([H])([H])[H])C([H])([H])[H])C([H])(C(=O)N([H])C1([H])c3c([H])c([H])c([H])c([H])c3C([H])([H])C([H])([H])C1([H])[H])C2([H])[H]

$$$$
1:0:0
     RDKit          3D

 93102  0  0  1  0  0  0  0  0999 V2000
  -28.5160  -23.5010   22.0550 C   0  0  0  0  0  3  0  0  0  0  0  0
  -28.9100  -24.3580   21.0850 C   0  0  0  0  0  0  0  0  0  0  0  0
  -28.7500  -21.9830   22.0630 C   0  0  0  0  0  2  0  0  0  0  0  0
  -29.6430  -23.8110   19.8580 C   0  0  0  0  0  2  0  0  0  0  0  0
  -29.6040  -22.2530   19.7150 C   0  0  0  0  0  2  0  0  0  0  0  0
  -29.8240  -21.4960   21.0480 C   0  0  0  0  0  3  0  0  0  0  0  0
  -28.7420  -19.1710   20.7040 C   0  0  0  0  0  3  0  0  0  0  0  0
  -28.7710  -17.7580   20.6430 C   0  0  0  0  0  3  0  0  0  0  0  0
  -31.1710  -17.7860   20.8980 C   0  0  0  0  0  3  0  0  0  0  0  0
  -29.9150  -19.9380   20.9040 C   0  0  0  0  0  0  0  0  0  0  0  0
  -31.1440  -19.2080   20.9930 C   0  0  0  0  0  0  0  0  0  0  0  0
  -29.9810  -17.0320   20.7380 C   0  0  0  0  0  0  0  0  0  0  0  0
  -32.4670  -19.9220   21.2230 C   0  0  0  0  0  1  0  0  0  0  0  0
  -30.6810  -14.6260   20.1890 C   0  0  0  0  0  0  0  0  0  0  0  0
  -30.4070  -12.4630   19.0010 C   0  0  0  0  0  2  0  0  0  0  0  0
  -29.4060  -12.6760   17.8440 C   0  0  0  0  0  2  0  0  0  0  0  0
  -27.9520  -12.5100   18.3310 C   0  0  0  0  0  2  0  0  0  0  0  0
  -27.6640  -13.3110   19.6280 C   0  0  0  0  0  3  0  0  0  0  0  0
  -28.7660  -13.0580   20.6830 C   0  0  0  0  0  2  0  0  0  0  0  0
  -30.0610  -13.4140   20.0720 N   0  0  0  0  0  0  0  0  0  0  0  0
  -31.7970  -14.8460   19.7060 O   0  0  0  0  0  0  0  0  0  0  0  0
  -29.9050  -15.5910   20.7450 N   0  0  0  0  0  0  0  0  0  0  0  0
  -29.0170  -15.2240   21.0550 H   0  0  0  0  0  0  0  0  0  0  0  0
  -25.2930  -13.9010   20.4290 C   0  0  0  0  0  0  0  0  0  0  0  0
  -24.2430  -13.1210   20.8330 C   0  0  0  0  0  0  0  0  0  0  0  0
  -24.7060  -11.7710   20.7650 C   0  0  0  0  0  0  0  0  0  0  0  0
  -26.3310  -13.0250   20.1500 N   0  0  0  0  0  0  0  0  0  0  0  0
  -25.9840  -11.7390   20.4080 N   0  0  0  0  0  0  0  0  0  0  0  0
  -23.9920  -10.5040   20.9650 C   0  0  0  0  0  0  0  0  0  0  0  0
  -24.4420   -9.5400   21.8920 C   0  0  0  0  0  3  0  0  0  0  0  0
  -23.7260   -8.3380   22.0780 C   0  0  0  0  0  3  0  0  0  0  0  0
  -22.5460   -8.0920   21.3370 C   0  0  0  0  0  0  0  0  0  0  0  0
  -22.1150   -9.0460   20.3980 C   0  0  0  0  0  3  0  0  0  0  0  0
  -22.8310  -10.2390   20.2100 C   0  0  0  0  0  3  0  0  0  0  0  0
  -21.8010   -6.9420   21.4330 O   0  0  0  0  0  0  0  0  0  0  0  0
  -21.7410   -6.2200   22.5980 C   0  0  0  0  0  0  0  0  0  0  0  0
  -21.2800   -6.7890   23.8060 C   0  0  0  0  0  3  0  0  0  0  0  0
  -21.1710   -5.9920   24.9620 C   0  0  0  0  0  3  0  0  0  0  0  0
  -21.5090   -4.6270   24.9120 C   0  0  0  0  0  0  0  0  0  0  0  0
  -21.9610   -4.0560   23.7100 C   0  0  0  0  0  3  0  0  0  0  0  0
  -22.0750   -4.8510   22.5550 C   0  0  0  0  0  0  0  0  0  0  0  0
  -22.4900   -4.2920   21.3930 F   0  0  0  0  0  0  0  0  0  0  0  0
  -21.3950   -3.8590   26.0210 F   0  0  0  0  0  0  0  0  0  0  0  0
  -22.8570  -13.5900   21.1680 C   0  0  0  0  0  0  0  0  0  0  0  0
  -22.1650  -12.8770   22.0500 N   0  0  0  0  0  0  0  0  0  0  0  0
  -22.3960  -14.6240   20.6840 O   0  0  0  0  0  0  0  0  0  0  0  0
  -22.5500  -12.0380   22.4590 H   0  0  0  0  0  0  0  0  0  0  0  0
  -21.2370  -13.1730   22.3180 H   0  0  0  0  0  0  0  0  0  0  0  0
  -25.4420  -15.2740   20.2530 N   0  0  0  0  0  0  0  0  0  0  0  0
  -24.6580  -15.9080   20.3620 H   0  0  0  0  0  0  0  0  0  0  0  0
  -26.2370  -15.7020   19.7980 H   0  0  0  0  0  0  0  0  0  0  0  0
  -28.7460  -25.8950   21.2540 C   0  0  0  0  0  2  0  0  0  0  0  0
  -28.4350  -26.6570   20.0650 O   0  0  0  0  0  0  0  0  0  0  0  0
  -24.6370  -31.8900   23.2190 C   0  0  0  0  0  0  0  0  0  0  0  0
  -27.2990  -27.4480   20.1190 C   0  0  0  0  0  0  0  0  0  0  0  0
  -23.4400  -30.4910   21.5670 C   0  0  0  0  0  3  0  0  0  0  0  0
  -24.9040  -28.9700   20.1320 C   0  0  0  0  0  0  0  0  0  0  0  0
  -25.9670  -30.8580   21.3760 C   0  0  0  0  0  2  0  0  0  0  0  0
  -26.0630  -29.4890   20.7280 C   0  0  0  0  0  0  0  0  0  0  0  0
  -27.2660  -28.7350   20.7190 C   0  0  0  0  0  3  0  0  0  0  0  0
  -26.1270  -26.9570   19.5130 C   0  0  0  0  0  3  0  0  0  0  0  0
  -24.9340  -27.7040   19.5220 C   0  0  0  0  0  3  0  0  0  0  0  0
  -23.6560  -29.8230   20.1840 C   0  0  0  0  0  2  0  0  0  0  0  0
  -24.6990  -31.0960   22.1120 N   0  0  0  0  0  0  0  0  0  0  0  0
  -23.5530  -32.1530   23.7610 O   0  0  0  0  0  0  0  0  0  0  0  0
  -22.7930  -29.4610   22.5220 C   0  0  0  0  0  0  0  0  0  0  0  0
  -21.4670  -29.2820   22.4030 N   0  0  0  0  0  0  0  0  0  0  0  0
  -23.4820  -28.8270   23.3260 O   0  0  0  0  0  0  0  0  0  0  0  0
  -20.9730  -29.8400   21.7210 H   0  0  0  0  0  0  0  0  0  0  0  0
  -18.0950  -28.0830   22.9240 C   0  0  0  0  0  0  0  0  0  0  0  0
  -20.6570  -28.3360   23.1700 C   0  0  0  0  0  3  0  0  0  0  0  0
  -20.7510  -26.9110   22.5760 C   0  0  0  0  0  2  0  0  0  0  0  0
  -19.6380  -26.6040   21.5700 C   0  0  0  0  0  2  0  0  0  0  0  0
  -18.2630  -26.7440   22.2290 C   0  0  0  0  0  2  0  0  0  0  0  0
  -19.2190  -28.8390   23.3520 C   0  0  0  0  0  0  0  0  0  0  0  0
  -19.0080  -30.0960   23.9600 C   0  0  0  0  0  3  0  0  0  0  0  0
  -17.7040  -30.5940   24.1470 C   0  0  0  0  0  3  0  0  0  0  0  0
  -16.5950  -29.8350   23.7360 C   0  0  0  0  0  3  0  0  0  0  0  0
  -16.7910  -28.5820   23.1310 C   0  0  0  0  0  3  0  0  0  0  0  0
  -25.9180  -32.5270   23.8420 C   0  0  0  0  0  3  0  0  0  0  0  0
  -25.6030  -33.9210   24.1780 N   0  0  0  0  0  0  0  0  0  0  0  0
  -25.9280  -34.9790   23.4230 C   0  0  0  0  0  0  0  0  0  0  0  0
  -26.6000  -34.8830   22.3920 O   0  0  0  0  0  0  0  0  0  0  0  0
  -25.0130  -34.0710   24.9830 H   0  0  0  0  0  0  0  0  0  0  0  0
  -24.1960  -36.7660   23.0690 C   0  0  0  0  0  1  0  0  0  0  0  0
  -25.4320  -36.3620   23.8860 C   0  0  0  0  0  3  0  0  0  0  0  0
  -27.5570  -37.2480   24.7410 C   0  0  0  0  0  1  0  0  0  0  0  0
  -26.4610  -37.4210   23.7910 N   0  0  0  0  0  0  0  0  0  0  0  0
  -26.0490  -38.3370   23.9490 H   0  0  0  0  0  0  0  0  0  0  0  0
  -26.4460  -31.7520   25.1120 C   0  0  1  0  0  0  0  0  0  0  0  0
  -25.3580  -31.4940   26.1790 C   0  0  0  0  0  1  0  0  0  0  0  0
  -27.0430  -30.3840   24.7100 C   0  0  0  0  0  1  0  0  0  0  0  0
  -27.5930  -32.5540   25.7730 C   0  0  0  0  0  1  0  0  0  0  0  0
  1  3  1  0
  2 52  1  0
  2  1  2  0
  4  2  1  0
  5  4  1  0
  5  6  1  0
  6 10  1  0
  6  3  1  0
  7 10  1  0
  8  7  2  0
  8 12  1  0
  9 11  1  0
 10 11  2  0
 11 13  1  0
 12 22  1  0
 12  9  2  0
 14 22  1  0
 15 20  1  0
 16 17  1  0
 16 15  1  0
 18 17  1  0
 18 27  1  0
 18 19  1  0
 20 14  1  0
 20 19  1  0
 21 14  2  0
 22 23  1  0
 24 25  2  0
 25 44  1  0
 26 25  1  0
 26 29  1  0
 27 28  1  0
 27 24  1  0
 28 26  2  0
 29 30  1  0
 30 31  2  0
 32 35  1  0
 32 31  1  0
 33 32  2  0
 34 33  1  0
 34 29  2  0
 35 36  1  0
 36 37  1  0
 37 38  2  0
 39 38  1  0
 39 43  1  0
 40 39  2  0
 41 36  2  0
 41 40  1  0
 42 41  1  0
 44 45  1  0
 45 48  1  0
 45 47  1  0
 46 44  2  0
 49 50  1  0
 49 24  1  0
 51 49  1  0
 53 55  1  0
 53 52  1  0
 54 65  2  0
 55 60  1  0
 56 64  1  0
 56 66  1  0
 57 63  1  0
 57 59  1  0
 58 64  1  0
 59 58  1  0
 60 59  2  0
 61 62  1  0
 61 55  2  0
 62 57  2  0
 63 56  1  0
 64 54  1  0
 66 68  2  0
 67 66  1  0
 69 67  1  0
 70 79  2  0
 70 75  1  0
 71 67  1  0
 71 75  1  0
 72 71  1  0
 73 74  1  0
 73 72  1  0
 74 70  1  0
 75 76  2  0
 76 77  1  0
 78 77  2  0
 79 78  1  0
 80 54  1  0
 80 81  1  0
 80 90  1  0
 81 84  1  0
 82 86  1  0
 82 81  1  0
 83 82  2  0
 86 85  1  0
 88 86  1  0
 88 89  1  0
 88 87  1  0
 90 93  1  1
 90 91  1  0
 92 90  1  0
M  ISO  4  14 100  22 100  52 101  53 101
M  END
>  <TORSDO>  (2) 
F 18

>  <SCORE>  (2) 
-14.907

>  <name>  (2) 
1

>  <ligand_id>  (2) 
1

>  <original_smiles>  (2) 
[H]C1=C(C([H])([H])Oc2c([H])c([H])c3c(c2[H])C([H])([H])N(C(=O)C([H])(N([H])C(=O)C([H])(N([H])C([H])([H])[H])C([H])([H])[H])C(C([H])([H])[H])(C([H])([H])[H])C([H])([H])[H])C([H])(C(=O)N([H])C2([H])c4c([H])c([H])c([H])c([H])c4C([H])([H])C([H])([H])C2([H])[H])C3([H])[H])C([H])([H])C([H])([H])C([H])(c2c([H])c([H])c(N([H])C(=O)N3C([H])([H])C([H])([H])C([H])([H])C([H])(n4nc(-c5c([H])c([H])c(Oc6c([H])c([H])c(F)c([H])c6F)c([H])c5[H])c(C(=O)N([H])[H])c4N([H])[H])C3([H])[H])c([H])c2C([H])([H])[H])C1([H])[H]

>  <smiles>  (2) 
[H]C1=C(C([H])([H])Oc2c([H])c([H])c3c(c2[H])C([H])([H])N(C(=O)C([H])(N([H])C(=O)C([H])(N([H])C([H])([H])[H])C([H])([H])[H])C(C([H])([H])[H])(C([H])([H])[H])C([H])([H])[H])C([H])(C(=O)N([H])C2([H])c4c([H])c([H])c([H])c([H])c4C([H])([H])C([H])([H])C2([H])[H])C3([H])[H])C([H])([H])C([H])([H])C([H])(c2c([H])c([H])c(N([H])C(=O)N3C([H])([H])C([H])([H])C([H])([H])C([H])(n4nc(-c5c([H])c([H])c(Oc6c([H])c([H])c(F)c([H])c6F)c([H])c5[H])c(C(=O)N([H])[H])c4N([H])[H])C3([H])[H])c([H])c2C([H])([H])[H])C1([H])[H]

$$$$
2:0:0
     RDKit          3D

 92100  0  0  1  0  0  0  0  0999 V2000
  -29.9620  -19.9710   19.7000 C   0  0  0  0  0  3  0  0  0  0  0  0
  -28.1480  -18.4050   19.8390 C   0  0  0  0  0  3  0  0  0  0  0  0
  -27.6900  -20.7080   19.9310 C   0  0  0  0  0  3  0  0  0  0  0  0
  -29.5380  -18.5770   19.7070 C   0  0  0  0  0  0  0  0  0  0  0  0
  -29.0430  -21.0980   19.8150 C   0  0  0  0  0  0  0  0  0  0  0  0
  -27.2570  -19.4240   19.9420 N   0  0  0  0  0  0  0  0  0  0  0  0
  -30.9310  -14.8700   19.9210 C   0  0  0  0  0  0  0  0  0  0  0  0
  -30.7400  -12.4740   19.2310 C   0  0  0  0  0  2  0  0  0  0  0  0
  -29.7970  -12.3710   18.0130 C   0  0  0  0  0  2  0  0  0  0  0  0
  -28.3340  -12.2360   18.4740 C   0  0  0  0  0  2  0  0  0  0  0  0
  -27.9550  -13.2680   19.5700 C   0  0  0  0  0  3  0  0  0  0  0  0
  -29.0230  -13.3550   20.6810 C   0  0  0  0  0  2  0  0  0  0  0  0
  -30.3050  -13.6450   20.0320 N   0  0  0  0  0  0  0  0  0  0  0  0
  -32.1240  -14.8800   19.6030 O   0  0  0  0  0  0  0  0  0  0  0  0
  -30.5180  -17.3550   19.6600 C   0  0  0  0  0  0  0  0  0  0  0  0
  -30.1570  -16.0360   19.9670 N   0  0  0  0  0  0  0  0  0  0  0  0
  -31.6670  -17.6320   19.3000 O   0  0  0  0  0  0  0  0  0  0  0  0
  -29.1980  -15.8860   20.2220 H   0  0  0  0  0  0  0  0  0  0  0  0
  -25.6220  -13.9400   20.3910 C   0  0  0  0  0  0  0  0  0  0  0  0
  -24.5430  -13.2030   20.7960 C   0  0  0  0  0  0  0  0  0  0  0  0
  -24.9540  -11.8360   20.7390 C   0  0  0  0  0  0  0  0  0  0  0  0
  -26.6220  -13.0240   20.1090 N   0  0  0  0  0  0  0  0  0  0  0  0
  -26.2300  -11.7530   20.3810 N   0  0  0  0  0  0  0  0  0  0  0  0
  -24.1870  -10.5990   20.9440 C   0  0  0  0  0  0  0  0  0  0  0  0
  -24.6010   -9.6190   21.8720 C   0  0  0  0  0  3  0  0  0  0  0  0
  -23.8360   -8.4480   22.0660 C   0  0  0  0  0  3  0  0  0  0  0  0
  -22.6430   -8.2500   21.3320 C   0  0  0  0  0  0  0  0  0  0  0  0
  -22.2470   -9.2190   20.3920 C   0  0  0  0  0  3  0  0  0  0  0  0
  -23.0120  -10.3810   20.1960 C   0  0  0  0  0  3  0  0  0  0  0  0
  -21.8500   -7.1330   21.4360 O   0  0  0  0  0  0  0  0  0  0  0  0
  -21.7780   -6.4070   22.5960 C   0  0  0  0  0  0  0  0  0  0  0  0
  -21.3340   -6.9790   23.8080 C   0  0  0  0  0  3  0  0  0  0  0  0
  -21.2100   -6.1790   24.9620 C   0  0  0  0  0  3  0  0  0  0  0  0
  -21.5190   -4.8070   24.9040 C   0  0  0  0  0  0  0  0  0  0  0  0
  -21.9560   -4.2340   23.6970 C   0  0  0  0  0  3  0  0  0  0  0  0
  -22.0820   -5.0310   22.5450 C   0  0  0  0  0  0  0  0  0  0  0  0
  -22.4830   -4.4690   21.3800 F   0  0  0  0  0  0  0  0  0  0  0  0
  -21.3920   -4.0360   26.0080 F   0  0  0  0  0  0  0  0  0  0  0  0
  -23.1750  -13.7300   21.1180 C   0  0  0  0  0  0  0  0  0  0  0  0
  -22.4580  -13.0640   22.0160 N   0  0  0  0  0  0  0  0  0  0  0  0
  -22.7530  -14.7670   20.6080 O   0  0  0  0  0  0  0  0  0  0  0  0
  -22.8120  -12.2250   22.4510 H   0  0  0  0  0  0  0  0  0  0  0  0
  -21.5400  -13.3990   22.2740 H   0  0  0  0  0  0  0  0  0  0  0  0
  -25.8280  -15.3050   20.2100 N   0  0  0  0  0  0  0  0  0  0  0  0
  -25.0710  -15.9710   20.3220 H   0  0  0  0  0  0  0  0  0  0  0  0
  -26.6300  -15.6960   19.7350 H   0  0  0  0  0  0  0  0  0  0  0  0
  -29.4300  -22.5070   19.8090 N   0  0  0  0  0  0  0  0  0  0  0  0
  -30.4220  -22.7070   19.6990 H   0  0  0  0  0  0  0  0  0  0  0  0
  -28.5640  -23.7310   20.1150 C   0  0  0  0  0  2  0  0  0  0  0  0
  -29.3290  -25.3340   18.1830 C   0  0  0  0  0  1  0  0  0  0  0  0
  -29.1350  -25.2000   19.7020 C   0  0  0  0  0  3  0  0  0  0  0  0
  -28.7640  -26.5210   20.3370 O   0  0  0  0  0  0  0  0  0  0  0  0
  -24.5680  -31.6860   23.1800 C   0  0  0  0  0  0  0  0  0  0  0  0
  -27.5820  -27.2860   20.2010 C   0  0  0  0  0  0  0  0  0  0  0  0
  -23.5330  -30.2560   21.4520 C   0  0  0  0  0  3  0  0  0  0  0  0
  -25.1380  -28.8010   20.0830 C   0  0  0  0  0  0  0  0  0  0  0  0
  -26.0600  -30.7010   21.4160 C   0  0  0  0  0  2  0  0  0  0  0  0
  -26.2460  -29.3370   20.7500 C   0  0  0  0  0  0  0  0  0  0  0  0
  -27.4660  -28.5910   20.7940 C   0  0  0  0  0  3  0  0  0  0  0  0
  -26.4410  -26.8020   19.5280 C   0  0  0  0  0  3  0  0  0  0  0  0
  -25.2410  -27.5430   19.4630 C   0  0  0  0  0  3  0  0  0  0  0  0
  -23.8580  -29.6150   20.0760 C   0  0  0  0  0  2  0  0  0  0  0  0
  -24.7350  -30.9000   22.0740 N   0  0  0  0  0  0  0  0  0  0  0  0
  -23.4430  -31.8970   23.6570 O   0  0  0  0  0  0  0  0  0  0  0  0
  -22.8710  -29.1930   22.3610 C   0  0  0  0  0  0  0  0  0  0  0  0
  -21.5520  -28.9870   22.1930 N   0  0  0  0  0  0  0  0  0  0  0  0
  -23.5430  -28.5550   23.1760 O   0  0  0  0  0  0  0  0  0  0  0  0
  -21.0680  -29.5550   21.5120 H   0  0  0  0  0  0  0  0  0  0  0  0
  -18.1810  -27.7460   22.6280 C   0  0  0  0  0  0  0  0  0  0  0  0
  -20.7400  -28.0010   22.9080 C   0  0  0  0  0  3  0  0  0  0  0  0
  -20.8460  -26.6070   22.2470 C   0  0  0  0  0  2  0  0  0  0  0  0
  -19.7440  -26.3420   21.2170 C   0  0  0  0  0  2  0  0  0  0  0  0
  -18.3630  -26.4420   21.8700 C   0  0  0  0  0  2  0  0  0  0  0  0
  -19.2980  -28.4860   23.1020 C   0  0  0  0  0  0  0  0  0  0  0  0
  -19.0740  -29.7090   23.7710 C   0  0  0  0  0  3  0  0  0  0  0  0
  -17.7670  -30.1920   23.9690 C   0  0  0  0  0  3  0  0  0  0  0  0
  -16.6650  -29.4480   23.5120 C   0  0  0  0  0  3  0  0  0  0  0  0
  -16.8730  -28.2270   22.8470 C   0  0  0  0  0  3  0  0  0  0  0  0
  -25.7770  -32.3740   23.8840 C   0  0  0  0  0  3  0  0  0  0  0  0
  -26.2260  -31.6390   25.2080 C   0  0  1  0  0  0  0  0  0  0  0  0
  -25.0650  -31.3710   26.1940 C   0  0  0  0  0  1  0  0  0  0  0  0
  -26.8900  -30.2820   24.8820 C   0  0  0  0  0  1  0  0  0  0  0  0
  -27.2910  -32.4870   25.9430 C   0  0  0  0  0  1  0  0  0  0  0  0
  -25.3940  -33.7650   24.1720 N   0  0  0  0  0  0  0  0  0  0  0  0
  -25.7290  -34.8190   23.4180 C   0  0  0  0  0  0  0  0  0  0  0  0
  -26.4600  -34.7290   22.4280 O   0  0  0  0  0  0  0  0  0  0  0  0
  -24.7470  -33.9060   24.9340 H   0  0  0  0  0  0  0  0  0  0  0  0
  -23.9410  -36.5280   22.9550 C   0  0  0  0  0  1  0  0  0  0  0  0
  -25.1640  -36.1940   23.8240 C   0  0  0  0  0  3  0  0  0  0  0  0
  -27.2130  -37.1970   24.7330 C   0  0  0  0  0  1  0  0  0  0  0  0
  -26.1540  -37.2890   23.7320 N   0  0  0  0  0  0  0  0  0  0  0  0
  -25.7010  -38.1950   23.8310 H   0  0  0  0  0  0  0  0  0  0  0  0
  1  4  2  0
  1  5  1  0
  2  6  2  0
  3  6  1  0
  4  2  1  0
  5  3  2  0
  7 16  1  0
  7 13  1  0
  8 13  1  0
  9 10  1  0
  9  8  1  0
 11 10  1  0
 11 22  1  0
 11 12  1  0
 13 12  1  0
 14  7  2  0
 15  4  1  0
 15 16  1  0
 16 18  1  0
 17 15  2  0
 19 20  2  0
 20 39  1  0
 21 20  1  0
 21 24  1  0
 22 23  1  0
 22 19  1  0
 23 21  2  0
 24 25  1  0
 25 26  2  0
 27 30  1  0
 27 26  1  0
 28 27  2  0
 29 28  1  0
 29 24  2  0
 30 31  1  0
 31 32  1  0
 32 33  2  0
 34 33  1  0
 34 38  1  0
 35 34  2  0
 36 31  2  0
 36 35  1  0
 37 36  1  0
 39 40  1  0
 40 43  1  0
 40 42  1  0
 41 39  2  0
 44 45  1  0
 44 19  1  0
 46 44  1  0
 47  5  1  0
 47 49  1  0
 48 47  1  0
 51 50  1  0
 51 49  1  0
 51 52  1  0
 53 64  2  0
 54 52  1  0
 54 59  1  0
 55 63  1  0
 55 65  1  0
 56 58  1  0
 57 63  1  0
 58 59  2  0
 58 57  1  0
 60 54  2  0
 61 60  1  0
 61 56  2  0
 62 56  1  0
 62 55  1  0
 63 53  1  0
 65 67  2  0
 66 65  1  0
 68 66  1  0
 69 78  2  0
 69 74  1  0
 70 66  1  0
 70 74  1  0
 71 70  1  0
 72 73  1  0
 72 71  1  0
 73 69  1  0
 74 75  2  0
 75 76  1  0
 77 76  2  0
 78 77  1  0
 79 53  1  0
 79 84  1  0
 79 80  1  0
 80 83  1  1
 80 81  1  0
 82 80  1  0
 84 87  1  0
 85 89  1  0
 85 84  1  0
 86 85  2  0
 89 88  1  0
 91 89  1  0
 91 92  1  0
 91 90  1  0
M  ISO  4   7 100  16 100  51 101  52 101
M  END
>  <TORSDO>  (3) 
F 19

>  <SCORE>  (3) 
-13.586

>  <name>  (3) 
2

>  <ligand_id>  (3) 
2

>  <original_smiles>  (3) 
[H]c1nc([H])c(N([H])C([H])([H])C([H])(Oc2c([H])c([H])c3c(c2[H])C([H])([H])N(C(=O)C([H])(N([H])C(=O)C([H])(N([H])C([H])([H])[H])C([H])([H])[H])C(C([H])([H])[H])(C([H])([H])[H])C([H])([H])[H])C([H])(C(=O)N([H])C2([H])c4c([H])c([H])c([H])c([H])c4C([H])([H])C([H])([H])C2([H])[H])C3([H])[H])C([H])([H])[H])c([H])c1C(=O)N([H])C(=O)N1C([H])([H])C([H])([H])C([H])([H])C([H])(n2nc(-c3c([H])c([H])c(Oc4c([H])c([H])c(F)c([H])c4F)c([H])c3[H])c(C(=O)N([H])[H])c2N([H])[H])C1([H])[H]

>  <smiles>  (3) 
[H]c1nc([H])c(N([H])C([H])([H])C([H])(Oc2c([H])c([H])c3c(c2[H])C([H])([H])N(C(=O)C([H])(N([H])C(=O)C([H])(N([H])C([H])([H])[H])C([H])([H])[H])C(C([H])([H])[H])(C([H])([H])[H])C([H])([H])[H])C([H])(C(=O)N([H])C2([H])c4c([H])c([H])c([H])c([H])c4C([H])([H])C([H])([H])C2([H])[H])C3([H])[H])C([H])([H])[H])c([H])c1C(=O)N([H])C(=O)N1C([H])([H])C([H])([H])C([H])([H])C([H])(n2nc(-c3c([H])c([H])c(Oc4c([H])c([H])c(F)c([H])c4F)c([H])c3[H])c(C(=O)N([H])[H])c2N([H])[H])C1([H])[H]

$$$$
3:0:0
     RDKit          3D

 96102  0  0  1  0  0  0  0  0999 V2000
  -29.8260  -17.7060   19.3490 C   0  0  0  0  0  0  0  0  0  0  0  0
  -29.1650  -18.9910   18.8210 N   0  0  0  0  0  0  0  0  0  0  0  0
  -30.3520  -18.0510   20.5220 N   0  0  0  0  0  4  0  0  0  0  0  0
  -28.8500  -18.8540   17.8640 H   0  0  0  0  0  0  0  0  0  0  0  0
  -30.3240  -18.9940   20.8670 H   0  0  0  0  0  0  0  0  0  0  0  0
  -30.9090  -17.3550   21.0100 H   0  0  0  0  0  0  0  0  0  0  0  0
  -31.2200  -15.4620   17.9290 C   0  0  0  0  0  3  0  0  0  0  0  0
  -31.6970  -13.9570   17.5470 C   0  0  0  0  0  3  0  0  0  0  0  0
  -30.1290  -12.6490   19.4500 C   0  0  0  0  0  1  0  0  0  0  0  0
  -30.1750  -15.9890   19.0130 C   0  0  0  0  0  0  0  0  0  0  0  0
  -29.6260  -14.7200   19.9050 C   0  0  0  0  0  2  0  0  0  0  0  0
  -31.2000  -12.5580   18.2030 C   0  0  0  0  0  0  0  0  0  0  0  0
  -31.6830  -11.3660   17.7780 F   0  0  0  0  0  0  0  0  0  0  0  0
  -30.7510  -14.8440   21.8510 C   0  0  0  0  0  0  0  0  0  0  0  0
  -31.6730  -13.9100   20.0370 C   0  0  0  0  0  1  0  0  0  0  0  0
  -29.3010  -13.9240   17.8660 C   0  0  0  0  0  1  0  0  0  0  0  0
  -27.8400  -13.2530   18.7600 C   0  0  0  0  0  2  0  0  0  0  0  0
  -27.7990  -13.1880   20.5490 C   0  0  0  0  0  3  0  0  0  0  0  0
  -29.1590  -12.9480   21.7700 C   0  0  0  0  0  2  0  0  0  0  0  0
  -30.7860  -13.5730   21.5490 N   0  0  0  0  0  0  0  0  0  0  0  0
  -31.7640  -15.5480   21.8720 O   0  0  0  0  0  0  0  0  0  0  0  0
  -29.6580  -15.2870   21.2340 N   0  0  0  0  0  0  0  0  0  0  0  0
  -28.8310  -15.0950   21.7810 H   0  0  0  0  0  0  0  0  0  0  0  0
  -25.4060  -13.7940   20.8420 C   0  0  0  0  0  0  0  0  0  0  0  0
  -24.3150  -13.0230   21.0620 C   0  0  0  0  0  0  0  0  0  0  0  0
  -24.7980  -11.6800   21.1390 C   0  0  0  0  0  0  0  0  0  0  0  0
  -26.4680  -12.8960   20.8750 N   0  0  0  0  0  0  0  0  0  0  0  0
  -26.1150  -11.6210   21.0410 N   0  0  0  0  0  0  0  0  0  0  0  0
  -24.0780  -10.4290   21.2540 C   0  0  0  0  0  0  0  0  0  0  0  0
  -24.4310   -9.4830   22.2370 C   0  0  0  0  0  3  0  0  0  0  0  0
  -23.7030   -8.2840   22.3520 C   0  0  0  0  0  3  0  0  0  0  0  0
  -22.6150   -8.0350   21.4820 C   0  0  0  0  0  0  0  0  0  0  0  0
  -22.2920   -8.9710   20.4860 C   0  0  0  0  0  3  0  0  0  0  0  0
  -23.0210  -10.1620   20.3660 C   0  0  0  0  0  3  0  0  0  0  0  0
  -21.8580   -6.8930   21.5130 O   0  0  0  0  0  0  0  0  0  0  0  0
  -21.7260   -6.1570   22.6610 C   0  0  0  0  0  0  0  0  0  0  0  0
  -21.2330   -6.7240   23.8570 C   0  0  0  0  0  3  0  0  0  0  0  0
  -21.0460   -5.9120   24.9930 C   0  0  0  0  0  3  0  0  0  0  0  0
  -21.3450   -4.5370   24.9320 C   0  0  0  0  0  0  0  0  0  0  0  0
  -21.8360   -3.9730   23.7410 C   0  0  0  0  0  3  0  0  0  0  0  0
  -22.0240   -4.7830   22.6090 C   0  0  0  0  0  0  0  0  0  0  0  0
  -22.4770   -4.2330   21.4550 F   0  0  0  0  0  0  0  0  0  0  0  0
  -21.1550   -3.7530   26.0200 F   0  0  0  0  0  0  0  0  0  0  0  0
  -22.9040  -13.5100   21.1080 C   0  0  0  0  0  0  0  0  0  0  0  0
  -22.0690  -12.8540   21.8990 N   0  0  0  0  0  0  0  0  0  0  0  0
  -22.5540  -14.5160   20.4910 O   0  0  0  0  0  0  0  0  0  0  0  0
  -22.3700  -12.0450   22.4230 H   0  0  0  0  0  0  0  0  0  0  0  0
  -21.1100  -13.1610   21.9810 H   0  0  0  0  0  0  0  0  0  0  0  0
  -25.5610  -15.1660   20.6050 N   0  0  0  0  0  0  0  0  0  0  0  0
  -24.7620  -15.7860   20.5340 H   0  0  0  0  0  0  0  0  0  0  0  0
  -26.4400  -15.6300   20.4130 H   0  0  0  0  0  0  0  0  0  0  0  0
  -28.6070  -20.5750   19.3890 C   0  0  0  0  0  2  0  0  0  0  0  0
  -28.3880  -22.2800   18.7580 C   0  0  0  0  0  0  0  0  0  0  0  0
  -28.9080  -22.4400   17.6480 O   0  0  0  0  0  0  0  0  0  0  0  0
  -27.5500  -23.7860   19.3870 C   0  0  0  0  0  2  0  0  0  0  0  0
  -27.8030  -25.4910   19.2520 O   0  0  0  0  0  0  0  0  0  0  0  0
  -24.6280  -31.6380   22.8820 C   0  0  0  0  0  0  0  0  0  0  0  0
  -26.8500  -26.6720   19.4770 C   0  0  0  0  0  0  0  0  0  0  0  0
  -23.3130  -30.3230   21.2820 C   0  0  0  0  0  3  0  0  0  0  0  0
  -24.6240  -28.6960   19.7370 C   0  0  0  0  0  0  0  0  0  0  0  0
  -25.8860  -30.4140   21.0080 C   0  0  0  0  0  2  0  0  0  0  0  0
  -25.8730  -29.0150   20.2860 C   0  0  0  0  0  0  0  0  0  0  0  0
  -26.9770  -28.0280   20.1260 C   0  0  0  0  0  3  0  0  0  0  0  0
  -25.5530  -26.5370   18.9390 C   0  0  0  0  0  3  0  0  0  0  0  0
  -24.4930  -27.4770   19.0560 C   0  0  0  0  0  3  0  0  0  0  0  0
  -23.4500  -29.6710   19.8800 C   0  0  0  0  0  2  0  0  0  0  0  0
  -24.6370  -30.8180   21.7770 N   0  0  0  0  0  0  0  0  0  0  0  0
  -23.5720  -31.9480   23.4610 O   0  0  0  0  0  0  0  0  0  0  0  0
  -22.6280  -29.3290   22.2580 C   0  0  0  0  0  0  0  0  0  0  0  0
  -21.2870  -29.2200   22.2070 N   0  0  0  0  0  0  0  0  0  0  0  0
  -23.3130  -28.6550   23.0310 O   0  0  0  0  0  0  0  0  0  0  0  0
  -20.7860  -29.8120   21.5600 H   0  0  0  0  0  0  0  0  0  0  0  0
  -17.8980  -28.0830   22.8630 C   0  0  0  0  0  0  0  0  0  0  0  0
  -20.4760  -28.2830   22.9970 C   0  0  0  0  0  3  0  0  0  0  0  0
  -20.5090  -26.8630   22.3830 C   0  0  0  0  0  2  0  0  0  0  0  0
  -19.3480  -26.5940   21.4210 C   0  0  0  0  0  2  0  0  0  0  0  0
  -18.0070  -26.7510   22.1410 C   0  0  0  0  0  2  0  0  0  0  0  0
  -19.0560  -28.8100   23.2500 C   0  0  0  0  0  0  0  0  0  0  0  0
  -18.8970  -30.0570   23.8940 C   0  0  0  0  0  3  0  0  0  0  0  0
  -17.6130  -30.5760   24.1490 C   0  0  0  0  0  3  0  0  0  0  0  0
  -16.4720  -29.8480   23.7730 C   0  0  0  0  0  3  0  0  0  0  0  0
  -16.6150  -28.6020   23.1370 C   0  0  0  0  0  3  0  0  0  0  0  0
  -25.9400  -32.2360   23.4720 C   0  0  0  0  0  3  0  0  0  0  0  0
  -26.5510  -31.3580   24.6340 C   0  0  1  0  0  0  0  0  0  0  0  0
  -25.5450  -31.0210   25.7600 C   0  0  0  0  0  1  0  0  0  0  0  0
  -27.1000  -30.0210   24.0870 C   0  0  0  0  0  1  0  0  0  0  0  0
  -27.7530  -32.0960   25.2690 C   0  0  0  0  0  1  0  0  0  0  0  0
  -25.6390  -33.5910   23.9770 N   0  0  0  0  0  0  0  0  0  0  0  0
  -25.9370  -34.7340   23.3430 C   0  0  0  0  0  0  0  0  0  0  0  0
  -26.5500  -34.7590   22.2740 O   0  0  0  0  0  0  0  0  0  0  0  0
  -25.0860  -33.6430   24.8190 H   0  0  0  0  0  0  0  0  0  0  0  0
  -24.2040  -36.5650   23.3120 C   0  0  0  0  0  1  0  0  0  0  0  0
  -25.4860  -36.0590   23.9960 C   0  0  0  0  0  3  0  0  0  0  0  0
  -27.6720  -36.8360   24.8030 C   0  0  0  0  0  1  0  0  0  0  0  0
  -26.5170  -37.1200   23.9550 N   0  0  0  0  0  0  0  0  0  0  0  0
  -26.1260  -38.0140   24.2410 H   0  0  0  0  0  0  0  0  0  0  0  0
  1  3  2  0
  2  1  1  0
  2 52  1  0
  3  5  1  0
  3  6  1  0
  4  2  1  0
  7 10  2  0
  8  7  1  0
  8 12  2  0
 10  1  1  0
 10 11  1  0
 11 22  1  0
 12  9  1  0
 13 12  1  0
 14 21  2  0
 15 20  1  0
 16 17  1  0
 18 17  1  0
 18 27  1  0
 18 19  1  0
 20 19  1  0
 20 14  1  0
 22 23  1  0
 22 14  1  0
 24 27  1  0
 24 25  2  0
 25 44  1  0
 25 26  1  0
 26 29  1  0
 27 28  1  0
 28 26  2  0
 29 30  1  0
 30 31  2  0
 32 35  1  0
 32 31  1  0
 33 32  2  0
 34 33  1  0
 34 29  2  0
 35 36  1  0
 36 37  1  0
 37 38  2  0
 39 38  1  0
 39 43  1  0
 40 39  2  0
 41 36  2  0
 41 40  1  0
 42 41  1  0
 44 45  1  0
 45 48  1  0
 45 47  1  0
 46 44  2  0
 49 24  1  0
 50 49  1  0
 51 49  1  0
 53 55  1  0
 53 52  1  0
 54 53  2  0
 56 55  1  0
 56 58  1  0
 57 68  2  0
 58 63  1  0
 59 67  1  0
 59 69  1  0
 60 66  1  0
 60 62  1  0
 61 67  1  0
 62 61  1  0
 63 62  2  0
 64 65  1  0
 64 58  2  0
 65 60  2  0
 66 59  1  0
 67 57  1  0
 69 71  2  0
 70 69  1  0
 72 70  1  0
 73 82  2  0
 73 78  1  0
 74 70  1  0
 74 78  1  0
 75 74  1  0
 76 77  1  0
 76 75  1  0
 77 73  1  0
 78 79  2  0
 79 80  1  0
 81 80  2  0
 82 81  1  0
 83 57  1  0
 83 88  1  0
 83 84  1  0
 84 87  1  1
 84 85  1  0
 86 84  1  0
 88 91  1  0
 89 88  1  0
 89 93  1  0
 90 89  2  0
 93 92  1  0
 95 93  1  0
 95 96  1  0
 95 94  1  0
M  ISO  4  14 100  22 100  55 101  56 101
M  END
>  <TORSDO>  (4) 
F 20

>  <SCORE>  (4) 
-13.233

>  <name>  (4) 
3

>  <ligand_id>  (4) 
3

>  <original_smiles>  (4) 
[H]c1c([H])c([H])c2c(c1[H])C([H])([H])C([H])([H])C([H])([H])C2([H])N([H])C(=O)C1([H])N(C(=O)C([H])(N([H])C(=O)C([H])(N([H])C([H])([H])[H])C([H])([H])[H])C(C([H])([H])[H])(C([H])([H])[H])C([H])([H])[H])C([H])([H])c2c([H])c(OC([H])([H])C(=O)C([H])([H])N([H])C(c3c([H])c([H])c(F)c([H])c3N([H])C(=O)N3C([H])([H])C([H])([H])C([H])([H])C([H])(n4nc(-c5c([H])c([H])c(Oc6c([H])c([H])c(F)c([H])c6F)c([H])c5[H])c(C(=O)N([H])[H])c4N([H])[H])C3([H])[H])=[N+]([H])[H])c([H])c([H])c2C1([H])[H]

>  <smiles>  (4) 
[H]c1c([H])c([H])c2c(c1[H])C([H])([H])C([H])([H])C([H])([H])C2([H])N([H])C(=O)C1([H])N(C(=O)C([H])(N([H])C(=O)C([H])(N([H])C([H])([H])[H])C([H])([H])[H])C(C([H])([H])[H])(C([H])([H])[H])C([H])([H])[H])C([H])([H])c2c([H])c(OC([H])([H])C(=O)C([H])([H])N([H])C(c3c([H])c([H])c(F)c([H])c3N([H])C(=O)N3C([H])([H])C([H])([H])C([H])([H])C([H])(n4nc(-c5c([H])c([H])c(Oc6c([H])c([H])c(F)c([H])c6F)c([H])c5[H])c(C(=O)N([H])[H])c4N([H])[H])C3([H])[H])=[N+]([H])[H])c([H])c([H])c2C1([H])[H]

$$$$
4:0:0
     RDKit          3D

 91 99  0  0  1  0  0  0  0  0999 V2000
  -30.6710  -18.6040   20.1560 C   0  0  0  0  0  3  0  0  0  0  0  0
  -29.5980  -17.6550   20.2200 C   0  0  0  0  0  0  0  0  0  0  0  0
  -28.3730  -18.4200   20.2890 C   0  0  0  0  0  0  0  0  0  0  0  0
  -29.3240  -20.6070   20.2060 C   0  0  0  0  0  0  0  0  0  0  0  0
  -27.0420  -17.7160   20.4210 C   0  0  0  0  0  1  0  0  0  0  0  0
  -30.5300  -19.9980   20.1810 N   0  0  0  0  0  0  0  0  0  0  0  0
  -28.2520  -19.8090   20.2610 N   0  0  0  0  0  0  0  0  0  0  0  0
  -29.2090  -22.0670   20.4460 N   0  0  0  0  0  0  0  0  0  0  0  0
  -30.0410  -22.3800   20.9330 H   0  0  0  0  0  0  0  0  0  0  0  0
  -30.4680  -15.0030   19.8600 C   0  0  0  0  0  0  0  0  0  0  0  0
  -30.3400  -12.6720   18.8330 C   0  0  0  0  0  2  0  0  0  0  0  0
  -29.3020  -12.6470   17.6830 C   0  0  0  0  0  2  0  0  0  0  0  0
  -27.8800  -12.4060   18.2260 C   0  0  0  0  0  2  0  0  0  0  0  0
  -27.5670  -13.2900   19.4600 C   0  0  0  0  0  3  0  0  0  0  0  0
  -28.7070  -13.2500   20.4990 C   0  0  0  0  0  2  0  0  0  0  0  0
  -29.9250  -13.7160   19.8170 N   0  0  0  0  0  0  0  0  0  0  0  0
  -31.6220  -15.1500   19.4420 O   0  0  0  0  0  0  0  0  0  0  0  0
  -29.6270  -16.0980   20.2210 N   0  0  0  0  0  0  0  0  0  0  0  0
  -28.7480  -15.7130   20.5370 H   0  0  0  0  0  0  0  0  0  0  0  0
  -25.2520  -13.8430   20.3980 C   0  0  0  0  0  0  0  0  0  0  0  0
  -24.2220  -13.0640   20.8400 C   0  0  0  0  0  0  0  0  0  0  0  0
  -24.6780  -11.7150   20.7270 C   0  0  0  0  0  0  0  0  0  0  0  0
  -26.2720  -12.9750   20.0510 N   0  0  0  0  0  0  0  0  0  0  0  0
  -25.9390  -11.6850   20.3090 N   0  0  0  0  0  0  0  0  0  0  0  0
  -23.9620  -10.4520   20.9320 C   0  0  0  0  0  0  0  0  0  0  0  0
  -24.4370   -9.4700   21.8280 C   0  0  0  0  0  3  0  0  0  0  0  0
  -23.7190   -8.2710   22.0210 C   0  0  0  0  0  3  0  0  0  0  0  0
  -22.5100   -8.0460   21.3180 C   0  0  0  0  0  0  0  0  0  0  0  0
  -22.0550   -9.0170   20.4080 C   0  0  0  0  0  3  0  0  0  0  0  0
  -22.7740  -10.2070   20.2120 C   0  0  0  0  0  3  0  0  0  0  0  0
  -21.7580   -6.9010   21.4240 O   0  0  0  0  0  0  0  0  0  0  0  0
  -21.7350   -6.1620   22.5810 C   0  0  0  0  0  0  0  0  0  0  0  0
  -21.3220   -6.7170   23.8110 C   0  0  0  0  0  3  0  0  0  0  0  0
  -21.2460   -5.9040   24.9590 C   0  0  0  0  0  3  0  0  0  0  0  0
  -21.5750   -4.5370   24.8770 C   0  0  0  0  0  0  0  0  0  0  0  0
  -21.9810   -3.9820   23.6520 C   0  0  0  0  0  3  0  0  0  0  0  0
  -22.0600   -4.7920   22.5060 C   0  0  0  0  0  0  0  0  0  0  0  0
  -22.4320   -4.2500   21.3220 F   0  0  0  0  0  0  0  0  0  0  0  0
  -21.4940   -3.7530   25.9790 F   0  0  0  0  0  0  0  0  0  0  0  0
  -22.8560  -13.5400   21.2400 C   0  0  0  0  0  0  0  0  0  0  0  0
  -22.2000  -12.8240   22.1470 N   0  0  0  0  0  0  0  0  0  0  0  0
  -22.3830  -14.5790   20.7840 O   0  0  0  0  0  0  0  0  0  0  0  0
  -22.5960  -11.9820   22.5360 H   0  0  0  0  0  0  0  0  0  0  0  0
  -21.2880  -13.1250   22.4590 H   0  0  0  0  0  0  0  0  0  0  0  0
  -25.3900  -15.2130   20.2260 N   0  0  0  0  0  0  0  0  0  0  0  0
  -24.5860  -15.8220   20.3290 H   0  0  0  0  0  0  0  0  0  0  0  0
  -26.1210  -15.6140   19.6540 H   0  0  0  0  0  0  0  0  0  0  0  0
  -28.7260  -23.3270   19.6420 C   0  0  0  0  0  2  0  0  0  0  0  0
  -28.2460  -24.8030   20.3490 C   0  0  0  0  0  3  0  0  0  0  0  0
  -28.9710  -24.8500   21.4940 F   0  0  0  0  0  0  0  0  0  0  0  0
  -28.2760  -26.1440   19.7780 O   0  0  0  0  0  0  0  0  0  0  0  0
  -24.6330  -31.7460   23.0100 C   0  0  0  0  0  0  0  0  0  0  0  0
  -27.2040  -27.1080   19.8570 C   0  0  0  0  0  0  0  0  0  0  0  0
  -23.4240  -30.3860   21.3480 C   0  0  0  0  0  3  0  0  0  0  0  0
  -24.8660  -28.8460   19.8800 C   0  0  0  0  0  0  0  0  0  0  0  0
  -25.9730  -30.6690   21.1610 C   0  0  0  0  0  2  0  0  0  0  0  0
  -26.0500  -29.2850   20.4880 C   0  0  0  0  0  0  0  0  0  0  0  0
  -27.2210  -28.4350   20.4560 C   0  0  0  0  0  3  0  0  0  0  0  0
  -25.9940  -26.7720   19.2140 C   0  0  0  0  0  3  0  0  0  0  0  0
  -24.8500  -27.6020   19.2280 C   0  0  0  0  0  3  0  0  0  0  0  0
  -23.6370  -29.7400   19.9530 C   0  0  0  0  0  2  0  0  0  0  0  0
  -24.6980  -30.9550   21.8950 N   0  0  0  0  0  0  0  0  0  0  0  0
  -23.5520  -32.0110   23.5580 O   0  0  0  0  0  0  0  0  0  0  0  0
  -22.7590  -29.3530   22.2920 C   0  0  0  0  0  0  0  0  0  0  0  0
  -21.4250  -29.2050   22.2010 N   0  0  0  0  0  0  0  0  0  0  0  0
  -23.4460  -28.6850   23.0680 O   0  0  0  0  0  0  0  0  0  0  0  0
  -20.9240  -29.7940   21.5510 H   0  0  0  0  0  0  0  0  0  0  0  0
  -18.0410  -28.0640   22.7970 C   0  0  0  0  0  0  0  0  0  0  0  0
  -20.6160  -28.2490   22.9620 C   0  0  0  0  0  3  0  0  0  0  0  0
  -20.6530  -26.8470   22.3110 C   0  0  0  0  0  2  0  0  0  0  0  0
  -19.4990  -26.6060   21.3320 C   0  0  0  0  0  2  0  0  0  0  0  0
  -18.1520  -26.7490   22.0450 C   0  0  0  0  0  2  0  0  0  0  0  0
  -19.1970  -28.7760   23.2150 C   0  0  0  0  0  0  0  0  0  0  0  0
  -19.0350  -30.0090   23.8820 C   0  0  0  0  0  3  0  0  0  0  0  0
  -17.7530  -30.5300   24.1370 C   0  0  0  0  0  3  0  0  0  0  0  0
  -16.6120  -29.8130   23.7350 C   0  0  0  0  0  3  0  0  0  0  0  0
  -16.7580  -28.5820   23.0700 C   0  0  0  0  0  3  0  0  0  0  0  0
  -25.9140  -32.3720   23.6410 C   0  0  0  0  0  3  0  0  0  0  0  0
  -25.5930  -33.7540   24.0350 N   0  0  0  0  0  0  0  0  0  0  0  0
  -25.9150  -34.8440   23.3270 C   0  0  0  0  0  0  0  0  0  0  0  0
  -26.5790  -34.7920   22.2880 O   0  0  0  0  0  0  0  0  0  0  0  0
  -25.0050  -33.8660   24.8480 H   0  0  0  0  0  0  0  0  0  0  0  0
  -24.1760  -36.6440   23.0650 C   0  0  0  0  0  1  0  0  0  0  0  0
  -25.4230  -36.2070   23.8520 C   0  0  0  0  0  3  0  0  0  0  0  0
  -27.5530  -37.0660   24.7200 C   0  0  0  0  0  1  0  0  0  0  0  0
  -26.4480  -37.2700   23.7870 N   0  0  0  0  0  0  0  0  0  0  0  0
  -26.0360  -38.1790   23.9780 H   0  0  0  0  0  0  0  0  0  0  0  0
  -26.4550  -31.5600   24.8810 C   0  0  1  0  0  0  0  0  0  0  0  0
  -25.3820  -31.2800   25.9580 C   0  0  0  0  0  1  0  0  0  0  0  0
  -27.0390  -30.2010   24.4310 C   0  0  0  0  0  1  0  0  0  0  0  0
  -27.6110  -32.3360   25.5540 C   0  0  0  0  0  1  0  0  0  0  0  0
  1  6  1  0
  1  2  2  0
  2 18  1  0
  2  3  1  0
  3  5  1  0
  4  7  1  0
  4  8  1  0
  6  4  2  0
  7  3  2  0
  8  9  1  0
 10 18  1  0
 11 16  1  0
 12 13  1  0
 12 11  1  0
 14 13  1  0
 14 23  1  0
 14 15  1  0
 16 10  1  0
 16 15  1  0
 17 10  2  0
 18 19  1  0
 20 21  2  0
 21 40  1  0
 22 21  1  0
 22 25  1  0
 23 24  1  0
 23 20  1  0
 24 22  2  0
 25 26  1  0
 26 27  2  0
 28 31  1  0
 28 27  1  0
 29 28  2  0
 30 29  1  0
 30 25  2  0
 31 32  1  0
 32 33  1  0
 33 34  2  0
 35 34  1  0
 35 39  1  0
 36 35  2  0
 37 32  2  0
 37 36  1  0
 38 37  1  0
 40 41  1  0
 41 44  1  0
 41 43  1  0
 42 40  2  0
 45 46  1  0
 45 20  1  0
 47 45  1  0
 48 49  1  0
 48  8  1  0
 49 50  1  0
 51 53  1  0
 51 49  1  0
 52 63  2  0
 53 58  1  0
 54 62  1  0
 54 64  1  0
 55 61  1  0
 55 57  1  0
 56 62  1  0
 57 56  1  0
 58 57  2  0
 59 60  1  0
 59 53  2  0
 60 55  2  0
 61 54  1  0
 62 52  1  0
 64 66  2  0
 65 64  1  0
 67 65  1  0
 68 77  2  0
 68 73  1  0
 69 65  1  0
 69 73  1  0
 70 69  1  0
 71 72  1  0
 71 70  1  0
 72 68  1  0
 73 74  2  0
 74 75  1  0
 76 75  2  0
 77 76  1  0
 78 52  1  0
 78 79  1  0
 78 88  1  0
 79 82  1  0
 80 84  1  0
 80 79  1  0
 81 80  2  0
 84 83  1  0
 86 84  1  0
 86 87  1  0
 86 85  1  0
 88 91  1  1
 88 89  1  0
 90 88  1  0
M  ISO  4  10 100  18 100  49 101  51 101
M  END
>  <TORSDO>  (5) 
F 18

>  <SCORE>  (5) 
-14.891

>  <name>  (5) 
4

>  <ligand_id>  (5) 
4

>  <original_smiles>  (5) 
[H]c1nc(N([H])C([H])([H])C([H])(F)Oc2c([H])c([H])c3c(c2[H])C([H])([H])N(C(=O)C([H])(N([H])C(=O)C([H])(N([H])C([H])([H])[H])C([H])([H])[H])C(C([H])([H])[H])(C([H])([H])[H])C([H])([H])[H])C([H])(C(=O)N([H])C2([H])c4c([H])c([H])c([H])c([H])c4C([H])([H])C([H])([H])C2([H])[H])C3([H])[H])nc(C([H])([H])[H])c1N([H])C(=O)N1C([H])([H])C([H])([H])C([H])([H])C([H])(n2nc(-c3c([H])c([H])c(Oc4c([H])c([H])c(F)c([H])c4F)c([H])c3[H])c(C(=O)N([H])[H])c2N([H])[H])C1([H])[H]

>  <smiles>  (5) 
[H]c1nc(N([H])C([H])([H])C([H])(F)Oc2c([H])c([H])c3c(c2[H])C([H])([H])N(C(=O)C([H])(N([H])C(=O)C([H])(N([H])C([H])([H])[H])C([H])([H])[H])C(C([H])([H])[H])(C([H])([H])[H])C([H])([H])[H])C([H])(C(=O)N([H])C2([H])c4c([H])c([H])c([H])c([H])c4C([H])([H])C([H])([H])C2([H])[H])C3([H])[H])nc(C([H])([H])[H])c1N([H])C(=O)N1C([H])([H])C([H])([H])C([H])([H])C([H])(n2nc(-c3c([H])c([H])c(Oc4c([H])c([H])c(F)c([H])c4F)c([H])c3[H])c(C(=O)N([H])[H])c2N([H])[H])C1([H])[H]

$$$$
5:0:0
     RDKit          3D

 94102  0  0  1  0  0  0  0  0999 V2000
  -30.1880  -21.8760   20.1920 C   0  0  0  0  0  0  0  0  0  0  0  0
  -29.9640  -20.5740   20.5590 N   0  0  0  0  0  0  0  0  0  0  0  0
  -31.2060  -22.1990   19.5670 O   0  0  0  0  0  0  0  0  0  0  0  0
  -29.0290  -20.3390   20.8600 H   0  0  0  0  0  0  0  0  0  0  0  0
  -33.0560  -19.0460   21.6660 C   0  0  0  0  0  3  0  0  0  0  0  0
  -30.9170  -18.1800   20.7400 C   0  0  0  0  0  0  0  0  0  0  0  0
  -30.9870  -19.5860   20.8520 C   0  0  0  0  0  0  0  0  0  0  0  0
  -32.2060  -20.0350   21.3950 N   0  0  0  0  0  0  0  0  0  0  0  0
  -32.4230  -17.4600   21.2990 S   0  0  0  0  0  0  0  0  0  0  0  0
  -29.8700  -17.2240   20.1490 C   0  0  0  0  0  2  0  0  0  0  0  0
  -30.5310  -14.7280   20.0630 C   0  0  0  0  0  0  0  0  0  0  0  0
  -30.2200  -12.5440   18.9420 C   0  0  0  0  0  2  0  0  0  0  0  0
  -29.2230  -12.7550   17.7820 C   0  0  0  0  0  2  0  0  0  0  0  0
  -27.7750  -12.5660   18.2790 C   0  0  0  0  0  2  0  0  0  0  0  0
  -27.4810  -13.3590   19.5820 C   0  0  0  0  0  3  0  0  0  0  0  0
  -28.6020  -13.1700   20.6310 C   0  0  0  0  0  2  0  0  0  0  0  0
  -29.8850  -13.5210   19.9990 N   0  0  0  0  0  0  0  0  0  0  0  0
  -31.6210  -14.9060   19.5180 O   0  0  0  0  0  0  0  0  0  0  0  0
  -29.8310  -15.7790   20.5690 N   0  0  0  0  0  0  0  0  0  0  0  0
  -28.9890  -15.5140   21.0580 H   0  0  0  0  0  0  0  0  0  0  0  0
  -25.1060  -13.8780   20.4160 C   0  0  0  0  0  0  0  0  0  0  0  0
  -24.0800  -13.0710   20.8270 C   0  0  0  0  0  0  0  0  0  0  0  0
  -24.5770  -11.7320   20.7550 C   0  0  0  0  0  0  0  0  0  0  0  0
  -26.1620  -13.0310   20.1240 N   0  0  0  0  0  0  0  0  0  0  0  0
  -25.8520  -11.7340   20.3860 N   0  0  0  0  0  0  0  0  0  0  0  0
  -23.8950  -10.4470   20.9660 C   0  0  0  0  0  0  0  0  0  0  0  0
  -24.3520   -9.5150   21.9210 C   0  0  0  0  0  3  0  0  0  0  0  0
  -23.6680   -8.2950   22.1160 C   0  0  0  0  0  3  0  0  0  0  0  0
  -22.5110   -8.0010   21.3560 C   0  0  0  0  0  0  0  0  0  0  0  0
  -22.0740   -8.9230   20.3880 C   0  0  0  0  0  3  0  0  0  0  0  0
  -22.7600  -10.1340   20.1930 C   0  0  0  0  0  3  0  0  0  0  0  0
  -21.7990   -6.8320   21.4590 O   0  0  0  0  0  0  0  0  0  0  0  0
  -21.7200   -6.1350   22.6390 C   0  0  0  0  0  0  0  0  0  0  0  0
  -21.1920   -6.7150   23.8120 C   0  0  0  0  0  3  0  0  0  0  0  0
  -21.0670   -5.9450   24.9850 C   0  0  0  0  0  3  0  0  0  0  0  0
  -21.4610   -4.5920   24.9840 C   0  0  0  0  0  0  0  0  0  0  0  0
  -21.9800   -4.0100   23.8140 C   0  0  0  0  0  3  0  0  0  0  0  0
  -22.1070   -4.7800   22.6450 C   0  0  0  0  0  0  0  0  0  0  0  0
  -22.5910   -4.2090   21.5150 F   0  0  0  0  0  0  0  0  0  0  0  0
  -21.3340   -3.8480   26.1070 F   0  0  0  0  0  0  0  0  0  0  0  0
  -22.6850  -13.5040   21.1760 C   0  0  0  0  0  0  0  0  0  0  0  0
  -22.0170  -12.7720   22.0600 N   0  0  0  0  0  0  0  0  0  0  0  0
  -22.1940  -14.5290   20.7000 O   0  0  0  0  0  0  0  0  0  0  0  0
  -22.4320  -11.9490   22.4760 H   0  0  0  0  0  0  0  0  0  0  0  0
  -21.0830  -13.0410   22.3360 H   0  0  0  0  0  0  0  0  0  0  0  0
  -25.2200  -15.2560   20.2440 N   0  0  0  0  0  0  0  0  0  0  0  0
  -24.4280  -15.8800   20.3620 H   0  0  0  0  0  0  0  0  0  0  0  0
  -26.0370  -15.7190   19.8660 H   0  0  0  0  0  0  0  0  0  0  0  0
  -29.1250  -22.8590   20.5330 C   0  0  0  0  0  3  0  0  0  0  0  0
  -29.2070  -24.2210   20.3350 C   0  0  0  0  0  0  0  0  0  0  0  0
  -30.2670  -24.8330   19.7760 O   0  0  0  0  0  0  0  0  0  0  0  0
  -30.8910  -24.1560   19.5280 H   0  0  0  0  0  0  0  0  0  0  0  0
  -28.1230  -25.2820   20.7200 C   0  0  0  0  0  2  0  0  0  0  0  0
  -28.3020  -26.6660   20.2480 O   0  0  0  0  0  0  0  0  0  0  0  0
  -24.4940  -31.9770   23.2640 C   0  0  0  0  0  0  0  0  0  0  0  0
  -27.1590  -27.4720   20.2200 C   0  0  0  0  0  0  0  0  0  0  0  0
  -23.2950  -30.5650   21.6270 C   0  0  0  0  0  3  0  0  0  0  0  0
  -24.7640  -29.0290   20.1980 C   0  0  0  0  0  0  0  0  0  0  0  0
  -25.8240  -30.9220   21.4290 C   0  0  0  0  0  2  0  0  0  0  0  0
  -25.9210  -29.5420   20.7950 C   0  0  0  0  0  0  0  0  0  0  0  0
  -27.1210  -28.7740   20.8000 C   0  0  0  0  0  3  0  0  0  0  0  0
  -25.9850  -27.0090   19.5890 C   0  0  0  0  0  3  0  0  0  0  0  0
  -24.7960  -27.7660   19.5810 C   0  0  0  0  0  3  0  0  0  0  0  0
  -23.5110  -29.8830   20.2470 C   0  0  0  0  0  2  0  0  0  0  0  0
  -24.5560  -31.1710   22.1640 N   0  0  0  0  0  0  0  0  0  0  0  0
  -23.4120  -32.2450   23.8060 O   0  0  0  0  0  0  0  0  0  0  0  0
  -22.6490  -29.5450   22.5930 C   0  0  0  0  0  0  0  0  0  0  0  0
  -21.3260  -29.3450   22.4670 N   0  0  0  0  0  0  0  0  0  0  0  0
  -23.3380  -28.9330   23.4140 O   0  0  0  0  0  0  0  0  0  0  0  0
  -20.8270  -29.8920   21.7790 H   0  0  0  0  0  0  0  0  0  0  0  0
  -17.9710  -28.0880   22.9600 C   0  0  0  0  0  0  0  0  0  0  0  0
  -20.5230  -28.4010   23.2440 C   0  0  0  0  0  3  0  0  0  0  0  0
  -20.6550  -26.9640   22.6850 C   0  0  0  0  0  2  0  0  0  0  0  0
  -19.5670  -26.6090   21.6670 C   0  0  0  0  0  2  0  0  0  0  0  0
  -18.1790  -26.7350   22.3000 C   0  0  0  0  0  2  0  0  0  0  0  0
  -19.0720  -28.8760   23.3900 C   0  0  0  0  0  0  0  0  0  0  0  0
  -18.8250  -30.1400   23.9660 C   0  0  0  0  0  3  0  0  0  0  0  0
  -17.5100  -30.6170   24.1210 C   0  0  0  0  0  3  0  0  0  0  0  0
  -16.4230  -29.8260   23.7050 C   0  0  0  0  0  3  0  0  0  0  0  0
  -16.6550  -28.5650   23.1300 C   0  0  0  0  0  3  0  0  0  0  0  0
  -25.7750  -32.6230   23.8770 C   0  0  0  0  0  3  0  0  0  0  0  0
  -25.4600  -34.0240   24.1970 N   0  0  0  0  0  0  0  0  0  0  0  0
  -25.7950  -35.0730   23.4360 C   0  0  0  0  0  0  0  0  0  0  0  0
  -26.4720  -34.9650   22.4090 O   0  0  0  0  0  0  0  0  0  0  0  0
  -24.8670  -34.1800   24.9980 H   0  0  0  0  0  0  0  0  0  0  0  0
  -24.0770  -36.8670   23.0480 C   0  0  0  0  0  1  0  0  0  0  0  0
  -25.3020  -36.4610   23.8810 C   0  0  0  0  0  3  0  0  0  0  0  0
  -27.4220  -37.3480   24.7460 C   0  0  0  0  0  1  0  0  0  0  0  0
  -26.3370  -37.5140   23.7840 N   0  0  0  0  0  0  0  0  0  0  0  0
  -25.9290  -38.4350   23.9210 H   0  0  0  0  0  0  0  0  0  0  0  0
  -26.2980  -31.8660   25.1590 C   0  0  1  0  0  0  0  0  0  0  0  0
  -25.2080  -31.6220   26.2290 C   0  0  0  0  0  1  0  0  0  0  0  0
  -26.8990  -30.4930   24.7750 C   0  0  0  0  0  1  0  0  0  0  0  0
  -27.4390  -32.6770   25.8190 C   0  0  0  0  0  1  0  0  0  0  0  0
  1 49  1  0
  1  2  1  0
  2  7  1  0
  2  4  1  0
  3  1  2  0
  6  7  2  0
  6  9  1  0
  7  8  1  0
  8  5  2  0
  9  5  1  0
 10 19  1  0
 10  6  1  0
 11 19  1  0
 12 17  1  0
 13 14  1  0
 13 12  1  0
 15 14  1  0
 15 24  1  0
 15 16  1  0
 17 11  1  0
 17 16  1  0
 18 11  2  0
 19 20  1  0
 21 22  2  0
 22 41  1  0
 23 22  1  0
 23 26  1  0
 24 25  1  0
 24 21  1  0
 25 23  2  0
 26 27  1  0
 27 28  2  0
 29 32  1  0
 29 28  1  0
 30 29  2  0
 31 30  1  0
 31 26  2  0
 32 33  1  0
 33 38  2  0
 33 34  1  0
 34 35  2  0
 36 35  1  0
 36 40  1  0
 37 36  2  0
 38 37  1  0
 39 38  1  0
 41 42  1  0
 42 45  1  0
 42 44  1  0
 43 41  2  0
 46 47  1  0
 46 21  1  0
 48 46  1  0
 50 49  2  0
 50 53  1  0
 51 50  1  0
 52 51  1  0
 54 53  1  0
 55 66  2  0
 56 54  1  0
 56 61  1  0
 57 65  1  0
 57 67  1  0
 58 64  1  0
 58 60  1  0
 59 65  1  0
 60 61  2  0
 60 59  1  0
 62 56  2  0
 63 62  1  0
 63 58  2  0
 64 57  1  0
 65 55  1  0
 67 69  2  0
 68 67  1  0
 70 68  1  0
 71 80  2  0
 71 76  1  0
 72 68  1  0
 72 76  1  0
 73 72  1  0
 74 75  1  0
 74 73  1  0
 75 71  1  0
 76 77  2  0
 77 78  1  0
 79 78  2  0
 80 79  1  0
 81 55  1  0
 81 82  1  0
 81 91  1  0
 82 85  1  0
 83 87  1  0
 83 82  1  0
 84 83  2  0
 87 86  1  0
 89 87  1  0
 89 90  1  0
 89 88  1  0
 91 94  1  1
 91 92  1  0
 93 91  1  0
M  ISO  4  11 100  19 100  53 101  54 101
M  END
>  <TORSDO>  (6) 
F 21

>  <SCORE>  (6) 
-12.599

>  <name>  (6) 
5

>  <ligand_id>  (6) 
5

>  <original_smiles>  (6) 
[H]OC(=C([H])C(=O)N([H])c1nc([H])sc1C([H])([H])N([H])C(=O)N1C([H])([H])C([H])([H])C([H])([H])C([H])(n2nc(-c3c([H])c([H])c(Oc4c([H])c([H])c(F)c([H])c4F)c([H])c3[H])c(C(=O)N([H])[H])c2N([H])[H])C1([H])[H])C([H])([H])Oc1c([H])c([H])c2c(c1[H])C([H])([H])N(C(=O)C([H])(N([H])C(=O)C([H])(N([H])C([H])([H])[H])C([H])([H])[H])C(C([H])([H])[H])(C([H])([H])[H])C([H])([H])[H])C([H])(C(=O)N([H])C1([H])c3c([H])c([H])c([H])c([H])c3C([H])([H])C([H])([H])C1([H])[H])C2([H])[H]

>  <smiles>  (6) 
[H]OC(=C([H])C(=O)N([H])c1nc([H])sc1C([H])([H])N([H])C(=O)N1C([H])([H])C([H])([H])C([H])([H])C([H])(n2nc(-c3c([H])c([H])c(Oc4c([H])c([H])c(F)c([H])c4F)c([H])c3[H])c(C(=O)N([H])[H])c2N([H])[H])C1([H])[H])C([H])([H])Oc1c([H])c([H])c2c(c1[H])C([H])([H])N(C(=O)C([H])(N([H])C(=O)C([H])(N([H])C([H])([H])[H])C([H])([H])[H])C(C([H])([H])[H])(C([H])([H])[H])C([H])([H])[H])C([H])(C(=O)N([H])C1([H])c3c([H])c([H])c([H])c([H])c3C([H])([H])C([H])([H])C1([H])[H])C2([H])[H]

$$$$
6:0:0
     RDKit          3D

 92100  0  0  1  0  0  0  0  0999 V2000
  -29.8880  -19.4440   21.4440 C   0  0  0  0  0  3  0  0  0  0  0  0
  -30.5610  -17.0920   21.2770 C   0  0  0  0  0  3  0  0  0  0  0  0
  -30.2140  -18.2160   22.0510 C   0  0  0  0  0  0  0  0  0  0  0  0
  -29.9210  -19.5580   20.0460 C   0  0  0  0  0  0  0  0  0  0  0  0
  -30.5720  -17.1810   19.8720 C   0  0  0  0  0  0  0  0  0  0  0  0
  -30.2460  -18.4290   19.3060 N   0  0  0  0  0  0  0  0  0  0  0  0
  -29.6480  -20.8280   19.4010 N   0  0  0  0  0  0  0  0  0  0  0  0
  -30.1860  -18.1130   23.4030 F   0  0  0  0  0  0  0  0  0  0  0  0
  -29.7160  -20.8420   18.3890 H   0  0  0  0  0  0  0  0  0  0  0  0
  -31.4600  -14.7440   19.4380 C   0  0  0  0  0  0  0  0  0  0  0  0
  -31.0400  -12.4540   18.5160 C   0  0  0  0  0  2  0  0  0  0  0  0
  -29.9820  -12.4920   17.3910 C   0  0  0  0  0  2  0  0  0  0  0  0
  -28.5630  -12.3950   17.9760 C   0  0  0  0  0  2  0  0  0  0  0  0
  -28.3420  -13.3440   19.1830 C   0  0  0  0  0  3  0  0  0  0  0  0
  -29.5070  -13.2820   20.1920 C   0  0  0  0  0  2  0  0  0  0  0  0
  -30.7350  -13.5690   19.4430 N   0  0  0  0  0  0  0  0  0  0  0  0
  -32.6670  -14.6830   19.1750 O   0  0  0  0  0  0  0  0  0  0  0  0
  -30.8650  -16.2000   17.6430 C   0  0  0  0  0  1  0  0  0  0  0  0
  -30.7890  -15.9290   19.0870 N   0  0  0  0  0  0  0  0  0  0  0  0
  -26.0940  -14.0490   20.1920 C   0  0  0  0  0  0  0  0  0  0  0  0
  -25.0290  -13.3250   20.6560 C   0  0  0  0  0  0  0  0  0  0  0  0
  -25.4070  -11.9510   20.5470 C   0  0  0  0  0  0  0  0  0  0  0  0
  -27.0510  -13.1180   19.8210 N   0  0  0  0  0  0  0  0  0  0  0  0
  -26.6550  -11.8500   20.1050 N   0  0  0  0  0  0  0  0  0  0  0  0
  -24.6300  -10.7250   20.7820 C   0  0  0  0  0  0  0  0  0  0  0  0
  -25.0040   -9.7920   21.7740 C   0  0  0  0  0  3  0  0  0  0  0  0
  -24.2300   -8.6320   21.9960 C   0  0  0  0  0  3  0  0  0  0  0  0
  -23.0660   -8.3990   21.2250 C   0  0  0  0  0  0  0  0  0  0  0  0
  -22.7110   -9.3180   20.2220 C   0  0  0  0  0  3  0  0  0  0  0  0
  -23.4870  -10.4680   19.9990 C   0  0  0  0  0  3  0  0  0  0  0  0
  -22.2680   -7.2880   21.3520 O   0  0  0  0  0  0  0  0  0  0  0  0
  -22.0220   -6.7140   22.5740 C   0  0  0  0  0  0  0  0  0  0  0  0
  -21.3980   -7.4260   23.6210 C   0  0  0  0  0  3  0  0  0  0  0  0
  -21.1040   -6.7790   24.8380 C   0  0  0  0  0  3  0  0  0  0  0  0
  -21.4260   -5.4180   25.0060 C   0  0  0  0  0  0  0  0  0  0  0  0
  -22.0390   -4.7040   23.9620 C   0  0  0  0  0  3  0  0  0  0  0  0
  -22.3350   -5.3500   22.7490 C   0  0  0  0  0  0  0  0  0  0  0  0
  -22.9100   -4.6530   21.7390 F   0  0  0  0  0  0  0  0  0  0  0  0
  -21.1340   -4.7930   26.1700 F   0  0  0  0  0  0  0  0  0  0  0  0
  -23.6960  -13.8710   21.0810 C   0  0  0  0  0  0  0  0  0  0  0  0
  -23.0350  -13.2050   22.0220 N   0  0  0  0  0  0  0  0  0  0  0  0
  -23.2550  -14.9190   20.6120 O   0  0  0  0  0  0  0  0  0  0  0  0
  -23.4030  -12.3510   22.4140 H   0  0  0  0  0  0  0  0  0  0  0  0
  -22.1470  -13.5540   22.3530 H   0  0  0  0  0  0  0  0  0  0  0  0
  -26.3250  -15.4120   20.0280 N   0  0  0  0  0  0  0  0  0  0  0  0
  -25.6250  -16.1150   20.2430 H   0  0  0  0  0  0  0  0  0  0  0  0
  -27.1700  -15.8030   19.6320 H   0  0  0  0  0  0  0  0  0  0  0  0
  -28.8710  -22.0000   19.9970 C   0  0  0  0  0  2  0  0  0  0  0  0
  -29.2580  -23.5340   19.6880 C   0  0  0  0  0  0  0  0  0  0  0  0
  -30.4270  -23.8120   19.4000 O   0  0  0  0  0  0  0  0  0  0  0  0
  -28.1410  -24.6900   19.7180 C   0  0  0  0  0  2  0  0  0  0  0  0
  -28.5000  -26.1590   19.8510 O   0  0  0  0  0  0  0  0  0  0  0  0
  -24.8660  -31.5710   23.1140 C   0  0  0  0  0  0  0  0  0  0  0  0
  -27.4170  -27.0820   19.8440 C   0  0  0  0  0  0  0  0  0  0  0  0
  -23.6290  -30.2160   21.4670 C   0  0  0  0  0  3  0  0  0  0  0  0
  -25.0510  -28.7240   19.9480 C   0  0  0  0  0  0  0  0  0  0  0  0
  -26.1680  -30.5470   21.2270 C   0  0  0  0  0  2  0  0  0  0  0  0
  -26.2400  -29.1870   20.5290 C   0  0  0  0  0  0  0  0  0  0  0  0
  -27.4270  -28.3810   20.4620 C   0  0  0  0  0  3  0  0  0  0  0  0
  -26.2020  -26.7020   19.2280 C   0  0  0  0  0  3  0  0  0  0  0  0
  -25.0400  -27.4920   19.2860 C   0  0  0  0  0  3  0  0  0  0  0  0
  -23.8100  -29.5900   20.0610 C   0  0  0  0  0  2  0  0  0  0  0  0
  -24.9100  -30.7950   21.9910 N   0  0  0  0  0  0  0  0  0  0  0  0
  -23.7940  -31.8190   23.6890 O   0  0  0  0  0  0  0  0  0  0  0  0
  -23.0020  -29.1620   22.4130 C   0  0  0  0  0  0  0  0  0  0  0  0
  -21.6830  -28.9330   22.2810 N   0  0  0  0  0  0  0  0  0  0  0  0
  -23.7020  -28.5530   23.2270 O   0  0  0  0  0  0  0  0  0  0  0  0
  -21.1730  -29.4780   21.6000 H   0  0  0  0  0  0  0  0  0  0  0  0
  -18.3660  -27.5590   22.7400 C   0  0  0  0  0  0  0  0  0  0  0  0
  -20.9060  -27.9520   23.0370 C   0  0  0  0  0  3  0  0  0  0  0  0
  -21.0850  -26.5280   22.4650 C   0  0  0  0  0  2  0  0  0  0  0  0
  -20.0140  -26.1490   21.4390 C   0  0  0  0  0  2  0  0  0  0  0  0
  -18.6180  -26.2200   22.0670 C   0  0  0  0  0  2  0  0  0  0  0  0
  -19.4410  -28.3770   23.1840 C   0  0  0  0  0  0  0  0  0  0  0  0
  -19.1500  -29.6240   23.7760 C   0  0  0  0  0  3  0  0  0  0  0  0
  -17.8190  -30.0590   23.9260 C   0  0  0  0  0  3  0  0  0  0  0  0
  -16.7600  -29.2400   23.4970 C   0  0  0  0  0  3  0  0  0  0  0  0
  -17.0350  -27.9900   22.9120 C   0  0  0  0  0  3  0  0  0  0  0  0
  -26.1570  -32.2030   23.7170 C   0  0  0  0  0  3  0  0  0  0  0  0
  -26.7090  -31.4110   24.9660 C   0  0  1  0  0  0  0  0  0  0  0  0
  -25.6380  -31.1150   26.0420 C   0  0  0  0  0  1  0  0  0  0  0  0
  -27.3210  -30.0580   24.5310 C   0  0  0  0  0  1  0  0  0  0  0  0
  -27.8470  -32.2160   25.6360 C   0  0  0  0  0  1  0  0  0  0  0  0
  -25.8400  -33.5910   24.0880 N   0  0  0  0  0  0  0  0  0  0  0  0
  -26.1780  -34.6690   23.3680 C   0  0  0  0  0  0  0  0  0  0  0  0
  -26.8580  -34.5990   22.3400 O   0  0  0  0  0  0  0  0  0  0  0  0
  -25.2380  -33.7180   24.8890 H   0  0  0  0  0  0  0  0  0  0  0  0
  -24.4680  -36.4860   23.0410 C   0  0  0  0  0  1  0  0  0  0  0  0
  -25.6860  -36.0420   23.8660 C   0  0  0  0  0  3  0  0  0  0  0  0
  -27.7980  -36.8890   24.7900 C   0  0  0  0  0  1  0  0  0  0  0  0
  -26.7260  -37.0930   23.8200 N   0  0  0  0  0  0  0  0  0  0  0  0
  -26.3190  -38.0100   23.9820 H   0  0  0  0  0  0  0  0  0  0  0  0
  1  3  1  0
  2  3  2  0
  3  8  1  0
  4  1  2  0
  5  2  1  0
  6  5  2  0
  6  4  1  0
  7 48  1  0
  7  4  1  0
  9  7  1  0
 10 16  1  0
 11 16  1  0
 12 13  1  0
 12 11  1  0
 14 13  1  0
 14 23  1  0
 14 15  1  0
 16 15  1  0
 17 10  2  0
 18 19  1  0
 19 10  1  0
 19  5  1  0
 20 21  2  0
 21 40  1  0
 22 21  1  0
 22 25  1  0
 23 24  1  0
 23 20  1  0
 24 22  2  0
 25 26  1  0
 26 27  2  0
 28 31  1  0
 28 27  1  0
 29 28  2  0
 30 29  1  0
 30 25  2  0
 31 32  1  0
 32 37  2  0
 32 33  1  0
 33 34  2  0
 34 35  1  0
 35 39  1  0
 36 35  2  0
 37 36  1  0
 38 37  1  0
 40 41  1  0
 41 44  1  0
 41 43  1  0
 42 40  2  0
 45 20  1  0
 45 46  1  0
 47 45  1  0
 49 51  1  0
 49 48  1  0
 50 49  2  0
 51 52  1  0
 53 64  2  0
 54 52  1  0
 54 59  1  0
 55 63  1  0
 55 65  1  0
 56 62  1  0
 56 58  1  0
 57 63  1  0
 58 57  1  0
 59 58  2  0
 60 61  1  0
 60 54  2  0
 61 56  2  0
 62 55  1  0
 63 53  1  0
 65 67  2  0
 66 65  1  0
 68 66  1  0
 69 78  2  0
 69 74  1  0
 70 66  1  0
 70 74  1  0
 71 70  1  0
 72 73  1  0
 72 71  1  0
 73 69  1  0
 74 75  2  0
 75 76  1  0
 77 76  2  0
 78 77  1  0
 79 53  1  0
 79 84  1  0
 79 80  1  0
 80 83  1  1
 80 81  1  0
 82 80  1  0
 84 87  1  0
 85 89  1  0
 85 84  1  0
 86 85  2  0
 89 88  1  0
 91 89  1  0
 91 92  1  0
 91 90  1  0
M  ISO  4  10 100  19 100  51 101  52 101
M  END
>  <TORSDO>  (7) 
F 19

>  <SCORE>  (7) 
-10.759

>  <name>  (7) 
6

>  <ligand_id>  (7) 
6

>  <original_smiles>  (7) 
[H]c1c([H])c([H])c2c(c1[H])C([H])([H])C([H])([H])C([H])([H])C2([H])N([H])C(=O)C1([H])N(C(=O)C([H])(N([H])C(=O)C([H])(N([H])C([H])([H])[H])C([H])([H])[H])C(C([H])([H])[H])(C([H])([H])[H])C([H])([H])[H])C([H])([H])c2c([H])c(OC([H])([H])C(=O)C([H])([H])N([H])c3nc(N(C(=O)N4C([H])([H])C([H])([H])C([H])([H])C([H])(n5nc(-c6c([H])c([H])c(Oc7c([H])c([H])c(F)c([H])c7F)c([H])c6[H])c(C(=O)N([H])[H])c5N([H])[H])C4([H])[H])C([H])([H])[H])c([H])c(F)c3[H])c([H])c([H])c2C1([H])[H]

>  <smiles>  (7) 
[H]c1c([H])c([H])c2c(c1[H])C([H])([H])C([H])([H])C([H])([H])C2([H])N([H])C(=O)C1([H])N(C(=O)C([H])(N([H])C(=O)C([H])(N([H])C([H])([H])[H])C([H])([H])[H])C(C([H])([H])[H])(C([H])([H])[H])C([H])([H])[H])C([H])([H])c2c([H])c(OC([H])([H])C(=O)C([H])([H])N([H])c3nc(N(C(=O)N4C([H])([H])C([H])([H])C([H])([H])C([H])(n5nc(-c6c([H])c([H])c(Oc7c([H])c([H])c(F)c([H])c7F)c([H])c6[H])c(C(=O)N([H])[H])c5N([H])[H])C4([H])[H])C([H])([H])[H])c([H])c(F)c3[H])c([H])c([H])c2C1([H])[H]

$$$$
7:0:0
     RDKit          3D

 94103  0  0  1  0  0  0  0  0999 V2000
  -28.9170  -18.1080   20.6560 C   0  0  0  0  0  3  0  0  0  0  0  0
  -31.2690  -17.9220   20.1600 C   0  0  0  0  0  3  0  0  0  0  0  0
  -28.9700  -19.5280   20.4770 C   0  0  0  0  0  0  0  0  0  0  0  0
  -30.1860  -20.1650   20.1350 C   0  0  0  0  0  0  0  0  0  0  0  0
  -30.0590  -17.2600   20.5010 C   0  0  0  0  0  0  0  0  0  0  0  0
  -31.3310  -19.3350   19.9840 C   0  0  0  0  0  0  0  0  0  0  0  0
  -27.7160  -20.3910   20.6380 C   0  0  0  0  0  2  0  0  0  0  0  0
  -28.0120  -21.9020   20.8660 C   0  0  0  0  0  2  0  0  0  0  0  0
  -29.0690  -22.4560   19.8820 C   0  0  0  0  0  3  0  0  0  0  0  0
  -30.2720  -21.5820   19.9680 N   0  0  0  0  0  0  0  0  0  0  0  0
  -32.5160  -19.9070   19.6600 F   0  0  0  0  0  0  0  0  0  0  0  0
  -31.1770  -21.9920   19.7550 H   0  0  0  0  0  0  0  0  0  0  0  0
  -30.7090  -14.7330   20.3740 C   0  0  0  0  0  0  0  0  0  0  0  0
  -30.4800  -12.4760   19.3560 C   0  0  0  0  0  2  0  0  0  0  0  0
  -29.5390  -12.5910   18.1370 C   0  0  0  0  0  2  0  0  0  0  0  0
  -28.0650  -12.4500   18.5670 C   0  0  0  0  0  2  0  0  0  0  0  0
  -27.7120  -13.3410   19.7880 C   0  0  0  0  0  3  0  0  0  0  0  0
  -28.7670  -13.1970   20.9090 C   0  0  0  0  0  2  0  0  0  0  0  0
  -30.0810  -13.5150   20.3270 N   0  0  0  0  0  0  0  0  0  0  0  0
  -31.8750  -14.8590   19.9920 O   0  0  0  0  0  0  0  0  0  0  0  0
  -29.9150  -15.8090   20.6940 N   0  0  0  0  0  0  0  0  0  0  0  0
  -29.0040  -15.5200   21.0160 H   0  0  0  0  0  0  0  0  0  0  0  0
  -25.3340  -13.9820   20.5180 C   0  0  0  0  0  0  0  0  0  0  0  0
  -24.2520  -13.2260   20.8840 C   0  0  0  0  0  0  0  0  0  0  0  0
  -24.6860  -11.8670   20.8400 C   0  0  0  0  0  0  0  0  0  0  0  0
  -26.3590  -13.0820   20.2740 N   0  0  0  0  0  0  0  0  0  0  0  0
  -25.9750  -11.8050   20.5270 N   0  0  0  0  0  0  0  0  0  0  0  0
  -23.9350  -10.6170   21.0190 C   0  0  0  0  0  0  0  0  0  0  0  0
  -24.3490   -9.6330   21.9430 C   0  0  0  0  0  3  0  0  0  0  0  0
  -23.6000   -8.4480   22.1110 C   0  0  0  0  0  3  0  0  0  0  0  0
  -22.4220   -8.2410   21.3550 C   0  0  0  0  0  0  0  0  0  0  0  0
  -22.0270   -9.2130   20.4190 C   0  0  0  0  0  3  0  0  0  0  0  0
  -22.7770  -10.3890   20.2500 C   0  0  0  0  0  3  0  0  0  0  0  0
  -21.6450   -7.1110   21.4320 O   0  0  0  0  0  0  0  0  0  0  0  0
  -21.5790   -6.3590   22.5770 C   0  0  0  0  0  0  0  0  0  0  0  0
  -21.1290   -6.9040   23.8000 C   0  0  0  0  0  3  0  0  0  0  0  0
  -21.0120   -6.0790   24.9370 C   0  0  0  0  0  3  0  0  0  0  0  0
  -21.3330   -4.7110   24.8520 C   0  0  0  0  0  0  0  0  0  0  0  0
  -21.7760   -4.1660   23.6340 C   0  0  0  0  0  3  0  0  0  0  0  0
  -21.8960   -4.9880   22.5000 C   0  0  0  0  0  0  0  0  0  0  0  0
  -22.3030   -4.4530   21.3240 F   0  0  0  0  0  0  0  0  0  0  0  0
  -21.2130   -3.9180   25.9420 F   0  0  0  0  0  0  0  0  0  0  0  0
  -22.8650  -13.7290   21.1640 C   0  0  0  0  0  0  0  0  0  0  0  0
  -22.1280  -13.0440   22.0300 N   0  0  0  0  0  0  0  0  0  0  0  0
  -22.4460  -14.7660   20.6500 O   0  0  0  0  0  0  0  0  0  0  0  0
  -22.4800  -12.2040   22.4660 H   0  0  0  0  0  0  0  0  0  0  0  0
  -21.1970  -13.3640   22.2610 H   0  0  0  0  0  0  0  0  0  0  0  0
  -25.5240  -15.3500   20.3510 N   0  0  0  0  0  0  0  0  0  0  0  0
  -24.7640  -16.0130   20.4560 H   0  0  0  0  0  0  0  0  0  0  0  0
  -26.3640  -15.7710   19.9750 H   0  0  0  0  0  0  0  0  0  0  0  0
  -29.3350  -24.0350   20.0750 C   0  0  0  0  0  0  0  0  0  0  0  0
  -30.4160  -24.4450   20.5120 O   0  0  0  0  0  0  0  0  0  0  0  0
  -28.2150  -25.0790   19.6890 C   0  0  0  0  0  2  0  0  0  0  0  0
  -28.4550  -26.5170   19.9880 O   0  0  0  0  0  0  0  0  0  0  0  0
  -24.5870  -31.7520   23.1360 C   0  0  0  0  0  0  0  0  0  0  0  0
  -27.3290  -27.3600   19.9460 C   0  0  0  0  0  0  0  0  0  0  0  0
  -23.4350  -30.3950   21.4270 C   0  0  0  0  0  3  0  0  0  0  0  0
  -24.9350  -28.9320   19.9650 C   0  0  0  0  0  0  0  0  0  0  0  0
  -25.9720  -30.7660   21.2950 C   0  0  0  0  0  2  0  0  0  0  0  0
  -26.0870  -29.4160   20.5980 C   0  0  0  0  0  0  0  0  0  0  0  0
  -27.2880  -28.6420   20.5810 C   0  0  0  0  0  3  0  0  0  0  0  0
  -26.1490  -26.9380   19.2880 C   0  0  0  0  0  3  0  0  0  0  0  0
  -24.9690  -27.6990   19.3020 C   0  0  0  0  0  3  0  0  0  0  0  0
  -23.6820  -29.7810   20.0250 C   0  0  0  0  0  2  0  0  0  0  0  0
  -24.6820  -30.9860   22.0100 N   0  0  0  0  0  0  0  0  0  0  0  0
  -23.4910  -31.9870   23.6640 O   0  0  0  0  0  0  0  0  0  0  0  0
  -22.7790  -29.3270   22.3350 C   0  0  0  0  0  0  0  0  0  0  0  0
  -21.4510  -29.1610   22.2120 N   0  0  0  0  0  0  0  0  0  0  0  0
  -23.4630  -28.6560   23.1120 O   0  0  0  0  0  0  0  0  0  0  0  0
  -20.9570  -29.7580   21.5640 H   0  0  0  0  0  0  0  0  0  0  0  0
  -18.0640  -28.0010   22.7360 C   0  0  0  0  0  0  0  0  0  0  0  0
  -20.6350  -28.1880   22.9410 C   0  0  0  0  0  3  0  0  0  0  0  0
  -20.6860  -26.7990   22.2620 C   0  0  0  0  0  2  0  0  0  0  0  0
  -19.5460  -26.5730   21.2640 C   0  0  0  0  0  2  0  0  0  0  0  0
  -18.1880  -26.7010   21.9610 C   0  0  0  0  0  2  0  0  0  0  0  0
  -19.2120  -28.7070   23.1820 C   0  0  0  0  0  0  0  0  0  0  0  0
  -19.0410  -29.9280   23.8680 C   0  0  0  0  0  3  0  0  0  0  0  0
  -17.7540  -30.4440   24.1120 C   0  0  0  0  0  3  0  0  0  0  0  0
  -16.6200  -29.7330   23.6810 C   0  0  0  0  0  3  0  0  0  0  0  0
  -16.7770  -28.5140   22.9980 C   0  0  0  0  0  3  0  0  0  0  0  0
  -25.8480  -32.3840   23.8010 C   0  0  0  0  0  3  0  0  0  0  0  0
  -25.5160  -33.7740   24.1480 N   0  0  0  0  0  0  0  0  0  0  0  0
  -25.8300  -34.8400   23.4010 C   0  0  0  0  0  0  0  0  0  0  0  0
  -26.4990  -34.7590   22.3660 O   0  0  0  0  0  0  0  0  0  0  0  0
  -24.9240  -33.9100   24.9530 H   0  0  0  0  0  0  0  0  0  0  0  0
  -24.0630  -36.6020   23.0840 C   0  0  0  0  0  1  0  0  0  0  0  0
  -25.3230  -36.2150   23.8760 C   0  0  0  0  0  3  0  0  0  0  0  0
  -27.4460  -37.1400   24.6920 C   0  0  0  0  0  1  0  0  0  0  0  0
  -26.3330  -37.2900   23.7580 N   0  0  0  0  0  0  0  0  0  0  0  0
  -25.9080  -38.2000   23.9160 H   0  0  0  0  0  0  0  0  0  0  0  0
  -26.3380  -31.5960   25.0770 C   0  0  1  0  0  0  0  0  0  0  0  0
  -25.2210  -31.3310   26.1130 C   0  0  0  0  0  1  0  0  0  0  0  0
  -26.9410  -30.2290   24.6760 C   0  0  0  0  0  1  0  0  0  0  0  0
  -27.4640  -32.3880   25.7810 C   0  0  0  0  0  1  0  0  0  0  0  0
  2  5  2  0
  3  7  1  0
  3  1  2  0
  4  3  1  0
  5  1  1  0
  5 21  1  0
  6  4  2  0
  6  2  1  0
  7  8  1  0
  9 10  1  0
  9 51  1  0
  9  8  1  0
 10  4  1  0
 11  6  1  0
 12 10  1  0
 13 21  1  0
 14 19  1  0
 15 16  1  0
 15 14  1  0
 17 16  1  0
 17 26  1  0
 17 18  1  0
 19 13  1  0
 19 18  1  0
 20 13  2  0
 21 22  1  0
 23 24  2  0
 24 43  1  0
 25 24  1  0
 25 28  1  0
 26 23  1  0
 26 27  1  0
 27 25  2  0
 28 29  1  0
 29 30  2  0
 31 34  1  0
 31 30  1  0
 32 31  2  0
 33 32  1  0
 33 28  2  0
 34 35  1  0
 35 36  1  0
 36 37  2  0
 38 37  1  0
 38 42  1  0
 39 38  2  0
 40 35  2  0
 40 39  1  0
 41 40  1  0
 43 44  1  0
 44 47  1  0
 44 46  1  0
 45 43  2  0
 48 49  1  0
 48 23  1  0
 50 48  1  0
 51 52  2  0
 53 54  1  0
 53 51  1  0
 55 66  2  0
 56 54  1  0
 56 61  1  0
 57 65  1  0
 57 67  1  0
 58 64  1  0
 58 60  1  0
 59 65  1  0
 60 59  1  0
 61 60  2  0
 62 63  1  0
 62 56  2  0
 63 58  2  0
 64 57  1  0
 65 55  1  0
 67 69  2  0
 68 67  1  0
 70 68  1  0
 71 80  2  0
 71 76  1  0
 72 68  1  0
 72 76  1  0
 73 72  1  0
 74 75  1  0
 74 73  1  0
 75 71  1  0
 76 77  2  0
 77 78  1  0
 79 78  2  0
 80 79  1  0
 81 55  1  0
 81 82  1  0
 81 91  1  0
 82 85  1  0
 83 87  1  0
 83 82  1  0
 84 83  2  0
 87 86  1  0
 89 87  1  0
 89 90  1  0
 89 88  1  0
 91 94  1  1
 91 92  1  0
 93 91  1  0
M  ISO  4  13 100  21 100  53 101  54 101
M  END
>  <TORSDO>  (8) 
F 18

>  <SCORE>  (8) 
-14.472

>  <name>  (8) 
7

>  <ligand_id>  (8) 
7

>  <original_smiles>  (8) 
[H]c1c([H])c([H])c2c(c1[H])C([H])([H])C([H])([H])C([H])([H])C2([H])N([H])C(=O)C1([H])N(C(=O)C([H])(N([H])C(=O)C([H])(N([H])C([H])([H])[H])C([H])([H])[H])C(C([H])([H])[H])(C([H])([H])[H])C([H])([H])[H])C([H])([H])c2c([H])c(OC([H])([H])C(=O)C3([H])N([H])c4c(F)c([H])c(N([H])C(=O)N5C([H])([H])C([H])([H])C([H])([H])C([H])(n6nc(-c7c([H])c([H])c(Oc8c([H])c([H])c(F)c([H])c8F)c([H])c7[H])c(C(=O)N([H])[H])c6N([H])[H])C5([H])[H])c([H])c4C([H])([H])C3([H])[H])c([H])c([H])c2C1([H])[H]

>  <smiles>  (8) 
[H]c1c([H])c([H])c2c(c1[H])C([H])([H])C([H])([H])C([H])([H])C2([H])N([H])C(=O)C1([H])N(C(=O)C([H])(N([H])C(=O)C([H])(N([H])C([H])([H])[H])C([H])([H])[H])C(C([H])([H])[H])(C([H])([H])[H])C([H])([H])[H])C([H])([H])c2c([H])c(OC([H])([H])C(=O)C3([H])N([H])c4c(F)c([H])c(N([H])C(=O)N5C([H])([H])C([H])([H])C([H])([H])C([H])(n6nc(-c7c([H])c([H])c(Oc8c([H])c([H])c(F)c([H])c8F)c([H])c7[H])c(C(=O)N([H])[H])c6N([H])[H])C5([H])[H])c([H])c4C([H])([H])C3([H])[H])c([H])c([H])c2C1([H])[H]

$$$$
8:0:0
     RDKit          3D

 95103  0  0  1  0  0  0  0  0999 V2000
  -29.1630  -19.0930   19.5490 C   0  0  0  0  0  3  0  0  0  0  0  0
  -29.8930  -18.2220   20.4370 C   0  0  0  0  0  0  0  0  0  0  0  0
  -30.7470  -19.0600   21.1260 C   0  0  0  0  0  0  0  0  0  0  0  0
  -29.5450  -20.3820   19.8440 C   0  0  0  0  0  0  0  0  0  0  0  0
  -30.5700  -20.3780   20.7330 O   0  0  0  0  0  0  0  0  0  0  0  0
  -30.6000  -14.8320   19.9600 C   0  0  0  0  0  0  0  0  0  0  0  0
  -30.4690  -12.6460   18.7570 C   0  0  0  0  0  2  0  0  0  0  0  0
  -29.4080  -12.7830   17.6370 C   0  0  0  0  0  2  0  0  0  0  0  0
  -27.9660  -12.5800   18.1550 C   0  0  0  0  0  2  0  0  0  0  0  0
  -27.6920  -13.3810   19.4530 C   0  0  0  0  0  3  0  0  0  0  0  0
  -28.8280  -13.1070   20.4640 C   0  0  0  0  0  2  0  0  0  0  0  0
  -30.0940  -13.5620   19.8460 N   0  0  0  0  0  0  0  0  0  0  0  0
  -31.6460  -15.1830   19.4000 O   0  0  0  0  0  0  0  0  0  0  0  0
  -29.4590  -16.8930   21.0130 C   0  0  0  0  0  0  0  0  0  0  0  0
  -29.7610  -15.6090   20.6940 N   0  0  0  0  0  0  0  0  0  0  0  0
  -28.6300  -16.9940   21.9160 O   0  0  0  0  0  0  0  0  0  0  0  0
  -29.1040  -15.0090   21.1670 H   0  0  0  0  0  0  0  0  0  0  0  0
  -25.3470  -13.9490   20.3480 C   0  0  0  0  0  0  0  0  0  0  0  0
  -24.3130  -13.1540   20.7690 C   0  0  0  0  0  0  0  0  0  0  0  0
  -24.7800  -11.8110   20.6560 C   0  0  0  0  0  0  0  0  0  0  0  0
  -26.3770  -13.0820   20.0130 N   0  0  0  0  0  0  0  0  0  0  0  0
  -26.0430  -11.7900   20.2500 N   0  0  0  0  0  0  0  0  0  0  0  0
  -24.0770  -10.5370   20.8540 C   0  0  0  0  0  0  0  0  0  0  0  0
  -24.5090   -9.5920   21.8130 C   0  0  0  0  0  3  0  0  0  0  0  0
  -23.8050   -8.3820   21.9920 C   0  0  0  0  0  3  0  0  0  0  0  0
  -22.6540   -8.1070   21.2150 C   0  0  0  0  0  0  0  0  0  0  0  0
  -22.2380   -9.0430   20.2510 C   0  0  0  0  0  3  0  0  0  0  0  0
  -22.9450  -10.2430   20.0680 C   0  0  0  0  0  3  0  0  0  0  0  0
  -21.9190   -6.9490   21.3060 O   0  0  0  0  0  0  0  0  0  0  0  0
  -21.7600   -6.2900   22.4990 C   0  0  0  0  0  0  0  0  0  0  0  0
  -21.1510   -6.9080   23.6140 C   0  0  0  0  0  3  0  0  0  0  0  0
  -20.9440   -6.1720   24.7980 C   0  0  0  0  0  3  0  0  0  0  0  0
  -21.3380   -4.8220   24.8680 C   0  0  0  0  0  0  0  0  0  0  0  0
  -21.9430   -4.2060   23.7580 C   0  0  0  0  0  3  0  0  0  0  0  0
  -22.1520   -4.9380   22.5760 C   0  0  0  0  0  0  0  0  0  0  0  0
  -22.7110   -4.3340   21.4990 F   0  0  0  0  0  0  0  0  0  0  0  0
  -21.1340   -4.1140   26.0030 F   0  0  0  0  0  0  0  0  0  0  0  0
  -22.9370  -13.6100   21.1660 C   0  0  0  0  0  0  0  0  0  0  0  0
  -22.2820  -12.8690   22.0550 N   0  0  0  0  0  0  0  0  0  0  0  0
  -22.4510  -14.6520   20.7250 O   0  0  0  0  0  0  0  0  0  0  0  0
  -22.6850  -12.0210   22.4230 H   0  0  0  0  0  0  0  0  0  0  0  0
  -21.3670  -13.1540   22.3750 H   0  0  0  0  0  0  0  0  0  0  0  0
  -25.4910  -15.3250   20.2090 N   0  0  0  0  0  0  0  0  0  0  0  0
  -24.7340  -15.9760   20.3900 H   0  0  0  0  0  0  0  0  0  0  0  0
  -26.3080  -15.7750   19.8210 H   0  0  0  0  0  0  0  0  0  0  0  0
  -31.6150  -18.7960   22.2770 C   0  0  0  0  0  0  0  0  0  0  0  0
  -32.2220  -19.9930   22.9920 C   0  0  0  0  0  1  0  0  0  0  0  0
  -31.8370  -17.6610   22.7040 O   0  0  0  0  0  0  0  0  0  0  0  0
  -28.8900  -21.5760   19.4360 N   0  0  0  0  0  0  0  0  0  0  0  0
  -28.1030  -21.5090   18.7930 H   0  0  0  0  0  0  0  0  0  0  0  0
  -29.3220  -22.9630   19.7840 C   0  0  0  0  0  2  0  0  0  0  0  0
  -28.2020  -24.0780   19.8870 C   0  0  0  0  0  0  0  0  0  0  0  0
  -27.2210  -23.8730   20.6080 O   0  0  0  0  0  0  0  0  0  0  0  0
  -28.3070  -25.4100   19.0520 C   0  0  0  0  0  2  0  0  0  0  0  0
  -28.2300  -26.6810   19.8010 O   0  0  0  0  0  0  0  0  0  0  0  0
  -24.7200  -31.8820   23.3010 C   0  0  0  0  0  0  0  0  0  0  0  0
  -27.0960  -27.5000   19.8280 C   0  0  0  0  0  0  0  0  0  0  0  0
  -23.4190  -30.6370   21.6120 C   0  0  0  0  0  3  0  0  0  0  0  0
  -24.7730  -29.1520   20.0290 C   0  0  0  0  0  0  0  0  0  0  0  0
  -25.9550  -30.9070   21.3560 C   0  0  0  0  0  2  0  0  0  0  0  0
  -25.9720  -29.5750   20.6150 C   0  0  0  0  0  0  0  0  0  0  0  0
  -27.1310  -28.7560   20.5090 C   0  0  0  0  0  3  0  0  0  0  0  0
  -25.8700  -27.1180   19.2350 C   0  0  0  0  0  3  0  0  0  0  0  0
  -24.7240  -27.9310   19.3330 C   0  0  0  0  0  3  0  0  0  0  0  0
  -23.5600  -30.0480   20.1830 C   0  0  0  0  0  2  0  0  0  0  0  0
  -24.7210  -31.1550   22.1470 N   0  0  0  0  0  0  0  0  0  0  0  0
  -23.6660  -32.1480   23.8930 O   0  0  0  0  0  0  0  0  0  0  0  0
  -22.7650  -29.5730   22.5250 C   0  0  0  0  0  0  0  0  0  0  0  0
  -21.4340  -29.4240   22.4080 N   0  0  0  0  0  0  0  0  0  0  0  0
  -23.4490  -28.8880   23.2880 O   0  0  0  0  0  0  0  0  0  0  0  0
  -20.9450  -30.0290   21.7620 H   0  0  0  0  0  0  0  0  0  0  0  0
  -18.0530  -28.2250   22.8860 C   0  0  0  0  0  0  0  0  0  0  0  0
  -20.6150  -28.4550   23.1370 C   0  0  0  0  0  3  0  0  0  0  0  0
  -20.7000  -27.0530   22.4900 C   0  0  0  0  0  2  0  0  0  0  0  0
  -19.5860  -26.7880   21.4720 C   0  0  0  0  0  2  0  0  0  0  0  0
  -18.2120  -26.9100   22.1380 C   0  0  0  0  0  2  0  0  0  0  0  0
  -19.1810  -28.9560   23.3410 C   0  0  0  0  0  0  0  0  0  0  0  0
  -18.9800  -30.1860   24.0040 C   0  0  0  0  0  3  0  0  0  0  0  0
  -17.6820  -30.6890   24.2070 C   0  0  0  0  0  3  0  0  0  0  0  0
  -16.5670  -29.9560   23.7660 C   0  0  0  0  0  3  0  0  0  0  0  0
  -16.7530  -28.7230   23.1180 C   0  0  0  0  0  3  0  0  0  0  0  0
  -26.0460  -32.4360   23.9130 C   0  0  0  0  0  3  0  0  0  0  0  0
  -25.7940  -33.8190   24.3460 N   0  0  0  0  0  0  0  0  0  0  0  0
  -26.1550  -34.9100   23.6570 C   0  0  0  0  0  0  0  0  0  0  0  0
  -26.8020  -34.8540   22.6080 O   0  0  0  0  0  0  0  0  0  0  0  0
  -25.2300  -33.9400   25.1740 H   0  0  0  0  0  0  0  0  0  0  0  0
  -24.5050  -36.7910   23.4360 C   0  0  0  0  0  1  0  0  0  0  0  0
  -25.7260  -36.2820   24.2170 C   0  0  0  0  0  3  0  0  0  0  0  0
  -27.8890  -37.0090   25.1180 C   0  0  0  0  0  1  0  0  0  0  0  0
  -26.8050  -37.2950   24.1810 N   0  0  0  0  0  0  0  0  0  0  0  0
  -26.4410  -38.2200   24.3920 H   0  0  0  0  0  0  0  0  0  0  0  0
  -26.5840  -31.5710   25.1170 C   0  0  1  0  0  0  0  0  0  0  0  0
  -25.5220  -31.2950   26.2080 C   0  0  0  0  0  1  0  0  0  0  0  0
  -27.1110  -30.2050   24.6230 C   0  0  0  0  0  1  0  0  0  0  0  0
  -27.7780  -32.2900   25.7880 C   0  0  0  0  0  1  0  0  0  0  0  0
  1  4  2  0
  1  2  1  0
  2 14  1  0
  2  3  2  0
  3 46  1  0
  4  5  1  0
  5  3  1  0
  6 15  1  0
  7 12  1  0
  8  9  1  0
  8  7  1  0
 10  9  1  0
 10 21  1  0
 10 11  1  0
 12  6  1  0
 12 11  1  0
 13  6  2  0
 14 16  2  0
 15 14  1  0
 15 17  1  0
 18 19  2  0
 19 38  1  0
 20 19  1  0
 20 23  1  0
 21 22  1  0
 21 18  1  0
 22 20  2  0
 23 24  1  0
 24 25  2  0
 26 29  1  0
 26 25  1  0
 27 26  2  0
 28 27  1  0
 28 23  2  0
 29 30  1  0
 30 35  2  0
 30 31  1  0
 31 32  2  0
 32 33  1  0
 33 37  1  0
 34 33  2  0
 35 34  1  0
 36 35  1  0
 38 39  1  0
 39 42  1  0
 39 41  1  0
 40 38  2  0
 43 18  1  0
 43 44  1  0
 45 43  1  0
 46 48  2  0
 46 47  1  0
 49 51  1  0
 49  4  1  0
 50 49  1  0
 51 52  1  0
 52 53  2  0
 54 55  1  0
 54 52  1  0
 55 57  1  0
 56 67  2  0
 57 62  1  0
 58 66  1  0
 58 68  1  0
 59 65  1  0
 59 61  1  0
 60 66  1  0
 61 60  1  0
 62 61  2  0
 63 64  1  0
 63 57  2  0
 64 59  2  0
 65 58  1  0
 66 56  1  0
 68 70  2  0
 69 68  1  0
 71 69  1  0
 72 81  2  0
 72 77  1  0
 73 69  1  0
 73 77  1  0
 74 73  1  0
 75 76  1  0
 75 74  1  0
 76 72  1  0
 77 78  2  0
 78 79  1  0
 80 79  2  0
 81 80  1  0
 82 56  1  0
 82 83  1  0
 82 92  1  0
 83 86  1  0
 84 88  1  0
 84 83  1  0
 85 84  2  0
 88 87  1  0
 90 88  1  0
 90 91  1  0
 90 89  1  0
 92 95  1  1
 92 93  1  0
 94 92  1  0
M  ISO  4   6 100  15 100  54 101  55 101
M  END
>  <TORSDO>  (9) 
F 21

>  <SCORE>  (9) 
-11.787

>  <name>  (9) 
8

>  <ligand_id>  (9) 
8

>  <original_smiles>  (9) 
[H]c1c([H])c([H])c2c(c1[H])C([H])([H])C([H])([H])C([H])([H])C2([H])N([H])C(=O)C1([H])N(C(=O)C([H])(N([H])C(=O)C([H])(N([H])C([H])([H])[H])C([H])([H])[H])C(C([H])([H])[H])(C([H])([H])[H])C([H])([H])[H])C([H])([H])c2c([H])c(OC([H])([H])C(=O)C([H])([H])N([H])c3oc(C(=O)C([H])([H])[H])c(C(=O)N([H])C(=O)N4C([H])([H])C([H])([H])C([H])([H])C([H])(n5nc(-c6c([H])c([H])c(Oc7c([H])c([H])c(F)c([H])c7F)c([H])c6[H])c(C(=O)N([H])[H])c5N([H])[H])C4([H])[H])c3[H])c([H])c([H])c2C1([H])[H]

>  <smiles>  (9) 
[H]c1c([H])c([H])c2c(c1[H])C([H])([H])C([H])([H])C([H])([H])C2([H])N([H])C(=O)C1([H])N(C(=O)C([H])(N([H])C(=O)C([H])(N([H])C([H])([H])[H])C([H])([H])[H])C(C([H])([H])[H])(C([H])([H])[H])C([H])([H])[H])C([H])([H])c2c([H])c(OC([H])([H])C(=O)C([H])([H])N([H])c3oc(C(=O)C([H])([H])[H])c(C(=O)N([H])C(=O)N4C([H])([H])C([H])([H])C([H])([H])C([H])(n5nc(-c6c([H])c([H])c(Oc7c([H])c([H])c(F)c([H])c7F)c([H])c6[H])c(C(=O)N([H])[H])c5N([H])[H])C4([H])[H])c3[H])c([H])c([H])c2C1([H])[H]

$$$$
9:0:0
     RDKit          3D

 93101  0  0  1  0  0  0  0  0999 V2000
  -28.9770  -20.5700   21.1050 C   0  0  0  0  0  3  0  0  0  0  0  0
  -28.8340  -19.3540   21.7960 C   0  0  0  0  0  3  0  0  0  0  0  0
  -30.5120  -19.4930   19.5700 C   0  0  0  0  0  3  0  0  0  0  0  0
  -30.3640  -18.2400   20.2330 C   0  0  0  0  0  0  0  0  0  0  0  0
  -29.8420  -20.6780   19.9880 C   0  0  0  0  0  0  0  0  0  0  0  0
  -29.5220  -18.2000   21.3800 C   0  0  0  0  0  0  0  0  0  0  0  0
  -29.3640  -17.0520   22.1590 N   0  0  0  0  0  0  0  0  0  0  0  0
  -29.0740  -17.1660   23.1230 H   0  0  0  0  0  0  0  0  0  0  0  0
  -30.0570  -16.3210   22.0470 H   0  0  0  0  0  0  0  0  0  0  0  0
  -31.0430  -17.0310   19.6620 C   0  0  0  0  0  3  0  0  0  0  0  0
  -30.6580  -15.7310   19.7950 C   0  0  0  0  0  3  0  0  0  0  0  0
  -31.3800  -14.6030   19.1800 C   0  0  0  0  0  0  0  0  0  0  0  0
  -30.9450  -12.3840   18.1780 C   0  0  0  0  0  2  0  0  0  0  0  0
  -29.7700  -12.5300   17.1830 C   0  0  0  0  0  2  0  0  0  0  0  0
  -28.4110  -12.3790   17.8990 C   0  0  0  0  0  2  0  0  0  0  0  0
  -28.3190  -13.2360   19.1920 C   0  0  0  0  0  3  0  0  0  0  0  0
  -29.5830  -13.0390   20.0610 C   0  0  0  0  0  2  0  0  0  0  0  0
  -30.7520  -13.3880   19.2370 N   0  0  0  0  0  0  0  0  0  0  0  0
  -32.4080  -14.7620   18.5140 O   0  0  0  0  0  0  0  0  0  0  0  0
  -26.2660  -13.8320   20.6260 C   0  0  0  0  0  0  0  0  0  0  0  0
  -25.2220  -13.0760   21.0880 C   0  0  0  0  0  0  0  0  0  0  0  0
  -25.4730  -11.7430   20.6420 C   0  0  0  0  0  0  0  0  0  0  0  0
  -27.0950  -12.9560   19.9410 N   0  0  0  0  0  0  0  0  0  0  0  0
  -26.6340  -11.6810   20.0010 N   0  0  0  0  0  0  0  0  0  0  0  0
  -24.6480  -10.5320   20.7380 C   0  0  0  0  0  0  0  0  0  0  0  0
  -25.0620   -9.4160   21.4980 C   0  0  0  0  0  3  0  0  0  0  0  0
  -24.2450   -8.2690   21.5910 C   0  0  0  0  0  3  0  0  0  0  0  0
  -22.9980   -8.2310   20.9220 C   0  0  0  0  0  0  0  0  0  0  0  0
  -22.6010   -9.3360   20.1490 C   0  0  0  0  0  3  0  0  0  0  0  0
  -23.4180  -10.4740   20.0540 C   0  0  0  0  0  3  0  0  0  0  0  0
  -22.1490   -7.1510   20.9330 O   0  0  0  0  0  0  0  0  0  0  0  0
  -21.9620   -6.3950   22.0630 C   0  0  0  0  0  0  0  0  0  0  0  0
  -21.5010   -6.9610   23.2710 C   0  0  0  0  0  3  0  0  0  0  0  0
  -21.2540   -6.1350   24.3860 C   0  0  0  0  0  3  0  0  0  0  0  0
  -21.4590   -4.7450   24.2940 C   0  0  0  0  0  0  0  0  0  0  0  0
  -21.9130   -4.1790   23.0890 C   0  0  0  0  0  3  0  0  0  0  0  0
  -22.1610   -5.0020   21.9770 C   0  0  0  0  0  0  0  0  0  0  0  0
  -22.5770   -4.4480   20.8120 F   0  0  0  0  0  0  0  0  0  0  0  0
  -21.2150   -3.9520   25.3620 F   0  0  0  0  0  0  0  0  0  0  0  0
  -24.0100  -13.5760   21.8200 C   0  0  0  0  0  0  0  0  0  0  0  0
  -23.4450  -12.7590   22.7030 N   0  0  0  0  0  0  0  0  0  0  0  0
  -23.5850  -14.7160   21.6480 O   0  0  0  0  0  0  0  0  0  0  0  0
  -23.8070  -11.8310   22.8600 H   0  0  0  0  0  0  0  0  0  0  0  0
  -22.6390  -13.0690   23.2280 H   0  0  0  0  0  0  0  0  0  0  0  0
  -26.5660  -15.1880   20.7110 N   0  0  0  0  0  0  0  0  0  0  0  0
  -25.9590  -15.8500   21.1830 H   0  0  0  0  0  0  0  0  0  0  0  0
  -27.3970  -15.6180   20.3260 H   0  0  0  0  0  0  0  0  0  0  0  0
  -29.7420  -23.0410   19.7460 C   0  0  0  0  0  3  0  0  0  0  0  0
  -30.0340  -21.8850   19.2590 N   0  0  0  0  0  0  0  0  0  0  0  0
  -30.6540  -24.3490   17.7160 C   0  0  0  0  0  1  0  0  0  0  0  0
  -29.9140  -24.4220   19.0660 C   0  0  0  0  0  3  0  0  0  0  0  0
  -28.5660  -25.1850   18.9270 C   0  0  0  0  0  2  0  0  0  0  0  0
  -28.6820  -26.6310   18.8860 O   0  0  0  0  0  0  0  0  0  0  0  0
  -24.8600  -31.1970   22.8470 C   0  0  0  0  0  0  0  0  0  0  0  0
  -27.4960  -27.3390   19.0280 C   0  0  0  0  0  0  0  0  0  0  0  0
  -23.6200  -29.9810   21.0900 C   0  0  0  0  0  3  0  0  0  0  0  0
  -25.0500  -28.7380   19.3820 C   0  0  0  0  0  0  0  0  0  0  0  0
  -26.1160  -30.4850   20.8110 C   0  0  0  0  0  2  0  0  0  0  0  0
  -26.2220  -29.2200   19.9770 C   0  0  0  0  0  0  0  0  0  0  0  0
  -27.4480  -28.5310   19.7970 C   0  0  0  0  0  3  0  0  0  0  0  0
  -26.2990  -26.8920   18.4190 C   0  0  0  0  0  3  0  0  0  0  0  0
  -25.0850  -27.5770   18.5960 C   0  0  0  0  0  3  0  0  0  0  0  0
  -23.7760  -29.5180   19.6180 C   0  0  0  0  0  2  0  0  0  0  0  0
  -24.8870  -30.5610   21.6420 N   0  0  0  0  0  0  0  0  0  0  0  0
  -23.8020  -31.3350   23.4770 O   0  0  0  0  0  0  0  0  0  0  0  0
  -23.0700  -28.8020   21.9270 C   0  0  0  0  0  0  0  0  0  0  0  0
  -21.7640  -28.5250   21.7910 N   0  0  0  0  0  0  0  0  0  0  0  0
  -23.8170  -28.1440   22.6570 O   0  0  0  0  0  0  0  0  0  0  0  0
  -21.2160  -29.1170   21.1810 H   0  0  0  0  0  0  0  0  0  0  0  0
  -18.5210  -26.9600   22.1220 C   0  0  0  0  0  0  0  0  0  0  0  0
  -21.0400  -27.4390   22.4530 C   0  0  0  0  0  3  0  0  0  0  0  0
  -21.2850  -26.0900   21.7380 C   0  0  0  0  0  2  0  0  0  0  0  0
  -20.2240  -25.7660   20.6820 C   0  0  0  0  0  2  0  0  0  0  0  0
  -18.8320  -25.7090   21.3180 C   0  0  0  0  0  2  0  0  0  0  0  0
  -19.5580  -27.7810   22.6410 C   0  0  0  0  0  0  0  0  0  0  0  0
  -19.2130  -28.9510   23.3520 C   0  0  0  0  0  3  0  0  0  0  0  0
  -17.8640  -29.3040   23.5470 C   0  0  0  0  0  3  0  0  0  0  0  0
  -16.8430  -28.4810   23.0430 C   0  0  0  0  0  3  0  0  0  0  0  0
  -17.1720  -27.3100   22.3370 C   0  0  0  0  0  3  0  0  0  0  0  0
  -26.1520  -31.8010   23.4810 C   0  0  0  0  0  3  0  0  0  0  0  0
  -25.8170  -33.1470   23.9680 N   0  0  0  0  0  0  0  0  0  0  0  0
  -26.0870  -34.2820   23.3110 C   0  0  0  0  0  0  0  0  0  0  0  0
  -26.7170  -34.3070   22.2480 O   0  0  0  0  0  0  0  0  0  0  0  0
  -25.2520  -33.1980   24.8040 H   0  0  0  0  0  0  0  0  0  0  0  0
  -24.2910  -36.0410   23.2140 C   0  0  0  0  0  1  0  0  0  0  0  0
  -25.5800  -35.5990   23.9270 C   0  0  0  0  0  3  0  0  0  0  0  0
  -27.7220  -36.4690   24.7540 C   0  0  0  0  0  1  0  0  0  0  0  0
  -26.5720  -36.6930   23.8790 N   0  0  0  0  0  0  0  0  0  0  0  0
  -26.1450  -37.5780   24.1400 H   0  0  0  0  0  0  0  0  0  0  0  0
  -26.7460  -30.9160   24.6460 C   0  0  1  0  0  0  0  0  0  0  0  0
  -25.7030  -30.5040   25.7100 C   0  0  0  0  0  1  0  0  0  0  0  0
  -27.3750  -29.6220   24.0790 C   0  0  0  0  0  1  0  0  0  0  0  0
  -27.8820  -31.6850   25.3600 C   0  0  0  0  0  1  0  0  0  0  0  0
  1  2  1  0
  3  5  1  0
  3  4  2  0
  4  6  1  0
  5  1  2  0
  6  2  2  0
  6  7  1  0
  7  8  1  0
  9  7  1  0
 10 11  2  0
 10  4  1  0
 12 18  1  0
 12 11  1  0
 13 18  1  0
 14 15  1  0
 14 13  1  0
 16 15  1  0
 16 23  1  0
 16 17  1  0
 18 17  1  0
 19 12  2  0
 20 45  1  0
 20 21  2  0
 21 40  1  0
 22 25  1  0
 22 21  1  0
 23 24  1  0
 23 20  1  0
 24 22  2  0
 25 26  1  0
 26 27  2  0
 28 31  1  0
 28 27  1  0
 29 28  2  0
 30 29  1  0
 30 25  2  0
 31 32  1  0
 32 33  1  0
 33 34  2  0
 35 34  1  0
 35 39  1  0
 36 35  2  0
 37 32  2  0
 37 36  1  0
 38 37  1  0
 40 41  1  0
 41 43  1  0
 41 44  1  0
 42 40  2  0
 45 46  1  0
 47 45  1  0
 49 48  2  0
 49  5  1  0
 51 50  1  0
 51 48  1  0
 52 51  1  0
 53 52  1  0
 53 55  1  0
 54 65  2  0
 55 60  1  0
 56 64  1  0
 56 66  1  0
 57 63  1  0
 57 59  1  0
 58 64  1  0
 59 58  1  0
 60 59  2  0
 61 62  1  0
 61 55  2  0
 62 57  2  0
 63 56  1  0
 64 54  1  0
 66 68  2  0
 67 66  1  0
 69 67  1  0
 70 79  2  0
 70 75  1  0
 71 67  1  0
 71 75  1  0
 72 71  1  0
 73 74  1  0
 73 72  1  0
 74 70  1  0
 75 76  2  0
 76 77  1  0
 78 77  2  0
 79 78  1  0
 80 54  1  0
 80 81  1  0
 80 90  1  0
 81 84  1  0
 82 86  1  0
 82 81  1  0
 83 82  2  0
 86 85  1  0
 88 86  1  0
 88 89  1  0
 88 87  1  0
 90 93  1  1
 90 91  1  0
 92 90  1  0
M  ISO  4  11 100  12 100  52 101  53 101
M  END
>  <TORSDO>  (10) 
F 21

>  <SCORE>  (10) 
-6.238

>  <name>  (10) 
9

>  <ligand_id>  (10) 
9

>  <original_smiles>  (10) 
[H]C(=Nc1c([H])c([H])c(N([H])[H])c(C([H])=C([H])C(=O)N2C([H])([H])C([H])([H])C([H])([H])C([H])(n3nc(-c4c([H])c([H])c(Oc5c([H])c([H])c(F)c([H])c5F)c([H])c4[H])c(C(=O)N([H])[H])c3N([H])[H])C2([H])[H])c1[H])C([H])(C([H])([H])[H])C([H])([H])Oc1c([H])c([H])c2c(c1[H])C([H])([H])N(C(=O)C([H])(N([H])C(=O)C([H])(N([H])C([H])([H])[H])C([H])([H])[H])C(C([H])([H])[H])(C([H])([H])[H])C([H])([H])[H])C([H])(C(=O)N([H])C1([H])c3c([H])c([H])c([H])c([H])c3C([H])([H])C([H])([H])C1([H])[H])C2([H])[H]

>  <smiles>  (10) 
[H]C(=Nc1c([H])c([H])c(N([H])[H])c(C([H])=C([H])C(=O)N2C([H])([H])C([H])([H])C([H])([H])C([H])(n3nc(-c4c([H])c([H])c(Oc5c([H])c([H])c(F)c([H])c5F)c([H])c4[H])c(C(=O)N([H])[H])c3N([H])[H])C2([H])[H])c1[H])C([H])(C([H])([H])[H])C([H])([H])Oc1c([H])c([H])c2c(c1[H])C([H])([H])N(C(=O)C([H])(N([H])C(=O)C([H])(N([H])C([H])([H])[H])C([H])([H])[H])C(C([H])([H])[H])(C([H])([H])[H])C([H])([H])[H])C([H])(C(=O)N([H])C1([H])c3c([H])c([H])c([H])c([H])c3C([H])([H])C([H])([H])C1([H])[H])C2([H])[H]

$$$$
10:0:0
     RDKit          3D

 96104  0  0  1  0  0  0  0  0999 V2000
  -30.6300  -14.7830   20.4450 C   0  0  0  0  0  0  0  0  0  0  0  0
  -30.3950  -12.5090   19.4440 C   0  0  0  0  0  2  0  0  0  0  0  0
  -29.4830  -12.5950   18.2010 C   0  0  0  0  0  2  0  0  0  0  0  0
  -28.0060  -12.4290   18.6060 C   0  0  0  0  0  2  0  0  0  0  0  0
  -27.6150  -13.3130   19.8220 C   0  0  0  0  0  3  0  0  0  0  0  0
  -28.6600  -13.2370   20.9580 C   0  0  0  0  0  2  0  0  0  0  0  0
  -29.9660  -13.5740   20.3820 N   0  0  0  0  0  0  0  0  0  0  0  0
  -31.8330  -14.7980   20.1670 O   0  0  0  0  0  0  0  0  0  0  0  0
  -31.1390  -17.5320   19.1620 C   0  0  0  0  0  3  0  0  0  0  0  0
  -30.9330  -19.9700   19.2270 C   0  0  0  0  0  0  0  0  0  0  0  0
  -31.5040  -18.7980   18.6910 C   0  0  0  0  0  0  0  0  0  0  0  0
  -30.2180  -17.3710   20.2160 C   0  0  0  0  0  0  0  0  0  0  0  0
  -29.9470  -19.8330   20.2440 C   0  0  0  0  0  0  0  0  0  0  0  0
  -29.6300  -18.5480   20.7100 N   0  0  0  0  0  0  0  0  0  0  0  0
  -29.9150  -15.9670   20.6410 N   0  0  0  0  0  0  0  0  0  0  0  0
  -32.4480  -18.8630   17.7190 F   0  0  0  0  0  0  0  0  0  0  0  0
  -28.9950  -15.8390   21.0300 H   0  0  0  0  0  0  0  0  0  0  0  0
  -25.2150  -13.8990   20.5040 C   0  0  0  0  0  0  0  0  0  0  0  0
  -24.1460  -13.1250   20.8640 C   0  0  0  0  0  0  0  0  0  0  0  0
  -24.6150  -11.7760   20.8570 C   0  0  0  0  0  0  0  0  0  0  0  0
  -26.2660  -13.0210   20.2960 N   0  0  0  0  0  0  0  0  0  0  0  0
  -25.9120  -11.7400   20.5730 N   0  0  0  0  0  0  0  0  0  0  0  0
  -23.8880  -10.5120   21.0480 C   0  0  0  0  0  0  0  0  0  0  0  0
  -24.3150   -9.5480   21.9860 C   0  0  0  0  0  3  0  0  0  0  0  0
  -23.5860   -8.3520   22.1650 C   0  0  0  0  0  3  0  0  0  0  0  0
  -22.4150   -8.1130   21.4080 C   0  0  0  0  0  0  0  0  0  0  0  0
  -22.0070   -9.0670   20.4590 C   0  0  0  0  0  3  0  0  0  0  0  0
  -22.7370  -10.2540   20.2770 C   0  0  0  0  0  3  0  0  0  0  0  0
  -21.6580   -6.9700   21.4970 O   0  0  0  0  0  0  0  0  0  0  0  0
  -21.6130   -6.2240   22.6470 C   0  0  0  0  0  0  0  0  0  0  0  0
  -21.2050   -6.7790   23.8800 C   0  0  0  0  0  3  0  0  0  0  0  0
  -21.1080   -5.9600   25.0220 C   0  0  0  0  0  3  0  0  0  0  0  0
  -21.4060   -4.5870   24.9330 C   0  0  0  0  0  0  0  0  0  0  0  0
  -21.8050   -4.0320   23.7050 C   0  0  0  0  0  3  0  0  0  0  0  0
  -21.9060   -4.8480   22.5650 C   0  0  0  0  0  0  0  0  0  0  0  0
  -22.2710   -4.3050   21.3790 F   0  0  0  0  0  0  0  0  0  0  0  0
  -21.3040   -3.7980   26.0290 F   0  0  0  0  0  0  0  0  0  0  0  0
  -22.7430  -13.6010   21.1030 C   0  0  0  0  0  0  0  0  0  0  0  0
  -22.0000  -12.9160   21.9650 N   0  0  0  0  0  0  0  0  0  0  0  0
  -22.3120  -14.6170   20.5600 O   0  0  0  0  0  0  0  0  0  0  0  0
  -22.3600  -12.0940   22.4280 H   0  0  0  0  0  0  0  0  0  0  0  0
  -21.0580  -13.2180   22.1670 H   0  0  0  0  0  0  0  0  0  0  0  0
  -25.3730  -15.2690   20.3130 N   0  0  0  0  0  0  0  0  0  0  0  0
  -24.5930  -15.9130   20.3970 H   0  0  0  0  0  0  0  0  0  0  0  0
  -26.2150  -15.7150   19.9730 H   0  0  0  0  0  0  0  0  0  0  0  0
  -31.4980  -21.2600   18.7480 C   0  0  0  0  0  0  0  0  0  0  0  0
  -32.0360  -22.0920   19.4860 O   0  0  0  0  0  0  0  0  0  0  0  0
  -31.1550  -23.0250   16.9190 C   0  0  0  0  0  1  0  0  0  0  0  0
  -31.3640  -21.5390   17.2490 C   0  0  0  0  0  2  0  0  0  0  0  0
  -29.3060  -20.9890   20.8430 N   0  0  0  0  0  0  0  0  0  0  0  0
  -28.8400  -20.8060   21.7260 H   0  0  0  0  0  0  0  0  0  0  0  0
  -28.7220  -22.1960   20.1090 C   0  0  0  0  0  2  0  0  0  0  0  0
  -28.9240  -23.7080   20.6260 C   0  0  0  0  0  0  0  0  0  0  0  0
  -29.8020  -23.9540   21.4590 O   0  0  0  0  0  0  0  0  0  0  0  0
  -27.9760  -24.8850   20.0830 C   0  0  0  0  0  2  0  0  0  0  0  0
  -28.2730  -26.3390   20.3790 O   0  0  0  0  0  0  0  0  0  0  0  0
  -24.6070  -31.9240   23.2530 C   0  0  0  0  0  0  0  0  0  0  0  0
  -27.2020  -27.2660   20.2750 C   0  0  0  0  0  0  0  0  0  0  0  0
  -23.4100  -30.5170   21.6200 C   0  0  0  0  0  3  0  0  0  0  0  0
  -24.8610  -28.9450   20.2170 C   0  0  0  0  0  0  0  0  0  0  0  0
  -25.9570  -30.8040   21.4570 C   0  0  0  0  0  2  0  0  0  0  0  0
  -26.0330  -29.4140   20.8250 C   0  0  0  0  0  0  0  0  0  0  0  0
  -27.2040  -28.5860   20.8470 C   0  0  0  0  0  3  0  0  0  0  0  0
  -26.0090  -26.8810   19.6180 C   0  0  0  0  0  3  0  0  0  0  0  0
  -24.8570  -27.6860   19.6010 C   0  0  0  0  0  3  0  0  0  0  0  0
  -23.6330  -29.8330   20.2470 C   0  0  0  0  0  2  0  0  0  0  0  0
  -24.6770  -31.1010   22.1660 N   0  0  0  0  0  0  0  0  0  0  0  0
  -23.5200  -32.2150   23.7740 O   0  0  0  0  0  0  0  0  0  0  0  0
  -22.7320  -29.5130   22.5850 C   0  0  0  0  0  0  0  0  0  0  0  0
  -21.4040  -29.3450   22.4550 N   0  0  0  0  0  0  0  0  0  0  0  0
  -23.4010  -28.8880   23.4120 O   0  0  0  0  0  0  0  0  0  0  0  0
  -20.9230  -29.9050   21.7660 H   0  0  0  0  0  0  0  0  0  0  0  0
  -18.0140  -28.1740   22.9500 C   0  0  0  0  0  0  0  0  0  0  0  0
  -20.5740  -28.4200   23.2290 C   0  0  0  0  0  3  0  0  0  0  0  0
  -20.6670  -26.9810   22.6680 C   0  0  0  0  0  2  0  0  0  0  0  0
  -19.5690  -26.6570   21.6520 C   0  0  0  0  0  2  0  0  0  0  0  0
  -18.1850  -26.8170   22.2870 C   0  0  0  0  0  2  0  0  0  0  0  0
  -19.1370  -28.9320   23.3770 C   0  0  0  0  0  0  0  0  0  0  0  0
  -18.9230  -30.2020   23.9580 C   0  0  0  0  0  3  0  0  0  0  0  0
  -17.6210  -30.7130   24.1120 C   0  0  0  0  0  3  0  0  0  0  0  0
  -16.5140  -29.9520   23.7000 C   0  0  0  0  0  3  0  0  0  0  0  0
  -16.7110  -28.6850   23.1250 C   0  0  0  0  0  3  0  0  0  0  0  0
  -25.8860  -32.5590   23.8790 C   0  0  0  0  0  3  0  0  0  0  0  0
  -25.5770  -33.9610   24.2000 N   0  0  0  0  0  0  0  0  0  0  0  0
  -25.9110  -35.0100   23.4360 C   0  0  0  0  0  0  0  0  0  0  0  0
  -26.5820  -34.9000   22.4080 O   0  0  0  0  0  0  0  0  0  0  0  0
  -24.9800  -34.1180   24.9990 H   0  0  0  0  0  0  0  0  0  0  0  0
  -24.1840  -36.8050   23.0730 C   0  0  0  0  0  1  0  0  0  0  0  0
  -25.4250  -36.4020   23.8870 C   0  0  0  0  0  3  0  0  0  0  0  0
  -27.5600  -37.2880   24.7130 C   0  0  0  0  0  1  0  0  0  0  0  0
  -26.4580  -37.4540   23.7700 N   0  0  0  0  0  0  0  0  0  0  0  0
  -26.0530  -38.3740   23.9140 H   0  0  0  0  0  0  0  0  0  0  0  0
  -26.3920  -31.7950   25.1630 C   0  0  1  0  0  0  0  0  0  0  0  0
  -25.2920  -31.5690   26.2270 C   0  0  0  0  0  1  0  0  0  0  0  0
  -26.9700  -30.4110   24.7850 C   0  0  0  0  0  1  0  0  0  0  0  0
  -27.5410  -32.5880   25.8280 C   0  0  0  0  0  1  0  0  0  0  0  0
  1 15  1  0
  2  7  1  0
  3  4  1  0
  3  2  1  0
  5  4  1  0
  5 21  1  0
  5  6  1  0
  7  1  1  0
  7  6  1  0
  8  1  2  0
  9 12  1  0
 10 13  2  0
 11  9  2  0
 11 10  1  0
 12 15  1  0
 12 14  2  0
 13 14  1  0
 13 50  1  0
 15 17  1  0
 16 11  1  0
 18 19  2  0
 19 38  1  0
 20 19  1  0
 20 23  1  0
 21 18  1  0
 21 22  1  0
 22 20  2  0
 23 24  1  0
 24 25  2  0
 26 29  1  0
 26 25  1  0
 27 26  2  0
 28 27  1  0
 28 23  2  0
 29 30  1  0
 30 31  1  0
 31 32  2  0
 33 32  1  0
 33 37  1  0
 34 33  2  0
 35 30  2  0
 35 34  1  0
 36 35  1  0
 38 39  1  0
 39 42  1  0
 39 41  1  0
 40 38  2  0
 43 44  1  0
 43 18  1  0
 45 43  1  0
 46 10  1  0
 46 47  2  0
 48 49  1  0
 49 46  1  0
 50 51  1  0
 52 53  1  0
 52 50  1  0
 53 54  2  0
 55 56  1  0
 55 53  1  0
 57 68  2  0
 58 56  1  0
 58 63  1  0
 59 67  1  0
 59 69  1  0
 60 66  1  0
 60 62  1  0
 61 67  1  0
 62 63  2  0
 62 61  1  0
 64 58  2  0
 65 64  1  0
 65 60  2  0
 66 59  1  0
 67 57  1  0
 69 71  2  0
 70 69  1  0
 72 70  1  0
 73 82  2  0
 73 78  1  0
 74 70  1  0
 74 78  1  0
 75 74  1  0
 76 77  1  0
 76 75  1  0
 77 73  1  0
 78 79  2  0
 79 80  1  0
 81 80  2  0
 82 81  1  0
 83 57  1  0
 83 84  1  0
 83 93  1  0
 84 87  1  0
 85 89  1  0
 85 84  1  0
 86 85  2  0
 89 88  1  0
 91 89  1  0
 91 92  1  0
 91 90  1  0
 93 96  1  1
 93 94  1  0
 95 93  1  0
M  ISO  4   1 100  15 100  55 101  56 101
M  END
>  <TORSDO>  (11) 
F 21

>  <SCORE>  (11) 
-13.648

>  <name>  (11) 
10

>  <ligand_id>  (11) 
10

>  <original_smiles>  (11) 
[H]c1c([H])c([H])c2c(c1[H])C([H])([H])C([H])([H])C([H])([H])C2([H])N([H])C(=O)C1([H])N(C(=O)C([H])(N([H])C(=O)C([H])(N([H])C([H])([H])[H])C([H])([H])[H])C(C([H])([H])[H])(C([H])([H])[H])C([H])([H])[H])C([H])([H])c2c([H])c(OC([H])([H])C(=O)C([H])([H])N([H])c3nc(N([H])C(=O)N4C([H])([H])C([H])([H])C([H])([H])C([H])(n5nc(-c6c([H])c([H])c(Oc7c([H])c([H])c(F)c([H])c7F)c([H])c6[H])c(C(=O)N([H])[H])c5N([H])[H])C4([H])[H])c([H])c(F)c3C(=O)C([H])([H])C([H])([H])[H])c([H])c([H])c2C1([H])[H]

>  <smiles>  (11) 
[H]c1c([H])c([H])c2c(c1[H])C([H])([H])C([H])([H])C([H])([H])C2([H])N([H])C(=O)C1([H])N(C(=O)C([H])(N([H])C(=O)C([H])(N([H])C([H])([H])[H])C([H])([H])[H])C(C([H])([H])[H])(C([H])([H])[H])C([H])([H])[H])C([H])([H])c2c([H])c(OC([H])([H])C(=O)C([H])([H])N([H])c3nc(N([H])C(=O)N4C([H])([H])C([H])([H])C([H])([H])C([H])(n5nc(-c6c([H])c([H])c(Oc7c([H])c([H])c(F)c([H])c7F)c([H])c6[H])c(C(=O)N([H])[H])c5N([H])[H])C4([H])[H])c([H])c(F)c3C(=O)C([H])([H])C([H])([H])[H])c([H])c([H])c2C1([H])[H]

$$$$
11:0:0
     RDKit          3D

 99107  0  0  1  0  0  0  0  0999 V2000
  -28.5000  -22.6260   20.7370 C   0  0  0  0  0  3  0  0  0  0  0  0
  -28.3840  -21.3220   21.0610 C   0  0  0  0  0  0  0  0  0  0  0  0
  -28.7290  -23.6830   21.7430 C   0  0  0  0  0  0  0  0  0  0  0  0
  -29.4170  -23.4620   22.7450 O   0  0  0  0  0  0  0  0  0  0  0  0
  -28.6580  -26.0470   22.6030 C   0  0  0  0  0  1  0  0  0  0  0  0
  -26.5660  -24.9190   21.8160 C   0  0  0  0  0  1  0  0  0  0  0  0
  -28.0750  -25.0740   21.5460 C   0  0  2  0  0  0  0  0  0  0  0  0
  -28.3680  -25.5780   20.0940 C   0  0  0  0  0  2  0  0  0  0  0  0
  -28.3740  -26.9960   19.9350 O   0  0  0  0  0  0  0  0  0  0  0  0
  -24.6110  -32.0010   23.2330 C   0  0  0  0  0  0  0  0  0  0  0  0
  -27.1770  -27.6670   19.9740 C   0  0  0  0  0  0  0  0  0  0  0  0
  -23.3610  -30.6200   21.6050 C   0  0  0  0  0  3  0  0  0  0  0  0
  -24.7740  -29.1370   20.0990 C   0  0  0  0  0  0  0  0  0  0  0  0
  -25.8750  -31.0170   21.3250 C   0  0  0  0  0  2  0  0  0  0  0  0
  -25.9450  -29.6640   20.6540 C   0  0  0  0  0  0  0  0  0  0  0  0
  -27.1500  -28.9330   20.5910 C   0  0  0  0  0  3  0  0  0  0  0  0
  -25.9890  -27.1490   19.4090 C   0  0  0  0  0  3  0  0  0  0  0  0
  -24.7880  -27.8760   19.4810 C   0  0  0  0  0  3  0  0  0  0  0  0
  -23.5240  -29.9760   20.2040 C   0  0  0  0  0  2  0  0  0  0  0  0
  -24.6350  -31.2270   22.1120 N   0  0  0  0  0  0  0  0  0  0  0  0
  -23.5460  -32.2600   23.8090 O   0  0  0  0  0  0  0  0  0  0  0  0
  -22.7580  -29.5700   22.5620 C   0  0  0  0  0  0  0  0  0  0  0  0
  -21.4370  -29.3640   22.4520 N   0  0  0  0  0  0  0  0  0  0  0  0
  -23.4700  -28.9460   23.3520 O   0  0  0  0  0  0  0  0  0  0  0  0
  -20.9340  -29.9140   21.7710 H   0  0  0  0  0  0  0  0  0  0  0  0
  -18.0960  -28.0870   22.9600 C   0  0  0  0  0  0  0  0  0  0  0  0
  -20.6480  -28.4020   23.2190 C   0  0  0  0  0  3  0  0  0  0  0  0
  -20.7820  -26.9800   22.6290 C   0  0  0  0  0  2  0  0  0  0  0  0
  -19.6810  -26.6360   21.6230 C   0  0  0  0  0  2  0  0  0  0  0  0
  -18.3010  -26.7460   22.2780 C   0  0  0  0  0  2  0  0  0  0  0  0
  -19.1990  -28.8730   23.3870 C   0  0  0  0  0  0  0  0  0  0  0  0
  -18.9540  -30.1270   23.9890 C   0  0  0  0  0  3  0  0  0  0  0  0
  -17.6400  -30.5930   24.1720 C   0  0  0  0  0  3  0  0  0  0  0  0
  -16.5510  -29.8030   23.7640 C   0  0  0  0  0  3  0  0  0  0  0  0
  -16.7820  -28.5530   23.1620 C   0  0  0  0  0  3  0  0  0  0  0  0
  -25.9130  -32.6240   23.8290 C   0  0  0  0  0  3  0  0  0  0  0  0
  -25.6210  -34.0240   24.1650 N   0  0  0  0  0  0  0  0  0  0  0  0
  -25.9420  -35.0720   23.3950 C   0  0  0  0  0  0  0  0  0  0  0  0
  -26.5900  -34.9650   22.3500 O   0  0  0  0  0  0  0  0  0  0  0  0
  -25.0460  -34.1940   24.9760 H   0  0  0  0  0  0  0  0  0  0  0  0
  -24.2170  -36.8710   23.0710 C   0  0  0  0  0  1  0  0  0  0  0  0
  -25.4660  -36.4590   23.8620 C   0  0  0  0  0  3  0  0  0  0  0  0
  -27.6120  -37.3300   24.6680 C   0  0  0  0  0  1  0  0  0  0  0  0
  -26.5010  -37.5040   23.7390 N   0  0  0  0  0  0  0  0  0  0  0  0
  -26.1000  -38.4250   23.8940 H   0  0  0  0  0  0  0  0  0  0  0  0
  -26.4630  -31.8470   25.0890 C   0  0  1  0  0  0  0  0  0  0  0  0
  -25.3930  -31.5910   26.1750 C   0  0  0  0  0  1  0  0  0  0  0  0
  -27.0450  -30.4770   24.6690 C   0  0  0  0  0  1  0  0  0  0  0  0
  -27.6280  -32.6450   25.7280 C   0  0  0  0  0  1  0  0  0  0  0  0
  -28.3610  -20.8450   22.3200 O   0  0  0  0  0  0  0  0  0  0  0  0
  -28.4800  -21.5830   22.9080 H   0  0  0  0  0  0  0  0  0  0  0  0
  -28.2790  -20.1800   20.0640 C   0  0  0  0  0  2  0  0  0  0  0  0
  -30.9630  -14.6770   20.0260 C   0  0  0  0  0  0  0  0  0  0  0  0
  -30.6140  -12.5180   18.9210 C   0  0  0  0  0  2  0  0  0  0  0  0
  -29.6090  -12.7300   17.7700 C   0  0  0  0  0  2  0  0  0  0  0  0
  -28.1600  -12.5920   18.2760 C   0  0  0  0  0  2  0  0  0  0  0  0
  -27.8900  -13.4230   19.5590 C   0  0  0  0  0  3  0  0  0  0  0  0
  -29.0040  -13.2030   20.6080 C   0  0  0  0  0  2  0  0  0  0  0  0
  -30.2960  -13.4980   19.9650 N   0  0  0  0  0  0  0  0  0  0  0  0
  -32.0670  -14.8420   19.4950 O   0  0  0  0  0  0  0  0  0  0  0  0
  -29.3430  -17.8780   20.3060 C   0  0  0  0  0  3  0  0  0  0  0  0
  -30.7940  -19.7910   20.0070 C   0  0  0  0  0  3  0  0  0  0  0  0
  -29.4910  -19.2630   20.1140 C   0  0  0  0  0  0  0  0  0  0  0  0
  -30.4910  -17.0650   20.3990 C   0  0  0  0  0  0  0  0  0  0  0  0
  -31.8850  -18.9260   20.1540 C   0  0  0  0  0  0  0  0  0  0  0  0
  -31.7330  -17.6050   20.3580 N   0  0  0  0  0  0  0  0  0  0  0  0
  -30.2540  -15.6830   20.5570 N   0  0  0  0  0  0  0  0  0  0  0  0
  -29.3330  -15.4300   20.8740 H   0  0  0  0  0  0  0  0  0  0  0  0
  -25.5360  -14.0180   20.4100 C   0  0  0  0  0  0  0  0  0  0  0  0
  -24.4910  -13.2350   20.8260 C   0  0  0  0  0  0  0  0  0  0  0  0
  -24.9490  -11.8870   20.7340 C   0  0  0  0  0  0  0  0  0  0  0  0
  -26.5660  -13.1420   20.1060 N   0  0  0  0  0  0  0  0  0  0  0  0
  -26.2180  -11.8540   20.3530 N   0  0  0  0  0  0  0  0  0  0  0  0
  -24.2340  -10.6190   20.9320 C   0  0  0  0  0  0  0  0  0  0  0  0
  -24.6540   -9.6800   21.8970 C   0  0  0  0  0  3  0  0  0  0  0  0
  -23.9400   -8.4760   22.0820 C   0  0  0  0  0  3  0  0  0  0  0  0
  -22.7940   -8.2040   21.2970 C   0  0  0  0  0  0  0  0  0  0  0  0
  -22.3960   -9.1340   20.3190 C   0  0  0  0  0  3  0  0  0  0  0  0
  -23.1100  -10.3290   20.1360 C   0  0  0  0  0  3  0  0  0  0  0  0
  -22.0520   -7.0510   21.3900 O   0  0  0  0  0  0  0  0  0  0  0  0
  -21.8830   -6.3990   22.5840 C   0  0  0  0  0  0  0  0  0  0  0  0
  -21.2920   -7.0300   23.7010 C   0  0  0  0  0  3  0  0  0  0  0  0
  -21.0750   -6.3020   24.8880 C   0  0  0  0  0  3  0  0  0  0  0  0
  -21.4360   -4.9420   24.9560 C   0  0  0  0  0  0  0  0  0  0  0  0
  -22.0170   -4.3110   23.8420 C   0  0  0  0  0  3  0  0  0  0  0  0
  -22.2380   -5.0370   22.6590 C   0  0  0  0  0  0  0  0  0  0  0  0
  -22.7790   -4.4190   21.5830 F   0  0  0  0  0  0  0  0  0  0  0  0
  -21.2200   -4.2380   26.0920 F   0  0  0  0  0  0  0  0  0  0  0  0
  -23.1130  -13.7060   21.1920 C   0  0  0  0  0  0  0  0  0  0  0  0
  -22.4490  -12.9950   22.0980 N   0  0  0  0  0  0  0  0  0  0  0  0
  -22.6360  -14.7340   20.7150 O   0  0  0  0  0  0  0  0  0  0  0  0
  -22.8540  -12.1630   22.5020 H   0  0  0  0  0  0  0  0  0  0  0  0
  -21.5260  -13.2820   22.3890 H   0  0  0  0  0  0  0  0  0  0  0  0
  -25.6850  -15.3910   20.2470 N   0  0  0  0  0  0  0  0  0  0  0  0
  -24.9030  -16.0210   20.3820 H   0  0  0  0  0  0  0  0  0  0  0  0
  -26.4710  -15.8310   19.7870 H   0  0  0  0  0  0  0  0  0  0  0  0
  -34.3000  -18.6680   20.6230 C   0  0  0  0  0  1  0  0  0  0  0  0
  -33.1830  -19.4370   20.0870 N   0  0  0  0  0  0  0  0  0  0  0  0
  -33.3000  -20.4420   20.0050 H   0  0  0  0  0  0  0  0  0  0  0  0
  1  2  2  0
  1  3  1  0
  2 50  1  0
  3  4  2  0
  7  3  1  0
  7  6  1  1
  7  5  1  0
  8  7  1  0
  9 11  1  0
  9  8  1  0
 10 21  2  0
 11 16  1  0
 12 20  1  0
 12 22  1  0
 13 19  1  0
 13 15  1  0
 14 20  1  0
 15 14  1  0
 16 15  2  0
 17 18  1  0
 17 11  2  0
 18 13  2  0
 19 12  1  0
 20 10  1  0
 22 24  2  0
 23 22  1  0
 25 23  1  0
 26 35  2  0
 26 31  1  0
 27 23  1  0
 27 31  1  0
 28 27  1  0
 29 30  1  0
 29 28  1  0
 30 26  1  0
 31 32  2  0
 32 33  1  0
 34 33  2  0
 35 34  1  0
 36 10  1  0
 36 37  1  0
 36 46  1  0
 37 40  1  0
 38 42  1  0
 38 37  1  0
 39 38  2  0
 42 41  1  0
 44 42  1  0
 44 45  1  0
 44 43  1  0
 46 49  1  1
 46 47  1  0
 48 46  1  0
 50 51  1  0
 52 63  1  0
 52  2  1  0
 53 67  1  0
 54 59  1  0
 55 56  1  0
 55 54  1  0
 57 56  1  0
 57 72  1  0
 57 58  1  0
 59 53  1  0
 59 58  1  0
 60 53  2  0
 61 64  1  0
 62 63  1  0
 62 65  2  0
 63 61  2  0
 64 67  1  0
 65 66  1  0
 66 64  2  0
 67 68  1  0
 69 70  2  0
 70 89  1  0
 71 70  1  0
 71 74  1  0
 72 73  1  0
 72 69  1  0
 73 71  2  0
 74 75  1  0
 75 76  2  0
 77 80  1  0
 77 76  1  0
 78 77  2  0
 79 78  1  0
 79 74  2  0
 80 81  1  0
 81 86  2  0
 81 82  1  0
 82 83  2  0
 83 84  1  0
 84 88  1  0
 85 84  2  0
 86 85  1  0
 87 86  1  0
 89 90  1  0
 90 93  1  0
 90 92  1  0
 91 89  2  0
 94 95  1  0
 94 69  1  0
 96 94  1  0
 98 65  1  0
 98 97  1  0
 99 98  1  0
M  ISO  4   8 101   9 101  53 100  67 100
M  END
>  <TORSDO>  (12) 
F 22

>  <SCORE>  (12) 
-12.688

>  <name>  (12) 
11

>  <ligand_id>  (12) 
11

>  <original_smiles>  (12) 
[H]OC(=C([H])C(=O)C(C([H])([H])[H])(C([H])([H])[H])C([H])([H])Oc1c([H])c([H])c2c(c1[H])C([H])([H])N(C(=O)C([H])(N([H])C(=O)C([H])(N([H])C([H])([H])[H])C([H])([H])[H])C(C([H])([H])[H])(C([H])([H])[H])C([H])([H])[H])C([H])(C(=O)N([H])C1([H])c3c([H])c([H])c([H])c([H])c3C([H])([H])C([H])([H])C1([H])[H])C2([H])[H])C([H])([H])c1c([H])c(N([H])C(=O)N2C([H])([H])C([H])([H])C([H])([H])C([H])(n3nc(-c4c([H])c([H])c(Oc5c([H])c([H])c(F)c([H])c5F)c([H])c4[H])c(C(=O)N([H])[H])c3N([H])[H])C2([H])[H])nc(N([H])C([H])([H])[H])c1[H]

>  <smiles>  (12) 
[H]OC(=C([H])C(=O)C(C([H])([H])[H])(C([H])([H])[H])C([H])([H])Oc1c([H])c([H])c2c(c1[H])C([H])([H])N(C(=O)C([H])(N([H])C(=O)C([H])(N([H])C([H])([H])[H])C([H])([H])[H])C(C([H])([H])[H])(C([H])([H])[H])C([H])([H])[H])C([H])(C(=O)N([H])C1([H])c3c([H])c([H])c([H])c([H])c3C([H])([H])C([H])([H])C1([H])[H])C2([H])[H])C([H])([H])c1c([H])c(N([H])C(=O)N2C([H])([H])C([H])([H])C([H])([H])C([H])(n3nc(-c4c([H])c([H])c(Oc5c([H])c([H])c(F)c([H])c5F)c([H])c4[H])c(C(=O)N([H])[H])c3N([H])[H])C2([H])[H])nc(N([H])C([H])([H])[H])c1[H]

$$$$
12:0:0
     RDKit          3D

 95103  0  0  1  0  0  0  0  0999 V2000
  -33.1980  -21.6000   17.4500 C   0  0  0  0  0  0  0  0  0  0  0  0
  -32.9280  -20.3150   18.1070 C   0  0  0  0  0  0  0  0  0  0  0  0
  -33.5120  -19.2160   17.5200 C   0  0  0  0  0  0  0  0  0  0  0  0
  -34.0970  -21.5420   16.3800 C   0  0  0  0  0  0  0  0  0  0  0  0
  -34.5120  -19.8230   16.1530 S   0  0  0  0  0  0  0  0  0  0  0  0
  -32.6340  -22.8860   17.8960 C   0  0  0  0  0  0  0  0  0  0  0  0
  -31.3780  -23.3760   17.1790 C   0  0  0  0  0  1  0  0  0  0  0  0
  -33.1290  -23.6300   18.7510 O   0  0  0  0  0  0  0  0  0  0  0  0
  -32.1570  -20.1870   19.2790 N   0  0  0  0  0  0  0  0  0  0  0  0
  -32.0690  -20.9900   19.8920 H   0  0  0  0  0  0  0  0  0  0  0  0
  -32.2600  -19.3260   19.8030 H   0  0  0  0  0  0  0  0  0  0  0  0
  -34.5450  -22.6880   15.5920 N   0  0  0  0  0  0  0  0  0  0  0  0
  -34.5750  -22.4950   14.5920 H   0  0  0  0  0  0  0  0  0  0  0  0
  -34.7250  -24.1550   15.8850 C   0  0  0  0  0  2  0  0  0  0  0  0
  -33.5700  -25.0800   15.2140 C   0  0  0  0  0  2  0  0  0  0  0  0
  -33.4260  -25.3710   13.7530 O   0  0  0  0  0  0  0  0  0  0  0  0
  -27.1500  -27.4380   10.7570 C   0  0  0  0  0  0  0  0  0  0  0  0
  -32.5350  -26.4010   13.3900 C   0  0  0  0  0  0  0  0  0  0  0  0
  -28.9130  -29.1530   10.9640 C   0  0  0  0  0  3  0  0  0  0  0  0
  -30.8800  -28.5590   12.4900 C   0  0  0  0  0  0  0  0  0  0  0  0
  -28.7820  -27.2210   12.6480 C   0  0  0  0  0  2  0  0  0  0  0  0
  -30.2930  -27.3320   12.8270 C   0  0  0  0  0  0  0  0  0  0  0  0
  -31.1140  -26.2560   13.2940 C   0  0  0  0  0  3  0  0  0  0  0  0
  -33.0700  -27.6700   13.0880 C   0  0  0  0  0  3  0  0  0  0  0  0
  -32.2650  -28.7330   12.6330 C   0  0  0  0  0  3  0  0  0  0  0  0
  -29.9720  -29.6600   11.9770 C   0  0  0  0  0  2  0  0  0  0  0  0
  -28.2490  -27.8920   11.4280 N   0  0  0  0  0  0  0  0  0  0  0  0
  -26.6780  -28.0630    9.7950 O   0  0  0  0  0  0  0  0  0  0  0  0
  -29.5700  -29.0220    9.5680 C   0  0  0  0  0  0  0  0  0  0  0  0
  -29.7670  -30.1600    8.8800 N   0  0  0  0  0  0  0  0  0  0  0  0
  -29.9120  -27.9180    9.1350 O   0  0  0  0  0  0  0  0  0  0  0  0
  -29.4500  -31.0250    9.2960 H   0  0  0  0  0  0  0  0  0  0  0  0
  -30.7930  -32.5060    6.3220 C   0  0  0  0  0  0  0  0  0  0  0  0
  -30.4060  -30.2720    7.5670 C   0  0  0  0  0  3  0  0  0  0  0  0
  -31.9450  -30.1930    7.6910 C   0  0  0  0  0  2  0  0  0  0  0  0
  -32.6120  -31.5660    7.8100 C   0  0  0  0  0  2  0  0  0  0  0  0
  -32.2880  -32.4310    6.5890 C   0  0  0  0  0  2  0  0  0  0  0  0
  -29.9080  -31.5000    6.7950 C   0  0  0  0  0  0  0  0  0  0  0  0
  -28.5250  -31.6350    6.5490 C   0  0  0  0  0  3  0  0  0  0  0  0
  -28.0230  -32.7460    5.8460 C   0  0  0  0  0  3  0  0  0  0  0  0
  -28.9050  -33.7300    5.3660 C   0  0  0  0  0  3  0  0  0  0  0  0
  -30.2860  -33.6060    5.6000 C   0  0  0  0  0  3  0  0  0  0  0  0
  -26.4190  -26.1260   11.1790 C   0  0  0  0  0  3  0  0  0  0  0  0
  -25.0120  -26.4630   11.4400 N   0  0  0  0  0  0  0  0  0  0  0  0
  -24.3200  -26.0610   12.5130 C   0  0  0  0  0  0  0  0  0  0  0  0
  -24.7880  -25.3010   13.3650 O   0  0  0  0  0  0  0  0  0  0  0  0
  -24.5810  -27.1240   10.8100 H   0  0  0  0  0  0  0  0  0  0  0  0
  -22.7340  -27.3100   14.0130 C   0  0  0  0  0  1  0  0  0  0  0  0
  -22.8780  -26.5850   12.6660 C   0  0  0  0  0  3  0  0  0  0  0  0
  -21.7510  -24.9540   11.2180 C   0  0  0  0  0  1  0  0  0  0  0  0
  -21.8520  -25.5260   12.5590 N   0  0  0  0  0  0  0  0  0  0  0  0
  -20.9360  -25.8820   12.8200 H   0  0  0  0  0  0  0  0  0  0  0  0
  -26.5260  -24.9810   10.0970 C   0  0  1  0  0  0  0  0  0  0  0  0
  -25.4380  -25.0620    8.9990 C   0  0  0  0  0  1  0  0  0  0  0  0
  -27.9040  -25.0120    9.3990 C   0  0  0  0  0  1  0  0  0  0  0  0
  -26.4120  -23.6000   10.7850 C   0  0  0  0  0  1  0  0  0  0  0  0
  -33.4900  -17.7040   17.9680 C   0  0  0  0  0  2  0  0  0  0  0  0
  -35.7380  -17.4020   19.2230 C   0  0  0  0  0  0  0  0  0  0  0  0
  -38.2170  -17.6320   19.2990 C   0  0  0  0  0  2  0  0  0  0  0  0
  -38.7350  -17.9300   17.8750 C   0  0  0  0  0  2  0  0  0  0  0  0
  -39.0000  -16.6160   17.1160 C   0  0  0  0  0  2  0  0  0  0  0  0
  -37.8170  -15.6160   17.2240 C   0  0  0  0  0  3  0  0  0  0  0  0
  -37.3070  -15.4760   18.6750 C   0  0  0  0  0  2  0  0  0  0  0  0
  -36.9830  -16.8240   19.1610 N   0  0  0  0  0  0  0  0  0  0  0  0
  -35.5790  -18.4560   19.8440 O   0  0  0  0  0  0  0  0  0  0  0  0
  -34.7350  -16.9330   18.3940 N   0  0  0  0  0  0  0  0  0  0  0  0
  -34.9300  -16.0810   17.8890 H   0  0  0  0  0  0  0  0  0  0  0  0
  -38.9920  -14.0460   15.5710 C   0  0  0  0  0  0  0  0  0  0  0  0
  -39.0280  -12.6820   15.4680 C   0  0  0  0  0  0  0  0  0  0  0  0
  -38.1800  -12.1840   16.5040 C   0  0  0  0  0  0  0  0  0  0  0  0
  -38.1480  -14.3230   16.6340 N   0  0  0  0  0  0  0  0  0  0  0  0
  -37.6110  -13.1900   17.1580 N   0  0  0  0  0  0  0  0  0  0  0  0
  -37.9250  -10.8070   16.9480 C   0  0  0  0  0  0  0  0  0  0  0  0
  -38.9130  -10.0490   17.6140 C   0  0  0  0  0  3  0  0  0  0  0  0
  -38.6350   -8.7340   18.0470 C   0  0  0  0  0  3  0  0  0  0  0  0
  -37.3590   -8.1660   17.8190 C   0  0  0  0  0  0  0  0  0  0  0  0
  -36.3870   -8.9170   17.1340 C   0  0  0  0  0  3  0  0  0  0  0  0
  -36.6670  -10.2230   16.7000 C   0  0  0  0  0  3  0  0  0  0  0  0
  -37.0080   -6.8880   18.1810 O   0  0  0  0  0  0  0  0  0  0  0  0
  -36.5170   -6.6030   19.4300 C   0  0  0  0  0  0  0  0  0  0  0  0
  -35.1560   -6.7880   19.7570 C   0  0  0  0  0  3  0  0  0  0  0  0
  -34.6810   -6.4180   21.0320 C   0  0  0  0  0  3  0  0  0  0  0  0
  -35.5620   -5.8550   21.9750 C   0  0  0  0  0  0  0  0  0  0  0  0
  -36.9160   -5.6650   21.6490 C   0  0  0  0  0  3  0  0  0  0  0  0
  -37.3910   -6.0360   20.3790 C   0  0  0  0  0  0  0  0  0  0  0  0
  -38.6930   -5.8310   20.0640 F   0  0  0  0  0  0  0  0  0  0  0  0
  -35.1040   -5.4920   23.1970 F   0  0  0  0  0  0  0  0  0  0  0  0
  -39.8780  -11.8820   14.5230 C   0  0  0  0  0  0  0  0  0  0  0  0
  -39.4390  -11.7350   13.2780 N   0  0  0  0  0  0  0  0  0  0  0  0
  -40.9660  -11.4240   14.8720 O   0  0  0  0  0  0  0  0  0  0  0  0
  -38.5550  -12.1260   12.9860 H   0  0  0  0  0  0  0  0  0  0  0  0
  -39.9950  -11.2250   12.6060 H   0  0  0  0  0  0  0  0  0  0  0  0
  -39.6220  -15.0690   14.8700 N   0  0  0  0  0  0  0  0  0  0  0  0
  -40.2870  -14.8830   14.1260 H   0  0  0  0  0  0  0  0  0  0  0  0
  -39.5250  -16.0540   15.0750 H   0  0  0  0  0  0  0  0  0  0  0  0
  1  6  1  0
  1  2  1  0
  2  9  1  0
  3 57  1  0
  3  2  2  0
  4  1  2  0
  5  4  1  0
  5  3  1  0
  6  8  2  0
  7  6  1  0
  9 11  1  0
  9 10  1  0
 12 14  1  0
 12  4  1  0
 13 12  1  0
 15 14  1  0
 16 15  1  0
 17 27  1  0
 18 16  1  0
 19 29  1  0
 19 27  1  0
 19 26  1  0
 20 25  2  0
 20 22  1  0
 21 22  1  0
 22 23  2  0
 23 18  1  0
 24 18  2  0
 25 24  1  0
 26 20  1  0
 27 21  1  0
 28 17  2  0
 30 32  1  0
 30 29  1  0
 31 29  2  0
 33 37  1  0
 33 38  1  0
 34 35  1  0
 34 30  1  0
 35 36  1  0
 37 36  1  0
 38 34  1  0
 39 38  2  0
 40 39  1  0
 41 42  1  0
 41 40  2  0
 42 33  2  0
 43 17  1  0
 43 44  1  0
 44 45  1  0
 45 49  1  0
 45 46  2  0
 47 44  1  0
 49 48  1  0
 50 51  1  0
 51 49  1  0
 51 52  1  0
 53 56  1  1
 53 43  1  0
 54 53  1  0
 55 53  1  0
 57 66  1  0
 58 65  2  0
 60 59  1  0
 61 62  1  0
 61 60  1  0
 62 71  1  0
 62 63  1  0
 63 64  1  0
 64 58  1  0
 64 59  1  0
 66 58  1  0
 67 66  1  0
 68 71  1  0
 69 68  2  0
 69 70  1  0
 70 73  1  0
 70 72  2  0
 71 72  1  0
 73 74  1  0
 74 75  2  0
 76 75  1  0
 76 79  1  0
 77 76  2  0
 78 73  2  0
 78 77  1  0
 79 80  1  0
 80 81  2  0
 80 85  1  0
 81 82  1  0
 82 83  2  0
 83 87  1  0
 84 83  1  0
 85 84  2  0
 86 85  1  0
 88 90  2  0
 88 69  1  0
 89 88  1  0
 91 89  1  0
 92 89  1  0
 93 95  1  0
 93 68  1  0
 94 93  1  0
M  ISO  4  15 101  16 101  58 100  66 100
M  END
>  <TORSDO>  (13) 
F 22

>  <SCORE>  (13) 
-3.630

>  <name>  (13) 
12

>  <ligand_id>  (13) 
12

>  <original_smiles>  (13) 
[H]c1c([H])c([H])c2c(c1[H])C([H])([H])C([H])([H])C([H])([H])C2([H])N([H])C(=O)C1([H])N(C(=O)C([H])(N([H])C(=O)C([H])(N([H])C([H])([H])[H])C([H])([H])[H])C(C([H])([H])[H])(C([H])([H])[H])C([H])([H])[H])C([H])([H])c2c([H])c(OC([H])([H])C([H])([H])N([H])c3sc(C([H])([H])N([H])C(=O)N4C([H])([H])C([H])([H])C([H])([H])C([H])(n5nc(-c6c([H])c([H])c(Oc7c([H])c([H])c(F)c([H])c7F)c([H])c6[H])c(C(=O)N([H])[H])c5N([H])[H])C4([H])[H])c(N([H])[H])c3C(=O)C([H])([H])[H])c([H])c([H])c2C1([H])[H]

>  <smiles>  (13) 
[H]c1c([H])c([H])c2c(c1[H])C([H])([H])C([H])([H])C([H])([H])C2([H])N([H])C(=O)C1([H])N(C(=O)C([H])(N([H])C(=O)C([H])(N([H])C([H])([H])[H])C([H])([H])[H])C(C([H])([H])[H])(C([H])([H])[H])C([H])([H])[H])C([H])([H])c2c([H])c(OC([H])([H])C([H])([H])N([H])c3sc(C([H])([H])N([H])C(=O)N4C([H])([H])C([H])([H])C([H])([H])C([H])(n5nc(-c6c([H])c([H])c(Oc7c([H])c([H])c(F)c([H])c7F)c([H])c6[H])c(C(=O)N([H])[H])c5N([H])[H])C4([H])[H])c(N([H])[H])c3C(=O)C([H])([H])[H])c([H])c([H])c2C1([H])[H]

$$$$
13:0:0
     RDKit          3D

 96104  0  0  1  0  0  0  0  0999 V2000
  -29.1340  -20.5800   20.6000 C   0  0  0  0  0  0  0  0  0  0  0  0
  -27.9560  -20.4670   21.2260 N   0  0  0  0  0  4  0  0  0  0  0  0
  -29.6900  -21.8140   20.3660 N   0  0  0  0  0  0  0  0  0  0  0  0
  -27.5940  -19.5440   21.4120 H   0  0  0  0  0  0  0  0  0  0  0  0
  -27.3740  -21.2570   21.4410 H   0  0  0  0  0  0  0  0  0  0  0  0
  -30.4800  -21.7780   19.7390 H   0  0  0  0  0  0  0  0  0  0  0  0
  -30.7990  -19.0360   19.2760 C   0  0  0  0  0  3  0  0  0  0  0  0
  -31.0420  -17.6280   19.3160 C   0  0  0  0  0  3  0  0  0  0  0  0
  -29.8070  -19.3300   20.1770 C   0  0  0  0  0  0  0  0  0  0  0  0
  -30.1760  -17.1040   20.2400 C   0  0  0  0  0  0  0  0  0  0  0  0
  -29.4060  -18.1310   20.7740 O   0  0  0  0  0  0  0  0  0  0  0  0
  -30.7370  -14.6750   20.1620 C   0  0  0  0  0  0  0  0  0  0  0  0
  -30.4280  -12.4600   19.0960 C   0  0  0  0  0  2  0  0  0  0  0  0
  -29.4530  -12.6400   17.9120 C   0  0  0  0  0  2  0  0  0  0  0  0
  -27.9930  -12.5010   18.3880 C   0  0  0  0  0  2  0  0  0  0  0  0
  -27.6920  -13.3490   19.6520 C   0  0  0  0  0  3  0  0  0  0  0  0
  -28.7840  -13.1670   20.7300 C   0  0  0  0  0  2  0  0  0  0  0  0
  -30.0820  -13.4730   20.1120 N   0  0  0  0  0  0  0  0  0  0  0  0
  -31.8900  -14.7820   19.7340 O   0  0  0  0  0  0  0  0  0  0  0  0
  -30.0040  -15.7630   20.5530 N   0  0  0  0  0  0  0  0  0  0  0  0
  -29.1380  -15.5390   21.0170 H   0  0  0  0  0  0  0  0  0  0  0  0
  -25.3330  -13.9610   20.4690 C   0  0  0  0  0  0  0  0  0  0  0  0
  -24.2720  -13.1930   20.8640 C   0  0  0  0  0  0  0  0  0  0  0  0
  -24.7180  -11.8370   20.7950 C   0  0  0  0  0  0  0  0  0  0  0  0
  -26.3580  -13.0740   20.1810 N   0  0  0  0  0  0  0  0  0  0  0  0
  -25.9950  -11.7910   20.4380 N   0  0  0  0  0  0  0  0  0  0  0  0
  -23.9840  -10.5800   20.9900 C   0  0  0  0  0  0  0  0  0  0  0  0
  -24.4240   -9.6020   21.9100 C   0  0  0  0  0  3  0  0  0  0  0  0
  -23.6890   -8.4100   22.0950 C   0  0  0  0  0  3  0  0  0  0  0  0
  -22.5030   -8.1880   21.3570 C   0  0  0  0  0  0  0  0  0  0  0  0
  -22.0820   -9.1530   20.4260 C   0  0  0  0  0  3  0  0  0  0  0  0
  -22.8170  -10.3360   20.2400 C   0  0  0  0  0  3  0  0  0  0  0  0
  -21.7390   -7.0480   21.4510 O   0  0  0  0  0  0  0  0  0  0  0  0
  -21.6950   -6.3040   22.6020 C   0  0  0  0  0  0  0  0  0  0  0  0
  -21.2510   -6.8500   23.8260 C   0  0  0  0  0  3  0  0  0  0  0  0
  -21.1550   -6.0310   24.9690 C   0  0  0  0  0  3  0  0  0  0  0  0
  -21.4960   -4.6680   24.8890 C   0  0  0  0  0  0  0  0  0  0  0  0
  -21.9330   -4.1200   23.6700 C   0  0  0  0  0  3  0  0  0  0  0  0
  -22.0300   -4.9360   22.5290 C   0  0  0  0  0  0  0  0  0  0  0  0
  -22.4320   -4.4000   21.3520 F   0  0  0  0  0  0  0  0  0  0  0  0
  -21.3960   -3.8790   25.9840 F   0  0  0  0  0  0  0  0  0  0  0  0
  -22.8910  -13.6800   21.1950 C   0  0  0  0  0  0  0  0  0  0  0  0
  -22.1850  -12.9760   22.0730 N   0  0  0  0  0  0  0  0  0  0  0  0
  -22.4480  -14.7200   20.7100 O   0  0  0  0  0  0  0  0  0  0  0  0
  -22.5550  -12.1310   22.4830 H   0  0  0  0  0  0  0  0  0  0  0  0
  -21.2600  -13.2850   22.3360 H   0  0  0  0  0  0  0  0  0  0  0  0
  -25.5050  -15.3330   20.3070 N   0  0  0  0  0  0  0  0  0  0  0  0
  -24.7440  -15.9890   20.4470 H   0  0  0  0  0  0  0  0  0  0  0  0
  -26.3390  -15.7690   19.9340 H   0  0  0  0  0  0  0  0  0  0  0  0
  -30.8110  -23.9440   20.8420 C   0  0  0  0  0  1  0  0  0  0  0  0
  -29.0700  -23.1160   22.4110 C   0  0  0  0  0  1  0  0  0  0  0  0
  -29.4490  -23.2140   20.9090 C   0  0  2  0  0  0  0  0  0  0  0  0
  -28.3270  -24.0660   20.1910 C   0  0  0  0  0  0  0  0  0  0  0  0
  -27.1720  -23.6270   20.1780 O   0  0  0  0  0  0  0  0  0  0  0  0
  -28.6240  -25.4320   19.4620 C   0  0  0  0  0  2  0  0  0  0  0  0
  -28.4270  -26.6570   20.2400 O   0  0  0  0  0  0  0  0  0  0  0  0
  -24.6060  -31.9190   23.2320 C   0  0  0  0  0  0  0  0  0  0  0  0
  -27.2620  -27.4200   20.1680 C   0  0  0  0  0  0  0  0  0  0  0  0
  -23.4120  -30.5170   21.5840 C   0  0  0  0  0  3  0  0  0  0  0  0
  -24.8730  -28.9770   20.1590 C   0  0  0  0  0  0  0  0  0  0  0  0
  -25.9440  -30.8600   21.4040 C   0  0  0  0  0  2  0  0  0  0  0  0
  -26.0310  -29.4860   20.7580 C   0  0  0  0  0  0  0  0  0  0  0  0
  -27.2230  -28.7150   20.7590 C   0  0  0  0  0  3  0  0  0  0  0  0
  -26.0800  -26.9420   19.5580 C   0  0  0  0  0  3  0  0  0  0  0  0
  -24.8960  -27.7070   19.5550 C   0  0  0  0  0  3  0  0  0  0  0  0
  -23.6300  -29.8420   20.2040 C   0  0  0  0  0  2  0  0  0  0  0  0
  -24.6720  -31.1160   22.1300 N   0  0  0  0  0  0  0  0  0  0  0  0
  -23.5200  -32.1900   23.7650 O   0  0  0  0  0  0  0  0  0  0  0  0
  -22.7520  -29.4970   22.5410 C   0  0  0  0  0  0  0  0  0  0  0  0
  -21.4260  -29.3250   22.4190 N   0  0  0  0  0  0  0  0  0  0  0  0
  -23.4340  -28.8620   23.3500 O   0  0  0  0  0  0  0  0  0  0  0  0
  -20.9350  -29.8870   21.7380 H   0  0  0  0  0  0  0  0  0  0  0  0
  -18.0430  -28.1590   22.9400 C   0  0  0  0  0  0  0  0  0  0  0  0
  -20.6070  -28.3870   23.1870 C   0  0  0  0  0  3  0  0  0  0  0  0
  -20.6890  -26.9610   22.5910 C   0  0  0  0  0  2  0  0  0  0  0  0
  -19.5730  -26.6650   21.5850 C   0  0  0  0  0  2  0  0  0  0  0  0
  -18.1980  -26.8170   22.2440 C   0  0  0  0  0  2  0  0  0  0  0  0
  -19.1740  -28.9030   23.3670 C   0  0  0  0  0  0  0  0  0  0  0  0
  -18.9750  -30.1630   23.9750 C   0  0  0  0  0  3  0  0  0  0  0  0
  -17.6770  -30.6750   24.1610 C   0  0  0  0  0  3  0  0  0  0  0  0
  -16.5600  -29.9260   23.7490 C   0  0  0  0  0  3  0  0  0  0  0  0
  -16.7450  -28.6710   23.1440 C   0  0  0  0  0  3  0  0  0  0  0  0
  -25.8840  -32.5550   23.8600 C   0  0  0  0  0  3  0  0  0  0  0  0
  -26.3900  -31.7930   25.1460 C   0  0  1  0  0  0  0  0  0  0  0  0
  -25.2860  -31.5570   26.2030 C   0  0  0  0  0  1  0  0  0  0  0  0
  -26.9810  -30.4160   24.7650 C   0  0  0  0  0  1  0  0  0  0  0  0
  -27.5330  -32.5920   25.8140 C   0  0  0  0  0  1  0  0  0  0  0  0
  -25.5720  -33.9550   24.1800 N   0  0  0  0  0  0  0  0  0  0  0  0
  -25.9050  -35.0030   23.4140 C   0  0  0  0  0  0  0  0  0  0  0  0
  -26.5740  -34.8930   22.3830 O   0  0  0  0  0  0  0  0  0  0  0  0
  -24.9770  -34.1150   24.9790 H   0  0  0  0  0  0  0  0  0  0  0  0
  -24.1790  -36.7950   23.0420 C   0  0  0  0  0  1  0  0  0  0  0  0
  -25.4170  -36.3950   23.8610 C   0  0  0  0  0  3  0  0  0  0  0  0
  -27.5430  -37.2880   24.7040 C   0  0  0  0  0  1  0  0  0  0  0  0
  -26.4510  -37.4460   23.7470 N   0  0  0  0  0  0  0  0  0  0  0  0
  -26.0430  -38.3670   23.8810 H   0  0  0  0  0  0  0  0  0  0  0  0
  1  2  2  0
  2  4  1  0
  2  5  1  0
  3  1  1  0
  3 52  1  0
  6  3  1  0
  7  8  1  0
  7  9  2  0
  8 10  2  0
  9  1  1  0
  9 11  1  0
 10 20  1  0
 10 11  1  0
 12 20  1  0
 13 18  1  0
 14 15  1  0
 14 13  1  0
 16 15  1  0
 16 25  1  0
 16 17  1  0
 18 12  1  0
 18 17  1  0
 19 12  2  0
 20 21  1  0
 22 23  2  0
 23 42  1  0
 24 23  1  0
 24 27  1  0
 25 26  1  0
 25 22  1  0
 26 24  2  0
 27 28  1  0
 28 29  2  0
 30 33  1  0
 30 29  1  0
 31 30  2  0
 32 31  1  0
 32 27  2  0
 33 34  1  0
 34 35  1  0
 35 36  2  0
 37 36  1  0
 37 41  1  0
 38 37  2  0
 39 34  2  0
 39 38  1  0
 40 39  1  0
 42 43  1  0
 43 46  1  0
 43 45  1  0
 44 42  2  0
 47 48  1  0
 47 22  1  0
 49 47  1  0
 52 50  1  1
 52 51  1  0
 53 52  1  0
 54 53  2  0
 55 53  1  0
 55 56  1  0
 57 68  2  0
 58 56  1  0
 58 63  1  0
 59 67  1  0
 59 69  1  0
 60 66  1  0
 60 62  1  0
 61 67  1  0
 62 63  2  0
 62 61  1  0
 64 58  2  0
 65 64  1  0
 65 60  2  0
 66 59  1  0
 67 57  1  0
 69 71  2  0
 70 69  1  0
 72 70  1  0
 73 82  2  0
 73 78  1  0
 74 70  1  0
 74 78  1  0
 75 74  1  0
 76 77  1  0
 76 75  1  0
 77 73  1  0
 78 79  2  0
 79 80  1  0
 81 80  2  0
 82 81  1  0
 83 57  1  0
 83 88  1  0
 83 84  1  0
 84 87  1  1
 84 85  1  0
 86 84  1  0
 88 91  1  0
 89 93  1  0
 89 88  1  0
 90 89  2  0
 93 92  1  0
 95 93  1  0
 95 96  1  0
 95 94  1  0
M  ISO  4  12 100  20 100  55 101  56 101
M  END
>  <TORSDO>  (14) 
F 20

>  <SCORE>  (14) 
-14.064

>  <name>  (14) 
13

>  <ligand_id>  (14) 
13

>  <original_smiles>  (14) 
[H]c1c(C(N([H])[H])=[N+]([H])C(C(=O)C([H])([H])Oc2c([H])c([H])c3c(c2[H])C([H])([H])N(C(=O)C([H])(N([H])C(=O)C([H])(N([H])C([H])([H])[H])C([H])([H])[H])C(C([H])([H])[H])(C([H])([H])[H])C([H])([H])[H])C([H])(C(=O)N([H])C2([H])c4c([H])c([H])c([H])c([H])c4C([H])([H])C([H])([H])C2([H])[H])C3([H])[H])(C([H])([H])[H])C([H])([H])[H])oc(N([H])C(=O)N2C([H])([H])C([H])([H])C([H])([H])C([H])(n3nc(-c4c([H])c([H])c(Oc5c([H])c([H])c(F)c([H])c5F)c([H])c4[H])c(C(=O)N([H])[H])c3N([H])[H])C2([H])[H])c1[H]

>  <smiles>  (14) 
[H]c1c(C(N([H])[H])=[N+]([H])C(C(=O)C([H])([H])Oc2c([H])c([H])c3c(c2[H])C([H])([H])N(C(=O)C([H])(N([H])C(=O)C([H])(N([H])C([H])([H])[H])C([H])([H])[H])C(C([H])([H])[H])(C([H])([H])[H])C([H])([H])[H])C([H])(C(=O)N([H])C2([H])c4c([H])c([H])c([H])c([H])c4C([H])([H])C([H])([H])C2([H])[H])C3([H])[H])(C([H])([H])[H])C([H])([H])[H])oc(N([H])C(=O)N2C([H])([H])C([H])([H])C([H])([H])C([H])(n3nc(-c4c([H])c([H])c(Oc5c([H])c([H])c(F)c([H])c5F)c([H])c4[H])c(C(=O)N([H])[H])c3N([H])[H])C2([H])[H])c1[H]

$$$$
14:0:0
     RDKit          3D

 91 99  0  0  1  0  0  0  0  0999 V2000
  -31.5420  -17.5490   20.8560 C   0  0  0  0  0  3  0  0  0  0  0  0
  -30.3160  -16.9210   20.8710 C   0  0  0  0  0  0  0  0  0  0  0  0
  -30.0260  -19.1010   20.7690 C   0  0  0  0  0  0  0  0  0  0  0  0
  -29.8040  -21.6140   20.6040 C   0  0  0  0  0  0  0  0  0  0  0  0
  -31.3490  -18.9280   20.7910 N   0  0  0  0  0  0  0  0  0  0  0  0
  -29.3310  -20.3440   20.6390 N   0  0  0  0  0  0  0  0  0  0  0  0
  -30.9850  -21.9200   20.7910 O   0  0  0  0  0  0  0  0  0  0  0  0
  -29.3480  -17.9110   20.8300 O   0  0  0  0  0  0  0  0  0  0  0  0
  -28.3340  -20.2490   20.5230 H   0  0  0  0  0  0  0  0  0  0  0  0
  -30.6670  -14.5430   20.4780 C   0  0  0  0  0  0  0  0  0  0  0  0
  -30.3680  -12.3710   19.3440 C   0  0  0  0  0  2  0  0  0  0  0  0
  -29.4250  -12.5650   18.1400 C   0  0  0  0  0  2  0  0  0  0  0  0
  -27.9520  -12.4210   18.5730 C   0  0  0  0  0  2  0  0  0  0  0  0
  -27.6130  -13.2610   19.8330 C   0  0  0  0  0  3  0  0  0  0  0  0
  -28.6740  -13.0610   20.9400 C   0  0  0  0  0  2  0  0  0  0  0  0
  -29.9920  -13.3640   20.3640 N   0  0  0  0  0  0  0  0  0  0  0  0
  -31.8160  -14.6840   20.0500 O   0  0  0  0  0  0  0  0  0  0  0  0
  -29.9400  -15.6030   20.9040 N   0  0  0  0  0  0  0  0  0  0  0  0
  -28.9830  -15.4060   21.1530 H   0  0  0  0  0  0  0  0  0  0  0  0
  -25.2190  -13.8620   20.5570 C   0  0  0  0  0  0  0  0  0  0  0  0
  -24.1510  -13.0870   20.9220 C   0  0  0  0  0  0  0  0  0  0  0  0
  -24.6110  -11.7350   20.8790 C   0  0  0  0  0  0  0  0  0  0  0  0
  -26.2630  -12.9810   20.3160 N   0  0  0  0  0  0  0  0  0  0  0  0
  -25.9010  -11.6970   20.5670 N   0  0  0  0  0  0  0  0  0  0  0  0
  -23.8850  -10.4710   21.0590 C   0  0  0  0  0  0  0  0  0  0  0  0
  -24.3140   -9.4990   21.9880 C   0  0  0  0  0  3  0  0  0  0  0  0
  -23.5880   -8.2990   22.1560 C   0  0  0  0  0  3  0  0  0  0  0  0
  -22.4180   -8.0660   21.3950 C   0  0  0  0  0  0  0  0  0  0  0  0
  -22.0080   -9.0270   20.4550 C   0  0  0  0  0  3  0  0  0  0  0  0
  -22.7340  -10.2170   20.2840 C   0  0  0  0  0  3  0  0  0  0  0  0
  -21.6640   -6.9200   21.4730 O   0  0  0  0  0  0  0  0  0  0  0  0
  -21.6010   -6.1770   22.6240 C   0  0  0  0  0  0  0  0  0  0  0  0
  -21.1210   -6.7180   23.8360 C   0  0  0  0  0  3  0  0  0  0  0  0
  -21.0090   -5.8990   24.9770 C   0  0  0  0  0  3  0  0  0  0  0  0
  -21.3660   -4.5400   24.9080 C   0  0  0  0  0  0  0  0  0  0  0  0
  -21.8400   -3.9970   23.7000 C   0  0  0  0  0  3  0  0  0  0  0  0
  -21.9540   -4.8130   22.5610 C   0  0  0  0  0  0  0  0  0  0  0  0
  -22.3910   -4.2810   21.3940 F   0  0  0  0  0  0  0  0  0  0  0  0
  -21.2510   -3.7500   26.0010 F   0  0  0  0  0  0  0  0  0  0  0  0
  -22.7550  -13.5630   21.2030 C   0  0  0  0  0  0  0  0  0  0  0  0
  -22.0280  -12.8580   22.0620 N   0  0  0  0  0  0  0  0  0  0  0  0
  -22.3170  -14.5950   20.6940 O   0  0  0  0  0  0  0  0  0  0  0  0
  -22.3950  -12.0230   22.4950 H   0  0  0  0  0  0  0  0  0  0  0  0
  -21.0910  -13.1580   22.2920 H   0  0  0  0  0  0  0  0  0  0  0  0
  -25.3850  -15.2340   20.3900 N   0  0  0  0  0  0  0  0  0  0  0  0
  -24.6160  -15.8870   20.5030 H   0  0  0  0  0  0  0  0  0  0  0  0
  -26.2280  -15.6740   20.0470 H   0  0  0  0  0  0  0  0  0  0  0  0
  -28.7690  -22.7310   20.3190 C   0  0  0  0  0  2  0  0  0  0  0  0
  -29.2490  -24.2180   20.4330 C   0  0  0  0  0  2  0  0  0  0  0  0
  -28.1450  -25.2080   19.9670 C   0  0  0  0  0  2  0  0  0  0  0  0
  -28.3530  -26.6280   20.1850 O   0  0  0  0  0  0  0  0  0  0  0  0
  -24.5730  -31.8950   23.2170 C   0  0  0  0  0  0  0  0  0  0  0  0
  -27.2090  -27.4210   20.1330 C   0  0  0  0  0  0  0  0  0  0  0  0
  -23.3730  -30.5020   21.5680 C   0  0  0  0  0  3  0  0  0  0  0  0
  -24.8270  -28.9750   20.1380 C   0  0  0  0  0  0  0  0  0  0  0  0
  -25.9060  -30.8450   21.3860 C   0  0  0  0  0  2  0  0  0  0  0  0
  -25.9900  -29.4770   20.7350 C   0  0  0  0  0  0  0  0  0  0  0  0
  -27.1840  -28.7100   20.7280 C   0  0  0  0  0  3  0  0  0  0  0  0
  -26.0230  -26.9590   19.5100 C   0  0  0  0  0  3  0  0  0  0  0  0
  -24.8410  -27.7170   19.5200 C   0  0  0  0  0  3  0  0  0  0  0  0
  -23.5860  -29.8380   20.1860 C   0  0  0  0  0  2  0  0  0  0  0  0
  -24.6350  -31.0960   22.1150 N   0  0  0  0  0  0  0  0  0  0  0  0
  -23.4890  -32.1680   23.7530 O   0  0  0  0  0  0  0  0  0  0  0  0
  -22.7150  -29.4760   22.5200 C   0  0  0  0  0  0  0  0  0  0  0  0
  -21.3890  -29.3020   22.3930 N   0  0  0  0  0  0  0  0  0  0  0  0
  -23.3950  -28.8410   23.3310 O   0  0  0  0  0  0  0  0  0  0  0  0
  -20.9020  -29.8660   21.7120 H   0  0  0  0  0  0  0  0  0  0  0  0
  -18.0030  -28.1520   22.9160 C   0  0  0  0  0  0  0  0  0  0  0  0
  -20.5670  -28.3630   23.1580 C   0  0  0  0  0  3  0  0  0  0  0  0
  -20.6390  -26.9420   22.5560 C   0  0  0  0  0  2  0  0  0  0  0  0
  -19.5190  -26.6550   21.5510 C   0  0  0  0  0  2  0  0  0  0  0  0
  -18.1470  -26.8120   22.2170 C   0  0  0  0  0  2  0  0  0  0  0  0
  -19.1390  -28.8880   23.3450 C   0  0  0  0  0  0  0  0  0  0  0  0
  -18.9490  -30.1450   23.9600 C   0  0  0  0  0  3  0  0  0  0  0  0
  -17.6560  -30.6650   24.1500 C   0  0  0  0  0  3  0  0  0  0  0  0
  -16.5330  -29.9260   23.7390 C   0  0  0  0  0  3  0  0  0  0  0  0
  -16.7080  -28.6700   23.1280 C   0  0  0  0  0  3  0  0  0  0  0  0
  -25.8570  -32.5230   23.8430 C   0  0  0  0  0  3  0  0  0  0  0  0
  -26.3740  -31.7430   25.1140 C   0  0  1  0  0  0  0  0  0  0  0  0
  -25.2790  -31.4880   26.1760 C   0  0  0  0  0  1  0  0  0  0  0  0
  -26.9670  -30.3730   24.7100 C   0  0  0  0  0  1  0  0  0  0  0  0
  -27.5190  -32.5370   25.7870 C   0  0  0  0  0  1  0  0  0  0  0  0
  -25.5470  -33.9190   24.1820 N   0  0  0  0  0  0  0  0  0  0  0  0
  -25.8690  -34.9740   23.4230 C   0  0  0  0  0  0  0  0  0  0  0  0
  -26.5310  -34.8760   22.3870 O   0  0  0  0  0  0  0  0  0  0  0  0
  -24.9580  -34.0680   24.9880 H   0  0  0  0  0  0  0  0  0  0  0  0
  -24.1340  -36.7630   23.0840 C   0  0  0  0  0  1  0  0  0  0  0  0
  -25.3800  -36.3590   23.8890 C   0  0  0  0  0  3  0  0  0  0  0  0
  -27.5100  -37.2500   24.7220 C   0  0  0  0  0  1  0  0  0  0  0  0
  -26.4100  -37.4150   23.7770 N   0  0  0  0  0  0  0  0  0  0  0  0
  -26.0000  -38.3340   23.9240 H   0  0  0  0  0  0  0  0  0  0  0  0
  1  2  2  0
  2 18  1  0
  3  5  2  0
  3  8  1  0
  4  6  1  0
  4  7  2  0
  5  1  1  0
  6  3  1  0
  8  2  1  0
  9  6  1  0
 10 18  1  0
 11 16  1  0
 12 13  1  0
 12 11  1  0
 14 13  1  0
 14 23  1  0
 14 15  1  0
 16 10  1  0
 16 15  1  0
 17 10  2  0
 18 19  1  0
 20 21  2  0
 21 40  1  0
 22 21  1  0
 22 25  1  0
 23 20  1  0
 23 24  1  0
 24 22  2  0
 25 26  1  0
 26 27  2  0
 28 31  1  0
 28 27  1  0
 29 28  2  0
 30 29  1  0
 30 25  2  0
 31 32  1  0
 32 33  1  0
 33 34  2  0
 35 34  1  0
 35 39  1  0
 36 35  2  0
 37 32  2  0
 37 36  1  0
 38 37  1  0
 40 41  1  0
 41 44  1  0
 41 43  1  0
 42 40  2  0
 45 46  1  0
 45 20  1  0
 47 45  1  0
 48 49  1  0
 48  4  1  0
 50 51  1  0
 50 49  1  0
 52 63  2  0
 53 51  1  0
 53 58  1  0
 54 62  1  0
 54 64  1  0
 55 61  1  0
 55 57  1  0
 56 62  1  0
 57 56  1  0
 58 57  2  0
 59 60  1  0
 59 53  2  0
 60 55  2  0
 61 54  1  0
 62 52  1  0
 64 66  2  0
 65 64  1  0
 67 65  1  0
 68 77  2  0
 68 73  1  0
 69 65  1  0
 69 73  1  0
 70 69  1  0
 71 72  1  0
 71 70  1  0
 72 68  1  0
 73 74  2  0
 74 75  1  0
 76 75  2  0
 77 76  1  0
 78 52  1  0
 78 83  1  0
 78 79  1  0
 79 82  1  1
 79 80  1  0
 81 79  1  0
 83 86  1  0
 84 88  1  0
 84 83  1  0
 85 84  2  0
 88 87  1  0
 90 88  1  0
 90 91  1  0
 90 89  1  0
M  ISO  4  10 100  18 100  50 101  51 101
M  END
>  <TORSDO>  (15) 
F 19

>  <SCORE>  (15) 
-14.413

>  <name>  (15) 
14

>  <ligand_id>  (15) 
14

>  <original_smiles>  (15) 
[H]c1nc(N([H])C(=O)C([H])([H])C([H])([H])C([H])([H])Oc2c([H])c([H])c3c(c2[H])C([H])([H])N(C(=O)C([H])(N([H])C(=O)C([H])(N([H])C([H])([H])[H])C([H])([H])[H])C(C([H])([H])[H])(C([H])([H])[H])C([H])([H])[H])C([H])(C(=O)N([H])C2([H])c4c([H])c([H])c([H])c([H])c4C([H])([H])C([H])([H])C2([H])[H])C3([H])[H])oc1N([H])C(=O)N1C([H])([H])C([H])([H])C([H])([H])C([H])(n2nc(-c3c([H])c([H])c(Oc4c([H])c([H])c(F)c([H])c4F)c([H])c3[H])c(C(=O)N([H])[H])c2N([H])[H])C1([H])[H]

>  <smiles>  (15) 
[H]c1nc(N([H])C(=O)C([H])([H])C([H])([H])C([H])([H])Oc2c([H])c([H])c3c(c2[H])C([H])([H])N(C(=O)C([H])(N([H])C(=O)C([H])(N([H])C([H])([H])[H])C([H])([H])[H])C(C([H])([H])[H])(C([H])([H])[H])C([H])([H])[H])C([H])(C(=O)N([H])C2([H])c4c([H])c([H])c([H])c([H])c4C([H])([H])C([H])([H])C2([H])[H])C3([H])[H])oc1N([H])C(=O)N1C([H])([H])C([H])([H])C([H])([H])C([H])(n2nc(-c3c([H])c([H])c(Oc4c([H])c([H])c(F)c([H])c4F)c([H])c3[H])c(C(=O)N([H])[H])c2N([H])[H])C1([H])[H]

$$$$
15:0:0
     RDKit          3D

 96104  0  0  1  0  0  0  0  0999 V2000
  -28.5230  -22.2940   20.1540 C   0  0  0  0  0  0  0  0  0  0  0  0
  -29.4610  -21.2970   20.4470 N   0  0  0  0  0  0  0  0  0  0  0  0
  -27.4030  -21.9660   19.7570 O   0  0  0  0  0  0  0  0  0  0  0  0
  -30.2710  -21.6880   20.9080 H   0  0  0  0  0  0  0  0  0  0  0  0
  -30.5610  -14.8590   20.3980 C   0  0  0  0  0  0  0  0  0  0  0  0
  -30.3850  -12.5390   19.4630 C   0  0  0  0  0  2  0  0  0  0  0  0
  -29.4820  -12.5660   18.2080 C   0  0  0  0  0  2  0  0  0  0  0  0
  -28.0050  -12.3870   18.6050 C   0  0  0  0  0  2  0  0  0  0  0  0
  -27.5940  -13.3000   19.7910 C   0  0  0  0  0  3  0  0  0  0  0  0
  -28.6250  -13.2670   20.9410 C   0  0  0  0  0  2  0  0  0  0  0  0
  -29.9310  -13.6250   20.3710 N   0  0  0  0  0  0  0  0  0  0  0  0
  -31.7580  -14.8990   20.0950 O   0  0  0  0  0  0  0  0  0  0  0  0
  -30.7030  -18.6490   18.0320 C   0  0  0  0  0  3  0  0  0  0  0  0
  -30.5450  -17.4480   18.7350 C   0  0  0  0  0  3  0  0  0  0  0  0
  -30.3070  -19.8810   18.5840 C   0  0  0  0  0  0  0  0  0  0  0  0
  -29.9830  -17.4210   20.0220 C   0  0  0  0  0  0  0  0  0  0  0  0
  -29.6930  -19.9200   19.8740 C   0  0  0  0  0  0  0  0  0  0  0  0
  -29.5630  -18.6720   20.5440 N   0  0  0  0  0  0  0  0  0  0  0  0
  -29.8260  -16.0420   20.6100 N   0  0  0  0  0  0  0  0  0  0  0  0
  -28.9520  -15.9000   21.0910 H   0  0  0  0  0  0  0  0  0  0  0  0
  -25.1920  -13.8900   20.4600 C   0  0  0  0  0  0  0  0  0  0  0  0
  -24.1210  -13.1180   20.8160 C   0  0  0  0  0  0  0  0  0  0  0  0
  -24.5880  -11.7670   20.8150 C   0  0  0  0  0  0  0  0  0  0  0  0
  -26.2430  -13.0100   20.2580 N   0  0  0  0  0  0  0  0  0  0  0  0
  -25.8850  -11.7290   20.5360 N   0  0  0  0  0  0  0  0  0  0  0  0
  -23.8580  -10.5070   21.0040 C   0  0  0  0  0  0  0  0  0  0  0  0
  -24.2770   -9.5450   21.9510 C   0  0  0  0  0  3  0  0  0  0  0  0
  -23.5460   -8.3510   22.1290 C   0  0  0  0  0  3  0  0  0  0  0  0
  -22.3820   -8.1080   21.3600 C   0  0  0  0  0  0  0  0  0  0  0  0
  -21.9830   -9.0580   20.4040 C   0  0  0  0  0  3  0  0  0  0  0  0
  -22.7140  -10.2440   20.2240 C   0  0  0  0  0  3  0  0  0  0  0  0
  -21.6240   -6.9650   21.4480 O   0  0  0  0  0  0  0  0  0  0  0  0
  -21.5670   -6.2260   22.6020 C   0  0  0  0  0  0  0  0  0  0  0  0
  -21.1390   -6.7870   23.8250 C   0  0  0  0  0  3  0  0  0  0  0  0
  -21.0280   -5.9740   24.9710 C   0  0  0  0  0  3  0  0  0  0  0  0
  -21.3340   -4.6020   24.8960 C   0  0  0  0  0  0  0  0  0  0  0  0
  -21.7550   -4.0400   23.6770 C   0  0  0  0  0  3  0  0  0  0  0  0
  -21.8670   -4.8500   22.5330 C   0  0  0  0  0  0  0  0  0  0  0  0
  -22.2530   -4.3000   21.3560 F   0  0  0  0  0  0  0  0  0  0  0  0
  -21.2200   -3.8200   25.9940 F   0  0  0  0  0  0  0  0  0  0  0  0
  -22.7170  -13.5970   21.0460 C   0  0  0  0  0  0  0  0  0  0  0  0
  -21.9690  -12.9130   21.9050 N   0  0  0  0  0  0  0  0  0  0  0  0
  -22.2910  -14.6140   20.5010 O   0  0  0  0  0  0  0  0  0  0  0  0
  -22.3260  -12.0910   22.3690 H   0  0  0  0  0  0  0  0  0  0  0  0
  -21.0260  -13.2170   22.1030 H   0  0  0  0  0  0  0  0  0  0  0  0
  -25.3580  -15.2580   20.2670 N   0  0  0  0  0  0  0  0  0  0  0  0
  -24.5830  -15.9090   20.3460 H   0  0  0  0  0  0  0  0  0  0  0  0
  -26.2050  -15.6940   19.9260 H   0  0  0  0  0  0  0  0  0  0  0  0
  -30.5780  -21.0690   17.7220 C   0  0  0  0  0  0  0  0  0  0  0  0
  -32.0280  -21.2880   17.3100 C   0  0  0  0  0  1  0  0  0  0  0  0
  -29.7140  -21.8520   17.3240 O   0  0  0  0  0  0  0  0  0  0  0  0
  -28.0310  -24.8420   20.1620 C   0  0  0  0  0  3  0  0  0  0  0  0
  -28.9080  -23.7650   20.3530 C   0  0  0  0  0  0  0  0  0  0  0  0
  -30.1750  -24.0290   20.7040 O   0  0  0  0  0  0  0  0  0  0  0  0
  -30.2490  -24.9730   20.7720 H   0  0  0  0  0  0  0  0  0  0  0  0
  -28.2560  -26.2760   20.2210 O   0  0  0  0  0  0  0  0  0  0  0  0
  -24.6410  -31.8860   23.2400 C   0  0  0  0  0  0  0  0  0  0  0  0
  -27.1840  -27.2240   20.1650 C   0  0  0  0  0  0  0  0  0  0  0  0
  -23.4190  -30.4940   21.6130 C   0  0  0  0  0  3  0  0  0  0  0  0
  -24.8500  -28.9340   20.1640 C   0  0  0  0  0  0  0  0  0  0  0  0
  -25.9680  -30.7700   21.4200 C   0  0  0  0  0  2  0  0  0  0  0  0
  -26.0310  -29.3830   20.7700 C   0  0  0  0  0  0  0  0  0  0  0  0
  -27.1960  -28.5380   20.7680 C   0  0  0  0  0  3  0  0  0  0  0  0
  -25.9880  -26.8840   19.4910 C   0  0  0  0  0  3  0  0  0  0  0  0
  -24.8380  -27.6950   19.5130 C   0  0  0  0  0  3  0  0  0  0  0  0
  -23.6220  -29.8240   20.2280 C   0  0  0  0  0  2  0  0  0  0  0  0
  -24.6950  -31.0700   22.1450 N   0  0  0  0  0  0  0  0  0  0  0  0
  -23.5610  -32.1700   23.7820 O   0  0  0  0  0  0  0  0  0  0  0  0
  -22.7560  -29.4800   22.5780 C   0  0  0  0  0  0  0  0  0  0  0  0
  -21.4290  -29.3020   22.4580 N   0  0  0  0  0  0  0  0  0  0  0  0
  -23.4380  -28.8570   23.3960 O   0  0  0  0  0  0  0  0  0  0  0  0
  -20.9370  -29.8550   21.7710 H   0  0  0  0  0  0  0  0  0  0  0  0
  -18.0590  -28.0820   22.9690 C   0  0  0  0  0  0  0  0  0  0  0  0
  -20.6160  -28.3650   23.2360 C   0  0  0  0  0  3  0  0  0  0  0  0
  -20.7280  -26.9290   22.6740 C   0  0  0  0  0  2  0  0  0  0  0  0
  -19.6290  -26.5890   21.6620 C   0  0  0  0  0  2  0  0  0  0  0  0
  -18.2460  -26.7290   22.3050 C   0  0  0  0  0  2  0  0  0  0  0  0
  -19.1710  -28.8570   23.3930 C   0  0  0  0  0  0  0  0  0  0  0  0
  -18.9410  -30.1220   23.9760 C   0  0  0  0  0  3  0  0  0  0  0  0
  -17.6320  -30.6130   24.1390 C   0  0  0  0  0  3  0  0  0  0  0  0
  -16.5340  -29.8350   23.7300 C   0  0  0  0  0  3  0  0  0  0  0  0
  -16.7480  -28.5720   23.1510 C   0  0  0  0  0  3  0  0  0  0  0  0
  -25.9280  -32.5180   23.8500 C   0  0  0  0  0  3  0  0  0  0  0  0
  -26.4540  -31.7450   25.1220 C   0  0  1  0  0  0  0  0  0  0  0  0
  -25.3710  -31.5110   26.2010 C   0  0  0  0  0  1  0  0  0  0  0  0
  -27.0310  -30.3650   24.7290 C   0  0  0  0  0  1  0  0  0  0  0  0
  -27.6130  -32.5370   25.7720 C   0  0  0  0  0  1  0  0  0  0  0  0
  -25.6220  -33.9150   24.1880 N   0  0  0  0  0  0  0  0  0  0  0  0
  -25.9410  -34.9730   23.4280 C   0  0  0  0  0  0  0  0  0  0  0  0
  -26.5910  -34.8730   22.3850 O   0  0  0  0  0  0  0  0  0  0  0  0
  -25.0410  -34.0660   25.0000 H   0  0  0  0  0  0  0  0  0  0  0  0
  -24.2040  -36.7670   23.1170 C   0  0  0  0  0  1  0  0  0  0  0  0
  -25.4620  -36.3600   23.9000 C   0  0  0  0  0  3  0  0  0  0  0  0
  -27.6130  -37.2440   24.6890 C   0  0  0  0  0  1  0  0  0  0  0  0
  -26.4920  -37.4140   23.7690 N   0  0  0  0  0  0  0  0  0  0  0  0
  -26.0880  -38.3340   23.9290 H   0  0  0  0  0  0  0  0  0  0  0  0
  1 53  1  0
  1  2  1  0
  2  4  1  0
  3  1  2  0
  5 19  1  0
  6 11  1  0
  7  8  1  0
  7  6  1  0
  9  8  1  0
  9 24  1  0
  9 10  1  0
 11  5  1  0
 11 10  1  0
 12  5  2  0
 13 15  2  0
 13 14  1  0
 14 16  2  0
 15 17  1  0
 16 18  1  0
 16 19  1  0
 17  2  1  0
 17 18  2  0
 19 20  1  0
 21 22  2  0
 22 41  1  0
 23 22  1  0
 23 26  1  0
 24 21  1  0
 24 25  1  0
 25 23  2  0
 26 27  1  0
 27 28  2  0
 29 32  1  0
 29 28  1  0
 30 29  2  0
 31 30  1  0
 31 26  2  0
 32 33  1  0
 33 34  1  0
 34 35  2  0
 36 35  1  0
 36 40  1  0
 37 36  2  0
 38 33  2  0
 38 37  1  0
 39 38  1  0
 41 42  1  0
 42 45  1  0
 42 44  1  0
 43 41  2  0
 46 47  1  0
 46 21  1  0
 48 46  1  0
 49 15  1  0
 50 49  1  0
 51 49  2  0
 52 56  1  0
 52 53  2  0
 53 54  1  0
 54 55  1  0
 57 68  2  0
 58 56  1  0
 58 63  1  0
 59 67  1  0
 59 69  1  0
 60 66  1  0
 60 62  1  0
 61 67  1  0
 62 61  1  0
 63 62  2  0
 64 65  1  0
 64 58  2  0
 65 60  2  0
 66 59  1  0
 67 57  1  0
 69 71  2  0
 70 69  1  0
 72 70  1  0
 73 82  2  0
 73 78  1  0
 74 70  1  0
 74 78  1  0
 75 74  1  0
 76 77  1  0
 76 75  1  0
 77 73  1  0
 78 79  2  0
 79 80  1  0
 81 80  2  0
 82 81  1  0
 83 57  1  0
 83 88  1  0
 83 84  1  0
 84 87  1  1
 84 85  1  0
 86 84  1  0
 88 91  1  0
 89 93  1  0
 89 88  1  0
 90 89  2  0
 93 92  1  0
 95 93  1  0
 95 96  1  0
 95 94  1  0
M  ISO  4   5 100  19 100  52 101  56 101
M  END
>  <TORSDO>  (16) 
F 19

>  <SCORE>  (16) 
-14.522

>  <name>  (16) 
15

>  <ligand_id>  (16) 
15

>  <original_smiles>  (16) 
[H]OC(C(=O)N([H])c1nc(N([H])C(=O)N2C([H])([H])C([H])([H])C([H])([H])C([H])(n3nc(-c4c([H])c([H])c(Oc5c([H])c([H])c(F)c([H])c5F)c([H])c4[H])c(C(=O)N([H])[H])c3N([H])[H])C2([H])[H])c([H])c([H])c1C(=O)C([H])([H])[H])=C([H])Oc1c([H])c([H])c2c(c1[H])C([H])([H])N(C(=O)C([H])(N([H])C(=O)C([H])(N([H])C([H])([H])[H])C([H])([H])[H])C(C([H])([H])[H])(C([H])([H])[H])C([H])([H])[H])C([H])(C(=O)N([H])C1([H])c3c([H])c([H])c([H])c([H])c3C([H])([H])C([H])([H])C1([H])[H])C2([H])[H]

>  <smiles>  (16) 
[H]OC(C(=O)N([H])c1nc(N([H])C(=O)N2C([H])([H])C([H])([H])C([H])([H])C([H])(n3nc(-c4c([H])c([H])c(Oc5c([H])c([H])c(F)c([H])c5F)c([H])c4[H])c(C(=O)N([H])[H])c3N([H])[H])C2([H])[H])c([H])c([H])c1C(=O)C([H])([H])[H])=C([H])Oc1c([H])c([H])c2c(c1[H])C([H])([H])N(C(=O)C([H])(N([H])C(=O)C([H])(N([H])C([H])([H])[H])C([H])([H])[H])C(C([H])([H])[H])(C([H])([H])[H])C([H])([H])[H])C([H])(C(=O)N([H])C1([H])c3c([H])c([H])c([H])c([H])c3C([H])([H])C([H])([H])C1([H])[H])C2([H])[H]

$$$$
16:0:0
     RDKit          3D

 97105  0  0  1  0  0  0  0  0999 V2000
  -29.4370  -22.9830   19.6060 C   0  0  0  0  0  3  0  0  0  0  0  0
  -29.0750  -20.5070   19.9590 C   0  0  0  0  0  0  0  0  0  0  0  0
  -29.5190  -21.7130   20.3850 N   0  0  0  0  0  0  0  0  0  0  0  0
  -28.2130  -20.4160   19.0830 O   0  0  0  0  0  0  0  0  0  0  0  0
  -30.1410  -21.7190   21.1830 H   0  0  0  0  0  0  0  0  0  0  0  0
  -29.1990  -17.9330   20.4390 C   0  0  0  0  0  3  0  0  0  0  0  0
  -31.2580  -17.5390   21.4850 C   0  0  0  0  0  3  0  0  0  0  0  0
  -30.1340  -16.9660   20.9480 C   0  0  0  0  0  0  0  0  0  0  0  0
  -29.6480  -19.2400   20.5240 C   0  0  0  0  0  0  0  0  0  0  0  0
  -31.2190  -19.2850   21.3070 S   0  0  0  0  0  0  0  0  0  0  0  0
  -30.6240  -14.5480   20.4390 C   0  0  0  0  0  0  0  0  0  0  0  0
  -30.3580  -12.3780   19.2690 C   0  0  0  0  0  2  0  0  0  0  0  0
  -29.4170  -12.5930   18.0630 C   0  0  0  0  0  2  0  0  0  0  0  0
  -27.9380  -12.4560   18.4850 C   0  0  0  0  0  2  0  0  0  0  0  0
  -27.6020  -13.2590   19.7690 C   0  0  0  0  0  3  0  0  0  0  0  0
  -28.6600  -13.0230   20.8690 C   0  0  0  0  0  2  0  0  0  0  0  0
  -29.9780  -13.3530   20.3060 N   0  0  0  0  0  0  0  0  0  0  0  0
  -31.7600  -14.7380   19.9920 O   0  0  0  0  0  0  0  0  0  0  0  0
  -29.8660  -15.5540   20.9450 N   0  0  0  0  0  0  0  0  0  0  0  0
  -28.9170  -15.2860   21.1560 H   0  0  0  0  0  0  0  0  0  0  0  0
  -25.2020  -13.8510   20.4850 C   0  0  0  0  0  0  0  0  0  0  0  0
  -24.1380  -13.0750   20.8590 C   0  0  0  0  0  0  0  0  0  0  0  0
  -24.6030  -11.7250   20.8260 C   0  0  0  0  0  0  0  0  0  0  0  0
  -26.2500  -12.9740   20.2510 N   0  0  0  0  0  0  0  0  0  0  0  0
  -25.8930  -11.6900   20.5110 N   0  0  0  0  0  0  0  0  0  0  0  0
  -23.8810  -10.4590   21.0190 C   0  0  0  0  0  0  0  0  0  0  0  0
  -24.3110   -9.4980   21.9620 C   0  0  0  0  0  3  0  0  0  0  0  0
  -23.5890   -8.2990   22.1430 C   0  0  0  0  0  3  0  0  0  0  0  0
  -22.4220   -8.0520   21.3810 C   0  0  0  0  0  0  0  0  0  0  0  0
  -22.0110   -9.0020   20.4300 C   0  0  0  0  0  3  0  0  0  0  0  0
  -22.7330  -10.1910   20.2460 C   0  0  0  0  0  3  0  0  0  0  0  0
  -21.6730   -6.9030   21.4690 O   0  0  0  0  0  0  0  0  0  0  0  0
  -21.6170   -6.1690   22.6250 C   0  0  0  0  0  0  0  0  0  0  0  0
  -21.1540   -6.7240   23.8390 C   0  0  0  0  0  3  0  0  0  0  0  0
  -21.0460   -5.9130   24.9870 C   0  0  0  0  0  3  0  0  0  0  0  0
  -21.3910   -4.5500   24.9220 C   0  0  0  0  0  0  0  0  0  0  0  0
  -21.8480   -3.9950   23.7140 C   0  0  0  0  0  3  0  0  0  0  0  0
  -21.9590   -4.8020   22.5690 C   0  0  0  0  0  0  0  0  0  0  0  0
  -22.3790   -4.2570   21.4010 F   0  0  0  0  0  0  0  0  0  0  0  0
  -21.2820   -3.7720   26.0230 F   0  0  0  0  0  0  0  0  0  0  0  0
  -22.7400  -13.5500   21.1370 C   0  0  0  0  0  0  0  0  0  0  0  0
  -22.0130  -12.8500   21.9990 N   0  0  0  0  0  0  0  0  0  0  0  0
  -22.3010  -14.5780   20.6220 O   0  0  0  0  0  0  0  0  0  0  0  0
  -22.3820  -12.0220   22.4400 H   0  0  0  0  0  0  0  0  0  0  0  0
  -21.0770  -13.1530   22.2240 H   0  0  0  0  0  0  0  0  0  0  0  0
  -25.3590  -15.2230   20.3060 N   0  0  0  0  0  0  0  0  0  0  0  0
  -24.5720  -15.8590   20.3780 H   0  0  0  0  0  0  0  0  0  0  0  0
  -26.2000  -15.6670   19.9630 H   0  0  0  0  0  0  0  0  0  0  0  0
  -28.8670  -24.2280   20.3620 C   0  0  0  0  0  0  0  0  0  0  0  0
  -28.6590  -24.2400   21.5800 O   0  0  0  0  0  0  0  0  0  0  0  0
  -28.6120  -25.4970   19.4930 C   0  0  0  0  0  2  0  0  0  0  0  0
  -28.4000  -26.7080   20.2490 O   0  0  0  0  0  0  0  0  0  0  0  0
  -24.5540  -31.8720   23.2350 C   0  0  0  0  0  0  0  0  0  0  0  0
  -27.2140  -27.4200   20.1660 C   0  0  0  0  0  0  0  0  0  0  0  0
  -23.3580  -30.4800   21.5770 C   0  0  0  0  0  3  0  0  0  0  0  0
  -24.8190  -28.9480   20.1510 C   0  0  0  0  0  0  0  0  0  0  0  0
  -25.8840  -30.8380   21.3930 C   0  0  0  0  0  2  0  0  0  0  0  0
  -25.9720  -29.4670   20.7500 C   0  0  0  0  0  0  0  0  0  0  0  0
  -27.1660  -28.7090   20.7530 C   0  0  0  0  0  3  0  0  0  0  0  0
  -26.0350  -26.9190   19.5630 C   0  0  0  0  0  3  0  0  0  0  0  0
  -24.8480  -27.6770   19.5530 C   0  0  0  0  0  3  0  0  0  0  0  0
  -23.5730  -29.8060   20.1940 C   0  0  0  0  0  2  0  0  0  0  0  0
  -24.6180  -31.0790   22.1280 N   0  0  0  0  0  0  0  0  0  0  0  0
  -23.4690  -32.1430   23.7700 O   0  0  0  0  0  0  0  0  0  0  0  0
  -22.6990  -29.4560   22.5290 C   0  0  0  0  0  0  0  0  0  0  0  0
  -21.3750  -29.2790   22.3940 N   0  0  0  0  0  0  0  0  0  0  0  0
  -23.3770  -28.8240   23.3430 O   0  0  0  0  0  0  0  0  0  0  0  0
  -20.8910  -29.8410   21.7080 H   0  0  0  0  0  0  0  0  0  0  0  0
  -17.9910  -28.1060   22.8790 C   0  0  0  0  0  0  0  0  0  0  0  0
  -20.5510  -28.3380   23.1540 C   0  0  0  0  0  3  0  0  0  0  0  0
  -20.6410  -26.9150   22.5600 C   0  0  0  0  0  2  0  0  0  0  0  0
  -19.5360  -26.6140   21.5420 C   0  0  0  0  0  2  0  0  0  0  0  0
  -18.1560  -26.7630   22.1880 C   0  0  0  0  0  2  0  0  0  0  0  0
  -19.1160  -28.8530   23.3190 C   0  0  0  0  0  0  0  0  0  0  0  0
  -18.9090  -30.1110   23.9240 C   0  0  0  0  0  3  0  0  0  0  0  0
  -17.6080  -30.6210   24.0980 C   0  0  0  0  0  3  0  0  0  0  0  0
  -16.4970  -29.8710   23.6740 C   0  0  0  0  0  3  0  0  0  0  0  0
  -16.6910  -28.6160   23.0700 C   0  0  0  0  0  3  0  0  0  0  0  0
  -25.8350  -32.5000   23.8680 C   0  0  0  0  0  3  0  0  0  0  0  0
  -25.5310  -33.9000   24.1900 N   0  0  0  0  0  0  0  0  0  0  0  0
  -25.8810  -34.9480   23.4330 C   0  0  0  0  0  0  0  0  0  0  0  0
  -26.5660  -34.8370   22.4110 O   0  0  0  0  0  0  0  0  0  0  0  0
  -24.9250  -34.0600   24.9820 H   0  0  0  0  0  0  0  0  0  0  0  0
  -24.1780  -36.7560   23.0380 C   0  0  0  0  0  1  0  0  0  0  0  0
  -25.3950  -36.3400   23.8780 C   0  0  0  0  0  3  0  0  0  0  0  0
  -27.5170  -37.2090   24.7590 C   0  0  0  0  0  1  0  0  0  0  0  0
  -26.4390  -37.3850   23.7910 N   0  0  0  0  0  0  0  0  0  0  0  0
  -26.0360  -38.3080   23.9290 H   0  0  0  0  0  0  0  0  0  0  0  0
  -26.3360  -31.7290   25.1510 C   0  0  1  0  0  0  0  0  0  0  0  0
  -25.2320  -31.4980   26.2100 C   0  0  0  0  0  1  0  0  0  0  0  0
  -26.9150  -30.3480   24.7650 C   0  0  0  0  0  1  0  0  0  0  0  0
  -27.4840  -32.5200   25.8240 C   0  0  0  0  0  1  0  0  0  0  0  0
  -30.8270  -23.2980   18.9740 C   0  0  0  0  0  2  0  0  0  0  0  0
  -30.8170  -21.7040   17.0090 C   0  0  0  0  0  1  0  0  0  0  0  0
  -29.9220  -24.0340   16.6660 C   0  0  0  0  0  1  0  0  0  0  0  0
  -32.3550  -23.6750   17.0270 C   0  0  0  0  0  1  0  0  0  0  0  0
  -30.9560  -23.1770   17.4310 C   0  0  1  0  0  0  0  0  0  0  0  0
  1 93  1  0
  1 49  1  0
  1  3  1  0
  2  3  1  0
  2  9  1  0
  3  5  1  0
  4  2  2  0
  6  9  2  0
  6  8  1  0
  8  7  2  0
  9 10  1  0
 10  7  1  0
 11 19  1  0
 12 17  1  0
 13 14  1  0
 13 12  1  0
 15 14  1  0
 15 24  1  0
 15 16  1  0
 17 11  1  0
 17 16  1  0
 18 11  2  0
 19  8  1  0
 19 20  1  0
 21 22  2  0
 22 41  1  0
 23 22  1  0
 23 26  1  0
 24 21  1  0
 24 25  1  0
 25 23  2  0
 26 27  1  0
 27 28  2  0
 29 32  1  0
 29 28  1  0
 30 29  2  0
 31 30  1  0
 31 26  2  0
 32 33  1  0
 33 34  1  0
 34 35  2  0
 36 35  1  0
 36 40  1  0
 37 36  2  0
 38 33  2  0
 38 37  1  0
 39 38  1  0
 41 42  1  0
 42 45  1  0
 42 44  1  0
 43 41  2  0
 46 47  1  0
 46 21  1  0
 48 46  1  0
 49 50  2  0
 51 52  1  0
 51 49  1  0
 53 64  2  0
 54 52  1  0
 54 59  1  0
 55 63  1  0
 55 65  1  0
 56 62  1  0
 56 58  1  0
 57 63  1  0
 58 59  2  0
 58 57  1  0
 60 54  2  0
 61 60  1  0
 61 56  2  0
 62 55  1  0
 63 53  1  0
 65 67  2  0
 66 65  1  0
 68 66  1  0
 69 78  2  0
 69 74  1  0
 70 66  1  0
 70 74  1  0
 71 70  1  0
 72 73  1  0
 72 71  1  0
 73 69  1  0
 74 75  2  0
 75 76  1  0
 77 76  2  0
 78 77  1  0
 79 53  1  0
 79 80  1  0
 79 89  1  0
 80 83  1  0
 81 85  1  0
 81 80  1  0
 82 81  2  0
 85 84  1  0
 87 85  1  0
 87 88  1  0
 87 86  1  0
 89 92  1  1
 89 90  1  0
 91 89  1  0
 97 94  1  1
 95 97  1  0
 96 97  1  0
 97 93  1  0
M  ISO  4  11 100  19 100  51 101  52 101
M  END
>  <TORSDO>  (17) 
F 22

>  <SCORE>  (17) 
-13.469

>  <name>  (17) 
16

>  <ligand_id>  (17) 
16

>  <original_smiles>  (17) 
[H]c1sc(C(=O)N([H])C([H])(C(=O)C([H])([H])Oc2c([H])c([H])c3c(c2[H])C([H])([H])N(C(=O)C([H])(N([H])C(=O)C([H])(N([H])C([H])([H])[H])C([H])([H])[H])C(C([H])([H])[H])(C([H])([H])[H])C([H])([H])[H])C([H])(C(=O)N([H])C2([H])c4c([H])c([H])c([H])c([H])c4C([H])([H])C([H])([H])C2([H])[H])C3([H])[H])C([H])([H])C(C([H])([H])[H])(C([H])([H])[H])C([H])([H])[H])c([H])c1N([H])C(=O)N1C([H])([H])C([H])([H])C([H])([H])C([H])(n2nc(-c3c([H])c([H])c(Oc4c([H])c([H])c(F)c([H])c4F)c([H])c3[H])c(C(=O)N([H])[H])c2N([H])[H])C1([H])[H]

>  <smiles>  (17) 
[H]c1sc(C(=O)N([H])C([H])(C(=O)C([H])([H])Oc2c([H])c([H])c3c(c2[H])C([H])([H])N(C(=O)C([H])(N([H])C(=O)C([H])(N([H])C([H])([H])[H])C([H])([H])[H])C(C([H])([H])[H])(C([H])([H])[H])C([H])([H])[H])C([H])(C(=O)N([H])C2([H])c4c([H])c([H])c([H])c([H])c4C([H])([H])C([H])([H])C2([H])[H])C3([H])[H])C([H])([H])C(C([H])([H])[H])(C([H])([H])[H])C([H])([H])[H])c([H])c1N([H])C(=O)N1C([H])([H])C([H])([H])C([H])([H])C([H])(n2nc(-c3c([H])c([H])c(Oc4c([H])c([H])c(F)c([H])c4F)c([H])c3[H])c(C(=O)N([H])[H])c2N([H])[H])C1([H])[H]

$$$$
17:0:0
     RDKit          3D

 95103  0  0  1  0  0  0  0  0999 V2000
  -29.2130  -19.8780   21.7440 C   0  0  0  0  0  3  0  0  0  0  0  0
  -29.8500  -18.5820   21.6740 C   0  0  0  0  0  0  0  0  0  0  0  0
  -29.7720  -18.0210   20.4060 C   0  0  0  0  0  0  0  0  0  0  0  0
  -28.7090  -20.3130   20.5420 C   0  0  0  0  0  0  0  0  0  0  0  0
  -28.9260  -19.1050   19.3150 S   0  0  0  0  0  0  0  0  0  0  0  0
  -30.8440  -14.4870   19.7750 C   0  0  0  0  0  0  0  0  0  0  0  0
  -30.3850  -12.3540   18.6730 C   0  0  0  0  0  2  0  0  0  0  0  0
  -29.3500  -12.6520   17.5660 C   0  0  0  0  0  2  0  0  0  0  0  0
  -27.9190  -12.5360   18.1250 C   0  0  0  0  0  2  0  0  0  0  0  0
  -27.7280  -13.3120   19.4580 C   0  0  0  0  0  3  0  0  0  0  0  0
  -28.8840  -13.0340   20.4460 C   0  0  0  0  0  2  0  0  0  0  0  0
  -30.1490  -13.3170   19.7590 N   0  0  0  0  0  0  0  0  0  0  0  0
  -31.9770  -14.5640   19.2910 O   0  0  0  0  0  0  0  0  0  0  0  0
  -30.3850  -16.8480   19.7070 C   0  0  0  0  0  0  0  0  0  0  0  0
  -30.1460  -15.5890   20.1430 N   0  0  0  0  0  0  0  0  0  0  0  0
  -31.0660  -17.0850   18.6990 O   0  0  0  0  0  0  0  0  0  0  0  0
  -29.3680  -15.4620   20.7680 H   0  0  0  0  0  0  0  0  0  0  0  0
  -25.4170  -13.9030   20.4090 C   0  0  0  0  0  0  0  0  0  0  0  0
  -24.3820  -13.1250   20.8510 C   0  0  0  0  0  0  0  0  0  0  0  0
  -24.8250  -11.7720   20.7320 C   0  0  0  0  0  0  0  0  0  0  0  0
  -26.4260  -13.0250   20.0530 N   0  0  0  0  0  0  0  0  0  0  0  0
  -26.0800  -11.7360   20.3050 N   0  0  0  0  0  0  0  0  0  0  0  0
  -24.1060  -10.5100   20.9530 C   0  0  0  0  0  0  0  0  0  0  0  0
  -24.5590   -9.5570   21.8910 C   0  0  0  0  0  3  0  0  0  0  0  0
  -23.8440   -8.3580   22.0950 C   0  0  0  0  0  3  0  0  0  0  0  0
  -22.6590   -8.1050   21.3640 C   0  0  0  0  0  0  0  0  0  0  0  0
  -22.2230   -9.0470   20.4170 C   0  0  0  0  0  3  0  0  0  0  0  0
  -22.9400  -10.2390   20.2100 C   0  0  0  0  0  3  0  0  0  0  0  0
  -21.9090   -6.9600   21.4780 O   0  0  0  0  0  0  0  0  0  0  0  0
  -21.8020   -6.2870   22.6680 C   0  0  0  0  0  0  0  0  0  0  0  0
  -21.3060   -6.9110   23.8320 C   0  0  0  0  0  3  0  0  0  0  0  0
  -21.1490   -6.1650   25.0180 C   0  0  0  0  0  3  0  0  0  0  0  0
  -21.4750   -4.7950   25.0370 C   0  0  0  0  0  0  0  0  0  0  0  0
  -21.9640   -4.1720   23.8750 C   0  0  0  0  0  3  0  0  0  0  0  0
  -22.1260   -4.9160   22.6940 C   0  0  0  0  0  0  0  0  0  0  0  0
  -22.5780   -4.3080   21.5710 F   0  0  0  0  0  0  0  0  0  0  0  0
  -21.3160   -4.0750   26.1730 F   0  0  0  0  0  0  0  0  0  0  0  0
  -23.0230  -13.6050   21.2710 C   0  0  0  0  0  0  0  0  0  0  0  0
  -22.3830  -12.9010   22.2000 N   0  0  0  0  0  0  0  0  0  0  0  0
  -22.5410  -14.6380   20.8120 O   0  0  0  0  0  0  0  0  0  0  0  0
  -22.7860  -12.0590   22.5830 H   0  0  0  0  0  0  0  0  0  0  0  0
  -21.4830  -13.2140   22.5370 H   0  0  0  0  0  0  0  0  0  0  0  0
  -25.5750  -15.2790   20.2630 N   0  0  0  0  0  0  0  0  0  0  0  0
  -24.8160  -15.9190   20.4630 H   0  0  0  0  0  0  0  0  0  0  0  0
  -26.3790  -15.7320   19.8520 H   0  0  0  0  0  0  0  0  0  0  0  0
  -30.5610  -17.9640   22.7990 C   0  0  0  0  0  0  0  0  0  0  0  0
  -30.9210  -18.8480   23.9900 C   0  0  0  0  0  1  0  0  0  0  0  0
  -30.9230  -16.7860   22.8490 O   0  0  0  0  0  0  0  0  0  0  0  0
  -28.0800  -21.5080   20.1700 N   0  0  0  0  0  0  0  0  0  0  0  0
  -27.8040  -21.6480   19.1980 H   0  0  0  0  0  0  0  0  0  0  0  0
  -28.2090  -22.7730   20.9060 C   0  0  0  0  0  2  0  0  0  0  0  0
  -27.8610  -23.9990   20.0200 C   0  0  0  0  0  0  0  0  0  0  0  0
  -27.3900  -23.8290   18.8890 O   0  0  0  0  0  0  0  0  0  0  0  0
  -28.1320  -25.4230   20.5660 C   0  0  0  0  0  2  0  0  0  0  0  0
  -27.9750  -26.4490   19.5620 O   0  0  0  0  0  0  0  0  0  0  0  0
  -24.4920  -31.5920   23.0580 C   0  0  0  0  0  0  0  0  0  0  0  0
  -26.8360  -27.2110   19.6740 C   0  0  0  0  0  0  0  0  0  0  0  0
  -23.1580  -30.2800   21.4420 C   0  0  0  0  0  3  0  0  0  0  0  0
  -24.4870  -28.7700   19.8770 C   0  0  0  0  0  0  0  0  0  0  0  0
  -25.6730  -30.5980   21.1000 C   0  0  0  0  0  2  0  0  0  0  0  0
  -25.6920  -29.2480   20.4060 C   0  0  0  0  0  0  0  0  0  0  0  0
  -26.8730  -28.4800   20.2980 C   0  0  0  0  0  3  0  0  0  0  0  0
  -25.6150  -26.7420   19.1450 C   0  0  0  0  0  3  0  0  0  0  0  0
  -24.4430  -27.5130   19.2440 C   0  0  0  0  0  3  0  0  0  0  0  0
  -23.2670  -29.6500   20.0310 C   0  0  0  0  0  2  0  0  0  0  0  0
  -24.4630  -30.8380   21.9230 N   0  0  0  0  0  0  0  0  0  0  0  0
  -23.4520  -31.8670   23.6730 O   0  0  0  0  0  0  0  0  0  0  0  0
  -22.5440  -29.2390   22.4040 C   0  0  0  0  0  0  0  0  0  0  0  0
  -21.2240  -29.0240   22.2880 N   0  0  0  0  0  0  0  0  0  0  0  0
  -23.2510  -28.6240   23.2060 O   0  0  0  0  0  0  0  0  0  0  0  0
  -20.7130  -29.5670   21.6040 H   0  0  0  0  0  0  0  0  0  0  0  0
  -17.8990  -27.6780   22.7610 C   0  0  0  0  0  0  0  0  0  0  0  0
  -20.4400  -28.0620   23.0630 C   0  0  0  0  0  3  0  0  0  0  0  0
  -20.6170  -26.6290   22.5130 C   0  0  0  0  0  2  0  0  0  0  0  0
  -19.5460  -26.2370   21.4880 C   0  0  0  0  0  2  0  0  0  0  0  0
  -18.1490  -26.3300   22.1070 C   0  0  0  0  0  2  0  0  0  0  0  0
  -18.9760  -28.4990   23.1930 C   0  0  0  0  0  0  0  0  0  0  0  0
  -18.6900  -29.7600   23.7620 C   0  0  0  0  0  3  0  0  0  0  0  0
  -17.3620  -30.2060   23.8970 C   0  0  0  0  0  3  0  0  0  0  0  0
  -16.3010  -29.3870   23.4780 C   0  0  0  0  0  3  0  0  0  0  0  0
  -16.5710  -28.1220   22.9220 C   0  0  0  0  0  3  0  0  0  0  0  0
  -25.8250  -32.1760   23.6200 C   0  0  0  0  0  3  0  0  0  0  0  0
  -25.5520  -33.5460   24.0740 N   0  0  0  0  0  0  0  0  0  0  0  0
  -25.8440  -34.6520   23.3750 C   0  0  0  0  0  0  0  0  0  0  0  0
  -26.4430  -34.6230   22.2980 O   0  0  0  0  0  0  0  0  0  0  0  0
  -25.0070  -33.6410   24.9190 H   0  0  0  0  0  0  0  0  0  0  0  0
  -24.1110  -36.4770   23.2740 C   0  0  0  0  0  1  0  0  0  0  0  0
  -25.3980  -36.0030   23.9680 C   0  0  0  0  0  3  0  0  0  0  0  0
  -27.5920  -36.8110   24.7180 C   0  0  0  0  0  1  0  0  0  0  0  0
  -26.4280  -37.0600   23.8720 N   0  0  0  0  0  0  0  0  0  0  0  0
  -26.0390  -37.9640   24.1300 H   0  0  0  0  0  0  0  0  0  0  0  0
  -26.4420  -31.3110   24.7880 C   0  0  1  0  0  0  0  0  0  0  0  0
  -25.4380  -30.9710   25.9170 C   0  0  0  0  0  1  0  0  0  0  0  0
  -27.0000  -29.9760   24.2420 C   0  0  0  0  0  1  0  0  0  0  0  0
  -27.6370  -32.0650   25.4180 C   0  0  0  0  0  1  0  0  0  0  0  0
  2  1  1  0
  2 46  1  0
  3  2  2  0
  4  1  2  0
  5  3  1  0
  5  4  1  0
  6 15  1  0
  7 12  1  0
  8  9  1  0
  8  7  1  0
 10  9  1  0
 10 21  1  0
 10 11  1  0
 12  6  1  0
 12 11  1  0
 13  6  2  0
 14 15  1  0
 14  3  1  0
 15 17  1  0
 16 14  2  0
 18 19  2  0
 19 38  1  0
 20 19  1  0
 20 23  1  0
 21 22  1  0
 21 18  1  0
 22 20  2  0
 23 24  1  0
 24 25  2  0
 26 29  1  0
 26 25  1  0
 27 26  2  0
 28 27  1  0
 28 23  2  0
 29 30  1  0
 30 35  2  0
 30 31  1  0
 31 32  2  0
 32 33  1  0
 33 37  1  0
 34 33  2  0
 35 34  1  0
 36 35  1  0
 38 39  1  0
 39 42  1  0
 39 41  1  0
 40 38  2  0
 43 18  1  0
 43 44  1  0
 45 43  1  0
 46 48  2  0
 46 47  1  0
 49  4  1  0
 49 51  1  0
 50 49  1  0
 52 54  1  0
 52 51  1  0
 53 52  2  0
 55 57  1  0
 55 54  1  0
 56 67  2  0
 57 62  1  0
 58 66  1  0
 58 68  1  0
 59 65  1  0
 59 61  1  0
 60 66  1  0
 61 60  1  0
 62 61  2  0
 63 64  1  0
 63 57  2  0
 64 59  2  0
 65 58  1  0
 66 56  1  0
 68 70  2  0
 69 68  1  0
 71 69  1  0
 72 81  2  0
 72 77  1  0
 73 69  1  0
 73 77  1  0
 74 73  1  0
 75 76  1  0
 75 74  1  0
 76 72  1  0
 77 78  2  0
 78 79  1  0
 80 79  2  0
 81 80  1  0
 82 56  1  0
 82 83  1  0
 82 92  1  0
 83 86  1  0
 84 88  1  0
 84 83  1  0
 85 84  2  0
 88 87  1  0
 90 88  1  0
 90 91  1  0
 90 89  1  0
 92 95  1  1
 92 93  1  0
 94 92  1  0
M  ISO  4   6 100  15 100  54 101  55 101
M  END
>  <TORSDO>  (18) 
F 21

>  <SCORE>  (18) 
-11.212

>  <name>  (18) 
17

>  <ligand_id>  (18) 
17

>  <original_smiles>  (18) 
[H]c1c([H])c([H])c2c(c1[H])C([H])([H])C([H])([H])C([H])([H])C2([H])N([H])C(=O)C1([H])N(C(=O)C([H])(N([H])C(=O)C([H])(N([H])C([H])([H])[H])C([H])([H])[H])C(C([H])([H])[H])(C([H])([H])[H])C([H])([H])[H])C([H])([H])c2c([H])c(OC([H])([H])C(=O)C([H])([H])N([H])c3sc(C(=O)N([H])C(=O)N4C([H])([H])C([H])([H])C([H])([H])C([H])(n5nc(-c6c([H])c([H])c(Oc7c([H])c([H])c(F)c([H])c7F)c([H])c6[H])c(C(=O)N([H])[H])c5N([H])[H])C4([H])[H])c(C(=O)C([H])([H])[H])c3[H])c([H])c([H])c2C1([H])[H]

>  <smiles>  (18) 
[H]c1c([H])c([H])c2c(c1[H])C([H])([H])C([H])([H])C([H])([H])C2([H])N([H])C(=O)C1([H])N(C(=O)C([H])(N([H])C(=O)C([H])(N([H])C([H])([H])[H])C([H])([H])[H])C(C([H])([H])[H])(C([H])([H])[H])C([H])([H])[H])C([H])([H])c2c([H])c(OC([H])([H])C(=O)C([H])([H])N([H])c3sc(C(=O)N([H])C(=O)N4C([H])([H])C([H])([H])C([H])([H])C([H])(n5nc(-c6c([H])c([H])c(Oc7c([H])c([H])c(F)c([H])c7F)c([H])c6[H])c(C(=O)N([H])[H])c5N([H])[H])C4([H])[H])c(C(=O)C([H])([H])[H])c3[H])c([H])c([H])c2C1([H])[H]

$$$$
18:0:0
     RDKit          3D

 94102  0  0  1  0  0  0  0  0999 V2000
  -28.7210  -19.5560   20.1910 C   0  0  0  0  0  3  0  0  0  0  0  0
  -28.8630  -18.1470   19.9830 C   0  0  0  0  0  0  0  0  0  0  0  0
  -30.2060  -17.9070   19.7590 C   0  0  0  0  0  0  0  0  0  0  0  0
  -29.9720  -20.0990   20.1110 C   0  0  0  0  0  0  0  0  0  0  0  0
  -30.8810  -19.1150   19.8280 O   0  0  0  0  0  0  0  0  0  0  0  0
  -29.6150  -22.4770   20.7230 C   0  0  0  0  0  0  0  0  0  0  0  0
  -30.3350  -21.4190   20.2590 N   0  0  0  0  0  0  0  0  0  0  0  0
  -28.4640  -22.3630   21.1520 O   0  0  0  0  0  0  0  0  0  0  0  0
  -31.2880  -21.6310   19.9990 H   0  0  0  0  0  0  0  0  0  0  0  0
  -30.2730  -23.8910   20.7150 C   0  0  0  0  0  2  0  0  0  0  0  0
  -29.4820  -24.9960   21.4940 C   0  0  0  0  0  2  0  0  0  0  0  0
  -29.6470  -26.3640   21.0290 O   0  0  0  0  0  0  0  0  0  0  0  0
  -25.1520  -31.4060   23.3820 C   0  0  0  0  0  0  0  0  0  0  0  0
  -28.4680  -27.0620   20.8380 C   0  0  0  0  0  0  0  0  0  0  0  0
  -24.2660  -29.8690   21.6610 C   0  0  0  0  0  3  0  0  0  0  0  0
  -25.9960  -28.4020   20.4850 C   0  0  0  0  0  0  0  0  0  0  0  0
  -26.7670  -30.4070   21.7610 C   0  0  0  0  0  2  0  0  0  0  0  0
  -27.0340  -29.0270   21.1900 C   0  0  0  0  0  0  0  0  0  0  0  0
  -28.2760  -28.3660   21.3610 C   0  0  0  0  0  3  0  0  0  0  0  0
  -27.4150  -26.4610   20.1150 C   0  0  0  0  0  3  0  0  0  0  0  0
  -26.1830  -27.1180   19.9440 C   0  0  0  0  0  3  0  0  0  0  0  0
  -24.6970  -29.1660   20.3460 C   0  0  0  0  0  2  0  0  0  0  0  0
  -25.4050  -30.5800   22.3270 N   0  0  0  0  0  0  0  0  0  0  0  0
  -23.9950  -31.6110   23.7750 O   0  0  0  0  0  0  0  0  0  0  0  0
  -23.5730  -28.8330   22.5750 C   0  0  0  0  0  0  0  0  0  0  0  0
  -22.2900  -28.5510   22.2960 N   0  0  0  0  0  0  0  0  0  0  0  0
  -24.1920  -28.2830   23.4900 O   0  0  0  0  0  0  0  0  0  0  0  0
  -21.8500  -29.0460   21.5330 H   0  0  0  0  0  0  0  0  0  0  0  0
  -18.9520  -27.1810   22.4920 C   0  0  0  0  0  0  0  0  0  0  0  0
  -21.4560  -27.5750   22.9980 C   0  0  0  0  0  3  0  0  0  0  0  0
  -21.6850  -26.1470   22.4500 C   0  0  0  0  0  2  0  0  0  0  0  0
  -20.7020  -25.7630   21.3390 C   0  0  0  0  0  2  0  0  0  0  0  0
  -19.2600  -25.8390   21.8490 C   0  0  0  0  0  2  0  0  0  0  0  0
  -19.9840  -28.0030   23.0160 C   0  0  0  0  0  0  0  0  0  0  0  0
  -19.6460  -29.2570   23.5680 C   0  0  0  0  0  3  0  0  0  0  0  0
  -18.3080  -29.6920   23.6040 C   0  0  0  0  0  3  0  0  0  0  0  0
  -17.2890  -28.8680   23.0960 C   0  0  0  0  0  3  0  0  0  0  0  0
  -17.6100  -27.6140   22.5470 C   0  0  0  0  0  3  0  0  0  0  0  0
  -26.3020  -32.1520   24.1310 C   0  0  0  0  0  3  0  0  0  0  0  0
  -25.8500  -33.5280   24.3720 N   0  0  0  0  0  0  0  0  0  0  0  0
  -26.1710  -34.5800   23.6050 C   0  0  0  0  0  0  0  0  0  0  0  0
  -26.9450  -34.4990   22.6460 O   0  0  0  0  0  0  0  0  0  0  0  0
  -25.1680  -33.6580   25.1040 H   0  0  0  0  0  0  0  0  0  0  0  0
  -24.3390  -36.2030   23.0240 C   0  0  0  0  0  1  0  0  0  0  0  0
  -25.5320  -35.9370   23.9560 C   0  0  0  0  0  3  0  0  0  0  0  0
  -27.5030  -37.0360   24.9260 C   0  0  0  0  0  1  0  0  0  0  0  0
  -26.4800  -37.0700   23.8840 N   0  0  0  0  0  0  0  0  0  0  0  0
  -25.9870  -37.9570   23.9530 H   0  0  0  0  0  0  0  0  0  0  0  0
  -26.7190  -31.4560   25.4850 C   0  0  1  0  0  0  0  0  0  0  0  0
  -25.5210  -31.0980   26.3940 C   0  0  0  0  0  1  0  0  0  0  0  0
  -27.5080  -30.1540   25.2090 C   0  0  0  0  0  1  0  0  0  0  0  0
  -27.6620  -32.3860   26.2830 C   0  0  0  0  0  1  0  0  0  0  0  0
  -27.7940  -17.1190   20.0180 C   0  0  0  0  0  0  0  0  0  0  0  0
  -26.3650  -17.6310   20.1460 C   0  0  0  0  0  1  0  0  0  0  0  0
  -28.0030  -15.9070   19.9520 O   0  0  0  0  0  0  0  0  0  0  0  0
  -31.1130  -16.6940   19.5520 C   0  0  0  0  0  2  0  0  0  0  0  0
  -31.2830  -14.2040   19.6310 C   0  0  0  0  0  0  0  0  0  0  0  0
  -30.9340  -11.8520   18.9740 C   0  0  0  0  0  2  0  0  0  0  0  0
  -29.9200  -11.8060   17.8120 C   0  0  0  0  0  2  0  0  0  0  0  0
  -28.4780  -11.7560   18.3530 C   0  0  0  0  0  2  0  0  0  0  0  0
  -28.2070  -12.8320   19.4410 C   0  0  0  0  0  3  0  0  0  0  0  0
  -29.3330  -12.8510   20.5010 C   0  0  0  0  0  2  0  0  0  0  0  0
  -30.6110  -13.0310   19.7980 N   0  0  0  0  0  0  0  0  0  0  0  0
  -32.3930  -14.2520   19.0960 O   0  0  0  0  0  0  0  0  0  0  0  0
  -30.6140  -15.3460   19.9070 N   0  0  0  0  0  0  0  0  0  0  0  0
  -29.7250  -15.2910   20.3850 H   0  0  0  0  0  0  0  0  0  0  0  0
  -25.9850  -13.6190   20.4700 C   0  0  0  0  0  0  0  0  0  0  0  0
  -24.8800  -12.9330   20.8950 C   0  0  0  0  0  0  0  0  0  0  0  0
  -25.1740  -11.5480   20.7000 C   0  0  0  0  0  0  0  0  0  0  0  0
  -26.8920  -12.6580   20.0510 N   0  0  0  0  0  0  0  0  0  0  0  0
  -26.4130  -11.4030   20.2460 N   0  0  0  0  0  0  0  0  0  0  0  0
  -24.3290  -10.3580   20.8680 C   0  0  0  0  0  0  0  0  0  0  0  0
  -24.6070   -9.3890   21.8570 C   0  0  0  0  0  3  0  0  0  0  0  0
  -23.7700   -8.2640   22.0130 C   0  0  0  0  0  3  0  0  0  0  0  0
  -22.6390   -8.1000   21.1770 C   0  0  0  0  0  0  0  0  0  0  0  0
  -22.3800   -9.0560   20.1790 C   0  0  0  0  0  3  0  0  0  0  0  0
  -23.2170  -10.1730   20.0230 C   0  0  0  0  0  3  0  0  0  0  0  0
  -21.7840   -7.0250   21.2380 O   0  0  0  0  0  0  0  0  0  0  0  0
  -21.3920   -6.4840   22.4350 C   0  0  0  0  0  0  0  0  0  0  0  0
  -20.7230   -7.2480   23.4160 C   0  0  0  0  0  3  0  0  0  0  0  0
  -20.2750   -6.6350   24.6030 C   0  0  0  0  0  3  0  0  0  0  0  0
  -20.4880   -5.2580   24.8090 C   0  0  0  0  0  0  0  0  0  0  0  0
  -21.1500   -4.4950   23.8310 C   0  0  0  0  0  3  0  0  0  0  0  0
  -21.5970   -5.1060   22.6470 C   0  0  0  0  0  0  0  0  0  0  0  0
  -22.2160   -4.3600   21.6990 F   0  0  0  0  0  0  0  0  0  0  0  0
  -20.0510   -4.6660   25.9450 F   0  0  0  0  0  0  0  0  0  0  0  0
  -23.5830  -13.5270   21.3640 C   0  0  0  0  0  0  0  0  0  0  0  0
  -22.8960  -12.8550   22.2810 N   0  0  0  0  0  0  0  0  0  0  0  0
  -23.1970  -14.6210   20.9540 O   0  0  0  0  0  0  0  0  0  0  0  0
  -23.2250  -11.9680   22.6340 H   0  0  0  0  0  0  0  0  0  0  0  0
  -22.0290  -13.2320   22.6350 H   0  0  0  0  0  0  0  0  0  0  0  0
  -26.2850  -14.9750   20.3810 N   0  0  0  0  0  0  0  0  0  0  0  0
  -25.6030  -15.6890   20.6120 H   0  0  0  0  0  0  0  0  0  0  0  0
  -27.1380  -15.3490   19.9870 H   0  0  0  0  0  0  0  0  0  0  0  0
  2 53  1  0
  2  1  1  0
  3  5  1  0
  3  2  2  0
  4  1  2  0
  4  7  1  0
  5  4  1  0
  6  8  2  0
  7  6  1  0
  9  7  1  0
 10  6  1  0
 10 11  1  0
 12 11  1  0
 13 24  2  0
 14 12  1  0
 14 19  1  0
 15 23  1  0
 15 25  1  0
 16 18  1  0
 17 23  1  0
 18 19  2  0
 18 17  1  0
 20 14  2  0
 21 20  1  0
 21 16  2  0
 22 16  1  0
 22 15  1  0
 23 13  1  0
 25 27  2  0
 26 25  1  0
 28 26  1  0
 29 38  2  0
 29 34  1  0
 30 26  1  0
 30 34  1  0
 31 30  1  0
 32 33  1  0
 32 31  1  0
 33 29  1  0
 34 35  2  0
 35 36  1  0
 37 36  2  0
 38 37  1  0
 39 13  1  0
 39 40  1  0
 39 49  1  0
 40 43  1  0
 41 45  1  0
 41 40  1  0
 42 41  2  0
 45 44  1  0
 47 48  1  0
 47 45  1  0
 47 46  1  0
 49 52  1  1
 49 50  1  0
 51 49  1  0
 53 54  1  0
 55 53  2  0
 56  3  1  0
 56 65  1  0
 57 63  1  0
 57 65  1  0
 58 63  1  0
 59 60  1  0
 59 58  1  0
 61 60  1  0
 61 70  1  0
 61 62  1  0
 63 62  1  0
 64 57  2  0
 65 66  1  0
 67 68  2  0
 68 87  1  0
 69 72  1  0
 69 68  1  0
 70 71  1  0
 70 67  1  0
 71 69  2  0
 72 73  1  0
 73 74  2  0
 75 78  1  0
 75 74  1  0
 76 75  2  0
 77 76  1  0
 77 72  2  0
 78 79  1  0
 79 84  2  0
 79 80  1  0
 80 81  2  0
 81 82  1  0
 82 86  1  0
 83 82  2  0
 84 83  1  0
 85 84  1  0
 87 88  1  0
 88 90  1  0
 88 91  1  0
 89 87  2  0
 92 67  1  0
 92 93  1  0
 94 92  1  0
M  ISO  4  11 101  12 101  57 100  65 100
M  END
>  <TORSDO>  (19) 
F 21

>  <SCORE>  (19) 
-11.363

>  <name>  (19) 
18

>  <ligand_id>  (19) 
18

>  <original_smiles>  (19) 
[H]c1c([H])c([H])c2c(c1[H])C([H])([H])C([H])([H])C([H])([H])C2([H])N([H])C(=O)C1([H])N(C(=O)C([H])(N([H])C(=O)C([H])(N([H])C([H])([H])[H])C([H])([H])[H])C(C([H])([H])[H])(C([H])([H])[H])C([H])([H])[H])C([H])([H])c2c([H])c(OC([H])([H])C([H])([H])C(=O)N([H])c3oc(C([H])([H])N([H])C(=O)N4C([H])([H])C([H])([H])C([H])([H])C([H])(n5nc(-c6c([H])c([H])c(Oc7c([H])c([H])c(F)c([H])c7F)c([H])c6[H])c(C(=O)N([H])[H])c5N([H])[H])C4([H])[H])c(C(=O)C([H])([H])[H])c3[H])c([H])c([H])c2C1([H])[H]

>  <smiles>  (19) 
[H]c1c([H])c([H])c2c(c1[H])C([H])([H])C([H])([H])C([H])([H])C2([H])N([H])C(=O)C1([H])N(C(=O)C([H])(N([H])C(=O)C([H])(N([H])C([H])([H])[H])C([H])([H])[H])C(C([H])([H])[H])(C([H])([H])[H])C([H])([H])[H])C([H])([H])c2c([H])c(OC([H])([H])C([H])([H])C(=O)N([H])c3oc(C([H])([H])N([H])C(=O)N4C([H])([H])C([H])([H])C([H])([H])C([H])(n5nc(-c6c([H])c([H])c(Oc7c([H])c([H])c(F)c([H])c7F)c([H])c6[H])c(C(=O)N([H])[H])c5N([H])[H])C4([H])[H])c(C(=O)C([H])([H])[H])c3[H])c([H])c([H])c2C1([H])[H]

$$$$
19:0:0
     RDKit          3D

 90 98  0  0  1  0  0  0  0  0999 V2000
  -29.2020  -22.8390   20.8050 C   0  0  0  0  0  0  0  0  0  0  0  0
  -29.8830  -21.7410   20.3590 N   0  0  0  0  0  0  0  0  0  0  0  0
  -28.3510  -22.7660   21.6940 O   0  0  0  0  0  0  0  0  0  0  0  0
  -30.5130  -21.9160   19.5880 H   0  0  0  0  0  0  0  0  0  0  0  0
  -29.2640  -18.4770   21.7470 C   0  0  0  0  0  3  0  0  0  0  0  0
  -29.1530  -19.8990   21.8400 C   0  0  0  0  0  3  0  0  0  0  0  0
  -29.9860  -18.1860   20.6230 C   0  0  0  0  0  0  0  0  0  0  0  0
  -29.7790  -20.4120   20.7330 C   0  0  0  0  0  0  0  0  0  0  0  0
  -30.3150  -19.3760   19.9860 O   0  0  0  0  0  0  0  0  0  0  0  0
  -30.4550  -16.9170   20.0250 C   0  0  0  0  0  3  0  0  0  0  0  0
  -30.3350  -15.7390   20.5620 N   0  0  0  0  0  0  0  0  0  0  0  0
  -30.9900  -14.6660   19.9350 C   0  0  0  0  0  0  0  0  0  0  0  0
  -30.5900  -12.4830   18.8310 C   0  0  0  0  0  2  0  0  0  0  0  0
  -29.5590  -12.6830   17.7030 C   0  0  0  0  0  2  0  0  0  0  0  0
  -28.1220  -12.5410   18.2430 C   0  0  0  0  0  2  0  0  0  0  0  0
  -27.8820  -13.3610   19.5380 C   0  0  0  0  0  3  0  0  0  0  0  0
  -29.0340  -13.1710   20.5510 C   0  0  0  0  0  2  0  0  0  0  0  0
  -30.3020  -13.4840   19.8750 N   0  0  0  0  0  0  0  0  0  0  0  0
  -32.0720  -14.7800   19.3540 O   0  0  0  0  0  0  0  0  0  0  0  0
  -25.5590  -13.9450   20.4750 C   0  0  0  0  0  0  0  0  0  0  0  0
  -24.5120  -13.1650   20.8920 C   0  0  0  0  0  0  0  0  0  0  0  0
  -24.9470  -11.8130   20.7540 C   0  0  0  0  0  0  0  0  0  0  0  0
  -26.5730  -13.0660   20.1210 N   0  0  0  0  0  0  0  0  0  0  0  0
  -26.2100  -11.7740   20.3420 N   0  0  0  0  0  0  0  0  0  0  0  0
  -24.2160  -10.5510   20.9390 C   0  0  0  0  0  0  0  0  0  0  0  0
  -24.6330   -9.5900   21.8850 C   0  0  0  0  0  3  0  0  0  0  0  0
  -23.9040   -8.3930   22.0580 C   0  0  0  0  0  3  0  0  0  0  0  0
  -22.7460   -8.1460   21.2830 C   0  0  0  0  0  0  0  0  0  0  0  0
  -22.3490   -9.0970   20.3260 C   0  0  0  0  0  3  0  0  0  0  0  0
  -23.0760  -10.2870   20.1530 C   0  0  0  0  0  3  0  0  0  0  0  0
  -21.9920   -7.0000   21.3680 O   0  0  0  0  0  0  0  0  0  0  0  0
  -21.8260   -6.3310   22.5560 C   0  0  0  0  0  0  0  0  0  0  0  0
  -21.2550   -6.9500   23.6900 C   0  0  0  0  0  3  0  0  0  0  0  0
  -21.0400   -6.2030   24.8650 C   0  0  0  0  0  3  0  0  0  0  0  0
  -21.3850   -4.8380   24.9070 C   0  0  0  0  0  0  0  0  0  0  0  0
  -21.9480   -4.2200   23.7780 C   0  0  0  0  0  3  0  0  0  0  0  0
  -22.1630   -4.9630   22.6050 C   0  0  0  0  0  0  0  0  0  0  0  0
  -22.6880   -4.3540   21.5130 F   0  0  0  0  0  0  0  0  0  0  0  0
  -21.1680   -4.1200   26.0350 F   0  0  0  0  0  0  0  0  0  0  0  0
  -23.1500  -13.6450   21.3020 C   0  0  0  0  0  0  0  0  0  0  0  0
  -22.4940  -12.9230   22.2060 N   0  0  0  0  0  0  0  0  0  0  0  0
  -22.6800  -14.6910   20.8620 O   0  0  0  0  0  0  0  0  0  0  0  0
  -22.8910  -12.0790   22.5890 H   0  0  0  0  0  0  0  0  0  0  0  0
  -21.5840  -13.2240   22.5250 H   0  0  0  0  0  0  0  0  0  0  0  0
  -25.7240  -15.3200   20.3500 N   0  0  0  0  0  0  0  0  0  0  0  0
  -24.9660  -15.9710   20.5310 H   0  0  0  0  0  0  0  0  0  0  0  0
  -26.5650  -15.7700   20.0040 H   0  0  0  0  0  0  0  0  0  0  0  0
  -29.5010  -24.2530   20.2030 C   0  0  0  0  0  2  0  0  0  0  0  0
  -28.2380  -25.1770   20.0580 C   0  0  0  0  0  2  0  0  0  0  0  0
  -28.4330  -26.6210   19.9200 O   0  0  0  0  0  0  0  0  0  0  0  0
  -24.5300  -31.7140   23.1290 C   0  0  0  0  0  0  0  0  0  0  0  0
  -27.2660  -27.3890   19.9100 C   0  0  0  0  0  0  0  0  0  0  0  0
  -23.3450  -30.3130   21.4750 C   0  0  0  0  0  3  0  0  0  0  0  0
  -24.8260  -28.8620   19.9880 C   0  0  0  0  0  0  0  0  0  0  0  0
  -25.8600  -30.7520   21.2470 C   0  0  0  0  0  2  0  0  0  0  0  0
  -25.9830  -29.3980   20.5670 C   0  0  0  0  0  0  0  0  0  0  0  0
  -27.2070  -28.6750   20.5120 C   0  0  0  0  0  3  0  0  0  0  0  0
  -26.0800  -26.8960   19.3070 C   0  0  0  0  0  3  0  0  0  0  0  0
  -24.8750  -27.6150   19.3510 C   0  0  0  0  0  3  0  0  0  0  0  0
  -23.5560  -29.6810   20.0750 C   0  0  0  0  0  2  0  0  0  0  0  0
  -24.5980  -30.9400   22.0090 N   0  0  0  0  0  0  0  0  0  0  0  0
  -23.4470  -31.9430   23.6850 O   0  0  0  0  0  0  0  0  0  0  0  0
  -22.7390  -29.2470   22.4170 C   0  0  0  0  0  0  0  0  0  0  0  0
  -21.4240  -29.0080   22.2850 N   0  0  0  0  0  0  0  0  0  0  0  0
  -23.4490  -28.6410   23.2250 O   0  0  0  0  0  0  0  0  0  0  0  0
  -20.9050  -29.5550   21.6120 H   0  0  0  0  0  0  0  0  0  0  0  0
  -18.1090  -27.6420   22.7500 C   0  0  0  0  0  0  0  0  0  0  0  0
  -20.6490  -28.0230   23.0410 C   0  0  0  0  0  3  0  0  0  0  0  0
  -20.8230  -26.6030   22.4500 C   0  0  0  0  0  2  0  0  0  0  0  0
  -19.7460  -26.2400   21.4250 C   0  0  0  0  0  2  0  0  0  0  0  0
  -18.3550  -26.3090   22.0620 C   0  0  0  0  0  2  0  0  0  0  0  0
  -19.1850  -28.4530   23.1950 C   0  0  0  0  0  0  0  0  0  0  0  0
  -18.9030  -29.6980   23.7970 C   0  0  0  0  0  3  0  0  0  0  0  0
  -17.5740  -30.1340   23.9580 C   0  0  0  0  0  3  0  0  0  0  0  0
  -16.5110  -29.3200   23.5290 C   0  0  0  0  0  3  0  0  0  0  0  0
  -16.7790  -28.0750   22.9310 C   0  0  0  0  0  3  0  0  0  0  0  0
  -25.8040  -32.3700   23.7450 C   0  0  0  0  0  3  0  0  0  0  0  0
  -26.3480  -31.6040   25.0120 C   0  0  1  0  0  0  0  0  0  0  0  0
  -25.2680  -31.3310   26.0850 C   0  0  0  0  0  1  0  0  0  0  0  0
  -26.9630  -30.2440   24.6040 C   0  0  0  0  0  1  0  0  0  0  0  0
  -27.4800  -32.4220   25.6800 C   0  0  0  0  0  1  0  0  0  0  0  0
  -25.4670  -33.7590   24.0870 N   0  0  0  0  0  0  0  0  0  0  0  0
  -25.7830  -34.8240   23.3370 C   0  0  0  0  0  0  0  0  0  0  0  0
  -26.4640  -34.7420   22.3100 O   0  0  0  0  0  0  0  0  0  0  0  0
  -24.8650  -33.8960   24.8860 H   0  0  0  0  0  0  0  0  0  0  0  0
  -24.0360  -36.5940   22.9620 C   0  0  0  0  0  1  0  0  0  0  0  0
  -25.2620  -36.1990   23.8010 C   0  0  0  0  0  3  0  0  0  0  0  0
  -27.3580  -37.1040   24.7020 C   0  0  0  0  0  1  0  0  0  0  0  0
  -26.2810  -37.2680   23.7300 N   0  0  0  0  0  0  0  0  0  0  0  0
  -25.8570  -38.1780   23.8780 H   0  0  0  0  0  0  0  0  0  0  0  0
  1  3  2  0
  2  8  1  0
  2  1  1  0
  4  2  1  0
  5  6  1  0
  7  5  2  0
  8  6  2  0
  9  7  1  0
  9  8  1  0
 10 11  2  0
 10  7  1  0
 12 11  1  0
 13 18  1  0
 14 15  1  0
 14 13  1  0
 16 15  1  0
 16 23  1  0
 16 17  1  0
 18 12  1  0
 18 17  1  0
 19 12  2  0
 20 21  2  0
 21 40  1  0
 22 21  1  0
 22 25  1  0
 23 24  1  0
 23 20  1  0
 24 22  2  0
 25 26  1  0
 26 27  2  0
 28 31  1  0
 28 27  1  0
 29 28  2  0
 30 29  1  0
 30 25  2  0
 31 32  1  0
 32 37  2  0
 32 33  1  0
 33 34  2  0
 34 35  1  0
 35 39  1  0
 36 35  2  0
 37 36  1  0
 38 37  1  0
 40 41  1  0
 41 44  1  0
 41 43  1  0
 42 40  2  0
 45 20  1  0
 45 46  1  0
 47 45  1  0
 48  1  1  0
 49 48  1  0
 50 49  1  0
 51 62  2  0
 52 50  1  0
 52 57  1  0
 53 61  1  0
 53 63  1  0
 54 60  1  0
 54 56  1  0
 55 61  1  0
 56 55  1  0
 57 56  2  0
 58 59  1  0
 58 52  2  0
 59 54  2  0
 60 53  1  0
 61 51  1  0
 63 65  2  0
 64 63  1  0
 66 64  1  0
 67 76  2  0
 67 72  1  0
 68 64  1  0
 68 72  1  0
 69 68  1  0
 70 71  1  0
 70 69  1  0
 71 67  1  0
 72 73  2  0
 73 74  1  0
 75 74  2  0
 76 75  1  0
 77 51  1  0
 77 82  1  0
 77 78  1  0
 78 81  1  1
 78 79  1  0
 80 78  1  0
 82 85  1  0
 83 87  1  0
 83 82  1  0
 84 83  2  0
 87 86  1  0
 89 87  1  0
 89 90  1  0
 89 88  1  0
M  ISO  4  11 100  12 100  49 101  50 101
M  END
>  <TORSDO>  (20) 
F 20

>  <SCORE>  (20) 
-11.446

>  <name>  (20) 
19

>  <ligand_id>  (20) 
19

>  <original_smiles>  (20) 
[H]C(=NC(=O)N1C([H])([H])C([H])([H])C([H])([H])C([H])(n2nc(-c3c([H])c([H])c(Oc4c([H])c([H])c(F)c([H])c4F)c([H])c3[H])c(C(=O)N([H])[H])c2N([H])[H])C1([H])[H])c1oc(N([H])C(=O)C([H])([H])C([H])([H])Oc2c([H])c([H])c3c(c2[H])C([H])([H])N(C(=O)C([H])(N([H])C(=O)C([H])(N([H])C([H])([H])[H])C([H])([H])[H])C(C([H])([H])[H])(C([H])([H])[H])C([H])([H])[H])C([H])(C(=O)N([H])C2([H])c4c([H])c([H])c([H])c([H])c4C([H])([H])C([H])([H])C2([H])[H])C3([H])[H])c([H])c1[H]

>  <smiles>  (20) 
[H]C(=NC(=O)N1C([H])([H])C([H])([H])C([H])([H])C([H])(n2nc(-c3c([H])c([H])c(Oc4c([H])c([H])c(F)c([H])c4F)c([H])c3[H])c(C(=O)N([H])[H])c2N([H])[H])C1([H])[H])c1oc(N([H])C(=O)C([H])([H])C([H])([H])Oc2c([H])c([H])c3c(c2[H])C([H])([H])N(C(=O)C([H])(N([H])C(=O)C([H])(N([H])C([H])([H])[H])C([H])([H])[H])C(C([H])([H])[H])(C([H])([H])[H])C([H])([H])[H])C([H])(C(=O)N([H])C2([H])c4c([H])c([H])c([H])c([H])c4C([H])([H])C([H])([H])C2([H])[H])C3([H])[H])c([H])c1[H]

$$$$
20:0:0
     RDKit          3D

 93102  0  0  1  0  0  0  0  0999 V2000
  -28.4140  -23.4880   20.2460 C   0  0  0  0  0  0  0  0  0  0  0  0
  -29.0920  -22.4210   20.8100 C   0  0  0  0  0  0  0  0  0  0  0  0
  -29.4520  -19.8410   20.4600 C   0  0  0  0  0  0  0  0  0  0  0  0
  -27.7780  -22.9570   18.9850 C   0  0  0  0  0  3  0  0  0  0  0  0
  -28.3450  -21.5000   18.8240 C   0  0  0  0  0  3  0  0  0  0  0  0
  -29.8570  -22.4940   22.1220 C   0  0  0  0  0  1  0  0  0  0  0  0
  -29.0920  -21.1670   20.0550 N   0  0  0  0  0  0  0  0  0  0  0  0
  -29.4340  -19.5190   21.6490 O   0  0  0  0  0  0  0  0  0  0  0  0
  -30.5680  -19.1860   18.2370 C   0  0  0  0  0  3  0  0  0  0  0  0
  -29.9790  -18.7480   19.4610 C   0  0  0  0  0  0  0  0  0  0  0  0
  -30.2400  -17.3240   19.4490 C   0  0  0  0  0  0  0  0  0  0  0  0
  -31.0330  -18.2010   17.4960 N   0  0  0  0  0  0  0  0  0  0  0  0
  -30.8310  -17.0480   18.2460 O   0  0  0  0  0  0  0  0  0  0  0  0
  -30.7170  -14.9400   20.0560 C   0  0  0  0  0  0  0  0  0  0  0  0
  -30.4760  -12.6380   19.0950 C   0  0  0  0  0  2  0  0  0  0  0  0
  -29.5120  -12.6880   17.8890 C   0  0  0  0  0  2  0  0  0  0  0  0
  -28.0610  -12.4920   18.3670 C   0  0  0  0  0  2  0  0  0  0  0  0
  -27.7110  -13.3840   19.5870 C   0  0  0  0  0  3  0  0  0  0  0  0
  -28.8030  -13.3460   20.6810 C   0  0  0  0  0  2  0  0  0  0  0  0
  -30.0690  -13.7160   20.0380 N   0  0  0  0  0  0  0  0  0  0  0  0
  -31.9140  -14.9460   19.7400 O   0  0  0  0  0  0  0  0  0  0  0  0
  -30.0290  -16.1620   20.2320 N   0  0  0  0  0  0  0  0  0  0  0  0
  -29.1500  -16.1210   20.7250 H   0  0  0  0  0  0  0  0  0  0  0  0
  -25.3490  -13.9590   20.3860 C   0  0  0  0  0  0  0  0  0  0  0  0
  -24.2970  -13.1830   20.7840 C   0  0  0  0  0  0  0  0  0  0  0  0
  -24.7640  -11.8320   20.7400 C   0  0  0  0  0  0  0  0  0  0  0  0
  -26.3870  -13.0840   20.1180 N   0  0  0  0  0  0  0  0  0  0  0  0
  -26.0470  -11.7990   20.3970 N   0  0  0  0  0  0  0  0  0  0  0  0
  -24.0460  -10.5670   20.9470 C   0  0  0  0  0  0  0  0  0  0  0  0
  -24.4890   -9.6100   21.8860 C   0  0  0  0  0  3  0  0  0  0  0  0
  -23.7670   -8.4130   22.0840 C   0  0  0  0  0  3  0  0  0  0  0  0
  -22.5900   -8.1630   21.3400 C   0  0  0  0  0  0  0  0  0  0  0  0
  -22.1640   -9.1080   20.3910 C   0  0  0  0  0  3  0  0  0  0  0  0
  -22.8860  -10.2980   20.1920 C   0  0  0  0  0  3  0  0  0  0  0  0
  -21.8400   -7.0160   21.4440 O   0  0  0  0  0  0  0  0  0  0  0  0
  -21.7870   -6.2940   22.6090 C   0  0  0  0  0  0  0  0  0  0  0  0
  -21.3340   -6.8630   23.8180 C   0  0  0  0  0  3  0  0  0  0  0  0
  -21.2310   -6.0670   24.9760 C   0  0  0  0  0  3  0  0  0  0  0  0
  -21.5710   -4.7010   24.9240 C   0  0  0  0  0  0  0  0  0  0  0  0
  -22.0190   -4.1310   23.7190 C   0  0  0  0  0  3  0  0  0  0  0  0
  -22.1220   -4.9260   22.5630 C   0  0  0  0  0  0  0  0  0  0  0  0
  -22.5330   -4.3660   21.3990 F   0  0  0  0  0  0  0  0  0  0  0  0
  -21.4640   -3.9340   26.0340 F   0  0  0  0  0  0  0  0  0  0  0  0
  -22.9080  -13.6560   21.0920 C   0  0  0  0  0  0  0  0  0  0  0  0
  -22.2080  -12.9560   21.9770 N   0  0  0  0  0  0  0  0  0  0  0  0
  -22.4550  -14.6820   20.5870 O   0  0  0  0  0  0  0  0  0  0  0  0
  -22.5930  -12.1260   22.4040 H   0  0  0  0  0  0  0  0  0  0  0  0
  -21.2770  -13.2540   22.2310 H   0  0  0  0  0  0  0  0  0  0  0  0
  -25.5030  -15.3310   20.2050 N   0  0  0  0  0  0  0  0  0  0  0  0
  -24.7300  -15.9750   20.3220 H   0  0  0  0  0  0  0  0  0  0  0  0
  -26.3300  -15.7710   19.8230 H   0  0  0  0  0  0  0  0  0  0  0  0
  -28.0470  -24.9540   20.8560 C   0  0  0  0  0  2  0  0  0  0  0  0
  -28.2900  -26.3090   20.2000 O   0  0  0  0  0  0  0  0  0  0  0  0
  -24.6040  -31.8860   23.2110 C   0  0  0  0  0  0  0  0  0  0  0  0
  -27.2240  -27.2530   20.1900 C   0  0  0  0  0  0  0  0  0  0  0  0
  -23.4160  -30.4870   21.5640 C   0  0  0  0  0  3  0  0  0  0  0  0
  -24.8780  -28.9270   20.1500 C   0  0  0  0  0  0  0  0  0  0  0  0
  -25.9650  -30.7900   21.4030 C   0  0  0  0  0  2  0  0  0  0  0  0
  -26.0520  -29.4030   20.7520 C   0  0  0  0  0  0  0  0  0  0  0  0
  -27.2310  -28.5810   20.7560 C   0  0  0  0  0  3  0  0  0  0  0  0
  -26.0300  -26.8550   19.5600 C   0  0  0  0  0  3  0  0  0  0  0  0
  -24.8730  -27.6630   19.5440 C   0  0  0  0  0  3  0  0  0  0  0  0
  -23.6420  -29.8070   20.1880 C   0  0  0  0  0  2  0  0  0  0  0  0
  -24.6810  -31.0750   22.1150 N   0  0  0  0  0  0  0  0  0  0  0  0
  -23.5130  -32.1610   23.7380 O   0  0  0  0  0  0  0  0  0  0  0  0
  -22.7480  -29.4700   22.5220 C   0  0  0  0  0  0  0  0  0  0  0  0
  -21.4220  -29.2920   22.3930 N   0  0  0  0  0  0  0  0  0  0  0  0
  -23.4250  -28.8440   23.3420 O   0  0  0  0  0  0  0  0  0  0  0  0
  -20.9330  -29.8500   21.7060 H   0  0  0  0  0  0  0  0  0  0  0  0
  -18.0500  -28.0770   22.8960 C   0  0  0  0  0  0  0  0  0  0  0  0
  -20.6080  -28.3490   23.1620 C   0  0  0  0  0  3  0  0  0  0  0  0
  -20.7120  -26.9170   22.5840 C   0  0  0  0  0  2  0  0  0  0  0  0
  -19.6100  -26.5920   21.5710 C   0  0  0  0  0  2  0  0  0  0  0  0
  -18.2290  -26.7300   22.2180 C   0  0  0  0  0  2  0  0  0  0  0  0
  -19.1670  -28.8440   23.3250 C   0  0  0  0  0  0  0  0  0  0  0  0
  -18.9430  -30.1030   23.9230 C   0  0  0  0  0  3  0  0  0  0  0  0
  -17.6360  -30.5970   24.0920 C   0  0  0  0  0  3  0  0  0  0  0  0
  -16.5350  -29.8280   23.6770 C   0  0  0  0  0  3  0  0  0  0  0  0
  -16.7420  -28.5710   23.0860 C   0  0  0  0  0  3  0  0  0  0  0  0
  -25.8770  -32.5300   23.8420 C   0  0  0  0  0  3  0  0  0  0  0  0
  -25.5560  -33.9300   24.1630 N   0  0  0  0  0  0  0  0  0  0  0  0
  -25.8920  -34.9820   23.4050 C   0  0  0  0  0  0  0  0  0  0  0  0
  -26.5710  -34.8780   22.3800 O   0  0  0  0  0  0  0  0  0  0  0  0
  -24.9520  -34.0830   24.9570 H   0  0  0  0  0  0  0  0  0  0  0  0
  -24.1630  -36.7740   23.0320 C   0  0  0  0  0  1  0  0  0  0  0  0
  -25.3980  -36.3710   23.8550 C   0  0  0  0  0  3  0  0  0  0  0  0
  -27.5200  -37.2640   24.7110 C   0  0  0  0  0  1  0  0  0  0  0  0
  -26.4300  -37.4270   23.7510 N   0  0  0  0  0  0  0  0  0  0  0  0
  -26.0190  -38.3450   23.8890 H   0  0  0  0  0  0  0  0  0  0  0  0
  -26.3820  -31.7700   25.1300 C   0  0  1  0  0  0  0  0  0  0  0  0
  -25.2800  -31.5390   26.1900 C   0  0  0  0  0  1  0  0  0  0  0  0
  -26.9750  -30.3900   24.7610 C   0  0  0  0  0  1  0  0  0  0  0  0
  -27.5210  -32.5750   25.7980 C   0  0  0  0  0  1  0  0  0  0  0  0
  1  2  2  0
  1 52  1  0
  2  6  1  0
  3  8  2  0
  4  1  1  0
  5  4  2  0
  5  7  1  0
  7  3  1  0
  7  2  1  0
  9 10  1  0
 10  3  1  0
 11 10  2  0
 11 22  1  0
 12  9  2  0
 12 13  1  0
 13 11  1  0
 14 22  1  0
 15 20  1  0
 16 17  1  0
 16 15  1  0
 18 17  1  0
 18 27  1  0
 18 19  1  0
 20 14  1  0
 20 19  1  0
 21 14  2  0
 22 23  1  0
 24 25  2  0
 25 44  1  0
 26 25  1  0
 26 29  1  0
 27 24  1  0
 27 28  1  0
 28 26  2  0
 29 30  1  0
 30 31  2  0
 32 35  1  0
 32 31  1  0
 33 32  2  0
 34 33  1  0
 34 29  2  0
 35 36  1  0
 36 37  1  0
 37 38  2  0
 39 38  1  0
 39 43  1  0
 40 39  2  0
 41 36  2  0
 41 40  1  0
 42 41  1  0
 44 45  1  0
 45 48  1  0
 45 47  1  0
 46 44  2  0
 49 50  1  0
 49 24  1  0
 51 49  1  0
 53 52  1  0
 54 65  2  0
 55 53  1  0
 55 60  1  0
 56 64  1  0
 56 66  1  0
 57 63  1  0
 57 59  1  0
 58 64  1  0
 59 60  2  0
 59 58  1  0
 61 55  2  0
 62 61  1  0
 62 57  2  0
 63 56  1  0
 64 54  1  0
 66 68  2  0
 67 66  1  0
 69 67  1  0
 70 79  2  0
 70 75  1  0
 71 67  1  0
 71 75  1  0
 72 71  1  0
 73 74  1  0
 73 72  1  0
 74 70  1  0
 75 76  2  0
 76 77  1  0
 78 77  2  0
 79 78  1  0
 80 54  1  0
 80 81  1  0
 80 90  1  0
 81 84  1  0
 82 86  1  0
 82 81  1  0
 83 82  2  0
 86 85  1  0
 88 86  1  0
 88 89  1  0
 88 87  1  0
 90 93  1  1
 90 91  1  0
 92 90  1  0
M  ISO  4  14 100  22 100  52 101  53 101
M  END
>  <TORSDO>  (21) 
F 18

>  <SCORE>  (21) 
-14.495

>  <name>  (21) 
20

>  <ligand_id>  (21) 
20

>  <original_smiles>  (21) 
[H]c1noc(N([H])C(=O)N2C([H])([H])C([H])([H])C([H])([H])C([H])(n3nc(-c4c([H])c([H])c(Oc5c([H])c([H])c(F)c([H])c5F)c([H])c4[H])c(C(=O)N([H])[H])c3N([H])[H])C2([H])[H])c1C(=O)N1C(C([H])([H])[H])=C(C([H])([H])Oc2c([H])c([H])c3c(c2[H])C([H])([H])N(C(=O)C([H])(N([H])C(=O)C([H])(N([H])C([H])([H])[H])C([H])([H])[H])C(C([H])([H])[H])(C([H])([H])[H])C([H])([H])[H])C([H])(C(=O)N([H])C2([H])c4c([H])c([H])c([H])c([H])c4C([H])([H])C([H])([H])C2([H])[H])C3([H])[H])C([H])([H])C1([H])[H]

>  <smiles>  (21) 
[H]c1noc(N([H])C(=O)N2C([H])([H])C([H])([H])C([H])([H])C([H])(n3nc(-c4c([H])c([H])c(Oc5c([H])c([H])c(F)c([H])c5F)c([H])c4[H])c(C(=O)N([H])[H])c3N([H])[H])C2([H])[H])c1C(=O)N1C(C([H])([H])[H])=C(C([H])([H])Oc2c([H])c([H])c3c(c2[H])C([H])([H])N(C(=O)C([H])(N([H])C(=O)C([H])(N([H])C([H])([H])[H])C([H])([H])[H])C(C([H])([H])[H])(C([H])([H])[H])C([H])([H])[H])C([H])(C(=O)N([H])C2([H])c4c([H])c([H])c([H])c([H])c4C([H])([H])C([H])([H])C2([H])[H])C3([H])[H])C([H])([H])C1([H])[H]

$$$$
21:0:0
     RDKit          3D

101109  0  0  1  0  0  0  0  0999 V2000
  -29.0900  -20.4970   20.1370 C   0  0  0  0  0  0  0  0  0  0  0  0
  -29.4800  -21.7180   20.5740 N   0  0  0  0  0  0  0  0  0  0  0  0
  -28.0350  -20.3920   19.3080 N   0  0  0  0  0  4  0  0  0  0  0  0
  -30.2430  -21.6930   21.2390 H   0  0  0  0  0  0  0  0  0  0  0  0
  -27.7450  -19.4680   19.0290 H   0  0  0  0  0  0  0  0  0  0  0  0
  -27.5020  -21.1720   18.9710 H   0  0  0  0  0  0  0  0  0  0  0  0
  -30.9940  -14.5940   19.7370 C   0  0  0  0  0  0  0  0  0  0  0  0
  -30.6530  -12.4190   18.6410 C   0  0  0  0  0  2  0  0  0  0  0  0
  -29.5750  -12.5420   17.5450 C   0  0  0  0  0  2  0  0  0  0  0  0
  -28.1590  -12.3940   18.1420 C   0  0  0  0  0  2  0  0  0  0  0  0
  -27.9290  -13.2650   19.4090 C   0  0  0  0  0  3  0  0  0  0  0  0
  -29.0940  -13.1140   20.4080 C   0  0  0  0  0  2  0  0  0  0  0  0
  -30.3330  -13.4090   19.6730 N   0  0  0  0  0  0  0  0  0  0  0  0
  -32.1920  -14.7090   19.4390 O   0  0  0  0  0  0  0  0  0  0  0  0
  -29.8340  -18.0770   19.7970 C   0  0  0  0  0  3  0  0  0  0  0  0
  -29.7440  -19.2430   20.5950 C   0  0  0  0  0  0  0  0  0  0  0  0
  -30.2590  -16.8860   20.4250 C   0  0  0  0  0  0  0  0  0  0  0  0
  -30.4840  -18.0790   22.3820 C   0  0  0  0  0  0  0  0  0  0  0  0
  -30.0730  -19.2310   21.8990 N   0  0  0  0  0  0  0  0  0  0  0  0
  -30.5870  -16.9240   21.7410 N   0  0  0  0  0  0  0  0  0  0  0  0
  -30.8490  -18.0980   23.6910 N   0  0  0  0  0  0  0  0  0  0  0  0
  -30.1620  -15.6600   19.6890 N   0  0  0  0  0  0  0  0  0  0  0  0
  -30.8000  -17.2260   24.2060 H   0  0  0  0  0  0  0  0  0  0  0  0
  -30.6670  -18.9420   24.2250 H   0  0  0  0  0  0  0  0  0  0  0  0
  -29.2430  -15.4510   19.3340 H   0  0  0  0  0  0  0  0  0  0  0  0
  -25.6590  -13.8960   20.4410 C   0  0  0  0  0  0  0  0  0  0  0  0
  -24.6100  -13.1370   20.8760 C   0  0  0  0  0  0  0  0  0  0  0  0
  -25.0170  -11.7740   20.7070 C   0  0  0  0  0  0  0  0  0  0  0  0
  -26.6350  -13.0050   20.0340 N   0  0  0  0  0  0  0  0  0  0  0  0
  -26.2630  -11.7200   20.2540 N   0  0  0  0  0  0  0  0  0  0  0  0
  -24.2850  -10.5180   20.8990 C   0  0  0  0  0  0  0  0  0  0  0  0
  -24.7180   -9.5420   21.8250 C   0  0  0  0  0  3  0  0  0  0  0  0
  -23.9800   -8.3510   22.0040 C   0  0  0  0  0  3  0  0  0  0  0  0
  -22.8010   -8.1260   21.2540 C   0  0  0  0  0  0  0  0  0  0  0  0
  -22.3910   -9.0880   20.3170 C   0  0  0  0  0  3  0  0  0  0  0  0
  -23.1300  -10.2720   20.1350 C   0  0  0  0  0  3  0  0  0  0  0  0
  -22.0400   -6.9830   21.3350 O   0  0  0  0  0  0  0  0  0  0  0  0
  -21.8470   -6.3320   22.5250 C   0  0  0  0  0  0  0  0  0  0  0  0
  -21.2480   -6.9640   23.6360 C   0  0  0  0  0  3  0  0  0  0  0  0
  -21.0080   -6.2350   24.8180 C   0  0  0  0  0  3  0  0  0  0  0  0
  -21.3620   -4.8730   24.8880 C   0  0  0  0  0  0  0  0  0  0  0  0
  -21.9550   -4.2400   23.7820 C   0  0  0  0  0  3  0  0  0  0  0  0
  -22.1960   -4.9680   22.6030 C   0  0  0  0  0  0  0  0  0  0  0  0
  -22.7460   -4.3490   21.5300 F   0  0  0  0  0  0  0  0  0  0  0  0
  -21.1270   -4.1680   26.0190 F   0  0  0  0  0  0  0  0  0  0  0  0
  -23.2660  -13.6330   21.3200 C   0  0  0  0  0  0  0  0  0  0  0  0
  -22.6170  -12.9220   22.2340 N   0  0  0  0  0  0  0  0  0  0  0  0
  -22.8010  -14.6850   20.8850 O   0  0  0  0  0  0  0  0  0  0  0  0
  -22.9850  -12.0520   22.5820 H   0  0  0  0  0  0  0  0  0  0  0  0
  -21.7220  -13.2470   22.5720 H   0  0  0  0  0  0  0  0  0  0  0  0
  -25.8560  -15.2740   20.3380 N   0  0  0  0  0  0  0  0  0  0  0  0
  -25.1190  -15.9260   20.5840 H   0  0  0  0  0  0  0  0  0  0  0  0
  -26.6730  -15.7210   19.9470 H   0  0  0  0  0  0  0  0  0  0  0  0
  -28.6850  -22.9830   20.4870 C   0  0  0  0  0  3  0  0  0  0  0  0
  -28.1220  -23.3240   21.8710 C   0  0  0  0  0  0  0  0  0  0  0  0
  -26.8100  -24.1020   21.9140 C   0  0  0  0  0  1  0  0  0  0  0  0
  -28.6720  -22.9990   22.9290 O   0  0  0  0  0  0  0  0  0  0  0  0
  -29.4420  -24.2070   19.8780 C   0  0  0  0  0  0  0  0  0  0  0  0
  -30.6610  -24.3460   19.9540 O   0  0  0  0  0  0  0  0  0  0  0  0
  -28.5690  -25.2470   19.1150 C   0  0  0  0  0  2  0  0  0  0  0  0
  -28.6200  -26.6070   19.6410 O   0  0  0  0  0  0  0  0  0  0  0  0
  -24.6930  -31.5660   23.0010 C   0  0  0  0  0  0  0  0  0  0  0  0
  -27.4540  -27.3800   19.6220 C   0  0  0  0  0  0  0  0  0  0  0  0
  -23.5300  -30.2630   21.2510 C   0  0  0  0  0  3  0  0  0  0  0  0
  -25.0310  -28.8880   19.7180 C   0  0  0  0  0  0  0  0  0  0  0  0
  -26.0490  -30.6910   21.0950 C   0  0  0  0  0  2  0  0  0  0  0  0
  -26.1740  -29.3650   20.3650 C   0  0  0  0  0  0  0  0  0  0  0  0
  -27.3840  -28.6140   20.3280 C   0  0  0  0  0  3  0  0  0  0  0  0
  -26.2920  -26.9690   18.9250 C   0  0  0  0  0  3  0  0  0  0  0  0
  -25.0910  -27.6920   18.9870 C   0  0  0  0  0  3  0  0  0  0  0  0
  -23.7620  -29.7060   19.8240 C   0  0  0  0  0  2  0  0  0  0  0  0
  -24.7760  -30.8460   21.8460 N   0  0  0  0  0  0  0  0  0  0  0  0
  -23.6030  -31.7710   23.5520 O   0  0  0  0  0  0  0  0  0  0  0  0
  -22.9010  -29.1520   22.1180 C   0  0  0  0  0  0  0  0  0  0  0  0
  -21.5710  -28.9800   22.0030 N   0  0  0  0  0  0  0  0  0  0  0  0
  -23.5980  -28.4470   22.8480 O   0  0  0  0  0  0  0  0  0  0  0  0
  -21.0660  -29.6020   21.3900 H   0  0  0  0  0  0  0  0  0  0  0  0
  -18.2000  -27.7740   22.4990 C   0  0  0  0  0  0  0  0  0  0  0  0
  -20.7710  -27.9730   22.7000 C   0  0  0  0  0  3  0  0  0  0  0  0
  -20.8330  -26.6130   21.9660 C   0  0  0  0  0  2  0  0  0  0  0  0
  -19.6930  -26.4180   20.9650 C   0  0  0  0  0  2  0  0  0  0  0  0
  -18.3360  -26.5040   21.6730 C   0  0  0  0  0  2  0  0  0  0  0  0
  -19.3450  -28.4700   22.9680 C   0  0  0  0  0  0  0  0  0  0  0  0
  -19.1670  -29.6650   23.7040 C   0  0  0  0  0  3  0  0  0  0  0  0
  -17.8800  -30.1640   23.9620 C   0  0  0  0  0  3  0  0  0  0  0  0
  -16.7490  -29.4640   23.5070 C   0  0  0  0  0  3  0  0  0  0  0  0
  -16.9120  -28.2650   22.7870 C   0  0  0  0  0  3  0  0  0  0  0  0
  -25.9590  -32.1800   23.6760 C   0  0  0  0  0  3  0  0  0  0  0  0
  -26.4860  -31.3180   24.8890 C   0  0  1  0  0  0  0  0  0  0  0  0
  -25.3900  -30.9830   25.9250 C   0  0  0  0  0  1  0  0  0  0  0  0
  -27.0880  -29.9870   24.3830 C   0  0  0  0  0  1  0  0  0  0  0  0
  -27.6280  -32.0640   25.6160 C   0  0  0  0  0  1  0  0  0  0  0  0
  -25.6180  -33.5400   24.1100 N   0  0  0  0  0  0  0  0  0  0  0  0
  -25.9120  -34.6490   23.4200 C   0  0  0  0  0  0  0  0  0  0  0  0
  -26.5760  -34.6360   22.3820 O   0  0  0  0  0  0  0  0  0  0  0  0
  -25.0340  -33.6210   24.9280 H   0  0  0  0  0  0  0  0  0  0  0  0
  -24.1290  -36.4050   23.1840 C   0  0  0  0  0  1  0  0  0  0  0  0
  -25.3840  -35.9870   23.9670 C   0  0  0  0  0  3  0  0  0  0  0  0
  -27.4890  -36.8820   24.8640 C   0  0  0  0  0  1  0  0  0  0  0  0
  -26.3860  -37.0740   23.9250 N   0  0  0  0  0  0  0  0  0  0  0  0
  -25.9530  -37.9700   24.1360 H   0  0  0  0  0  0  0  0  0  0  0  0
  1  2  1  0
  1 16  1  0
  2  4  1  0
  3  1  2  0
  5  3  1  0
  6  3  1  0
  8 13  1  0
  9 10  1  0
  9  8  1  0
 11 10  1  0
 11 29  1  0
 11 12  1  0
 13  7  1  0
 13 12  1  0
 14  7  2  0
 15 17  1  0
 15 16  2  0
 16 19  1  0
 17 20  2  0
 18 21  1  0
 19 18  2  0
 20 18  1  0
 21 23  1  0
 21 24  1  0
 22  7  1  0
 22 17  1  0
 25 22  1  0
 26 27  2  0
 27 46  1  0
 28 27  1  0
 28 31  1  0
 29 30  1  0
 29 26  1  0
 30 28  2  0
 31 32  1  0
 32 33  2  0
 34 37  1  0
 34 33  1  0
 35 34  2  0
 36 35  1  0
 36 31  2  0
 37 38  1  0
 38 43  2  0
 38 39  1  0
 39 40  2  0
 40 41  1  0
 41 45  1  0
 42 41  2  0
 43 42  1  0
 44 43  1  0
 46 47  1  0
 47 50  1  0
 47 49  1  0
 48 46  2  0
 51 26  1  0
 51 52  1  0
 53 51  1  0
 54 58  1  0
 54  2  1  0
 54 55  1  0
 55 56  1  0
 55 57  2  0
 58 59  2  0
 60 61  1  0
 60 58  1  0
 62 73  2  0
 63 61  1  0
 63 68  1  0
 64 72  1  0
 64 74  1  0
 65 71  1  0
 65 67  1  0
 66 72  1  0
 67 66  1  0
 68 67  2  0
 69 70  1  0
 69 63  2  0
 70 65  2  0
 71 64  1  0
 72 62  1  0
 74 76  2  0
 75 74  1  0
 77 75  1  0
 78 87  2  0
 78 83  1  0
 79 75  1  0
 79 83  1  0
 80 79  1  0
 81 82  1  0
 81 80  1  0
 82 78  1  0
 83 84  2  0
 84 85  1  0
 86 85  2  0
 87 86  1  0
 88 62  1  0
 88 93  1  0
 88 89  1  0
 89 92  1  1
 89 90  1  0
 91 89  1  0
 93 96  1  0
 94 98  1  0
 94 93  1  0
 95 94  2  0
 98 97  1  0
100 98  1  0
100101  1  0
100 99  1  0
M  ISO  4   7 100  22 100  60 101  61 101
M  END
>  <TORSDO>  (22) 
F 20

>  <SCORE>  (22) 
-12.040

>  <name>  (22) 
21

>  <ligand_id>  (22) 
21

>  <original_smiles>  (22) 
[H]c1c(C(N([H])C([H])(C(=O)C([H])([H])[H])C(=O)C([H])([H])Oc2c([H])c([H])c3c(c2[H])C([H])([H])N(C(=O)C([H])(N([H])C(=O)C([H])(N([H])C([H])([H])[H])C([H])([H])[H])C(C([H])([H])[H])(C([H])([H])[H])C([H])([H])[H])C([H])(C(=O)N([H])C2([H])c4c([H])c([H])c([H])c([H])c4C([H])([H])C([H])([H])C2([H])[H])C3([H])[H])=[N+]([H])[H])nc(N([H])[H])nc1N([H])C(=O)N1C([H])([H])C([H])([H])C([H])([H])C([H])(n2nc(-c3c([H])c([H])c(Oc4c([H])c([H])c(F)c([H])c4F)c([H])c3[H])c(C(=O)N([H])[H])c2N([H])[H])C1([H])[H]

>  <smiles>  (22) 
[H]c1c(C(N([H])C([H])(C(=O)C([H])([H])[H])C(=O)C([H])([H])Oc2c([H])c([H])c3c(c2[H])C([H])([H])N(C(=O)C([H])(N([H])C(=O)C([H])(N([H])C([H])([H])[H])C([H])([H])[H])C(C([H])([H])[H])(C([H])([H])[H])C([H])([H])[H])C([H])(C(=O)N([H])C2([H])c4c([H])c([H])c([H])c([H])c4C([H])([H])C([H])([H])C2([H])[H])C3([H])[H])=[N+]([H])[H])nc(N([H])[H])nc1N([H])C(=O)N1C([H])([H])C([H])([H])C([H])([H])C([H])(n2nc(-c3c([H])c([H])c(Oc4c([H])c([H])c(F)c([H])c4F)c([H])c3[H])c(C(=O)N([H])[H])c2N([H])[H])C1([H])[H]

$$$$
22:0:0
     RDKit          3D

 94102  0  0  1  0  0  0  0  0999 V2000
  -29.3630  -22.6950   20.2980 C   0  0  0  0  0  0  0  0  0  0  0  0
  -30.3130  -22.7590   21.1630 N   0  0  0  0  0  0  0  0  0  0  0  0
  -28.6540  -24.0150   19.8310 C   0  0  0  0  0  0  0  0  0  0  0  0
  -28.0820  -24.0910   18.7350 O   0  0  0  0  0  0  0  0  0  0  0  0
  -28.6260  -25.2580   20.7930 C   0  0  0  0  0  2  0  0  0  0  0  0
  -28.6260  -26.5760   20.1550 O   0  0  0  0  0  0  0  0  0  0  0  0
  -24.7510  -31.7990   23.2720 C   0  0  0  0  0  0  0  0  0  0  0  0
  -27.4640  -27.3360   20.2090 C   0  0  0  0  0  0  0  0  0  0  0  0
  -23.5870  -30.4160   21.5850 C   0  0  0  0  0  3  0  0  0  0  0  0
  -25.0740  -28.8810   20.1850 C   0  0  0  0  0  0  0  0  0  0  0  0
  -26.1230  -30.7590   21.4570 C   0  0  0  0  0  2  0  0  0  0  0  0
  -26.2240  -29.3880   20.8040 C   0  0  0  0  0  0  0  0  0  0  0  0
  -27.4240  -28.6280   20.8060 C   0  0  0  0  0  3  0  0  0  0  0  0
  -26.2940  -26.8540   19.5910 C   0  0  0  0  0  3  0  0  0  0  0  0
  -25.1070  -27.6150   19.5750 C   0  0  0  0  0  3  0  0  0  0  0  0
  -23.8330  -29.7480   20.2070 C   0  0  0  0  0  2  0  0  0  0  0  0
  -24.8380  -31.0080   22.1630 N   0  0  0  0  0  0  0  0  0  0  0  0
  -23.6560  -32.0660   23.7890 O   0  0  0  0  0  0  0  0  0  0  0  0
  -22.9070  -29.3890   22.5210 C   0  0  0  0  0  0  0  0  0  0  0  0
  -21.5840  -29.2170   22.3670 N   0  0  0  0  0  0  0  0  0  0  0  0
  -23.5710  -28.7490   23.3410 O   0  0  0  0  0  0  0  0  0  0  0  0
  -21.1110  -29.7850   21.6770 H   0  0  0  0  0  0  0  0  0  0  0  0
  -18.1930  -28.0360   22.7900 C   0  0  0  0  0  0  0  0  0  0  0  0
  -20.7490  -28.2720   23.1070 C   0  0  0  0  0  3  0  0  0  0  0  0
  -20.8500  -26.8500   22.5060 C   0  0  0  0  0  2  0  0  0  0  0  0
  -19.7620  -26.5550   21.4690 C   0  0  0  0  0  2  0  0  0  0  0  0
  -18.3720  -26.6980   22.0940 C   0  0  0  0  0  2  0  0  0  0  0  0
  -19.3100  -28.7820   23.2520 C   0  0  0  0  0  0  0  0  0  0  0  0
  -19.0900  -30.0360   23.8630 C   0  0  0  0  0  3  0  0  0  0  0  0
  -17.7860  -30.5430   24.0180 C   0  0  0  0  0  3  0  0  0  0  0  0
  -16.6840  -29.7940   23.5730 C   0  0  0  0  0  3  0  0  0  0  0  0
  -16.8880  -28.5420   22.9640 C   0  0  0  0  0  3  0  0  0  0  0  0
  -26.0200  -32.4250   23.9310 C   0  0  0  0  0  3  0  0  0  0  0  0
  -25.7000  -33.8150   24.2830 N   0  0  0  0  0  0  0  0  0  0  0  0
  -26.0360  -34.8830   23.5490 C   0  0  0  0  0  0  0  0  0  0  0  0
  -26.7210  -34.8020   22.5250 O   0  0  0  0  0  0  0  0  0  0  0  0
  -25.0940  -33.9500   25.0790 H   0  0  0  0  0  0  0  0  0  0  0  0
  -24.3060  -36.6740   23.2030 C   0  0  0  0  0  1  0  0  0  0  0  0
  -25.5360  -36.2600   24.0250 C   0  0  0  0  0  3  0  0  0  0  0  0
  -27.6550  -37.1370   24.9040 C   0  0  0  0  0  1  0  0  0  0  0  0
  -26.5640  -37.3210   23.9490 N   0  0  0  0  0  0  0  0  0  0  0  0
  -26.1510  -38.2340   24.1140 H   0  0  0  0  0  0  0  0  0  0  0  0
  -26.5170  -31.6300   25.2010 C   0  0  1  0  0  0  0  0  0  0  0  0
  -25.4060  -31.3600   26.2410 C   0  0  0  0  0  1  0  0  0  0  0  0
  -27.1190  -30.2660   24.7910 C   0  0  0  0  0  1  0  0  0  0  0  0
  -27.6480  -32.4190   25.9040 C   0  0  0  0  0  1  0  0  0  0  0  0
  -32.0020  -22.0520   22.7590 C   0  0  0  0  0  1  0  0  0  0  0  0
  -31.0110  -21.6040   21.6810 C   0  0  0  0  0  2  0  0  0  0  0  0
  -28.8030  -21.3540   19.6620 C   0  0  0  0  0  2  0  0  0  0  0  0
  -29.2350  -17.3740   21.7950 C   0  0  0  0  0  3  0  0  0  0  0  0
  -29.8210  -16.7390   20.7240 C   0  0  0  0  0  0  0  0  0  0  0  0
  -29.5910  -18.8950   20.3200 C   0  0  0  0  0  0  0  0  0  0  0  0
  -29.0790  -18.7300   21.5290 N   0  0  0  0  0  0  0  0  0  0  0  0
  -29.5950  -20.0860   19.5730 N   0  0  0  0  0  0  0  0  0  0  0  0
  -30.0750  -17.7260   19.7580 O   0  0  0  0  0  0  0  0  0  0  0  0
  -30.1230  -20.0070   18.7130 H   0  0  0  0  0  0  0  0  0  0  0  0
  -30.6130  -14.5310   19.7270 C   0  0  0  0  0  0  0  0  0  0  0  0
  -30.2690  -12.3840   18.5070 C   0  0  0  0  0  2  0  0  0  0  0  0
  -29.1990  -12.6090   17.4130 C   0  0  0  0  0  2  0  0  0  0  0  0
  -27.7730  -12.4580   17.9820 C   0  0  0  0  0  2  0  0  0  0  0  0
  -27.5720  -13.2420   19.3070 C   0  0  0  0  0  3  0  0  0  0  0  0
  -28.7280  -12.9470   20.2870 C   0  0  0  0  0  2  0  0  0  0  0  0
  -29.9920  -13.3140   19.6180 N   0  0  0  0  0  0  0  0  0  0  0  0
  -31.6390  -14.8110   19.0990 O   0  0  0  0  0  0  0  0  0  0  0  0
  -29.9960  -15.3760   20.5910 N   0  0  0  0  0  0  0  0  0  0  0  0
  -29.3670  -14.8530   21.1790 H   0  0  0  0  0  0  0  0  0  0  0  0
  -25.2720  -13.8630   20.2800 C   0  0  0  0  0  0  0  0  0  0  0  0
  -24.2310  -13.0960   20.7280 C   0  0  0  0  0  0  0  0  0  0  0  0
  -24.6570  -11.7380   20.6000 C   0  0  0  0  0  0  0  0  0  0  0  0
  -26.2680  -12.9730   19.9070 N   0  0  0  0  0  0  0  0  0  0  0  0
  -25.9070  -11.6890   20.1550 N   0  0  0  0  0  0  0  0  0  0  0  0
  -23.9270  -10.4830   20.8200 C   0  0  0  0  0  0  0  0  0  0  0  0
  -24.4090   -9.4950   21.7070 C   0  0  0  0  0  3  0  0  0  0  0  0
  -23.6810   -8.3040   21.9150 C   0  0  0  0  0  3  0  0  0  0  0  0
  -22.4580   -8.0920   21.2330 C   0  0  0  0  0  0  0  0  0  0  0  0
  -21.9940   -9.0690   20.3350 C   0  0  0  0  0  3  0  0  0  0  0  0
  -22.7230  -10.2520   20.1250 C   0  0  0  0  0  3  0  0  0  0  0  0
  -21.6960   -6.9540   21.3530 O   0  0  0  0  0  0  0  0  0  0  0  0
  -21.6810   -6.2150   22.5080 C   0  0  0  0  0  0  0  0  0  0  0  0
  -21.3140   -6.7800   23.7480 C   0  0  0  0  0  3  0  0  0  0  0  0
  -21.2420   -5.9710   24.8990 C   0  0  0  0  0  3  0  0  0  0  0  0
  -21.5300   -4.5950   24.8110 C   0  0  0  0  0  0  0  0  0  0  0  0
  -21.8910   -4.0270   23.5760 C   0  0  0  0  0  3  0  0  0  0  0  0
  -21.9640   -4.8370   22.4280 C   0  0  0  0  0  0  0  0  0  0  0  0
  -22.2910   -4.2810   21.2350 F   0  0  0  0  0  0  0  0  0  0  0  0
  -21.4540   -3.8140   25.9140 F   0  0  0  0  0  0  0  0  0  0  0  0
  -22.8800  -13.5870   21.1630 C   0  0  0  0  0  0  0  0  0  0  0  0
  -22.2400  -12.8850   22.0920 N   0  0  0  0  0  0  0  0  0  0  0  0
  -22.4020  -14.6270   20.7120 O   0  0  0  0  0  0  0  0  0  0  0  0
  -22.6410  -12.0410   22.4750 H   0  0  0  0  0  0  0  0  0  0  0  0
  -21.3390  -13.1960   22.4250 H   0  0  0  0  0  0  0  0  0  0  0  0
  -25.4480  -15.2360   20.1410 N   0  0  0  0  0  0  0  0  0  0  0  0
  -24.7140  -15.8990   20.3670 H   0  0  0  0  0  0  0  0  0  0  0  0
  -26.2550  -15.6720   19.7140 H   0  0  0  0  0  0  0  0  0  0  0  0
  1  2  2  0
  2 48  1  0
  3  1  1  0
  3  5  1  0
  4  3  2  0
  6  8  1  0
  6  5  1  0
  7 18  2  0
  8 13  1  0
  9 17  1  0
  9 19  1  0
 10 16  1  0
 10 12  1  0
 11 17  1  0
 12 13  2  0
 12 11  1  0
 14  8  2  0
 15 14  1  0
 15 10  2  0
 16  9  1  0
 17  7  1  0
 19 21  2  0
 20 19  1  0
 22 20  1  0
 23 32  2  0
 23 28  1  0
 24 20  1  0
 24 28  1  0
 25 24  1  0
 26 27  1  0
 26 25  1  0
 27 23  1  0
 28 29  2  0
 29 30  1  0
 31 30  2  0
 32 31  1  0
 33  7  1  0
 33 34  1  0
 33 43  1  0
 34 37  1  0
 35 39  1  0
 35 34  1  0
 36 35  2  0
 39 38  1  0
 41 39  1  0
 41 42  1  0
 41 40  1  0
 43 46  1  1
 43 44  1  0
 45 43  1  0
 48 47  1  0
 49  1  1  0
 51 50  2  0
 52 53  2  0
 53 50  1  0
 54 49  1  0
 54 52  1  0
 55 52  1  0
 55 51  1  0
 56 54  1  0
 57 65  1  0
 58 63  1  0
 59 60  1  0
 59 58  1  0
 61 60  1  0
 61 70  1  0
 61 62  1  0
 63 57  1  0
 63 62  1  0
 64 57  2  0
 65 51  1  0
 65 66  1  0
 67 68  2  0
 68 87  1  0
 69 68  1  0
 69 72  1  0
 70 71  1  0
 70 67  1  0
 71 69  2  0
 72 73  1  0
 73 74  2  0
 75 78  1  0
 75 74  1  0
 76 75  2  0
 77 76  1  0
 77 72  2  0
 78 79  1  0
 79 80  1  0
 80 81  2  0
 82 81  1  0
 82 86  1  0
 83 82  2  0
 84 79  2  0
 84 83  1  0
 85 84  1  0
 87 88  1  0
 88 91  1  0
 88 90  1  0
 89 87  2  0
 92 67  1  0
 92 93  1  0
 94 92  1  0
M  ISO  4   5 101   6 101  57 100  65 100
M  END
>  <TORSDO>  (23) 
F 21

>  <SCORE>  (23) 
-10.952

>  <name>  (23) 
22

>  <ligand_id>  (23) 
22

>  <original_smiles>  (23) 
[H]c1nc(N([H])C([H])([H])C(=NC([H])([H])C([H])([H])[H])C(=O)C([H])([H])Oc2c([H])c([H])c3c(c2[H])C([H])([H])N(C(=O)C([H])(N([H])C(=O)C([H])(N([H])C([H])([H])[H])C([H])([H])[H])C(C([H])([H])[H])(C([H])([H])[H])C([H])([H])[H])C([H])(C(=O)N([H])C2([H])c4c([H])c([H])c([H])c([H])c4C([H])([H])C([H])([H])C2([H])[H])C3([H])[H])oc1N([H])C(=O)N1C([H])([H])C([H])([H])C([H])([H])C([H])(n2nc(-c3c([H])c([H])c(Oc4c([H])c([H])c(F)c([H])c4F)c([H])c3[H])c(C(=O)N([H])[H])c2N([H])[H])C1([H])[H]

>  <smiles>  (23) 
[H]c1nc(N([H])C([H])([H])C(=NC([H])([H])C([H])([H])[H])C(=O)C([H])([H])Oc2c([H])c([H])c3c(c2[H])C([H])([H])N(C(=O)C([H])(N([H])C(=O)C([H])(N([H])C([H])([H])[H])C([H])([H])[H])C(C([H])([H])[H])(C([H])([H])[H])C([H])([H])[H])C([H])(C(=O)N([H])C2([H])c4c([H])c([H])c([H])c([H])c4C([H])([H])C([H])([H])C2([H])[H])C3([H])[H])oc1N([H])C(=O)N1C([H])([H])C([H])([H])C([H])([H])C([H])(n2nc(-c3c([H])c([H])c(Oc4c([H])c([H])c(F)c([H])c4F)c([H])c3[H])c(C(=O)N([H])[H])c2N([H])[H])C1([H])[H]

$$$$
23:0:0
     RDKit          3D

 98106  0  0  1  0  0  0  0  0999 V2000
  -29.1090  -20.7180   20.9010 C   0  0  0  0  0  0  0  0  0  0  0  0
  -28.5020  -23.1790   20.8310 C   0  0  0  0  0  0  0  0  0  0  0  0
  -29.3030  -22.0120   20.5030 N   0  0  0  0  0  0  0  0  0  0  0  0
  -28.0200  -20.3660   21.5950 N   0  0  0  0  0  4  0  0  0  0  0  0
  -27.5080  -23.0620   21.5600 O   0  0  0  0  0  0  0  0  0  0  0  0
  -30.1060  -22.1310   19.9030 H   0  0  0  0  0  0  0  0  0  0  0  0
  -27.9240  -19.4380   21.9750 H   0  0  0  0  0  0  0  0  0  0  0  0
  -27.3560  -21.0870   21.8510 H   0  0  0  0  0  0  0  0  0  0  0  0
  -29.7340  -18.2600   20.5910 C   0  0  0  0  0  3  0  0  0  0  0  0
  -31.4680  -19.9830   20.5750 C   0  0  0  0  0  3  0  0  0  0  0  0
  -32.0750  -17.6210   20.4220 C   0  0  0  0  0  3  0  0  0  0  0  0
  -30.1020  -19.6410   20.6520 C   0  0  0  0  0  0  0  0  0  0  0  0
  -30.7130  -17.2280   20.4750 C   0  0  0  0  0  0  0  0  0  0  0  0
  -32.4450  -18.9790   20.4600 C   0  0  0  0  0  0  0  0  0  0  0  0
  -33.7540  -19.3230   20.4090 F   0  0  0  0  0  0  0  0  0  0  0  0
  -30.9920  -14.7640   19.9770 C   0  0  0  0  0  0  0  0  0  0  0  0
  -30.6720  -12.5370   18.9570 C   0  0  0  0  0  2  0  0  0  0  0  0
  -29.6750  -12.6550   17.7870 C   0  0  0  0  0  2  0  0  0  0  0  0
  -28.2290  -12.5000   18.2930 C   0  0  0  0  0  2  0  0  0  0  0  0
  -27.9260  -13.3930   19.5270 C   0  0  0  0  0  3  0  0  0  0  0  0
  -29.0390  -13.2750   20.5940 C   0  0  0  0  0  2  0  0  0  0  0  0
  -30.3230  -13.5760   19.9440 N   0  0  0  0  0  0  0  0  0  0  0  0
  -32.0980  -14.8920   19.4490 O   0  0  0  0  0  0  0  0  0  0  0  0
  -30.3100  -15.8350   20.4600 N   0  0  0  0  0  0  0  0  0  0  0  0
  -29.3710  -15.6340   20.7670 H   0  0  0  0  0  0  0  0  0  0  0  0
  -25.5850  -13.9850   20.4080 C   0  0  0  0  0  0  0  0  0  0  0  0
  -24.5360  -13.2060   20.8190 C   0  0  0  0  0  0  0  0  0  0  0  0
  -24.9850  -11.8530   20.7160 C   0  0  0  0  0  0  0  0  0  0  0  0
  -26.6060  -13.1060   20.0830 N   0  0  0  0  0  0  0  0  0  0  0  0
  -26.2530  -11.8180   20.3270 N   0  0  0  0  0  0  0  0  0  0  0  0
  -24.2620  -10.5890   20.9100 C   0  0  0  0  0  0  0  0  0  0  0  0
  -24.6800   -9.6400   21.8680 C   0  0  0  0  0  3  0  0  0  0  0  0
  -23.9580   -8.4410   22.0490 C   0  0  0  0  0  3  0  0  0  0  0  0
  -22.8030   -8.1830   21.2730 C   0  0  0  0  0  0  0  0  0  0  0  0
  -22.4050   -9.1210   20.3060 C   0  0  0  0  0  3  0  0  0  0  0  0
  -23.1270  -10.3120   20.1220 C   0  0  0  0  0  3  0  0  0  0  0  0
  -22.0550   -7.0350   21.3630 O   0  0  0  0  0  0  0  0  0  0  0  0
  -21.9110   -6.3590   22.5480 C   0  0  0  0  0  0  0  0  0  0  0  0
  -21.3140   -6.9570   23.6790 C   0  0  0  0  0  3  0  0  0  0  0  0
  -21.1230   -6.2050   24.8560 C   0  0  0  0  0  3  0  0  0  0  0  0
  -21.5200   -4.8540   24.9010 C   0  0  0  0  0  0  0  0  0  0  0  0
  -22.1100   -4.2560   23.7740 C   0  0  0  0  0  3  0  0  0  0  0  0
  -22.3020   -5.0060   22.6000 C   0  0  0  0  0  0  0  0  0  0  0  0
  -22.8520   -4.4180   21.5100 F   0  0  0  0  0  0  0  0  0  0  0  0
  -21.3300   -4.1300   26.0270 F   0  0  0  0  0  0  0  0  0  0  0  0
  -23.1620  -13.6820   21.1920 C   0  0  0  0  0  0  0  0  0  0  0  0
  -22.4790  -12.9550   22.0710 N   0  0  0  0  0  0  0  0  0  0  0  0
  -22.7050  -14.7310   20.7420 O   0  0  0  0  0  0  0  0  0  0  0  0
  -22.8630  -12.1050   22.4550 H   0  0  0  0  0  0  0  0  0  0  0  0
  -21.5600  -13.2540   22.3620 H   0  0  0  0  0  0  0  0  0  0  0  0
  -25.7470  -15.3590   20.2600 N   0  0  0  0  0  0  0  0  0  0  0  0
  -24.9870  -16.0100   20.4230 H   0  0  0  0  0  0  0  0  0  0  0  0
  -26.5630  -15.7990   19.8540 H   0  0  0  0  0  0  0  0  0  0  0  0
  -28.2890  -25.5960   20.5730 C   0  0  0  0  0  3  0  0  0  0  0  0
  -28.9560  -24.4570   20.2520 C   0  0  0  0  0  0  0  0  0  0  0  0
  -30.0030  -24.4780   19.4130 O   0  0  0  0  0  0  0  0  0  0  0  0
  -30.1260  -25.3820   19.1520 H   0  0  0  0  0  0  0  0  0  0  0  0
  -28.5380  -26.8770   20.0920 O   0  0  0  0  0  0  0  0  0  0  0  0
  -24.7370  -31.9660   23.3760 C   0  0  0  0  0  0  0  0  0  0  0  0
  -27.4250  -27.7010   20.0720 C   0  0  0  0  0  0  0  0  0  0  0  0
  -23.5550  -30.6540   21.6470 C   0  0  0  0  0  3  0  0  0  0  0  0
  -25.0320  -29.2170   20.1410 C   0  0  0  0  0  0  0  0  0  0  0  0
  -26.0830  -31.0340   21.4940 C   0  0  0  0  0  2  0  0  0  0  0  0
  -26.1860  -29.7040   20.7720 C   0  0  0  0  0  0  0  0  0  0  0  0
  -27.3890  -28.9540   20.7350 C   0  0  0  0  0  3  0  0  0  0  0  0
  -26.2590  -27.2480   19.4180 C   0  0  0  0  0  3  0  0  0  0  0  0
  -25.0660  -27.9900   19.4580 C   0  0  0  0  0  3  0  0  0  0  0  0
  -23.7810  -30.0620   20.2310 C   0  0  0  0  0  2  0  0  0  0  0  0
  -24.8100  -31.2300   22.2310 N   0  0  0  0  0  0  0  0  0  0  0  0
  -23.6490  -32.2000   23.9210 O   0  0  0  0  0  0  0  0  0  0  0  0
  -22.9020  -29.5740   22.5400 C   0  0  0  0  0  0  0  0  0  0  0  0
  -21.5850  -29.3710   22.3720 N   0  0  0  0  0  0  0  0  0  0  0  0
  -23.5780  -28.9260   23.3430 O   0  0  0  0  0  0  0  0  0  0  0  0
  -21.0990  -29.9480   21.6990 H   0  0  0  0  0  0  0  0  0  0  0  0
  -18.2260  -28.0850   22.7300 C   0  0  0  0  0  0  0  0  0  0  0  0
  -20.7700  -28.3800   23.0770 C   0  0  0  0  0  3  0  0  0  0  0  0
  -20.9170  -26.9810   22.4360 C   0  0  0  0  0  2  0  0  0  0  0  0
  -19.8460  -26.6870   21.3800 C   0  0  0  0  0  2  0  0  0  0  0  0
  -18.4460  -26.7740   21.9960 C   0  0  0  0  0  2  0  0  0  0  0  0
  -19.3180  -28.8470   23.2240 C   0  0  0  0  0  0  0  0  0  0  0  0
  -19.0580  -30.0770   23.8680 C   0  0  0  0  0  3  0  0  0  0  0  0
  -17.7410  -30.5450   24.0240 C   0  0  0  0  0  3  0  0  0  0  0  0
  -16.6630  -29.7780   23.5490 C   0  0  0  0  0  3  0  0  0  0  0  0
  -16.9060  -28.5500   22.9070 C   0  0  0  0  0  3  0  0  0  0  0  0
  -26.0130  -32.5710   24.0410 C   0  0  0  0  0  3  0  0  0  0  0  0
  -26.4950  -31.7630   25.3090 C   0  0  1  0  0  0  0  0  0  0  0  0
  -25.3730  -31.4970   26.3390 C   0  0  0  0  0  1  0  0  0  0  0  0
  -27.0850  -30.3950   24.8930 C   0  0  0  0  0  1  0  0  0  0  0  0
  -27.6270  -32.5350   26.0230 C   0  0  0  0  0  1  0  0  0  0  0  0
  -25.7100  -33.9630   24.3970 N   0  0  0  0  0  0  0  0  0  0  0  0
  -26.0580  -35.0280   23.6630 C   0  0  0  0  0  0  0  0  0  0  0  0
  -26.7400  -34.9410   22.6380 O   0  0  0  0  0  0  0  0  0  0  0  0
  -25.1070  -34.1060   25.1940 H   0  0  0  0  0  0  0  0  0  0  0  0
  -24.3440  -36.8370   23.3260 C   0  0  0  0  0  1  0  0  0  0  0  0
  -25.5740  -36.4100   24.1430 C   0  0  0  0  0  3  0  0  0  0  0  0
  -27.6970  -37.2730   25.0220 C   0  0  0  0  0  1  0  0  0  0  0  0
  -26.6130  -37.4580   24.0610 N   0  0  0  0  0  0  0  0  0  0  0  0
  -26.2090  -38.3790   24.2130 H   0  0  0  0  0  0  0  0  0  0  0  0
  1  4  2  0
  2  5  2  0
  3  2  1  0
  3  1  1  0
  4  8  1  0
  4  7  1  0
  6  3  1  0
  9 12  1  0
 10 12  2  0
 11 14  2  0
 11 13  1  0
 12  1  1  0
 13  9  2  0
 14 10  1  0
 15 14  1  0
 16 24  1  0
 17 22  1  0
 18 19  1  0
 18 17  1  0
 20 19  1  0
 20 29  1  0
 20 21  1  0
 22 16  1  0
 22 21  1  0
 23 16  2  0
 24 13  1  0
 24 25  1  0
 26 27  2  0
 27 46  1  0
 28 27  1  0
 28 31  1  0
 29 30  1  0
 29 26  1  0
 30 28  2  0
 31 32  1  0
 32 33  2  0
 34 37  1  0
 34 33  1  0
 35 34  2  0
 36 35  1  0
 36 31  2  0
 37 38  1  0
 38 43  2  0
 38 39  1  0
 39 40  2  0
 40 41  1  0
 41 45  1  0
 42 41  2  0
 43 42  1  0
 44 43  1  0
 46 47  1  0
 47 50  1  0
 47 49  1  0
 48 46  2  0
 51 26  1  0
 51 52  1  0
 53 51  1  0
 55 54  2  0
 55  2  1  0
 56 55  1  0
 57 56  1  0
 58 54  1  0
 59 70  2  0
 60 58  1  0
 60 65  1  0
 61 69  1  0
 61 71  1  0
 62 68  1  0
 62 64  1  0
 63 69  1  0
 64 63  1  0
 65 64  2  0
 66 67  1  0
 66 60  2  0
 67 62  2  0
 68 61  1  0
 69 59  1  0
 71 73  2  0
 72 71  1  0
 74 72  1  0
 75 84  2  0
 75 80  1  0
 76 72  1  0
 76 80  1  0
 77 76  1  0
 78 79  1  0
 78 77  1  0
 79 75  1  0
 80 81  2  0
 81 82  1  0
 83 82  2  0
 84 83  1  0
 85 59  1  0
 85 90  1  0
 85 86  1  0
 86 89  1  1
 86 87  1  0
 88 86  1  0
 90 93  1  0
 91 95  1  0
 91 90  1  0
 92 91  2  0
 95 94  1  0
 97 95  1  0
 97 98  1  0
 97 96  1  0
M  ISO  4  16 100  24 100  54 101  58 101
M  END
>  <TORSDO>  (24) 
F 19

>  <SCORE>  (24) 
-13.877

>  <name>  (24) 
23

>  <ligand_id>  (24) 
23

>  <original_smiles>  (24) 
[H]OC(C(=O)N([H])C(c1c([H])c(F)c([H])c(N([H])C(=O)N2C([H])([H])C([H])([H])C([H])([H])C([H])(n3nc(-c4c([H])c([H])c(Oc5c([H])c([H])c(F)c([H])c5F)c([H])c4[H])c(C(=O)N([H])[H])c3N([H])[H])C2([H])[H])c1[H])=[N+]([H])[H])=C([H])Oc1c([H])c([H])c2c(c1[H])C([H])([H])N(C(=O)C([H])(N([H])C(=O)C([H])(N([H])C([H])([H])[H])C([H])([H])[H])C(C([H])([H])[H])(C([H])([H])[H])C([H])([H])[H])C([H])(C(=O)N([H])C1([H])c3c([H])c([H])c([H])c([H])c3C([H])([H])C([H])([H])C1([H])[H])C2([H])[H]

>  <smiles>  (24) 
[H]OC(C(=O)N([H])C(c1c([H])c(F)c([H])c(N([H])C(=O)N2C([H])([H])C([H])([H])C([H])([H])C([H])(n3nc(-c4c([H])c([H])c(Oc5c([H])c([H])c(F)c([H])c5F)c([H])c4[H])c(C(=O)N([H])[H])c3N([H])[H])C2([H])[H])c1[H])=[N+]([H])[H])=C([H])Oc1c([H])c([H])c2c(c1[H])C([H])([H])N(C(=O)C([H])(N([H])C(=O)C([H])(N([H])C([H])([H])[H])C([H])([H])[H])C(C([H])([H])[H])(C([H])([H])[H])C([H])([H])[H])C([H])(C(=O)N([H])C1([H])c3c([H])c([H])c([H])c([H])c3C([H])([H])C([H])([H])C1([H])[H])C2([H])[H]

$$$$
24:0:0
     RDKit          3D

 91100  0  0  1  0  0  0  0  0999 V2000
  -29.1380  -21.5760   19.3420 C   0  0  0  0  0  2  0  0  0  0  0  0
  -29.6390  -21.5570   21.7730 C   0  0  0  0  0  2  0  0  0  0  0  0
  -28.4190  -22.9690   19.4880 C   0  0  0  0  0  2  0  0  0  0  0  0
  -28.9120  -22.9360   21.9200 C   0  0  0  0  0  2  0  0  0  0  0  0
  -29.1110  -20.6710   20.6130 C   0  0  0  0  0  3  0  0  0  0  0  0
  -28.9240  -23.8630   20.6620 C   0  0  0  0  0  3  0  0  0  0  0  0
  -31.3250  -17.7170   20.1750 C   0  0  0  0  0  3  0  0  0  0  0  0
  -30.1680  -17.0720   20.5520 C   0  0  0  0  0  0  0  0  0  0  0  0
  -29.8310  -19.3000   20.4750 C   0  0  0  0  0  0  0  0  0  0  0  0
  -31.1060  -19.0990   20.1370 N   0  0  0  0  0  0  0  0  0  0  0  0
  -29.2180  -18.0880   20.7570 O   0  0  0  0  0  0  0  0  0  0  0  0
  -30.6090  -14.6290   20.4090 C   0  0  0  0  0  0  0  0  0  0  0  0
  -30.3630  -12.3990   19.3510 C   0  0  0  0  0  2  0  0  0  0  0  0
  -29.4280  -12.5370   18.1320 C   0  0  0  0  0  2  0  0  0  0  0  0
  -27.9530  -12.3840   18.5570 C   0  0  0  0  0  2  0  0  0  0  0  0
  -27.5950  -13.2470   19.7970 C   0  0  0  0  0  3  0  0  0  0  0  0
  -28.6520  -13.1000   20.9160 C   0  0  0  0  0  2  0  0  0  0  0  0
  -29.9620  -13.4230   20.3340 N   0  0  0  0  0  0  0  0  0  0  0  0
  -31.7800  -14.7400   20.0360 O   0  0  0  0  0  0  0  0  0  0  0  0
  -29.8510  -15.7300   20.7210 N   0  0  0  0  0  0  0  0  0  0  0  0
  -28.9060  -15.5300   21.0100 H   0  0  0  0  0  0  0  0  0  0  0  0
  -25.2010  -13.8470   20.5090 C   0  0  0  0  0  0  0  0  0  0  0  0
  -24.1340  -13.0750   20.8790 C   0  0  0  0  0  0  0  0  0  0  0  0
  -24.5950  -11.7230   20.8520 C   0  0  0  0  0  0  0  0  0  0  0  0
  -26.2460  -12.9660   20.2800 N   0  0  0  0  0  0  0  0  0  0  0  0
  -25.8880  -11.6830   20.5470 N   0  0  0  0  0  0  0  0  0  0  0  0
  -23.8690  -10.4610   21.0420 C   0  0  0  0  0  0  0  0  0  0  0  0
  -24.3020   -9.4920   21.9730 C   0  0  0  0  0  3  0  0  0  0  0  0
  -23.5740   -8.2950   22.1510 C   0  0  0  0  0  3  0  0  0  0  0  0
  -22.3990   -8.0600   21.3990 C   0  0  0  0  0  0  0  0  0  0  0  0
  -21.9840   -9.0190   20.4570 C   0  0  0  0  0  3  0  0  0  0  0  0
  -22.7130  -10.2060   20.2770 C   0  0  0  0  0  3  0  0  0  0  0  0
  -21.6430   -6.9160   21.4860 O   0  0  0  0  0  0  0  0  0  0  0  0
  -21.5980   -6.1690   22.6370 C   0  0  0  0  0  0  0  0  0  0  0  0
  -21.1790   -6.7230   23.8670 C   0  0  0  0  0  3  0  0  0  0  0  0
  -21.0800   -5.9030   25.0090 C   0  0  0  0  0  3  0  0  0  0  0  0
  -21.3890   -4.5330   24.9230 C   0  0  0  0  0  0  0  0  0  0  0  0
  -21.8010   -3.9790   23.6980 C   0  0  0  0  0  3  0  0  0  0  0  0
  -21.9020   -4.7960   22.5570 C   0  0  0  0  0  0  0  0  0  0  0  0
  -22.2780   -4.2530   21.3740 F   0  0  0  0  0  0  0  0  0  0  0  0
  -21.2860   -3.7440   26.0180 F   0  0  0  0  0  0  0  0  0  0  0  0
  -22.7360  -13.5530   21.1460 C   0  0  0  0  0  0  0  0  0  0  0  0
  -22.0050  -12.8590   22.0110 N   0  0  0  0  0  0  0  0  0  0  0  0
  -22.3000  -14.5780   20.6220 O   0  0  0  0  0  0  0  0  0  0  0  0
  -22.3700  -12.0310   22.4570 H   0  0  0  0  0  0  0  0  0  0  0  0
  -21.0670  -13.1620   22.2310 H   0  0  0  0  0  0  0  0  0  0  0  0
  -25.3670  -15.2180   20.3300 N   0  0  0  0  0  0  0  0  0  0  0  0
  -24.5970  -15.8700   20.4350 H   0  0  0  0  0  0  0  0  0  0  0  0
  -26.2100  -15.6570   19.9830 H   0  0  0  0  0  0  0  0  0  0  0  0
  -28.0840  -25.1980   20.9290 C   0  0  0  0  0  2  0  0  0  0  0  0
  -28.3340  -26.4710   20.2250 O   0  0  0  0  0  0  0  0  0  0  0  0
  -24.6130  -31.8630   23.2370 C   0  0  0  0  0  0  0  0  0  0  0  0
  -27.2370  -27.3360   20.1830 C   0  0  0  0  0  0  0  0  0  0  0  0
  -23.4130  -30.4650   21.5920 C   0  0  0  0  0  3  0  0  0  0  0  0
  -24.8700  -28.9250   20.1630 C   0  0  0  0  0  0  0  0  0  0  0  0
  -25.9490  -30.7970   21.4090 C   0  0  0  0  0  2  0  0  0  0  0  0
  -26.0350  -29.4220   20.7630 C   0  0  0  0  0  0  0  0  0  0  0  0
  -27.2260  -28.6390   20.7630 C   0  0  0  0  0  3  0  0  0  0  0  0
  -26.0580  -26.8900   19.5490 C   0  0  0  0  0  3  0  0  0  0  0  0
  -24.8820  -27.6640   19.5450 C   0  0  0  0  0  3  0  0  0  0  0  0
  -23.6300  -29.7930   20.2100 C   0  0  0  0  0  2  0  0  0  0  0  0
  -24.6770  -31.0590   22.1370 N   0  0  0  0  0  0  0  0  0  0  0  0
  -23.5290  -32.1370   23.7720 O   0  0  0  0  0  0  0  0  0  0  0  0
  -22.7520  -29.4450   22.5490 C   0  0  0  0  0  0  0  0  0  0  0  0
  -21.4250  -29.2710   22.4230 N   0  0  0  0  0  0  0  0  0  0  0  0
  -23.4310  -28.8150   23.3630 O   0  0  0  0  0  0  0  0  0  0  0  0
  -20.9380  -29.8310   21.7390 H   0  0  0  0  0  0  0  0  0  0  0  0
  -18.0460  -28.0870   22.9260 C   0  0  0  0  0  0  0  0  0  0  0  0
  -20.6060  -28.3330   23.1900 C   0  0  0  0  0  3  0  0  0  0  0  0
  -20.7000  -26.9030   22.6080 C   0  0  0  0  0  2  0  0  0  0  0  0
  -19.5940  -26.5910   21.5950 C   0  0  0  0  0  2  0  0  0  0  0  0
  -18.2150  -26.7390   22.2420 C   0  0  0  0  0  2  0  0  0  0  0  0
  -19.1690  -28.8410   23.3560 C   0  0  0  0  0  0  0  0  0  0  0  0
  -18.9560  -30.1030   23.9550 C   0  0  0  0  0  3  0  0  0  0  0  0
  -17.6540  -30.6090   24.1260 C   0  0  0  0  0  3  0  0  0  0  0  0
  -16.5460  -29.8510   23.7100 C   0  0  0  0  0  3  0  0  0  0  0  0
  -16.7430  -28.5920   23.1170 C   0  0  0  0  0  3  0  0  0  0  0  0
  -25.8960  -32.4950   23.8620 C   0  0  0  0  0  3  0  0  0  0  0  0
  -25.5820  -33.8890   24.2030 N   0  0  0  0  0  0  0  0  0  0  0  0
  -25.9090  -34.9490   23.4510 C   0  0  0  0  0  0  0  0  0  0  0  0
  -26.5750  -34.8550   22.4160 O   0  0  0  0  0  0  0  0  0  0  0  0
  -24.9900  -34.0350   25.0080 H   0  0  0  0  0  0  0  0  0  0  0  0
  -24.1730  -36.7380   23.1150 C   0  0  0  0  0  1  0  0  0  0  0  0
  -25.4180  -36.3320   23.9200 C   0  0  0  0  0  3  0  0  0  0  0  0
  -27.5530  -37.2170   24.7490 C   0  0  0  0  0  1  0  0  0  0  0  0
  -26.4460  -37.3890   23.8110 N   0  0  0  0  0  0  0  0  0  0  0  0
  -26.0380  -38.3060   23.9680 H   0  0  0  0  0  0  0  0  0  0  0  0
  -26.4160  -31.7140   25.1320 C   0  0  1  0  0  0  0  0  0  0  0  0
  -25.3250  -31.4680   26.2010 C   0  0  0  0  0  1  0  0  0  0  0  0
  -26.9980  -30.3400   24.7270 C   0  0  0  0  0  1  0  0  0  0  0  0
  -27.5680  -32.5040   25.7960 C   0  0  0  0  0  1  0  0  0  0  0  0
  1  3  1  0
  1  5  1  0
  2  4  1  0
  3  6  1  0
  5  9  1  0
  5  2  1  0
  6 50  1  0
  6  4  1  0
  7  8  2  0
  8 20  1  0
  8 11  1  0
  9 11  1  0
 10  7  1  0
 10  9  2  0
 12 20  1  0
 13 18  1  0
 14 15  1  0
 14 13  1  0
 16 15  1  0
 16 25  1  0
 16 17  1  0
 18 12  1  0
 18 17  1  0
 19 12  2  0
 20 21  1  0
 22 23  2  0
 23 42  1  0
 24 23  1  0
 24 27  1  0
 25 22  1  0
 25 26  1  0
 26 24  2  0
 27 28  1  0
 28 29  2  0
 30 33  1  0
 30 29  1  0
 31 30  2  0
 32 31  1  0
 32 27  2  0
 33 34  1  0
 34 35  1  0
 35 36  2  0
 37 36  1  0
 37 41  1  0
 38 37  2  0
 39 34  2  0
 39 38  1  0
 40 39  1  0
 42 43  1  0
 43 46  1  0
 43 45  1  0
 44 42  2  0
 47 48  1  0
 47 22  1  0
 49 47  1  0
 51 50  1  0
 52 63  2  0
 53 51  1  0
 53 58  1  0
 54 62  1  0
 54 64  1  0
 55 61  1  0
 55 57  1  0
 56 62  1  0
 57 56  1  0
 58 57  2  0
 59 53  2  0
 60 59  1  0
 60 55  2  0
 61 54  1  0
 62 52  1  0
 64 66  2  0
 65 64  1  0
 67 65  1  0
 68 77  2  0
 68 73  1  0
 69 65  1  0
 69 73  1  0
 70 69  1  0
 71 72  1  0
 71 70  1  0
 72 68  1  0
 73 74  2  0
 74 75  1  0
 76 75  2  0
 77 76  1  0
 78 52  1  0
 78 79  1  0
 78 88  1  0
 79 82  1  0
 80 84  1  0
 80 79  1  0
 81 80  2  0
 84 83  1  0
 86 84  1  0
 86 87  1  0
 86 85  1  0
 88 91  1  1
 88 89  1  0
 90 88  1  0
M  ISO  4  12 100  20 100  50 101  51 101
M  END
>  <TORSDO>  (25) 
F 18

>  <SCORE>  (25) 
-14.894

>  <name>  (25) 
24

>  <ligand_id>  (25) 
24

>  <original_smiles>  (25) 
[H]c1nc(C2([H])C([H])([H])C([H])([H])C([H])(C([H])([H])Oc3c([H])c([H])c4c(c3[H])C([H])([H])N(C(=O)C([H])(N([H])C(=O)C([H])(N([H])C([H])([H])[H])C([H])([H])[H])C(C([H])([H])[H])(C([H])([H])[H])C([H])([H])[H])C([H])(C(=O)N([H])C3([H])c5c([H])c([H])c([H])c([H])c5C([H])([H])C([H])([H])C3([H])[H])C4([H])[H])C([H])([H])C2([H])[H])oc1N([H])C(=O)N1C([H])([H])C([H])([H])C([H])([H])C([H])(n2nc(-c3c([H])c([H])c(Oc4c([H])c([H])c(F)c([H])c4F)c([H])c3[H])c(C(=O)N([H])[H])c2N([H])[H])C1([H])[H]

>  <smiles>  (25) 
[H]c1nc(C2([H])C([H])([H])C([H])([H])C([H])(C([H])([H])Oc3c([H])c([H])c4c(c3[H])C([H])([H])N(C(=O)C([H])(N([H])C(=O)C([H])(N([H])C([H])([H])[H])C([H])([H])[H])C(C([H])([H])[H])(C([H])([H])[H])C([H])([H])[H])C([H])(C(=O)N([H])C3([H])c5c([H])c([H])c([H])c([H])c5C([H])([H])C([H])([H])C3([H])[H])C4([H])[H])C([H])([H])C2([H])[H])oc1N([H])C(=O)N1C([H])([H])C([H])([H])C([H])([H])C([H])(n2nc(-c3c([H])c([H])c(Oc4c([H])c([H])c(F)c([H])c4F)c([H])c3[H])c(C(=O)N([H])[H])c2N([H])[H])C1([H])[H]

$$$$
25:0:0
     RDKit          3D

 98106  0  0  1  0  0  0  0  0999 V2000
  -30.6110  -16.8140   18.6510 C   0  0  0  0  0  3  0  0  0  0  0  0
  -29.4930  -17.9530   20.4730 C   0  0  0  0  0  3  0  0  0  0  0  0
  -30.6040  -17.9910   17.8690 C   0  0  0  0  0  0  0  0  0  0  0  0
  -29.9760  -19.1650   18.3850 C   0  0  0  0  0  0  0  0  0  0  0  0
  -30.0560  -16.7660   19.9510 C   0  0  0  0  0  0  0  0  0  0  0  0
  -29.4490  -19.1490   19.7130 C   0  0  0  0  0  0  0  0  0  0  0  0
  -30.7260  -14.4360   20.4520 C   0  0  0  0  0  0  0  0  0  0  0  0
  -30.3880  -12.2950   19.3190 C   0  0  0  0  0  2  0  0  0  0  0  0
  -29.4530  -12.5550   18.1190 C   0  0  0  0  0  2  0  0  0  0  0  0
  -27.9770  -12.4400   18.5470 C   0  0  0  0  0  2  0  0  0  0  0  0
  -27.6510  -13.2450   19.8340 C   0  0  0  0  0  3  0  0  0  0  0  0
  -28.7090  -12.9990   20.9370 C   0  0  0  0  0  2  0  0  0  0  0  0
  -30.0380  -13.2680   20.3650 N   0  0  0  0  0  0  0  0  0  0  0  0
  -31.9030  -14.5460   20.1050 O   0  0  0  0  0  0  0  0  0  0  0  0
  -29.9780  -15.5340   20.6890 N   0  0  0  0  0  0  0  0  0  0  0  0
  -29.1170  -15.3770   21.1910 H   0  0  0  0  0  0  0  0  0  0  0  0
  -25.2520  -13.8550   20.5380 C   0  0  0  0  0  0  0  0  0  0  0  0
  -24.1810  -13.0860   20.9050 C   0  0  0  0  0  0  0  0  0  0  0  0
  -24.6380  -11.7330   20.8760 C   0  0  0  0  0  0  0  0  0  0  0  0
  -26.2960  -12.9710   20.3110 N   0  0  0  0  0  0  0  0  0  0  0  0
  -25.9300  -11.6890   20.5720 N   0  0  0  0  0  0  0  0  0  0  0  0
  -23.9080  -10.4730   21.0650 C   0  0  0  0  0  0  0  0  0  0  0  0
  -24.3370   -9.5030   21.9970 C   0  0  0  0  0  3  0  0  0  0  0  0
  -23.6080   -8.3070   22.1720 C   0  0  0  0  0  3  0  0  0  0  0  0
  -22.4340   -8.0720   21.4160 C   0  0  0  0  0  0  0  0  0  0  0  0
  -22.0250   -9.0320   20.4730 C   0  0  0  0  0  3  0  0  0  0  0  0
  -22.7550  -10.2190   20.2970 C   0  0  0  0  0  3  0  0  0  0  0  0
  -21.6760   -6.9290   21.4990 O   0  0  0  0  0  0  0  0  0  0  0  0
  -21.6280   -6.1820   22.6490 C   0  0  0  0  0  0  0  0  0  0  0  0
  -21.2010   -6.7310   23.8790 C   0  0  0  0  0  3  0  0  0  0  0  0
  -21.0990   -5.9090   25.0190 C   0  0  0  0  0  3  0  0  0  0  0  0
  -21.4150   -4.5390   24.9320 C   0  0  0  0  0  0  0  0  0  0  0  0
  -21.8360   -3.9900   23.7070 C   0  0  0  0  0  3  0  0  0  0  0  0
  -21.9390   -4.8100   22.5690 C   0  0  0  0  0  0  0  0  0  0  0  0
  -22.3240   -4.2710   21.3870 F   0  0  0  0  0  0  0  0  0  0  0  0
  -21.3100   -3.7480   26.0250 F   0  0  0  0  0  0  0  0  0  0  0  0
  -22.7830  -13.5690   21.1710 C   0  0  0  0  0  0  0  0  0  0  0  0
  -22.0460  -12.8720   22.0300 N   0  0  0  0  0  0  0  0  0  0  0  0
  -22.3520  -14.5980   20.6520 O   0  0  0  0  0  0  0  0  0  0  0  0
  -22.4070  -12.0450   22.4770 H   0  0  0  0  0  0  0  0  0  0  0  0
  -21.1060  -13.1750   22.2440 H   0  0  0  0  0  0  0  0  0  0  0  0
  -25.4190  -15.2250   20.3620 N   0  0  0  0  0  0  0  0  0  0  0  0
  -24.6490  -15.8750   20.4670 H   0  0  0  0  0  0  0  0  0  0  0  0
  -26.2680  -15.6640   20.0290 H   0  0  0  0  0  0  0  0  0  0  0  0
  -31.2330  -17.9390   16.5170 C   0  0  0  0  0  3  0  0  0  0  0  0
  -31.9540  -16.9960   16.0740 N   0  0  0  0  0  0  0  0  0  0  0  0
  -32.0760  -16.2580   16.7560 H   0  0  0  0  0  0  0  0  0  0  0  0
  -28.7770  -20.2470   20.2800 N   0  0  0  0  0  0  0  0  0  0  0  0
  -28.0020  -20.5670   19.6950 H   0  0  0  0  0  0  0  0  0  0  0  0
  -29.5240  -21.4750   20.6230 C   0  0  0  0  0  2  0  0  0  0  0  0
  -28.7380  -22.7220   20.1560 C   0  0  0  0  0  0  0  0  0  0  0  0
  -27.7080  -22.5430   19.4870 O   0  0  0  0  0  0  0  0  0  0  0  0
  -29.2010  -24.1800   20.4800 C   0  0  0  0  0  0  0  0  0  0  0  0
  -30.2350  -24.4420   21.1090 O   0  0  0  0  0  0  0  0  0  0  0  0
  -28.2450  -25.2530   19.9320 C   0  0  0  0  0  2  0  0  0  0  0  0
  -28.4390  -26.6120   20.3840 O   0  0  0  0  0  0  0  0  0  0  0  0
  -24.6460  -31.9250   23.3010 C   0  0  0  0  0  0  0  0  0  0  0  0
  -27.2940  -27.4010   20.3150 C   0  0  0  0  0  0  0  0  0  0  0  0
  -23.4600  -30.5190   21.6550 C   0  0  0  0  0  3  0  0  0  0  0  0
  -24.9220  -28.9630   20.2720 C   0  0  0  0  0  0  0  0  0  0  0  0
  -25.9990  -30.8420   21.5070 C   0  0  0  0  0  2  0  0  0  0  0  0
  -26.0800  -29.4650   20.8780 C   0  0  0  0  0  0  0  0  0  0  0  0
  -27.2690  -28.6920   20.9000 C   0  0  0  0  0  3  0  0  0  0  0  0
  -26.1090  -26.9410   19.6810 C   0  0  0  0  0  3  0  0  0  0  0  0
  -24.9310  -27.6990   19.6760 C   0  0  0  0  0  3  0  0  0  0  0  0
  -23.6890  -29.8340   20.2860 C   0  0  0  0  0  2  0  0  0  0  0  0
  -24.7200  -31.1120   22.2110 N   0  0  0  0  0  0  0  0  0  0  0  0
  -23.5550  -32.2150   23.8140 O   0  0  0  0  0  0  0  0  0  0  0  0
  -22.7820  -29.5070   22.6110 C   0  0  0  0  0  0  0  0  0  0  0  0
  -21.4580  -29.3360   22.4590 N   0  0  0  0  0  0  0  0  0  0  0  0
  -23.4440  -28.8830   23.4430 O   0  0  0  0  0  0  0  0  0  0  0  0
  -20.9870  -29.8930   21.7580 H   0  0  0  0  0  0  0  0  0  0  0  0
  -18.0590  -28.1980   22.9220 C   0  0  0  0  0  0  0  0  0  0  0  0
  -20.6160  -28.4170   23.2230 C   0  0  0  0  0  3  0  0  0  0  0  0
  -20.7030  -26.9810   22.6560 C   0  0  0  0  0  2  0  0  0  0  0  0
  -19.6070  -26.6700   21.6310 C   0  0  0  0  0  2  0  0  0  0  0  0
  -18.2200  -26.8410   22.2570 C   0  0  0  0  0  2  0  0  0  0  0  0
  -19.1840  -28.9450   23.3600 C   0  0  0  0  0  0  0  0  0  0  0  0
  -18.9800  -30.2150   23.9430 C   0  0  0  0  0  3  0  0  0  0  0  0
  -17.6810  -30.7380   24.0890 C   0  0  0  0  0  3  0  0  0  0  0  0
  -16.5700  -29.9900   23.6650 C   0  0  0  0  0  3  0  0  0  0  0  0
  -16.7590  -28.7210   23.0880 C   0  0  0  0  0  3  0  0  0  0  0  0
  -25.9250  -32.5530   23.9370 C   0  0  0  0  0  3  0  0  0  0  0  0
  -25.6180  -33.9540   24.2510 N   0  0  0  0  0  0  0  0  0  0  0  0
  -25.9590  -34.9970   23.4830 C   0  0  0  0  0  0  0  0  0  0  0  0
  -26.6370  -34.8810   22.4570 O   0  0  0  0  0  0  0  0  0  0  0  0
  -25.0190  -34.1200   25.0460 H   0  0  0  0  0  0  0  0  0  0  0  0
  -24.2360  -36.7870   23.0960 C   0  0  0  0  0  1  0  0  0  0  0  0
  -25.4720  -36.3910   23.9190 C   0  0  0  0  0  3  0  0  0  0  0  0
  -27.6030  -37.2810   24.7560 C   0  0  0  0  0  1  0  0  0  0  0  0
  -26.5080  -37.4410   23.8000 N   0  0  0  0  0  0  0  0  0  0  0  0
  -26.1040  -38.3630   23.9330 H   0  0  0  0  0  0  0  0  0  0  0  0
  -26.4170  -31.7870   25.2270 C   0  0  1  0  0  0  0  0  0  0  0  0
  -25.3050  -31.5590   26.2770 C   0  0  0  0  0  1  0  0  0  0  0  0
  -27.0020  -30.4060   24.8510 C   0  0  0  0  0  1  0  0  0  0  0  0
  -27.5570  -32.5830   25.9040 C   0  0  0  0  0  1  0  0  0  0  0  0
  -28.7020  -20.2920   16.4620 C   0  0  0  0  0  1  0  0  0  0  0  0
  -29.8380  -20.4080   17.4920 C   0  0  0  0  0  2  0  0  0  0  0  0
  1  5  1  0
  3  4  1  0
  3  1  2  0
  4  6  2  0
  5  2  2  0
  5 15  1  0
  6 48  1  0
  6  2  1  0
  7 15  1  0
  8 13  1  0
  9 10  1  0
  9  8  1  0
 11 10  1  0
 11 20  1  0
 11 12  1  0
 13  7  1  0
 13 12  1  0
 14  7  2  0
 15 16  1  0
 17 18  2  0
 18 37  1  0
 19 18  1  0
 19 22  1  0
 20 17  1  0
 20 21  1  0
 21 19  2  0
 22 23  1  0
 23 24  2  0
 25 28  1  0
 25 24  1  0
 26 25  2  0
 27 26  1  0
 27 22  2  0
 28 29  1  0
 29 30  1  0
 30 31  2  0
 32 31  1  0
 32 36  1  0
 33 32  2  0
 34 29  2  0
 34 33  1  0
 35 34  1  0
 37 38  1  0
 38 41  1  0
 38 40  1  0
 39 37  2  0
 42 43  1  0
 42 17  1  0
 44 42  1  0
 45  3  1  0
 46 45  2  0
 46 47  1  0
 48 50  1  0
 49 48  1  0
 51 53  1  0
 51 50  1  0
 52 51  2  0
 53 54  2  0
 55 56  1  0
 55 53  1  0
 57 68  2  0
 58 56  1  0
 58 63  1  0
 59 67  1  0
 59 69  1  0
 60 66  1  0
 60 62  1  0
 61 67  1  0
 62 63  2  0
 62 61  1  0
 64 58  2  0
 65 64  1  0
 65 60  2  0
 66 59  1  0
 67 57  1  0
 69 71  2  0
 70 69  1  0
 72 70  1  0
 73 82  2  0
 73 78  1  0
 74 70  1  0
 74 78  1  0
 75 74  1  0
 76 77  1  0
 76 75  1  0
 77 73  1  0
 78 79  2  0
 79 80  1  0
 81 80  2  0
 82 81  1  0
 83 57  1  0
 83 84  1  0
 83 93  1  0
 84 87  1  0
 85 89  1  0
 85 84  1  0
 86 85  2  0
 89 88  1  0
 91 89  1  0
 91 92  1  0
 91 90  1  0
 93 96  1  1
 93 94  1  0
 95 93  1  0
 97 98  1  0
 98  4  1  0
M  ISO  4   7 100  15 100  55 101  56 101
M  END
>  <TORSDO>  (26) 
F 23

>  <SCORE>  (26) 
-13.133

>  <name>  (26) 
25

>  <ligand_id>  (26) 
25

>  <original_smiles>  (26) 
[H]N=C([H])c1c([H])c(N([H])C(=O)N2C([H])([H])C([H])([H])C([H])([H])C([H])(n3nc(-c4c([H])c([H])c(Oc5c([H])c([H])c(F)c([H])c5F)c([H])c4[H])c(C(=O)N([H])[H])c3N([H])[H])C2([H])[H])c([H])c(N([H])C([H])([H])C(=O)C(=O)C([H])([H])Oc2c([H])c([H])c3c(c2[H])C([H])([H])N(C(=O)C([H])(N([H])C(=O)C([H])(N([H])C([H])([H])[H])C([H])([H])[H])C(C([H])([H])[H])(C([H])([H])[H])C([H])([H])[H])C([H])(C(=O)N([H])C2([H])c4c([H])c([H])c([H])c([H])c4C([H])([H])C([H])([H])C2([H])[H])C3([H])[H])c1C([H])([H])C([H])([H])[H]

>  <smiles>  (26) 
[H]N=C([H])c1c([H])c(N([H])C(=O)N2C([H])([H])C([H])([H])C([H])([H])C([H])(n3nc(-c4c([H])c([H])c(Oc5c([H])c([H])c(F)c([H])c5F)c([H])c4[H])c(C(=O)N([H])[H])c3N([H])[H])C2([H])[H])c([H])c(N([H])C([H])([H])C(=O)C(=O)C([H])([H])Oc2c([H])c([H])c3c(c2[H])C([H])([H])N(C(=O)C([H])(N([H])C(=O)C([H])(N([H])C([H])([H])[H])C([H])([H])[H])C(C([H])([H])[H])(C([H])([H])[H])C([H])([H])[H])C([H])(C(=O)N([H])C2([H])c4c([H])c([H])c([H])c([H])c4C([H])([H])C([H])([H])C2([H])[H])C3([H])[H])c1C([H])([H])C([H])([H])[H]

$$$$
26:0:0
     RDKit          3D

 95103  0  0  1  0  0  0  0  0999 V2000
  -28.8090  -22.8030   20.1200 C   0  0  0  0  0  0  0  0  0  0  0  0
  -28.7310  -21.4820   19.6440 N   0  0  0  0  0  0  0  0  0  0  0  0
  -29.3260  -23.0610   21.2080 O   0  0  0  0  0  0  0  0  0  0  0  0
  -28.1630  -21.4730   18.8030 H   0  0  0  0  0  0  0  0  0  0  0  0
  -30.4420  -19.8410   20.6090 C   0  0  0  0  0  3  0  0  0  0  0  0
  -30.7550  -18.4040   20.7000 C   0  0  0  0  0  0  0  0  0  0  0  0
  -29.2620  -20.2080   19.9890 C   0  0  0  0  0  0  0  0  0  0  0  0
  -29.7880  -17.5310   20.1840 C   0  0  0  0  0  0  0  0  0  0  0  0
  -28.5090  -18.6340   19.5450 S   0  0  0  0  0  0  0  0  0  0  0  0
  -30.4590  -15.0010   19.9180 C   0  0  0  0  0  0  0  0  0  0  0  0
  -30.2550  -12.7000   18.9140 C   0  0  0  0  0  2  0  0  0  0  0  0
  -29.2170  -12.7320   17.7690 C   0  0  0  0  0  2  0  0  0  0  0  0
  -27.7890  -12.5230   18.3110 C   0  0  0  0  0  2  0  0  0  0  0  0
  -27.4900  -13.4000   19.5570 C   0  0  0  0  0  3  0  0  0  0  0  0
  -28.6400  -13.3400   20.5870 C   0  0  0  0  0  2  0  0  0  0  0  0
  -29.8710  -13.7470   19.8950 N   0  0  0  0  0  0  0  0  0  0  0  0
  -31.6150  -15.1260   19.5020 O   0  0  0  0  0  0  0  0  0  0  0  0
  -29.6390  -16.1090   20.1840 N   0  0  0  0  0  0  0  0  0  0  0  0
  -28.6890  -15.8140   20.3500 H   0  0  0  0  0  0  0  0  0  0  0  0
  -25.1830  -13.9480   20.5290 C   0  0  0  0  0  0  0  0  0  0  0  0
  -24.1510  -13.1570   20.9530 C   0  0  0  0  0  0  0  0  0  0  0  0
  -24.6020  -11.8090   20.8110 C   0  0  0  0  0  0  0  0  0  0  0  0
  -26.1970  -13.0830   20.1530 N   0  0  0  0  0  0  0  0  0  0  0  0
  -25.8600  -11.7870   20.3860 N   0  0  0  0  0  0  0  0  0  0  0  0
  -23.8890  -10.5390   21.0000 C   0  0  0  0  0  0  0  0  0  0  0  0
  -24.3510   -9.5580   21.9050 C   0  0  0  0  0  3  0  0  0  0  0  0
  -23.6340   -8.3550   22.0850 C   0  0  0  0  0  3  0  0  0  0  0  0
  -22.4420   -8.1230   21.3590 C   0  0  0  0  0  0  0  0  0  0  0  0
  -21.9980   -9.0930   20.4420 C   0  0  0  0  0  3  0  0  0  0  0  0
  -22.7150  -10.2870   20.2600 C   0  0  0  0  0  3  0  0  0  0  0  0
  -21.6950   -6.9730   21.4470 O   0  0  0  0  0  0  0  0  0  0  0  0
  -21.6450   -6.2350   22.6040 C   0  0  0  0  0  0  0  0  0  0  0  0
  -21.1760   -6.7850   23.8170 C   0  0  0  0  0  3  0  0  0  0  0  0
  -21.0720   -5.9740   24.9640 C   0  0  0  0  0  3  0  0  0  0  0  0
  -21.4280   -4.6140   24.8990 C   0  0  0  0  0  0  0  0  0  0  0  0
  -21.8910   -4.0630   23.6920 C   0  0  0  0  0  3  0  0  0  0  0  0
  -21.9950   -4.8720   22.5470 C   0  0  0  0  0  0  0  0  0  0  0  0
  -22.4210   -4.3310   21.3790 F   0  0  0  0  0  0  0  0  0  0  0  0
  -21.3210   -3.8320   26.0000 F   0  0  0  0  0  0  0  0  0  0  0  0
  -22.7850  -13.6200   21.3720 C   0  0  0  0  0  0  0  0  0  0  0  0
  -22.1270  -12.8730   22.2500 N   0  0  0  0  0  0  0  0  0  0  0  0
  -22.3160  -14.6810   20.9580 O   0  0  0  0  0  0  0  0  0  0  0  0
  -22.5200  -12.0150   22.6070 H   0  0  0  0  0  0  0  0  0  0  0  0
  -21.2150  -13.1660   22.5720 H   0  0  0  0  0  0  0  0  0  0  0  0
  -25.3350  -15.3280   20.4070 N   0  0  0  0  0  0  0  0  0  0  0  0
  -24.5770  -15.9710   20.6090 H   0  0  0  0  0  0  0  0  0  0  0  0
  -26.1350  -15.7860   19.9920 H   0  0  0  0  0  0  0  0  0  0  0  0
  -31.9660  -17.9400   21.3870 C   0  0  0  0  0  0  0  0  0  0  0  0
  -33.2280  -18.7860   21.2190 C   0  0  0  0  0  1  0  0  0  0  0  0
  -32.0480  -16.9110   22.0650 O   0  0  0  0  0  0  0  0  0  0  0  0
  -27.9310  -25.2360   19.2440 C   0  0  0  0  0  3  0  0  0  0  0  0
  -28.2130  -23.8520   19.1840 C   0  0  0  0  0  0  0  0  0  0  0  0
  -27.8820  -23.3210   17.9930 O   0  0  0  0  0  0  0  0  0  0  0  0
  -27.5280  -24.0180   17.4530 H   0  0  0  0  0  0  0  0  0  0  0  0
  -27.9860  -26.3560   20.1440 O   0  0  0  0  0  0  0  0  0  0  0  0
  -24.5390  -32.0230   23.2830 C   0  0  0  0  0  0  0  0  0  0  0  0
  -26.9450  -27.3430   20.1140 C   0  0  0  0  0  0  0  0  0  0  0  0
  -23.2590  -30.6540   21.6850 C   0  0  0  0  0  3  0  0  0  0  0  0
  -24.6310  -29.0830   20.1980 C   0  0  0  0  0  0  0  0  0  0  0  0
  -25.8080  -30.8990   21.4230 C   0  0  0  0  0  2  0  0  0  0  0  0
  -25.8390  -29.5180   20.7590 C   0  0  0  0  0  0  0  0  0  0  0  0
  -26.9990  -28.6620   20.7060 C   0  0  0  0  0  3  0  0  0  0  0  0
  -25.6940  -26.9910   19.5490 C   0  0  0  0  0  3  0  0  0  0  0  0
  -24.5670  -27.8290   19.5830 C   0  0  0  0  0  3  0  0  0  0  0  0
  -23.4160  -29.9890   20.2950 C   0  0  0  0  0  2  0  0  0  0  0  0
  -24.5580  -31.2110   22.1840 N   0  0  0  0  0  0  0  0  0  0  0  0
  -23.4770  -32.3170   23.8530 O   0  0  0  0  0  0  0  0  0  0  0  0
  -22.6070  -29.6440   22.6630 C   0  0  0  0  0  0  0  0  0  0  0  0
  -21.2830  -29.4430   22.5380 N   0  0  0  0  0  0  0  0  0  0  0  0
  -23.2920  -29.0460   23.4940 O   0  0  0  0  0  0  0  0  0  0  0  0
  -20.7870  -29.9760   21.8380 H   0  0  0  0  0  0  0  0  0  0  0  0
  -17.9350  -28.1500   23.0180 C   0  0  0  0  0  0  0  0  0  0  0  0
  -20.4770  -28.5080   23.3260 C   0  0  0  0  0  3  0  0  0  0  0  0
  -20.6390  -27.0600   22.8080 C   0  0  0  0  0  2  0  0  0  0  0  0
  -19.5690  -26.6630   21.7860 C   0  0  0  0  0  2  0  0  0  0  0  0
  -18.1710  -26.7850   22.3970 C   0  0  0  0  0  2  0  0  0  0  0  0
  -19.0180  -28.9660   23.4410 C   0  0  0  0  0  0  0  0  0  0  0  0
  -18.7430  -30.2400   23.9830 C   0  0  0  0  0  3  0  0  0  0  0  0
  -17.4190  -30.6980   24.1120 C   0  0  0  0  0  3  0  0  0  0  0  0
  -16.3500  -29.8790   23.7080 C   0  0  0  0  0  3  0  0  0  0  0  0
  -16.6080  -28.6080   23.1640 C   0  0  0  0  0  3  0  0  0  0  0  0
  -25.8480  -32.6370   23.8640 C   0  0  0  0  0  3  0  0  0  0  0  0
  -26.3890  -31.8600   25.1270 C   0  0  1  0  0  0  0  0  0  0  0  0
  -25.3220  -31.6310   26.2220 C   0  0  0  0  0  1  0  0  0  0  0  0
  -26.9540  -30.4770   24.7260 C   0  0  0  0  0  1  0  0  0  0  0  0
  -27.5610  -32.6470   25.7610 C   0  0  0  0  0  1  0  0  0  0  0  0
  -25.5710  -34.0420   24.2030 N   0  0  0  0  0  0  0  0  0  0  0  0
  -25.8880  -35.0900   23.4310 C   0  0  0  0  0  0  0  0  0  0  0  0
  -26.5130  -34.9750   22.3730 O   0  0  0  0  0  0  0  0  0  0  0  0
  -25.0160  -34.2070   25.0300 H   0  0  0  0  0  0  0  0  0  0  0  0
  -24.1760  -36.9120   23.1460 C   0  0  0  0  0  1  0  0  0  0  0  0
  -25.4420  -36.4870   23.9060 C   0  0  0  0  0  3  0  0  0  0  0  0
  -27.6190  -37.3460   24.6560 C   0  0  0  0  0  1  0  0  0  0  0  0
  -26.4860  -37.5230   23.7490 N   0  0  0  0  0  0  0  0  0  0  0  0
  -26.1010  -38.4500   23.9030 H   0  0  0  0  0  0  0  0  0  0  0  0
  1  3  2  0
  2  7  1  0
  2  1  1  0
  4  2  1  0
  5  6  1  0
  6 48  1  0
  7  5  2  0
  8 18  1  0
  8  6  2  0
  9  7  1  0
  9  8  1  0
 10 18  1  0
 11 16  1  0
 12 13  1  0
 12 11  1  0
 14 13  1  0
 14 23  1  0
 14 15  1  0
 16 10  1  0
 16 15  1  0
 17 10  2  0
 18 19  1  0
 20 21  2  0
 21 40  1  0
 22 21  1  0
 22 25  1  0
 23 24  1  0
 23 20  1  0
 24 22  2  0
 25 26  1  0
 26 27  2  0
 28 31  1  0
 28 27  1  0
 29 28  2  0
 30 29  1  0
 30 25  2  0
 31 32  1  0
 32 33  1  0
 33 34  2  0
 35 34  1  0
 35 39  1  0
 36 35  2  0
 37 32  2  0
 37 36  1  0
 38 37  1  0
 40 41  1  0
 41 44  1  0
 41 43  1  0
 42 40  2  0
 45 20  1  0
 45 46  1  0
 47 45  1  0
 48 50  2  0
 49 48  1  0
 51 55  1  0
 52 51  2  0
 52  1  1  0
 53 52  1  0
 54 53  1  0
 56 67  2  0
 57 55  1  0
 57 62  1  0
 58 66  1  0
 58 68  1  0
 59 65  1  0
 59 61  1  0
 60 66  1  0
 61 60  1  0
 62 61  2  0
 63 64  1  0
 63 57  2  0
 64 59  2  0
 65 58  1  0
 66 56  1  0
 68 70  2  0
 69 68  1  0
 71 69  1  0
 72 81  2  0
 72 77  1  0
 73 69  1  0
 73 77  1  0
 74 73  1  0
 75 76  1  0
 75 74  1  0
 76 72  1  0
 77 78  2  0
 78 79  1  0
 80 79  2  0
 81 80  1  0
 82 56  1  0
 82 87  1  0
 82 83  1  0
 83 86  1  1
 83 84  1  0
 85 83  1  0
 87 90  1  0
 88 92  1  0
 88 87  1  0
 89 88  2  0
 92 91  1  0
 94 95  1  0
 94 92  1  0
 94 93  1  0
M  ISO  4  10 100  18 100  51 101  55 101
M  END
>  <TORSDO>  (27) 
F 20

>  <SCORE>  (27) 
-13.115

>  <name>  (27) 
26

>  <ligand_id>  (27) 
26

>  <original_smiles>  (27) 
[H]OC(C(=O)N([H])c1sc(N([H])C(=O)N2C([H])([H])C([H])([H])C([H])([H])C([H])(n3nc(-c4c([H])c([H])c(Oc5c([H])c([H])c(F)c([H])c5F)c([H])c4[H])c(C(=O)N([H])[H])c3N([H])[H])C2([H])[H])c(C(=O)C([H])([H])[H])c1[H])=C([H])Oc1c([H])c([H])c2c(c1[H])C([H])([H])N(C(=O)C([H])(N([H])C(=O)C([H])(N([H])C([H])([H])[H])C([H])([H])[H])C(C([H])([H])[H])(C([H])([H])[H])C([H])([H])[H])C([H])(C(=O)N([H])C1([H])c3c([H])c([H])c([H])c([H])c3C([H])([H])C([H])([H])C1([H])[H])C2([H])[H]

>  <smiles>  (27) 
[H]OC(C(=O)N([H])c1sc(N([H])C(=O)N2C([H])([H])C([H])([H])C([H])([H])C([H])(n3nc(-c4c([H])c([H])c(Oc5c([H])c([H])c(F)c([H])c5F)c([H])c4[H])c(C(=O)N([H])[H])c3N([H])[H])C2([H])[H])c(C(=O)C([H])([H])[H])c1[H])=C([H])Oc1c([H])c([H])c2c(c1[H])C([H])([H])N(C(=O)C([H])(N([H])C(=O)C([H])(N([H])C([H])([H])[H])C([H])([H])[H])C(C([H])([H])[H])(C([H])([H])[H])C([H])([H])[H])C([H])(C(=O)N([H])C1([H])c3c([H])c([H])c([H])c([H])c3C([H])([H])C([H])([H])C1([H])[H])C2([H])[H]

$$$$
27:0:0
     RDKit          3D

 97106  0  0  1  0  0  0  0  0999 V2000
  -28.8050  -22.4220   19.7030 C   0  0  0  0  0  0  0  0  0  0  0  0
  -28.7620  -21.2220   20.4310 N   0  0  0  0  0  0  0  0  0  0  0  0
  -29.1660  -22.3790   18.5280 O   0  0  0  0  0  0  0  0  0  0  0  0
  -28.0100  -21.1870   21.1030 H   0  0  0  0  0  0  0  0  0  0  0  0
  -31.4560  -17.7690   20.8770 C   0  0  0  0  0  3  0  0  0  0  0  0
  -29.2430  -18.5990   20.3710 C   0  0  0  0  0  3  0  0  0  0  0  0
  -31.9130  -19.0920   20.9960 C   0  0  0  0  0  0  0  0  0  0  0  0
  -31.0520  -20.2100   20.7800 C   0  0  0  0  0  0  0  0  0  0  0  0
  -30.1250  -17.4360   20.5600 C   0  0  0  0  0  0  0  0  0  0  0  0
  -29.6720  -20.0120   20.4500 C   0  0  0  0  0  0  0  0  0  0  0  0
  -33.3760  -19.2570   21.4040 C   0  0  0  0  0  2  0  0  0  0  0  0
  -31.6090  -21.6180   21.0410 C   0  0  0  0  0  2  0  0  0  0  0  0
  -33.6850  -20.6130   22.0390 C   0  0  0  0  0  2  0  0  0  0  0  0
  -33.1390  -21.7100   21.1380 C   0  0  0  0  0  2  0  0  0  0  0  0
  -30.5350  -14.8130   20.3410 C   0  0  0  0  0  0  0  0  0  0  0  0
  -30.3630  -12.5160   19.3540 C   0  0  0  0  0  2  0  0  0  0  0  0
  -29.4100  -12.5540   18.1390 C   0  0  0  0  0  2  0  0  0  0  0  0
  -27.9490  -12.3600   18.5880 C   0  0  0  0  0  2  0  0  0  0  0  0
  -27.5780  -13.2510   19.8040 C   0  0  0  0  0  3  0  0  0  0  0  0
  -28.6490  -13.1910   20.9140 C   0  0  0  0  0  2  0  0  0  0  0  0
  -29.9210  -13.5770   20.2950 N   0  0  0  0  0  0  0  0  0  0  0  0
  -31.7190  -14.8860   19.9910 O   0  0  0  0  0  0  0  0  0  0  0  0
  -29.7580  -15.9710   20.5420 N   0  0  0  0  0  0  0  0  0  0  0  0
  -28.7850  -15.7730   20.7180 H   0  0  0  0  0  0  0  0  0  0  0  0
  -25.2030  -13.8360   20.5720 C   0  0  0  0  0  0  0  0  0  0  0  0
  -24.1420  -13.0600   20.9530 C   0  0  0  0  0  0  0  0  0  0  0  0
  -24.6030  -11.7090   20.9000 C   0  0  0  0  0  0  0  0  0  0  0  0
  -26.2420  -12.9570   20.3120 N   0  0  0  0  0  0  0  0  0  0  0  0
  -25.8880  -11.6700   20.5700 N   0  0  0  0  0  0  0  0  0  0  0  0
  -23.8750  -10.4460   21.0880 C   0  0  0  0  0  0  0  0  0  0  0  0
  -24.3250   -9.4640   21.9970 C   0  0  0  0  0  3  0  0  0  0  0  0
  -23.6010   -8.2660   22.1740 C   0  0  0  0  0  3  0  0  0  0  0  0
  -22.4110   -8.0410   21.4420 C   0  0  0  0  0  0  0  0  0  0  0  0
  -21.9800   -9.0110   20.5210 C   0  0  0  0  0  3  0  0  0  0  0  0
  -22.7050  -10.2010   20.3420 C   0  0  0  0  0  3  0  0  0  0  0  0
  -21.6540   -6.8980   21.5300 O   0  0  0  0  0  0  0  0  0  0  0  0
  -21.6350   -6.1370   22.6710 C   0  0  0  0  0  0  0  0  0  0  0  0
  -21.2340   -6.6690   23.9160 C   0  0  0  0  0  3  0  0  0  0  0  0
  -21.1600   -5.8350   25.0490 C   0  0  0  0  0  3  0  0  0  0  0  0
  -21.4750   -4.4660   24.9380 C   0  0  0  0  0  0  0  0  0  0  0  0
  -21.8660   -3.9330   23.6960 C   0  0  0  0  0  3  0  0  0  0  0  0
  -21.9430   -4.7660   22.5680 C   0  0  0  0  0  0  0  0  0  0  0  0
  -22.3010   -4.2410   21.3710 F   0  0  0  0  0  0  0  0  0  0  0  0
  -21.3960   -3.6620   26.0220 F   0  0  0  0  0  0  0  0  0  0  0  0
  -22.7510  -13.5350   21.2530 C   0  0  0  0  0  0  0  0  0  0  0  0
  -22.0420  -12.8350   22.1280 N   0  0  0  0  0  0  0  0  0  0  0  0
  -22.3060  -14.5660   20.7480 O   0  0  0  0  0  0  0  0  0  0  0  0
  -22.4220  -12.0040   22.5580 H   0  0  0  0  0  0  0  0  0  0  0  0
  -21.1090  -13.1300   22.3760 H   0  0  0  0  0  0  0  0  0  0  0  0
  -25.3680  -15.2080   20.4000 N   0  0  0  0  0  0  0  0  0  0  0  0
  -24.5900  -15.8550   20.4740 H   0  0  0  0  0  0  0  0  0  0  0  0
  -26.1970  -15.6320   20.0040 H   0  0  0  0  0  0  0  0  0  0  0  0
  -28.2850  -24.9730   19.7060 C   0  0  0  0  0  3  0  0  0  0  0  0
  -28.4420  -23.7520   20.3780 C   0  0  0  0  0  0  0  0  0  0  0  0
  -28.3640  -23.7680   21.7190 O   0  0  0  0  0  0  0  0  0  0  0  0
  -28.8130  -23.0010   22.0360 H   0  0  0  0  0  0  0  0  0  0  0  0
  -28.2300  -26.3030   20.2530 O   0  0  0  0  0  0  0  0  0  0  0  0
  -24.6490  -31.8810   23.2450 C   0  0  0  0  0  0  0  0  0  0  0  0
  -27.1490  -27.2170   20.1530 C   0  0  0  0  0  0  0  0  0  0  0  0
  -23.4140  -30.4990   21.6160 C   0  0  0  0  0  3  0  0  0  0  0  0
  -24.8260  -28.9220   20.1630 C   0  0  0  0  0  0  0  0  0  0  0  0
  -25.9580  -30.7600   21.4090 C   0  0  0  0  0  2  0  0  0  0  0  0
  -26.0110  -29.3750   20.7570 C   0  0  0  0  0  0  0  0  0  0  0  0
  -27.1690  -28.5310   20.7460 C   0  0  0  0  0  3  0  0  0  0  0  0
  -25.9390  -26.8290   19.5400 C   0  0  0  0  0  3  0  0  0  0  0  0
  -24.7980  -27.6610   19.5430 C   0  0  0  0  0  3  0  0  0  0  0  0
  -23.6070  -29.8250   20.2310 C   0  0  0  0  0  2  0  0  0  0  0  0
  -24.6950  -31.0650   22.1480 N   0  0  0  0  0  0  0  0  0  0  0  0
  -23.5720  -32.1730   23.7850 O   0  0  0  0  0  0  0  0  0  0  0  0
  -22.7460  -29.4920   22.5830 C   0  0  0  0  0  0  0  0  0  0  0  0
  -21.4190  -29.3170   22.4560 N   0  0  0  0  0  0  0  0  0  0  0  0
  -23.4220  -28.8700   23.4080 O   0  0  0  0  0  0  0  0  0  0  0  0
  -20.9350  -29.8700   21.7640 H   0  0  0  0  0  0  0  0  0  0  0  0
  -18.0400  -28.1160   22.9490 C   0  0  0  0  0  0  0  0  0  0  0  0
  -20.5960  -28.3860   23.2310 C   0  0  0  0  0  3  0  0  0  0  0  0
  -20.7040  -26.9520   22.6670 C   0  0  0  0  0  2  0  0  0  0  0  0
  -19.6090  -26.6170   21.6490 C   0  0  0  0  0  2  0  0  0  0  0  0
  -18.2220  -26.7640   22.2800 C   0  0  0  0  0  2  0  0  0  0  0  0
  -19.1540  -28.8850   23.3790 C   0  0  0  0  0  0  0  0  0  0  0  0
  -18.9250  -30.1510   23.9620 C   0  0  0  0  0  3  0  0  0  0  0  0
  -17.6180  -30.6460   24.1210 C   0  0  0  0  0  3  0  0  0  0  0  0
  -16.5200  -29.8740   23.7080 C   0  0  0  0  0  3  0  0  0  0  0  0
  -16.7300  -28.6100   23.1280 C   0  0  0  0  0  3  0  0  0  0  0  0
  -25.9410  -32.5030   23.8600 C   0  0  0  0  0  3  0  0  0  0  0  0
  -26.4620  -31.7230   25.1270 C   0  0  1  0  0  0  0  0  0  0  0  0
  -25.3800  -31.4980   26.2100 C   0  0  0  0  0  1  0  0  0  0  0  0
  -27.0240  -30.3410   24.7220 C   0  0  0  0  0  1  0  0  0  0  0  0
  -27.6300  -32.5020   25.7760 C   0  0  0  0  0  1  0  0  0  0  0  0
  -25.6430  -33.9010   24.2110 N   0  0  0  0  0  0  0  0  0  0  0  0
  -25.9400  -34.9610   23.4440 C   0  0  0  0  0  0  0  0  0  0  0  0
  -26.5700  -34.8650   22.3880 O   0  0  0  0  0  0  0  0  0  0  0  0
  -25.0920  -34.0520   25.0440 H   0  0  0  0  0  0  0  0  0  0  0  0
  -24.1850  -36.7420   23.1890 C   0  0  0  0  0  1  0  0  0  0  0  0
  -25.4680  -36.3460   23.9350 C   0  0  0  0  0  3  0  0  0  0  0  0
  -27.6420  -37.2340   24.6520 C   0  0  0  0  0  1  0  0  0  0  0  0
  -26.4890  -37.4060   23.7730 N   0  0  0  0  0  0  0  0  0  0  0  0
  -26.0840  -38.3230   23.9540 H   0  0  0  0  0  0  0  0  0  0  0  0
  1 54  1  0
  1  2  1  0
  2 10  1  0
  2  4  1  0
  3  1  2  0
  5  7  1  0
  6 10  2  0
  6  9  1  0
  7 11  1  0
  8  7  2  0
  8 12  1  0
  9  5  2  0
 10  8  1  0
 11 13  1  0
 12 14  1  0
 14 13  1  0
 15 23  1  0
 16 21  1  0
 17 18  1  0
 17 16  1  0
 19 18  1  0
 19 28  1  0
 19 20  1  0
 21 15  1  0
 21 20  1  0
 22 15  2  0
 23  9  1  0
 23 24  1  0
 25 26  2  0
 26 45  1  0
 27 26  1  0
 27 30  1  0
 28 29  1  0
 28 25  1  0
 29 27  2  0
 30 31  1  0
 31 32  2  0
 33 36  1  0
 33 32  1  0
 34 33  2  0
 35 34  1  0
 35 30  2  0
 36 37  1  0
 37 38  1  0
 38 39  2  0
 40 39  1  0
 40 44  1  0
 41 40  2  0
 42 37  2  0
 42 41  1  0
 43 42  1  0
 45 46  1  0
 46 49  1  0
 46 48  1  0
 47 45  2  0
 50 51  1  0
 50 25  1  0
 52 50  1  0
 53 57  1  0
 53 54  2  0
 54 55  1  0
 55 56  1  0
 58 69  2  0
 59 57  1  0
 59 64  1  0
 60 68  1  0
 60 70  1  0
 61 67  1  0
 61 63  1  0
 62 68  1  0
 63 62  1  0
 64 63  2  0
 65 66  1  0
 65 59  2  0
 66 61  2  0
 67 60  1  0
 68 58  1  0
 70 72  2  0
 71 70  1  0
 73 71  1  0
 74 83  2  0
 74 79  1  0
 75 71  1  0
 75 79  1  0
 76 75  1  0
 77 78  1  0
 77 76  1  0
 78 74  1  0
 79 80  2  0
 80 81  1  0
 82 81  2  0
 83 82  1  0
 84 58  1  0
 84 89  1  0
 84 85  1  0
 85 88  1  1
 85 86  1  0
 87 85  1  0
 89 92  1  0
 90 94  1  0
 90 89  1  0
 91 90  2  0
 94 93  1  0
 96 94  1  0
 96 97  1  0
 96 95  1  0
M  ISO  4  15 100  23 100  53 101  57 101
M  END
>  <TORSDO>  (28) 
F 19

>  <SCORE>  (28) 
-14.783

>  <name>  (28) 
27

>  <ligand_id>  (28) 
27

>  <original_smiles>  (28) 
[H]OC(C(=O)N([H])c1c([H])c(N([H])C(=O)N2C([H])([H])C([H])([H])C([H])([H])C([H])(n3nc(-c4c([H])c([H])c(Oc5c([H])c([H])c(F)c([H])c5F)c([H])c4[H])c(C(=O)N([H])[H])c3N([H])[H])C2([H])[H])c([H])c2c1C([H])([H])C([H])([H])C([H])([H])C2([H])[H])=C([H])Oc1c([H])c([H])c2c(c1[H])C([H])([H])N(C(=O)C([H])(N([H])C(=O)C([H])(N([H])C([H])([H])[H])C([H])([H])[H])C(C([H])([H])[H])(C([H])([H])[H])C([H])([H])[H])C([H])(C(=O)N([H])C1([H])c3c([H])c([H])c([H])c([H])c3C([H])([H])C([H])([H])C1([H])[H])C2([H])[H]

>  <smiles>  (28) 
[H]OC(C(=O)N([H])c1c([H])c(N([H])C(=O)N2C([H])([H])C([H])([H])C([H])([H])C([H])(n3nc(-c4c([H])c([H])c(Oc5c([H])c([H])c(F)c([H])c5F)c([H])c4[H])c(C(=O)N([H])[H])c3N([H])[H])C2([H])[H])c([H])c2c1C([H])([H])C([H])([H])C([H])([H])C2([H])[H])=C([H])Oc1c([H])c([H])c2c(c1[H])C([H])([H])N(C(=O)C([H])(N([H])C(=O)C([H])(N([H])C([H])([H])[H])C([H])([H])[H])C(C([H])([H])[H])(C([H])([H])[H])C([H])([H])[H])C([H])(C(=O)N([H])C1([H])c3c([H])c([H])c([H])c([H])c3C([H])([H])C([H])([H])C1([H])[H])C2([H])[H]

$$$$
28:0:0
     RDKit          3D

 97105  0  0  1  0  0  0  0  0999 V2000
  -30.5360  -21.6910   20.2720 C   0  0  0  0  0  0  0  0  0  0  0  0
  -29.6170  -24.1250   20.2450 C   0  0  0  0  0  0  0  0  0  0  0  0
  -29.5170  -22.6320   20.2920 N   0  0  0  0  0  0  0  0  0  0  0  0
  -31.7930  -22.1510   20.2960 N   0  0  0  0  0  4  0  0  0  0  0  0
  -30.7140  -24.6740   20.0760 O   0  0  0  0  0  0  0  0  0  0  0  0
  -28.6110  -22.2000   20.3700 H   0  0  0  0  0  0  0  0  0  0  0  0
  -32.5600  -21.5110   20.1500 H   0  0  0  0  0  0  0  0  0  0  0  0
  -31.9520  -23.1520   20.2560 H   0  0  0  0  0  0  0  0  0  0  0  0
  -29.2570  -19.4740   20.7410 C   0  0  0  0  0  3  0  0  0  0  0  0
  -31.4140  -17.8910   19.9010 C   0  0  0  0  0  3  0  0  0  0  0  0
  -30.3990  -20.1650   20.2530 C   0  0  0  0  0  0  0  0  0  0  0  0
  -30.2810  -17.2060   20.4080 C   0  0  0  0  0  0  0  0  0  0  0  0
  -29.2020  -18.0440   20.8090 C   0  0  0  0  0  0  0  0  0  0  0  0
  -31.4710  -19.3170   19.8230 C   0  0  0  0  0  0  0  0  0  0  0  0
  -28.0770  -17.4590   21.2840 F   0  0  0  0  0  0  0  0  0  0  0  0
  -32.6150  -19.8670   19.3450 F   0  0  0  0  0  0  0  0  0  0  0  0
  -30.8500  -14.6940   20.0030 C   0  0  0  0  0  0  0  0  0  0  0  0
  -30.5500  -12.4870   18.8880 C   0  0  0  0  0  2  0  0  0  0  0  0
  -29.5290  -12.6410   17.7370 C   0  0  0  0  0  2  0  0  0  0  0  0
  -28.0870  -12.4760   18.2530 C   0  0  0  0  0  2  0  0  0  0  0  0
  -27.8120  -13.3050   19.5360 C   0  0  0  0  0  3  0  0  0  0  0  0
  -28.9390  -13.1230   20.5780 C   0  0  0  0  0  2  0  0  0  0  0  0
  -30.2110  -13.4800   19.9300 N   0  0  0  0  0  0  0  0  0  0  0  0
  -31.9720  -14.8480   19.5140 O   0  0  0  0  0  0  0  0  0  0  0  0
  -30.1270  -15.7450   20.5080 N   0  0  0  0  0  0  0  0  0  0  0  0
  -29.2810  -15.4660   20.9800 H   0  0  0  0  0  0  0  0  0  0  0  0
  -25.4760  -13.8870   20.4380 C   0  0  0  0  0  0  0  0  0  0  0  0
  -24.4280  -13.1070   20.8420 C   0  0  0  0  0  0  0  0  0  0  0  0
  -24.8720  -11.7540   20.7190 C   0  0  0  0  0  0  0  0  0  0  0  0
  -26.4940  -13.0110   20.0960 N   0  0  0  0  0  0  0  0  0  0  0  0
  -26.1390  -11.7200   20.3250 N   0  0  0  0  0  0  0  0  0  0  0  0
  -24.1450  -10.4910   20.9000 C   0  0  0  0  0  0  0  0  0  0  0  0
  -24.5320   -9.5500   21.8790 C   0  0  0  0  0  3  0  0  0  0  0  0
  -23.8050   -8.3500   22.0450 C   0  0  0  0  0  3  0  0  0  0  0  0
  -22.6770   -8.0860   21.2330 C   0  0  0  0  0  0  0  0  0  0  0  0
  -22.3110   -9.0160   20.2430 C   0  0  0  0  0  3  0  0  0  0  0  0
  -23.0390  -10.2060   20.0750 C   0  0  0  0  0  3  0  0  0  0  0  0
  -21.9270   -6.9380   21.3060 O   0  0  0  0  0  0  0  0  0  0  0  0
  -21.6910   -6.3070   22.5010 C   0  0  0  0  0  0  0  0  0  0  0  0
  -21.0190   -6.9500   23.5640 C   0  0  0  0  0  3  0  0  0  0  0  0
  -20.7360   -6.2430   24.7500 C   0  0  0  0  0  3  0  0  0  0  0  0
  -21.1150   -4.8930   24.8710 C   0  0  0  0  0  0  0  0  0  0  0  0
  -21.7790   -4.2490   23.8120 C   0  0  0  0  0  3  0  0  0  0  0  0
  -22.0630   -4.9530   22.6300 C   0  0  0  0  0  0  0  0  0  0  0  0
  -22.6840   -4.3220   21.6050 F   0  0  0  0  0  0  0  0  0  0  0  0
  -20.8360   -4.2100   26.0060 F   0  0  0  0  0  0  0  0  0  0  0  0
  -23.0560  -13.5830   21.2270 C   0  0  0  0  0  0  0  0  0  0  0  0
  -22.3870  -12.8640   22.1220 N   0  0  0  0  0  0  0  0  0  0  0  0
  -22.5890  -14.6250   20.7700 O   0  0  0  0  0  0  0  0  0  0  0  0
  -22.7790  -12.0200   22.5120 H   0  0  0  0  0  0  0  0  0  0  0  0
  -21.4710  -13.1620   22.4200 H   0  0  0  0  0  0  0  0  0  0  0  0
  -25.6430  -15.2640   20.3140 N   0  0  0  0  0  0  0  0  0  0  0  0
  -24.8990  -15.9190   20.5260 H   0  0  0  0  0  0  0  0  0  0  0  0
  -26.4740  -15.7150   19.9530 H   0  0  0  0  0  0  0  0  0  0  0  0
  -27.0610  -24.1870   20.1080 C   0  0  0  0  0  1  0  0  0  0  0  0
  -28.3200  -25.0190   20.4550 C   0  0  0  0  0  3  0  0  0  0  0  0
  -28.4320  -26.4080   19.8830 O   0  0  0  0  0  0  0  0  0  0  0  0
  -24.6460  -31.7070   23.0700 C   0  0  0  0  0  0  0  0  0  0  0  0
  -27.3200  -27.2740   19.8860 C   0  0  0  0  0  0  0  0  0  0  0  0
  -23.4710  -30.3610   21.3670 C   0  0  0  0  0  3  0  0  0  0  0  0
  -24.9500  -28.8830   19.8980 C   0  0  0  0  0  0  0  0  0  0  0  0
  -26.0100  -30.6990   21.2290 C   0  0  0  0  0  2  0  0  0  0  0  0
  -26.1060  -29.3440   20.5430 C   0  0  0  0  0  0  0  0  0  0  0  0
  -27.2940  -28.5470   20.5380 C   0  0  0  0  0  3  0  0  0  0  0  0
  -26.1650  -26.9150   19.1590 C   0  0  0  0  0  3  0  0  0  0  0  0
  -24.9830  -27.6710   19.1950 C   0  0  0  0  0  3  0  0  0  0  0  0
  -23.7060  -29.7450   19.9630 C   0  0  0  0  0  2  0  0  0  0  0  0
  -24.7270  -30.9390   21.9450 N   0  0  0  0  0  0  0  0  0  0  0  0
  -23.5550  -31.9550   23.6040 O   0  0  0  0  0  0  0  0  0  0  0  0
  -22.8080  -29.3020   22.2790 C   0  0  0  0  0  0  0  0  0  0  0  0
  -21.4780  -29.1450   22.1570 N   0  0  0  0  0  0  0  0  0  0  0  0
  -23.4870  -28.6280   23.0590 O   0  0  0  0  0  0  0  0  0  0  0  0
  -20.9890  -29.7400   21.5030 H   0  0  0  0  0  0  0  0  0  0  0  0
  -18.0780  -28.0540   22.7290 C   0  0  0  0  0  0  0  0  0  0  0  0
  -20.6560  -28.1800   22.8880 C   0  0  0  0  0  3  0  0  0  0  0  0
  -20.6640  -26.8010   22.1900 C   0  0  0  0  0  2  0  0  0  0  0  0
  -19.5010  -26.6140   21.2110 C   0  0  0  0  0  2  0  0  0  0  0  0
  -18.1600  -26.7610   21.9360 C   0  0  0  0  0  2  0  0  0  0  0  0
  -19.2500  -28.7290   23.1630 C   0  0  0  0  0  0  0  0  0  0  0  0
  -19.1190  -29.9460   23.8680 C   0  0  0  0  0  3  0  0  0  0  0  0
  -17.8480  -30.4850   24.1450 C   0  0  0  0  0  3  0  0  0  0  0  0
  -16.6910  -29.8040   23.7260 C   0  0  0  0  0  3  0  0  0  0  0  0
  -16.8080  -28.5910   23.0240 C   0  0  0  0  0  3  0  0  0  0  0  0
  -25.9180  -32.3250   23.7270 C   0  0  0  0  0  3  0  0  0  0  0  0
  -25.5970  -33.7100   24.0960 N   0  0  0  0  0  0  0  0  0  0  0  0
  -25.9210  -34.7860   23.3670 C   0  0  0  0  0  0  0  0  0  0  0  0
  -26.5910  -34.7180   22.3330 O   0  0  0  0  0  0  0  0  0  0  0  0
  -25.0000  -33.8370   24.9010 H   0  0  0  0  0  0  0  0  0  0  0  0
  -24.1830  -36.5790   23.0570 C   0  0  0  0  0  1  0  0  0  0  0  0
  -25.4220  -36.1570   23.8640 C   0  0  0  0  0  3  0  0  0  0  0  0
  -27.5370  -37.0370   24.7500 C   0  0  0  0  0  1  0  0  0  0  0  0
  -26.4480  -37.2190   23.7920 N   0  0  0  0  0  0  0  0  0  0  0  0
  -26.0330  -38.1320   23.9540 H   0  0  0  0  0  0  0  0  0  0  0  0
  -26.4210  -31.5160   24.9850 C   0  0  1  0  0  0  0  0  0  0  0  0
  -25.3140  -31.2350   26.0260 C   0  0  0  0  0  1  0  0  0  0  0  0
  -27.0220  -30.1560   24.5590 C   0  0  0  0  0  1  0  0  0  0  0  0
  -27.5530  -32.2980   25.6910 C   0  0  0  0  0  1  0  0  0  0  0  0
  1  3  1  0
  1  4  2  0
  2  3  1  0
  2 56  1  0
  3  6  1  0
  5  2  2  0
  7  4  1  0
  8  4  1  0
  9 13  1  0
 10 12  1  0
 11  1  1  0
 11  9  2  0
 12 25  1  0
 12 13  2  0
 13 15  1  0
 14 10  2  0
 14 11  1  0
 16 14  1  0
 17 25  1  0
 18 23  1  0
 19 20  1  0
 19 18  1  0
 21 20  1  0
 21 30  1  0
 21 22  1  0
 23 17  1  0
 23 22  1  0
 24 17  2  0
 25 26  1  0
 27 28  2  0
 28 47  1  0
 29 28  1  0
 29 32  1  0
 30 31  1  0
 30 27  1  0
 31 29  2  0
 32 33  1  0
 33 34  2  0
 35 38  1  0
 35 34  1  0
 36 35  2  0
 37 36  1  0
 37 32  2  0
 38 39  1  0
 39 44  2  0
 39 40  1  0
 40 41  2  0
 41 42  1  0
 42 46  1  0
 43 42  2  0
 44 43  1  0
 45 44  1  0
 47 48  1  0
 48 51  1  0
 48 50  1  0
 49 47  2  0
 52 27  1  0
 52 53  1  0
 54 52  1  0
 56 55  1  0
 57 59  1  0
 57 56  1  0
 58 69  2  0
 59 64  1  0
 60 68  1  0
 60 70  1  0
 61 67  1  0
 61 63  1  0
 62 68  1  0
 63 62  1  0
 64 63  2  0
 65 66  1  0
 65 59  2  0
 66 61  2  0
 67 60  1  0
 68 58  1  0
 70 72  2  0
 71 70  1  0
 73 71  1  0
 74 83  2  0
 74 79  1  0
 75 71  1  0
 75 79  1  0
 76 75  1  0
 77 78  1  0
 77 76  1  0
 78 74  1  0
 79 80  2  0
 80 81  1  0
 82 81  2  0
 83 82  1  0
 84 58  1  0
 84 85  1  0
 84 94  1  0
 85 88  1  0
 86 90  1  0
 86 85  1  0
 87 86  2  0
 90 89  1  0
 92 90  1  0
 92 93  1  0
 92 91  1  0
 94 97  1  1
 94 95  1  0
 96 94  1  0
M  ISO  4  17 100  25 100  56 101  57 101
M  END
>  <TORSDO>  (29) 
F 18

>  <SCORE>  (29) 
-13.825

>  <name>  (29) 
28

>  <ligand_id>  (29) 
28

>  <original_smiles>  (29) 
[H]c1c([H])c([H])c2c(c1[H])C([H])([H])C([H])([H])C([H])([H])C2([H])N([H])C(=O)C1([H])N(C(=O)C([H])(N([H])C(=O)C([H])(N([H])C([H])([H])[H])C([H])([H])[H])C(C([H])([H])[H])(C([H])([H])[H])C([H])([H])[H])C([H])([H])c2c([H])c(OC([H])(C(=O)N([H])C(c3c([H])c(F)c(N([H])C(=O)N4C([H])([H])C([H])([H])C([H])([H])C([H])(n5nc(-c6c([H])c([H])c(Oc7c([H])c([H])c(F)c([H])c7F)c([H])c6[H])c(C(=O)N([H])[H])c5N([H])[H])C4([H])[H])c([H])c3F)=[N+]([H])[H])C([H])([H])[H])c([H])c([H])c2C1([H])[H]

>  <smiles>  (29) 
[H]c1c([H])c([H])c2c(c1[H])C([H])([H])C([H])([H])C([H])([H])C2([H])N([H])C(=O)C1([H])N(C(=O)C([H])(N([H])C(=O)C([H])(N([H])C([H])([H])[H])C([H])([H])[H])C(C([H])([H])[H])(C([H])([H])[H])C([H])([H])[H])C([H])([H])c2c([H])c(OC([H])(C(=O)N([H])C(c3c([H])c(F)c(N([H])C(=O)N4C([H])([H])C([H])([H])C([H])([H])C([H])(n5nc(-c6c([H])c([H])c(Oc7c([H])c([H])c(F)c([H])c7F)c([H])c6[H])c(C(=O)N([H])[H])c5N([H])[H])C4([H])[H])c([H])c3F)=[N+]([H])[H])C([H])([H])[H])c([H])c([H])c2C1([H])[H]

$$$$
29:0:0
     RDKit          3D

 94 91  0  0  1  0  0  0  0  0999 V2000
  -26.1130  -14.7770   21.6890 C   0  0  0  0  0 15  0  0  0  0  0  0
  -25.9270  -11.0880   20.3520 C   0  0  0  0  0 15  0  0  0  0  0  0
  -23.7000  -14.0370   18.9210 C   0  0  0  0  0 15  0  0  0  0  0  0
  -26.8880  -12.7560   21.6440 C   0  0  0  0  0  1  0  0  0  0  0  0
  -24.6450  -15.5630   20.3270 C   0  0  0  0  0  1  0  0  0  0  0  0
  -24.2730  -11.8620   18.9380 C   0  0  0  0  0  1  0  0  0  0  0  0
  -23.7030  -11.0120   18.0490 F   0  0  0  0  0  0  0  0  0  0  0  0
  -30.1070  -13.2380   19.9940 C   0  0  0  0  0  0  0  0  0  0  0  0
  -30.0610  -11.5620   18.0770 C   0  0  0  0  0  2  0  0  0  0  0  0
  -28.8760  -11.7210   17.0360 C   0  0  0  0  0  2  0  0  0  0  0  0
  -27.4250  -11.8460   17.5880 C   0  0  0  0  0  2  0  0  0  0  0  0
  -27.5460  -12.5960   18.8950 C   0  0  0  0  0  3  0  0  0  0  0  0
  -28.4650  -11.5790   19.6670 C   0  0  0  0  0  2  0  0  0  0  0  0
  -29.7310  -12.0920   19.4070 N   0  0  0  0  0  0  0  0  0  0  0  0
  -31.0070  -13.8950   19.4160 O   0  0  0  0  0  0  0  0  0  0  0  0
  -28.4150  -12.9680   22.0590 C   0  0  0  0  0  0  0  0  0  0  0  0
  -29.4580  -13.5060   21.2320 N   0  0  0  0  0  0  0  0  0  0  0  0
  -28.6510  -12.8550   23.2640 O   0  0  0  0  0  0  0  0  0  0  0  0
  -30.0160  -14.1590   21.7560 H   0  0  0  0  0  0  0  0  0  0  0  0
  -25.6250  -13.6840   19.9300 C   0  0  0  0  0  0  0  0  0  0  0  0
  -24.2160  -13.1880   21.1020 C   0  0  0  0  0  0  0  0  0  0  0  0
  -24.2090  -11.9220   21.5500 C   0  0  0  0  0  2  0  0  0  0  0  0
  -26.1920  -13.1380   19.3570 N   0  0  0  0  0  2  0  0  0  0  0  0
  -24.8650  -13.0050   20.7170 N   0  0  0  0  0  2  0  0  0  0  0  0
  -23.5320  -10.4500   21.3740 C   0  0  0  0  0  3  0  0  0  0  0  0
  -24.0850   -9.3000   22.0440 C   0  0  0  0  0  3  0  0  0  0  0  0
  -23.3980   -8.0550   22.2260 C   0  0  0  0  0  3  0  0  0  0  0  0
  -22.0900   -7.8640   21.7280 C   0  0  0  0  0  0  0  0  0  0  0  0
  -21.5780   -8.9160   20.9300 C   0  0  0  0  0  3  0  0  0  0  0  0
  -22.2800  -10.1520   20.7450 C   0  0  0  0  0  3  0  0  0  0  0  0
  -21.3170   -6.7210   21.9330 O   0  0  0  0  0  0  0  0  0  0  0  0
  -21.4090   -5.9130   23.0580 C   0  0  0  0  0  0  0  0  0  0  0  0
  -21.2820   -6.4270   24.3700 C   0  0  0  0  0  3  0  0  0  0  0  0
  -21.3420   -5.5660   25.4900 C   0  0  0  0  0  3  0  0  0  0  0  0
  -21.5150   -4.1810   25.3130 C   0  0  0  0  0  0  0  0  0  0  0  0
  -21.6110   -3.6550   24.0150 C   0  0  0  0  0  3  0  0  0  0  0  0
  -21.5510   -4.5120   22.8970 C   0  0  0  0  0  0  0  0  0  0  0  0
  -21.6240   -3.9760   21.6560 F   0  0  0  0  0  0  0  0  0  0  0  0
  -21.5830   -3.3560   26.3870 F   0  0  0  0  0  0  0  0  0  0  0  0
  -22.6810  -13.6380   21.5920 C   0  0  0  0  0  0  0  0  0  0  0  0
  -22.0430  -12.9290   22.5430 N   0  0  0  0  0  0  0  0  0  0  0  0
  -22.0250  -14.5250   21.0640 O   0  0  0  0  0  0  0  0  0  0  0  0
  -22.4890  -12.1760   23.0420 H   0  0  0  0  0  0  0  0  0  0  0  0
  -21.1020  -13.1940   22.8000 H   0  0  0  0  0  0  0  0  0  0  0  0
  -26.2890  -14.7510   19.1520 N   0  0  0  0  0  4  0  0  0  0  0  0
  -25.9580  -15.7050   19.2760 H   0  0  0  0  0  0  0  0  0  0  0  0
  -26.7360  -14.5940   18.2610 H   0  0  0  0  0  0  0  0  0  0  0  0
  -24.9280  -17.1880   19.8050 N   0  0  0  0  0  0  0  0  0  0  0  0
  -24.3530  -17.2860   18.9710 H   0  0  0  0  0  0  0  0  0  0  0  0
  -25.6350  -18.8940   20.0080 C   0  0  0  0  0  1  0  0  0  0  0  0
  -26.0350  -20.6390   19.0880 C   0  0  0  0  0  2  0  0  0  0  0  0
  -26.3150  -20.3970   17.9090 O   0  0  0  0  0  0  0  0  0  0  0  0
  -26.1440  -22.6200   19.3900 C   0  0  0  0  0 15  0  0  0  0  0  0
  -26.8600  -24.2550   18.7280 O   0  0  0  0  0  1  0  0  0  0  0  0
  -24.8210  -30.9490   22.3260 C   0  0  0  0  0  0  0  0  0  0  0  0
  -26.4060  -25.7820   18.8090 C   0  0  0  0  0  0  0  0  0  0  0  0
  -23.4260  -29.7130   20.7500 C   0  0  0  0  0  3  0  0  0  0  0  0
  -24.5930  -28.1800   19.0170 C   0  0  0  0  0  0  0  0  0  0  0  0
  -25.9810  -29.7080   20.3660 C   0  0  0  0  0  2  0  0  0  0  0  0
  -25.8540  -28.3150   19.6000 C   0  0  0  0  0  0  0  0  0  0  0  0
  -26.7790  -27.1300   19.4660 C   0  0  0  0  0  3  0  0  0  0  0  0
  -25.2510  -25.9960   18.0600 C   0  0  0  0  0  3  0  0  0  0  0  0
  -24.3590  -27.0780   18.1930 C   0  0  0  0  0  3  0  0  0  0  0  0
  -23.4820  -29.1930   19.2890 C   0  0  0  0  0  2  0  0  0  0  0  0
  -24.7800  -30.1650   21.1910 N   0  0  0  0  0  0  0  0  0  0  0  0
  -23.7970  -31.2160   22.9800 O   0  0  0  0  0  0  0  0  0  0  0  0
  -22.8300  -28.6330   21.6960 C   0  0  0  0  0  0  0  0  0  0  0  0
  -21.4950  -28.4570   21.6980 N   0  0  0  0  0  0  0  0  0  0  0  0
  -23.5770  -27.9660   22.4170 O   0  0  0  0  0  0  0  0  0  0  0  0
  -20.9360  -29.0500   21.1000 H   0  0  0  0  0  0  0  0  0  0  0  0
  -18.2070  -27.0970   22.4230 C   0  0  0  0  0  0  0  0  0  0  0  0
  -20.7690  -27.4540   22.4860 C   0  0  0  0  0  3  0  0  0  0  0  0
  -20.8700  -26.0540   21.8340 C   0  0  0  0  0  2  0  0  0  0  0  0
  -19.6990  -25.7400   20.8980 C   0  0  0  0  0  2  0  0  0  0  0  0
  -18.3720  -25.7950   21.6590 C   0  0  0  0  0  2  0  0  0  0  0  0
  -19.3290  -27.8840   22.7990 C   0  0  0  0  0  0  0  0  0  0  0  0
  -19.1120  -29.0980   23.4840 C   0  0  0  0  0  3  0  0  0  0  0  0
  -17.8080  -29.5300   23.7920 C   0  0  0  0  0  3  0  0  0  0  0  0
  -16.7020  -28.7410   23.4270 C   0  0  0  0  0  3  0  0  0  0  0  0
  -16.9040  -27.5260   22.7480 C   0  0  0  0  0  3  0  0  0  0  0  0
  -26.1520  -31.5610   22.8550 C   0  0  0  0  0  3  0  0  0  0  0  0
  -26.9140  -30.6020   23.8530 C   0  0  1  0  0  0  0  0  0  0  0  0
  -26.0350  -30.0880   25.0190 C   0  0  0  0  0  1  0  0  0  0  0  0
  -27.4780  -29.3650   23.1250 C   0  0  0  0  0  1  0  0  0  0  0  0
  -28.1310  -31.3390   24.4590 C   0  0  0  0  0  1  0  0  0  0  0  0
  -25.8330  -32.8300   23.5440 N   0  0  0  0  0  0  0  0  0  0  0  0
  -25.9850  -34.0570   23.0280 C   0  0  0  0  0  0  0  0  0  0  0  0
  -26.4700  -34.2470   21.9100 O   0  0  0  0  0  0  0  0  0  0  0  0
  -25.3780  -32.7450   24.4420 H   0  0  0  0  0  0  0  0  0  0  0  0
  -24.1540  -35.7490   23.4200 C   0  0  0  0  0  1  0  0  0  0  0  0
  -25.5390  -35.2650   23.8830 C   0  0  0  0  0  3  0  0  0  0  0  0
  -27.7520  -36.1180   24.5280 C   0  0  0  0  0  1  0  0  0  0  0  0
  -26.4890  -36.3990   23.8510 N   0  0  0  0  0  0  0  0  0  0  0  0
  -26.0790  -37.2250   24.2790 H   0  0  0  0  0  0  0  0  0  0  0  0
  4 16  1  0
  7  6  1  0
  8 17  1  0
  9 14  1  0
 10 11  1  0
 10  9  1  0
 11 12  1  0
 12 23  1  0
 12 13  1  0
 14 13  1  0
 14  8  1  0
 15  8  2  0
 16 18  2  0
 17 19  1  0
 17 16  1  0
 20 24  1  0
 21 22  2  0
 21 40  1  0
 23 20  1  0
 24 21  1  0
 25 26  1  0
 26 27  2  0
 28 31  1  0
 28 27  1  0
 29 28  2  0
 30 29  1  0
 30 25  2  0
 31 32  1  0
 32 33  1  0
 33 34  2  0
 35 34  1  0
 35 39  1  0
 36 35  2  0
 37 32  2  0
 37 36  1  0
 38 37  1  0
 40 41  1  0
 41 44  1  0
 41 43  1  0
 42 40  2  0
 45 46  1  0
 45 20  2  0
 47 45  1  0
 48 50  1  0
 48  5  1  0
 49 48  1  0
 52 51  2  0
 54 56  1  0
 55 66  2  0
 56 61  1  0
 57 65  1  0
 57 67  1  0
 58 64  1  0
 58 60  1  0
 59 65  1  0
 60 59  1  0
 61 60  2  0
 62 63  1  0
 62 56  2  0
 63 58  2  0
 64 57  1  0
 65 55  1  0
 67 68  1  0
 67 69  2  0
 70 68  1  0
 71 80  2  0
 71 76  1  0
 72 68  1  0
 72 76  1  0
 73 72  1  0
 74 75  1  0
 74 73  1  0
 75 71  1  0
 76 77  2  0
 77 78  1  0
 79 78  2  0
 80 79  1  0
 81 55  1  0
 81 86  1  0
 81 82  1  0
 82 85  1  1
 82 83  1  0
 84 82  1  0
 86 89  1  0
 87 86  1  0
 87 91  1  0
 88 87  2  0
 91 90  1  0
 93 91  1  0
 93 94  1  0
 93 92  1  0
M  ISO  4   8 100  17 100  53 101  54 101
M  END
>  <TORSDO>  (30) 
F 20

>  <SCORE>  (30) 
2.823

>  <name>  (30) 
29

>  <ligand_id>  (30) 
29

>  <original_smiles>  (30) 
[H]c1c([H])c([H])c2c(c1[H])C([H])([H])C([H])([H])C([H])([H])C2([H])N([H])C(=O)C1([H])N(C(=O)C([H])(N([H])C(=O)C([H])(N([H])C([H])([H])[H])C([H])([H])[H])C(C([H])([H])[H])(C([H])([H])[H])C([H])([H])[H])C([H])([H])c2c([H])c(OC([H])([H])C(=O)C([H])([H])N([H])c3c([H])c(F)c([H])c(C(=O)N([H])C(=O)N4C([H])([H])C([H])([H])C([H])([H])C([H])(n5nc(-c6c([H])c([H])c(Oc7c([H])c([H])c(F)c([H])c7F)c([H])c6[H])c(C(=O)N([H])[H])c5N([H])[H])C4([H])[H])c3[H])c([H])c([H])c2C1([H])[H]

>  <smiles>  (30) 
[H]c1c([H])c([H])c2c(c1[H])C([H])([H])C([H])([H])C([H])([H])C2([H])N([H])C(=O)C1([H])N(C(=O)C([H])(N([H])C(=O)C([H])(N([H])C([H])([H])[H])C([H])([H])[H])C(C([H])([H])[H])(C([H])([H])[H])C([H])([H])[H])C([H])([H])c2c([H])c(OC([H])([H])C(=O)C([H])([H])N([H])c3c([H])c(F)c([H])c(C(=O)N([H])C(=O)N4C([H])([H])C([H])([H])C([H])([H])C([H])(n5nc(-c6c([H])c([H])c(Oc7c([H])c([H])c(F)c([H])c7F)c([H])c6[H])c(C(=O)N([H])[H])c5N([H])[H])C4([H])[H])c3[H])c([H])c([H])c2C1([H])[H]

$$$$
30:0:0
     RDKit          3D

 98106  0  0  1  0  0  0  0  0999 V2000
  -28.8210  -20.4050   19.4770 C   0  0  0  0  0  0  0  0  0  0  0  0
  -27.9320  -20.1280   18.5270 N   0  0  0  0  0  4  0  0  0  0  0  0
  -29.1310  -21.7040   19.7020 N   0  0  0  0  0  0  0  0  0  0  0  0
  -27.6190  -19.1810   18.3830 H   0  0  0  0  0  0  0  0  0  0  0  0
  -27.5990  -20.8290   17.8860 H   0  0  0  0  0  0  0  0  0  0  0  0
  -29.9530  -21.7970   20.2810 H   0  0  0  0  0  0  0  0  0  0  0  0
  -29.3230  -17.9400   19.9970 C   0  0  0  0  0  3  0  0  0  0  0  0
  -30.2890  -19.7020   21.3780 C   0  0  0  0  0  3  0  0  0  0  0  0
  -30.8320  -17.3660   21.8380 C   0  0  0  0  0  3  0  0  0  0  0  0
  -29.4750  -19.3320   20.2790 C   0  0  0  0  0  0  0  0  0  0  0  0
  -29.9970  -16.9530   20.7790 C   0  0  0  0  0  0  0  0  0  0  0  0
  -30.9580  -18.7330   22.1430 C   0  0  0  0  0  0  0  0  0  0  0  0
  -31.7140  -19.1210   23.1970 F   0  0  0  0  0  0  0  0  0  0  0  0
  -30.5970  -14.5370   20.4000 C   0  0  0  0  0  0  0  0  0  0  0  0
  -30.3850  -12.3390   19.2990 C   0  0  0  0  0  2  0  0  0  0  0  0
  -29.4290  -12.5130   18.0990 C   0  0  0  0  0  2  0  0  0  0  0  0
  -27.9520  -12.3850   18.5250 C   0  0  0  0  0  2  0  0  0  0  0  0
  -27.6120  -13.2380   19.7750 C   0  0  0  0  0  3  0  0  0  0  0  0
  -28.6670  -13.0000   20.8770 C   0  0  0  0  0  2  0  0  0  0  0  0
  -29.9870  -13.3240   20.3130 N   0  0  0  0  0  0  0  0  0  0  0  0
  -31.7720  -14.7250   20.0660 O   0  0  0  0  0  0  0  0  0  0  0  0
  -29.7340  -15.5570   20.6170 N   0  0  0  0  0  0  0  0  0  0  0  0
  -28.7730  -15.2770   20.7160 H   0  0  0  0  0  0  0  0  0  0  0  0
  -25.2220  -13.8830   20.4840 C   0  0  0  0  0  0  0  0  0  0  0  0
  -24.1440  -13.1230   20.8510 C   0  0  0  0  0  0  0  0  0  0  0  0
  -24.5930  -11.7660   20.8320 C   0  0  0  0  0  0  0  0  0  0  0  0
  -26.2570  -12.9850   20.2570 N   0  0  0  0  0  0  0  0  0  0  0  0
  -25.8800  -11.7090   20.5210 N   0  0  0  0  0  0  0  0  0  0  0  0
  -23.8550  -10.5120   21.0260 C   0  0  0  0  0  0  0  0  0  0  0  0
  -24.2810   -9.5430   21.9590 C   0  0  0  0  0  3  0  0  0  0  0  0
  -23.5440   -8.3520   22.1440 C   0  0  0  0  0  3  0  0  0  0  0  0
  -22.3670   -8.1240   21.3920 C   0  0  0  0  0  0  0  0  0  0  0  0
  -21.9570   -9.0840   20.4480 C   0  0  0  0  0  3  0  0  0  0  0  0
  -22.6970  -10.2640   20.2620 C   0  0  0  0  0  3  0  0  0  0  0  0
  -21.6040   -6.9850   21.4810 O   0  0  0  0  0  0  0  0  0  0  0  0
  -21.5590   -6.2410   22.6320 C   0  0  0  0  0  0  0  0  0  0  0  0
  -21.1450   -6.8000   23.8600 C   0  0  0  0  0  3  0  0  0  0  0  0
  -21.0450   -5.9840   25.0050 C   0  0  0  0  0  3  0  0  0  0  0  0
  -21.3450   -4.6110   24.9230 C   0  0  0  0  0  0  0  0  0  0  0  0
  -21.7530   -4.0510   23.6990 C   0  0  0  0  0  3  0  0  0  0  0  0
  -21.8550   -4.8640   22.5550 C   0  0  0  0  0  0  0  0  0  0  0  0
  -22.2280   -4.3160   21.3730 F   0  0  0  0  0  0  0  0  0  0  0  0
  -21.2400   -3.8260   26.0220 F   0  0  0  0  0  0  0  0  0  0  0  0
  -22.7490  -13.6180   21.1100 C   0  0  0  0  0  0  0  0  0  0  0  0
  -22.0090  -12.9350   21.9780 N   0  0  0  0  0  0  0  0  0  0  0  0
  -22.3230  -14.6460   20.5850 O   0  0  0  0  0  0  0  0  0  0  0  0
  -22.3600  -12.0980   22.4180 H   0  0  0  0  0  0  0  0  0  0  0  0
  -21.0820  -13.2630   22.2140 H   0  0  0  0  0  0  0  0  0  0  0  0
  -25.3930  -15.2530   20.3020 N   0  0  0  0  0  0  0  0  0  0  0  0
  -24.6320  -15.9050   20.4550 H   0  0  0  0  0  0  0  0  0  0  0  0
  -26.2380  -15.7100   19.9910 H   0  0  0  0  0  0  0  0  0  0  0  0
  -28.6900  -22.9820   19.0500 C   0  0  0  0  0  2  0  0  0  0  0  0
  -28.6170  -24.2440   19.9850 C   0  0  0  0  0  3  0  0  0  0  0  0
  -29.7740  -24.2850   20.9900 C   0  0  0  0  0  0  0  0  0  0  0  0
  -29.4160  -24.2250   22.4650 C   0  0  0  0  0  1  0  0  0  0  0  0
  -30.9530  -24.3270   20.6290 O   0  0  0  0  0  0  0  0  0  0  0  0
  -28.5800  -25.5960   19.2150 C   0  0  0  0  0  2  0  0  0  0  0  0
  -28.4020  -26.7410   20.0830 O   0  0  0  0  0  0  0  0  0  0  0  0
  -24.5780  -31.9000   23.2390 C   0  0  0  0  0  0  0  0  0  0  0  0
  -27.2070  -27.4410   20.1200 C   0  0  0  0  0  0  0  0  0  0  0  0
  -23.3690  -30.4960   21.6080 C   0  0  0  0  0  3  0  0  0  0  0  0
  -24.8140  -28.9600   20.1790 C   0  0  0  0  0  0  0  0  0  0  0  0
  -25.8970  -30.8480   21.3980 C   0  0  0  0  0  2  0  0  0  0  0  0
  -25.9780  -29.4750   20.7570 C   0  0  0  0  0  0  0  0  0  0  0  0
  -27.1770  -28.7230   20.7280 C   0  0  0  0  0  3  0  0  0  0  0  0
  -26.0070  -26.9310   19.5720 C   0  0  0  0  0  3  0  0  0  0  0  0
  -24.8230  -27.6860   19.5890 C   0  0  0  0  0  3  0  0  0  0  0  0
  -23.5730  -29.8210   20.2300 C   0  0  0  0  0  2  0  0  0  0  0  0
  -24.6340  -31.0940   22.1400 N   0  0  0  0  0  0  0  0  0  0  0  0
  -23.4980  -32.1750   23.7760 O   0  0  0  0  0  0  0  0  0  0  0  0
  -22.7230  -29.4710   22.5690 C   0  0  0  0  0  0  0  0  0  0  0  0
  -21.3990  -29.2910   22.4440 N   0  0  0  0  0  0  0  0  0  0  0  0
  -23.4080  -28.8440   23.3820 O   0  0  0  0  0  0  0  0  0  0  0  0
  -20.9060  -29.8490   21.7590 H   0  0  0  0  0  0  0  0  0  0  0  0
  -18.0230  -28.1090   22.9520 C   0  0  0  0  0  0  0  0  0  0  0  0
  -20.5810  -28.3550   23.2150 C   0  0  0  0  0  3  0  0  0  0  0  0
  -20.6760  -26.9240   22.6360 C   0  0  0  0  0  2  0  0  0  0  0  0
  -19.5700  -26.6080   21.6260 C   0  0  0  0  0  2  0  0  0  0  0  0
  -18.1920  -26.7590   22.2770 C   0  0  0  0  0  2  0  0  0  0  0  0
  -19.1460  -28.8640   23.3810 C   0  0  0  0  0  0  0  0  0  0  0  0
  -18.9360  -30.1280   23.9740 C   0  0  0  0  0  3  0  0  0  0  0  0
  -17.6350  -30.6380   24.1430 C   0  0  0  0  0  3  0  0  0  0  0  0
  -16.5260  -29.8780   23.7330 C   0  0  0  0  0  3  0  0  0  0  0  0
  -16.7200  -28.6150   23.1440 C   0  0  0  0  0  3  0  0  0  0  0  0
  -25.8640  -32.5340   23.8530 C   0  0  0  0  0  3  0  0  0  0  0  0
  -25.5520  -33.9320   24.1830 N   0  0  0  0  0  0  0  0  0  0  0  0
  -25.8860  -34.9840   23.4220 C   0  0  0  0  0  0  0  0  0  0  0  0
  -26.5590  -34.8790   22.3940 O   0  0  0  0  0  0  0  0  0  0  0  0
  -24.9500  -34.0860   24.9810 H   0  0  0  0  0  0  0  0  0  0  0  0
  -24.1570  -36.7720   23.0620 C   0  0  0  0  0  1  0  0  0  0  0  0
  -25.3950  -36.3710   23.8780 C   0  0  0  0  0  3  0  0  0  0  0  0
  -27.5240  -37.2560   24.7220 C   0  0  0  0  0  1  0  0  0  0  0  0
  -26.4300  -37.4230   23.7710 N   0  0  0  0  0  0  0  0  0  0  0  0
  -26.0210  -38.3430   23.9170 H   0  0  0  0  0  0  0  0  0  0  0  0
  -26.3890  -31.7630   25.1240 C   0  0  1  0  0  0  0  0  0  0  0  0
  -25.2990  -31.5190   26.1940 C   0  0  0  0  0  1  0  0  0  0  0  0
  -26.9720  -30.3870   24.7240 C   0  0  0  0  0  1  0  0  0  0  0  0
  -27.5430  -32.5580   25.7810 C   0  0  0  0  0  1  0  0  0  0  0  0
  1  3  1  0
  1 10  1  0
  2  1  2  0
  3  6  1  0
  4  2  1  0
  5  2  1  0
  7 10  2  0
  7 11  1  0
  8 12  2  0
  9 12  1  0
 10  8  1  0
 11  9  2  0
 12 13  1  0
 14 22  1  0
 15 20  1  0
 16 17  1  0
 16 15  1  0
 18 17  1  0
 18 27  1  0
 18 19  1  0
 20 14  1  0
 20 19  1  0
 21 14  2  0
 22 23  1  0
 22 11  1  0
 24 25  2  0
 25 44  1  0
 26 25  1  0
 26 29  1  0
 27 24  1  0
 27 28  1  0
 28 26  2  0
 29 30  1  0
 30 31  2  0
 32 35  1  0
 32 31  1  0
 33 32  2  0
 34 33  1  0
 34 29  2  0
 35 36  1  0
 36 37  1  0
 37 38  2  0
 39 38  1  0
 39 43  1  0
 40 39  2  0
 41 36  2  0
 41 40  1  0
 42 41  1  0
 44 45  1  0
 45 48  1  0
 45 47  1  0
 46 44  2  0
 49 50  1  0
 49 24  1  0
 51 49  1  0
 52  3  1  0
 53 52  1  0
 53 54  1  0
 54 55  1  0
 56 54  2  0
 57 53  1  0
 57 58  1  0
 58 60  1  0
 59 70  2  0
 60 65  1  0
 61 69  1  0
 61 71  1  0
 62 68  1  0
 62 64  1  0
 63 69  1  0
 64 63  1  0
 65 64  2  0
 66 67  1  0
 66 60  2  0
 67 62  2  0
 68 61  1  0
 69 59  1  0
 71 73  2  0
 72 71  1  0
 74 72  1  0
 75 84  2  0
 75 80  1  0
 76 72  1  0
 76 80  1  0
 77 76  1  0
 78 79  1  0
 78 77  1  0
 79 75  1  0
 80 81  2  0
 81 82  1  0
 83 82  2  0
 84 83  1  0
 85 59  1  0
 85 86  1  0
 85 95  1  0
 86 89  1  0
 87 91  1  0
 87 86  1  0
 88 87  2  0
 91 90  1  0
 93 91  1  0
 93 94  1  0
 93 92  1  0
 95 98  1  1
 95 96  1  0
 97 95  1  0
M  ISO  4  14 100  22 100  57 101  58 101
M  END
>  <TORSDO>  (31) 
F 21

>  <SCORE>  (31) 
-13.834

>  <name>  (31) 
30

>  <ligand_id>  (31) 
30

>  <original_smiles>  (31) 
[H]c1c([H])c([H])c2c(c1[H])C([H])([H])C([H])([H])C([H])([H])C2([H])N([H])C(=O)C1([H])N(C(=O)C([H])(N([H])C(=O)C([H])(N([H])C([H])([H])[H])C([H])([H])[H])C(C([H])([H])[H])(C([H])([H])[H])C([H])([H])[H])C([H])([H])c2c([H])c(OC([H])([H])C([H])(C(=O)C([H])([H])[H])C([H])([H])[N+]([H])=C(c3c([H])c(F)c([H])c(N([H])C(=O)N4C([H])([H])C([H])([H])C([H])([H])C([H])(n5nc(-c6c([H])c([H])c(Oc7c([H])c([H])c(F)c([H])c7F)c([H])c6[H])c(C(=O)N([H])[H])c5N([H])[H])C4([H])[H])c3[H])N([H])[H])c([H])c([H])c2C1([H])[H]

>  <smiles>  (31) 
[H]c1c([H])c([H])c2c(c1[H])C([H])([H])C([H])([H])C([H])([H])C2([H])N([H])C(=O)C1([H])N(C(=O)C([H])(N([H])C(=O)C([H])(N([H])C([H])([H])[H])C([H])([H])[H])C(C([H])([H])[H])(C([H])([H])[H])C([H])([H])[H])C([H])([H])c2c([H])c(OC([H])([H])C([H])(C(=O)C([H])([H])[H])C([H])([H])[N+]([H])=C(c3c([H])c(F)c([H])c(N([H])C(=O)N4C([H])([H])C([H])([H])C([H])([H])C([H])(n5nc(-c6c([H])c([H])c(Oc7c([H])c([H])c(F)c([H])c7F)c([H])c6[H])c(C(=O)N([H])[H])c5N([H])[H])C4([H])[H])c3[H])N([H])[H])c([H])c([H])c2C1([H])[H]

$$$$
31:0:0
     RDKit          3D

 98106  0  0  1  0  0  0  0  0999 V2000
  -29.1010  -22.2710   20.5050 C   0  0  0  0  0  0  0  0  0  0  0  0
  -29.4890  -21.1890   19.7160 N   0  0  0  0  0  0  0  0  0  0  0  0
  -28.7140  -22.0780   21.6610 O   0  0  0  0  0  0  0  0  0  0  0  0
  -29.6480  -21.4860   18.7610 H   0  0  0  0  0  0  0  0  0  0  0  0
  -29.4240  -18.5700   20.3730 C   0  0  0  0  0  3  0  0  0  0  0  0
  -30.0900  -19.8480   20.0120 C   0  0  0  0  0  0  0  0  0  0  0  0
  -31.4170  -19.6050   19.7010 C   0  0  0  0  0  0  0  0  0  0  0  0
  -30.2170  -17.3890   20.3440 C   0  0  0  0  0  0  0  0  0  0  0  0
  -31.8430  -17.9140   19.9320 S   0  0  0  0  0  0  0  0  0  0  0  0
  -30.6140  -14.8370   20.3570 C   0  0  0  0  0  0  0  0  0  0  0  0
  -30.3760  -12.5440   19.3770 C   0  0  0  0  0  2  0  0  0  0  0  0
  -29.4360  -12.5950   18.1510 C   0  0  0  0  0  2  0  0  0  0  0  0
  -27.9740  -12.3960   18.5940 C   0  0  0  0  0  2  0  0  0  0  0  0
  -27.5990  -13.2970   19.8010 C   0  0  0  0  0  3  0  0  0  0  0  0
  -28.6680  -13.2630   20.9180 C   0  0  0  0  0  2  0  0  0  0  0  0
  -29.9550  -13.6200   20.3090 N   0  0  0  0  0  0  0  0  0  0  0  0
  -31.8050  -14.8660   20.0350 O   0  0  0  0  0  0  0  0  0  0  0  0
  -29.8880  -16.0190   20.5560 N   0  0  0  0  0  0  0  0  0  0  0  0
  -28.9260  -15.8550   20.8150 H   0  0  0  0  0  0  0  0  0  0  0  0
  -25.2110  -13.8730   20.5390 C   0  0  0  0  0  0  0  0  0  0  0  0
  -24.1490  -13.0920   20.9060 C   0  0  0  0  0  0  0  0  0  0  0  0
  -24.6180  -11.7430   20.8750 C   0  0  0  0  0  0  0  0  0  0  0  0
  -26.2590  -12.9980   20.3020 N   0  0  0  0  0  0  0  0  0  0  0  0
  -25.9090  -11.7130   20.5650 N   0  0  0  0  0  0  0  0  0  0  0  0
  -23.8940  -10.4770   21.0660 C   0  0  0  0  0  0  0  0  0  0  0  0
  -24.3310   -9.5080   21.9960 C   0  0  0  0  0  3  0  0  0  0  0  0
  -23.6060   -8.3100   22.1760 C   0  0  0  0  0  3  0  0  0  0  0  0
  -22.4310   -8.0730   21.4220 C   0  0  0  0  0  0  0  0  0  0  0  0
  -22.0130   -9.0310   20.4800 C   0  0  0  0  0  3  0  0  0  0  0  0
  -22.7390  -10.2210   20.3010 C   0  0  0  0  0  3  0  0  0  0  0  0
  -21.6750   -6.9290   21.5120 O   0  0  0  0  0  0  0  0  0  0  0  0
  -21.6320   -6.1810   22.6590 C   0  0  0  0  0  0  0  0  0  0  0  0
  -21.2070   -6.7320   23.8880 C   0  0  0  0  0  3  0  0  0  0  0  0
  -21.1120   -5.9130   25.0300 C   0  0  0  0  0  3  0  0  0  0  0  0
  -21.4290   -4.5440   24.9460 C   0  0  0  0  0  0  0  0  0  0  0  0
  -21.8460   -3.9910   23.7220 C   0  0  0  0  0  3  0  0  0  0  0  0
  -21.9430   -4.8080   22.5810 C   0  0  0  0  0  0  0  0  0  0  0  0
  -22.3280   -4.2680   21.3990 F   0  0  0  0  0  0  0  0  0  0  0  0
  -21.3270   -3.7560   26.0390 F   0  0  0  0  0  0  0  0  0  0  0  0
  -22.7510  -13.5660   21.1780 C   0  0  0  0  0  0  0  0  0  0  0  0
  -22.0250  -12.8640   22.0440 N   0  0  0  0  0  0  0  0  0  0  0  0
  -22.3100  -14.5920   20.6620 O   0  0  0  0  0  0  0  0  0  0  0  0
  -22.3990  -12.0380   22.4860 H   0  0  0  0  0  0  0  0  0  0  0  0
  -21.0880  -13.1620   22.2730 H   0  0  0  0  0  0  0  0  0  0  0  0
  -25.3650  -15.2410   20.3590 N   0  0  0  0  0  0  0  0  0  0  0  0
  -24.5850  -15.8830   20.4350 H   0  0  0  0  0  0  0  0  0  0  0  0
  -26.1970  -15.6780   19.9840 H   0  0  0  0  0  0  0  0  0  0  0  0
  -32.4930  -20.4520   19.1810 C   0  0  0  0  0  3  0  0  0  0  0  0
  -32.5420  -21.7160   19.1780 N   0  0  0  0  0  0  0  0  0  0  0  0
  -31.7520  -22.1400   19.6500 H   0  0  0  0  0  0  0  0  0  0  0  0
  -29.1180  -23.7940   19.9120 C   0  0  2  0  0  0  0  0  0  0  0  0
  -28.7400  -23.7020   18.6310 F   0  0  0  0  0  0  0  0  0  0  0  0
  -30.5860  -24.2790   19.9680 C   0  0  0  0  0  0  0  0  0  0  0  0
  -31.3480  -23.9720   20.8940 O   0  0  0  0  0  0  0  0  0  0  0  0
  -32.5390  -25.6540   19.0070 C   0  0  0  0  0  1  0  0  0  0  0  0
  -31.0750  -25.2010   18.8410 C   0  0  0  0  0  2  0  0  0  0  0  0
  -28.2090  -24.9740   20.5830 C   0  0  0  0  0  2  0  0  0  0  0  0
  -28.3360  -26.4320   20.1940 O   0  0  0  0  0  0  0  0  0  0  0  0
  -24.6010  -31.8950   23.2330 C   0  0  0  0  0  0  0  0  0  0  0  0
  -27.2100  -27.2900   20.1980 C   0  0  0  0  0  0  0  0  0  0  0  0
  -23.3920  -30.4860   21.6030 C   0  0  0  0  0  3  0  0  0  0  0  0
  -24.8380  -28.9200   20.1820 C   0  0  0  0  0  0  0  0  0  0  0  0
  -25.9290  -30.8000   21.4050 C   0  0  0  0  0  2  0  0  0  0  0  0
  -26.0120  -29.4130   20.7680 C   0  0  0  0  0  0  0  0  0  0  0  0
  -27.2010  -28.6130   20.7570 C   0  0  0  0  0  3  0  0  0  0  0  0
  -26.0140  -26.8620   19.5840 C   0  0  0  0  0  3  0  0  0  0  0  0
  -24.8450  -27.6510   19.5780 C   0  0  0  0  0  3  0  0  0  0  0  0
  -23.6010  -29.7960   20.2300 C   0  0  0  0  0  2  0  0  0  0  0  0
  -24.6600  -31.0790   22.1380 N   0  0  0  0  0  0  0  0  0  0  0  0
  -23.5190  -32.1730   23.7720 O   0  0  0  0  0  0  0  0  0  0  0  0
  -22.7300  -29.4790   22.5740 C   0  0  0  0  0  0  0  0  0  0  0  0
  -21.4040  -29.3000   22.4540 N   0  0  0  0  0  0  0  0  0  0  0  0
  -23.4110  -28.8570   23.3950 O   0  0  0  0  0  0  0  0  0  0  0  0
  -20.9120  -29.8520   21.7650 H   0  0  0  0  0  0  0  0  0  0  0  0
  -18.0300  -28.1000   22.9690 C   0  0  0  0  0  0  0  0  0  0  0  0
  -20.5890  -28.3650   23.2340 C   0  0  0  0  0  3  0  0  0  0  0  0
  -20.6920  -26.9310   22.6660 C   0  0  0  0  0  2  0  0  0  0  0  0
  -19.5890  -26.6010   21.6550 C   0  0  0  0  0  2  0  0  0  0  0  0
  -18.2070  -26.7470   22.2980 C   0  0  0  0  0  2  0  0  0  0  0  0
  -19.1480  -28.8660   23.3940 C   0  0  0  0  0  0  0  0  0  0  0  0
  -18.9260  -30.1320   23.9800 C   0  0  0  0  0  3  0  0  0  0  0  0
  -17.6210  -30.6290   24.1480 C   0  0  0  0  0  3  0  0  0  0  0  0
  -16.5190  -29.8600   23.7400 C   0  0  0  0  0  3  0  0  0  0  0  0
  -16.7230  -28.5970   23.1560 C   0  0  0  0  0  3  0  0  0  0  0  0
  -25.8850  -32.5300   23.8490 C   0  0  0  0  0  3  0  0  0  0  0  0
  -25.5780  -33.9300   24.1760 N   0  0  0  0  0  0  0  0  0  0  0  0
  -25.9030  -34.9820   23.4140 C   0  0  0  0  0  0  0  0  0  0  0  0
  -26.5650  -34.8770   22.3780 O   0  0  0  0  0  0  0  0  0  0  0  0
  -24.9910  -34.0860   24.9830 H   0  0  0  0  0  0  0  0  0  0  0  0
  -24.1730  -36.7750   23.0670 C   0  0  0  0  0  1  0  0  0  0  0  0
  -25.4170  -36.3710   23.8710 C   0  0  0  0  0  3  0  0  0  0  0  0
  -27.5610  -37.2510   24.6840 C   0  0  0  0  0  1  0  0  0  0  0  0
  -26.4450  -37.4290   23.7590 N   0  0  0  0  0  0  0  0  0  0  0  0
  -26.0370  -38.3430   23.9310 H   0  0  0  0  0  0  0  0  0  0  0  0
  -26.4060  -31.7640   25.1250 C   0  0  1  0  0  0  0  0  0  0  0  0
  -25.3190  -31.5340   26.2010 C   0  0  0  0  0  1  0  0  0  0  0  0
  -26.9830  -30.3830   24.7370 C   0  0  0  0  0  1  0  0  0  0  0  0
  -27.5610  -32.5590   25.7790 C   0  0  0  0  0  1  0  0  0  0  0  0
  1  3  2  0
  2  6  1  0
  2  1  1  0
  4  2  1  0
  6  5  1  0
  7  9  1  0
  7  6  2  0
  8  5  2  0
  8 18  1  0
  9  8  1  0
 10 18  1  0
 11 16  1  0
 12 13  1  0
 12 11  1  0
 14 13  1  0
 14 23  1  0
 14 15  1  0
 16 10  1  0
 16 15  1  0
 17 10  2  0
 18 19  1  0
 20 21  2  0
 21 40  1  0
 22 21  1  0
 22 25  1  0
 23 20  1  0
 23 24  1  0
 24 22  2  0
 25 26  1  0
 26 27  2  0
 28 31  1  0
 28 27  1  0
 29 28  2  0
 30 29  1  0
 30 25  2  0
 31 32  1  0
 32 33  1  0
 33 34  2  0
 35 34  1  0
 35 39  1  0
 36 35  2  0
 37 32  2  0
 37 36  1  0
 38 37  1  0
 40 41  1  0
 41 44  1  0
 41 43  1  0
 42 40  2  0
 45 46  1  0
 45 20  1  0
 47 45  1  0
 48  7  1  0
 49 48  2  0
 49 50  1  0
 51 52  1  6
 51 53  1  0
 51  1  1  0
 51 57  1  0
 53 54  2  0
 56 55  1  0
 56 53  1  0
 58 60  1  0
 58 57  1  0
 59 70  2  0
 60 65  1  0
 61 69  1  0
 61 71  1  0
 62 68  1  0
 62 64  1  0
 63 69  1  0
 64 63  1  0
 65 64  2  0
 66 60  2  0
 67 66  1  0
 67 62  2  0
 68 61  1  0
 69 59  1  0
 71 73  2  0
 72 71  1  0
 74 72  1  0
 75 84  2  0
 75 80  1  0
 76 72  1  0
 76 80  1  0
 77 76  1  0
 78 79  1  0
 78 77  1  0
 79 75  1  0
 80 81  2  0
 81 82  1  0
 83 82  2  0
 84 83  1  0
 85 59  1  0
 85 86  1  0
 85 95  1  0
 86 89  1  0
 87 91  1  0
 87 86  1  0
 88 87  2  0
 91 90  1  0
 93 91  1  0
 93 94  1  0
 93 92  1  0
 95 98  1  1
 95 96  1  0
 97 95  1  0
M  ISO  4  10 100  18 100  57 101  58 101
M  END
>  <TORSDO>  (32) 
F 22

>  <SCORE>  (32) 
-13.329

>  <name>  (32) 
31

>  <ligand_id>  (32) 
31

>  <original_smiles>  (32) 
[H]N=C([H])c1sc(N([H])C(=O)N2C([H])([H])C([H])([H])C([H])([H])C([H])(n3nc(-c4c([H])c([H])c(Oc5c([H])c([H])c(F)c([H])c5F)c([H])c4[H])c(C(=O)N([H])[H])c3N([H])[H])C2([H])[H])c([H])c1N([H])C(=O)C(F)(C(=O)C([H])([H])C([H])([H])[H])C([H])([H])Oc1c([H])c([H])c2c(c1[H])C([H])([H])N(C(=O)C([H])(N([H])C(=O)C([H])(N([H])C([H])([H])[H])C([H])([H])[H])C(C([H])([H])[H])(C([H])([H])[H])C([H])([H])[H])C([H])(C(=O)N([H])C1([H])c3c([H])c([H])c([H])c([H])c3C([H])([H])C([H])([H])C1([H])[H])C2([H])[H]

>  <smiles>  (32) 
[H]N=C([H])c1sc(N([H])C(=O)N2C([H])([H])C([H])([H])C([H])([H])C([H])(n3nc(-c4c([H])c([H])c(Oc5c([H])c([H])c(F)c([H])c5F)c([H])c4[H])c(C(=O)N([H])[H])c3N([H])[H])C2([H])[H])c([H])c1N([H])C(=O)C(F)(C(=O)C([H])([H])C([H])([H])[H])C([H])([H])Oc1c([H])c([H])c2c(c1[H])C([H])([H])N(C(=O)C([H])(N([H])C(=O)C([H])(N([H])C([H])([H])[H])C([H])([H])[H])C(C([H])([H])[H])(C([H])([H])[H])C([H])([H])[H])C([H])(C(=O)N([H])C1([H])c3c([H])c([H])c([H])c([H])c3C([H])([H])C([H])([H])C1([H])[H])C2([H])[H]

$$$$
32:0:0
     RDKit          3D

 90 98  0  0  1  0  0  0  0  0999 V2000
  -29.1590  -22.6520   19.6550 C   0  0  0  0  0  3  0  0  0  0  0  0
  -28.9360  -21.7910   20.5960 N   0  0  0  0  0  0  0  0  0  0  0  0
  -28.5300  -18.3630   19.5150 C   0  0  0  0  0  3  0  0  0  0  0  0
  -28.1660  -19.7470   19.4350 C   0  0  0  0  0  3  0  0  0  0  0  0
  -29.5440  -18.2480   20.4320 C   0  0  0  0  0  0  0  0  0  0  0  0
  -28.9810  -20.4190   20.3050 C   0  0  0  0  0  0  0  0  0  0  0  0
  -29.8140  -19.5170   20.9420 O   0  0  0  0  0  0  0  0  0  0  0  0
  -30.4050  -17.0770   20.9340 C   0  0  0  0  0  2  0  0  0  0  0  0
  -30.6190  -14.5880   20.3910 C   0  0  0  0  0  0  0  0  0  0  0  0
  -30.3410  -12.3720   19.3150 C   0  0  0  0  0  2  0  0  0  0  0  0
  -29.3980  -12.5200   18.1040 C   0  0  0  0  0  2  0  0  0  0  0  0
  -27.9260  -12.3810   18.5430 C   0  0  0  0  0  2  0  0  0  0  0  0
  -27.5830  -13.2410   19.7890 C   0  0  0  0  0  3  0  0  0  0  0  0
  -28.6480  -13.0840   20.8940 C   0  0  0  0  0  2  0  0  0  0  0  0
  -29.9550  -13.3970   20.3020 N   0  0  0  0  0  0  0  0  0  0  0  0
  -31.7820  -14.7070   19.9980 O   0  0  0  0  0  0  0  0  0  0  0  0
  -29.8940  -15.6810   20.7670 N   0  0  0  0  0  0  0  0  0  0  0  0
  -28.9340  -15.5170   21.0220 H   0  0  0  0  0  0  0  0  0  0  0  0
  -25.1950  -13.8410   20.5220 C   0  0  0  0  0  0  0  0  0  0  0  0
  -24.1320  -13.0680   20.9020 C   0  0  0  0  0  0  0  0  0  0  0  0
  -24.5960  -11.7170   20.8740 C   0  0  0  0  0  0  0  0  0  0  0  0
  -26.2380  -12.9610   20.2840 N   0  0  0  0  0  0  0  0  0  0  0  0
  -25.8840  -11.6780   20.5550 N   0  0  0  0  0  0  0  0  0  0  0  0
  -23.8720  -10.4550   21.0720 C   0  0  0  0  0  0  0  0  0  0  0  0
  -24.3200   -9.4810   21.9910 C   0  0  0  0  0  3  0  0  0  0  0  0
  -23.5950   -8.2850   22.1760 C   0  0  0  0  0  3  0  0  0  0  0  0
  -22.4080   -8.0530   21.4410 C   0  0  0  0  0  0  0  0  0  0  0  0
  -21.9800   -9.0150   20.5090 C   0  0  0  0  0  3  0  0  0  0  0  0
  -22.7070  -10.2030   20.3230 C   0  0  0  0  0  3  0  0  0  0  0  0
  -21.6540   -6.9080   21.5360 O   0  0  0  0  0  0  0  0  0  0  0  0
  -21.6370   -6.1510   22.6800 C   0  0  0  0  0  0  0  0  0  0  0  0
  -21.2550   -6.6930   23.9260 C   0  0  0  0  0  3  0  0  0  0  0  0
  -21.1830   -5.8630   25.0620 C   0  0  0  0  0  3  0  0  0  0  0  0
  -21.4840   -4.4930   24.9540 C   0  0  0  0  0  0  0  0  0  0  0  0
  -21.8600   -3.9500   23.7130 C   0  0  0  0  0  3  0  0  0  0  0  0
  -21.9330   -4.7770   22.5780 C   0  0  0  0  0  0  0  0  0  0  0  0
  -22.2750   -4.2450   21.3800 F   0  0  0  0  0  0  0  0  0  0  0  0
  -21.4070   -3.6930   26.0440 F   0  0  0  0  0  0  0  0  0  0  0  0
  -22.7370  -13.5450   21.1850 C   0  0  0  0  0  0  0  0  0  0  0  0
  -22.0160  -12.8490   22.0580 N   0  0  0  0  0  0  0  0  0  0  0  0
  -22.2950  -14.5680   20.6660 O   0  0  0  0  0  0  0  0  0  0  0  0
  -22.3850  -12.0190   22.4970 H   0  0  0  0  0  0  0  0  0  0  0  0
  -21.0810  -13.1520   22.2910 H   0  0  0  0  0  0  0  0  0  0  0  0
  -25.3560  -15.2110   20.3370 N   0  0  0  0  0  0  0  0  0  0  0  0
  -24.5920  -15.8670   20.4600 H   0  0  0  0  0  0  0  0  0  0  0  0
  -26.2010  -15.6480   19.9980 H   0  0  0  0  0  0  0  0  0  0  0  0
  -29.1360  -24.2080   19.5710 C   0  0  0  0  0  0  0  0  0  0  0  0
  -29.8350  -24.7700   18.7170 O   0  0  0  0  0  0  0  0  0  0  0  0
  -28.2300  -25.1090   20.4710 C   0  0  0  0  0  2  0  0  0  0  0  0
  -28.3710  -26.5530   20.1820 O   0  0  0  0  0  0  0  0  0  0  0  0
  -24.6080  -31.8740   23.2240 C   0  0  0  0  0  0  0  0  0  0  0  0
  -27.2260  -27.3470   20.1670 C   0  0  0  0  0  0  0  0  0  0  0  0
  -23.4000  -30.4720   21.5860 C   0  0  0  0  0  3  0  0  0  0  0  0
  -24.8500  -28.9230   20.1600 C   0  0  0  0  0  0  0  0  0  0  0  0
  -25.9340  -30.8040   21.3930 C   0  0  0  0  0  2  0  0  0  0  0  0
  -26.0150  -29.4260   20.7510 C   0  0  0  0  0  0  0  0  0  0  0  0
  -27.2070  -28.6500   20.7420 C   0  0  0  0  0  3  0  0  0  0  0  0
  -26.0400  -26.8840   19.5540 C   0  0  0  0  0  3  0  0  0  0  0  0
  -24.8620  -27.6560   19.5530 C   0  0  0  0  0  3  0  0  0  0  0  0
  -23.6100  -29.7930   20.2070 C   0  0  0  0  0  2  0  0  0  0  0  0
  -24.6660  -31.0680   22.1240 N   0  0  0  0  0  0  0  0  0  0  0  0
  -23.5250  -32.1490   23.7620 O   0  0  0  0  0  0  0  0  0  0  0  0
  -22.7440  -29.4540   22.5480 C   0  0  0  0  0  0  0  0  0  0  0  0
  -21.4180  -29.2760   22.4230 N   0  0  0  0  0  0  0  0  0  0  0  0
  -23.4260  -28.8290   23.3660 O   0  0  0  0  0  0  0  0  0  0  0  0
  -20.9280  -29.8310   21.7350 H   0  0  0  0  0  0  0  0  0  0  0  0
  -18.0420  -28.0830   22.9280 C   0  0  0  0  0  0  0  0  0  0  0  0
  -20.6010  -28.3390   23.1950 C   0  0  0  0  0  3  0  0  0  0  0  0
  -20.7010  -26.9070   22.6200 C   0  0  0  0  0  2  0  0  0  0  0  0
  -19.5980  -26.5840   21.6080 C   0  0  0  0  0  2  0  0  0  0  0  0
  -18.2170  -26.7320   22.2530 C   0  0  0  0  0  2  0  0  0  0  0  0
  -19.1610  -28.8440   23.3560 C   0  0  0  0  0  0  0  0  0  0  0  0
  -18.9440  -30.1070   23.9460 C   0  0  0  0  0  3  0  0  0  0  0  0
  -17.6400  -30.6090   24.1130 C   0  0  0  0  0  3  0  0  0  0  0  0
  -16.5350  -29.8440   23.7010 C   0  0  0  0  0  3  0  0  0  0  0  0
  -16.7370  -28.5830   23.1140 C   0  0  0  0  0  3  0  0  0  0  0  0
  -25.8910  -32.5070   23.8430 C   0  0  0  0  0  3  0  0  0  0  0  0
  -26.4120  -31.7360   25.1170 C   0  0  1  0  0  0  0  0  0  0  0  0
  -25.3230  -31.4960   26.1890 C   0  0  0  0  0  1  0  0  0  0  0  0
  -26.9940  -30.3590   24.7220 C   0  0  0  0  0  1  0  0  0  0  0  0
  -27.5650  -32.5300   25.7770 C   0  0  0  0  0  1  0  0  0  0  0  0
  -25.5810  -33.9050   24.1760 N   0  0  0  0  0  0  0  0  0  0  0  0
  -25.9110  -34.9590   23.4170 C   0  0  0  0  0  0  0  0  0  0  0  0
  -26.5780  -34.8570   22.3850 O   0  0  0  0  0  0  0  0  0  0  0  0
  -24.9880  -34.0570   24.9790 H   0  0  0  0  0  0  0  0  0  0  0  0
  -24.1800  -36.7500   23.0690 C   0  0  0  0  0  1  0  0  0  0  0  0
  -25.4240  -36.3460   23.8770 C   0  0  0  0  0  3  0  0  0  0  0  0
  -27.5600  -37.2300   24.7050 C   0  0  0  0  0  1  0  0  0  0  0  0
  -26.4550  -37.4000   23.7650 N   0  0  0  0  0  0  0  0  0  0  0  0
  -26.0510  -38.3200   23.9150 H   0  0  0  0  0  0  0  0  0  0  0  0
  1  2  2  0
  3  5  2  0
  4  3  1  0
  4  6  2  0
  5  8  1  0
  5  7  1  0
  6  2  1  0
  6  7  1  0
  9 17  1  0
 10 15  1  0
 11 12  1  0
 11 10  1  0
 13 12  1  0
 13 22  1  0
 13 14  1  0
 15  9  1  0
 15 14  1  0
 16  9  2  0
 17  8  1  0
 17 18  1  0
 19 20  2  0
 20 39  1  0
 21 20  1  0
 21 24  1  0
 22 19  1  0
 22 23  1  0
 23 21  2  0
 24 25  1  0
 25 26  2  0
 27 30  1  0
 27 26  1  0
 28 27  2  0
 29 28  1  0
 29 24  2  0
 30 31  1  0
 31 32  1  0
 32 33  2  0
 34 33  1  0
 34 38  1  0
 35 34  2  0
 36 31  2  0
 36 35  1  0
 37 36  1  0
 39 40  1  0
 40 43  1  0
 40 42  1  0
 41 39  2  0
 44 45  1  0
 44 19  1  0
 46 44  1  0
 47  1  1  0
 47 49  1  0
 48 47  2  0
 50 49  1  0
 51 62  2  0
 52 50  1  0
 52 57  1  0
 53 61  1  0
 53 63  1  0
 54 60  1  0
 54 56  1  0
 55 61  1  0
 56 55  1  0
 57 56  2  0
 58 52  2  0
 59 58  1  0
 59 54  2  0
 60 53  1  0
 61 51  1  0
 63 65  2  0
 64 63  1  0
 66 64  1  0
 67 76  2  0
 67 72  1  0
 68 64  1  0
 68 72  1  0
 69 68  1  0
 70 71  1  0
 70 69  1  0
 71 67  1  0
 72 73  2  0
 73 74  1  0
 75 74  2  0
 76 75  1  0
 77 51  1  0
 77 82  1  0
 77 78  1  0
 78 81  1  1
 78 79  1  0
 80 78  1  0
 82 85  1  0
 83 87  1  0
 83 82  1  0
 84 83  2  0
 87 86  1  0
 89 87  1  0
 89 90  1  0
 89 88  1  0
M  ISO  4   9 100  17 100  49 101  50 101
M  END
>  <TORSDO>  (33) 
F 20

>  <SCORE>  (33) 
-13.949

>  <name>  (33) 
32

>  <ligand_id>  (33) 
32

>  <original_smiles>  (33) 
[H]C(=Nc1oc(C([H])([H])N([H])C(=O)N2C([H])([H])C([H])([H])C([H])([H])C([H])(n3nc(-c4c([H])c([H])c(Oc5c([H])c([H])c(F)c([H])c5F)c([H])c4[H])c(C(=O)N([H])[H])c3N([H])[H])C2([H])[H])c([H])c1[H])C(=O)C([H])([H])Oc1c([H])c([H])c2c(c1[H])C([H])([H])N(C(=O)C([H])(N([H])C(=O)C([H])(N([H])C([H])([H])[H])C([H])([H])[H])C(C([H])([H])[H])(C([H])([H])[H])C([H])([H])[H])C([H])(C(=O)N([H])C1([H])c3c([H])c([H])c([H])c([H])c3C([H])([H])C([H])([H])C1([H])[H])C2([H])[H]

>  <smiles>  (33) 
[H]C(=Nc1oc(C([H])([H])N([H])C(=O)N2C([H])([H])C([H])([H])C([H])([H])C([H])(n3nc(-c4c([H])c([H])c(Oc5c([H])c([H])c(F)c([H])c5F)c([H])c4[H])c(C(=O)N([H])[H])c3N([H])[H])C2([H])[H])c([H])c1[H])C(=O)C([H])([H])Oc1c([H])c([H])c2c(c1[H])C([H])([H])N(C(=O)C([H])(N([H])C(=O)C([H])(N([H])C([H])([H])[H])C([H])([H])[H])C(C([H])([H])[H])(C([H])([H])[H])C([H])([H])[H])C([H])(C(=O)N([H])C1([H])c3c([H])c([H])c([H])c([H])c3C([H])([H])C([H])([H])C1([H])[H])C2([H])[H]

$$$$
33:0:0
     RDKit          3D

 93102  0  0  1  0  0  0  0  0999 V2000
  -28.7240  -23.9990   19.2100 C   0  0  0  0  0  0  0  0  0  0  0  0
  -28.4750  -25.3740   19.2250 C   0  0  0  0  0  3  0  0  0  0  0  0
  -28.9430  -23.3330   17.8690 C   0  0  0  0  0  2  0  0  0  0  0  0
  -29.7030  -22.0290   18.1330 C   0  0  0  0  0  2  0  0  0  0  0  0
  -28.8780  -22.8060   20.2420 C   0  0  2  0  0  0  0  0  0  0  0  0
  -27.5240  -22.5630   20.9240 C   0  0  0  0  0  1  0  0  0  0  0  0
  -29.9480  -23.1590   21.2860 C   0  0  0  0  0  1  0  0  0  0  0  0
  -29.3120  -21.5740   19.4630 N   0  0  0  0  0  0  0  0  0  0  0  0
  -30.6440  -14.7930   19.9920 C   0  0  0  0  0  0  0  0  0  0  0  0
  -30.4060  -12.5270   18.9550 C   0  0  0  0  0  2  0  0  0  0  0  0
  -29.3870  -12.6220   17.7950 C   0  0  0  0  0  2  0  0  0  0  0  0
  -27.9470  -12.4440   18.3140 C   0  0  0  0  0  2  0  0  0  0  0  0
  -27.6560  -13.3070   19.5710 C   0  0  0  0  0  3  0  0  0  0  0  0
  -28.7820  -13.1760   20.6200 C   0  0  0  0  0  2  0  0  0  0  0  0
  -30.0430  -13.5510   19.9650 N   0  0  0  0  0  0  0  0  0  0  0  0
  -31.7800  -14.9310   19.5260 O   0  0  0  0  0  0  0  0  0  0  0  0
  -30.3040  -19.2890   18.9160 C   0  0  0  0  0  3  0  0  0  0  0  0
  -29.1920  -18.2080   21.0750 C   0  0  0  0  0  3  0  0  0  0  0  0
  -29.5630  -20.1650   19.7850 C   0  0  0  0  0  0  0  0  0  0  0  0
  -29.9060  -17.3270   20.1910 C   0  0  0  0  0  0  0  0  0  0  0  0
  -29.0310  -19.5720   20.8940 N   0  0  0  0  0  0  0  0  0  0  0  0
  -30.4770  -17.9340   19.1090 N   0  0  0  0  0  0  0  0  0  0  0  0
  -29.8920  -15.8630   20.4520 N   0  0  0  0  0  0  0  0  0  0  0  0
  -29.0930  -15.5610   20.9890 H   0  0  0  0  0  0  0  0  0  0  0  0
  -25.3250  -13.8990   20.4680 C   0  0  0  0  0  0  0  0  0  0  0  0
  -24.2760  -13.1240   20.8820 C   0  0  0  0  0  0  0  0  0  0  0  0
  -24.7200  -11.7710   20.7780 C   0  0  0  0  0  0  0  0  0  0  0  0
  -26.3410  -13.0180   20.1350 N   0  0  0  0  0  0  0  0  0  0  0  0
  -25.9870  -11.7300   20.3840 N   0  0  0  0  0  0  0  0  0  0  0  0
  -23.9920  -10.5110   20.9760 C   0  0  0  0  0  0  0  0  0  0  0  0
  -24.4490   -9.5310   21.8860 C   0  0  0  0  0  3  0  0  0  0  0  0
  -23.7240   -8.3350   22.0720 C   0  0  0  0  0  3  0  0  0  0  0  0
  -22.5270   -8.1100   21.3500 C   0  0  0  0  0  0  0  0  0  0  0  0
  -22.0910   -9.0780   20.4300 C   0  0  0  0  0  3  0  0  0  0  0  0
  -22.8160  -10.2660   20.2400 C   0  0  0  0  0  3  0  0  0  0  0  0
  -21.7700   -6.9680   21.4480 O   0  0  0  0  0  0  0  0  0  0  0  0
  -21.7160   -6.2370   22.6090 C   0  0  0  0  0  0  0  0  0  0  0  0
  -21.2630   -6.8000   23.8220 C   0  0  0  0  0  3  0  0  0  0  0  0
  -21.1570   -5.9950   24.9740 C   0  0  0  0  0  3  0  0  0  0  0  0
  -21.4920   -4.6290   24.9140 C   0  0  0  0  0  0  0  0  0  0  0  0
  -21.9380   -4.0670   23.7050 C   0  0  0  0  0  3  0  0  0  0  0  0
  -22.0470   -4.8680   22.5540 C   0  0  0  0  0  0  0  0  0  0  0  0
  -22.4560   -4.3170   21.3880 F   0  0  0  0  0  0  0  0  0  0  0  0
  -21.3840   -3.8530   26.0180 F   0  0  0  0  0  0  0  0  0  0  0  0
  -22.9050  -13.6060   21.2580 C   0  0  0  0  0  0  0  0  0  0  0  0
  -22.2270  -12.8910   22.1490 N   0  0  0  0  0  0  0  0  0  0  0  0
  -22.4460  -14.6520   20.7980 O   0  0  0  0  0  0  0  0  0  0  0  0
  -22.6120  -12.0450   22.5420 H   0  0  0  0  0  0  0  0  0  0  0  0
  -21.3080  -13.1940   22.4410 H   0  0  0  0  0  0  0  0  0  0  0  0
  -25.4910  -15.2730   20.3200 N   0  0  0  0  0  0  0  0  0  0  0  0
  -24.7330  -15.9240   20.4910 H   0  0  0  0  0  0  0  0  0  0  0  0
  -26.2970  -15.7110   19.8940 H   0  0  0  0  0  0  0  0  0  0  0  0
  -28.2830  -26.3710   20.2100 O   0  0  0  0  0  0  0  0  0  0  0  0
  -24.6290  -31.8660   23.2360 C   0  0  0  0  0  0  0  0  0  0  0  0
  -27.2150  -27.2950   20.1140 C   0  0  0  0  0  0  0  0  0  0  0  0
  -23.4180  -30.4920   21.5830 C   0  0  0  0  0  3  0  0  0  0  0  0
  -24.8600  -28.9480   20.1310 C   0  0  0  0  0  0  0  0  0  0  0  0
  -25.9610  -30.7890   21.4010 C   0  0  0  0  0  2  0  0  0  0  0  0
  -26.0350  -29.4150   20.7340 C   0  0  0  0  0  0  0  0  0  0  0  0
  -27.2110  -28.5980   20.7210 C   0  0  0  0  0  3  0  0  0  0  0  0
  -26.0120  -26.8930   19.4910 C   0  0  0  0  0  3  0  0  0  0  0  0
  -24.8530  -27.6950   19.5000 C   0  0  0  0  0  3  0  0  0  0  0  0
  -23.6280  -29.8310   20.1940 C   0  0  0  0  0  2  0  0  0  0  0  0
  -24.6890  -31.0660   22.1300 N   0  0  0  0  0  0  0  0  0  0  0  0
  -23.5470  -32.1450   23.7740 O   0  0  0  0  0  0  0  0  0  0  0  0
  -22.7490  -29.4710   22.5330 C   0  0  0  0  0  0  0  0  0  0  0  0
  -21.4220  -29.2950   22.4010 N   0  0  0  0  0  0  0  0  0  0  0  0
  -23.4220  -28.8380   23.3520 O   0  0  0  0  0  0  0  0  0  0  0  0
  -20.9380  -29.8600   21.7170 H   0  0  0  0  0  0  0  0  0  0  0  0
  -18.0480  -28.0740   22.8610 C   0  0  0  0  0  0  0  0  0  0  0  0
  -20.6000  -28.3540   23.1620 C   0  0  0  0  0  3  0  0  0  0  0  0
  -20.7190  -26.9220   22.5890 C   0  0  0  0  0  2  0  0  0  0  0  0
  -19.6320  -26.5920   21.5600 C   0  0  0  0  0  2  0  0  0  0  0  0
  -18.2420  -26.7270   22.1870 C   0  0  0  0  0  2  0  0  0  0  0  0
  -19.1550  -28.8450   23.3030 C   0  0  0  0  0  0  0  0  0  0  0  0
  -18.9180  -30.1060   23.8930 C   0  0  0  0  0  3  0  0  0  0  0  0
  -17.6070  -30.5980   24.0420 C   0  0  0  0  0  3  0  0  0  0  0  0
  -16.5140  -29.8240   23.6140 C   0  0  0  0  0  3  0  0  0  0  0  0
  -16.7360  -28.5630   23.0300 C   0  0  0  0  0  3  0  0  0  0  0  0
  -25.9140  -32.4880   23.8650 C   0  0  0  0  0  3  0  0  0  0  0  0
  -25.6110  -33.8840   24.2100 N   0  0  0  0  0  0  0  0  0  0  0  0
  -25.9250  -34.9420   23.4490 C   0  0  0  0  0  0  0  0  0  0  0  0
  -26.5680  -34.8440   22.4020 O   0  0  0  0  0  0  0  0  0  0  0  0
  -25.0360  -34.0340   25.0270 H   0  0  0  0  0  0  0  0  0  0  0  0
  -24.1750  -36.7260   23.1660 C   0  0  0  0  0  1  0  0  0  0  0  0
  -25.4500  -36.3290   23.9270 C   0  0  0  0  0  3  0  0  0  0  0  0
  -27.6110  -37.2220   24.6770 C   0  0  0  0  0  1  0  0  0  0  0  0
  -26.4730  -37.3870   23.7780 N   0  0  0  0  0  0  0  0  0  0  0  0
  -26.0680  -38.3050   23.9460 H   0  0  0  0  0  0  0  0  0  0  0  0
  -26.4250  -31.7020   25.1350 C   0  0  1  0  0  0  0  0  0  0  0  0
  -25.3300  -31.4630   26.2000 C   0  0  0  0  0  1  0  0  0  0  0  0
  -27.0000  -30.3250   24.7320 C   0  0  0  0  0  1  0  0  0  0  0  0
  -27.5830  -32.4820   25.8040 C   0  0  0  0  0  1  0  0  0  0  0  0
  1  2  2  0
  1  5  1  0
  2 53  1  0
  3  4  1  0
  3  1  1  0
  4  8  1  0
  5  6  1  1
  5  7  1  0
  8 19  1  0
  8  5  1  0
  9 23  1  0
 10 15  1  0
 11 12  1  0
 11 10  1  0
 13 12  1  0
 13 28  1  0
 13 14  1  0
 15  9  1  0
 15 14  1  0
 16  9  2  0
 17 22  2  0
 17 19  1  0
 19 21  2  0
 20 23  1  0
 20 18  2  0
 21 18  1  0
 22 20  1  0
 23 24  1  0
 25 26  2  0
 26 45  1  0
 27 26  1  0
 27 30  1  0
 28 29  1  0
 28 25  1  0
 29 27  2  0
 30 31  1  0
 31 32  2  0
 33 36  1  0
 33 32  1  0
 34 33  2  0
 35 34  1  0
 35 30  2  0
 36 37  1  0
 37 38  1  0
 38 39  2  0
 40 39  1  0
 40 44  1  0
 41 40  2  0
 42 37  2  0
 42 41  1  0
 43 42  1  0
 45 46  1  0
 46 49  1  0
 46 48  1  0
 47 45  2  0
 50 25  1  0
 50 51  1  0
 52 50  1  0
 54 65  2  0
 55 53  1  0
 55 60  1  0
 56 64  1  0
 56 66  1  0
 57 63  1  0
 57 59  1  0
 58 64  1  0
 59 58  1  0
 60 59  2  0
 61 62  1  0
 61 55  2  0
 62 57  2  0
 63 56  1  0
 64 54  1  0
 66 68  2  0
 67 66  1  0
 69 67  1  0
 70 79  2  0
 70 75  1  0
 71 67  1  0
 71 75  1  0
 72 71  1  0
 73 74  1  0
 73 72  1  0
 74 70  1  0
 75 76  2  0
 76 77  1  0
 78 77  2  0
 79 78  1  0
 80 54  1  0
 80 81  1  0
 80 90  1  0
 81 84  1  0
 82 86  1  0
 82 81  1  0
 83 82  2  0
 86 85  1  0
 88 86  1  0
 88 89  1  0
 88 87  1  0
 90 93  1  1
 90 91  1  0
 92 90  1  0
M  ISO  4   2 101   9 100  23 100  53 101
M  END
>  <TORSDO>  (34) 
F 16

>  <SCORE>  (34) 
-15.355

>  <name>  (34) 
33

>  <ligand_id>  (34) 
33

>  <original_smiles>  (34) 
[H]C(Oc1c([H])c([H])c2c(c1[H])C([H])([H])N(C(=O)C([H])(N([H])C(=O)C([H])(N([H])C([H])([H])[H])C([H])([H])[H])C(C([H])([H])[H])(C([H])([H])[H])C([H])([H])[H])C([H])(C(=O)N([H])C1([H])c3c([H])c([H])c([H])c([H])c3C([H])([H])C([H])([H])C1([H])[H])C2([H])[H])=C1C([H])([H])C([H])([H])N(c2nc([H])c(N([H])C(=O)N3C([H])([H])C([H])([H])C([H])([H])C([H])(n4nc(-c5c([H])c([H])c(Oc6c([H])c([H])c(F)c([H])c6F)c([H])c5[H])c(C(=O)N([H])[H])c4N([H])[H])C3([H])[H])nc2[H])C1(C([H])([H])[H])C([H])([H])[H]

>  <smiles>  (34) 
[H]C(Oc1c([H])c([H])c2c(c1[H])C([H])([H])N(C(=O)C([H])(N([H])C(=O)C([H])(N([H])C([H])([H])[H])C([H])([H])[H])C(C([H])([H])[H])(C([H])([H])[H])C([H])([H])[H])C([H])(C(=O)N([H])C1([H])c3c([H])c([H])c([H])c([H])c3C([H])([H])C([H])([H])C1([H])[H])C2([H])[H])=C1C([H])([H])C([H])([H])N(c2nc([H])c(N([H])C(=O)N3C([H])([H])C([H])([H])C([H])([H])C([H])(n4nc(-c5c([H])c([H])c(Oc6c([H])c([H])c(F)c([H])c6F)c([H])c5[H])c(C(=O)N([H])[H])c4N([H])[H])C3([H])[H])nc2[H])C1(C([H])([H])[H])C([H])([H])[H]

$$$$
34:0:0
     RDKit          3D

101109  0  0  1  0  0  0  0  0999 V2000
  -30.5570  -20.4970   19.8000 C   0  0  0  0  0  3  0  0  0  0  0  0
  -30.9670  -18.7660   18.1600 C   0  0  0  0  0  3  0  0  0  0  0  0
  -30.2790  -18.1140   20.4160 C   0  0  0  0  0  0  0  0  0  0  0  0
  -30.9350  -20.1500   18.4940 C   0  0  0  0  0  0  0  0  0  0  0  0
  -30.2580  -19.5000   20.7520 C   0  0  0  0  0  0  0  0  0  0  0  0
  -30.6360  -17.7160   19.0880 C   0  0  0  0  0  0  0  0  0  0  0  0
  -29.8980  -17.1150   21.5100 C   0  0  0  0  0  1  0  0  0  0  0  0
  -31.5730  -15.3810   18.8960 C   0  0  0  0  0  0  0  0  0  0  0  0
  -31.5960  -12.9090   18.7430 C   0  0  0  0  0  2  0  0  0  0  0  0
  -30.5270  -12.4450   17.7330 C   0  0  0  0  0  2  0  0  0  0  0  0
  -29.1640  -12.2790   18.4300 C   0  0  0  0  0  2  0  0  0  0  0  0
  -28.7830  -13.4950   19.3130 C   0  0  0  0  0  3  0  0  0  0  0  0
  -29.9580  -13.9330   20.2080 C   0  0  0  0  0  2  0  0  0  0  0  0
  -31.1250  -14.1690   19.3450 N   0  0  0  0  0  0  0  0  0  0  0  0
  -32.6950  -15.5070   18.3990 O   0  0  0  0  0  0  0  0  0  0  0  0
  -29.9880  -16.1360   17.3010 C   0  0  0  0  0  1  0  0  0  0  0  0
  -30.6090  -16.3250   18.6250 N   0  0  0  0  0  0  0  0  0  0  0  0
  -26.7770  -14.1680   20.7640 C   0  0  0  0  0  0  0  0  0  0  0  0
  -25.7100  -13.4520   21.2300 C   0  0  0  0  0  0  0  0  0  0  0  0
  -25.9190  -12.1050   20.7970 C   0  0  0  0  0  0  0  0  0  0  0  0
  -27.5700  -13.2610   20.0810 N   0  0  0  0  0  0  0  0  0  0  0  0
  -27.0770  -11.9990   20.1590 N   0  0  0  0  0  0  0  0  0  0  0  0
  -25.0550  -10.9250   20.8970 C   0  0  0  0  0  0  0  0  0  0  0  0
  -25.3190   -9.8940   21.8240 C   0  0  0  0  0  3  0  0  0  0  0  0
  -24.4630   -8.7770   21.9130 C   0  0  0  0  0  3  0  0  0  0  0  0
  -23.3290   -8.6820   21.0700 C   0  0  0  0  0  0  0  0  0  0  0  0
  -23.0860   -9.7020   20.1330 C   0  0  0  0  0  3  0  0  0  0  0  0
  -23.9420  -10.8100   20.0410 C   0  0  0  0  0  3  0  0  0  0  0  0
  -22.4570   -7.6230   21.0690 O   0  0  0  0  0  0  0  0  0  0  0  0
  -21.8520   -7.1940   22.2200 C   0  0  0  0  0  0  0  0  0  0  0  0
  -20.9550   -8.0130   22.9420 C   0  0  0  0  0  3  0  0  0  0  0  0
  -20.2950   -7.5030   24.0760 C   0  0  0  0  0  3  0  0  0  0  0  0
  -20.5290   -6.1800   24.4930 C   0  0  0  0  0  0  0  0  0  0  0  0
  -21.4220   -5.3630   23.7770 C   0  0  0  0  0  3  0  0  0  0  0  0
  -22.0780   -5.8680   22.6410 C   0  0  0  0  0  0  0  0  0  0  0  0
  -22.9200   -5.0700   21.9400 F   0  0  0  0  0  0  0  0  0  0  0  0
  -19.8900   -5.6880   25.5820 F   0  0  0  0  0  0  0  0  0  0  0  0
  -24.5100  -14.0030   21.9460 C   0  0  0  0  0  0  0  0  0  0  0  0
  -23.9260  -13.2370   22.8570 N   0  0  0  0  0  0  0  0  0  0  0  0
  -24.1140  -15.1480   21.7320 O   0  0  0  0  0  0  0  0  0  0  0  0
  -24.2650  -12.3090   23.0620 H   0  0  0  0  0  0  0  0  0  0  0  0
  -23.1270  -13.5930   23.3610 H   0  0  0  0  0  0  0  0  0  0  0  0
  -27.1170  -15.5170   20.8470 N   0  0  0  0  0  0  0  0  0  0  0  0
  -26.5020  -16.1790   21.3010 H   0  0  0  0  0  0  0  0  0  0  0  0
  -27.9470  -15.9540   20.4660 H   0  0  0  0  0  0  0  0  0  0  0  0
  -29.8180  -21.1840   22.4530 C   0  0  0  0  0  0  0  0  0  0  0  0
  -29.9450  -19.9010   22.0750 N   0  0  0  0  0  0  0  0  0  0  0  0
  -29.6400  -22.1100   21.6570 O   0  0  0  0  0  0  0  0  0  0  0  0
  -30.1510  -19.2370   22.8110 H   0  0  0  0  0  0  0  0  0  0  0  0
  -29.9030  -21.4830   23.9500 C   0  0  0  0  0  2  0  0  0  0  0  0
  -31.9380  -20.6140   25.2260 C   0  0  0  0  0  1  0  0  0  0  0  0
  -31.3520  -21.7690   24.4030 C   0  0  0  0  0  2  0  0  0  0  0  0
  -31.3670  -21.1680   17.6050 N   0  0  0  0  0  0  0  0  0  0  0  0
  -32.1050  -21.7490   18.0050 H   0  0  0  0  0  0  0  0  0  0  0  0
  -30.3760  -22.0840   16.9890 C   0  0  0  0  0  2  0  0  0  0  0  0
  -30.4560  -23.5590   17.5040 C   0  0  0  0  0  0  0  0  0  0  0  0
  -31.3290  -23.8560   18.3330 O   0  0  0  0  0  0  0  0  0  0  0  0
  -29.4800  -24.6660   16.9260 C   0  0  0  0  0  0  0  0  0  0  0  0
  -29.0820  -24.6060   15.7550 O   0  0  0  0  0  0  0  0  0  0  0  0
  -29.0480  -25.8490   17.8450 C   0  0  0  0  0  2  0  0  0  0  0  0
  -28.4570  -26.9740   17.1380 O   0  0  0  0  0  0  0  0  0  0  0  0
  -24.8020  -30.1150   22.4500 C   0  0  0  0  0  0  0  0  0  0  0  0
  -27.2500  -27.4450   17.6270 C   0  0  0  0  0  0  0  0  0  0  0  0
  -23.4490  -29.1090   20.6390 C   0  0  0  0  0  3  0  0  0  0  0  0
  -24.7400  -28.4020   18.5490 C   0  0  0  0  0  0  0  0  0  0  0  0
  -25.8100  -29.9800   20.1690 C   0  0  0  0  0  2  0  0  0  0  0  0
  -25.9250  -28.9230   19.0840 C   0  0  0  0  0  0  0  0  0  0  0  0
  -27.1810  -28.4570   18.6170 C   0  0  0  0  0  3  0  0  0  0  0  0
  -26.0440  -26.9360   17.1010 C   0  0  0  0  0  3  0  0  0  0  0  0
  -24.7950  -27.4090   17.5530 C   0  0  0  0  0  3  0  0  0  0  0  0
  -23.4370  -28.9490   19.0930 C   0  0  0  0  0  2  0  0  0  0  0  0
  -24.7160  -29.7350   21.1420 N   0  0  0  0  0  0  0  0  0  0  0  0
  -23.8410  -29.9910   23.2210 O   0  0  0  0  0  0  0  0  0  0  0  0
  -23.1490  -27.7330   21.2760 C   0  0  0  0  0  0  0  0  0  0  0  0
  -21.9170  -27.2350   21.0770 N   0  0  0  0  0  0  0  0  0  0  0  0
  -24.0180  -27.1280   21.9080 O   0  0  0  0  0  0  0  0  0  0  0  0
  -21.2590  -27.7970   20.5570 H   0  0  0  0  0  0  0  0  0  0  0  0
  -19.0810  -24.9930   21.0090 C   0  0  0  0  0  0  0  0  0  0  0  0
  -21.4290  -25.9360   21.5420 C   0  0  0  0  0  3  0  0  0  0  0  0
  -21.9740  -24.7860   20.6640 C   0  0  0  0  0  2  0  0  0  0  0  0
  -21.0330  -24.4030   19.5150 C   0  0  0  0  0  2  0  0  0  0  0  0
  -19.6730  -23.9660   20.0610 C   0  0  0  0  0  2  0  0  0  0  0  0
  -19.9030  -25.9300   21.6920 C   0  0  0  0  0  0  0  0  0  0  0  0
  -19.2960  -26.8880   22.5330 C   0  0  0  0  0  3  0  0  0  0  0  0
  -17.8980  -26.9200   22.6980 C   0  0  0  0  0  3  0  0  0  0  0  0
  -17.0910  -25.9800   22.0330 C   0  0  0  0  0  3  0  0  0  0  0  0
  -17.6840  -25.0160   21.1970 C   0  0  0  0  0  3  0  0  0  0  0  0
  -26.1070  -30.7420   23.0350 C   0  0  0  0  0  3  0  0  0  0  0  0
  -25.7840  -32.1060   23.4740 N   0  0  0  0  0  0  0  0  0  0  0  0
  -26.1250  -33.2180   22.8100 C   0  0  0  0  0  0  0  0  0  0  0  0
  -26.8130  -33.2030   21.7860 O   0  0  0  0  0  0  0  0  0  0  0  0
  -25.1730  -32.1910   24.2720 H   0  0  0  0  0  0  0  0  0  0  0  0
  -24.4170  -35.0440   22.5480 C   0  0  0  0  0  1  0  0  0  0  0  0
  -25.6210  -34.5610   23.3720 C   0  0  0  0  0  3  0  0  0  0  0  0
  -27.7020  -35.3680   24.3950 C   0  0  0  0  0  1  0  0  0  0  0  0
  -26.6610  -35.6140   23.4000 N   0  0  0  0  0  0  0  0  0  0  0  0
  -26.2490  -36.5230   23.5890 H   0  0  0  0  0  0  0  0  0  0  0  0
  -26.7230  -29.9050   24.2250 C   0  0  1  0  0  0  0  0  0  0  0  0
  -25.6870  -29.4960   25.2980 C   0  0  0  0  0  1  0  0  0  0  0  0
  -27.3860  -28.6140   23.6950 C   0  0  0  0  0  1  0  0  0  0  0  0
  -27.8370  -30.7240   24.9180 C   0  0  0  0  0  1  0  0  0  0  0  0
  1  5  1  0
  2  4  1  0
  2  6  2  0
  3  5  2  0
  3  7  1  0
  4  1  2  0
  5 47  1  0
  6  3  1  0
  8 14  1  0
  9 14  1  0
 10 11  1  0
 10  9  1  0
 12 11  1  0
 12 21  1  0
 12 13  1  0
 14 13  1  0
 15  8  2  0
 16 17  1  0
 17  8  1  0
 17  6  1  0
 18 43  1  0
 18 19  2  0
 19 38  1  0
 20 23  1  0
 20 19  1  0
 21 22  1  0
 21 18  1  0
 22 20  2  0
 23 24  1  0
 24 25  2  0
 26 25  1  0
 27 26  2  0
 28 27  1  0
 28 23  2  0
 29 26  1  0
 29 30  1  0
 30 35  2  0
 30 31  1  0
 31 32  2  0
 32 33  1  0
 33 37  1  0
 34 33  2  0
 35 34  1  0
 36 35  1  0
 38 39  1  0
 39 41  1  0
 39 42  1  0
 40 38  2  0
 43 44  1  0
 45 43  1  0
 46 50  1  0
 47 46  1  0
 47 49  1  0
 48 46  2  0
 50 52  1  0
 52 51  1  0
 53 54  1  0
 53  4  1  0
 55 56  1  0
 55 53  1  0
 56 57  2  0
 58 56  1  0
 58 60  1  0
 59 58  2  0
 61 63  1  0
 61 60  1  0
 62 73  2  0
 63 68  1  0
 64 72  1  0
 64 74  1  0
 65 67  1  0
 65 71  1  0
 66 72  1  0
 67 66  1  0
 68 67  2  0
 69 70  1  0
 69 63  2  0
 70 65  2  0
 71 64  1  0
 72 62  1  0
 74 76  2  0
 75 74  1  0
 77 75  1  0
 78 87  2  0
 78 83  1  0
 79 75  1  0
 79 83  1  0
 80 79  1  0
 81 82  1  0
 81 80  1  0
 82 78  1  0
 83 84  2  0
 84 85  1  0
 86 85  2  0
 87 86  1  0
 88 62  1  0
 88 89  1  0
 88 98  1  0
 89 92  1  0
 90 94  1  0
 90 89  1  0
 91 90  2  0
 94 93  1  0
 94 96  1  0
 96 97  1  0
 96 95  1  0
 98101  1  1
 98 99  1  0
100 98  1  0
M  ISO  4   8 100  17 100  60 101  61 101
M  END
>  <TORSDO>  (35) 
F 24

>  <SCORE>  (35) 
-2.212

>  <name>  (35) 
34

>  <ligand_id>  (35) 
34

>  <original_smiles>  (35) 
[H]c1c([H])c([H])c2c(c1[H])C([H])([H])C([H])([H])C([H])([H])C2([H])N([H])C(=O)C1([H])N(C(=O)C([H])(N([H])C(=O)C([H])(N([H])C([H])([H])[H])C([H])([H])[H])C(C([H])([H])[H])(C([H])([H])[H])C([H])([H])[H])C([H])([H])c2c([H])c(OC([H])([H])C(=O)C(=O)C([H])([H])N([H])c3c([H])c(N([H])C(=O)C([H])([H])C([H])([H])C([H])([H])[H])c(C([H])([H])[H])c(N(C(=O)N4C([H])([H])C([H])([H])C([H])([H])C([H])(n5nc(-c6c([H])c([H])c(Oc7c([H])c([H])c(F)c([H])c7F)c([H])c6[H])c(C(=O)N([H])[H])c5N([H])[H])C4([H])[H])C([H])([H])[H])c3[H])c([H])c([H])c2C1([H])[H]

>  <smiles>  (35) 
[H]c1c([H])c([H])c2c(c1[H])C([H])([H])C([H])([H])C([H])([H])C2([H])N([H])C(=O)C1([H])N(C(=O)C([H])(N([H])C(=O)C([H])(N([H])C([H])([H])[H])C([H])([H])[H])C(C([H])([H])[H])(C([H])([H])[H])C([H])([H])[H])C([H])([H])c2c([H])c(OC([H])([H])C(=O)C(=O)C([H])([H])N([H])c3c([H])c(N([H])C(=O)C([H])([H])C([H])([H])C([H])([H])[H])c(C([H])([H])[H])c(N(C(=O)N4C([H])([H])C([H])([H])C([H])([H])C([H])(n5nc(-c6c([H])c([H])c(Oc7c([H])c([H])c(F)c([H])c7F)c([H])c6[H])c(C(=O)N([H])[H])c5N([H])[H])C4([H])[H])C([H])([H])[H])c3[H])c([H])c([H])c2C1([H])[H]

$$$$
35:0:0
     RDKit          3D

 97106  0  0  1  0  0  0  0  0999 V2000
  -28.1520  -21.4730   20.3720 C   0  0  0  0  0  2  0  0  0  0  0  0
  -30.5480  -21.9760   19.8000 C   0  0  0  0  0  2  0  0  0  0  0  0
  -27.8460  -23.0400   20.3390 C   0  0  0  0  0  2  0  0  0  0  0  0
  -30.2380  -23.5170   19.8440 C   0  0  0  0  0  2  0  0  0  0  0  0
  -29.6330  -21.1330   20.7300 C   0  0  0  0  0  3  0  0  0  0  0  0
  -28.7870  -23.8880   19.4140 C   0  0  1  0  0  0  0  0  0  0  0  0
  -31.3200  -17.2510   21.7170 C   0  0  0  0  0  3  0  0  0  0  0  0
  -30.1410  -19.6500   21.0530 C   0  0  0  0  0  0  0  0  0  0  0  0
  -30.2440  -17.2530   20.7920 C   0  0  0  0  0  0  0  0  0  0  0  0
  -31.2320  -19.5330   21.9690 C   0  0  0  0  0  0  0  0  0  0  0  0
  -31.8080  -18.3640   22.2940 N   0  0  0  0  0  0  0  0  0  0  0  0
  -29.6650  -18.4830   20.4540 N   0  0  0  0  0  0  0  0  0  0  0  0
  -31.8260  -20.6170   22.6050 N   0  0  0  0  0  0  0  0  0  0  0  0
  -31.6380  -21.5540   22.2730 H   0  0  0  0  0  0  0  0  0  0  0  0
  -32.7350  -20.4960   23.0360 H   0  0  0  0  0  0  0  0  0  0  0  0
  -30.5440  -14.7910   20.1220 C   0  0  0  0  0  0  0  0  0  0  0  0
  -30.2790  -12.5700   19.0240 C   0  0  0  0  0  2  0  0  0  0  0  0
  -29.2810  -12.6790   17.8520 C   0  0  0  0  0  2  0  0  0  0  0  0
  -27.8370  -12.4810   18.3530 C   0  0  0  0  0  2  0  0  0  0  0  0
  -27.5160  -13.3360   19.6070 C   0  0  0  0  0  3  0  0  0  0  0  0
  -28.6280  -13.2270   20.6740 C   0  0  0  0  0  2  0  0  0  0  0  0
  -29.8920  -13.5890   20.0210 N   0  0  0  0  0  0  0  0  0  0  0  0
  -31.7190  -14.8910   19.7600 O   0  0  0  0  0  0  0  0  0  0  0  0
  -29.7910  -15.9230   20.3690 N   0  0  0  0  0  0  0  0  0  0  0  0
  -28.7930  -15.7920   20.3540 H   0  0  0  0  0  0  0  0  0  0  0  0
  -25.1580  -13.8840   20.4570 C   0  0  0  0  0  0  0  0  0  0  0  0
  -24.1190  -13.0890   20.8560 C   0  0  0  0  0  0  0  0  0  0  0  0
  -24.5970  -11.7450   20.7790 C   0  0  0  0  0  0  0  0  0  0  0  0
  -26.2000  -13.0230   20.1550 N   0  0  0  0  0  0  0  0  0  0  0  0
  -25.8720  -11.7310   20.4120 N   0  0  0  0  0  0  0  0  0  0  0  0
  -23.8970  -10.4690   20.9750 C   0  0  0  0  0  0  0  0  0  0  0  0
  -24.3510   -9.5130   21.9100 C   0  0  0  0  0  3  0  0  0  0  0  0
  -23.6490   -8.3020   22.0920 C   0  0  0  0  0  3  0  0  0  0  0  0
  -22.4800   -8.0380   21.3410 C   0  0  0  0  0  0  0  0  0  0  0  0
  -22.0440   -8.9840   20.3960 C   0  0  0  0  0  3  0  0  0  0  0  0
  -22.7470  -10.1870   20.2110 C   0  0  0  0  0  3  0  0  0  0  0  0
  -21.7500   -6.8780   21.4330 O   0  0  0  0  0  0  0  0  0  0  0  0
  -21.6870   -6.1570   22.5990 C   0  0  0  0  0  0  0  0  0  0  0  0
  -21.1720   -6.7130   23.7910 C   0  0  0  0  0  3  0  0  0  0  0  0
  -21.0600   -5.9160   24.9480 C   0  0  0  0  0  3  0  0  0  0  0  0
  -21.4530   -4.5640   24.9150 C   0  0  0  0  0  0  0  0  0  0  0  0
  -21.9620   -4.0100   23.7270 C   0  0  0  0  0  3  0  0  0  0  0  0
  -22.0750   -4.8030   22.5720 C   0  0  0  0  0  0  0  0  0  0  0  0
  -22.5450   -4.2560   21.4250 F   0  0  0  0  0  0  0  0  0  0  0  0
  -21.3390   -3.7970   26.0230 F   0  0  0  0  0  0  0  0  0  0  0  0
  -22.7290  -13.5420   21.1980 C   0  0  0  0  0  0  0  0  0  0  0  0
  -22.0450  -12.8170   22.0760 N   0  0  0  0  0  0  0  0  0  0  0  0
  -22.2590  -14.5750   20.7230 O   0  0  0  0  0  0  0  0  0  0  0  0
  -22.4390  -11.9820   22.4840 H   0  0  0  0  0  0  0  0  0  0  0  0
  -21.1170  -13.1050   22.3490 H   0  0  0  0  0  0  0  0  0  0  0  0
  -25.2950  -15.2600   20.2990 N   0  0  0  0  0  0  0  0  0  0  0  0
  -24.5250  -15.8990   20.4620 H   0  0  0  0  0  0  0  0  0  0  0  0
  -26.1100  -15.7190   19.9120 H   0  0  0  0  0  0  0  0  0  0  0  0
  -29.2800  -23.6550   16.9960 C   0  0  0  0  0  1  0  0  0  0  0  0
  -28.5290  -23.2570   18.1460 O   0  0  0  0  0  0  0  0  0  0  0  0
  -28.4890  -25.4750   19.1810 C   0  0  0  0  0  2  0  0  0  0  0  0
  -28.2720  -26.5460   20.1820 O   0  0  0  0  0  0  0  0  0  0  0  0
  -24.5640  -31.9640   23.2280 C   0  0  0  0  0  0  0  0  0  0  0  0
  -27.1470  -27.3960   20.1270 C   0  0  0  0  0  0  0  0  0  0  0  0
  -23.3450  -30.5710   21.5940 C   0  0  0  0  0  3  0  0  0  0  0  0
  -24.7810  -29.0220   20.1520 C   0  0  0  0  0  0  0  0  0  0  0  0
  -25.8860  -30.8800   21.3930 C   0  0  0  0  0  2  0  0  0  0  0  0
  -25.9570  -29.5030   20.7400 C   0  0  0  0  0  0  0  0  0  0  0  0
  -27.1380  -28.6990   20.7230 C   0  0  0  0  0  3  0  0  0  0  0  0
  -25.9320  -26.9610   19.5470 C   0  0  0  0  0  3  0  0  0  0  0  0
  -24.7710  -27.7560   19.5490 C   0  0  0  0  0  3  0  0  0  0  0  0
  -23.5460  -29.9010   20.2110 C   0  0  0  0  0  2  0  0  0  0  0  0
  -24.6180  -31.1550   22.1290 N   0  0  0  0  0  0  0  0  0  0  0  0
  -23.4850  -32.2420   23.7700 O   0  0  0  0  0  0  0  0  0  0  0  0
  -22.6870  -29.5540   22.5560 C   0  0  0  0  0  0  0  0  0  0  0  0
  -21.3600  -29.3740   22.4350 N   0  0  0  0  0  0  0  0  0  0  0  0
  -23.3680  -28.9290   23.3730 O   0  0  0  0  0  0  0  0  0  0  0  0
  -20.8680  -29.9310   21.7490 H   0  0  0  0  0  0  0  0  0  0  0  0
  -17.9830  -28.1910   22.9590 C   0  0  0  0  0  0  0  0  0  0  0  0
  -20.5450  -28.4390   23.2090 C   0  0  0  0  0  3  0  0  0  0  0  0
  -20.6350  -27.0080   22.6310 C   0  0  0  0  0  2  0  0  0  0  0  0
  -19.5260  -26.6940   21.6230 C   0  0  0  0  0  2  0  0  0  0  0  0
  -18.1480  -26.8440   22.2770 C   0  0  0  0  0  2  0  0  0  0  0  0
  -19.1080  -28.9480   23.3840 C   0  0  0  0  0  0  0  0  0  0  0  0
  -18.8990  -30.2080   23.9820 C   0  0  0  0  0  3  0  0  0  0  0  0
  -17.5980  -30.7140   24.1600 C   0  0  0  0  0  3  0  0  0  0  0  0
  -16.4870  -29.9550   23.7530 C   0  0  0  0  0  3  0  0  0  0  0  0
  -16.6800  -28.6950   23.1590 C   0  0  0  0  0  3  0  0  0  0  0  0
  -25.8520  -32.5930   23.8410 C   0  0  0  0  0  3  0  0  0  0  0  0
  -26.3740  -31.8220   25.1150 C   0  0  1  0  0  0  0  0  0  0  0  0
  -25.2870  -31.5880   26.1900 C   0  0  0  0  0  1  0  0  0  0  0  0
  -26.9520  -30.4420   24.7220 C   0  0  0  0  0  1  0  0  0  0  0  0
  -27.5300  -32.6150   25.7690 C   0  0  0  0  0  1  0  0  0  0  0  0
  -25.5460  -33.9920   24.1750 N   0  0  0  0  0  0  0  0  0  0  0  0
  -25.8750  -35.0460   23.4160 C   0  0  0  0  0  0  0  0  0  0  0  0
  -26.5360  -34.9430   22.3780 O   0  0  0  0  0  0  0  0  0  0  0  0
  -24.9590  -34.1470   24.9810 H   0  0  0  0  0  0  0  0  0  0  0  0
  -24.1580  -36.8530   23.0660 C   0  0  0  0  0  1  0  0  0  0  0  0
  -25.3950  -36.4350   23.8790 C   0  0  0  0  0  3  0  0  0  0  0  0
  -27.5290  -37.3080   24.7250 C   0  0  0  0  0  1  0  0  0  0  0  0
  -26.4340  -37.4830   23.7740 N   0  0  0  0  0  0  0  0  0  0  0  0
  -26.0330  -38.4050   23.9190 H   0  0  0  0  0  0  0  0  0  0  0  0
  1  5  1  0
  2  4  1  0
  2  5  1  0
  3  1  1  0
  5  8  1  0
  6 56  1  6
  6  4  1  0
  6  3  1  0
  7 11  1  0
  8 10  1  0
  9  7  2  0
 10 11  2  0
 10 13  1  0
 12  9  1  0
 12  8  2  0
 13 15  1  0
 14 13  1  0
 16 24  1  0
 17 22  1  0
 18 19  1  0
 18 17  1  0
 20 19  1  0
 20 29  1  0
 20 21  1  0
 22 16  1  0
 22 21  1  0
 23 16  2  0
 24  9  1  0
 25 24  1  0
 26 27  2  0
 27 46  1  0
 28 27  1  0
 28 31  1  0
 29 30  1  0
 29 26  1  0
 30 28  2  0
 31 32  1  0
 32 33  2  0
 34 37  1  0
 34 33  1  0
 35 34  2  0
 36 35  1  0
 36 31  2  0
 37 38  1  0
 38 39  1  0
 39 40  2  0
 41 40  1  0
 41 45  1  0
 42 41  2  0
 43 38  2  0
 43 42  1  0
 44 43  1  0
 46 47  1  0
 47 50  1  0
 47 49  1  0
 48 46  2  0
 51 26  1  0
 51 52  1  0
 53 51  1  0
 54 55  1  0
 55  6  1  0
 56 57  1  0
 58 69  2  0
 59 57  1  0
 59 64  1  0
 60 68  1  0
 60 70  1  0
 61 67  1  0
 61 63  1  0
 62 68  1  0
 63 62  1  0
 64 63  2  0
 65 66  1  0
 65 59  2  0
 66 61  2  0
 67 60  1  0
 68 58  1  0
 70 72  2  0
 71 70  1  0
 73 71  1  0
 74 83  2  0
 74 79  1  0
 75 71  1  0
 75 79  1  0
 76 75  1  0
 77 78  1  0
 77 76  1  0
 78 74  1  0
 79 80  2  0
 80 81  1  0
 82 81  2  0
 83 82  1  0
 84 58  1  0
 84 89  1  0
 84 85  1  0
 85 88  1  1
 85 86  1  0
 87 85  1  0
 89 92  1  0
 90 94  1  0
 90 89  1  0
 91 90  2  0
 94 93  1  0
 96 94  1  0
 96 97  1  0
 96 95  1  0
M  ISO  4  16 100  24 100  56 101  57 101
M  END
>  <TORSDO>  (36) 
F 19

>  <SCORE>  (36) 
-14.312

>  <name>  (36) 
35

>  <ligand_id>  (36) 
35

>  <original_smiles>  (36) 
[H]c1nc(N([H])[H])c(C2([H])C([H])([H])C([H])([H])C(OC([H])([H])[H])(C([H])([H])Oc3c([H])c([H])c4c(c3[H])C([H])([H])N(C(=O)C([H])(N([H])C(=O)C([H])(N([H])C([H])([H])[H])C([H])([H])[H])C(C([H])([H])[H])(C([H])([H])[H])C([H])([H])[H])C([H])(C(=O)N([H])C3([H])c5c([H])c([H])c([H])c([H])c5C([H])([H])C([H])([H])C3([H])[H])C4([H])[H])C([H])([H])C2([H])[H])nc1N([H])C(=O)N1C([H])([H])C([H])([H])C([H])([H])C([H])(n2nc(-c3c([H])c([H])c(Oc4c([H])c([H])c(F)c([H])c4F)c([H])c3[H])c(C(=O)N([H])[H])c2N([H])[H])C1([H])[H]

>  <smiles>  (36) 
[H]c1nc(N([H])[H])c(C2([H])C([H])([H])C([H])([H])C(OC([H])([H])[H])(C([H])([H])Oc3c([H])c([H])c4c(c3[H])C([H])([H])N(C(=O)C([H])(N([H])C(=O)C([H])(N([H])C([H])([H])[H])C([H])([H])[H])C(C([H])([H])[H])(C([H])([H])[H])C([H])([H])[H])C([H])(C(=O)N([H])C3([H])c5c([H])c([H])c([H])c([H])c5C([H])([H])C([H])([H])C3([H])[H])C4([H])[H])C([H])([H])C2([H])[H])nc1N([H])C(=O)N1C([H])([H])C([H])([H])C([H])([H])C([H])(n2nc(-c3c([H])c([H])c(Oc4c([H])c([H])c(F)c([H])c4F)c([H])c3[H])c(C(=O)N([H])[H])c2N([H])[H])C1([H])[H]

$$$$
36:0:0
     RDKit          3D

 93101  0  0  1  0  0  0  0  0999 V2000
  -29.1520  -22.3750   19.9260 C   0  0  0  0  0  0  0  0  0  0  0  0
  -29.3070  -21.2240   20.6760 N   0  0  0  0  0  0  0  0  0  0  0  0
  -29.0510  -22.3090   18.7000 O   0  0  0  0  0  0  0  0  0  0  0  0
  -29.2190  -21.3840   21.6710 H   0  0  0  0  0  0  0  0  0  0  0  0
  -30.6410  -14.7720   19.9910 C   0  0  0  0  0  0  0  0  0  0  0  0
  -30.3920  -12.5240   18.9300 C   0  0  0  0  0  2  0  0  0  0  0  0
  -29.3720  -12.6370   17.7730 C   0  0  0  0  0  2  0  0  0  0  0  0
  -27.9310  -12.4650   18.2880 C   0  0  0  0  0  2  0  0  0  0  0  0
  -27.6450  -13.3180   19.5530 C   0  0  0  0  0  3  0  0  0  0  0  0
  -28.7700  -13.1650   20.6020 C   0  0  0  0  0  2  0  0  0  0  0  0
  -30.0350  -13.5350   19.9510 N   0  0  0  0  0  0  0  0  0  0  0  0
  -31.7690  -14.9220   19.5100 O   0  0  0  0  0  0  0  0  0  0  0  0
  -30.3190  -19.3510   19.2770 C   0  0  0  0  0  0  0  0  0  0  0  0
  -29.5860  -19.8900   20.3270 C   0  0  0  0  0  0  0  0  0  0  0  0
  -29.9370  -17.2930   20.2920 C   0  0  0  0  0  0  0  0  0  0  0  0
  -30.5100  -17.9360   19.2600 N   0  0  0  0  0  0  0  0  0  0  0  0
  -29.8920  -15.8240   20.4810 N   0  0  0  0  0  0  0  0  0  0  0  0
  -30.8690  -20.0990   18.3490 F   0  0  0  0  0  0  0  0  0  0  0  0
  -29.1050  -18.4970   21.3420 S   0  0  0  0  0  0  0  0  0  0  0  0
  -29.0940  -15.5130   21.0110 H   0  0  0  0  0  0  0  0  0  0  0  0
  -25.3080  -13.9090   20.4410 C   0  0  0  0  0  0  0  0  0  0  0  0
  -24.2600  -13.1330   20.8550 C   0  0  0  0  0  0  0  0  0  0  0  0
  -24.7090  -11.7790   20.7580 C   0  0  0  0  0  0  0  0  0  0  0  0
  -26.3280  -13.0290   20.1150 N   0  0  0  0  0  0  0  0  0  0  0  0
  -25.9770  -11.7410   20.3660 N   0  0  0  0  0  0  0  0  0  0  0  0
  -23.9850  -10.5170   20.9580 C   0  0  0  0  0  0  0  0  0  0  0  0
  -24.4420   -9.5410   21.8720 C   0  0  0  0  0  3  0  0  0  0  0  0
  -23.7170   -8.3440   22.0620 C   0  0  0  0  0  3  0  0  0  0  0  0
  -22.5230   -8.1150   21.3380 C   0  0  0  0  0  0  0  0  0  0  0  0
  -22.0850   -9.0800   20.4140 C   0  0  0  0  0  3  0  0  0  0  0  0
  -22.8100  -10.2680   20.2220 C   0  0  0  0  0  3  0  0  0  0  0  0
  -21.7690   -6.9710   21.4370 O   0  0  0  0  0  0  0  0  0  0  0  0
  -21.7100   -6.2460   22.6010 C   0  0  0  0  0  0  0  0  0  0  0  0
  -21.2480   -6.8130   23.8090 C   0  0  0  0  0  3  0  0  0  0  0  0
  -21.1390   -6.0140   24.9650 C   0  0  0  0  0  3  0  0  0  0  0  0
  -21.4810   -4.6490   24.9130 C   0  0  0  0  0  0  0  0  0  0  0  0
  -21.9360   -4.0820   23.7090 C   0  0  0  0  0  3  0  0  0  0  0  0
  -22.0470   -4.8780   22.5570 C   0  0  0  0  0  0  0  0  0  0  0  0
  -22.4660   -4.3220   21.3930 F   0  0  0  0  0  0  0  0  0  0  0  0
  -21.3700   -3.8790   26.0200 F   0  0  0  0  0  0  0  0  0  0  0  0
  -22.8880  -13.6120   21.2290 C   0  0  0  0  0  0  0  0  0  0  0  0
  -22.2120  -12.8990   22.1230 N   0  0  0  0  0  0  0  0  0  0  0  0
  -22.4250  -14.6510   20.7620 O   0  0  0  0  0  0  0  0  0  0  0  0
  -22.6000  -12.0550   22.5200 H   0  0  0  0  0  0  0  0  0  0  0  0
  -21.2940  -13.2020   22.4170 H   0  0  0  0  0  0  0  0  0  0  0  0
  -25.4730  -15.2840   20.2900 N   0  0  0  0  0  0  0  0  0  0  0  0
  -24.7180  -15.9380   20.4680 H   0  0  0  0  0  0  0  0  0  0  0  0
  -26.2870  -15.7230   19.8810 H   0  0  0  0  0  0  0  0  0  0  0  0
  -30.5550  -24.3260   20.7030 C   0  0  0  0  0  1  0  0  0  0  0  0
  -28.5280  -23.7000   22.0460 C   0  0  0  0  0  1  0  0  0  0  0  0
  -29.0980  -23.8350   20.6170 C   0  0  2  0  0  0  0  0  0  0  0  0
  -28.2540  -24.9980   19.8640 C   0  0  0  0  0  2  0  0  0  0  0  0
  -28.3620  -26.4410   20.2810 O   0  0  0  0  0  0  0  0  0  0  0  0
  -24.6120  -31.8610   23.2770 C   0  0  0  0  0  0  0  0  0  0  0  0
  -27.2580  -27.3200   20.1880 C   0  0  0  0  0  0  0  0  0  0  0  0
  -23.4320  -30.4890   21.6000 C   0  0  0  0  0  3  0  0  0  0  0  0
  -24.9020  -28.9650   20.1620 C   0  0  0  0  0  0  0  0  0  0  0  0
  -25.9760  -30.7990   21.4630 C   0  0  0  0  0  2  0  0  0  0  0  0
  -26.0620  -29.4300   20.7930 C   0  0  0  0  0  0  0  0  0  0  0  0
  -27.2400  -28.6180   20.8000 C   0  0  0  0  0  3  0  0  0  0  0  0
  -26.0810  -26.9350   19.5030 C   0  0  0  0  0  3  0  0  0  0  0  0
  -24.9170  -27.7260   19.5070 C   0  0  0  0  0  3  0  0  0  0  0  0
  -23.6630  -29.8380   20.2110 C   0  0  0  0  0  2  0  0  0  0  0  0
  -24.6920  -31.0680   22.1690 N   0  0  0  0  0  0  0  0  0  0  0  0
  -23.5200  -32.1300   23.8010 O   0  0  0  0  0  0  0  0  0  0  0  0
  -22.7570  -29.4550   22.5360 C   0  0  0  0  0  0  0  0  0  0  0  0
  -21.4340  -29.2740   22.3860 N   0  0  0  0  0  0  0  0  0  0  0  0
  -23.4270  -28.8220   23.3570 O   0  0  0  0  0  0  0  0  0  0  0  0
  -20.9530  -29.8380   21.7000 H   0  0  0  0  0  0  0  0  0  0  0  0
  -18.0560  -28.0540   22.8190 C   0  0  0  0  0  0  0  0  0  0  0  0
  -20.6090  -28.3220   23.1330 C   0  0  0  0  0  3  0  0  0  0  0  0
  -20.7270  -26.8990   22.5420 C   0  0  0  0  0  2  0  0  0  0  0  0
  -19.6430  -26.5820   21.5080 C   0  0  0  0  0  2  0  0  0  0  0  0
  -18.2500  -26.7140   22.1300 C   0  0  0  0  0  2  0  0  0  0  0  0
  -19.1640  -28.8150   23.2770 C   0  0  0  0  0  0  0  0  0  0  0  0
  -18.9280  -30.0690   23.8810 C   0  0  0  0  0  3  0  0  0  0  0  0
  -17.6180  -30.5620   24.0330 C   0  0  0  0  0  3  0  0  0  0  0  0
  -16.5250  -29.7960   23.5910 C   0  0  0  0  0  3  0  0  0  0  0  0
  -16.7440  -28.5440   22.9910 C   0  0  0  0  0  3  0  0  0  0  0  0
  -25.8840  -32.4880   23.9250 C   0  0  0  0  0  3  0  0  0  0  0  0
  -25.5760  -33.8890   24.2460 N   0  0  0  0  0  0  0  0  0  0  0  0
  -25.8960  -34.9370   23.4740 C   0  0  0  0  0  0  0  0  0  0  0  0
  -26.5510  -34.8250   22.4340 O   0  0  0  0  0  0  0  0  0  0  0  0
  -24.9960  -34.0510   25.0560 H   0  0  0  0  0  0  0  0  0  0  0  0
  -24.1440  -36.7130   23.1490 C   0  0  0  0  0  1  0  0  0  0  0  0
  -25.4140  -36.3280   23.9260 C   0  0  0  0  0  3  0  0  0  0  0  0
  -27.5650  -37.2430   24.6810 C   0  0  0  0  0  1  0  0  0  0  0  0
  -26.4350  -37.3860   23.7640 N   0  0  0  0  0  0  0  0  0  0  0  0
  -26.0270  -38.3070   23.9070 H   0  0  0  0  0  0  0  0  0  0  0  0
  -26.3670  -31.7180   25.2160 C   0  0  1  0  0  0  0  0  0  0  0  0
  -25.2470  -31.4910   26.2590 C   0  0  0  0  0  1  0  0  0  0  0  0
  -26.9530  -30.3380   24.8440 C   0  0  0  0  0  1  0  0  0  0  0  0
  -27.5050  -32.5090   25.9010 C   0  0  0  0  0  1  0  0  0  0  0  0
  1 51  1  0
  1  2  1  0
  2  4  1  0
  3  1  2  0
  5 17  1  0
  6 11  1  0
  7  8  1  0
  7  6  1  0
  9  8  1  0
  9 24  1  0
  9 10  1  0
 11  5  1  0
 11 10  1  0
 12  5  2  0
 13 14  2  0
 14  2  1  0
 14 19  1  0
 15 17  1  0
 15 19  1  0
 16 13  1  0
 16 15  2  0
 17 20  1  0
 18 13  1  0
 21 22  2  0
 22 41  1  0
 23 22  1  0
 23 26  1  0
 24 25  1  0
 24 21  1  0
 25 23  2  0
 26 27  1  0
 27 28  2  0
 29 32  1  0
 29 28  1  0
 30 29  2  0
 31 30  1  0
 31 26  2  0
 32 33  1  0
 33 34  1  0
 34 35  2  0
 36 35  1  0
 36 40  1  0
 37 36  2  0
 38 33  2  0
 38 37  1  0
 39 38  1  0
 41 42  1  0
 42 45  1  0
 42 44  1  0
 43 41  2  0
 46 21  1  0
 46 47  1  0
 48 46  1  0
 51 49  1  1
 51 50  1  0
 52 53  1  0
 52 51  1  0
 54 65  2  0
 55 53  1  0
 55 60  1  0
 56 64  1  0
 56 66  1  0
 57 63  1  0
 57 59  1  0
 58 64  1  0
 59 60  2  0
 59 58  1  0
 61 62  1  0
 61 55  2  0
 62 57  2  0
 63 56  1  0
 64 54  1  0
 66 68  2  0
 67 66  1  0
 69 67  1  0
 70 79  2  0
 70 75  1  0
 71 67  1  0
 71 75  1  0
 72 71  1  0
 73 74  1  0
 73 72  1  0
 74 70  1  0
 75 76  2  0
 76 77  1  0
 78 77  2  0
 79 78  1  0
 80 54  1  0
 80 81  1  0
 80 90  1  0
 81 84  1  0
 82 86  1  0
 82 81  1  0
 83 82  2  0
 86 85  1  0
 88 89  1  0
 88 86  1  0
 88 87  1  0
 90 93  1  1
 90 91  1  0
 92 90  1  0
M  ISO  4   5 100  17 100  52 101  53 101
M  END
>  <TORSDO>  (37) 
F 18

>  <SCORE>  (37) 
-13.950

>  <name>  (37) 
36

>  <ligand_id>  (37) 
36

>  <original_smiles>  (37) 
[H]c1c([H])c([H])c2c(c1[H])C([H])([H])C([H])([H])C([H])([H])C2([H])N([H])C(=O)C1([H])N(C(=O)C([H])(N([H])C(=O)C([H])(N([H])C([H])([H])[H])C([H])([H])[H])C(C([H])([H])[H])(C([H])([H])[H])C([H])([H])[H])C([H])([H])c2c([H])c(OC([H])([H])C(C(=O)N([H])c3sc(N([H])C(=O)N4C([H])([H])C([H])([H])C([H])([H])C([H])(n5nc(-c6c([H])c([H])c(Oc7c([H])c([H])c(F)c([H])c7F)c([H])c6[H])c(C(=O)N([H])[H])c5N([H])[H])C4([H])[H])nc3F)(C([H])([H])[H])C([H])([H])[H])c([H])c([H])c2C1([H])[H]

>  <smiles>  (37) 
[H]c1c([H])c([H])c2c(c1[H])C([H])([H])C([H])([H])C([H])([H])C2([H])N([H])C(=O)C1([H])N(C(=O)C([H])(N([H])C(=O)C([H])(N([H])C([H])([H])[H])C([H])([H])[H])C(C([H])([H])[H])(C([H])([H])[H])C([H])([H])[H])C([H])([H])c2c([H])c(OC([H])([H])C(C(=O)N([H])c3sc(N([H])C(=O)N4C([H])([H])C([H])([H])C([H])([H])C([H])(n5nc(-c6c([H])c([H])c(Oc7c([H])c([H])c(F)c([H])c7F)c([H])c6[H])c(C(=O)N([H])[H])c5N([H])[H])C4([H])[H])nc3F)(C([H])([H])[H])C([H])([H])[H])c([H])c([H])c2C1([H])[H]

$$$$
37:0:0
     RDKit          3D

 91 99  0  0  1  0  0  0  0  0999 V2000
  -28.9630  -22.4340   20.8910 N   0  0  0  0  0  0  0  0  0  0  0  0
  -29.4430  -22.6670   21.7560 H   0  0  0  0  0  0  0  0  0  0  0  0
  -29.8350  -20.0400   21.1160 C   0  0  0  0  0  3  0  0  0  0  0  0
  -29.6360  -18.7530   20.4550 C   0  0  0  0  0  0  0  0  0  0  0  0
  -28.7160  -19.0950   19.4820 C   0  0  0  0  0  0  0  0  0  0  0  0
  -29.0870  -21.0370   20.5000 C   0  0  0  0  0  0  0  0  0  0  0  0
  -28.0450  -18.2860   18.4240 C   0  0  0  0  0  1  0  0  0  0  0  0
  -28.3890  -20.4570   19.4850 O   0  0  0  0  0  0  0  0  0  0  0  0
  -30.4050  -17.3720   20.7520 C   0  0  0  0  0  2  0  0  0  0  0  0
  -30.6010  -14.7920   20.3490 C   0  0  0  0  0  0  0  0  0  0  0  0
  -30.3960  -12.5140   19.3350 C   0  0  0  0  0  2  0  0  0  0  0  0
  -29.4560  -12.5630   18.1120 C   0  0  0  0  0  2  0  0  0  0  0  0
  -27.9900  -12.3830   18.5480 C   0  0  0  0  0  2  0  0  0  0  0  0
  -27.6120  -13.2810   19.7560 C   0  0  0  0  0  3  0  0  0  0  0  0
  -28.6720  -13.2170   20.8760 C   0  0  0  0  0  2  0  0  0  0  0  0
  -29.9600  -13.5750   20.2720 N   0  0  0  0  0  0  0  0  0  0  0  0
  -31.7950  -14.8650   20.0470 O   0  0  0  0  0  0  0  0  0  0  0  0
  -29.8640  -15.9490   20.5780 N   0  0  0  0  0  0  0  0  0  0  0  0
  -28.8790  -15.8210   20.7510 H   0  0  0  0  0  0  0  0  0  0  0  0
  -25.2250  -13.8630   20.4870 C   0  0  0  0  0  0  0  0  0  0  0  0
  -24.1630  -13.0860   20.8580 C   0  0  0  0  0  0  0  0  0  0  0  0
  -24.6320  -11.7370   20.8330 C   0  0  0  0  0  0  0  0  0  0  0  0
  -26.2710  -12.9880   20.2520 N   0  0  0  0  0  0  0  0  0  0  0  0
  -25.9230  -11.7040   20.5250 N   0  0  0  0  0  0  0  0  0  0  0  0
  -23.9110  -10.4720   21.0250 C   0  0  0  0  0  0  0  0  0  0  0  0
  -24.3470   -9.5060   21.9580 C   0  0  0  0  0  3  0  0  0  0  0  0
  -23.6230   -8.3070   22.1390 C   0  0  0  0  0  3  0  0  0  0  0  0
  -22.4500   -8.0660   21.3850 C   0  0  0  0  0  0  0  0  0  0  0  0
  -22.0340   -9.0210   20.4400 C   0  0  0  0  0  3  0  0  0  0  0  0
  -22.7580  -10.2100   20.2580 C   0  0  0  0  0  3  0  0  0  0  0  0
  -21.6980   -6.9190   21.4740 O   0  0  0  0  0  0  0  0  0  0  0  0
  -21.6530   -6.1760   22.6270 C   0  0  0  0  0  0  0  0  0  0  0  0
  -21.2260   -6.7300   23.8530 C   0  0  0  0  0  3  0  0  0  0  0  0
  -21.1270   -5.9130   24.9970 C   0  0  0  0  0  3  0  0  0  0  0  0
  -21.4480   -4.5440   24.9160 C   0  0  0  0  0  0  0  0  0  0  0  0
  -21.8700   -3.9910   23.6940 C   0  0  0  0  0  3  0  0  0  0  0  0
  -21.9690   -4.8040   22.5530 C   0  0  0  0  0  0  0  0  0  0  0  0
  -22.3560   -4.2620   21.3720 F   0  0  0  0  0  0  0  0  0  0  0  0
  -21.3470   -3.7570   26.0130 F   0  0  0  0  0  0  0  0  0  0  0  0
  -22.7640  -13.5580   21.1270 C   0  0  0  0  0  0  0  0  0  0  0  0
  -22.0380  -12.8620   21.9930 N   0  0  0  0  0  0  0  0  0  0  0  0
  -22.3240  -14.5830   20.6040 O   0  0  0  0  0  0  0  0  0  0  0  0
  -22.4070  -12.0320   22.4350 H   0  0  0  0  0  0  0  0  0  0  0  0
  -21.1000  -13.1620   22.2190 H   0  0  0  0  0  0  0  0  0  0  0  0
  -25.3820  -15.2350   20.3030 N   0  0  0  0  0  0  0  0  0  0  0  0
  -24.6070  -15.8800   20.4060 H   0  0  0  0  0  0  0  0  0  0  0  0
  -26.2190  -15.6760   19.9470 H   0  0  0  0  0  0  0  0  0  0  0  0
  -28.6530  -23.6610   20.0440 C   0  0  0  0  0  2  0  0  0  0  0  0
  -29.0250  -25.2030   22.1090 C   0  0  0  0  0  1  0  0  0  0  0  0
  -28.2140  -25.0420   20.8120 C   0  0  0  0  0  3  0  0  0  0  0  0
  -28.3270  -26.4070   20.1840 O   0  0  0  0  0  0  0  0  0  0  0  0
  -24.5960  -31.8880   23.2180 C   0  0  0  0  0  0  0  0  0  0  0  0
  -27.2210  -27.2860   20.1990 C   0  0  0  0  0  0  0  0  0  0  0  0
  -23.4010  -30.4810   21.5790 C   0  0  0  0  0  3  0  0  0  0  0  0
  -24.8600  -28.9220   20.1630 C   0  0  0  0  0  0  0  0  0  0  0  0
  -25.9430  -30.7970   21.4020 C   0  0  0  0  0  2  0  0  0  0  0  0
  -26.0310  -29.4100   20.7620 C   0  0  0  0  0  0  0  0  0  0  0  0
  -27.2170  -28.6070   20.7630 C   0  0  0  0  0  3  0  0  0  0  0  0
  -26.0290  -26.8570   19.5810 C   0  0  0  0  0  3  0  0  0  0  0  0
  -24.8650  -27.6520   19.5610 C   0  0  0  0  0  3  0  0  0  0  0  0
  -23.6240  -29.8000   20.2010 C   0  0  0  0  0  2  0  0  0  0  0  0
  -24.6660  -31.0740   22.1220 N   0  0  0  0  0  0  0  0  0  0  0  0
  -23.5100  -32.1640   23.7480 O   0  0  0  0  0  0  0  0  0  0  0  0
  -22.7360  -29.4670   22.5400 C   0  0  0  0  0  0  0  0  0  0  0  0
  -21.4080  -29.2900   22.4130 N   0  0  0  0  0  0  0  0  0  0  0  0
  -23.4120  -28.8410   23.3610 O   0  0  0  0  0  0  0  0  0  0  0  0
  -20.9200  -29.8480   21.7270 H   0  0  0  0  0  0  0  0  0  0  0  0
  -18.0300  -28.0960   22.9210 C   0  0  0  0  0  0  0  0  0  0  0  0
  -20.5900  -28.3530   23.1850 C   0  0  0  0  0  3  0  0  0  0  0  0
  -20.6880  -26.9220   22.6080 C   0  0  0  0  0  2  0  0  0  0  0  0
  -19.5830  -26.6020   21.5960 C   0  0  0  0  0  2  0  0  0  0  0  0
  -18.2020  -26.7480   22.2430 C   0  0  0  0  0  2  0  0  0  0  0  0
  -19.1500  -28.8570   23.3500 C   0  0  0  0  0  0  0  0  0  0  0  0
  -18.9340  -30.1190   23.9450 C   0  0  0  0  0  3  0  0  0  0  0  0
  -17.6300  -30.6210   24.1140 C   0  0  0  0  0  3  0  0  0  0  0  0
  -16.5250  -29.8580   23.7030 C   0  0  0  0  0  3  0  0  0  0  0  0
  -16.7250  -28.5980   23.1120 C   0  0  0  0  0  3  0  0  0  0  0  0
  -25.8730  -32.5270   23.8430 C   0  0  0  0  0  3  0  0  0  0  0  0
  -26.3890  -31.7590   25.1220 C   0  0  1  0  0  0  0  0  0  0  0  0
  -25.2930  -31.5210   26.1870 C   0  0  0  0  0  1  0  0  0  0  0  0
  -26.9770  -30.3830   24.7360 C   0  0  0  0  0  1  0  0  0  0  0  0
  -27.5350  -32.5590   25.7860 C   0  0  0  0  0  1  0  0  0  0  0  0
  -25.5560  -33.9240   24.1720 N   0  0  0  0  0  0  0  0  0  0  0  0
  -25.8880  -34.9800   23.4170 C   0  0  0  0  0  0  0  0  0  0  0  0
  -26.5610  -34.8800   22.3880 O   0  0  0  0  0  0  0  0  0  0  0  0
  -24.9580  -34.0740   24.9720 H   0  0  0  0  0  0  0  0  0  0  0  0
  -24.1590  -36.7720   23.0600 C   0  0  0  0  0  1  0  0  0  0  0  0
  -25.3950  -36.3670   23.8770 C   0  0  0  0  0  3  0  0  0  0  0  0
  -27.5230  -37.2550   24.7230 C   0  0  0  0  0  1  0  0  0  0  0  0
  -26.4270  -37.4220   23.7720 N   0  0  0  0  0  0  0  0  0  0  0  0
  -26.0180  -38.3400   23.9210 H   0  0  0  0  0  0  0  0  0  0  0  0
  1  2  1  0
  4  9  1  0
  4  3  1  0
  5  8  1  0
  5  4  2  0
  6  1  1  0
  6  3  2  0
  7  5  1  0
  8  6  1  0
 10 18  1  0
 11 16  1  0
 12 13  1  0
 12 11  1  0
 14 13  1  0
 14 23  1  0
 14 15  1  0
 16 10  1  0
 16 15  1  0
 17 10  2  0
 18 19  1  0
 18  9  1  0
 20 21  2  0
 21 40  1  0
 22 21  1  0
 22 25  1  0
 23 20  1  0
 23 24  1  0
 24 22  2  0
 25 26  1  0
 26 27  2  0
 28 31  1  0
 28 27  1  0
 29 28  2  0
 30 29  1  0
 30 25  2  0
 31 32  1  0
 32 33  1  0
 33 34  2  0
 35 34  1  0
 35 39  1  0
 36 35  2  0
 37 32  2  0
 37 36  1  0
 38 37  1  0
 40 41  1  0
 41 44  1  0
 41 43  1  0
 42 40  2  0
 45 46  1  0
 45 20  1  0
 47 45  1  0
 48 50  1  0
 48  1  1  0
 50 49  1  0
 51 53  1  0
 51 50  1  0
 52 63  2  0
 53 58  1  0
 54 62  1  0
 54 64  1  0
 55 61  1  0
 55 57  1  0
 56 62  1  0
 57 58  2  0
 57 56  1  0
 59 53  2  0
 60 59  1  0
 60 55  2  0
 61 54  1  0
 62 52  1  0
 64 66  2  0
 65 64  1  0
 67 65  1  0
 68 77  2  0
 68 73  1  0
 69 65  1  0
 69 73  1  0
 70 69  1  0
 71 72  1  0
 71 70  1  0
 72 68  1  0
 73 74  2  0
 74 75  1  0
 76 75  2  0
 77 76  1  0
 78 52  1  0
 78 83  1  0
 78 79  1  0
 79 82  1  1
 79 80  1  0
 81 79  1  0
 83 86  1  0
 84 88  1  0
 84 83  1  0
 85 84  2  0
 88 87  1  0
 90 88  1  0
 90 91  1  0
 90 89  1  0
M  ISO  4  10 100  18 100  50 101  51 101
M  END
>  <TORSDO>  (38) 
F 20

>  <SCORE>  (38) 
-14.026

>  <name>  (38) 
37

>  <ligand_id>  (38) 
37

>  <original_smiles>  (38) 
[H]c1c([H])c([H])c2c(c1[H])C([H])([H])C([H])([H])C([H])([H])C2([H])N([H])C(=O)C1([H])N(C(=O)C([H])(N([H])C(=O)C([H])(N([H])C([H])([H])[H])C([H])([H])[H])C(C([H])([H])[H])(C([H])([H])[H])C([H])([H])[H])C([H])([H])c2c([H])c(OC([H])(C([H])([H])[H])C([H])([H])N([H])c3oc(C([H])([H])[H])c(C([H])([H])N([H])C(=O)N4C([H])([H])C([H])([H])C([H])([H])C([H])(n5nc(-c6c([H])c([H])c(Oc7c([H])c([H])c(F)c([H])c7F)c([H])c6[H])c(C(=O)N([H])[H])c5N([H])[H])C4([H])[H])c3[H])c([H])c([H])c2C1([H])[H]

>  <smiles>  (38) 
[H]c1c([H])c([H])c2c(c1[H])C([H])([H])C([H])([H])C([H])([H])C2([H])N([H])C(=O)C1([H])N(C(=O)C([H])(N([H])C(=O)C([H])(N([H])C([H])([H])[H])C([H])([H])[H])C(C([H])([H])[H])(C([H])([H])[H])C([H])([H])[H])C([H])([H])c2c([H])c(OC([H])(C([H])([H])[H])C([H])([H])N([H])c3oc(C([H])([H])[H])c(C([H])([H])N([H])C(=O)N4C([H])([H])C([H])([H])C([H])([H])C([H])(n5nc(-c6c([H])c([H])c(Oc7c([H])c([H])c(F)c([H])c7F)c([H])c6[H])c(C(=O)N([H])[H])c5N([H])[H])C4([H])[H])c3[H])c([H])c([H])c2C1([H])[H]

$$$$
38:0:0
     RDKit          3D

 93101  0  0  1  0  0  0  0  0999 V2000
  -28.9800  -23.2990   20.4480 C   0  0  0  0  0  0  0  0  0  0  0  0
  -29.1330  -22.0500   21.0120 N   0  0  0  0  0  0  0  0  0  0  0  0
  -28.9860  -23.4780   19.2280 O   0  0  0  0  0  0  0  0  0  0  0  0
  -29.0210  -22.0550   22.0140 H   0  0  0  0  0  0  0  0  0  0  0  0
  -29.6980  -19.5770   21.3030 C   0  0  0  0  0  3  0  0  0  0  0  0
  -29.4000  -20.3860   19.1340 C   0  0  0  0  0  3  0  0  0  0  0  0
  -29.3980  -20.7230   20.4650 C   0  0  0  0  0  0  0  0  0  0  0  0
  -29.9540  -18.3900   20.6210 C   0  0  0  0  0  0  0  0  0  0  0  0
  -29.7650  -18.6780   18.9030 S   0  0  0  0  0  0  0  0  0  0  0  0
  -30.5160  -17.0670   21.1940 C   0  0  0  0  0  2  0  0  0  0  0  0
  -30.6350  -14.6320   20.4060 C   0  0  0  0  0  0  0  0  0  0  0  0
  -30.3510  -12.4100   19.3340 C   0  0  0  0  0  2  0  0  0  0  0  0
  -29.4020  -12.5350   18.1240 C   0  0  0  0  0  2  0  0  0  0  0  0
  -27.9330  -12.3900   18.5670 C   0  0  0  0  0  2  0  0  0  0  0  0
  -27.5870  -13.2630   19.8030 C   0  0  0  0  0  3  0  0  0  0  0  0
  -28.6560  -13.1270   20.9080 C   0  0  0  0  0  2  0  0  0  0  0  0
  -29.9590  -13.4460   20.3080 N   0  0  0  0  0  0  0  0  0  0  0  0
  -31.7990  -14.7340   20.0130 O   0  0  0  0  0  0  0  0  0  0  0  0
  -29.9400  -15.7370   20.8110 N   0  0  0  0  0  0  0  0  0  0  0  0
  -28.9690  -15.5950   21.0390 H   0  0  0  0  0  0  0  0  0  0  0  0
  -25.2040  -13.8680   20.5450 C   0  0  0  0  0  0  0  0  0  0  0  0
  -24.1360  -13.0990   20.9230 C   0  0  0  0  0  0  0  0  0  0  0  0
  -24.5930  -11.7450   20.8850 C   0  0  0  0  0  0  0  0  0  0  0  0
  -26.2430  -12.9840   20.3020 N   0  0  0  0  0  0  0  0  0  0  0  0
  -25.8810  -11.7020   20.5670 N   0  0  0  0  0  0  0  0  0  0  0  0
  -23.8630  -10.4840   21.0770 C   0  0  0  0  0  0  0  0  0  0  0  0
  -24.3110   -9.5010   21.9880 C   0  0  0  0  0  3  0  0  0  0  0  0
  -23.5800   -8.3080   22.1700 C   0  0  0  0  0  3  0  0  0  0  0  0
  -22.3880   -8.0860   21.4400 C   0  0  0  0  0  0  0  0  0  0  0  0
  -21.9590   -9.0570   20.5180 C   0  0  0  0  0  3  0  0  0  0  0  0
  -22.6900  -10.2430   20.3340 C   0  0  0  0  0  3  0  0  0  0  0  0
  -21.6280   -6.9450   21.5330 O   0  0  0  0  0  0  0  0  0  0  0  0
  -21.6140   -6.1800   22.6720 C   0  0  0  0  0  0  0  0  0  0  0  0
  -21.2480   -6.7160   23.9250 C   0  0  0  0  0  3  0  0  0  0  0  0
  -21.1800   -5.8780   25.0560 C   0  0  0  0  0  3  0  0  0  0  0  0
  -21.4670   -4.5050   24.9350 C   0  0  0  0  0  0  0  0  0  0  0  0
  -21.8280   -3.9690   23.6870 C   0  0  0  0  0  3  0  0  0  0  0  0
  -21.8970   -4.8040   22.5570 C   0  0  0  0  0  0  0  0  0  0  0  0
  -22.2230   -4.2790   21.3510 F   0  0  0  0  0  0  0  0  0  0  0  0
  -21.3940   -3.6990   26.0190 F   0  0  0  0  0  0  0  0  0  0  0  0
  -22.7420  -13.5800   21.2050 C   0  0  0  0  0  0  0  0  0  0  0  0
  -22.0180  -12.8880   22.0770 N   0  0  0  0  0  0  0  0  0  0  0  0
  -22.3040  -14.6070   20.6880 O   0  0  0  0  0  0  0  0  0  0  0  0
  -22.3830  -12.0590   22.5190 H   0  0  0  0  0  0  0  0  0  0  0  0
  -21.0860  -13.1990   22.3140 H   0  0  0  0  0  0  0  0  0  0  0  0
  -25.3710  -15.2370   20.3660 N   0  0  0  0  0  0  0  0  0  0  0  0
  -24.6040  -15.8940   20.4740 H   0  0  0  0  0  0  0  0  0  0  0  0
  -26.2100  -15.6700   20.0040 H   0  0  0  0  0  0  0  0  0  0  0  0
  -28.5200  -25.7210   21.2700 C   0  0  0  0  0  3  0  0  0  0  0  0
  -28.8030  -24.3850   21.4600 C   0  0  0  0  0  0  0  0  0  0  0  0
  -28.9610  -24.0400   22.7500 O   0  0  0  0  0  0  0  0  0  0  0  0
  -29.5890  -23.3310   22.7810 H   0  0  0  0  0  0  0  0  0  0  0  0
  -28.3440  -26.5010   20.1330 O   0  0  0  0  0  0  0  0  0  0  0  0
  -24.6360  -31.8830   23.2240 C   0  0  0  0  0  0  0  0  0  0  0  0
  -27.2560  -27.3710   20.1430 C   0  0  0  0  0  0  0  0  0  0  0  0
  -23.4290  -30.4780   21.5890 C   0  0  0  0  0  3  0  0  0  0  0  0
  -24.8810  -28.9390   20.1530 C   0  0  0  0  0  0  0  0  0  0  0  0
  -25.9630  -30.8180   21.3890 C   0  0  0  0  0  2  0  0  0  0  0  0
  -26.0480  -29.4410   20.7460 C   0  0  0  0  0  0  0  0  0  0  0  0
  -27.2440  -28.6660   20.7380 C   0  0  0  0  0  3  0  0  0  0  0  0
  -26.0740  -26.9090   19.5330 C   0  0  0  0  0  3  0  0  0  0  0  0
  -24.8950  -27.6770   19.5350 C   0  0  0  0  0  3  0  0  0  0  0  0
  -23.6380  -29.8030   20.2080 C   0  0  0  0  0  2  0  0  0  0  0  0
  -24.6950  -31.0750   22.1250 N   0  0  0  0  0  0  0  0  0  0  0  0
  -23.5550  -32.1540   23.7660 O   0  0  0  0  0  0  0  0  0  0  0  0
  -22.7780  -29.4580   22.5530 C   0  0  0  0  0  0  0  0  0  0  0  0
  -21.4520  -29.2790   22.4360 N   0  0  0  0  0  0  0  0  0  0  0  0
  -23.4650  -28.8320   23.3630 O   0  0  0  0  0  0  0  0  0  0  0  0
  -20.9580  -29.8350   21.7520 H   0  0  0  0  0  0  0  0  0  0  0  0
  -18.0780  -28.0790   22.9520 C   0  0  0  0  0  0  0  0  0  0  0  0
  -20.6370  -28.3410   23.2100 C   0  0  0  0  0  3  0  0  0  0  0  0
  -20.7380  -26.9090   22.6360 C   0  0  0  0  0  2  0  0  0  0  0  0
  -19.6310  -26.5850   21.6290 C   0  0  0  0  0  2  0  0  0  0  0  0
  -18.2520  -26.7290   22.2780 C   0  0  0  0  0  2  0  0  0  0  0  0
  -19.1970  -28.8440   23.3760 C   0  0  0  0  0  0  0  0  0  0  0  0
  -18.9780  -30.1080   23.9660 C   0  0  0  0  0  3  0  0  0  0  0  0
  -17.6730  -30.6060   24.1380 C   0  0  0  0  0  3  0  0  0  0  0  0
  -16.5680  -29.8390   23.7300 C   0  0  0  0  0  3  0  0  0  0  0  0
  -16.7720  -28.5770   23.1420 C   0  0  0  0  0  3  0  0  0  0  0  0
  -25.9220  -32.5190   23.8370 C   0  0  0  0  0  3  0  0  0  0  0  0
  -26.4550  -31.7420   25.1030 C   0  0  1  0  0  0  0  0  0  0  0  0
  -25.3760  -31.4930   26.1810 C   0  0  0  0  0  1  0  0  0  0  0  0
  -27.0410  -30.3700   24.6960 C   0  0  0  0  0  1  0  0  0  0  0  0
  -27.6100  -32.5370   25.7570 C   0  0  0  0  0  1  0  0  0  0  0  0
  -25.6090  -33.9130   24.1780 N   0  0  0  0  0  0  0  0  0  0  0  0
  -25.9260  -34.9710   23.4200 C   0  0  0  0  0  0  0  0  0  0  0  0
  -26.5830  -34.8770   22.3790 O   0  0  0  0  0  0  0  0  0  0  0  0
  -25.0300  -34.0620   24.9910 H   0  0  0  0  0  0  0  0  0  0  0  0
  -24.1820  -36.7530   23.0980 C   0  0  0  0  0  1  0  0  0  0  0  0
  -25.4360  -36.3540   23.8900 C   0  0  0  0  0  3  0  0  0  0  0  0
  -27.5770  -37.2470   24.6950 C   0  0  0  0  0  1  0  0  0  0  0  0
  -26.4600  -37.4140   23.7690 N   0  0  0  0  0  0  0  0  0  0  0  0
  -26.0510  -38.3300   23.9270 H   0  0  0  0  0  0  0  0  0  0  0  0
  1  2  1  0
  1 50  1  0
  2  4  1  0
  3  1  2  0
  6  7  2  0
  7  2  1  0
  7  5  1  0
  8 10  1  0
  8  5  2  0
  9  6  1  0
  9  8  1  0
 11 19  1  0
 12 17  1  0
 13 14  1  0
 13 12  1  0
 15 14  1  0
 15 24  1  0
 15 16  1  0
 17 11  1  0
 17 16  1  0
 18 11  2  0
 19 20  1  0
 19 10  1  0
 21 22  2  0
 22 41  1  0
 23 22  1  0
 23 26  1  0
 24 21  1  0
 24 25  1  0
 25 23  2  0
 26 27  1  0
 27 28  2  0
 29 32  1  0
 29 28  1  0
 30 29  2  0
 31 30  1  0
 31 26  2  0
 32 33  1  0
 33 34  1  0
 34 35  2  0
 36 35  1  0
 36 40  1  0
 37 36  2  0
 38 33  2  0
 38 37  1  0
 39 38  1  0
 41 42  1  0
 42 45  1  0
 42 44  1  0
 43 41  2  0
 46 47  1  0
 46 21  1  0
 48 46  1  0
 49 50  2  0
 50 51  1  0
 51 52  1  0
 53 55  1  0
 53 49  1  0
 54 65  2  0
 55 60  1  0
 56 64  1  0
 56 66  1  0
 57 63  1  0
 57 59  1  0
 58 64  1  0
 59 58  1  0
 60 59  2  0
 61 62  1  0
 61 55  2  0
 62 57  2  0
 63 56  1  0
 64 54  1  0
 66 68  2  0
 67 66  1  0
 69 67  1  0
 70 79  2  0
 70 75  1  0
 71 67  1  0
 71 75  1  0
 72 71  1  0
 73 74  1  0
 73 72  1  0
 74 70  1  0
 75 76  2  0
 76 77  1  0
 78 77  2  0
 79 78  1  0
 80 54  1  0
 80 85  1  0
 80 81  1  0
 81 84  1  1
 81 82  1  0
 83 81  1  0
 85 88  1  0
 86 90  1  0
 86 85  1  0
 87 86  2  0
 90 89  1  0
 92 90  1  0
 92 93  1  0
 92 91  1  0
M  ISO  4  11 100  19 100  49 101  53 101
M  END
>  <TORSDO>  (39) 
F 20

>  <SCORE>  (39) 
-14.092

>  <name>  (39) 
38

>  <ligand_id>  (39) 
38

>  <original_smiles>  (39) 
[H]OC(C(=O)N([H])c1c([H])sc(C([H])([H])N([H])C(=O)N2C([H])([H])C([H])([H])C([H])([H])C([H])(n3nc(-c4c([H])c([H])c(Oc5c([H])c([H])c(F)c([H])c5F)c([H])c4[H])c(C(=O)N([H])[H])c3N([H])[H])C2([H])[H])c1[H])=C([H])Oc1c([H])c([H])c2c(c1[H])C([H])([H])N(C(=O)C([H])(N([H])C(=O)C([H])(N([H])C([H])([H])[H])C([H])([H])[H])C(C([H])([H])[H])(C([H])([H])[H])C([H])([H])[H])C([H])(C(=O)N([H])C1([H])c3c([H])c([H])c([H])c([H])c3C([H])([H])C([H])([H])C1([H])[H])C2([H])[H]

>  <smiles>  (39) 
[H]OC(C(=O)N([H])c1c([H])sc(C([H])([H])N([H])C(=O)N2C([H])([H])C([H])([H])C([H])([H])C([H])(n3nc(-c4c([H])c([H])c(Oc5c([H])c([H])c(F)c([H])c5F)c([H])c4[H])c(C(=O)N([H])[H])c3N([H])[H])C2([H])[H])c1[H])=C([H])Oc1c([H])c([H])c2c(c1[H])C([H])([H])N(C(=O)C([H])(N([H])C(=O)C([H])(N([H])C([H])([H])[H])C([H])([H])[H])C(C([H])([H])[H])(C([H])([H])[H])C([H])([H])[H])C([H])(C(=O)N([H])C1([H])c3c([H])c([H])c([H])c([H])c3C([H])([H])C([H])([H])C1([H])[H])C2([H])[H]

$$$$
39:0:0
     RDKit          3D

 95103  0  0  1  0  0  0  0  0999 V2000
  -29.9860  -20.0280   19.0540 C   0  0  0  0  0  3  0  0  0  0  0  0
  -31.3370  -19.4990   20.8770 C   0  0  0  0  0  0  0  0  0  0  0  0
  -30.6720  -20.5460   20.1210 C   0  0  0  0  0  0  0  0  0  0  0  0
  -31.1960  -18.2270   20.3320 C   0  0  0  0  0  0  0  0  0  0  0  0
  -30.1570  -18.2920   18.9310 S   0  0  0  0  0  0  0  0  0  0  0  0
  -32.1380  -19.7120   22.0810 C   0  0  0  0  0  0  0  0  0  0  0  0
  -33.3640  -19.5940   22.1520 O   0  0  0  0  0  0  0  0  0  0  0  0
  -30.5530  -18.7700   23.8380 C   0  0  0  0  0  1  0  0  0  0  0  0
  -31.3380  -20.0040   23.3480 C   0  0  0  0  0  2  0  0  0  0  0  0
  -30.7390  -21.9380   20.4350 N   0  0  0  0  0  0  0  0  0  0  0  0
  -31.2150  -22.2490   21.2800 H   0  0  0  0  0  0  0  0  0  0  0  0
  -30.4380  -23.0300   19.4860 C   0  0  0  0  0  2  0  0  0  0  0  0
  -30.1050  -24.3960   20.1430 C   0  0  0  0  0  0  0  0  0  0  0  0
  -30.5770  -24.6880   21.2480 O   0  0  0  0  0  0  0  0  0  0  0  0
  -29.1320  -25.3410   19.3920 C   0  0  0  0  0  2  0  0  0  0  0  0
  -28.9510  -26.6280   20.0450 O   0  0  0  0  0  0  0  0  0  0  0  0
  -24.6580  -31.4210   23.1440 C   0  0  0  0  0  0  0  0  0  0  0  0
  -27.7240  -27.2820   19.9810 C   0  0  0  0  0  0  0  0  0  0  0  0
  -23.6140  -30.0130   21.4030 C   0  0  0  0  0  3  0  0  0  0  0  0
  -25.2250  -28.6460   19.9690 C   0  0  0  0  0  0  0  0  0  0  0  0
  -26.1200  -30.5440   21.3210 C   0  0  0  0  0  2  0  0  0  0  0  0
  -26.3250  -29.2110   20.6250 C   0  0  0  0  0  0  0  0  0  0  0  0
  -27.5710  -28.5340   20.6320 C   0  0  0  0  0  3  0  0  0  0  0  0
  -26.5940  -26.7480   19.3080 C   0  0  0  0  0  3  0  0  0  0  0  0
  -25.3570  -27.4170   19.3100 C   0  0  0  0  0  3  0  0  0  0  0  0
  -23.9220  -29.4140   20.0060 C   0  0  0  0  0  2  0  0  0  0  0  0
  -24.8140  -30.6730   22.0140 N   0  0  0  0  0  0  0  0  0  0  0  0
  -23.5400  -31.5940   23.6490 O   0  0  0  0  0  0  0  0  0  0  0  0
  -23.0060  -28.9020   22.2920 C   0  0  0  0  0  0  0  0  0  0  0  0
  -21.7140  -28.6050   22.0780 N   0  0  0  0  0  0  0  0  0  0  0  0
  -23.6950  -28.3140   23.1290 O   0  0  0  0  0  0  0  0  0  0  0  0
  -21.2150  -29.1320   21.3740 H   0  0  0  0  0  0  0  0  0  0  0  0
  -18.4560  -27.0550   22.3000 C   0  0  0  0  0  0  0  0  0  0  0  0
  -20.9440  -27.5740   22.7720 C   0  0  0  0  0  3  0  0  0  0  0  0
  -21.2390  -26.1710   22.1910 C   0  0  0  0  0  2  0  0  0  0  0  0
  -20.2600  -25.7550   21.0890 C   0  0  0  0  0  2  0  0  0  0  0  0
  -18.8250  -25.7430   21.6250 C   0  0  0  0  0  2  0  0  0  0  0  0
  -19.4510  -27.9220   22.8220 C   0  0  0  0  0  0  0  0  0  0  0  0
  -19.0560  -29.1460   23.4040 C   0  0  0  0  0  3  0  0  0  0  0  0
  -17.6970  -29.5090   23.4690 C   0  0  0  0  0  3  0  0  0  0  0  0
  -16.7130  -28.6390   22.9630 C   0  0  0  0  0  3  0  0  0  0  0  0
  -17.0930  -27.4130   22.3860 C   0  0  0  0  0  3  0  0  0  0  0  0
  -25.8700  -32.1150   23.8370 C   0  0  0  0  0  3  0  0  0  0  0  0
  -25.4710  -33.4950   24.1400 N   0  0  0  0  0  0  0  0  0  0  0  0
  -25.7830  -34.5590   23.3890 C   0  0  0  0  0  0  0  0  0  0  0  0
  -26.5060  -34.4870   22.3920 O   0  0  0  0  0  0  0  0  0  0  0  0
  -24.8250  -33.6170   24.9050 H   0  0  0  0  0  0  0  0  0  0  0  0
  -23.9770  -36.2520   22.9440 C   0  0  0  0  0  1  0  0  0  0  0  0
  -25.2020  -35.9220   23.8110 C   0  0  0  0  0  3  0  0  0  0  0  0
  -27.2470  -36.9270   24.7250 C   0  0  0  0  0  1  0  0  0  0  0  0
  -26.1780  -37.0310   23.7330 N   0  0  0  0  0  0  0  0  0  0  0  0
  -25.7170  -37.9280   23.8610 H   0  0  0  0  0  0  0  0  0  0  0  0
  -26.3510  -31.3740   25.1440 C   0  0  1  0  0  0  0  0  0  0  0  0
  -25.2110  -31.0840   26.1500 C   0  0  0  0  0  1  0  0  0  0  0  0
  -27.0250  -30.0250   24.7960 C   0  0  0  0  0  1  0  0  0  0  0  0
  -27.4250  -32.2240   25.8620 C   0  0  0  0  0  1  0  0  0  0  0  0
  -31.8820  -16.9270   20.7540 C   0  0  0  0  0  2  0  0  0  0  0  0
  -31.8310  -14.5390   19.9110 C   0  0  0  0  0  0  0  0  0  0  0  0
  -31.3630  -12.2860   18.9960 C   0  0  0  0  0  2  0  0  0  0  0  0
  -30.3750  -12.4010   17.8160 C   0  0  0  0  0  2  0  0  0  0  0  0
  -28.9190  -12.4000   18.3200 C   0  0  0  0  0  2  0  0  0  0  0  0
  -28.6880  -13.3940   19.4880 C   0  0  0  0  0  3  0  0  0  0  0  0
  -29.7760  -13.2300   20.5710 C   0  0  0  0  0  2  0  0  0  0  0  0
  -31.0820  -13.4000   19.9160 N   0  0  0  0  0  0  0  0  0  0  0  0
  -32.9520  -14.5910   19.4000 O   0  0  0  0  0  0  0  0  0  0  0  0
  -31.2340  -15.6430   20.4110 N   0  0  0  0  0  0  0  0  0  0  0  0
  -30.2930  -15.5120   20.7490 H   0  0  0  0  0  0  0  0  0  0  0  0
  -26.4440  -14.2580   20.4070 C   0  0  0  0  0  0  0  0  0  0  0  0
  -25.3050  -13.6090   20.7960 C   0  0  0  0  0  0  0  0  0  0  0  0
  -25.5730  -12.2150   20.6380 C   0  0  0  0  0  0  0  0  0  0  0  0
  -27.3420  -13.2660   20.0400 N   0  0  0  0  0  0  0  0  0  0  0  0
  -26.8230  -12.0280   20.2360 N   0  0  0  0  0  0  0  0  0  0  0  0
  -24.6920  -11.0500   20.7890 C   0  0  0  0  0  0  0  0  0  0  0  0
  -25.0280   -9.9760   21.6450 C   0  0  0  0  0  3  0  0  0  0  0  0
  -24.1570   -8.8750   21.7850 C   0  0  0  0  0  3  0  0  0  0  0  0
  -22.9340   -8.8410   21.0750 C   0  0  0  0  0  0  0  0  0  0  0  0
  -22.6160   -9.9000   20.2070 C   0  0  0  0  0  3  0  0  0  0  0  0
  -23.4860  -10.9930   20.0640 C   0  0  0  0  0  3  0  0  0  0  0  0
  -22.0400   -7.8000   21.1330 O   0  0  0  0  0  0  0  0  0  0  0  0
  -21.8840   -7.0470   22.2670 C   0  0  0  0  0  0  0  0  0  0  0  0
  -21.5120   -7.6270   23.5000 C   0  0  0  0  0  3  0  0  0  0  0  0
  -21.2940   -6.8070   24.6260 C   0  0  0  0  0  3  0  0  0  0  0  0
  -21.4350   -5.4100   24.5200 C   0  0  0  0  0  0  0  0  0  0  0  0
  -21.7990   -4.8320   23.2910 C   0  0  0  0  0  3  0  0  0  0  0  0
  -22.0180   -5.6490   22.1680 C   0  0  0  0  0  0  0  0  0  0  0  0
  -22.3480   -5.0840   20.9820 F   0  0  0  0  0  0  0  0  0  0  0  0
  -21.2190   -4.6190   25.5990 F   0  0  0  0  0  0  0  0  0  0  0  0
  -24.0070  -14.2450   21.2030 C   0  0  0  0  0  0  0  0  0  0  0  0
  -23.2590  -13.6020   22.0900 N   0  0  0  0  0  0  0  0  0  0  0  0
  -23.6720  -15.3450   20.7650 O   0  0  0  0  0  0  0  0  0  0  0  0
  -23.5460  -12.7080   22.4630 H   0  0  0  0  0  0  0  0  0  0  0  0
  -22.3900  -14.0080   22.4050 H   0  0  0  0  0  0  0  0  0  0  0  0
  -26.7890  -15.6040   20.3140 N   0  0  0  0  0  0  0  0  0  0  0  0
  -26.1290  -16.3460   20.5150 H   0  0  0  0  0  0  0  0  0  0  0  0
  -27.6650  -15.9460   19.9400 H   0  0  0  0  0  0  0  0  0  0  0  0
  1  3  2  0
  2  6  1  0
  3 10  1  0
  3  2  1  0
  4 57  1  0
  4  2  2  0
  5  1  1  0
  5  4  1  0
  6  7  2  0
  6  9  1  0
  9  8  1  0
 10 11  1  0
 12 13  1  0
 12 10  1  0
 13 14  2  0
 15 16  1  0
 15 13  1  0
 17 28  2  0
 18 16  1  0
 18 23  1  0
 19 27  1  0
 19 29  1  0
 20 26  1  0
 20 22  1  0
 21 27  1  0
 22 23  2  0
 22 21  1  0
 24 25  1  0
 24 18  2  0
 25 20  2  0
 26 19  1  0
 27 17  1  0
 29 31  2  0
 30 29  1  0
 32 30  1  0
 33 42  2  0
 33 38  1  0
 34 30  1  0
 34 38  1  0
 35 34  1  0
 36 37  1  0
 36 35  1  0
 37 33  1  0
 38 39  2  0
 39 40  1  0
 41 40  2  0
 42 41  1  0
 43 17  1  0
 43 44  1  0
 43 53  1  0
 44 47  1  0
 45 49  1  0
 45 44  1  0
 46 45  2  0
 49 48  1  0
 51 49  1  0
 51 52  1  0
 51 50  1  0
 53 56  1  1
 53 54  1  0
 55 53  1  0
 58 64  1  0
 58 66  1  0
 59 64  1  0
 60 61  1  0
 60 59  1  0
 62 61  1  0
 62 71  1  0
 62 63  1  0
 64 63  1  0
 65 58  2  0
 66 67  1  0
 66 57  1  0
 68 69  2  0
 69 88  1  0
 70 73  1  0
 70 69  1  0
 71 72  1  0
 71 68  1  0
 72 70  2  0
 73 74  1  0
 74 75  2  0
 76 79  1  0
 76 75  1  0
 77 76  2  0
 78 77  1  0
 78 73  2  0
 79 80  1  0
 80 81  1  0
 81 82  2  0
 83 82  1  0
 83 87  1  0
 84 83  2  0
 85 80  2  0
 85 84  1  0
 86 85  1  0
 88 89  1  0
 89 92  1  0
 89 91  1  0
 90 88  2  0
 93 68  1  0
 93 94  1  0
 95 93  1  0
M  ISO  4  15 101  16 101  58 100  66 100
M  END
>  <TORSDO>  (40) 
F 23

>  <SCORE>  (40) 
-10.585

>  <name>  (40) 
39

>  <ligand_id>  (40) 
39

>  <original_smiles>  (40) 
[H]c1sc(C([H])([H])N([H])C(=O)N2C([H])([H])C([H])([H])C([H])([H])C([H])(n3nc(-c4c([H])c([H])c(Oc5c([H])c([H])c(F)c([H])c5F)c([H])c4[H])c(C(=O)N([H])[H])c3N([H])[H])C2([H])[H])c(C(=O)C([H])([H])C([H])([H])[H])c1N([H])C([H])([H])C(=O)C([H])([H])Oc1c([H])c([H])c2c(c1[H])C([H])([H])N(C(=O)C([H])(N([H])C(=O)C([H])(N([H])C([H])([H])[H])C([H])([H])[H])C(C([H])([H])[H])(C([H])([H])[H])C([H])([H])[H])C([H])(C(=O)N([H])C1([H])c3c([H])c([H])c([H])c([H])c3C([H])([H])C([H])([H])C1([H])[H])C2([H])[H]

>  <smiles>  (40) 
[H]c1sc(C([H])([H])N([H])C(=O)N2C([H])([H])C([H])([H])C([H])([H])C([H])(n3nc(-c4c([H])c([H])c(Oc5c([H])c([H])c(F)c([H])c5F)c([H])c4[H])c(C(=O)N([H])[H])c3N([H])[H])C2([H])[H])c(C(=O)C([H])([H])C([H])([H])[H])c1N([H])C([H])([H])C(=O)C([H])([H])Oc1c([H])c([H])c2c(c1[H])C([H])([H])N(C(=O)C([H])(N([H])C(=O)C([H])(N([H])C([H])([H])[H])C([H])([H])[H])C(C([H])([H])[H])(C([H])([H])[H])C([H])([H])[H])C([H])(C(=O)N([H])C1([H])c3c([H])c([H])c([H])c([H])c3C([H])([H])C([H])([H])C1([H])[H])C2([H])[H]

$$$$
40:0:0
     RDKit          3D

 91 99  0  0  1  0  0  0  0  0999 V2000
  -30.5830  -15.0770   20.3720 C   0  0  0  0  0  0  0  0  0  0  0  0
  -30.6160  -12.6080   19.6590 C   0  0  0  0  0  2  0  0  0  0  0  0
  -29.7380  -12.4050   18.3950 C   0  0  0  0  0  2  0  0  0  0  0  0
  -28.2550  -12.2140   18.7710 C   0  0  0  0  0  2  0  0  0  0  0  0
  -27.7910  -13.2620   19.8120 C   0  0  0  0  0  3  0  0  0  0  0  0
  -28.7750  -13.3560   20.9940 C   0  0  0  0  0  2  0  0  0  0  0  0
  -30.0700  -13.7700   20.4340 N   0  0  0  0  0  0  0  0  0  0  0  0
  -31.7790  -15.1710   20.0600 O   0  0  0  0  0  0  0  0  0  0  0  0
  -27.9950  -18.1090   20.4330 C   0  0  0  0  0  3  0  0  0  0  0  0
  -29.3720  -17.7180   20.3310 C   0  0  0  0  0  0  0  0  0  0  0  0
  -27.8780  -19.4840   20.2930 C   0  0  0  0  0  0  0  0  0  0  0  0
  -30.0310  -18.9550   20.1120 N   0  0  0  0  0  0  0  0  0  0  0  0
  -29.1130  -20.0990   20.0650 N   0  0  0  0  0  0  0  0  0  0  0  0
  -29.6750  -16.1880   20.5660 N   0  0  0  0  0  0  0  0  0  0  0  0
  -28.8420  -15.7520   20.9220 H   0  0  0  0  0  0  0  0  0  0  0  0
  -25.4120  -13.9680   20.4340 C   0  0  0  0  0  0  0  0  0  0  0  0
  -24.3030  -13.2500   20.7860 C   0  0  0  0  0  0  0  0  0  0  0  0
  -24.7080  -11.8790   20.8040 C   0  0  0  0  0  0  0  0  0  0  0  0
  -26.4210  -13.0370   20.2540 N   0  0  0  0  0  0  0  0  0  0  0  0
  -26.0040  -11.7760   20.5410 N   0  0  0  0  0  0  0  0  0  0  0  0
  -23.9200  -10.6540   20.9960 C   0  0  0  0  0  0  0  0  0  0  0  0
  -24.3160   -9.6560   21.9140 C   0  0  0  0  0  3  0  0  0  0  0  0
  -23.5310   -8.4990   22.0960 C   0  0  0  0  0  3  0  0  0  0  0  0
  -22.3350   -8.3300   21.3590 C   0  0  0  0  0  0  0  0  0  0  0  0
  -21.9590   -9.3140   20.4270 C   0  0  0  0  0  3  0  0  0  0  0  0
  -22.7450  -10.4630   20.2430 C   0  0  0  0  0  3  0  0  0  0  0  0
  -21.5240   -7.2250   21.4510 O   0  0  0  0  0  0  0  0  0  0  0  0
  -21.5120   -6.4320   22.5690 C   0  0  0  0  0  0  0  0  0  0  0  0
  -21.2310   -6.9560   23.8500 C   0  0  0  0  0  3  0  0  0  0  0  0
  -21.1590   -6.0940   24.9640 C   0  0  0  0  0  3  0  0  0  0  0  0
  -21.3580   -4.7110   24.7970 C   0  0  0  0  0  0  0  0  0  0  0  0
  -21.6330   -4.1870   23.5220 C   0  0  0  0  0  3  0  0  0  0  0  0
  -21.7060   -5.0460   22.4120 C   0  0  0  0  0  0  0  0  0  0  0  0
  -21.9500   -4.5340   21.1810 F   0  0  0  0  0  0  0  0  0  0  0  0
  -21.2820   -3.8820   25.8640 F   0  0  0  0  0  0  0  0  0  0  0  0
  -22.9200  -13.7940   20.9950 C   0  0  0  0  0  0  0  0  0  0  0  0
  -22.1380  -13.1620   21.8650 N   0  0  0  0  0  0  0  0  0  0  0  0
  -22.5450  -14.8150   20.4220 O   0  0  0  0  0  0  0  0  0  0  0  0
  -22.4580  -12.3350   22.3470 H   0  0  0  0  0  0  0  0  0  0  0  0
  -21.2090  -13.5110   22.0480 H   0  0  0  0  0  0  0  0  0  0  0  0
  -25.6430  -15.3240   20.2210 N   0  0  0  0  0  0  0  0  0  0  0  0
  -24.8890  -16.0010   20.2470 H   0  0  0  0  0  0  0  0  0  0  0  0
  -26.4890  -15.6910   19.8090 H   0  0  0  0  0  0  0  0  0  0  0  0
  -26.7240  -20.2540   20.4040 N   0  0  0  0  0  0  0  0  0  0  0  0
  -25.7960  -19.8790   20.5700 H   0  0  0  0  0  0  0  0  0  0  0  0
  -26.7140  -21.2650   20.3120 H   0  0  0  0  0  0  0  0  0  0  0  0
  -29.4340  -21.6990   20.0620 C   0  0  0  0  0  2  0  0  0  0  0  0
  -28.5970  -23.0680   19.4810 C   0  0  0  0  0  0  0  0  0  0  0  0
  -27.9400  -22.9110   18.4450 O   0  0  0  0  0  0  0  0  0  0  0  0
  -28.5090  -24.6170   20.1810 C   0  0  0  0  0  2  0  0  0  0  0  0
  -28.3900  -26.0340   19.4480 O   0  0  0  0  0  0  0  0  0  0  0  0
  -24.6970  -31.5500   22.8620 C   0  0  0  0  0  0  0  0  0  0  0  0
  -27.3100  -27.0100   19.5610 C   0  0  0  0  0  0  0  0  0  0  0  0
  -23.5000  -30.2280   21.1620 C   0  0  0  0  0  3  0  0  0  0  0  0
  -24.9600  -28.7540   19.6280 C   0  0  0  0  0  0  0  0  0  0  0  0
  -26.0430  -30.5490   20.9680 C   0  0  0  0  0  2  0  0  0  0  0  0
  -26.1400  -29.1840   20.2460 C   0  0  0  0  0  0  0  0  0  0  0  0
  -27.3180  -28.3330   20.1890 C   0  0  0  0  0  3  0  0  0  0  0  0
  -26.1000  -26.7020   18.9060 C   0  0  0  0  0  3  0  0  0  0  0  0
  -24.9540  -27.5320   18.9410 C   0  0  0  0  0  3  0  0  0  0  0  0
  -23.7180  -29.6330   19.7410 C   0  0  0  0  0  2  0  0  0  0  0  0
  -24.7670  -30.7970   21.7210 N   0  0  0  0  0  0  0  0  0  0  0  0
  -23.6150  -31.7730   23.4280 O   0  0  0  0  0  0  0  0  0  0  0  0
  -22.8600  -29.1510   22.0760 C   0  0  0  0  0  0  0  0  0  0  0  0
  -21.5250  -28.9950   22.0090 N   0  0  0  0  0  0  0  0  0  0  0  0
  -23.5670  -28.4590   22.8120 O   0  0  0  0  0  0  0  0  0  0  0  0
  -21.0070  -29.6090   21.3980 H   0  0  0  0  0  0  0  0  0  0  0  0
  -18.1670  -27.7700   22.6040 C   0  0  0  0  0  0  0  0  0  0  0  0
  -20.7400  -28.0000   22.7440 C   0  0  0  0  0  3  0  0  0  0  0  0
  -20.7940  -26.6210   22.0430 C   0  0  0  0  0  2  0  0  0  0  0  0
  -19.6330  -26.3910   21.0720 C   0  0  0  0  0  2  0  0  0  0  0  0
  -18.2920  -26.4850   21.8050 C   0  0  0  0  0  2  0  0  0  0  0  0
  -19.3140  -28.4890   23.0330 C   0  0  0  0  0  0  0  0  0  0  0  0
  -19.1410  -29.6930   23.7460 C   0  0  0  0  0  3  0  0  0  0  0  0
  -17.8520  -30.1800   24.0370 C   0  0  0  0  0  3  0  0  0  0  0  0
  -16.7170  -29.4590   23.6210 C   0  0  0  0  0  3  0  0  0  0  0  0
  -16.8780  -28.2560   22.9110 C   0  0  0  0  0  3  0  0  0  0  0  0
  -25.9690  -32.1800   23.5050 C   0  0  0  0  0  3  0  0  0  0  0  0
  -26.5440  -31.3340   24.7030 C   0  0  1  0  0  0  0  0  0  0  0  0
  -25.4910  -30.9900   25.7840 C   0  0  0  0  0  1  0  0  0  0  0  0
  -27.1430  -30.0030   24.1930 C   0  0  0  0  0  1  0  0  0  0  0  0
  -27.6950  -32.1050   25.3890 C   0  0  0  0  0  1  0  0  0  0  0  0
  -25.6190  -33.5370   23.9630 N   0  0  0  0  0  0  0  0  0  0  0  0
  -25.9070  -34.6650   23.3020 C   0  0  0  0  0  0  0  0  0  0  0  0
  -26.5600  -34.6770   22.2550 O   0  0  0  0  0  0  0  0  0  0  0  0
  -25.0400  -33.5990   24.7890 H   0  0  0  0  0  0  0  0  0  0  0  0
  -24.1160  -36.4280   23.1520 C   0  0  0  0  0  1  0  0  0  0  0  0
  -25.3910  -35.9970   23.8930 C   0  0  0  0  0  3  0  0  0  0  0  0
  -27.5210  -36.8740   24.7470 C   0  0  0  0  0  1  0  0  0  0  0  0
  -26.3890  -37.0870   23.8490 N   0  0  0  0  0  0  0  0  0  0  0  0
  -25.9590  -37.9760   24.0870 H   0  0  0  0  0  0  0  0  0  0  0  0
  1  7  1  0
  1 14  1  0
  2  7  1  0
  3  4  1  0
  3  2  1  0
  5  4  1  0
  5 19  1  0
  5  6  1  0
  7  6  1  0
  8  1  2  0
 10  9  1  0
 10 14  1  0
 11 44  1  0
 11  9  2  0
 12 10  2  0
 13 12  1  0
 13 11  1  0
 14 15  1  0
 16 17  2  0
 17 18  1  0
 17 36  1  0
 18 21  1  0
 19 16  1  0
 19 20  1  0
 20 18  2  0
 21 22  1  0
 22 23  2  0
 24 27  1  0
 24 23  1  0
 25 24  2  0
 26 25  1  0
 26 21  2  0
 27 28  1  0
 28 29  1  0
 29 30  2  0
 31 30  1  0
 31 35  1  0
 32 31  2  0
 33 28  2  0
 33 32  1  0
 34 33  1  0
 36 37  1  0
 37 40  1  0
 37 39  1  0
 38 36  2  0
 41 42  1  0
 41 16  1  0
 43 41  1  0
 44 45  1  0
 46 44  1  0
 47 13  1  0
 48 47  1  0
 48 50  1  0
 49 48  2  0
 51 53  1  0
 51 50  1  0
 52 63  2  0
 53 58  1  0
 54 62  1  0
 54 64  1  0
 55 61  1  0
 55 57  1  0
 56 62  1  0
 57 56  1  0
 58 57  2  0
 59 60  1  0
 59 53  2  0
 60 55  2  0
 61 54  1  0
 62 52  1  0
 64 66  2  0
 65 64  1  0
 67 65  1  0
 68 77  2  0
 68 73  1  0
 69 65  1  0
 69 73  1  0
 70 69  1  0
 71 72  1  0
 71 70  1  0
 72 68  1  0
 73 74  2  0
 74 75  1  0
 76 75  2  0
 77 76  1  0
 78 52  1  0
 78 83  1  0
 78 79  1  0
 79 82  1  1
 79 80  1  0
 81 79  1  0
 83 86  1  0
 84 88  1  0
 84 83  1  0
 85 84  2  0
 88 87  1  0
 90 88  1  0
 90 91  1  0
 90 89  1  0
M  ISO  4   1 100  14 100  50 101  51 101
M  END
>  <TORSDO>  (41) 
F 19

>  <SCORE>  (41) 
-13.585

>  <name>  (41) 
40

>  <ligand_id>  (41) 
40

>  <original_smiles>  (41) 
[H]c1c([H])c([H])c2c(c1[H])C([H])([H])C([H])([H])C([H])([H])C2([H])N([H])C(=O)C1([H])N(C(=O)C([H])(N([H])C(=O)C([H])(N([H])C([H])([H])[H])C([H])([H])[H])C(C([H])([H])[H])(C([H])([H])[H])C([H])([H])[H])C([H])([H])c2c([H])c(OC([H])([H])C(=O)C([H])([H])n3nc(N([H])C(=O)N4C([H])([H])C([H])([H])C([H])([H])C([H])(n5nc(-c6c([H])c([H])c(Oc7c([H])c([H])c(F)c([H])c7F)c([H])c6[H])c(C(=O)N([H])[H])c5N([H])[H])C4([H])[H])c([H])c3N([H])[H])c([H])c([H])c2C1([H])[H]

>  <smiles>  (41) 
[H]c1c([H])c([H])c2c(c1[H])C([H])([H])C([H])([H])C([H])([H])C2([H])N([H])C(=O)C1([H])N(C(=O)C([H])(N([H])C(=O)C([H])(N([H])C([H])([H])[H])C([H])([H])[H])C(C([H])([H])[H])(C([H])([H])[H])C([H])([H])[H])C([H])([H])c2c([H])c(OC([H])([H])C(=O)C([H])([H])n3nc(N([H])C(=O)N4C([H])([H])C([H])([H])C([H])([H])C([H])(n5nc(-c6c([H])c([H])c(Oc7c([H])c([H])c(F)c([H])c7F)c([H])c6[H])c(C(=O)N([H])[H])c5N([H])[H])C4([H])[H])c([H])c3N([H])[H])c([H])c([H])c2C1([H])[H]

$$$$
41:0:0
     RDKit          3D

 92100  0  0  1  0  0  0  0  0999 V2000
  -29.8620  -18.5570   20.2370 C   0  0  0  0  0  0  0  0  0  0  0  0
  -30.1090  -19.2710   21.4010 C   0  0  0  0  0  0  0  0  0  0  0  0
  -29.1700  -21.0690   20.2310 C   0  0  0  0  0  0  0  0  0  0  0  0
  -28.9090  -23.7050   20.3680 C   0  0  0  0  0  0  0  0  0  0  0  0
  -30.8440  -18.7510   22.5980 C   0  0  0  0  0  1  0  0  0  0  0  0
  -29.7120  -20.6480   21.3890 N   0  0  0  0  0  0  0  0  0  0  0  0
  -28.6240  -22.4140   19.9530 N   0  0  0  0  0  0  0  0  0  0  0  0
  -29.8690  -23.9690   21.0980 O   0  0  0  0  0  0  0  0  0  0  0  0
  -29.0870  -19.6860   19.0880 S   0  0  0  0  0  0  0  0  0  0  0  0
  -27.8790  -22.3950   19.2720 H   0  0  0  0  0  0  0  0  0  0  0  0
  -30.7670  -14.7610   19.9440 C   0  0  0  0  0  0  0  0  0  0  0  0
  -30.4120  -12.5140   18.9360 C   0  0  0  0  0  2  0  0  0  0  0  0
  -29.4070  -12.6470   17.7700 C   0  0  0  0  0  2  0  0  0  0  0  0
  -27.9590  -12.5320   18.2840 C   0  0  0  0  0  2  0  0  0  0  0  0
  -27.6960  -13.3950   19.5490 C   0  0  0  0  0  3  0  0  0  0  0  0
  -28.8200  -13.2430   20.5980 C   0  0  0  0  0  2  0  0  0  0  0  0
  -30.0880  -13.5630   19.9340 N   0  0  0  0  0  0  0  0  0  0  0  0
  -31.9320  -14.7750   19.5310 O   0  0  0  0  0  0  0  0  0  0  0  0
  -30.3330  -17.1900   19.6750 C   0  0  0  0  0  0  0  0  0  0  0  0
  -30.0910  -15.9420   20.2410 N   0  0  0  0  0  0  0  0  0  0  0  0
  -30.9540  -17.2720   18.6100 O   0  0  0  0  0  0  0  0  0  0  0  0
  -29.3020  -15.8760   20.8610 H   0  0  0  0  0  0  0  0  0  0  0  0
  -25.3730  -14.0220   20.4420 C   0  0  0  0  0  0  0  0  0  0  0  0
  -24.3140  -13.2650   20.8590 C   0  0  0  0  0  0  0  0  0  0  0  0
  -24.7390  -11.9040   20.7660 C   0  0  0  0  0  0  0  0  0  0  0  0
  -26.3780  -13.1270   20.1180 N   0  0  0  0  0  0  0  0  0  0  0  0
  -26.0060  -11.8440   20.3750 N   0  0  0  0  0  0  0  0  0  0  0  0
  -23.9920  -10.6560   20.9730 C   0  0  0  0  0  0  0  0  0  0  0  0
  -24.4390   -9.6690   21.8800 C   0  0  0  0  0  3  0  0  0  0  0  0
  -23.6950   -8.4870   22.0750 C   0  0  0  0  0  3  0  0  0  0  0  0
  -22.4900   -8.2790   21.3630 C   0  0  0  0  0  0  0  0  0  0  0  0
  -22.0620   -9.2520   20.4440 C   0  0  0  0  0  3  0  0  0  0  0  0
  -22.8050  -10.4270   20.2480 C   0  0  0  0  0  3  0  0  0  0  0  0
  -21.7170   -7.1480   21.4690 O   0  0  0  0  0  0  0  0  0  0  0  0
  -21.6770   -6.4060   22.6230 C   0  0  0  0  0  0  0  0  0  0  0  0
  -21.2570   -6.9620   23.8500 C   0  0  0  0  0  3  0  0  0  0  0  0
  -21.1660   -6.1490   24.9960 C   0  0  0  0  0  3  0  0  0  0  0  0
  -21.4840   -4.7800   24.9160 C   0  0  0  0  0  0  0  0  0  0  0  0
  -21.8980   -4.2240   23.6940 C   0  0  0  0  0  3  0  0  0  0  0  0
  -21.9910   -5.0340   22.5500 C   0  0  0  0  0  0  0  0  0  0  0  0
  -22.3700   -4.4890   21.3690 F   0  0  0  0  0  0  0  0  0  0  0  0
  -21.3900   -3.9960   26.0170 F   0  0  0  0  0  0  0  0  0  0  0  0
  -22.9500  -13.7680   21.2330 C   0  0  0  0  0  0  0  0  0  0  0  0
  -22.2610  -13.0660   22.1260 N   0  0  0  0  0  0  0  0  0  0  0  0
  -22.5080  -14.8180   20.7700 O   0  0  0  0  0  0  0  0  0  0  0  0
  -22.6320  -12.2140   22.5220 H   0  0  0  0  0  0  0  0  0  0  0  0
  -21.3500  -13.3870   22.4240 H   0  0  0  0  0  0  0  0  0  0  0  0
  -25.5570  -15.3940   20.2890 N   0  0  0  0  0  0  0  0  0  0  0  0
  -24.8100  -16.0570   20.4670 H   0  0  0  0  0  0  0  0  0  0  0  0
  -26.3790  -15.8230   19.8830 H   0  0  0  0  0  0  0  0  0  0  0  0
  -27.9500  -24.8870   19.8750 C   0  0  0  0  0  2  0  0  0  0  0  0
  -28.2380  -26.3300   20.2140 O   0  0  0  0  0  0  0  0  0  0  0  0
  -24.5960  -31.8620   23.2010 C   0  0  0  0  0  0  0  0  0  0  0  0
  -27.1730  -27.2620   20.1200 C   0  0  0  0  0  0  0  0  0  0  0  0
  -23.3900  -30.4710   21.5620 C   0  0  0  0  0  3  0  0  0  0  0  0
  -24.8340  -28.9350   20.1170 C   0  0  0  0  0  0  0  0  0  0  0  0
  -25.9380  -30.7640   21.3920 C   0  0  0  0  0  2  0  0  0  0  0  0
  -26.0100  -29.3910   20.7290 C   0  0  0  0  0  0  0  0  0  0  0  0
  -27.1810  -28.5650   20.7240 C   0  0  0  0  0  3  0  0  0  0  0  0
  -25.9810  -26.9010   19.4440 C   0  0  0  0  0  3  0  0  0  0  0  0
  -24.8280  -27.7000   19.4620 C   0  0  0  0  0  3  0  0  0  0  0  0
  -23.5990  -29.8080   20.1780 C   0  0  0  0  0  2  0  0  0  0  0  0
  -24.6590  -31.0530   22.1040 N   0  0  0  0  0  0  0  0  0  0  0  0
  -23.5130  -32.1420   23.7340 O   0  0  0  0  0  0  0  0  0  0  0  0
  -22.7290  -29.4490   22.5190 C   0  0  0  0  0  0  0  0  0  0  0  0
  -21.4060  -29.2550   22.3740 N   0  0  0  0  0  0  0  0  0  0  0  0
  -23.4030  -28.8360   23.3510 O   0  0  0  0  0  0  0  0  0  0  0  0
  -20.9240  -29.7930   21.6660 H   0  0  0  0  0  0  0  0  0  0  0  0
  -18.0350  -28.0130   22.8210 C   0  0  0  0  0  0  0  0  0  0  0  0
  -20.5840  -28.3150   23.1390 C   0  0  0  0  0  3  0  0  0  0  0  0
  -20.7210  -26.8790   22.5810 C   0  0  0  0  0  2  0  0  0  0  0  0
  -19.6430  -26.5290   21.5500 C   0  0  0  0  0  2  0  0  0  0  0  0
  -18.2480  -26.6590   22.1650 C   0  0  0  0  0  2  0  0  0  0  0  0
  -19.1340  -28.7980   23.2630 C   0  0  0  0  0  0  0  0  0  0  0  0
  -18.8820  -30.0640   23.8340 C   0  0  0  0  0  3  0  0  0  0  0  0
  -17.5660  -30.5450   23.9710 C   0  0  0  0  0  3  0  0  0  0  0  0
  -16.4830  -29.7560   23.5480 C   0  0  0  0  0  3  0  0  0  0  0  0
  -16.7180  -28.4920   22.9780 C   0  0  0  0  0  3  0  0  0  0  0  0
  -25.8790  -32.4930   23.8220 C   0  0  0  0  0  3  0  0  0  0  0  0
  -25.5680  -33.8890   24.1590 N   0  0  0  0  0  0  0  0  0  0  0  0
  -25.8940  -34.9460   23.4040 C   0  0  0  0  0  0  0  0  0  0  0  0
  -26.5570  -34.8500   22.3680 O   0  0  0  0  0  0  0  0  0  0  0  0
  -24.9770  -34.0390   24.9640 H   0  0  0  0  0  0  0  0  0  0  0  0
  -24.1570  -36.7360   23.0760 C   0  0  0  0  0  1  0  0  0  0  0  0
  -25.4060  -36.3310   23.8740 C   0  0  0  0  0  3  0  0  0  0  0  0
  -27.5390  -37.2240   24.7020 C   0  0  0  0  0  1  0  0  0  0  0  0
  -26.4350  -37.3890   23.7590 N   0  0  0  0  0  0  0  0  0  0  0  0
  -26.0240  -38.3060   23.9100 H   0  0  0  0  0  0  0  0  0  0  0  0
  -26.3970  -31.7180   25.0970 C   0  0  1  0  0  0  0  0  0  0  0  0
  -25.3030  -31.4800   26.1640 C   0  0  0  0  0  1  0  0  0  0  0  0
  -26.9800  -30.3390   24.7070 C   0  0  0  0  0  1  0  0  0  0  0  0
  -27.5440  -32.5150   25.7620 C   0  0  0  0  0  1  0  0  0  0  0  0
  1  2  2  0
  2  5  1  0
  3  6  2  0
  4  8  2  0
  6  2  1  0
  7  3  1  0
  7  4  1  0
  9  3  1  0
  9  1  1  0
 10  7  1  0
 11 20  1  0
 12 17  1  0
 13 14  1  0
 13 12  1  0
 15 14  1  0
 15 26  1  0
 15 16  1  0
 17 11  1  0
 17 16  1  0
 18 11  2  0
 19  1  1  0
 19 20  1  0
 20 22  1  0
 21 19  2  0
 23 24  2  0
 24 43  1  0
 25 24  1  0
 25 28  1  0
 26 27  1  0
 26 23  1  0
 27 25  2  0
 28 29  1  0
 29 30  2  0
 31 34  1  0
 31 30  1  0
 32 31  2  0
 33 32  1  0
 33 28  2  0
 34 35  1  0
 35 36  1  0
 36 37  2  0
 38 37  1  0
 38 42  1  0
 39 38  2  0
 40 35  2  0
 40 39  1  0
 41 40  1  0
 43 44  1  0
 44 47  1  0
 44 46  1  0
 45 43  2  0
 48 23  1  0
 48 49  1  0
 50 48  1  0
 51 52  1  0
 51  4  1  0
 53 64  2  0
 54 52  1  0
 54 59  1  0
 55 63  1  0
 55 65  1  0
 56 62  1  0
 56 58  1  0
 57 63  1  0
 58 57  1  0
 59 58  2  0
 60 61  1  0
 60 54  2  0
 61 56  2  0
 62 55  1  0
 63 53  1  0
 65 67  2  0
 66 65  1  0
 68 66  1  0
 69 78  2  0
 69 74  1  0
 70 66  1  0
 70 74  1  0
 71 70  1  0
 72 73  1  0
 72 71  1  0
 73 69  1  0
 74 75  2  0
 75 76  1  0
 77 76  2  0
 78 77  1  0
 79 53  1  0
 79 80  1  0
 79 89  1  0
 80 83  1  0
 81 85  1  0
 81 80  1  0
 82 81  2  0
 85 84  1  0
 87 85  1  0
 87 88  1  0
 87 86  1  0
 89 92  1  1
 89 90  1  0
 91 89  1  0
M  ISO  4  11 100  20 100  51 101  52 101
M  END
>  <TORSDO>  (42) 
F 17

>  <SCORE>  (42) 
-14.654

>  <name>  (42) 
41

>  <ligand_id>  (42) 
41

>  <original_smiles>  (42) 
[H]c1c([H])c([H])c2c(c1[H])C([H])([H])C([H])([H])C([H])([H])C2([H])N([H])C(=O)C1([H])N(C(=O)C([H])(N([H])C(=O)C([H])(N([H])C([H])([H])[H])C([H])([H])[H])C(C([H])([H])[H])(C([H])([H])[H])C([H])([H])[H])C([H])([H])c2c([H])c(OC([H])([H])C(=O)N([H])c3nc(C([H])([H])[H])c(C(=O)N([H])C(=O)N4C([H])([H])C([H])([H])C([H])([H])C([H])(n5nc(-c6c([H])c([H])c(Oc7c([H])c([H])c(F)c([H])c7F)c([H])c6[H])c(C(=O)N([H])[H])c5N([H])[H])C4([H])[H])s3)c([H])c([H])c2C1([H])[H]

>  <smiles>  (42) 
[H]c1c([H])c([H])c2c(c1[H])C([H])([H])C([H])([H])C([H])([H])C2([H])N([H])C(=O)C1([H])N(C(=O)C([H])(N([H])C(=O)C([H])(N([H])C([H])([H])[H])C([H])([H])[H])C(C([H])([H])[H])(C([H])([H])[H])C([H])([H])[H])C([H])([H])c2c([H])c(OC([H])([H])C(=O)N([H])c3nc(C([H])([H])[H])c(C(=O)N([H])C(=O)N4C([H])([H])C([H])([H])C([H])([H])C([H])(n5nc(-c6c([H])c([H])c(Oc7c([H])c([H])c(F)c([H])c7F)c([H])c6[H])c(C(=O)N([H])[H])c5N([H])[H])C4([H])[H])s3)c([H])c([H])c2C1([H])[H]

$$$$
42:0:0
     RDKit          3D

100109  0  0  1  0  0  0  0  0999 V2000
  -28.9770  -23.0130   20.0680 C   0  0  0  0  0  2  0  0  0  0  0  0
  -29.8210  -23.8370   22.7270 C   0  0  0  0  0  2  0  0  0  0  0  0
  -29.6650  -21.9670   20.9970 C   0  0  0  0  0  3  0  0  0  0  0  0
  -29.4170  -22.3640   22.4830 C   0  0  0  0  0  3  0  0  0  0  0  0
  -29.3060  -24.4970   20.3980 C   0  0  0  0  0  3  0  0  0  0  0  0
  -30.1520  -21.4590   23.4920 C   0  0  0  0  0  1  0  0  0  0  0  0
  -29.0820  -24.7560   21.8390 N   0  0  0  0  0  4  0  0  0  0  0  0
  -29.3640  -25.7050   22.0400 H   0  0  0  0  0  0  0  0  0  0  0  0
  -28.0980  -24.6960   22.0540 H   0  0  0  0  0  0  0  0  0  0  0  0
  -29.1950  -20.5160   20.6850 C   0  0  0  0  0  0  0  0  0  0  0  0
  -27.9620  -20.3410   20.4500 N   0  0  0  0  0  0  0  0  0  0  0  0
  -27.7510  -19.3620   20.2750 H   0  0  0  0  0  0  0  0  0  0  0  0
  -31.5740  -19.5800   20.7030 C   0  0  0  0  0  3  0  0  0  0  0  0
  -32.0180  -17.1880   20.7710 C   0  0  0  0  0  3  0  0  0  0  0  0
  -30.1710  -19.3630   20.6840 C   0  0  0  0  0  0  0  0  0  0  0  0
  -30.6330  -16.9190   20.7120 C   0  0  0  0  0  0  0  0  0  0  0  0
  -32.4820  -18.5110   20.7520 C   0  0  0  0  0  0  0  0  0  0  0  0
  -29.7230  -18.0030   20.6900 C   0  0  0  0  0  0  0  0  0  0  0  0
  -33.8150  -18.7570   20.7830 F   0  0  0  0  0  0  0  0  0  0  0  0
  -28.4000  -17.7010   20.6680 F   0  0  0  0  0  0  0  0  0  0  0  0
  -30.7170  -14.5140   20.1320 C   0  0  0  0  0  0  0  0  0  0  0  0
  -30.3020  -12.3430   19.0570 C   0  0  0  0  0  2  0  0  0  0  0  0
  -29.3210  -12.5370   17.8840 C   0  0  0  0  0  2  0  0  0  0  0  0
  -27.8690  -12.4130   18.3790 C   0  0  0  0  0  2  0  0  0  0  0  0
  -27.5870  -13.2780   19.6380 C   0  0  0  0  0  3  0  0  0  0  0  0
  -28.6920  -13.1080   20.7070 C   0  0  0  0  0  2  0  0  0  0  0  0
  -29.9900  -13.3670   20.0650 N   0  0  0  0  0  0  0  0  0  0  0  0
  -31.8150  -14.6250   19.5840 O   0  0  0  0  0  0  0  0  0  0  0  0
  -30.1170  -15.5810   20.6890 N   0  0  0  0  0  0  0  0  0  0  0  0
  -29.1440  -15.4700   20.9320 H   0  0  0  0  0  0  0  0  0  0  0  0
  -25.2370  -13.8900   20.4860 C   0  0  0  0  0  0  0  0  0  0  0  0
  -24.1790  -13.1190   20.8880 C   0  0  0  0  0  0  0  0  0  0  0  0
  -24.6220  -11.7640   20.8020 C   0  0  0  0  0  0  0  0  0  0  0  0
  -26.2590  -13.0040   20.1820 N   0  0  0  0  0  0  0  0  0  0  0  0
  -25.8950  -11.7190   20.4290 N   0  0  0  0  0  0  0  0  0  0  0  0
  -23.8900  -10.5050   20.9950 C   0  0  0  0  0  0  0  0  0  0  0  0
  -24.3330   -9.5270   21.9140 C   0  0  0  0  0  3  0  0  0  0  0  0
  -23.6000   -8.3340   22.0950 C   0  0  0  0  0  3  0  0  0  0  0  0
  -22.4140   -8.1100   21.3570 C   0  0  0  0  0  0  0  0  0  0  0  0
  -21.9920   -9.0760   20.4260 C   0  0  0  0  0  3  0  0  0  0  0  0
  -22.7240  -10.2590   20.2420 C   0  0  0  0  0  3  0  0  0  0  0  0
  -21.6520   -6.9690   21.4480 O   0  0  0  0  0  0  0  0  0  0  0  0
  -21.5820   -6.2410   22.6080 C   0  0  0  0  0  0  0  0  0  0  0  0
  -21.1340   -6.8110   23.8210 C   0  0  0  0  0  3  0  0  0  0  0  0
  -21.0140   -6.0080   24.9730 C   0  0  0  0  0  3  0  0  0  0  0  0
  -21.3300   -4.6380   24.9140 C   0  0  0  0  0  0  0  0  0  0  0  0
  -21.7710   -4.0670   23.7070 C   0  0  0  0  0  3  0  0  0  0  0  0
  -21.8940   -4.8680   22.5580 C   0  0  0  0  0  0  0  0  0  0  0  0
  -22.2980   -4.3090   21.3910 F   0  0  0  0  0  0  0  0  0  0  0  0
  -21.2080   -3.8650   26.0190 F   0  0  0  0  0  0  0  0  0  0  0  0
  -22.8030  -13.6040   21.2400 C   0  0  0  0  0  0  0  0  0  0  0  0
  -22.1110  -12.8940   22.1240 N   0  0  0  0  0  0  0  0  0  0  0  0
  -22.3510  -14.6510   20.7720 O   0  0  0  0  0  0  0  0  0  0  0  0
  -22.4850  -12.0440   22.5210 H   0  0  0  0  0  0  0  0  0  0  0  0
  -21.1890  -13.2000   22.4020 H   0  0  0  0  0  0  0  0  0  0  0  0
  -25.4100  -15.2610   20.3310 N   0  0  0  0  0  0  0  0  0  0  0  0
  -24.6580  -15.9230   20.4930 H   0  0  0  0  0  0  0  0  0  0  0  0
  -26.2500  -15.7010   19.9780 H   0  0  0  0  0  0  0  0  0  0  0  0
  -28.4260  -25.4490   19.5540 C   0  0  0  0  0  2  0  0  0  0  0  0
  -28.3860  -26.7840   20.0990 O   0  0  0  0  0  0  0  0  0  0  0  0
  -24.5900  -31.9250   23.2500 C   0  0  0  0  0  0  0  0  0  0  0  0
  -27.1930  -27.4930   20.0930 C   0  0  0  0  0  0  0  0  0  0  0  0
  -23.3590  -30.5310   21.6220 C   0  0  0  0  0  3  0  0  0  0  0  0
  -24.7930  -29.0090   20.1660 C   0  0  0  0  0  0  0  0  0  0  0  0
  -25.8870  -30.8830   21.3950 C   0  0  0  0  0  2  0  0  0  0  0  0
  -25.9590  -29.5160   20.7500 C   0  0  0  0  0  0  0  0  0  0  0  0
  -27.1530  -28.7590   20.7260 C   0  0  0  0  0  3  0  0  0  0  0  0
  -26.0030  -27.0200   19.4810 C   0  0  0  0  0  3  0  0  0  0  0  0
  -24.8100  -27.7570   19.5360 C   0  0  0  0  0  3  0  0  0  0  0  0
  -23.5470  -29.8620   20.2370 C   0  0  0  0  0  2  0  0  0  0  0  0
  -24.6310  -31.1270   22.1470 N   0  0  0  0  0  0  0  0  0  0  0  0
  -23.5160  -32.1940   23.8080 O   0  0  0  0  0  0  0  0  0  0  0  0
  -22.7250  -29.4990   22.5820 C   0  0  0  0  0  0  0  0  0  0  0  0
  -21.4020  -29.2980   22.4580 N   0  0  0  0  0  0  0  0  0  0  0  0
  -23.4200  -28.8810   23.3930 O   0  0  0  0  0  0  0  0  0  0  0  0
  -20.9010  -29.8460   21.7730 H   0  0  0  0  0  0  0  0  0  0  0  0
  -18.0450  -28.0570   22.9430 C   0  0  0  0  0  0  0  0  0  0  0  0
  -20.5990  -28.3520   23.2300 C   0  0  0  0  0  3  0  0  0  0  0  0
  -20.7290  -26.9190   22.6620 C   0  0  0  0  0  2  0  0  0  0  0  0
  -19.6370  -26.5760   21.6450 C   0  0  0  0  0  2  0  0  0  0  0  0
  -18.2470  -26.7060   22.2760 C   0  0  0  0  0  2  0  0  0  0  0  0
  -19.1510  -28.8370   23.3760 C   0  0  0  0  0  0  0  0  0  0  0  0
  -18.9090  -30.1050   23.9480 C   0  0  0  0  0  3  0  0  0  0  0  0
  -17.5970  -30.5900   24.1020 C   0  0  0  0  0  3  0  0  0  0  0  0
  -16.5060  -29.8020   23.6940 C   0  0  0  0  0  3  0  0  0  0  0  0
  -16.7310  -28.5390   23.1170 C   0  0  0  0  0  3  0  0  0  0  0  0
  -25.8840  -32.5530   23.8530 C   0  0  0  0  0  3  0  0  0  0  0  0
  -26.4240  -31.7710   25.1120 C   0  0  1  0  0  0  0  0  0  0  0  0
  -25.3480  -31.5230   26.1950 C   0  0  0  0  0  1  0  0  0  0  0  0
  -27.0030  -30.3990   24.6960 C   0  0  0  0  0  1  0  0  0  0  0  0
  -27.5790  -32.5630   25.7670 C   0  0  0  0  0  1  0  0  0  0  0  0
  -25.5810  -33.9470   24.1970 N   0  0  0  0  0  0  0  0  0  0  0  0
  -25.8950  -35.0030   23.4320 C   0  0  0  0  0  0  0  0  0  0  0  0
  -26.5430  -34.9040   22.3870 O   0  0  0  0  0  0  0  0  0  0  0  0
  -25.0070  -34.0980   25.0130 H   0  0  0  0  0  0  0  0  0  0  0  0
  -24.1550  -36.7880   23.1190 C   0  0  0  0  0  1  0  0  0  0  0  0
  -25.4130  -36.3860   23.9050 C   0  0  0  0  0  3  0  0  0  0  0  0
  -27.5590  -37.2780   24.6990 C   0  0  0  0  0  1  0  0  0  0  0  0
  -26.4380  -37.4430   23.7750 N   0  0  0  0  0  0  0  0  0  0  0  0
  -26.0320  -38.3610   23.9350 H   0  0  0  0  0  0  0  0  0  0  0  0
  1  5  1  0
  1  3  1  0
  3 10  1  0
  3  4  1  0
  4  2  1  0
  4  6  1  0
  5 59  1  0
  5  7  1  0
  7  8  1  0
  7  9  1  0
  7  2  1  0
 11 10  2  0
 12 11  1  0
 13 17  1  0
 15 10  1  0
 15 18  1  0
 15 13  2  0
 16 14  1  0
 17 14  2  0
 17 19  1  0
 18 16  2  0
 20 18  1  0
 21 29  1  0
 22 27  1  0
 23 24  1  0
 23 22  1  0
 25 24  1  0
 25 34  1  0
 25 26  1  0
 27 21  1  0
 27 26  1  0
 28 21  2  0
 29 16  1  0
 29 30  1  0
 31 32  2  0
 32 51  1  0
 33 32  1  0
 33 36  1  0
 34 35  1  0
 34 31  1  0
 35 33  2  0
 36 37  1  0
 37 38  2  0
 39 42  1  0
 39 38  1  0
 40 39  2  0
 41 40  1  0
 41 36  2  0
 42 43  1  0
 43 44  1  0
 44 45  2  0
 46 45  1  0
 46 50  1  0
 47 46  2  0
 48 43  2  0
 48 47  1  0
 49 48  1  0
 51 52  1  0
 52 55  1  0
 52 54  1  0
 53 51  2  0
 56 31  1  0
 56 57  1  0
 58 56  1  0
 59 60  1  0
 61 72  2  0
 62 60  1  0
 62 67  1  0
 63 71  1  0
 63 73  1  0
 64 70  1  0
 64 66  1  0
 65 71  1  0
 66 65  1  0
 67 66  2  0
 68 69  1  0
 68 62  2  0
 69 64  2  0
 70 63  1  0
 71 61  1  0
 73 75  2  0
 74 73  1  0
 76 74  1  0
 77 86  2  0
 77 82  1  0
 78 74  1  0
 78 82  1  0
 79 78  1  0
 80 81  1  0
 80 79  1  0
 81 77  1  0
 82 83  2  0
 83 84  1  0
 85 84  2  0
 86 85  1  0
 87 61  1  0
 87 92  1  0
 87 88  1  0
 88 91  1  1
 88 89  1  0
 90 88  1  0
 92 95  1  0
 93 97  1  0
 93 92  1  0
 94 93  2  0
 97 96  1  0
 99 97  1  0
 99100  1  0
 99 98  1  0
M  ISO  4  21 100  29 100  59 101  60 101
M  END
>  <TORSDO>  (43) 
F 19

>  <SCORE>  (43) 
-15.186

>  <name>  (43) 
42

>  <ligand_id>  (43) 
42

>  <original_smiles>  (43) 
[H]N=C(c1c([H])c(F)c([H])c(N([H])C(=O)N2C([H])([H])C([H])([H])C([H])([H])C([H])(n3nc(-c4c([H])c([H])c(Oc5c([H])c([H])c(F)c([H])c5F)c([H])c4[H])c(C(=O)N([H])[H])c3N([H])[H])C2([H])[H])c1F)C1([H])C([H])([H])C([H])(C([H])([H])Oc2c([H])c([H])c3c(c2[H])C([H])([H])N(C(=O)C([H])(N([H])C(=O)C([H])(N([H])C([H])([H])[H])C([H])([H])[H])C(C([H])([H])[H])(C([H])([H])[H])C([H])([H])[H])C([H])(C(=O)N([H])C2([H])c4c([H])c([H])c([H])c([H])c4C([H])([H])C([H])([H])C2([H])[H])C3([H])[H])[N+]([H])([H])C([H])([H])C1([H])C([H])([H])[H]

>  <smiles>  (43) 
[H]N=C(c1c([H])c(F)c([H])c(N([H])C(=O)N2C([H])([H])C([H])([H])C([H])([H])C([H])(n3nc(-c4c([H])c([H])c(Oc5c([H])c([H])c(F)c([H])c5F)c([H])c4[H])c(C(=O)N([H])[H])c3N([H])[H])C2([H])[H])c1F)C1([H])C([H])([H])C([H])(C([H])([H])Oc2c([H])c([H])c3c(c2[H])C([H])([H])N(C(=O)C([H])(N([H])C(=O)C([H])(N([H])C([H])([H])[H])C([H])([H])[H])C(C([H])([H])[H])(C([H])([H])[H])C([H])([H])[H])C([H])(C(=O)N([H])C2([H])c4c([H])c([H])c([H])c([H])c4C([H])([H])C([H])([H])C2([H])[H])C3([H])[H])[N+]([H])([H])C([H])([H])C1([H])C([H])([H])[H]

$$$$
43:0:0
     RDKit          3D

 92100  0  0  1  0  0  0  0  0999 V2000
  -28.2360  -21.5890   20.6840 N   0  0  0  0  0  0  0  0  0  0  0  0
  -27.2600  -21.7690   20.8850 H   0  0  0  0  0  0  0  0  0  0  0  0
  -29.8130  -19.5390   20.5570 C   0  0  0  0  0  3  0  0  0  0  0  0
  -29.4500  -18.1490   20.4360 C   0  0  0  0  0  0  0  0  0  0  0  0
  -28.6310  -20.2340   20.6240 C   0  0  0  0  0  0  0  0  0  0  0  0
  -28.1300  -18.0170   20.4830 N   0  0  0  0  0  0  0  0  0  0  0  0
  -27.6170  -19.3230   20.6000 O   0  0  0  0  0  0  0  0  0  0  0  0
  -30.7900  -14.6290   20.0010 C   0  0  0  0  0  0  0  0  0  0  0  0
  -30.4650  -12.3750   19.0230 C   0  0  0  0  0  2  0  0  0  0  0  0
  -29.4740  -12.4460   17.8430 C   0  0  0  0  0  2  0  0  0  0  0  0
  -28.0310  -12.2820   18.3490 C   0  0  0  0  0  2  0  0  0  0  0  0
  -27.7100  -13.2130   19.5460 C   0  0  0  0  0  3  0  0  0  0  0  0
  -28.8150  -13.1670   20.6280 C   0  0  0  0  0  2  0  0  0  0  0  0
  -30.1030  -13.4430   19.9760 N   0  0  0  0  0  0  0  0  0  0  0  0
  -31.9390  -14.6830   19.5640 O   0  0  0  0  0  0  0  0  0  0  0  0
  -30.4980  -17.0520   20.2430 C   0  0  0  0  0  0  0  0  0  0  0  0
  -30.0840  -15.7500   20.3290 N   0  0  0  0  0  0  0  0  0  0  0  0
  -31.6630  -17.3950   19.9960 O   0  0  0  0  0  0  0  0  0  0  0  0
  -29.1240  -15.6320   20.6060 H   0  0  0  0  0  0  0  0  0  0  0  0
  -25.3680  -13.8050   20.4180 C   0  0  0  0  0  0  0  0  0  0  0  0
  -24.3190  -13.0270   20.8230 C   0  0  0  0  0  0  0  0  0  0  0  0
  -24.7720  -11.6750   20.7390 C   0  0  0  0  0  0  0  0  0  0  0  0
  -26.3900  -12.9260   20.1040 N   0  0  0  0  0  0  0  0  0  0  0  0
  -26.0430  -11.6380   20.3620 N   0  0  0  0  0  0  0  0  0  0  0  0
  -24.0530  -10.4100   20.9390 C   0  0  0  0  0  0  0  0  0  0  0  0
  -24.4810   -9.4530   21.8840 C   0  0  0  0  0  3  0  0  0  0  0  0
  -23.7580   -8.2560   22.0680 C   0  0  0  0  0  3  0  0  0  0  0  0
  -22.5930   -8.0050   21.3060 C   0  0  0  0  0  0  0  0  0  0  0  0
  -22.1830   -8.9500   20.3490 C   0  0  0  0  0  3  0  0  0  0  0  0
  -22.9070  -10.1400   20.1620 C   0  0  0  0  0  3  0  0  0  0  0  0
  -21.8400   -6.8600   21.4000 O   0  0  0  0  0  0  0  0  0  0  0  0
  -21.7250   -6.1710   22.5820 C   0  0  0  0  0  0  0  0  0  0  0  0
  -21.1940   -6.7680   23.7450 C   0  0  0  0  0  3  0  0  0  0  0  0
  -21.0250   -6.0020   24.9160 C   0  0  0  0  0  3  0  0  0  0  0  0
  -21.3810   -4.6400   24.9240 C   0  0  0  0  0  0  0  0  0  0  0  0
  -21.9080   -4.0420   23.7640 C   0  0  0  0  0  3  0  0  0  0  0  0
  -22.0750   -4.8060   22.5960 C   0  0  0  0  0  0  0  0  0  0  0  0
  -22.5610   -4.2180   21.4760 F   0  0  0  0  0  0  0  0  0  0  0  0
  -21.2140   -3.9010   26.0470 F   0  0  0  0  0  0  0  0  0  0  0  0
  -22.9410  -13.5010   21.1790 C   0  0  0  0  0  0  0  0  0  0  0  0
  -22.2580  -12.7850   22.0650 N   0  0  0  0  0  0  0  0  0  0  0  0
  -22.4790  -14.5390   20.7060 O   0  0  0  0  0  0  0  0  0  0  0  0
  -22.6480  -11.9400   22.4610 H   0  0  0  0  0  0  0  0  0  0  0  0
  -21.3380  -13.0830   22.3500 H   0  0  0  0  0  0  0  0  0  0  0  0
  -25.5300  -15.1790   20.2660 N   0  0  0  0  0  0  0  0  0  0  0  0
  -24.7800  -15.8360   20.4490 H   0  0  0  0  0  0  0  0  0  0  0  0
  -26.3700  -15.6310   19.9310 H   0  0  0  0  0  0  0  0  0  0  0  0
  -29.1420  -22.7640   20.7550 C   0  0  0  0  0  2  0  0  0  0  0  0
  -28.5600  -24.1040   20.1710 C   0  0  0  0  0  0  0  0  0  0  0  0
  -28.0890  -24.1080   19.0310 O   0  0  0  0  0  0  0  0  0  0  0  0
  -28.5600  -25.4140   21.0360 C   0  0  0  0  0  2  0  0  0  0  0  0
  -28.5340  -26.6770   20.2910 O   0  0  0  0  0  0  0  0  0  0  0  0
  -24.6240  -31.8900   23.3330 C   0  0  0  0  0  0  0  0  0  0  0  0
  -27.3710  -27.4390   20.3180 C   0  0  0  0  0  0  0  0  0  0  0  0
  -23.4700  -30.4930   21.6510 C   0  0  0  0  0  3  0  0  0  0  0  0
  -24.9750  -28.9690   20.2580 C   0  0  0  0  0  0  0  0  0  0  0  0
  -26.0000  -30.8660   21.5170 C   0  0  0  0  0  2  0  0  0  0  0  0
  -26.1180  -29.4940   20.8750 C   0  0  0  0  0  0  0  0  0  0  0  0
  -27.3250  -28.7420   20.8870 C   0  0  0  0  0  3  0  0  0  0  0  0
  -26.2080  -26.9390   19.6990 C   0  0  0  0  0  3  0  0  0  0  0  0
  -25.0180  -27.6960   19.6640 C   0  0  0  0  0  3  0  0  0  0  0  0
  -23.7250  -29.8280   20.2740 C   0  0  0  0  0  2  0  0  0  0  0  0
  -24.7150  -31.0990   22.2290 N   0  0  0  0  0  0  0  0  0  0  0  0
  -23.5250  -32.1490   23.8480 O   0  0  0  0  0  0  0  0  0  0  0  0
  -22.7960  -29.4640   22.5890 C   0  0  0  0  0  0  0  0  0  0  0  0
  -21.4700  -29.2970   22.4500 N   0  0  0  0  0  0  0  0  0  0  0  0
  -23.4680  -28.8160   23.3980 O   0  0  0  0  0  0  0  0  0  0  0  0
  -20.9890  -29.8730   21.7740 H   0  0  0  0  0  0  0  0  0  0  0  0
  -18.0840  -28.1180   22.9220 C   0  0  0  0  0  0  0  0  0  0  0  0
  -20.6440  -28.3410   23.1930 C   0  0  0  0  0  3  0  0  0  0  0  0
  -20.7360  -26.9290   22.5650 C   0  0  0  0  0  2  0  0  0  0  0  0
  -19.6210  -26.6420   21.5560 C   0  0  0  0  0  2  0  0  0  0  0  0
  -18.2470  -26.7800   22.2220 C   0  0  0  0  0  2  0  0  0  0  0  0
  -19.2110  -28.8550   23.3690 C   0  0  0  0  0  0  0  0  0  0  0  0
  -19.0060  -30.1080   23.9880 C   0  0  0  0  0  3  0  0  0  0  0  0
  -17.7090  -30.6210   24.1670 C   0  0  0  0  0  3  0  0  0  0  0  0
  -16.5960  -29.8780   23.7360 C   0  0  0  0  0  3  0  0  0  0  0  0
  -16.7850  -28.6290   23.1220 C   0  0  0  0  0  3  0  0  0  0  0  0
  -25.8870  -32.5300   23.9940 C   0  0  0  0  0  3  0  0  0  0  0  0
  -26.3720  -31.7570   25.2820 C   0  0  1  0  0  0  0  0  0  0  0  0
  -25.2500  -31.5090   26.3170 C   0  0  0  0  0  1  0  0  0  0  0  0
  -26.9750  -30.3840   24.9010 C   0  0  0  0  0  1  0  0  0  0  0  0
  -27.5000  -32.5550   25.9790 C   0  0  0  0  0  1  0  0  0  0  0  0
  -25.5600  -33.9270   24.3150 N   0  0  0  0  0  0  0  0  0  0  0  0
  -25.9070  -34.9780   23.5640 C   0  0  0  0  0  0  0  0  0  0  0  0
  -26.6000  -34.8760   22.5490 O   0  0  0  0  0  0  0  0  0  0  0  0
  -24.9450  -34.0780   25.0990 H   0  0  0  0  0  0  0  0  0  0  0  0
  -24.1760  -36.7600   23.1700 C   0  0  0  0  0  1  0  0  0  0  0  0
  -25.4010  -36.3640   24.0080 C   0  0  0  0  0  3  0  0  0  0  0  0
  -27.5090  -37.2650   24.8870 C   0  0  0  0  0  1  0  0  0  0  0  0
  -26.4300  -37.4230   23.9160 N   0  0  0  0  0  0  0  0  0  0  0  0
  -26.0150  -38.3420   24.0460 H   0  0  0  0  0  0  0  0  0  0  0  0
  1 48  1  0
  1  2  1  0
  3  5  2  0
  4  6  2  0
  4  3  1  0
  5  1  1  0
  6  7  1  0
  7  5  1  0
  8 17  1  0
  9 14  1  0
 10 11  1  0
 10  9  1  0
 12 11  1  0
 12 23  1  0
 12 13  1  0
 14  8  1  0
 14 13  1  0
 15  8  2  0
 16 17  1  0
 16  4  1  0
 17 19  1  0
 18 16  2  0
 20 21  2  0
 21 40  1  0
 22 21  1  0
 22 25  1  0
 23 24  1  0
 23 20  1  0
 24 22  2  0
 25 26  1  0
 26 27  2  0
 28 31  1  0
 28 27  1  0
 29 28  2  0
 30 29  1  0
 30 25  2  0
 31 32  1  0
 32 37  2  0
 32 33  1  0
 33 34  2  0
 34 35  1  0
 35 39  1  0
 36 35  2  0
 37 36  1  0
 38 37  1  0
 40 41  1  0
 41 44  1  0
 41 43  1  0
 42 40  2  0
 45 20  1  0
 45 46  1  0
 47 45  1  0
 49 48  1  0
 49 51  1  0
 50 49  2  0
 52 54  1  0
 52 51  1  0
 53 64  2  0
 54 59  1  0
 55 63  1  0
 55 65  1  0
 56 62  1  0
 56 58  1  0
 57 63  1  0
 58 59  2  0
 58 57  1  0
 60 54  2  0
 61 60  1  0
 61 56  2  0
 62 55  1  0
 63 53  1  0
 65 67  2  0
 66 65  1  0
 68 66  1  0
 69 78  2  0
 69 74  1  0
 70 66  1  0
 70 74  1  0
 71 70  1  0
 72 73  1  0
 72 71  1  0
 73 69  1  0
 74 75  2  0
 75 76  1  0
 77 76  2  0
 78 77  1  0
 79 53  1  0
 79 84  1  0
 79 80  1  0
 80 83  1  1
 80 81  1  0
 82 80  1  0
 84 87  1  0
 85 89  1  0
 85 84  1  0
 86 85  2  0
 89 88  1  0
 91 89  1  0
 91 92  1  0
 91 90  1  0
M  ISO  4   8 100  17 100  51 101  52 101
M  END
>  <TORSDO>  (44) 
F 20

>  <SCORE>  (44) 
-13.794

>  <name>  (44) 
43

>  <ligand_id>  (44) 
43

>  <original_smiles>  (44) 
[H]c1c(C(=O)N([H])C(=O)N2C([H])([H])C([H])([H])C([H])([H])C([H])(n3nc(-c4c([H])c([H])c(Oc5c([H])c([H])c(F)c([H])c5F)c([H])c4[H])c(C(=O)N([H])[H])c3N([H])[H])C2([H])[H])noc1N([H])C([H])([H])C(=O)C([H])([H])Oc1c([H])c([H])c2c(c1[H])C([H])([H])N(C(=O)C([H])(N([H])C(=O)C([H])(N([H])C([H])([H])[H])C([H])([H])[H])C(C([H])([H])[H])(C([H])([H])[H])C([H])([H])[H])C([H])(C(=O)N([H])C1([H])c3c([H])c([H])c([H])c([H])c3C([H])([H])C([H])([H])C1([H])[H])C2([H])[H]

>  <smiles>  (44) 
[H]c1c(C(=O)N([H])C(=O)N2C([H])([H])C([H])([H])C([H])([H])C([H])(n3nc(-c4c([H])c([H])c(Oc5c([H])c([H])c(F)c([H])c5F)c([H])c4[H])c(C(=O)N([H])[H])c3N([H])[H])C2([H])[H])noc1N([H])C([H])([H])C(=O)C([H])([H])Oc1c([H])c([H])c2c(c1[H])C([H])([H])N(C(=O)C([H])(N([H])C(=O)C([H])(N([H])C([H])([H])[H])C([H])([H])[H])C(C([H])([H])[H])(C([H])([H])[H])C([H])([H])[H])C([H])(C(=O)N([H])C1([H])c3c([H])c([H])c([H])c([H])c3C([H])([H])C([H])([H])C1([H])[H])C2([H])[H]

$$$$
44:0:0
     RDKit          3D

 95103  0  0  1  0  0  0  0  0999 V2000
  -29.5890  -20.7920   21.1090 C   0  0  0  0  0  0  0  0  0  0  0  0
  -29.6400  -21.7740   20.1770 N   0  0  0  0  0  4  0  0  0  0  0  0
  -28.8950  -20.8700   22.1250 O   0  0  0  0  0  0  0  0  0  0  0  0
  -30.2790  -21.5910   19.4170 H   0  0  0  0  0  0  0  0  0  0  0  0
  -31.6820  -17.8620   20.1090 C   0  0  0  0  0  3  0  0  0  0  0  0
  -31.4950  -19.2800   20.1190 C   0  0  0  0  0  0  0  0  0  0  0  0
  -30.3240  -19.5150   20.8070 C   0  0  0  0  0  0  0  0  0  0  0  0
  -30.6740  -17.3170   20.8580 C   0  0  0  0  0  0  0  0  0  0  0  0
  -32.4210  -20.2900   19.4920 C   0  0  0  0  0  1  0  0  0  0  0  0
  -29.8360  -18.3140   21.2940 O   0  0  0  0  0  0  0  0  0  0  0  0
  -31.1830  -14.9020   20.7420 C   0  0  0  0  0  0  0  0  0  0  0  0
  -30.9540  -12.6540   19.7430 C   0  0  0  0  0  2  0  0  0  0  0  0
  -30.1030  -12.7830   18.4620 C   0  0  0  0  0  2  0  0  0  0  0  0
  -28.6010  -12.6680   18.7910 C   0  0  0  0  0  2  0  0  0  0  0  0
  -28.1800  -13.5740   19.9800 C   0  0  0  0  0  3  0  0  0  0  0  0
  -29.1600  -13.4470   21.1700 C   0  0  0  0  0  2  0  0  0  0  0  0
  -30.5180  -13.7120   20.6740 N   0  0  0  0  0  0  0  0  0  0  0  0
  -32.3570  -15.0070   20.3710 O   0  0  0  0  0  0  0  0  0  0  0  0
  -30.4450  -15.9850   21.1110 N   0  0  0  0  0  0  0  0  0  0  0  0
  -29.5470  -15.7640   21.5140 H   0  0  0  0  0  0  0  0  0  0  0  0
  -25.7650  -14.2320   20.5550 C   0  0  0  0  0  0  0  0  0  0  0  0
  -24.6590  -13.4860   20.8620 C   0  0  0  0  0  0  0  0  0  0  0  0
  -25.0880  -12.1240   20.8560 C   0  0  0  0  0  0  0  0  0  0  0  0
  -26.7980  -13.3250   20.3820 N   0  0  0  0  0  0  0  0  0  0  0  0
  -26.3920  -12.0520   20.6190 N   0  0  0  0  0  0  0  0  0  0  0  0
  -24.3220  -10.8800   21.0030 C   0  0  0  0  0  0  0  0  0  0  0  0
  -24.6740   -9.9030   21.9600 C   0  0  0  0  0  3  0  0  0  0  0  0
  -23.9090   -8.7250   22.0930 C   0  0  0  0  0  3  0  0  0  0  0  0
  -22.7770   -8.5160   21.2710 C   0  0  0  0  0  0  0  0  0  0  0  0
  -22.4430   -9.4810   20.3050 C   0  0  0  0  0  3  0  0  0  0  0  0
  -23.2080  -10.6520   20.1690 C   0  0  0  0  0  3  0  0  0  0  0  0
  -21.9890   -7.3910   21.3140 O   0  0  0  0  0  0  0  0  0  0  0  0
  -21.8560   -6.6470   22.4590 C   0  0  0  0  0  0  0  0  0  0  0  0
  -21.3570   -7.2050   23.6570 C   0  0  0  0  0  3  0  0  0  0  0  0
  -21.1710   -6.3900   24.7900 C   0  0  0  0  0  3  0  0  0  0  0  0
  -21.4740   -5.0160   24.7270 C   0  0  0  0  0  0  0  0  0  0  0  0
  -21.9650   -4.4580   23.5350 C   0  0  0  0  0  3  0  0  0  0  0  0
  -22.1520   -5.2710   22.4030 C   0  0  0  0  0  0  0  0  0  0  0  0
  -22.6050   -4.7210   21.2500 F   0  0  0  0  0  0  0  0  0  0  0  0
  -21.2880   -4.2300   25.8150 F   0  0  0  0  0  0  0  0  0  0  0  0
  -23.2610  -13.9980   21.0590 C   0  0  0  0  0  0  0  0  0  0  0  0
  -22.4700  -13.3230   21.8850 N   0  0  0  0  0  0  0  0  0  0  0  0
  -22.8760  -15.0340   20.5160 O   0  0  0  0  0  0  0  0  0  0  0  0
  -22.7900  -12.4840   22.3460 H   0  0  0  0  0  0  0  0  0  0  0  0
  -21.5310  -13.6500   22.0620 H   0  0  0  0  0  0  0  0  0  0  0  0
  -25.9750  -15.5980   20.3920 N   0  0  0  0  0  0  0  0  0  0  0  0
  -25.2230  -16.2760   20.4610 H   0  0  0  0  0  0  0  0  0  0  0  0
  -26.8560  -16.0130   20.1200 H   0  0  0  0  0  0  0  0  0  0  0  0
  -28.7940  -22.9870   19.9770 C   0  0  0  0  0  0  0  0  0  0  0  0
  -29.2870  -24.3450   20.6080 C   0  0  0  0  0  0  0  0  0  0  0  0
  -30.4140  -24.5140   21.0850 O   0  0  0  0  0  0  0  0  0  0  0  0
  -28.2420  -25.4920   20.5770 C   0  0  0  0  0  2  0  0  0  0  0  0
  -28.6980  -26.8650   20.3490 O   0  0  0  0  0  0  0  0  0  0  0  0
  -24.6640  -31.9440   23.3410 C   0  0  0  0  0  0  0  0  0  0  0  0
  -27.6020  -27.7060   20.2040 C   0  0  0  0  0  0  0  0  0  0  0  0
  -23.6000  -30.5730   21.5810 C   0  0  0  0  0  3  0  0  0  0  0  0
  -25.1810  -29.1840   20.1470 C   0  0  0  0  0  0  0  0  0  0  0  0
  -26.1240  -31.0290   21.5320 C   0  0  0  0  0  2  0  0  0  0  0  0
  -26.2930  -29.6940   20.8280 C   0  0  0  0  0  0  0  0  0  0  0  0
  -27.5120  -28.9640   20.8560 C   0  0  0  0  0  3  0  0  0  0  0  0
  -26.4850  -27.2660   19.4520 C   0  0  0  0  0  3  0  0  0  0  0  0
  -25.2780  -27.9770   19.4420 C   0  0  0  0  0  3  0  0  0  0  0  0
  -23.9060  -29.9900   20.1780 C   0  0  0  0  0  2  0  0  0  0  0  0
  -24.8110  -31.1960   22.2100 N   0  0  0  0  0  0  0  0  0  0  0  0
  -23.5470  -32.1490   23.8350 O   0  0  0  0  0  0  0  0  0  0  0  0
  -22.9450  -29.4800   22.4600 C   0  0  0  0  0  0  0  0  0  0  0  0
  -21.6270  -29.2840   22.2940 N   0  0  0  0  0  0  0  0  0  0  0  0
  -23.6220  -28.8170   23.2520 O   0  0  0  0  0  0  0  0  0  0  0  0
  -21.1450  -29.8820   21.6380 H   0  0  0  0  0  0  0  0  0  0  0  0
  -18.2420  -28.0770   22.7220 C   0  0  0  0  0  0  0  0  0  0  0  0
  -20.8060  -28.2870   22.9840 C   0  0  0  0  0  3  0  0  0  0  0  0
  -20.8860  -26.9130   22.2780 C   0  0  0  0  0  2  0  0  0  0  0  0
  -19.7670  -26.6940   21.2530 C   0  0  0  0  0  2  0  0  0  0  0  0
  -18.3950  -26.7930   21.9250 C   0  0  0  0  0  2  0  0  0  0  0  0
  -19.3740  -28.7850   23.2030 C   0  0  0  0  0  0  0  0  0  0  0  0
  -19.1750  -29.9910   23.9130 C   0  0  0  0  0  3  0  0  0  0  0  0
  -17.8790  -30.4870   24.1410 C   0  0  0  0  0  3  0  0  0  0  0  0
  -16.7610  -29.7740   23.6740 C   0  0  0  0  0  3  0  0  0  0  0  0
  -16.9430  -28.5700   22.9720 C   0  0  0  0  0  3  0  0  0  0  0  0
  -25.8910  -32.5970   24.0500 C   0  0  0  0  0  3  0  0  0  0  0  0
  -25.5510  -34.0020   24.3160 N   0  0  0  0  0  0  0  0  0  0  0  0
  -25.9110  -35.0320   23.5400 C   0  0  0  0  0  0  0  0  0  0  0  0
  -26.6380  -34.9010   22.5500 O   0  0  0  0  0  0  0  0  0  0  0  0
  -24.9140  -34.1760   25.0790 H   0  0  0  0  0  0  0  0  0  0  0  0
  -24.1720  -36.7810   23.0460 C   0  0  0  0  0  1  0  0  0  0  0  0
  -25.3860  -36.4280   23.9220 C   0  0  0  0  0  3  0  0  0  0  0  0
  -27.4670  -37.3790   24.8080 C   0  0  0  0  0  1  0  0  0  0  0  0
  -26.4060  -37.4930   23.8110 N   0  0  0  0  0  0  0  0  0  0  0  0
  -25.9820  -38.4110   23.9040 H   0  0  0  0  0  0  0  0  0  0  0  0
  -26.3010  -31.8620   25.3850 C   0  0  1  0  0  0  0  0  0  0  0  0
  -25.1190  -31.6330   26.3550 C   0  0  0  0  0  1  0  0  0  0  0  0
  -26.9350  -30.4850   25.0730 C   0  0  0  0  0  1  0  0  0  0  0  0
  -27.3800  -32.6840   26.1290 C   0  0  0  0  0  1  0  0  0  0  0  0
  -26.6270  -21.9980   18.8990 C   0  0  0  0  0  1  0  0  0  0  0  0
  -27.2610  -22.7290   20.0990 C   0  0  0  0  0  2  0  0  0  0  0  0
  1  3  2  0
  2  1  1  0
  4  2  1  0
  5  6  1  0
  5  8  2  0
  6  7  2  0
  7  1  1  0
  7 10  1  0
  8 19  1  0
  8 10  1  0
  9  6  1  0
 11 19  1  0
 12 17  1  0
 13 14  1  0
 13 12  1  0
 15 14  1  0
 15 24  1  0
 15 16  1  0
 17 11  1  0
 17 16  1  0
 18 11  2  0
 19 20  1  0
 21 22  2  0
 22 41  1  0
 23 22  1  0
 23 26  1  0
 24 21  1  0
 24 25  1  0
 25 23  2  0
 26 27  1  0
 27 28  2  0
 29 32  1  0
 29 28  1  0
 30 29  2  0
 31 30  1  0
 31 26  2  0
 32 33  1  0
 33 34  1  0
 34 35  2  0
 36 35  1  0
 36 40  1  0
 37 36  2  0
 38 33  2  0
 38 37  1  0
 39 38  1  0
 41 42  1  0
 42 45  1  0
 42 44  1  0
 43 41  2  0
 46 47  1  0
 46 21  1  0
 48 46  1  0
 49 95  1  0
 49  2  2  3
 49 50  1  0
 50 51  2  0
 52 50  1  0
 53 52  1  0
 54 65  2  0
 55 53  1  0
 55 60  1  0
 56 64  1  0
 56 66  1  0
 57 63  1  0
 57 59  1  0
 58 64  1  0
 59 60  2  0
 59 58  1  0
 61 55  2  0
 62 61  1  0
 62 57  2  0
 63 56  1  0
 64 54  1  0
 66 68  2  0
 67 66  1  0
 69 67  1  0
 70 79  2  0
 70 75  1  0
 71 67  1  0
 71 75  1  0
 72 71  1  0
 73 74  1  0
 73 72  1  0
 74 70  1  0
 75 76  2  0
 76 77  1  0
 78 77  2  0
 79 78  1  0
 80 54  1  0
 80 81  1  0
 80 90  1  0
 81 84  1  0
 82 86  1  0
 82 81  1  0
 83 82  2  0
 86 85  1  0
 88 89  1  0
 88 86  1  0
 88 87  1  0
 90 93  1  1
 90 91  1  0
 92 90  1  0
 94 95  1  0
M  ISO  4  11 100  19 100  52 101  53 101
M  END
>  <TORSDO>  (45) 
F 21

>  <SCORE>  (45) 
-12.907

>  <name>  (45) 
44

>  <ligand_id>  (45) 
44

>  <original_smiles>  (45) 
[H]c1c([H])c([H])c2c(c1[H])C([H])([H])C([H])([H])C([H])([H])C2([H])N([H])C(=O)C1([H])N(C(=O)C([H])(N([H])C(=O)C([H])(N([H])C([H])([H])[H])C([H])([H])[H])C(C([H])([H])[H])(C([H])([H])[H])C([H])([H])[H])C([H])([H])c2c([H])c(OC([H])([H])C(=O)C([H])(N([H])C(=O)c3oc(N([H])C(=O)N4C([H])([H])C([H])([H])C([H])([H])C([H])(n5nc(-c6c([H])c([H])c(Oc7c([H])c([H])c(F)c([H])c7F)c([H])c6[H])c(C(=O)N([H])[H])c5N([H])[H])C4([H])[H])c([H])c3C([H])([H])[H])C([H])([H])C([H])([H])[H])c([H])c([H])c2C1([H])[H]

>  <smiles>  (45) 
[H]c1c([H])c([H])c2c(c1[H])C([H])([H])C([H])([H])C([H])([H])C2([H])N([H])C(=O)C1([H])N(C(=O)C([H])(N([H])C(=O)C([H])(N([H])C([H])([H])[H])C([H])([H])[H])C(C([H])([H])[H])(C([H])([H])[H])C([H])([H])[H])C([H])([H])c2c([H])c(OC([H])([H])C(=O)C([H])(N([H])C(=O)c3oc(N([H])C(=O)N4C([H])([H])C([H])([H])C([H])([H])C([H])(n5nc(-c6c([H])c([H])c(Oc7c([H])c([H])c(F)c([H])c7F)c([H])c6[H])c(C(=O)N([H])[H])c5N([H])[H])C4([H])[H])c([H])c3C([H])([H])[H])C([H])([H])C([H])([H])[H])c([H])c([H])c2C1([H])[H]

$$$$
45:0:0
     RDKit          3D

 98106  0  0  1  0  0  0  0  0999 V2000
  -31.1780  -19.9480   22.9140 C   0  0  0  0  0  3  0  0  0  0  0  0
  -31.3310  -18.6670   22.3470 C   0  0  0  0  0  3  0  0  0  0  0  0
  -30.2350  -20.8530   22.3820 C   0  0  0  0  0  3  0  0  0  0  0  0
  -29.6150  -19.2050   20.6960 C   0  0  0  0  0  3  0  0  0  0  0  0
  -30.5490  -18.2910   21.2380 C   0  0  0  0  0  0  0  0  0  0  0  0
  -29.4610  -20.4950   21.2480 C   0  0  0  0  0  0  0  0  0  0  0  0
  -31.4250  -14.6640   21.0470 C   0  0  0  0  0  0  0  0  0  0  0  0
  -31.1920  -12.4180   20.1000 C   0  0  0  0  0  2  0  0  0  0  0  0
  -30.4110  -12.4890   18.7700 C   0  0  0  0  0  2  0  0  0  0  0  0
  -28.8930  -12.4350   19.0110 C   0  0  0  0  0  2  0  0  0  0  0  0
  -28.4190  -13.3910   20.1410 C   0  0  0  0  0  3  0  0  0  0  0  0
  -29.3270  -13.2940   21.3910 C   0  0  0  0  0  2  0  0  0  0  0  0
  -30.7210  -13.5040   20.9720 N   0  0  0  0  0  0  0  0  0  0  0  0
  -32.6110  -14.7630   20.7160 O   0  0  0  0  0  0  0  0  0  0  0  0
  -30.8170  -17.0200   20.5730 C   0  0  0  0  0  3  0  0  0  0  0  0
  -30.6960  -15.8660   21.2740 N   0  0  0  0  0  0  0  0  0  0  0  0
  -31.1730  -17.1610   19.2690 N   0  0  0  0  0  0  0  0  0  0  0  0
  -29.9140  -15.8900   21.9070 H   0  0  0  0  0  0  0  0  0  0  0  0
  -31.2020  -18.1320   18.9840 H   0  0  0  0  0  0  0  0  0  0  0  0
  -25.9750  -14.0700   20.5670 C   0  0  0  0  0  0  0  0  0  0  0  0
  -24.8510  -13.3320   20.8180 C   0  0  0  0  0  0  0  0  0  0  0  0
  -25.2740  -11.9680   20.8520 C   0  0  0  0  0  0  0  0  0  0  0  0
  -27.0150  -13.1600   20.4680 N   0  0  0  0  0  0  0  0  0  0  0  0
  -26.5900  -11.8910   20.7000 N   0  0  0  0  0  0  0  0  0  0  0  0
  -24.4980  -10.7280   20.9700 C   0  0  0  0  0  0  0  0  0  0  0  0
  -24.8290   -9.7410   21.9230 C   0  0  0  0  0  3  0  0  0  0  0  0
  -24.0560   -8.5640   22.0340 C   0  0  0  0  0  3  0  0  0  0  0  0
  -22.9390   -8.3670   21.1900 C   0  0  0  0  0  0  0  0  0  0  0  0
  -22.6270   -9.3420   20.2270 C   0  0  0  0  0  3  0  0  0  0  0  0
  -23.3980  -10.5110   20.1140 C   0  0  0  0  0  3  0  0  0  0  0  0
  -22.1450   -7.2460   21.2100 O   0  0  0  0  0  0  0  0  0  0  0  0
  -21.9860   -6.4940   22.3470 C   0  0  0  0  0  0  0  0  0  0  0  0
  -21.4930   -7.0510   23.5460 C   0  0  0  0  0  3  0  0  0  0  0  0
  -21.2810   -6.2280   24.6700 C   0  0  0  0  0  3  0  0  0  0  0  0
  -21.5500   -4.8480   24.5940 C   0  0  0  0  0  0  0  0  0  0  0  0
  -22.0350   -4.2900   23.3990 C   0  0  0  0  0  3  0  0  0  0  0  0
  -22.2500   -5.1100   22.2780 C   0  0  0  0  0  0  0  0  0  0  0  0
  -22.6980   -4.5650   21.1210 F   0  0  0  0  0  0  0  0  0  0  0  0
  -21.3390   -4.0560   25.6710 F   0  0  0  0  0  0  0  0  0  0  0  0
  -23.4440  -13.8480   20.9220 C   0  0  0  0  0  0  0  0  0  0  0  0
  -22.6160  -13.2020   21.7360 N   0  0  0  0  0  0  0  0  0  0  0  0
  -23.0870  -14.8570   20.3170 O   0  0  0  0  0  0  0  0  0  0  0  0
  -22.9180  -12.3880   22.2500 H   0  0  0  0  0  0  0  0  0  0  0  0
  -21.6650  -13.5240   21.8430 H   0  0  0  0  0  0  0  0  0  0  0  0
  -26.2000  -15.4340   20.3950 N   0  0  0  0  0  0  0  0  0  0  0  0
  -25.4530  -16.1160   20.4430 H   0  0  0  0  0  0  0  0  0  0  0  0
  -27.0920  -15.8440   20.1500 H   0  0  0  0  0  0  0  0  0  0  0  0
  -33.1040  -16.2590   18.0130 C   0  0  0  0  0  1  0  0  0  0  0  0
  -30.8170  -16.4880   16.8960 C   0  0  0  0  0  1  0  0  0  0  0  0
  -31.5810  -16.2250   18.2030 C   0  0  0  0  0  3  0  0  0  0  0  0
  -28.5960  -22.5850   20.4740 C   0  0  0  0  0  0  0  0  0  0  0  0
  -27.4720  -23.2720   19.7110 C   0  0  0  0  0  1  0  0  0  0  0  0
  -28.4950  -21.3200   20.6510 N   0  0  0  0  0  0  0  0  0  0  0  0
  -29.7610  -23.4750   20.9410 C   0  0  0  0  0  2  0  0  0  0  0  0
  -29.7910  -24.8720   20.3000 C   0  0  0  0  0  0  0  0  0  0  0  0
  -30.2270  -25.0400   19.1540 O   0  0  0  0  0  0  0  0  0  0  0  0
  -29.2460  -26.0370   21.1400 C   0  0  0  0  0  2  0  0  0  0  0  0
  -29.1980  -27.2470   20.3830 O   0  0  0  0  0  0  0  0  0  0  0  0
  -24.6700  -31.8840   23.3170 C   0  0  0  0  0  0  0  0  0  0  0  0
  -27.9620  -27.8400   20.3430 C   0  0  0  0  0  0  0  0  0  0  0  0
  -23.7350  -30.4520   21.5240 C   0  0  0  0  0  3  0  0  0  0  0  0
  -25.4410  -29.0940   20.1960 C   0  0  0  0  0  0  0  0  0  0  0  0
  -26.2220  -31.0390   21.5630 C   0  0  0  0  0  2  0  0  0  0  0  0
  -26.4860  -29.7060   20.8970 C   0  0  0  0  0  0  0  0  0  0  0  0
  -27.7530  -29.0860   20.9670 C   0  0  0  0  0  3  0  0  0  0  0  0
  -26.9030  -27.2220   19.6490 C   0  0  0  0  0  3  0  0  0  0  0  0
  -25.6410  -27.8470   19.5740 C   0  0  0  0  0  3  0  0  0  0  0  0
  -24.1230  -29.8340   20.1510 C   0  0  0  0  0  2  0  0  0  0  0  0
  -24.8860  -31.1400   22.1960 N   0  0  0  0  0  0  0  0  0  0  0  0
  -23.5280  -32.0430   23.7740 O   0  0  0  0  0  0  0  0  0  0  0  0
  -23.0930  -29.3470   22.3950 C   0  0  0  0  0  0  0  0  0  0  0  0
  -21.7850  -29.1200   22.2040 N   0  0  0  0  0  0  0  0  0  0  0  0
  -23.7750  -28.6940   23.1910 O   0  0  0  0  0  0  0  0  0  0  0  0
  -21.2950  -29.7000   21.5360 H   0  0  0  0  0  0  0  0  0  0  0  0
  -18.4350  -27.8190   22.5500 C   0  0  0  0  0  0  0  0  0  0  0  0
  -20.9820  -28.1010   22.8800 C   0  0  0  0  0  3  0  0  0  0  0  0
  -21.1230  -26.7290   22.1830 C   0  0  0  0  0  2  0  0  0  0  0  0
  -20.0400  -26.4740   21.1310 C   0  0  0  0  0  2  0  0  0  0  0  0
  -18.6470  -26.5360   21.7640 C   0  0  0  0  0  2  0  0  0  0  0  0
  -19.5320  -28.5610   23.0620 C   0  0  0  0  0  0  0  0  0  0  0  0
  -19.2830  -29.7630   23.7570 C   0  0  0  0  0  3  0  0  0  0  0  0
  -17.9660  -30.2250   23.9460 C   0  0  0  0  0  3  0  0  0  0  0  0
  -16.8820  -29.4760   23.4570 C   0  0  0  0  0  3  0  0  0  0  0  0
  -17.1180  -28.2760   22.7630 C   0  0  0  0  0  3  0  0  0  0  0  0
  -25.8400  -32.5900   24.0670 C   0  0  0  0  0  3  0  0  0  0  0  0
  -25.4330  -33.9780   24.3210 N   0  0  0  0  0  0  0  0  0  0  0  0
  -25.8000  -35.0270   23.5750 C   0  0  0  0  0  0  0  0  0  0  0  0
  -26.5900  -34.9330   22.6300 O   0  0  0  0  0  0  0  0  0  0  0  0
  -24.7510  -34.1230   25.0520 H   0  0  0  0  0  0  0  0  0  0  0  0
  -24.0310  -36.7110   22.9800 C   0  0  0  0  0  1  0  0  0  0  0  0
  -25.1960  -36.4000   23.9310 C   0  0  0  0  0  3  0  0  0  0  0  0
  -27.1820  -37.4230   24.9520 C   0  0  0  0  0  1  0  0  0  0  0  0
  -26.1800  -37.5050   23.8930 N   0  0  0  0  0  0  0  0  0  0  0  0
  -25.7140  -38.4040   23.9690 H   0  0  0  0  0  0  0  0  0  0  0  0
  -26.2460  -31.8710   25.4120 C   0  0  1  0  0  0  0  0  0  0  0  0
  -25.0500  -31.5890   26.3530 C   0  0  0  0  0  1  0  0  0  0  0  0
  -26.9420  -30.5200   25.1170 C   0  0  0  0  0  1  0  0  0  0  0  0
  -27.2730  -32.7360   26.1800 C   0  0  0  0  0  1  0  0  0  0  0  0
  2  1  2  0
  3  1  1  0
  4  5  2  0
  4  6  1  0
  5  2  1  0
  6  3  2  0
  7 16  1  0
  8 13  1  0
  9 10  1  0
  9  8  1  0
 11 10  1  0
 11 23  1  0
 11 12  1  0
 13  7  1  0
 13 12  1  0
 14  7  2  0
 15 17  1  0
 15  5  1  0
 15 16  1  0
 16 18  1  0
 19 17  1  0
 20 21  2  0
 21 22  1  0
 21 40  1  0
 22 25  1  0
 23 20  1  0
 23 24  1  0
 24 22  2  0
 25 26  1  0
 26 27  2  0
 28 31  1  0
 28 27  1  0
 29 28  2  0
 30 29  1  0
 30 25  2  0
 31 32  1  0
 32 33  1  0
 33 34  2  0
 35 34  1  0
 35 39  1  0
 36 35  2  0
 37 32  2  0
 37 36  1  0
 38 37  1  0
 40 41  1  0
 41 44  1  0
 41 43  1  0
 42 40  2  0
 45 46  1  0
 45 20  1  0
 47 45  1  0
 48 50  1  0
 49 50  1  0
 50 17  1  0
 51 53  2  0
 51 54  1  0
 52 51  1  0
 53  6  1  0
 55 54  1  0
 55 57  1  0
 56 55  2  0
 58 57  1  0
 59 70  2  0
 60 58  1  0
 60 65  1  0
 61 69  1  0
 61 71  1  0
 62 64  1  0
 63 69  1  0
 64 65  2  0
 64 63  1  0
 66 60  2  0
 67 66  1  0
 67 62  2  0
 68 62  1  0
 68 61  1  0
 69 59  1  0
 71 73  2  0
 72 71  1  0
 74 72  1  0
 75 84  2  0
 75 80  1  0
 76 72  1  0
 76 80  1  0
 77 76  1  0
 78 79  1  0
 78 77  1  0
 79 75  1  0
 80 81  2  0
 81 82  1  0
 83 82  2  0
 84 83  1  0
 85 59  1  0
 85 86  1  0
 85 95  1  0
 86 89  1  0
 87 91  1  0
 87 86  1  0
 88 87  2  0
 91 90  1  0
 93 91  1  0
 93 94  1  0
 93 92  1  0
 95 98  1  1
 95 96  1  0
 97 95  1  0
M  ISO  4   7 100  16 100  57 101  58 101
M  END
>  <TORSDO>  (46) 
F 21

>  <SCORE>  (46) 
-11.540

>  <name>  (46) 
45

>  <ligand_id>  (46) 
45

>  <original_smiles>  (46) 
[H]c1c([H])c(N=C(C([H])([H])[H])C([H])([H])C(=O)C([H])([H])Oc2c([H])c([H])c3c(c2[H])C([H])([H])N(C(=O)C([H])(N([H])C(=O)C([H])(N([H])C([H])([H])[H])C([H])([H])[H])C(C([H])([H])[H])(C([H])([H])[H])C([H])([H])[H])C([H])(C(=O)N([H])C2([H])c4c([H])c([H])c([H])c([H])c4C([H])([H])C([H])([H])C2([H])[H])C3([H])[H])c([H])c(C(N([H])C(=O)N2C([H])([H])C([H])([H])C([H])([H])C([H])(n3nc(-c4c([H])c([H])c(Oc5c([H])c([H])c(F)c([H])c5F)c([H])c4[H])c(C(=O)N([H])[H])c3N([H])[H])C2([H])[H])=[N+]([H])C([H])(C([H])([H])[H])C([H])([H])[H])c1[H]

>  <smiles>  (46) 
[H]c1c([H])c(N=C(C([H])([H])[H])C([H])([H])C(=O)C([H])([H])Oc2c([H])c([H])c3c(c2[H])C([H])([H])N(C(=O)C([H])(N([H])C(=O)C([H])(N([H])C([H])([H])[H])C([H])([H])[H])C(C([H])([H])[H])(C([H])([H])[H])C([H])([H])[H])C([H])(C(=O)N([H])C2([H])c4c([H])c([H])c([H])c([H])c4C([H])([H])C([H])([H])C2([H])[H])C3([H])[H])c([H])c(C(N([H])C(=O)N2C([H])([H])C([H])([H])C([H])([H])C([H])(n3nc(-c4c([H])c([H])c(Oc5c([H])c([H])c(F)c([H])c5F)c([H])c4[H])c(C(=O)N([H])[H])c3N([H])[H])C2([H])[H])=[N+]([H])C([H])(C([H])([H])[H])C([H])([H])[H])c1[H]

$$$$
46:0:0
     RDKit          3D

 86 91  0  0  1  0  0  0  0  0999 V2000
  -26.8770  -19.9250   19.3080 C   0  0  0  0  0  2  0  0  0  0  0  0
  -27.3320  -19.9070   20.7890 C   0  0  0  0  0  2  0  0  0  0  0  0
  -27.6380  -20.9460   18.4240 C   0  0  0  0  0  2  0  0  0  0  0  0
  -28.8260  -19.5490   21.0170 C   0  0  0  0  0  2  0  0  0  0  0  0
  -28.9380  -21.4290   19.0890 C   0  0  0  0  0  1  0  0  0  0  0  0
  -29.6460  -19.5540   19.7140 C   0  0  0  0  0  2  0  0  0  0  0  0
  -30.5260  -16.2070   19.4970 C   0  0  0  0  0  0  0  0  0  0  0  0
  -30.7150  -13.5460   18.8050 C   0  0  0  0  0  2  0  0  0  0  0  0
  -29.7880  -12.8460   17.7550 C   0  0  0  0  0  2  0  0  0  0  0  0
  -28.4470  -12.4310   18.3710 C   0  0  0  0  0  2  0  0  0  0  0  0
  -27.9330  -13.5260   19.3230 C   0  0  0  0  0  3  0  0  0  0  0  0
  -29.0140  -14.0660   20.2990 C   0  0  0  0  0  2  0  0  0  0  0  0
  -30.0420  -14.7800   19.4730 N   0  0  0  0  0  0  0  0  0  0  0  0
  -31.7720  -16.0720   19.4250 O   0  0  0  0  0  0  0  0  0  0  0  0
  -29.7620  -17.6640   19.4110 N   0  0  0  0  0  0  0  0  0  0  0  0
  -28.8090  -17.3790   19.2330 H   0  0  0  0  0  0  0  0  0  0  0  0
  -25.6760  -14.0680   20.3300 C   0  0  0  0  0  0  0  0  0  0  0  0
  -24.6270  -13.3020   20.7480 C   0  0  0  0  0  0  0  0  0  0  0  0
  -25.0520  -11.9420   20.6170 C   0  0  0  0  0  0  0  0  0  0  0  0
  -26.6700  -13.1860   19.9620 N   0  0  0  0  0  0  0  0  0  0  0  0
  -26.3120  -11.8920   20.1940 N   0  0  0  0  0  0  0  0  0  0  0  0
  -24.3000  -10.6940   20.8130 C   0  0  0  0  0  0  0  0  0  0  0  0
  -24.6900   -9.7350   21.7730 C   0  0  0  0  0  3  0  0  0  0  0  0
  -23.9310   -8.5590   21.9610 C   0  0  0  0  0  3  0  0  0  0  0  0
  -22.7660   -8.3340   21.1890 C   0  0  0  0  0  0  0  0  0  0  0  0
  -22.3950   -9.2800   20.2170 C   0  0  0  0  0  3  0  0  0  0  0  0
  -23.1550  -10.4480   20.0280 C   0  0  0  0  0  3  0  0  0  0  0  0
  -21.9840   -7.2080   21.2840 O   0  0  0  0  0  0  0  0  0  0  0  0
  -21.7690   -6.5790   22.4850 C   0  0  0  0  0  0  0  0  0  0  0  0
  -21.1800   -7.2470   23.5800 C   0  0  0  0  0  3  0  0  0  0  0  0
  -20.9150   -6.5440   24.7720 C   0  0  0  0  0  3  0  0  0  0  0  0
  -21.2290   -5.1750   24.8690 C   0  0  0  0  0  0  0  0  0  0  0  0
  -21.8110   -4.5070   23.7770 C   0  0  0  0  0  3  0  0  0  0  0  0
  -22.0780   -5.2070   22.5860 C   0  0  0  0  0  0  0  0  0  0  0  0
  -22.6190   -4.5550   21.5310 F   0  0  0  0  0  0  0  0  0  0  0  0
  -20.9680   -4.4980   26.0110 F   0  0  0  0  0  0  0  0  0  0  0  0
  -23.2720  -13.8050   21.1470 C   0  0  0  0  0  0  0  0  0  0  0  0
  -22.6090  -13.1070   22.0630 N   0  0  0  0  0  0  0  0  0  0  0  0
  -22.8170  -14.8500   20.6850 O   0  0  0  0  0  0  0  0  0  0  0  0
  -22.9950  -12.2590   22.4530 H   0  0  0  0  0  0  0  0  0  0  0  0
  -21.7040  -13.4190   22.3820 H   0  0  0  0  0  0  0  0  0  0  0  0
  -25.8550  -15.4430   20.1960 N   0  0  0  0  0  0  0  0  0  0  0  0
  -25.1120  -16.1030   20.3980 H   0  0  0  0  0  0  0  0  0  0  0  0
  -26.6870  -15.8840   19.8310 H   0  0  0  0  0  0  0  0  0  0  0  0
  -28.4400  -23.4120   19.6370 C   0  0  0  0  0 15  0  0  0  0  0  0
  -28.2690  -25.2680   19.2620 O   0  0  0  0  0  1  0  0  0  0  0  0
  -24.6860  -31.5680   22.7800 C   0  0  0  0  0  0  0  0  0  0  0  0
  -27.2660  -26.5440   19.4240 C   0  0  0  0  0  0  0  0  0  0  0  0
  -23.5030  -30.2340   21.0950 C   0  0  0  0  0  3  0  0  0  0  0  0
  -24.9600  -28.6700   19.5600 C   0  0  0  0  0  0  0  0  0  0  0  0
  -26.0860  -30.3900   20.9350 C   0  0  0  0  0  2  0  0  0  0  0  0
  -26.1730  -28.9740   20.1900 C   0  0  0  0  0  0  0  0  0  0  0  0
  -27.2990  -27.9540   20.0760 C   0  0  0  0  0  3  0  0  0  0  0  0
  -26.0010  -26.5160   18.7610 C   0  0  0  0  0  3  0  0  0  0  0  0
  -24.9270  -27.4740   18.8200 C   0  0  0  0  0  3  0  0  0  0  0  0
  -23.7390  -29.6140   19.6850 C   0  0  0  0  0  2  0  0  0  0  0  0
  -24.7870  -30.7660   21.6580 N   0  0  0  0  0  0  0  0  0  0  0  0
  -23.5940  -31.8150   23.3240 O   0  0  0  0  0  0  0  0  0  0  0  0
  -22.8150  -29.1980   22.0280 C   0  0  0  0  0  0  0  0  0  0  0  0
  -21.4740  -29.0660   21.9740 N   0  0  0  0  0  0  0  0  0  0  0  0
  -23.5060  -28.5080   22.7790 O   0  0  0  0  0  0  0  0  0  0  0  0
  -20.9570  -29.6790   21.3590 H   0  0  0  0  0  0  0  0  0  0  0  0
  -18.1100  -27.8290   22.6200 C   0  0  0  0  0  0  0  0  0  0  0  0
  -20.6870  -28.0600   22.7060 C   0  0  0  0  0  3  0  0  0  0  0  0
  -20.7250  -26.6930   21.9830 C   0  0  0  0  0  2  0  0  0  0  0  0
  -19.5410  -26.4780   21.0350 C   0  0  0  0  0  2  0  0  0  0  0  0
  -18.2190  -26.5530   21.8030 C   0  0  0  0  0  2  0  0  0  0  0  0
  -19.2670  -28.5420   23.0350 C   0  0  0  0  0  0  0  0  0  0  0  0
  -19.1040  -29.7290   23.7830 C   0  0  0  0  0  3  0  0  0  0  0  0
  -17.8200  -30.2120   24.1000 C   0  0  0  0  0  3  0  0  0  0  0  0
  -16.6800  -29.5010   23.6880 C   0  0  0  0  0  3  0  0  0  0  0  0
  -16.8280  -28.3080   22.9590 C   0  0  0  0  0  3  0  0  0  0  0  0
  -25.9360  -32.2290   23.4390 C   0  0  0  0  0  3  0  0  0  0  0  0
  -25.5540  -33.5710   23.9320 N   0  0  0  0  0  0  0  0  0  0  0  0
  -25.8200  -34.7310   23.3140 C   0  0  0  0  0  0  0  0  0  0  0  0
  -26.4620  -34.7870   22.2640 O   0  0  0  0  0  0  0  0  0  0  0  0
  -24.9740  -33.5950   24.7580 H   0  0  0  0  0  0  0  0  0  0  0  0
  -23.9950  -36.4720   23.2660 C   0  0  0  0  0  1  0  0  0  0  0  0
  -25.2970  -36.0350   23.9580 C   0  0  0  0  0  3  0  0  0  0  0  0
  -27.4220  -36.9440   24.7920 C   0  0  0  0  0  1  0  0  0  0  0  0
  -26.2700  -37.1480   23.9190 N   0  0  0  0  0  0  0  0  0  0  0  0
  -25.8260  -38.0250   24.1800 H   0  0  0  0  0  0  0  0  0  0  0  0
  -26.5200  -31.3790   24.6360 C   0  0  1  0  0  0  0  0  0  0  0  0
  -25.4730  -31.0120   25.7130 C   0  0  0  0  0  1  0  0  0  0  0  0
  -27.1420  -30.0590   24.1300 C   0  0  0  0  0  1  0  0  0  0  0  0
  -27.6650  -32.1610   25.3240 C   0  0  0  0  0  1  0  0  0  0  0  0
  1  2  1  0
  2  4  1  0
  3  5  1  0
  3  1  1  0
  6  4  1  0
  8 13  1  0
  9 10  1  0
  9  8  1  0
 11 10  1  0
 11 20  1  0
 11 12  1  0
 13  7  1  0
 13 12  1  0
 14  7  2  0
 15  7  1  0
 15  6  1  0
 16 15  1  0
 17 18  2  0
 18 37  1  0
 19 18  1  0
 19 22  1  0
 20 21  1  0
 20 17  1  0
 21 19  2  0
 22 23  1  0
 23 24  2  0
 25 28  1  0
 25 24  1  0
 26 25  2  0
 27 26  1  0
 27 22  2  0
 28 29  1  0
 29 34  2  0
 29 30  1  0
 30 31  2  0
 31 32  1  0
 32 36  1  0
 33 32  2  0
 34 33  1  0
 35 34  1  0
 37 38  1  0
 38 41  1  0
 38 40  1  0
 39 37  2  0
 42 17  1  0
 42 43  1  0
 44 42  1  0
 46 48  1  0
 47 58  2  0
 48 53  1  0
 49 57  1  0
 49 59  1  0
 50 56  1  0
 50 52  1  0
 51 57  1  0
 52 51  1  0
 53 52  2  0
 54 55  1  0
 54 48  2  0
 55 50  2  0
 56 49  1  0
 57 47  1  0
 59 61  2  0
 60 59  1  0
 62 60  1  0
 63 72  2  0
 63 68  1  0
 64 60  1  0
 64 68  1  0
 65 64  1  0
 66 67  1  0
 66 65  1  0
 67 63  1  0
 68 69  2  0
 69 70  1  0
 71 70  2  0
 72 71  1  0
 73 47  1  0
 73 74  1  0
 73 83  1  0
 74 77  1  0
 75 74  1  0
 75 79  1  0
 76 75  2  0
 79 78  1  0
 81 79  1  0
 81 82  1  0
 81 80  1  0
 83 86  1  1
 83 84  1  0
 85 83  1  0
M  ISO  4   7 100  15 100  45 101  46 101
M  END
>  <TORSDO>  (47) 
F 17

>  <SCORE>  (47) 
-13.396

>  <name>  (47) 
46

>  <ligand_id>  (47) 
46

>  <original_smiles>  (47) 
[H]c1c([H])c([H])c2c(c1[H])C([H])([H])C([H])([H])C([H])([H])C2([H])N([H])C(=O)C1([H])N(C(=O)C([H])(N([H])C(=O)C([H])(N([H])C([H])([H])[H])C([H])([H])[H])C(C([H])([H])[H])(C([H])([H])[H])C([H])([H])[H])C([H])([H])c2c([H])c(OC([H])([H])C3([H])C([H])([H])C([H])([H])C([H])([H])C([H])([H])C3([H])N([H])C(=O)N3C([H])([H])C([H])([H])C([H])([H])C([H])(n4nc(-c5c([H])c([H])c(Oc6c([H])c([H])c(F)c([H])c6F)c([H])c5[H])c(C(=O)N([H])[H])c4N([H])[H])C3([H])[H])c([H])c([H])c2C1([H])[H]

>  <smiles>  (47) 
[H]c1c([H])c([H])c2c(c1[H])C([H])([H])C([H])([H])C([H])([H])C2([H])N([H])C(=O)C1([H])N(C(=O)C([H])(N([H])C(=O)C([H])(N([H])C([H])([H])[H])C([H])([H])[H])C(C([H])([H])[H])(C([H])([H])[H])C([H])([H])[H])C([H])([H])c2c([H])c(OC([H])([H])C3([H])C([H])([H])C([H])([H])C([H])([H])C([H])([H])C3([H])N([H])C(=O)N3C([H])([H])C([H])([H])C([H])([H])C([H])(n4nc(-c5c([H])c([H])c(Oc6c([H])c([H])c(F)c([H])c6F)c([H])c5[H])c(C(=O)N([H])[H])c4N([H])[H])C3([H])[H])c([H])c([H])c2C1([H])[H]

$$$$
47:0:0
     RDKit          3D

 91 99  0  0  1  0  0  0  0  0999 V2000
  -29.0020  -18.1960   19.3590 C   0  0  0  0  0  3  0  0  0  0  0  0
  -29.6960  -18.1030   20.5430 C   0  0  0  0  0  0  0  0  0  0  0  0
  -29.1300  -20.1880   20.1930 C   0  0  0  0  0  0  0  0  0  0  0  0
  -28.6550  -19.5330   19.1390 N   0  0  0  0  0  0  0  0  0  0  0  0
  -29.0960  -21.5610   20.4570 N   0  0  0  0  0  0  0  0  0  0  0  0
  -29.7730  -19.3800   21.0900 O   0  0  0  0  0  0  0  0  0  0  0  0
  -29.4920  -21.8200   21.3550 H   0  0  0  0  0  0  0  0  0  0  0  0
  -30.3900  -16.9550   21.2720 C   0  0  0  0  0  2  0  0  0  0  0  0
  -30.6390  -14.5420   20.4920 C   0  0  0  0  0  0  0  0  0  0  0  0
  -30.3660  -12.3660   19.3420 C   0  0  0  0  0  2  0  0  0  0  0  0
  -29.4210  -12.5500   18.1350 C   0  0  0  0  0  2  0  0  0  0  0  0
  -27.9480  -12.4040   18.5660 C   0  0  0  0  0  2  0  0  0  0  0  0
  -27.6050  -13.2450   19.8250 C   0  0  0  0  0  3  0  0  0  0  0  0
  -28.6610  -13.0370   20.9350 C   0  0  0  0  0  2  0  0  0  0  0  0
  -29.9780  -13.3570   20.3610 N   0  0  0  0  0  0  0  0  0  0  0  0
  -31.7830  -14.7070   20.0620 O   0  0  0  0  0  0  0  0  0  0  0  0
  -29.9170  -15.5770   20.9880 N   0  0  0  0  0  0  0  0  0  0  0  0
  -28.9770  -15.3570   21.2800 H   0  0  0  0  0  0  0  0  0  0  0  0
  -25.2090  -13.8520   20.5310 C   0  0  0  0  0  0  0  0  0  0  0  0
  -24.1400  -13.0810   20.8990 C   0  0  0  0  0  0  0  0  0  0  0  0
  -24.6010  -11.7290   20.8720 C   0  0  0  0  0  0  0  0  0  0  0  0
  -26.2530  -12.9700   20.3040 N   0  0  0  0  0  0  0  0  0  0  0  0
  -25.8910  -11.6890   20.5680 N   0  0  0  0  0  0  0  0  0  0  0  0
  -23.8740  -10.4670   21.0630 C   0  0  0  0  0  0  0  0  0  0  0  0
  -24.3110   -9.4960   21.9900 C   0  0  0  0  0  3  0  0  0  0  0  0
  -23.5840   -8.2980   22.1670 C   0  0  0  0  0  3  0  0  0  0  0  0
  -22.4060   -8.0650   21.4180 C   0  0  0  0  0  0  0  0  0  0  0  0
  -21.9890   -9.0250   20.4810 C   0  0  0  0  0  3  0  0  0  0  0  0
  -22.7150  -10.2140   20.3010 C   0  0  0  0  0  3  0  0  0  0  0  0
  -21.6510   -6.9210   21.5070 O   0  0  0  0  0  0  0  0  0  0  0  0
  -21.6140   -6.1690   22.6540 C   0  0  0  0  0  0  0  0  0  0  0  0
  -21.2030   -6.7140   23.8890 C   0  0  0  0  0  3  0  0  0  0  0  0
  -21.1140   -5.8890   25.0290 C   0  0  0  0  0  3  0  0  0  0  0  0
  -21.4260   -4.5200   24.9320 C   0  0  0  0  0  0  0  0  0  0  0  0
  -21.8300   -3.9740   23.7010 C   0  0  0  0  0  3  0  0  0  0  0  0
  -21.9210   -4.7970   22.5640 C   0  0  0  0  0  0  0  0  0  0  0  0
  -22.2910   -4.2610   21.3760 F   0  0  0  0  0  0  0  0  0  0  0  0
  -21.3320   -3.7240   26.0240 F   0  0  0  0  0  0  0  0  0  0  0  0
  -22.7410  -13.5600   21.1660 C   0  0  0  0  0  0  0  0  0  0  0  0
  -22.0090  -12.8630   22.0280 N   0  0  0  0  0  0  0  0  0  0  0  0
  -22.3070  -14.5860   20.6440 O   0  0  0  0  0  0  0  0  0  0  0  0
  -22.3730  -12.0320   22.4700 H   0  0  0  0  0  0  0  0  0  0  0  0
  -21.0720  -13.1660   22.2500 H   0  0  0  0  0  0  0  0  0  0  0  0
  -25.3740  -15.2220   20.3500 N   0  0  0  0  0  0  0  0  0  0  0  0
  -24.6050  -15.8750   20.4520 H   0  0  0  0  0  0  0  0  0  0  0  0
  -26.2210  -15.6600   20.0090 H   0  0  0  0  0  0  0  0  0  0  0  0
  -28.6960  -22.7340   19.6450 C   0  0  0  0  0  2  0  0  0  0  0  0
  -28.6530  -24.1130   20.3690 C   0  0  0  0  0  0  0  0  0  0  0  0
  -28.6860  -24.1690   21.6040 O   0  0  0  0  0  0  0  0  0  0  0  0
  -28.5970  -25.3990   19.4870 C   0  0  0  0  0  2  0  0  0  0  0  0
  -28.4510  -26.6480   20.2280 O   0  0  0  0  0  0  0  0  0  0  0  0
  -24.6080  -31.8890   23.2280 C   0  0  0  0  0  0  0  0  0  0  0  0
  -27.2710  -27.3860   20.1840 C   0  0  0  0  0  0  0  0  0  0  0  0
  -23.4170  -30.4810   21.5820 C   0  0  0  0  0  3  0  0  0  0  0  0
  -24.8810  -28.9350   20.1740 C   0  0  0  0  0  0  0  0  0  0  0  0
  -25.9510  -30.8240   21.4090 C   0  0  0  0  0  2  0  0  0  0  0  0
  -26.0380  -29.4470   20.7710 C   0  0  0  0  0  0  0  0  0  0  0  0
  -27.2320  -28.6800   20.7720 C   0  0  0  0  0  3  0  0  0  0  0  0
  -26.0820  -26.8970   19.5930 C   0  0  0  0  0  3  0  0  0  0  0  0
  -24.9010  -27.6610   19.5850 C   0  0  0  0  0  3  0  0  0  0  0  0
  -23.6390  -29.7990   20.2070 C   0  0  0  0  0  2  0  0  0  0  0  0
  -24.6770  -31.0810   22.1300 N   0  0  0  0  0  0  0  0  0  0  0  0
  -23.5210  -32.1640   23.7550 O   0  0  0  0  0  0  0  0  0  0  0  0
  -22.7560  -29.4640   22.5410 C   0  0  0  0  0  0  0  0  0  0  0  0
  -21.4300  -29.2910   22.4130 N   0  0  0  0  0  0  0  0  0  0  0  0
  -23.4330  -28.8330   23.3560 O   0  0  0  0  0  0  0  0  0  0  0  0
  -20.9420  -29.8520   21.7270 H   0  0  0  0  0  0  0  0  0  0  0  0
  -18.0430  -28.1360   22.9250 C   0  0  0  0  0  0  0  0  0  0  0  0
  -20.6060  -28.3570   23.1800 C   0  0  0  0  0  3  0  0  0  0  0  0
  -20.6860  -26.9290   22.5910 C   0  0  0  0  0  2  0  0  0  0  0  0
  -19.5740  -26.6300   21.5830 C   0  0  0  0  0  2  0  0  0  0  0  0
  -18.1970  -26.7900   22.2370 C   0  0  0  0  0  2  0  0  0  0  0  0
  -19.1760  -28.8780   23.3530 C   0  0  0  0  0  0  0  0  0  0  0  0
  -18.9770  -30.1400   23.9560 C   0  0  0  0  0  3  0  0  0  0  0  0
  -17.6810  -30.6580   24.1340 C   0  0  0  0  0  3  0  0  0  0  0  0
  -16.5640  -29.9110   23.7220 C   0  0  0  0  0  3  0  0  0  0  0  0
  -16.7460  -28.6510   23.1230 C   0  0  0  0  0  3  0  0  0  0  0  0
  -25.8870  -32.5240   23.8560 C   0  0  0  0  0  3  0  0  0  0  0  0
  -26.3980  -31.7570   25.1370 C   0  0  1  0  0  0  0  0  0  0  0  0
  -25.2990  -31.5170   26.1980 C   0  0  0  0  0  1  0  0  0  0  0  0
  -26.9870  -30.3800   24.7500 C   0  0  0  0  0  1  0  0  0  0  0  0
  -27.5420  -32.5560   25.8050 C   0  0  0  0  0  1  0  0  0  0  0  0
  -25.5730  -33.9220   24.1800 N   0  0  0  0  0  0  0  0  0  0  0  0
  -25.9100  -34.9740   23.4230 C   0  0  0  0  0  0  0  0  0  0  0  0
  -26.5890  -34.8690   22.3970 O   0  0  0  0  0  0  0  0  0  0  0  0
  -24.9720  -34.0780   24.9770 H   0  0  0  0  0  0  0  0  0  0  0  0
  -24.1860  -36.7650   23.0440 C   0  0  0  0  0  1  0  0  0  0  0  0
  -25.4160  -36.3620   23.8720 C   0  0  0  0  0  3  0  0  0  0  0  0
  -27.5380  -37.2490   24.7320 C   0  0  0  0  0  1  0  0  0  0  0  0
  -26.4490  -37.4150   23.7730 N   0  0  0  0  0  0  0  0  0  0  0  0
  -26.0410  -38.3350   23.9130 H   0  0  0  0  0  0  0  0  0  0  0  0
  1  2  2  0
  2  6  1  0
  2  8  1  0
  3  5  1  0
  3  6  1  0
  4  1  1  0
  4  3  2  0
  5  7  1  0
  9 17  1  0
 10 15  1  0
 11 12  1  0
 11 10  1  0
 13 12  1  0
 13 22  1  0
 13 14  1  0
 15  9  1  0
 15 14  1  0
 16  9  2  0
 17  8  1  0
 17 18  1  0
 19 20  2  0
 20 39  1  0
 21 20  1  0
 21 24  1  0
 22 19  1  0
 22 23  1  0
 23 21  2  0
 24 25  1  0
 25 26  2  0
 27 30  1  0
 27 26  1  0
 28 27  2  0
 29 28  1  0
 29 24  2  0
 30 31  1  0
 31 32  1  0
 32 33  2  0
 34 33  1  0
 34 38  1  0
 35 34  2  0
 36 31  2  0
 36 35  1  0
 37 36  1  0
 39 40  1  0
 40 43  1  0
 40 42  1  0
 41 39  2  0
 44 45  1  0
 44 19  1  0
 46 44  1  0
 47 48  1  0
 47  5  1  0
 48 49  2  0
 50 51  1  0
 50 48  1  0
 52 63  2  0
 53 51  1  0
 53 58  1  0
 54 62  1  0
 54 64  1  0
 55 61  1  0
 55 57  1  0
 56 62  1  0
 57 58  2  0
 57 56  1  0
 59 53  2  0
 60 59  1  0
 60 55  2  0
 61 54  1  0
 62 52  1  0
 64 66  2  0
 65 64  1  0
 67 65  1  0
 68 77  2  0
 68 73  1  0
 69 65  1  0
 69 73  1  0
 70 69  1  0
 71 72  1  0
 71 70  1  0
 72 68  1  0
 73 74  2  0
 74 75  1  0
 76 75  2  0
 77 76  1  0
 78 52  1  0
 78 83  1  0
 78 79  1  0
 79 82  1  1
 79 80  1  0
 81 79  1  0
 83 86  1  0
 84 88  1  0
 84 83  1  0
 85 84  2  0
 88 87  1  0
 90 88  1  0
 90 91  1  0
 90 89  1  0
M  ISO  4   9 100  17 100  50 101  51 101
M  END
>  <TORSDO>  (48) 
F 20

>  <SCORE>  (48) 
-13.977

>  <name>  (48) 
47

>  <ligand_id>  (48) 
47

>  <original_smiles>  (48) 
[H]c1nc(N([H])C([H])([H])C(=O)C([H])([H])Oc2c([H])c([H])c3c(c2[H])C([H])([H])N(C(=O)C([H])(N([H])C(=O)C([H])(N([H])C([H])([H])[H])C([H])([H])[H])C(C([H])([H])[H])(C([H])([H])[H])C([H])([H])[H])C([H])(C(=O)N([H])C2([H])c4c([H])c([H])c([H])c([H])c4C([H])([H])C([H])([H])C2([H])[H])C3([H])[H])oc1C([H])([H])N([H])C(=O)N1C([H])([H])C([H])([H])C([H])([H])C([H])(n2nc(-c3c([H])c([H])c(Oc4c([H])c([H])c(F)c([H])c4F)c([H])c3[H])c(C(=O)N([H])[H])c2N([H])[H])C1([H])[H]

>  <smiles>  (48) 
[H]c1nc(N([H])C([H])([H])C(=O)C([H])([H])Oc2c([H])c([H])c3c(c2[H])C([H])([H])N(C(=O)C([H])(N([H])C(=O)C([H])(N([H])C([H])([H])[H])C([H])([H])[H])C(C([H])([H])[H])(C([H])([H])[H])C([H])([H])[H])C([H])(C(=O)N([H])C2([H])c4c([H])c([H])c([H])c([H])c4C([H])([H])C([H])([H])C2([H])[H])C3([H])[H])oc1C([H])([H])N([H])C(=O)N1C([H])([H])C([H])([H])C([H])([H])C([H])(n2nc(-c3c([H])c([H])c(Oc4c([H])c([H])c(F)c([H])c4F)c([H])c3[H])c(C(=O)N([H])[H])c2N([H])[H])C1([H])[H]

$$$$
48:0:0
     RDKit          3D

 96104  0  0  1  0  0  0  0  0999 V2000
  -29.6860  -20.6870   21.4470 C   0  0  0  0  0  0  0  0  0  0  0  0
  -29.6040  -20.8160   22.7820 N   0  0  0  0  0  4  0  0  0  0  0  0
  -29.3710  -21.7590   20.6590 N   0  0  0  0  0  0  0  0  0  0  0  0
  -29.8780  -20.0390   23.3630 H   0  0  0  0  0  0  0  0  0  0  0  0
  -29.3980  -21.6880   23.2360 H   0  0  0  0  0  0  0  0  0  0  0  0
  -29.5080  -21.6660   19.6610 H   0  0  0  0  0  0  0  0  0  0  0  0
  -30.9780  -14.7960   20.0840 C   0  0  0  0  0  0  0  0  0  0  0  0
  -30.6340  -12.6270   18.9410 C   0  0  0  0  0  2  0  0  0  0  0  0
  -29.6270  -12.8230   17.7870 C   0  0  0  0  0  2  0  0  0  0  0  0
  -28.1770  -12.6590   18.2870 C   0  0  0  0  0  2  0  0  0  0  0  0
  -27.8990  -13.4860   19.5700 C   0  0  0  0  0  3  0  0  0  0  0  0
  -29.0150  -13.2810   20.6230 C   0  0  0  0  0  2  0  0  0  0  0  0
  -30.3090  -13.6050   19.9970 N   0  0  0  0  0  0  0  0  0  0  0  0
  -32.0480  -14.9750   19.4950 O   0  0  0  0  0  0  0  0  0  0  0  0
  -29.8520  -18.1440   21.5230 C   0  0  0  0  0  3  0  0  0  0  0  0
  -30.0850  -19.3650   20.9290 C   0  0  0  0  0  0  0  0  0  0  0  0
  -30.4420  -17.2050   20.6140 C   0  0  0  0  0  0  0  0  0  0  0  0
  -30.9760  -17.8330   19.5650 N   0  0  0  0  0  0  0  0  0  0  0  0
  -30.3800  -15.7790   20.8090 N   0  0  0  0  0  0  0  0  0  0  0  0
  -30.7560  -19.2120   19.7570 O   0  0  0  0  0  0  0  0  0  0  0  0
  -29.6660  -15.4690   21.4470 H   0  0  0  0  0  0  0  0  0  0  0  0
  -25.5530  -14.0820   20.4440 C   0  0  0  0  0  0  0  0  0  0  0  0
  -24.5010  -13.3060   20.8500 C   0  0  0  0  0  0  0  0  0  0  0  0
  -24.9430  -11.9520   20.7400 C   0  0  0  0  0  0  0  0  0  0  0  0
  -26.5730  -13.2010   20.1170 N   0  0  0  0  0  0  0  0  0  0  0  0
  -26.2120  -11.9120   20.3520 N   0  0  0  0  0  0  0  0  0  0  0  0
  -24.2140  -10.6920   20.9290 C   0  0  0  0  0  0  0  0  0  0  0  0
  -24.6260   -9.7360   21.8820 C   0  0  0  0  0  3  0  0  0  0  0  0
  -23.8970   -8.5400   22.0590 C   0  0  0  0  0  3  0  0  0  0  0  0
  -22.7420   -8.2910   21.2800 C   0  0  0  0  0  0  0  0  0  0  0  0
  -22.3500   -9.2350   20.3150 C   0  0  0  0  0  3  0  0  0  0  0  0
  -23.0790  -10.4220   20.1380 C   0  0  0  0  0  3  0  0  0  0  0  0
  -21.9860   -7.1460   21.3640 O   0  0  0  0  0  0  0  0  0  0  0  0
  -21.8310   -6.4710   22.5470 C   0  0  0  0  0  0  0  0  0  0  0  0
  -21.2400   -7.0760   23.6790 C   0  0  0  0  0  3  0  0  0  0  0  0
  -21.0360   -6.3240   24.8520 C   0  0  0  0  0  3  0  0  0  0  0  0
  -21.4110   -4.9690   24.8960 C   0  0  0  0  0  0  0  0  0  0  0  0
  -21.9950   -4.3630   23.7700 C   0  0  0  0  0  3  0  0  0  0  0  0
  -22.2010   -5.1120   22.5980 C   0  0  0  0  0  0  0  0  0  0  0  0
  -22.7430   -4.5180   21.5070 F   0  0  0  0  0  0  0  0  0  0  0  0
  -21.2090   -4.2450   26.0210 F   0  0  0  0  0  0  0  0  0  0  0  0
  -23.1290  -13.7860   21.2280 C   0  0  0  0  0  0  0  0  0  0  0  0
  -22.4520  -13.0690   22.1180 N   0  0  0  0  0  0  0  0  0  0  0  0
  -22.6690  -14.8330   20.7730 O   0  0  0  0  0  0  0  0  0  0  0  0
  -22.8350  -12.2220   22.5090 H   0  0  0  0  0  0  0  0  0  0  0  0
  -21.5340  -13.3740   22.4120 H   0  0  0  0  0  0  0  0  0  0  0  0
  -25.7210  -15.4580   20.3050 N   0  0  0  0  0  0  0  0  0  0  0  0
  -24.9670  -16.1130   20.4790 H   0  0  0  0  0  0  0  0  0  0  0  0
  -26.5450  -15.8990   19.9170 H   0  0  0  0  0  0  0  0  0  0  0  0
  -28.6630  -23.0030   21.1170 C   0  0  0  0  0  3  0  0  0  0  0  0
  -29.0810  -24.3360   20.4070 C   0  0  0  0  0  0  0  0  0  0  0  0
  -29.8640  -24.3670   19.4530 O   0  0  0  0  0  0  0  0  0  0  0  0
  -28.4660  -25.6550   20.9720 C   0  0  0  0  0  2  0  0  0  0  0  0
  -28.6250  -26.8240   20.1210 O   0  0  0  0  0  0  0  0  0  0  0  0
  -24.7310  -31.9460   23.2210 C   0  0  0  0  0  0  0  0  0  0  0  0
  -27.4840  -27.6030   20.0810 C   0  0  0  0  0  0  0  0  0  0  0  0
  -23.5640  -30.5300   21.5600 C   0  0  0  0  0  3  0  0  0  0  0  0
  -25.0590  -29.0650   20.0990 C   0  0  0  0  0  0  0  0  0  0  0  0
  -26.0790  -30.9660   21.3590 C   0  0  0  0  0  2  0  0  0  0  0  0
  -26.2040  -29.6040   20.7010 C   0  0  0  0  0  0  0  0  0  0  0  0
  -27.4220  -28.8810   20.6900 C   0  0  0  0  0  3  0  0  0  0  0  0
  -26.3260  -27.0910   19.4570 C   0  0  0  0  0  3  0  0  0  0  0  0
  -25.1170  -27.8110   19.4680 C   0  0  0  0  0  3  0  0  0  0  0  0
  -23.7920  -29.8870   20.1650 C   0  0  0  0  0  2  0  0  0  0  0  0
  -24.8110  -31.1630   22.1060 N   0  0  0  0  0  0  0  0  0  0  0  0
  -23.6430  -32.1730   23.7690 O   0  0  0  0  0  0  0  0  0  0  0  0
  -22.9510  -29.4720   22.5060 C   0  0  0  0  0  0  0  0  0  0  0  0
  -21.6370  -29.2340   22.3670 N   0  0  0  0  0  0  0  0  0  0  0  0
  -23.6540  -28.8720   23.3240 O   0  0  0  0  0  0  0  0  0  0  0  0
  -21.1310  -29.7740   21.6790 H   0  0  0  0  0  0  0  0  0  0  0  0
  -18.3130  -27.8800   22.8170 C   0  0  0  0  0  0  0  0  0  0  0  0
  -20.8540  -28.2540   23.1190 C   0  0  0  0  0  3  0  0  0  0  0  0
  -21.0270  -26.8330   22.5380 C   0  0  0  0  0  2  0  0  0  0  0  0
  -19.9520  -26.4650   21.5100 C   0  0  0  0  0  2  0  0  0  0  0  0
  -18.5560  -26.5460   22.1350 C   0  0  0  0  0  2  0  0  0  0  0  0
  -19.3910  -28.6910   23.2630 C   0  0  0  0  0  0  0  0  0  0  0  0
  -19.1080  -29.9400   23.8560 C   0  0  0  0  0  3  0  0  0  0  0  0
  -17.7800  -30.3810   24.0120 C   0  0  0  0  0  3  0  0  0  0  0  0
  -16.7160  -29.5670   23.5850 C   0  0  0  0  0  3  0  0  0  0  0  0
  -16.9840  -28.3190   22.9940 C   0  0  0  0  0  3  0  0  0  0  0  0
  -25.9980  -32.6100   23.8460 C   0  0  0  0  0  3  0  0  0  0  0  0
  -26.5340  -31.8500   25.1210 C   0  0  1  0  0  0  0  0  0  0  0  0
  -25.4460  -31.5600   26.1820 C   0  0  0  0  0  1  0  0  0  0  0  0
  -27.1710  -30.5000   24.7160 C   0  0  0  0  0  1  0  0  0  0  0  0
  -27.6450  -32.6840   25.8010 C   0  0  0  0  0  1  0  0  0  0  0  0
  -25.6510  -33.9980   24.1780 N   0  0  0  0  0  0  0  0  0  0  0  0
  -25.9490  -35.0600   23.4190 C   0  0  0  0  0  0  0  0  0  0  0  0
  -26.6170  -34.9770   22.3840 O   0  0  0  0  0  0  0  0  0  0  0  0
  -25.0680  -34.1370   24.9900 H   0  0  0  0  0  0  0  0  0  0  0  0
  -24.1710  -36.8020   23.0640 C   0  0  0  0  0  1  0  0  0  0  0  0
  -25.4200  -36.4310   23.8790 C   0  0  0  0  0  3  0  0  0  0  0  0
  -27.5240  -37.3720   24.7240 C   0  0  0  0  0  1  0  0  0  0  0  0
  -26.4200  -37.5150   23.7780 N   0  0  0  0  0  0  0  0  0  0  0  0
  -25.9860  -38.4210   23.9360 H   0  0  0  0  0  0  0  0  0  0  0  0
  -27.1380  -22.7800   21.0110 C   0  0  0  0  0  2  0  0  0  0  0  0
  -26.6670  -23.0510   19.7910 F   0  0  0  0  0  0  0  0  0  0  0  0
  1  2  2  0
  2  5  1  0
  2  4  1  0
  3 50  1  0
  3  1  1  0
  6  3  1  0
  7 19  1  0
  8 13  1  0
  9 10  1  0
  9  8  1  0
 11 10  1  0
 11 25  1  0
 11 12  1  0
 13  7  1  0
 13 12  1  0
 14  7  2  0
 16  1  1  0
 16 15  2  0
 17 19  1  0
 17 15  1  0
 18 20  1  0
 18 17  2  0
 19 21  1  0
 20 16  1  0
 22 23  2  0
 23 42  1  0
 24 23  1  0
 24 27  1  0
 25 26  1  0
 25 22  1  0
 26 24  2  0
 27 28  1  0
 28 29  2  0
 30 33  1  0
 30 29  1  0
 31 30  2  0
 32 31  1  0
 32 27  2  0
 33 34  1  0
 34 39  2  0
 34 35  1  0
 35 36  2  0
 36 37  1  0
 37 41  1  0
 38 37  2  0
 39 38  1  0
 40 39  1  0
 42 43  1  0
 43 46  1  0
 43 45  1  0
 44 42  2  0
 47 22  1  0
 47 48  1  0
 49 47  1  0
 50 95  1  0
 51 53  1  0
 51 50  1  0
 52 51  2  0
 54 53  1  0
 55 66  2  0
 56 54  1  0
 56 61  1  0
 57 65  1  0
 57 67  1  0
 58 64  1  0
 58 60  1  0
 59 65  1  0
 60 59  1  0
 61 60  2  0
 62 63  1  0
 62 56  2  0
 63 58  2  0
 64 57  1  0
 65 55  1  0
 67 69  2  0
 68 67  1  0
 70 68  1  0
 71 80  2  0
 71 76  1  0
 72 68  1  0
 72 76  1  0
 73 72  1  0
 74 75  1  0
 74 73  1  0
 75 71  1  0
 76 77  2  0
 77 78  1  0
 79 78  2  0
 80 79  1  0
 81 55  1  0
 81 86  1  0
 81 82  1  0
 82 85  1  1
 82 83  1  0
 84 82  1  0
 86 89  1  0
 87 91  1  0
 87 86  1  0
 88 87  2  0
 91 90  1  0
 93 91  1  0
 93 94  1  0
 93 92  1  0
 96 95  1  0
M  ISO  4   7 100  19 100  53 101  54 101
M  END
>  <TORSDO>  (49) 
F 20

>  <SCORE>  (49) 
-13.264

>  <name>  (49) 
48

>  <ligand_id>  (49) 
48

>  <original_smiles>  (49) 
[H]c1c(N([H])C(=O)N2C([H])([H])C([H])([H])C([H])([H])C([H])(n3nc(-c4c([H])c([H])c(Oc5c([H])c([H])c(F)c([H])c5F)c([H])c4[H])c(C(=O)N([H])[H])c3N([H])[H])C2([H])[H])noc1C(N([H])[H])=[N+]([H])C([H])(C(=O)C([H])([H])Oc1c([H])c([H])c2c(c1[H])C([H])([H])N(C(=O)C([H])(N([H])C(=O)C([H])(N([H])C([H])([H])[H])C([H])([H])[H])C(C([H])([H])[H])(C([H])([H])[H])C([H])([H])[H])C([H])(C(=O)N([H])C1([H])c3c([H])c([H])c([H])c([H])c3C([H])([H])C([H])([H])C1([H])[H])C2([H])[H])C([H])([H])F

>  <smiles>  (49) 
[H]c1c(N([H])C(=O)N2C([H])([H])C([H])([H])C([H])([H])C([H])(n3nc(-c4c([H])c([H])c(Oc5c([H])c([H])c(F)c([H])c5F)c([H])c4[H])c(C(=O)N([H])[H])c3N([H])[H])C2([H])[H])noc1C(N([H])[H])=[N+]([H])C([H])(C(=O)C([H])([H])Oc1c([H])c([H])c2c(c1[H])C([H])([H])N(C(=O)C([H])(N([H])C(=O)C([H])(N([H])C([H])([H])[H])C([H])([H])[H])C(C([H])([H])[H])(C([H])([H])[H])C([H])([H])[H])C([H])(C(=O)N([H])C1([H])c3c([H])c([H])c([H])c([H])c3C([H])([H])C([H])([H])C1([H])[H])C2([H])[H])C([H])([H])F

$$$$
49:0:0
     RDKit          3D

 93101  0  0  1  0  0  0  0  0999 V2000
  -29.0020  -20.3990   20.9020 C   0  0  0  0  0  0  0  0  0  0  0  0
  -27.8540  -20.3860   21.3620 O   0  0  0  0  0  0  0  0  0  0  0  0
  -29.2570  -17.7950   20.9990 C   0  0  0  0  0  3  0  0  0  0  0  0
  -29.7120  -19.1060   20.6530 C   0  0  0  0  0  0  0  0  0  0  0  0
  -30.2100  -16.9110   20.5720 C   0  0  0  0  0  0  0  0  0  0  0  0
  -30.9250  -18.8850   20.0380 C   0  0  0  0  0  0  0  0  0  0  0  0
  -31.2530  -17.5590   19.9760 O   0  0  0  0  0  0  0  0  0  0  0  0
  -30.8270  -14.5870   20.1370 C   0  0  0  0  0  0  0  0  0  0  0  0
  -30.5290  -12.4460   18.9530 C   0  0  0  0  0  2  0  0  0  0  0  0
  -29.5430  -12.6760   17.7870 C   0  0  0  0  0  2  0  0  0  0  0  0
  -28.0810  -12.5300   18.2600 C   0  0  0  0  0  2  0  0  0  0  0  0
  -27.7850  -13.3290   19.5560 C   0  0  0  0  0  3  0  0  0  0  0  0
  -28.8760  -13.0640   20.6200 C   0  0  0  0  0  2  0  0  0  0  0  0
  -30.1830  -13.3940   20.0220 N   0  0  0  0  0  0  0  0  0  0  0  0
  -31.9440  -14.7950   19.6530 O   0  0  0  0  0  0  0  0  0  0  0  0
  -30.0860  -15.5620   20.6970 N   0  0  0  0  0  0  0  0  0  0  0  0
  -29.2200  -15.2410   21.0990 H   0  0  0  0  0  0  0  0  0  0  0  0
  -25.3970  -13.9090   20.3250 C   0  0  0  0  0  0  0  0  0  0  0  0
  -24.3450  -13.1240   20.7210 C   0  0  0  0  0  0  0  0  0  0  0  0
  -24.8250  -11.7780   20.6810 C   0  0  0  0  0  0  0  0  0  0  0  0
  -26.4470  -13.0410   20.0700 N   0  0  0  0  0  0  0  0  0  0  0  0
  -26.1070  -11.7560   20.3410 N   0  0  0  0  0  0  0  0  0  0  0  0
  -24.1210  -10.5070   20.8900 C   0  0  0  0  0  0  0  0  0  0  0  0
  -24.5540   -9.5740   21.8570 C   0  0  0  0  0  3  0  0  0  0  0  0
  -23.8510   -8.3660   22.0520 C   0  0  0  0  0  3  0  0  0  0  0  0
  -22.7010   -8.0810   21.2810 C   0  0  0  0  0  0  0  0  0  0  0  0
  -22.2860   -9.0030   20.3020 C   0  0  0  0  0  3  0  0  0  0  0  0
  -22.9900  -10.2020   20.1060 C   0  0  0  0  0  3  0  0  0  0  0  0
  -21.9700   -6.9230   21.3840 O   0  0  0  0  0  0  0  0  0  0  0  0
  -21.8730   -6.2350   22.5670 C   0  0  0  0  0  0  0  0  0  0  0  0
  -21.3430   -6.8310   23.7330 C   0  0  0  0  0  3  0  0  0  0  0  0
  -21.1970   -6.0680   24.9080 C   0  0  0  0  0  3  0  0  0  0  0  0
  -21.5710   -4.7100   24.9180 C   0  0  0  0  0  0  0  0  0  0  0  0
  -22.0930   -4.1130   23.7560 C   0  0  0  0  0  3  0  0  0  0  0  0
  -22.2390   -4.8760   22.5840 C   0  0  0  0  0  0  0  0  0  0  0  0
  -22.7230   -4.2910   21.4610 F   0  0  0  0  0  0  0  0  0  0  0  0
  -21.4240   -3.9740   26.0450 F   0  0  0  0  0  0  0  0  0  0  0  0
  -22.9490  -13.5830   21.0280 C   0  0  0  0  0  0  0  0  0  0  0  0
  -22.2520  -12.8720   21.9070 N   0  0  0  0  0  0  0  0  0  0  0  0
  -22.4840  -14.6050   20.5230 O   0  0  0  0  0  0  0  0  0  0  0  0
  -22.6420  -12.0450   22.3340 H   0  0  0  0  0  0  0  0  0  0  0  0
  -21.3170  -13.1570   22.1580 H   0  0  0  0  0  0  0  0  0  0  0  0
  -25.5430  -15.2810   20.1390 N   0  0  0  0  0  0  0  0  0  0  0  0
  -24.7740  -15.9310   20.2580 H   0  0  0  0  0  0  0  0  0  0  0  0
  -26.3750  -15.7200   19.7670 H   0  0  0  0  0  0  0  0  0  0  0  0
  -31.8060  -19.8090   19.4870 N   0  0  0  0  0  0  0  0  0  0  0  0
  -31.6310  -20.8050   19.4230 H   0  0  0  0  0  0  0  0  0  0  0  0
  -32.6920  -19.5520   19.0630 H   0  0  0  0  0  0  0  0  0  0  0  0
  -29.6850  -21.7510   20.5930 C   0  0  0  0  0  2  0  0  0  0  0  0
  -28.8090  -22.9810   20.9540 C   0  0  0  0  0  2  0  0  0  0  0  0
  -29.3080  -24.3670   20.4710 C   0  0  0  0  0  2  0  0  0  0  0  0
  -28.2710  -25.4560   20.8270 C   0  0  0  0  0  2  0  0  0  0  0  0
  -28.5040  -26.7540   20.2460 O   0  0  0  0  0  0  0  0  0  0  0  0
  -24.6350  -31.9280   23.2570 C   0  0  0  0  0  0  0  0  0  0  0  0
  -27.3620  -27.5280   20.1900 C   0  0  0  0  0  0  0  0  0  0  0  0
  -23.4690  -30.5310   21.5810 C   0  0  0  0  0  3  0  0  0  0  0  0
  -24.9630  -29.0260   20.1620 C   0  0  0  0  0  0  0  0  0  0  0  0
  -25.9980  -30.9060   21.4420 C   0  0  0  0  0  2  0  0  0  0  0  0
  -26.1050  -29.5450   20.7860 C   0  0  0  0  0  0  0  0  0  0  0  0
  -27.3090  -28.8020   20.8010 C   0  0  0  0  0  3  0  0  0  0  0  0
  -26.2110  -27.0420   19.5300 C   0  0  0  0  0  3  0  0  0  0  0  0
  -25.0110  -27.7750   19.5270 C   0  0  0  0  0  3  0  0  0  0  0  0
  -23.7070  -29.8680   20.1990 C   0  0  0  0  0  2  0  0  0  0  0  0
  -24.7170  -31.1370   22.1510 N   0  0  0  0  0  0  0  0  0  0  0  0
  -23.5420  -32.1870   23.7790 O   0  0  0  0  0  0  0  0  0  0  0  0
  -22.8120  -29.4950   22.5210 C   0  0  0  0  0  0  0  0  0  0  0  0
  -21.4880  -29.3190   22.3850 N   0  0  0  0  0  0  0  0  0  0  0  0
  -23.4920  -28.8560   23.3290 O   0  0  0  0  0  0  0  0  0  0  0  0
  -21.0030  -29.8810   21.6990 H   0  0  0  0  0  0  0  0  0  0  0  0
  -18.1040  -28.1530   22.8780 C   0  0  0  0  0  0  0  0  0  0  0  0
  -20.6650  -28.3710   23.1370 C   0  0  0  0  0  3  0  0  0  0  0  0
  -20.7470  -26.9540   22.5240 C   0  0  0  0  0  2  0  0  0  0  0  0
  -19.6340  -26.6720   21.5100 C   0  0  0  0  0  2  0  0  0  0  0  0
  -18.2580  -26.8220   22.1650 C   0  0  0  0  0  2  0  0  0  0  0  0
  -19.2360  -28.8890   23.3200 C   0  0  0  0  0  0  0  0  0  0  0  0
  -19.0390  -30.1400   23.9450 C   0  0  0  0  0  3  0  0  0  0  0  0
  -17.7430  -30.6540   24.1340 C   0  0  0  0  0  3  0  0  0  0  0  0
  -16.6240  -29.9150   23.7110 C   0  0  0  0  0  3  0  0  0  0  0  0
  -16.8060  -28.6670   23.0880 C   0  0  0  0  0  3  0  0  0  0  0  0
  -25.9050  -32.5640   23.9020 C   0  0  0  0  0  3  0  0  0  0  0  0
  -25.5870  -33.9630   24.2190 N   0  0  0  0  0  0  0  0  0  0  0  0
  -25.9230  -35.0120   23.4560 C   0  0  0  0  0  0  0  0  0  0  0  0
  -26.6110  -34.9050   22.4370 O   0  0  0  0  0  0  0  0  0  0  0  0
  -24.9890  -34.1210   25.0170 H   0  0  0  0  0  0  0  0  0  0  0  0
  -24.1940  -36.7880   23.0510 C   0  0  0  0  0  1  0  0  0  0  0  0
  -25.4180  -36.3980   23.8940 C   0  0  0  0  0  3  0  0  0  0  0  0
  -27.5310  -37.2950   24.7660 C   0  0  0  0  0  1  0  0  0  0  0  0
  -26.4460  -37.4580   23.8020 N   0  0  0  0  0  0  0  0  0  0  0  0
  -26.0300  -38.3750   23.9480 H   0  0  0  0  0  0  0  0  0  0  0  0
  -26.3980  -31.7990   25.1920 C   0  0  1  0  0  0  0  0  0  0  0  0
  -25.2840  -31.5540   26.2350 C   0  0  0  0  0  1  0  0  0  0  0  0
  -27.0020  -30.4260   24.8150 C   0  0  0  0  0  1  0  0  0  0  0  0
  -27.5290  -32.6020   25.8770 C   0  0  0  0  0  1  0  0  0  0  0  0
  1  2  2  0
  4  1  1  0
  4  3  1  0
  5 16  1  0
  5  3  2  0
  6  4  2  0
  7  6  1  0
  7  5  1  0
  8 16  1  0
  9 14  1  0
 10 11  1  0
 10  9  1  0
 12 11  1  0
 12 21  1  0
 12 13  1  0
 14  8  1  0
 14 13  1  0
 15  8  2  0
 16 17  1  0
 18 19  2  0
 19 38  1  0
 20 19  1  0
 20 23  1  0
 21 18  1  0
 21 22  1  0
 22 20  2  0
 23 24  1  0
 24 25  2  0
 26 29  1  0
 26 25  1  0
 27 26  2  0
 28 27  1  0
 28 23  2  0
 29 30  1  0
 30 35  2  0
 30 31  1  0
 31 32  2  0
 32 33  1  0
 33 37  1  0
 34 33  2  0
 35 34  1  0
 36 35  1  0
 38 39  1  0
 39 42  1  0
 39 41  1  0
 40 38  2  0
 43 44  1  0
 43 18  1  0
 45 43  1  0
 46  6  1  0
 47 46  1  0
 48 46  1  0
 49  1  1  0
 49 50  1  0
 51 52  1  0
 51 50  1  0
 53 52  1  0
 54 65  2  0
 55 53  1  0
 55 60  1  0
 56 64  1  0
 56 66  1  0
 57 63  1  0
 57 59  1  0
 58 64  1  0
 59 60  2  0
 59 58  1  0
 61 55  2  0
 62 61  1  0
 62 57  2  0
 63 56  1  0
 64 54  1  0
 66 68  2  0
 67 66  1  0
 69 67  1  0
 70 79  2  0
 70 75  1  0
 71 67  1  0
 71 75  1  0
 72 71  1  0
 73 74  1  0
 73 72  1  0
 74 70  1  0
 75 76  2  0
 76 77  1  0
 78 77  2  0
 79 78  1  0
 80 54  1  0
 80 81  1  0
 80 90  1  0
 81 84  1  0
 82 86  1  0
 82 81  1  0
 83 82  2  0
 86 85  1  0
 88 86  1  0
 88 89  1  0
 88 87  1  0
 90 93  1  1
 90 91  1  0
 92 90  1  0
M  ISO  4   8 100  16 100  52 101  53 101
M  END
>  <TORSDO>  (50) 
F 22

>  <SCORE>  (50) 
-12.650

>  <name>  (50) 
49

>  <ligand_id>  (50) 
49

>  <original_smiles>  (50) 
[H]c1c([H])c([H])c2c(c1[H])C([H])([H])C([H])([H])C([H])([H])C2([H])N([H])C(=O)C1([H])N(C(=O)C([H])(N([H])C(=O)C([H])(N([H])C([H])([H])[H])C([H])([H])[H])C(C([H])([H])[H])(C([H])([H])[H])C([H])([H])[H])C([H])([H])c2c([H])c(OC([H])([H])C([H])([H])C([H])([H])C([H])([H])C(=O)c3c(N([H])[H])oc(N([H])C(=O)N4C([H])([H])C([H])([H])C([H])([H])C([H])(n5nc(-c6c([H])c([H])c(Oc7c([H])c([H])c(F)c([H])c7F)c([H])c6[H])c(C(=O)N([H])[H])c5N([H])[H])C4([H])[H])c3[H])c([H])c([H])c2C1([H])[H]

>  <smiles>  (50) 
[H]c1c([H])c([H])c2c(c1[H])C([H])([H])C([H])([H])C([H])([H])C2([H])N([H])C(=O)C1([H])N(C(=O)C([H])(N([H])C(=O)C([H])(N([H])C([H])([H])[H])C([H])([H])[H])C(C([H])([H])[H])(C([H])([H])[H])C([H])([H])[H])C([H])([H])c2c([H])c(OC([H])([H])C([H])([H])C([H])([H])C([H])([H])C(=O)c3c(N([H])[H])oc(N([H])C(=O)N4C([H])([H])C([H])([H])C([H])([H])C([H])(n5nc(-c6c([H])c([H])c(Oc7c([H])c([H])c(F)c([H])c7F)c([H])c6[H])c(C(=O)N([H])[H])c5N([H])[H])C4([H])[H])c3[H])c([H])c([H])c2C1([H])[H]

$$$$
50:0:0
     RDKit          3D

 95103  0  0  1  0  0  0  0  0999 V2000
  -30.9060  -19.0690   19.5830 C   0  0  0  0  0  0  0  0  0  0  0  0
  -30.2670  -18.1370   20.3840 C   0  0  0  0  0  0  0  0  0  0  0  0
  -29.2810  -20.4150   20.4570 C   0  0  0  0  0  0  0  0  0  0  0  0
  -30.3380  -20.3550   19.6550 N   0  0  0  0  0  0  0  0  0  0  0  0
  -28.6510  -21.6150   20.7870 N   0  0  0  0  0  0  0  0  0  0  0  0
  -28.8640  -18.8440   21.1700 S   0  0  0  0  0  0  0  0  0  0  0  0
  -27.7600  -21.4830   21.2540 H   0  0  0  0  0  0  0  0  0  0  0  0
  -30.7480  -14.5160   20.1160 C   0  0  0  0  0  0  0  0  0  0  0  0
  -30.3140  -12.3800   18.9560 C   0  0  0  0  0  2  0  0  0  0  0  0
  -29.3260  -12.5850   17.7950 C   0  0  0  0  0  2  0  0  0  0  0  0
  -27.8760  -12.4510   18.2970 C   0  0  0  0  0  2  0  0  0  0  0  0
  -27.5990  -13.2920   19.5730 C   0  0  0  0  0  3  0  0  0  0  0  0
  -28.7090  -13.1070   20.6310 C   0  0  0  0  0  2  0  0  0  0  0  0
  -29.9940  -13.3900   19.9780 N   0  0  0  0  0  0  0  0  0  0  0  0
  -31.9080  -14.5470   19.6990 O   0  0  0  0  0  0  0  0  0  0  0  0
  -30.7570  -16.8000   20.8320 C   0  0  0  0  0  0  0  0  0  0  0  0
  -30.1110  -15.6590   20.4860 N   0  0  0  0  0  0  0  0  0  0  0  0
  -31.8130  -16.7930   21.4760 O   0  0  0  0  0  0  0  0  0  0  0  0
  -29.1170  -15.6970   20.3490 H   0  0  0  0  0  0  0  0  0  0  0  0
  -25.2460  -13.8970   20.4080 C   0  0  0  0  0  0  0  0  0  0  0  0
  -24.1920  -13.1250   20.8150 C   0  0  0  0  0  0  0  0  0  0  0  0
  -24.6440  -11.7720   20.7500 C   0  0  0  0  0  0  0  0  0  0  0  0
  -26.2740  -13.0150   20.1190 N   0  0  0  0  0  0  0  0  0  0  0  0
  -25.9200  -11.7300   20.3860 N   0  0  0  0  0  0  0  0  0  0  0  0
  -23.9210  -10.5110   20.9570 C   0  0  0  0  0  0  0  0  0  0  0  0
  -24.3500   -9.5600   21.9080 C   0  0  0  0  0  3  0  0  0  0  0  0
  -23.6250   -8.3640   22.1020 C   0  0  0  0  0  3  0  0  0  0  0  0
  -22.4560   -8.1120   21.3450 C   0  0  0  0  0  0  0  0  0  0  0  0
  -22.0450   -9.0520   20.3840 C   0  0  0  0  0  3  0  0  0  0  0  0
  -22.7710  -10.2390   20.1880 C   0  0  0  0  0  3  0  0  0  0  0  0
  -21.7020   -6.9680   21.4470 O   0  0  0  0  0  0  0  0  0  0  0  0
  -21.6190   -6.2640   22.6220 C   0  0  0  0  0  0  0  0  0  0  0  0
  -21.1050   -6.8440   23.8030 C   0  0  0  0  0  3  0  0  0  0  0  0
  -20.9720   -6.0640   24.9690 C   0  0  0  0  0  3  0  0  0  0  0  0
  -21.3420   -4.7060   24.9560 C   0  0  0  0  0  0  0  0  0  0  0  0
  -21.8470   -4.1250   23.7790 C   0  0  0  0  0  3  0  0  0  0  0  0
  -21.9820   -4.9020   22.6140 C   0  0  0  0  0  0  0  0  0  0  0  0
  -22.4500   -4.3330   21.4780 F   0  0  0  0  0  0  0  0  0  0  0  0
  -21.2080   -3.9550   26.0730 F   0  0  0  0  0  0  0  0  0  0  0  0
  -22.8110  -13.6070   21.1510 C   0  0  0  0  0  0  0  0  0  0  0  0
  -22.1120  -12.8970   22.0310 N   0  0  0  0  0  0  0  0  0  0  0  0
  -22.3610  -14.6480   20.6730 O   0  0  0  0  0  0  0  0  0  0  0  0
  -22.4900  -12.0540   22.4380 H   0  0  0  0  0  0  0  0  0  0  0  0
  -21.1870  -13.2010   22.3020 H   0  0  0  0  0  0  0  0  0  0  0  0
  -25.4100  -15.2690   20.2340 N   0  0  0  0  0  0  0  0  0  0  0  0
  -24.6480  -15.9240   20.3750 H   0  0  0  0  0  0  0  0  0  0  0  0
  -26.2380  -15.7050   19.8510 H   0  0  0  0  0  0  0  0  0  0  0  0
  -32.1010  -18.7920   18.7750 C   0  0  0  0  0  0  0  0  0  0  0  0
  -32.7660  -20.0030   18.1300 C   0  0  0  0  0  1  0  0  0  0  0  0
  -32.5900  -17.6790   18.5640 O   0  0  0  0  0  0  0  0  0  0  0  0
  -29.1780  -22.9860   20.9470 C   0  0  0  0  0  2  0  0  0  0  0  0
  -28.3470  -24.1400   20.3320 C   0  0  0  0  0  0  0  0  0  0  0  0
  -27.7170  -23.9710   19.2820 O   0  0  0  0  0  0  0  0  0  0  0  0
  -28.3320  -25.4950   21.0870 C   0  0  0  0  0  2  0  0  0  0  0  0
  -28.3270  -26.6490   20.2180 O   0  0  0  0  0  0  0  0  0  0  0  0
  -24.5730  -31.9040   23.3000 C   0  0  0  0  0  0  0  0  0  0  0  0
  -27.1790  -27.4120   20.2490 C   0  0  0  0  0  0  0  0  0  0  0  0
  -23.3630  -30.5160   21.6490 C   0  0  0  0  0  3  0  0  0  0  0  0
  -24.8090  -28.9560   20.2400 C   0  0  0  0  0  0  0  0  0  0  0  0
  -25.8970  -30.8390   21.4720 C   0  0  0  0  0  2  0  0  0  0  0  0
  -25.9710  -29.4650   20.8350 C   0  0  0  0  0  0  0  0  0  0  0  0
  -27.1620  -28.7010   20.8340 C   0  0  0  0  0  3  0  0  0  0  0  0
  -26.0030  -26.9180   19.6510 C   0  0  0  0  0  3  0  0  0  0  0  0
  -24.8190  -27.6820   19.6470 C   0  0  0  0  0  3  0  0  0  0  0  0
  -23.5760  -29.8320   20.2730 C   0  0  0  0  0  2  0  0  0  0  0  0
  -24.6290  -31.1020   22.1970 N   0  0  0  0  0  0  0  0  0  0  0  0
  -23.4910  -32.1900   23.8310 O   0  0  0  0  0  0  0  0  0  0  0  0
  -22.6910  -29.5050   22.6050 C   0  0  0  0  0  0  0  0  0  0  0  0
  -21.3650  -29.3450   22.4710 N   0  0  0  0  0  0  0  0  0  0  0  0
  -23.3600  -28.8660   23.4220 O   0  0  0  0  0  0  0  0  0  0  0  0
  -20.8880  -29.9080   21.7790 H   0  0  0  0  0  0  0  0  0  0  0  0
  -17.9650  -28.2250   22.9700 C   0  0  0  0  0  0  0  0  0  0  0  0
  -20.5290  -28.4210   23.2360 C   0  0  0  0  0  3  0  0  0  0  0  0
  -20.5980  -26.9940   22.6470 C   0  0  0  0  0  2  0  0  0  0  0  0
  -19.4860  -26.7060   21.6330 C   0  0  0  0  0  2  0  0  0  0  0  0
  -18.1090  -26.8780   22.2820 C   0  0  0  0  0  2  0  0  0  0  0  0
  -19.1010  -28.9560   23.4030 C   0  0  0  0  0  0  0  0  0  0  0  0
  -18.9140  -30.2190   24.0060 C   0  0  0  0  0  3  0  0  0  0  0  0
  -17.6230  -30.7500   24.1790 C   0  0  0  0  0  3  0  0  0  0  0  0
  -16.5000  -30.0150   23.7630 C   0  0  0  0  0  3  0  0  0  0  0  0
  -16.6720  -28.7530   23.1640 C   0  0  0  0  0  3  0  0  0  0  0  0
  -25.8630  -32.5170   23.9300 C   0  0  0  0  0  3  0  0  0  0  0  0
  -26.3360  -31.7700   25.2370 C   0  0  1  0  0  0  0  0  0  0  0  0
  -25.2140  -31.5790   26.2850 C   0  0  0  0  0  1  0  0  0  0  0  0
  -26.9000  -30.3720   24.8920 C   0  0  0  0  0  1  0  0  0  0  0  0
  -27.4880  -32.5580   25.9040 C   0  0  0  0  0  1  0  0  0  0  0  0
  -25.5870  -33.9320   24.2120 N   0  0  0  0  0  0  0  0  0  0  0  0
  -25.9620  -34.9520   23.4270 C   0  0  0  0  0  0  0  0  0  0  0  0
  -26.6480  -34.7980   22.4120 O   0  0  0  0  0  0  0  0  0  0  0  0
  -24.9820  -34.1280   24.9960 H   0  0  0  0  0  0  0  0  0  0  0  0
  -24.3030  -36.7840   22.9670 C   0  0  0  0  0  1  0  0  0  0  0  0
  -25.5020  -36.3650   23.8310 C   0  0  0  0  0  3  0  0  0  0  0  0
  -27.6260  -37.2130   24.7230 C   0  0  0  0  0  1  0  0  0  0  0  0
  -26.5700  -37.3840   23.7290 N   0  0  0  0  0  0  0  0  0  0  0  0
  -26.1870  -38.3200   23.8310 H   0  0  0  0  0  0  0  0  0  0  0  0
  1  4  1  0
  1  2  2  0
  2 16  1  0
  2  6  1  0
  3  5  1  0
  3  6  1  0
  4  3  2  0
  5 51  1  0
  5  7  1  0
  8 17  1  0
  9 14  1  0
 10 11  1  0
 10  9  1  0
 12 11  1  0
 12 23  1  0
 12 13  1  0
 14  8  1  0
 14 13  1  0
 15  8  2  0
 16 18  2  0
 17 16  1  0
 19 17  1  0
 20 21  2  0
 21 40  1  0
 22 21  1  0
 22 25  1  0
 23 24  1  0
 23 20  1  0
 24 22  2  0
 25 26  1  0
 26 27  2  0
 28 31  1  0
 28 27  1  0
 29 28  2  0
 30 29  1  0
 30 25  2  0
 31 32  1  0
 32 33  1  0
 33 34  2  0
 35 34  1  0
 35 39  1  0
 36 35  2  0
 37 32  2  0
 37 36  1  0
 38 37  1  0
 40 41  1  0
 41 44  1  0
 41 43  1  0
 42 40  2  0
 45 46  1  0
 45 20  1  0
 47 45  1  0
 48  1  1  0
 49 48  1  0
 50 48  2  0
 52 51  1  0
 52 54  1  0
 53 52  2  0
 55 57  1  0
 55 54  1  0
 56 67  2  0
 57 62  1  0
 58 66  1  0
 58 68  1  0
 59 65  1  0
 59 61  1  0
 60 66  1  0
 61 60  1  0
 62 61  2  0
 63 57  2  0
 64 63  1  0
 64 59  2  0
 65 58  1  0
 66 56  1  0
 68 70  2  0
 69 68  1  0
 71 69  1  0
 72 81  2  0
 72 77  1  0
 73 69  1  0
 73 77  1  0
 74 73  1  0
 75 76  1  0
 75 74  1  0
 76 72  1  0
 77 78  2  0
 78 79  1  0
 80 79  2  0
 81 80  1  0
 82 56  1  0
 82 87  1  0
 82 83  1  0
 83 86  1  1
 83 84  1  0
 85 83  1  0
 87 90  1  0
 88 92  1  0
 88 87  1  0
 89 88  2  0
 92 91  1  0
 94 95  1  0
 94 92  1  0
 94 93  1  0
M  ISO  4   8 100  17 100  54 101  55 101
M  END
>  <TORSDO>  (51) 
F 20

>  <SCORE>  (51) 
-13.257

>  <name>  (51) 
50

>  <ligand_id>  (51) 
50

>  <original_smiles>  (51) 
[H]c1c([H])c([H])c2c(c1[H])C([H])([H])C([H])([H])C([H])([H])C2([H])N([H])C(=O)C1([H])N(C(=O)C([H])(N([H])C(=O)C([H])(N([H])C([H])([H])[H])C([H])([H])[H])C(C([H])([H])[H])(C([H])([H])[H])C([H])([H])[H])C([H])([H])c2c([H])c(OC([H])([H])C(=O)C([H])([H])N([H])c3nc(C(=O)C([H])([H])[H])c(C(=O)N([H])C(=O)N4C([H])([H])C([H])([H])C([H])([H])C([H])(n5nc(-c6c([H])c([H])c(Oc7c([H])c([H])c(F)c([H])c7F)c([H])c6[H])c(C(=O)N([H])[H])c5N([H])[H])C4([H])[H])s3)c([H])c([H])c2C1([H])[H]

>  <smiles>  (51) 
[H]c1c([H])c([H])c2c(c1[H])C([H])([H])C([H])([H])C([H])([H])C2([H])N([H])C(=O)C1([H])N(C(=O)C([H])(N([H])C(=O)C([H])(N([H])C([H])([H])[H])C([H])([H])[H])C(C([H])([H])[H])(C([H])([H])[H])C([H])([H])[H])C([H])([H])c2c([H])c(OC([H])([H])C(=O)C([H])([H])N([H])c3nc(C(=O)C([H])([H])[H])c(C(=O)N([H])C(=O)N4C([H])([H])C([H])([H])C([H])([H])C([H])(n5nc(-c6c([H])c([H])c(Oc7c([H])c([H])c(F)c([H])c7F)c([H])c6[H])c(C(=O)N([H])[H])c5N([H])[H])C4([H])[H])s3)c([H])c([H])c2C1([H])[H]

$$$$
51:0:0
     RDKit          3D

 99107  0  0  1  0  0  0  0  0999 V2000
  -27.9740  -20.0390   19.9640 C   0  0  0  0  0  3  0  0  0  0  0  0
  -28.3380  -18.6910   20.2510 C   0  0  0  0  0  0  0  0  0  0  0  0
  -29.7020  -18.5910   20.3260 C   0  0  0  0  0  0  0  0  0  0  0  0
  -29.1670  -20.6990   19.8640 C   0  0  0  0  0  0  0  0  0  0  0  0
  -30.2290  -19.8450   20.0590 O   0  0  0  0  0  0  0  0  0  0  0  0
  -31.0320  -15.0470   20.0970 C   0  0  0  0  0  0  0  0  0  0  0  0
  -30.8920  -12.7070   19.3110 C   0  0  0  0  0  2  0  0  0  0  0  0
  -29.8940  -12.5720   18.1440 C   0  0  0  0  0  2  0  0  0  0  0  0
  -28.4640  -12.3600   18.6790 C   0  0  0  0  0  2  0  0  0  0  0  0
  -28.0750  -13.3840   19.7790 C   0  0  0  0  0  3  0  0  0  0  0  0
  -29.1840  -13.5110   20.8470 C   0  0  0  0  0  2  0  0  0  0  0  0
  -30.4340  -13.8250   20.1490 N   0  0  0  0  0  0  0  0  0  0  0  0
  -32.1910  -15.2170   19.7030 O   0  0  0  0  0  0  0  0  0  0  0  0
  -30.6450  -17.4860   20.5390 C   0  0  0  0  0  3  0  0  0  0  0  0
  -30.2030  -16.2190   20.2890 N   0  0  0  0  0  0  0  0  0  0  0  0
  -31.8920  -17.6890   21.0410 N   0  0  0  0  0  0  0  0  0  0  0  0
  -29.1950  -16.1710   20.3060 H   0  0  0  0  0  0  0  0  0  0  0  0
  -32.5210  -16.8940   21.0380 H   0  0  0  0  0  0  0  0  0  0  0  0
  -25.7670  -13.9160   20.7750 C   0  0  0  0  0  0  0  0  0  0  0  0
  -24.7470  -13.1070   21.1960 C   0  0  0  0  0  0  0  0  0  0  0  0
  -25.2110  -11.7660   21.0400 C   0  0  0  0  0  0  0  0  0  0  0  0
  -26.7850  -13.0620   20.3820 N   0  0  0  0  0  0  0  0  0  0  0  0
  -26.4640  -11.7610   20.6070 N   0  0  0  0  0  0  0  0  0  0  0  0
  -24.5100  -10.4870   21.2190 C   0  0  0  0  0  0  0  0  0  0  0  0
  -24.8040   -9.6340   22.3050 C   0  0  0  0  0  3  0  0  0  0  0  0
  -24.1090   -8.4160   22.4640 C   0  0  0  0  0  3  0  0  0  0  0  0
  -23.1030   -8.0460   21.5410 C   0  0  0  0  0  0  0  0  0  0  0  0
  -22.8290   -8.8910   20.4490 C   0  0  0  0  0  3  0  0  0  0  0  0
  -23.5260  -10.0990   20.2870 C   0  0  0  0  0  3  0  0  0  0  0  0
  -22.3920   -6.8710   21.6040 O   0  0  0  0  0  0  0  0  0  0  0  0
  -21.8800   -6.4050   22.7890 C   0  0  0  0  0  0  0  0  0  0  0  0
  -20.9420   -7.1470   23.5400 C   0  0  0  0  0  3  0  0  0  0  0  0
  -20.3910   -6.5990   24.7160 C   0  0  0  0  0  3  0  0  0  0  0  0
  -20.7630   -5.3070   25.1340 C   0  0  0  0  0  0  0  0  0  0  0  0
  -21.6930   -4.5660   24.3840 C   0  0  0  0  0  3  0  0  0  0  0  0
  -22.2470   -5.1130   23.2140 C   0  0  0  0  0  0  0  0  0  0  0  0
  -23.1270   -4.3850   22.4840 F   0  0  0  0  0  0  0  0  0  0  0  0
  -20.2270   -4.7780   26.2580 F   0  0  0  0  0  0  0  0  0  0  0  0
  -23.3820  -13.5550   21.6320 C   0  0  0  0  0  0  0  0  0  0  0  0
  -22.7750  -12.8370   22.5690 N   0  0  0  0  0  0  0  0  0  0  0  0
  -22.8650  -14.5750   21.1770 O   0  0  0  0  0  0  0  0  0  0  0  0
  -23.2130  -12.0160   22.9630 H   0  0  0  0  0  0  0  0  0  0  0  0
  -21.8620  -13.1190   22.8980 H   0  0  0  0  0  0  0  0  0  0  0  0
  -25.8940  -15.2970   20.6820 N   0  0  0  0  0  0  0  0  0  0  0  0
  -25.1530  -15.9040   21.0150 H   0  0  0  0  0  0  0  0  0  0  0  0
  -26.7400  -15.8150   20.4670 H   0  0  0  0  0  0  0  0  0  0  0  0
  -33.9790  -18.8490   21.7080 C   0  0  0  0  0  1  0  0  0  0  0  0
  -31.9020  -19.0040   23.1390 C   0  0  0  0  0  1  0  0  0  0  0  0
  -32.4400  -18.8900   21.6980 C   0  0  0  0  0  3  0  0  0  0  0  0
  -27.4430  -17.6250   20.3830 N   0  0  0  0  0  0  0  0  0  0  0  0
  -26.4840  -17.8790   20.1570 H   0  0  0  0  0  0  0  0  0  0  0  0
  -27.4090  -17.2020   21.3060 H   0  0  0  0  0  0  0  0  0  0  0  0
  -29.3710  -22.0660   19.5690 N   0  0  0  0  0  0  0  0  0  0  0  0
  -30.2920  -22.4960   19.6290 H   0  0  0  0  0  0  0  0  0  0  0  0
  -28.2460  -23.0290   19.5560 C   0  0  0  0  0  2  0  0  0  0  0  0
  -28.6040  -24.5330   19.3570 C   0  0  0  0  0  0  0  0  0  0  0  0
  -29.7580  -24.8870   19.0840 O   0  0  0  0  0  0  0  0  0  0  0  0
  -27.4430  -25.5500   19.5450 C   0  0  0  0  0  2  0  0  0  0  0  0
  -27.7780  -26.9450   19.2950 O   0  0  0  0  0  0  0  0  0  0  0  0
  -24.5530  -31.7990   23.4460 C   0  0  0  0  0  0  0  0  0  0  0  0
  -26.7040  -27.8010   19.4740 C   0  0  0  0  0  0  0  0  0  0  0  0
  -23.1560  -30.7590   21.6900 C   0  0  0  0  0  3  0  0  0  0  0  0
  -24.4180  -29.4290   19.9090 C   0  0  0  0  0  0  0  0  0  0  0  0
  -25.6820  -31.0220   21.3590 C   0  0  0  0  0  2  0  0  0  0  0  0
  -25.6430  -29.7780   20.4900 C   0  0  0  0  0  0  0  0  0  0  0  0
  -26.7920  -28.9720   20.2680 C   0  0  0  0  0  3  0  0  0  0  0  0
  -25.4610  -27.4900   18.8790 C   0  0  0  0  0  3  0  0  0  0  0  0
  -24.3240  -28.2870   19.0970 C   0  0  0  0  0  3  0  0  0  0  0  0
  -23.2320  -30.3210   20.2020 C   0  0  0  0  0  2  0  0  0  0  0  0
  -24.4870  -31.1980   22.2240 N   0  0  0  0  0  0  0  0  0  0  0  0
  -23.5280  -32.0210   24.1070 O   0  0  0  0  0  0  0  0  0  0  0  0
  -22.5140  -29.6170   22.5110 C   0  0  0  0  0  0  0  0  0  0  0  0
  -21.1890  -29.4500   22.3660 N   0  0  0  0  0  0  0  0  0  0  0  0
  -23.2030  -28.8940   23.2350 O   0  0  0  0  0  0  0  0  0  0  0  0
  -20.6970  -30.0960   21.7650 H   0  0  0  0  0  0  0  0  0  0  0  0
  -17.8520  -28.0790   22.5870 C   0  0  0  0  0  0  0  0  0  0  0  0
  -20.3800  -28.4160   23.0080 C   0  0  0  0  0  3  0  0  0  0  0  0
  -20.5730  -27.0460   22.3190 C   0  0  0  0  0  2  0  0  0  0  0  0
  -19.5350  -26.7660   21.2280 C   0  0  0  0  0  2  0  0  0  0  0  0
  -18.1210  -26.7990   21.8160 C   0  0  0  0  0  2  0  0  0  0  0  0
  -18.9150  -28.8440   23.1340 C   0  0  0  0  0  0  0  0  0  0  0  0
  -18.6130  -30.0400   23.8190 C   0  0  0  0  0  3  0  0  0  0  0  0
  -17.2820  -30.4720   23.9650 C   0  0  0  0  0  3  0  0  0  0  0  0
  -16.2330  -29.7020   23.4330 C   0  0  0  0  0  3  0  0  0  0  0  0
  -16.5170  -28.5090   22.7480 C   0  0  0  0  0  3  0  0  0  0  0  0
  -25.9130  -32.2530   24.0580 C   0  0  0  0  0  3  0  0  0  0  0  0
  -25.7400  -33.6250   24.5520 N   0  0  0  0  0  0  0  0  0  0  0  0
  -26.1830  -34.7210   23.9210 C   0  0  0  0  0  0  0  0  0  0  0  0
  -26.8460  -34.6750   22.8810 O   0  0  0  0  0  0  0  0  0  0  0  0
  -25.1670  -33.7430   25.3740 H   0  0  0  0  0  0  0  0  0  0  0  0
  -24.6550  -36.7120   23.7670 C   0  0  0  0  0  1  0  0  0  0  0  0
  -25.8300  -36.0880   24.5390 C   0  0  0  0  0  3  0  0  0  0  0  0
  -28.0250  -36.6380   25.4920 C   0  0  0  0  0  1  0  0  0  0  0  0
  -26.9670  -37.0330   24.5670 N   0  0  0  0  0  0  0  0  0  0  0  0
  -26.6530  -37.9650   24.8210 H   0  0  0  0  0  0  0  0  0  0  0  0
  -26.4210  -31.3050   25.2100 C   0  0  1  0  0  0  0  0  0  0  0  0
  -25.3480  -31.0010   26.2810 C   0  0  0  0  0  1  0  0  0  0  0  0
  -26.9100  -29.9540   24.6330 C   0  0  0  0  0  1  0  0  0  0  0  0
  -27.6340  -31.9490   25.9230 C   0  0  0  0  0  1  0  0  0  0  0  0
  1  2  1  0
  2  3  2  0
  2 50  1  0
  3 14  1  0
  4  1  2  0
  4  5  1  0
  5  3  1  0
  6 12  1  0
  6 15  1  0
  7 12  1  0
  8  9  1  0
  8  7  1  0
 10  9  1  0
 10 22  1  0
 10 11  1  0
 12 11  1  0
 13  6  2  0
 14 15  1  0
 14 16  1  0
 15 17  1  0
 16 49  1  0
 18 16  1  0
 19 20  2  0
 20 39  1  0
 21 20  1  0
 21 24  1  0
 22 23  1  0
 22 19  1  0
 23 21  2  0
 24 25  1  0
 25 26  2  0
 27 30  1  0
 27 26  1  0
 28 27  2  0
 29 28  1  0
 29 24  2  0
 30 31  1  0
 31 36  2  0
 31 32  1  0
 32 33  2  0
 33 34  1  0
 34 38  1  0
 35 34  2  0
 36 35  1  0
 37 36  1  0
 39 40  1  0
 40 43  1  0
 40 42  1  0
 41 39  2  0
 44 19  1  0
 44 45  1  0
 46 44  1  0
 49 47  1  0
 49 48  1  0
 50 52  1  0
 51 50  1  0
 53 54  1  0
 53  4  1  0
 55 53  1  0
 56 58  1  0
 56 55  1  0
 57 56  2  0
 59 61  1  0
 59 58  1  0
 60 71  2  0
 61 66  1  0
 62 70  1  0
 62 72  1  0
 63 69  1  0
 63 65  1  0
 64 70  1  0
 65 64  1  0
 66 65  2  0
 67 68  1  0
 67 61  2  0
 68 63  2  0
 69 62  1  0
 70 60  1  0
 72 74  2  0
 73 72  1  0
 75 73  1  0
 76 85  2  0
 76 81  1  0
 77 73  1  0
 77 81  1  0
 78 77  1  0
 79 80  1  0
 79 78  1  0
 80 76  1  0
 81 82  2  0
 82 83  1  0
 84 83  2  0
 85 84  1  0
 86 60  1  0
 86 87  1  0
 86 96  1  0
 87 90  1  0
 88 92  1  0
 88 87  1  0
 89 88  2  0
 92 91  1  0
 92 94  1  0
 94 95  1  0
 94 93  1  0
 96 99  1  1
 96 97  1  0
 98 96  1  0
M  ISO  4   6 100  15 100  58 101  59 101
M  END
>  <TORSDO>  (52) 
F 22

>  <SCORE>  (52) 
-9.975

>  <name>  (52) 
51

>  <ligand_id>  (52) 
51

>  <original_smiles>  (52) 
[H]c1c([H])c([H])c2c(c1[H])C([H])([H])C([H])([H])C([H])([H])C2([H])N([H])C(=O)C1([H])N(C(=O)C([H])(N([H])C(=O)C([H])(N([H])C([H])([H])[H])C([H])([H])[H])C(C([H])([H])[H])(C([H])([H])[H])C([H])([H])[H])C([H])([H])c2c([H])c(OC([H])([H])C(=O)C([H])([H])N([H])c3oc(C(N([H])C(=O)N4C([H])([H])C([H])([H])C([H])([H])C([H])(n5nc(-c6c([H])c([H])c(Oc7c([H])c([H])c(F)c([H])c7F)c([H])c6[H])c(C(=O)N([H])[H])c5N([H])[H])C4([H])[H])=[N+]([H])C([H])(C([H])([H])[H])C([H])([H])[H])c(N([H])[H])c3[H])c([H])c([H])c2C1([H])[H]

>  <smiles>  (52) 
[H]c1c([H])c([H])c2c(c1[H])C([H])([H])C([H])([H])C([H])([H])C2([H])N([H])C(=O)C1([H])N(C(=O)C([H])(N([H])C(=O)C([H])(N([H])C([H])([H])[H])C([H])([H])[H])C(C([H])([H])[H])(C([H])([H])[H])C([H])([H])[H])C([H])([H])c2c([H])c(OC([H])([H])C(=O)C([H])([H])N([H])c3oc(C(N([H])C(=O)N4C([H])([H])C([H])([H])C([H])([H])C([H])(n5nc(-c6c([H])c([H])c(Oc7c([H])c([H])c(F)c([H])c7F)c([H])c6[H])c(C(=O)N([H])[H])c5N([H])[H])C4([H])[H])=[N+]([H])C([H])(C([H])([H])[H])C([H])([H])[H])c(N([H])[H])c3[H])c([H])c([H])c2C1([H])[H]

$$$$
52:0:0
     RDKit          3D

 93101  0  0  1  0  0  0  0  0999 V2000
  -29.8370  -21.7710   20.2460 N   0  0  0  0  0  0  0  0  0  0  0  0
  -30.0300  -21.9360   21.2300 H   0  0  0  0  0  0  0  0  0  0  0  0
  -29.6510  -17.7000   18.9570 C   0  0  0  0  0  3  0  0  0  0  0  0
  -29.3460  -18.7330   18.0520 C   0  0  0  0  0  3  0  0  0  0  0  0
  -30.0570  -19.3760   20.6820 C   0  0  0  0  0  3  0  0  0  0  0  0
  -30.0070  -18.0100   20.2870 C   0  0  0  0  0  0  0  0  0  0  0  0
  -29.7540  -20.4320   19.7830 C   0  0  0  0  0  0  0  0  0  0  0  0
  -29.3880  -20.0840   18.4530 C   0  0  0  0  0  0  0  0  0  0  0  0
  -29.0730  -21.0310   17.5340 F   0  0  0  0  0  0  0  0  0  0  0  0
  -30.3730  -16.9170   21.3030 C   0  0  0  0  0  2  0  0  0  0  0  0
  -30.6410  -14.5240   20.5060 C   0  0  0  0  0  0  0  0  0  0  0  0
  -30.3740  -12.3610   19.3480 C   0  0  0  0  0  2  0  0  0  0  0  0
  -29.4270  -12.5430   18.1420 C   0  0  0  0  0  2  0  0  0  0  0  0
  -27.9520  -12.4040   18.5720 C   0  0  0  0  0  2  0  0  0  0  0  0
  -27.6100  -13.2390   19.8360 C   0  0  0  0  0  3  0  0  0  0  0  0
  -28.6660  -13.0110   20.9400 C   0  0  0  0  0  2  0  0  0  0  0  0
  -29.9820  -13.3400   20.3710 N   0  0  0  0  0  0  0  0  0  0  0  0
  -31.7750  -14.7100   20.0590 O   0  0  0  0  0  0  0  0  0  0  0  0
  -29.9220  -15.5370   21.0350 N   0  0  0  0  0  0  0  0  0  0  0  0
  -28.9910  -15.3100   21.3480 H   0  0  0  0  0  0  0  0  0  0  0  0
  -25.2090  -13.8470   20.5290 C   0  0  0  0  0  0  0  0  0  0  0  0
  -24.1420  -13.0770   20.9030 C   0  0  0  0  0  0  0  0  0  0  0  0
  -24.6050  -11.7250   20.8810 C   0  0  0  0  0  0  0  0  0  0  0  0
  -26.2570  -12.9650   20.3110 N   0  0  0  0  0  0  0  0  0  0  0  0
  -25.8970  -11.6830   20.5790 N   0  0  0  0  0  0  0  0  0  0  0  0
  -23.8800  -10.4630   21.0750 C   0  0  0  0  0  0  0  0  0  0  0  0
  -24.3220   -9.4880   21.9960 C   0  0  0  0  0  3  0  0  0  0  0  0
  -23.5970   -8.2910   22.1770 C   0  0  0  0  0  3  0  0  0  0  0  0
  -22.4130   -8.0600   21.4350 C   0  0  0  0  0  0  0  0  0  0  0  0
  -21.9890   -9.0230   20.5030 C   0  0  0  0  0  3  0  0  0  0  0  0
  -22.7170  -10.2110   20.3200 C   0  0  0  0  0  3  0  0  0  0  0  0
  -21.6550   -6.9170   21.5270 O   0  0  0  0  0  0  0  0  0  0  0  0
  -21.6350   -6.1570   22.6690 C   0  0  0  0  0  0  0  0  0  0  0  0
  -21.2550   -6.6970   23.9170 C   0  0  0  0  0  3  0  0  0  0  0  0
  -21.1810   -5.8650   25.0510 C   0  0  0  0  0  3  0  0  0  0  0  0
  -21.4770   -4.4940   24.9400 C   0  0  0  0  0  0  0  0  0  0  0  0
  -21.8520   -3.9520   23.6980 C   0  0  0  0  0  3  0  0  0  0  0  0
  -21.9280   -4.7820   22.5650 C   0  0  0  0  0  0  0  0  0  0  0  0
  -22.2680   -4.2520   21.3650 F   0  0  0  0  0  0  0  0  0  0  0  0
  -21.3990   -3.6920   26.0280 F   0  0  0  0  0  0  0  0  0  0  0  0
  -22.7420  -13.5520   21.1690 C   0  0  0  0  0  0  0  0  0  0  0  0
  -22.0150  -12.8590   22.0360 N   0  0  0  0  0  0  0  0  0  0  0  0
  -22.3050  -14.5740   20.6410 O   0  0  0  0  0  0  0  0  0  0  0  0
  -22.3830  -12.0300   22.4820 H   0  0  0  0  0  0  0  0  0  0  0  0
  -21.0760  -13.1580   22.2590 H   0  0  0  0  0  0  0  0  0  0  0  0
  -25.3720  -15.2140   20.3270 N   0  0  0  0  0  0  0  0  0  0  0  0
  -24.5900  -15.8570   20.3740 H   0  0  0  0  0  0  0  0  0  0  0  0
  -26.2030  -15.6280   19.9230 H   0  0  0  0  0  0  0  0  0  0  0  0
  -29.2060  -22.8880   19.5170 C   0  0  0  0  0  2  0  0  0  0  0  0
  -29.2750  -24.2770   20.1900 C   0  0  0  0  0  0  0  0  0  0  0  0
  -30.1120  -24.5430   21.0580 O   0  0  0  0  0  0  0  0  0  0  0  0
  -28.2090  -25.2840   19.7110 C   0  0  0  0  0  2  0  0  0  0  0  0
  -28.3550  -26.6380   20.1960 O   0  0  0  0  0  0  0  0  0  0  0  0
  -24.5920  -31.8860   23.2600 C   0  0  0  0  0  0  0  0  0  0  0  0
  -27.2000  -27.4120   20.1550 C   0  0  0  0  0  0  0  0  0  0  0  0
  -23.3750  -30.4900   21.6250 C   0  0  0  0  0  3  0  0  0  0  0  0
  -24.8170  -28.9630   20.1800 C   0  0  0  0  0  0  0  0  0  0  0  0
  -25.9060  -30.8310   21.4200 C   0  0  0  0  0  2  0  0  0  0  0  0
  -25.9820  -29.4620   20.7720 C   0  0  0  0  0  0  0  0  0  0  0  0
  -27.1750  -28.6960   20.7600 C   0  0  0  0  0  3  0  0  0  0  0  0
  -26.0090  -26.9520   19.5360 C   0  0  0  0  0  3  0  0  0  0  0  0
  -24.8290  -27.7100   19.5520 C   0  0  0  0  0  3  0  0  0  0  0  0
  -23.5780  -29.8230   20.2400 C   0  0  0  0  0  2  0  0  0  0  0  0
  -24.6420  -31.0830   22.1590 N   0  0  0  0  0  0  0  0  0  0  0  0
  -23.5120  -32.1620   23.7990 O   0  0  0  0  0  0  0  0  0  0  0  0
  -22.7240  -29.4660   22.5830 C   0  0  0  0  0  0  0  0  0  0  0  0
  -21.3980  -29.2920   22.4610 N   0  0  0  0  0  0  0  0  0  0  0  0
  -23.4070  -28.8330   23.3940 O   0  0  0  0  0  0  0  0  0  0  0  0
  -20.9100  -29.8500   21.7750 H   0  0  0  0  0  0  0  0  0  0  0  0
  -18.0160  -28.1090   22.9580 C   0  0  0  0  0  0  0  0  0  0  0  0
  -20.5760  -28.3550   23.2260 C   0  0  0  0  0  3  0  0  0  0  0  0
  -20.6730  -26.9260   22.6460 C   0  0  0  0  0  2  0  0  0  0  0  0
  -19.5670  -26.6090   21.6350 C   0  0  0  0  0  2  0  0  0  0  0  0
  -18.1860  -26.7590   22.2820 C   0  0  0  0  0  2  0  0  0  0  0  0
  -19.1380  -28.8660   23.3860 C   0  0  0  0  0  0  0  0  0  0  0  0
  -18.9280  -30.1320   23.9770 C   0  0  0  0  0  3  0  0  0  0  0  0
  -17.6250  -30.6380   24.1460 C   0  0  0  0  0  3  0  0  0  0  0  0
  -16.5170  -29.8770   23.7360 C   0  0  0  0  0  3  0  0  0  0  0  0
  -16.7130  -28.6140   23.1470 C   0  0  0  0  0  3  0  0  0  0  0  0
  -25.8810  -32.5120   23.8750 C   0  0  0  0  0  3  0  0  0  0  0  0
  -25.5780  -33.9110   24.2080 N   0  0  0  0  0  0  0  0  0  0  0  0
  -25.9100  -34.9610   23.4460 C   0  0  0  0  0  0  0  0  0  0  0  0
  -26.5760  -34.8550   22.4130 O   0  0  0  0  0  0  0  0  0  0  0  0
  -24.9870  -34.0690   25.0120 H   0  0  0  0  0  0  0  0  0  0  0  0
  -24.1850  -36.7570   23.1020 C   0  0  0  0  0  1  0  0  0  0  0  0
  -25.4290  -36.3510   23.9060 C   0  0  0  0  0  3  0  0  0  0  0  0
  -27.5770  -37.2240   24.7180 C   0  0  0  0  0  1  0  0  0  0  0  0
  -26.4630  -37.4010   23.7880 N   0  0  0  0  0  0  0  0  0  0  0  0
  -26.0630  -38.3210   23.9470 H   0  0  0  0  0  0  0  0  0  0  0  0
  -26.4000  -31.7350   25.1480 C   0  0  1  0  0  0  0  0  0  0  0  0
  -25.3100  -31.5020   26.2190 C   0  0  0  0  0  1  0  0  0  0  0  0
  -26.9730  -30.3560   24.7470 C   0  0  0  0  0  1  0  0  0  0  0  0
  -27.5610  -32.5210   25.8030 C   0  0  0  0  0  1  0  0  0  0  0  0
  1  2  1  0
  3  6  1  0
  4  8  1  0
  4  3  2  0
  6  5  2  0
  6 10  1  0
  7  1  1  0
  7  5  1  0
  8  7  2  0
  9  8  1  0
 11 19  1  0
 12 17  1  0
 13 14  1  0
 13 12  1  0
 15 14  1  0
 15 24  1  0
 15 16  1  0
 17 11  1  0
 17 16  1  0
 18 11  2  0
 19 10  1  0
 19 20  1  0
 21 22  2  0
 22 41  1  0
 23 22  1  0
 23 26  1  0
 24 21  1  0
 24 25  1  0
 25 23  2  0
 26 27  1  0
 27 28  2  0
 29 32  1  0
 29 28  1  0
 30 29  2  0
 31 30  1  0
 31 26  2  0
 32 33  1  0
 33 34  1  0
 34 35  2  0
 36 35  1  0
 36 40  1  0
 37 36  2  0
 38 33  2  0
 38 37  1  0
 39 38  1  0
 41 42  1  0
 42 45  1  0
 42 44  1  0
 43 41  2  0
 46 47  1  0
 46 21  1  0
 48 46  1  0
 49 50  1  0
 49  1  1  0
 50 51  2  0
 52 50  1  0
 52 53  1  0
 54 65  2  0
 55 53  1  0
 55 60  1  0
 56 64  1  0
 56 66  1  0
 57 63  1  0
 57 59  1  0
 58 64  1  0
 59 58  1  0
 60 59  2  0
 61 62  1  0
 61 55  2  0
 62 57  2  0
 63 56  1  0
 64 54  1  0
 66 68  2  0
 67 66  1  0
 69 67  1  0
 70 79  2  0
 70 75  1  0
 71 67  1  0
 71 75  1  0
 72 71  1  0
 73 74  1  0
 73 72  1  0
 74 70  1  0
 75 76  2  0
 76 77  1  0
 78 77  2  0
 79 78  1  0
 80 54  1  0
 80 81  1  0
 80 90  1  0
 81 84  1  0
 82 86  1  0
 82 81  1  0
 83 82  2  0
 86 85  1  0
 88 86  1  0
 88 89  1  0
 88 87  1  0
 90 93  1  1
 90 91  1  0
 92 90  1  0
M  ISO  4  11 100  19 100  52 101  53 101
M  END
>  <TORSDO>  (53) 
F 21

>  <SCORE>  (53) 
-13.667

>  <name>  (53) 
52

>  <ligand_id>  (53) 
52

>  <original_smiles>  (53) 
[H]c1c([H])c([H])c2c(c1[H])C([H])([H])C([H])([H])C([H])([H])C2([H])N([H])C(=O)C1([H])N(C(=O)C([H])(N([H])C(=O)C([H])(N([H])C([H])([H])[H])C([H])([H])[H])C(C([H])([H])[H])(C([H])([H])[H])C([H])([H])[H])C([H])([H])c2c([H])c(OC([H])([H])C(=O)C([H])([H])N([H])c3c([H])c(C([H])([H])N([H])C(=O)N4C([H])([H])C([H])([H])C([H])([H])C([H])(n5nc(-c6c([H])c([H])c(Oc7c([H])c([H])c(F)c([H])c7F)c([H])c6[H])c(C(=O)N([H])[H])c5N([H])[H])C4([H])[H])c([H])c([H])c3F)c([H])c([H])c2C1([H])[H]

>  <smiles>  (53) 
[H]c1c([H])c([H])c2c(c1[H])C([H])([H])C([H])([H])C([H])([H])C2([H])N([H])C(=O)C1([H])N(C(=O)C([H])(N([H])C(=O)C([H])(N([H])C([H])([H])[H])C([H])([H])[H])C(C([H])([H])[H])(C([H])([H])[H])C([H])([H])[H])C([H])([H])c2c([H])c(OC([H])([H])C(=O)C([H])([H])N([H])c3c([H])c(C([H])([H])N([H])C(=O)N4C([H])([H])C([H])([H])C([H])([H])C([H])(n5nc(-c6c([H])c([H])c(Oc7c([H])c([H])c(F)c([H])c7F)c([H])c6[H])c(C(=O)N([H])[H])c5N([H])[H])C4([H])[H])c([H])c([H])c3F)c([H])c([H])c2C1([H])[H]

$$$$
53:0:0
     RDKit          3D

 96104  0  0  1  0  0  0  0  0999 V2000
  -28.7160  -21.1090   20.9390 C   0  0  0  0  0  0  0  0  0  0  0  0
  -28.7230  -22.2970   20.2120 N   0  0  0  0  0  0  0  0  0  0  0  0
  -28.3280  -21.1690   22.1080 O   0  0  0  0  0  0  0  0  0  0  0  0
  -29.0780  -22.1840   19.2710 H   0  0  0  0  0  0  0  0  0  0  0  0
  -29.5410  -18.4640   21.1470 C   0  0  0  0  0  3  0  0  0  0  0  0
  -29.1880  -19.6910   20.4170 C   0  0  0  0  0  0  0  0  0  0  0  0
  -29.8330  -17.4040   20.2820 C   0  0  0  0  0  0  0  0  0  0  0  0
  -29.2800  -19.2210   19.1190 C   0  0  0  0  0  0  0  0  0  0  0  0
  -29.6910  -17.8930   19.0120 O   0  0  0  0  0  0  0  0  0  0  0  0
  -30.7040  -14.9760   20.0330 C   0  0  0  0  0  0  0  0  0  0  0  0
  -30.5170  -12.6850   19.0210 C   0  0  0  0  0  2  0  0  0  0  0  0
  -29.5280  -12.7800   17.8350 C   0  0  0  0  0  2  0  0  0  0  0  0
  -28.0850  -12.5670   18.3280 C   0  0  0  0  0  2  0  0  0  0  0  0
  -27.7520  -13.4320   19.5700 C   0  0  0  0  0  3  0  0  0  0  0  0
  -28.8540  -13.3340   20.6480 C   0  0  0  0  0  2  0  0  0  0  0  0
  -30.1250  -13.7180   20.0190 N   0  0  0  0  0  0  0  0  0  0  0  0
  -31.8070  -15.1360   19.5110 O   0  0  0  0  0  0  0  0  0  0  0  0
  -29.9920  -16.0330   20.6030 N   0  0  0  0  0  0  0  0  0  0  0  0
  -29.3350  -15.6990   21.2860 H   0  0  0  0  0  0  0  0  0  0  0  0
  -25.4080  -13.9990   20.4530 C   0  0  0  0  0  0  0  0  0  0  0  0
  -24.3660  -13.2150   20.8580 C   0  0  0  0  0  0  0  0  0  0  0  0
  -24.8200  -11.8650   20.7520 C   0  0  0  0  0  0  0  0  0  0  0  0
  -26.4290  -13.1280   20.1130 N   0  0  0  0  0  0  0  0  0  0  0  0
  -26.0840  -11.8360   20.3580 N   0  0  0  0  0  0  0  0  0  0  0  0
  -24.0990  -10.5950   20.9390 C   0  0  0  0  0  0  0  0  0  0  0  0
  -24.5430   -9.6160   21.8550 C   0  0  0  0  0  3  0  0  0  0  0  0
  -23.8220   -8.4160   22.0290 C   0  0  0  0  0  3  0  0  0  0  0  0
  -22.6400   -8.1840   21.2830 C   0  0  0  0  0  0  0  0  0  0  0  0
  -22.2080   -9.1540   20.3560 C   0  0  0  0  0  3  0  0  0  0  0  0
  -22.9360  -10.3450   20.1840 C   0  0  0  0  0  3  0  0  0  0  0  0
  -21.8930   -7.0330   21.3660 O   0  0  0  0  0  0  0  0  0  0  0  0
  -21.8190   -6.3010   22.5270 C   0  0  0  0  0  0  0  0  0  0  0  0
  -21.3190   -6.8550   23.7240 C   0  0  0  0  0  3  0  0  0  0  0  0
  -21.1960   -6.0510   24.8720 C   0  0  0  0  0  3  0  0  0  0  0  0
  -21.5550   -4.6930   24.8280 C   0  0  0  0  0  0  0  0  0  0  0  0
  -22.0510   -4.1390   23.6380 C   0  0  0  0  0  3  0  0  0  0  0  0
  -22.1790   -4.9390   22.4880 C   0  0  0  0  0  0  0  0  0  0  0  0
  -22.6350   -4.3930   21.3360 F   0  0  0  0  0  0  0  0  0  0  0  0
  -21.4300   -3.9180   25.9330 F   0  0  0  0  0  0  0  0  0  0  0  0
  -22.9900  -13.6880   21.2290 C   0  0  0  0  0  0  0  0  0  0  0  0
  -22.2910  -12.9680   22.1000 N   0  0  0  0  0  0  0  0  0  0  0  0
  -22.5400  -14.7410   20.7760 O   0  0  0  0  0  0  0  0  0  0  0  0
  -22.6640  -12.1170   22.4920 H   0  0  0  0  0  0  0  0  0  0  0  0
  -21.3740  -13.2880   22.3890 H   0  0  0  0  0  0  0  0  0  0  0  0
  -25.5660  -15.3750   20.3290 N   0  0  0  0  0  0  0  0  0  0  0  0
  -24.7960  -16.0130   20.5120 H   0  0  0  0  0  0  0  0  0  0  0  0
  -26.3690  -15.8280   19.9110 H   0  0  0  0  0  0  0  0  0  0  0  0
  -28.9460  -19.8890   17.9430 N   0  0  0  0  0  0  0  0  0  0  0  0
  -28.1510  -20.5200   17.9600 H   0  0  0  0  0  0  0  0  0  0  0  0
  -28.9090  -19.3390   17.0860 H   0  0  0  0  0  0  0  0  0  0  0  0
  -28.1750  -23.7150   20.5750 C   0  0  0  0  0  2  0  0  0  0  0  0
  -28.7190  -25.0930   19.8310 C   0  0  0  0  0  3  0  0  0  0  0  0
  -28.7670  -25.0410   18.2850 C   0  0  0  0  0  0  0  0  0  0  0  0
  -28.6840  -23.6910   17.5700 C   0  0  0  0  0  1  0  0  0  0  0  0
  -28.9380  -26.0720   17.6240 O   0  0  0  0  0  0  0  0  0  0  0  0
  -28.5070  -26.5380   20.2900 O   0  0  0  0  0  0  0  0  0  0  0  0
  -24.7200  -31.9550   23.2440 C   0  0  0  0  0  0  0  0  0  0  0  0
  -27.3640  -27.3770   20.1810 C   0  0  0  0  0  0  0  0  0  0  0  0
  -23.5270  -30.5510   21.5960 C   0  0  0  0  0  3  0  0  0  0  0  0
  -24.9910  -29.0130   20.1530 C   0  0  0  0  0  0  0  0  0  0  0  0
  -26.0600  -30.8900   21.3980 C   0  0  0  0  0  2  0  0  0  0  0  0
  -26.1540  -29.5030   20.7580 C   0  0  0  0  0  0  0  0  0  0  0  0
  -27.3340  -28.6930   20.7680 C   0  0  0  0  0  3  0  0  0  0  0  0
  -26.1810  -26.9550   19.5400 C   0  0  0  0  0  3  0  0  0  0  0  0
  -25.0170  -27.7550   19.5250 C   0  0  0  0  0  3  0  0  0  0  0  0
  -23.7470  -29.8810   20.2120 C   0  0  0  0  0  2  0  0  0  0  0  0
  -24.7880  -31.1530   22.1370 N   0  0  0  0  0  0  0  0  0  0  0  0
  -23.6360  -32.2150   23.7890 O   0  0  0  0  0  0  0  0  0  0  0  0
  -22.8820  -29.5240   22.5630 C   0  0  0  0  0  0  0  0  0  0  0  0
  -21.5580  -29.3240   22.4430 N   0  0  0  0  0  0  0  0  0  0  0  0
  -23.5720  -28.9100   23.3800 O   0  0  0  0  0  0  0  0  0  0  0  0
  -21.0540  -29.8780   21.7620 H   0  0  0  0  0  0  0  0  0  0  0  0
  -18.2100  -28.0330   22.9340 C   0  0  0  0  0  0  0  0  0  0  0  0
  -20.7580  -28.3640   23.2130 C   0  0  0  0  0  3  0  0  0  0  0  0
  -20.9000  -26.9330   22.6420 C   0  0  0  0  0  2  0  0  0  0  0  0
  -19.8120  -26.5790   21.6240 C   0  0  0  0  0  2  0  0  0  0  0  0
  -18.4240  -26.6900   22.2620 C   0  0  0  0  0  2  0  0  0  0  0  0
  -19.3050  -28.8270   23.3680 C   0  0  0  0  0  0  0  0  0  0  0  0
  -19.0500  -30.0820   23.9620 C   0  0  0  0  0  3  0  0  0  0  0  0
  -17.7300  -30.5470   24.1200 C   0  0  0  0  0  3  0  0  0  0  0  0
  -16.6490  -29.7520   23.6990 C   0  0  0  0  0  3  0  0  0  0  0  0
  -16.8900  -28.4950   23.1160 C   0  0  0  0  0  3  0  0  0  0  0  0
  -25.9960  -32.6080   23.8660 C   0  0  0  0  0  3  0  0  0  0  0  0
  -25.6700  -34.0060   24.1920 N   0  0  0  0  0  0  0  0  0  0  0  0
  -25.9900  -35.0620   23.4300 C   0  0  0  0  0  0  0  0  0  0  0  0
  -26.6560  -34.9590   22.3970 O   0  0  0  0  0  0  0  0  0  0  0  0
  -25.0820  -34.1560   24.9990 H   0  0  0  0  0  0  0  0  0  0  0  0
  -24.2570  -36.8500   23.0680 C   0  0  0  0  0  1  0  0  0  0  0  0
  -25.4940  -36.4470   23.8850 C   0  0  0  0  0  3  0  0  0  0  0  0
  -27.6210  -37.3470   24.7280 C   0  0  0  0  0  1  0  0  0  0  0  0
  -26.5230  -37.5070   23.7780 N   0  0  0  0  0  0  0  0  0  0  0  0
  -26.1090  -38.4220   23.9250 H   0  0  0  0  0  0  0  0  0  0  0  0
  -26.5210  -31.8500   25.1460 C   0  0  1  0  0  0  0  0  0  0  0  0
  -25.4330  -31.6040   26.2170 C   0  0  0  0  0  1  0  0  0  0  0  0
  -27.1200  -30.4800   24.7560 C   0  0  0  0  0  1  0  0  0  0  0  0
  -27.6610  -32.6610   25.8050 C   0  0  0  0  0  1  0  0  0  0  0  0
  1  3  2  0
  2 51  1  0
  2  1  1  0
  4  2  1  0
  6  1  1  0
  6  5  1  0
  7 18  1  0
  7  5  2  0
  8  6  2  0
  9  8  1  0
  9  7  1  0
 10 18  1  0
 11 16  1  0
 12 13  1  0
 12 11  1  0
 14 13  1  0
 14 23  1  0
 14 15  1  0
 16 10  1  0
 16 15  1  0
 17 10  2  0
 18 19  1  0
 20 21  2  0
 21 40  1  0
 22 21  1  0
 22 25  1  0
 23 24  1  0
 23 20  1  0
 24 22  2  0
 25 26  1  0
 26 27  2  0
 28 31  1  0
 28 27  1  0
 29 28  2  0
 30 29  1  0
 30 25  2  0
 31 32  1  0
 32 33  1  0
 33 34  2  0
 35 34  1  0
 35 39  1  0
 36 35  2  0
 37 32  2  0
 37 36  1  0
 38 37  1  0
 40 41  1  0
 41 44  1  0
 41 43  1  0
 42 40  2  0
 45 20  1  0
 45 46  1  0
 47 45  1  0
 48 49  1  0
 48  8  1  0
 50 48  1  0
 52 56  1  0
 52 51  1  0
 53 52  1  0
 54 53  1  0
 55 53  2  0
 57 68  2  0
 58 56  1  0
 58 63  1  0
 59 67  1  0
 59 69  1  0
 60 66  1  0
 60 62  1  0
 61 67  1  0
 62 63  2  0
 62 61  1  0
 64 58  2  0
 65 64  1  0
 65 60  2  0
 66 59  1  0
 67 57  1  0
 69 71  2  0
 70 69  1  0
 72 70  1  0
 73 82  2  0
 73 78  1  0
 74 70  1  0
 74 78  1  0
 75 74  1  0
 76 77  1  0
 76 75  1  0
 77 73  1  0
 78 79  2  0
 79 80  1  0
 81 80  2  0
 82 81  1  0
 83 57  1  0
 83 84  1  0
 83 93  1  0
 84 87  1  0
 85 89  1  0
 85 84  1  0
 86 85  2  0
 89 88  1  0
 91 89  1  0
 91 92  1  0
 91 90  1  0
 93 96  1  1
 93 94  1  0
 95 93  1  0
M  ISO  4  10 100  18 100  52 101  56 101
M  END
>  <TORSDO>  (54) 
F 21

>  <SCORE>  (54) 
-13.184

>  <name>  (54) 
53

>  <ligand_id>  (54) 
53

>  <original_smiles>  (54) 
[H]c1c([H])c([H])c2c(c1[H])C([H])([H])C([H])([H])C([H])([H])C2([H])N([H])C(=O)C1([H])N(C(=O)C([H])(N([H])C(=O)C([H])(N([H])C([H])([H])[H])C([H])([H])[H])C(C([H])([H])[H])(C([H])([H])[H])C([H])([H])[H])C([H])([H])c2c([H])c(OC([H])(C(=O)C([H])([H])[H])C([H])([H])N([H])C(=O)c3c(N([H])[H])oc(N([H])C(=O)N4C([H])([H])C([H])([H])C([H])([H])C([H])(n5nc(-c6c([H])c([H])c(Oc7c([H])c([H])c(F)c([H])c7F)c([H])c6[H])c(C(=O)N([H])[H])c5N([H])[H])C4([H])[H])c3[H])c([H])c([H])c2C1([H])[H]

>  <smiles>  (54) 
[H]c1c([H])c([H])c2c(c1[H])C([H])([H])C([H])([H])C([H])([H])C2([H])N([H])C(=O)C1([H])N(C(=O)C([H])(N([H])C(=O)C([H])(N([H])C([H])([H])[H])C([H])([H])[H])C(C([H])([H])[H])(C([H])([H])[H])C([H])([H])[H])C([H])([H])c2c([H])c(OC([H])(C(=O)C([H])([H])[H])C([H])([H])N([H])C(=O)c3c(N([H])[H])oc(N([H])C(=O)N4C([H])([H])C([H])([H])C([H])([H])C([H])(n5nc(-c6c([H])c([H])c(Oc7c([H])c([H])c(F)c([H])c7F)c([H])c6[H])c(C(=O)N([H])[H])c5N([H])[H])C4([H])[H])c3[H])c([H])c([H])c2C1([H])[H]

$$$$
54:0:0
     RDKit          3D

 94102  0  0  1  0  0  0  0  0999 V2000
  -29.8650  -21.7560   21.1660 C   0  0  0  0  0  2  0  0  0  0  0  0
  -28.8350  -22.7920   20.6490 C   0  0  0  0  0  0  0  0  0  0  0  0
  -27.6910  -22.4250   20.3480 O   0  0  0  0  0  0  0  0  0  0  0  0
  -29.2470  -24.3010   20.5140 C   0  0  0  0  0  0  0  0  0  0  0  0
  -30.3550  -24.7140   20.8860 O   0  0  0  0  0  0  0  0  0  0  0  0
  -28.1980  -25.2380   19.8820 C   0  0  0  0  0  2  0  0  0  0  0  0
  -28.3660  -26.6450   20.1920 O   0  0  0  0  0  0  0  0  0  0  0  0
  -24.5900  -31.8780   23.2540 C   0  0  0  0  0  0  0  0  0  0  0  0
  -27.2090  -27.4120   20.1490 C   0  0  0  0  0  0  0  0  0  0  0  0
  -23.3740  -30.4810   21.6160 C   0  0  0  0  0  3  0  0  0  0  0  0
  -24.8170  -28.9470   20.1760 C   0  0  0  0  0  0  0  0  0  0  0  0
  -25.9030  -30.8250   21.4120 C   0  0  0  0  0  2  0  0  0  0  0  0
  -25.9820  -29.4550   20.7670 C   0  0  0  0  0  0  0  0  0  0  0  0
  -27.1790  -28.6950   20.7530 C   0  0  0  0  0  3  0  0  0  0  0  0
  -26.0250  -26.9420   19.5320 C   0  0  0  0  0  3  0  0  0  0  0  0
  -24.8360  -27.6910   19.5550 C   0  0  0  0  0  3  0  0  0  0  0  0
  -23.5760  -29.8080   20.2340 C   0  0  0  0  0  2  0  0  0  0  0  0
  -24.6410  -31.0770   22.1520 N   0  0  0  0  0  0  0  0  0  0  0  0
  -23.5100  -32.1500   23.7980 O   0  0  0  0  0  0  0  0  0  0  0  0
  -22.7260  -29.4580   22.5760 C   0  0  0  0  0  0  0  0  0  0  0  0
  -21.4020  -29.2750   22.4480 N   0  0  0  0  0  0  0  0  0  0  0  0
  -23.4110  -28.8340   23.3910 O   0  0  0  0  0  0  0  0  0  0  0  0
  -20.9120  -29.8260   21.7570 H   0  0  0  0  0  0  0  0  0  0  0  0
  -18.0300  -28.0770   22.9450 C   0  0  0  0  0  0  0  0  0  0  0  0
  -20.5860  -28.3380   23.2200 C   0  0  0  0  0  3  0  0  0  0  0  0
  -20.6930  -26.9070   22.6430 C   0  0  0  0  0  2  0  0  0  0  0  0
  -19.5910  -26.5820   21.6290 C   0  0  0  0  0  2  0  0  0  0  0  0
  -18.2090  -26.7260   22.2720 C   0  0  0  0  0  2  0  0  0  0  0  0
  -19.1480  -28.8390   23.3760 C   0  0  0  0  0  0  0  0  0  0  0  0
  -18.9270  -30.1040   23.9650 C   0  0  0  0  0  3  0  0  0  0  0  0
  -17.6220  -30.6040   24.1310 C   0  0  0  0  0  3  0  0  0  0  0  0
  -16.5190  -29.8380   23.7180 C   0  0  0  0  0  3  0  0  0  0  0  0
  -16.7230  -28.5760   23.1300 C   0  0  0  0  0  3  0  0  0  0  0  0
  -25.8790  -32.5060   23.8670 C   0  0  0  0  0  3  0  0  0  0  0  0
  -25.5740  -33.9040   24.1960 N   0  0  0  0  0  0  0  0  0  0  0  0
  -25.9040  -34.9550   23.4330 C   0  0  0  0  0  0  0  0  0  0  0  0
  -26.5690  -34.8500   22.3990 O   0  0  0  0  0  0  0  0  0  0  0  0
  -24.9840  -34.0610   24.9990 H   0  0  0  0  0  0  0  0  0  0  0  0
  -24.1750  -36.7510   23.0830 C   0  0  0  0  0  1  0  0  0  0  0  0
  -25.4190  -36.3440   23.8900 C   0  0  0  0  0  3  0  0  0  0  0  0
  -27.5590  -37.2280   24.7110 C   0  0  0  0  0  1  0  0  0  0  0  0
  -26.4530  -37.3960   23.7730 N   0  0  0  0  0  0  0  0  0  0  0  0
  -26.0480  -38.3160   23.9210 H   0  0  0  0  0  0  0  0  0  0  0  0
  -26.3980  -31.7350   25.1440 C   0  0  1  0  0  0  0  0  0  0  0  0
  -25.3060  -31.5050   26.2160 C   0  0  0  0  0  1  0  0  0  0  0  0
  -26.9740  -30.3550   24.7490 C   0  0  0  0  0  1  0  0  0  0  0  0
  -27.5500  -32.5280   25.8030 C   0  0  0  0  0  1  0  0  0  0  0  0
  -29.3180  -20.4040   21.4520 N   0  0  0  0  0  0  0  0  0  0  0  0
  -29.0730  -20.2140   22.4210 H   0  0  0  0  0  0  0  0  0  0  0  0
  -29.5630  -17.9830   21.1140 C   0  0  0  0  0  3  0  0  0  0  0  0
  -30.3710  -17.1230   18.9780 C   0  0  0  0  0  3  0  0  0  0  0  0
  -29.9540  -19.5100   19.2520 C   0  0  0  0  0  3  0  0  0  0  0  0
  -29.9710  -16.8770   20.3140 C   0  0  0  0  0  0  0  0  0  0  0  0
  -29.6060  -19.3110   20.6070 C   0  0  0  0  0  0  0  0  0  0  0  0
  -30.3430  -18.4270   18.4480 C   0  0  0  0  0  0  0  0  0  0  0  0
  -30.7050  -18.6390   17.1600 F   0  0  0  0  0  0  0  0  0  0  0  0
  -30.6680  -14.4930   20.4150 C   0  0  0  0  0  0  0  0  0  0  0  0
  -30.3860  -12.3200   19.3040 C   0  0  0  0  0  2  0  0  0  0  0  0
  -29.4520  -12.5450   18.0950 C   0  0  0  0  0  2  0  0  0  0  0  0
  -27.9730  -12.4170   18.5150 C   0  0  0  0  0  2  0  0  0  0  0  0
  -27.6360  -13.2410   19.7870 C   0  0  0  0  0  3  0  0  0  0  0  0
  -28.6870  -13.0110   20.8960 C   0  0  0  0  0  2  0  0  0  0  0  0
  -30.0140  -13.3040   20.3330 N   0  0  0  0  0  0  0  0  0  0  0  0
  -31.8130  -14.6550   19.9830 O   0  0  0  0  0  0  0  0  0  0  0  0
  -29.9260  -15.5400   20.8410 N   0  0  0  0  0  0  0  0  0  0  0  0
  -29.1160  -15.3090   21.3970 H   0  0  0  0  0  0  0  0  0  0  0  0
  -25.2320  -13.8400   20.4890 C   0  0  0  0  0  0  0  0  0  0  0  0
  -24.1680  -13.0660   20.8680 C   0  0  0  0  0  0  0  0  0  0  0  0
  -24.6360  -11.7170   20.8430 C   0  0  0  0  0  0  0  0  0  0  0  0
  -26.2830  -12.9640   20.2660 N   0  0  0  0  0  0  0  0  0  0  0  0
  -25.9260  -11.6810   20.5340 N   0  0  0  0  0  0  0  0  0  0  0  0
  -23.9160  -10.4510   21.0400 C   0  0  0  0  0  0  0  0  0  0  0  0
  -24.3590   -9.4850   21.9710 C   0  0  0  0  0  3  0  0  0  0  0  0
  -23.6400   -8.2850   22.1550 C   0  0  0  0  0  3  0  0  0  0  0  0
  -22.4620   -8.0420   21.4090 C   0  0  0  0  0  0  0  0  0  0  0  0
  -22.0360   -8.9970   20.4690 C   0  0  0  0  0  3  0  0  0  0  0  0
  -22.7570  -10.1900   20.2840 C   0  0  0  0  0  3  0  0  0  0  0  0
  -21.7110   -6.8960   21.5060 O   0  0  0  0  0  0  0  0  0  0  0  0
  -21.6840   -6.1470   22.6550 C   0  0  0  0  0  0  0  0  0  0  0  0
  -21.2780   -6.6930   23.8910 C   0  0  0  0  0  3  0  0  0  0  0  0
  -21.1980   -5.8690   25.0320 C   0  0  0  0  0  3  0  0  0  0  0  0
  -21.5150   -4.5020   24.9380 C   0  0  0  0  0  0  0  0  0  0  0  0
  -21.9120   -3.9550   23.7050 C   0  0  0  0  0  3  0  0  0  0  0  0
  -21.9940   -4.7750   22.5660 C   0  0  0  0  0  0  0  0  0  0  0  0
  -22.3590   -4.2380   21.3780 F   0  0  0  0  0  0  0  0  0  0  0  0
  -21.4310   -3.7090   26.0310 F   0  0  0  0  0  0  0  0  0  0  0  0
  -22.7680  -13.5390   21.1370 C   0  0  0  0  0  0  0  0  0  0  0  0
  -22.0430  -12.8470   22.0090 N   0  0  0  0  0  0  0  0  0  0  0  0
  -22.3250  -14.5580   20.6090 O   0  0  0  0  0  0  0  0  0  0  0  0
  -22.4140  -12.0270   22.4640 H   0  0  0  0  0  0  0  0  0  0  0  0
  -21.1050  -13.1480   22.2290 H   0  0  0  0  0  0  0  0  0  0  0  0
  -25.3940  -15.2100   20.3020 N   0  0  0  0  0  0  0  0  0  0  0  0
  -24.6310  -15.8700   20.4100 H   0  0  0  0  0  0  0  0  0  0  0  0
  -26.2460  -15.6420   19.9700 H   0  0  0  0  0  0  0  0  0  0  0  0
  1 48  1  0
  2  1  1  0
  3  2  2  0
  4  2  1  0
  4  5  2  0
  6  7  1  0
  6  4  1  0
  8 19  2  0
  9  7  1  0
  9 14  1  0
 10 18  1  0
 10 20  1  0
 11 17  1  0
 11 13  1  0
 12 18  1  0
 13 12  1  0
 14 13  2  0
 15 16  1  0
 15  9  2  0
 16 11  2  0
 17 10  1  0
 18  8  1  0
 20 22  2  0
 21 20  1  0
 23 21  1  0
 24 33  2  0
 24 29  1  0
 25 21  1  0
 25 29  1  0
 26 25  1  0
 27 28  1  0
 27 26  1  0
 28 24  1  0
 29 30  2  0
 30 31  1  0
 32 31  2  0
 33 32  1  0
 34  8  1  0
 34 35  1  0
 34 44  1  0
 35 38  1  0
 36 40  1  0
 36 35  1  0
 37 36  2  0
 40 39  1  0
 42 40  1  0
 42 43  1  0
 42 41  1  0
 44 47  1  1
 44 45  1  0
 46 44  1  0
 48 49  1  0
 51 53  1  0
 52 54  2  0
 53 65  1  0
 53 50  2  0
 54 50  1  0
 54 48  1  0
 55 51  2  0
 55 52  1  0
 56 55  1  0
 57 65  1  0
 58 63  1  0
 59 60  1  0
 59 58  1  0
 61 60  1  0
 61 70  1  0
 61 62  1  0
 63 57  1  0
 63 62  1  0
 64 57  2  0
 65 66  1  0
 67 68  2  0
 68 87  1  0
 69 68  1  0
 69 72  1  0
 70 67  1  0
 70 71  1  0
 71 69  2  0
 72 73  1  0
 73 74  2  0
 75 78  1  0
 75 74  1  0
 76 75  2  0
 77 76  1  0
 77 72  2  0
 78 79  1  0
 79 80  1  0
 80 81  2  0
 82 81  1  0
 82 86  1  0
 83 82  2  0
 84 79  2  0
 84 83  1  0
 85 84  1  0
 87 88  1  0
 88 91  1  0
 88 90  1  0
 89 87  2  0
 92 93  1  0
 92 67  1  0
 94 92  1  0
M  ISO  4   6 101   7 101  57 100  65 100
M  END
>  <TORSDO>  (55) 
F 21

>  <SCORE>  (55) 
-13.749

>  <name>  (55) 
54

>  <ligand_id>  (55) 
54

>  <original_smiles>  (55) 
[H]c1c([H])c([H])c2c(c1[H])C([H])([H])C([H])([H])C([H])([H])C2([H])N([H])C(=O)C1([H])N(C(=O)C([H])(N([H])C(=O)C([H])(N([H])C([H])([H])[H])C([H])([H])[H])C(C([H])([H])[H])(C([H])([H])[H])C([H])([H])[H])C([H])([H])c2c([H])c(OC([H])([H])C(=O)C(=O)C([H])([H])N([H])c3c([H])c(F)c([H])c(N([H])C(=O)N4C([H])([H])C([H])([H])C([H])([H])C([H])(n5nc(-c6c([H])c([H])c(Oc7c([H])c([H])c(F)c([H])c7F)c([H])c6[H])c(C(=O)N([H])[H])c5N([H])[H])C4([H])[H])c3[H])c([H])c([H])c2C1([H])[H]

>  <smiles>  (55) 
[H]c1c([H])c([H])c2c(c1[H])C([H])([H])C([H])([H])C([H])([H])C2([H])N([H])C(=O)C1([H])N(C(=O)C([H])(N([H])C(=O)C([H])(N([H])C([H])([H])[H])C([H])([H])[H])C(C([H])([H])[H])(C([H])([H])[H])C([H])([H])[H])C([H])([H])c2c([H])c(OC([H])([H])C(=O)C(=O)C([H])([H])N([H])c3c([H])c(F)c([H])c(N([H])C(=O)N4C([H])([H])C([H])([H])C([H])([H])C([H])(n5nc(-c6c([H])c([H])c(Oc7c([H])c([H])c(F)c([H])c7F)c([H])c6[H])c(C(=O)N([H])[H])c5N([H])[H])C4([H])[H])c3[H])c([H])c([H])c2C1([H])[H]

$$$$
55:0:0
     RDKit          3D

 96104  0  0  1  0  0  0  0  0999 V2000
  -28.9610  -20.5350   20.7370 C   0  0  0  0  0  0  0  0  0  0  0  0
  -29.2420  -21.8220   20.4270 N   0  0  0  0  0  0  0  0  0  0  0  0
  -27.7250  -20.2570   21.1520 N   0  0  0  0  0  4  0  0  0  0  0  0
  -30.1490  -22.0330   20.0240 H   0  0  0  0  0  0  0  0  0  0  0  0
  -27.4860  -19.2850   21.2980 H   0  0  0  0  0  0  0  0  0  0  0  0
  -26.9940  -20.9440   21.2160 H   0  0  0  0  0  0  0  0  0  0  0  0
  -32.3530  -18.8390   20.7900 C   0  0  0  0  0  3  0  0  0  0  0  0
  -31.3480  -19.8230   20.7680 C   0  0  0  0  0  3  0  0  0  0  0  0
  -32.0150  -17.4750   20.7370 C   0  0  0  0  0  3  0  0  0  0  0  0
  -29.9840  -19.4600   20.6880 C   0  0  0  0  0  0  0  0  0  0  0  0
  -30.6610  -17.0690   20.6450 C   0  0  0  0  0  0  0  0  0  0  0  0
  -29.6530  -18.0710   20.6300 C   0  0  0  0  0  0  0  0  0  0  0  0
  -28.3560  -17.6720   20.5820 F   0  0  0  0  0  0  0  0  0  0  0  0
  -30.9250  -14.6510   20.0430 C   0  0  0  0  0  0  0  0  0  0  0  0
  -30.5580  -12.4800   18.9290 C   0  0  0  0  0  2  0  0  0  0  0  0
  -29.5510  -12.6690   17.7760 C   0  0  0  0  0  2  0  0  0  0  0  0
  -28.1050  -12.5230   18.2910 C   0  0  0  0  0  2  0  0  0  0  0  0
  -27.8330  -13.3700   19.5630 C   0  0  0  0  0  3  0  0  0  0  0  0
  -28.9520  -13.1770   20.6130 C   0  0  0  0  0  2  0  0  0  0  0  0
  -30.2380  -13.4780   19.9650 N   0  0  0  0  0  0  0  0  0  0  0  0
  -32.0200  -14.8020   19.4980 O   0  0  0  0  0  0  0  0  0  0  0  0
  -30.2690  -15.6860   20.6140 N   0  0  0  0  0  0  0  0  0  0  0  0
  -29.3290  -15.4920   20.9180 H   0  0  0  0  0  0  0  0  0  0  0  0
  -25.4930  -13.9690   20.4480 C   0  0  0  0  0  0  0  0  0  0  0  0
  -24.4430  -13.1910   20.8580 C   0  0  0  0  0  0  0  0  0  0  0  0
  -24.8880  -11.8380   20.7500 C   0  0  0  0  0  0  0  0  0  0  0  0
  -26.5120  -13.0870   20.1200 N   0  0  0  0  0  0  0  0  0  0  0  0
  -26.1550  -11.8000   20.3590 N   0  0  0  0  0  0  0  0  0  0  0  0
  -24.1630  -10.5750   20.9420 C   0  0  0  0  0  0  0  0  0  0  0  0
  -24.5920   -9.6120   21.8820 C   0  0  0  0  0  3  0  0  0  0  0  0
  -23.8660   -8.4150   22.0610 C   0  0  0  0  0  3  0  0  0  0  0  0
  -22.6970   -8.1710   21.3010 C   0  0  0  0  0  0  0  0  0  0  0  0
  -22.2880   -9.1230   20.3500 C   0  0  0  0  0  3  0  0  0  0  0  0
  -23.0140  -10.3120   20.1690 C   0  0  0  0  0  3  0  0  0  0  0  0
  -21.9450   -7.0260   21.3880 O   0  0  0  0  0  0  0  0  0  0  0  0
  -21.8310   -6.3280   22.5640 C   0  0  0  0  0  0  0  0  0  0  0  0
  -21.2800   -6.9100   23.7260 C   0  0  0  0  0  3  0  0  0  0  0  0
  -21.1180   -6.1350   24.8930 C   0  0  0  0  0  3  0  0  0  0  0  0
  -21.4950   -4.7800   24.8970 C   0  0  0  0  0  0  0  0  0  0  0  0
  -22.0400   -4.1970   23.7380 C   0  0  0  0  0  3  0  0  0  0  0  0
  -22.2040   -4.9690   22.5740 C   0  0  0  0  0  0  0  0  0  0  0  0
  -22.7090   -4.3960   21.4550 F   0  0  0  0  0  0  0  0  0  0  0  0
  -21.3330   -4.0330   26.0140 F   0  0  0  0  0  0  0  0  0  0  0  0
  -23.0710  -13.6700   21.2380 C   0  0  0  0  0  0  0  0  0  0  0  0
  -22.3910  -12.9430   22.1170 N   0  0  0  0  0  0  0  0  0  0  0  0
  -22.6150  -14.7220   20.7910 O   0  0  0  0  0  0  0  0  0  0  0  0
  -22.7730  -12.0900   22.4980 H   0  0  0  0  0  0  0  0  0  0  0  0
  -21.4720  -13.2430   22.4120 H   0  0  0  0  0  0  0  0  0  0  0  0
  -25.6600  -15.3430   20.3100 N   0  0  0  0  0  0  0  0  0  0  0  0
  -24.9070  -15.9970   20.4950 H   0  0  0  0  0  0  0  0  0  0  0  0
  -26.4980  -15.7950   19.9660 H   0  0  0  0  0  0  0  0  0  0  0  0
  -28.3590  -23.0130   20.5860 C   0  0  0  0  0  2  0  0  0  0  0  0
  -29.0290  -24.3720   20.2830 C   0  0  0  0  0  0  0  0  0  0  0  0
  -30.0400  -24.4350   19.5720 O   0  0  0  0  0  0  0  0  0  0  0  0
  -28.4000  -25.6220   20.9430 C   0  0  0  0  0  2  0  0  0  0  0  0
  -28.5970  -26.8490   20.2020 O   0  0  0  0  0  0  0  0  0  0  0  0
  -24.6490  -31.9250   23.2860 C   0  0  0  0  0  0  0  0  0  0  0  0
  -27.4530  -27.6160   20.1580 C   0  0  0  0  0  0  0  0  0  0  0  0
  -23.5110  -30.5420   21.5790 C   0  0  0  0  0  3  0  0  0  0  0  0
  -25.0330  -29.0780   20.1450 C   0  0  0  0  0  0  0  0  0  0  0  0
  -26.0330  -30.9610   21.4490 C   0  0  0  0  0  2  0  0  0  0  0  0
  -26.1670  -29.6100   20.7740 C   0  0  0  0  0  0  0  0  0  0  0  0
  -27.3840  -28.8880   20.7750 C   0  0  0  0  0  3  0  0  0  0  0  0
  -26.3060  -27.1040   19.5160 C   0  0  0  0  0  3  0  0  0  0  0  0
  -25.0980  -27.8260   19.5100 C   0  0  0  0  0  3  0  0  0  0  0  0
  -23.7680  -29.9060   20.1870 C   0  0  0  0  0  2  0  0  0  0  0  0
  -24.7480  -31.1560   22.1640 N   0  0  0  0  0  0  0  0  0  0  0  0
  -23.5490  -32.1590   23.8070 O   0  0  0  0  0  0  0  0  0  0  0  0
  -22.8610  -29.4820   22.4970 C   0  0  0  0  0  0  0  0  0  0  0  0
  -21.5410  -29.2840   22.3430 N   0  0  0  0  0  0  0  0  0  0  0  0
  -23.5410  -28.8420   23.3030 O   0  0  0  0  0  0  0  0  0  0  0  0
  -21.0540  -29.8540   21.6660 H   0  0  0  0  0  0  0  0  0  0  0  0
  -18.1710  -28.0530   22.7750 C   0  0  0  0  0  0  0  0  0  0  0  0
  -20.7270  -28.3120   23.0700 C   0  0  0  0  0  3  0  0  0  0  0  0
  -20.8400  -26.9060   22.4340 C   0  0  0  0  0  2  0  0  0  0  0  0
  -19.7430  -26.6220   21.4030 C   0  0  0  0  0  2  0  0  0  0  0  0
  -18.3580  -26.7340   22.0460 C   0  0  0  0  0  2  0  0  0  0  0  0
  -19.2840  -28.8020   23.2430 C   0  0  0  0  0  0  0  0  0  0  0  0
  -19.0580  -30.0390   23.8840 C   0  0  0  0  0  3  0  0  0  0  0  0
  -17.7500  -30.5280   24.0640 C   0  0  0  0  0  3  0  0  0  0  0  0
  -16.6520  -29.7760   23.6130 C   0  0  0  0  0  3  0  0  0  0  0  0
  -16.8630  -28.5410   22.9750 C   0  0  0  0  0  3  0  0  0  0  0  0
  -25.9060  -32.5670   23.9520 C   0  0  0  0  0  3  0  0  0  0  0  0
  -26.3700  -31.8120   25.2580 C   0  0  1  0  0  0  0  0  0  0  0  0
  -25.2330  -31.5780   26.2780 C   0  0  0  0  0  1  0  0  0  0  0  0
  -26.9780  -30.4340   24.9040 C   0  0  0  0  0  1  0  0  0  0  0  0
  -27.4860  -32.6190   25.9620 C   0  0  0  0  0  1  0  0  0  0  0  0
  -25.5830  -33.9690   24.2490 N   0  0  0  0  0  0  0  0  0  0  0  0
  -25.9420  -35.0090   23.4850 C   0  0  0  0  0  0  0  0  0  0  0  0
  -26.6510  -34.8900   22.4820 O   0  0  0  0  0  0  0  0  0  0  0  0
  -24.9590  -34.1350   25.0240 H   0  0  0  0  0  0  0  0  0  0  0  0
  -24.2260  -36.7900   23.0330 C   0  0  0  0  0  1  0  0  0  0  0  0
  -25.4340  -36.4030   23.9000 C   0  0  0  0  0  3  0  0  0  0  0  0
  -27.5270  -37.3110   24.8080 C   0  0  0  0  0  1  0  0  0  0  0  0
  -26.4680  -37.4560   23.8120 N   0  0  0  0  0  0  0  0  0  0  0  0
  -26.0540  -38.3780   23.9220 H   0  0  0  0  0  0  0  0  0  0  0  0
  1  3  2  0
  2 52  1  0
  2  1  1  0
  3  6  1  0
  3  5  1  0
  4  2  1  0
  8  7  1  0
  9  7  2  0
 10  1  1  0
 10  8  2  0
 11  9  1  0
 12 11  2  0
 12 10  1  0
 13 12  1  0
 14 22  1  0
 15 20  1  0
 16 17  1  0
 16 15  1  0
 18 17  1  0
 18 27  1  0
 18 19  1  0
 20 14  1  0
 20 19  1  0
 21 14  2  0
 22 11  1  0
 22 23  1  0
 24 25  2  0
 25 44  1  0
 26 25  1  0
 26 29  1  0
 27 28  1  0
 27 24  1  0
 28 26  2  0
 29 30  1  0
 30 31  2  0
 32 35  1  0
 32 31  1  0
 33 32  2  0
 34 33  1  0
 34 29  2  0
 35 36  1  0
 36 41  2  0
 36 37  1  0
 37 38  2  0
 38 39  1  0
 39 43  1  0
 40 39  2  0
 41 40  1  0
 42 41  1  0
 44 45  1  0
 45 48  1  0
 45 47  1  0
 46 44  2  0
 49 24  1  0
 49 50  1  0
 51 49  1  0
 53 52  1  0
 53 55  1  0
 54 53  2  0
 56 55  1  0
 57 68  2  0
 58 56  1  0
 58 63  1  0
 59 67  1  0
 59 69  1  0
 60 66  1  0
 60 62  1  0
 61 67  1  0
 62 63  2  0
 62 61  1  0
 64 58  2  0
 65 64  1  0
 65 60  2  0
 66 59  1  0
 67 57  1  0
 69 71  2  0
 70 69  1  0
 72 70  1  0
 73 82  2  0
 73 78  1  0
 74 70  1  0
 74 78  1  0
 75 74  1  0
 76 77  1  0
 76 75  1  0
 77 73  1  0
 78 79  2  0
 79 80  1  0
 81 80  2  0
 82 81  1  0
 83 57  1  0
 83 88  1  0
 83 84  1  0
 84 87  1  1
 84 85  1  0
 86 84  1  0
 88 91  1  0
 89 93  1  0
 89 88  1  0
 90 89  2  0
 93 92  1  0
 95 93  1  0
 95 96  1  0
 95 94  1  0
M  ISO  4  14 100  22 100  55 101  56 101
M  END
>  <TORSDO>  (56) 
F 20

>  <SCORE>  (56) 
-13.825

>  <name>  (56) 
55

>  <ligand_id>  (56) 
55

>  <original_smiles>  (56) 
[H]c1c([H])c(C(N([H])C([H])([H])C(=O)C([H])([H])Oc2c([H])c([H])c3c(c2[H])C([H])([H])N(C(=O)C([H])(N([H])C(=O)C([H])(N([H])C([H])([H])[H])C([H])([H])[H])C(C([H])([H])[H])(C([H])([H])[H])C([H])([H])[H])C([H])(C(=O)N([H])C2([H])c4c([H])c([H])c([H])c([H])c4C([H])([H])C([H])([H])C2([H])[H])C3([H])[H])=[N+]([H])[H])c(F)c(N([H])C(=O)N2C([H])([H])C([H])([H])C([H])([H])C([H])(n3nc(-c4c([H])c([H])c(Oc5c([H])c([H])c(F)c([H])c5F)c([H])c4[H])c(C(=O)N([H])[H])c3N([H])[H])C2([H])[H])c1[H]

>  <smiles>  (56) 
[H]c1c([H])c(C(N([H])C([H])([H])C(=O)C([H])([H])Oc2c([H])c([H])c3c(c2[H])C([H])([H])N(C(=O)C([H])(N([H])C(=O)C([H])(N([H])C([H])([H])[H])C([H])([H])[H])C(C([H])([H])[H])(C([H])([H])[H])C([H])([H])[H])C([H])(C(=O)N([H])C2([H])c4c([H])c([H])c([H])c([H])c4C([H])([H])C([H])([H])C2([H])[H])C3([H])[H])=[N+]([H])[H])c(F)c(N([H])C(=O)N2C([H])([H])C([H])([H])C([H])([H])C([H])(n3nc(-c4c([H])c([H])c(Oc5c([H])c([H])c(F)c([H])c5F)c([H])c4[H])c(C(=O)N([H])[H])c3N([H])[H])C2([H])[H])c1[H]

$$$$
56:0:0
     RDKit          3D

 90 98  0  0  1  0  0  0  0  0999 V2000
  -29.2540  -23.0500   20.5780 C   0  0  0  0  0  3  0  0  0  0  0  0
  -29.6610  -21.9350   20.0860 N   0  0  0  0  0  0  0  0  0  0  0  0
  -30.8830  -19.8590   22.9940 C   0  0  0  0  0  3  0  0  0  0  0  0
  -31.2380  -18.6720   22.3250 C   0  0  0  0  0  3  0  0  0  0  0  0
  -30.3620  -20.9550   22.2820 C   0  0  0  0  0  3  0  0  0  0  0  0
  -30.5390  -19.6790   20.2210 C   0  0  0  0  0  3  0  0  0  0  0  0
  -31.0610  -18.5660   20.9300 C   0  0  0  0  0  0  0  0  0  0  0  0
  -30.1920  -20.8890   20.8730 C   0  0  0  0  0  0  0  0  0  0  0  0
  -31.4480  -17.2900   20.1690 C   0  0  0  0  0  2  0  0  0  0  0  0
  -31.1440  -15.9380   20.8800 C   0  0  0  0  0  2  0  0  0  0  0  0
  -31.7290  -14.7070   20.1450 C   0  0  0  0  0  0  0  0  0  0  0  0
  -31.3100  -12.5450   19.0180 C   0  0  0  0  0  2  0  0  0  0  0  0
  -30.3670  -12.7700   17.8180 C   0  0  0  0  0  2  0  0  0  0  0  0
  -28.8910  -12.7270   18.2610 C   0  0  0  0  0  2  0  0  0  0  0  0
  -28.6150  -13.6140   19.5050 C   0  0  0  0  0  3  0  0  0  0  0  0
  -29.6640  -13.3490   20.6090 C   0  0  0  0  0  2  0  0  0  0  0  0
  -30.9980  -13.5650   20.0290 N   0  0  0  0  0  0  0  0  0  0  0  0
  -32.8350  -14.8250   19.6070 O   0  0  0  0  0  0  0  0  0  0  0  0
  -26.2660  -14.3850   20.2240 C   0  0  0  0  0  0  0  0  0  0  0  0
  -25.1530  -13.6870   20.6090 C   0  0  0  0  0  0  0  0  0  0  0  0
  -25.5240  -12.3080   20.5860 C   0  0  0  0  0  0  0  0  0  0  0  0
  -27.2510  -13.4350   19.9970 N   0  0  0  0  0  0  0  0  0  0  0  0
  -26.8060  -12.1820   20.2690 N   0  0  0  0  0  0  0  0  0  0  0  0
  -24.7190  -11.0980   20.7950 C   0  0  0  0  0  0  0  0  0  0  0  0
  -25.0520  -10.1520   21.7880 C   0  0  0  0  0  3  0  0  0  0  0  0
  -24.2530   -9.0040   21.9830 C   0  0  0  0  0  3  0  0  0  0  0  0
  -23.1040   -8.7970   21.1810 C   0  0  0  0  0  0  0  0  0  0  0  0
  -22.7890   -9.7310   20.1790 C   0  0  0  0  0  3  0  0  0  0  0  0
  -23.5890  -10.8690   19.9840 C   0  0  0  0  0  3  0  0  0  0  0  0
  -22.2840   -7.7000   21.2810 O   0  0  0  0  0  0  0  0  0  0  0  0
  -22.0610   -7.0730   22.4800 C   0  0  0  0  0  0  0  0  0  0  0  0
  -21.5460   -7.7650   23.5980 C   0  0  0  0  0  3  0  0  0  0  0  0
  -21.2670   -7.0680   24.7900 C   0  0  0  0  0  3  0  0  0  0  0  0
  -21.4940   -5.6810   24.8650 C   0  0  0  0  0  0  0  0  0  0  0  0
  -22.0020   -4.9890   23.7510 C   0  0  0  0  0  3  0  0  0  0  0  0
  -22.2810   -5.6830   22.5620 C   0  0  0  0  0  0  0  0  0  0  0  0
  -22.7510   -5.0090   21.4850 F   0  0  0  0  0  0  0  0  0  0  0  0
  -21.2190   -5.0090   26.0070 F   0  0  0  0  0  0  0  0  0  0  0  0
  -23.7920  -14.2570   20.8890 C   0  0  0  0  0  0  0  0  0  0  0  0
  -23.0430  -13.6360   21.7930 N   0  0  0  0  0  0  0  0  0  0  0  0
  -23.4040  -15.2890   20.3420 O   0  0  0  0  0  0  0  0  0  0  0  0
  -23.3680  -12.8010   22.2570 H   0  0  0  0  0  0  0  0  0  0  0  0
  -22.1300  -14.0000   22.0250 H   0  0  0  0  0  0  0  0  0  0  0  0
  -26.5200  -15.7400   20.0320 N   0  0  0  0  0  0  0  0  0  0  0  0
  -25.8020  -16.4470   20.1440 H   0  0  0  0  0  0  0  0  0  0  0  0
  -27.4030  -16.1200   19.7140 H   0  0  0  0  0  0  0  0  0  0  0  0
  -28.6270  -24.2120   19.8220 C   0  0  0  0  0  0  0  0  0  0  0  0
  -28.4350  -24.1900   18.5970 O   0  0  0  0  0  0  0  0  0  0  0  0
  -28.2230  -25.4360   20.6680 C   0  0  0  0  0  2  0  0  0  0  0  0
  -28.2840  -26.6660   19.9210 O   0  0  0  0  0  0  0  0  0  0  0  0
  -24.7210  -31.7940   23.3460 C   0  0  0  0  0  0  0  0  0  0  0  0
  -27.1440  -27.4320   19.9960 C   0  0  0  0  0  0  0  0  0  0  0  0
  -23.4280  -30.5060   21.6750 C   0  0  0  0  0  3  0  0  0  0  0  0
  -24.7960  -28.9940   20.1410 C   0  0  0  0  0  0  0  0  0  0  0  0
  -25.9550  -30.8040   21.4200 C   0  0  0  0  0  2  0  0  0  0  0  0
  -25.9840  -29.4620   20.7180 C   0  0  0  0  0  0  0  0  0  0  0  0
  -27.1650  -28.6900   20.6380 C   0  0  0  0  0  3  0  0  0  0  0  0
  -25.9430  -26.9720   19.4180 C   0  0  0  0  0  3  0  0  0  0  0  0
  -24.7680  -27.7480   19.4890 C   0  0  0  0  0  3  0  0  0  0  0  0
  -23.5780  -29.8830   20.2620 C   0  0  0  0  0  2  0  0  0  0  0  0
  -24.7220  -31.0450   22.2060 N   0  0  0  0  0  0  0  0  0  0  0  0
  -23.6640  -32.0720   23.9290 O   0  0  0  0  0  0  0  0  0  0  0  0
  -22.7700  -29.4620   22.6070 C   0  0  0  0  0  0  0  0  0  0  0  0
  -21.4450  -29.2910   22.4740 N   0  0  0  0  0  0  0  0  0  0  0  0
  -23.4500  -28.8100   23.4040 O   0  0  0  0  0  0  0  0  0  0  0  0
  -20.9600  -29.8700   21.8010 H   0  0  0  0  0  0  0  0  0  0  0  0
  -18.0760  -28.0490   22.8740 C   0  0  0  0  0  0  0  0  0  0  0  0
  -20.6220  -28.3370   23.2140 C   0  0  0  0  0  3  0  0  0  0  0  0
  -20.7580  -26.9130   22.6280 C   0  0  0  0  0  2  0  0  0  0  0  0
  -19.6870  -26.5860   21.5820 C   0  0  0  0  0  2  0  0  0  0  0  0
  -18.2870  -26.7070   22.1910 C   0  0  0  0  0  2  0  0  0  0  0  0
  -19.1730  -28.8210   23.3380 C   0  0  0  0  0  0  0  0  0  0  0  0
  -18.9230  -30.0780   23.9320 C   0  0  0  0  0  3  0  0  0  0  0  0
  -17.6080  -30.5630   24.0650 C   0  0  0  0  0  3  0  0  0  0  0  0
  -16.5250  -29.7880   23.6180 C   0  0  0  0  0  3  0  0  0  0  0  0
  -16.7580  -28.5320   23.0290 C   0  0  0  0  0  3  0  0  0  0  0  0
  -26.0430  -32.3540   23.9580 C   0  0  0  0  0  3  0  0  0  0  0  0
  -25.7820  -33.7360   24.3850 N   0  0  0  0  0  0  0  0  0  0  0  0
  -26.1360  -34.8250   23.6900 C   0  0  0  0  0  0  0  0  0  0  0  0
  -26.7890  -34.7690   22.6430 O   0  0  0  0  0  0  0  0  0  0  0  0
  -25.2070  -33.8560   25.2050 H   0  0  0  0  0  0  0  0  0  0  0  0
  -24.4600  -36.6850   23.4750 C   0  0  0  0  0  1  0  0  0  0  0  0
  -25.6980  -36.1940   24.2430 C   0  0  0  0  0  3  0  0  0  0  0  0
  -27.8680  -36.9530   25.1010 C   0  0  0  0  0  1  0  0  0  0  0  0
  -26.7600  -37.2210   24.1860 N   0  0  0  0  0  0  0  0  0  0  0  0
  -26.3860  -38.1400   24.4040 H   0  0  0  0  0  0  0  0  0  0  0  0
  -26.5870  -31.4910   25.1610 C   0  0  1  0  0  0  0  0  0  0  0  0
  -25.5250  -31.1980   26.2470 C   0  0  0  0  0  1  0  0  0  0  0  0
  -27.1330  -30.1360   24.6570 C   0  0  0  0  0  1  0  0  0  0  0  0
  -27.7750  -32.2200   25.8360 C   0  0  0  0  0  1  0  0  0  0  0  0
  2  1  2  0
  2  8  1  0
  4  3  1  0
  5  3  2  0
  6  8  2  0
  6  7  1  0
  7  4  2  0
  8  5  1  0
  9 10  1  0
  9  7  1  0
 11 10  1  0
 12 17  1  0
 13 14  1  0
 13 12  1  0
 15 14  1  0
 15 22  1  0
 15 16  1  0
 17 11  1  0
 17 16  1  0
 18 11  2  0
 19 20  2  0
 20 39  1  0
 21 20  1  0
 21 24  1  0
 22 19  1  0
 22 23  1  0
 23 21  2  0
 24 25  1  0
 25 26  2  0
 27 30  1  0
 27 26  1  0
 28 27  2  0
 29 28  1  0
 29 24  2  0
 30 31  1  0
 31 36  2  0
 31 32  1  0
 32 33  2  0
 33 34  1  0
 34 38  1  0
 35 34  2  0
 36 35  1  0
 37 36  1  0
 39 40  1  0
 40 43  1  0
 40 42  1  0
 41 39  2  0
 44 45  1  0
 44 19  1  0
 46 44  1  0
 47  1  1  0
 47 49  1  0
 48 47  2  0
 50 52  1  0
 50 49  1  0
 51 62  2  0
 52 57  1  0
 53 61  1  0
 53 63  1  0
 54 60  1  0
 54 56  1  0
 55 61  1  0
 56 55  1  0
 57 56  2  0
 58 59  1  0
 58 52  2  0
 59 54  2  0
 60 53  1  0
 61 51  1  0
 63 65  2  0
 64 63  1  0
 66 64  1  0
 67 76  2  0
 67 72  1  0
 68 64  1  0
 68 72  1  0
 69 68  1  0
 70 71  1  0
 70 69  1  0
 71 67  1  0
 72 73  2  0
 73 74  1  0
 75 74  2  0
 76 75  1  0
 77 51  1  0
 77 78  1  0
 77 87  1  0
 78 81  1  0
 79 83  1  0
 79 78  1  0
 80 79  2  0
 83 82  1  0
 85 83  1  0
 85 86  1  0
 85 84  1  0
 87 90  1  1
 87 88  1  0
 89 87  1  0
M  ISO  4  10 100  11 100  49 101  50 101
M  END
>  <TORSDO>  (57) 
F 21

>  <SCORE>  (57) 
-11.906

>  <name>  (57) 
56

>  <ligand_id>  (57) 
56

>  <original_smiles>  (57) 
[H]C(=Nc1c([H])c([H])c([H])c(C([H])([H])C([H])([H])C(=O)N2C([H])([H])C([H])([H])C([H])([H])C([H])(n3nc(-c4c([H])c([H])c(Oc5c([H])c([H])c(F)c([H])c5F)c([H])c4[H])c(C(=O)N([H])[H])c3N([H])[H])C2([H])[H])c1[H])C(=O)C([H])([H])Oc1c([H])c([H])c2c(c1[H])C([H])([H])N(C(=O)C([H])(N([H])C(=O)C([H])(N([H])C([H])([H])[H])C([H])([H])[H])C(C([H])([H])[H])(C([H])([H])[H])C([H])([H])[H])C([H])(C(=O)N([H])C1([H])c3c([H])c([H])c([H])c([H])c3C([H])([H])C([H])([H])C1([H])[H])C2([H])[H]

>  <smiles>  (57) 
[H]C(=Nc1c([H])c([H])c([H])c(C([H])([H])C([H])([H])C(=O)N2C([H])([H])C([H])([H])C([H])([H])C([H])(n3nc(-c4c([H])c([H])c(Oc5c([H])c([H])c(F)c([H])c5F)c([H])c4[H])c(C(=O)N([H])[H])c3N([H])[H])C2([H])[H])c1[H])C(=O)C([H])([H])Oc1c([H])c([H])c2c(c1[H])C([H])([H])N(C(=O)C([H])(N([H])C(=O)C([H])(N([H])C([H])([H])[H])C([H])([H])[H])C(C([H])([H])[H])(C([H])([H])[H])C([H])([H])[H])C([H])(C(=O)N([H])C1([H])c3c([H])c([H])c([H])c([H])c3C([H])([H])C([H])([H])C1([H])[H])C2([H])[H]

$$$$
57:0:0
     RDKit          3D

 93102  0  0  1  0  0  0  0  0999 V2000
  -29.7680  -23.2790   21.2200 C   0  0  0  0  0  3  0  0  0  0  0  0
  -28.8620  -23.8680   20.4060 C   0  0  0  0  0  0  0  0  0  0  0  0
  -30.2420  -21.8020   21.1890 C   0  0  0  0  0  2  0  0  0  0  0  0
  -28.2210  -22.9730   19.3380 C   0  0  0  0  0  2  0  0  0  0  0  0
  -29.0290  -21.6880   18.9000 C   0  0  0  0  0  2  0  0  0  0  0  0
  -29.9480  -20.9270   19.9210 C   0  0  0  0  0  3  0  0  0  0  0  0
  -28.3250  -17.6590   20.7780 C   0  0  0  0  0  3  0  0  0  0  0  0
  -29.5640  -17.1600   20.4600 C   0  0  0  0  0  0  0  0  0  0  0  0
  -29.5890  -19.4250   20.1940 C   0  0  0  0  0  3  0  0  0  0  0  0
  -30.3350  -18.2720   20.0970 N   0  0  0  0  0  0  0  0  0  0  0  0
  -28.3780  -19.0210   20.6070 N   0  0  0  0  0  0  0  0  0  0  0  0
  -31.3060  -18.2450   19.8080 H   0  0  0  0  0  0  0  0  0  0  0  0
  -27.5960  -19.6440   20.7690 H   0  0  0  0  0  0  0  0  0  0  0  0
  -30.6350  -14.7590   20.0040 C   0  0  0  0  0  0  0  0  0  0  0  0
  -30.4790  -12.4940   18.9600 C   0  0  0  0  0  2  0  0  0  0  0  0
  -29.4670  -12.5680   17.7920 C   0  0  0  0  0  2  0  0  0  0  0  0
  -28.0180  -12.3830   18.2930 C   0  0  0  0  0  2  0  0  0  0  0  0
  -27.7030  -13.2580   19.5330 C   0  0  0  0  0  3  0  0  0  0  0  0
  -28.8130  -13.1090   20.5990 C   0  0  0  0  0  2  0  0  0  0  0  0
  -30.0880  -13.4990   19.9690 N   0  0  0  0  0  0  0  0  0  0  0  0
  -31.7430  -15.0030   19.5110 O   0  0  0  0  0  0  0  0  0  0  0  0
  -29.7980  -15.7080   20.5310 N   0  0  0  0  0  0  0  0  0  0  0  0
  -29.0340  -15.2320   20.9860 H   0  0  0  0  0  0  0  0  0  0  0  0
  -25.3540  -13.8610   20.3890 C   0  0  0  0  0  0  0  0  0  0  0  0
  -24.3030  -13.0850   20.7970 C   0  0  0  0  0  0  0  0  0  0  0  0
  -24.7520  -11.7320   20.7060 C   0  0  0  0  0  0  0  0  0  0  0  0
  -26.3770  -12.9790   20.0770 N   0  0  0  0  0  0  0  0  0  0  0  0
  -26.0240  -11.6930   20.3290 N   0  0  0  0  0  0  0  0  0  0  0  0
  -24.0290  -10.4700   20.8970 C   0  0  0  0  0  0  0  0  0  0  0  0
  -24.4370   -9.5260   21.8650 C   0  0  0  0  0  3  0  0  0  0  0  0
  -23.7140   -8.3280   22.0440 C   0  0  0  0  0  3  0  0  0  0  0  0
  -22.5690   -8.0640   21.2550 C   0  0  0  0  0  0  0  0  0  0  0  0
  -22.1780   -8.9990   20.2800 C   0  0  0  0  0  3  0  0  0  0  0  0
  -22.9030  -10.1880   20.0980 C   0  0  0  0  0  3  0  0  0  0  0  0
  -21.8200   -6.9140   21.3420 O   0  0  0  0  0  0  0  0  0  0  0  0
  -21.6490   -6.2560   22.5330 C   0  0  0  0  0  0  0  0  0  0  0  0
  -21.0580   -6.8840   23.6510 C   0  0  0  0  0  3  0  0  0  0  0  0
  -20.8350   -6.1500   24.8330 C   0  0  0  0  0  3  0  0  0  0  0  0
  -21.1920   -4.7910   24.8970 C   0  0  0  0  0  0  0  0  0  0  0  0
  -21.7760   -4.1620   23.7830 C   0  0  0  0  0  3  0  0  0  0  0  0
  -22.0000   -4.8930   22.6040 C   0  0  0  0  0  0  0  0  0  0  0  0
  -22.5430   -4.2770   21.5250 F   0  0  0  0  0  0  0  0  0  0  0  0
  -20.9710   -4.0830   26.0290 F   0  0  0  0  0  0  0  0  0  0  0  0
  -22.9250  -13.5640   21.1540 C   0  0  0  0  0  0  0  0  0  0  0  0
  -22.2410  -12.8540   22.0440 N   0  0  0  0  0  0  0  0  0  0  0  0
  -22.4660  -14.6030   20.6810 O   0  0  0  0  0  0  0  0  0  0  0  0
  -22.6220  -12.0120   22.4490 H   0  0  0  0  0  0  0  0  0  0  0  0
  -21.3220  -13.1620   22.3280 H   0  0  0  0  0  0  0  0  0  0  0  0
  -25.5180  -15.2360   20.2300 N   0  0  0  0  0  0  0  0  0  0  0  0
  -24.7250  -15.8620   20.3250 H   0  0  0  0  0  0  0  0  0  0  0  0
  -26.2780  -15.6460   19.7030 H   0  0  0  0  0  0  0  0  0  0  0  0
  -28.1520  -25.2310   20.7880 C   0  0  0  0  0  2  0  0  0  0  0  0
  -28.4090  -26.5110   20.0820 O   0  0  0  0  0  0  0  0  0  0  0  0
  -24.6200  -31.8650   23.1590 C   0  0  0  0  0  0  0  0  0  0  0  0
  -27.3100  -27.3840   20.0570 C   0  0  0  0  0  0  0  0  0  0  0  0
  -23.4420  -30.4670   21.4990 C   0  0  0  0  0  3  0  0  0  0  0  0
  -24.9210  -28.9560   20.0590 C   0  0  0  0  0  0  0  0  0  0  0  0
  -25.9770  -30.8260   21.3280 C   0  0  0  0  0  2  0  0  0  0  0  0
  -26.0820  -29.4570   20.6650 C   0  0  0  0  0  0  0  0  0  0  0  0
  -27.2830  -28.6830   20.6560 C   0  0  0  0  0  3  0  0  0  0  0  0
  -26.1310  -26.9410   19.4210 C   0  0  0  0  0  3  0  0  0  0  0  0
  -24.9480  -27.7030   19.4250 C   0  0  0  0  0  3  0  0  0  0  0  0
  -23.6720  -29.8100   20.1120 C   0  0  0  0  0  2  0  0  0  0  0  0
  -24.6970  -31.0710   22.0510 N   0  0  0  0  0  0  0  0  0  0  0  0
  -23.5310  -32.1210   23.6940 O   0  0  0  0  0  0  0  0  0  0  0  0
  -22.7920  -29.4310   22.4460 C   0  0  0  0  0  0  0  0  0  0  0  0
  -21.4710  -29.2280   22.3050 N   0  0  0  0  0  0  0  0  0  0  0  0
  -23.4740  -28.8130   23.2670 O   0  0  0  0  0  0  0  0  0  0  0  0
  -20.9780  -29.7820   21.6180 H   0  0  0  0  0  0  0  0  0  0  0  0
  -18.1110  -27.9660   22.7670 C   0  0  0  0  0  0  0  0  0  0  0  0
  -20.6620  -28.2700   23.0610 C   0  0  0  0  0  3  0  0  0  0  0  0
  -20.7940  -26.8460   22.4770 C   0  0  0  0  0  2  0  0  0  0  0  0
  -19.7070  -26.5100   21.4500 C   0  0  0  0  0  2  0  0  0  0  0  0
  -18.3180  -26.6240   22.0840 C   0  0  0  0  0  2  0  0  0  0  0  0
  -19.2120  -28.7450   23.2130 C   0  0  0  0  0  0  0  0  0  0  0  0
  -18.9650  -29.9980   23.8130 C   0  0  0  0  0  3  0  0  0  0  0  0
  -17.6500  -30.4740   23.9720 C   0  0  0  0  0  3  0  0  0  0  0  0
  -16.5630  -29.6920   23.5430 C   0  0  0  0  0  3  0  0  0  0  0  0
  -16.7950  -28.4400   22.9460 C   0  0  0  0  0  3  0  0  0  0  0  0
  -25.8920  -32.5080   23.7920 C   0  0  0  0  0  3  0  0  0  0  0  0
  -25.5610  -33.8970   24.1420 N   0  0  0  0  0  0  0  0  0  0  0  0
  -25.8710  -34.9670   23.3960 C   0  0  0  0  0  0  0  0  0  0  0  0
  -26.5370  -34.8880   22.3600 O   0  0  0  0  0  0  0  0  0  0  0  0
  -24.9670  -34.0300   24.9460 H   0  0  0  0  0  0  0  0  0  0  0  0
  -24.1070  -36.7330   23.0810 C   0  0  0  0  0  1  0  0  0  0  0  0
  -25.3620  -36.3380   23.8770 C   0  0  0  0  0  3  0  0  0  0  0  0
  -27.4870  -37.2500   24.7050 C   0  0  0  0  0  1  0  0  0  0  0  0
  -26.3720  -37.4150   23.7760 N   0  0  0  0  0  0  0  0  0  0  0  0
  -25.9480  -38.3210   23.9510 H   0  0  0  0  0  0  0  0  0  0  0  0
  -26.4190  -31.7280   25.0580 C   0  0  1  0  0  0  0  0  0  0  0  0
  -25.3280  -31.4590   26.1190 C   0  0  0  0  0  1  0  0  0  0  0  0
  -27.0260  -30.3650   24.6490 C   0  0  0  0  0  1  0  0  0  0  0  0
  -27.5530  -32.5330   25.7350 C   0  0  0  0  0  1  0  0  0  0  0  0
  2 52  1  0
  2  1  2  0
  3  1  1  0
  4  2  1  0
  5  4  1  0
  6  5  1  0
  6  9  1  0
  6  3  1  0
  8 22  1  0
  8  7  2  0
  9 10  1  0
  9 11  1  0
 10  8  1  0
 11 13  1  0
 11  7  1  0
 12 10  1  0
 14 22  1  0
 15 20  1  0
 16 17  1  0
 16 15  1  0
 18 17  1  0
 18 27  1  0
 18 19  1  0
 20 14  1  0
 20 19  1  0
 21 14  2  0
 22 23  1  0
 24 25  2  0
 25 44  1  0
 26 25  1  0
 26 29  1  0
 27 28  1  0
 27 24  1  0
 28 26  2  0
 29 30  1  0
 30 31  2  0
 32 35  1  0
 32 31  1  0
 33 32  2  0
 34 33  1  0
 34 29  2  0
 35 36  1  0
 36 41  2  0
 36 37  1  0
 37 38  2  0
 38 39  1  0
 39 43  1  0
 40 39  2  0
 41 40  1  0
 42 41  1  0
 44 45  1  0
 45 48  1  0
 45 47  1  0
 46 44  2  0
 49 50  1  0
 49 24  1  0
 51 49  1  0
 53 52  1  0
 54 65  2  0
 55 53  1  0
 55 60  1  0
 56 64  1  0
 56 66  1  0
 57 63  1  0
 57 59  1  0
 58 64  1  0
 59 58  1  0
 60 59  2  0
 61 62  1  0
 61 55  2  0
 62 57  2  0
 63 56  1  0
 64 54  1  0
 66 68  2  0
 67 66  1  0
 69 67  1  0
 70 79  2  0
 70 75  1  0
 71 67  1  0
 71 75  1  0
 72 71  1  0
 73 74  1  0
 73 72  1  0
 74 70  1  0
 75 76  2  0
 76 77  1  0
 78 77  2  0
 79 78  1  0
 80 54  1  0
 80 81  1  0
 80 90  1  0
 81 84  1  0
 82 86  1  0
 82 81  1  0
 83 82  2  0
 86 85  1  0
 88 86  1  0
 88 89  1  0
 88 87  1  0
 90 93  1  1
 90 91  1  0
 92 90  1  0
M  ISO  4  14 100  22 100  52 101  53 101
M  END
>  <TORSDO>  (58) 
F 18

>  <SCORE>  (58) 
-14.449

>  <name>  (58) 
57

>  <ligand_id>  (58) 
57

>  <original_smiles>  (58) 
[H]C1=C(C([H])([H])Oc2c([H])c([H])c3c(c2[H])C([H])([H])N(C(=O)C([H])(N([H])C(=O)C([H])(N([H])C([H])([H])[H])C([H])([H])[H])C(C([H])([H])[H])(C([H])([H])[H])C([H])([H])[H])C([H])(C(=O)N([H])C2([H])c4c([H])c([H])c([H])c([H])c4C([H])([H])C([H])([H])C2([H])[H])C3([H])[H])C([H])([H])C([H])([H])C([H])(c2n([H])c(N([H])C(=O)N3C([H])([H])C([H])([H])C([H])([H])C([H])(n4nc(-c5c([H])c([H])c(Oc6c([H])c([H])c(F)c([H])c6F)c([H])c5[H])c(C(=O)N([H])[H])c4N([H])[H])C3([H])[H])c([H])[n+]2[H])C1([H])[H]

>  <smiles>  (58) 
[H]C1=C(C([H])([H])Oc2c([H])c([H])c3c(c2[H])C([H])([H])N(C(=O)C([H])(N([H])C(=O)C([H])(N([H])C([H])([H])[H])C([H])([H])[H])C(C([H])([H])[H])(C([H])([H])[H])C([H])([H])[H])C([H])(C(=O)N([H])C2([H])c4c([H])c([H])c([H])c([H])c4C([H])([H])C([H])([H])C2([H])[H])C3([H])[H])C([H])([H])C([H])([H])C([H])(c2n([H])c(N([H])C(=O)N3C([H])([H])C([H])([H])C([H])([H])C([H])(n4nc(-c5c([H])c([H])c(Oc6c([H])c([H])c(F)c([H])c6F)c([H])c5[H])c(C(=O)N([H])[H])c4N([H])[H])C3([H])[H])c([H])[n+]2[H])C1([H])[H]

$$$$
58:0:0
     RDKit          3D

 98106  0  0  1  0  0  0  0  0999 V2000
  -29.0130  -20.6220   20.7450 C   0  0  0  0  0  0  0  0  0  0  0  0
  -29.2420  -21.9010   20.3780 N   0  0  0  0  0  0  0  0  0  0  0  0
  -27.8270  -20.3200   21.2720 N   0  0  0  0  0  4  0  0  0  0  0  0
  -30.1130  -22.1180   19.9050 H   0  0  0  0  0  0  0  0  0  0  0  0
  -27.6750  -19.3910   21.6340 H   0  0  0  0  0  0  0  0  0  0  0  0
  -27.0730  -20.9800   21.3330 H   0  0  0  0  0  0  0  0  0  0  0  0
  -31.3950  -19.9060   20.6890 C   0  0  0  0  0  3  0  0  0  0  0  0
  -29.6710  -18.1800   20.5500 C   0  0  0  0  0  3  0  0  0  0  0  0
  -32.0230  -17.5470   20.5860 C   0  0  0  0  0  3  0  0  0  0  0  0
  -30.0300  -19.5560   20.6350 C   0  0  0  0  0  0  0  0  0  0  0  0
  -32.3880  -18.9080   20.6680 C   0  0  0  0  0  0  0  0  0  0  0  0
  -30.6600  -17.1600   20.5190 C   0  0  0  0  0  0  0  0  0  0  0  0
  -30.9620  -14.7190   20.0080 C   0  0  0  0  0  0  0  0  0  0  0  0
  -30.6620  -12.4700   19.0310 C   0  0  0  0  0  2  0  0  0  0  0  0
  -29.6780  -12.5590   17.8470 C   0  0  0  0  0  2  0  0  0  0  0  0
  -28.2230  -12.4250   18.3370 C   0  0  0  0  0  2  0  0  0  0  0  0
  -27.9090  -13.3520   19.5410 C   0  0  0  0  0  3  0  0  0  0  0  0
  -29.0040  -13.2460   20.6260 C   0  0  0  0  0  2  0  0  0  0  0  0
  -30.3000  -13.5280   19.9880 N   0  0  0  0  0  0  0  0  0  0  0  0
  -32.0710  -14.8600   19.4840 O   0  0  0  0  0  0  0  0  0  0  0  0
  -30.2630  -15.7760   20.4800 N   0  0  0  0  0  0  0  0  0  0  0  0
  -29.3150  -15.5680   20.7570 H   0  0  0  0  0  0  0  0  0  0  0  0
  -25.5670  -13.9840   20.3990 C   0  0  0  0  0  0  0  0  0  0  0  0
  -24.5040  -13.2230   20.8050 C   0  0  0  0  0  0  0  0  0  0  0  0
  -24.9330  -11.8640   20.7100 C   0  0  0  0  0  0  0  0  0  0  0  0
  -26.5780  -13.0900   20.0870 N   0  0  0  0  0  0  0  0  0  0  0  0
  -26.2040  -11.8080   20.3320 N   0  0  0  0  0  0  0  0  0  0  0  0
  -24.1920  -10.6110   20.9040 C   0  0  0  0  0  0  0  0  0  0  0  0
  -24.5890   -9.6590   21.8680 C   0  0  0  0  0  3  0  0  0  0  0  0
  -23.8490   -8.4700   22.0480 C   0  0  0  0  0  3  0  0  0  0  0  0
  -22.6970   -8.2260   21.2620 C   0  0  0  0  0  0  0  0  0  0  0  0
  -22.3200   -9.1660   20.2880 C   0  0  0  0  0  3  0  0  0  0  0  0
  -23.0600  -10.3470   20.1060 C   0  0  0  0  0  3  0  0  0  0  0  0
  -21.9320   -7.0880   21.3490 O   0  0  0  0  0  0  0  0  0  0  0  0
  -21.7700   -6.4190   22.5350 C   0  0  0  0  0  0  0  0  0  0  0  0
  -21.1790   -7.0320   23.6630 C   0  0  0  0  0  3  0  0  0  0  0  0
  -20.9690   -6.2860   24.8400 C   0  0  0  0  0  3  0  0  0  0  0  0
  -21.3370   -4.9290   24.8900 C   0  0  0  0  0  0  0  0  0  0  0  0
  -21.9210   -4.3160   23.7670 C   0  0  0  0  0  3  0  0  0  0  0  0
  -22.1330   -5.0590   22.5920 C   0  0  0  0  0  0  0  0  0  0  0  0
  -22.6760   -4.4570   21.5060 F   0  0  0  0  0  0  0  0  0  0  0  0
  -21.1290   -4.2100   26.0170 F   0  0  0  0  0  0  0  0  0  0  0  0
  -23.1340  -13.7200   21.1660 C   0  0  0  0  0  0  0  0  0  0  0  0
  -22.4390  -13.0140   22.0510 N   0  0  0  0  0  0  0  0  0  0  0  0
  -22.6900  -14.7680   20.6970 O   0  0  0  0  0  0  0  0  0  0  0  0
  -22.8110  -12.1650   22.4490 H   0  0  0  0  0  0  0  0  0  0  0  0
  -21.5210  -13.3280   22.3340 H   0  0  0  0  0  0  0  0  0  0  0  0
  -25.7500  -15.3560   20.2480 N   0  0  0  0  0  0  0  0  0  0  0  0
  -24.9950  -16.0160   20.3980 H   0  0  0  0  0  0  0  0  0  0  0  0
  -26.5730  -15.7810   19.8400 H   0  0  0  0  0  0  0  0  0  0  0  0
  -33.7330  -19.2750   20.7420 N   0  0  0  0  0  0  0  0  0  0  0  0
  -33.9660  -20.1940   21.1050 H   0  0  0  0  0  0  0  0  0  0  0  0
  -34.4140  -18.5670   21.0010 H   0  0  0  0  0  0  0  0  0  0  0  0
  -28.3370  -23.0710   20.5830 C   0  0  0  0  0  2  0  0  0  0  0  0
  -28.9170  -24.4500   20.2000 C   0  0  0  0  0  0  0  0  0  0  0  0
  -29.9070  -24.5430   19.4640 O   0  0  0  0  0  0  0  0  0  0  0  0
  -28.2170  -25.6870   20.8140 C   0  0  0  0  0  2  0  0  0  0  0  0
  -28.4050  -26.9170   20.0740 O   0  0  0  0  0  0  0  0  0  0  0  0
  -24.6720  -31.9900   23.4230 C   0  0  0  0  0  0  0  0  0  0  0  0
  -27.2730  -27.7050   20.0910 C   0  0  0  0  0  0  0  0  0  0  0  0
  -23.4420  -30.6610   21.7400 C   0  0  0  0  0  3  0  0  0  0  0  0
  -24.8770  -29.2040   20.2120 C   0  0  0  0  0  0  0  0  0  0  0  0
  -25.9630  -31.0440   21.5100 C   0  0  0  0  0  2  0  0  0  0  0  0
  -26.0460  -29.7050   20.8010 C   0  0  0  0  0  0  0  0  0  0  0  0
  -27.2510  -28.9640   20.7360 C   0  0  0  0  0  3  0  0  0  0  0  0
  -26.0920  -27.2270   19.4860 C   0  0  0  0  0  3  0  0  0  0  0  0
  -24.8960  -27.9650   19.5480 C   0  0  0  0  0  3  0  0  0  0  0  0
  -23.6280  -30.0510   20.3250 C   0  0  0  0  0  2  0  0  0  0  0  0
  -24.7120  -31.2430   22.2830 N   0  0  0  0  0  0  0  0  0  0  0  0
  -23.6000  -32.2290   23.9960 O   0  0  0  0  0  0  0  0  0  0  0  0
  -22.8150  -29.5910   22.6630 C   0  0  0  0  0  0  0  0  0  0  0  0
  -21.5000  -29.3630   22.5090 N   0  0  0  0  0  0  0  0  0  0  0  0
  -23.5080  -28.9700   23.4730 O   0  0  0  0  0  0  0  0  0  0  0  0
  -21.0000  -29.9180   21.8290 H   0  0  0  0  0  0  0  0  0  0  0  0
  -18.1790  -27.9850   22.8710 C   0  0  0  0  0  0  0  0  0  0  0  0
  -20.7060  -28.3750   23.2420 C   0  0  0  0  0  3  0  0  0  0  0  0
  -20.9060  -26.9580   22.6590 C   0  0  0  0  0  2  0  0  0  0  0  0
  -19.8620  -26.5870   21.6020 C   0  0  0  0  0  2  0  0  0  0  0  0
  -18.4510  -26.6530   22.1950 C   0  0  0  0  0  2  0  0  0  0  0  0
  -19.2380  -28.8010   23.3490 C   0  0  0  0  0  0  0  0  0  0  0  0
  -18.9290  -30.0470   23.9390 C   0  0  0  0  0  3  0  0  0  0  0  0
  -17.5950  -30.4770   24.0590 C   0  0  0  0  0  3  0  0  0  0  0  0
  -16.5500  -29.6570   23.5980 C   0  0  0  0  0  3  0  0  0  0  0  0
  -16.8410  -28.4140   23.0100 C   0  0  0  0  0  3  0  0  0  0  0  0
  -25.9660  -32.5990   24.0470 C   0  0  0  0  0  3  0  0  0  0  0  0
  -25.6800  -34.0010   24.3790 N   0  0  0  0  0  0  0  0  0  0  0  0
  -26.0380  -35.0490   23.6250 C   0  0  0  0  0  0  0  0  0  0  0  0
  -26.7160  -34.9360   22.6000 O   0  0  0  0  0  0  0  0  0  0  0  0
  -25.0810  -34.1640   25.1750 H   0  0  0  0  0  0  0  0  0  0  0  0
  -24.3510  -36.8760   23.2510 C   0  0  0  0  0  1  0  0  0  0  0  0
  -25.5710  -36.4440   24.0810 C   0  0  0  0  0  3  0  0  0  0  0  0
  -27.7060  -37.2870   24.9550 C   0  0  0  0  0  1  0  0  0  0  0  0
  -26.6260  -37.4770   23.9890 N   0  0  0  0  0  0  0  0  0  0  0  0
  -26.2350  -38.4050   24.1300 H   0  0  0  0  0  0  0  0  0  0  0  0
  -26.4700  -31.8150   25.3210 C   0  0  1  0  0  0  0  0  0  0  0  0
  -25.3680  -31.5700   26.3770 C   0  0  0  0  0  1  0  0  0  0  0  0
  -27.0560  -30.4420   24.9190 C   0  0  0  0  0  1  0  0  0  0  0  0
  -27.6160  -32.6020   26.0000 C   0  0  0  0  0  1  0  0  0  0  0  0
  1  3  2  0
  2 54  1  0
  2  1  1  0
  3  6  1  0
  3  5  1  0
  4  2  1  0
  8 10  1  0
  9 11  2  0
 10  7  2  0
 10  1  1  0
 11  7  1  0
 11 51  1  0
 12  8  2  0
 12  9  1  0
 13 21  1  0
 14 19  1  0
 15 16  1  0
 15 14  1  0
 17 16  1  0
 17 26  1  0
 17 18  1  0
 19 13  1  0
 19 18  1  0
 20 13  2  0
 21 12  1  0
 21 22  1  0
 23 24  2  0
 24 43  1  0
 25 24  1  0
 25 28  1  0
 26 27  1  0
 26 23  1  0
 27 25  2  0
 28 29  1  0
 29 30  2  0
 31 34  1  0
 31 30  1  0
 32 31  2  0
 33 32  1  0
 33 28  2  0
 34 35  1  0
 35 40  2  0
 35 36  1  0
 36 37  2  0
 37 38  1  0
 38 42  1  0
 39 38  2  0
 40 39  1  0
 41 40  1  0
 43 44  1  0
 44 47  1  0
 44 46  1  0
 45 43  2  0
 48 49  1  0
 48 23  1  0
 50 48  1  0
 51 53  1  0
 51 52  1  0
 55 54  1  0
 55 57  1  0
 56 55  2  0
 58 60  1  0
 58 57  1  0
 59 70  2  0
 60 65  1  0
 61 69  1  0
 61 71  1  0
 62 68  1  0
 62 64  1  0
 63 69  1  0
 64 63  1  0
 65 64  2  0
 66 67  1  0
 66 60  2  0
 67 62  2  0
 68 61  1  0
 69 59  1  0
 71 73  2  0
 72 71  1  0
 74 72  1  0
 75 84  2  0
 75 80  1  0
 76 72  1  0
 76 80  1  0
 77 76  1  0
 78 79  1  0
 78 77  1  0
 79 75  1  0
 80 81  2  0
 81 82  1  0
 83 82  2  0
 84 83  1  0
 85 59  1  0
 85 86  1  0
 85 95  1  0
 86 89  1  0
 87 91  1  0
 87 86  1  0
 88 87  2  0
 91 90  1  0
 93 91  1  0
 93 94  1  0
 93 92  1  0
 95 98  1  1
 95 96  1  0
 97 95  1  0
M  ISO  4  13 100  21 100  57 101  58 101
M  END
>  <TORSDO>  (59) 
F 21

>  <SCORE>  (59) 
-13.423

>  <name>  (59) 
58

>  <ligand_id>  (59) 
58

>  <original_smiles>  (59) 
[H]c1c([H])c([H])c2c(c1[H])C([H])([H])C([H])([H])C([H])([H])C2([H])N([H])C(=O)C1([H])N(C(=O)C([H])(N([H])C(=O)C([H])(N([H])C([H])([H])[H])C([H])([H])[H])C(C([H])([H])[H])(C([H])([H])[H])C([H])([H])[H])C([H])([H])c2c([H])c(OC([H])([H])C(=O)C([H])([H])N([H])C(c3c([H])c(N([H])[H])c([H])c(N([H])C(=O)N4C([H])([H])C([H])([H])C([H])([H])C([H])(n5nc(-c6c([H])c([H])c(Oc7c([H])c([H])c(F)c([H])c7F)c([H])c6[H])c(C(=O)N([H])[H])c5N([H])[H])C4([H])[H])c3[H])=[N+]([H])[H])c([H])c([H])c2C1([H])[H]

>  <smiles>  (59) 
[H]c1c([H])c([H])c2c(c1[H])C([H])([H])C([H])([H])C([H])([H])C2([H])N([H])C(=O)C1([H])N(C(=O)C([H])(N([H])C(=O)C([H])(N([H])C([H])([H])[H])C([H])([H])[H])C(C([H])([H])[H])(C([H])([H])[H])C([H])([H])[H])C([H])([H])c2c([H])c(OC([H])([H])C(=O)C([H])([H])N([H])C(c3c([H])c(N([H])[H])c([H])c(N([H])C(=O)N4C([H])([H])C([H])([H])C([H])([H])C([H])(n5nc(-c6c([H])c([H])c(Oc7c([H])c([H])c(F)c([H])c7F)c([H])c6[H])c(C(=O)N([H])[H])c5N([H])[H])C4([H])[H])c3[H])=[N+]([H])[H])c([H])c([H])c2C1([H])[H]

$$$$
59:0:0
     RDKit          3D

 93101  0  0  1  0  0  0  0  0999 V2000
  -28.4540  -21.4830   20.2870 N   0  0  0  0  0  0  0  0  0  0  0  0
  -27.7660  -21.7230   19.5800 H   0  0  0  0  0  0  0  0  0  0  0  0
  -30.4380  -18.0440   18.9340 C   0  0  0  0  0  3  0  0  0  0  0  0
  -29.6560  -20.3090   18.5290 C   0  0  0  0  0  3  0  0  0  0  0  0
  -30.2800  -19.1370   18.0660 C   0  0  0  0  0  0  0  0  0  0  0  0
  -29.9880  -18.1610   20.2600 C   0  0  0  0  0  0  0  0  0  0  0  0
  -29.2040  -20.3630   19.8550 C   0  0  0  0  0  0  0  0  0  0  0  0
  -29.3830  -19.3110   20.7100 N   0  0  0  0  0  0  0  0  0  0  0  0
  -30.7230  -19.0590   16.7890 F   0  0  0  0  0  0  0  0  0  0  0  0
  -30.2620  -17.0090   21.2590 C   0  0  0  0  0  2  0  0  0  0  0  0
  -30.6190  -14.5840   20.4730 C   0  0  0  0  0  0  0  0  0  0  0  0
  -30.3800  -12.3820   19.3560 C   0  0  0  0  0  2  0  0  0  0  0  0
  -29.4350  -12.5310   18.1440 C   0  0  0  0  0  2  0  0  0  0  0  0
  -27.9600  -12.3810   18.5740 C   0  0  0  0  0  2  0  0  0  0  0  0
  -27.6080  -13.2370   19.8190 C   0  0  0  0  0  3  0  0  0  0  0  0
  -28.6640  -13.0540   20.9320 C   0  0  0  0  0  2  0  0  0  0  0  0
  -29.9760  -13.3860   20.3540 N   0  0  0  0  0  0  0  0  0  0  0  0
  -31.7820  -14.7470   20.0960 O   0  0  0  0  0  0  0  0  0  0  0  0
  -29.8540  -15.6260   20.8880 N   0  0  0  0  0  0  0  0  0  0  0  0
  -28.8900  -15.4040   21.0770 H   0  0  0  0  0  0  0  0  0  0  0  0
  -25.2110  -13.8490   20.5200 C   0  0  0  0  0  0  0  0  0  0  0  0
  -24.1420  -13.0800   20.8910 C   0  0  0  0  0  0  0  0  0  0  0  0
  -24.6020  -11.7270   20.8710 C   0  0  0  0  0  0  0  0  0  0  0  0
  -26.2560  -12.9640   20.2990 N   0  0  0  0  0  0  0  0  0  0  0  0
  -25.8930  -11.6840   20.5690 N   0  0  0  0  0  0  0  0  0  0  0  0
  -23.8720  -10.4670   21.0640 C   0  0  0  0  0  0  0  0  0  0  0  0
  -24.3120   -9.4940   21.9870 C   0  0  0  0  0  3  0  0  0  0  0  0
  -23.5830   -8.2990   22.1690 C   0  0  0  0  0  3  0  0  0  0  0  0
  -22.4020   -8.0680   21.4260 C   0  0  0  0  0  0  0  0  0  0  0  0
  -21.9810   -9.0310   20.4900 C   0  0  0  0  0  3  0  0  0  0  0  0
  -22.7100  -10.2170   20.3070 C   0  0  0  0  0  3  0  0  0  0  0  0
  -21.6450   -6.9250   21.5160 O   0  0  0  0  0  0  0  0  0  0  0  0
  -21.6200   -6.1670   22.6600 C   0  0  0  0  0  0  0  0  0  0  0  0
  -21.2430   -6.7130   23.9060 C   0  0  0  0  0  3  0  0  0  0  0  0
  -21.1640   -5.8820   25.0420 C   0  0  0  0  0  3  0  0  0  0  0  0
  -21.4510   -4.5080   24.9330 C   0  0  0  0  0  0  0  0  0  0  0  0
  -21.8220   -3.9630   23.6910 C   0  0  0  0  0  3  0  0  0  0  0  0
  -21.9030   -4.7900   22.5560 C   0  0  0  0  0  0  0  0  0  0  0  0
  -22.2400   -4.2570   21.3580 F   0  0  0  0  0  0  0  0  0  0  0  0
  -21.3690   -3.7090   26.0210 F   0  0  0  0  0  0  0  0  0  0  0  0
  -22.7430  -13.5600   21.1530 C   0  0  0  0  0  0  0  0  0  0  0  0
  -22.0110  -12.8710   22.0200 N   0  0  0  0  0  0  0  0  0  0  0  0
  -22.3090  -14.5840   20.6230 O   0  0  0  0  0  0  0  0  0  0  0  0
  -22.3760  -12.0440   22.4700 H   0  0  0  0  0  0  0  0  0  0  0  0
  -21.0730  -13.1750   22.2390 H   0  0  0  0  0  0  0  0  0  0  0  0
  -25.3780  -15.2170   20.3330 N   0  0  0  0  0  0  0  0  0  0  0  0
  -24.6060  -15.8680   20.4230 H   0  0  0  0  0  0  0  0  0  0  0  0
  -26.2160  -15.6510   19.9680 H   0  0  0  0  0  0  0  0  0  0  0  0
  -29.1460  -22.7630   20.5750 C   0  0  0  0  0  2  0  0  0  0  0  0
  -28.4240  -24.0350   20.0130 C   0  0  0  0  0  0  0  0  0  0  0  0
  -27.8580  -23.9690   18.9170 O   0  0  0  0  0  0  0  0  0  0  0  0
  -28.3810  -25.3480   20.8660 C   0  0  0  0  0  2  0  0  0  0  0  0
  -28.3790  -26.6010   20.1130 O   0  0  0  0  0  0  0  0  0  0  0  0
  -24.6070  -31.8790   23.2240 C   0  0  0  0  0  0  0  0  0  0  0  0
  -27.2260  -27.3730   20.1590 C   0  0  0  0  0  0  0  0  0  0  0  0
  -23.3940  -30.4750   21.5900 C   0  0  0  0  0  3  0  0  0  0  0  0
  -24.8410  -28.9210   20.1660 C   0  0  0  0  0  0  0  0  0  0  0  0
  -25.9250  -30.8150   21.3850 C   0  0  0  0  0  2  0  0  0  0  0  0
  -26.0070  -29.4360   20.7480 C   0  0  0  0  0  0  0  0  0  0  0  0
  -27.2040  -28.6730   20.7340 C   0  0  0  0  0  3  0  0  0  0  0  0
  -26.0410  -26.8840   19.5730 C   0  0  0  0  0  3  0  0  0  0  0  0
  -24.8560  -27.6470   19.5740 C   0  0  0  0  0  3  0  0  0  0  0  0
  -23.6000  -29.7880   20.2130 C   0  0  0  0  0  2  0  0  0  0  0  0
  -24.6620  -31.0730   22.1240 N   0  0  0  0  0  0  0  0  0  0  0  0
  -23.5280  -32.1550   23.7670 O   0  0  0  0  0  0  0  0  0  0  0  0
  -22.7420  -29.4610   22.5570 C   0  0  0  0  0  0  0  0  0  0  0  0
  -21.4160  -29.2820   22.4370 N   0  0  0  0  0  0  0  0  0  0  0  0
  -23.4260  -28.8350   23.3710 O   0  0  0  0  0  0  0  0  0  0  0  0
  -20.9240  -29.8380   21.7510 H   0  0  0  0  0  0  0  0  0  0  0  0
  -18.0420  -28.0900   22.9480 C   0  0  0  0  0  0  0  0  0  0  0  0
  -20.6000  -28.3460   23.2110 C   0  0  0  0  0  3  0  0  0  0  0  0
  -20.7000  -26.9140   22.6360 C   0  0  0  0  0  2  0  0  0  0  0  0
  -19.5950  -26.5900   21.6280 C   0  0  0  0  0  2  0  0  0  0  0  0
  -18.2150  -26.7380   22.2740 C   0  0  0  0  0  2  0  0  0  0  0  0
  -19.1620  -28.8510   23.3730 C   0  0  0  0  0  0  0  0  0  0  0  0
  -18.9470  -30.1170   23.9610 C   0  0  0  0  0  3  0  0  0  0  0  0
  -17.6430  -30.6190   24.1290 C   0  0  0  0  0  3  0  0  0  0  0  0
  -16.5370  -29.8550   23.7210 C   0  0  0  0  0  3  0  0  0  0  0  0
  -16.7370  -28.5920   23.1350 C   0  0  0  0  0  3  0  0  0  0  0  0
  -25.8950  -32.5100   23.8390 C   0  0  0  0  0  3  0  0  0  0  0  0
  -25.5880  -33.9050   24.1800 N   0  0  0  0  0  0  0  0  0  0  0  0
  -25.9120  -34.9630   23.4230 C   0  0  0  0  0  0  0  0  0  0  0  0
  -26.5750  -34.8670   22.3870 O   0  0  0  0  0  0  0  0  0  0  0  0
  -24.9980  -34.0560   24.9860 H   0  0  0  0  0  0  0  0  0  0  0  0
  -24.1770  -36.7530   23.0910 C   0  0  0  0  0  1  0  0  0  0  0  0
  -25.4250  -36.3490   23.8910 C   0  0  0  0  0  3  0  0  0  0  0  0
  -27.5650  -37.2320   24.7080 C   0  0  0  0  0  1  0  0  0  0  0  0
  -26.4540  -37.4050   23.7750 N   0  0  0  0  0  0  0  0  0  0  0  0
  -26.0480  -38.3230   23.9320 H   0  0  0  0  0  0  0  0  0  0  0  0
  -26.4240  -31.7320   25.1060 C   0  0  1  0  0  0  0  0  0  0  0  0
  -25.3420  -31.4870   26.1830 C   0  0  0  0  0  1  0  0  0  0  0  0
  -27.0040  -30.3570   24.6990 C   0  0  0  0  0  1  0  0  0  0  0  0
  -27.5810  -32.5230   25.7610 C   0  0  0  0  0  1  0  0  0  0  0  0
  1 49  1  0
  2  1  1  0
  3  6  1  0
  4  7  2  0
  5  4  1  0
  5  3  2  0
  6  8  2  0
  6 10  1  0
  7  1  1  0
  7  8  1  0
  9  5  1  0
 11 19  1  0
 12 17  1  0
 13 14  1  0
 13 12  1  0
 15 14  1  0
 15 24  1  0
 15 16  1  0
 17 11  1  0
 17 16  1  0
 18 11  2  0
 19 20  1  0
 19 10  1  0
 21 22  2  0
 22 41  1  0
 23 22  1  0
 23 26  1  0
 24 21  1  0
 24 25  1  0
 25 23  2  0
 26 27  1  0
 27 28  2  0
 29 32  1  0
 29 28  1  0
 30 29  2  0
 31 30  1  0
 31 26  2  0
 32 33  1  0
 33 34  1  0
 34 35  2  0
 36 35  1  0
 36 40  1  0
 37 36  2  0
 38 33  2  0
 38 37  1  0
 39 38  1  0
 41 42  1  0
 42 45  1  0
 42 44  1  0
 43 41  2  0
 46 47  1  0
 46 21  1  0
 48 46  1  0
 50 49  1  0
 50 52  1  0
 51 50  2  0
 53 55  1  0
 53 52  1  0
 54 65  2  0
 55 60  1  0
 56 64  1  0
 56 66  1  0
 57 63  1  0
 57 59  1  0
 58 64  1  0
 59 58  1  0
 60 59  2  0
 61 62  1  0
 61 55  2  0
 62 57  2  0
 63 56  1  0
 64 54  1  0
 66 68  2  0
 67 66  1  0
 69 67  1  0
 70 79  2  0
 70 75  1  0
 71 67  1  0
 71 75  1  0
 72 71  1  0
 73 74  1  0
 73 72  1  0
 74 70  1  0
 75 76  2  0
 76 77  1  0
 78 77  2  0
 79 78  1  0
 80 54  1  0
 80 81  1  0
 80 90  1  0
 81 84  1  0
 82 86  1  0
 82 81  1  0
 83 82  2  0
 86 85  1  0
 88 86  1  0
 88 89  1  0
 88 87  1  0
 90 93  1  1
 90 91  1  0
 92 90  1  0
M  ISO  4  11 100  19 100  52 101  53 101
M  END
>  <TORSDO>  (60) 
F 21

>  <SCORE>  (60) 
-13.630

>  <name>  (60) 
59

>  <ligand_id>  (60) 
59

>  <original_smiles>  (60) 
[H]c1c([H])c([H])c2c(c1[H])C([H])([H])C([H])([H])C([H])([H])C2([H])N([H])C(=O)C1([H])N(C(=O)C([H])(N([H])C(=O)C([H])(N([H])C([H])([H])[H])C([H])([H])[H])C(C([H])([H])[H])(C([H])([H])[H])C([H])([H])[H])C([H])([H])c2c([H])c(OC([H])([H])C(=O)C([H])([H])N([H])c3nc(C([H])([H])N([H])C(=O)N4C([H])([H])C([H])([H])C([H])([H])C([H])(n5nc(-c6c([H])c([H])c(Oc7c([H])c([H])c(F)c([H])c7F)c([H])c6[H])c(C(=O)N([H])[H])c5N([H])[H])C4([H])[H])c([H])c(F)c3[H])c([H])c([H])c2C1([H])[H]

>  <smiles>  (60) 
[H]c1c([H])c([H])c2c(c1[H])C([H])([H])C([H])([H])C([H])([H])C2([H])N([H])C(=O)C1([H])N(C(=O)C([H])(N([H])C(=O)C([H])(N([H])C([H])([H])[H])C([H])([H])[H])C(C([H])([H])[H])(C([H])([H])[H])C([H])([H])[H])C([H])([H])c2c([H])c(OC([H])([H])C(=O)C([H])([H])N([H])c3nc(C([H])([H])N([H])C(=O)N4C([H])([H])C([H])([H])C([H])([H])C([H])(n5nc(-c6c([H])c([H])c(Oc7c([H])c([H])c(F)c([H])c7F)c([H])c6[H])c(C(=O)N([H])[H])c5N([H])[H])C4([H])[H])c([H])c(F)c3[H])c([H])c([H])c2C1([H])[H]

$$$$
60:0:0
     RDKit          3D

 94102  0  0  1  0  0  0  0  0999 V2000
  -28.9400  -22.9260   19.3110 C   0  0  0  0  0  0  0  0  0  0  0  0
  -28.5950  -24.0910   19.9550 C   0  0  0  0  0  0  0  0  0  0  0  0
  -29.3300  -22.9650   17.8280 C   0  0  0  0  0  1  0  0  0  0  0  0
  -28.9660  -21.5880   19.9820 C   0  0  0  0  0  0  0  0  0  0  0  0
  -29.4570  -20.6190   19.1730 N   0  0  0  0  0  0  0  0  0  0  0  0
  -28.5920  -21.3610   21.1370 O   0  0  0  0  0  0  0  0  0  0  0  0
  -29.7270  -21.0090   18.2810 H   0  0  0  0  0  0  0  0  0  0  0  0
  -29.4630  -18.2560   20.1800 C   0  0  0  0  0  3  0  0  0  0  0  0
  -30.9150  -17.1050   18.7410 C   0  0  0  0  0  3  0  0  0  0  0  0
  -30.1070  -16.9920   19.8460 C   0  0  0  0  0  0  0  0  0  0  0  0
  -29.8070  -19.2980   19.3180 C   0  0  0  0  0  0  0  0  0  0  0  0
  -30.9130  -18.7140   18.0990 S   0  0  0  0  0  0  0  0  0  0  0  0
  -30.6430  -14.5810   20.3530 C   0  0  0  0  0  0  0  0  0  0  0  0
  -30.3510  -12.3690   19.3210 C   0  0  0  0  0  2  0  0  0  0  0  0
  -29.4210  -12.5450   18.1030 C   0  0  0  0  0  2  0  0  0  0  0  0
  -27.9450  -12.4160   18.5300 C   0  0  0  0  0  2  0  0  0  0  0  0
  -27.6000  -13.2750   19.7770 C   0  0  0  0  0  3  0  0  0  0  0  0
  -28.6560  -13.1120   20.8940 C   0  0  0  0  0  2  0  0  0  0  0  0
  -29.9730  -13.3950   20.3100 N   0  0  0  0  0  0  0  0  0  0  0  0
  -31.8370  -14.6530   20.0460 O   0  0  0  0  0  0  0  0  0  0  0  0
  -29.8960  -15.7150   20.5140 N   0  0  0  0  0  0  0  0  0  0  0  0
  -28.9930  -15.5830   20.9460 H   0  0  0  0  0  0  0  0  0  0  0  0
  -25.2120  -13.8880   20.5000 C   0  0  0  0  0  0  0  0  0  0  0  0
  -24.1400  -13.1200   20.8680 C   0  0  0  0  0  0  0  0  0  0  0  0
  -24.5940  -11.7660   20.8380 C   0  0  0  0  0  0  0  0  0  0  0  0
  -26.2510  -13.0010   20.2630 N   0  0  0  0  0  0  0  0  0  0  0  0
  -25.8840  -11.7200   20.5290 N   0  0  0  0  0  0  0  0  0  0  0  0
  -23.8610  -10.5070   21.0270 C   0  0  0  0  0  0  0  0  0  0  0  0
  -24.2840   -9.5400   21.9660 C   0  0  0  0  0  3  0  0  0  0  0  0
  -23.5520   -8.3450   22.1430 C   0  0  0  0  0  3  0  0  0  0  0  0
  -22.3830   -8.1100   21.3820 C   0  0  0  0  0  0  0  0  0  0  0  0
  -21.9780   -9.0660   20.4330 C   0  0  0  0  0  3  0  0  0  0  0  0
  -22.7100  -10.2510   20.2540 C   0  0  0  0  0  3  0  0  0  0  0  0
  -21.6230   -6.9690   21.4700 O   0  0  0  0  0  0  0  0  0  0  0  0
  -21.5570   -6.2350   22.6260 C   0  0  0  0  0  0  0  0  0  0  0  0
  -21.1060   -6.7960   23.8410 C   0  0  0  0  0  3  0  0  0  0  0  0
  -20.9890   -5.9870   24.9890 C   0  0  0  0  0  3  0  0  0  0  0  0
  -21.3130   -4.6180   24.9230 C   0  0  0  0  0  0  0  0  0  0  0  0
  -21.7570   -4.0570   23.7130 C   0  0  0  0  0  3  0  0  0  0  0  0
  -21.8770   -4.8630   22.5680 C   0  0  0  0  0  0  0  0  0  0  0  0
  -22.2850   -4.3120   21.3990 F   0  0  0  0  0  0  0  0  0  0  0  0
  -21.1920   -3.8400   26.0230 F   0  0  0  0  0  0  0  0  0  0  0  0
  -22.7450  -13.6040   21.1400 C   0  0  0  0  0  0  0  0  0  0  0  0
  -22.0090  -12.9090   22.0010 N   0  0  0  0  0  0  0  0  0  0  0  0
  -22.3160  -14.6350   20.6230 O   0  0  0  0  0  0  0  0  0  0  0  0
  -22.3660  -12.0740   22.4420 H   0  0  0  0  0  0  0  0  0  0  0  0
  -21.0730  -13.2180   22.2240 H   0  0  0  0  0  0  0  0  0  0  0  0
  -25.3820  -15.2570   20.3230 N   0  0  0  0  0  0  0  0  0  0  0  0
  -24.6120  -15.9070   20.4300 H   0  0  0  0  0  0  0  0  0  0  0  0
  -26.2290  -15.6980   19.9880 H   0  0  0  0  0  0  0  0  0  0  0  0
  -28.2280  -24.1590   21.2460 O   0  0  0  0  0  0  0  0  0  0  0  0
  -28.2410  -23.2710   21.5910 H   0  0  0  0  0  0  0  0  0  0  0  0
  -28.5960  -25.5120   19.3200 C   0  0  0  0  0  2  0  0  0  0  0  0
  -28.3870  -26.6520   20.2000 O   0  0  0  0  0  0  0  0  0  0  0  0
  -24.5740  -31.8880   23.2340 C   0  0  0  0  0  0  0  0  0  0  0  0
  -27.2100  -27.3930   20.1600 C   0  0  0  0  0  0  0  0  0  0  0  0
  -23.3680  -30.4820   21.5960 C   0  0  0  0  0  3  0  0  0  0  0  0
  -24.8190  -28.9370   20.1710 C   0  0  0  0  0  0  0  0  0  0  0  0
  -25.8990  -30.8260   21.4000 C   0  0  0  0  0  2  0  0  0  0  0  0
  -25.9800  -29.4500   20.7610 C   0  0  0  0  0  0  0  0  0  0  0  0
  -27.1740  -28.6840   20.7540 C   0  0  0  0  0  3  0  0  0  0  0  0
  -26.0190  -26.9000   19.5800 C   0  0  0  0  0  3  0  0  0  0  0  0
  -24.8360  -27.6630   19.5790 C   0  0  0  0  0  3  0  0  0  0  0  0
  -23.5770  -29.8010   20.2170 C   0  0  0  0  0  2  0  0  0  0  0  0
  -24.6320  -31.0820   22.1330 N   0  0  0  0  0  0  0  0  0  0  0  0
  -23.4920  -32.1620   23.7720 O   0  0  0  0  0  0  0  0  0  0  0  0
  -22.7140  -29.4640   22.5600 C   0  0  0  0  0  0  0  0  0  0  0  0
  -21.3880  -29.2890   22.4390 N   0  0  0  0  0  0  0  0  0  0  0  0
  -23.3980  -28.8380   23.3730 O   0  0  0  0  0  0  0  0  0  0  0  0
  -20.8970  -29.8480   21.7550 H   0  0  0  0  0  0  0  0  0  0  0  0
  -18.0100  -28.1110   22.9530 C   0  0  0  0  0  0  0  0  0  0  0  0
  -20.5700  -28.3540   23.2110 C   0  0  0  0  0  3  0  0  0  0  0  0
  -20.6610  -26.9240   22.6300 C   0  0  0  0  0  2  0  0  0  0  0  0
  -19.5510  -26.6110   21.6210 C   0  0  0  0  0  2  0  0  0  0  0  0
  -18.1740  -26.7630   22.2730 C   0  0  0  0  0  2  0  0  0  0  0  0
  -19.1350  -28.8650   23.3790 C   0  0  0  0  0  0  0  0  0  0  0  0
  -18.9260  -30.1280   23.9730 C   0  0  0  0  0  3  0  0  0  0  0  0
  -17.6250  -30.6370   24.1460 C   0  0  0  0  0  3  0  0  0  0  0  0
  -16.5140  -29.8790   23.7370 C   0  0  0  0  0  3  0  0  0  0  0  0
  -16.7070  -28.6180   23.1460 C   0  0  0  0  0  3  0  0  0  0  0  0
  -25.8590  -32.5200   23.8540 C   0  0  0  0  0  3  0  0  0  0  0  0
  -26.3750  -31.7560   25.1340 C   0  0  1  0  0  0  0  0  0  0  0  0
  -25.2820  -31.5240   26.2030 C   0  0  0  0  0  1  0  0  0  0  0  0
  -26.9550  -30.3760   24.7470 C   0  0  0  0  0  1  0  0  0  0  0  0
  -27.5260  -32.5520   25.7930 C   0  0  0  0  0  1  0  0  0  0  0  0
  -25.5520  -33.9210   24.1750 N   0  0  0  0  0  0  0  0  0  0  0  0
  -25.8870  -34.9690   23.4100 C   0  0  0  0  0  0  0  0  0  0  0  0
  -26.5570  -34.8580   22.3790 O   0  0  0  0  0  0  0  0  0  0  0  0
  -24.9580  -34.0810   24.9740 H   0  0  0  0  0  0  0  0  0  0  0  0
  -24.1650  -36.7650   23.0370 C   0  0  0  0  0  1  0  0  0  0  0  0
  -25.4000  -36.3600   23.8580 C   0  0  0  0  0  3  0  0  0  0  0  0
  -27.5300  -37.2430   24.7010 C   0  0  0  0  0  1  0  0  0  0  0  0
  -26.4360  -37.4100   23.7490 N   0  0  0  0  0  0  0  0  0  0  0  0
  -26.0310  -38.3310   23.8890 H   0  0  0  0  0  0  0  0  0  0  0  0
  1  2  2  0
  1  4  1  0
  2 51  1  0
  3  1  1  0
  4  6  2  0
  5 11  1  0
  5  4  1  0
  7  5  1  0
  9 10  2  0
 10  8  1  0
 10 21  1  0
 11  8  2  0
 12  9  1  0
 12 11  1  0
 13 21  1  0
 14 19  1  0
 15 16  1  0
 15 14  1  0
 17 16  1  0
 17 26  1  0
 17 18  1  0
 19 13  1  0
 19 18  1  0
 20 13  2  0
 21 22  1  0
 23 24  2  0
 24 43  1  0
 25 24  1  0
 25 28  1  0
 26 23  1  0
 26 27  1  0
 27 25  2  0
 28 29  1  0
 29 30  2  0
 31 34  1  0
 31 30  1  0
 32 31  2  0
 33 32  1  0
 33 28  2  0
 34 35  1  0
 35 36  1  0
 36 37  2  0
 38 37  1  0
 38 42  1  0
 39 38  2  0
 40 35  2  0
 40 39  1  0
 41 40  1  0
 43 44  1  0
 44 47  1  0
 44 46  1  0
 45 43  2  0
 48 49  1  0
 48 23  1  0
 50 48  1  0
 51 52  1  0
 53  2  1  0
 53 54  1  0
 55 66  2  0
 56 54  1  0
 56 61  1  0
 57 65  1  0
 57 67  1  0
 58 64  1  0
 58 60  1  0
 59 65  1  0
 60 59  1  0
 61 60  2  0
 62 56  2  0
 63 62  1  0
 63 58  2  0
 64 57  1  0
 65 55  1  0
 67 69  2  0
 68 67  1  0
 70 68  1  0
 71 80  2  0
 71 76  1  0
 72 68  1  0
 72 76  1  0
 73 72  1  0
 74 75  1  0
 74 73  1  0
 75 71  1  0
 76 77  2  0
 77 78  1  0
 79 78  2  0
 80 79  1  0
 81 55  1  0
 81 86  1  0
 81 82  1  0
 82 85  1  1
 82 83  1  0
 84 82  1  0
 86 89  1  0
 87 91  1  0
 87 86  1  0
 88 87  2  0
 91 90  1  0
 93 91  1  0
 93 94  1  0
 93 92  1  0
M  ISO  4  13 100  21 100  53 101  54 101
M  END
>  <TORSDO>  (61) 
F 20

>  <SCORE>  (61) 
-14.136

>  <name>  (61) 
60

>  <ligand_id>  (61) 
60

>  <original_smiles>  (61) 
[H]OC(=C(C(=O)N([H])c1sc([H])c(N([H])C(=O)N2C([H])([H])C([H])([H])C([H])([H])C([H])(n3nc(-c4c([H])c([H])c(Oc5c([H])c([H])c(F)c([H])c5F)c([H])c4[H])c(C(=O)N([H])[H])c3N([H])[H])C2([H])[H])c1[H])C([H])([H])[H])C([H])([H])Oc1c([H])c([H])c2c(c1[H])C([H])([H])N(C(=O)C([H])(N([H])C(=O)C([H])(N([H])C([H])([H])[H])C([H])([H])[H])C(C([H])([H])[H])(C([H])([H])[H])C([H])([H])[H])C([H])(C(=O)N([H])C1([H])c3c([H])c([H])c([H])c([H])c3C([H])([H])C([H])([H])C1([H])[H])C2([H])[H]

>  <smiles>  (61) 
[H]OC(=C(C(=O)N([H])c1sc([H])c(N([H])C(=O)N2C([H])([H])C([H])([H])C([H])([H])C([H])(n3nc(-c4c([H])c([H])c(Oc5c([H])c([H])c(F)c([H])c5F)c([H])c4[H])c(C(=O)N([H])[H])c3N([H])[H])C2([H])[H])c1[H])C([H])([H])[H])C([H])([H])Oc1c([H])c([H])c2c(c1[H])C([H])([H])N(C(=O)C([H])(N([H])C(=O)C([H])(N([H])C([H])([H])[H])C([H])([H])[H])C(C([H])([H])[H])(C([H])([H])[H])C([H])([H])[H])C([H])(C(=O)N([H])C1([H])c3c([H])c([H])c([H])c([H])c3C([H])([H])C([H])([H])C1([H])[H])C2([H])[H]

$$$$
61:0:0
     RDKit          3D

 92100  0  0  1  0  0  0  0  0999 V2000
  -29.9070  -21.4630   20.0960 N   0  0  0  0  0  0  0  0  0  0  0  0
  -30.7250  -21.8740   19.6550 H   0  0  0  0  0  0  0  0  0  0  0  0
  -31.0520  -17.8780   19.8410 C   0  0  0  0  0  3  0  0  0  0  0  0
  -28.8960  -18.0140   20.8580 C   0  0  0  0  0  3  0  0  0  0  0  0
  -29.9590  -17.1770   20.4140 C   0  0  0  0  0  0  0  0  0  0  0  0
  -31.0250  -19.3000   19.7410 C   0  0  0  0  0  0  0  0  0  0  0  0
  -29.9080  -20.0370   20.2130 C   0  0  0  0  0  0  0  0  0  0  0  0
  -28.8580  -19.3830   20.7680 N   0  0  0  0  0  0  0  0  0  0  0  0
  -32.0740  -19.9570   19.1860 F   0  0  0  0  0  0  0  0  0  0  0  0
  -30.6160  -14.6770   20.0780 C   0  0  0  0  0  0  0  0  0  0  0  0
  -30.3420  -12.4800   18.9470 C   0  0  0  0  0  2  0  0  0  0  0  0
  -29.3340  -12.6550   17.7880 C   0  0  0  0  0  2  0  0  0  0  0  0
  -27.8860  -12.4840   18.2910 C   0  0  0  0  0  2  0  0  0  0  0  0
  -27.6000  -13.3010   19.5790 C   0  0  0  0  0  3  0  0  0  0  0  0
  -28.7150  -13.0970   20.6290 C   0  0  0  0  0  2  0  0  0  0  0  0
  -29.9940  -13.4580   19.9970 N   0  0  0  0  0  0  0  0  0  0  0  0
  -31.7480  -14.8510   19.6210 O   0  0  0  0  0  0  0  0  0  0  0  0
  -29.8490  -15.7150   20.5460 N   0  0  0  0  0  0  0  0  0  0  0  0
  -28.9830  -15.3950   20.9540 H   0  0  0  0  0  0  0  0  0  0  0  0
  -25.2370  -13.8810   20.4090 C   0  0  0  0  0  0  0  0  0  0  0  0
  -24.1940  -13.0990   20.8250 C   0  0  0  0  0  0  0  0  0  0  0  0
  -24.6630  -11.7510   20.7650 C   0  0  0  0  0  0  0  0  0  0  0  0
  -26.2760  -13.0080   20.1220 N   0  0  0  0  0  0  0  0  0  0  0  0
  -25.9370  -11.7220   20.3970 N   0  0  0  0  0  0  0  0  0  0  0  0
  -23.9540  -10.4830   20.9830 C   0  0  0  0  0  0  0  0  0  0  0  0
  -24.4140   -9.5320   21.9180 C   0  0  0  0  0  3  0  0  0  0  0  0
  -23.7050   -8.3280   22.1220 C   0  0  0  0  0  3  0  0  0  0  0  0
  -22.5220   -8.0680   21.3900 C   0  0  0  0  0  0  0  0  0  0  0  0
  -22.0820   -9.0080   20.4430 C   0  0  0  0  0  3  0  0  0  0  0  0
  -22.7920  -10.2030   20.2380 C   0  0  0  0  0  3  0  0  0  0  0  0
  -21.7830   -6.9160   21.5040 O   0  0  0  0  0  0  0  0  0  0  0  0
  -21.7390   -6.2010   22.6740 C   0  0  0  0  0  0  0  0  0  0  0  0
  -21.2790   -6.7730   23.8800 C   0  0  0  0  0  3  0  0  0  0  0  0
  -21.1850   -5.9820   25.0420 C   0  0  0  0  0  3  0  0  0  0  0  0
  -21.5410   -4.6220   25.0010 C   0  0  0  0  0  0  0  0  0  0  0  0
  -21.9930   -4.0490   23.8000 C   0  0  0  0  0  3  0  0  0  0  0  0
  -22.0890   -4.8350   22.6380 C   0  0  0  0  0  0  0  0  0  0  0  0
  -22.5060   -4.2740   21.4780 F   0  0  0  0  0  0  0  0  0  0  0  0
  -21.4430   -3.8600   26.1160 F   0  0  0  0  0  0  0  0  0  0  0  0
  -22.8070  -13.5660   21.1640 C   0  0  0  0  0  0  0  0  0  0  0  0
  -22.1240  -12.8580   22.0560 N   0  0  0  0  0  0  0  0  0  0  0  0
  -22.3400  -14.5930   20.6720 O   0  0  0  0  0  0  0  0  0  0  0  0
  -22.5160  -12.0280   22.4760 H   0  0  0  0  0  0  0  0  0  0  0  0
  -21.1960  -13.1530   22.3260 H   0  0  0  0  0  0  0  0  0  0  0  0
  -25.3840  -15.2530   20.2280 N   0  0  0  0  0  0  0  0  0  0  0  0
  -24.6080  -15.8940   20.3590 H   0  0  0  0  0  0  0  0  0  0  0  0
  -26.1920  -15.6910   19.8040 H   0  0  0  0  0  0  0  0  0  0  0  0
  -28.8530  -22.4390   20.5120 C   0  0  0  0  0  2  0  0  0  0  0  0
  -29.1500  -23.9700   20.2240 C   0  0  0  0  0  0  0  0  0  0  0  0
  -30.2220  -24.2940   19.6990 O   0  0  0  0  0  0  0  0  0  0  0  0
  -28.0750  -25.0640   20.6040 C   0  0  0  0  0  2  0  0  0  0  0  0
  -28.3650  -26.4800   20.2490 O   0  0  0  0  0  0  0  0  0  0  0  0
  -24.6030  -31.8670   23.2610 C   0  0  0  0  0  0  0  0  0  0  0  0
  -27.2540  -27.3370   20.2070 C   0  0  0  0  0  0  0  0  0  0  0  0
  -23.4160  -30.4700   21.6090 C   0  0  0  0  0  3  0  0  0  0  0  0
  -24.8820  -28.9350   20.1850 C   0  0  0  0  0  0  0  0  0  0  0  0
  -25.9540  -30.8030   21.4420 C   0  0  0  0  0  2  0  0  0  0  0  0
  -26.0460  -29.4280   20.7920 C   0  0  0  0  0  0  0  0  0  0  0  0
  -27.2370  -28.6410   20.7920 C   0  0  0  0  0  3  0  0  0  0  0  0
  -26.0730  -26.9060   19.5630 C   0  0  0  0  0  3  0  0  0  0  0  0
  -24.8980  -27.6790   19.5620 C   0  0  0  0  0  3  0  0  0  0  0  0
  -23.6410  -29.8010   20.2280 C   0  0  0  0  0  2  0  0  0  0  0  0
  -24.6760  -31.0630   22.1610 N   0  0  0  0  0  0  0  0  0  0  0  0
  -23.5160  -32.1380   23.7910 O   0  0  0  0  0  0  0  0  0  0  0  0
  -22.7530  -29.4450   22.5610 C   0  0  0  0  0  0  0  0  0  0  0  0
  -21.4280  -29.2620   22.4250 N   0  0  0  0  0  0  0  0  0  0  0  0
  -23.4290  -28.8190   23.3800 O   0  0  0  0  0  0  0  0  0  0  0  0
  -20.9410  -29.8210   21.7370 H   0  0  0  0  0  0  0  0  0  0  0  0
  -18.0510  -28.0580   22.9040 C   0  0  0  0  0  0  0  0  0  0  0  0
  -20.6080  -28.3200   23.1870 C   0  0  0  0  0  3  0  0  0  0  0  0
  -20.7130  -26.8910   22.6040 C   0  0  0  0  0  2  0  0  0  0  0  0
  -19.6170  -26.5720   21.5840 C   0  0  0  0  0  2  0  0  0  0  0  0
  -18.2320  -26.7120   22.2230 C   0  0  0  0  0  2  0  0  0  0  0  0
  -19.1660  -28.8190   23.3430 C   0  0  0  0  0  0  0  0  0  0  0  0
  -18.9430  -30.0790   23.9400 C   0  0  0  0  0  3  0  0  0  0  0  0
  -17.6360  -30.5780   24.1030 C   0  0  0  0  0  3  0  0  0  0  0  0
  -16.5350  -29.8130   23.6800 C   0  0  0  0  0  3  0  0  0  0  0  0
  -16.7430  -28.5550   23.0870 C   0  0  0  0  0  3  0  0  0  0  0  0
  -25.8790  -32.5020   23.8930 C   0  0  0  0  0  3  0  0  0  0  0  0
  -26.3850  -31.7350   25.1770 C   0  0  1  0  0  0  0  0  0  0  0  0
  -25.2810  -31.4990   26.2350 C   0  0  0  0  0  1  0  0  0  0  0  0
  -26.9750  -30.3590   24.7950 C   0  0  0  0  0  1  0  0  0  0  0  0
  -27.5270  -32.5340   25.8490 C   0  0  0  0  0  1  0  0  0  0  0  0
  -25.5660  -33.9010   24.2170 N   0  0  0  0  0  0  0  0  0  0  0  0
  -25.9020  -34.9520   23.4580 C   0  0  0  0  0  0  0  0  0  0  0  0
  -26.5780  -34.8470   22.4310 O   0  0  0  0  0  0  0  0  0  0  0  0
  -24.9670  -34.0580   25.0140 H   0  0  0  0  0  0  0  0  0  0  0  0
  -24.1800  -36.7470   23.0800 C   0  0  0  0  0  1  0  0  0  0  0  0
  -25.4090  -36.3420   23.9080 C   0  0  0  0  0  3  0  0  0  0  0  0
  -27.5320  -37.2270   24.7700 C   0  0  0  0  0  1  0  0  0  0  0  0
  -26.4440  -37.3940   23.8080 N   0  0  0  0  0  0  0  0  0  0  0  0
  -26.0370  -38.3140   23.9460 H   0  0  0  0  0  0  0  0  0  0  0  0
  1  7  1  0
  1 48  1  0
  2  1  1  0
  3  5  1  0
  5 18  1  0
  5  4  2  0
  6  3  2  0
  6  7  1  0
  7  8  2  0
  8  4  1  0
  9  6  1  0
 10 18  1  0
 11 16  1  0
 12 13  1  0
 12 11  1  0
 14 13  1  0
 14 23  1  0
 14 15  1  0
 16 10  1  0
 16 15  1  0
 17 10  2  0
 18 19  1  0
 20 21  2  0
 21 40  1  0
 22 21  1  0
 22 25  1  0
 23 24  1  0
 23 20  1  0
 24 22  2  0
 25 26  1  0
 26 27  2  0
 28 31  1  0
 28 27  1  0
 29 28  2  0
 30 29  1  0
 30 25  2  0
 31 32  1  0
 32 33  1  0
 33 34  2  0
 35 34  1  0
 35 39  1  0
 36 35  2  0
 37 32  2  0
 37 36  1  0
 38 37  1  0
 40 41  1  0
 41 44  1  0
 41 43  1  0
 42 40  2  0
 45 46  1  0
 45 20  1  0
 47 45  1  0
 49 48  1  0
 49 51  1  0
 50 49  2  0
 52 51  1  0
 53 64  2  0
 54 52  1  0
 54 59  1  0
 55 63  1  0
 55 65  1  0
 56 62  1  0
 56 58  1  0
 57 63  1  0
 58 57  1  0
 59 58  2  0
 60 54  2  0
 61 60  1  0
 61 56  2  0
 62 55  1  0
 63 53  1  0
 65 67  2  0
 66 65  1  0
 68 66  1  0
 69 78  2  0
 69 74  1  0
 70 66  1  0
 70 74  1  0
 71 70  1  0
 72 73  1  0
 72 71  1  0
 73 69  1  0
 74 75  2  0
 75 76  1  0
 77 76  2  0
 78 77  1  0
 79 53  1  0
 79 84  1  0
 79 80  1  0
 80 83  1  1
 80 81  1  0
 82 80  1  0
 84 87  1  0
 85 89  1  0
 85 84  1  0
 86 85  2  0
 89 88  1  0
 91 89  1  0
 91 92  1  0
 91 90  1  0
M  ISO  4  10 100  18 100  51 101  52 101
M  END
>  <TORSDO>  (62) 
F 20

>  <SCORE>  (62) 
-13.652

>  <name>  (62) 
61

>  <ligand_id>  (62) 
61

>  <original_smiles>  (62) 
[H]c1nc(N([H])C([H])([H])C(=O)C([H])([H])Oc2c([H])c([H])c3c(c2[H])C([H])([H])N(C(=O)C([H])(N([H])C(=O)C([H])(N([H])C([H])([H])[H])C([H])([H])[H])C(C([H])([H])[H])(C([H])([H])[H])C([H])([H])[H])C([H])(C(=O)N([H])C2([H])c4c([H])c([H])c([H])c([H])c4C([H])([H])C([H])([H])C2([H])[H])C3([H])[H])c(F)c([H])c1N([H])C(=O)N1C([H])([H])C([H])([H])C([H])([H])C([H])(n2nc(-c3c([H])c([H])c(Oc4c([H])c([H])c(F)c([H])c4F)c([H])c3[H])c(C(=O)N([H])[H])c2N([H])[H])C1([H])[H]

>  <smiles>  (62) 
[H]c1nc(N([H])C([H])([H])C(=O)C([H])([H])Oc2c([H])c([H])c3c(c2[H])C([H])([H])N(C(=O)C([H])(N([H])C(=O)C([H])(N([H])C([H])([H])[H])C([H])([H])[H])C(C([H])([H])[H])(C([H])([H])[H])C([H])([H])[H])C([H])(C(=O)N([H])C2([H])c4c([H])c([H])c([H])c([H])c4C([H])([H])C([H])([H])C2([H])[H])C3([H])[H])c(F)c([H])c1N([H])C(=O)N1C([H])([H])C([H])([H])C([H])([H])C([H])(n2nc(-c3c([H])c([H])c(Oc4c([H])c([H])c(F)c([H])c4F)c([H])c3[H])c(C(=O)N([H])[H])c2N([H])[H])C1([H])[H]

$$$$
62:0:0
     RDKit          3D

 92101  0  0  1  0  0  0  0  0999 V2000
  -29.4860  -19.3920   19.8280 C   0  0  0  0  0  3  0  0  0  0  0  0
  -30.2950  -18.5680   20.6740 C   0  0  0  0  0  0  0  0  0  0  0  0
  -30.5400  -19.3480   21.7840 C   0  0  0  0  0  0  0  0  0  0  0  0
  -29.3930  -20.6180   20.4250 C   0  0  0  0  0  0  0  0  0  0  0  0
  -30.0090  -20.6080   21.6350 O   0  0  0  0  0  0  0  0  0  0  0  0
  -30.9350  -18.1020   24.0550 C   0  0  0  0  0  2  0  0  0  0  0  0
  -30.7830  -19.5670   24.3830 C   0  0  0  0  0  2  0  0  0  0  0  0
  -31.3300  -19.1460   23.0370 C   0  0  0  0  0  3  0  0  0  0  0  0
  -28.8610  -22.8960   20.3600 C   0  0  0  0  0  3  0  0  0  0  0  0
  -28.8210  -21.7280   19.8280 N   0  0  0  0  0  0  0  0  0  0  0  0
  -28.3490  -24.1910   19.7260 C   0  0  0  0  0  0  0  0  0  0  0  0
  -27.9450  -24.2360   18.5540 O   0  0  0  0  0  0  0  0  0  0  0  0
  -28.3450  -25.4650   20.6010 C   0  0  0  0  0  2  0  0  0  0  0  0
  -28.3490  -26.6920   19.8300 O   0  0  0  0  0  0  0  0  0  0  0  0
  -24.5070  -31.7550   23.0690 C   0  0  0  0  0  0  0  0  0  0  0  0
  -27.1770  -27.4170   19.8640 C   0  0  0  0  0  0  0  0  0  0  0  0
  -23.3000  -30.3660   21.4170 C   0  0  0  0  0  3  0  0  0  0  0  0
  -24.7580  -28.8850   19.9360 C   0  0  0  0  0  0  0  0  0  0  0  0
  -25.8160  -30.7770   21.1830 C   0  0  0  0  0  2  0  0  0  0  0  0
  -25.9180  -29.4210   20.5110 C   0  0  0  0  0  0  0  0  0  0  0  0
  -27.1330  -28.6980   20.4650 C   0  0  0  0  0  3  0  0  0  0  0  0
  -26.0010  -26.8960   19.2830 C   0  0  0  0  0  3  0  0  0  0  0  0
  -24.7960  -27.6230   19.3170 C   0  0  0  0  0  3  0  0  0  0  0  0
  -23.4980  -29.7170   20.0210 C   0  0  0  0  0  2  0  0  0  0  0  0
  -24.5600  -30.9790   21.9480 N   0  0  0  0  0  0  0  0  0  0  0  0
  -23.4310  -31.9980   23.6310 O   0  0  0  0  0  0  0  0  0  0  0  0
  -22.6820  -29.3150   22.3670 C   0  0  0  0  0  0  0  0  0  0  0  0
  -21.3610  -29.1060   22.2500 N   0  0  0  0  0  0  0  0  0  0  0  0
  -23.3880  -28.6890   23.1630 O   0  0  0  0  0  0  0  0  0  0  0  0
  -20.8530  -29.6650   21.5780 H   0  0  0  0  0  0  0  0  0  0  0  0
  -18.0220  -27.8120   22.7430 C   0  0  0  0  0  0  0  0  0  0  0  0
  -20.5720  -28.1370   23.0100 C   0  0  0  0  0  3  0  0  0  0  0  0
  -20.7120  -26.7170   22.4150 C   0  0  0  0  0  2  0  0  0  0  0  0
  -19.6170  -26.3780   21.3990 C   0  0  0  0  0  2  0  0  0  0  0  0
  -18.2320  -26.4770   22.0480 C   0  0  0  0  0  2  0  0  0  0  0  0
  -19.1210  -28.5990   23.1800 C   0  0  0  0  0  0  0  0  0  0  0  0
  -18.8700  -29.8490   23.7860 C   0  0  0  0  0  3  0  0  0  0  0  0
  -17.5530  -30.3120   23.9640 C   0  0  0  0  0  3  0  0  0  0  0  0
  -16.4690  -29.5220   23.5450 C   0  0  0  0  0  3  0  0  0  0  0  0
  -16.7040  -28.2740   22.9410 C   0  0  0  0  0  3  0  0  0  0  0  0
  -25.7930  -32.3950   23.6810 C   0  0  0  0  0  3  0  0  0  0  0  0
  -25.4570  -33.7700   24.0750 N   0  0  0  0  0  0  0  0  0  0  0  0
  -25.7510  -34.8610   23.3540 C   0  0  0  0  0  0  0  0  0  0  0  0
  -26.4060  -34.8160   22.3090 O   0  0  0  0  0  0  0  0  0  0  0  0
  -24.8760  -33.8790   24.8930 H   0  0  0  0  0  0  0  0  0  0  0  0
  -23.9730  -36.6220   23.1030 C   0  0  0  0  0  1  0  0  0  0  0  0
  -25.2370  -36.2170   23.8770 C   0  0  0  0  0  3  0  0  0  0  0  0
  -27.3660  -37.1180   24.7040 C   0  0  0  0  0  1  0  0  0  0  0  0
  -26.2420  -37.3000   23.7890 N   0  0  0  0  0  0  0  0  0  0  0  0
  -25.8170  -38.2020   23.9860 H   0  0  0  0  0  0  0  0  0  0  0  0
  -26.3650  -31.5880   24.9110 C   0  0  1  0  0  0  0  0  0  0  0  0
  -25.3080  -31.2810   25.9980 C   0  0  0  0  0  1  0  0  0  0  0  0
  -26.9680  -30.2420   24.4470 C   0  0  0  0  0  1  0  0  0  0  0  0
  -27.5170  -32.3810   25.5680 C   0  0  0  0  0  1  0  0  0  0  0  0
  -30.8580  -17.1950   20.2890 C   0  0  0  0  0  2  0  0  0  0  0  0
  -30.3970  -15.9160   21.0550 C   0  0  0  0  0  2  0  0  0  0  0  0
  -31.0770  -14.6260   20.5000 C   0  0  0  0  0  0  0  0  0  0  0  0
  -30.7730  -12.4330   19.3970 C   0  0  0  0  0  2  0  0  0  0  0  0
  -29.8750  -12.6240   18.1580 C   0  0  0  0  0  2  0  0  0  0  0  0
  -28.3860  -12.5180   18.5420 C   0  0  0  0  0  2  0  0  0  0  0  0
  -28.0260  -13.4000   19.7680 C   0  0  0  0  0  3  0  0  0  0  0  0
  -29.0430  -13.2060   20.9160 C   0  0  0  0  0  2  0  0  0  0  0  0
  -30.3880  -13.4580   20.3830 N   0  0  0  0  0  0  0  0  0  0  0  0
  -32.2260  -14.7340   20.0590 O   0  0  0  0  0  0  0  0  0  0  0  0
  -25.6230  -14.0740   20.3860 C   0  0  0  0  0  0  0  0  0  0  0  0
  -24.5270  -13.3330   20.7390 C   0  0  0  0  0  0  0  0  0  0  0  0
  -24.9590  -11.9720   20.7560 C   0  0  0  0  0  0  0  0  0  0  0  0
  -26.6540  -13.1660   20.2110 N   0  0  0  0  0  0  0  0  0  0  0  0
  -26.2570  -11.8980   20.4910 N   0  0  0  0  0  0  0  0  0  0  0  0
  -24.2000  -10.7310   20.9530 C   0  0  0  0  0  0  0  0  0  0  0  0
  -24.5790   -9.7790   21.9270 C   0  0  0  0  0  3  0  0  0  0  0  0
  -23.8220   -8.6020   22.1100 C   0  0  0  0  0  3  0  0  0  0  0  0
  -22.6710   -8.3680   21.3190 C   0  0  0  0  0  0  0  0  0  0  0  0
  -22.3110   -9.3070   20.3380 C   0  0  0  0  0  3  0  0  0  0  0  0
  -23.0680  -10.4760   20.1530 C   0  0  0  0  0  3  0  0  0  0  0  0
  -21.8890   -7.2420   21.4100 O   0  0  0  0  0  0  0  0  0  0  0  0
  -21.7710   -6.5400   22.5830 C   0  0  0  0  0  0  0  0  0  0  0  0
  -21.3240   -7.1500   23.7740 C   0  0  0  0  0  3  0  0  0  0  0  0
  -21.1510   -6.3780   24.9390 C   0  0  0  0  0  3  0  0  0  0  0  0
  -21.4150   -4.9950   24.9130 C   0  0  0  0  0  0  0  0  0  0  0  0
  -21.8560   -4.3840   23.7260 C   0  0  0  0  0  3  0  0  0  0  0  0
  -22.0310   -5.1550   22.5630 C   0  0  0  0  0  0  0  0  0  0  0  0
  -22.4350   -4.5580   21.4160 F   0  0  0  0  0  0  0  0  0  0  0  0
  -21.2410   -4.2490   26.0290 F   0  0  0  0  0  0  0  0  0  0  0  0
  -23.1330  -13.8460   20.9560 C   0  0  0  0  0  0  0  0  0  0  0  0
  -22.3700  -13.1970   21.8280 N   0  0  0  0  0  0  0  0  0  0  0  0
  -22.7280  -14.8570   20.3840 O   0  0  0  0  0  0  0  0  0  0  0  0
  -22.7100  -12.3790   22.3120 H   0  0  0  0  0  0  0  0  0  0  0  0
  -21.4350  -13.5280   22.0190 H   0  0  0  0  0  0  0  0  0  0  0  0
  -25.8230  -15.4360   20.1820 N   0  0  0  0  0  0  0  0  0  0  0  0
  -25.0700  -16.1100   20.2580 H   0  0  0  0  0  0  0  0  0  0  0  0
  -26.6990  -15.8520   19.8900 H   0  0  0  0  0  0  0  0  0  0  0  0
  1  4  2  0
  1  2  1  0
  2  3  2  0
  3  8  1  0
  4  5  1  0
  5  3  1  0
  6  7  1  0
  8  6  1  0
  8  7  1  0
 10  9  2  0
 10  4  1  0
 11  9  1  0
 11 13  1  0
 12 11  2  0
 14 16  1  0
 14 13  1  0
 15 26  2  0
 16 21  1  0
 17 25  1  0
 17 27  1  0
 18 24  1  0
 18 20  1  0
 19 25  1  0
 20 19  1  0
 21 20  2  0
 22 23  1  0
 22 16  2  0
 23 18  2  0
 24 17  1  0
 25 15  1  0
 27 29  2  0
 28 27  1  0
 30 28  1  0
 31 40  2  0
 31 36  1  0
 32 28  1  0
 32 36  1  0
 33 32  1  0
 34 35  1  0
 34 33  1  0
 35 31  1  0
 36 37  2  0
 37 38  1  0
 39 38  2  0
 40 39  1  0
 41 15  1  0
 41 42  1  0
 41 51  1  0
 42 45  1  0
 43 47  1  0
 43 42  1  0
 44 43  2  0
 47 46  1  0
 49 47  1  0
 49 50  1  0
 49 48  1  0
 51 54  1  1
 51 52  1  0
 53 51  1  0
 55  2  1  0
 55 56  1  0
 57 56  1  0
 58 63  1  0
 59 60  1  0
 59 58  1  0
 61 60  1  0
 61 68  1  0
 61 62  1  0
 63 57  1  0
 63 62  1  0
 64 57  2  0
 65 66  2  0
 66 67  1  0
 66 85  1  0
 67 70  1  0
 68 65  1  0
 68 69  1  0
 69 67  2  0
 70 71  1  0
 71 72  2  0
 73 76  1  0
 73 72  1  0
 74 73  2  0
 75 74  1  0
 75 70  2  0
 76 77  1  0
 77 78  1  0
 78 79  2  0
 80 79  1  0
 80 84  1  0
 81 80  2  0
 82 77  2  0
 82 81  1  0
 83 82  1  0
 85 86  1  0
 86 89  1  0
 86 88  1  0
 87 85  2  0
 90 91  1  0
 90 65  1  0
 92 90  1  0
M  ISO  4  13 101  14 101  56 100  57 100
M  END
>  <TORSDO>  (63) 
F 22

>  <SCORE>  (63) 
-11.778

>  <name>  (63) 
62

>  <ligand_id>  (63) 
62

>  <original_smiles>  (63) 
[H]C(=Nc1oc(C2([H])C([H])([H])C2([H])[H])c(C([H])([H])C([H])([H])C(=O)N2C([H])([H])C([H])([H])C([H])([H])C([H])(n3nc(-c4c([H])c([H])c(Oc5c([H])c([H])c(F)c([H])c5F)c([H])c4[H])c(C(=O)N([H])[H])c3N([H])[H])C2([H])[H])c1[H])C(=O)C([H])([H])Oc1c([H])c([H])c2c(c1[H])C([H])([H])N(C(=O)C([H])(N([H])C(=O)C([H])(N([H])C([H])([H])[H])C([H])([H])[H])C(C([H])([H])[H])(C([H])([H])[H])C([H])([H])[H])C([H])(C(=O)N([H])C1([H])c3c([H])c([H])c([H])c([H])c3C([H])([H])C([H])([H])C1([H])[H])C2([H])[H]

>  <smiles>  (63) 
[H]C(=Nc1oc(C2([H])C([H])([H])C2([H])[H])c(C([H])([H])C([H])([H])C(=O)N2C([H])([H])C([H])([H])C([H])([H])C([H])(n3nc(-c4c([H])c([H])c(Oc5c([H])c([H])c(F)c([H])c5F)c([H])c4[H])c(C(=O)N([H])[H])c3N([H])[H])C2([H])[H])c1[H])C(=O)C([H])([H])Oc1c([H])c([H])c2c(c1[H])C([H])([H])N(C(=O)C([H])(N([H])C(=O)C([H])(N([H])C([H])([H])[H])C([H])([H])[H])C(C([H])([H])[H])(C([H])([H])[H])C([H])([H])[H])C([H])(C(=O)N([H])C1([H])c3c([H])c([H])c([H])c([H])c3C([H])([H])C([H])([H])C1([H])[H])C2([H])[H]

$$$$
63:0:0
     RDKit          3D

 98106  0  0  1  0  0  0  0  0999 V2000
  -28.9280  -19.6180   21.7810 C   0  0  0  0  0  3  0  0  0  0  0  0
  -26.9930  -18.2770   22.3160 C   0  0  0  0  0  3  0  0  0  0  0  0
  -26.6650  -20.4260   21.5370 C   0  0  0  0  0  3  0  0  0  0  0  0
  -28.3950  -18.4010   22.2510 C   0  0  0  0  0  0  0  0  0  0  0  0
  -28.0550  -20.6640   21.4080 C   0  0  0  0  0  0  0  0  0  0  0  0
  -26.1440  -19.2640   21.9760 N   0  0  0  0  0  0  0  0  0  0  0  0
  -28.5910  -21.8770   20.9310 N   0  0  0  0  0  0  0  0  0  0  0  0
  -29.5640  -21.9340   20.6370 H   0  0  0  0  0  0  0  0  0  0  0  0
  -27.7190  -23.0090   20.6020 C   0  0  0  0  0  2  0  0  0  0  0  0
  -28.4870  -24.2600   20.1450 C   0  0  0  0  0  0  0  0  0  0  0  0
  -29.2840  -24.2010   19.2010 O   0  0  0  0  0  0  0  0  0  0  0  0
  -28.2550  -25.5530   20.9370 C   0  0  0  0  0  2  0  0  0  0  0  0
  -28.3770  -26.7140   20.1080 O   0  0  0  0  0  0  0  0  0  0  0  0
  -24.6130  -31.8690   23.2100 C   0  0  0  0  0  0  0  0  0  0  0  0
  -27.2290  -27.4630   20.0890 C   0  0  0  0  0  0  0  0  0  0  0  0
  -23.4000  -30.4950   21.5500 C   0  0  0  0  0  3  0  0  0  0  0  0
  -24.8440  -28.9640   20.1110 C   0  0  0  0  0  0  0  0  0  0  0  0
  -25.9260  -30.8450   21.3580 C   0  0  0  0  0  2  0  0  0  0  0  0
  -26.0030  -29.4830   20.7020 C   0  0  0  0  0  0  0  0  0  0  0  0
  -27.2030  -28.7410   20.6850 C   0  0  0  0  0  3  0  0  0  0  0  0
  -26.0580  -26.9480   19.4960 C   0  0  0  0  0  3  0  0  0  0  0  0
  -24.8640  -27.6940   19.5060 C   0  0  0  0  0  3  0  0  0  0  0  0
  -23.6040  -29.8270   20.1640 C   0  0  0  0  0  2  0  0  0  0  0  0
  -24.6650  -31.0840   22.0990 N   0  0  0  0  0  0  0  0  0  0  0  0
  -23.5330  -32.1440   23.7520 O   0  0  0  0  0  0  0  0  0  0  0  0
  -22.7400  -29.4690   22.4990 C   0  0  0  0  0  0  0  0  0  0  0  0
  -21.4130  -29.3070   22.3730 N   0  0  0  0  0  0  0  0  0  0  0  0
  -23.4170  -28.8220   23.3030 O   0  0  0  0  0  0  0  0  0  0  0  0
  -20.9290  -29.8790   21.6950 H   0  0  0  0  0  0  0  0  0  0  0  0
  -18.0270  -28.1390   22.8490 C   0  0  0  0  0  0  0  0  0  0  0  0
  -20.5860  -28.3690   23.1310 C   0  0  0  0  0  3  0  0  0  0  0  0
  -20.6780  -26.9420   22.5420 C   0  0  0  0  0  2  0  0  0  0  0  0
  -19.5760  -26.6380   21.5230 C   0  0  0  0  0  2  0  0  0  0  0  0
  -18.1930  -26.7930   22.1640 C   0  0  0  0  0  2  0  0  0  0  0  0
  -19.1510  -28.8860   23.2900 C   0  0  0  0  0  0  0  0  0  0  0  0
  -18.9450  -30.1460   23.8910 C   0  0  0  0  0  3  0  0  0  0  0  0
  -17.6450  -30.6600   24.0580 C   0  0  0  0  0  3  0  0  0  0  0  0
  -16.5350  -29.9100   23.6340 C   0  0  0  0  0  3  0  0  0  0  0  0
  -16.7260  -28.6520   23.0350 C   0  0  0  0  0  3  0  0  0  0  0  0
  -25.9030  -32.4820   23.8390 C   0  0  0  0  0  3  0  0  0  0  0  0
  -25.5900  -33.8620   24.2330 N   0  0  0  0  0  0  0  0  0  0  0  0
  -25.9040  -34.9470   23.5130 C   0  0  0  0  0  0  0  0  0  0  0  0
  -26.5600  -34.8930   22.4690 O   0  0  0  0  0  0  0  0  0  0  0  0
  -25.0060  -33.9780   25.0470 H   0  0  0  0  0  0  0  0  0  0  0  0
  -24.1490  -36.7320   23.2640 C   0  0  0  0  0  1  0  0  0  0  0  0
  -25.4110  -36.3110   24.0340 C   0  0  0  0  0  3  0  0  0  0  0  0
  -27.5580  -37.1810   24.8460 C   0  0  0  0  0  1  0  0  0  0  0  0
  -26.4290  -37.3790   23.9410 N   0  0  0  0  0  0  0  0  0  0  0  0
  -26.0190  -38.2870   24.1390 H   0  0  0  0  0  0  0  0  0  0  0  0
  -26.4470  -31.6590   25.0710 C   0  0  1  0  0  0  0  0  0  0  0  0
  -25.3760  -31.3680   26.1470 C   0  0  0  0  0  1  0  0  0  0  0  0
  -27.0310  -30.3040   24.6060 C   0  0  0  0  0  1  0  0  0  0  0  0
  -27.6050  -32.4310   25.7480 C   0  0  0  0  0  1  0  0  0  0  0  0
  -29.3200  -17.2450   22.6600 C   0  0  0  0  0  3  0  0  0  0  0  0
  -30.7870  -14.4150   20.6570 C   0  0  0  0  0  0  0  0  0  0  0  0
  -30.4050  -12.3200   19.4010 C   0  0  0  0  0  2  0  0  0  0  0  0
  -29.4710  -12.5050   18.1910 C   0  0  0  0  0  2  0  0  0  0  0  0
  -28.0040  -12.3190   18.6190 C   0  0  0  0  0  2  0  0  0  0  0  0
  -27.6520  -13.1770   19.8580 C   0  0  0  0  0  3  0  0  0  0  0  0
  -28.6980  -12.9850   20.9840 C   0  0  0  0  0  2  0  0  0  0  0  0
  -30.0240  -13.3040   20.4310 N   0  0  0  0  0  0  0  0  0  0  0  0
  -31.8620  -14.5950   20.0850 O   0  0  0  0  0  0  0  0  0  0  0  0
  -29.3410  -16.1200   21.6010 C   0  0  0  0  0  0  0  0  0  0  0  0
  -30.4180  -15.3120   21.5910 N   0  0  0  0  0  0  0  0  0  0  0  0
  -28.4120  -16.0460   20.7920 O   0  0  0  0  0  0  0  0  0  0  0  0
  -31.2000  -15.6960   22.0980 H   0  0  0  0  0  0  0  0  0  0  0  0
  -25.2650  -13.8110   20.5710 C   0  0  0  0  0  0  0  0  0  0  0  0
  -24.1850  -13.0430   20.9150 C   0  0  0  0  0  0  0  0  0  0  0  0
  -24.6350  -11.6880   20.8710 C   0  0  0  0  0  0  0  0  0  0  0  0
  -26.2980  -12.9190   20.3320 N   0  0  0  0  0  0  0  0  0  0  0  0
  -25.9260  -11.6390   20.5740 N   0  0  0  0  0  0  0  0  0  0  0  0
  -23.9010  -10.4280   21.0390 C   0  0  0  0  0  0  0  0  0  0  0  0
  -24.3590   -9.4210   21.9170 C   0  0  0  0  0  3  0  0  0  0  0  0
  -23.6280   -8.2240   22.0750 C   0  0  0  0  0  3  0  0  0  0  0  0
  -22.4260   -8.0270   21.3550 C   0  0  0  0  0  0  0  0  0  0  0  0
  -21.9880   -9.0230   20.4660 C   0  0  0  0  0  3  0  0  0  0  0  0
  -22.7190  -10.2110   20.3060 C   0  0  0  0  0  3  0  0  0  0  0  0
  -21.6640   -6.8860   21.4240 O   0  0  0  0  0  0  0  0  0  0  0  0
  -21.6850   -6.0730   22.5280 C   0  0  0  0  0  0  0  0  0  0  0  0
  -21.4010   -6.5640   23.8200 C   0  0  0  0  0  3  0  0  0  0  0  0
  -21.3660   -5.6800   24.9170 C   0  0  0  0  0  3  0  0  0  0  0  0
  -21.6040   -4.3060   24.7230 C   0  0  0  0  0  0  0  0  0  0  0  0
  -21.8820   -3.8150   23.4350 C   0  0  0  0  0  3  0  0  0  0  0  0
  -21.9190   -4.6960   22.3410 C   0  0  0  0  0  0  0  0  0  0  0  0
  -22.1670   -4.2150   21.0980 F   0  0  0  0  0  0  0  0  0  0  0  0
  -21.5620   -3.4540   25.7740 F   0  0  0  0  0  0  0  0  0  0  0  0
  -22.7890  -13.5260   21.1820 C   0  0  0  0  0  0  0  0  0  0  0  0
  -22.0550  -12.8260   22.0390 N   0  0  0  0  0  0  0  0  0  0  0  0
  -22.3580  -14.5570   20.6670 O   0  0  0  0  0  0  0  0  0  0  0  0
  -22.4180  -11.9910   22.4760 H   0  0  0  0  0  0  0  0  0  0  0  0
  -21.1180  -13.1290   22.2610 H   0  0  0  0  0  0  0  0  0  0  0  0
  -25.4580  -15.1810   20.4260 N   0  0  0  0  0  0  0  0  0  0  0  0
  -24.7240  -15.8660   20.5620 H   0  0  0  0  0  0  0  0  0  0  0  0
  -26.3730  -15.5910   20.2520 H   0  0  0  0  0  0  0  0  0  0  0  0
  -28.9830  -16.7080   24.0670 C   0  0  0  0  0  0  0  0  0  0  0  0
  -29.4730  -17.2480   25.0640 O   0  0  0  0  0  0  0  0  0  0  0  0
  -27.1460  -15.6440   25.5080 C   0  0  0  0  0  1  0  0  0  0  0  0
  -27.9880  -15.5480   24.2260 C   0  0  0  0  0  2  0  0  0  0  0  0
  1  4  1  0
  3  6  2  0
  4  2  2  0
  4 54  1  0
  5  3  1  0
  5  1  2  0
  6  2  1  0
  7  5  1  0
  8  7  1  0
  9  7  1  0
 10  9  1  0
 10 12  1  0
 11 10  2  0
 13 12  1  0
 14 25  2  0
 15 13  1  0
 15 20  1  0
 16 24  1  0
 16 26  1  0
 17 23  1  0
 17 19  1  0
 18 24  1  0
 19 18  1  0
 20 19  2  0
 21 22  1  0
 21 15  2  0
 22 17  2  0
 23 16  1  0
 24 14  1  0
 26 28  2  0
 27 26  1  0
 29 27  1  0
 30 39  2  0
 30 35  1  0
 31 27  1  0
 31 35  1  0
 32 31  1  0
 33 34  1  0
 33 32  1  0
 34 30  1  0
 35 36  2  0
 36 37  1  0
 38 37  2  0
 39 38  1  0
 40 14  1  0
 40 41  1  0
 40 50  1  0
 41 44  1  0
 42 46  1  0
 42 41  1  0
 43 42  2  0
 46 45  1  0
 48 46  1  0
 48 49  1  0
 48 47  1  0
 50 53  1  1
 50 51  1  0
 52 50  1  0
 54 63  1  0
 54 95  1  0
 55 64  1  0
 56 61  1  0
 57 58  1  0
 57 56  1  0
 59 58  1  0
 59 70  1  0
 59 60  1  0
 61 55  1  0
 61 60  1  0
 62 55  2  0
 64 63  1  0
 64 66  1  0
 65 63  2  0
 67 68  2  0
 68 87  1  0
 69 68  1  0
 69 72  1  0
 70 67  1  0
 70 71  1  0
 71 69  2  0
 72 73  1  0
 73 74  2  0
 75 78  1  0
 75 74  1  0
 76 75  2  0
 77 76  1  0
 77 72  2  0
 78 79  1  0
 79 80  1  0
 80 81  2  0
 82 81  1  0
 82 86  1  0
 83 82  2  0
 84 79  2  0
 84 83  1  0
 85 84  1  0
 87 88  1  0
 88 91  1  0
 88 90  1  0
 89 87  2  0
 92 93  1  0
 92 67  1  0
 94 92  1  0
 95 98  1  0
 95 96  2  0
 98 97  1  0
M  ISO  4  12 101  13 101  55 100  64 100
M  END
>  <TORSDO>  (64) 
F 23

>  <SCORE>  (64) 
38.031

>  <name>  (64) 
63

>  <ligand_id>  (64) 
63

>  <original_smiles>  (64) 
[H]c1nc([H])c(C([H])(C(=O)N([H])C(=O)N2C([H])([H])C([H])([H])C([H])([H])C([H])(n3nc(-c4c([H])c([H])c(Oc5c([H])c([H])c(F)c([H])c5F)c([H])c4[H])c(C(=O)N([H])[H])c3N([H])[H])C2([H])[H])C(=O)C([H])([H])C([H])([H])[H])c([H])c1N([H])C([H])([H])C(=O)C([H])([H])Oc1c([H])c([H])c2c(c1[H])C([H])([H])N(C(=O)C([H])(N([H])C(=O)C([H])(N([H])C([H])([H])[H])C([H])([H])[H])C(C([H])([H])[H])(C([H])([H])[H])C([H])([H])[H])C([H])(C(=O)N([H])C1([H])c3c([H])c([H])c([H])c([H])c3C([H])([H])C([H])([H])C1([H])[H])C2([H])[H]

>  <smiles>  (64) 
[H]c1nc([H])c(C([H])(C(=O)N([H])C(=O)N2C([H])([H])C([H])([H])C([H])([H])C([H])(n3nc(-c4c([H])c([H])c(Oc5c([H])c([H])c(F)c([H])c5F)c([H])c4[H])c(C(=O)N([H])[H])c3N([H])[H])C2([H])[H])C(=O)C([H])([H])C([H])([H])[H])c([H])c1N([H])C([H])([H])C(=O)C([H])([H])Oc1c([H])c([H])c2c(c1[H])C([H])([H])N(C(=O)C([H])(N([H])C(=O)C([H])(N([H])C([H])([H])[H])C([H])([H])[H])C(C([H])([H])[H])(C([H])([H])[H])C([H])([H])[H])C([H])(C(=O)N([H])C1([H])c3c([H])c([H])c([H])c([H])c3C([H])([H])C([H])([H])C1([H])[H])C2([H])[H]

$$$$
64:0:0
     RDKit          3D

 95103  0  0  1  0  0  0  0  0999 V2000
  -28.8650  -19.6730   19.4710 C   0  0  0  0  0  0  0  0  0  0  0  0
  -29.1430  -19.2950   20.7710 C   0  0  0  0  0  0  0  0  0  0  0  0
  -28.7770  -21.7260   20.4590 C   0  0  0  0  0  0  0  0  0  0  0  0
  -28.7220  -18.7790   18.2770 C   0  0  0  0  0  1  0  0  0  0  0  0
  -28.6710  -21.0580   19.3100 N   0  0  0  0  0  0  0  0  0  0  0  0
  -28.6370  -23.0980   20.6210 N   0  0  0  0  0  0  0  0  0  0  0  0
  -29.1280  -20.6880   21.8310 S   0  0  0  0  0  0  0  0  0  0  0  0
  -28.7290  -23.3650   21.5950 H   0  0  0  0  0  0  0  0  0  0  0  0
  -29.3460  -17.9150   21.3630 C   0  0  0  0  0  2  0  0  0  0  0  0
  -30.9520  -14.6140   20.1610 C   0  0  0  0  0  0  0  0  0  0  0  0
  -30.6350  -12.4880   18.9450 C   0  0  0  0  0  2  0  0  0  0  0  0
  -29.6360  -12.7320   17.7910 C   0  0  0  0  0  2  0  0  0  0  0  0
  -28.1770  -12.5970   18.2800 C   0  0  0  0  0  2  0  0  0  0  0  0
  -27.9060  -13.3960   19.5820 C   0  0  0  0  0  3  0  0  0  0  0  0
  -29.0030  -13.1010   20.6330 C   0  0  0  0  0  2  0  0  0  0  0  0
  -30.3030  -13.4250   20.0270 N   0  0  0  0  0  0  0  0  0  0  0  0
  -32.0620  -14.8550   19.6610 O   0  0  0  0  0  0  0  0  0  0  0  0
  -30.4090  -17.0240   20.7490 C   0  0  0  0  0  0  0  0  0  0  0  0
  -30.1570  -15.6820   20.7300 N   0  0  0  0  0  0  0  0  0  0  0  0
  -31.5590  -17.5950   20.3260 N   0  0  0  0  0  4  0  0  0  0  0  0
  -29.2610  -15.4550   21.1310 H   0  0  0  0  0  0  0  0  0  0  0  0
  -31.7150  -18.5890   20.4220 H   0  0  0  0  0  0  0  0  0  0  0  0
  -32.3050  -17.0360   19.9240 H   0  0  0  0  0  0  0  0  0  0  0  0
  -25.5530  -14.0300   20.4100 C   0  0  0  0  0  0  0  0  0  0  0  0
  -24.4910  -13.2680   20.8210 C   0  0  0  0  0  0  0  0  0  0  0  0
  -24.9280  -11.9110   20.7400 C   0  0  0  0  0  0  0  0  0  0  0  0
  -26.5690  -13.1350   20.1110 N   0  0  0  0  0  0  0  0  0  0  0  0
  -26.1990  -11.8540   20.3670 N   0  0  0  0  0  0  0  0  0  0  0  0
  -24.1880  -10.6570   20.9370 C   0  0  0  0  0  0  0  0  0  0  0  0
  -24.6080   -9.6920   21.8790 C   0  0  0  0  0  3  0  0  0  0  0  0
  -23.8730   -8.5010   22.0600 C   0  0  0  0  0  3  0  0  0  0  0  0
  -22.7060   -8.2670   21.2960 C   0  0  0  0  0  0  0  0  0  0  0  0
  -22.3080   -9.2160   20.3390 C   0  0  0  0  0  3  0  0  0  0  0  0
  -23.0430  -10.3990   20.1580 C   0  0  0  0  0  3  0  0  0  0  0  0
  -21.9430   -7.1270   21.3860 O   0  0  0  0  0  0  0  0  0  0  0  0
  -21.8110   -6.4400   22.5660 C   0  0  0  0  0  0  0  0  0  0  0  0
  -21.2890   -7.0470   23.7270 C   0  0  0  0  0  3  0  0  0  0  0  0
  -21.1100   -6.2850   24.9010 C   0  0  0  0  0  3  0  0  0  0  0  0
  -21.4400   -4.9170   24.9080 C   0  0  0  0  0  0  0  0  0  0  0  0
  -21.9570   -4.3100   23.7510 C   0  0  0  0  0  3  0  0  0  0  0  0
  -22.1390   -5.0690   22.5810 C   0  0  0  0  0  0  0  0  0  0  0  0
  -22.6170   -4.4740   21.4620 F   0  0  0  0  0  0  0  0  0  0  0  0
  -21.2610   -4.1830   26.0300 F   0  0  0  0  0  0  0  0  0  0  0  0
  -23.1180  -13.7630   21.1680 C   0  0  0  0  0  0  0  0  0  0  0  0
  -22.4200  -13.0600   22.0540 N   0  0  0  0  0  0  0  0  0  0  0  0
  -22.6740  -14.8050   20.6900 O   0  0  0  0  0  0  0  0  0  0  0  0
  -22.7980  -12.2160   22.4590 H   0  0  0  0  0  0  0  0  0  0  0  0
  -21.4990  -13.3710   22.3280 H   0  0  0  0  0  0  0  0  0  0  0  0
  -25.7330  -15.4000   20.2440 N   0  0  0  0  0  0  0  0  0  0  0  0
  -24.9380  -16.0270   20.3140 H   0  0  0  0  0  0  0  0  0  0  0  0
  -26.4630  -15.7700   19.6490 H   0  0  0  0  0  0  0  0  0  0  0  0
  -28.3620  -24.2640   19.7810 C   0  0  0  0  0  2  0  0  0  0  0  0
  -28.0720  -25.7130   21.9030 C   0  0  0  0  0  1  0  0  0  0  0  0
  -28.7440  -25.5830   20.5180 C   0  0  0  0  0  3  0  0  0  0  0  0
  -28.6300  -26.7900   19.7350 O   0  0  0  0  0  0  0  0  0  0  0  0
  -24.6520  -31.7090   23.0370 C   0  0  0  0  0  0  0  0  0  0  0  0
  -27.4360  -27.4830   19.7710 C   0  0  0  0  0  0  0  0  0  0  0  0
  -23.4870  -30.3240   21.3510 C   0  0  0  0  0  3  0  0  0  0  0  0
  -24.9860  -28.8930   19.8600 C   0  0  0  0  0  0  0  0  0  0  0  0
  -25.9960  -30.7830   21.1520 C   0  0  0  0  0  2  0  0  0  0  0  0
  -26.1280  -29.4400   20.4620 C   0  0  0  0  0  0  0  0  0  0  0  0
  -27.3550  -28.7400   20.4150 C   0  0  0  0  0  3  0  0  0  0  0  0
  -26.2810  -26.9550   19.1590 C   0  0  0  0  0  3  0  0  0  0  0  0
  -25.0570  -27.6510   19.2070 C   0  0  0  0  0  3  0  0  0  0  0  0
  -23.7100  -29.6990   19.9470 C   0  0  0  0  0  2  0  0  0  0  0  0
  -24.7290  -30.9530   21.9050 N   0  0  0  0  0  0  0  0  0  0  0  0
  -23.5650  -31.9200   23.5930 O   0  0  0  0  0  0  0  0  0  0  0  0
  -22.8820  -29.2460   22.2770 C   0  0  0  0  0  0  0  0  0  0  0  0
  -21.5600  -29.0340   22.1670 N   0  0  0  0  0  0  0  0  0  0  0  0
  -23.5990  -28.6010   23.0480 O   0  0  0  0  0  0  0  0  0  0  0  0
  -21.0410  -29.6090   21.5180 H   0  0  0  0  0  0  0  0  0  0  0  0
  -18.2290  -27.7370   22.6800 C   0  0  0  0  0  0  0  0  0  0  0  0
  -20.7850  -28.0430   22.9110 C   0  0  0  0  0  3  0  0  0  0  0  0
  -20.9090  -26.6430   22.2670 C   0  0  0  0  0  2  0  0  0  0  0  0
  -19.7930  -26.3420   21.2610 C   0  0  0  0  0  2  0  0  0  0  0  0
  -18.4220  -26.4250   21.9380 C   0  0  0  0  0  2  0  0  0  0  0  0
  -19.3380  -28.5050   23.1230 C   0  0  0  0  0  0  0  0  0  0  0  0
  -19.1020  -29.7350   23.7720 C   0  0  0  0  0  3  0  0  0  0  0  0
  -17.7900  -30.1970   23.9880 C   0  0  0  0  0  3  0  0  0  0  0  0
  -16.6960  -29.4250   23.5620 C   0  0  0  0  0  3  0  0  0  0  0  0
  -16.9160  -28.1990   22.9100 C   0  0  0  0  0  3  0  0  0  0  0  0
  -25.9160  -32.3660   23.6710 C   0  0  0  0  0  3  0  0  0  0  0  0
  -26.4720  -31.5710   24.9160 C   0  0  1  0  0  0  0  0  0  0  0  0
  -25.3970  -31.2610   25.9850 C   0  0  0  0  0  1  0  0  0  0  0  0
  -27.0940  -30.2270   24.4710 C   0  0  0  0  0  1  0  0  0  0  0  0
  -27.6030  -32.3790   25.5930 C   0  0  0  0  0  1  0  0  0  0  0  0
  -25.5590  -33.7410   24.0510 N   0  0  0  0  0  0  0  0  0  0  0  0
  -25.8600  -34.8300   23.3330 C   0  0  0  0  0  0  0  0  0  0  0  0
  -26.5370  -34.7850   22.3000 O   0  0  0  0  0  0  0  0  0  0  0  0
  -24.9520  -33.8430   24.8510 H   0  0  0  0  0  0  0  0  0  0  0  0
  -24.0700  -36.5750   23.0360 C   0  0  0  0  0  1  0  0  0  0  0  0
  -25.3230  -36.1830   23.8360 C   0  0  0  0  0  3  0  0  0  0  0  0
  -27.4200  -37.1120   24.7130 C   0  0  0  0  0  1  0  0  0  0  0  0
  -26.3190  -37.2740   23.7670 N   0  0  0  0  0  0  0  0  0  0  0  0
  -25.8820  -38.1740   23.9440 H   0  0  0  0  0  0  0  0  0  0  0  0
  1  2  2  0
  2  9  1  0
  2  7  1  0
  3  6  1  0
  3  7  1  0
  4  1  1  0
  5  1  1  0
  5  3  2  0
  6  8  1  0
 10 19  1  0
 11 16  1  0
 12 13  1  0
 12 11  1  0
 14 13  1  0
 14 27  1  0
 14 15  1  0
 16 10  1  0
 16 15  1  0
 17 10  2  0
 18  9  1  0
 19 18  1  0
 19 21  1  0
 20 22  1  0
 20 18  2  0
 23 20  1  0
 24 25  2  0
 25 44  1  0
 26 25  1  0
 26 29  1  0
 27 28  1  0
 27 24  1  0
 28 26  2  0
 29 30  1  0
 30 31  2  0
 32 35  1  0
 32 31  1  0
 33 32  2  0
 34 33  1  0
 34 29  2  0
 35 36  1  0
 36 41  2  0
 36 37  1  0
 37 38  2  0
 38 39  1  0
 39 43  1  0
 40 39  2  0
 41 40  1  0
 42 41  1  0
 44 45  1  0
 45 48  1  0
 45 47  1  0
 46 44  2  0
 49 50  1  0
 49 24  1  0
 51 49  1  0
 52 54  1  0
 52  6  1  0
 54 53  1  0
 55 57  1  0
 55 54  1  0
 56 67  2  0
 57 62  1  0
 58 66  1  0
 58 68  1  0
 59 65  1  0
 59 61  1  0
 60 66  1  0
 61 60  1  0
 62 61  2  0
 63 64  1  0
 63 57  2  0
 64 59  2  0
 65 58  1  0
 66 56  1  0
 68 70  2  0
 69 68  1  0
 71 69  1  0
 72 81  2  0
 72 77  1  0
 73 69  1  0
 73 77  1  0
 74 73  1  0
 75 76  1  0
 75 74  1  0
 76 72  1  0
 77 78  2  0
 78 79  1  0
 80 79  2  0
 81 80  1  0
 82 56  1  0
 82 87  1  0
 82 83  1  0
 83 86  1  1
 83 84  1  0
 85 83  1  0
 87 90  1  0
 88 92  1  0
 88 87  1  0
 89 88  2  0
 92 91  1  0
 94 92  1  0
 94 95  1  0
 94 93  1  0
M  ISO  4  10 100  19 100  54 101  55 101
M  END
>  <TORSDO>  (65) 
F 19

>  <SCORE>  (65) 
-12.927

>  <name>  (65) 
64

>  <ligand_id>  (65) 
64

>  <original_smiles>  (65) 
[H]c1c([H])c([H])c2c(c1[H])C([H])([H])C([H])([H])C([H])([H])C2([H])N([H])C(=O)C1([H])N(C(=O)C([H])(N([H])C(=O)C([H])(N([H])C([H])([H])[H])C([H])([H])[H])C(C([H])([H])[H])(C([H])([H])[H])C([H])([H])[H])C([H])([H])c2c([H])c(OC([H])(C([H])([H])[H])C([H])([H])N([H])c3nc(C([H])([H])[H])c(C([H])([H])C(N([H])C(=O)N4C([H])([H])C([H])([H])C([H])([H])C([H])(n5nc(-c6c([H])c([H])c(Oc7c([H])c([H])c(F)c([H])c7F)c([H])c6[H])c(C(=O)N([H])[H])c5N([H])[H])C4([H])[H])=[N+]([H])[H])s3)c([H])c([H])c2C1([H])[H]

>  <smiles>  (65) 
[H]c1c([H])c([H])c2c(c1[H])C([H])([H])C([H])([H])C([H])([H])C2([H])N([H])C(=O)C1([H])N(C(=O)C([H])(N([H])C(=O)C([H])(N([H])C([H])([H])[H])C([H])([H])[H])C(C([H])([H])[H])(C([H])([H])[H])C([H])([H])[H])C([H])([H])c2c([H])c(OC([H])(C([H])([H])[H])C([H])([H])N([H])c3nc(C([H])([H])[H])c(C([H])([H])C(N([H])C(=O)N4C([H])([H])C([H])([H])C([H])([H])C([H])(n5nc(-c6c([H])c([H])c(Oc7c([H])c([H])c(F)c([H])c7F)c([H])c6[H])c(C(=O)N([H])[H])c5N([H])[H])C4([H])[H])=[N+]([H])[H])s3)c([H])c([H])c2C1([H])[H]

$$$$
65:0:0
     RDKit          3D

 90 98  0  0  1  0  0  0  0  0999 V2000
  -28.9820  -22.1560   19.9000 C   0  0  0  0  0  2  0  0  0  0  0  0
  -30.5740  -14.8130   20.2970 C   0  0  0  0  0  0  0  0  0  0  0  0
  -30.4020  -12.5160   19.2980 C   0  0  0  0  0  2  0  0  0  0  0  0
  -29.4510  -12.5720   18.0790 C   0  0  0  0  0  2  0  0  0  0  0  0
  -27.9860  -12.3860   18.5210 C   0  0  0  0  0  2  0  0  0  0  0  0
  -27.6180  -13.2700   19.7410 C   0  0  0  0  0  3  0  0  0  0  0  0
  -28.6870  -13.1880   20.8550 C   0  0  0  0  0  2  0  0  0  0  0  0
  -29.9750  -13.5650   20.2580 N   0  0  0  0  0  0  0  0  0  0  0  0
  -31.7370  -14.9280   19.8940 O   0  0  0  0  0  0  0  0  0  0  0  0
  -29.5720  -19.5510   20.3650 C   0  0  0  0  0  0  0  0  0  0  0  0
  -29.9070  -17.3710   20.4060 C   0  0  0  0  0  0  0  0  0  0  0  0
  -29.2400  -18.3820   21.0540 N   0  0  0  0  0  0  0  0  0  0  0  0
  -30.3660  -19.2990   19.3260 N   0  0  0  0  0  0  0  0  0  0  0  0
  -29.1290  -20.9000   20.7650 N   0  0  0  0  0  0  0  0  0  0  0  0
  -29.8080  -15.9100   20.6830 N   0  0  0  0  0  0  0  0  0  0  0  0
  -30.6030  -17.8920   19.3560 O   0  0  0  0  0  0  0  0  0  0  0  0
  -28.5650  -20.9120   21.6070 H   0  0  0  0  0  0  0  0  0  0  0  0
  -28.9580  -15.6540   21.1550 H   0  0  0  0  0  0  0  0  0  0  0  0
  -25.2330  -13.8510   20.4860 C   0  0  0  0  0  0  0  0  0  0  0  0
  -24.1730  -13.0740   20.8650 C   0  0  0  0  0  0  0  0  0  0  0  0
  -24.6400  -11.7240   20.8300 C   0  0  0  0  0  0  0  0  0  0  0  0
  -26.2780  -12.9760   20.2410 N   0  0  0  0  0  0  0  0  0  0  0  0
  -25.9290  -11.6910   20.5120 N   0  0  0  0  0  0  0  0  0  0  0  0
  -23.9190  -10.4590   21.0250 C   0  0  0  0  0  0  0  0  0  0  0  0
  -24.3640   -9.4900   21.9510 C   0  0  0  0  0  3  0  0  0  0  0  0
  -23.6410   -8.2910   22.1340 C   0  0  0  0  0  3  0  0  0  0  0  0
  -22.4600   -8.0530   21.3930 C   0  0  0  0  0  0  0  0  0  0  0  0
  -22.0340   -9.0120   20.4560 C   0  0  0  0  0  3  0  0  0  0  0  0
  -22.7570  -10.2020   20.2710 C   0  0  0  0  0  3  0  0  0  0  0  0
  -21.7080   -6.9070   21.4860 O   0  0  0  0  0  0  0  0  0  0  0  0
  -21.6770   -6.1580   22.6350 C   0  0  0  0  0  0  0  0  0  0  0  0
  -21.2640   -6.7040   23.8700 C   0  0  0  0  0  3  0  0  0  0  0  0
  -21.1810   -5.8820   25.0110 C   0  0  0  0  0  3  0  0  0  0  0  0
  -21.5000   -4.5140   24.9190 C   0  0  0  0  0  0  0  0  0  0  0  0
  -21.9060   -3.9670   23.6880 C   0  0  0  0  0  3  0  0  0  0  0  0
  -21.9900   -4.7870   22.5490 C   0  0  0  0  0  0  0  0  0  0  0  0
  -22.3610   -4.2490   21.3620 F   0  0  0  0  0  0  0  0  0  0  0  0
  -21.4130   -3.7220   26.0130 F   0  0  0  0  0  0  0  0  0  0  0  0
  -22.7760  -13.5470   21.1470 C   0  0  0  0  0  0  0  0  0  0  0  0
  -22.0570  -12.8490   22.0190 N   0  0  0  0  0  0  0  0  0  0  0  0
  -22.3330  -14.5710   20.6290 O   0  0  0  0  0  0  0  0  0  0  0  0
  -22.4290  -12.0210   22.4590 H   0  0  0  0  0  0  0  0  0  0  0  0
  -21.1200  -13.1480   22.2500 H   0  0  0  0  0  0  0  0  0  0  0  0
  -25.3900  -15.2230   20.3060 N   0  0  0  0  0  0  0  0  0  0  0  0
  -24.6140  -15.8680   20.4130 H   0  0  0  0  0  0  0  0  0  0  0  0
  -26.2180  -15.6620   19.9260 H   0  0  0  0  0  0  0  0  0  0  0  0
  -28.8700  -23.6360   20.5580 C   0  0  0  0  0  0  0  0  0  0  0  0
  -29.4150  -23.8280   21.6510 O   0  0  0  0  0  0  0  0  0  0  0  0
  -28.0570  -24.8470   19.8550 C   0  0  0  0  0  2  0  0  0  0  0  0
  -28.2560  -26.2980   20.2840 O   0  0  0  0  0  0  0  0  0  0  0  0
  -24.5930  -31.8690   23.2430 C   0  0  0  0  0  0  0  0  0  0  0  0
  -27.1810  -27.2280   20.1930 C   0  0  0  0  0  0  0  0  0  0  0  0
  -23.3880  -30.4750   21.6030 C   0  0  0  0  0  3  0  0  0  0  0  0
  -24.8370  -28.9170   20.1720 C   0  0  0  0  0  0  0  0  0  0  0  0
  -25.9360  -30.7620   21.4320 C   0  0  0  0  0  2  0  0  0  0  0  0
  -26.0100  -29.3770   20.7810 C   0  0  0  0  0  0  0  0  0  0  0  0
  -27.1820  -28.5450   20.7840 C   0  0  0  0  0  3  0  0  0  0  0  0
  -25.9860  -26.8600   19.5310 C   0  0  0  0  0  3  0  0  0  0  0  0
  -24.8320  -27.6680   19.5350 C   0  0  0  0  0  3  0  0  0  0  0  0
  -23.6040  -29.8020   20.2230 C   0  0  0  0  0  2  0  0  0  0  0  0
  -24.6580  -31.0540   22.1490 N   0  0  0  0  0  0  0  0  0  0  0  0
  -23.5080  -32.1510   23.7740 O   0  0  0  0  0  0  0  0  0  0  0  0
  -22.7170  -29.4620   22.5640 C   0  0  0  0  0  0  0  0  0  0  0  0
  -21.3900  -29.2870   22.4360 N   0  0  0  0  0  0  0  0  0  0  0  0
  -23.3920  -28.8340   23.3850 O   0  0  0  0  0  0  0  0  0  0  0  0
  -20.9040  -29.8440   21.7480 H   0  0  0  0  0  0  0  0  0  0  0  0
  -18.0100  -28.0940   22.9410 C   0  0  0  0  0  0  0  0  0  0  0  0
  -20.5690  -28.3520   23.2080 C   0  0  0  0  0  3  0  0  0  0  0  0
  -20.6690  -26.9190   22.6350 C   0  0  0  0  0  2  0  0  0  0  0  0
  -19.5670  -26.5970   21.6200 C   0  0  0  0  0  2  0  0  0  0  0  0
  -18.1850  -26.7440   22.2640 C   0  0  0  0  0  2  0  0  0  0  0  0
  -19.1290  -28.8560   23.3690 C   0  0  0  0  0  0  0  0  0  0  0  0
  -18.9110  -30.1180   23.9620 C   0  0  0  0  0  3  0  0  0  0  0  0
  -17.6070  -30.6200   24.1290 C   0  0  0  0  0  3  0  0  0  0  0  0
  -16.5020  -29.8550   23.7150 C   0  0  0  0  0  3  0  0  0  0  0  0
  -16.7040  -28.5940   23.1270 C   0  0  0  0  0  3  0  0  0  0  0  0
  -25.8740  -32.5030   23.8660 C   0  0  0  0  0  3  0  0  0  0  0  0
  -25.5660  -33.9020   24.1930 N   0  0  0  0  0  0  0  0  0  0  0  0
  -25.8970  -34.9550   23.4330 C   0  0  0  0  0  0  0  0  0  0  0  0
  -26.5620  -34.8490   22.3990 O   0  0  0  0  0  0  0  0  0  0  0  0
  -24.9760  -34.0600   24.9980 H   0  0  0  0  0  0  0  0  0  0  0  0
  -24.1700  -36.7520   23.0850 C   0  0  0  0  0  1  0  0  0  0  0  0
  -25.4140  -36.3460   23.8910 C   0  0  0  0  0  3  0  0  0  0  0  0
  -27.5540  -37.2290   24.7120 C   0  0  0  0  0  1  0  0  0  0  0  0
  -26.4480  -37.3960   23.7720 N   0  0  0  0  0  0  0  0  0  0  0  0
  -26.0450  -38.3170   23.9170 H   0  0  0  0  0  0  0  0  0  0  0  0
  -26.3840  -31.7340   25.1480 C   0  0  1  0  0  0  0  0  0  0  0  0
  -25.2870  -31.5050   26.2130 C   0  0  0  0  0  1  0  0  0  0  0  0
  -26.9640  -30.3530   24.7660 C   0  0  0  0  0  1  0  0  0  0  0  0
  -27.5360  -32.5280   25.8090 C   0  0  0  0  0  1  0  0  0  0  0  0
  1 47  1  0
  1 14  1  0
  2 15  1  0
  3  8  1  0
  4  5  1  0
  4  3  1  0
  6  5  1  0
  6 22  1  0
  6  7  1  0
  8  2  1  0
  8  7  1  0
  9  2  2  0
 10 14  1  0
 10 12  1  0
 11 15  1  0
 11 12  2  0
 13 16  1  0
 13 10  2  0
 14 17  1  0
 15 18  1  0
 16 11  1  0
 19 20  2  0
 20 39  1  0
 21 20  1  0
 21 24  1  0
 22 19  1  0
 22 23  1  0
 23 21  2  0
 24 25  1  0
 25 26  2  0
 27 30  1  0
 27 26  1  0
 28 27  2  0
 29 28  1  0
 29 24  2  0
 30 31  1  0
 31 32  1  0
 32 33  2  0
 34 33  1  0
 34 38  1  0
 35 34  2  0
 36 31  2  0
 36 35  1  0
 37 36  1  0
 39 40  1  0
 40 43  1  0
 40 42  1  0
 41 39  2  0
 44 45  1  0
 44 19  1  0
 46 44  1  0
 47 48  2  0
 49 50  1  0
 49 47  1  0
 51 62  2  0
 52 50  1  0
 52 57  1  0
 53 61  1  0
 53 63  1  0
 54 60  1  0
 54 56  1  0
 55 61  1  0
 56 57  2  0
 56 55  1  0
 58 59  1  0
 58 52  2  0
 59 54  2  0
 60 53  1  0
 61 51  1  0
 63 65  2  0
 64 63  1  0
 66 64  1  0
 67 76  2  0
 67 72  1  0
 68 64  1  0
 68 72  1  0
 69 68  1  0
 70 71  1  0
 70 69  1  0
 71 67  1  0
 72 73  2  0
 73 74  1  0
 75 74  2  0
 76 75  1  0
 77 51  1  0
 77 78  1  0
 77 87  1  0
 78 81  1  0
 79 83  1  0
 79 78  1  0
 80 79  2  0
 83 82  1  0
 85 83  1  0
 85 86  1  0
 85 84  1  0
 87 90  1  1
 87 88  1  0
 89 87  1  0
M  ISO  4   2 100  15 100  49 101  50 101
M  END
>  <TORSDO>  (66) 
F 18

>  <SCORE>  (66) 
-14.528

>  <name>  (66) 
65

>  <ligand_id>  (66) 
65

>  <original_smiles>  (66) 
[H]c1c([H])c([H])c2c(c1[H])C([H])([H])C([H])([H])C([H])([H])C2([H])N([H])C(=O)C1([H])N(C(=O)C([H])(N([H])C(=O)C([H])(N([H])C([H])([H])[H])C([H])([H])[H])C(C([H])([H])[H])(C([H])([H])[H])C([H])([H])[H])C([H])([H])c2c([H])c(OC([H])([H])C(=O)C([H])([H])N([H])c3noc(N([H])C(=O)N4C([H])([H])C([H])([H])C([H])([H])C([H])(n5nc(-c6c([H])c([H])c(Oc7c([H])c([H])c(F)c([H])c7F)c([H])c6[H])c(C(=O)N([H])[H])c5N([H])[H])C4([H])[H])n3)c([H])c([H])c2C1([H])[H]

>  <smiles>  (66) 
[H]c1c([H])c([H])c2c(c1[H])C([H])([H])C([H])([H])C([H])([H])C2([H])N([H])C(=O)C1([H])N(C(=O)C([H])(N([H])C(=O)C([H])(N([H])C([H])([H])[H])C([H])([H])[H])C(C([H])([H])[H])(C([H])([H])[H])C([H])([H])[H])C([H])([H])c2c([H])c(OC([H])([H])C(=O)C([H])([H])N([H])c3noc(N([H])C(=O)N4C([H])([H])C([H])([H])C([H])([H])C([H])(n5nc(-c6c([H])c([H])c(Oc7c([H])c([H])c(F)c([H])c7F)c([H])c6[H])c(C(=O)N([H])[H])c5N([H])[H])C4([H])[H])n3)c([H])c([H])c2C1([H])[H]

$$$$
66:0:0
     RDKit          3D

 95103  0  0  1  0  0  0  0  0999 V2000
  -29.6210  -21.0650   20.8010 C   0  0  0  0  0  3  0  0  0  0  0  0
  -27.7770  -20.0860   19.6450 C   0  0  0  0  0  3  0  0  0  0  0  0
  -29.6420  -18.5760   20.3600 C   0  0  0  0  0  0  0  0  0  0  0  0
  -30.2450  -19.7760   20.9040 C   0  0  0  0  0  0  0  0  0  0  0  0
  -28.4020  -21.2740   20.1250 C   0  0  0  0  0  0  0  0  0  0  0  0
  -28.3620  -18.7830   19.7620 C   0  0  0  0  0  0  0  0  0  0  0  0
  -27.6960  -17.7260   19.2300 F   0  0  0  0  0  0  0  0  0  0  0  0
  -30.6360  -14.7490   20.3160 C   0  0  0  0  0  0  0  0  0  0  0  0
  -30.3740  -12.4660   19.3650 C   0  0  0  0  0  2  0  0  0  0  0  0
  -29.4500  -12.5380   18.1310 C   0  0  0  0  0  2  0  0  0  0  0  0
  -27.9810  -12.3680   18.5610 C   0  0  0  0  0  2  0  0  0  0  0  0
  -27.6060  -13.2790   19.7600 C   0  0  0  0  0  3  0  0  0  0  0  0
  -28.6600  -13.2380   20.8860 C   0  0  0  0  0  2  0  0  0  0  0  0
  -29.9570  -13.5510   20.2820 N   0  0  0  0  0  0  0  0  0  0  0  0
  -31.8410  -14.7210   20.0460 O   0  0  0  0  0  0  0  0  0  0  0  0
  -30.4340  -17.2330   20.2080 C   0  0  0  0  0  0  0  0  0  0  0  0
  -29.9360  -15.9500   20.4360 N   0  0  0  0  0  0  0  0  0  0  0  0
  -31.6020  -17.3870   19.8350 O   0  0  0  0  0  0  0  0  0  0  0  0
  -28.9540  -15.8870   20.6450 H   0  0  0  0  0  0  0  0  0  0  0  0
  -25.2250  -13.8680   20.4940 C   0  0  0  0  0  0  0  0  0  0  0  0
  -24.1600  -13.0910   20.8640 C   0  0  0  0  0  0  0  0  0  0  0  0
  -24.6250  -11.7390   20.8370 C   0  0  0  0  0  0  0  0  0  0  0  0
  -26.2660  -12.9880   20.2560 N   0  0  0  0  0  0  0  0  0  0  0  0
  -25.9150  -11.7040   20.5300 N   0  0  0  0  0  0  0  0  0  0  0  0
  -23.8990  -10.4770   21.0270 C   0  0  0  0  0  0  0  0  0  0  0  0
  -24.3310   -9.5120   21.9620 C   0  0  0  0  0  3  0  0  0  0  0  0
  -23.6060   -8.3140   22.1410 C   0  0  0  0  0  3  0  0  0  0  0  0
  -22.4330   -8.0760   21.3840 C   0  0  0  0  0  0  0  0  0  0  0  0
  -22.0220   -9.0300   20.4360 C   0  0  0  0  0  3  0  0  0  0  0  0
  -22.7490  -10.2180   20.2560 C   0  0  0  0  0  3  0  0  0  0  0  0
  -21.6790   -6.9300   21.4720 O   0  0  0  0  0  0  0  0  0  0  0  0
  -21.6260   -6.1900   22.6270 C   0  0  0  0  0  0  0  0  0  0  0  0
  -21.1890   -6.7440   23.8500 C   0  0  0  0  0  3  0  0  0  0  0  0
  -21.0860   -5.9300   24.9960 C   0  0  0  0  0  3  0  0  0  0  0  0
  -21.4080   -4.5610   24.9190 C   0  0  0  0  0  0  0  0  0  0  0  0
  -21.8370   -4.0060   23.7000 C   0  0  0  0  0  3  0  0  0  0  0  0
  -21.9440   -4.8180   22.5580 C   0  0  0  0  0  0  0  0  0  0  0  0
  -22.3380   -4.2740   21.3810 F   0  0  0  0  0  0  0  0  0  0  0  0
  -21.3030   -3.7760   26.0150 F   0  0  0  0  0  0  0  0  0  0  0  0
  -22.7620  -13.5680   21.1290 C   0  0  0  0  0  0  0  0  0  0  0  0
  -22.0310  -12.8680   21.9910 N   0  0  0  0  0  0  0  0  0  0  0  0
  -22.3260  -14.5950   20.6110 O   0  0  0  0  0  0  0  0  0  0  0  0
  -22.3960  -12.0340   22.4270 H   0  0  0  0  0  0  0  0  0  0  0  0
  -21.0910  -13.1660   22.2140 H   0  0  0  0  0  0  0  0  0  0  0  0
  -25.3850  -15.2390   20.3130 N   0  0  0  0  0  0  0  0  0  0  0  0
  -24.6100  -15.8830   20.4260 H   0  0  0  0  0  0  0  0  0  0  0  0
  -26.2160  -15.6840   19.9480 H   0  0  0  0  0  0  0  0  0  0  0  0
  -32.6890  -20.4600   20.7010 C   0  0  0  0  0  1  0  0  0  0  0  0
  -31.6130  -19.8070   21.5890 C   0  0  0  0  0  2  0  0  0  0  0  0
  -27.8420  -22.5750   19.8620 N   0  0  0  0  0  0  0  0  0  0  0  0
  -27.0180  -22.5800   19.2690 H   0  0  0  0  0  0  0  0  0  0  0  0
  -28.0300  -23.8730   20.6030 C   0  0  0  0  0  2  0  0  0  0  0  0
  -28.3790  -25.0150   18.2430 C   0  0  0  0  0  1  0  0  0  0  0  0
  -28.5560  -25.1400   19.7700 C   0  0  0  0  0  3  0  0  0  0  0  0
  -28.4140  -26.5340   20.2780 O   0  0  0  0  0  0  0  0  0  0  0  0
  -24.6180  -31.8950   23.2400 C   0  0  0  0  0  0  0  0  0  0  0  0
  -27.2620  -27.3290   20.2190 C   0  0  0  0  0  0  0  0  0  0  0  0
  -23.4280  -30.4850   21.6000 C   0  0  0  0  0  3  0  0  0  0  0  0
  -24.8920  -28.9360   20.1880 C   0  0  0  0  0  0  0  0  0  0  0  0
  -25.9650  -30.8170   21.4250 C   0  0  0  0  0  2  0  0  0  0  0  0
  -26.0560  -29.4350   20.7830 C   0  0  0  0  0  0  0  0  0  0  0  0
  -27.2440  -28.6440   20.7850 C   0  0  0  0  0  3  0  0  0  0  0  0
  -26.0630  -26.8700   19.6330 C   0  0  0  0  0  3  0  0  0  0  0  0
  -24.8980  -27.6600   19.6060 C   0  0  0  0  0  3  0  0  0  0  0  0
  -23.6500  -29.8050   20.2250 C   0  0  0  0  0  2  0  0  0  0  0  0
  -24.6900  -31.0820   22.1450 N   0  0  0  0  0  0  0  0  0  0  0  0
  -23.5310  -32.1690   23.7680 O   0  0  0  0  0  0  0  0  0  0  0  0
  -22.7680  -29.4670   22.5600 C   0  0  0  0  0  0  0  0  0  0  0  0
  -21.4430  -29.2800   22.4260 N   0  0  0  0  0  0  0  0  0  0  0  0
  -23.4470  -28.8490   23.3840 O   0  0  0  0  0  0  0  0  0  0  0  0
  -20.9530  -29.8270   21.7320 H   0  0  0  0  0  0  0  0  0  0  0  0
  -18.0700  -28.0800   22.9240 C   0  0  0  0  0  0  0  0  0  0  0  0
  -20.6270  -28.3420   23.1980 C   0  0  0  0  0  3  0  0  0  0  0  0
  -20.7330  -26.9110   22.6260 C   0  0  0  0  0  2  0  0  0  0  0  0
  -19.6350  -26.5850   21.6090 C   0  0  0  0  0  2  0  0  0  0  0  0
  -18.2500  -26.7300   22.2490 C   0  0  0  0  0  2  0  0  0  0  0  0
  -19.1860  -28.8440   23.3550 C   0  0  0  0  0  0  0  0  0  0  0  0
  -18.9660  -30.1110   23.9400 C   0  0  0  0  0  3  0  0  0  0  0  0
  -17.6590  -30.6110   24.1020 C   0  0  0  0  0  3  0  0  0  0  0  0
  -16.5570  -29.8400   23.6900 C   0  0  0  0  0  3  0  0  0  0  0  0
  -16.7640  -28.5780   23.1030 C   0  0  0  0  0  3  0  0  0  0  0  0
  -25.8950  -32.5380   23.8630 C   0  0  0  0  0  3  0  0  0  0  0  0
  -26.4030  -31.7860   25.1550 C   0  0  1  0  0  0  0  0  0  0  0  0
  -25.3030  -31.5590   26.2160 C   0  0  0  0  0  1  0  0  0  0  0  0
  -26.9920  -30.4060   24.7860 C   0  0  0  0  0  1  0  0  0  0  0  0
  -27.5450  -32.5920   25.8190 C   0  0  0  0  0  1  0  0  0  0  0  0
  -25.5850  -33.9420   24.1720 N   0  0  0  0  0  0  0  0  0  0  0  0
  -25.9200  -34.9860   23.4010 C   0  0  0  0  0  0  0  0  0  0  0  0
  -26.6010  -34.8750   22.3770 O   0  0  0  0  0  0  0  0  0  0  0  0
  -24.9920  -34.1100   24.9700 H   0  0  0  0  0  0  0  0  0  0  0  0
  -24.2020  -36.7750   23.0020 C   0  0  0  0  0  1  0  0  0  0  0  0
  -25.4250  -36.3780   23.8410 C   0  0  0  0  0  3  0  0  0  0  0  0
  -27.5410  -37.2670   24.7070 C   0  0  0  0  0  1  0  0  0  0  0  0
  -26.4580  -37.4310   23.7410 N   0  0  0  0  0  0  0  0  0  0  0  0
  -26.0480  -38.3510   23.8780 H   0  0  0  0  0  0  0  0  0  0  0  0
  1  4  1  0
  2  6  2  0
  2  5  1  0
  3  4  2  0
  4 49  1  0
  5  1  2  0
  6  3  1  0
  7  6  1  0
  8 17  1  0
  9 14  1  0
 10 11  1  0
 10  9  1  0
 12 11  1  0
 12 23  1  0
 12 13  1  0
 14  8  1  0
 14 13  1  0
 15  8  2  0
 16  3  1  0
 16 17  1  0
 17 19  1  0
 18 16  2  0
 20 21  2  0
 21 40  1  0
 22 21  1  0
 22 25  1  0
 23 20  1  0
 23 24  1  0
 24 22  2  0
 25 26  1  0
 26 27  2  0
 28 31  1  0
 28 27  1  0
 29 28  2  0
 30 29  1  0
 30 25  2  0
 31 32  1  0
 32 33  1  0
 33 34  2  0
 35 34  1  0
 35 39  1  0
 36 35  2  0
 37 32  2  0
 37 36  1  0
 38 37  1  0
 40 41  1  0
 41 44  1  0
 41 43  1  0
 42 40  2  0
 45 46  1  0
 45 20  1  0
 47 45  1  0
 48 49  1  0
 50  5  1  0
 50 52  1  0
 51 50  1  0
 54 53  1  0
 54 55  1  0
 54 52  1  0
 56 67  2  0
 57 55  1  0
 57 62  1  0
 58 66  1  0
 58 68  1  0
 59 65  1  0
 59 61  1  0
 60 66  1  0
 61 62  2  0
 61 60  1  0
 63 57  2  0
 64 63  1  0
 64 59  2  0
 65 58  1  0
 66 56  1  0
 68 70  2  0
 69 68  1  0
 71 69  1  0
 72 81  2  0
 72 77  1  0
 73 69  1  0
 73 77  1  0
 74 73  1  0
 75 76  1  0
 75 74  1  0
 76 72  1  0
 77 78  2  0
 78 79  1  0
 80 79  2  0
 81 80  1  0
 82 56  1  0
 82 87  1  0
 82 83  1  0
 83 86  1  1
 83 84  1  0
 85 83  1  0
 87 90  1  0
 88 92  1  0
 88 87  1  0
 89 88  2  0
 92 91  1  0
 94 92  1  0
 94 95  1  0
 94 93  1  0
M  ISO  4   8 100  17 100  54 101  55 101
M  END
>  <TORSDO>  (67) 
F 20

>  <SCORE>  (67) 
-14.272

>  <name>  (67) 
66

>  <ligand_id>  (67) 
66

>  <original_smiles>  (67) 
[H]c1c([H])c([H])c2c(c1[H])C([H])([H])C([H])([H])C([H])([H])C2([H])N([H])C(=O)C1([H])N(C(=O)C([H])(N([H])C(=O)C([H])(N([H])C([H])([H])[H])C([H])([H])[H])C(C([H])([H])[H])(C([H])([H])[H])C([H])([H])[H])C([H])([H])c2c([H])c(OC([H])(C([H])([H])[H])C([H])([H])N([H])c3c([H])c(F)c(C(=O)N([H])C(=O)N4C([H])([H])C([H])([H])C([H])([H])C([H])(n5nc(-c6c([H])c([H])c(Oc7c([H])c([H])c(F)c([H])c7F)c([H])c6[H])c(C(=O)N([H])[H])c5N([H])[H])C4([H])[H])c(C([H])([H])C([H])([H])[H])c3[H])c([H])c([H])c2C1([H])[H]

>  <smiles>  (67) 
[H]c1c([H])c([H])c2c(c1[H])C([H])([H])C([H])([H])C([H])([H])C2([H])N([H])C(=O)C1([H])N(C(=O)C([H])(N([H])C(=O)C([H])(N([H])C([H])([H])[H])C([H])([H])[H])C(C([H])([H])[H])(C([H])([H])[H])C([H])([H])[H])C([H])([H])c2c([H])c(OC([H])(C([H])([H])[H])C([H])([H])N([H])c3c([H])c(F)c(C(=O)N([H])C(=O)N4C([H])([H])C([H])([H])C([H])([H])C([H])(n5nc(-c6c([H])c([H])c(Oc7c([H])c([H])c(F)c([H])c7F)c([H])c6[H])c(C(=O)N([H])[H])c5N([H])[H])C4([H])[H])c(C([H])([H])C([H])([H])[H])c3[H])c([H])c([H])c2C1([H])[H]

$$$$
67:0:0
     RDKit          3D

 93101  0  0  1  0  0  0  0  0999 V2000
  -29.2800  -21.0730   20.0560 C   0  0  0  0  0  0  0  0  0  0  0  0
  -29.2220  -21.0980   18.7900 N   0  0  0  0  0  0  0  0  0  0  0  0
  -28.9090  -21.9950   18.4320 H   0  0  0  0  0  0  0  0  0  0  0  0
  -29.6080  -18.4290   20.1380 C   0  0  0  0  0  3  0  0  0  0  0  0
  -30.4400  -19.8060   21.9570 C   0  0  0  0  0  3  0  0  0  0  0  0
  -30.8510  -17.3790   21.9440 C   0  0  0  0  0  3  0  0  0  0  0  0
  -29.7520  -19.7530   20.7230 C   0  0  0  0  0  0  0  0  0  0  0  0
  -30.1490  -17.2210   20.7310 C   0  0  0  0  0  0  0  0  0  0  0  0
  -30.9810  -18.6470   22.5500 C   0  0  0  0  0  0  0  0  0  0  0  0
  -31.6320  -18.7490   23.7330 F   0  0  0  0  0  0  0  0  0  0  0  0
  -30.6870  -14.7570   20.0560 C   0  0  0  0  0  0  0  0  0  0  0  0
  -30.4240  -12.5320   18.9410 C   0  0  0  0  0  2  0  0  0  0  0  0
  -29.4070  -12.6520   17.7840 C   0  0  0  0  0  2  0  0  0  0  0  0
  -27.9650  -12.4750   18.2940 C   0  0  0  0  0  2  0  0  0  0  0  0
  -27.6720  -13.3340   19.5540 C   0  0  0  0  0  3  0  0  0  0  0  0
  -28.7900  -13.1780   20.6080 C   0  0  0  0  0  2  0  0  0  0  0  0
  -30.0550  -13.5410   19.9560 N   0  0  0  0  0  0  0  0  0  0  0  0
  -31.8630  -14.8900   19.7060 O   0  0  0  0  0  0  0  0  0  0  0  0
  -29.8690  -15.8520   20.2580 N   0  0  0  0  0  0  0  0  0  0  0  0
  -28.8890  -15.6140   20.2420 H   0  0  0  0  0  0  0  0  0  0  0  0
  -25.3230  -13.9320   20.3920 C   0  0  0  0  0  0  0  0  0  0  0  0
  -24.2710  -13.1580   20.8000 C   0  0  0  0  0  0  0  0  0  0  0  0
  -24.7290  -11.8060   20.7390 C   0  0  0  0  0  0  0  0  0  0  0  0
  -26.3520  -13.0500   20.1030 N   0  0  0  0  0  0  0  0  0  0  0  0
  -26.0030  -11.7670   20.3720 N   0  0  0  0  0  0  0  0  0  0  0  0
  -24.0060  -10.5440   20.9430 C   0  0  0  0  0  0  0  0  0  0  0  0
  -24.4560   -9.5760   21.8690 C   0  0  0  0  0  3  0  0  0  0  0  0
  -23.7330   -8.3800   22.0620 C   0  0  0  0  0  3  0  0  0  0  0  0
  -22.5490   -8.1390   21.3290 C   0  0  0  0  0  0  0  0  0  0  0  0
  -22.1190   -9.0950   20.3900 C   0  0  0  0  0  3  0  0  0  0  0  0
  -22.8420  -10.2830   20.1950 C   0  0  0  0  0  3  0  0  0  0  0  0
  -21.7960   -6.9940   21.4340 O   0  0  0  0  0  0  0  0  0  0  0  0
  -21.7460   -6.2710   22.5990 C   0  0  0  0  0  0  0  0  0  0  0  0
  -21.2910   -6.8360   23.8090 C   0  0  0  0  0  3  0  0  0  0  0  0
  -21.1920   -6.0370   24.9660 C   0  0  0  0  0  3  0  0  0  0  0  0
  -21.5370   -4.6720   24.9130 C   0  0  0  0  0  0  0  0  0  0  0  0
  -21.9880   -4.1070   23.7060 C   0  0  0  0  0  3  0  0  0  0  0  0
  -22.0890   -4.9040   22.5520 C   0  0  0  0  0  0  0  0  0  0  0  0
  -22.5030   -4.3490   21.3870 F   0  0  0  0  0  0  0  0  0  0  0  0
  -21.4360   -3.9020   26.0200 F   0  0  0  0  0  0  0  0  0  0  0  0
  -22.8880  -13.6360   21.1380 C   0  0  0  0  0  0  0  0  0  0  0  0
  -22.1920  -12.9320   22.0240 N   0  0  0  0  0  0  0  0  0  0  0  0
  -22.4340  -14.6720   20.6500 O   0  0  0  0  0  0  0  0  0  0  0  0
  -22.5730  -12.0970   22.4430 H   0  0  0  0  0  0  0  0  0  0  0  0
  -21.2670  -13.2380   22.2930 H   0  0  0  0  0  0  0  0  0  0  0  0
  -25.4840  -15.3050   20.2200 N   0  0  0  0  0  0  0  0  0  0  0  0
  -24.7130  -15.9490   20.3540 H   0  0  0  0  0  0  0  0  0  0  0  0
  -26.2960  -15.7460   19.8120 H   0  0  0  0  0  0  0  0  0  0  0  0
  -28.8010  -22.3650   20.8830 C   0  0  0  0  0  2  0  0  0  0  0  0
  -29.0400  -23.8600   20.3500 C   0  0  0  0  0  0  0  0  0  0  0  0
  -29.9750  -24.1100   19.5820 O   0  0  0  0  0  0  0  0  0  0  0  0
  -28.0930  -25.0490   20.8300 C   0  0  0  0  0  2  0  0  0  0  0  0
  -28.4130  -26.4500   20.3960 O   0  0  0  0  0  0  0  0  0  0  0  0
  -24.5930  -31.9060   23.2340 C   0  0  0  0  0  0  0  0  0  0  0  0
  -27.3200  -27.3320   20.3010 C   0  0  0  0  0  0  0  0  0  0  0  0
  -23.4470  -30.4820   21.5730 C   0  0  0  0  0  3  0  0  0  0  0  0
  -24.9510  -28.9370   20.1920 C   0  0  0  0  0  0  0  0  0  0  0  0
  -25.9850  -30.8230   21.4520 C   0  0  0  0  0  2  0  0  0  0  0  0
  -26.0970  -29.4390   20.8210 C   0  0  0  0  0  0  0  0  0  0  0  0
  -27.2890  -28.6480   20.8650 C   0  0  0  0  0  3  0  0  0  0  0  0
  -26.1590  -26.8990   19.6250 C   0  0  0  0  0  3  0  0  0  0  0  0
  -24.9840  -27.6740   19.5800 C   0  0  0  0  0  3  0  0  0  0  0  0
  -23.7030  -29.7980   20.2050 C   0  0  0  0  0  2  0  0  0  0  0  0
  -24.6900  -31.0880   22.1430 N   0  0  0  0  0  0  0  0  0  0  0  0
  -23.4940  -32.1790   23.7400 O   0  0  0  0  0  0  0  0  0  0  0  0
  -22.7690  -29.4660   22.5260 C   0  0  0  0  0  0  0  0  0  0  0  0
  -21.4470  -29.2820   22.3740 N   0  0  0  0  0  0  0  0  0  0  0  0
  -23.4340  -28.8480   23.3610 O   0  0  0  0  0  0  0  0  0  0  0  0
  -20.9670  -29.8340   21.6790 H   0  0  0  0  0  0  0  0  0  0  0  0
  -18.0630  -28.0820   22.8310 C   0  0  0  0  0  0  0  0  0  0  0  0
  -20.6190  -28.3400   23.1280 C   0  0  0  0  0  3  0  0  0  0  0  0
  -20.7290  -26.9150   22.5410 C   0  0  0  0  0  2  0  0  0  0  0  0
  -19.6340  -26.5890   21.5220 C   0  0  0  0  0  2  0  0  0  0  0  0
  -18.2490  -26.7290   22.1610 C   0  0  0  0  0  2  0  0  0  0  0  0
  -19.1780  -28.8440   23.2730 C   0  0  0  0  0  0  0  0  0  0  0  0
  -18.9530  -30.1040   23.8690 C   0  0  0  0  0  3  0  0  0  0  0  0
  -17.6460  -30.6060   24.0220 C   0  0  0  0  0  3  0  0  0  0  0  0
  -16.5460  -29.8420   23.5930 C   0  0  0  0  0  3  0  0  0  0  0  0
  -16.7550  -28.5810   23.0030 C   0  0  0  0  0  3  0  0  0  0  0  0
  -25.8520  -32.5570   23.8820 C   0  0  0  0  0  3  0  0  0  0  0  0
  -26.3370  -31.8090   25.1840 C   0  0  1  0  0  0  0  0  0  0  0  0
  -25.2120  -31.5790   26.2210 C   0  0  0  0  0  1  0  0  0  0  0  0
  -26.9420  -30.4310   24.8320 C   0  0  0  0  0  1  0  0  0  0  0  0
  -27.4600  -32.6230   25.8690 C   0  0  0  0  0  1  0  0  0  0  0  0
  -25.5250  -33.9590   24.1850 N   0  0  0  0  0  0  0  0  0  0  0  0
  -25.8690  -35.0030   23.4190 C   0  0  0  0  0  0  0  0  0  0  0  0
  -26.5650  -34.8910   22.4070 O   0  0  0  0  0  0  0  0  0  0  0  0
  -24.9090  -34.1190   24.9660 H   0  0  0  0  0  0  0  0  0  0  0  0
  -24.1420  -36.7820   22.9910 C   0  0  0  0  0  1  0  0  0  0  0  0
  -25.3580  -36.3930   23.8450 C   0  0  0  0  0  3  0  0  0  0  0  0
  -27.4570  -37.3050   24.7360 C   0  0  0  0  0  1  0  0  0  0  0  0
  -26.3880  -37.4510   23.7520 N   0  0  0  0  0  0  0  0  0  0  0  0
  -25.9720  -38.3710   23.8740 H   0  0  0  0  0  0  0  0  0  0  0  0
  1  7  1  0
  1 49  1  0
  2  1  2  0
  3  2  1  0
  4  7  2  0
  4  8  1  0
  5  9  2  0
  6  9  1  0
  7  5  1  0
  8  6  2  0
  9 10  1  0
 11 19  1  0
 12 17  1  0
 13 14  1  0
 13 12  1  0
 15 14  1  0
 15 24  1  0
 15 16  1  0
 17 11  1  0
 17 16  1  0
 18 11  2  0
 19  8  1  0
 20 19  1  0
 21 22  2  0
 22 41  1  0
 23 22  1  0
 23 26  1  0
 24 25  1  0
 24 21  1  0
 25 23  2  0
 26 27  1  0
 27 28  2  0
 29 32  1  0
 29 28  1  0
 30 29  2  0
 31 30  1  0
 31 26  2  0
 32 33  1  0
 33 34  1  0
 34 35  2  0
 36 35  1  0
 36 40  1  0
 37 36  2  0
 38 33  2  0
 38 37  1  0
 39 38  1  0
 41 42  1  0
 42 45  1  0
 42 44  1  0
 43 41  2  0
 46 47  1  0
 46 21  1  0
 48 46  1  0
 50 52  1  0
 50 49  1  0
 51 50  2  0
 53 52  1  0
 54 65  2  0
 55 53  1  0
 55 60  1  0
 56 64  1  0
 56 66  1  0
 57 63  1  0
 57 59  1  0
 58 64  1  0
 59 60  2  0
 59 58  1  0
 61 55  2  0
 62 61  1  0
 62 57  2  0
 63 56  1  0
 64 54  1  0
 66 68  2  0
 67 66  1  0
 69 67  1  0
 70 79  2  0
 70 75  1  0
 71 67  1  0
 71 75  1  0
 72 71  1  0
 73 74  1  0
 73 72  1  0
 74 70  1  0
 75 76  2  0
 76 77  1  0
 78 77  2  0
 79 78  1  0
 80 54  1  0
 80 85  1  0
 80 81  1  0
 81 84  1  1
 81 82  1  0
 83 81  1  0
 85 88  1  0
 86 90  1  0
 86 85  1  0
 87 86  2  0
 90 89  1  0
 92 90  1  0
 92 93  1  0
 92 91  1  0
M  ISO  4  11 100  19 100  52 101  53 101
M  END
>  <TORSDO>  (68) 
F 20

>  <SCORE>  (68) 
-13.599

>  <name>  (68) 
67

>  <ligand_id>  (68) 
67

>  <original_smiles>  (68) 
[H]N=C(c1c([H])c(F)c([H])c(N([H])C(=O)N2C([H])([H])C([H])([H])C([H])([H])C([H])(n3nc(-c4c([H])c([H])c(Oc5c([H])c([H])c(F)c([H])c5F)c([H])c4[H])c(C(=O)N([H])[H])c3N([H])[H])C2([H])[H])c1[H])C([H])([H])C(=O)C([H])([H])Oc1c([H])c([H])c2c(c1[H])C([H])([H])N(C(=O)C([H])(N([H])C(=O)C([H])(N([H])C([H])([H])[H])C([H])([H])[H])C(C([H])([H])[H])(C([H])([H])[H])C([H])([H])[H])C([H])(C(=O)N([H])C1([H])c3c([H])c([H])c([H])c([H])c3C([H])([H])C([H])([H])C1([H])[H])C2([H])[H]

>  <smiles>  (68) 
[H]N=C(c1c([H])c(F)c([H])c(N([H])C(=O)N2C([H])([H])C([H])([H])C([H])([H])C([H])(n3nc(-c4c([H])c([H])c(Oc5c([H])c([H])c(F)c([H])c5F)c([H])c4[H])c(C(=O)N([H])[H])c3N([H])[H])C2([H])[H])c1[H])C([H])([H])C(=O)C([H])([H])Oc1c([H])c([H])c2c(c1[H])C([H])([H])N(C(=O)C([H])(N([H])C(=O)C([H])(N([H])C([H])([H])[H])C([H])([H])[H])C(C([H])([H])[H])(C([H])([H])[H])C([H])([H])[H])C([H])(C(=O)N([H])C1([H])c3c([H])c([H])c([H])c([H])c3C([H])([H])C([H])([H])C1([H])[H])C2([H])[H]

$$$$
68:0:0
     RDKit          3D

 98102  0  0  1  0  0  0  0  0999 V2000
  -23.0800  -13.8140   21.9290 C   0  0  0  0  0  2  0  0  0  0  0  0
  -26.1070  -18.1720   21.1800 C   0  0  0  0  0  2  0  0  0  0  0  0
  -26.9200  -16.8560   20.0230 C   0  0  0  0  0  3  0  0  0  0  0  0
  -24.6010  -17.0020   21.7080 C   0  0  0  0  0  1  0  0  0  0  0  0
  -25.4500  -15.7810   20.4020 C   0  0  0  0  0  2  0  0  0  0  0  0
  -27.2370  -18.6050   19.7070 C   0  0  0  0  0  3  0  0  0  0  0  0
  -24.2020  -15.3000   21.5820 N   0  0  0  0  0  2  0  0  0  0  0  0
  -22.0460  -14.0340   22.7310 N   0  0  0  0  0  0  0  0  0  0  0  0
  -21.3840  -13.3130   22.9780 H   0  0  0  0  0  0  0  0  0  0  0  0
  -21.8720  -14.9740   23.0510 H   0  0  0  0  0  0  0  0  0  0  0  0
  -24.3680   -8.6530   20.4230 C   0  0  0  0  0  3  0  0  0  0  0  0
  -23.1810   -9.8940   20.3950 C   0  0  0  0  0  3  0  0  0  0  0  0
  -26.0540   -8.6770   20.8550 C   0  0  0  0  0  3  0  0  0  0  0  0
  -26.4500  -11.4700   21.4600 C   0  0  0  0  0  2  0  0  0  0  0  0
  -23.5340  -11.4900   20.9010 C   0  0  0  0  0  2  0  0  0  0  0  0
  -27.0870   -9.9600   21.3080 C   0  0  0  0  0  0  0  0  0  0  0  0
  -29.5190  -10.6660   20.3760 C   0  0  0  0  0  0  0  0  0  0  0  0
  -28.8060   -9.7340   18.3450 C   0  0  0  0  0  2  0  0  0  0  0  0
  -27.7270  -10.1050   17.3490 C   0  0  0  0  0  2  0  0  0  0  0  0
  -26.3340  -10.2990   17.9740 C   0  0  0  0  0  2  0  0  0  0  0  0
  -26.3480  -11.3020   19.1290 C   0  0  0  0  0  3  0  0  0  0  0  0
  -27.8030  -11.7690   19.5050 C   0  0  0  0  0  2  0  0  0  0  0  0
  -28.8040  -10.7600   19.3600 N   0  0  0  0  0  0  0  0  0  0  0  0
  -30.6880  -11.1310   20.2660 O   0  0  0  0  0  0  0  0  0  0  0  0
  -28.6420  -10.0340   21.3150 N   0  0  0  0  0  0  0  0  0  0  0  0
  -29.0580   -9.9940   22.2300 H   0  0  0  0  0  0  0  0  0  0  0  0
  -25.2150  -12.8530   20.5760 C   0  0  0  0  0  3  0  0  0  0  0  0
  -24.8570  -13.1250   21.9650 C   0  0  0  0  0  1  0  0  0  0  0  0
  -24.6650  -11.2750   23.3760 C   0  0  0  0  0  2  0  0  0  0  0  0
  -25.2900  -11.3060   20.2380 N   0  0  2  0  0  4  0  0  0  0  0  0
  -24.9410  -10.0230   22.2970 N   0  0  0  0  0  1  0  0  0  0  0  0
  -23.4270   -9.9040   23.5300 C   0  0  0  0  0  0  0  0  0  0  0  0
  -23.7410   -8.4770   23.6020 C   0  0  0  0  0  3  0  0  0  0  0  0
  -22.8520   -7.3560   23.5020 C   0  0  0  0  0  3  0  0  0  0  0  0
  -21.4680   -7.4760   23.2680 C   0  0  0  0  0  0  0  0  0  0  0  0
  -21.0500   -8.7770   22.9770 C   0  0  0  0  0  3  0  0  0  0  0  0
  -21.9500   -9.8840   23.1910 C   0  0  0  0  0  3  0  0  0  0  0  0
  -20.5650   -6.4220   23.3910 O   0  0  0  0  0  0  0  0  0  0  0  0
  -20.8390   -5.3860   24.2740 C   0  0  0  0  0  0  0  0  0  0  0  0
  -21.2420   -5.6340   25.6090 C   0  0  0  0  0  3  0  0  0  0  0  0
  -21.5660   -4.5670   26.4730 C   0  0  0  0  0  3  0  0  0  0  0  0
  -21.4770   -3.2390   26.0190 C   0  0  0  0  0  0  0  0  0  0  0  0
  -21.0400   -2.9780   24.7090 C   0  0  0  0  0  3  0  0  0  0  0  0
  -20.7160   -4.0430   23.8440 C   0  0  0  0  0  0  0  0  0  0  0  0
  -20.2900   -3.7700   22.5880 F   0  0  0  0  0  0  0  0  0  0  0  0
  -21.8040   -2.2140   26.8430 F   0  0  0  0  0  0  0  0  0  0  0  0
  -23.3170  -13.7650   20.8830 C   0  0  0  0  0  3  0  0  0  0  0  0
  -21.9950  -13.2310   20.9890 N   0  0  0  0  0  0  0  0  0  0  0  0
  -22.8430  -14.8140   20.6220 O   0  0  0  0  0  1  0  0  0  0  0  0
  -21.8440  -12.2620   21.2520 H   0  0  0  0  0  0  0  0  0  0  0  0
  -21.2280  -13.7700   20.6180 H   0  0  0  0  0  0  0  0  0  0  0  0
  -25.7620  -13.8970   19.8670 N   0  0  0  0  0  0  0  0  0  0  0  0
  -26.0780  -14.7270   20.3510 H   0  0  0  0  0  0  0  0  0  0  0  0
  -26.3090  -13.7150   19.0340 H   0  0  0  0  0  0  0  0  0  0  0  0
  -25.8130  -18.7050   17.7320 C   0  0  0  0  0  1  0  0  0  0  0  0
  -26.2030  -19.2570   18.9760 O   0  0  0  0  0  0  0  0  0  0  0  0
  -28.9710  -19.9790   19.0810 C   0  0  0  0  0 15  0  0  0  0  0  0
  -30.4720  -20.8690   17.9800 O   0  0  0  0  0  1  0  0  0  0  0  0
  -30.7630  -28.5290   16.2850 C   0  0  0  0  0  0  0  0  0  0  0  0
  -30.9100  -22.1450   17.0060 C   0  0  0  0  0  0  0  0  0  0  0  0
  -29.5840  -26.8010   15.0130 C   0  0  0  0  0  3  0  0  0  0  0  0
  -30.5580  -24.3910   14.9800 C   0  0  0  0  0  0  0  0  0  0  0  0
  -31.8870  -26.2060   15.9680 C   0  0  0  0  0  2  0  0  0  0  0  0
  -31.4310  -24.6680   16.0280 C   0  0  0  0  0  0  0  0  0  0  0  0
  -31.6350  -23.5350   17.0190 C   0  0  0  0  0  3  0  0  0  0  0  0
  -30.5410  -21.9960   15.6540 C   0  0  0  0  0  3  0  0  0  0  0  0
  -30.2610  -23.0460   14.7400 C   0  0  0  0  0  3  0  0  0  0  0  0
  -29.9090  -25.5250   14.1760 C   0  0  0  0  0  2  0  0  0  0  0  0
  -30.7870  -27.2440   15.7800 N   0  0  0  0  0  0  0  0  0  0  0  0
  -29.7630  -29.2600   16.1720 O   0  0  0  0  0  0  0  0  0  0  0  0
  -28.3710  -26.5560   15.9530 C   0  0  0  0  0  0  0  0  0  0  0  0
  -27.1530  -26.4280   15.3970 N   0  0  0  0  0  0  0  0  0  0  0  0
  -28.5430  -26.4820   17.1730 O   0  0  0  0  0  0  0  0  0  0  0  0
  -27.0690  -26.5260   14.3940 H   0  0  0  0  0  0  0  0  0  0  0  0
  -23.6310  -25.6410   15.0220 C   0  0  0  0  0  0  0  0  0  0  0  0
  -25.9160  -26.1340   16.1310 C   0  0  0  0  0  3  0  0  0  0  0  0
  -25.8840  -24.6600   16.5990 C   0  0  0  0  0  2  0  0  0  0  0  0
  -25.1810  -23.7280   15.6080 C   0  0  0  0  0  2  0  0  0  0  0  0
  -23.7310  -24.1710   15.3920 C   0  0  0  0  0  2  0  0  0  0  0  0
  -24.6620  -26.5590   15.3550 C   0  0  0  0  0  0  0  0  0  0  0  0
  -24.5290  -27.9090   14.9610 C   0  0  0  0  0  3  0  0  0  0  0  0
  -23.3960  -28.3430   14.2470 C   0  0  0  0  0  3  0  0  0  0  0  0
  -22.3750  -27.4310   13.9290 C   0  0  0  0  0  3  0  0  0  0  0  0
  -22.4900  -26.0860   14.3220 C   0  0  0  0  0  3  0  0  0  0  0  0
  -31.9860  -29.1550   17.0190 C   0  0  0  0  0  3  0  0  0  0  0  0
  -31.9630  -28.9100   18.5810 C   0  0  1  0  0  0  0  0  0  0  0  0
  -30.6140  -29.2730   19.2480 C   0  0  0  0  0  1  0  0  0  0  0  0
  -32.2630  -27.4360   18.9270 C   0  0  0  0  0  1  0  0  0  0  0  0
  -33.0720  -29.7470   19.2610 C   0  0  0  0  0  1  0  0  0  0  0  0
  -31.9870  -30.6120   16.7550 N   0  0  0  0  0  0  0  0  0  0  0  0
  -32.7540  -31.2440   15.8550 C   0  0  0  0  0  0  0  0  0  0  0  0
  -33.5940  -30.6520   15.1720 O   0  0  0  0  0  0  0  0  0  0  0  0
  -31.2850  -31.1510   17.2380 H   0  0  0  0  0  0  0  0  0  0  0  0
  -31.6820  -33.0570   14.4630 C   0  0  0  0  0  1  0  0  0  0  0  0
  -32.5680  -32.7690   15.6850 C   0  0  0  0  0  3  0  0  0  0  0  0
  -34.6480  -33.5120   16.7650 C   0  0  0  0  0  1  0  0  0  0  0  0
  -33.8430  -33.5080   15.5470 N   0  0  0  0  0  0  0  0  0  0  0  0
  -33.6730  -34.4730   15.2750 H   0  0  0  0  0  0  0  0  0  0  0  0
  1  8  1  0
  3  5  1  0
  3  2  1  0
  5  7  1  0
  6 56  1  0
  6  3  1  0
  6  2  1  0
  7  4  1  0
  8  9  1  0
  8 10  1  0
 11 13  1  0
 12 11  2  0
 12 15  1  0
 13 16  2  0
 16 25  1  0
 16 14  1  0
 17 25  1  0
 18 23  1  0
 19 20  1  0
 19 18  1  0
 21 20  1  0
 21 22  1  0
 21 30  1  0
 23 22  1  0
 23 17  1  0
 24 17  2  0
 25 26  1  0
 27 28  1  0
 29 32  1  0
 30 27  1  6
 30 15  1  0
 30 14  1  0
 31 29  1  0
 32 33  1  0
 34 33  2  0
 35 38  1  0
 35 34  1  0
 36 37  1  0
 36 35  2  0
 37 32  2  0
 38 39  1  0
 39 40  1  0
 40 41  2  0
 42 41  1  0
 42 46  1  0
 43 42  2  0
 44 39  2  0
 44 43  1  0
 45 44  1  0
 47 49  1  0
 47 48  1  0
 47  1  1  0
 48 50  1  0
 51 48  1  0
 52 53  1  0
 52 27  1  0
 54 52  1  0
 55 56  1  0
 60 65  1  0
 60 58  1  0
 61 69  1  0
 61 71  1  0
 62 64  1  0
 63 64  1  0
 64 65  2  0
 66 60  2  0
 67 62  2  0
 67 66  1  0
 68 62  1  0
 68 61  1  0
 69 63  1  0
 69 59  1  0
 70 59  2  0
 71 73  2  0
 72 71  1  0
 74 72  1  0
 75 80  1  0
 75 79  1  0
 76 72  1  0
 76 77  1  0
 78 77  1  0
 79 78  1  0
 80 76  1  0
 81 80  2  0
 82 81  1  0
 83 82  2  0
 83 84  1  0
 84 75  2  0
 85 59  1  0
 85 86  1  0
 86 88  1  6
 86 87  1  0
 86 89  1  0
 90 85  1  0
 90 93  1  0
 91 90  1  0
 92 91  2  0
 95 94  1  0
 95 91  1  0
 97 95  1  0
 97 96  1  0
 98 97  1  0
M  ISO  4  17 100  25 100  57 101  58 101
M  END
>  <TORSDO>  (69) 
F 19

>  <SCORE>  (69) 
28.110

>  <name>  (69) 
68

>  <ligand_id>  (69) 
68

>  <original_smiles>  (69) 
[H]c1c([H])c(C(N2C([H])([H])C([H])([H])C(OC([H])([H])[H])(C([H])([H])Oc3c([H])c([H])c4c(c3[H])C([H])([H])N(C(=O)C([H])(N([H])C(=O)C([H])(N([H])C([H])([H])[H])C([H])([H])[H])C(C([H])([H])[H])(C([H])([H])[H])C([H])([H])[H])C([H])(C(=O)N([H])C3([H])c5c([H])c([H])c([H])c([H])c5C([H])([H])C([H])([H])C3([H])[H])C4([H])[H])C([H])([H])C2([H])[H])=[N+]([H])[H])c([H])c(N([H])C(=O)N2C([H])([H])C([H])([H])C([H])([H])C([H])(n3nc(-c4c([H])c([H])c(Oc5c([H])c([H])c(F)c([H])c5F)c([H])c4[H])c(C(=O)N([H])[H])c3N([H])[H])C2([H])[H])c1[H]

>  <smiles>  (69) 
[H]c1c([H])c(C(N2C([H])([H])C([H])([H])C(OC([H])([H])[H])(C([H])([H])Oc3c([H])c([H])c4c(c3[H])C([H])([H])N(C(=O)C([H])(N([H])C(=O)C([H])(N([H])C([H])([H])[H])C([H])([H])[H])C(C([H])([H])[H])(C([H])([H])[H])C([H])([H])[H])C([H])(C(=O)N([H])C3([H])c5c([H])c([H])c([H])c([H])c5C([H])([H])C([H])([H])C3([H])[H])C4([H])[H])C([H])([H])C2([H])[H])=[N+]([H])[H])c([H])c(N([H])C(=O)N2C([H])([H])C([H])([H])C([H])([H])C([H])(n3nc(-c4c([H])c([H])c(Oc5c([H])c([H])c(F)c([H])c5F)c([H])c4[H])c(C(=O)N([H])[H])c3N([H])[H])C2([H])[H])c1[H]

$$$$
69:0:0
     RDKit          3D

 93101  0  0  1  0  0  0  0  0999 V2000
  -28.8490  -20.8720   20.1250 N   0  0  0  0  0  0  0  0  0  0  0  0
  -27.8650  -20.7170   19.9130 H   0  0  0  0  0  0  0  0  0  0  0  0
  -31.1890  -17.9720   20.4230 C   0  0  0  0  0  3  0  0  0  0  0  0
  -30.9700  -19.4010   20.3580 C   0  0  0  0  0  0  0  0  0  0  0  0
  -29.9750  -17.3350   20.4430 C   0  0  0  0  0  0  0  0  0  0  0  0
  -29.6040  -19.6270   20.3370 C   0  0  0  0  0  0  0  0  0  0  0  0
  -28.9850  -18.3500   20.3810 O   0  0  0  0  0  0  0  0  0  0  0  0
  -30.5490  -14.8100   20.3460 C   0  0  0  0  0  0  0  0  0  0  0  0
  -30.3850  -12.5140   19.3480 C   0  0  0  0  0  2  0  0  0  0  0  0
  -29.4380  -12.5500   18.1260 C   0  0  0  0  0  2  0  0  0  0  0  0
  -27.9710  -12.3650   18.5650 C   0  0  0  0  0  2  0  0  0  0  0  0
  -27.5920  -13.2630   19.7730 C   0  0  0  0  0  3  0  0  0  0  0  0
  -28.6550  -13.1970   20.8910 C   0  0  0  0  0  2  0  0  0  0  0  0
  -29.9400  -13.5710   20.2870 N   0  0  0  0  0  0  0  0  0  0  0  0
  -31.7450  -14.9010   20.0500 O   0  0  0  0  0  0  0  0  0  0  0  0
  -29.7360  -15.9380   20.5100 N   0  0  0  0  0  0  0  0  0  0  0  0
  -28.7690  -15.6960   20.6540 H   0  0  0  0  0  0  0  0  0  0  0  0
  -25.2050  -13.8450   20.5090 C   0  0  0  0  0  0  0  0  0  0  0  0
  -24.1430  -13.0660   20.8810 C   0  0  0  0  0  0  0  0  0  0  0  0
  -24.6130  -11.7170   20.8520 C   0  0  0  0  0  0  0  0  0  0  0  0
  -26.2520  -12.9690   20.2710 N   0  0  0  0  0  0  0  0  0  0  0  0
  -25.9030  -11.6840   20.5400 N   0  0  0  0  0  0  0  0  0  0  0  0
  -23.8920  -10.4520   21.0430 C   0  0  0  0  0  0  0  0  0  0  0  0
  -24.3310   -9.4850   21.9750 C   0  0  0  0  0  3  0  0  0  0  0  0
  -23.6090   -8.2860   22.1550 C   0  0  0  0  0  3  0  0  0  0  0  0
  -22.4340   -8.0450   21.4040 C   0  0  0  0  0  0  0  0  0  0  0  0
  -22.0150   -9.0010   20.4620 C   0  0  0  0  0  3  0  0  0  0  0  0
  -22.7370  -10.1910   20.2800 C   0  0  0  0  0  3  0  0  0  0  0  0
  -21.6830   -6.8980   21.4930 O   0  0  0  0  0  0  0  0  0  0  0  0
  -21.6450   -6.1510   22.6430 C   0  0  0  0  0  0  0  0  0  0  0  0
  -21.2300   -6.7000   23.8750 C   0  0  0  0  0  3  0  0  0  0  0  0
  -21.1390   -5.8800   25.0180 C   0  0  0  0  0  3  0  0  0  0  0  0
  -21.4540   -4.5100   24.9270 C   0  0  0  0  0  0  0  0  0  0  0  0
  -21.8640   -3.9600   23.7000 C   0  0  0  0  0  3  0  0  0  0  0  0
  -21.9560   -4.7780   22.5600 C   0  0  0  0  0  0  0  0  0  0  0  0
  -22.3300   -4.2380   21.3750 F   0  0  0  0  0  0  0  0  0  0  0  0
  -21.3600   -3.7190   26.0220 F   0  0  0  0  0  0  0  0  0  0  0  0
  -22.7450  -13.5400   21.1500 C   0  0  0  0  0  0  0  0  0  0  0  0
  -22.0170  -12.8410   22.0140 N   0  0  0  0  0  0  0  0  0  0  0  0
  -22.3050  -14.5640   20.6300 O   0  0  0  0  0  0  0  0  0  0  0  0
  -22.3840  -12.0130   22.4580 H   0  0  0  0  0  0  0  0  0  0  0  0
  -21.0780  -13.1410   22.2370 H   0  0  0  0  0  0  0  0  0  0  0  0
  -25.3590  -15.2160   20.3280 N   0  0  0  0  0  0  0  0  0  0  0  0
  -24.5810  -15.8570   20.4390 H   0  0  0  0  0  0  0  0  0  0  0  0
  -26.1830  -15.6630   19.9460 H   0  0  0  0  0  0  0  0  0  0  0  0
  -32.0160  -20.4320   20.2200 C   0  0  0  0  0  0  0  0  0  0  0  0
  -32.4480  -21.1580   21.4870 C   0  0  0  0  0  1  0  0  0  0  0  0
  -32.5960  -20.6440   19.1530 O   0  0  0  0  0  0  0  0  0  0  0  0
  -29.0930  -22.2700   20.7190 C   0  0  0  0  0  2  0  0  0  0  0  0
  -28.5880  -23.6320   19.9860 C   0  0  0  0  0  0  0  0  0  0  0  0
  -28.5240  -23.6400   18.7520 O   0  0  0  0  0  0  0  0  0  0  0  0
  -28.1380  -24.9570   20.8040 C   0  0  0  0  0  2  0  0  0  0  0  0
  -28.3210  -26.3470   20.2230 O   0  0  0  0  0  0  0  0  0  0  0  0
  -24.6130  -31.8810   23.2370 C   0  0  0  0  0  0  0  0  0  0  0  0
  -27.2270  -27.2490   20.2270 C   0  0  0  0  0  0  0  0  0  0  0  0
  -23.4190  -30.4760   21.5990 C   0  0  0  0  0  3  0  0  0  0  0  0
  -24.8760  -28.9080   20.1890 C   0  0  0  0  0  0  0  0  0  0  0  0
  -25.9630  -30.7760   21.4310 C   0  0  0  0  0  2  0  0  0  0  0  0
  -26.0470  -29.3880   20.7890 C   0  0  0  0  0  0  0  0  0  0  0  0
  -27.2290  -28.5740   20.7890 C   0  0  0  0  0  3  0  0  0  0  0  0
  -26.0310  -26.8340   19.6070 C   0  0  0  0  0  3  0  0  0  0  0  0
  -24.8750  -27.6400   19.5840 C   0  0  0  0  0  3  0  0  0  0  0  0
  -23.6410  -29.7910   20.2240 C   0  0  0  0  0  2  0  0  0  0  0  0
  -24.6840  -31.0640   22.1450 N   0  0  0  0  0  0  0  0  0  0  0  0
  -23.5260  -32.1630   23.7640 O   0  0  0  0  0  0  0  0  0  0  0  0
  -22.7450  -29.4670   22.5620 C   0  0  0  0  0  0  0  0  0  0  0  0
  -21.4180  -29.2960   22.4350 N   0  0  0  0  0  0  0  0  0  0  0  0
  -23.4190  -28.8410   23.3850 O   0  0  0  0  0  0  0  0  0  0  0  0
  -20.9340  -29.8510   21.7440 H   0  0  0  0  0  0  0  0  0  0  0  0
  -18.0340  -28.1160   22.9430 C   0  0  0  0  0  0  0  0  0  0  0  0
  -20.5940  -28.3630   23.2080 C   0  0  0  0  0  3  0  0  0  0  0  0
  -20.6870  -26.9310   22.6320 C   0  0  0  0  0  2  0  0  0  0  0  0
  -19.5820  -26.6130   21.6200 C   0  0  0  0  0  2  0  0  0  0  0  0
  -18.2020  -26.7660   22.2660 C   0  0  0  0  0  2  0  0  0  0  0  0
  -19.1570  -28.8730   23.3700 C   0  0  0  0  0  0  0  0  0  0  0  0
  -18.9450  -30.1370   23.9640 C   0  0  0  0  0  3  0  0  0  0  0  0
  -17.6440  -30.6430   24.1330 C   0  0  0  0  0  3  0  0  0  0  0  0
  -16.5350  -29.8840   23.7210 C   0  0  0  0  0  3  0  0  0  0  0  0
  -16.7310  -28.6230   23.1320 C   0  0  0  0  0  3  0  0  0  0  0  0
  -25.8920  -32.5190   23.8640 C   0  0  0  0  0  3  0  0  0  0  0  0
  -25.5770  -33.9180   24.1890 N   0  0  0  0  0  0  0  0  0  0  0  0
  -25.9120  -34.9710   23.4320 C   0  0  0  0  0  0  0  0  0  0  0  0
  -26.5890  -34.8660   22.4060 O   0  0  0  0  0  0  0  0  0  0  0  0
  -24.9760  -34.0720   24.9850 H   0  0  0  0  0  0  0  0  0  0  0  0
  -24.1880  -36.7660   23.0690 C   0  0  0  0  0  1  0  0  0  0  0  0
  -25.4240  -36.3610   23.8880 C   0  0  0  0  0  3  0  0  0  0  0  0
  -27.5530  -37.2450   24.7330 C   0  0  0  0  0  1  0  0  0  0  0  0
  -26.4580  -37.4130   23.7800 N   0  0  0  0  0  0  0  0  0  0  0  0
  -26.0510  -38.3330   23.9230 H   0  0  0  0  0  0  0  0  0  0  0  0
  -26.3990  -31.7540   25.1480 C   0  0  1  0  0  0  0  0  0  0  0  0
  -25.2990  -31.5250   26.2110 C   0  0  0  0  0  1  0  0  0  0  0  0
  -26.9840  -30.3740   24.7710 C   0  0  0  0  0  1  0  0  0  0  0  0
  -27.5460  -32.5520   25.8120 C   0  0  0  0  0  1  0  0  0  0  0  0
  1  6  1  0
  1 49  1  0
  2  1  1  0
  3  5  2  0
  4  3  1  0
  5 16  1  0
  6  4  2  0
  6  7  1  0
  7  5  1  0
  8 16  1  0
  9 14  1  0
 10 11  1  0
 10  9  1  0
 12 11  1  0
 12 21  1  0
 12 13  1  0
 14  8  1  0
 14 13  1  0
 15  8  2  0
 16 17  1  0
 18 19  2  0
 19 38  1  0
 20 19  1  0
 20 23  1  0
 21 18  1  0
 21 22  1  0
 22 20  2  0
 23 24  1  0
 24 25  2  0
 26 29  1  0
 26 25  1  0
 27 26  2  0
 28 27  1  0
 28 23  2  0
 29 30  1  0
 30 31  1  0
 31 32  2  0
 33 32  1  0
 33 37  1  0
 34 33  2  0
 35 30  2  0
 35 34  1  0
 36 35  1  0
 38 39  1  0
 39 42  1  0
 39 41  1  0
 40 38  2  0
 43 44  1  0
 43 18  1  0
 45 43  1  0
 46  4  1  0
 46 47  1  0
 48 46  2  0
 50 49  1  0
 50 52  1  0
 51 50  2  0
 53 55  1  0
 53 52  1  0
 54 65  2  0
 55 60  1  0
 56 64  1  0
 56 66  1  0
 57 63  1  0
 57 59  1  0
 58 64  1  0
 59 58  1  0
 60 59  2  0
 61 55  2  0
 62 61  1  0
 62 57  2  0
 63 56  1  0
 64 54  1  0
 66 68  2  0
 67 66  1  0
 69 67  1  0
 70 79  2  0
 70 75  1  0
 71 67  1  0
 71 75  1  0
 72 71  1  0
 73 74  1  0
 73 72  1  0
 74 70  1  0
 75 76  2  0
 76 77  1  0
 78 77  2  0
 79 78  1  0
 80 54  1  0
 80 81  1  0
 80 90  1  0
 81 84  1  0
 82 86  1  0
 82 81  1  0
 83 82  2  0
 86 85  1  0
 88 86  1  0
 88 89  1  0
 88 87  1  0
 90 93  1  1
 90 91  1  0
 92 90  1  0
M  ISO  4   8 100  16 100  52 101  53 101
M  END
>  <TORSDO>  (70) 
F 21

>  <SCORE>  (70) 
-13.682

>  <name>  (70) 
69

>  <ligand_id>  (70) 
69

>  <original_smiles>  (70) 
[H]c1c([H])c([H])c2c(c1[H])C([H])([H])C([H])([H])C([H])([H])C2([H])N([H])C(=O)C1([H])N(C(=O)C([H])(N([H])C(=O)C([H])(N([H])C([H])([H])[H])C([H])([H])[H])C(C([H])([H])[H])(C([H])([H])[H])C([H])([H])[H])C([H])([H])c2c([H])c(OC([H])([H])C(=O)C([H])([H])N([H])c3oc(N([H])C(=O)N4C([H])([H])C([H])([H])C([H])([H])C([H])(n5nc(-c6c([H])c([H])c(Oc7c([H])c([H])c(F)c([H])c7F)c([H])c6[H])c(C(=O)N([H])[H])c5N([H])[H])C4([H])[H])c([H])c3C(=O)C([H])([H])[H])c([H])c([H])c2C1([H])[H]

>  <smiles>  (70) 
[H]c1c([H])c([H])c2c(c1[H])C([H])([H])C([H])([H])C([H])([H])C2([H])N([H])C(=O)C1([H])N(C(=O)C([H])(N([H])C(=O)C([H])(N([H])C([H])([H])[H])C([H])([H])[H])C(C([H])([H])[H])(C([H])([H])[H])C([H])([H])[H])C([H])([H])c2c([H])c(OC([H])([H])C(=O)C([H])([H])N([H])c3oc(N([H])C(=O)N4C([H])([H])C([H])([H])C([H])([H])C([H])(n5nc(-c6c([H])c([H])c(Oc7c([H])c([H])c(F)c([H])c7F)c([H])c6[H])c(C(=O)N([H])[H])c5N([H])[H])C4([H])[H])c([H])c3C(=O)C([H])([H])[H])c([H])c([H])c2C1([H])[H]

$$$$
70:0:0
     RDKit          3D

 92100  0  0  1  0  0  0  0  0999 V2000
  -28.4810  -20.1490   19.8860 C   0  0  0  0  0  3  0  0  0  0  0  0
  -28.8250  -18.7760   19.7140 C   0  0  0  0  0  0  0  0  0  0  0  0
  -29.8440  -18.4960   20.5920 C   0  0  0  0  0  0  0  0  0  0  0  0
  -29.3820  -20.6530   20.7840 C   0  0  0  0  0  0  0  0  0  0  0  0
  -30.1980  -19.6550   21.2460 O   0  0  0  0  0  0  0  0  0  0  0  0
  -28.2460  -17.7880   18.7880 C   0  0  0  0  0  0  0  0  0  0  0  0
  -28.9110  -17.6530   17.4270 C   0  0  0  0  0  1  0  0  0  0  0  0
  -27.2660  -17.1030   19.0780 O   0  0  0  0  0  0  0  0  0  0  0  0
  -29.0200  -22.9550   20.5900 C   0  0  0  0  0  3  0  0  0  0  0  0
  -29.5360  -21.9610   21.2250 N   0  0  0  0  0  0  0  0  0  0  0  0
  -29.0860  -24.4380   20.9360 C   0  0  0  0  0  0  0  0  0  0  0  0
  -29.7020  -24.8800   21.9180 O   0  0  0  0  0  0  0  0  0  0  0  0
  -28.2940  -25.3690   19.9950 C   0  0  0  0  0  2  0  0  0  0  0  0
  -28.3710  -26.7700   20.3590 O   0  0  0  0  0  0  0  0  0  0  0  0
  -24.5430  -31.9970   23.3350 C   0  0  0  0  0  0  0  0  0  0  0  0
  -27.2090  -27.5230   20.2910 C   0  0  0  0  0  0  0  0  0  0  0  0
  -23.3530  -30.5930   21.6870 C   0  0  0  0  0  3  0  0  0  0  0  0
  -24.8190  -29.0570   20.2740 C   0  0  0  0  0  0  0  0  0  0  0  0
  -25.8840  -30.9420   21.5170 C   0  0  0  0  0  2  0  0  0  0  0  0
  -25.9740  -29.5690   20.8800 C   0  0  0  0  0  0  0  0  0  0  0  0
  -27.1670  -28.8050   20.8930 C   0  0  0  0  0  3  0  0  0  0  0  0
  -26.0370  -27.0530   19.6460 C   0  0  0  0  0  3  0  0  0  0  0  0
  -24.8480  -27.8000   19.6530 C   0  0  0  0  0  3  0  0  0  0  0  0
  -23.5760  -29.9170   20.3080 C   0  0  0  0  0  2  0  0  0  0  0  0
  -24.6120  -31.1920   22.2370 N   0  0  0  0  0  0  0  0  0  0  0  0
  -23.4560  -32.2710   23.8630 O   0  0  0  0  0  0  0  0  0  0  0  0
  -22.6950  -29.5700   22.6410 C   0  0  0  0  0  0  0  0  0  0  0  0
  -21.3730  -29.3780   22.4960 N   0  0  0  0  0  0  0  0  0  0  0  0
  -23.3700  -28.9520   23.4690 O   0  0  0  0  0  0  0  0  0  0  0  0
  -20.8890  -29.9310   21.8020 H   0  0  0  0  0  0  0  0  0  0  0  0
  -17.9970  -28.1760   22.9560 C   0  0  0  0  0  0  0  0  0  0  0  0
  -20.5510  -28.4420   23.2590 C   0  0  0  0  0  3  0  0  0  0  0  0
  -20.6630  -27.0080   22.6920 C   0  0  0  0  0  2  0  0  0  0  0  0
  -19.5780  -26.6790   21.6640 C   0  0  0  0  0  2  0  0  0  0  0  0
  -18.1860  -26.8250   22.2860 C   0  0  0  0  0  2  0  0  0  0  0  0
  -19.1090  -28.9410   23.3980 C   0  0  0  0  0  0  0  0  0  0  0  0
  -18.8800  -30.2060   23.9810 C   0  0  0  0  0  3  0  0  0  0  0  0
  -17.5730  -30.7070   24.1270 C   0  0  0  0  0  3  0  0  0  0  0  0
  -16.4760  -29.9380   23.7020 C   0  0  0  0  0  3  0  0  0  0  0  0
  -16.6880  -28.6730   23.1240 C   0  0  0  0  0  3  0  0  0  0  0  0
  -25.8230  -32.6310   23.9630 C   0  0  0  0  0  3  0  0  0  0  0  0
  -25.5190  -34.0360   24.2640 N   0  0  0  0  0  0  0  0  0  0  0  0
  -25.8690  -35.0730   23.4920 C   0  0  0  0  0  0  0  0  0  0  0  0
  -26.5560  -34.9480   22.4730 O   0  0  0  0  0  0  0  0  0  0  0  0
  -24.9120  -34.2090   25.0520 H   0  0  0  0  0  0  0  0  0  0  0  0
  -24.1620  -36.8710   23.0680 C   0  0  0  0  0  1  0  0  0  0  0  0
  -25.3800  -36.4710   23.9160 C   0  0  0  0  0  3  0  0  0  0  0  0
  -27.5030  -37.3510   24.7840 C   0  0  0  0  0  1  0  0  0  0  0  0
  -26.4230  -37.5170   23.8140 N   0  0  0  0  0  0  0  0  0  0  0  0
  -26.0190  -38.4400   23.9470 H   0  0  0  0  0  0  0  0  0  0  0  0
  -26.3200  -31.8770   25.2560 C   0  0  1  0  0  0  0  0  0  0  0  0
  -25.2110  -31.6530   26.3100 C   0  0  0  0  0  1  0  0  0  0  0  0
  -26.9080  -30.4940   24.8900 C   0  0  0  0  0  1  0  0  0  0  0  0
  -27.4600  -32.6790   25.9270 C   0  0  0  0  0  1  0  0  0  0  0  0
  -30.7180  -17.2800   20.8530 C   0  0  0  0  0  2  0  0  0  0  0  0
  -30.0170  -15.9050   21.1280 C   0  0  0  0  0  2  0  0  0  0  0  0
  -30.7700  -14.6620   20.5700 C   0  0  0  0  0  0  0  0  0  0  0  0
  -30.4870  -12.5490   19.3220 C   0  0  0  0  0  2  0  0  0  0  0  0
  -29.5520  -12.8090   18.1210 C   0  0  0  0  0  2  0  0  0  0  0  0
  -28.0740  -12.6500   18.5310 C   0  0  0  0  0  2  0  0  0  0  0  0
  -27.7260  -13.4300   19.8260 C   0  0  0  0  0  3  0  0  0  0  0  0
  -28.7780  -13.1720   20.9300 C   0  0  0  0  0  2  0  0  0  0  0  0
  -30.1060  -13.4880   20.3880 N   0  0  0  0  0  0  0  0  0  0  0  0
  -31.9210  -14.8170   20.1520 O   0  0  0  0  0  0  0  0  0  0  0  0
  -25.3140  -13.9950   20.5260 C   0  0  0  0  0  0  0  0  0  0  0  0
  -24.2530  -13.2070   20.8740 C   0  0  0  0  0  0  0  0  0  0  0  0
  -24.7310  -11.8620   20.8320 C   0  0  0  0  0  0  0  0  0  0  0  0
  -26.3720  -13.1320   20.2900 N   0  0  0  0  0  0  0  0  0  0  0  0
  -26.0240  -11.8420   20.5340 N   0  0  0  0  0  0  0  0  0  0  0  0
  -24.0170  -10.5900   20.9990 C   0  0  0  0  0  0  0  0  0  0  0  0
  -24.4470   -9.6190   21.9300 C   0  0  0  0  0  3  0  0  0  0  0  0
  -23.7320   -8.4120   22.0850 C   0  0  0  0  0  3  0  0  0  0  0  0
  -22.5740   -8.1690   21.3090 C   0  0  0  0  0  0  0  0  0  0  0  0
  -22.1640   -9.1300   20.3670 C   0  0  0  0  0  3  0  0  0  0  0  0
  -22.8800  -10.3280   20.2110 C   0  0  0  0  0  3  0  0  0  0  0  0
  -21.8320   -7.0150   21.3730 O   0  0  0  0  0  0  0  0  0  0  0  0
  -21.7670   -6.2650   22.5200 C   0  0  0  0  0  0  0  0  0  0  0  0
  -21.2880   -6.8020   23.7350 C   0  0  0  0  0  3  0  0  0  0  0  0
  -21.1730   -5.9770   24.8710 C   0  0  0  0  0  3  0  0  0  0  0  0
  -21.5270   -4.6180   24.7940 C   0  0  0  0  0  0  0  0  0  0  0  0
  -21.9990   -4.0790   23.5850 C   0  0  0  0  0  3  0  0  0  0  0  0
  -22.1150   -4.9000   22.4500 C   0  0  0  0  0  0  0  0  0  0  0  0
  -22.5520   -4.3740   21.2810 F   0  0  0  0  0  0  0  0  0  0  0  0
  -21.4070   -3.8220   25.8830 F   0  0  0  0  0  0  0  0  0  0  0  0
  -22.8470  -13.6660   21.1320 C   0  0  0  0  0  0  0  0  0  0  0  0
  -22.1140  -12.9520   21.9780 N   0  0  0  0  0  0  0  0  0  0  0  0
  -22.4060  -14.6940   20.6170 O   0  0  0  0  0  0  0  0  0  0  0  0
  -22.4840  -12.1210   22.4150 H   0  0  0  0  0  0  0  0  0  0  0  0
  -21.1700  -13.2410   22.1940 H   0  0  0  0  0  0  0  0  0  0  0  0
  -25.4500  -15.3700   20.3750 N   0  0  0  0  0  0  0  0  0  0  0  0
  -24.6500  -15.9830   20.4710 H   0  0  0  0  0  0  0  0  0  0  0  0
  -26.2430  -15.8450   19.9460 H   0  0  0  0  0  0  0  0  0  0  0  0
  1  4  2  0
  2  1  1  0
  2  3  2  0
  3 55  1  0
  3  5  1  0
  4 10  1  0
  4  5  1  0
  6  8  2  0
  6  2  1  0
  7  6  1  0
  9 11  1  0
  9 10  2  0
 11 12  2  0
 13 14  1  0
 13 11  1  0
 15 26  2  0
 16 14  1  0
 16 21  1  0
 17 25  1  0
 17 27  1  0
 18 24  1  0
 18 20  1  0
 19 25  1  0
 20 21  2  0
 20 19  1  0
 22 23  1  0
 22 16  2  0
 23 18  2  0
 24 17  1  0
 25 15  1  0
 27 29  2  0
 28 27  1  0
 30 28  1  0
 31 40  2  0
 31 36  1  0
 32 28  1  0
 32 36  1  0
 33 32  1  0
 34 35  1  0
 34 33  1  0
 35 31  1  0
 36 37  2  0
 37 38  1  0
 39 38  2  0
 40 39  1  0
 41 15  1  0
 41 42  1  0
 41 51  1  0
 42 45  1  0
 43 47  1  0
 43 42  1  0
 44 43  2  0
 47 46  1  0
 49 47  1  0
 49 50  1  0
 49 48  1  0
 51 54  1  1
 51 52  1  0
 53 51  1  0
 55 56  1  0
 57 56  1  0
 58 63  1  0
 59 60  1  0
 59 58  1  0
 61 60  1  0
 61 68  1  0
 61 62  1  0
 63 57  1  0
 63 62  1  0
 64 57  2  0
 65 66  2  0
 66 85  1  0
 67 66  1  0
 67 70  1  0
 68 65  1  0
 68 69  1  0
 69 67  2  0
 70 71  1  0
 71 72  2  0
 73 76  1  0
 73 72  1  0
 74 73  2  0
 75 74  1  0
 75 70  2  0
 76 77  1  0
 77 78  1  0
 78 79  2  0
 80 79  1  0
 80 84  1  0
 81 80  2  0
 82 77  2  0
 82 81  1  0
 83 82  1  0
 85 86  1  0
 86 89  1  0
 86 88  1  0
 87 85  2  0
 90 91  1  0
 90 65  1  0
 92 90  1  0
M  ISO  4  13 101  14 101  56 100  57 100
M  END
>  <TORSDO>  (71) 
F 22

>  <SCORE>  (71) 
-13.217

>  <name>  (71) 
70

>  <ligand_id>  (71) 
70

>  <original_smiles>  (71) 
[H]C(=Nc1oc(C([H])([H])C([H])([H])C(=O)N2C([H])([H])C([H])([H])C([H])([H])C([H])(n3nc(-c4c([H])c([H])c(Oc5c([H])c([H])c(F)c([H])c5F)c([H])c4[H])c(C(=O)N([H])[H])c3N([H])[H])C2([H])[H])c(C(=O)C([H])([H])[H])c1[H])C(=O)C([H])([H])Oc1c([H])c([H])c2c(c1[H])C([H])([H])N(C(=O)C([H])(N([H])C(=O)C([H])(N([H])C([H])([H])[H])C([H])([H])[H])C(C([H])([H])[H])(C([H])([H])[H])C([H])([H])[H])C([H])(C(=O)N([H])C1([H])c3c([H])c([H])c([H])c([H])c3C([H])([H])C([H])([H])C1([H])[H])C2([H])[H]

>  <smiles>  (71) 
[H]C(=Nc1oc(C([H])([H])C([H])([H])C(=O)N2C([H])([H])C([H])([H])C([H])([H])C([H])(n3nc(-c4c([H])c([H])c(Oc5c([H])c([H])c(F)c([H])c5F)c([H])c4[H])c(C(=O)N([H])[H])c3N([H])[H])C2([H])[H])c(C(=O)C([H])([H])[H])c1[H])C(=O)C([H])([H])Oc1c([H])c([H])c2c(c1[H])C([H])([H])N(C(=O)C([H])(N([H])C(=O)C([H])(N([H])C([H])([H])[H])C([H])([H])[H])C(C([H])([H])[H])(C([H])([H])[H])C([H])([H])[H])C([H])(C(=O)N([H])C1([H])c3c([H])c([H])c([H])c([H])c3C([H])([H])C([H])([H])C1([H])[H])C2([H])[H]

$$$$
71:0:0
     RDKit          3D

101103  0  0  1  0  0  0  0  0999 V2000
  -24.7310  -21.9800   19.0530 C   0  0  0  0  0  0  0  0  0  0  0  0
  -21.9900  -23.4520   19.5630 C   0  0  0  0  0  2  0  0  0  0  0  0
  -23.6990  -23.0110   19.6920 N   0  0  0  0  0  0  0  0  0  0  0  0
  -24.1990  -21.4010   17.9690 N   0  0  0  0  0  4  0  0  0  0  0  0
  -21.5020  -22.5560   18.8660 O   0  0  0  0  0  1  0  0  0  0  0  0
  -24.2360  -23.5660   20.3430 H   0  0  0  0  0  0  0  0  0  0  0  0
  -24.7870  -20.8860   17.3300 H   0  0  0  0  0  0  0  0  0  0  0  0
  -23.2360  -21.5740   17.7170 H   0  0  0  0  0  0  0  0  0  0  0  0
  -27.1760  -19.8860   19.3880 C   0  0  0  0  0  3  0  0  0  0  0  0
  -27.4840  -22.2520   19.1280 C   0  0  0  0  0  3  0  0  0  0  0  0
  -29.4560  -20.6100   19.3610 C   0  0  0  0  0  3  0  0  0  0  0  0
  -26.4220  -21.3170   19.2100 C   0  0  0  0  0  0  0  0  0  0  0  0
  -28.7240  -19.3950   19.4440 C   0  0  0  0  0  0  0  0  0  0  0  0
  -28.8820  -21.9200   19.2120 C   0  0  0  0  0  0  0  0  0  0  0  0
  -29.7430  -22.9620   19.1340 F   0  0  0  0  0  0  0  0  0  0  0  0
  -31.0230  -17.1650   19.8130 C   0  0  0  0  0  0  0  0  0  0  0  0
  -32.1530  -14.7080   19.7950 C   0  0  0  0  0  2  0  0  0  0  0  0
  -31.5690  -13.8140   18.6600 C   0  0  0  0  0  2  0  0  0  0  0  0
  -30.1600  -13.3080   19.0260 C   0  0  0  0  0  2  0  0  0  0  0  0
  -29.3490  -14.4430   19.6980 C   0  0  0  0  0  3  0  0  0  0  0  0
  -30.0940  -15.0750   20.8680 C   0  0  0  0  0  2  0  0  0  0  0  0
  -31.1380  -15.7850   20.1930 N   0  0  0  0  0  0  0  0  0  0  0  0
  -32.1940  -17.5400   19.5330 O   0  0  0  0  0  0  0  0  0  0  0  0
  -29.6320  -17.9180   19.6430 N   0  0  0  0  0  0  0  0  0  0  0  0
  -28.9480  -17.1790   19.7190 H   0  0  0  0  0  0  0  0  0  0  0  0
  -27.0160  -14.9640   20.4910 C   0  0  0  0  0  0  0  0  0  0  0  0
  -25.9830  -14.1570   20.8610 C   0  0  0  0  0  0  0  0  0  0  0  0
  -26.4600  -12.8160   20.7400 C   0  0  0  0  0  0  0  0  0  0  0  0
  -28.0350  -14.0970   20.1430 N   0  0  0  0  0  0  0  0  0  0  0  0
  -27.7330  -12.8030   20.3740 N   0  0  0  0  0  0  0  0  0  0  0  0
  -25.7600  -11.5390   20.8750 C   0  0  0  0  0  0  0  0  0  0  0  0
  -26.2130  -10.5450   21.7660 C   0  0  0  0  0  3  0  0  0  0  0  0
  -25.5080   -9.3310   21.8900 C   0  0  0  0  0  3  0  0  0  0  0  0
  -24.3440   -9.1060   21.1200 C   0  0  0  0  0  0  0  0  0  0  0  0
  -23.9170  -10.0890   20.2120 C   0  0  0  0  0  3  0  0  0  0  0  0
  -24.6200  -11.2960   20.0840 C   0  0  0  0  0  3  0  0  0  0  0  0
  -23.6040   -7.9500   21.1560 O   0  0  0  0  0  0  0  0  0  0  0  0
  -22.8680   -7.6070   22.2600 C   0  0  0  0  0  0  0  0  0  0  0  0
  -22.1050   -8.5560   22.9730 C   0  0  0  0  0  3  0  0  0  0  0  0
  -21.3080   -8.1450   24.0590 C   0  0  0  0  0  3  0  0  0  0  0  0
  -21.2610   -6.7860   24.4250 C   0  0  0  0  0  0  0  0  0  0  0  0
  -22.0140   -5.8380   23.7080 C   0  0  0  0  0  3  0  0  0  0  0  0
  -22.8150   -6.2480   22.6290 C   0  0  0  0  0  0  0  0  0  0  0  0
  -23.5230   -5.3300   21.9300 F   0  0  0  0  0  0  0  0  0  0  0  0
  -20.4880   -6.3870   25.4610 F   0  0  0  0  0  0  0  0  0  0  0  0
  -24.5910  -14.6030   21.1930 C   0  0  0  0  0  0  0  0  0  0  0  0
  -23.9550  -13.9450   22.1540 N   0  0  0  0  0  0  0  0  0  0  0  0
  -24.0880  -15.5730   20.6270 O   0  0  0  0  0  0  0  0  0  0  0  0
  -24.3840  -13.1620   22.6240 H   0  0  0  0  0  0  0  0  0  0  0  0
  -23.0250  -14.2260   22.4260 H   0  0  0  0  0  0  0  0  0  0  0  0
  -27.1690  -16.3490   20.3850 N   0  0  0  0  0  0  0  0  0  0  0  0
  -26.3020  -16.8630   20.4960 H   0  0  0  0  0  0  0  0  0  0  0  0
  -27.6690  -16.6810   19.5670 H   0  0  0  0  0  0  0  0  0  0  0  0
  -19.6660  -25.6670   20.1470 C   0  0  0  0  0  2  0  0  0  0  0  0
  -20.0370  -27.2350   19.2440 C   0  0  0  0  0  0  0  0  0  0  0  0
  -20.5330  -24.5830   20.0750 C   0  0  0  0  0  1  0  0  0  0  0  0
  -21.2800  -27.5960   18.8400 C   0  0  0  0  0  2  0  0  0  0  0  0
  -20.1400  -26.3530   19.6410 O   0  0  0  0  0  0  0  0  0  0  0  0
  -22.9300  -27.3870   18.5860 N   0  0  0  0  0  2  0  0  0  0  0  0
  -23.0910  -27.9850   17.7870 H   0  0  0  0  0  0  0  0  0  0  0  0
  -24.4880  -27.5350   19.5160 O   0  0  0  0  0  1  0  0  0  0  0  0
  -24.5400  -31.2580   23.8790 C   0  0  0  0  0  0  0  0  0  0  0  0
  -25.7400  -28.1160   19.1320 C   0  0  0  0  0  3  0  0  0  0  0  0
  -23.2780  -30.9840   21.8150 C   0  0  0  0  0  3  0  0  0  0  0  0
  -24.5620  -30.3660   19.6700 C   0  0  0  0  0  3  0  0  0  0  0  0
  -25.8230  -30.8620   21.7680 C   0  0  0  0  0  2  0  0  0  0  0  0
  -25.6270  -30.0360   20.5110 C   0  0  0  0  0  3  0  0  0  0  0  0
  -26.3660  -28.8900   20.1600 C   0  0  0  0  0  2  0  0  0  0  0  0
  -25.4050  -28.8030   18.0000 C   0  0  0  0  0  2  0  0  0  0  0  0
  -24.5690  -29.8830   18.3340 C   0  0  0  0  0  2  0  0  0  0  0  0
  -23.4420  -31.1750   20.2660 C   0  0  0  0  0  2  0  0  0  0  0  0
  -24.5720  -31.0910   22.5290 N   0  0  0  0  0  0  0  0  0  0  0  0
  -23.4700  -31.4260   24.4860 O   0  0  0  0  0  0  0  0  0  0  0  0
  -22.6810  -29.6360   22.2660 C   0  0  0  0  0  0  0  0  0  0  0  0
  -21.4550  -29.5500   22.6890 N   0  0  0  0  0  0  0  0  0  0  0  0
  -23.3680  -28.6300   22.3480 O   0  0  0  0  0  0  0  0  0  0  0  0
  -20.8630  -30.3670   22.7540 H   0  0  0  0  0  0  0  0  0  0  0  0
  -17.7400  -29.1130   21.9360 C   0  0  0  0  0  3  0  0  0  0  0  0
  -20.8300  -28.2100   22.7940 C   0  0  0  0  0  1  0  0  0  0  0  0
  -21.5520  -26.8780   21.0080 C   0  0  0  0  0 15  0  0  0  0  0  0
  -19.3930  -27.3700   18.8470 C   0  0  0  0  0  2  0  0  0  0  0  0
  -17.6310  -28.4030   20.0120 C   0  0  0  0  0 15  0  0  0  0  0  0
  -19.0400  -29.0450   22.9990 C   0  0  0  0  0  3  0  0  0  0  0  0
  -18.9410  -29.9260   24.1420 C   0  0  0  0  0  3  0  0  0  0  0  0
  -17.7950  -30.6490   24.5420 C   0  0  0  0  0  3  0  0  0  0  0  0
  -16.6180  -30.5220   23.7910 C   0  0  0  0  0  3  0  0  0  0  0  0
  -16.6110  -29.8020   22.5510 C   0  0  0  0  0  3  0  0  0  0  0  0
  -25.8440  -31.2560   24.7130 C   0  0  0  0  0  3  0  0  0  0  0  0
  -25.6510  -30.7180   26.1840 C   0  0  1  0  0  0  0  0  0  0  0  0
  -24.4810  -31.3790   26.9500 C   0  0  0  0  0  1  0  0  0  0  0  0
  -25.4050  -29.1920   26.1880 C   0  0  0  0  0  1  0  0  0  0  0  0
  -26.9500  -30.9530   26.9860 C   0  0  0  0  0  1  0  0  0  0  0  0
  -26.3220  -32.6420   24.7250 N   0  0  0  0  0  0  0  0  0  0  0  0
  -27.3930  -33.0740   24.0530 C   0  0  0  0  0  0  0  0  0  0  0  0
  -28.1420  -32.3150   23.4320 O   0  0  0  0  0  0  0  0  0  0  0  0
  -25.7270  -33.3210   25.1760 H   0  0  0  0  0  0  0  0  0  0  0  0
  -27.4920  -35.1750   22.6740 C   0  0  0  0  0  1  0  0  0  0  0  0
  -27.6820  -34.5850   24.0800 C   0  0  0  0  0  3  0  0  0  0  0  0
  -29.2210  -34.5940   25.9930 C   0  0  0  0  0  1  0  0  0  0  0  0
  -29.0350  -34.9090   24.5790 N   0  0  0  0  0  0  0  0  0  0  0  0
  -29.2450  -35.8950   24.4450 H   0  0  0  0  0  0  0  0  0  0  0  0
  1 12  1  0
  1  3  1  0
  2  3  1  0
  3  6  1  0
  4  1  2  0
  5  2  1  0
  7  4  1  0
  8  4  1  0
  9 13  1  0
 10 12  1  0
 10 14  2  0
 11 13  2  0
 12  9  2  0
 13 24  1  0
 14 11  1  0
 15 14  1  0
 16 22  1  0
 17 22  1  0
 18 19  1  0
 18 17  1  0
 20 19  1  0
 20 29  1  0
 20 21  1  0
 22 21  1  0
 23 16  2  0
 24 25  1  0
 24 16  1  0
 26 27  2  0
 27 46  1  0
 28 27  1  0
 28 31  1  0
 29 30  1  0
 29 26  1  0
 30 28  2  0
 31 32  1  0
 32 33  2  0
 34 37  1  0
 34 33  1  0
 35 34  2  0
 36 35  1  0
 36 31  2  0
 37 38  1  0
 38 43  2  0
 38 39  1  0
 39 40  2  0
 40 41  1  0
 41 45  1  0
 42 41  2  0
 43 42  1  0
 44 43  1  0
 46 47  1  0
 47 50  1  0
 47 49  1  0
 48 46  2  0
 51 26  1  0
 51 52  1  0
 53 51  1  0
 55 58  1  0
 56 54  1  0
 57 55  1  0
 58 54  1  0
 59 57  1  0
 60 59  1  0
 62 73  2  0
 63 61  1  0
 63 68  1  0
 64 74  1  0
 64 72  1  0
 65 70  1  0
 65 71  1  0
 65 67  1  0
 66 72  1  0
 67 68  1  0
 67 66  1  0
 69 70  1  0
 69 63  1  0
 71 64  1  0
 72 62  1  0
 74 76  2  0
 74 75  1  0
 75 77  1  0
 75 79  1  0
 78 87  2  0
 78 83  1  0
 81 55  2  0
 83 84  2  0
 84 85  1  0
 86 85  2  0
 87 86  1  0
 88 62  1  0
 88 93  1  0
 88 89  1  0
 89 91  1  6
 89 90  1  0
 89 92  1  0
 93 96  1  0
 94 98  1  0
 94 93  1  0
 95 94  2  0
 98 97  1  0
 98100  1  0
100 99  1  0
101100  1  0
M  ISO  4  16 100  24 100  59 101  61 101
M  END
>  <TORSDO>  (72) 
F 19

>  <SCORE>  (72) 
-8.195

>  <name>  (72) 
71

>  <ligand_id>  (72) 
71

>  <original_smiles>  (72) 
[H]c1c(C(=O)N([H])C(c2c([H])c(F)c([H])c(N([H])C(=O)N3C([H])([H])C([H])([H])C([H])([H])C([H])(n4nc(-c5c([H])c([H])c(Oc6c([H])c([H])c(F)c([H])c6F)c([H])c5[H])c(C(=O)N([H])[H])c4N([H])[H])C3([H])[H])c2[H])=[N+]([H])[H])oc(N([H])Oc2c([H])c([H])c3c(c2[H])C([H])([H])N(C(=O)C([H])(N([H])C(=O)C([H])(N([H])C([H])([H])[H])C([H])([H])[H])C(C([H])([H])[H])(C([H])([H])[H])C([H])([H])[H])C([H])(C(=O)N([H])C2([H])c4c([H])c([H])c([H])c([H])c4C([H])([H])C([H])([H])C2([H])[H])C3([H])[H])c1[H]

>  <smiles>  (72) 
[H]c1c(C(=O)N([H])C(c2c([H])c(F)c([H])c(N([H])C(=O)N3C([H])([H])C([H])([H])C([H])([H])C([H])(n4nc(-c5c([H])c([H])c(Oc6c([H])c([H])c(F)c([H])c6F)c([H])c5[H])c(C(=O)N([H])[H])c4N([H])[H])C3([H])[H])c2[H])=[N+]([H])[H])oc(N([H])Oc2c([H])c([H])c3c(c2[H])C([H])([H])N(C(=O)C([H])(N([H])C(=O)C([H])(N([H])C([H])([H])[H])C([H])([H])[H])C(C([H])([H])[H])(C([H])([H])[H])C([H])([H])[H])C([H])(C(=O)N([H])C2([H])c4c([H])c([H])c([H])c([H])c4C([H])([H])C([H])([H])C2([H])[H])C3([H])[H])c1[H]

$$$$
72:0:0
     RDKit          3D

 97105  0  0  1  0  0  0  0  0999 V2000
  -26.8970  -20.7430   20.5860 C   0  0  0  0  0  1  0  0  0  0  0  0
  -28.1560  -20.6230   19.6970 C   0  0  0  0  0  3  0  0  0  0  0  0
  -30.9430  -14.5130   20.0230 C   0  0  0  0  0  0  0  0  0  0  0  0
  -30.5790  -12.3720   18.8520 C   0  0  0  0  0  2  0  0  0  0  0  0
  -29.5540  -12.5920   17.7180 C   0  0  0  0  0  2  0  0  0  0  0  0
  -28.1100  -12.4610   18.2400 C   0  0  0  0  0  2  0  0  0  0  0  0
  -27.8650  -13.2790   19.5360 C   0  0  0  0  0  3  0  0  0  0  0  0
  -28.9850  -13.0180   20.5670 C   0  0  0  0  0  2  0  0  0  0  0  0
  -30.2810  -13.3250   19.9330 N   0  0  0  0  0  0  0  0  0  0  0  0
  -31.9780  -14.7530   19.3860 O   0  0  0  0  0  0  0  0  0  0  0  0
  -29.4210  -18.9930   21.2340 C   0  0  0  0  0  3  0  0  0  0  0  0
  -29.9490  -17.7120   21.5030 C   0  0  0  0  0  3  0  0  0  0  0  0
  -28.8950  -19.2830   19.9560 C   0  0  0  0  0  0  0  0  0  0  0  0
  -29.9770  -16.7340   20.4880 C   0  0  0  0  0  0  0  0  0  0  0  0
  -28.9770  -18.2420   18.9940 C   0  0  0  0  0  0  0  0  0  0  0  0
  -29.5080  -17.0310   19.2520 N   0  0  0  0  0  0  0  0  0  0  0  0
  -30.3970  -15.4230   20.8510 N   0  0  0  0  0  0  0  0  0  0  0  0
  -29.8620  -15.0280   21.6090 H   0  0  0  0  0  0  0  0  0  0  0  0
  -25.5230  -13.8930   20.4160 C   0  0  0  0  0  0  0  0  0  0  0  0
  -24.4800  -13.1230   20.8540 C   0  0  0  0  0  0  0  0  0  0  0  0
  -24.9280  -11.7690   20.7750 C   0  0  0  0  0  0  0  0  0  0  0  0
  -26.5430  -13.0080   20.1020 N   0  0  0  0  0  0  0  0  0  0  0  0
  -26.1920  -11.7250   20.3730 N   0  0  0  0  0  0  0  0  0  0  0  0
  -24.2100  -10.5080   21.0040 C   0  0  0  0  0  0  0  0  0  0  0  0
  -24.6290   -9.5910   21.9920 C   0  0  0  0  0  3  0  0  0  0  0  0
  -23.9120   -8.3940   22.2070 C   0  0  0  0  0  3  0  0  0  0  0  0
  -22.7620   -8.1070   21.4340 C   0  0  0  0  0  0  0  0  0  0  0  0
  -22.3630   -9.0150   20.4360 C   0  0  0  0  0  3  0  0  0  0  0  0
  -23.0810  -10.2030   20.2210 C   0  0  0  0  0  3  0  0  0  0  0  0
  -22.0180   -6.9580   21.5520 O   0  0  0  0  0  0  0  0  0  0  0  0
  -21.8480   -6.3320   22.7600 C   0  0  0  0  0  0  0  0  0  0  0  0
  -21.2640   -6.9890   23.8650 C   0  0  0  0  0  3  0  0  0  0  0  0
  -21.0490   -6.2870   25.0680 C   0  0  0  0  0  3  0  0  0  0  0  0
  -21.4030   -4.9280   25.1650 C   0  0  0  0  0  0  0  0  0  0  0  0
  -21.9780   -4.2720   24.0630 C   0  0  0  0  0  3  0  0  0  0  0  0
  -22.1980   -4.9710   22.8630 C   0  0  0  0  0  0  0  0  0  0  0  0
  -22.7320   -4.3260   21.7980 F   0  0  0  0  0  0  0  0  0  0  0  0
  -21.1880   -4.2500   26.3170 F   0  0  0  0  0  0  0  0  0  0  0  0
  -23.1110  -13.6060   21.2340 C   0  0  0  0  0  0  0  0  0  0  0  0
  -22.4500  -12.9090   22.1510 N   0  0  0  0  0  0  0  0  0  0  0  0
  -22.6370  -14.6330   20.7520 O   0  0  0  0  0  0  0  0  0  0  0  0
  -22.8500  -12.0770   22.5620 H   0  0  0  0  0  0  0  0  0  0  0  0
  -21.5340  -13.2100   22.4520 H   0  0  0  0  0  0  0  0  0  0  0  0
  -25.6870  -15.2630   20.2410 N   0  0  0  0  0  0  0  0  0  0  0  0
  -24.9270  -15.9180   20.3900 H   0  0  0  0  0  0  0  0  0  0  0  0
  -26.5110  -15.6910   19.8380 H   0  0  0  0  0  0  0  0  0  0  0  0
  -28.4890  -18.3510   17.7010 N   0  0  0  0  0  0  0  0  0  0  0  0
  -27.8150  -19.0670   17.4600 H   0  0  0  0  0  0  0  0  0  0  0  0
  -28.3720  -17.4980   17.1660 H   0  0  0  0  0  0  0  0  0  0  0  0
  -29.0270  -21.8410   19.6550 N   0  0  0  0  0  4  0  0  0  0  0  0
  -29.9970  -21.5880   19.5580 H   0  0  0  0  0  0  0  0  0  0  0  0
  -28.7990  -22.3460   18.8060 H   0  0  0  0  0  0  0  0  0  0  0  0
  -28.8870  -22.9120   20.6800 C   0  0  0  0  0  2  0  0  0  0  0  0
  -28.7510  -24.2630   19.9490 C   0  0  0  0  0  0  0  0  0  0  0  0
  -28.7960  -24.3160   18.7130 O   0  0  0  0  0  0  0  0  0  0  0  0
  -28.5220  -25.5230   20.8120 C   0  0  0  0  0  2  0  0  0  0  0  0
  -28.5790  -26.7440   20.0460 O   0  0  0  0  0  0  0  0  0  0  0  0
  -24.6360  -31.7850   23.1770 C   0  0  0  0  0  0  0  0  0  0  0  0
  -27.4070  -27.4660   20.0460 C   0  0  0  0  0  0  0  0  0  0  0  0
  -23.4790  -30.3930   21.4910 C   0  0  0  0  0  3  0  0  0  0  0  0
  -24.9800  -28.9150   20.0540 C   0  0  0  0  0  0  0  0  0  0  0  0
  -25.9980  -30.8130   21.3280 C   0  0  0  0  0  2  0  0  0  0  0  0
  -26.1200  -29.4560   20.6620 C   0  0  0  0  0  0  0  0  0  0  0  0
  -27.3390  -28.7420   20.6510 C   0  0  0  0  0  3  0  0  0  0  0  0
  -26.2540  -26.9380   19.4310 C   0  0  0  0  0  3  0  0  0  0  0  0
  -25.0420  -27.6540   19.4360 C   0  0  0  0  0  3  0  0  0  0  0  0
  -23.7170  -29.7450   20.1010 C   0  0  0  0  0  2  0  0  0  0  0  0
  -24.7220  -31.0110   22.0580 N   0  0  0  0  0  0  0  0  0  0  0  0
  -23.5420  -32.0210   23.7090 O   0  0  0  0  0  0  0  0  0  0  0  0
  -22.8380  -29.3410   22.4240 C   0  0  0  0  0  0  0  0  0  0  0  0
  -21.5180  -29.1360   22.2800 N   0  0  0  0  0  0  0  0  0  0  0  0
  -23.5250  -28.7090   23.2300 O   0  0  0  0  0  0  0  0  0  0  0  0
  -21.0220  -29.6980   21.6010 H   0  0  0  0  0  0  0  0  0  0  0  0
  -18.1650  -27.8700   22.7140 C   0  0  0  0  0  0  0  0  0  0  0  0
  -20.7130  -28.1650   23.0200 C   0  0  0  0  0  3  0  0  0  0  0  0
  -20.8480  -26.7520   22.4060 C   0  0  0  0  0  2  0  0  0  0  0  0
  -19.7620  -26.4380   21.3730 C   0  0  0  0  0  2  0  0  0  0  0  0
  -18.3730  -26.5420   22.0060 C   0  0  0  0  0  2  0  0  0  0  0  0
  -19.2640  -28.6410   23.1760 C   0  0  0  0  0  0  0  0  0  0  0  0
  -19.0180  -29.8850   23.7930 C   0  0  0  0  0  3  0  0  0  0  0  0
  -17.7030  -30.3620   23.9540 C   0  0  0  0  0  3  0  0  0  0  0  0
  -16.6150  -29.5870   23.5120 C   0  0  0  0  0  3  0  0  0  0  0  0
  -16.8490  -28.3430   22.8970 C   0  0  0  0  0  3  0  0  0  0  0  0
  -25.9000  -32.4280   23.8270 C   0  0  0  0  0  3  0  0  0  0  0  0
  -25.5660  -33.8190   24.1620 N   0  0  0  0  0  0  0  0  0  0  0  0
  -25.8980  -34.8820   23.4170 C   0  0  0  0  0  0  0  0  0  0  0  0
  -26.5890  -34.7960   22.3970 O   0  0  0  0  0  0  0  0  0  0  0  0
  -24.9570  -33.9610   24.9540 H   0  0  0  0  0  0  0  0  0  0  0  0
  -24.1530  -36.6520   23.0440 C   0  0  0  0  0  1  0  0  0  0  0  0
  -25.3830  -36.2580   23.8760 C   0  0  0  0  0  3  0  0  0  0  0  0
  -27.4860  -37.1670   24.7590 C   0  0  0  0  0  1  0  0  0  0  0  0
  -26.4030  -37.3260   23.7920 N   0  0  0  0  0  0  0  0  0  0  0  0
  -25.9800  -38.2400   23.9340 H   0  0  0  0  0  0  0  0  0  0  0  0
  -26.4090  -31.6520   25.1030 C   0  0  1  0  0  0  0  0  0  0  0  0
  -25.3030  -31.3900   26.1510 C   0  0  0  0  0  1  0  0  0  0  0  0
  -27.0180  -30.2880   24.7050 C   0  0  0  0  0  1  0  0  0  0  0  0
  -27.5390  -32.4550   25.7910 C   0  0  0  0  0  1  0  0  0  0  0  0
  2 13  1  0
  2  1  1  0
  3 17  1  0
  4  9  1  0
  5  6  1  0
  5  4  1  0
  7  6  1  0
  7 22  1  0
  7  8  1  0
  9  3  1  0
  9  8  1  0
 10  3  2  0
 11 12  1  0
 13 11  2  0
 14 17  1  0
 14 12  2  0
 15 16  2  0
 15 13  1  0
 16 14  1  0
 17 18  1  0
 19 20  2  0
 20 39  1  0
 21 20  1  0
 21 24  1  0
 22 23  1  0
 22 19  1  0
 23 21  2  0
 24 25  1  0
 25 26  2  0
 27 30  1  0
 27 26  1  0
 28 27  2  0
 29 28  1  0
 29 24  2  0
 30 31  1  0
 31 36  2  0
 31 32  1  0
 32 33  2  0
 33 34  1  0
 34 38  1  0
 35 34  2  0
 36 35  1  0
 37 36  1  0
 39 40  1  0
 40 43  1  0
 40 42  1  0
 41 39  2  0
 44 45  1  0
 44 19  1  0
 46 44  1  0
 47 15  1  0
 48 47  1  0
 49 47  1  0
 50  2  1  0
 50 53  1  0
 51 50  1  0
 52 50  1  0
 54 53  1  0
 54 56  1  0
 55 54  2  0
 57 59  1  0
 57 56  1  0
 58 69  2  0
 59 64  1  0
 60 68  1  0
 60 70  1  0
 61 67  1  0
 61 63  1  0
 62 68  1  0
 63 62  1  0
 64 63  2  0
 65 66  1  0
 65 59  2  0
 66 61  2  0
 67 60  1  0
 68 58  1  0
 70 72  2  0
 71 70  1  0
 73 71  1  0
 74 83  2  0
 74 79  1  0
 75 71  1  0
 75 79  1  0
 76 75  1  0
 77 78  1  0
 77 76  1  0
 78 74  1  0
 79 80  2  0
 80 81  1  0
 82 81  2  0
 83 82  1  0
 84 58  1  0
 84 85  1  0
 84 94  1  0
 85 88  1  0
 86 90  1  0
 86 85  1  0
 87 86  2  0
 90 89  1  0
 92 90  1  0
 92 93  1  0
 92 91  1  0
 94 97  1  1
 94 95  1  0
 96 94  1  0
M  ISO  4   3 100  17 100  56 101  57 101
M  END
>  <TORSDO>  (73) 
F 21

>  <SCORE>  (73) 
-11.930

>  <name>  (73) 
72

>  <ligand_id>  (73) 
72

>  <original_smiles>  (73) 
[H]c1c(N([H])C(=O)N2C([H])([H])C([H])([H])C([H])([H])C([H])(n3nc(-c4c([H])c([H])c(Oc5c([H])c([H])c(F)c([H])c5F)c([H])c4[H])c(C(=O)N([H])[H])c3N([H])[H])C2([H])[H])nc(N([H])[H])c(C([H])(C([H])([H])[H])[N+]([H])([H])C([H])([H])C(=O)C([H])([H])Oc2c([H])c([H])c3c(c2[H])C([H])([H])N(C(=O)C([H])(N([H])C(=O)C([H])(N([H])C([H])([H])[H])C([H])([H])[H])C(C([H])([H])[H])(C([H])([H])[H])C([H])([H])[H])C([H])(C(=O)N([H])C2([H])c4c([H])c([H])c([H])c([H])c4C([H])([H])C([H])([H])C2([H])[H])C3([H])[H])c1[H]

>  <smiles>  (73) 
[H]c1c(N([H])C(=O)N2C([H])([H])C([H])([H])C([H])([H])C([H])(n3nc(-c4c([H])c([H])c(Oc5c([H])c([H])c(F)c([H])c5F)c([H])c4[H])c(C(=O)N([H])[H])c3N([H])[H])C2([H])[H])nc(N([H])[H])c(C([H])(C([H])([H])[H])[N+]([H])([H])C([H])([H])C(=O)C([H])([H])Oc2c([H])c([H])c3c(c2[H])C([H])([H])N(C(=O)C([H])(N([H])C(=O)C([H])(N([H])C([H])([H])[H])C([H])([H])[H])C(C([H])([H])[H])(C([H])([H])[H])C([H])([H])[H])C([H])(C(=O)N([H])C2([H])c4c([H])c([H])c([H])c([H])c4C([H])([H])C([H])([H])C2([H])[H])C3([H])[H])c1[H]

$$$$
73:0:0
     RDKit          3D

 93101  0  0  1  0  0  0  0  0999 V2000
  -28.3880  -22.8060   20.8630 C   0  0  0  0  0  0  0  0  0  0  0  0
  -26.1560  -23.2460   21.6810 C   0  0  0  0  0  1  0  0  0  0  0  0
  -27.3160  -22.4070   21.4610 N   0  0  0  0  0  0  0  0  0  0  0  0
  -28.8120  -24.2150   20.3340 C   0  0  0  0  0  0  0  0  0  0  0  0
  -29.6580  -24.3370   19.4390 O   0  0  0  0  0  0  0  0  0  0  0  0
  -28.2280  -25.5030   20.9780 C   0  0  0  0  0  2  0  0  0  0  0  0
  -28.4100  -26.7030   20.1850 O   0  0  0  0  0  0  0  0  0  0  0  0
  -24.6110  -31.9050   23.2440 C   0  0  0  0  0  0  0  0  0  0  0  0
  -27.2750  -27.4870   20.1460 C   0  0  0  0  0  0  0  0  0  0  0  0
  -23.4130  -30.5050   21.5940 C   0  0  0  0  0  3  0  0  0  0  0  0
  -24.8770  -28.9900   20.1540 C   0  0  0  0  0  0  0  0  0  0  0  0
  -25.9350  -30.8830   21.3930 C   0  0  0  0  0  2  0  0  0  0  0  0
  -26.0330  -29.5160   20.7460 C   0  0  0  0  0  0  0  0  0  0  0  0
  -27.2390  -28.7730   20.7370 C   0  0  0  0  0  3  0  0  0  0  0  0
  -26.1050  -26.9840   19.5390 C   0  0  0  0  0  3  0  0  0  0  0  0
  -24.9080  -27.7230   19.5440 C   0  0  0  0  0  3  0  0  0  0  0  0
  -23.6260  -29.8400   20.2070 C   0  0  0  0  0  2  0  0  0  0  0  0
  -24.6700  -31.1110   22.1360 N   0  0  0  0  0  0  0  0  0  0  0  0
  -23.5290  -32.1670   23.7860 O   0  0  0  0  0  0  0  0  0  0  0  0
  -22.7680  -29.4730   22.5480 C   0  0  0  0  0  0  0  0  0  0  0  0
  -21.4430  -29.2890   22.4270 N   0  0  0  0  0  0  0  0  0  0  0  0
  -23.4560  -28.8430   23.3560 O   0  0  0  0  0  0  0  0  0  0  0  0
  -20.9470  -29.8560   21.7520 H   0  0  0  0  0  0  0  0  0  0  0  0
  -18.0730  -28.0860   22.9310 C   0  0  0  0  0  0  0  0  0  0  0  0
  -20.6310  -28.3430   23.1920 C   0  0  0  0  0  3  0  0  0  0  0  0
  -20.7330  -26.9170   22.6030 C   0  0  0  0  0  2  0  0  0  0  0  0
  -19.6270  -26.6030   21.5910 C   0  0  0  0  0  2  0  0  0  0  0  0
  -18.2480  -26.7400   22.2440 C   0  0  0  0  0  2  0  0  0  0  0  0
  -19.1930  -28.8450   23.3620 C   0  0  0  0  0  0  0  0  0  0  0  0
  -18.9780  -30.1020   23.9650 C   0  0  0  0  0  3  0  0  0  0  0  0
  -17.6750  -30.6020   24.1430 C   0  0  0  0  0  3  0  0  0  0  0  0
  -16.5680  -29.8400   23.7290 C   0  0  0  0  0  3  0  0  0  0  0  0
  -16.7680  -28.5840   23.1280 C   0  0  0  0  0  3  0  0  0  0  0  0
  -25.8960  -32.5410   23.8640 C   0  0  0  0  0  3  0  0  0  0  0  0
  -25.5840  -33.9380   24.1930 N   0  0  0  0  0  0  0  0  0  0  0  0
  -25.9130  -34.9900   23.4320 C   0  0  0  0  0  0  0  0  0  0  0  0
  -26.5830  -34.8880   22.4000 O   0  0  0  0  0  0  0  0  0  0  0  0
  -24.9930  -34.0910   24.9960 H   0  0  0  0  0  0  0  0  0  0  0  0
  -24.1810  -36.7780   23.0710 C   0  0  0  0  0  1  0  0  0  0  0  0
  -25.4200  -36.3780   23.8870 C   0  0  0  0  0  3  0  0  0  0  0  0
  -27.5510  -37.2670   24.7240 C   0  0  0  0  0  1  0  0  0  0  0  0
  -26.4510  -37.4340   23.7780 N   0  0  0  0  0  0  0  0  0  0  0  0
  -26.0410  -38.3510   23.9300 H   0  0  0  0  0  0  0  0  0  0  0  0
  -26.4180  -31.7700   25.1370 C   0  0  1  0  0  0  0  0  0  0  0  0
  -25.3270  -31.5290   26.2060 C   0  0  0  0  0  1  0  0  0  0  0  0
  -27.0050  -30.3950   24.7390 C   0  0  0  0  0  1  0  0  0  0  0  0
  -27.5660  -32.5680   25.7990 C   0  0  0  0  0  1  0  0  0  0  0  0
  -29.4380  -21.6790   20.6340 C   0  0  0  0  0  2  0  0  0  0  0  0
  -28.9470  -20.3170   20.9560 N   0  0  0  0  0  0  0  0  0  0  0  0
  -27.9930  -20.3320   21.3160 H   0  0  0  0  0  0  0  0  0  0  0  0
  -31.2640  -17.6350   20.2900 C   0  0  0  0  0  3  0  0  0  0  0  0
  -30.9800  -19.0360   20.3170 C   0  0  0  0  0  3  0  0  0  0  0  0
  -30.1320  -16.9950   20.7400 C   0  0  0  0  0  0  0  0  0  0  0  0
  -29.6960  -19.1450   20.7690 C   0  0  0  0  0  0  0  0  0  0  0  0
  -29.1560  -17.9140   21.0470 O   0  0  0  0  0  0  0  0  0  0  0  0
  -30.6640  -14.5890   20.4670 C   0  0  0  0  0  0  0  0  0  0  0  0
  -30.4040  -12.3960   19.3640 C   0  0  0  0  0  2  0  0  0  0  0  0
  -29.4850  -12.5790   18.1380 C   0  0  0  0  0  2  0  0  0  0  0  0
  -28.0040  -12.4380   18.5430 C   0  0  0  0  0  2  0  0  0  0  0  0
  -27.6390  -13.2930   19.7860 C   0  0  0  0  0  3  0  0  0  0  0  0
  -28.6760  -13.1000   20.9160 C   0  0  0  0  0  2  0  0  0  0  0  0
  -30.0060  -13.4000   20.3670 N   0  0  0  0  0  0  0  0  0  0  0  0
  -31.8240  -14.7220   20.0680 O   0  0  0  0  0  0  0  0  0  0  0  0
  -29.9120  -15.6440   20.8770 N   0  0  0  0  0  0  0  0  0  0  0  0
  -28.9890  -15.3920   21.1980 H   0  0  0  0  0  0  0  0  0  0  0  0
  -25.2260  -13.9060   20.4380 C   0  0  0  0  0  0  0  0  0  0  0  0
  -24.1520  -13.1370   20.7980 C   0  0  0  0  0  0  0  0  0  0  0  0
  -24.6170  -11.7860   20.7980 C   0  0  0  0  0  0  0  0  0  0  0  0
  -26.2770  -13.0240   20.2430 N   0  0  0  0  0  0  0  0  0  0  0  0
  -25.9140  -11.7460   20.5190 N   0  0  0  0  0  0  0  0  0  0  0  0
  -23.8900  -10.5250   20.9930 C   0  0  0  0  0  0  0  0  0  0  0  0
  -24.3060   -9.5720   21.9470 C   0  0  0  0  0  3  0  0  0  0  0  0
  -23.5800   -8.3750   22.1290 C   0  0  0  0  0  3  0  0  0  0  0  0
  -22.4230   -8.1220   21.3540 C   0  0  0  0  0  0  0  0  0  0  0  0
  -22.0250   -9.0650   20.3900 C   0  0  0  0  0  3  0  0  0  0  0  0
  -22.7520  -10.2530   20.2060 C   0  0  0  0  0  3  0  0  0  0  0  0
  -21.6700   -6.9760   21.4430 O   0  0  0  0  0  0  0  0  0  0  0  0
  -21.6060   -6.2460   22.6030 C   0  0  0  0  0  0  0  0  0  0  0  0
  -21.1570   -6.8110   23.8160 C   0  0  0  0  0  3  0  0  0  0  0  0
  -21.0400   -6.0070   24.9660 C   0  0  0  0  0  3  0  0  0  0  0  0
  -21.3630   -4.6390   24.9060 C   0  0  0  0  0  0  0  0  0  0  0  0
  -21.8050   -4.0720   23.6990 C   0  0  0  0  0  3  0  0  0  0  0  0
  -21.9230   -4.8740   22.5490 C   0  0  0  0  0  0  0  0  0  0  0  0
  -22.3300   -4.3180   21.3820 F   0  0  0  0  0  0  0  0  0  0  0  0
  -21.2440   -3.8650   26.0100 F   0  0  0  0  0  0  0  0  0  0  0  0
  -22.7480  -13.6140   21.0330 C   0  0  0  0  0  0  0  0  0  0  0  0
  -22.0050  -12.9290   21.8950 N   0  0  0  0  0  0  0  0  0  0  0  0
  -22.3180  -14.6290   20.4870 O   0  0  0  0  0  0  0  0  0  0  0  0
  -22.3630  -12.1060   22.3570 H   0  0  0  0  0  0  0  0  0  0  0  0
  -21.0630  -13.2310   22.0980 H   0  0  0  0  0  0  0  0  0  0  0  0
  -25.3910  -15.2740   20.2370 N   0  0  0  0  0  0  0  0  0  0  0  0
  -24.6190  -15.9270   20.3100 H   0  0  0  0  0  0  0  0  0  0  0  0
  -26.2430  -15.7070   19.9030 H   0  0  0  0  0  0  0  0  0  0  0  0
  1  3  2  0
  3  2  1  0
  4  1  1  0
  4  6  1  0
  5  4  2  0
  7  6  1  0
  8 19  2  0
  9  7  1  0
  9 14  1  0
 10 18  1  0
 10 20  1  0
 11 17  1  0
 11 13  1  0
 12 18  1  0
 13 12  1  0
 14 13  2  0
 15 16  1  0
 15  9  2  0
 16 11  2  0
 17 10  1  0
 18  8  1  0
 20 22  2  0
 21 20  1  0
 23 21  1  0
 24 33  2  0
 24 29  1  0
 25 21  1  0
 25 29  1  0
 26 25  1  0
 27 28  1  0
 27 26  1  0
 28 24  1  0
 29 30  2  0
 30 31  1  0
 32 31  2  0
 33 32  1  0
 34  8  1  0
 34 35  1  0
 34 44  1  0
 35 38  1  0
 36 40  1  0
 36 35  1  0
 37 36  2  0
 40 39  1  0
 42 40  1  0
 42 43  1  0
 42 41  1  0
 44 47  1  1
 44 45  1  0
 46 44  1  0
 48  1  1  0
 48 49  1  0
 49 50  1  0
 51 52  1  0
 51 53  2  0
 52 54  2  0
 53 64  1  0
 53 55  1  0
 54 49  1  0
 54 55  1  0
 56 64  1  0
 57 62  1  0
 58 59  1  0
 58 57  1  0
 60 59  1  0
 60 69  1  0
 60 61  1  0
 62 56  1  0
 62 61  1  0
 63 56  2  0
 64 65  1  0
 66 67  2  0
 67 86  1  0
 68 67  1  0
 68 71  1  0
 69 66  1  0
 69 70  1  0
 70 68  2  0
 71 72  1  0
 72 73  2  0
 74 77  1  0
 74 73  1  0
 75 74  2  0
 76 75  1  0
 76 71  2  0
 77 78  1  0
 78 79  1  0
 79 80  2  0
 81 80  1  0
 81 85  1  0
 82 81  2  0
 83 78  2  0
 83 82  1  0
 84 83  1  0
 86 87  1  0
 87 90  1  0
 87 89  1  0
 88 86  2  0
 91 92  1  0
 91 66  1  0
 93 91  1  0
M  ISO  4   6 101   7 101  56 100  64 100
M  END
>  <TORSDO>  (74) 
F 21

>  <SCORE>  (74) 
-13.661

>  <name>  (74) 
73

>  <ligand_id>  (74) 
73

>  <original_smiles>  (74) 
[H]c1c(N([H])C(=O)N2C([H])([H])C([H])([H])C([H])([H])C([H])(n3nc(-c4c([H])c([H])c(Oc5c([H])c([H])c(F)c([H])c5F)c([H])c4[H])c(C(=O)N([H])[H])c3N([H])[H])C2([H])[H])oc(N([H])C([H])([H])C(=NC([H])([H])[H])C(=O)C([H])([H])Oc2c([H])c([H])c3c(c2[H])C([H])([H])N(C(=O)C([H])(N([H])C(=O)C([H])(N([H])C([H])([H])[H])C([H])([H])[H])C(C([H])([H])[H])(C([H])([H])[H])C([H])([H])[H])C([H])(C(=O)N([H])C2([H])c4c([H])c([H])c([H])c([H])c4C([H])([H])C([H])([H])C2([H])[H])C3([H])[H])c1[H]

>  <smiles>  (74) 
[H]c1c(N([H])C(=O)N2C([H])([H])C([H])([H])C([H])([H])C([H])(n3nc(-c4c([H])c([H])c(Oc5c([H])c([H])c(F)c([H])c5F)c([H])c4[H])c(C(=O)N([H])[H])c3N([H])[H])C2([H])[H])oc(N([H])C([H])([H])C(=NC([H])([H])[H])C(=O)C([H])([H])Oc2c([H])c([H])c3c(c2[H])C([H])([H])N(C(=O)C([H])(N([H])C(=O)C([H])(N([H])C([H])([H])[H])C([H])([H])[H])C(C([H])([H])[H])(C([H])([H])[H])C([H])([H])[H])C([H])(C(=O)N([H])C2([H])c4c([H])c([H])c([H])c([H])c4C([H])([H])C([H])([H])C2([H])[H])C3([H])[H])c1[H]

$$$$
74:0:0
     RDKit          3D

 92100  0  0  1  0  0  0  0  0999 V2000
  -30.3720  -18.9230   22.3440 C   0  0  0  0  0  0  0  0  0  0  0  0
  -30.5040  -18.4040   21.0630 C   0  0  0  0  0  0  0  0  0  0  0  0
  -30.0400  -20.5340   20.9320 C   0  0  0  0  0  0  0  0  0  0  0  0
  -30.0260  -20.2800   22.2340 N   0  0  0  0  0  0  0  0  0  0  0  0
  -29.7980  -21.7340   20.2570 N   0  0  0  0  0  0  0  0  0  0  0  0
  -30.2990  -19.4400   20.1630 O   0  0  0  0  0  0  0  0  0  0  0  0
  -30.0160  -21.6410   19.2710 H   0  0  0  0  0  0  0  0  0  0  0  0
  -30.6430  -18.2370   23.6150 C   0  0  0  0  0  0  0  0  0  0  0  0
  -30.5790  -19.0930   24.8750 C   0  0  0  0  0  1  0  0  0  0  0  0
  -30.9620  -17.0530   23.7510 O   0  0  0  0  0  0  0  0  0  0  0  0
  -30.8230  -17.0970   20.5150 C   0  0  0  0  0  3  0  0  0  0  0  0
  -30.5610  -15.8230   20.9180 C   0  0  0  0  0  3  0  0  0  0  0  0
  -31.1530  -14.6770   20.2050 C   0  0  0  0  0  0  0  0  0  0  0  0
  -30.7490  -12.5120   19.0800 C   0  0  0  0  0  2  0  0  0  0  0  0
  -29.8180  -12.7520   17.8740 C   0  0  0  0  0  2  0  0  0  0  0  0
  -28.3380  -12.6760   18.3020 C   0  0  0  0  0  2  0  0  0  0  0  0
  -28.0410  -13.5080   19.5810 C   0  0  0  0  0  3  0  0  0  0  0  0
  -29.0950  -13.2530   20.6800 C   0  0  0  0  0  2  0  0  0  0  0  0
  -30.4250  -13.5220   20.1060 N   0  0  0  0  0  0  0  0  0  0  0  0
  -32.2540  -14.7770   19.6550 O   0  0  0  0  0  0  0  0  0  0  0  0
  -25.6720  -14.1880   20.3120 C   0  0  0  0  0  0  0  0  0  0  0  0
  -24.5830  -13.4520   20.6950 C   0  0  0  0  0  0  0  0  0  0  0  0
  -24.9980  -12.0850   20.6630 C   0  0  0  0  0  0  0  0  0  0  0  0
  -26.6850  -13.2730   20.0720 N   0  0  0  0  0  0  0  0  0  0  0  0
  -26.2830  -12.0020   20.3390 N   0  0  0  0  0  0  0  0  0  0  0  0
  -24.2340  -10.8490   20.8680 C   0  0  0  0  0  0  0  0  0  0  0  0
  -24.6490   -9.8700   21.7960 C   0  0  0  0  0  3  0  0  0  0  0  0
  -23.8860   -8.6970   21.9910 C   0  0  0  0  0  3  0  0  0  0  0  0
  -22.6920   -8.4970   21.2560 C   0  0  0  0  0  0  0  0  0  0  0  0
  -22.2960   -9.4680   20.3180 C   0  0  0  0  0  3  0  0  0  0  0  0
  -23.0580  -10.6320   20.1220 C   0  0  0  0  0  3  0  0  0  0  0  0
  -21.9000   -7.3810   21.3570 O   0  0  0  0  0  0  0  0  0  0  0  0
  -21.8440   -6.6400   22.5110 C   0  0  0  0  0  0  0  0  0  0  0  0
  -21.4580   -7.2060   23.7460 C   0  0  0  0  0  3  0  0  0  0  0  0
  -21.3510   -6.3910   24.8910 C   0  0  0  0  0  3  0  0  0  0  0  0
  -21.6200   -5.0120   24.8010 C   0  0  0  0  0  0  0  0  0  0  0  0
  -21.9970   -4.4450   23.5710 C   0  0  0  0  0  3  0  0  0  0  0  0
  -22.1080   -5.2570   22.4290 C   0  0  0  0  0  0  0  0  0  0  0  0
  -22.4520   -4.7020   21.2420 F   0  0  0  0  0  0  0  0  0  0  0  0
  -21.5090   -4.2290   25.8980 F   0  0  0  0  0  0  0  0  0  0  0  0
  -23.2070  -13.9780   20.9800 C   0  0  0  0  0  0  0  0  0  0  0  0
  -22.4670  -13.3210   21.8650 N   0  0  0  0  0  0  0  0  0  0  0  0
  -22.7970  -15.0110   20.4520 O   0  0  0  0  0  0  0  0  0  0  0  0
  -22.8130  -12.4880   22.3190 H   0  0  0  0  0  0  0  0  0  0  0  0
  -21.5420  -13.6560   22.0920 H   0  0  0  0  0  0  0  0  0  0  0  0
  -25.8820  -15.5540   20.1360 N   0  0  0  0  0  0  0  0  0  0  0  0
  -25.1420  -16.2340   20.2830 H   0  0  0  0  0  0  0  0  0  0  0  0
  -26.7590  -15.9740   19.8520 H   0  0  0  0  0  0  0  0  0  0  0  0
  -28.8950  -22.8620   20.5380 C   0  0  0  0  0  2  0  0  0  0  0  0
  -29.3920  -24.2980   20.1550 C   0  0  0  0  0  2  0  0  0  0  0  0
  -28.2030  -25.3030   20.1520 C   0  0  0  0  0  2  0  0  0  0  0  0
  -28.4490  -26.7020   19.8450 O   0  0  0  0  0  0  0  0  0  0  0  0
  -24.6480  -31.7350   23.2160 C   0  0  0  0  0  0  0  0  0  0  0  0
  -27.2990  -27.4840   19.8540 C   0  0  0  0  0  0  0  0  0  0  0  0
  -23.4350  -30.3980   21.5320 C   0  0  0  0  0  3  0  0  0  0  0  0
  -24.8850  -28.9760   19.9910 C   0  0  0  0  0  0  0  0  0  0  0  0
  -25.9570  -30.8040   21.3080 C   0  0  0  0  0  2  0  0  0  0  0  0
  -26.0510  -29.4750   20.5850 C   0  0  0  0  0  0  0  0  0  0  0  0
  -27.2640  -28.7390   20.5100 C   0  0  0  0  0  3  0  0  0  0  0  0
  -26.1140  -27.0290   19.2260 C   0  0  0  0  0  3  0  0  0  0  0  0
  -24.9140  -27.7570   19.3040 C   0  0  0  0  0  3  0  0  0  0  0  0
  -23.6240  -29.8050   20.1150 C   0  0  0  0  0  2  0  0  0  0  0  0
  -24.6990  -30.9920   22.0760 N   0  0  0  0  0  0  0  0  0  0  0  0
  -23.5730  -31.9560   23.7920 O   0  0  0  0  0  0  0  0  0  0  0  0
  -22.8300  -29.3090   22.4490 C   0  0  0  0  0  0  0  0  0  0  0  0
  -21.5200  -29.0530   22.2880 N   0  0  0  0  0  0  0  0  0  0  0  0
  -23.5330  -28.6990   23.2590 O   0  0  0  0  0  0  0  0  0  0  0  0
  -21.0140  -29.5970   21.6060 H   0  0  0  0  0  0  0  0  0  0  0  0
  -18.2260  -27.6080   22.6410 C   0  0  0  0  0  0  0  0  0  0  0  0
  -20.7440  -28.0500   23.0180 C   0  0  0  0  0  3  0  0  0  0  0  0
  -20.9750  -26.6360   22.4390 C   0  0  0  0  0  2  0  0  0  0  0  0
  -19.9430  -26.2430   21.3780 C   0  0  0  0  0  2  0  0  0  0  0  0
  -18.5290  -26.2820   21.9630 C   0  0  0  0  0  2  0  0  0  0  0  0
  -19.2670  -28.4460   23.1210 C   0  0  0  0  0  0  0  0  0  0  0  0
  -18.9320  -29.6840   23.7110 C   0  0  0  0  0  3  0  0  0  0  0  0
  -17.5890  -30.0870   23.8270 C   0  0  0  0  0  3  0  0  0  0  0  0
  -16.5610  -29.2480   23.3630 C   0  0  0  0  0  3  0  0  0  0  0  0
  -16.8810  -28.0100   22.7760 C   0  0  0  0  0  3  0  0  0  0  0  0
  -25.9330  -32.3650   23.8390 C   0  0  0  0  0  3  0  0  0  0  0  0
  -25.6160  -33.7530   24.1930 N   0  0  0  0  0  0  0  0  0  0  0  0
  -25.9580  -34.8230   23.4620 C   0  0  0  0  0  0  0  0  0  0  0  0
  -26.6460  -34.7430   22.4410 O   0  0  0  0  0  0  0  0  0  0  0  0
  -25.0110  -33.8870   24.9910 H   0  0  0  0  0  0  0  0  0  0  0  0
  -24.2330  -36.6210   23.1190 C   0  0  0  0  0  1  0  0  0  0  0  0
  -25.4600  -36.2000   23.9420 C   0  0  0  0  0  3  0  0  0  0  0  0
  -27.5760  -37.0710   24.8340 C   0  0  0  0  0  1  0  0  0  0  0  0
  -26.4910  -37.2570   23.8730 N   0  0  0  0  0  0  0  0  0  0  0  0
  -26.0810  -38.1720   24.0340 H   0  0  0  0  0  0  0  0  0  0  0  0
  -26.4610  -31.5750   25.0990 C   0  0  1  0  0  0  0  0  0  0  0  0
  -25.3760  -31.3130   26.1690 C   0  0  0  0  0  1  0  0  0  0  0  0
  -27.0550  -30.2100   24.6790 C   0  0  0  0  0  1  0  0  0  0  0  0
  -27.6070  -32.3700   25.7690 C   0  0  0  0  0  1  0  0  0  0  0  0
  1  8  1  0
  2  1  2  0
  3  4  2  0
  4  1  1  0
  5 49  1  0
  5  3  1  0
  6  3  1  0
  6  2  1  0
  7  5  1  0
  8 10  2  0
  8  9  1  0
 11 12  2  0
 11  2  1  0
 13 12  1  0
 14 19  1  0
 15 16  1  0
 15 14  1  0
 17 16  1  0
 17 24  1  0
 17 18  1  0
 19 13  1  0
 19 18  1  0
 20 13  2  0
 21 22  2  0
 22 41  1  0
 23 22  1  0
 23 26  1  0
 24 21  1  0
 24 25  1  0
 25 23  2  0
 26 27  1  0
 27 28  2  0
 29 32  1  0
 29 28  1  0
 30 29  2  0
 31 30  1  0
 31 26  2  0
 32 33  1  0
 33 34  1  0
 34 35  2  0
 36 35  1  0
 36 40  1  0
 37 36  2  0
 38 33  2  0
 38 37  1  0
 39 38  1  0
 41 42  1  0
 42 45  1  0
 42 44  1  0
 43 41  2  0
 46 47  1  0
 46 21  1  0
 48 46  1  0
 50 49  1  0
 51 50  1  0
 52 54  1  0
 52 51  1  0
 53 64  2  0
 54 59  1  0
 55 63  1  0
 55 65  1  0
 56 62  1  0
 56 58  1  0
 57 63  1  0
 58 57  1  0
 59 58  2  0
 60 61  1  0
 60 54  2  0
 61 56  2  0
 62 55  1  0
 63 53  1  0
 65 67  2  0
 66 65  1  0
 68 66  1  0
 69 78  2  0
 69 74  1  0
 70 66  1  0
 70 74  1  0
 71 70  1  0
 72 73  1  0
 72 71  1  0
 73 69  1  0
 74 75  2  0
 75 76  1  0
 77 76  2  0
 78 77  1  0
 79 53  1  0
 79 80  1  0
 79 89  1  0
 80 83  1  0
 81 85  1  0
 81 80  1  0
 82 81  2  0
 85 84  1  0
 87 85  1  0
 87 88  1  0
 87 86  1  0
 89 92  1  1
 89 90  1  0
 91 89  1  0
M  ISO  4  12 100  13 100  51 101  52 101
M  END
>  <TORSDO>  (75) 
F 21

>  <SCORE>  (75) 
-10.425

>  <name>  (75) 
74

>  <ligand_id>  (75) 
74

>  <original_smiles>  (75) 
[H]C(C(=O)N1C([H])([H])C([H])([H])C([H])([H])C([H])(n2nc(-c3c([H])c([H])c(Oc4c([H])c([H])c(F)c([H])c4F)c([H])c3[H])c(C(=O)N([H])[H])c2N([H])[H])C1([H])[H])=C([H])c1oc(N([H])C([H])([H])C([H])([H])C([H])([H])Oc2c([H])c([H])c3c(c2[H])C([H])([H])N(C(=O)C([H])(N([H])C(=O)C([H])(N([H])C([H])([H])[H])C([H])([H])[H])C(C([H])([H])[H])(C([H])([H])[H])C([H])([H])[H])C([H])(C(=O)N([H])C2([H])c4c([H])c([H])c([H])c([H])c4C([H])([H])C([H])([H])C2([H])[H])C3([H])[H])nc1C(=O)C([H])([H])[H]

>  <smiles>  (75) 
[H]C(C(=O)N1C([H])([H])C([H])([H])C([H])([H])C([H])(n2nc(-c3c([H])c([H])c(Oc4c([H])c([H])c(F)c([H])c4F)c([H])c3[H])c(C(=O)N([H])[H])c2N([H])[H])C1([H])[H])=C([H])c1oc(N([H])C([H])([H])C([H])([H])C([H])([H])Oc2c([H])c([H])c3c(c2[H])C([H])([H])N(C(=O)C([H])(N([H])C(=O)C([H])(N([H])C([H])([H])[H])C([H])([H])[H])C(C([H])([H])[H])(C([H])([H])[H])C([H])([H])[H])C([H])(C(=O)N([H])C2([H])c4c([H])c([H])c([H])c([H])c4C([H])([H])C([H])([H])C2([H])[H])C3([H])[H])nc1C(=O)C([H])([H])[H]

$$$$
75:0:0
     RDKit          3D

 98108  0  0  1  0  0  0  0  0999 V2000
  -29.8710  -22.0640   20.3520 C   0  0  0  0  0  0  0  0  0  0  0  0
  -30.0700  -20.8120   20.8290 N   0  0  0  0  0  0  0  0  0  0  0  0
  -30.4650  -22.5370   19.3790 O   0  0  0  0  0  0  0  0  0  0  0  0
  -29.7070  -20.6320   21.7580 H   0  0  0  0  0  0  0  0  0  0  0  0
  -30.8800  -19.7780   18.7580 C   0  0  0  0  0  3  0  0  0  0  0  0
  -30.6970  -18.4140   20.7730 C   0  0  0  0  0  3  0  0  0  0  0  0
  -31.2490  -18.6600   18.0170 C   0  0  0  0  0  0  0  0  0  0  0  0
  -31.2210  -17.3770   18.6160 C   0  0  0  0  0  0  0  0  0  0  0  0
  -30.5840  -19.6780   20.1350 C   0  0  0  0  0  0  0  0  0  0  0  0
  -30.9860  -17.2450   20.0220 C   0  0  0  0  0  0  0  0  0  0  0  0
  -31.6360  -18.8870   16.5660 C   0  0  0  0  0  2  0  0  0  0  0  0
  -31.3300  -16.1640   17.7120 C   0  0  0  0  0  2  0  0  0  0  0  0
  -31.3000  -17.6930   15.6860 C   0  0  0  0  0  2  0  0  0  0  0  0
  -31.8830  -16.4170   16.2980 C   0  0  0  0  0  2  0  0  0  0  0  0
  -31.6020  -14.8820   20.6960 C   0  0  0  0  0  0  0  0  0  0  0  0
  -31.3300  -12.6420   19.6950 C   0  0  0  0  0  2  0  0  0  0  0  0
  -30.5150  -12.7840   18.3920 C   0  0  0  0  0  2  0  0  0  0  0  0
  -28.9950  -12.9170   18.6560 C   0  0  0  0  0  2  0  0  0  0  0  0
  -28.5970  -13.7680   19.9000 C   0  0  0  0  0  3  0  0  0  0  0  0
  -29.5440  -13.5070   21.0960 C   0  0  0  0  0  2  0  0  0  0  0  0
  -30.9220  -13.7030   20.6250 N   0  0  0  0  0  0  0  0  0  0  0  0
  -32.8250  -14.9650   20.5730 O   0  0  0  0  0  0  0  0  0  0  0  0
  -30.7830  -15.9600   20.6320 N   0  0  0  0  0  0  0  0  0  0  0  0
  -29.8170  -15.6740   20.6630 H   0  0  0  0  0  0  0  0  0  0  0  0
  -26.1720  -14.5130   20.3760 C   0  0  0  0  0  0  0  0  0  0  0  0
  -25.0380  -13.8020   20.6560 C   0  0  0  0  0  0  0  0  0  0  0  0
  -25.4340  -12.4300   20.6970 C   0  0  0  0  0  0  0  0  0  0  0  0
  -27.1930  -13.5770   20.2630 N   0  0  0  0  0  0  0  0  0  0  0  0
  -26.7440  -12.3240   20.5240 N   0  0  0  0  0  0  0  0  0  0  0  0
  -24.6280  -11.2080   20.8370 C   0  0  0  0  0  0  0  0  0  0  0  0
  -24.9290  -10.2360   21.8180 C   0  0  0  0  0  3  0  0  0  0  0  0
  -24.1340   -9.0780   21.9470 C   0  0  0  0  0  3  0  0  0  0  0  0
  -23.0250   -8.8810   21.0880 C   0  0  0  0  0  0  0  0  0  0  0  0
  -22.7430   -9.8370   20.0960 C   0  0  0  0  0  3  0  0  0  0  0  0
  -23.5400  -10.9880   19.9650 C   0  0  0  0  0  3  0  0  0  0  0  0
  -22.2160   -7.7730   21.1200 O   0  0  0  0  0  0  0  0  0  0  0  0
  -21.9910   -7.0720   22.2780 C   0  0  0  0  0  0  0  0  0  0  0  0
  -21.4760   -7.6980   23.4350 C   0  0  0  0  0  3  0  0  0  0  0  0
  -21.2110   -6.9320   24.5890 C   0  0  0  0  0  3  0  0  0  0  0  0
  -21.4380   -5.5420   24.5780 C   0  0  0  0  0  0  0  0  0  0  0  0
  -21.9330   -4.9160   23.4200 C   0  0  0  0  0  3  0  0  0  0  0  0
  -22.2080   -5.6790   22.2740 C   0  0  0  0  0  0  0  0  0  0  0  0
  -22.6710   -5.0690   21.1540 F   0  0  0  0  0  0  0  0  0  0  0  0
  -21.1710   -4.8010   25.6790 F   0  0  0  0  0  0  0  0  0  0  0  0
  -23.6430  -14.3490   20.7760 C   0  0  0  0  0  0  0  0  0  0  0  0
  -22.8000  -13.7240   21.5970 N   0  0  0  0  0  0  0  0  0  0  0  0
  -23.3080  -15.3660   20.1690 O   0  0  0  0  0  0  0  0  0  0  0  0
  -23.0810  -12.9010   22.1070 H   0  0  0  0  0  0  0  0  0  0  0  0
  -21.8590  -14.0750   21.7220 H   0  0  0  0  0  0  0  0  0  0  0  0
  -26.4160  -15.8680   20.1750 N   0  0  0  0  0  0  0  0  0  0  0  0
  -25.6570  -16.5430   20.1280 H   0  0  0  0  0  0  0  0  0  0  0  0
  -27.2880  -16.2260   19.8100 H   0  0  0  0  0  0  0  0  0  0  0  0
  -29.2510  -23.0400   22.6140 C   0  0  0  0  0  2  0  0  0  0  0  0
  -28.8580  -24.5170   22.5600 C   0  0  0  0  0  2  0  0  0  0  0  0
  -28.8910  -22.9470   21.1330 C   0  0  0  0  0  3  0  0  0  0  0  0
  -29.0560  -24.5010   21.0370 C   0  0  0  0  0  3  0  0  0  0  0  0
  -28.1110  -25.3250   20.1320 C   0  0  0  0  0  2  0  0  0  0  0  0
  -28.3220  -26.7600   20.1380 O   0  0  0  0  0  0  0  0  0  0  0  0
  -24.5610  -31.9590   23.2490 C   0  0  0  0  0  0  0  0  0  0  0  0
  -27.1720  -27.5350   20.0960 C   0  0  0  0  0  0  0  0  0  0  0  0
  -23.3430  -30.5710   21.6110 C   0  0  0  0  0  3  0  0  0  0  0  0
  -24.7810  -29.0650   20.1430 C   0  0  0  0  0  0  0  0  0  0  0  0
  -25.8660  -30.9410   21.3800 C   0  0  0  0  0  2  0  0  0  0  0  0
  -25.9500  -29.5780   20.7150 C   0  0  0  0  0  0  0  0  0  0  0  0
  -27.1490  -28.8270   20.6820 C   0  0  0  0  0  3  0  0  0  0  0  0
  -25.9770  -27.0520   19.5000 C   0  0  0  0  0  3  0  0  0  0  0  0
  -24.7900  -27.8000   19.5290 C   0  0  0  0  0  3  0  0  0  0  0  0
  -23.5410  -29.9230   20.2170 C   0  0  0  0  0  2  0  0  0  0  0  0
  -24.6110  -31.1670   22.1400 N   0  0  0  0  0  0  0  0  0  0  0  0
  -23.4850  -32.2190   23.8070 O   0  0  0  0  0  0  0  0  0  0  0  0
  -22.7090  -29.5320   22.5670 C   0  0  0  0  0  0  0  0  0  0  0  0
  -21.3860  -29.3290   22.4510 N   0  0  0  0  0  0  0  0  0  0  0  0
  -23.4070  -28.9140   23.3750 O   0  0  0  0  0  0  0  0  0  0  0  0
  -20.8780  -29.8770   21.7710 H   0  0  0  0  0  0  0  0  0  0  0  0
  -18.0400  -28.0630   22.9600 C   0  0  0  0  0  0  0  0  0  0  0  0
  -20.5920  -28.3760   23.2280 C   0  0  0  0  0  3  0  0  0  0  0  0
  -20.7280  -26.9470   22.6540 C   0  0  0  0  0  2  0  0  0  0  0  0
  -19.6320  -26.5980   21.6430 C   0  0  0  0  0  2  0  0  0  0  0  0
  -18.2460  -26.7190   22.2830 C   0  0  0  0  0  2  0  0  0  0  0  0
  -19.1430  -28.8480   23.3900 C   0  0  0  0  0  0  0  0  0  0  0  0
  -18.8970  -30.1060   23.9810 C   0  0  0  0  0  3  0  0  0  0  0  0
  -17.5840  -30.5850   24.1410 C   0  0  0  0  0  3  0  0  0  0  0  0
  -16.4930  -29.7990   23.7270 C   0  0  0  0  0  3  0  0  0  0  0  0
  -16.7230  -28.5380   23.1440 C   0  0  0  0  0  3  0  0  0  0  0  0
  -25.8510  -32.5950   23.8530 C   0  0  0  0  0  3  0  0  0  0  0  0
  -26.3820  -31.8300   25.1270 C   0  0  1  0  0  0  0  0  0  0  0  0
  -25.2980  -31.5800   26.1990 C   0  0  0  0  0  1  0  0  0  0  0  0
  -26.9740  -30.4590   24.7280 C   0  0  0  0  0  1  0  0  0  0  0  0
  -27.5220  -32.6350   25.7940 C   0  0  0  0  0  1  0  0  0  0  0  0
  -25.5460  -33.9950   24.1830 N   0  0  0  0  0  0  0  0  0  0  0  0
  -25.8930  -35.0450   23.4290 C   0  0  0  0  0  0  0  0  0  0  0  0
  -26.5750  -34.9400   22.4060 O   0  0  0  0  0  0  0  0  0  0  0  0
  -24.9470  -34.1510   24.9810 H   0  0  0  0  0  0  0  0  0  0  0  0
  -24.1790  -36.8460   23.0430 C   0  0  0  0  0  1  0  0  0  0  0  0
  -25.4030  -36.4380   23.8790 C   0  0  0  0  0  3  0  0  0  0  0  0
  -27.5320  -37.3070   24.7420 C   0  0  0  0  0  1  0  0  0  0  0  0
  -26.4430  -37.4870   23.7850 N   0  0  0  0  0  0  0  0  0  0  0  0
  -26.0390  -38.4080   23.9370 H   0  0  0  0  0  0  0  0  0  0  0  0
  1  2  1  0
  2  4  1  0
  3  1  2  0
  5  9  1  0
  7  8  1  0
  7  5  2  0
  8 10  2  0
  9  6  2  0
  9  2  1  0
 10 23  1  0
 10  6  1  0
 11  7  1  0
 12  8  1  0
 13 14  1  0
 13 11  1  0
 14 12  1  0
 16 21  1  0
 17 18  1  0
 17 16  1  0
 19 18  1  0
 19 28  1  0
 19 20  1  0
 21 15  1  0
 21 20  1  0
 22 15  2  0
 23 24  1  0
 23 15  1  0
 25 26  2  0
 26 27  1  0
 26 45  1  0
 27 30  1  0
 28 25  1  0
 28 29  1  0
 29 27  2  0
 30 31  1  0
 31 32  2  0
 33 36  1  0
 33 32  1  0
 34 33  2  0
 35 34  1  0
 35 30  2  0
 36 37  1  0
 37 38  1  0
 38 39  2  0
 40 39  1  0
 40 44  1  0
 41 40  2  0
 42 37  2  0
 42 41  1  0
 43 42  1  0
 45 46  1  0
 46 49  1  0
 46 48  1  0
 47 45  2  0
 50 25  1  0
 51 50  1  0
 52 50  1  0
 54 53  1  0
 55  1  1  0
 55 53  1  0
 56 57  1  0
 56 55  1  0
 56 54  1  0
 57 58  1  0
 59 70  2  0
 60 58  1  0
 60 65  1  0
 61 69  1  0
 61 71  1  0
 62 68  1  0
 62 64  1  0
 63 69  1  0
 64 63  1  0
 65 64  2  0
 66 67  1  0
 66 60  2  0
 67 62  2  0
 68 61  1  0
 69 59  1  0
 71 73  2  0
 72 71  1  0
 74 72  1  0
 75 84  2  0
 75 80  1  0
 76 72  1  0
 76 80  1  0
 77 76  1  0
 78 79  1  0
 78 77  1  0
 79 75  1  0
 80 81  2  0
 81 82  1  0
 83 82  2  0
 84 83  1  0
 85 59  1  0
 85 90  1  0
 85 86  1  0
 86 89  1  1
 86 87  1  0
 88 86  1  0
 90 93  1  0
 91 95  1  0
 91 90  1  0
 92 91  2  0
 95 94  1  0
 97 95  1  0
 97 98  1  0
 97 96  1  0
M  ISO  4  15 100  23 100  57 101  58 101
M  END
>  <TORSDO>  (76) 
F 19

>  <SCORE>  (76) 
-12.693

>  <name>  (76) 
75

>  <ligand_id>  (76) 
75

>  <original_smiles>  (76) 
[H]c1c([H])c([H])c2c(c1[H])C([H])([H])C([H])([H])C([H])([H])C2([H])N([H])C(=O)C1([H])N(C(=O)C([H])(N([H])C(=O)C([H])(N([H])C([H])([H])[H])C([H])([H])[H])C(C([H])([H])[H])(C([H])([H])[H])C([H])([H])[H])C([H])([H])c2c([H])c(OC([H])([H])C3([H])C([H])([H])C([H])([H])C3([H])C(=O)N([H])c3c([H])c(N([H])C(=O)N4C([H])([H])C([H])([H])C([H])([H])C([H])(n5nc(-c6c([H])c([H])c(Oc7c([H])c([H])c(F)c([H])c7F)c([H])c6[H])c(C(=O)N([H])[H])c5N([H])[H])C4([H])[H])c4c(c3[H])C([H])([H])C([H])([H])C([H])([H])C4([H])[H])c([H])c([H])c2C1([H])[H]

>  <smiles>  (76) 
[H]c1c([H])c([H])c2c(c1[H])C([H])([H])C([H])([H])C([H])([H])C2([H])N([H])C(=O)C1([H])N(C(=O)C([H])(N([H])C(=O)C([H])(N([H])C([H])([H])[H])C([H])([H])[H])C(C([H])([H])[H])(C([H])([H])[H])C([H])([H])[H])C([H])([H])c2c([H])c(OC([H])([H])C3([H])C([H])([H])C([H])([H])C3([H])C(=O)N([H])c3c([H])c(N([H])C(=O)N4C([H])([H])C([H])([H])C([H])([H])C([H])(n5nc(-c6c([H])c([H])c(Oc7c([H])c([H])c(F)c([H])c7F)c([H])c6[H])c(C(=O)N([H])[H])c5N([H])[H])C4([H])[H])c4c(c3[H])C([H])([H])C([H])([H])C([H])([H])C4([H])[H])c([H])c([H])c2C1([H])[H]

$$$$
76:0:0
     RDKit          3D

 94102  0  0  1  0  0  0  0  0999 V2000
  -30.7850  -18.7630   19.3800 C   0  0  0  0  0  3  0  0  0  0  0  0
  -29.1730  -19.9260   20.7730 C   0  0  0  0  0  3  0  0  0  0  0  0
  -30.4960  -21.2040   19.1980 C   0  0  0  0  0  3  0  0  0  0  0  0
  -29.7970  -18.6650   20.3850 C   0  0  0  0  0  0  0  0  0  0  0  0
  -31.1290  -20.0040   18.8010 C   0  0  0  0  0  0  0  0  0  0  0  0
  -29.4910  -21.2240   20.1950 C   0  0  0  0  0  0  0  0  0  0  0  0
  -28.8580  -23.7920   20.0770 C   0  0  0  0  0  0  0  0  0  0  0  0
  -28.8820  -22.5140   20.6370 N   0  0  0  0  0  0  0  0  0  0  0  0
  -29.2710  -24.0010   18.9340 O   0  0  0  0  0  0  0  0  0  0  0  0
  -28.4150  -22.4680   21.5330 H   0  0  0  0  0  0  0  0  0  0  0  0
  -26.9210  -24.7060   21.5430 C   0  0  0  0  0  1  0  0  0  0  0  0
  -28.2780  -25.0520   20.8900 C   0  0  0  0  0  3  0  0  0  0  0  0
  -28.3620  -26.4160   20.2320 O   0  0  0  0  0  0  0  0  0  0  0  0
  -24.6140  -31.8790   23.2270 C   0  0  0  0  0  0  0  0  0  0  0  0
  -27.2600  -27.2980   20.2070 C   0  0  0  0  0  0  0  0  0  0  0  0
  -23.4290  -30.4760   21.5780 C   0  0  0  0  0  3  0  0  0  0  0  0
  -24.8990  -28.9280   20.1620 C   0  0  0  0  0  0  0  0  0  0  0  0
  -25.9710  -30.7950   21.4180 C   0  0  0  0  0  2  0  0  0  0  0  0
  -26.0620  -29.4130   20.7740 C   0  0  0  0  0  0  0  0  0  0  0  0
  -27.2460  -28.6110   20.7870 C   0  0  0  0  0  3  0  0  0  0  0  0
  -26.0860  -26.8880   19.5420 C   0  0  0  0  0  3  0  0  0  0  0  0
  -24.9150  -27.6720   19.5340 C   0  0  0  0  0  3  0  0  0  0  0  0
  -23.6580  -29.8000   20.2000 C   0  0  0  0  0  2  0  0  0  0  0  0
  -24.6900  -31.0690   22.1310 N   0  0  0  0  0  0  0  0  0  0  0  0
  -23.5250  -32.1540   23.7530 O   0  0  0  0  0  0  0  0  0  0  0  0
  -22.7620  -29.4590   22.5340 C   0  0  0  0  0  0  0  0  0  0  0  0
  -21.4340  -29.2920   22.4110 N   0  0  0  0  0  0  0  0  0  0  0  0
  -23.4380  -28.8220   23.3460 O   0  0  0  0  0  0  0  0  0  0  0  0
  -20.9460  -29.8570   21.7290 H   0  0  0  0  0  0  0  0  0  0  0  0
  -18.0470  -28.1260   22.9270 C   0  0  0  0  0  0  0  0  0  0  0  0
  -20.6110  -28.3540   23.1780 C   0  0  0  0  0  3  0  0  0  0  0  0
  -20.6920  -26.9290   22.5850 C   0  0  0  0  0  2  0  0  0  0  0  0
  -19.5780  -26.6300   21.5760 C   0  0  0  0  0  2  0  0  0  0  0  0
  -18.2030  -26.7830   22.2330 C   0  0  0  0  0  2  0  0  0  0  0  0
  -19.1770  -28.8710   23.3560 C   0  0  0  0  0  0  0  0  0  0  0  0
  -18.9760  -30.1290   23.9650 C   0  0  0  0  0  3  0  0  0  0  0  0
  -17.6780  -30.6410   24.1490 C   0  0  0  0  0  3  0  0  0  0  0  0
  -16.5630  -29.8930   23.7350 C   0  0  0  0  0  3  0  0  0  0  0  0
  -16.7490  -28.6360   23.1300 C   0  0  0  0  0  3  0  0  0  0  0  0
  -25.8890  -32.5180   23.8600 C   0  0  0  0  0  3  0  0  0  0  0  0
  -26.3940  -31.7520   25.1460 C   0  0  1  0  0  0  0  0  0  0  0  0
  -25.2910  -31.5180   26.2030 C   0  0  0  0  0  1  0  0  0  0  0  0
  -26.9830  -30.3740   24.7660 C   0  0  0  0  0  1  0  0  0  0  0  0
  -27.5370  -32.5510   25.8150 C   0  0  0  0  0  1  0  0  0  0  0  0
  -25.5720  -33.9170   24.1840 N   0  0  0  0  0  0  0  0  0  0  0  0
  -25.9080  -34.9700   23.4270 C   0  0  0  0  0  0  0  0  0  0  0  0
  -26.5870  -34.8670   22.4020 O   0  0  0  0  0  0  0  0  0  0  0  0
  -24.9700  -34.0710   24.9790 H   0  0  0  0  0  0  0  0  0  0  0  0
  -24.1810  -36.7610   23.0570 C   0  0  0  0  0  1  0  0  0  0  0  0
  -25.4160  -36.3580   23.8800 C   0  0  0  0  0  3  0  0  0  0  0  0
  -27.5410  -37.2470   24.7290 C   0  0  0  0  0  1  0  0  0  0  0  0
  -26.4490  -37.4130   23.7750 N   0  0  0  0  0  0  0  0  0  0  0  0
  -26.0390  -38.3330   23.9170 H   0  0  0  0  0  0  0  0  0  0  0  0
  -32.1240  -20.0450   17.8230 N   0  0  0  0  0  0  0  0  0  0  0  0
  -32.7570  -19.2560   17.7340 H   0  0  0  0  0  0  0  0  0  0  0  0
  -32.5680  -20.9330   17.6100 H   0  0  0  0  0  0  0  0  0  0  0  0
  -29.4280  -17.2940   21.0140 C   0  0  0  0  0  3  0  0  0  0  0  0
  -29.7500  -15.9350   20.9100 C   0  0  0  0  0  3  0  0  0  0  0  0
  -30.5830  -14.7660   20.4170 C   0  0  0  0  0  0  0  0  0  0  0  0
  -30.3860  -12.4970   19.3750 C   0  0  0  0  0  2  0  0  0  0  0  0
  -29.4600  -12.6040   18.1420 C   0  0  0  0  0  2  0  0  0  0  0  0
  -27.9840  -12.4400   18.5500 C   0  0  0  0  0  2  0  0  0  0  0  0
  -27.6090  -13.3090   19.7800 C   0  0  0  0  0  3  0  0  0  0  0  0
  -28.6530  -13.1820   20.9080 C   0  0  0  0  0  2  0  0  0  0  0  0
  -29.9640  -13.5340   20.3460 N   0  0  0  0  0  0  0  0  0  0  0  0
  -31.7580  -14.8550   20.0330 O   0  0  0  0  0  0  0  0  0  0  0  0
  -25.2110  -13.9120   20.4680 C   0  0  0  0  0  0  0  0  0  0  0  0
  -24.1380  -13.1440   20.8310 C   0  0  0  0  0  0  0  0  0  0  0  0
  -24.6000  -11.7920   20.8200 C   0  0  0  0  0  0  0  0  0  0  0  0
  -26.2560  -13.0280   20.2530 N   0  0  0  0  0  0  0  0  0  0  0  0
  -25.8940  -11.7490   20.5280 N   0  0  0  0  0  0  0  0  0  0  0  0
  -23.8680  -10.5330   21.0140 C   0  0  0  0  0  0  0  0  0  0  0  0
  -24.2890   -9.5720   21.9600 C   0  0  0  0  0  3  0  0  0  0  0  0
  -23.5580   -8.3780   22.1410 C   0  0  0  0  0  3  0  0  0  0  0  0
  -22.3920   -8.1360   21.3760 C   0  0  0  0  0  0  0  0  0  0  0  0
  -21.9900   -9.0860   20.4210 C   0  0  0  0  0  3  0  0  0  0  0  0
  -22.7220  -10.2710   20.2370 C   0  0  0  0  0  3  0  0  0  0  0  0
  -21.6330   -6.9940   21.4670 O   0  0  0  0  0  0  0  0  0  0  0  0
  -21.5740   -6.2590   22.6240 C   0  0  0  0  0  0  0  0  0  0  0  0
  -21.1450   -6.8240   23.8440 C   0  0  0  0  0  3  0  0  0  0  0  0
  -21.0310   -6.0150   24.9920 C   0  0  0  0  0  3  0  0  0  0  0  0
  -21.3370   -4.6430   24.9210 C   0  0  0  0  0  0  0  0  0  0  0  0
  -21.7600   -4.0780   23.7050 C   0  0  0  0  0  3  0  0  0  0  0  0
  -21.8750   -4.8840   22.5590 C   0  0  0  0  0  0  0  0  0  0  0  0
  -22.2620   -4.3290   21.3850 F   0  0  0  0  0  0  0  0  0  0  0  0
  -21.2220   -3.8640   26.0220 F   0  0  0  0  0  0  0  0  0  0  0  0
  -22.7390  -13.6270   21.0790 C   0  0  0  0  0  0  0  0  0  0  0  0
  -21.9970  -12.9400   21.9410 N   0  0  0  0  0  0  0  0  0  0  0  0
  -22.3110  -14.6480   20.5440 O   0  0  0  0  0  0  0  0  0  0  0  0
  -22.3560  -12.1140   22.3970 H   0  0  0  0  0  0  0  0  0  0  0  0
  -21.0580  -13.2460   22.1490 H   0  0  0  0  0  0  0  0  0  0  0  0
  -25.3810  -15.2800   20.2810 N   0  0  0  0  0  0  0  0  0  0  0  0
  -24.6200  -15.9420   20.3870 H   0  0  0  0  0  0  0  0  0  0  0  0
  -26.2490  -15.7170   19.9930 H   0  0  0  0  0  0  0  0  0  0  0  0
  1  4  1  0
  3  6  2  0
  4  2  2  0
  4 57  1  0
  5  3  1  0
  5  1  2  0
  6  8  1  0
  6  2  1  0
  7  8  1  0
  7 12  1  0
  8 10  1  0
  9  7  2  0
 12 11  1  0
 13 12  1  0
 14 25  2  0
 15 13  1  0
 15 20  1  0
 16 24  1  0
 16 26  1  0
 17 23  1  0
 17 19  1  0
 18 24  1  0
 19 20  2  0
 19 18  1  0
 21 15  2  0
 22 21  1  0
 22 17  2  0
 23 16  1  0
 24 14  1  0
 26 28  2  0
 27 26  1  0
 29 27  1  0
 30 39  2  0
 30 35  1  0
 31 27  1  0
 31 35  1  0
 32 31  1  0
 33 34  1  0
 33 32  1  0
 34 30  1  0
 35 36  2  0
 36 37  1  0
 38 37  2  0
 39 38  1  0
 40 14  1  0
 40 45  1  0
 40 41  1  0
 41 44  1  1
 41 42  1  0
 43 41  1  0
 45 48  1  0
 46 50  1  0
 46 45  1  0
 47 46  2  0
 50 49  1  0
 52 50  1  0
 52 53  1  0
 52 51  1  0
 54  5  1  0
 55 54  1  0
 56 54  1  0
 58 57  2  0
 59 58  1  0
 60 65  1  0
 61 62  1  0
 61 60  1  0
 63 62  1  0
 63 70  1  0
 63 64  1  0
 65 59  1  0
 65 64  1  0
 66 59  2  0
 67 68  2  0
 68 87  1  0
 69 68  1  0
 69 72  1  0
 70 67  1  0
 70 71  1  0
 71 69  2  0
 72 73  1  0
 73 74  2  0
 75 78  1  0
 75 74  1  0
 76 75  2  0
 77 76  1  0
 77 72  2  0
 78 79  1  0
 79 80  1  0
 80 81  2  0
 82 81  1  0
 82 86  1  0
 83 82  2  0
 84 79  2  0
 84 83  1  0
 85 84  1  0
 87 88  1  0
 88 91  1  0
 88 90  1  0
 89 87  2  0
 92 93  1  0
 92 67  1  0
 94 92  1  0
M  ISO  4  12 101  13 101  58 100  59 100
M  END
>  <TORSDO>  (77) 
F 20

>  <SCORE>  (77) 
-14.189

>  <name>  (77) 
76

>  <ligand_id>  (77) 
76

>  <original_smiles>  (77) 
[H]C(C(=O)N1C([H])([H])C([H])([H])C([H])([H])C([H])(n2nc(-c3c([H])c([H])c(Oc4c([H])c([H])c(F)c([H])c4F)c([H])c3[H])c(C(=O)N([H])[H])c2N([H])[H])C1([H])[H])=C([H])c1c([H])c(N([H])[H])c([H])c(N([H])C(=O)C([H])(Oc2c([H])c([H])c3c(c2[H])C([H])([H])N(C(=O)C([H])(N([H])C(=O)C([H])(N([H])C([H])([H])[H])C([H])([H])[H])C(C([H])([H])[H])(C([H])([H])[H])C([H])([H])[H])C([H])(C(=O)N([H])C2([H])c4c([H])c([H])c([H])c([H])c4C([H])([H])C([H])([H])C2([H])[H])C3([H])[H])C([H])([H])[H])c1[H]

>  <smiles>  (77) 
[H]C(C(=O)N1C([H])([H])C([H])([H])C([H])([H])C([H])(n2nc(-c3c([H])c([H])c(Oc4c([H])c([H])c(F)c([H])c4F)c([H])c3[H])c(C(=O)N([H])[H])c2N([H])[H])C1([H])[H])=C([H])c1c([H])c(N([H])[H])c([H])c(N([H])C(=O)C([H])(Oc2c([H])c([H])c3c(c2[H])C([H])([H])N(C(=O)C([H])(N([H])C(=O)C([H])(N([H])C([H])([H])[H])C([H])([H])[H])C(C([H])([H])[H])(C([H])([H])[H])C([H])([H])[H])C([H])(C(=O)N([H])C2([H])c4c([H])c([H])c([H])c([H])c4C([H])([H])C([H])([H])C2([H])[H])C3([H])[H])C([H])([H])[H])c1[H]

$$$$
77:0:0
     RDKit          3D

 98107  0  0  1  0  0  0  0  0999 V2000
  -28.7100  -22.9270   20.5400 C   0  0  0  0  0  0  0  0  0  0  0  0
  -27.4870  -22.6670   21.0860 N   0  0  0  0  0  4  0  0  0  0  0  0
  -29.5930  -21.9460   20.2040 N   0  0  0  0  0  0  0  0  0  0  0  0
  -26.8630  -23.4160   21.3510 H   0  0  0  0  0  0  0  0  0  0  0  0
  -27.1840  -21.7140   21.2460 H   0  0  0  0  0  0  0  0  0  0  0  0
  -30.5520  -22.2380   20.0980 H   0  0  0  0  0  0  0  0  0  0  0  0
  -27.6720  -18.9060   19.1810 C   0  0  0  0  0  3  0  0  0  0  0  0
  -28.4480  -17.8620   19.7010 C   0  0  0  0  0  3  0  0  0  0  0  0
  -28.0820  -20.2320   19.3730 C   0  0  0  0  0  3  0  0  0  0  0  0
  -29.6150  -18.1090   20.4670 C   0  0  0  0  0  0  0  0  0  0  0  0
  -29.9650  -19.4700   20.7770 C   0  0  0  0  0  0  0  0  0  0  0  0
  -29.2200  -20.5310   20.1520 C   0  0  0  0  0  0  0  0  0  0  0  0
  -31.7260  -20.2230   23.8050 C   0  0  0  0  0  2  0  0  0  0  0  0
  -31.0710  -21.0390   22.6880 C   0  0  0  0  0  2  0  0  0  0  0  0
  -31.1020  -18.9980   23.1460 C   0  0  0  0  0  2  0  0  0  0  0  0
  -31.0760  -19.7680   21.8030 C   0  0  0  0  0  3  0  0  0  0  0  0
  -30.4470  -16.8990   20.7820 C   0  0  0  0  0  2  0  0  0  0  0  0
  -29.9890  -15.6970   20.8460 N   0  0  0  0  0  2  0  0  0  0  0  0
  -30.8420  -14.6330   20.5310 C   0  0  0  0  0  0  0  0  0  0  0  0
  -30.5780  -12.4700   19.3700 C   0  0  0  0  0  2  0  0  0  0  0  0
  -29.6490  -12.7180   18.1630 C   0  0  0  0  0  2  0  0  0  0  0  0
  -28.1720  -12.5520   18.5700 C   0  0  0  0  0  2  0  0  0  0  0  0
  -27.8220  -13.3560   19.8480 C   0  0  0  0  0  3  0  0  0  0  0  0
  -28.8670  -13.1250   20.9610 C   0  0  0  0  0  2  0  0  0  0  0  0
  -30.2000  -13.4350   20.4180 N   0  0  0  0  0  0  0  0  0  0  0  0
  -32.0160  -14.7580   20.1670 O   0  0  0  0  0  0  0  0  0  0  0  0
  -25.4080  -13.9190   20.5320 C   0  0  0  0  0  0  0  0  0  0  0  0
  -24.3480  -13.1300   20.8840 C   0  0  0  0  0  0  0  0  0  0  0  0
  -24.8300  -11.7850   20.8570 C   0  0  0  0  0  0  0  0  0  0  0  0
  -26.4670  -13.0560   20.3110 N   0  0  0  0  0  0  0  0  0  0  0  0
  -26.1230  -11.7650   20.5640 N   0  0  0  0  0  0  0  0  0  0  0  0
  -24.1210  -10.5090   21.0300 C   0  0  0  0  0  0  0  0  0  0  0  0
  -24.5280   -9.5600   21.9940 C   0  0  0  0  0  3  0  0  0  0  0  0
  -23.8150   -8.3530   22.1540 C   0  0  0  0  0  3  0  0  0  0  0  0
  -22.6840   -8.0830   21.3470 C   0  0  0  0  0  0  0  0  0  0  0  0
  -22.2980   -9.0200   20.3730 C   0  0  0  0  0  3  0  0  0  0  0  0
  -23.0110  -10.2190   20.2110 C   0  0  0  0  0  3  0  0  0  0  0  0
  -21.9450   -6.9270   21.4160 O   0  0  0  0  0  0  0  0  0  0  0  0
  -21.8190   -6.2230   22.5870 C   0  0  0  0  0  0  0  0  0  0  0  0
  -21.2480   -6.7980   23.7440 C   0  0  0  0  0  3  0  0  0  0  0  0
  -21.0700   -6.0180   24.9040 C   0  0  0  0  0  3  0  0  0  0  0  0
  -21.4560   -4.6650   24.9090 C   0  0  0  0  0  0  0  0  0  0  0  0
  -22.0230   -4.0880   23.7590 C   0  0  0  0  0  3  0  0  0  0  0  0
  -22.2000   -4.8660   22.6000 C   0  0  0  0  0  0  0  0  0  0  0  0
  -22.7230   -4.3010   21.4850 F   0  0  0  0  0  0  0  0  0  0  0  0
  -21.2820   -3.9130   26.0230 F   0  0  0  0  0  0  0  0  0  0  0  0
  -22.9400  -13.5830   21.1460 C   0  0  0  0  0  0  0  0  0  0  0  0
  -22.2150  -12.8650   21.9970 N   0  0  0  0  0  0  0  0  0  0  0  0
  -22.4950  -14.6090   20.6340 O   0  0  0  0  0  0  0  0  0  0  0  0
  -22.5880  -12.0310   22.4260 H   0  0  0  0  0  0  0  0  0  0  0  0
  -21.2700  -13.1470   22.2240 H   0  0  0  0  0  0  0  0  0  0  0  0
  -25.5610  -15.2920   20.3710 N   0  0  0  0  0  0  0  0  0  0  0  0
  -24.8020  -15.9510   20.5060 H   0  0  0  0  0  0  0  0  0  0  0  0
  -26.4430  -15.7340   20.1430 H   0  0  0  0  0  0  0  0  0  0  0  0
  -29.1270  -24.4090   20.3020 C   0  0  0  0  0  0  0  0  0  0  0  0
  -30.1820  -24.6460   19.7020 O   0  0  0  0  0  0  0  0  0  0  0  0
  -28.2360  -25.5630   20.8230 C   0  0  0  0  0  2  0  0  0  0  0  0
  -28.3310  -26.7660   20.0300 O   0  0  0  0  0  0  0  0  0  0  0  0
  -24.5830  -31.9180   23.2160 C   0  0  0  0  0  0  0  0  0  0  0  0
  -27.1760  -27.5180   20.0490 C   0  0  0  0  0  0  0  0  0  0  0  0
  -23.3470  -30.5400   21.5760 C   0  0  0  0  0  3  0  0  0  0  0  0
  -24.7780  -29.0190   20.1100 C   0  0  0  0  0  0  0  0  0  0  0  0
  -25.8710  -30.9030   21.3390 C   0  0  0  0  0  2  0  0  0  0  0  0
  -25.9470  -29.5400   20.6830 C   0  0  0  0  0  0  0  0  0  0  0  0
  -27.1490  -28.7970   20.6500 C   0  0  0  0  0  3  0  0  0  0  0  0
  -25.9910  -27.0080   19.4750 C   0  0  0  0  0  3  0  0  0  0  0  0
  -24.7950  -27.7520   19.5050 C   0  0  0  0  0  3  0  0  0  0  0  0
  -23.5320  -29.8730   20.1870 C   0  0  0  0  0  2  0  0  0  0  0  0
  -24.6210  -31.1340   22.1010 N   0  0  0  0  0  0  0  0  0  0  0  0
  -23.5120  -32.1800   23.7810 O   0  0  0  0  0  0  0  0  0  0  0  0
  -22.7100  -29.5100   22.5360 C   0  0  0  0  0  0  0  0  0  0  0  0
  -21.3820  -29.3290   22.4240 N   0  0  0  0  0  0  0  0  0  0  0  0
  -23.4070  -28.8770   23.3340 O   0  0  0  0  0  0  0  0  0  0  0  0
  -20.8770  -29.8890   21.7520 H   0  0  0  0  0  0  0  0  0  0  0  0
  -18.0190  -28.1190   22.9540 C   0  0  0  0  0  0  0  0  0  0  0  0
  -20.5790  -28.3840   23.2000 C   0  0  0  0  0  3  0  0  0  0  0  0
  -20.6820  -26.9580   22.6130 C   0  0  0  0  0  2  0  0  0  0  0  0
  -19.5740  -26.6390   21.6050 C   0  0  0  0  0  2  0  0  0  0  0  0
  -18.1940  -26.7780   22.2590 C   0  0  0  0  0  2  0  0  0  0  0  0
  -19.1400  -28.8790   23.3780 C   0  0  0  0  0  0  0  0  0  0  0  0
  -18.9250  -30.1370   23.9850 C   0  0  0  0  0  3  0  0  0  0  0  0
  -17.6220  -30.6380   24.1640 C   0  0  0  0  0  3  0  0  0  0  0  0
  -16.5150  -29.8730   23.7570 C   0  0  0  0  0  3  0  0  0  0  0  0
  -16.7130  -28.6150   23.1610 C   0  0  0  0  0  3  0  0  0  0  0  0
  -25.8810  -32.5410   23.8230 C   0  0  0  0  0  3  0  0  0  0  0  0
  -25.5860  -33.9420   24.1580 N   0  0  0  0  0  0  0  0  0  0  0  0
  -25.9330  -34.9920   23.4040 C   0  0  0  0  0  0  0  0  0  0  0  0
  -26.5990  -34.8860   22.3710 O   0  0  0  0  0  0  0  0  0  0  0  0
  -25.0010  -34.1010   24.9650 H   0  0  0  0  0  0  0  0  0  0  0  0
  -24.2390  -36.8150   23.0360 C   0  0  0  0  0  1  0  0  0  0  0  0
  -25.4590  -36.3850   23.8660 C   0  0  0  0  0  3  0  0  0  0  0  0
  -27.5900  -37.2250   24.7470 C   0  0  0  0  0  1  0  0  0  0  0  0
  -26.5100  -37.4240   23.7850 N   0  0  0  0  0  0  0  0  0  0  0  0
  -26.1150  -38.3470   23.9390 H   0  0  0  0  0  0  0  0  0  0  0  0
  -26.4160  -31.7620   25.0890 C   0  0  1  0  0  0  0  0  0  0  0  0
  -25.3360  -31.5260   26.1690 C   0  0  0  0  0  1  0  0  0  0  0  0
  -26.9840  -30.3820   24.6850 C   0  0  0  0  0  1  0  0  0  0  0  0
  -27.5830  -32.5470   25.7330 C   0  0  0  0  0  1  0  0  0  0  0  0
  1  2  2  0
  2  5  1  0
  2  4  1  0
  3  1  1  0
  6  3  1  0
  7  9  2  0
  7  8  1  0
  8 10  2  0
  9 12  1  0
 10 11  1  0
 10 17  1  0
 11 16  1  0
 12  3  1  0
 12 11  2  0
 14 13  1  0
 15 13  1  0
 16 14  1  0
 16 15  1  0
 17 18  1  0
 19 18  1  0
 20 25  1  0
 21 22  1  0
 21 20  1  0
 23 22  1  0
 23 30  1  0
 23 24  1  0
 25 19  1  0
 25 24  1  0
 26 19  2  0
 27 28  2  0
 28 47  1  0
 29 28  1  0
 29 32  1  0
 30 27  1  0
 30 31  1  0
 31 29  2  0
 32 33  1  0
 33 34  2  0
 35 38  1  0
 35 34  1  0
 36 35  2  0
 37 36  1  0
 37 32  2  0
 38 39  1  0
 39 44  2  0
 39 40  1  0
 40 41  2  0
 41 42  1  0
 42 46  1  0
 43 42  2  0
 44 43  1  0
 45 44  1  0
 47 48  1  0
 48 51  1  0
 48 50  1  0
 49 47  2  0
 52 53  1  0
 52 27  1  0
 54 52  1  0
 55  1  1  0
 55 57  1  0
 56 55  2  0
 58 60  1  0
 58 57  1  0
 59 70  2  0
 60 65  1  0
 61 69  1  0
 61 71  1  0
 62 68  1  0
 62 64  1  0
 63 69  1  0
 64 63  1  0
 65 64  2  0
 66 67  1  0
 66 60  2  0
 67 62  2  0
 68 61  1  0
 69 59  1  0
 71 73  2  0
 72 71  1  0
 74 72  1  0
 75 84  2  0
 75 80  1  0
 76 72  1  0
 76 80  1  0
 77 76  1  0
 78 79  1  0
 78 77  1  0
 79 75  1  0
 80 81  2  0
 81 82  1  0
 83 82  2  0
 84 83  1  0
 85 59  1  0
 85 86  1  0
 85 95  1  0
 86 89  1  0
 87 91  1  0
 87 86  1  0
 88 87  2  0
 91 90  1  0
 93 91  1  0
 93 94  1  0
 93 92  1  0
 95 98  1  1
 95 96  1  0
 97 95  1  0
M  ISO  4  18 100  19 100  57 101  58 101
M  END
>  <TORSDO>  (78) 
F 21

>  <SCORE>  (78) 
-14.028

>  <name>  (78) 
77

>  <ligand_id>  (78) 
77

>  <original_smiles>  (78) 
[H]C(=NC(=O)N1C([H])([H])C([H])([H])C([H])([H])C([H])(n2nc(-c3c([H])c([H])c(Oc4c([H])c([H])c(F)c([H])c4F)c([H])c3[H])c(C(=O)N([H])[H])c2N([H])[H])C1([H])[H])c1c([H])c([H])c([H])c([N+]([H])=C(C(=O)C([H])([H])Oc2c([H])c([H])c3c(c2[H])C([H])([H])N(C(=O)C([H])(N([H])C(=O)C([H])(N([H])C([H])([H])[H])C([H])([H])[H])C(C([H])([H])[H])(C([H])([H])[H])C([H])([H])[H])C([H])(C(=O)N([H])C2([H])c4c([H])c([H])c([H])c([H])c4C([H])([H])C([H])([H])C2([H])[H])C3([H])[H])N([H])[H])c1C1([H])C([H])([H])C([H])([H])C1([H])[H]

>  <smiles>  (78) 
[H]C(=NC(=O)N1C([H])([H])C([H])([H])C([H])([H])C([H])(n2nc(-c3c([H])c([H])c(Oc4c([H])c([H])c(F)c([H])c4F)c([H])c3[H])c(C(=O)N([H])[H])c2N([H])[H])C1([H])[H])c1c([H])c([H])c([H])c([N+]([H])=C(C(=O)C([H])([H])Oc2c([H])c([H])c3c(c2[H])C([H])([H])N(C(=O)C([H])(N([H])C(=O)C([H])(N([H])C([H])([H])[H])C([H])([H])[H])C(C([H])([H])[H])(C([H])([H])[H])C([H])([H])[H])C([H])(C(=O)N([H])C2([H])c4c([H])c([H])c([H])c([H])c4C([H])([H])C([H])([H])C2([H])[H])C3([H])[H])N([H])[H])c1C1([H])C([H])([H])C([H])([H])C1([H])[H]

$$$$
78:0:0
     RDKit          3D

 96105  0  0  1  0  0  0  0  0999 V2000
  -30.7540  -19.4250   20.9170 C   0  0  0  0  0  3  0  0  0  0  0  0
  -30.0700  -18.1910   21.1970 C   0  0  0  0  0  0  0  0  0  0  0  0
  -28.7320  -18.5430   21.2270 C   0  0  0  0  0  0  0  0  0  0  0  0
  -29.8020  -20.3980   20.8050 C   0  0  0  0  0  0  0  0  0  0  0  0
  -28.5650  -19.8850   20.9650 O   0  0  0  0  0  0  0  0  0  0  0  0
  -27.5290  -17.7630   21.5230 C   0  0  0  0  0  0  0  0  0  0  0  0
  -27.5770  -16.5520   21.7560 O   0  0  0  0  0  0  0  0  0  0  0  0
  -25.2440  -18.2020   22.6500 C   0  0  0  0  0  2  0  0  0  0  0  0
  -25.9260  -19.5420   22.5390 C   0  0  0  0  0  2  0  0  0  0  0  0
  -26.1980  -18.4700   21.5020 C   0  0  0  0  0  3  0  0  0  0  0  0
  -30.0100  -21.7710   20.5920 N   0  0  0  0  0  0  0  0  0  0  0  0
  -30.9330  -22.1930   20.5240 H   0  0  0  0  0  0  0  0  0  0  0  0
  -28.8800  -22.7060   20.4390 C   0  0  0  0  0  2  0  0  0  0  0  0
  -29.2520  -24.2130   20.3500 C   0  0  0  0  0  0  0  0  0  0  0  0
  -30.3950  -24.6080   20.6090 O   0  0  0  0  0  0  0  0  0  0  0  0
  -28.1230  -25.1750   19.9040 C   0  0  0  0  0  2  0  0  0  0  0  0
  -28.3610  -26.5910   20.1360 O   0  0  0  0  0  0  0  0  0  0  0  0
  -24.6190  -31.8660   23.2100 C   0  0  0  0  0  0  0  0  0  0  0  0
  -27.2230  -27.3920   20.0940 C   0  0  0  0  0  0  0  0  0  0  0  0
  -23.4080  -30.4940   21.5520 C   0  0  0  0  0  3  0  0  0  0  0  0
  -24.8510  -28.9640   20.1120 C   0  0  0  0  0  0  0  0  0  0  0  0
  -25.9440  -30.8190   21.3700 C   0  0  0  0  0  2  0  0  0  0  0  0
  -26.0180  -29.4540   20.7120 C   0  0  0  0  0  0  0  0  0  0  0  0
  -27.2070  -28.6780   20.6990 C   0  0  0  0  0  3  0  0  0  0  0  0
  -26.0310  -26.9420   19.4730 C   0  0  0  0  0  3  0  0  0  0  0  0
  -24.8550  -27.7090   19.4880 C   0  0  0  0  0  3  0  0  0  0  0  0
  -23.6170  -29.8350   20.1650 C   0  0  0  0  0  2  0  0  0  0  0  0
  -24.6760  -31.0740   22.1010 N   0  0  0  0  0  0  0  0  0  0  0  0
  -23.5370  -32.1430   23.7470 O   0  0  0  0  0  0  0  0  0  0  0  0
  -22.7440  -29.4660   22.4970 C   0  0  0  0  0  0  0  0  0  0  0  0
  -21.4160  -29.3040   22.3710 N   0  0  0  0  0  0  0  0  0  0  0  0
  -23.4200  -28.8190   23.3010 O   0  0  0  0  0  0  0  0  0  0  0  0
  -20.9320  -29.8780   21.6950 H   0  0  0  0  0  0  0  0  0  0  0  0
  -18.0280  -28.1380   22.8490 C   0  0  0  0  0  0  0  0  0  0  0  0
  -20.5870  -28.3670   23.1310 C   0  0  0  0  0  3  0  0  0  0  0  0
  -20.6770  -26.9400   22.5410 C   0  0  0  0  0  2  0  0  0  0  0  0
  -19.5740  -26.6380   21.5210 C   0  0  0  0  0  2  0  0  0  0  0  0
  -18.1920  -26.7920   22.1630 C   0  0  0  0  0  2  0  0  0  0  0  0
  -19.1530  -28.8840   23.2900 C   0  0  0  0  0  0  0  0  0  0  0  0
  -18.9460  -30.1450   23.8900 C   0  0  0  0  0  3  0  0  0  0  0  0
  -17.6460  -30.6580   24.0570 C   0  0  0  0  0  3  0  0  0  0  0  0
  -16.5350  -29.9090   23.6330 C   0  0  0  0  0  3  0  0  0  0  0  0
  -16.7270  -28.6500   23.0350 C   0  0  0  0  0  3  0  0  0  0  0  0
  -25.9070  -32.4810   23.8390 C   0  0  0  0  0  3  0  0  0  0  0  0
  -25.5920  -33.8610   24.2320 N   0  0  0  0  0  0  0  0  0  0  0  0
  -25.9040  -34.9470   23.5120 C   0  0  0  0  0  0  0  0  0  0  0  0
  -26.5600  -34.8930   22.4680 O   0  0  0  0  0  0  0  0  0  0  0  0
  -25.0100  -33.9770   25.0480 H   0  0  0  0  0  0  0  0  0  0  0  0
  -24.1490  -36.7310   23.2640 C   0  0  0  0  0  1  0  0  0  0  0  0
  -25.4110  -36.3100   24.0340 C   0  0  0  0  0  3  0  0  0  0  0  0
  -27.5580  -37.1810   24.8470 C   0  0  0  0  0  1  0  0  0  0  0  0
  -26.4290  -37.3790   23.9420 N   0  0  0  0  0  0  0  0  0  0  0  0
  -26.0170  -38.2860   24.1420 H   0  0  0  0  0  0  0  0  0  0  0  0
  -26.4480  -31.6600   25.0740 C   0  0  1  0  0  0  0  0  0  0  0  0
  -25.3740  -31.3730   26.1480 C   0  0  0  0  0  1  0  0  0  0  0  0
  -27.0310  -30.3040   24.6140 C   0  0  0  0  0  1  0  0  0  0  0  0
  -27.6050  -32.4340   25.7500 C   0  0  0  0  0  1  0  0  0  0  0  0
  -30.7780  -16.8520   21.4830 C   0  0  0  0  0  2  0  0  0  0  0  0
  -30.7360  -14.5110   20.5640 C   0  0  0  0  0  0  0  0  0  0  0  0
  -30.4130  -12.3350   19.4360 C   0  0  0  0  0  2  0  0  0  0  0  0
  -29.4890  -12.5020   18.2130 C   0  0  0  0  0  2  0  0  0  0  0  0
  -28.0130  -12.3580   18.6320 C   0  0  0  0  0  2  0  0  0  0  0  0
  -27.6540  -13.2210   19.8720 C   0  0  0  0  0  3  0  0  0  0  0  0
  -28.7010  -13.0600   20.9970 C   0  0  0  0  0  2  0  0  0  0  0  0
  -30.0260  -13.3540   20.4280 N   0  0  0  0  0  0  0  0  0  0  0  0
  -31.8720  -14.6330   20.1010 O   0  0  0  0  0  0  0  0  0  0  0  0
  -30.1190  -15.5700   21.1350 N   0  0  0  0  0  0  0  0  0  0  0  0
  -29.1570  -15.4590   21.4320 H   0  0  0  0  0  0  0  0  0  0  0  0
  -25.2470  -13.8120   20.5610 C   0  0  0  0  0  0  0  0  0  0  0  0
  -24.1760  -13.0390   20.9110 C   0  0  0  0  0  0  0  0  0  0  0  0
  -24.6380  -11.6880   20.8730 C   0  0  0  0  0  0  0  0  0  0  0  0
  -26.2990  -12.9380   20.3430 N   0  0  0  0  0  0  0  0  0  0  0  0
  -25.9340  -11.6520   20.5840 N   0  0  0  0  0  0  0  0  0  0  0  0
  -23.9060  -10.4270   21.0400 C   0  0  0  0  0  0  0  0  0  0  0  0
  -24.3610   -9.4190   21.9180 C   0  0  0  0  0  3  0  0  0  0  0  0
  -23.6290   -8.2230   22.0760 C   0  0  0  0  0  3  0  0  0  0  0  0
  -22.4270   -8.0270   21.3540 C   0  0  0  0  0  0  0  0  0  0  0  0
  -21.9900   -9.0240   20.4640 C   0  0  0  0  0  3  0  0  0  0  0  0
  -22.7240  -10.2110   20.3050 C   0  0  0  0  0  3  0  0  0  0  0  0
  -21.6640   -6.8870   21.4240 O   0  0  0  0  0  0  0  0  0  0  0  0
  -21.6850   -6.0730   22.5280 C   0  0  0  0  0  0  0  0  0  0  0  0
  -21.4010   -6.5640   23.8210 C   0  0  0  0  0  3  0  0  0  0  0  0
  -21.3660   -5.6790   24.9180 C   0  0  0  0  0  3  0  0  0  0  0  0
  -21.6040   -4.3050   24.7230 C   0  0  0  0  0  0  0  0  0  0  0  0
  -21.8820   -3.8140   23.4350 C   0  0  0  0  0  3  0  0  0  0  0  0
  -21.9190   -4.6960   22.3400 C   0  0  0  0  0  0  0  0  0  0  0  0
  -22.1660   -4.2140   21.0980 F   0  0  0  0  0  0  0  0  0  0  0  0
  -21.5630   -3.4540   25.7740 F   0  0  0  0  0  0  0  0  0  0  0  0
  -22.7800  -13.5190   21.1810 C   0  0  0  0  0  0  0  0  0  0  0  0
  -22.0470  -12.8180   22.0400 N   0  0  0  0  0  0  0  0  0  0  0  0
  -22.3490  -14.5520   20.6710 O   0  0  0  0  0  0  0  0  0  0  0  0
  -22.4100  -11.9820   22.4740 H   0  0  0  0  0  0  0  0  0  0  0  0
  -21.1100  -13.1220   22.2650 H   0  0  0  0  0  0  0  0  0  0  0  0
  -25.4070  -15.1810   20.3980 N   0  0  0  0  0  0  0  0  0  0  0  0
  -24.6510  -15.8050   20.6530 H   0  0  0  0  0  0  0  0  0  0  0  0
  -26.3230  -15.5940   20.5480 H   0  0  0  0  0  0  0  0  0  0  0  0
  1  2  1  0
  2  3  2  0
  2 58  1  0
  3  6  1  0
  4  1  2  0
  4  5  1  0
  5  3  1  0
  6  7  2  0
  9  8  1  0
 10  6  1  0
 10  9  1  0
 10  8  1  0
 11  4  1  0
 12 11  1  0
 13 11  1  0
 14 13  1  0
 14 15  2  0
 16 17  1  0
 16 14  1  0
 18 29  2  0
 19 17  1  0
 19 24  1  0
 20 28  1  0
 20 30  1  0
 21 27  1  0
 21 23  1  0
 22 28  1  0
 23 22  1  0
 24 23  2  0
 25 26  1  0
 25 19  2  0
 26 21  2  0
 27 20  1  0
 28 18  1  0
 30 32  2  0
 31 30  1  0
 33 31  1  0
 34 43  2  0
 34 39  1  0
 35 31  1  0
 35 39  1  0
 36 35  1  0
 37 38  1  0
 37 36  1  0
 38 34  1  0
 39 40  2  0
 40 41  1  0
 42 41  2  0
 43 42  1  0
 44 18  1  0
 44 45  1  0
 44 54  1  0
 45 48  1  0
 46 50  1  0
 46 45  1  0
 47 46  2  0
 50 49  1  0
 52 50  1  0
 52 53  1  0
 52 51  1  0
 54 57  1  1
 54 55  1  0
 56 54  1  0
 59 67  1  0
 60 65  1  0
 61 62  1  0
 61 60  1  0
 63 62  1  0
 63 72  1  0
 63 64  1  0
 65 59  1  0
 65 64  1  0
 66 59  2  0
 67 68  1  0
 67 58  1  0
 69 70  2  0
 70 89  1  0
 71 70  1  0
 71 74  1  0
 72 69  1  0
 72 73  1  0
 73 71  2  0
 74 75  1  0
 75 76  2  0
 77 80  1  0
 77 76  1  0
 78 77  2  0
 79 78  1  0
 79 74  2  0
 80 81  1  0
 81 82  1  0
 82 83  2  0
 84 83  1  0
 84 88  1  0
 85 84  2  0
 86 81  2  0
 86 85  1  0
 87 86  1  0
 89 90  1  0
 90 93  1  0
 90 92  1  0
 91 89  2  0
 94 96  1  0
 94 69  1  0
 94 95  1  0
M  ISO  4  16 101  17 101  59 100  67 100
M  END
>  <TORSDO>  (79) 
F 23

>  <SCORE>  (79) 
11.282

>  <name>  (79) 
78

>  <ligand_id>  (79) 
78

>  <original_smiles>  (79) 
[H]c1c([H])c([H])c2c(c1[H])C([H])([H])C([H])([H])C([H])([H])C2([H])N([H])C(=O)C1([H])N(C(=O)C([H])(N([H])C(=O)C([H])(N([H])C([H])([H])[H])C([H])([H])[H])C(C([H])([H])[H])(C([H])([H])[H])C([H])([H])[H])C([H])([H])c2c([H])c(OC([H])([H])C(=O)C([H])([H])N([H])c3oc(C(=O)C4([H])C([H])([H])C4([H])[H])c(C([H])([H])N([H])C(=O)N4C([H])([H])C([H])([H])C([H])([H])C([H])(n5nc(-c6c([H])c([H])c(Oc7c([H])c([H])c(F)c([H])c7F)c([H])c6[H])c(C(=O)N([H])[H])c5N([H])[H])C4([H])[H])c3[H])c([H])c([H])c2C1([H])[H]

>  <smiles>  (79) 
[H]c1c([H])c([H])c2c(c1[H])C([H])([H])C([H])([H])C([H])([H])C2([H])N([H])C(=O)C1([H])N(C(=O)C([H])(N([H])C(=O)C([H])(N([H])C([H])([H])[H])C([H])([H])[H])C(C([H])([H])[H])(C([H])([H])[H])C([H])([H])[H])C([H])([H])c2c([H])c(OC([H])([H])C(=O)C([H])([H])N([H])c3oc(C(=O)C4([H])C([H])([H])C4([H])[H])c(C([H])([H])N([H])C(=O)N4C([H])([H])C([H])([H])C([H])([H])C([H])(n5nc(-c6c([H])c([H])c(Oc7c([H])c([H])c(F)c([H])c7F)c([H])c6[H])c(C(=O)N([H])[H])c5N([H])[H])C4([H])[H])c3[H])c([H])c([H])c2C1([H])[H]

$$$$
79:0:0
     RDKit          3D

 98106  0  0  1  0  0  0  0  0999 V2000
  -29.0380  -20.2160   19.7920 C   0  0  0  0  0  3  0  0  0  0  0  0
  -30.7010  -21.7940   20.5470 C   0  0  0  0  0  3  0  0  0  0  0  0
  -29.8460  -19.0570   20.1730 C   0  0  0  0  0  0  0  0  0  0  0  0
  -31.1150  -19.3470   20.7540 C   0  0  0  0  0  0  0  0  0  0  0  0
  -29.4180  -21.6040   19.9880 C   0  0  0  0  0  0  0  0  0  0  0  0
  -31.5370  -20.7080   20.9080 C   0  0  0  0  0  0  0  0  0  0  0  0
  -28.5970  -24.1070   20.0250 C   0  0  0  0  0  0  0  0  0  0  0  0
  -28.6140  -22.7890   19.5680 N   0  0  0  0  0  0  0  0  0  0  0  0
  -29.0620  -24.3900   21.1330 O   0  0  0  0  0  0  0  0  0  0  0  0
  -28.0320  -22.6390   18.7550 H   0  0  0  0  0  0  0  0  0  0  0  0
  -27.0330  -24.8720   18.0360 C   0  0  0  0  0  1  0  0  0  0  0  0
  -28.0060  -25.3220   19.1400 C   0  0  0  0  0  3  0  0  0  0  0  0
  -27.8530  -26.6940   19.7720 O   0  0  0  0  0  0  0  0  0  0  0  0
  -24.4670  -32.0790   23.2490 C   0  0  0  0  0  0  0  0  0  0  0  0
  -26.7110  -27.5370   19.8280 C   0  0  0  0  0  0  0  0  0  0  0  0
  -23.0960  -30.7720   21.6660 C   0  0  0  0  0  3  0  0  0  0  0  0
  -24.3860  -29.2330   20.0760 C   0  0  0  0  0  0  0  0  0  0  0  0
  -25.6230  -31.0250   21.2870 C   0  0  0  0  0  2  0  0  0  0  0  0
  -25.6140  -29.6650   20.5890 C   0  0  0  0  0  0  0  0  0  0  0  0
  -26.7700  -28.8310   20.4530 C   0  0  0  0  0  3  0  0  0  0  0  0
  -25.4430  -27.1580   19.3290 C   0  0  0  0  0  3  0  0  0  0  0  0
  -24.3040  -27.9830   19.4430 C   0  0  0  0  0  3  0  0  0  0  0  0
  -23.1800  -30.1380   20.2520 C   0  0  0  0  0  2  0  0  0  0  0  0
  -24.4190  -31.3070   22.1240 N   0  0  0  0  0  0  0  0  0  0  0  0
  -23.4370  -32.3640   23.8790 O   0  0  0  0  0  0  0  0  0  0  0  0
  -22.4820  -29.7400   22.6430 C   0  0  0  0  0  0  0  0  0  0  0  0
  -21.1640  -29.5000   22.5240 N   0  0  0  0  0  0  0  0  0  0  0  0
  -23.1920  -29.1560   23.4660 O   0  0  0  0  0  0  0  0  0  0  0  0
  -20.6470  -30.0230   21.8320 H   0  0  0  0  0  0  0  0  0  0  0  0
  -17.8810  -28.0440   22.9540 C   0  0  0  0  0  0  0  0  0  0  0  0
  -20.3950  -28.5340   23.3110 C   0  0  0  0  0  3  0  0  0  0  0  0
  -20.6410  -27.0910   22.8150 C   0  0  0  0  0  2  0  0  0  0  0  0
  -19.6150  -26.6270   21.7760 C   0  0  0  0  0  2  0  0  0  0  0  0
  -18.1990  -26.6840   22.3560 C   0  0  0  0  0  2  0  0  0  0  0  0
  -18.9120  -28.9200   23.3880 C   0  0  0  0  0  0  0  0  0  0  0  0
  -18.5640  -30.1850   23.9060 C   0  0  0  0  0  3  0  0  0  0  0  0
  -17.2160  -30.5830   23.9930 C   0  0  0  0  0  3  0  0  0  0  0  0
  -16.1980  -29.7070   23.5770 C   0  0  0  0  0  3  0  0  0  0  0  0
  -16.5310  -28.4410   23.0630 C   0  0  0  0  0  3  0  0  0  0  0  0
  -25.8110  -32.6580   23.7870 C   0  0  0  0  0  3  0  0  0  0  0  0
  -25.5710  -34.0580   24.1700 N   0  0  0  0  0  0  0  0  0  0  0  0
  -25.8730  -35.1190   23.4100 C   0  0  0  0  0  0  0  0  0  0  0  0
  -26.4530  -35.0190   22.3240 O   0  0  0  0  0  0  0  0  0  0  0  0
  -25.0470  -34.2100   25.0190 H   0  0  0  0  0  0  0  0  0  0  0  0
  -24.1800  -36.9710   23.2360 C   0  0  0  0  0  1  0  0  0  0  0  0
  -25.4700  -36.5100   23.9340 C   0  0  0  0  0  3  0  0  0  0  0  0
  -27.6860  -37.3220   24.6110 C   0  0  0  0  0  1  0  0  0  0  0  0
  -26.5220  -37.5350   23.7540 N   0  0  0  0  0  0  0  0  0  0  0  0
  -26.1570  -38.4650   23.9410 H   0  0  0  0  0  0  0  0  0  0  0  0
  -26.3910  -31.8430   25.0070 C   0  0  1  0  0  0  0  0  0  0  0  0
  -25.3590  -31.5790   26.1290 C   0  0  0  0  0  1  0  0  0  0  0  0
  -26.9400  -30.4770   24.5400 C   0  0  0  0  0  1  0  0  0  0  0  0
  -27.5830  -32.6080   25.6280 C   0  0  0  0  0  1  0  0  0  0  0  0
  -32.7770  -21.0520   21.4660 N   0  0  0  0  0  0  0  0  0  0  0  0
  -33.1110  -22.0080   21.3980 H   0  0  0  0  0  0  0  0  0  0  0  0
  -33.5300  -20.3690   21.4580 H   0  0  0  0  0  0  0  0  0  0  0  0
  -29.2290  -17.6380   20.1090 C   0  0  0  0  0  3  0  0  0  0  0  0
  -29.4170  -16.2460   20.0770 C   0  0  0  0  0  3  0  0  0  0  0  0
  -30.4710  -15.1510   19.9280 C   0  0  0  0  0  0  0  0  0  0  0  0
  -30.4280  -12.7960   19.0150 C   0  0  0  0  0  2  0  0  0  0  0  0
  -29.4230  -12.7430   17.8360 C   0  0  0  0  0  2  0  0  0  0  0  0
  -27.9850  -12.4820   18.3390 C   0  0  0  0  0  2  0  0  0  0  0  0
  -27.6100  -13.4110   19.5140 C   0  0  0  0  0  3  0  0  0  0  0  0
  -28.7210  -13.4150   20.5950 C   0  0  0  0  0  2  0  0  0  0  0  0
  -29.9750  -13.8530   19.9530 N   0  0  0  0  0  0  0  0  0  0  0  0
  -31.6400  -15.3290   19.5700 O   0  0  0  0  0  0  0  0  0  0  0  0
  -25.2760  -13.9870   20.4170 C   0  0  0  0  0  0  0  0  0  0  0  0
  -24.2360  -13.1990   20.8290 C   0  0  0  0  0  0  0  0  0  0  0  0
  -24.6970  -11.8520   20.7230 C   0  0  0  0  0  0  0  0  0  0  0  0
  -26.2990  -13.1130   20.0790 N   0  0  0  0  0  0  0  0  0  0  0  0
  -25.9630  -11.8230   20.3300 N   0  0  0  0  0  0  0  0  0  0  0  0
  -23.9880  -10.5820   20.9120 C   0  0  0  0  0  0  0  0  0  0  0  0
  -24.4180   -9.6340   21.8670 C   0  0  0  0  0  3  0  0  0  0  0  0
  -23.7080   -8.4270   22.0430 C   0  0  0  0  0  3  0  0  0  0  0  0
  -22.5570   -8.1600   21.2630 C   0  0  0  0  0  0  0  0  0  0  0  0
  -22.1500   -9.0980   20.2980 C   0  0  0  0  0  3  0  0  0  0  0  0
  -22.8600  -10.2970   20.1210 C   0  0  0  0  0  3  0  0  0  0  0  0
  -21.8200   -7.0050   21.3460 O   0  0  0  0  0  0  0  0  0  0  0  0
  -21.7010   -6.3120   22.5240 C   0  0  0  0  0  0  0  0  0  0  0  0
  -21.1110   -6.8890   23.6700 C   0  0  0  0  0  3  0  0  0  0  0  0
  -20.9440   -6.1190   24.8390 C   0  0  0  0  0  3  0  0  0  0  0  0
  -21.3560   -4.7730   24.8620 C   0  0  0  0  0  0  0  0  0  0  0  0
  -21.9400   -4.1960   23.7190 C   0  0  0  0  0  3  0  0  0  0  0  0
  -22.1080   -4.9640   22.5540 C   0  0  0  0  0  0  0  0  0  0  0  0
  -22.6510   -4.3950   21.4490 F   0  0  0  0  0  0  0  0  0  0  0  0
  -21.1900   -4.0320   25.9820 F   0  0  0  0  0  0  0  0  0  0  0  0
  -22.8570  -13.6630   21.2030 C   0  0  0  0  0  0  0  0  0  0  0  0
  -22.1820  -12.9320   22.0830 N   0  0  0  0  0  0  0  0  0  0  0  0
  -22.3880  -14.7060   20.7500 O   0  0  0  0  0  0  0  0  0  0  0  0
  -22.5760  -12.0890   22.4710 H   0  0  0  0  0  0  0  0  0  0  0  0
  -21.2590  -13.2240   22.3730 H   0  0  0  0  0  0  0  0  0  0  0  0
  -25.4260  -15.3650   20.2760 N   0  0  0  0  0  0  0  0  0  0  0  0
  -24.6660  -16.0090   20.4670 H   0  0  0  0  0  0  0  0  0  0  0  0
  -26.2360  -15.8190   19.8730 H   0  0  0  0  0  0  0  0  0  0  0  0
  -31.9680  -18.2390   21.2750 C   0  0  0  0  0  0  0  0  0  0  0  0
  -33.0280  -17.8950   20.7430 O   0  0  0  0  0  0  0  0  0  0  0  0
  -31.0160  -18.5470   23.6470 C   0  0  0  0  0  1  0  0  0  0  0  0
  -31.5230  -17.5620   22.5790 C   0  0  0  0  0  2  0  0  0  0  0  0
  1  5  2  0
  1  3  1  0
  2  6  2  0
  3  4  2  0
  4  6  1  0
  4 95  1  0
  5  2  1  0
  6 54  1  0
  7  9  2  0
  8  5  1  0
  8  7  1  0
 10  8  1  0
 12 11  1  0
 12 13  1  0
 12  7  1  0
 13 15  1  0
 14 25  2  0
 15 20  1  0
 16 24  1  0
 16 26  1  0
 17 23  1  0
 17 19  1  0
 18 24  1  0
 19 18  1  0
 20 19  2  0
 21 22  1  0
 21 15  2  0
 22 17  2  0
 23 16  1  0
 24 14  1  0
 26 28  2  0
 27 26  1  0
 29 27  1  0
 30 39  2  0
 30 35  1  0
 31 27  1  0
 31 35  1  0
 32 31  1  0
 33 34  1  0
 33 32  1  0
 34 30  1  0
 35 36  2  0
 36 37  1  0
 38 37  2  0
 39 38  1  0
 40 14  1  0
 40 41  1  0
 40 50  1  0
 41 44  1  0
 42 46  1  0
 42 41  1  0
 43 42  2  0
 46 45  1  0
 48 46  1  0
 48 49  1  0
 48 47  1  0
 50 53  1  1
 50 51  1  0
 52 50  1  0
 55 54  1  0
 56 54  1  0
 57  3  1  0
 58 57  2  0
 59 65  1  0
 59 58  1  0
 60 65  1  0
 61 62  1  0
 61 60  1  0
 63 62  1  0
 63 70  1  0
 63 64  1  0
 65 64  1  0
 66 59  2  0
 67 68  2  0
 68 87  1  0
 69 68  1  0
 69 72  1  0
 70 71  1  0
 70 67  1  0
 71 69  2  0
 72 73  1  0
 73 74  2  0
 75 78  1  0
 75 74  1  0
 76 75  2  0
 77 76  1  0
 77 72  2  0
 78 79  1  0
 79 84  2  0
 79 80  1  0
 80 81  2  0
 81 82  1  0
 82 86  1  0
 83 82  2  0
 84 83  1  0
 85 84  1  0
 87 88  1  0
 88 91  1  0
 88 90  1  0
 89 87  2  0
 92 67  1  0
 92 93  1  0
 94 92  1  0
 95 98  1  0
 96 95  2  0
 98 97  1  0
M  ISO  4  12 101  13 101  58 100  59 100
M  END
>  <TORSDO>  (80) 
F 22

>  <SCORE>  (80) 
-12.537

>  <name>  (80) 
79

>  <ligand_id>  (80) 
79

>  <original_smiles>  (80) 
[H]C(C(=O)N1C([H])([H])C([H])([H])C([H])([H])C([H])(n2nc(-c3c([H])c([H])c(Oc4c([H])c([H])c(F)c([H])c4F)c([H])c3[H])c(C(=O)N([H])[H])c2N([H])[H])C1([H])[H])=C([H])c1c([H])c(N([H])C(=O)C([H])(Oc2c([H])c([H])c3c(c2[H])C([H])([H])N(C(=O)C([H])(N([H])C(=O)C([H])(N([H])C([H])([H])[H])C([H])([H])[H])C(C([H])([H])[H])(C([H])([H])[H])C([H])([H])[H])C([H])(C(=O)N([H])C2([H])c4c([H])c([H])c([H])c([H])c4C([H])([H])C([H])([H])C2([H])[H])C3([H])[H])C([H])([H])[H])c([H])c(N([H])[H])c1C(=O)C([H])([H])C([H])([H])[H]

>  <smiles>  (80) 
[H]C(C(=O)N1C([H])([H])C([H])([H])C([H])([H])C([H])(n2nc(-c3c([H])c([H])c(Oc4c([H])c([H])c(F)c([H])c4F)c([H])c3[H])c(C(=O)N([H])[H])c2N([H])[H])C1([H])[H])=C([H])c1c([H])c(N([H])C(=O)C([H])(Oc2c([H])c([H])c3c(c2[H])C([H])([H])N(C(=O)C([H])(N([H])C(=O)C([H])(N([H])C([H])([H])[H])C([H])([H])[H])C(C([H])([H])[H])(C([H])([H])[H])C([H])([H])[H])C([H])(C(=O)N([H])C2([H])c4c([H])c([H])c([H])c([H])c4C([H])([H])C([H])([H])C2([H])[H])C3([H])[H])C([H])([H])[H])c([H])c(N([H])[H])c1C(=O)C([H])([H])C([H])([H])[H]

$$$$
80:0:0
     RDKit          3D

 95103  0  0  1  0  0  0  0  0999 V2000
  -29.4250  -21.0040   20.9110 C   0  0  0  0  0  0  0  0  0  0  0  0
  -30.0820  -21.1450   21.9900 N   0  0  0  0  0  0  0  0  0  0  0  0
  -30.5050  -20.2650   22.2640 H   0  0  0  0  0  0  0  0  0  0  0  0
  -29.4650  -17.5980   19.0470 C   0  0  0  0  0  3  0  0  0  0  0  0
  -29.2450  -19.0250   19.0310 C   0  0  0  0  0  0  0  0  0  0  0  0
  -29.3960  -19.5800   20.2890 C   0  0  0  0  0  0  0  0  0  0  0  0
  -29.7490  -17.2430   20.3410 C   0  0  0  0  0  0  0  0  0  0  0  0
  -29.6880  -18.4410   21.1120 O   0  0  0  0  0  0  0  0  0  0  0  0
  -30.5570  -14.8040   20.3580 C   0  0  0  0  0  0  0  0  0  0  0  0
  -30.3740  -12.5130   19.3560 C   0  0  0  0  0  2  0  0  0  0  0  0
  -29.4420  -12.6010   18.1260 C   0  0  0  0  0  2  0  0  0  0  0  0
  -27.9730  -12.4170   18.5510 C   0  0  0  0  0  2  0  0  0  0  0  0
  -27.5980  -13.2920   19.7790 C   0  0  0  0  0  3  0  0  0  0  0  0
  -28.6540  -13.1880   20.9030 C   0  0  0  0  0  2  0  0  0  0  0  0
  -29.9550  -13.5590   20.3260 N   0  0  0  0  0  0  0  0  0  0  0  0
  -31.7040  -14.9220   19.9150 O   0  0  0  0  0  0  0  0  0  0  0  0
  -29.8370  -15.9100   20.8140 N   0  0  0  0  0  0  0  0  0  0  0  0
  -29.0880  -15.6510   21.4380 H   0  0  0  0  0  0  0  0  0  0  0  0
  -25.2090  -13.8860   20.4980 C   0  0  0  0  0  0  0  0  0  0  0  0
  -24.1420  -13.1140   20.8690 C   0  0  0  0  0  0  0  0  0  0  0  0
  -24.6030  -11.7620   20.8390 C   0  0  0  0  0  0  0  0  0  0  0  0
  -26.2520  -13.0050   20.2620 N   0  0  0  0  0  0  0  0  0  0  0  0
  -25.8930  -11.7210   20.5280 N   0  0  0  0  0  0  0  0  0  0  0  0
  -23.8730  -10.5020   21.0330 C   0  0  0  0  0  0  0  0  0  0  0  0
  -24.3090   -9.5290   21.9620 C   0  0  0  0  0  3  0  0  0  0  0  0
  -23.5780   -8.3360   22.1440 C   0  0  0  0  0  3  0  0  0  0  0  0
  -22.3980   -8.1040   21.3980 C   0  0  0  0  0  0  0  0  0  0  0  0
  -21.9820   -9.0640   20.4600 C   0  0  0  0  0  3  0  0  0  0  0  0
  -22.7120  -10.2500   20.2750 C   0  0  0  0  0  3  0  0  0  0  0  0
  -21.6380   -6.9630   21.4900 O   0  0  0  0  0  0  0  0  0  0  0  0
  -21.6010   -6.2140   22.6380 C   0  0  0  0  0  0  0  0  0  0  0  0
  -21.1950   -6.7660   23.8740 C   0  0  0  0  0  3  0  0  0  0  0  0
  -21.1020   -5.9430   25.0160 C   0  0  0  0  0  3  0  0  0  0  0  0
  -21.4070   -4.5720   24.9220 C   0  0  0  0  0  0  0  0  0  0  0  0
  -21.8040   -4.0210   23.6920 C   0  0  0  0  0  3  0  0  0  0  0  0
  -21.8990   -4.8400   22.5530 C   0  0  0  0  0  0  0  0  0  0  0  0
  -22.2620   -4.2980   21.3660 F   0  0  0  0  0  0  0  0  0  0  0  0
  -21.3110   -3.7810   26.0170 F   0  0  0  0  0  0  0  0  0  0  0  0
  -22.7460  -13.5950   21.1400 C   0  0  0  0  0  0  0  0  0  0  0  0
  -22.0190  -12.9020   22.0080 N   0  0  0  0  0  0  0  0  0  0  0  0
  -22.3110  -14.6190   20.6180 O   0  0  0  0  0  0  0  0  0  0  0  0
  -22.3840  -12.0720   22.4530 H   0  0  0  0  0  0  0  0  0  0  0  0
  -21.0810  -13.2040   22.2320 H   0  0  0  0  0  0  0  0  0  0  0  0
  -25.3780  -15.2570   20.3210 N   0  0  0  0  0  0  0  0  0  0  0  0
  -24.6160  -15.9160   20.4390 H   0  0  0  0  0  0  0  0  0  0  0  0
  -26.2240  -15.6910   19.9770 H   0  0  0  0  0  0  0  0  0  0  0  0
  -28.9510  -19.7250   17.8580 N   0  0  0  0  0  0  0  0  0  0  0  0
  -28.7040  -19.2090   17.0170 H   0  0  0  0  0  0  0  0  0  0  0  0
  -28.4670  -20.6190   17.9320 H   0  0  0  0  0  0  0  0  0  0  0  0
  -28.6300  -22.2670   20.2520 C   0  0  0  0  0  0  0  0  0  0  0  0
  -27.6530  -21.9920   19.5490 O   0  0  0  0  0  0  0  0  0  0  0  0
  -28.0620  -24.8540   20.2630 C   0  0  0  0  0  3  0  0  0  0  0  0
  -28.9790  -23.8040   20.4230 C   0  0  0  0  0  0  0  0  0  0  0  0
  -30.4370  -24.1070   20.7220 C   0  0  0  0  0  1  0  0  0  0  0  0
  -28.2690  -26.2920   20.2900 O   0  0  0  0  0  0  0  0  0  0  0  0
  -24.6220  -31.9050   23.2370 C   0  0  0  0  0  0  0  0  0  0  0  0
  -27.1910  -27.2280   20.2200 C   0  0  0  0  0  0  0  0  0  0  0  0
  -23.4110  -30.5070   21.6040 C   0  0  0  0  0  3  0  0  0  0  0  0
  -24.8540  -28.9310   20.1840 C   0  0  0  0  0  0  0  0  0  0  0  0
  -25.9630  -30.7780   21.4350 C   0  0  0  0  0  2  0  0  0  0  0  0
  -26.0300  -29.3880   20.7940 C   0  0  0  0  0  0  0  0  0  0  0  0
  -27.1960  -28.5480   20.8060 C   0  0  0  0  0  3  0  0  0  0  0  0
  -26.0020  -26.8730   19.5430 C   0  0  0  0  0  3  0  0  0  0  0  0
  -24.8480  -27.6820   19.5460 C   0  0  0  0  0  3  0  0  0  0  0  0
  -23.6260  -29.8250   20.2280 C   0  0  0  0  0  2  0  0  0  0  0  0
  -24.6840  -31.0860   22.1470 N   0  0  0  0  0  0  0  0  0  0  0  0
  -23.5380  -32.1940   23.7680 O   0  0  0  0  0  0  0  0  0  0  0  0
  -22.7360  -29.5020   22.5700 C   0  0  0  0  0  0  0  0  0  0  0  0
  -21.4080  -29.3350   22.4440 N   0  0  0  0  0  0  0  0  0  0  0  0
  -23.4070  -28.8770   23.3940 O   0  0  0  0  0  0  0  0  0  0  0  0
  -20.9240  -29.8930   21.7550 H   0  0  0  0  0  0  0  0  0  0  0  0
  -18.0220  -28.1590   22.9610 C   0  0  0  0  0  0  0  0  0  0  0  0
  -20.5830  -28.4070   23.2210 C   0  0  0  0  0  3  0  0  0  0  0  0
  -20.6740  -26.9710   22.6530 C   0  0  0  0  0  2  0  0  0  0  0  0
  -19.5680  -26.6500   21.6440 C   0  0  0  0  0  2  0  0  0  0  0  0
  -18.1890  -26.8060   22.2900 C   0  0  0  0  0  2  0  0  0  0  0  0
  -19.1470  -28.9170   23.3850 C   0  0  0  0  0  0  0  0  0  0  0  0
  -18.9360  -30.1840   23.9720 C   0  0  0  0  0  3  0  0  0  0  0  0
  -17.6340  -30.6900   24.1420 C   0  0  0  0  0  3  0  0  0  0  0  0
  -16.5240  -29.9300   23.7330 C   0  0  0  0  0  3  0  0  0  0  0  0
  -16.7200  -28.6660   23.1480 C   0  0  0  0  0  3  0  0  0  0  0  0
  -25.9050  -32.5350   23.8590 C   0  0  0  0  0  3  0  0  0  0  0  0
  -26.4180  -31.7640   25.1370 C   0  0  1  0  0  0  0  0  0  0  0  0
  -25.3250  -31.5350   26.2070 C   0  0  0  0  0  1  0  0  0  0  0  0
  -26.9980  -30.3830   24.7550 C   0  0  0  0  0  1  0  0  0  0  0  0
  -27.5720  -32.5570   25.7960 C   0  0  0  0  0  1  0  0  0  0  0  0
  -25.5970  -33.9350   24.1910 N   0  0  0  0  0  0  0  0  0  0  0  0
  -25.9230  -34.9890   23.4320 C   0  0  0  0  0  0  0  0  0  0  0  0
  -26.5850  -34.8860   22.3940 O   0  0  0  0  0  0  0  0  0  0  0  0
  -25.0130  -34.0880   24.9990 H   0  0  0  0  0  0  0  0  0  0  0  0
  -24.1940  -36.7870   23.1020 C   0  0  0  0  0  1  0  0  0  0  0  0
  -25.4440  -36.3780   23.8970 C   0  0  0  0  0  3  0  0  0  0  0  0
  -27.5880  -37.2600   24.7050 C   0  0  0  0  0  1  0  0  0  0  0  0
  -26.4760  -37.4310   23.7730 N   0  0  0  0  0  0  0  0  0  0  0  0
  -26.0730  -38.3520   23.9230 H   0  0  0  0  0  0  0  0  0  0  0  0
  1  2  2  0
  2  3  1  0
  4  7  2  0
  5  4  1  0
  5  6  2  0
  6  1  1  0
  6  8  1  0
  7 17  1  0
  7  8  1  0
  9 17  1  0
 10 15  1  0
 11 12  1  0
 11 10  1  0
 13 12  1  0
 13 22  1  0
 13 14  1  0
 15  9  1  0
 15 14  1  0
 16  9  2  0
 17 18  1  0
 19 20  2  0
 20 39  1  0
 21 20  1  0
 21 24  1  0
 22 19  1  0
 22 23  1  0
 23 21  2  0
 24 25  1  0
 25 26  2  0
 27 30  1  0
 27 26  1  0
 28 27  2  0
 29 28  1  0
 29 24  2  0
 30 31  1  0
 31 32  1  0
 32 33  2  0
 34 33  1  0
 34 38  1  0
 35 34  2  0
 36 31  2  0
 36 35  1  0
 37 36  1  0
 39 40  1  0
 40 43  1  0
 40 42  1  0
 41 39  2  0
 44 45  1  0
 44 19  1  0
 46 44  1  0
 47 49  1  0
 47  5  1  0
 48 47  1  0
 50 53  1  0
 50  1  1  0
 51 50  2  0
 52 55  1  0
 52 53  2  0
 53 54  1  0
 56 67  2  0
 57 55  1  0
 57 62  1  0
 58 66  1  0
 58 68  1  0
 59 65  1  0
 59 61  1  0
 60 66  1  0
 61 62  2  0
 61 60  1  0
 63 64  1  0
 63 57  2  0
 64 59  2  0
 65 58  1  0
 66 56  1  0
 68 70  2  0
 69 68  1  0
 71 69  1  0
 72 81  2  0
 72 77  1  0
 73 69  1  0
 73 77  1  0
 74 73  1  0
 75 76  1  0
 75 74  1  0
 76 72  1  0
 77 78  2  0
 78 79  1  0
 80 79  2  0
 81 80  1  0
 82 56  1  0
 82 87  1  0
 82 83  1  0
 83 86  1  1
 83 84  1  0
 85 83  1  0
 87 90  1  0
 88 92  1  0
 88 87  1  0
 89 88  2  0
 92 91  1  0
 94 92  1  0
 94 95  1  0
 94 93  1  0
M  ISO  4   9 100  17 100  52 101  55 101
M  END
>  <TORSDO>  (81) 
F 20

>  <SCORE>  (81) 
-14.366

>  <name>  (81) 
80

>  <ligand_id>  (81) 
80

>  <original_smiles>  (81) 
[H]N=C(C(=O)C(=C([H])Oc1c([H])c([H])c2c(c1[H])C([H])([H])N(C(=O)C([H])(N([H])C(=O)C([H])(N([H])C([H])([H])[H])C([H])([H])[H])C(C([H])([H])[H])(C([H])([H])[H])C([H])([H])[H])C([H])(C(=O)N([H])C1([H])c3c([H])c([H])c([H])c([H])c3C([H])([H])C([H])([H])C1([H])[H])C2([H])[H])C([H])([H])[H])c1oc(N([H])C(=O)N2C([H])([H])C([H])([H])C([H])([H])C([H])(n3nc(-c4c([H])c([H])c(Oc5c([H])c([H])c(F)c([H])c5F)c([H])c4[H])c(C(=O)N([H])[H])c3N([H])[H])C2([H])[H])c([H])c1N([H])[H]

>  <smiles>  (81) 
[H]N=C(C(=O)C(=C([H])Oc1c([H])c([H])c2c(c1[H])C([H])([H])N(C(=O)C([H])(N([H])C(=O)C([H])(N([H])C([H])([H])[H])C([H])([H])[H])C(C([H])([H])[H])(C([H])([H])[H])C([H])([H])[H])C([H])(C(=O)N([H])C1([H])c3c([H])c([H])c([H])c([H])c3C([H])([H])C([H])([H])C1([H])[H])C2([H])[H])C([H])([H])[H])c1oc(N([H])C(=O)N2C([H])([H])C([H])([H])C([H])([H])C([H])(n3nc(-c4c([H])c([H])c(Oc5c([H])c([H])c(F)c([H])c5F)c([H])c4[H])c(C(=O)N([H])[H])c3N([H])[H])C2([H])[H])c([H])c1N([H])[H]

$$$$
81:0:0
     RDKit          3D

 98106  0  0  1  0  0  0  0  0999 V2000
  -29.8080  -19.5440   22.0330 C   0  0  0  0  0  3  0  0  0  0  0  0
  -29.9880  -20.3420   20.9350 C   0  0  0  0  0  0  0  0  0  0  0  0
  -30.4050  -18.2180   20.3190 C   0  0  0  0  0  3  0  0  0  0  0  0
  -30.0750  -18.2510   21.6310 N   0  0  0  0  0  0  0  0  0  0  0  0
  -30.3330  -19.5050   19.8940 N   0  0  0  0  0  0  0  0  0  0  0  0
  -30.5610  -19.8150   18.9570 H   0  0  0  0  0  0  0  0  0  0  0  0
  -29.8720  -22.6970   19.9660 C   0  0  0  0  0  0  0  0  0  0  0  0
  -29.8850  -21.7820   20.9640 N   0  0  0  0  0  0  0  0  0  0  0  0
  -29.9020  -22.4030   18.7650 O   0  0  0  0  0  0  0  0  0  0  0  0
  -29.8270  -22.2060   21.8820 H   0  0  0  0  0  0  0  0  0  0  0  0
  -29.8160  -24.1940   20.4900 C   0  0  0  0  0  0  0  0  0  0  0  0
  -30.2800  -24.4990   21.5970 O   0  0  0  0  0  0  0  0  0  0  0  0
  -29.1300  -25.2690   19.5940 C   0  0  0  0  0  2  0  0  0  0  0  0
  -29.1090  -26.6200   20.1710 O   0  0  0  0  0  0  0  0  0  0  0  0
  -25.0440  -31.5520   23.4050 C   0  0  0  0  0  0  0  0  0  0  0  0
  -27.9360  -27.3740   20.1150 C   0  0  0  0  0  0  0  0  0  0  0  0
  -23.9540  -30.2520   21.6100 C   0  0  0  0  0  3  0  0  0  0  0  0
  -25.5090  -28.8690   20.1330 C   0  0  0  0  0  0  0  0  0  0  0  0
  -26.4810  -30.6710   21.5600 C   0  0  0  0  0  2  0  0  0  0  0  0
  -26.6310  -29.3540   20.8160 C   0  0  0  0  0  0  0  0  0  0  0  0
  -27.8430  -28.6140   20.8060 C   0  0  0  0  0  3  0  0  0  0  0  0
  -26.7950  -26.9420   19.3960 C   0  0  0  0  0  3  0  0  0  0  0  0
  -25.5900  -27.6660   19.4170 C   0  0  0  0  0  3  0  0  0  0  0  0
  -24.2420  -29.6940   20.1910 C   0  0  0  0  0  2  0  0  0  0  0  0
  -25.1750  -30.8380   22.2490 N   0  0  0  0  0  0  0  0  0  0  0  0
  -23.9330  -31.7530   23.9140 O   0  0  0  0  0  0  0  0  0  0  0  0
  -23.2910  -29.1400   22.4570 C   0  0  0  0  0  0  0  0  0  0  0  0
  -21.9870  -28.9090   22.2320 N   0  0  0  0  0  0  0  0  0  0  0  0
  -23.9500  -28.4930   23.2750 O   0  0  0  0  0  0  0  0  0  0  0  0
  -21.5100  -29.4890   21.5550 H   0  0  0  0  0  0  0  0  0  0  0  0
  -18.6560  -27.5200   22.4170 C   0  0  0  0  0  0  0  0  0  0  0  0
  -21.1700  -27.8860   22.8890 C   0  0  0  0  0  3  0  0  0  0  0  0
  -21.3880  -26.4990   22.2400 C   0  0  0  0  0  2  0  0  0  0  0  0
  -20.3790  -26.1860   21.1320 C   0  0  0  0  0  2  0  0  0  0  0  0
  -18.9500  -26.2230   21.6820 C   0  0  0  0  0  2  0  0  0  0  0  0
  -19.6990  -28.3080   22.9700 C   0  0  0  0  0  0  0  0  0  0  0  0
  -19.3720  -29.5220   23.6120 C   0  0  0  0  0  3  0  0  0  0  0  0
  -18.0340  -29.9470   23.7130 C   0  0  0  0  0  3  0  0  0  0  0  0
  -17.0040  -29.1540   23.1770 C   0  0  0  0  0  3  0  0  0  0  0  0
  -17.3150  -27.9420   22.5350 C   0  0  0  0  0  3  0  0  0  0  0  0
  -26.2820  -32.1690   24.1270 C   0  0  0  0  0  3  0  0  0  0  0  0
  -25.9180  -33.5280   24.5490 N   0  0  0  0  0  0  0  0  0  0  0  0
  -26.2410  -34.6420   23.8800 C   0  0  0  0  0  0  0  0  0  0  0  0
  -26.9480  -34.6350   22.8670 O   0  0  0  0  0  0  0  0  0  0  0  0
  -25.2950  -33.6070   25.3390 H   0  0  0  0  0  0  0  0  0  0  0  0
  -24.4680  -36.4030   23.5970 C   0  0  0  0  0  1  0  0  0  0  0  0
  -25.6940  -35.9770   24.4200 C   0  0  0  0  0  3  0  0  0  0  0  0
  -27.7710  -36.8650   25.3860 C   0  0  0  0  0  1  0  0  0  0  0  0
  -26.6950  -37.0680   24.4190 N   0  0  0  0  0  0  0  0  0  0  0  0
  -26.2530  -37.9620   24.6180 H   0  0  0  0  0  0  0  0  0  0  0  0
  -26.7690  -31.3140   25.3620 C   0  0  1  0  0  0  0  0  0  0  0  0
  -25.6380  -30.9500   26.3500 C   0  0  0  0  0  1  0  0  0  0  0  0
  -27.4290  -29.9990   24.8890 C   0  0  0  0  0  1  0  0  0  0  0  0
  -27.8490  -32.0960   26.1430 C   0  0  0  0  0  1  0  0  0  0  0  0
  -30.9220  -17.0470   19.4680 C   0  0  0  0  0  3  0  0  0  0  0  0
  -31.0650  -14.5560   19.2970 C   0  0  0  0  0  0  0  0  0  0  0  0
  -30.4860  -12.5100   18.0490 C   0  0  0  0  0  2  0  0  0  0  0  0
  -29.4110  -12.8710   17.0010 C   0  0  0  0  0  2  0  0  0  0  0  0
  -28.0010  -12.7580   17.6140 C   0  0  0  0  0  2  0  0  0  0  0  0
  -27.8820  -13.4670   18.9910 C   0  0  0  0  0  3  0  0  0  0  0  0
  -29.0710  -13.1270   19.9200 C   0  0  0  0  0  2  0  0  0  0  0  0
  -30.3100  -13.4240   19.1900 N   0  0  0  0  0  0  0  0  0  0  0  0
  -32.1660  -14.6540   18.7530 O   0  0  0  0  0  0  0  0  0  0  0  0
  -30.4620  -15.6640   19.7980 N   0  0  0  0  0  0  0  0  0  0  0  0
  -29.5380  -15.5590   20.1910 H   0  0  0  0  0  0  0  0  0  0  0  0
  -25.5740  -14.0630   19.9520 C   0  0  0  0  0  0  0  0  0  0  0  0
  -24.5630  -13.2900   20.4540 C   0  0  0  0  0  0  0  0  0  0  0  0
  -25.0340  -11.9430   20.4050 C   0  0  0  0  0  0  0  0  0  0  0  0
  -26.5970  -13.1870   19.6280 N   0  0  0  0  0  0  0  0  0  0  0  0
  -26.2830  -11.9070   19.9590 N   0  0  0  0  0  0  0  0  0  0  0  0
  -24.3460  -10.6790   20.7040 C   0  0  0  0  0  0  0  0  0  0  0  0
  -24.8230   -9.7940   21.6950 C   0  0  0  0  0  3  0  0  0  0  0  0
  -24.1320   -8.5960   21.9760 C   0  0  0  0  0  3  0  0  0  0  0  0
  -22.9510   -8.2730   21.2650 C   0  0  0  0  0  0  0  0  0  0  0  0
  -22.4950   -9.1460   20.2620 C   0  0  0  0  0  3  0  0  0  0  0  0
  -23.1870  -10.3360   19.9800 C   0  0  0  0  0  3  0  0  0  0  0  0
  -22.2300   -7.1190   21.4530 O   0  0  0  0  0  0  0  0  0  0  0  0
  -22.0770   -6.5580   22.6950 C   0  0  0  0  0  0  0  0  0  0  0  0
  -21.5680   -7.2940   23.7880 C   0  0  0  0  0  3  0  0  0  0  0  0
  -21.3630   -6.6600   25.0290 C   0  0  0  0  0  3  0  0  0  0  0  0
  -21.6560   -5.2910   25.1790 C   0  0  0  0  0  0  0  0  0  0  0  0
  -22.1570   -4.5550   24.0920 C   0  0  0  0  0  3  0  0  0  0  0  0
  -22.3630   -5.1860   22.8520 C   0  0  0  0  0  0  0  0  0  0  0  0
  -22.8260   -4.4680   21.8010 F   0  0  0  0  0  0  0  0  0  0  0  0
  -21.4510   -4.6800   26.3700 F   0  0  0  0  0  0  0  0  0  0  0  0
  -23.2000  -13.7630   20.8690 C   0  0  0  0  0  0  0  0  0  0  0  0
  -22.6020  -13.1140   21.8620 N   0  0  0  0  0  0  0  0  0  0  0  0
  -22.6770  -14.7450   20.3450 O   0  0  0  0  0  0  0  0  0  0  0  0
  -23.0380  -12.3190   22.3050 H   0  0  0  0  0  0  0  0  0  0  0  0
  -21.6920  -13.4150   22.1820 H   0  0  0  0  0  0  0  0  0  0  0  0
  -25.7000  -15.4290   19.7240 N   0  0  0  0  0  0  0  0  0  0  0  0
  -24.9630  -16.0860   19.9550 H   0  0  0  0  0  0  0  0  0  0  0  0
  -26.5450  -15.8850   19.4020 H   0  0  0  0  0  0  0  0  0  0  0  0
  -30.0440  -17.0710   22.5110 C   0  0  0  0  0  3  0  0  0  0  0  0
  -29.4320  -15.8000   21.9230 C   0  0  0  0  0  0  0  0  0  0  0  0
  -29.1790  -15.7140   20.7160 O   0  0  0  0  0  0  0  0  0  0  0  0
  -28.1440  -13.6380   22.3450 C   0  0  0  0  0  1  0  0  0  0  0  0
  -29.2130  -14.6150   22.8630 C   0  0  0  0  0  2  0  0  0  0  0  0
  2  8  1  0
  2  1  2  0
  3 55  1  0
  3  4  1  0
  4  1  1  0
  4 94  1  0
  5  3  1  0
  5  2  1  0
  6  5  1  0
  7 11  1  0
  7  8  1  0
  8 10  1  0
  9  7  2  0
 11 12  2  0
 13 14  1  0
 13 11  1  0
 15 26  2  0
 16 14  1  0
 16 21  1  0
 17 25  1  0
 17 27  1  0
 18 24  1  0
 18 20  1  0
 19 25  1  0
 20 19  1  0
 21 20  2  0
 22 23  1  0
 22 16  2  0
 23 18  2  0
 24 17  1  0
 25 15  1  0
 27 29  2  0
 28 27  1  0
 30 28  1  0
 31 40  2  0
 31 36  1  0
 32 28  1  0
 32 36  1  0
 33 32  1  0
 34 35  1  0
 34 33  1  0
 35 31  1  0
 36 37  2  0
 37 38  1  0
 39 38  2  0
 40 39  1  0
 41 15  1  0
 41 42  1  0
 41 51  1  0
 42 45  1  0
 43 47  1  0
 43 42  1  0
 44 43  2  0
 47 46  1  0
 49 47  1  0
 49 50  1  0
 49 48  1  0
 51 54  1  1
 51 52  1  0
 53 51  1  0
 55 64  2  0
 56 64  1  0
 57 62  1  0
 58 59  1  0
 58 57  1  0
 60 59  1  0
 60 69  1  0
 60 61  1  0
 62 56  1  0
 62 61  1  0
 63 56  2  0
 65 96  1  0
 66 67  2  0
 67 86  1  0
 68 67  1  0
 68 71  1  0
 69 66  1  0
 69 70  1  0
 70 68  2  0
 71 72  1  0
 72 73  2  0
 74 77  1  0
 74 73  1  0
 75 74  2  0
 76 75  1  0
 76 71  2  0
 77 78  1  0
 78 83  2  0
 78 79  1  0
 79 80  2  0
 80 81  1  0
 81 85  1  0
 82 81  2  0
 83 82  1  0
 84 83  1  0
 86 87  1  0
 87 90  1  0
 87 89  1  0
 88 86  2  0
 91 66  1  0
 91 92  1  0
 93 91  1  0
 95 94  2  0
 95 98  1  0
 96 95  1  0
 97 98  1  0
M  ISO  4  13 101  14 101  56 100  64 100
M  END
>  <TORSDO>  (82) 
F 23

>  <SCORE>  (82) 
-3.261

>  <name>  (82) 
81

>  <ligand_id>  (82) 
81

>  <original_smiles>  (82) 
[H]c1c([H])c([H])c2c(c1[H])C([H])([H])C([H])([H])C([H])([H])C2([H])N([H])C(=O)C1([H])N(C(=O)C([H])(N([H])C(=O)C([H])(N([H])C([H])([H])[H])C([H])([H])[H])C(C([H])([H])[H])(C([H])([H])[H])C([H])([H])[H])C([H])([H])c2c([H])c(OC([H])([H])C(=O)C(=O)N([H])c3c([H])n(C([H])([H])C(=O)C([H])([H])C([H])([H])[H])c(C([H])([H])N([H])C(=O)N4C([H])([H])C([H])([H])C([H])([H])C([H])(n5nc(-c6c([H])c([H])c(Oc7c([H])c([H])c(F)c([H])c7F)c([H])c6[H])c(C(=O)N([H])[H])c5N([H])[H])C4([H])[H])[n+]3[H])c([H])c([H])c2C1([H])[H]

>  <smiles>  (82) 
[H]c1c([H])c([H])c2c(c1[H])C([H])([H])C([H])([H])C([H])([H])C2([H])N([H])C(=O)C1([H])N(C(=O)C([H])(N([H])C(=O)C([H])(N([H])C([H])([H])[H])C([H])([H])[H])C(C([H])([H])[H])(C([H])([H])[H])C([H])([H])[H])C([H])([H])c2c([H])c(OC([H])([H])C(=O)C(=O)N([H])c3c([H])n(C([H])([H])C(=O)C([H])([H])C([H])([H])[H])c(C([H])([H])N([H])C(=O)N4C([H])([H])C([H])([H])C([H])([H])C([H])(n5nc(-c6c([H])c([H])c(Oc7c([H])c([H])c(F)c([H])c7F)c([H])c6[H])c(C(=O)N([H])[H])c5N([H])[H])C4([H])[H])[n+]3[H])c([H])c([H])c2C1([H])[H]

$$$$
82:0:0
     RDKit          3D

 92100  0  0  1  0  0  0  0  0999 V2000
  -28.9100  -21.6090   20.6710 N   0  0  0  0  0  0  0  0  0  0  0  0
  -28.9650  -21.9090   21.6410 H   0  0  0  0  0  0  0  0  0  0  0  0
  -28.9090  -19.6710   19.0860 C   0  0  0  0  0  3  0  0  0  0  0  0
  -29.3070  -18.3120   19.2730 C   0  0  0  0  0  0  0  0  0  0  0  0
  -29.7870  -18.1350   20.5440 C   0  0  0  0  0  0  0  0  0  0  0  0
  -29.1560  -20.2650   20.2920 C   0  0  0  0  0  0  0  0  0  0  0  0
  -29.6780  -19.3580   21.1920 O   0  0  0  0  0  0  0  0  0  0  0  0
  -29.2390  -17.3470   18.3230 F   0  0  0  0  0  0  0  0  0  0  0  0
  -30.4190  -16.9770   21.3150 C   0  0  0  0  0  2  0  0  0  0  0  0
  -30.6640  -14.5770   20.4830 C   0  0  0  0  0  0  0  0  0  0  0  0
  -30.4070  -12.3930   19.3450 C   0  0  0  0  0  2  0  0  0  0  0  0
  -29.4610  -12.5610   18.1390 C   0  0  0  0  0  2  0  0  0  0  0  0
  -27.9900  -12.3940   18.5720 C   0  0  0  0  0  2  0  0  0  0  0  0
  -27.6400  -13.2440   19.8230 C   0  0  0  0  0  3  0  0  0  0  0  0
  -28.6970  -13.0550   20.9320 C   0  0  0  0  0  2  0  0  0  0  0  0
  -30.0110  -13.3860   20.3580 N   0  0  0  0  0  0  0  0  0  0  0  0
  -31.8010  -14.7530   20.0390 O   0  0  0  0  0  0  0  0  0  0  0  0
  -29.9480  -15.6000   21.0130 N   0  0  0  0  0  0  0  0  0  0  0  0
  -29.0120  -15.3760   21.3110 H   0  0  0  0  0  0  0  0  0  0  0  0
  -25.2450  -13.8420   20.5420 C   0  0  0  0  0  0  0  0  0  0  0  0
  -24.1800  -13.0660   20.9140 C   0  0  0  0  0  0  0  0  0  0  0  0
  -24.6440  -11.7160   20.8810 C   0  0  0  0  0  0  0  0  0  0  0  0
  -26.2900  -12.9640   20.3060 N   0  0  0  0  0  0  0  0  0  0  0  0
  -25.9330  -11.6800   20.5690 N   0  0  0  0  0  0  0  0  0  0  0  0
  -23.9230  -10.4510   21.0690 C   0  0  0  0  0  0  0  0  0  0  0  0
  -24.3650   -9.4800   21.9950 C   0  0  0  0  0  3  0  0  0  0  0  0
  -23.6430   -8.2810   22.1730 C   0  0  0  0  0  3  0  0  0  0  0  0
  -22.4680   -8.0410   21.4220 C   0  0  0  0  0  0  0  0  0  0  0  0
  -22.0450   -9.0000   20.4850 C   0  0  0  0  0  3  0  0  0  0  0  0
  -22.7670  -10.1920   20.3060 C   0  0  0  0  0  3  0  0  0  0  0  0
  -21.7180   -6.8920   21.5070 O   0  0  0  0  0  0  0  0  0  0  0  0
  -21.6790   -6.1420   22.6550 C   0  0  0  0  0  0  0  0  0  0  0  0
  -21.2500   -6.6850   23.8850 C   0  0  0  0  0  3  0  0  0  0  0  0
  -21.1600   -5.8600   25.0250 C   0  0  0  0  0  3  0  0  0  0  0  0
  -21.4880   -4.4940   24.9340 C   0  0  0  0  0  0  0  0  0  0  0  0
  -21.9090   -3.9510   23.7080 C   0  0  0  0  0  3  0  0  0  0  0  0
  -22.0020   -4.7720   22.5710 C   0  0  0  0  0  0  0  0  0  0  0  0
  -22.3880   -4.2400   21.3870 F   0  0  0  0  0  0  0  0  0  0  0  0
  -21.3940   -3.7000   26.0260 F   0  0  0  0  0  0  0  0  0  0  0  0
  -22.7830  -13.5400   21.1910 C   0  0  0  0  0  0  0  0  0  0  0  0
  -22.0560  -12.8360   22.0520 N   0  0  0  0  0  0  0  0  0  0  0  0
  -22.3420  -14.5670   20.6780 O   0  0  0  0  0  0  0  0  0  0  0  0
  -22.4250  -12.0040   22.4880 H   0  0  0  0  0  0  0  0  0  0  0  0
  -21.1170  -13.1330   22.2780 H   0  0  0  0  0  0  0  0  0  0  0  0
  -25.4100  -15.2130   20.3640 N   0  0  0  0  0  0  0  0  0  0  0  0
  -24.6440  -15.8700   20.4650 H   0  0  0  0  0  0  0  0  0  0  0  0
  -26.2500  -15.6400   19.9960 H   0  0  0  0  0  0  0  0  0  0  0  0
  -28.7480  -22.7250   19.7040 C   0  0  0  0  0  2  0  0  0  0  0  0
  -28.4850  -24.1310   20.3440 C   0  0  0  0  0  0  0  0  0  0  0  0
  -28.2340  -24.2120   21.5530 O   0  0  0  0  0  0  0  0  0  0  0  0
  -28.5650  -25.4120   19.4480 C   0  0  0  0  0  2  0  0  0  0  0  0
  -28.4150  -26.6720   20.1720 O   0  0  0  0  0  0  0  0  0  0  0  0
  -24.5820  -31.9000   23.2110 C   0  0  0  0  0  0  0  0  0  0  0  0
  -27.2330  -27.4050   20.1410 C   0  0  0  0  0  0  0  0  0  0  0  0
  -23.3810  -30.4920   21.5690 C   0  0  0  0  0  3  0  0  0  0  0  0
  -24.8370  -28.9450   20.1550 C   0  0  0  0  0  0  0  0  0  0  0  0
  -25.9140  -30.8390   21.3790 C   0  0  0  0  0  2  0  0  0  0  0  0
  -25.9990  -29.4630   20.7370 C   0  0  0  0  0  0  0  0  0  0  0  0
  -27.1970  -28.7030   20.7230 C   0  0  0  0  0  3  0  0  0  0  0  0
  -26.0410  -26.9050   19.5690 C   0  0  0  0  0  3  0  0  0  0  0  0
  -24.8560  -27.6660   19.5690 C   0  0  0  0  0  3  0  0  0  0  0  0
  -23.5940  -29.8060   20.1950 C   0  0  0  0  0  2  0  0  0  0  0  0
  -24.6440  -31.0930   22.1100 N   0  0  0  0  0  0  0  0  0  0  0  0
  -23.4990  -32.1750   23.7460 O   0  0  0  0  0  0  0  0  0  0  0  0
  -22.7250  -29.4770   22.5350 C   0  0  0  0  0  0  0  0  0  0  0  0
  -21.4000  -29.3020   22.4120 N   0  0  0  0  0  0  0  0  0  0  0  0
  -23.4080  -28.8470   23.3490 O   0  0  0  0  0  0  0  0  0  0  0  0
  -20.9080  -29.8600   21.7280 H   0  0  0  0  0  0  0  0  0  0  0  0
  -18.0170  -28.1380   22.9380 C   0  0  0  0  0  0  0  0  0  0  0  0
  -20.5820  -28.3670   23.1870 C   0  0  0  0  0  3  0  0  0  0  0  0
  -20.6640  -26.9390   22.6010 C   0  0  0  0  0  2  0  0  0  0  0  0
  -19.5490  -26.6360   21.5960 C   0  0  0  0  0  2  0  0  0  0  0  0
  -18.1750  -26.7900   22.2530 C   0  0  0  0  0  2  0  0  0  0  0  0
  -19.1490  -28.8830   23.3630 C   0  0  0  0  0  0  0  0  0  0  0  0
  -18.9510  -30.1450   23.9650 C   0  0  0  0  0  3  0  0  0  0  0  0
  -17.6540  -30.6610   24.1470 C   0  0  0  0  0  3  0  0  0  0  0  0
  -16.5360  -29.9100   23.7420 C   0  0  0  0  0  3  0  0  0  0  0  0
  -16.7190  -28.6510   23.1420 C   0  0  0  0  0  3  0  0  0  0  0  0
  -25.8650  -32.5350   23.8320 C   0  0  0  0  0  3  0  0  0  0  0  0
  -25.5520  -33.9320   24.1640 N   0  0  0  0  0  0  0  0  0  0  0  0
  -25.8870  -34.9870   23.4100 C   0  0  0  0  0  0  0  0  0  0  0  0
  -26.5610  -34.8880   22.3820 O   0  0  0  0  0  0  0  0  0  0  0  0
  -24.9540  -34.0830   24.9630 H   0  0  0  0  0  0  0  0  0  0  0  0
  -24.1600  -36.7790   23.0480 C   0  0  0  0  0  1  0  0  0  0  0  0
  -25.3940  -36.3730   23.8690 C   0  0  0  0  0  3  0  0  0  0  0  0
  -27.5170  -37.2550   24.7280 C   0  0  0  0  0  1  0  0  0  0  0  0
  -26.4260  -37.4270   23.7730 N   0  0  0  0  0  0  0  0  0  0  0  0
  -26.0190  -38.3460   23.9200 H   0  0  0  0  0  0  0  0  0  0  0  0
  -26.3860  -31.7640   25.1070 C   0  0  1  0  0  0  0  0  0  0  0  0
  -25.2930  -31.5260   26.1750 C   0  0  0  0  0  1  0  0  0  0  0  0
  -26.9740  -30.3890   24.7140 C   0  0  0  0  0  1  0  0  0  0  0  0
  -27.5340  -32.5630   25.7700 C   0  0  0  0  0  1  0  0  0  0  0  0
  1  2  1  0
  3  4  1  0
  3  6  2  0
  4  5  2  0
  5  7  1  0
  5  9  1  0
  6  1  1  0
  6  7  1  0
  8  4  1  0
 10 18  1  0
 11 16  1  0
 12 13  1  0
 12 11  1  0
 14 13  1  0
 14 23  1  0
 14 15  1  0
 16 10  1  0
 16 15  1  0
 17 10  2  0
 18 19  1  0
 18  9  1  0
 20 21  2  0
 21 40  1  0
 22 21  1  0
 22 25  1  0
 23 20  1  0
 23 24  1  0
 24 22  2  0
 25 26  1  0
 26 27  2  0
 28 31  1  0
 28 27  1  0
 29 28  2  0
 30 29  1  0
 30 25  2  0
 31 32  1  0
 32 33  1  0
 33 34  2  0
 35 34  1  0
 35 39  1  0
 36 35  2  0
 37 32  2  0
 37 36  1  0
 38 37  1  0
 40 41  1  0
 41 44  1  0
 41 43  1  0
 42 40  2  0
 45 46  1  0
 45 20  1  0
 47 45  1  0
 48 49  1  0
 48  1  1  0
 49 50  2  0
 51 52  1  0
 51 49  1  0
 53 64  2  0
 54 52  1  0
 54 59  1  0
 55 63  1  0
 55 65  1  0
 56 62  1  0
 56 58  1  0
 57 63  1  0
 58 57  1  0
 59 58  2  0
 60 54  2  0
 61 60  1  0
 61 56  2  0
 62 55  1  0
 63 53  1  0
 65 67  2  0
 66 65  1  0
 68 66  1  0
 69 78  2  0
 69 74  1  0
 70 66  1  0
 70 74  1  0
 71 70  1  0
 72 73  1  0
 72 71  1  0
 73 69  1  0
 74 75  2  0
 75 76  1  0
 77 76  2  0
 78 77  1  0
 79 53  1  0
 79 80  1  0
 79 89  1  0
 80 83  1  0
 81 85  1  0
 81 80  1  0
 82 81  2  0
 85 84  1  0
 87 85  1  0
 87 88  1  0
 87 86  1  0
 89 92  1  1
 89 90  1  0
 91 89  1  0
M  ISO  4  10 100  18 100  51 101  52 101
M  END
>  <TORSDO>  (83) 
F 21

>  <SCORE>  (83) 
-13.641

>  <name>  (83) 
82

>  <ligand_id>  (83) 
82

>  <original_smiles>  (83) 
[H]c1c([H])c([H])c2c(c1[H])C([H])([H])C([H])([H])C([H])([H])C2([H])N([H])C(=O)C1([H])N(C(=O)C([H])(N([H])C(=O)C([H])(N([H])C([H])([H])[H])C([H])([H])[H])C(C([H])([H])[H])(C([H])([H])[H])C([H])([H])[H])C([H])([H])c2c([H])c(OC([H])([H])C(=O)C([H])([H])N([H])c3oc(C([H])([H])N([H])C(=O)N4C([H])([H])C([H])([H])C([H])([H])C([H])(n5nc(-c6c([H])c([H])c(Oc7c([H])c([H])c(F)c([H])c7F)c([H])c6[H])c(C(=O)N([H])[H])c5N([H])[H])C4([H])[H])c(F)c3[H])c([H])c([H])c2C1([H])[H]

>  <smiles>  (83) 
[H]c1c([H])c([H])c2c(c1[H])C([H])([H])C([H])([H])C([H])([H])C2([H])N([H])C(=O)C1([H])N(C(=O)C([H])(N([H])C(=O)C([H])(N([H])C([H])([H])[H])C([H])([H])[H])C(C([H])([H])[H])(C([H])([H])[H])C([H])([H])[H])C([H])([H])c2c([H])c(OC([H])([H])C(=O)C([H])([H])N([H])c3oc(C([H])([H])N([H])C(=O)N4C([H])([H])C([H])([H])C([H])([H])C([H])(n5nc(-c6c([H])c([H])c(Oc7c([H])c([H])c(F)c([H])c7F)c([H])c6[H])c(C(=O)N([H])[H])c5N([H])[H])C4([H])[H])c(F)c3[H])c([H])c([H])c2C1([H])[H]

$$$$
83:0:0
     RDKit          3D

 96104  0  0  1  0  0  0  0  0999 V2000
  -29.1950  -23.2430   19.9670 C   0  0  0  0  0  0  0  0  0  0  0  0
  -29.3260  -21.9840   20.5110 N   0  0  0  0  0  0  0  0  0  0  0  0
  -29.2320  -23.4510   18.7530 O   0  0  0  0  0  0  0  0  0  0  0  0
  -29.2790  -22.0310   21.5230 H   0  0  0  0  0  0  0  0  0  0  0  0
  -29.3910  -20.3290   18.6160 C   0  0  0  0  0  3  0  0  0  0  0  0
  -29.9080  -19.4130   20.6110 C   0  0  0  0  0  0  0  0  0  0  0  0
  -29.5240  -20.6500   19.9350 C   0  0  0  0  0  0  0  0  0  0  0  0
  -29.9990  -18.4250   19.6340 C   0  0  0  0  0  0  0  0  0  0  0  0
  -29.6750  -19.0040   18.4280 O   0  0  0  0  0  0  0  0  0  0  0  0
  -30.2050  -19.1930   22.0780 C   0  0  1  0  0  0  0  0  0  0  0  0
  -30.0590  -20.3280   22.7620 F   0  0  0  0  0  0  0  0  0  0  0  0
  -29.3700  -18.2810   22.5790 F   0  0  0  0  0  0  0  0  0  0  0  0
  -31.4580  -18.7640   22.2270 F   0  0  0  0  0  0  0  0  0  0  0  0
  -30.3870  -16.9770   19.4730 C   0  0  0  0  0  3  0  0  0  0  0  0
  -30.3990  -15.9480   20.2780 N   0  0  0  0  0  0  0  0  0  0  0  0
  -31.0550  -14.7790   19.7850 C   0  0  0  0  0  0  0  0  0  0  0  0
  -30.6080  -12.6140   18.6480 C   0  0  0  0  0  2  0  0  0  0  0  0
  -29.5670  -12.8410   17.5320 C   0  0  0  0  0  2  0  0  0  0  0  0
  -28.1420  -12.6910   18.0930 C   0  0  0  0  0  2  0  0  0  0  0  0
  -27.9260  -13.5030   19.3980 C   0  0  0  0  0  3  0  0  0  0  0  0
  -29.0820  -13.3020   20.4000 C   0  0  0  0  0  2  0  0  0  0  0  0
  -30.3420  -13.6090   19.7120 N   0  0  0  0  0  0  0  0  0  0  0  0
  -32.1780  -14.8170   19.2750 O   0  0  0  0  0  0  0  0  0  0  0  0
  -25.6310  -14.1010   20.3780 C   0  0  0  0  0  0  0  0  0  0  0  0
  -24.5870  -13.3280   20.8070 C   0  0  0  0  0  0  0  0  0  0  0  0
  -25.0140  -11.9730   20.6670 C   0  0  0  0  0  0  0  0  0  0  0  0
  -26.6280  -13.2160   20.0010 N   0  0  0  0  0  0  0  0  0  0  0  0
  -26.2690  -11.9280   20.2360 N   0  0  0  0  0  0  0  0  0  0  0  0
  -24.2800  -10.7160   20.8660 C   0  0  0  0  0  0  0  0  0  0  0  0
  -24.7140   -9.7450   21.7940 C   0  0  0  0  0  3  0  0  0  0  0  0
  -23.9790   -8.5530   21.9800 C   0  0  0  0  0  3  0  0  0  0  0  0
  -22.7970   -8.3250   21.2370 C   0  0  0  0  0  0  0  0  0  0  0  0
  -22.3810   -9.2870   20.2980 C   0  0  0  0  0  3  0  0  0  0  0  0
  -23.1160  -10.4680   20.1100 C   0  0  0  0  0  3  0  0  0  0  0  0
  -22.0320   -7.1870   21.3320 O   0  0  0  0  0  0  0  0  0  0  0  0
  -21.8930   -6.5100   22.5170 C   0  0  0  0  0  0  0  0  0  0  0  0
  -21.3850   -7.1360   23.6760 C   0  0  0  0  0  3  0  0  0  0  0  0
  -21.1930   -6.3860   24.8530 C   0  0  0  0  0  3  0  0  0  0  0  0
  -21.4970   -5.0120   24.8720 C   0  0  0  0  0  0  0  0  0  0  0  0
  -21.9980   -4.3870   23.7170 C   0  0  0  0  0  3  0  0  0  0  0  0
  -22.1930   -5.1330   22.5420 C   0  0  0  0  0  0  0  0  0  0  0  0
  -22.6540   -4.5210   21.4260 F   0  0  0  0  0  0  0  0  0  0  0  0
  -21.3060   -4.2900   26.0000 F   0  0  0  0  0  0  0  0  0  0  0  0
  -23.2340  -13.8180   21.2360 C   0  0  0  0  0  0  0  0  0  0  0  0
  -22.5920  -13.1120   22.1610 N   0  0  0  0  0  0  0  0  0  0  0  0
  -22.7570  -14.8580   20.7860 O   0  0  0  0  0  0  0  0  0  0  0  0
  -22.9940  -12.2690   22.5410 H   0  0  0  0  0  0  0  0  0  0  0  0
  -21.6880  -13.4200   22.4920 H   0  0  0  0  0  0  0  0  0  0  0  0
  -25.8110  -15.4760   20.2600 N   0  0  0  0  0  0  0  0  0  0  0  0
  -25.0850  -16.1410   20.5070 H   0  0  0  0  0  0  0  0  0  0  0  0
  -26.6690  -15.9170   19.9520 H   0  0  0  0  0  0  0  0  0  0  0  0
  -28.8870  -25.6660   20.8900 C   0  0  0  0  0  3  0  0  0  0  0  0
  -29.0090  -24.2950   21.0110 C   0  0  0  0  0  0  0  0  0  0  0  0
  -28.9390  -23.8350   22.2750 O   0  0  0  0  0  0  0  0  0  0  0  0
  -28.7950  -24.5760   22.8470 H   0  0  0  0  0  0  0  0  0  0  0  0
  -28.8790  -26.5710   19.8210 O   0  0  0  0  0  0  0  0  0  0  0  0
  -24.8540  -31.5990   23.0550 C   0  0  0  0  0  0  0  0  0  0  0  0
  -27.7500  -27.3920   19.7950 C   0  0  0  0  0  0  0  0  0  0  0  0
  -23.7250  -30.1510   21.4040 C   0  0  0  0  0  3  0  0  0  0  0  0
  -25.2610  -28.7780   19.8880 C   0  0  0  0  0  0  0  0  0  0  0  0
  -26.2170  -30.7010   21.1600 C   0  0  0  0  0  2  0  0  0  0  0  0
  -26.3990  -29.3550   20.4700 C   0  0  0  0  0  0  0  0  0  0  0  0
  -27.6500  -28.6720   20.4190 C   0  0  0  0  0  3  0  0  0  0  0  0
  -26.5930  -26.8610   19.1920 C   0  0  0  0  0  3  0  0  0  0  0  0
  -25.3580  -27.5360   19.2400 C   0  0  0  0  0  3  0  0  0  0  0  0
  -23.9550  -29.5370   19.9970 C   0  0  0  0  0  2  0  0  0  0  0  0
  -24.9510  -30.8330   21.9300 N   0  0  0  0  0  0  0  0  0  0  0  0
  -23.7660  -31.7660   23.6280 O   0  0  0  0  0  0  0  0  0  0  0  0
  -23.1790  -29.0550   22.3480 C   0  0  0  0  0  0  0  0  0  0  0  0
  -21.8840  -28.7250   22.2080 N   0  0  0  0  0  0  0  0  0  0  0  0
  -23.9200  -28.5060   23.1690 O   0  0  0  0  0  0  0  0  0  0  0  0
  -21.3380  -29.2310   21.5240 H   0  0  0  0  0  0  0  0  0  0  0  0
  -18.6890  -27.0720   22.5950 C   0  0  0  0  0  0  0  0  0  0  0  0
  -21.1720  -27.6910   22.9620 C   0  0  0  0  0  3  0  0  0  0  0  0
  -21.4980  -26.2800   22.4190 C   0  0  0  0  0  2  0  0  0  0  0  0
  -20.4960  -25.7950   21.3660 C   0  0  0  0  0  2  0  0  0  0  0  0
  -19.0810  -25.7530   21.9510 C   0  0  0  0  0  2  0  0  0  0  0  0
  -19.6710  -27.9900   23.0550 C   0  0  0  0  0  0  0  0  0  0  0  0
  -19.2530  -29.2170   23.6120 C   0  0  0  0  0  3  0  0  0  0  0  0
  -17.8850  -29.5310   23.7170 C   0  0  0  0  0  3  0  0  0  0  0  0
  -16.9170  -28.6140   23.2730 C   0  0  0  0  0  3  0  0  0  0  0  0
  -17.3200  -27.3870   22.7180 C   0  0  0  0  0  3  0  0  0  0  0  0
  -26.0960  -32.3210   23.6640 C   0  0  0  0  0  3  0  0  0  0  0  0
  -25.6760  -33.6740   24.0520 N   0  0  0  0  0  0  0  0  0  0  0  0
  -25.9020  -34.7790   23.3290 C   0  0  0  0  0  0  0  0  0  0  0  0
  -26.5530  -34.7720   22.2810 O   0  0  0  0  0  0  0  0  0  0  0  0
  -25.0880  -33.7490   24.8690 H   0  0  0  0  0  0  0  0  0  0  0  0
  -24.0220  -36.4330   23.0790 C   0  0  0  0  0  1  0  0  0  0  0  0
  -25.3090  -36.1030   23.8510 C   0  0  0  0  0  3  0  0  0  0  0  0
  -27.3780  -37.1320   24.6820 C   0  0  0  0  0  1  0  0  0  0  0  0
  -26.2470  -37.2440   23.7640 N   0  0  0  0  0  0  0  0  0  0  0  0
  -25.7680  -38.1180   23.9590 H   0  0  0  0  0  0  0  0  0  0  0  0
  -26.7170  -31.5560   24.8960 C   0  0  1  0  0  0  0  0  0  0  0  0
  -25.6830  -31.1800   25.9830 C   0  0  0  0  0  1  0  0  0  0  0  0
  -27.4070  -30.2510   24.4380 C   0  0  0  0  0  1  0  0  0  0  0  0
  -27.8140  -32.4250   25.5540 C   0  0  0  0  0  1  0  0  0  0  0  0
  1  2  1  0
  1 53  1  0
  2  4  1  0
  3  1  2  0
  5  7  2  0
  6 10  1  0
  7  2  1  0
  7  6  1  0
  8  6  2  0
  9  5  1  0
  9  8  1  0
 10 13  1  6
 10 12  1  0
 10 11  1  0
 14  8  1  0
 14 15  2  0
 16 15  1  0
 17 22  1  0
 18 19  1  0
 18 17  1  0
 20 19  1  0
 20 27  1  0
 20 21  1  0
 22 16  1  0
 22 21  1  0
 23 16  2  0
 24 25  2  0
 25 44  1  0
 26 25  1  0
 26 29  1  0
 27 28  1  0
 27 24  1  0
 28 26  2  0
 29 30  1  0
 30 31  2  0
 32 35  1  0
 32 31  1  0
 33 32  2  0
 34 33  1  0
 34 29  2  0
 35 36  1  0
 36 41  2  0
 36 37  1  0
 37 38  2  0
 38 39  1  0
 39 43  1  0
 40 39  2  0
 41 40  1  0
 42 41  1  0
 44 45  1  0
 45 48  1  0
 45 47  1  0
 46 44  2  0
 49 24  1  0
 49 50  1  0
 51 49  1  0
 52 53  2  0
 53 54  1  0
 54 55  1  0
 56 52  1  0
 57 68  2  0
 58 56  1  0
 58 63  1  0
 59 67  1  0
 59 69  1  0
 60 66  1  0
 60 62  1  0
 61 67  1  0
 62 61  1  0
 63 62  2  0
 64 65  1  0
 64 58  2  0
 65 60  2  0
 66 59  1  0
 67 57  1  0
 69 71  2  0
 70 69  1  0
 72 70  1  0
 73 82  2  0
 73 78  1  0
 74 70  1  0
 74 78  1  0
 75 74  1  0
 76 77  1  0
 76 75  1  0
 77 73  1  0
 78 79  2  0
 79 80  1  0
 81 80  2  0
 82 81  1  0
 83 57  1  0
 83 84  1  0
 83 93  1  0
 84 87  1  0
 85 89  1  0
 85 84  1  0
 86 85  2  0
 89 88  1  0
 91 89  1  0
 91 92  1  0
 91 90  1  0
 93 96  1  1
 93 94  1  0
 95 93  1  0
M  ISO  4  15 100  16 100  52 101  56 101
M  END
>  <TORSDO>  (84) 
F 21

>  <SCORE>  (84) 
-10.646

>  <name>  (84) 
83

>  <ligand_id>  (84) 
83

>  <original_smiles>  (84) 
[H]OC(C(=O)N([H])c1c([H])oc(C([H])=NC(=O)N2C([H])([H])C([H])([H])C([H])([H])C([H])(n3nc(-c4c([H])c([H])c(Oc5c([H])c([H])c(F)c([H])c5F)c([H])c4[H])c(C(=O)N([H])[H])c3N([H])[H])C2([H])[H])c1C(F)(F)F)=C([H])Oc1c([H])c([H])c2c(c1[H])C([H])([H])N(C(=O)C([H])(N([H])C(=O)C([H])(N([H])C([H])([H])[H])C([H])([H])[H])C(C([H])([H])[H])(C([H])([H])[H])C([H])([H])[H])C([H])(C(=O)N([H])C1([H])c3c([H])c([H])c([H])c([H])c3C([H])([H])C([H])([H])C1([H])[H])C2([H])[H]

>  <smiles>  (84) 
[H]OC(C(=O)N([H])c1c([H])oc(C([H])=NC(=O)N2C([H])([H])C([H])([H])C([H])([H])C([H])(n3nc(-c4c([H])c([H])c(Oc5c([H])c([H])c(F)c([H])c5F)c([H])c4[H])c(C(=O)N([H])[H])c3N([H])[H])C2([H])[H])c1C(F)(F)F)=C([H])Oc1c([H])c([H])c2c(c1[H])C([H])([H])N(C(=O)C([H])(N([H])C(=O)C([H])(N([H])C([H])([H])[H])C([H])([H])[H])C(C([H])([H])[H])(C([H])([H])[H])C([H])([H])[H])C([H])(C(=O)N([H])C1([H])c3c([H])c([H])c([H])c([H])c3C([H])([H])C([H])([H])C1([H])[H])C2([H])[H]

$$$$
84:0:0
     RDKit          3D

 96105  0  0  1  0  0  0  0  0999 V2000
  -29.3770  -18.2760   20.1690 C   0  0  0  0  0  3  0  0  0  0  0  0
  -30.3660  -17.0250   21.9950 C   0  0  0  0  0  3  0  0  0  0  0  0
  -30.2960  -19.4950   22.0830 C   0  0  0  0  0  0  0  0  0  0  0  0
  -29.7600  -16.9880   20.7310 C   0  0  0  0  0  0  0  0  0  0  0  0
  -29.6260  -19.5630   20.8130 C   0  0  0  0  0  0  0  0  0  0  0  0
  -30.6100  -18.2350   22.6610 C   0  0  0  0  0  0  0  0  0  0  0  0
  -31.1820  -18.1460   23.8860 F   0  0  0  0  0  0  0  0  0  0  0  0
  -30.2890  -14.5390   20.0180 C   0  0  0  0  0  0  0  0  0  0  0  0
  -30.0400  -12.3280   18.8840 C   0  0  0  0  0  2  0  0  0  0  0  0
  -28.9850  -12.4380   17.7630 C   0  0  0  0  0  2  0  0  0  0  0  0
  -27.5670  -12.2190   18.3280 C   0  0  0  0  0  2  0  0  0  0  0  0
  -27.2950  -13.0400   19.6160 C   0  0  0  0  0  3  0  0  0  0  0  0
  -28.4570  -12.9070   20.6230 C   0  0  0  0  0  2  0  0  0  0  0  0
  -29.6760  -13.3160   19.9180 N   0  0  0  0  0  0  0  0  0  0  0  0
  -31.4710  -14.6700   19.6860 O   0  0  0  0  0  0  0  0  0  0  0  0
  -29.4690  -15.6500   20.1710 N   0  0  0  0  0  0  0  0  0  0  0  0
  -28.4890  -15.4590   20.0290 H   0  0  0  0  0  0  0  0  0  0  0  0
  -24.9660  -13.5600   20.5560 C   0  0  0  0  0  0  0  0  0  0  0  0
  -23.9530  -12.7520   20.9950 C   0  0  0  0  0  0  0  0  0  0  0  0
  -24.4480  -11.4140   20.9010 C   0  0  0  0  0  0  0  0  0  0  0  0
  -26.0070  -12.7120   20.2160 N   0  0  0  0  0  0  0  0  0  0  0  0
  -25.7090  -11.4160   20.4900 N   0  0  0  0  0  0  0  0  0  0  0  0
  -23.7720  -10.1290   21.1240 C   0  0  0  0  0  0  0  0  0  0  0  0
  -24.2580   -9.1910   22.0610 C   0  0  0  0  0  3  0  0  0  0  0  0
  -23.5790   -7.9720   22.2700 C   0  0  0  0  0  3  0  0  0  0  0  0
  -22.4020   -7.6790   21.5400 C   0  0  0  0  0  0  0  0  0  0  0  0
  -21.9370   -8.6050   20.5900 C   0  0  0  0  0  3  0  0  0  0  0  0
  -22.6170   -9.8170   20.3800 C   0  0  0  0  0  3  0  0  0  0  0  0
  -21.6940   -6.5060   21.6560 O   0  0  0  0  0  0  0  0  0  0  0  0
  -21.6590   -5.8020   22.8320 C   0  0  0  0  0  0  0  0  0  0  0  0
  -21.1470   -6.3630   24.0220 C   0  0  0  0  0  3  0  0  0  0  0  0
  -21.0640   -5.5810   25.1900 C   0  0  0  0  0  3  0  0  0  0  0  0
  -21.4850   -4.2380   25.1720 C   0  0  0  0  0  0  0  0  0  0  0  0
  -21.9900   -3.6750   23.9860 C   0  0  0  0  0  3  0  0  0  0  0  0
  -22.0740   -4.4550   22.8190 C   0  0  0  0  0  0  0  0  0  0  0  0
  -22.5420   -3.9020   21.6740 F   0  0  0  0  0  0  0  0  0  0  0  0
  -21.3990   -3.4840   26.2920 F   0  0  0  0  0  0  0  0  0  0  0  0
  -22.5720  -13.1860   21.3850 C   0  0  0  0  0  0  0  0  0  0  0  0
  -21.9330  -12.4530   22.2900 N   0  0  0  0  0  0  0  0  0  0  0  0
  -22.0680  -14.2080   20.9240 O   0  0  0  0  0  0  0  0  0  0  0  0
  -22.3550  -11.6220   22.6800 H   0  0  0  0  0  0  0  0  0  0  0  0
  -21.0090  -12.7250   22.5980 H   0  0  0  0  0  0  0  0  0  0  0  0
  -25.0790  -14.9370   20.3930 N   0  0  0  0  0  0  0  0  0  0  0  0
  -24.3000  -15.5650   20.5630 H   0  0  0  0  0  0  0  0  0  0  0  0
  -25.8800  -15.4100   19.9960 H   0  0  0  0  0  0  0  0  0  0  0  0
  -32.2700  -22.0840   23.5620 C   0  0  0  0  0  2  0  0  0  0  0  0
  -31.6640  -20.7800   24.0790 C   0  0  0  0  0  2  0  0  0  0  0  0
  -31.9010  -21.5860   22.1650 C   0  0  0  0  0  2  0  0  0  0  0  0
  -30.7770  -20.7570   22.8090 C   0  0  0  0  0  3  0  0  0  0  0  0
  -29.3230  -20.8360   20.1650 N   0  0  0  0  0  0  0  0  0  0  0  0
  -29.3440  -20.8250   19.1500 H   0  0  0  0  0  0  0  0  0  0  0  0
  -28.5510  -22.0380   20.7110 C   0  0  0  0  0  2  0  0  0  0  0  0
  -28.8260  -23.5270   20.1660 C   0  0  0  0  0  0  0  0  0  0  0  0
  -29.6850  -23.6990   19.2950 O   0  0  0  0  0  0  0  0  0  0  0  0
  -27.9720  -24.7700   20.7150 C   0  0  0  0  0  2  0  0  0  0  0  0
  -28.3110  -26.1730   20.2760 O   0  0  0  0  0  0  0  0  0  0  0  0
  -24.5640  -31.7220   23.1030 C   0  0  0  0  0  0  0  0  0  0  0  0
  -27.2370  -27.0880   20.1890 C   0  0  0  0  0  0  0  0  0  0  0  0
  -23.4080  -30.3180   21.4360 C   0  0  0  0  0  3  0  0  0  0  0  0
  -24.8960  -28.7460   20.0680 C   0  0  0  0  0  0  0  0  0  0  0  0
  -25.9580  -30.6100   21.3400 C   0  0  0  0  0  2  0  0  0  0  0  0
  -26.0510  -29.2240   20.7030 C   0  0  0  0  0  0  0  0  0  0  0  0
  -27.2300  -28.4090   20.7480 C   0  0  0  0  0  3  0  0  0  0  0  0
  -26.0640  -26.6760   19.5180 C   0  0  0  0  0  3  0  0  0  0  0  0
  -24.9080  -27.4810   19.4630 C   0  0  0  0  0  3  0  0  0  0  0  0
  -23.6640  -29.6320   20.0670 C   0  0  0  0  0  2  0  0  0  0  0  0
  -24.6610  -30.8990   22.0180 N   0  0  0  0  0  0  0  0  0  0  0  0
  -23.4630  -32.0120   23.5960 O   0  0  0  0  0  0  0  0  0  0  0  0
  -22.7050  -29.3110   22.3780 C   0  0  0  0  0  0  0  0  0  0  0  0
  -21.3750  -29.1820   22.2440 N   0  0  0  0  0  0  0  0  0  0  0  0
  -23.3580  -28.6510   23.1900 O   0  0  0  0  0  0  0  0  0  0  0  0
  -20.9080  -29.7670   21.5660 H   0  0  0  0  0  0  0  0  0  0  0  0
  -17.9460  -28.1670   22.7860 C   0  0  0  0  0  0  0  0  0  0  0  0
  -20.5200  -28.2650   22.9980 C   0  0  0  0  0  3  0  0  0  0  0  0
  -20.5230  -26.8520   22.3680 C   0  0  0  0  0  2  0  0  0  0  0  0
  -19.3810  -26.6340   21.3710 C   0  0  0  0  0  2  0  0  0  0  0  0
  -18.0250  -26.8370   22.0550 C   0  0  0  0  0  2  0  0  0  0  0  0
  -19.1190  -28.8440   23.2140 C   0  0  0  0  0  0  0  0  0  0  0  0
  -18.9900  -30.0930   23.8580 C   0  0  0  0  0  3  0  0  0  0  0  0
  -17.7210  -30.6620   24.0790 C   0  0  0  0  0  3  0  0  0  0  0  0
  -16.5640  -29.9780   23.6690 C   0  0  0  0  0  3  0  0  0  0  0  0
  -16.6770  -28.7320   23.0270 C   0  0  0  0  0  3  0  0  0  0  0  0
  -25.8260  -32.3520   23.7630 C   0  0  0  0  0  3  0  0  0  0  0  0
  -25.4960  -33.7420   24.1140 N   0  0  0  0  0  0  0  0  0  0  0  0
  -25.8290  -34.8120   23.3830 C   0  0  0  0  0  0  0  0  0  0  0  0
  -26.5140  -34.7360   22.3590 O   0  0  0  0  0  0  0  0  0  0  0  0
  -24.8840  -33.8740   24.9060 H   0  0  0  0  0  0  0  0  0  0  0  0
  -24.0910  -36.5980   23.0390 C   0  0  0  0  0  1  0  0  0  0  0  0
  -25.3220  -36.1870   23.8610 C   0  0  0  0  0  3  0  0  0  0  0  0
  -27.4280  -37.0770   24.7540 C   0  0  0  0  0  1  0  0  0  0  0  0
  -26.3470  -37.2510   23.7880 N   0  0  0  0  0  0  0  0  0  0  0  0
  -25.9290  -38.1640   23.9450 H   0  0  0  0  0  0  0  0  0  0  0  0
  -26.3210  -31.5630   25.0380 C   0  0  1  0  0  0  0  0  0  0  0  0
  -25.2030  -31.2940   26.0730 C   0  0  0  0  0  1  0  0  0  0  0  0
  -26.9310  -30.2000   24.6380 C   0  0  0  0  0  1  0  0  0  0  0  0
  -27.4440  -32.3610   25.7430 C   0  0  0  0  0  1  0  0  0  0  0  0
  1  4  2  0
  1  5  1  0
  2  6  2  0
  3  6  1  0
  3 49  1  0
  4  2  1  0
  5  3  2  0
  6  7  1  0
  8 16  1  0
  9 14  1  0
 10 11  1  0
 10  9  1  0
 12 11  1  0
 12 21  1  0
 12 13  1  0
 14  8  1  0
 14 13  1  0
 15  8  2  0
 16  4  1  0
 17 16  1  0
 18 19  2  0
 19 38  1  0
 20 19  1  0
 20 23  1  0
 21 22  1  0
 21 18  1  0
 22 20  2  0
 23 24  1  0
 24 25  2  0
 26 29  1  0
 26 25  1  0
 27 26  2  0
 28 27  1  0
 28 23  2  0
 29 30  1  0
 30 31  1  0
 31 32  2  0
 33 32  1  0
 33 37  1  0
 34 33  2  0
 35 30  2  0
 35 34  1  0
 36 35  1  0
 38 39  1  0
 39 42  1  0
 39 41  1  0
 40 38  2  0
 43 18  1  0
 43 44  1  0
 45 43  1  0
 46 47  1  0
 48 49  1  0
 48 46  1  0
 49 47  1  0
 50 52  1  0
 50  5  1  0
 51 50  1  0
 53 52  1  0
 53 55  1  0
 54 53  2  0
 56 55  1  0
 57 68  2  0
 58 56  1  0
 58 63  1  0
 59 67  1  0
 59 69  1  0
 60 62  1  0
 61 67  1  0
 62 63  2  0
 62 61  1  0
 64 58  2  0
 65 64  1  0
 65 60  2  0
 66 60  1  0
 66 59  1  0
 67 57  1  0
 69 71  2  0
 70 69  1  0
 72 70  1  0
 73 82  2  0
 73 78  1  0
 74 70  1  0
 74 78  1  0
 75 74  1  0
 76 77  1  0
 76 75  1  0
 77 73  1  0
 78 79  2  0
 79 80  1  0
 81 80  2  0
 82 81  1  0
 83 57  1  0
 83 84  1  0
 83 93  1  0
 84 87  1  0
 85 89  1  0
 85 84  1  0
 86 85  2  0
 89 88  1  0
 91 89  1  0
 91 92  1  0
 91 90  1  0
 93 96  1  1
 93 94  1  0
 95 93  1  0
M  ISO  4   8 100  16 100  55 101  56 101
M  END
>  <TORSDO>  (85) 
F 21

>  <SCORE>  (85) 
-11.640

>  <name>  (85) 
84

>  <ligand_id>  (85) 
84

>  <original_smiles>  (85) 
[H]c1c([H])c([H])c2c(c1[H])C([H])([H])C([H])([H])C([H])([H])C2([H])N([H])C(=O)C1([H])N(C(=O)C([H])(N([H])C(=O)C([H])(N([H])C([H])([H])[H])C([H])([H])[H])C(C([H])([H])[H])(C([H])([H])[H])C([H])([H])[H])C([H])([H])c2c([H])c(OC([H])([H])C(=O)C([H])([H])N([H])c3c([H])c(N([H])C(=O)N4C([H])([H])C([H])([H])C([H])([H])C([H])(n5nc(-c6c([H])c([H])c(Oc7c([H])c([H])c(F)c([H])c7F)c([H])c6[H])c(C(=O)N([H])[H])c5N([H])[H])C4([H])[H])c([H])c(F)c3C3([H])C([H])([H])C([H])([H])C3([H])[H])c([H])c([H])c2C1([H])[H]

>  <smiles>  (85) 
[H]c1c([H])c([H])c2c(c1[H])C([H])([H])C([H])([H])C([H])([H])C2([H])N([H])C(=O)C1([H])N(C(=O)C([H])(N([H])C(=O)C([H])(N([H])C([H])([H])[H])C([H])([H])[H])C(C([H])([H])[H])(C([H])([H])[H])C([H])([H])[H])C([H])([H])c2c([H])c(OC([H])([H])C(=O)C([H])([H])N([H])c3c([H])c(N([H])C(=O)N4C([H])([H])C([H])([H])C([H])([H])C([H])(n5nc(-c6c([H])c([H])c(Oc7c([H])c([H])c(F)c([H])c7F)c([H])c6[H])c(C(=O)N([H])[H])c5N([H])[H])C4([H])[H])c([H])c(F)c3C3([H])C([H])([H])C([H])([H])C3([H])[H])c([H])c([H])c2C1([H])[H]

$$$$
85:0:0
     RDKit          3D

 94103  0  0  1  0  0  0  0  0999 V2000
  -31.0710  -17.5840   20.5640 C   0  0  0  0  0  3  0  0  0  0  0  0
  -28.7230  -17.3370   20.8220 C   0  0  0  0  0  3  0  0  0  0  0  0
  -29.9800  -16.7210   20.7860 C   0  0  0  0  0  0  0  0  0  0  0  0
  -29.6540  -19.3790   20.4170 C   0  0  0  0  0  0  0  0  0  0  0  0
  -28.3030  -22.6040   19.0020 C   0  0  0  0  0  2  0  0  0  0  0  0
  -30.4280  -23.0620   20.2770 C   0  0  0  0  0  2  0  0  0  0  0  0
  -28.1740  -21.2640   19.7640 C   0  0  0  0  0  2  0  0  0  0  0  0
  -30.2500  -21.7040   20.9960 C   0  0  0  0  0  2  0  0  0  0  0  0
  -29.1050  -23.6850   19.7680 C   0  0  0  0  0  3  0  0  0  0  0  0
  -30.8960  -18.9130   20.3930 N   0  0  0  0  0  0  0  0  0  0  0  0
  -28.5640  -18.6570   20.6230 N   0  0  0  0  0  0  0  0  0  0  0  0
  -29.4800  -20.7480   20.1940 N   0  0  0  0  0  0  0  0  0  0  0  0
  -30.6810  -14.4300   20.1610 C   0  0  0  0  0  0  0  0  0  0  0  0
  -30.3050  -12.3410   18.9010 C   0  0  0  0  0  2  0  0  0  0  0  0
  -29.2880  -12.6130   17.7710 C   0  0  0  0  0  2  0  0  0  0  0  0
  -27.8380  -12.4870   18.2800 C   0  0  0  0  0  2  0  0  0  0  0  0
  -27.5970  -13.2690   19.5990 C   0  0  0  0  0  3  0  0  0  0  0  0
  -28.7050  -12.9400   20.6250 C   0  0  0  0  0  2  0  0  0  0  0  0
  -30.0090  -13.2590   20.0110 N   0  0  0  0  0  0  0  0  0  0  0  0
  -31.7250  -14.7040   19.5620 O   0  0  0  0  0  0  0  0  0  0  0  0
  -30.0710  -15.3090   20.9740 N   0  0  0  0  0  0  0  0  0  0  0  0
  -29.3040  -14.8900   21.4800 H   0  0  0  0  0  0  0  0  0  0  0  0
  -25.2440  -13.9040   20.4360 C   0  0  0  0  0  0  0  0  0  0  0  0
  -24.1860  -13.1410   20.8540 C   0  0  0  0  0  0  0  0  0  0  0  0
  -24.6240  -11.7840   20.7760 C   0  0  0  0  0  0  0  0  0  0  0  0
  -26.2620  -13.0110   20.1390 N   0  0  0  0  0  0  0  0  0  0  0  0
  -25.8940  -11.7300   20.3960 N   0  0  0  0  0  0  0  0  0  0  0  0
  -23.8920  -10.5290   20.9860 C   0  0  0  0  0  0  0  0  0  0  0  0
  -24.3520   -9.5480   21.8910 C   0  0  0  0  0  3  0  0  0  0  0  0
  -23.6210   -8.3570   22.0880 C   0  0  0  0  0  3  0  0  0  0  0  0
  -22.4130   -8.1400   21.3810 C   0  0  0  0  0  0  0  0  0  0  0  0
  -21.9720   -9.1100   20.4640 C   0  0  0  0  0  3  0  0  0  0  0  0
  -22.7050  -10.2920   20.2650 C   0  0  0  0  0  3  0  0  0  0  0  0
  -21.6490   -7.0030   21.4910 O   0  0  0  0  0  0  0  0  0  0  0  0
  -21.6350   -6.2540   22.6400 C   0  0  0  0  0  0  0  0  0  0  0  0
  -21.2420   -6.8010   23.8810 C   0  0  0  0  0  3  0  0  0  0  0  0
  -21.1740   -5.9780   25.0240 C   0  0  0  0  0  3  0  0  0  0  0  0
  -21.4890   -4.6100   24.9260 C   0  0  0  0  0  0  0  0  0  0  0  0
  -21.8760   -4.0620   23.6900 C   0  0  0  0  0  3  0  0  0  0  0  0
  -21.9450   -4.8830   22.5490 C   0  0  0  0  0  0  0  0  0  0  0  0
  -22.2980   -4.3450   21.3570 F   0  0  0  0  0  0  0  0  0  0  0  0
  -21.4170   -3.8170   26.0210 F   0  0  0  0  0  0  0  0  0  0  0  0
  -22.8120  -13.6330   21.2090 C   0  0  0  0  0  0  0  0  0  0  0  0
  -22.1220  -12.9330   22.1020 N   0  0  0  0  0  0  0  0  0  0  0  0
  -22.3600  -14.6710   20.7270 O   0  0  0  0  0  0  0  0  0  0  0  0
  -22.4990  -12.0900   22.5080 H   0  0  0  0  0  0  0  0  0  0  0  0
  -21.2020  -13.2420   22.3800 H   0  0  0  0  0  0  0  0  0  0  0  0
  -25.4190  -15.2730   20.2630 N   0  0  0  0  0  0  0  0  0  0  0  0
  -24.6530  -15.9260   20.3850 H   0  0  0  0  0  0  0  0  0  0  0  0
  -26.2120  -15.6800   19.7850 H   0  0  0  0  0  0  0  0  0  0  0  0
  -28.2960  -24.4100   20.8660 C   0  0  0  0  0  0  0  0  0  0  0  0
  -27.4180  -23.8230   21.5050 O   0  0  0  0  0  0  0  0  0  0  0  0
  -28.6110  -25.8920   21.1560 C   0  0  0  0  0  2  0  0  0  0  0  0
  -28.3750  -26.7220   20.0140 O   0  0  0  0  0  0  0  0  0  0  0  0
  -24.5520  -31.8440   23.1980 C   0  0  0  0  0  0  0  0  0  0  0  0
  -27.2150  -27.4560   20.0700 C   0  0  0  0  0  0  0  0  0  0  0  0
  -23.3520  -30.4630   21.5320 C   0  0  0  0  0  3  0  0  0  0  0  0
  -24.8140  -28.9420   20.0950 C   0  0  0  0  0  0  0  0  0  0  0  0
  -25.8740  -30.8310   21.3440 C   0  0  0  0  0  2  0  0  0  0  0  0
  -25.9670  -29.4650   20.6970 C   0  0  0  0  0  0  0  0  0  0  0  0
  -27.1710  -28.7260   20.6890 C   0  0  0  0  0  3  0  0  0  0  0  0
  -26.0520  -26.9460   19.4590 C   0  0  0  0  0  3  0  0  0  0  0  0
  -24.8500  -27.6800   19.4750 C   0  0  0  0  0  3  0  0  0  0  0  0
  -23.5670  -29.7970   20.1450 C   0  0  0  0  0  2  0  0  0  0  0  0
  -24.6110  -31.0600   22.0840 N   0  0  0  0  0  0  0  0  0  0  0  0
  -23.4700  -32.1080   23.7400 O   0  0  0  0  0  0  0  0  0  0  0  0
  -22.6980  -29.4300   22.4770 C   0  0  0  0  0  0  0  0  0  0  0  0
  -21.3710  -29.2630   22.3560 N   0  0  0  0  0  0  0  0  0  0  0  0
  -23.3810  -28.7810   23.2740 O   0  0  0  0  0  0  0  0  0  0  0  0
  -20.8820  -29.8390   21.6870 H   0  0  0  0  0  0  0  0  0  0  0  0
  -17.9860  -28.1160   22.8730 C   0  0  0  0  0  0  0  0  0  0  0  0
  -20.5510  -28.3150   23.1100 C   0  0  0  0  0  3  0  0  0  0  0  0
  -20.6170  -26.9020   22.4860 C   0  0  0  0  0  2  0  0  0  0  0  0
  -19.4930  -26.6330   21.4800 C   0  0  0  0  0  2  0  0  0  0  0  0
  -18.1250  -26.7850   22.1510 C   0  0  0  0  0  2  0  0  0  0  0  0
  -19.1250  -28.8410   23.3080 C   0  0  0  0  0  0  0  0  0  0  0  0
  -18.9430  -30.0900   23.9410 C   0  0  0  0  0  3  0  0  0  0  0  0
  -17.6510  -30.6130   24.1420 C   0  0  0  0  0  3  0  0  0  0  0  0
  -16.5250  -29.8820   23.7250 C   0  0  0  0  0  3  0  0  0  0  0  0
  -16.6940  -28.6350   23.0960 C   0  0  0  0  0  3  0  0  0  0  0  0
  -25.8370  -32.4650   23.8310 C   0  0  0  0  0  3  0  0  0  0  0  0
  -25.5360  -33.8640   24.1600 N   0  0  0  0  0  0  0  0  0  0  0  0
  -25.8820  -34.9140   23.4020 C   0  0  0  0  0  0  0  0  0  0  0  0
  -26.5620  -34.8050   22.3780 O   0  0  0  0  0  0  0  0  0  0  0  0
  -24.9380  -34.0240   24.9560 H   0  0  0  0  0  0  0  0  0  0  0  0
  -24.1730  -36.7190   23.0240 C   0  0  0  0  0  1  0  0  0  0  0  0
  -25.4000  -36.3060   23.8530 C   0  0  0  0  0  3  0  0  0  0  0  0
  -27.5250  -37.1770   24.7190 C   0  0  0  0  0  1  0  0  0  0  0  0
  -26.4410  -37.3500   23.7550 N   0  0  0  0  0  0  0  0  0  0  0  0
  -26.0400  -38.2740   23.8930 H   0  0  0  0  0  0  0  0  0  0  0  0
  -26.3400  -31.6870   25.1090 C   0  0  1  0  0  0  0  0  0  0  0  0
  -25.2400  -31.4580   26.1710 C   0  0  0  0  0  1  0  0  0  0  0  0
  -26.9120  -30.3040   24.7130 C   0  0  0  0  0  1  0  0  0  0  0  0
  -27.4950  -32.4670   25.7800 C   0  0  0  0  0  1  0  0  0  0  0  0
  1  3  2  0
  3  2  1  0
  3 21  1  0
  4 11  1  0
  5  7  1  0
  5  9  1  0
  6  8  1  0
  7 12  1  0
  9  6  1  0
  9 51  1  0
 10  4  2  0
 10  1  1  0
 11  2  2  0
 12  4  1  0
 12  8  1  0
 13 21  1  0
 14 19  1  0
 15 16  1  0
 15 14  1  0
 17 16  1  0
 17 26  1  0
 17 18  1  0
 19 13  1  0
 19 18  1  0
 20 13  2  0
 21 22  1  0
 23 24  2  0
 24 43  1  0
 25 24  1  0
 25 28  1  0
 26 27  1  0
 26 23  1  0
 27 25  2  0
 28 29  1  0
 29 30  2  0
 31 34  1  0
 31 30  1  0
 32 31  2  0
 33 32  1  0
 33 28  2  0
 34 35  1  0
 35 36  1  0
 36 37  2  0
 38 37  1  0
 38 42  1  0
 39 38  2  0
 40 35  2  0
 40 39  1  0
 41 40  1  0
 43 44  1  0
 44 47  1  0
 44 46  1  0
 45 43  2  0
 48 49  1  0
 48 23  1  0
 50 48  1  0
 51 53  1  0
 51 52  2  0
 54 56  1  0
 54 53  1  0
 55 66  2  0
 56 61  1  0
 57 65  1  0
 57 67  1  0
 58 64  1  0
 58 60  1  0
 59 65  1  0
 60 59  1  0
 61 60  2  0
 62 63  1  0
 62 56  2  0
 63 58  2  0
 64 57  1  0
 65 55  1  0
 67 69  2  0
 68 67  1  0
 70 68  1  0
 71 80  2  0
 71 76  1  0
 72 68  1  0
 72 76  1  0
 73 72  1  0
 74 75  1  0
 74 73  1  0
 75 71  1  0
 76 77  2  0
 77 78  1  0
 79 78  2  0
 80 79  1  0
 81 55  1  0
 81 82  1  0
 81 91  1  0
 82 85  1  0
 83 87  1  0
 83 82  1  0
 84 83  2  0
 87 86  1  0
 89 87  1  0
 89 90  1  0
 89 88  1  0
 91 94  1  1
 91 92  1  0
 93 91  1  0
M  ISO  4  13 100  21 100  53 101  54 101
M  END
>  <TORSDO>  (86) 
F 18

>  <SCORE>  (86) 
-14.850

>  <name>  (86) 
85

>  <ligand_id>  (86) 
85

>  <original_smiles>  (86) 
[H]c1nc(N2C([H])([H])C([H])([H])C([H])(C(=O)C([H])([H])Oc3c([H])c([H])c4c(c3[H])C([H])([H])N(C(=O)C([H])(N([H])C(=O)C([H])(N([H])C([H])([H])[H])C([H])([H])[H])C(C([H])([H])[H])(C([H])([H])[H])C([H])([H])[H])C([H])(C(=O)N([H])C3([H])c5c([H])c([H])c([H])c([H])c5C([H])([H])C([H])([H])C3([H])[H])C4([H])[H])C([H])([H])C2([H])[H])nc([H])c1N([H])C(=O)N1C([H])([H])C([H])([H])C([H])([H])C([H])(n2nc(-c3c([H])c([H])c(Oc4c([H])c([H])c(F)c([H])c4F)c([H])c3[H])c(C(=O)N([H])[H])c2N([H])[H])C1([H])[H]

>  <smiles>  (86) 
[H]c1nc(N2C([H])([H])C([H])([H])C([H])(C(=O)C([H])([H])Oc3c([H])c([H])c4c(c3[H])C([H])([H])N(C(=O)C([H])(N([H])C(=O)C([H])(N([H])C([H])([H])[H])C([H])([H])[H])C(C([H])([H])[H])(C([H])([H])[H])C([H])([H])[H])C([H])(C(=O)N([H])C3([H])c5c([H])c([H])c([H])c([H])c5C([H])([H])C([H])([H])C3([H])[H])C4([H])[H])C([H])([H])C2([H])[H])nc([H])c1N([H])C(=O)N1C([H])([H])C([H])([H])C([H])([H])C([H])(n2nc(-c3c([H])c([H])c(Oc4c([H])c([H])c(F)c([H])c4F)c([H])c3[H])c(C(=O)N([H])[H])c2N([H])[H])C1([H])[H]

$$$$
86:0:0
     RDKit          3D

104112  0  0  1  0  0  0  0  0999 V2000
  -29.8510  -19.7860   18.4260 C   0  0  0  0  0  3  0  0  0  0  0  0
  -30.3740  -17.3870   18.5610 C   0  0  0  0  0  3  0  0  0  0  0  0
  -29.2280  -18.5080   20.4010 C   0  0  0  0  0  3  0  0  0  0  0  0
  -30.3930  -18.6110   17.8510 C   0  0  0  0  0  0  0  0  0  0  0  0
  -29.2590  -19.7950   19.7140 C   0  0  0  0  0  0  0  0  0  0  0  0
  -29.8060  -17.2830   19.8500 C   0  0  0  0  0  0  0  0  0  0  0  0
  -30.5800  -14.8300   20.3140 C   0  0  0  0  0  0  0  0  0  0  0  0
  -30.4440  -12.5480   19.3630 C   0  0  0  0  0  2  0  0  0  0  0  0
  -29.5130  -12.6240   18.1310 C   0  0  0  0  0  2  0  0  0  0  0  0
  -28.0310  -12.4630   18.5340 C   0  0  0  0  0  2  0  0  0  0  0  0
  -27.6500  -13.3240   19.7710 C   0  0  0  0  0  3  0  0  0  0  0  0
  -28.7040  -13.2170   20.8950 C   0  0  0  0  0  2  0  0  0  0  0  0
  -29.9990  -13.5850   20.3140 N   0  0  0  0  0  0  0  0  0  0  0  0
  -31.7640  -14.9520   19.9890 O   0  0  0  0  0  0  0  0  0  0  0  0
  -29.7530  -15.9380   20.4860 N   0  0  0  0  0  0  0  0  0  0  0  0
  -28.8790  -15.7240   20.9370 H   0  0  0  0  0  0  0  0  0  0  0  0
  -25.2610  -13.9050   20.4840 C   0  0  0  0  0  0  0  0  0  0  0  0
  -24.2020  -13.1260   20.8590 C   0  0  0  0  0  0  0  0  0  0  0  0
  -24.6680  -11.7770   20.8310 C   0  0  0  0  0  0  0  0  0  0  0  0
  -26.3090  -13.0290   20.2570 N   0  0  0  0  0  0  0  0  0  0  0  0
  -25.9620  -11.7440   20.5320 N   0  0  0  0  0  0  0  0  0  0  0  0
  -23.9450  -10.5120   21.0190 C   0  0  0  0  0  0  0  0  0  0  0  0
  -24.3710   -9.5540   21.9630 C   0  0  0  0  0  3  0  0  0  0  0  0
  -23.6500   -8.3540   22.1440 C   0  0  0  0  0  3  0  0  0  0  0  0
  -22.4890   -8.1040   21.3730 C   0  0  0  0  0  0  0  0  0  0  0  0
  -22.0830   -9.0510   20.4160 C   0  0  0  0  0  3  0  0  0  0  0  0
  -22.8060  -10.2420   20.2340 C   0  0  0  0  0  3  0  0  0  0  0  0
  -21.7340   -6.9590   21.4630 O   0  0  0  0  0  0  0  0  0  0  0  0
  -21.6650   -6.2300   22.6230 C   0  0  0  0  0  0  0  0  0  0  0  0
  -21.1960   -6.7910   23.8320 C   0  0  0  0  0  3  0  0  0  0  0  0
  -21.0770   -5.9880   24.9830 C   0  0  0  0  0  3  0  0  0  0  0  0
  -21.4130   -4.6220   24.9250 C   0  0  0  0  0  0  0  0  0  0  0  0
  -21.8740   -4.0580   23.7220 C   0  0  0  0  0  3  0  0  0  0  0  0
  -21.9980   -4.8600   22.5740 C   0  0  0  0  0  0  0  0  0  0  0  0
  -22.4170   -4.3070   21.4100 F   0  0  0  0  0  0  0  0  0  0  0  0
  -21.2940   -3.8470   26.0280 F   0  0  0  0  0  0  0  0  0  0  0  0
  -22.7990  -13.5930   21.1230 C   0  0  0  0  0  0  0  0  0  0  0  0
  -22.0730  -12.8910   21.9860 N   0  0  0  0  0  0  0  0  0  0  0  0
  -22.3600  -14.6170   20.6030 O   0  0  0  0  0  0  0  0  0  0  0  0
  -22.4440  -12.0630   22.4260 H   0  0  0  0  0  0  0  0  0  0  0  0
  -21.1290  -13.1800   22.2090 H   0  0  0  0  0  0  0  0  0  0  0  0
  -25.4250  -15.2770   20.2980 N   0  0  0  0  0  0  0  0  0  0  0  0
  -24.6600  -15.9350   20.3910 H   0  0  0  0  0  0  0  0  0  0  0  0
  -26.2680  -15.7040   19.9330 H   0  0  0  0  0  0  0  0  0  0  0  0
  -30.9120  -17.9670   14.2390 C   0  0  0  0  0  2  0  0  0  0  0  0
  -30.9670  -18.6910   16.4990 C   0  0  0  0  0  0  0  0  0  0  0  0
  -31.8880  -19.6390   16.2610 N   0  0  0  0  0  4  0  0  0  0  0  0
  -30.5520  -17.1160   13.2510 N   0  0  0  0  0  0  0  0  0  0  0  0
  -30.5560  -17.8450   15.5320 N   0  0  0  0  0  0  0  0  0  0  0  0
  -32.1390  -20.2540   17.0170 H   0  0  0  0  0  0  0  0  0  0  0  0
  -32.4800  -19.6580   15.4450 H   0  0  0  0  0  0  0  0  0  0  0  0
  -30.0740  -16.2400   13.4060 H   0  0  0  0  0  0  0  0  0  0  0  0
  -30.8200  -17.3300   12.2980 H   0  0  0  0  0  0  0  0  0  0  0  0
  -29.8710  -17.1670   15.8150 H   0  0  0  0  0  0  0  0  0  0  0  0
  -28.9290  -22.3870   19.8600 C   0  0  0  0  0  0  0  0  0  0  0  0
  -28.6550  -21.0710   20.2100 N   0  0  0  0  0  0  0  0  0  0  0  0
  -29.9130  -22.6490   19.1630 O   0  0  0  0  0  0  0  0  0  0  0  0
  -27.9070  -20.9800   20.8850 H   0  0  0  0  0  0  0  0  0  0  0  0
  -28.2830  -23.7610   21.8750 C   0  0  0  0  0  1  0  0  0  0  0  0
  -28.0360  -23.6400   20.3580 C   0  0  2  0  0  0  0  0  0  0  0  0
  -26.1200  -22.9040   18.7080 C   0  0  0  0  0  1  0  0  0  0  0  0
  -26.5190  -23.3170   20.1450 C   0  0  0  0  0  2  0  0  0  0  0  0
  -28.4010  -25.0850   19.6590 C   0  0  0  0  0  2  0  0  0  0  0  0
  -28.3180  -26.4450   20.2840 O   0  0  0  0  0  0  0  0  0  0  0  0
  -24.6060  -31.9010   23.2440 C   0  0  0  0  0  0  0  0  0  0  0  0
  -27.2120  -27.3090   20.1830 C   0  0  0  0  0  0  0  0  0  0  0  0
  -23.4180  -30.4980   21.5960 C   0  0  0  0  0  3  0  0  0  0  0  0
  -24.8700  -28.9580   20.1540 C   0  0  0  0  0  0  0  0  0  0  0  0
  -25.9570  -30.8110   21.4260 C   0  0  0  0  0  2  0  0  0  0  0  0
  -26.0350  -29.4280   20.7740 C   0  0  0  0  0  0  0  0  0  0  0  0
  -27.2090  -28.6170   20.7750 C   0  0  0  0  0  3  0  0  0  0  0  0
  -26.0330  -26.9040   19.5240 C   0  0  0  0  0  3  0  0  0  0  0  0
  -24.8830  -27.7170   19.4980 C   0  0  0  0  0  3  0  0  0  0  0  0
  -23.6370  -29.8410   20.2060 C   0  0  0  0  0  2  0  0  0  0  0  0
  -24.6790  -31.0910   22.1460 N   0  0  0  0  0  0  0  0  0  0  0  0
  -23.5170  -32.1670   23.7760 O   0  0  0  0  0  0  0  0  0  0  0  0
  -22.7590  -29.4760   22.5550 C   0  0  0  0  0  0  0  0  0  0  0  0
  -21.4340  -29.2890   22.4260 N   0  0  0  0  0  0  0  0  0  0  0  0
  -23.4420  -28.8550   23.3750 O   0  0  0  0  0  0  0  0  0  0  0  0
  -20.9440  -29.8460   21.7420 H   0  0  0  0  0  0  0  0  0  0  0  0
  -18.0640  -28.0570   22.9240 C   0  0  0  0  0  0  0  0  0  0  0  0
  -20.6210  -28.3450   23.1980 C   0  0  0  0  0  3  0  0  0  0  0  0
  -20.7360  -26.9130   22.6290 C   0  0  0  0  0  2  0  0  0  0  0  0
  -19.6420  -26.5740   21.6130 C   0  0  0  0  0  2  0  0  0  0  0  0
  -18.2570  -26.7090   22.2500 C   0  0  0  0  0  2  0  0  0  0  0  0
  -19.1760  -28.8320   23.3550 C   0  0  0  0  0  0  0  0  0  0  0  0
  -18.9430  -30.0940   23.9440 C   0  0  0  0  0  3  0  0  0  0  0  0
  -17.6330  -30.5830   24.1060 C   0  0  0  0  0  3  0  0  0  0  0  0
  -16.5360  -29.8090   23.6870 C   0  0  0  0  0  3  0  0  0  0  0  0
  -16.7540  -28.5480   23.1040 C   0  0  0  0  0  3  0  0  0  0  0  0
  -25.8770  -32.5490   23.8670 C   0  0  0  0  0  3  0  0  0  0  0  0
  -25.5590  -33.9500   24.1860 N   0  0  0  0  0  0  0  0  0  0  0  0
  -25.8890  -35.0030   23.4250 C   0  0  0  0  0  0  0  0  0  0  0  0
  -26.5660  -34.8960   22.3990 O   0  0  0  0  0  0  0  0  0  0  0  0
  -24.9730  -34.1070   24.9930 H   0  0  0  0  0  0  0  0  0  0  0  0
  -24.1630  -36.7970   23.0440 C   0  0  0  0  0  1  0  0  0  0  0  0
  -25.3940  -36.3950   23.8720 C   0  0  0  0  0  3  0  0  0  0  0  0
  -27.5180  -37.2870   24.7290 C   0  0  0  0  0  1  0  0  0  0  0  0
  -26.4270  -37.4490   23.7720 N   0  0  0  0  0  0  0  0  0  0  0  0
  -26.0180  -38.3700   23.9080 H   0  0  0  0  0  0  0  0  0  0  0  0
  -26.3900  -31.7980   25.1560 C   0  0  1  0  0  0  0  0  0  0  0  0
  -25.3000  -31.5600   26.2270 C   0  0  0  0  0  1  0  0  0  0  0  0
  -26.9840  -30.4200   24.7810 C   0  0  0  0  0  1  0  0  0  0  0  0
  -27.5280  -32.6110   25.8190 C   0  0  0  0  0  1  0  0  0  0  0  0
  1  5  1  0
  2  6  2  0
  4  1  2  0
  4  2  1  0
  5 56  1  0
  5  3  2  0
  6  3  1  0
  6 15  1  0
  7 13  1  0
  7 15  1  0
  8 13  1  0
  9 10  1  0
  9  8  1  0
 11 10  1  0
 11 20  1  0
 11 12  1  0
 13 12  1  0
 14  7  2  0
 15 16  1  0
 17 18  2  0
 18 37  1  0
 19 18  1  0
 19 22  1  0
 20 17  1  0
 20 21  1  0
 21 19  2  0
 22 23  1  0
 23 24  2  0
 25 28  1  0
 25 24  1  0
 26 25  2  0
 27 26  1  0
 27 22  2  0
 28 29  1  0
 29 30  1  0
 30 31  2  0
 32 31  1  0
 32 36  1  0
 33 32  2  0
 34 29  2  0
 34 33  1  0
 35 34  1  0
 37 38  1  0
 38 41  1  0
 38 40  1  0
 39 37  2  0
 42 43  1  0
 42 17  1  0
 44 42  1  0
 45 49  1  0
 46  4  1  0
 47 46  2  0
 47 50  1  0
 48 52  1  0
 48 45  1  0
 49 54  1  0
 49 46  1  0
 51 47  1  0
 53 48  1  0
 55 56  1  0
 55 60  1  0
 56 58  1  0
 57 55  2  0
 60 59  1  1
 61 62  1  0
 62 60  1  0
 63 64  1  0
 63 60  1  0
 65 76  2  0
 66 64  1  0
 66 71  1  0
 67 75  1  0
 67 77  1  0
 68 74  1  0
 68 70  1  0
 69 75  1  0
 70 71  2  0
 70 69  1  0
 72 66  2  0
 73 72  1  0
 73 68  2  0
 74 67  1  0
 75 65  1  0
 77 79  2  0
 78 77  1  0
 80 78  1  0
 81 90  2  0
 81 86  1  0
 82 78  1  0
 82 86  1  0
 83 82  1  0
 84 85  1  0
 84 83  1  0
 85 81  1  0
 86 87  2  0
 87 88  1  0
 89 88  2  0
 90 89  1  0
 91 65  1  0
 91 92  1  0
 91101  1  0
 92 95  1  0
 93 97  1  0
 93 92  1  0
 94 93  2  0
 97 96  1  0
 99 97  1  0
 99100  1  0
 99 98  1  0
101104  1  1
101102  1  0
103101  1  0
M  ISO  4   7 100  15 100  63 101  64 101
M  END
>  <TORSDO>  (87) 
F 21

>  <SCORE>  (87) 
-14.204

>  <name>  (87) 
86

>  <ligand_id>  (87) 
86

>  <original_smiles>  (87) 
[H]C(N([H])C(c1c([H])c(N([H])C(=O)N2C([H])([H])C([H])([H])C([H])([H])C([H])(n3nc(-c4c([H])c([H])c(Oc5c([H])c([H])c(F)c([H])c5F)c([H])c4[H])c(C(=O)N([H])[H])c3N([H])[H])C2([H])[H])c([H])c(N([H])C(=O)C(C([H])([H])[H])(C([H])([H])Oc2c([H])c([H])c3c(c2[H])C([H])([H])N(C(=O)C([H])(N([H])C(=O)C([H])(N([H])C([H])([H])[H])C([H])([H])[H])C(C([H])([H])[H])(C([H])([H])[H])C([H])([H])[H])C([H])(C(=O)N([H])C2([H])c4c([H])c([H])c([H])c([H])c4C([H])([H])C([H])([H])C2([H])[H])C3([H])[H])C([H])([H])C([H])([H])[H])c1[H])=[N+]([H])[H])=[N+]([H])[H]

>  <smiles>  (87) 
[H]C(N([H])C(c1c([H])c(N([H])C(=O)N2C([H])([H])C([H])([H])C([H])([H])C([H])(n3nc(-c4c([H])c([H])c(Oc5c([H])c([H])c(F)c([H])c5F)c([H])c4[H])c(C(=O)N([H])[H])c3N([H])[H])C2([H])[H])c([H])c(N([H])C(=O)C(C([H])([H])[H])(C([H])([H])Oc2c([H])c([H])c3c(c2[H])C([H])([H])N(C(=O)C([H])(N([H])C(=O)C([H])(N([H])C([H])([H])[H])C([H])([H])[H])C(C([H])([H])[H])(C([H])([H])[H])C([H])([H])[H])C([H])(C(=O)N([H])C2([H])c4c([H])c([H])c([H])c([H])c4C([H])([H])C([H])([H])C2([H])[H])C3([H])[H])C([H])([H])C([H])([H])[H])c1[H])=[N+]([H])[H])=[N+]([H])[H]

$$$$
87:0:0
     RDKit          3D

 94102  0  0  1  0  0  0  0  0999 V2000
  -29.7490  -21.6870   20.7190 C   0  0  0  0  0  0  0  0  0  0  0  0
  -29.8420  -22.0690   21.9930 N   0  0  0  0  0  4  0  0  0  0  0  0
  -29.5880  -22.7040   19.8080 N   0  0  0  0  0  0  0  0  0  0  0  0
  -29.9700  -21.3700   22.7090 H   0  0  0  0  0  0  0  0  0  0  0  0
  -29.7520  -23.0280   22.2790 H   0  0  0  0  0  0  0  0  0  0  0  0
  -29.5240  -22.4120   18.8400 H   0  0  0  0  0  0  0  0  0  0  0  0
  -31.0520  -19.5330   20.0750 C   0  0  0  0  0  3  0  0  0  0  0  0
  -31.1770  -18.1010   20.0630 C   0  0  0  0  0  3  0  0  0  0  0  0
  -28.8830  -17.9160   20.7460 C   0  0  0  0  0  3  0  0  0  0  0  0
  -29.8460  -20.1910   20.4610 C   0  0  0  0  0  0  0  0  0  0  0  0
  -30.0910  -17.2490   20.4190 C   0  0  0  0  0  0  0  0  0  0  0  0
  -28.7600  -19.3330   20.7800 C   0  0  0  0  0  0  0  0  0  0  0  0
  -27.5700  -19.8630   21.1540 F   0  0  0  0  0  0  0  0  0  0  0  0
  -30.8340  -14.7830   19.8870 C   0  0  0  0  0  0  0  0  0  0  0  0
  -30.5330  -12.5720   18.7770 C   0  0  0  0  0  2  0  0  0  0  0  0
  -29.4970  -12.7420   17.6410 C   0  0  0  0  0  2  0  0  0  0  0  0
  -28.0570  -12.6010   18.1730 C   0  0  0  0  0  2  0  0  0  0  0  0
  -27.8100  -13.4390   19.4550 C   0  0  0  0  0  3  0  0  0  0  0  0
  -28.9430  -13.2150   20.4840 C   0  0  0  0  0  2  0  0  0  0  0  0
  -30.2160  -13.5600   19.8270 N   0  0  0  0  0  0  0  0  0  0  0  0
  -31.9440  -14.9730   19.3740 O   0  0  0  0  0  0  0  0  0  0  0  0
  -30.0780  -15.7820   20.4410 N   0  0  0  0  0  0  0  0  0  0  0  0
  -29.2710  -15.3970   20.9050 H   0  0  0  0  0  0  0  0  0  0  0  0
  -25.4980  -14.0870   20.3740 C   0  0  0  0  0  0  0  0  0  0  0  0
  -24.4370  -13.3330   20.7980 C   0  0  0  0  0  0  0  0  0  0  0  0
  -24.8490  -11.9690   20.6810 C   0  0  0  0  0  0  0  0  0  0  0  0
  -26.4920  -13.1830   20.0280 N   0  0  0  0  0  0  0  0  0  0  0  0
  -26.1110  -11.9040   20.2720 N   0  0  0  0  0  0  0  0  0  0  0  0
  -24.0980  -10.7230   20.8800 C   0  0  0  0  0  0  0  0  0  0  0  0
  -24.5260   -9.7430   21.8010 C   0  0  0  0  0  3  0  0  0  0  0  0
  -23.7770   -8.5610   21.9880 C   0  0  0  0  0  3  0  0  0  0  0  0
  -22.5860   -8.3510   21.2520 C   0  0  0  0  0  0  0  0  0  0  0  0
  -22.1780   -9.3210   20.3190 C   0  0  0  0  0  3  0  0  0  0  0  0
  -22.9270  -10.4940   20.1310 C   0  0  0  0  0  3  0  0  0  0  0  0
  -21.8090   -7.2230   21.3490 O   0  0  0  0  0  0  0  0  0  0  0  0
  -21.6950   -6.5250   22.5260 C   0  0  0  0  0  0  0  0  0  0  0  0
  -21.2090   -7.1300   23.7050 C   0  0  0  0  0  3  0  0  0  0  0  0
  -21.0420   -6.3600   24.8740 C   0  0  0  0  0  3  0  0  0  0  0  0
  -21.3510   -4.9860   24.8630 C   0  0  0  0  0  0  0  0  0  0  0  0
  -21.8300   -4.3810   23.6870 C   0  0  0  0  0  3  0  0  0  0  0  0
  -21.9980   -5.1490   22.5210 C   0  0  0  0  0  0  0  0  0  0  0  0
  -22.4400   -4.5580   21.3850 F   0  0  0  0  0  0  0  0  0  0  0  0
  -21.1840   -4.2440   25.9820 F   0  0  0  0  0  0  0  0  0  0  0  0
  -23.0810  -13.8410   21.1940 C   0  0  0  0  0  0  0  0  0  0  0  0
  -22.4050  -13.1420   22.1020 N   0  0  0  0  0  0  0  0  0  0  0  0
  -22.6310  -14.8890   20.7350 O   0  0  0  0  0  0  0  0  0  0  0  0
  -22.7830  -12.2920   22.4930 H   0  0  0  0  0  0  0  0  0  0  0  0
  -21.4980  -13.4630   22.4090 H   0  0  0  0  0  0  0  0  0  0  0  0
  -25.6950  -15.4580   20.2310 N   0  0  0  0  0  0  0  0  0  0  0  0
  -24.9510  -16.1250   20.4040 H   0  0  0  0  0  0  0  0  0  0  0  0
  -26.5050  -15.8750   19.7920 H   0  0  0  0  0  0  0  0  0  0  0  0
  -29.6640  -24.2190   20.0280 C   0  0  0  0  0  3  0  0  0  0  0  0
  -28.4550  -25.1300   19.5460 C   0  0  0  0  0  3  0  0  0  0  0  0
  -28.5490  -26.5900   19.7890 O   0  0  0  0  0  0  0  0  0  0  0  0
  -24.5270  -31.6080   23.0520 C   0  0  0  0  0  0  0  0  0  0  0  0
  -27.3730  -27.3590   19.7770 C   0  0  0  0  0  0  0  0  0  0  0  0
  -23.3920  -30.2230   21.3500 C   0  0  0  0  0  3  0  0  0  0  0  0
  -24.9180  -28.8250   19.8500 C   0  0  0  0  0  0  0  0  0  0  0  0
  -25.9070  -30.6940   21.1720 C   0  0  0  0  0  2  0  0  0  0  0  0
  -26.0600  -29.3540   20.4630 C   0  0  0  0  0  0  0  0  0  0  0  0
  -27.2900  -28.6340   20.4160 C   0  0  0  0  0  3  0  0  0  0  0  0
  -26.2030  -26.8790   19.1450 C   0  0  0  0  0  3  0  0  0  0  0  0
  -24.9900  -27.5920   19.1830 C   0  0  0  0  0  3  0  0  0  0  0  0
  -23.6340  -29.6260   19.9400 C   0  0  0  0  0  2  0  0  0  0  0  0
  -24.6270  -30.8580   21.9150 N   0  0  0  0  0  0  0  0  0  0  0  0
  -23.4330  -31.8010   23.6020 O   0  0  0  0  0  0  0  0  0  0  0  0
  -22.7920  -29.1280   22.2640 C   0  0  0  0  0  0  0  0  0  0  0  0
  -21.4800  -28.8780   22.1270 N   0  0  0  0  0  0  0  0  0  0  0  0
  -23.5080  -28.5070   23.0560 O   0  0  0  0  0  0  0  0  0  0  0  0
  -20.9580  -29.4340   21.4650 H   0  0  0  0  0  0  0  0  0  0  0  0
  -18.1740  -27.4850   22.5890 C   0  0  0  0  0  0  0  0  0  0  0  0
  -20.7170  -27.8620   22.8560 C   0  0  0  0  0  3  0  0  0  0  0  0
  -20.8880  -26.4680   22.2090 C   0  0  0  0  0  2  0  0  0  0  0  0
  -19.7960  -26.1400   21.1880 C   0  0  0  0  0  2  0  0  0  0  0  0
  -18.4130  -26.1810   21.8460 C   0  0  0  0  0  2  0  0  0  0  0  0
  -19.2550  -28.2820   23.0490 C   0  0  0  0  0  0  0  0  0  0  0  0
  -18.9760  -29.5010   23.7050 C   0  0  0  0  0  3  0  0  0  0  0  0
  -17.6500  -29.9240   23.9030 C   0  0  0  0  0  3  0  0  0  0  0  0
  -16.5820  -29.1250   23.4580 C   0  0  0  0  0  3  0  0  0  0  0  0
  -16.8450  -27.9060   22.8070 C   0  0  0  0  0  3  0  0  0  0  0  0
  -25.7780  -32.2810   23.6970 C   0  0  0  0  0  3  0  0  0  0  0  0
  -26.3150  -31.5060   24.9630 C   0  0  1  0  0  0  0  0  0  0  0  0
  -25.2230  -31.1980   26.0140 C   0  0  0  0  0  1  0  0  0  0  0  0
  -26.9620  -30.1640   24.5480 C   0  0  0  0  0  1  0  0  0  0  0  0
  -27.4230  -32.3340   25.6540 C   0  0  0  0  0  1  0  0  0  0  0  0
  -25.4060  -33.6580   24.0540 N   0  0  0  0  0  0  0  0  0  0  0  0
  -25.6990  -34.7410   23.3210 C   0  0  0  0  0  0  0  0  0  0  0  0
  -26.3800  -34.6870   22.2930 O   0  0  0  0  0  0  0  0  0  0  0  0
  -24.8000  -33.7690   24.8540 H   0  0  0  0  0  0  0  0  0  0  0  0
  -23.8930  -36.4620   22.9990 C   0  0  0  0  0  1  0  0  0  0  0  0
  -25.1500  -36.0970   23.8040 C   0  0  0  0  0  3  0  0  0  0  0  0
  -27.2370  -37.0650   24.6620 C   0  0  0  0  0  1  0  0  0  0  0  0
  -26.1350  -37.1960   23.7120 N   0  0  0  0  0  0  0  0  0  0  0  0
  -25.6870  -38.0960   23.8680 H   0  0  0  0  0  0  0  0  0  0  0  0
  1  2  2  0
  2  5  1  0
  2  4  1  0
  3 52  1  0
  3  1  1  0
  6  3  1  0
  7 10  1  0
  8  7  2  0
  8 11  1  0
  9 12  1  0
 10  1  1  0
 10 12  2  0
 11 22  1  0
 11  9  2  0
 12 13  1  0
 14 22  1  0
 15 20  1  0
 16 17  1  0
 16 15  1  0
 18 17  1  0
 18 27  1  0
 18 19  1  0
 20 14  1  0
 20 19  1  0
 21 14  2  0
 22 23  1  0
 24 25  2  0
 25 44  1  0
 26 25  1  0
 26 29  1  0
 27 28  1  0
 27 24  1  0
 28 26  2  0
 29 30  1  0
 30 31  2  0
 32 35  1  0
 32 31  1  0
 33 32  2  0
 34 33  1  0
 34 29  2  0
 35 36  1  0
 36 37  1  0
 37 38  2  0
 39 38  1  0
 39 43  1  0
 40 39  2  0
 41 36  2  0
 41 40  1  0
 42 41  1  0
 44 45  1  0
 45 48  1  0
 45 47  1  0
 46 44  2  0
 49 24  1  0
 49 50  1  0
 51 49  1  0
 53 54  1  0
 53 52  2  0
 55 66  2  0
 56 54  1  0
 56 61  1  0
 57 65  1  0
 57 67  1  0
 58 64  1  0
 58 60  1  0
 59 65  1  0
 60 59  1  0
 61 60  2  0
 62 63  1  0
 62 56  2  0
 63 58  2  0
 64 57  1  0
 65 55  1  0
 67 69  2  0
 68 67  1  0
 70 68  1  0
 71 80  2  0
 71 76  1  0
 72 68  1  0
 72 76  1  0
 73 72  1  0
 74 75  1  0
 74 73  1  0
 75 71  1  0
 76 77  2  0
 77 78  1  0
 79 78  2  0
 80 79  1  0
 81 55  1  0
 81 86  1  0
 81 82  1  0
 82 85  1  1
 82 83  1  0
 84 82  1  0
 86 89  1  0
 87 91  1  0
 87 86  1  0
 88 87  2  0
 91 90  1  0
 93 91  1  0
 93 94  1  0
 93 92  1  0
M  ISO  4  14 100  22 100  53 101  54 101
M  END
>  <TORSDO>  (88) 
F 19

>  <SCORE>  (88) 
-12.894

>  <name>  (88) 
87

>  <ligand_id>  (88) 
87

>  <original_smiles>  (88) 
[H]c1c([H])c([H])c2c(c1[H])C([H])([H])C([H])([H])C([H])([H])C2([H])N([H])C(=O)C1([H])N(C(=O)C([H])(N([H])C(=O)C([H])(N([H])C([H])([H])[H])C([H])([H])[H])C(C([H])([H])[H])(C([H])([H])[H])C([H])([H])[H])C([H])([H])c2c([H])c(OC([H])([H])C([H])([H])[N+]([H])=C(c3c([H])c([H])c(N([H])C(=O)N4C([H])([H])C([H])([H])C([H])([H])C([H])(n5nc(-c6c([H])c([H])c(Oc7c([H])c([H])c(F)c([H])c7F)c([H])c6[H])c(C(=O)N([H])[H])c5N([H])[H])C4([H])[H])c([H])c3F)N([H])[H])c([H])c([H])c2C1([H])[H]

>  <smiles>  (88) 
[H]c1c([H])c([H])c2c(c1[H])C([H])([H])C([H])([H])C([H])([H])C2([H])N([H])C(=O)C1([H])N(C(=O)C([H])(N([H])C(=O)C([H])(N([H])C([H])([H])[H])C([H])([H])[H])C(C([H])([H])[H])(C([H])([H])[H])C([H])([H])[H])C([H])([H])c2c([H])c(OC([H])([H])C([H])([H])[N+]([H])=C(c3c([H])c([H])c(N([H])C(=O)N4C([H])([H])C([H])([H])C([H])([H])C([H])(n5nc(-c6c([H])c([H])c(Oc7c([H])c([H])c(F)c([H])c7F)c([H])c6[H])c(C(=O)N([H])[H])c5N([H])[H])C4([H])[H])c([H])c3F)N([H])[H])c([H])c([H])c2C1([H])[H]

$$$$
88:0:0
     RDKit          3D

 91100  0  0  1  0  0  0  0  0999 V2000
  -28.9660  -21.7490   19.3370 C   0  0  0  0  0  2  0  0  0  0  0  0
  -29.9710  -21.8010   21.6260 C   0  0  0  0  0  2  0  0  0  0  0  0
  -28.3150  -23.1540   19.5800 C   0  0  0  0  0  2  0  0  0  0  0  0
  -29.3080  -23.1840   21.8850 C   0  0  0  0  0  2  0  0  0  0  0  0
  -29.1620  -20.9320   20.6400 C   0  0  0  0  0  3  0  0  0  0  0  0
  -29.0510  -24.0510   20.6180 C   0  0  0  0  0  3  0  0  0  0  0  0
  -31.0910  -17.7340   19.9940 C   0  0  0  0  0  3  0  0  0  0  0  0
  -30.0520  -16.9670   20.4870 C   0  0  0  0  0  0  0  0  0  0  0  0
  -29.6690  -19.4880   20.4830 C   0  0  0  0  0  0  0  0  0  0  0  0
  -30.8660  -19.1290   19.9970 N   0  0  0  0  0  0  0  0  0  0  0  0
  -28.7430  -18.0500   20.9720 S   0  0  0  0  0  0  0  0  0  0  0  0
  -30.6590  -14.5860   20.0880 C   0  0  0  0  0  0  0  0  0  0  0  0
  -30.3390  -12.4270   18.9200 C   0  0  0  0  0  2  0  0  0  0  0  0
  -29.3250  -12.6470   17.7760 C   0  0  0  0  0  2  0  0  0  0  0  0
  -27.8780  -12.4910   18.2860 C   0  0  0  0  0  2  0  0  0  0  0  0
  -27.6130  -13.2900   19.5900 C   0  0  0  0  0  3  0  0  0  0  0  0
  -28.7330  -13.0430   20.6270 C   0  0  0  0  0  2  0  0  0  0  0  0
  -30.0170  -13.3840   19.9930 N   0  0  0  0  0  0  0  0  0  0  0  0
  -31.7770  -14.7720   19.5990 O   0  0  0  0  0  0  0  0  0  0  0  0
  -29.9190  -15.5990   20.6170 N   0  0  0  0  0  0  0  0  0  0  0  0
  -29.0550  -15.2890   21.0350 H   0  0  0  0  0  0  0  0  0  0  0  0
  -25.2610  -13.8840   20.4460 C   0  0  0  0  0  0  0  0  0  0  0  0
  -24.2140  -13.1060   20.8570 C   0  0  0  0  0  0  0  0  0  0  0  0
  -24.6690  -11.7540   20.7720 C   0  0  0  0  0  0  0  0  0  0  0  0
  -26.2890  -13.0060   20.1380 N   0  0  0  0  0  0  0  0  0  0  0  0
  -25.9390  -11.7190   20.3920 N   0  0  0  0  0  0  0  0  0  0  0  0
  -23.9500  -10.4890   20.9740 C   0  0  0  0  0  0  0  0  0  0  0  0
  -24.4050   -9.5200   21.8950 C   0  0  0  0  0  3  0  0  0  0  0  0
  -23.6870   -8.3200   22.0850 C   0  0  0  0  0  3  0  0  0  0  0  0
  -22.4990   -8.0800   21.3550 C   0  0  0  0  0  0  0  0  0  0  0  0
  -22.0630   -9.0380   20.4230 C   0  0  0  0  0  3  0  0  0  0  0  0
  -22.7810  -10.2290   20.2300 C   0  0  0  0  0  3  0  0  0  0  0  0
  -21.7510   -6.9330   21.4550 O   0  0  0  0  0  0  0  0  0  0  0  0
  -21.6980   -6.2060   22.6190 C   0  0  0  0  0  0  0  0  0  0  0  0
  -21.2340   -6.7700   23.8270 C   0  0  0  0  0  3  0  0  0  0  0  0
  -21.1310   -5.9690   24.9830 C   0  0  0  0  0  3  0  0  0  0  0  0
  -21.4810   -4.6060   24.9300 C   0  0  0  0  0  0  0  0  0  0  0  0
  -21.9380   -4.0430   23.7260 C   0  0  0  0  0  3  0  0  0  0  0  0
  -22.0430   -4.8410   22.5720 C   0  0  0  0  0  0  0  0  0  0  0  0
  -22.4640   -4.2880   21.4090 F   0  0  0  0  0  0  0  0  0  0  0  0
  -21.3750   -3.8350   26.0370 F   0  0  0  0  0  0  0  0  0  0  0  0
  -22.8350  -13.5790   21.2180 C   0  0  0  0  0  0  0  0  0  0  0  0
  -22.1530  -12.8640   22.1050 N   0  0  0  0  0  0  0  0  0  0  0  0
  -22.3720  -14.6180   20.7470 O   0  0  0  0  0  0  0  0  0  0  0  0
  -22.5410  -12.0240   22.5080 H   0  0  0  0  0  0  0  0  0  0  0  0
  -21.2300  -13.1620   22.3890 H   0  0  0  0  0  0  0  0  0  0  0  0
  -25.4210  -15.2570   20.2890 N   0  0  0  0  0  0  0  0  0  0  0  0
  -24.6610  -15.9100   20.4520 H   0  0  0  0  0  0  0  0  0  0  0  0
  -26.2470  -15.7020   19.9080 H   0  0  0  0  0  0  0  0  0  0  0  0
  -28.2720  -25.3720   21.0070 C   0  0  0  0  0  2  0  0  0  0  0  0
  -28.4440  -26.5850   20.2180 O   0  0  0  0  0  0  0  0  0  0  0  0
  -24.6170  -31.8710   23.2140 C   0  0  0  0  0  0  0  0  0  0  0  0
  -27.3200  -27.3990   20.1830 C   0  0  0  0  0  0  0  0  0  0  0  0
  -23.4450  -30.4620   21.5550 C   0  0  0  0  0  3  0  0  0  0  0  0
  -24.9290  -28.9320   20.1470 C   0  0  0  0  0  0  0  0  0  0  0  0
  -25.9760  -30.8250   21.3960 C   0  0  0  0  0  2  0  0  0  0  0  0
  -26.0810  -29.4510   20.7540 C   0  0  0  0  0  0  0  0  0  0  0  0
  -27.2830  -28.6950   20.7650 C   0  0  0  0  0  3  0  0  0  0  0  0
  -26.1540  -26.9110   19.5570 C   0  0  0  0  0  3  0  0  0  0  0  0
  -24.9640  -27.6640   19.5400 C   0  0  0  0  0  3  0  0  0  0  0  0
  -23.6800  -29.7870   20.1780 C   0  0  0  0  0  2  0  0  0  0  0  0
  -24.6970  -31.0680   22.1130 N   0  0  0  0  0  0  0  0  0  0  0  0
  -23.5260  -32.1360   23.7380 O   0  0  0  0  0  0  0  0  0  0  0  0
  -22.7830  -29.4380   22.5070 C   0  0  0  0  0  0  0  0  0  0  0  0
  -21.4560  -29.2720   22.3840 N   0  0  0  0  0  0  0  0  0  0  0  0
  -23.4620  -28.7950   23.3120 O   0  0  0  0  0  0  0  0  0  0  0  0
  -20.9690  -29.8420   21.7050 H   0  0  0  0  0  0  0  0  0  0  0  0
  -18.0660  -28.1280   22.9050 C   0  0  0  0  0  0  0  0  0  0  0  0
  -20.6320  -28.3340   23.1460 C   0  0  0  0  0  3  0  0  0  0  0  0
  -20.7000  -26.9130   22.5390 C   0  0  0  0  0  2  0  0  0  0  0  0
  -19.5790  -26.6330   21.5340 C   0  0  0  0  0  2  0  0  0  0  0  0
  -18.2090  -26.7890   22.1990 C   0  0  0  0  0  2  0  0  0  0  0  0
  -19.2040  -28.8600   23.3350 C   0  0  0  0  0  0  0  0  0  0  0  0
  -19.0170  -30.1150   23.9540 C   0  0  0  0  0  3  0  0  0  0  0  0
  -17.7240  -30.6370   24.1480 C   0  0  0  0  0  3  0  0  0  0  0  0
  -16.6000  -29.9000   23.7340 C   0  0  0  0  0  3  0  0  0  0  0  0
  -16.7720  -28.6480   23.1180 C   0  0  0  0  0  3  0  0  0  0  0  0
  -25.8890  -32.5100   23.8520 C   0  0  0  0  0  3  0  0  0  0  0  0
  -25.5680  -33.9070   24.1750 N   0  0  0  0  0  0  0  0  0  0  0  0
  -25.9040  -34.9590   23.4190 C   0  0  0  0  0  0  0  0  0  0  0  0
  -26.5870  -34.8580   22.3960 O   0  0  0  0  0  0  0  0  0  0  0  0
  -24.9630  -34.0590   24.9690 H   0  0  0  0  0  0  0  0  0  0  0  0
  -24.1750  -36.7440   23.0330 C   0  0  0  0  0  1  0  0  0  0  0  0
  -25.4020  -36.3460   23.8670 C   0  0  0  0  0  3  0  0  0  0  0  0
  -27.5150  -37.2420   24.7400 C   0  0  0  0  0  1  0  0  0  0  0  0
  -26.4320  -37.4040   23.7730 N   0  0  0  0  0  0  0  0  0  0  0  0
  -26.0190  -38.3220   23.9090 H   0  0  0  0  0  0  0  0  0  0  0  0
  -26.3940  -31.7430   25.1350 C   0  0  1  0  0  0  0  0  0  0  0  0
  -25.2870  -31.4960   26.1880 C   0  0  0  0  0  1  0  0  0  0  0  0
  -26.9930  -30.3690   24.7500 C   0  0  0  0  0  1  0  0  0  0  0  0
  -27.5290  -32.5450   25.8140 C   0  0  0  0  0  1  0  0  0  0  0  0
  1  3  1  0
  1  5  1  0
  2  4  1  0
  3  6  1  0
  5  9  1  0
  5  2  1  0
  6 50  1  0
  6  4  1  0
  7 10  1  0
  7  8  2  0
  8 20  1  0
  8 11  1  0
  9 11  1  0
 10  9  2  0
 12 20  1  0
 13 18  1  0
 14 15  1  0
 14 13  1  0
 16 15  1  0
 16 25  1  0
 16 17  1  0
 18 12  1  0
 18 17  1  0
 19 12  2  0
 20 21  1  0
 22 23  2  0
 23 42  1  0
 24 23  1  0
 24 27  1  0
 25 26  1  0
 25 22  1  0
 26 24  2  0
 27 28  1  0
 28 29  2  0
 30 33  1  0
 30 29  1  0
 31 30  2  0
 32 31  1  0
 32 27  2  0
 33 34  1  0
 34 35  1  0
 35 36  2  0
 37 36  1  0
 37 41  1  0
 38 37  2  0
 39 34  2  0
 39 38  1  0
 40 39  1  0
 42 43  1  0
 43 46  1  0
 43 45  1  0
 44 42  2  0
 47 22  1  0
 47 48  1  0
 49 47  1  0
 51 50  1  0
 52 63  2  0
 53 51  1  0
 53 58  1  0
 54 62  1  0
 54 64  1  0
 55 61  1  0
 55 57  1  0
 56 62  1  0
 57 58  2  0
 57 56  1  0
 59 53  2  0
 60 59  1  0
 60 55  2  0
 61 54  1  0
 62 52  1  0
 64 66  2  0
 65 64  1  0
 67 65  1  0
 68 77  2  0
 68 73  1  0
 69 65  1  0
 69 73  1  0
 70 69  1  0
 71 72  1  0
 71 70  1  0
 72 68  1  0
 73 74  2  0
 74 75  1  0
 76 75  2  0
 77 76  1  0
 78 52  1  0
 78 79  1  0
 78 88  1  0
 79 82  1  0
 80 84  1  0
 80 79  1  0
 81 80  2  0
 84 83  1  0
 86 84  1  0
 86 87  1  0
 86 85  1  0
 88 91  1  1
 88 89  1  0
 90 88  1  0
M  ISO  4  12 100  20 100  50 101  51 101
M  END
>  <TORSDO>  (89) 
F 18

>  <SCORE>  (89) 
-14.366

>  <name>  (89) 
88

>  <ligand_id>  (89) 
88

>  <original_smiles>  (89) 
[H]c1nc(C2([H])C([H])([H])C([H])([H])C([H])(C([H])([H])Oc3c([H])c([H])c4c(c3[H])C([H])([H])N(C(=O)C([H])(N([H])C(=O)C([H])(N([H])C([H])([H])[H])C([H])([H])[H])C(C([H])([H])[H])(C([H])([H])[H])C([H])([H])[H])C([H])(C(=O)N([H])C3([H])c5c([H])c([H])c([H])c([H])c5C([H])([H])C([H])([H])C3([H])[H])C4([H])[H])C([H])([H])C2([H])[H])sc1N([H])C(=O)N1C([H])([H])C([H])([H])C([H])([H])C([H])(n2nc(-c3c([H])c([H])c(Oc4c([H])c([H])c(F)c([H])c4F)c([H])c3[H])c(C(=O)N([H])[H])c2N([H])[H])C1([H])[H]

>  <smiles>  (89) 
[H]c1nc(C2([H])C([H])([H])C([H])([H])C([H])(C([H])([H])Oc3c([H])c([H])c4c(c3[H])C([H])([H])N(C(=O)C([H])(N([H])C(=O)C([H])(N([H])C([H])([H])[H])C([H])([H])[H])C(C([H])([H])[H])(C([H])([H])[H])C([H])([H])[H])C([H])(C(=O)N([H])C3([H])c5c([H])c([H])c([H])c([H])c5C([H])([H])C([H])([H])C3([H])[H])C4([H])[H])C([H])([H])C2([H])[H])sc1N([H])C(=O)N1C([H])([H])C([H])([H])C([H])([H])C([H])(n2nc(-c3c([H])c([H])c(Oc4c([H])c([H])c(F)c([H])c4F)c([H])c3[H])c(C(=O)N([H])[H])c2N([H])[H])C1([H])[H]

$$$$
89:0:0
     RDKit          3D

 96104  0  0  1  0  0  0  0  0999 V2000
  -31.7880  -19.9440   18.6870 C   0  0  0  0  0  3  0  0  0  0  0  0
  -31.1490  -17.9160   19.8850 C   0  0  0  0  0  0  0  0  0  0  0  0
  -32.1380  -18.7260   19.2910 C   0  0  0  0  0  0  0  0  0  0  0  0
  -29.8030  -18.3910   19.8230 C   0  0  0  0  0  0  0  0  0  0  0  0
  -30.4530  -20.3530   18.7070 C   0  0  0  0  0  0  0  0  0  0  0  0
  -29.4890  -19.5920   19.2540 N   0  0  0  0  0  0  0  0  0  0  0  0
  -30.0970  -21.5790   18.1280 N   0  0  0  0  0  0  0  0  0  0  0  0
  -33.4420  -18.3570   19.3200 F   0  0  0  0  0  0  0  0  0  0  0  0
  -30.8330  -22.1700   17.7530 H   0  0  0  0  0  0  0  0  0  0  0  0
  -28.6460  -17.5980   20.3670 C   0  0  0  0  0  0  0  0  0  0  0  0
  -27.2930  -18.3010   20.4180 C   0  0  0  0  0  1  0  0  0  0  0  0
  -28.7140  -16.4290   20.7590 O   0  0  0  0  0  0  0  0  0  0  0  0
  -31.5990  -16.6670   20.6780 C   0  0  0  0  0  2  0  0  0  0  0  0
  -31.4610  -14.3150   19.8090 C   0  0  0  0  0  0  0  0  0  0  0  0
  -31.0550  -12.0370   18.9490 C   0  0  0  0  0  2  0  0  0  0  0  0
  -30.0690  -12.0780   17.7650 C   0  0  0  0  0  2  0  0  0  0  0  0
  -28.6140  -12.0250   18.2710 C   0  0  0  0  0  2  0  0  0  0  0  0
  -28.3370  -13.0430   19.4090 C   0  0  0  0  0  3  0  0  0  0  0  0
  -29.4320  -12.9730   20.4970 C   0  0  0  0  0  2  0  0  0  0  0  0
  -30.7360  -13.1640   19.8400 N   0  0  0  0  0  0  0  0  0  0  0  0
  -32.5410  -14.4010   19.2220 O   0  0  0  0  0  0  0  0  0  0  0  0
  -30.9120  -15.3890   20.4090 N   0  0  0  0  0  0  0  0  0  0  0  0
  -30.0130  -15.2530   20.8500 H   0  0  0  0  0  0  0  0  0  0  0  0
  -26.0450  -13.8130   20.2900 C   0  0  0  0  0  0  0  0  0  0  0  0
  -24.9460  -13.1160   20.7110 C   0  0  0  0  0  0  0  0  0  0  0  0
  -25.2950  -11.7340   20.6200 C   0  0  0  0  0  0  0  0  0  0  0  0
  -27.0010  -12.8600   19.9720 N   0  0  0  0  0  0  0  0  0  0  0  0
  -26.5560  -11.6030   20.2260 N   0  0  0  0  0  0  0  0  0  0  0  0
  -24.4850  -10.5270   20.8280 C   0  0  0  0  0  0  0  0  0  0  0  0
  -24.8210   -9.5730   21.8140 C   0  0  0  0  0  3  0  0  0  0  0  0
  -24.0140   -8.4300   22.0080 C   0  0  0  0  0  3  0  0  0  0  0  0
  -22.8580   -8.2350   21.2150 C   0  0  0  0  0  0  0  0  0  0  0  0
  -22.5420   -9.1760   20.2200 C   0  0  0  0  0  3  0  0  0  0  0  0
  -23.3470  -10.3100   20.0240 C   0  0  0  0  0  3  0  0  0  0  0  0
  -22.0310   -7.1420   21.3150 O   0  0  0  0  0  0  0  0  0  0  0  0
  -21.7960   -6.5250   22.5180 C   0  0  0  0  0  0  0  0  0  0  0  0
  -21.2170   -7.2110   23.6080 C   0  0  0  0  0  3  0  0  0  0  0  0
  -20.9290   -6.5200   24.8020 C   0  0  0  0  0  3  0  0  0  0  0  0
  -21.2100   -5.1450   24.9060 C   0  0  0  0  0  0  0  0  0  0  0  0
  -21.7820   -4.4580   23.8200 C   0  0  0  0  0  3  0  0  0  0  0  0
  -22.0700   -5.1470   22.6280 C   0  0  0  0  0  0  0  0  0  0  0  0
  -22.6010   -4.4750   21.5770 F   0  0  0  0  0  0  0  0  0  0  0  0
  -20.9280   -4.4790   26.0500 F   0  0  0  0  0  0  0  0  0  0  0  0
  -23.6100  -13.6920   21.0850 C   0  0  0  0  0  0  0  0  0  0  0  0
  -22.8960  -13.0410   21.9970 N   0  0  0  0  0  0  0  0  0  0  0  0
  -23.2140  -14.7540   20.6060 O   0  0  0  0  0  0  0  0  0  0  0  0
  -23.2260  -12.1790   22.4040 H   0  0  0  0  0  0  0  0  0  0  0  0
  -22.0020  -13.4090   22.2910 H   0  0  0  0  0  0  0  0  0  0  0  0
  -26.3060  -15.1720   20.1310 N   0  0  0  0  0  0  0  0  0  0  0  0
  -25.6020  -15.8810   20.3070 H   0  0  0  0  0  0  0  0  0  0  0  0
  -27.1720  -15.5530   19.7730 H   0  0  0  0  0  0  0  0  0  0  0  0
  -28.9140  -22.3180   18.5830 C   0  0  0  0  0  2  0  0  0  0  0  0
  -29.0600  -23.8440   18.4080 C   0  0  0  0  0  0  0  0  0  0  0  0
  -29.9450  -24.3160   17.6820 O   0  0  0  0  0  0  0  0  0  0  0  0
  -28.0750  -24.7440   19.1780 C   0  0  0  0  0  2  0  0  0  0  0  0
  -28.4030  -26.1440   19.0710 O   0  0  0  0  0  0  0  0  0  0  0  0
  -25.1560  -30.9650   23.1950 C   0  0  0  0  0  0  0  0  0  0  0  0
  -27.3310  -26.9910   19.2380 C   0  0  0  0  0  0  0  0  0  0  0  0
  -23.8170  -30.0590   21.3240 C   0  0  0  0  0  3  0  0  0  0  0  0
  -25.1060  -28.6990   19.5920 C   0  0  0  0  0  0  0  0  0  0  0  0
  -26.3650  -30.1880   21.1580 C   0  0  0  0  0  2  0  0  0  0  0  0
  -26.3110  -28.9760   20.2520 C   0  0  0  0  0  0  0  0  0  0  0  0
  -27.4320  -28.1310   20.0690 C   0  0  0  0  0  3  0  0  0  0  0  0
  -26.1140  -26.7350   18.5710 C   0  0  0  0  0  3  0  0  0  0  0  0
  -25.0020  -27.5800   18.7470 C   0  0  0  0  0  3  0  0  0  0  0  0
  -23.9570  -29.6540   19.8320 C   0  0  0  0  0  2  0  0  0  0  0  0
  -25.1320  -30.4040   21.9520 N   0  0  0  0  0  0  0  0  0  0  0  0
  -24.1070  -31.2330   23.7970 O   0  0  0  0  0  0  0  0  0  0  0  0
  -23.0570  -28.9380   22.0690 C   0  0  0  0  0  0  0  0  0  0  0  0
  -21.7170  -28.9500   21.9630 N   0  0  0  0  0  0  0  0  0  0  0  0
  -23.6670  -28.0720   22.7000 O   0  0  0  0  0  0  0  0  0  0  0  0
  -21.2920  -29.7000   21.4360 H   0  0  0  0  0  0  0  0  0  0  0  0
  -18.2250  -28.1230   22.3830 C   0  0  0  0  0  0  0  0  0  0  0  0
  -20.8000  -27.9710   22.5450 C   0  0  0  0  0  3  0  0  0  0  0  0
  -20.6790  -26.7190   21.6460 C   0  0  0  0  0  2  0  0  0  0  0  0
  -19.5120  -26.7930   20.6570 C   0  0  0  0  0  2  0  0  0  0  0  0
  -18.1860  -26.9610   21.4050 C   0  0  0  0  0  2  0  0  0  0  0  0
  -19.4540  -28.6070   22.9050 C   0  0  0  0  0  0  0  0  0  0  0  0
  -19.4360  -29.7120   23.7830 C   0  0  0  0  0  3  0  0  0  0  0  0
  -18.2230  -30.3300   24.1410 C   0  0  0  0  0  3  0  0  0  0  0  0
  -17.0090  -29.8370   23.6340 C   0  0  0  0  0  3  0  0  0  0  0  0
  -17.0110  -28.7340   22.7610 C   0  0  0  0  0  3  0  0  0  0  0  0
  -26.5000  -31.3180   23.9090 C   0  0  0  0  0  3  0  0  0  0  0  0
  -26.3620  -32.6680   24.4670 N   0  0  0  0  0  0  0  0  0  0  0  0
  -26.8800  -33.7750   23.9170 C   0  0  0  0  0  0  0  0  0  0  0  0
  -27.5930  -33.7510   22.9090 O   0  0  0  0  0  0  0  0  0  0  0  0
  -25.7430  -32.7700   25.2580 H   0  0  0  0  0  0  0  0  0  0  0  0
  -25.4430  -35.8360   23.8040 C   0  0  0  0  0  1  0  0  0  0  0  0
  -26.5540  -35.1210   24.5900 C   0  0  0  0  0  3  0  0  0  0  0  0
  -28.7150  -35.5310   25.6790 C   0  0  0  0  0  1  0  0  0  0  0  0
  -27.7260  -36.0140   24.7180 N   0  0  0  0  0  0  0  0  0  0  0  0
  -27.4400  -36.9480   24.9990 H   0  0  0  0  0  0  0  0  0  0  0  0
  -26.8970  -30.2850   25.0350 C   0  0  1  0  0  0  0  0  0  0  0  0
  -25.7670  -30.0100   26.0540 C   0  0  0  0  0  1  0  0  0  0  0  0
  -27.3090  -28.9310   24.4110 C   0  0  0  0  0  1  0  0  0  0  0  0
  -28.1270  -30.8060   25.8140 C   0  0  0  0  0  1  0  0  0  0  0  0
  1  5  2  0
  1  3  1  0
  2 13  1  0
  3  8  1  0
  3  2  2  0
  4  2  1  0
  4 10  1  0
  5  6  1  0
  6  4  2  0
  7 52  1  0
  7  5  1  0
  9  7  1  0
 10 11  1  0
 10 12  2  0
 14 20  1  0
 14 22  1  0
 15 20  1  0
 16 17  1  0
 16 15  1  0
 18 17  1  0
 18 27  1  0
 18 19  1  0
 20 19  1  0
 21 14  2  0
 22 13  1  0
 22 23  1  0
 24 25  2  0
 25 44  1  0
 26 25  1  0
 26 29  1  0
 27 28  1  0
 27 24  1  0
 28 26  2  0
 29 30  1  0
 30 31  2  0
 32 35  1  0
 32 31  1  0
 33 32  2  0
 34 33  1  0
 34 29  2  0
 35 36  1  0
 36 41  2  0
 36 37  1  0
 37 38  2  0
 38 39  1  0
 39 43  1  0
 40 39  2  0
 41 40  1  0
 42 41  1  0
 44 45  1  0
 45 48  1  0
 45 47  1  0
 46 44  2  0
 49 24  1  0
 49 50  1  0
 51 49  1  0
 53 52  1  0
 53 55  1  0
 54 53  2  0
 56 55  1  0
 56 58  1  0
 57 68  2  0
 58 63  1  0
 59 67  1  0
 59 69  1  0
 60 66  1  0
 60 62  1  0
 61 67  1  0
 62 61  1  0
 63 62  2  0
 64 65  1  0
 64 58  2  0
 65 60  2  0
 66 59  1  0
 67 57  1  0
 69 71  2  0
 70 69  1  0
 72 70  1  0
 73 82  2  0
 73 78  1  0
 74 70  1  0
 74 78  1  0
 75 74  1  0
 76 77  1  0
 76 75  1  0
 77 73  1  0
 78 79  2  0
 79 80  1  0
 81 80  2  0
 82 81  1  0
 83 57  1  0
 83 84  1  0
 83 93  1  0
 84 87  1  0
 85 84  1  0
 85 89  1  0
 86 85  2  0
 89 88  1  0
 89 91  1  0
 91 92  1  0
 91 90  1  0
 93 96  1  1
 93 94  1  0
 95 93  1  0
M  ISO  4  14 100  22 100  55 101  56 101
M  END
>  <TORSDO>  (90) 
F 21

>  <SCORE>  (90) 
-11.280

>  <name>  (90) 
89

>  <ligand_id>  (90) 
89

>  <original_smiles>  (90) 
[H]c1c([H])c([H])c2c(c1[H])C([H])([H])C([H])([H])C([H])([H])C2([H])N([H])C(=O)C1([H])N(C(=O)C([H])(N([H])C(=O)C([H])(N([H])C([H])([H])[H])C([H])([H])[H])C(C([H])([H])[H])(C([H])([H])[H])C([H])([H])[H])C([H])([H])c2c([H])c(OC([H])([H])C(=O)C([H])([H])N([H])c3nc(C(=O)C([H])([H])[H])c(C([H])([H])N([H])C(=O)N4C([H])([H])C([H])([H])C([H])([H])C([H])(n5nc(-c6c([H])c([H])c(Oc7c([H])c([H])c(F)c([H])c7F)c([H])c6[H])c(C(=O)N([H])[H])c5N([H])[H])C4([H])[H])c(F)c3[H])c([H])c([H])c2C1([H])[H]

>  <smiles>  (90) 
[H]c1c([H])c([H])c2c(c1[H])C([H])([H])C([H])([H])C([H])([H])C2([H])N([H])C(=O)C1([H])N(C(=O)C([H])(N([H])C(=O)C([H])(N([H])C([H])([H])[H])C([H])([H])[H])C(C([H])([H])[H])(C([H])([H])[H])C([H])([H])[H])C([H])([H])c2c([H])c(OC([H])([H])C(=O)C([H])([H])N([H])c3nc(C(=O)C([H])([H])[H])c(C([H])([H])N([H])C(=O)N4C([H])([H])C([H])([H])C([H])([H])C([H])(n5nc(-c6c([H])c([H])c(Oc7c([H])c([H])c(F)c([H])c7F)c([H])c6[H])c(C(=O)N([H])[H])c5N([H])[H])C4([H])[H])c(F)c3[H])c([H])c([H])c2C1([H])[H]

$$$$
90:0:0
     RDKit          3D

 92100  0  0  1  0  0  0  0  0999 V2000
  -29.5790  -21.0320   20.5880 N   0  0  0  0  0  0  0  0  0  0  0  0
  -30.5360  -21.2410   20.8620 H   0  0  0  0  0  0  0  0  0  0  0  0
  -30.6760  -14.8330   20.4370 C   0  0  0  0  0  0  0  0  0  0  0  0
  -30.4210  -12.5520   19.3970 C   0  0  0  0  0  2  0  0  0  0  0  0
  -29.5100  -12.5430   18.1500 C   0  0  0  0  0  2  0  0  0  0  0  0
  -28.0510  -12.3190   18.5760 C   0  0  0  0  0  2  0  0  0  0  0  0
  -27.6300  -13.2610   19.7290 C   0  0  0  0  0  3  0  0  0  0  0  0
  -28.6650  -13.2990   20.8800 C   0  0  0  0  0  2  0  0  0  0  0  0
  -29.9740  -13.6430   20.3100 N   0  0  0  0  0  0  0  0  0  0  0  0
  -31.8290  -14.8650   19.9980 O   0  0  0  0  0  0  0  0  0  0  0  0
  -28.1200  -17.0400   20.3220 C   0  0  0  0  0  3  0  0  0  0  0  0
  -27.8050  -19.4380   20.0670 C   0  0  0  0  0  3  0  0  0  0  0  0
  -27.2940  -18.1360   20.0140 C   0  0  0  0  0  0  0  0  0  0  0  0
  -29.4750  -17.2110   20.6450 C   0  0  0  0  0  0  0  0  0  0  0  0
  -29.1330  -19.6540   20.4620 C   0  0  0  0  0  0  0  0  0  0  0  0
  -29.9410  -18.5420   20.7390 N   0  0  0  0  0  0  0  0  0  0  0  0
  -30.1890  -15.9720   21.0870 N   0  0  0  0  0  0  0  0  0  0  0  0
  -25.9920  -17.9490   19.6940 F   0  0  0  0  0  0  0  0  0  0  0  0
  -30.9660  -16.2690   21.6580 H   0  0  0  0  0  0  0  0  0  0  0  0
  -25.2180  -13.8320   20.4040 C   0  0  0  0  0  0  0  0  0  0  0  0
  -24.1610  -13.0600   20.7860 C   0  0  0  0  0  0  0  0  0  0  0  0
  -24.6420  -11.7160   20.7880 C   0  0  0  0  0  0  0  0  0  0  0  0
  -26.2830  -12.9680   20.2110 N   0  0  0  0  0  0  0  0  0  0  0  0
  -25.9400  -11.6870   20.5070 N   0  0  0  0  0  0  0  0  0  0  0  0
  -23.9240  -10.4530   20.9850 C   0  0  0  0  0  0  0  0  0  0  0  0
  -24.3530   -9.5020   21.9370 C   0  0  0  0  0  3  0  0  0  0  0  0
  -23.6340   -8.3000   22.1230 C   0  0  0  0  0  3  0  0  0  0  0  0
  -22.4700   -8.0480   21.3570 C   0  0  0  0  0  0  0  0  0  0  0  0
  -22.0600   -8.9860   20.3940 C   0  0  0  0  0  3  0  0  0  0  0  0
  -22.7800  -10.1770   20.2080 C   0  0  0  0  0  3  0  0  0  0  0  0
  -21.7220   -6.9010   21.4530 O   0  0  0  0  0  0  0  0  0  0  0  0
  -21.6710   -6.1700   22.6140 C   0  0  0  0  0  0  0  0  0  0  0  0
  -21.2260   -6.7370   23.8270 C   0  0  0  0  0  3  0  0  0  0  0  0
  -21.1230   -5.9350   24.9820 C   0  0  0  0  0  3  0  0  0  0  0  0
  -21.4520   -4.5670   24.9220 C   0  0  0  0  0  0  0  0  0  0  0  0
  -21.8860   -4.0000   23.7110 C   0  0  0  0  0  3  0  0  0  0  0  0
  -21.9930   -4.8000   22.5600 C   0  0  0  0  0  0  0  0  0  0  0  0
  -22.3920   -4.2440   21.3890 F   0  0  0  0  0  0  0  0  0  0  0  0
  -21.3450   -3.7930   26.0260 F   0  0  0  0  0  0  0  0  0  0  0  0
  -22.7570  -13.5330   21.0230 C   0  0  0  0  0  0  0  0  0  0  0  0
  -22.0280  -12.8590   21.9030 N   0  0  0  0  0  0  0  0  0  0  0  0
  -22.3180  -14.5380   20.4640 O   0  0  0  0  0  0  0  0  0  0  0  0
  -22.3970  -12.0390   22.3620 H   0  0  0  0  0  0  0  0  0  0  0  0
  -21.0820  -13.1480   22.1050 H   0  0  0  0  0  0  0  0  0  0  0  0
  -25.3330  -15.1920   20.1650 N   0  0  0  0  0  0  0  0  0  0  0  0
  -24.5190  -15.8000   20.1590 H   0  0  0  0  0  0  0  0  0  0  0  0
  -26.1090  -15.5850   19.6530 H   0  0  0  0  0  0  0  0  0  0  0  0
  -28.6740  -22.2200   20.2360 C   0  0  0  0  0  2  0  0  0  0  0  0
  -29.0520  -23.7530   20.5400 C   0  0  0  0  0  0  0  0  0  0  0  0
  -30.0990  -24.0250   21.1360 O   0  0  0  0  0  0  0  0  0  0  0  0
  -28.0230  -24.9020   20.0740 C   0  0  0  0  0  2  0  0  0  0  0  0
  -28.3140  -26.3670   20.3120 O   0  0  0  0  0  0  0  0  0  0  0  0
  -24.6150  -31.8730   23.2630 C   0  0  0  0  0  0  0  0  0  0  0  0
  -27.2260  -27.2760   20.2200 C   0  0  0  0  0  0  0  0  0  0  0  0
  -23.4160  -30.4810   21.6160 C   0  0  0  0  0  3  0  0  0  0  0  0
  -24.8690  -28.9310   20.1870 C   0  0  0  0  0  0  0  0  0  0  0  0
  -25.9580  -30.7920   21.4390 C   0  0  0  0  0  2  0  0  0  0  0  0
  -26.0390  -29.4120   20.7850 C   0  0  0  0  0  0  0  0  0  0  0  0
  -27.2250  -28.6030   20.7740 C   0  0  0  0  0  3  0  0  0  0  0  0
  -26.0270  -26.8700   19.5890 C   0  0  0  0  0  3  0  0  0  0  0  0
  -24.8680  -27.6710   19.5740 C   0  0  0  0  0  3  0  0  0  0  0  0
  -23.6320  -29.8080   20.2340 C   0  0  0  0  0  2  0  0  0  0  0  0
  -24.6810  -31.0660   22.1640 N   0  0  0  0  0  0  0  0  0  0  0  0
  -23.5310  -32.1530   23.7960 O   0  0  0  0  0  0  0  0  0  0  0  0
  -22.7460  -29.4670   22.5740 C   0  0  0  0  0  0  0  0  0  0  0  0
  -21.4180  -29.2990   22.4460 N   0  0  0  0  0  0  0  0  0  0  0  0
  -23.4200  -28.8400   23.3950 O   0  0  0  0  0  0  0  0  0  0  0  0
  -20.9320  -29.8560   21.7560 H   0  0  0  0  0  0  0  0  0  0  0  0
  -18.0340  -28.1180   22.9410 C   0  0  0  0  0  0  0  0  0  0  0  0
  -20.5950  -28.3620   23.2110 C   0  0  0  0  0  3  0  0  0  0  0  0
  -20.6900  -26.9350   22.6280 C   0  0  0  0  0  2  0  0  0  0  0  0
  -19.5840  -26.6220   21.6110 C   0  0  0  0  0  2  0  0  0  0  0  0
  -18.2020  -26.7720   22.2530 C   0  0  0  0  0  2  0  0  0  0  0  0
  -19.1570  -28.8700   23.3710 C   0  0  0  0  0  0  0  0  0  0  0  0
  -18.9430  -30.1320   23.9720 C   0  0  0  0  0  3  0  0  0  0  0  0
  -17.6390  -30.6390   24.1440 C   0  0  0  0  0  3  0  0  0  0  0  0
  -16.5300  -29.8770   23.7310 C   0  0  0  0  0  3  0  0  0  0  0  0
  -16.7300  -28.6200   23.1340 C   0  0  0  0  0  3  0  0  0  0  0  0
  -25.8970  -32.5000   23.8920 C   0  0  0  0  0  3  0  0  0  0  0  0
  -26.3990  -31.7310   25.1760 C   0  0  1  0  0  0  0  0  0  0  0  0
  -25.2980  -31.5050   26.2380 C   0  0  0  0  0  1  0  0  0  0  0  0
  -26.9730  -30.3470   24.7970 C   0  0  0  0  0  1  0  0  0  0  0  0
  -27.5480  -32.5230   25.8440 C   0  0  0  0  0  1  0  0  0  0  0  0
  -25.5920  -33.9000   24.2170 N   0  0  0  0  0  0  0  0  0  0  0  0
  -25.9230  -34.9510   23.4530 C   0  0  0  0  0  0  0  0  0  0  0  0
  -26.5850  -34.8380   22.4180 O   0  0  0  0  0  0  0  0  0  0  0  0
  -24.9980  -34.0570   25.0170 H   0  0  0  0  0  0  0  0  0  0  0  0
  -24.1900  -36.7460   23.1180 C   0  0  0  0  0  1  0  0  0  0  0  0
  -25.4440  -36.3440   23.9100 C   0  0  0  0  0  3  0  0  0  0  0  0
  -27.5930  -37.2340   24.6970 C   0  0  0  0  0  1  0  0  0  0  0  0
  -26.4770  -37.3950   23.7720 N   0  0  0  0  0  0  0  0  0  0  0  0
  -26.0750  -38.3180   23.9160 H   0  0  0  0  0  0  0  0  0  0  0  0
  1  2  1  0
  3 17  1  0
  4  9  1  0
  5  6  1  0
  5  4  1  0
  7  6  1  0
  7 23  1  0
  7  8  1  0
  9  3  1  0
  9  8  1  0
 10  3  2  0
 11 14  1  0
 12 15  2  0
 13 12  1  0
 13 11  2  0
 14 16  2  0
 14 17  1  0
 15  1  1  0
 15 16  1  0
 17 19  1  0
 18 13  1  0
 20 21  2  0
 21 22  1  0
 21 40  1  0
 22 25  1  0
 23 20  1  0
 23 24  1  0
 24 22  2  0
 25 26  1  0
 26 27  2  0
 28 31  1  0
 28 27  1  0
 29 28  2  0
 30 29  1  0
 30 25  2  0
 31 32  1  0
 32 33  1  0
 33 34  2  0
 35 34  1  0
 35 39  1  0
 36 35  2  0
 37 32  2  0
 37 36  1  0
 38 37  1  0
 40 41  1  0
 41 44  1  0
 41 43  1  0
 42 40  2  0
 45 20  1  0
 46 45  1  0
 47 45  1  0
 48 49  1  0
 48  1  1  0
 49 50  2  0
 51 52  1  0
 51 49  1  0
 53 64  2  0
 54 52  1  0
 54 59  1  0
 55 63  1  0
 55 65  1  0
 56 62  1  0
 56 58  1  0
 57 63  1  0
 58 57  1  0
 59 58  2  0
 60 54  2  0
 61 60  1  0
 61 56  2  0
 62 55  1  0
 63 53  1  0
 65 67  2  0
 66 65  1  0
 68 66  1  0
 69 78  2  0
 69 74  1  0
 70 66  1  0
 70 74  1  0
 71 70  1  0
 72 73  1  0
 72 71  1  0
 73 69  1  0
 74 75  2  0
 75 76  1  0
 77 76  2  0
 78 77  1  0
 79 53  1  0
 79 84  1  0
 79 80  1  0
 80 83  1  1
 80 81  1  0
 82 80  1  0
 84 87  1  0
 85 89  1  0
 85 84  1  0
 86 85  2  0
 89 88  1  0
 91 89  1  0
 91 92  1  0
 91 90  1  0
M  ISO  4   3 100  17 100  51 101  52 101
M  END
>  <TORSDO>  (91) 
F 19

>  <SCORE>  (91) 
-14.461

>  <name>  (91) 
90

>  <ligand_id>  (91) 
90

>  <original_smiles>  (91) 
[H]c1c([H])c([H])c2c(c1[H])C([H])([H])C([H])([H])C([H])([H])C2([H])N([H])C(=O)C1([H])N(C(=O)C([H])(N([H])C(=O)C([H])(N([H])C([H])([H])[H])C([H])([H])[H])C(C([H])([H])[H])(C([H])([H])[H])C([H])([H])[H])C([H])([H])c2c([H])c(OC([H])([H])C(=O)C([H])([H])N([H])c3nc(N([H])C(=O)N4C([H])([H])C([H])([H])C([H])([H])C([H])(n5nc(-c6c([H])c([H])c(Oc7c([H])c([H])c(F)c([H])c7F)c([H])c6[H])c(C(=O)N([H])[H])c5N([H])[H])C4([H])[H])c([H])c(F)c3[H])c([H])c([H])c2C1([H])[H]

>  <smiles>  (91) 
[H]c1c([H])c([H])c2c(c1[H])C([H])([H])C([H])([H])C([H])([H])C2([H])N([H])C(=O)C1([H])N(C(=O)C([H])(N([H])C(=O)C([H])(N([H])C([H])([H])[H])C([H])([H])[H])C(C([H])([H])[H])(C([H])([H])[H])C([H])([H])[H])C([H])([H])c2c([H])c(OC([H])([H])C(=O)C([H])([H])N([H])c3nc(N([H])C(=O)N4C([H])([H])C([H])([H])C([H])([H])C([H])(n5nc(-c6c([H])c([H])c(Oc7c([H])c([H])c(F)c([H])c7F)c([H])c6[H])c(C(=O)N([H])[H])c5N([H])[H])C4([H])[H])c([H])c(F)c3[H])c([H])c([H])c2C1([H])[H]

$$$$
91:0:0
     RDKit          3D

100108  0  0  1  0  0  0  0  0999 V2000
  -30.6870  -20.6310   21.2760 C   0  0  0  0  0  3  0  0  0  0  0  0
  -29.5530  -21.8190   19.5220 C   0  0  0  0  0  3  0  0  0  0  0  0
  -30.8050  -19.4220   20.4620 C   0  0  0  0  0  0  0  0  0  0  0  0
  -30.3770  -19.5420   19.0980 C   0  0  0  0  0  0  0  0  0  0  0  0
  -30.1180  -21.8880   20.8110 C   0  0  0  0  0  0  0  0  0  0  0  0
  -29.5960  -20.6760   18.6690 C   0  0  0  0  0  0  0  0  0  0  0  0
  -30.8940  -18.5110   18.0880 C   0  0  0  0  0  1  0  0  0  0  0  0
  -31.7430  -15.6240   20.6370 C   0  0  0  0  0  0  0  0  0  0  0  0
  -31.4390  -13.4490   19.4290 C   0  0  0  0  0  2  0  0  0  0  0  0
  -30.5340  -13.6400   18.1930 C   0  0  0  0  0  2  0  0  0  0  0  0
  -29.0470  -13.5120   18.5770 C   0  0  0  0  0  2  0  0  0  0  0  0
  -28.6830  -14.3300   19.8440 C   0  0  0  0  0  3  0  0  0  0  0  0
  -29.7120  -14.1220   20.9760 C   0  0  0  0  0  2  0  0  0  0  0  0
  -31.0290  -14.4610   20.4290 N   0  0  0  0  0  0  0  0  0  0  0  0
  -32.9630  -15.5990   20.4540 O   0  0  0  0  0  0  0  0  0  0  0  0
  -31.5400  -18.1240   20.9720 C   0  0  0  0  0  0  0  0  0  0  0  0
  -31.0500  -16.8320   20.7530 N   0  0  0  0  0  0  0  0  0  0  0  0
  -32.5940  -18.3050   21.5880 O   0  0  0  0  0  0  0  0  0  0  0  0
  -30.0680  -16.7840   20.5450 H   0  0  0  0  0  0  0  0  0  0  0  0
  -26.3150  -14.9930   20.5660 C   0  0  0  0  0  0  0  0  0  0  0  0
  -25.1970  -14.2540   20.8450 C   0  0  0  0  0  0  0  0  0  0  0  0
  -25.5880  -12.8850   20.7250 C   0  0  0  0  0  0  0  0  0  0  0  0
  -27.3150  -14.0780   20.2850 N   0  0  0  0  0  0  0  0  0  0  0  0
  -26.8850  -12.8000   20.4480 N   0  0  0  0  0  0  0  0  0  0  0  0
  -24.7890  -11.6550   20.7990 C   0  0  0  0  0  0  0  0  0  0  0  0
  -25.0880  -10.6380   21.7310 C   0  0  0  0  0  3  0  0  0  0  0  0
  -24.2950   -9.4720   21.7980 C   0  0  0  0  0  3  0  0  0  0  0  0
  -23.1870   -9.3160   20.9300 C   0  0  0  0  0  0  0  0  0  0  0  0
  -22.9090  -10.3220   19.9880 C   0  0  0  0  0  3  0  0  0  0  0  0
  -23.7020  -11.4790   19.9200 C   0  0  0  0  0  3  0  0  0  0  0  0
  -22.3770   -8.2080   20.9060 O   0  0  0  0  0  0  0  0  0  0  0  0
  -22.1050   -7.4890   22.0430 C   0  0  0  0  0  0  0  0  0  0  0  0
  -21.5150   -8.0860   23.1780 C   0  0  0  0  0  3  0  0  0  0  0  0
  -21.1900   -7.2970   24.3000 C   0  0  0  0  0  3  0  0  0  0  0  0
  -21.4440   -5.9120   24.2840 C   0  0  0  0  0  0  0  0  0  0  0  0
  -22.0240   -5.3140   23.1510 C   0  0  0  0  0  3  0  0  0  0  0  0
  -22.3510   -6.1010   22.0330 C   0  0  0  0  0  0  0  0  0  0  0  0
  -22.8910   -5.5170   20.9370 F   0  0  0  0  0  0  0  0  0  0  0  0
  -21.1230   -5.1520   25.3580 F   0  0  0  0  0  0  0  0  0  0  0  0
  -23.8190  -14.7880   21.1060 C   0  0  0  0  0  0  0  0  0  0  0  0
  -23.0410  -14.0990   21.9340 N   0  0  0  0  0  0  0  0  0  0  0  0
  -23.4400  -15.8490   20.6130 O   0  0  0  0  0  0  0  0  0  0  0  0
  -23.3590  -13.2400   22.3590 H   0  0  0  0  0  0  0  0  0  0  0  0
  -22.1130  -14.4360   22.1480 H   0  0  0  0  0  0  0  0  0  0  0  0
  -26.5570  -16.3610   20.5020 N   0  0  0  0  0  0  0  0  0  0  0  0
  -25.8020  -17.0320   20.6030 H   0  0  0  0  0  0  0  0  0  0  0  0
  -27.3850  -16.7770   20.1010 H   0  0  0  0  0  0  0  0  0  0  0  0
  -29.9300  -24.5160   21.2270 C   0  0  0  0  0  0  0  0  0  0  0  0
  -30.0160  -23.1640   21.6040 N   0  0  0  0  0  0  0  0  0  0  0  0
  -30.1340  -24.8670   20.0630 O   0  0  0  0  0  0  0  0  0  0  0  0
  -29.9700  -23.0330   22.6060 H   0  0  0  0  0  0  0  0  0  0  0  0
  -28.3230  -25.3300   23.0900 C   0  0  0  0  0  1  0  0  0  0  0  0
  -29.5910  -25.6870   22.2900 C   0  0  0  0  0  3  0  0  0  0  0  0
  -29.6340  -27.1500   21.8590 O   0  0  0  0  0  0  0  0  0  0  0  0
  -25.0130  -32.4990   23.6630 C   0  0  0  0  0  0  0  0  0  0  0  0
  -28.4700  -27.9100   21.5930 C   0  0  0  0  0  0  0  0  0  0  0  0
  -24.2200  -30.8260   22.0310 C   0  0  0  0  0  3  0  0  0  0  0  0
  -26.0150  -29.2950   21.0240 C   0  0  0  0  0  0  0  0  0  0  0  0
  -26.7220  -31.3780   22.2010 C   0  0  0  0  0  2  0  0  0  0  0  0
  -27.0270  -29.9520   21.7370 C   0  0  0  0  0  0  0  0  0  0  0  0
  -28.2610  -29.2730   22.0040 C   0  0  0  0  0  3  0  0  0  0  0  0
  -27.4410  -27.3180   20.8330 C   0  0  0  0  0  3  0  0  0  0  0  0
  -26.2300  -27.9870   20.5580 C   0  0  0  0  0  3  0  0  0  0  0  0
  -24.7150  -30.0420   20.7850 C   0  0  0  0  0  2  0  0  0  0  0  0
  -25.3270  -31.5950   22.6870 N   0  0  0  0  0  0  0  0  0  0  0  0
  -23.8370  -32.7100   23.9920 O   0  0  0  0  0  0  0  0  0  0  0  0
  -23.5030  -29.8460   22.9900 C   0  0  0  0  0  0  0  0  0  0  0  0
  -22.2550  -29.4750   22.6570 N   0  0  0  0  0  0  0  0  0  0  0  0
  -24.0760  -29.4190   23.9950 O   0  0  0  0  0  0  0  0  0  0  0  0
  -21.8500  -29.8750   21.8220 H   0  0  0  0  0  0  0  0  0  0  0  0
  -18.9270  -28.0690   22.8630 C   0  0  0  0  0  0  0  0  0  0  0  0
  -21.4160  -28.5260   23.3920 C   0  0  0  0  0  3  0  0  0  0  0  0
  -21.6750  -27.0760   22.9230 C   0  0  0  0  0  2  0  0  0  0  0  0
  -20.7180  -26.6180   21.8180 C   0  0  0  0  0  2  0  0  0  0  0  0
  -19.2660  -26.7000   22.2980 C   0  0  0  0  0  2  0  0  0  0  0  0
  -19.9370  -28.9330   23.3630 C   0  0  0  0  0  0  0  0  0  0  0  0
  -19.5700  -30.2080   23.8450 C   0  0  0  0  0  3  0  0  0  0  0  0
  -18.2240  -30.6210   23.8360 C   0  0  0  0  0  3  0  0  0  0  0  0
  -17.2270  -29.7560   23.3560 C   0  0  0  0  0  3  0  0  0  0  0  0
  -17.5780  -28.4820   22.8750 C   0  0  0  0  0  3  0  0  0  0  0  0
  -26.1140  -33.3250   24.3960 C   0  0  0  0  0  3  0  0  0  0  0  0
  -25.6320  -34.7090   24.5130 N   0  0  0  0  0  0  0  0  0  0  0  0
  -25.9410  -35.7000   23.6650 C   0  0  0  0  0  0  0  0  0  0  0  0
  -26.7300  -35.5540   22.7270 O   0  0  0  0  0  0  0  0  0  0  0  0
  -24.9430  -34.8880   25.2280 H   0  0  0  0  0  0  0  0  0  0  0  0
  -24.0930  -37.2330   22.9150 C   0  0  0  0  0  1  0  0  0  0  0  0
  -25.2700  -37.0680   23.8910 C   0  0  0  0  0  3  0  0  0  0  0  0
  -27.2550  -38.2260   24.7590 C   0  0  0  0  0  1  0  0  0  0  0  0
  -26.1990  -38.2110   23.7490 N   0  0  0  0  0  0  0  0  0  0  0  0
  -25.6970  -39.0930   23.8020 H   0  0  0  0  0  0  0  0  0  0  0  0
  -26.4780  -32.7490   25.8200 C   0  0  1  0  0  0  0  0  0  0  0  0
  -25.2500  -32.2860   26.6380 C   0  0  0  0  0  1  0  0  0  0  0  0
  -27.4400  -31.5440   25.6930 C   0  0  0  0  0  1  0  0  0  0  0  0
  -27.2240  -33.8230   26.6460 C   0  0  0  0  0  1  0  0  0  0  0  0
  -27.6980  -21.6910   17.4050 C   0  0  0  0  0  1  0  0  0  0  0  0
  -28.8470  -20.7720   17.4460 N   0  0  0  0  0  0  0  0  0  0  0  0
  -28.8990  -19.8640   16.2840 C   0  0  0  0  0  2  0  0  0  0  0  0
  -28.3350  -18.4480   16.5070 C   0  0  0  0  0  0  0  0  0  0  0  0
  -27.8830  -17.6850   15.2700 C   0  0  0  0  0  1  0  0  0  0  0  0
  -28.2630  -17.9380   17.6260 O   0  0  0  0  0  0  0  0  0  0  0  0
  2  5  2  0
  3 16  1  0
  3  1  2  0
  4  3  1  0
  5  1  1  0
  5 49  1  0
  6  4  2  0
  6  2  1  0
  7  4  1  0
  8 17  1  0
  9 14  1  0
 10 11  1  0
 10  9  1  0
 12 11  1  0
 12 23  1  0
 12 13  1  0
 14  8  1  0
 14 13  1  0
 15  8  2  0
 16 18  2  0
 17 16  1  0
 19 17  1  0
 20 21  2  0
 21 40  1  0
 22 25  1  0
 22 21  1  0
 23 24  1  0
 23 20  1  0
 24 22  2  0
 25 26  1  0
 26 27  2  0
 28 27  1  0
 29 28  2  0
 30 29  1  0
 30 25  2  0
 31 28  1  0
 31 32  1  0
 32 33  1  0
 33 34  2  0
 35 34  1  0
 35 39  1  0
 36 35  2  0
 37 32  2  0
 37 36  1  0
 38 37  1  0
 40 41  1  0
 41 44  1  0
 41 43  1  0
 42 40  2  0
 45 20  1  0
 45 46  1  0
 47 45  1  0
 48 49  1  0
 48 53  1  0
 49 51  1  0
 50 48  2  0
 53 52  1  0
 54 53  1  0
 55 66  2  0
 56 54  1  0
 56 61  1  0
 57 65  1  0
 57 67  1  0
 58 60  1  0
 59 65  1  0
 60 61  2  0
 60 59  1  0
 62 56  2  0
 63 62  1  0
 63 58  2  0
 64 58  1  0
 64 57  1  0
 65 55  1  0
 67 69  2  0
 68 67  1  0
 70 68  1  0
 71 80  2  0
 71 76  1  0
 72 68  1  0
 73 72  1  0
 74 75  1  0
 74 73  1  0
 75 71  1  0
 76 72  1  0
 76 77  2  0
 78 77  1  0
 79 78  2  0
 80 79  1  0
 81 55  1  0
 81 82  1  0
 81 91  1  0
 82 85  1  0
 83 87  1  0
 83 82  1  0
 84 83  2  0
 87 86  1  0
 89 90  1  0
 89 87  1  0
 89 88  1  0
 91 92  1  1
 91 94  1  0
 93 91  1  0
 95 96  1  0
 96  6  1  0
 97 98  1  0
 97 96  1  0
 98100  2  0
 99 98  1  0
M  ISO  4   8 100  17 100  53 101  54 101
M  END
>  <TORSDO>  (92) 
F 21

>  <SCORE>  (92) 
-5.484

>  <name>  (92) 
91

>  <ligand_id>  (92) 
91

>  <original_smiles>  (92) 
[H]c1c([H])c([H])c2c(c1[H])C([H])([H])C([H])([H])C([H])([H])C2([H])N([H])C(=O)C1([H])N(C(=O)C([H])(N([H])C(=O)C([H])(N([H])C([H])([H])[H])C([H])([H])[H])C(C([H])([H])[H])(C([H])([H])[H])C([H])([H])[H])C([H])([H])c2c([H])c(OC([H])(C(=O)N([H])c3c([H])c(C(=O)N([H])C(=O)N4C([H])([H])C([H])([H])C([H])([H])C([H])(n5nc(-c6c([H])c([H])c(Oc7c([H])c([H])c(F)c([H])c7F)c([H])c6[H])c(C(=O)N([H])[H])c5N([H])[H])C4([H])[H])c(C([H])([H])[H])c(N(C([H])([H])[H])C([H])([H])C(=O)C([H])([H])[H])c3[H])C([H])([H])[H])c([H])c([H])c2C1([H])[H]

>  <smiles>  (92) 
[H]c1c([H])c([H])c2c(c1[H])C([H])([H])C([H])([H])C([H])([H])C2([H])N([H])C(=O)C1([H])N(C(=O)C([H])(N([H])C(=O)C([H])(N([H])C([H])([H])[H])C([H])([H])[H])C(C([H])([H])[H])(C([H])([H])[H])C([H])([H])[H])C([H])([H])c2c([H])c(OC([H])(C(=O)N([H])c3c([H])c(C(=O)N([H])C(=O)N4C([H])([H])C([H])([H])C([H])([H])C([H])(n5nc(-c6c([H])c([H])c(Oc7c([H])c([H])c(F)c([H])c7F)c([H])c6[H])c(C(=O)N([H])[H])c5N([H])[H])C4([H])[H])c(C([H])([H])[H])c(N(C([H])([H])[H])C([H])([H])C(=O)C([H])([H])[H])c3[H])C([H])([H])[H])c([H])c([H])c2C1([H])[H]

$$$$
92:0:0
     RDKit          3D

 92100  0  0  1  0  0  0  0  0999 V2000
  -29.1130  -22.7850   20.2840 C   0  0  0  0  0  2  0  0  0  0  0  0
  -27.2870  -24.0330   21.6060 C   0  0  0  0  0  1  0  0  0  0  0  0
  -29.7100  -24.5240   22.0400 C   0  0  0  0  0  1  0  0  0  0  0  0
  -28.6770  -24.1590   20.9470 C   0  0  1  0  0  0  0  0  0  0  0  0
  -28.6040  -25.2920   19.8430 C   0  0  0  0  0  2  0  0  0  0  0  0
  -28.4400  -26.6750   20.2730 O   0  0  0  0  0  0  0  0  0  0  0  0
  -24.5950  -31.8700   23.2310 C   0  0  0  0  0  0  0  0  0  0  0  0
  -27.2410  -27.3860   20.1940 C   0  0  0  0  0  0  0  0  0  0  0  0
  -23.3850  -30.4730   21.5860 C   0  0  0  0  0  3  0  0  0  0  0  0
  -24.8390  -28.9250   20.1650 C   0  0  0  0  0  0  0  0  0  0  0  0
  -25.9140  -30.8250   21.3840 C   0  0  0  0  0  2  0  0  0  0  0  0
  -25.9970  -29.4470   20.7520 C   0  0  0  0  0  0  0  0  0  0  0  0
  -27.1930  -28.6870   20.7600 C   0  0  0  0  0  3  0  0  0  0  0  0
  -26.0580  -26.8870   19.6000 C   0  0  0  0  0  3  0  0  0  0  0  0
  -24.8650  -27.6430   19.5860 C   0  0  0  0  0  3  0  0  0  0  0  0
  -23.5940  -29.7860   20.2070 C   0  0  0  0  0  2  0  0  0  0  0  0
  -24.6490  -31.0740   22.1240 N   0  0  0  0  0  0  0  0  0  0  0  0
  -23.5140  -32.1430   23.7720 O   0  0  0  0  0  0  0  0  0  0  0  0
  -22.7310  -29.4550   22.5510 C   0  0  0  0  0  0  0  0  0  0  0  0
  -21.4050  -29.2720   22.4270 N   0  0  0  0  0  0  0  0  0  0  0  0
  -23.4150  -28.8320   23.3670 O   0  0  0  0  0  0  0  0  0  0  0  0
  -20.9140  -29.8290   21.7390 H   0  0  0  0  0  0  0  0  0  0  0  0
  -18.0320  -28.0730   22.9180 C   0  0  0  0  0  0  0  0  0  0  0  0
  -20.5890  -28.3320   23.1940 C   0  0  0  0  0  3  0  0  0  0  0  0
  -20.6940  -26.9020   22.6160 C   0  0  0  0  0  2  0  0  0  0  0  0
  -19.5920  -26.5820   21.6010 C   0  0  0  0  0  2  0  0  0  0  0  0
  -18.2090  -26.7270   22.2390 C   0  0  0  0  0  2  0  0  0  0  0  0
  -19.1480  -28.8370   23.3510 C   0  0  0  0  0  0  0  0  0  0  0  0
  -18.9270  -30.1020   23.9380 C   0  0  0  0  0  3  0  0  0  0  0  0
  -17.6200  -30.6020   24.0970 C   0  0  0  0  0  3  0  0  0  0  0  0
  -16.5180  -29.8360   23.6790 C   0  0  0  0  0  3  0  0  0  0  0  0
  -16.7250  -28.5720   23.0960 C   0  0  0  0  0  3  0  0  0  0  0  0
  -25.8810  -32.4960   23.8540 C   0  0  0  0  0  3  0  0  0  0  0  0
  -25.5780  -33.8950   24.1870 N   0  0  0  0  0  0  0  0  0  0  0  0
  -25.9140  -34.9490   23.4290 C   0  0  0  0  0  0  0  0  0  0  0  0
  -26.5860  -34.8450   22.3990 O   0  0  0  0  0  0  0  0  0  0  0  0
  -24.9890  -34.0490   24.9920 H   0  0  0  0  0  0  0  0  0  0  0  0
  -24.1950  -36.7470   23.0760 C   0  0  0  0  0  1  0  0  0  0  0  0
  -25.4330  -36.3370   23.8890 C   0  0  0  0  0  3  0  0  0  0  0  0
  -27.5690  -37.2120   24.7240 C   0  0  0  0  0  1  0  0  0  0  0  0
  -26.4690  -37.3870   23.7780 N   0  0  0  0  0  0  0  0  0  0  0  0
  -26.0660  -38.3080   23.9260 H   0  0  0  0  0  0  0  0  0  0  0  0
  -26.3980  -31.7210   25.1290 C   0  0  1  0  0  0  0  0  0  0  0  0
  -25.3070  -31.4910   26.2010 C   0  0  0  0  0  1  0  0  0  0  0  0
  -26.9740  -30.3430   24.7290 C   0  0  0  0  0  1  0  0  0  0  0  0
  -27.5500  -32.5120   25.7920 C   0  0  0  0  0  1  0  0  0  0  0  0
  -28.8890  -21.5700   21.0980 N   0  0  0  0  0  0  0  0  0  0  0  0
  -27.9000  -21.4090   21.2650 H   0  0  0  0  0  0  0  0  0  0  0  0
  -31.2030  -18.8020   20.8880 C   0  0  0  0  0  3  0  0  0  0  0  0
  -30.9590  -20.1930   21.1280 C   0  0  0  0  0  3  0  0  0  0  0  0
  -30.0240  -18.2320   20.4910 C   0  0  0  0  0  0  0  0  0  0  0  0
  -29.6290  -20.3830   20.8950 C   0  0  0  0  0  0  0  0  0  0  0  0
  -29.0290  -19.2020   20.5220 O   0  0  0  0  0  0  0  0  0  0  0  0
  -29.6730  -16.8660   19.8980 C   0  0  0  0  0  2  0  0  0  0  0  0
  -30.6150  -14.5700   20.3450 C   0  0  0  0  0  0  0  0  0  0  0  0
  -30.3450  -12.3650   19.2660 C   0  0  0  0  0  2  0  0  0  0  0  0
  -29.3930  -12.5660   18.0680 C   0  0  0  0  0  2  0  0  0  0  0  0
  -27.9260  -12.4140   18.5110 C   0  0  0  0  0  2  0  0  0  0  0  0
  -27.5990  -13.2490   19.7790 C   0  0  0  0  0  3  0  0  0  0  0  0
  -28.6710  -13.0440   20.8760 C   0  0  0  0  0  2  0  0  0  0  0  0
  -29.9860  -13.3580   20.2950 N   0  0  0  0  0  0  0  0  0  0  0  0
  -31.7370  -14.7470   19.8660 O   0  0  0  0  0  0  0  0  0  0  0  0
  -29.8360  -15.6230   20.7030 N   0  0  0  0  0  0  0  0  0  0  0  0
  -29.0140  -15.3630   21.2270 H   0  0  0  0  0  0  0  0  0  0  0  0
  -25.2130  -13.8480   20.5290 C   0  0  0  0  0  0  0  0  0  0  0  0
  -24.1520  -13.0740   20.9130 C   0  0  0  0  0  0  0  0  0  0  0  0
  -24.6130  -11.7230   20.8700 C   0  0  0  0  0  0  0  0  0  0  0  0
  -26.2550  -12.9680   20.2750 N   0  0  0  0  0  0  0  0  0  0  0  0
  -25.8980  -11.6860   20.5390 N   0  0  0  0  0  0  0  0  0  0  0  0
  -23.8900  -10.4610   21.0660 C   0  0  0  0  0  0  0  0  0  0  0  0
  -24.3460   -9.4810   21.9770 C   0  0  0  0  0  3  0  0  0  0  0  0
  -23.6210   -8.2850   22.1630 C   0  0  0  0  0  3  0  0  0  0  0  0
  -22.4270   -8.0560   21.4380 C   0  0  0  0  0  0  0  0  0  0  0  0
  -21.9920   -9.0230   20.5150 C   0  0  0  0  0  3  0  0  0  0  0  0
  -22.7170  -10.2110   20.3280 C   0  0  0  0  0  3  0  0  0  0  0  0
  -21.6740   -6.9110   21.5350 O   0  0  0  0  0  0  0  0  0  0  0  0
  -21.6630   -6.1490   22.6760 C   0  0  0  0  0  0  0  0  0  0  0  0
  -21.2910   -6.6840   23.9280 C   0  0  0  0  0  3  0  0  0  0  0  0
  -21.2300   -5.8460   25.0610 C   0  0  0  0  0  3  0  0  0  0  0  0
  -21.5300   -4.4770   24.9420 C   0  0  0  0  0  0  0  0  0  0  0  0
  -21.8980   -3.9410   23.6950 C   0  0  0  0  0  3  0  0  0  0  0  0
  -21.9610   -4.7750   22.5650 C   0  0  0  0  0  0  0  0  0  0  0  0
  -22.2930   -4.2490   21.3620 F   0  0  0  0  0  0  0  0  0  0  0  0
  -21.4630   -3.6710   26.0280 F   0  0  0  0  0  0  0  0  0  0  0  0
  -22.7590  -13.5510   21.2080 C   0  0  0  0  0  0  0  0  0  0  0  0
  -22.0450  -12.8510   22.0830 N   0  0  0  0  0  0  0  0  0  0  0  0
  -22.3130  -14.5770   20.6960 O   0  0  0  0  0  0  0  0  0  0  0  0
  -22.4190  -12.0240   22.5230 H   0  0  0  0  0  0  0  0  0  0  0  0
  -21.1080  -13.1490   22.3190 H   0  0  0  0  0  0  0  0  0  0  0  0
  -25.3720  -15.2200   20.3560 N   0  0  0  0  0  0  0  0  0  0  0  0
  -24.6000  -15.8650   20.4830 H   0  0  0  0  0  0  0  0  0  0  0  0
  -26.2120  -15.6700   20.0190 H   0  0  0  0  0  0  0  0  0  0  0  0
  1  4  1  0
  1 47  1  0
  4  2  1  1
  4  3  1  0
  5  6  1  0
  5  4  1  0
  7 18  2  0
  8  6  1  0
  8 13  1  0
  9 17  1  0
  9 19  1  0
 10 16  1  0
 10 12  1  0
 11 17  1  0
 12 13  2  0
 12 11  1  0
 14  8  2  0
 15 14  1  0
 15 10  2  0
 16  9  1  0
 17  7  1  0
 19 21  2  0
 20 19  1  0
 22 20  1  0
 23 32  2  0
 23 28  1  0
 24 20  1  0
 24 28  1  0
 25 24  1  0
 26 27  1  0
 26 25  1  0
 27 23  1  0
 28 29  2  0
 29 30  1  0
 31 30  2  0
 32 31  1  0
 33  7  1  0
 33 34  1  0
 33 43  1  0
 34 37  1  0
 35 39  1  0
 35 34  1  0
 36 35  2  0
 39 38  1  0
 41 39  1  0
 41 42  1  0
 41 40  1  0
 43 46  1  1
 43 44  1  0
 45 43  1  0
 47 48  1  0
 49 50  1  0
 51 53  1  0
 51 49  2  0
 52 47  1  0
 52 50  2  0
 53 52  1  0
 54 51  1  0
 54 63  1  0
 55 63  1  0
 56 61  1  0
 57 58  1  0
 57 56  1  0
 59 58  1  0
 59 68  1  0
 59 60  1  0
 61 55  1  0
 61 60  1  0
 62 55  2  0
 63 64  1  0
 65 66  2  0
 66 85  1  0
 67 66  1  0
 67 70  1  0
 68 65  1  0
 68 69  1  0
 69 67  2  0
 70 71  1  0
 71 72  2  0
 73 76  1  0
 73 72  1  0
 74 73  2  0
 75 74  1  0
 75 70  2  0
 76 77  1  0
 77 78  1  0
 78 79  2  0
 80 79  1  0
 80 84  1  0
 81 80  2  0
 82 77  2  0
 82 81  1  0
 83 82  1  0
 85 86  1  0
 86 89  1  0
 86 88  1  0
 87 85  2  0
 90 91  1  0
 90 65  1  0
 92 90  1  0
M  ISO  4   5 101   6 101  55 100  63 100
M  END
>  <TORSDO>  (93) 
F 21

>  <SCORE>  (93) 
-13.717

>  <name>  (93) 
92

>  <ligand_id>  (93) 
92

>  <original_smiles>  (93) 
[H]c1c(N([H])C([H])([H])C(C([H])([H])[H])(C([H])([H])[H])C([H])([H])Oc2c([H])c([H])c3c(c2[H])C([H])([H])N(C(=O)C([H])(N([H])C(=O)C([H])(N([H])C([H])([H])[H])C([H])([H])[H])C(C([H])([H])[H])(C([H])([H])[H])C([H])([H])[H])C([H])(C(=O)N([H])C2([H])c4c([H])c([H])c([H])c([H])c4C([H])([H])C([H])([H])C2([H])[H])C3([H])[H])oc(C([H])([H])N([H])C(=O)N2C([H])([H])C([H])([H])C([H])([H])C([H])(n3nc(-c4c([H])c([H])c(Oc5c([H])c([H])c(F)c([H])c5F)c([H])c4[H])c(C(=O)N([H])[H])c3N([H])[H])C2([H])[H])c1[H]

>  <smiles>  (93) 
[H]c1c(N([H])C([H])([H])C(C([H])([H])[H])(C([H])([H])[H])C([H])([H])Oc2c([H])c([H])c3c(c2[H])C([H])([H])N(C(=O)C([H])(N([H])C(=O)C([H])(N([H])C([H])([H])[H])C([H])([H])[H])C(C([H])([H])[H])(C([H])([H])[H])C([H])([H])[H])C([H])(C(=O)N([H])C2([H])c4c([H])c([H])c([H])c([H])c4C([H])([H])C([H])([H])C2([H])[H])C3([H])[H])oc(C([H])([H])N([H])C(=O)N2C([H])([H])C([H])([H])C([H])([H])C([H])(n3nc(-c4c([H])c([H])c(Oc5c([H])c([H])c(F)c([H])c5F)c([H])c4[H])c(C(=O)N([H])[H])c3N([H])[H])C2([H])[H])c1[H]

$$$$
93:0:0
     RDKit          3D

 92100  0  0  1  0  0  0  0  0999 V2000
  -29.9610  -18.6510   20.3890 C   0  0  0  0  0  0  0  0  0  0  0  0
  -30.1820  -19.2530   21.6170 C   0  0  0  0  0  0  0  0  0  0  0  0
  -29.3470  -20.8510   20.3440 C   0  0  0  0  0  0  0  0  0  0  0  0
  -30.8470  -18.7590   22.8620 C   0  0  0  0  0  1  0  0  0  0  0  0
  -29.4050  -19.7160   19.6030 N   0  0  0  0  0  0  0  0  0  0  0  0
  -28.8890  -22.1840   20.0190 N   0  0  0  0  0  0  0  0  0  0  0  0
  -29.8140  -20.6090   21.6000 O   0  0  0  0  0  0  0  0  0  0  0  0
  -28.4140  -22.1340   19.1260 H   0  0  0  0  0  0  0  0  0  0  0  0
  -30.7750  -14.7940   19.9590 C   0  0  0  0  0  0  0  0  0  0  0  0
  -30.3870  -12.5500   18.9300 C   0  0  0  0  0  2  0  0  0  0  0  0
  -29.3860  -12.6910   17.7650 C   0  0  0  0  0  2  0  0  0  0  0  0
  -27.9460  -12.5350   18.2840 C   0  0  0  0  0  2  0  0  0  0  0  0
  -27.6760  -13.3890   19.5520 C   0  0  0  0  0  3  0  0  0  0  0  0
  -28.8060  -13.2750   20.5990 C   0  0  0  0  0  2  0  0  0  0  0  0
  -30.0700  -13.6050   19.9300 N   0  0  0  0  0  0  0  0  0  0  0  0
  -31.9340  -14.7700   19.5340 O   0  0  0  0  0  0  0  0  0  0  0  0
  -30.5180  -17.2790   19.8340 C   0  0  0  0  0  0  0  0  0  0  0  0
  -30.1490  -16.0050   20.2810 N   0  0  0  0  0  0  0  0  0  0  0  0
  -31.3140  -17.3990   18.8960 O   0  0  0  0  0  0  0  0  0  0  0  0
  -29.3230  -15.9610   20.8520 H   0  0  0  0  0  0  0  0  0  0  0  0
  -25.3530  -13.9910   20.4570 C   0  0  0  0  0  0  0  0  0  0  0  0
  -24.3020  -13.2220   20.8780 C   0  0  0  0  0  0  0  0  0  0  0  0
  -24.7390  -11.8640   20.7810 C   0  0  0  0  0  0  0  0  0  0  0  0
  -26.3630  -13.1030   20.1270 N   0  0  0  0  0  0  0  0  0  0  0  0
  -26.0070  -11.8170   20.3890 N   0  0  0  0  0  0  0  0  0  0  0  0
  -24.0030  -10.6080   20.9850 C   0  0  0  0  0  0  0  0  0  0  0  0
  -24.4620   -9.6230   21.8870 C   0  0  0  0  0  3  0  0  0  0  0  0
  -23.7270   -8.4340   22.0820 C   0  0  0  0  0  3  0  0  0  0  0  0
  -22.5190   -8.2210   21.3750 C   0  0  0  0  0  0  0  0  0  0  0  0
  -22.0800   -9.1950   20.4610 C   0  0  0  0  0  3  0  0  0  0  0  0
  -22.8150  -10.3760   20.2640 C   0  0  0  0  0  3  0  0  0  0  0  0
  -21.7530   -7.0860   21.4800 O   0  0  0  0  0  0  0  0  0  0  0  0
  -21.7260   -6.3400   22.6320 C   0  0  0  0  0  0  0  0  0  0  0  0
  -21.3110   -6.8890   23.8660 C   0  0  0  0  0  3  0  0  0  0  0  0
  -21.2290   -6.0700   25.0090 C   0  0  0  0  0  3  0  0  0  0  0  0
  -21.5520   -4.7030   24.9220 C   0  0  0  0  0  0  0  0  0  0  0  0
  -21.9610   -4.1540   23.6940 C   0  0  0  0  0  3  0  0  0  0  0  0
  -22.0430   -4.9700   22.5530 C   0  0  0  0  0  0  0  0  0  0  0  0
  -22.4150   -4.4300   21.3670 F   0  0  0  0  0  0  0  0  0  0  0  0
  -21.4690   -3.9130   26.0200 F   0  0  0  0  0  0  0  0  0  0  0  0
  -22.9340  -13.7120   21.2510 C   0  0  0  0  0  0  0  0  0  0  0  0
  -22.2560  -13.0100   22.1530 N   0  0  0  0  0  0  0  0  0  0  0  0
  -22.4790  -14.7540   20.7830 O   0  0  0  0  0  0  0  0  0  0  0  0
  -22.6410  -12.1690   22.5560 H   0  0  0  0  0  0  0  0  0  0  0  0
  -21.3400  -13.3180   22.4430 H   0  0  0  0  0  0  0  0  0  0  0  0
  -25.5300  -15.3640   20.3040 N   0  0  0  0  0  0  0  0  0  0  0  0
  -24.7780  -16.0240   20.4750 H   0  0  0  0  0  0  0  0  0  0  0  0
  -26.3480  -15.7930   19.8940 H   0  0  0  0  0  0  0  0  0  0  0  0
  -29.1410  -23.6490   20.3740 C   0  0  0  0  0  2  0  0  0  0  0  0
  -26.9110  -24.3070   21.3270 C   0  0  0  0  0  1  0  0  0  0  0  0
  -27.9340  -24.7350   20.2450 C   0  0  0  0  0  3  0  0  0  0  0  0
  -28.2110  -26.2410   20.2940 O   0  0  0  0  0  0  0  0  0  0  0  0
  -24.5140  -31.7870   23.2140 C   0  0  0  0  0  0  0  0  0  0  0  0
  -27.1570  -27.1900   20.1660 C   0  0  0  0  0  0  0  0  0  0  0  0
  -23.3360  -30.3800   21.5680 C   0  0  0  0  0  3  0  0  0  0  0  0
  -24.8100  -28.8530   20.1300 C   0  0  0  0  0  0  0  0  0  0  0  0
  -25.8820  -30.7010   21.4100 C   0  0  0  0  0  2  0  0  0  0  0  0
  -25.9730  -29.3210   20.7540 C   0  0  0  0  0  0  0  0  0  0  0  0
  -27.1480  -28.4960   20.7710 C   0  0  0  0  0  3  0  0  0  0  0  0
  -25.9930  -26.8380   19.4510 C   0  0  0  0  0  3  0  0  0  0  0  0
  -24.8260  -27.6210   19.4660 C   0  0  0  0  0  3  0  0  0  0  0  0
  -23.5660  -29.7190   20.1840 C   0  0  0  0  0  2  0  0  0  0  0  0
  -24.5970  -30.9780   22.1170 N   0  0  0  0  0  0  0  0  0  0  0  0
  -23.4260  -32.0530   23.7430 O   0  0  0  0  0  0  0  0  0  0  0  0
  -22.6800  -29.3540   22.5230 C   0  0  0  0  0  0  0  0  0  0  0  0
  -21.3630  -29.1300   22.3660 N   0  0  0  0  0  0  0  0  0  0  0  0
  -23.3550  -28.7600   23.3660 O   0  0  0  0  0  0  0  0  0  0  0  0
  -20.8750  -29.6640   21.6610 H   0  0  0  0  0  0  0  0  0  0  0  0
  -18.0210  -27.7970   22.7710 C   0  0  0  0  0  0  0  0  0  0  0  0
  -20.5560  -28.1760   23.1290 C   0  0  0  0  0  3  0  0  0  0  0  0
  -20.7400  -26.7370   22.5950 C   0  0  0  0  0  2  0  0  0  0  0  0
  -19.6930  -26.3420   21.5490 C   0  0  0  0  0  2  0  0  0  0  0  0
  -18.2820  -26.4420   22.1360 C   0  0  0  0  0  2  0  0  0  0  0  0
  -19.0890  -28.6180   23.2240 C   0  0  0  0  0  0  0  0  0  0  0  0
  -18.7920  -29.8830   23.7750 C   0  0  0  0  0  3  0  0  0  0  0  0
  -17.4620  -30.3280   23.8800 C   0  0  0  0  0  3  0  0  0  0  0  0
  -16.4090  -29.5060   23.4460 C   0  0  0  0  0  3  0  0  0  0  0  0
  -16.6890  -28.2420   22.8960 C   0  0  0  0  0  3  0  0  0  0  0  0
  -25.7870  -32.4370   23.8410 C   0  0  0  0  0  3  0  0  0  0  0  0
  -25.4620  -33.8360   24.1630 N   0  0  0  0  0  0  0  0  0  0  0  0
  -25.7690  -34.8880   23.3910 C   0  0  0  0  0  0  0  0  0  0  0  0
  -26.4260  -34.7840   22.3520 O   0  0  0  0  0  0  0  0  0  0  0  0
  -24.8820  -33.9900   24.9730 H   0  0  0  0  0  0  0  0  0  0  0  0
  -24.0040  -36.6480   23.0600 C   0  0  0  0  0  1  0  0  0  0  0  0
  -25.2700  -36.2740   23.8450 C   0  0  0  0  0  3  0  0  0  0  0  0
  -27.4050  -37.2080   24.6240 C   0  0  0  0  0  1  0  0  0  0  0  0
  -26.2830  -37.3430   23.6990 N   0  0  0  0  0  0  0  0  0  0  0  0
  -25.8640  -38.2580   23.8370 H   0  0  0  0  0  0  0  0  0  0  0  0
  -26.2990  -31.6810   25.1280 C   0  0  1  0  0  0  0  0  0  0  0  0
  -25.2000  -31.4390   26.1870 C   0  0  0  0  0  1  0  0  0  0  0  0
  -26.9020  -30.3070   24.7540 C   0  0  0  0  0  1  0  0  0  0  0  0
  -27.4360  -32.4930   25.7930 C   0  0  0  0  0  1  0  0  0  0  0  0
  1  2  2  0
  2  4  1  0
  3  7  1  0
  5  3  2  0
  5  1  1  0
  6  3  1  0
  6 49  1  0
  7  2  1  0
  8  6  1  0
  9 18  1  0
 10 15  1  0
 11 12  1  0
 11 10  1  0
 13 12  1  0
 13 24  1  0
 13 14  1  0
 15  9  1  0
 15 14  1  0
 16  9  2  0
 17 18  1  0
 17  1  1  0
 18 20  1  0
 19 17  2  0
 21 22  2  0
 22 41  1  0
 23 22  1  0
 23 26  1  0
 24 25  1  0
 24 21  1  0
 25 23  2  0
 26 27  1  0
 27 28  2  0
 29 32  1  0
 29 28  1  0
 30 29  2  0
 31 30  1  0
 31 26  2  0
 32 33  1  0
 33 34  1  0
 34 35  2  0
 36 35  1  0
 36 40  1  0
 37 36  2  0
 38 33  2  0
 38 37  1  0
 39 38  1  0
 41 42  1  0
 42 45  1  0
 42 44  1  0
 43 41  2  0
 46 21  1  0
 46 47  1  0
 48 46  1  0
 51 52  1  0
 51 49  1  0
 51 50  1  0
 53 64  2  0
 54 52  1  0
 54 59  1  0
 55 63  1  0
 55 65  1  0
 56 62  1  0
 56 58  1  0
 57 63  1  0
 58 59  2  0
 58 57  1  0
 60 61  1  0
 60 54  2  0
 61 56  2  0
 62 55  1  0
 63 53  1  0
 65 67  2  0
 66 65  1  0
 68 66  1  0
 69 78  2  0
 69 74  1  0
 70 66  1  0
 70 74  1  0
 71 70  1  0
 72 73  1  0
 72 71  1  0
 73 69  1  0
 74 75  2  0
 75 76  1  0
 77 76  2  0
 78 77  1  0
 79 53  1  0
 79 80  1  0
 79 89  1  0
 80 83  1  0
 81 85  1  0
 81 80  1  0
 82 81  2  0
 85 84  1  0
 87 88  1  0
 87 85  1  0
 87 86  1  0
 89 92  1  1
 89 90  1  0
 91 89  1  0
M  ISO  4   9 100  18 100  51 101  52 101
M  END
>  <TORSDO>  (94) 
F 18

>  <SCORE>  (94) 
-14.002

>  <name>  (94) 
93

>  <ligand_id>  (94) 
93

>  <original_smiles>  (94) 
[H]c1c([H])c([H])c2c(c1[H])C([H])([H])C([H])([H])C([H])([H])C2([H])N([H])C(=O)C1([H])N(C(=O)C([H])(N([H])C(=O)C([H])(N([H])C([H])([H])[H])C([H])([H])[H])C(C([H])([H])[H])(C([H])([H])[H])C([H])([H])[H])C([H])([H])c2c([H])c(OC([H])(C([H])([H])[H])C([H])([H])N([H])c3nc(C(=O)N([H])C(=O)N4C([H])([H])C([H])([H])C([H])([H])C([H])(n5nc(-c6c([H])c([H])c(Oc7c([H])c([H])c(F)c([H])c7F)c([H])c6[H])c(C(=O)N([H])[H])c5N([H])[H])C4([H])[H])c(C([H])([H])[H])o3)c([H])c([H])c2C1([H])[H]

>  <smiles>  (94) 
[H]c1c([H])c([H])c2c(c1[H])C([H])([H])C([H])([H])C([H])([H])C2([H])N([H])C(=O)C1([H])N(C(=O)C([H])(N([H])C(=O)C([H])(N([H])C([H])([H])[H])C([H])([H])[H])C(C([H])([H])[H])(C([H])([H])[H])C([H])([H])[H])C([H])([H])c2c([H])c(OC([H])(C([H])([H])[H])C([H])([H])N([H])c3nc(C(=O)N([H])C(=O)N4C([H])([H])C([H])([H])C([H])([H])C([H])(n5nc(-c6c([H])c([H])c(Oc7c([H])c([H])c(F)c([H])c7F)c([H])c6[H])c(C(=O)N([H])[H])c5N([H])[H])C4([H])[H])c(C([H])([H])[H])o3)c([H])c([H])c2C1([H])[H]

$$$$
94:0:0
     RDKit          3D

 96105  0  0  1  0  0  0  0  0999 V2000
  -29.5430  -23.9850   20.3160 C   0  0  0  0  0  0  0  0  0  0  0  0
  -30.3290  -21.0760   23.0350 C   0  0  0  0  0  2  0  0  0  0  0  0
  -29.1310  -22.0430   23.0880 C   0  0  0  0  0  2  0  0  0  0  0  0
  -31.2410  -21.3810   21.8320 C   0  0  0  0  0  2  0  0  0  0  0  0
  -28.4390  -22.1420   21.7070 C   0  0  0  0  0  2  0  0  0  0  0  0
  -30.4320  -21.4780   20.5170 C   0  0  0  0  0  3  0  0  0  0  0  0
  -29.4180  -22.6260   20.7110 N   0  0  0  0  0  0  0  0  0  0  0  0
  -30.5810  -24.3520   19.7590 O   0  0  0  0  0  0  0  0  0  0  0  0
  -28.9760  -18.6920   18.2340 C   0  0  0  0  0  3  0  0  0  0  0  0
  -29.2770  -19.9470   18.7920 C   0  0  0  0  0  3  0  0  0  0  0  0
  -29.3480  -17.5110   18.9040 C   0  0  0  0  0  3  0  0  0  0  0  0
  -29.9670  -20.0210   20.0120 C   0  0  0  0  0  0  0  0  0  0  0  0
  -30.0140  -17.5600   20.1450 C   0  0  0  0  0  0  0  0  0  0  0  0
  -30.3110  -18.8260   20.6620 N   0  0  0  0  0  0  0  0  0  0  0  0
  -30.9030  -15.1350   20.5020 C   0  0  0  0  0  0  0  0  0  0  0  0
  -30.8000  -12.7760   19.6770 C   0  0  0  0  0  2  0  0  0  0  0  0
  -29.9220  -12.7380   18.4030 C   0  0  0  0  0  2  0  0  0  0  0  0
  -28.4360  -12.5670   18.7700 C   0  0  0  0  0  2  0  0  0  0  0  0
  -27.9870  -13.5290   19.9020 C   0  0  0  0  0  3  0  0  0  0  0  0
  -28.9900  -13.5430   21.0800 C   0  0  0  0  0  2  0  0  0  0  0  0
  -30.3140  -13.8860   20.5370 N   0  0  0  0  0  0  0  0  0  0  0  0
  -32.0670  -15.2430   20.1010 O   0  0  0  0  0  0  0  0  0  0  0  0
  -30.1550  -16.2560   20.8370 N   0  0  0  0  0  0  0  0  0  0  0  0
  -29.3660  -16.0380   21.4240 H   0  0  0  0  0  0  0  0  0  0  0  0
  -25.5730  -14.1200   20.5380 C   0  0  0  0  0  0  0  0  0  0  0  0
  -24.4960  -13.3480   20.8720 C   0  0  0  0  0  0  0  0  0  0  0  0
  -24.9550  -11.9960   20.8540 C   0  0  0  0  0  0  0  0  0  0  0  0
  -26.6260  -13.2400   20.3430 N   0  0  0  0  0  0  0  0  0  0  0  0
  -26.2570  -11.9570   20.5910 N   0  0  0  0  0  0  0  0  0  0  0  0
  -24.2180  -10.7360   21.0210 C   0  0  0  0  0  0  0  0  0  0  0  0
  -24.5950   -9.7800   21.9900 C   0  0  0  0  0  3  0  0  0  0  0  0
  -23.8590   -8.5870   22.1440 C   0  0  0  0  0  3  0  0  0  0  0  0
  -22.7300   -8.3380   21.3260 C   0  0  0  0  0  0  0  0  0  0  0  0
  -22.3720   -9.2810   20.3470 C   0  0  0  0  0  3  0  0  0  0  0  0
  -23.1090  -10.4660   20.1920 C   0  0  0  0  0  3  0  0  0  0  0  0
  -21.9710   -7.1950   21.3880 O   0  0  0  0  0  0  0  0  0  0  0  0
  -21.8020   -6.5030   22.5600 C   0  0  0  0  0  0  0  0  0  0  0  0
  -21.2380   -7.1050   23.7060 C   0  0  0  0  0  3  0  0  0  0  0  0
  -21.0200   -6.3390   24.8680 C   0  0  0  0  0  3  0  0  0  0  0  0
  -21.3570   -4.9720   24.8850 C   0  0  0  0  0  0  0  0  0  0  0  0
  -21.9160   -4.3700   23.7440 C   0  0  0  0  0  3  0  0  0  0  0  0
  -22.1350   -5.1340   22.5830 C   0  0  0  0  0  0  0  0  0  0  0  0
  -22.6520   -4.5440   21.4780 F   0  0  0  0  0  0  0  0  0  0  0  0
  -21.1410   -4.2330   25.9980 F   0  0  0  0  0  0  0  0  0  0  0  0
  -23.0910  -13.8260   21.1010 C   0  0  0  0  0  0  0  0  0  0  0  0
  -22.3420  -13.1400   21.9560 N   0  0  0  0  0  0  0  0  0  0  0  0
  -22.6680  -14.8450   20.5550 O   0  0  0  0  0  0  0  0  0  0  0  0
  -22.7050  -12.3180   22.4180 H   0  0  0  0  0  0  0  0  0  0  0  0
  -21.3970  -13.4350   22.1500 H   0  0  0  0  0  0  0  0  0  0  0  0
  -25.7450  -15.4910   20.3590 N   0  0  0  0  0  0  0  0  0  0  0  0
  -24.9700  -16.1420   20.4190 H   0  0  0  0  0  0  0  0  0  0  0  0
  -26.5930  -15.9180   20.0120 H   0  0  0  0  0  0  0  0  0  0  0  0
  -28.0450  -25.3610   21.9590 C   0  0  0  0  0  1  0  0  0  0  0  0
  -27.1960  -24.4700   19.6530 C   0  0  0  0  0  1  0  0  0  0  0  0
  -28.3650  -25.1130   20.4570 C   0  0  2  0  0  0  0  0  0  0  0  0
  -28.6420  -26.5710   19.9940 O   0  0  0  0  0  0  0  0  0  0  0  0
  -24.7930  -31.8840   23.2610 C   0  0  0  0  0  0  0  0  0  0  0  0
  -27.5730  -27.5330   19.9500 C   0  0  0  0  0  0  0  0  0  0  0  0
  -23.6520  -30.5170   21.5630 C   0  0  0  0  0  3  0  0  0  0  0  0
  -25.1630  -29.1260   20.0440 C   0  0  0  0  0  0  0  0  0  0  0  0
  -26.1840  -30.9320   21.4000 C   0  0  0  0  0  2  0  0  0  0  0  0
  -26.3220  -29.5890   20.6810 C   0  0  0  0  0  0  0  0  0  0  0  0
  -27.5250  -28.7980   20.6460 C   0  0  0  0  0  3  0  0  0  0  0  0
  -26.4090  -27.2280   19.2110 C   0  0  0  0  0  3  0  0  0  0  0  0
  -25.2120  -27.9470   19.3020 C   0  0  0  0  0  3  0  0  0  0  0  0
  -23.8920  -29.9430   20.1470 C   0  0  0  0  0  2  0  0  0  0  0  0
  -24.8950  -31.1280   22.1300 N   0  0  0  0  0  0  0  0  0  0  0  0
  -23.7000  -32.0830   23.8110 O   0  0  0  0  0  0  0  0  0  0  0  0
  -23.0420  -29.4140   22.4650 C   0  0  0  0  0  0  0  0  0  0  0  0
  -21.7330  -29.1480   22.3060 N   0  0  0  0  0  0  0  0  0  0  0  0
  -23.7470  -28.8050   23.2730 O   0  0  0  0  0  0  0  0  0  0  0  0
  -21.2160  -29.6990   21.6340 H   0  0  0  0  0  0  0  0  0  0  0  0
  -18.4540  -27.6580   22.6610 C   0  0  0  0  0  0  0  0  0  0  0  0
  -20.9710  -28.1260   23.0260 C   0  0  0  0  0  3  0  0  0  0  0  0
  -21.2140  -26.7220   22.4280 C   0  0  0  0  0  2  0  0  0  0  0  0
  -20.1790  -26.3310   21.3700 C   0  0  0  0  0  2  0  0  0  0  0  0
  -18.7680  -26.3440   21.9660 C   0  0  0  0  0  2  0  0  0  0  0  0
  -19.4880  -28.5020   23.1460 C   0  0  0  0  0  0  0  0  0  0  0  0
  -19.1410  -29.7280   23.7530 C   0  0  0  0  0  3  0  0  0  0  0  0
  -17.7920  -30.1090   23.8890 C   0  0  0  0  0  3  0  0  0  0  0  0
  -16.7730  -29.2610   23.4190 C   0  0  0  0  0  3  0  0  0  0  0  0
  -17.1050  -28.0390   22.8110 C   0  0  0  0  0  3  0  0  0  0  0  0
  -26.0450  -32.5500   23.9060 C   0  0  0  0  0  3  0  0  0  0  0  0
  -25.6930  -33.9420   24.2270 N   0  0  0  0  0  0  0  0  0  0  0  0
  -26.0460  -35.0060   23.4950 C   0  0  0  0  0  0  0  0  0  0  0  0
  -26.7720  -34.9210   22.5010 O   0  0  0  0  0  0  0  0  0  0  0  0
  -25.0560  -34.0800   24.9980 H   0  0  0  0  0  0  0  0  0  0  0  0
  -24.3120  -36.7770   23.0600 C   0  0  0  0  0  1  0  0  0  0  0  0
  -25.5120  -36.3820   23.9370 C   0  0  0  0  0  3  0  0  0  0  0  0
  -27.5840  -37.2920   24.8910 C   0  0  0  0  0  1  0  0  0  0  0  0
  -26.5300  -37.4550   23.8920 N   0  0  0  0  0  0  0  0  0  0  0  0
  -26.0990  -38.3650   24.0350 H   0  0  0  0  0  0  0  0  0  0  0  0
  -26.5510  -31.7960   25.1960 C   0  0  1  0  0  0  0  0  0  0  0  0
  -25.4410  -31.5220   26.2370 C   0  0  0  0  0  1  0  0  0  0  0  0
  -27.1890  -30.4360   24.8250 C   0  0  0  0  0  1  0  0  0  0  0  0
  -27.6610  -32.6250   25.8830 C   0  0  0  0  0  1  0  0  0  0  0  0
  1 55  1  0
  1  7  1  0
  2  3  1  0
  4  2  1  0
  5  3  1  0
  6 12  1  0
  6  7  1  0
  6  4  1  0
  7  5  1  0
  8  1  2  0
  9 10  2  0
  9 11  1  0
 10 12  1  0
 11 13  2  0
 12 14  2  0
 13 14  1  0
 13 23  1  0
 15 21  1  0
 15 23  1  0
 16 21  1  0
 17 18  1  0
 17 16  1  0
 19 18  1  0
 19 28  1  0
 19 20  1  0
 21 20  1  0
 22 15  2  0
 23 24  1  0
 25 26  2  0
 26 45  1  0
 27 26  1  0
 27 30  1  0
 28 25  1  0
 28 29  1  0
 29 27  2  0
 30 31  1  0
 31 32  2  0
 33 36  1  0
 33 32  1  0
 34 33  2  0
 35 34  1  0
 35 30  2  0
 36 37  1  0
 37 42  2  0
 37 38  1  0
 38 39  2  0
 39 40  1  0
 40 44  1  0
 41 40  2  0
 42 41  1  0
 43 42  1  0
 45 46  1  0
 46 49  1  0
 46 48  1  0
 47 45  2  0
 50 51  1  0
 50 25  1  0
 52 50  1  0
 55 54  1  6
 55 53  1  0
 56 55  1  0
 57 68  2  0
 58 56  1  0
 58 63  1  0
 59 67  1  0
 59 69  1  0
 60 66  1  0
 60 62  1  0
 61 67  1  0
 62 61  1  0
 63 62  2  0
 64 65  1  0
 64 58  2  0
 65 60  2  0
 66 59  1  0
 67 57  1  0
 69 71  2  0
 70 69  1  0
 72 70  1  0
 73 82  2  0
 73 78  1  0
 74 70  1  0
 74 78  1  0
 75 74  1  0
 76 77  1  0
 76 75  1  0
 77 73  1  0
 78 79  2  0
 79 80  1  0
 81 80  2  0
 82 81  1  0
 83 57  1  0
 83 84  1  0
 83 93  1  0
 84 87  1  0
 85 89  1  0
 85 84  1  0
 86 85  2  0
 89 88  1  0
 91 89  1  0
 91 92  1  0
 91 90  1  0
 93 96  1  1
 93 94  1  0
 95 93  1  0
M  ISO  4  15 100  23 100  55 101  56 101
M  END
>  <TORSDO>  (95) 
F 18

>  <SCORE>  (95) 
-14.372

>  <name>  (95) 
94

>  <ligand_id>  (95) 
94

>  <original_smiles>  (95) 
[H]c1c(N([H])C(=O)N2C([H])([H])C([H])([H])C([H])([H])C([H])(n3nc(-c4c([H])c([H])c(Oc5c([H])c([H])c(F)c([H])c5F)c([H])c4[H])c(C(=O)N([H])[H])c3N([H])[H])C2([H])[H])nc(C2([H])N(C(=O)C(Oc3c([H])c([H])c4c(c3[H])C([H])([H])N(C(=O)C([H])(N([H])C(=O)C([H])(N([H])C([H])([H])[H])C([H])([H])[H])C(C([H])([H])[H])(C([H])([H])[H])C([H])([H])[H])C([H])(C(=O)N([H])C3([H])c5c([H])c([H])c([H])c([H])c5C([H])([H])C([H])([H])C3([H])[H])C4([H])[H])(C([H])([H])[H])C([H])([H])[H])C([H])([H])C([H])([H])C([H])([H])C2([H])[H])c([H])c1[H]

>  <smiles>  (95) 
[H]c1c(N([H])C(=O)N2C([H])([H])C([H])([H])C([H])([H])C([H])(n3nc(-c4c([H])c([H])c(Oc5c([H])c([H])c(F)c([H])c5F)c([H])c4[H])c(C(=O)N([H])[H])c3N([H])[H])C2([H])[H])nc(C2([H])N(C(=O)C(Oc3c([H])c([H])c4c(c3[H])C([H])([H])N(C(=O)C([H])(N([H])C(=O)C([H])(N([H])C([H])([H])[H])C([H])([H])[H])C(C([H])([H])[H])(C([H])([H])[H])C([H])([H])[H])C([H])(C(=O)N([H])C3([H])c5c([H])c([H])c([H])c([H])c5C([H])([H])C([H])([H])C3([H])[H])C4([H])[H])(C([H])([H])[H])C([H])([H])[H])C([H])([H])C([H])([H])C([H])([H])C2([H])[H])c([H])c1[H]

$$$$
95:0:0
     RDKit          3D

 93101  0  0  1  0  0  0  0  0999 V2000
  -29.6080  -20.0970   19.1770 C   0  0  0  0  0  3  0  0  0  0  0  0
  -28.7630  -20.7640   21.1190 C   0  0  0  0  0  3  0  0  0  0  0  0
  -29.0510  -21.2470   19.8730 C   0  0  0  0  0  0  0  0  0  0  0  0
  -29.7170  -19.0060   20.0480 C   0  0  0  0  0  0  0  0  0  0  0  0
  -29.1550  -19.4350   21.2350 O   0  0  0  0  0  0  0  0  0  0  0  0
  -28.8550  -22.5870   19.3500 N   0  0  0  0  0  0  0  0  0  0  0  0
  -29.2010  -22.7270   18.4060 H   0  0  0  0  0  0  0  0  0  0  0  0
  -28.6280  -23.8950   20.0950 C   0  0  0  0  0  2  0  0  0  0  0  0
  -28.4350  -25.1270   17.8150 C   0  0  0  0  0  1  0  0  0  0  0  0
  -27.9690  -25.1470   19.2800 C   0  0  0  0  0  3  0  0  0  0  0  0
  -28.0970  -26.5890   19.7300 O   0  0  0  0  0  0  0  0  0  0  0  0
  -24.5180  -31.9570   23.0930 C   0  0  0  0  0  0  0  0  0  0  0  0
  -26.9970  -27.4930   19.7200 C   0  0  0  0  0  0  0  0  0  0  0  0
  -23.2510  -30.6180   21.4540 C   0  0  0  0  0  3  0  0  0  0  0  0
  -24.6400  -29.1450   19.8910 C   0  0  0  0  0  0  0  0  0  0  0  0
  -25.7850  -30.9450   21.1770 C   0  0  0  0  0  2  0  0  0  0  0  0
  -25.8370  -29.5940   20.4610 C   0  0  0  0  0  0  0  0  0  0  0  0
  -27.0120  -28.7760   20.3730 C   0  0  0  0  0  3  0  0  0  0  0  0
  -25.7760  -27.1390   19.0980 C   0  0  0  0  0  3  0  0  0  0  0  0
  -24.6140  -27.9270   19.1980 C   0  0  0  0  0  3  0  0  0  0  0  0
  -23.4050  -30.0090   20.0360 C   0  0  0  0  0  2  0  0  0  0  0  0
  -24.5390  -31.1920   21.9620 N   0  0  0  0  0  0  0  0  0  0  0  0
  -23.4570  -32.2030   23.6880 O   0  0  0  0  0  0  0  0  0  0  0  0
  -22.6390  -29.5550   22.3980 C   0  0  0  0  0  0  0  0  0  0  0  0
  -21.3130  -29.3540   22.3140 N   0  0  0  0  0  0  0  0  0  0  0  0
  -23.3570  -28.9190   23.1730 O   0  0  0  0  0  0  0  0  0  0  0  0
  -20.7850  -29.9300   21.6710 H   0  0  0  0  0  0  0  0  0  0  0  0
  -17.9840  -28.0570   22.8880 C   0  0  0  0  0  0  0  0  0  0  0  0
  -20.5440  -28.3690   23.0780 C   0  0  0  0  0  3  0  0  0  0  0  0
  -20.6570  -26.9590   22.4550 C   0  0  0  0  0  2  0  0  0  0  0  0
  -19.5300  -26.6410   21.4660 C   0  0  0  0  0  2  0  0  0  0  0  0
  -18.1670  -26.7330   22.1610 C   0  0  0  0  0  2  0  0  0  0  0  0
  -19.0990  -28.8310   23.3050 C   0  0  0  0  0  0  0  0  0  0  0  0
  -18.8700  -30.0680   23.9450 C   0  0  0  0  0  3  0  0  0  0  0  0
  -17.5600  -30.5320   24.1710 C   0  0  0  0  0  3  0  0  0  0  0  0
  -16.4610  -29.7530   23.7690 C   0  0  0  0  0  3  0  0  0  0  0  0
  -16.6730  -28.5170   23.1330 C   0  0  0  0  0  3  0  0  0  0  0  0
  -25.8240  -32.5780   23.6810 C   0  0  0  0  0  3  0  0  0  0  0  0
  -25.5220  -33.9630   24.0740 N   0  0  0  0  0  0  0  0  0  0  0  0
  -25.8250  -35.0470   23.3480 C   0  0  0  0  0  0  0  0  0  0  0  0
  -26.4570  -34.9850   22.2880 O   0  0  0  0  0  0  0  0  0  0  0  0
  -24.9510  -34.0840   24.8980 H   0  0  0  0  0  0  0  0  0  0  0  0
  -24.0940  -36.8600   23.1100 C   0  0  0  0  0  1  0  0  0  0  0  0
  -25.3510  -36.4150   23.8760 C   0  0  0  0  0  3  0  0  0  0  0  0
  -27.5000  -37.2680   24.7070 C   0  0  0  0  0  1  0  0  0  0  0  0
  -26.3820  -37.4730   23.7900 N   0  0  0  0  0  0  0  0  0  0  0  0
  -25.9760  -38.3850   23.9870 H   0  0  0  0  0  0  0  0  0  0  0  0
  -26.4010  -31.7670   24.9050 C   0  0  1  0  0  0  0  0  0  0  0  0
  -25.3530  -31.4630   26.0000 C   0  0  0  0  0  1  0  0  0  0  0  0
  -26.9950  -30.4170   24.4400 C   0  0  0  0  0  1  0  0  0  0  0  0
  -27.5580  -32.5570   25.5570 C   0  0  0  0  0  1  0  0  0  0  0  0
  -30.5600  -17.6520   20.0380 C   0  0  0  0  0  3  0  0  0  0  0  0
  -30.6680  -15.0590   19.8330 C   0  0  0  0  0  0  0  0  0  0  0  0
  -30.4490  -12.7240   18.9480 C   0  0  0  0  0  2  0  0  0  0  0  0
  -29.4580  -12.6870   17.7680 C   0  0  0  0  0  2  0  0  0  0  0  0
  -28.0150  -12.5030   18.2750 C   0  0  0  0  0  2  0  0  0  0  0  0
  -27.6720  -13.4390   19.4650 C   0  0  0  0  0  3  0  0  0  0  0  0
  -28.7910  -13.4750   20.5290 C   0  0  0  0  0  2  0  0  0  0  0  0
  -30.0400  -13.8310   19.8490 N   0  0  0  0  0  0  0  0  0  0  0  0
  -31.8130  -15.1300   19.3790 O   0  0  0  0  0  0  0  0  0  0  0  0
  -29.9860  -16.2290   20.1610 N   0  0  0  0  0  0  0  0  0  0  0  0
  -29.0380  -16.1420   20.4900 H   0  0  0  0  0  0  0  0  0  0  0  0
  -25.3540  -13.9930   20.4110 C   0  0  0  0  0  0  0  0  0  0  0  0
  -24.3170  -13.2040   20.8260 C   0  0  0  0  0  0  0  0  0  0  0  0
  -24.7690  -11.8540   20.6930 C   0  0  0  0  0  0  0  0  0  0  0  0
  -26.3710  -13.1250   20.0460 N   0  0  0  0  0  0  0  0  0  0  0  0
  -26.0310  -11.8310   20.2810 N   0  0  0  0  0  0  0  0  0  0  0  0
  -24.0500  -10.5870   20.8780 C   0  0  0  0  0  0  0  0  0  0  0  0
  -24.4850   -9.6170   21.8090 C   0  0  0  0  0  3  0  0  0  0  0  0
  -23.7620   -8.4170   21.9850 C   0  0  0  0  0  3  0  0  0  0  0  0
  -22.5900   -8.1770   21.2300 C   0  0  0  0  0  0  0  0  0  0  0  0
  -22.1740   -9.1330   20.2870 C   0  0  0  0  0  3  0  0  0  0  0  0
  -22.8970  -10.3250   20.1090 C   0  0  0  0  0  3  0  0  0  0  0  0
  -21.8420   -7.0260   21.3140 O   0  0  0  0  0  0  0  0  0  0  0  0
  -21.7510   -6.3080   22.4780 C   0  0  0  0  0  0  0  0  0  0  0  0
  -21.1810   -6.8570   23.6500 C   0  0  0  0  0  3  0  0  0  0  0  0
  -21.0430   -6.0600   24.8040 C   0  0  0  0  0  3  0  0  0  0  0  0
  -21.4670   -4.7180   24.7880 C   0  0  0  0  0  0  0  0  0  0  0  0
  -22.0280   -4.1700   23.6220 C   0  0  0  0  0  3  0  0  0  0  0  0
  -22.1670   -4.9620   22.4700 C   0  0  0  0  0  0  0  0  0  0  0  0
  -22.6900   -4.4220   21.3420 F   0  0  0  0  0  0  0  0  0  0  0  0
  -21.3280   -3.9510   25.8950 F   0  0  0  0  0  0  0  0  0  0  0  0
  -22.9490  -13.6740   21.2230 C   0  0  0  0  0  0  0  0  0  0  0  0
  -22.2730  -12.9360   22.0970 N   0  0  0  0  0  0  0  0  0  0  0  0
  -22.4830  -14.7290   20.7910 O   0  0  0  0  0  0  0  0  0  0  0  0
  -22.6590  -12.0830   22.4740 H   0  0  0  0  0  0  0  0  0  0  0  0
  -21.3550  -13.2350   22.3940 H   0  0  0  0  0  0  0  0  0  0  0  0
  -25.5100  -15.3720   20.2890 N   0  0  0  0  0  0  0  0  0  0  0  0
  -24.7540  -16.0140   20.4990 H   0  0  0  0  0  0  0  0  0  0  0  0
  -26.3230  -15.8320   19.9000 H   0  0  0  0  0  0  0  0  0  0  0  0
  -31.7380  -17.8030   21.0330 C   0  0  0  0  0  0  0  0  0  0  0  0
  -31.4530  -17.7160   22.5310 C   0  0  0  0  0  1  0  0  0  0  0  0
  -32.9050  -17.9660   20.6670 O   0  0  0  0  0  0  0  0  0  0  0  0
  1  3  1  0
  1  4  2  0
  2  5  1  0
  3  2  2  0
  4  5  1  0
  6  3  1  0
  6  8  1  0
  7  6  1  0
 10  9  1  0
 10 11  1  0
 10  8  1  0
 12 23  2  0
 13 11  1  0
 13 18  1  0
 14 22  1  0
 14 24  1  0
 15 21  1  0
 15 17  1  0
 16 22  1  0
 17 16  1  0
 18 17  2  0
 19 20  1  0
 19 13  2  0
 20 15  2  0
 21 14  1  0
 22 12  1  0
 24 26  2  0
 25 24  1  0
 27 25  1  0
 28 37  2  0
 28 33  1  0
 29 25  1  0
 29 33  1  0
 30 29  1  0
 31 32  1  0
 31 30  1  0
 32 28  1  0
 33 34  2  0
 34 35  1  0
 36 35  2  0
 37 36  1  0
 38 12  1  0
 38 39  1  0
 38 48  1  0
 39 42  1  0
 40 44  1  0
 40 39  1  0
 41 40  2  0
 44 43  1  0
 46 44  1  0
 46 47  1  0
 46 45  1  0
 48 51  1  1
 48 49  1  0
 50 48  1  0
 52  4  1  0
 52 61  1  0
 52 91  1  0
 53 59  1  0
 53 61  1  0
 54 59  1  0
 55 56  1  0
 55 54  1  0
 57 56  1  0
 57 66  1  0
 57 58  1  0
 59 58  1  0
 60 53  2  0
 61 62  1  0
 63 64  2  0
 64 83  1  0
 65 64  1  0
 65 68  1  0
 66 67  1  0
 66 63  1  0
 67 65  2  0
 68 69  1  0
 69 70  2  0
 71 74  1  0
 71 70  1  0
 72 71  2  0
 73 72  1  0
 73 68  2  0
 74 75  1  0
 75 76  1  0
 76 77  2  0
 78 77  1  0
 78 82  1  0
 79 78  2  0
 80 75  2  0
 80 79  1  0
 81 80  1  0
 83 84  1  0
 84 87  1  0
 84 86  1  0
 85 83  2  0
 88 63  1  0
 88 89  1  0
 90 88  1  0
 91 92  1  0
 93 91  2  0
M  ISO  4  10 101  11 101  53 100  61 100
M  END
>  <TORSDO>  (96) 
F 21

>  <SCORE>  (96) 
-12.741

>  <name>  (96) 
95

>  <ligand_id>  (96) 
95

>  <original_smiles>  (96) 
[H]c1oc(C([H])(C(=O)C([H])([H])[H])N([H])C(=O)N2C([H])([H])C([H])([H])C([H])([H])C([H])(n3nc(-c4c([H])c([H])c(Oc5c([H])c([H])c(F)c([H])c5F)c([H])c4[H])c(C(=O)N([H])[H])c3N([H])[H])C2([H])[H])c([H])c1N([H])C([H])([H])C([H])(Oc1c([H])c([H])c2c(c1[H])C([H])([H])N(C(=O)C([H])(N([H])C(=O)C([H])(N([H])C([H])([H])[H])C([H])([H])[H])C(C([H])([H])[H])(C([H])([H])[H])C([H])([H])[H])C([H])(C(=O)N([H])C1([H])c3c([H])c([H])c([H])c([H])c3C([H])([H])C([H])([H])C1([H])[H])C2([H])[H])C([H])([H])[H]

>  <smiles>  (96) 
[H]c1oc(C([H])(C(=O)C([H])([H])[H])N([H])C(=O)N2C([H])([H])C([H])([H])C([H])([H])C([H])(n3nc(-c4c([H])c([H])c(Oc5c([H])c([H])c(F)c([H])c5F)c([H])c4[H])c(C(=O)N([H])[H])c3N([H])[H])C2([H])[H])c([H])c1N([H])C([H])([H])C([H])(Oc1c([H])c([H])c2c(c1[H])C([H])([H])N(C(=O)C([H])(N([H])C(=O)C([H])(N([H])C([H])([H])[H])C([H])([H])[H])C(C([H])([H])[H])(C([H])([H])[H])C([H])([H])[H])C([H])(C(=O)N([H])C1([H])c3c([H])c([H])c([H])c([H])c3C([H])([H])C([H])([H])C1([H])[H])C2([H])[H])C([H])([H])[H]

$$$$
96:0:0
     RDKit          3D

 95104  0  0  1  0  0  0  0  0999 V2000
  -30.5880  -19.4270   18.5250 C   0  0  0  0  0  0  0  0  0  0  0  0
  -29.5860  -19.3520   17.5570 C   0  0  0  0  0  0  0  0  0  0  0  0
  -30.2790  -21.6320   18.0530 C   0  0  0  0  0  0  0  0  0  0  0  0
  -29.3150  -23.8160   18.4960 C   0  0  0  0  0  0  0  0  0  0  0  0
  -28.7780  -18.2300   16.9950 C   0  0  0  0  0  1  0  0  0  0  0  0
  -31.0140  -20.7460   18.7220 N   0  0  0  0  0  0  0  0  0  0  0  0
  -30.3720  -23.0020   18.3460 N   0  0  0  0  0  0  0  0  0  0  0  0
  -28.1470  -23.4610   18.3200 O   0  0  0  0  0  0  0  0  0  0  0  0
  -29.1310  -20.9220   16.9540 S   0  0  0  0  0  0  0  0  0  0  0  0
  -31.2770  -23.3590   18.6130 H   0  0  0  0  0  0  0  0  0  0  0  0
  -30.9020  -14.3900   20.5550 C   0  0  0  0  0  0  0  0  0  0  0  0
  -30.4230  -12.4160   19.2460 C   0  0  0  0  0  2  0  0  0  0  0  0
  -29.3680  -12.6350   18.1500 C   0  0  0  0  0  2  0  0  0  0  0  0
  -28.0090  -12.2740   18.7330 C   0  0  0  0  0  2  0  0  0  0  0  0
  -27.6820  -13.2100   19.9160 C   0  0  0  0  0  3  0  0  0  0  0  0
  -28.7760  -13.0530   20.9990 C   0  0  0  0  0  2  0  0  0  0  0  0
  -30.0910  -13.3240   20.3600 N   0  0  0  0  0  0  0  0  0  0  0  0
  -32.1220  -14.3720   20.3990 O   0  0  0  0  0  0  0  0  0  0  0  0
  -30.4150  -18.0620   20.7160 C   0  0  0  0  0  2  0  0  0  0  0  0
  -31.6090  -17.0720   18.7360 C   0  0  0  0  0  2  0  0  0  0  0  0
  -30.4990  -16.6200   21.3010 C   0  0  0  0  0  2  0  0  0  0  0  0
  -30.5050  -16.0170   18.9010 C   0  0  0  0  0  2  0  0  0  0  0  0
  -31.2290  -18.3710   19.4350 C   0  0  0  0  0  3  0  0  0  0  0  0
  -30.3230  -15.5690   20.2960 N   0  0  0  0  0  0  0  0  0  0  0  0
  -25.2850  -13.8910   20.5640 C   0  0  0  0  0  0  0  0  0  0  0  0
  -24.1980  -13.1440   20.8970 C   0  0  0  0  0  0  0  0  0  0  0  0
  -24.6460  -11.7790   20.8880 C   0  0  0  0  0  0  0  0  0  0  0  0
  -26.3240  -12.9910   20.3730 N   0  0  0  0  0  0  0  0  0  0  0  0
  -25.9300  -11.7170   20.5980 N   0  0  0  0  0  0  0  0  0  0  0  0
  -23.9210  -10.5240   21.0690 C   0  0  0  0  0  0  0  0  0  0  0  0
  -24.3210   -9.5520   22.0160 C   0  0  0  0  0  3  0  0  0  0  0  0
  -23.5860   -8.3620   22.1810 C   0  0  0  0  0  3  0  0  0  0  0  0
  -22.4360   -8.1320   21.3910 C   0  0  0  0  0  0  0  0  0  0  0  0
  -22.0680   -9.0790   20.4170 C   0  0  0  0  0  3  0  0  0  0  0  0
  -22.8080  -10.2640   20.2530 C   0  0  0  0  0  3  0  0  0  0  0  0
  -21.6880   -6.9830   21.4550 O   0  0  0  0  0  0  0  0  0  0  0  0
  -21.5940   -6.2490   22.6110 C   0  0  0  0  0  0  0  0  0  0  0  0
  -21.0930   -6.8000   23.8090 C   0  0  0  0  0  3  0  0  0  0  0  0
  -20.9580   -5.9930   24.9560 C   0  0  0  0  0  3  0  0  0  0  0  0
  -21.3120   -4.6320   24.9000 C   0  0  0  0  0  0  0  0  0  0  0  0
  -21.7980   -4.0770   23.7010 C   0  0  0  0  0  3  0  0  0  0  0  0
  -21.9410   -4.8860   22.5610 C   0  0  0  0  0  0  0  0  0  0  0  0
  -22.3870   -4.3330   21.4090 F   0  0  0  0  0  0  0  0  0  0  0  0
  -21.1760   -3.8570   26.0000 F   0  0  0  0  0  0  0  0  0  0  0  0
  -22.8020  -13.6240   21.1650 C   0  0  0  0  0  0  0  0  0  0  0  0
  -22.0730  -12.8930   21.9940 N   0  0  0  0  0  0  0  0  0  0  0  0
  -22.3680  -14.6600   20.6600 O   0  0  0  0  0  0  0  0  0  0  0  0
  -22.4450  -12.0160   22.3310 H   0  0  0  0  0  0  0  0  0  0  0  0
  -21.1170  -13.1380   22.2060 H   0  0  0  0  0  0  0  0  0  0  0  0
  -25.4920  -15.2680   20.3870 N   0  0  0  0  0  0  0  0  0  0  0  0
  -24.7590  -15.9580   20.4930 H   0  0  0  0  0  0  0  0  0  0  0  0
  -26.3850  -15.6740   20.1240 H   0  0  0  0  0  0  0  0  0  0  0  0
  -29.5790  -25.2500   18.9370 C   0  0  0  0  0  2  0  0  0  0  0  0
  -28.7630  -25.5780   20.1960 C   0  0  0  0  0  2  0  0  0  0  0  0
  -28.6280  -26.9850   20.3070 O   0  0  0  0  0  0  0  0  0  0  0  0
  -24.6000  -31.9620   23.2950 C   0  0  0  0  0  0  0  0  0  0  0  0
  -27.3880  -27.5770   20.2780 C   0  0  0  0  0  0  0  0  0  0  0  0
  -23.4350  -30.5200   21.6540 C   0  0  0  0  0  3  0  0  0  0  0  0
  -24.9390  -28.9920   20.2630 C   0  0  0  0  0  0  0  0  0  0  0  0
  -25.9500  -30.9370   21.4740 C   0  0  0  0  0  2  0  0  0  0  0  0
  -26.0710  -29.5600   20.8540 C   0  0  0  0  0  0  0  0  0  0  0  0
  -27.2920  -28.8600   20.8540 C   0  0  0  0  0  3  0  0  0  0  0  0
  -26.2370  -27.0090   19.6880 C   0  0  0  0  0  3  0  0  0  0  0  0
  -25.0180  -27.7170   19.6720 C   0  0  0  0  0  3  0  0  0  0  0  0
  -23.6730  -29.8180   20.2870 C   0  0  0  0  0  2  0  0  0  0  0  0
  -24.6770  -31.1560   22.1990 N   0  0  0  0  0  0  0  0  0  0  0  0
  -23.5090  -32.2160   23.8220 O   0  0  0  0  0  0  0  0  0  0  0  0
  -22.7940  -29.4990   22.6200 C   0  0  0  0  0  0  0  0  0  0  0  0
  -21.4750  -29.2930   22.4760 N   0  0  0  0  0  0  0  0  0  0  0  0
  -23.4770  -28.8910   23.4480 O   0  0  0  0  0  0  0  0  0  0  0  0
  -20.9860  -29.8340   21.7750 H   0  0  0  0  0  0  0  0  0  0  0  0
  -18.1120  -28.0620   22.9570 C   0  0  0  0  0  0  0  0  0  0  0  0
  -20.6640  -28.3470   23.2440 C   0  0  0  0  0  3  0  0  0  0  0  0
  -20.7830  -26.9140   22.6700 C   0  0  0  0  0  2  0  0  0  0  0  0
  -19.6910  -26.5790   21.6490 C   0  0  0  0  0  2  0  0  0  0  0  0
  -18.3050  -26.7130   22.2870 C   0  0  0  0  0  2  0  0  0  0  0  0
  -19.2190  -28.8360   23.3930 C   0  0  0  0  0  0  0  0  0  0  0  0
  -18.9840  -30.0990   23.9770 C   0  0  0  0  0  3  0  0  0  0  0  0
  -17.6730  -30.5870   24.1320 C   0  0  0  0  0  3  0  0  0  0  0  0
  -16.5800  -29.8100   23.7120 C   0  0  0  0  0  3  0  0  0  0  0  0
  -16.8000  -28.5490   23.1310 C   0  0  0  0  0  3  0  0  0  0  0  0
  -25.8670  -32.6220   23.9270 C   0  0  0  0  0  3  0  0  0  0  0  0
  -25.5360  -34.0190   24.2270 N   0  0  0  0  0  0  0  0  0  0  0  0
  -25.8760  -35.0630   23.4590 C   0  0  0  0  0  0  0  0  0  0  0  0
  -26.5690  -34.9480   22.4450 O   0  0  0  0  0  0  0  0  0  0  0  0
  -24.9250  -34.1780   25.0160 H   0  0  0  0  0  0  0  0  0  0  0  0
  -24.1510  -36.8360   23.0090 C   0  0  0  0  0  1  0  0  0  0  0  0
  -25.3590  -36.4530   23.8800 C   0  0  0  0  0  3  0  0  0  0  0  0
  -27.4550  -37.3610   24.7860 C   0  0  0  0  0  1  0  0  0  0  0  0
  -26.3900  -37.5120   23.7960 N   0  0  0  0  0  0  0  0  0  0  0  0
  -25.9760  -38.4330   23.9130 H   0  0  0  0  0  0  0  0  0  0  0  0
  -26.3750  -31.8770   25.2220 C   0  0  1  0  0  0  0  0  0  0  0  0
  -25.2670  -31.6380   26.2750 C   0  0  0  0  0  1  0  0  0  0  0  0
  -26.9820  -30.5050   24.8540 C   0  0  0  0  0  1  0  0  0  0  0  0
  -27.5050  -32.6960   25.8850 C   0  0  0  0  0  1  0  0  0  0  0  0
  1  6  1  0
  2  1  2  0
  3  7  1  0
  3  6  2  0
  4 53  1  0
  5  2  1  0
  7  4  1  0
  7 10  1  0
  8  4  2  0
  9  2  1  0
  9  3  1  0
 12 17  1  0
 13 14  1  0
 13 12  1  0
 15 14  1  0
 15 28  1  0
 15 16  1  0
 17 11  1  0
 17 16  1  0
 18 11  2  0
 19 21  1  0
 20 22  1  0
 20 23  1  0
 22 24  1  0
 23  1  1  0
 23 19  1  0
 24 11  1  0
 24 21  1  0
 25 26  2  0
 26 45  1  0
 27 26  1  0
 27 30  1  0
 28 25  1  0
 28 29  1  0
 29 27  2  0
 30 31  1  0
 31 32  2  0
 33 36  1  0
 33 32  1  0
 34 33  2  0
 35 34  1  0
 35 30  2  0
 36 37  1  0
 37 38  1  0
 38 39  2  0
 40 39  1  0
 40 44  1  0
 41 40  2  0
 42 37  2  0
 42 41  1  0
 43 42  1  0
 45 46  1  0
 46 49  1  0
 46 48  1  0
 47 45  2  0
 50 51  1  0
 50 25  1  0
 52 50  1  0
 53 54  1  0
 54 55  1  0
 56 67  2  0
 57 55  1  0
 57 62  1  0
 58 66  1  0
 58 68  1  0
 59 65  1  0
 59 61  1  0
 60 66  1  0
 61 60  1  0
 62 61  2  0
 63 57  2  0
 64 63  1  0
 64 59  2  0
 65 58  1  0
 66 56  1  0
 68 70  2  0
 69 68  1  0
 71 69  1  0
 72 81  2  0
 72 77  1  0
 73 69  1  0
 73 77  1  0
 74 73  1  0
 75 76  1  0
 75 74  1  0
 76 72  1  0
 77 78  2  0
 78 79  1  0
 80 79  2  0
 81 80  1  0
 82 56  1  0
 82 83  1  0
 82 92  1  0
 83 86  1  0
 84 88  1  0
 84 83  1  0
 85 84  2  0
 88 87  1  0
 90 88  1  0
 90 91  1  0
 90 89  1  0
 92 95  1  1
 92 93  1  0
 94 92  1  0
M  ISO  4  11 100  24 100  54 101  55 101
M  END
>  <TORSDO>  (97) 
F 18

>  <SCORE>  (97) 
-14.559

>  <name>  (97) 
96

>  <ligand_id>  (97) 
96

>  <original_smiles>  (97) 
[H]c1c([H])c([H])c2c(c1[H])C([H])([H])C([H])([H])C([H])([H])C2([H])N([H])C(=O)C1([H])N(C(=O)C([H])(N([H])C(=O)C([H])(N([H])C([H])([H])[H])C([H])([H])[H])C(C([H])([H])[H])(C([H])([H])[H])C([H])([H])[H])C([H])([H])c2c([H])c(OC([H])([H])C([H])([H])C(=O)N([H])c3nc(C4([H])C([H])([H])C([H])([H])N(C(=O)N5C([H])([H])C([H])([H])C([H])([H])C([H])(n6nc(-c7c([H])c([H])c(Oc8c([H])c([H])c(F)c([H])c8F)c([H])c7[H])c(C(=O)N([H])[H])c6N([H])[H])C5([H])[H])C([H])([H])C4([H])[H])c(C([H])([H])[H])s3)c([H])c([H])c2C1([H])[H]

>  <smiles>  (97) 
[H]c1c([H])c([H])c2c(c1[H])C([H])([H])C([H])([H])C([H])([H])C2([H])N([H])C(=O)C1([H])N(C(=O)C([H])(N([H])C(=O)C([H])(N([H])C([H])([H])[H])C([H])([H])[H])C(C([H])([H])[H])(C([H])([H])[H])C([H])([H])[H])C([H])([H])c2c([H])c(OC([H])([H])C([H])([H])C(=O)N([H])c3nc(C4([H])C([H])([H])C([H])([H])N(C(=O)N5C([H])([H])C([H])([H])C([H])([H])C([H])(n6nc(-c7c([H])c([H])c(Oc8c([H])c([H])c(F)c([H])c8F)c([H])c7[H])c(C(=O)N([H])[H])c6N([H])[H])C5([H])[H])C([H])([H])C4([H])[H])c(C([H])([H])[H])s3)c([H])c([H])c2C1([H])[H]

$$$$
