0:0:0
     RDKit          3D

 98106  0  0  1  0  0  0  0  0999 V2000
  -30.4370  -17.4440   19.6510 C   0  0  0  0  0  3  0  0  0  0  0  0
  -30.0030  -18.7760   19.4550 C   0  0  0  0  0  3  0  0  0  0  0  0
  -28.1300  -16.6850   19.7370 C   0  0  0  0  0  0  0  0  0  0  0  0
  -29.5220  -16.3650   19.7920 C   0  0  0  0  0  0  0  0  0  0  0  0
  -28.6270  -19.0830   19.3890 C   0  0  0  0  0  0  0  0  0  0  0  0
  -27.7050  -18.0250   19.5230 C   0  0  0  0  0  0  0  0  0  0  0  0
  -27.0440  -15.6320   19.9030 C   0  0  0  0  0  1  0  0  0  0  0  0
  -26.3820  -18.3070   19.4470 F   0  0  0  0  0  0  0  0  0  0  0  0
  -30.2850  -14.1150   19.0640 C   0  0  0  0  0  0  0  0  0  0  0  0
  -29.6900  -11.9780   17.9530 C   0  0  0  0  0  2  0  0  0  0  0  0
  -28.4950  -12.1740   16.9990 C   0  0  0  0  0  2  0  0  0  0  0  0
  -27.1620  -12.0280   17.7570 C   0  0  0  0  0  2  0  0  0  0  0  0
  -27.1240  -12.8690   19.0600 C   0  0  0  0  0  3  0  0  0  0  0  0
  -28.4020  -12.6330   19.8940 C   0  0  0  0  0  2  0  0  0  0  0  0
  -29.5630  -12.9560   19.0500 N   0  0  0  0  0  0  0  0  0  0  0  0
  -31.1630  -14.3330   18.2210 O   0  0  0  0  0  0  0  0  0  0  0  0
  -30.0020  -15.0150   20.0510 N   0  0  0  0  0  0  0  0  0  0  0  0
  -24.9830  -13.4970   20.3410 C   0  0  0  0  0  0  0  0  0  0  0  0
  -24.0100  -12.7350   20.9280 C   0  0  0  0  0  0  0  0  0  0  0  0
  -24.3970  -11.3760   20.7230 C   0  0  0  0  0  0  0  0  0  0  0  0
  -25.9140  -12.6040   19.8330 N   0  0  0  0  0  0  0  0  0  0  0  0
  -25.5740  -11.3190   20.1110 N   0  0  0  0  0  0  0  0  0  0  0  0
  -23.6890  -10.1260   21.0210 C   0  0  0  0  0  0  0  0  0  0  0  0
  -24.2200   -9.1710   21.9150 C   0  0  0  0  0  3  0  0  0  0  0  0
  -23.5110   -7.9820   22.1980 C   0  0  0  0  0  3  0  0  0  0  0  0
  -22.2570   -7.7420   21.5890 C   0  0  0  0  0  0  0  0  0  0  0  0
  -21.7420   -8.6860   20.6830 C   0  0  0  0  0  3  0  0  0  0  0  0
  -22.4510   -9.8650   20.3980 C   0  0  0  0  0  3  0  0  0  0  0  0
  -21.5090   -6.6070   21.7870 O   0  0  0  0  0  0  0  0  0  0  0  0
  -21.5340   -5.9260   22.9770 C   0  0  0  0  0  0  0  0  0  0  0  0
  -21.1390   -6.5320   24.1910 C   0  0  0  0  0  3  0  0  0  0  0  0
  -21.1140   -5.7750   25.3790 C   0  0  0  0  0  3  0  0  0  0  0  0
  -21.4750   -4.4140   25.3550 C   0  0  0  0  0  0  0  0  0  0  0  0
  -21.8620   -3.8080   24.1480 C   0  0  0  0  0  3  0  0  0  0  0  0
  -21.8890   -4.5620   22.9610 C   0  0  0  0  0  0  0  0  0  0  0  0
  -22.2440   -3.9690   21.7960 F   0  0  0  0  0  0  0  0  0  0  0  0
  -21.4430   -3.6840   26.4950 F   0  0  0  0  0  0  0  0  0  0  0  0
  -22.7420  -13.2350   21.5550 C   0  0  0  0  0  0  0  0  0  0  0  0
  -22.2300  -12.5250   22.5550 N   0  0  0  0  0  0  0  0  0  0  0  0
  -22.2210  -14.2890   21.1940 O   0  0  0  0  0  0  0  0  0  0  0  0
  -22.6680  -11.6720   22.8690 H   0  0  0  0  0  0  0  0  0  0  0  0
  -21.3860  -12.8400   23.0130 H   0  0  0  0  0  0  0  0  0  0  0  0
  -25.1380  -14.8690   20.1760 N   0  0  0  0  0  0  0  0  0  0  0  0
  -24.4210  -15.5240   20.4670 H   0  0  0  0  0  0  0  0  0  0  0  0
  -25.8750  -15.3010   19.6350 H   0  0  0  0  0  0  0  0  0  0  0  0
  -30.6200  -14.7490   21.3690 C   0  0  0  0  0  2  0  0  0  0  0  0
  -31.7390  -15.7430   21.7090 C   0  0  0  0  0  0  0  0  0  0  0  0
  -31.7900  -16.2760   23.1320 C   0  0  0  0  0  1  0  0  0  0  0  0
  -32.5820  -16.0930   20.8810 O   0  0  0  0  0  0  0  0  0  0  0  0
  -28.6420  -21.6010   19.4310 C   0  0  0  0  0  0  0  0  0  0  0  0
  -28.1170  -20.3960   19.1180 N   0  0  0  0  0  0  0  0  0  0  0  0
  -29.6920  -21.6970   20.0740 O   0  0  0  0  0  0  0  0  0  0  0  0
  -27.1920  -20.4270   18.7130 H   0  0  0  0  0  0  0  0  0  0  0  0
  -28.3690  -24.0110   19.1140 C   0  0  0  0  0  3  0  0  0  0  0  0
  -27.8670  -22.7560   18.9230 C   0  0  0  0  0  0  0  0  0  0  0  0
  -26.5610  -22.4950   18.1690 C   0  0  0  0  0  1  0  0  0  0  0  0
  -27.8580  -25.3530   18.5610 C   0  0  0  0  0  2  0  0  0  0  0  0
  -27.7740  -26.4210   19.5320 O   0  0  0  0  0  0  0  0  0  0  0  0
  -24.4450  -31.7140   22.9950 C   0  0  0  0  0  0  0  0  0  0  0  0
  -26.6360  -27.2130   19.6090 C   0  0  0  0  0  0  0  0  0  0  0  0
  -23.0610  -30.4280   21.4020 C   0  0  0  0  0  3  0  0  0  0  0  0
  -24.3310  -28.8600   19.8410 C   0  0  0  0  0  0  0  0  0  0  0  0
  -25.5890  -30.6510   21.0470 C   0  0  0  0  0  2  0  0  0  0  0  0
  -25.5550  -29.2970   20.3620 C   0  0  0  0  0  0  0  0  0  0  0  0
  -26.7070  -28.4780   20.2470 C   0  0  0  0  0  3  0  0  0  0  0  0
  -25.3790  -26.7900   19.1150 C   0  0  0  0  0  3  0  0  0  0  0  0
  -24.2390  -27.6070   19.2200 C   0  0  0  0  0  3  0  0  0  0  0  0
  -23.1420  -29.7830   19.9940 C   0  0  0  0  0  2  0  0  0  0  0  0
  -24.3880  -30.9440   21.8700 N   0  0  0  0  0  0  0  0  0  0  0  0
  -23.4170  -32.0250   23.6120 O   0  0  0  0  0  0  0  0  0  0  0  0
  -22.4200  -29.4120   22.3750 C   0  0  0  0  0  0  0  0  0  0  0  0
  -21.0820  -29.3000   22.3300 N   0  0  0  0  0  0  0  0  0  0  0  0
  -23.1210  -28.7290   23.1270 O   0  0  0  0  0  0  0  0  0  0  0  0
  -20.5790  -29.8990   21.6890 H   0  0  0  0  0  0  0  0  0  0  0  0
  -17.6880  -28.2600   23.0120 C   0  0  0  0  0  0  0  0  0  0  0  0
  -20.2690  -28.3830   23.1270 C   0  0  0  0  0  3  0  0  0  0  0  0
  -20.2620  -26.9660   22.5110 C   0  0  0  0  0  2  0  0  0  0  0  0
  -19.0850  -26.7260   21.5620 C   0  0  0  0  0  2  0  0  0  0  0  0
  -17.7550  -26.9220   22.2950 C   0  0  0  0  0  2  0  0  0  0  0  0
  -18.8700  -28.9530   23.3900 C   0  0  0  0  0  0  0  0  0  0  0  0
  -18.7540  -30.2100   24.0220 C   0  0  0  0  0  3  0  0  0  0  0  0
  -17.4890  -30.7720   24.2810 C   0  0  0  0  0  3  0  0  0  0  0  0
  -16.3240  -30.0740   23.9210 C   0  0  0  0  0  3  0  0  0  0  0  0
  -16.4250  -28.8200   23.2920 C   0  0  0  0  0  3  0  0  0  0  0  0
  -25.8000  -32.2600   23.5430 C   0  0  0  0  0  3  0  0  0  0  0  0
  -25.5740  -33.6450   23.9810 N   0  0  0  0  0  0  0  0  0  0  0  0
  -25.9190  -34.7310   23.2760 C   0  0  0  0  0  0  0  0  0  0  0  0
  -26.5350  -34.6690   22.2080 O   0  0  0  0  0  0  0  0  0  0  0  0
  -25.0270  -33.7690   24.8200 H   0  0  0  0  0  0  0  0  0  0  0  0
  -24.2660  -36.6190   23.1210 C   0  0  0  0  0  1  0  0  0  0  0  0
  -25.5190  -36.1040   23.8480 C   0  0  0  0  0  3  0  0  0  0  0  0
  -27.7210  -36.8350   24.6500 C   0  0  0  0  0  1  0  0  0  0  0  0
  -26.5960  -37.1150   23.7610 N   0  0  0  0  0  0  0  0  0  0  0  0
  -26.2400  -38.0410   23.9820 H   0  0  0  0  0  0  0  0  0  0  0  0
  -26.3880  -31.3930   24.7220 C   0  0  1  0  0  0  0  0  0  0  0  0
  -25.3780  -31.1280   25.8630 C   0  0  0  0  0  1  0  0  0  0  0  0
  -26.8800  -30.0240   24.2000 C   0  0  0  0  0  1  0  0  0  0  0  0
  -27.6220  -32.1010   25.3290 C   0  0  0  0  0  1  0  0  0  0  0  0
  1  4  1  0
  2  1  2  0
  3  4  2  0
  3  7  1  0
  4 17  1  0
  5  2  1  0
  5  6  2  0
  6  3  1  0
  8  6  1  0
  9 17  1  0
 10 15  1  0
 11 12  1  0
 11 10  1  0
 13 12  1  0
 13 21  1  0
 13 14  1  0
 15  9  1  0
 15 14  1  0
 16  9  2  0
 17 46  1  0
 18 19  2  0
 19 38  1  0
 20 19  1  0
 20 23  1  0
 21 22  1  0
 21 18  1  0
 22 20  2  0
 23 24  1  0
 24 25  2  0
 26 29  1  0
 26 25  1  0
 27 26  2  0
 28 27  1  0
 28 23  2  0
 29 30  1  0
 30 31  1  0
 31 32  2  0
 33 32  1  0
 33 37  1  0
 34 33  2  0
 35 30  2  0
 35 34  1  0
 36 35  1  0
 38 39  1  0
 39 41  1  0
 39 42  1  0
 40 38  2  0
 43 18  1  0
 43 44  1  0
 45 43  1  0
 46 47  1  0
 47 48  1  0
 49 47  2  0
 50 52  2  0
 51  5  1  0
 51 50  1  0
 53 51  1  0
 55 54  2  0
 55 50  1  0
 56 55  1  0
 57 54  1  0
 57 58  1  0
 58 60  1  0
 59 70  2  0
 60 65  1  0
 61 69  1  0
 61 71  1  0
 62 68  1  0
 62 64  1  0
 63 69  1  0
 64 63  1  0
 65 64  2  0
 66 67  1  0
 66 60  2  0
 67 62  2  0
 68 61  1  0
 69 59  1  0
 71 73  2  0
 72 71  1  0
 74 72  1  0
 75 84  2  0
 75 80  1  0
 76 72  1  0
 76 80  1  0
 77 76  1  0
 78 79  1  0
 78 77  1  0
 79 75  1  0
 80 81  2  0
 81 82  1  0
 83 82  2  0
 84 83  1  0
 85 59  1  0
 85 86  1  0
 85 95  1  0
 86 89  1  0
 87 91  1  0
 87 86  1  0
 88 87  2  0
 91 90  1  0
 93 91  1  0
 93 94  1  0
 93 92  1  0
 95 98  1  1
 95 96  1  0
 97 95  1  0
M  ISO  4   9 100  17 100  57 101  58 101
M  END
>  <TORSDO>  (1) 
F 21

>  <SCORE>  (1) 
-8.378

>  <name>  (1) 
0

>  <ligand_id>  (1) 
0

>  <original_smiles>  (1) 
[H]C(=C(C(=O)N([H])c1c([H])c([H])c(N(C(=O)N2C([H])([H])C([H])([H])C([H])([H])C([H])(n3nc(-c4c([H])c([H])c(Oc5c([H])c([H])c(F)c([H])c5F)c([H])c4[H])c(C(=O)N([H])[H])c3N([H])[H])C2([H])[H])C([H])([H])C(=O)C([H])([H])[H])c(C([H])([H])[H])c1F)C([H])([H])[H])C([H])([H])Oc1c([H])c([H])c2c(c1[H])C([H])([H])N(C(=O)C([H])(N([H])C(=O)C([H])(N([H])C([H])([H])[H])C([H])([H])[H])C(C([H])([H])[H])(C([H])([H])[H])C([H])([H])[H])C([H])(C(=O)N([H])C1([H])c3c([H])c([H])c([H])c([H])c3C([H])([H])C([H])([H])C1([H])[H])C2([H])[H]

>  <smiles>  (1) 
[H]C(=C(C(=O)N([H])c1c([H])c([H])c(N(C(=O)N2C([H])([H])C([H])([H])C([H])([H])C([H])(n3nc(-c4c([H])c([H])c(Oc5c([H])c([H])c(F)c([H])c5F)c([H])c4[H])c(C(=O)N([H])[H])c3N([H])[H])C2([H])[H])C([H])([H])C(=O)C([H])([H])[H])c(C([H])([H])[H])c1F)C([H])([H])[H])C([H])([H])Oc1c([H])c([H])c2c(c1[H])C([H])([H])N(C(=O)C([H])(N([H])C(=O)C([H])(N([H])C([H])([H])[H])C([H])([H])[H])C(C([H])([H])[H])(C([H])([H])[H])C([H])([H])[H])C([H])(C(=O)N([H])C1([H])c3c([H])c([H])c([H])c([H])c3C([H])([H])C([H])([H])C1([H])[H])C2([H])[H]

$$$$
1:0:0
     RDKit          3D

 93101  0  0  1  0  0  0  0  0999 V2000
  -31.2560  -17.4430   20.8140 C   0  0  0  0  0  3  0  0  0  0  0  0
  -30.1660  -16.6060   20.9190 C   0  0  0  0  0  0  0  0  0  0  0  0
  -29.6030  -18.9560   20.4770 C   0  0  0  0  0  0  0  0  0  0  0  0
  -29.5310  -21.3840   19.9310 C   0  0  0  0  0  0  0  0  0  0  0  0
  -30.9260  -18.7760   20.5560 N   0  0  0  0  0  0  0  0  0  0  0  0
  -28.9830  -20.1870   20.1770 N   0  0  0  0  0  0  0  0  0  0  0  0
  -30.7380  -21.6580   19.9360 O   0  0  0  0  0  0  0  0  0  0  0  0
  -28.6730  -17.4980   20.7640 S   0  0  0  0  0  0  0  0  0  0  0  0
  -27.9740  -20.1840   20.1040 H   0  0  0  0  0  0  0  0  0  0  0  0
  -30.7400  -14.3860   20.2860 C   0  0  0  0  0  0  0  0  0  0  0  0
  -30.3610  -12.3330   18.9870 C   0  0  0  0  0  2  0  0  0  0  0  0
  -29.3740  -12.6330   17.8400 C   0  0  0  0  0  2  0  0  0  0  0  0
  -27.9150  -12.4960   18.3180 C   0  0  0  0  0  2  0  0  0  0  0  0
  -27.6440  -13.2620   19.6390 C   0  0  0  0  0  3  0  0  0  0  0  0
  -28.7270  -12.9260   20.6870 C   0  0  0  0  0  2  0  0  0  0  0  0
  -30.0470  -13.2350   20.1010 N   0  0  0  0  0  0  0  0  0  0  0  0
  -31.8030  -14.6460   19.7110 O   0  0  0  0  0  0  0  0  0  0  0  0
  -30.1340  -15.2640   21.0960 N   0  0  0  0  0  0  0  0  0  0  0  0
  -29.3040  -14.9000   21.5340 H   0  0  0  0  0  0  0  0  0  0  0  0
  -25.2580  -13.8720   20.4030 C   0  0  0  0  0  0  0  0  0  0  0  0
  -24.2000  -13.0970   20.7990 C   0  0  0  0  0  0  0  0  0  0  0  0
  -24.6630  -11.7450   20.7520 C   0  0  0  0  0  0  0  0  0  0  0  0
  -26.2990  -12.9920   20.1470 N   0  0  0  0  0  0  0  0  0  0  0  0
  -25.9440  -11.7080   20.4100 N   0  0  0  0  0  0  0  0  0  0  0  0
  -23.9450  -10.4800   20.9580 C   0  0  0  0  0  0  0  0  0  0  0  0
  -24.3910   -9.5220   21.8950 C   0  0  0  0  0  3  0  0  0  0  0  0
  -23.6750   -8.3220   22.0880 C   0  0  0  0  0  3  0  0  0  0  0  0
  -22.4970   -8.0720   21.3440 C   0  0  0  0  0  0  0  0  0  0  0  0
  -22.0680   -9.0190   20.3980 C   0  0  0  0  0  3  0  0  0  0  0  0
  -22.7860  -10.2110   20.2040 C   0  0  0  0  0  3  0  0  0  0  0  0
  -21.7510   -6.9220   21.4470 O   0  0  0  0  0  0  0  0  0  0  0  0
  -21.7060   -6.1940   22.6090 C   0  0  0  0  0  0  0  0  0  0  0  0
  -21.2510   -6.7540   23.8220 C   0  0  0  0  0  3  0  0  0  0  0  0
  -21.1540   -5.9510   24.9760 C   0  0  0  0  0  3  0  0  0  0  0  0
  -21.5060   -4.5890   24.9190 C   0  0  0  0  0  0  0  0  0  0  0  0
  -21.9550   -4.0280   23.7100 C   0  0  0  0  0  3  0  0  0  0  0  0
  -22.0530   -4.8280   22.5580 C   0  0  0  0  0  0  0  0  0  0  0  0
  -22.4660   -4.2780   21.3910 F   0  0  0  0  0  0  0  0  0  0  0  0
  -21.4070   -3.8150   26.0250 F   0  0  0  0  0  0  0  0  0  0  0  0
  -22.8100  -13.5690   21.1110 C   0  0  0  0  0  0  0  0  0  0  0  0
  -22.1060  -12.8650   21.9910 N   0  0  0  0  0  0  0  0  0  0  0  0
  -22.3560  -14.5990   20.6120 O   0  0  0  0  0  0  0  0  0  0  0  0
  -22.4880  -12.0330   22.4160 H   0  0  0  0  0  0  0  0  0  0  0  0
  -21.1760  -13.1620   22.2450 H   0  0  0  0  0  0  0  0  0  0  0  0
  -25.4180  -15.2420   20.2240 N   0  0  0  0  0  0  0  0  0  0  0  0
  -24.6550  -15.8990   20.3510 H   0  0  0  0  0  0  0  0  0  0  0  0
  -26.2640  -15.6780   19.8770 H   0  0  0  0  0  0  0  0  0  0  0  0
  -28.4290  -22.4280   19.6500 C   0  0  0  0  0  0  0  0  0  0  0  0
  -27.2700  -22.1050   19.3550 O   0  0  0  0  0  0  0  0  0  0  0  0
  -28.8110  -23.8980   19.7940 C   0  0  0  0  0  2  0  0  0  0  0  0
  -28.1280  -24.5490   21.0080 C   0  0  0  0  0  2  0  0  0  0  0  0
  -28.6480  -25.9690   21.2590 C   0  0  0  0  0  2  0  0  0  0  0  0
  -28.4230  -26.7680   20.1040 O   0  0  0  0  0  0  0  0  0  0  0  0
  -24.5410  -31.8290   23.2310 C   0  0  0  0  0  0  0  0  0  0  0  0
  -27.2500  -27.4690   20.1360 C   0  0  0  0  0  0  0  0  0  0  0  0
  -23.3620  -30.4410   21.5560 C   0  0  0  0  0  3  0  0  0  0  0  0
  -24.8410  -28.9250   20.1370 C   0  0  0  0  0  0  0  0  0  0  0  0
  -25.8830  -30.8220   21.3940 C   0  0  0  0  0  2  0  0  0  0  0  0
  -25.9830  -29.4580   20.7500 C   0  0  0  0  0  0  0  0  0  0  0  0
  -27.1910  -28.7330   20.7540 C   0  0  0  0  0  3  0  0  0  0  0  0
  -26.1010  -26.9370   19.5180 C   0  0  0  0  0  3  0  0  0  0  0  0
  -24.8910  -27.6600   19.5220 C   0  0  0  0  0  3  0  0  0  0  0  0
  -23.5920  -29.7740   20.1720 C   0  0  0  0  0  2  0  0  0  0  0  0
  -24.6120  -31.0460   22.1200 N   0  0  0  0  0  0  0  0  0  0  0  0
  -23.4530  -32.0920   23.7600 O   0  0  0  0  0  0  0  0  0  0  0  0
  -22.7020  -29.4080   22.4960 C   0  0  0  0  0  0  0  0  0  0  0  0
  -21.3760  -29.2430   22.3660 N   0  0  0  0  0  0  0  0  0  0  0  0
  -23.3800  -28.7560   23.2960 O   0  0  0  0  0  0  0  0  0  0  0  0
  -20.8930  -29.8230   21.6920 H   0  0  0  0  0  0  0  0  0  0  0  0
  -17.9830  -28.1170   22.8670 C   0  0  0  0  0  0  0  0  0  0  0  0
  -20.5480  -28.2980   23.1120 C   0  0  0  0  0  3  0  0  0  0  0  0
  -20.6080  -26.8880   22.4850 C   0  0  0  0  0  2  0  0  0  0  0  0
  -19.4850  -26.6270   21.4770 C   0  0  0  0  0  2  0  0  0  0  0  0
  -18.1170  -26.7850   22.1470 C   0  0  0  0  0  2  0  0  0  0  0  0
  -19.1260  -28.8350   23.3070 C   0  0  0  0  0  0  0  0  0  0  0  0
  -18.9500  -30.0830   23.9410 C   0  0  0  0  0  3  0  0  0  0  0  0
  -17.6630  -30.6140   24.1410 C   0  0  0  0  0  3  0  0  0  0  0  0
  -16.5330  -29.8910   23.7180 C   0  0  0  0  0  3  0  0  0  0  0  0
  -16.6940  -28.6460   23.0860 C   0  0  0  0  0  3  0  0  0  0  0  0
  -25.8180  -32.4540   23.8760 C   0  0  0  0  0  3  0  0  0  0  0  0
  -26.3090  -31.6800   25.1610 C   0  0  1  0  0  0  0  0  0  0  0  0
  -25.1950  -31.4430   26.2070 C   0  0  0  0  0  1  0  0  0  0  0  0
  -26.8980  -30.3040   24.7750 C   0  0  0  0  0  1  0  0  0  0  0  0
  -27.4480  -32.4720   25.8480 C   0  0  0  0  0  1  0  0  0  0  0  0
  -25.5120  -33.8530   24.1950 N   0  0  0  0  0  0  0  0  0  0  0  0
  -25.8640  -34.9010   23.4380 C   0  0  0  0  0  0  0  0  0  0  0  0
  -26.5560  -34.7890   22.4210 O   0  0  0  0  0  0  0  0  0  0  0  0
  -24.9010  -34.0160   24.9820 H   0  0  0  0  0  0  0  0  0  0  0  0
  -24.1560  -36.7010   23.0370 C   0  0  0  0  0  1  0  0  0  0  0  0
  -25.3740  -36.2930   23.8790 C   0  0  0  0  0  3  0  0  0  0  0  0
  -27.4880  -37.1720   24.7630 C   0  0  0  0  0  1  0  0  0  0  0  0
  -26.4140  -37.3390   23.7880 N   0  0  0  0  0  0  0  0  0  0  0  0
  -26.0100  -38.2630   23.9180 H   0  0  0  0  0  0  0  0  0  0  0  0
  1  2  2  0
  2 18  1  0
  3  5  2  0
  3  8  1  0
  4  7  2  0
  4  6  1  0
  5  1  1  0
  6  3  1  0
  8  2  1  0
  9  6  1  0
 10 18  1  0
 11 16  1  0
 12 13  1  0
 12 11  1  0
 14 13  1  0
 14 23  1  0
 14 15  1  0
 16 10  1  0
 16 15  1  0
 17 10  2  0
 18 19  1  0
 20 21  2  0
 21 40  1  0
 22 21  1  0
 22 25  1  0
 23 20  1  0
 23 24  1  0
 24 22  2  0
 25 26  1  0
 26 27  2  0
 28 31  1  0
 28 27  1  0
 29 28  2  0
 30 29  1  0
 30 25  2  0
 31 32  1  0
 32 33  1  0
 33 34  2  0
 35 34  1  0
 35 39  1  0
 36 35  2  0
 37 32  2  0
 37 36  1  0
 38 37  1  0
 40 41  1  0
 41 44  1  0
 41 43  1  0
 42 40  2  0
 45 46  1  0
 45 20  1  0
 47 45  1  0
 48 50  1  0
 48  4  1  0
 49 48  2  0
 50 51  1  0
 51 52  1  0
 53 55  1  0
 53 52  1  0
 54 65  2  0
 55 60  1  0
 56 64  1  0
 56 66  1  0
 57 63  1  0
 57 59  1  0
 58 64  1  0
 59 60  2  0
 59 58  1  0
 61 62  1  0
 61 55  2  0
 62 57  2  0
 63 56  1  0
 64 54  1  0
 66 68  2  0
 67 66  1  0
 69 67  1  0
 70 79  2  0
 70 75  1  0
 71 67  1  0
 71 75  1  0
 72 71  1  0
 73 74  1  0
 73 72  1  0
 74 70  1  0
 75 76  2  0
 76 77  1  0
 78 77  2  0
 79 78  1  0
 80 54  1  0
 80 85  1  0
 80 81  1  0
 81 84  1  1
 81 82  1  0
 83 81  1  0
 85 88  1  0
 86 90  1  0
 86 85  1  0
 87 86  2  0
 90 89  1  0
 92 90  1  0
 92 93  1  0
 92 91  1  0
M  ISO  4  10 100  18 100  52 101  53 101
M  END
>  <TORSDO>  (2) 
F 20

>  <SCORE>  (2) 
-13.914

>  <name>  (2) 
1

>  <ligand_id>  (2) 
1

>  <original_smiles>  (2) 
[H]c1nc(N([H])C(=O)C(=O)C([H])([H])C([H])([H])C([H])([H])Oc2c([H])c([H])c3c(c2[H])C([H])([H])N(C(=O)C([H])(N([H])C(=O)C([H])(N([H])C([H])([H])[H])C([H])([H])[H])C(C([H])([H])[H])(C([H])([H])[H])C([H])([H])[H])C([H])(C(=O)N([H])C2([H])c4c([H])c([H])c([H])c([H])c4C([H])([H])C([H])([H])C2([H])[H])C3([H])[H])sc1N([H])C(=O)N1C([H])([H])C([H])([H])C([H])([H])C([H])(n2nc(-c3c([H])c([H])c(Oc4c([H])c([H])c(F)c([H])c4F)c([H])c3[H])c(C(=O)N([H])[H])c2N([H])[H])C1([H])[H]

>  <smiles>  (2) 
[H]c1nc(N([H])C(=O)C(=O)C([H])([H])C([H])([H])C([H])([H])Oc2c([H])c([H])c3c(c2[H])C([H])([H])N(C(=O)C([H])(N([H])C(=O)C([H])(N([H])C([H])([H])[H])C([H])([H])[H])C(C([H])([H])[H])(C([H])([H])[H])C([H])([H])[H])C([H])(C(=O)N([H])C2([H])c4c([H])c([H])c([H])c([H])c4C([H])([H])C([H])([H])C2([H])[H])C3([H])[H])sc1N([H])C(=O)N1C([H])([H])C([H])([H])C([H])([H])C([H])(n2nc(-c3c([H])c([H])c(Oc4c([H])c([H])c(F)c([H])c4F)c([H])c3[H])c(C(=O)N([H])[H])c2N([H])[H])C1([H])[H]

$$$$
2:0:0
     RDKit          3D

 98106  0  0  1  0  0  0  0  0999 V2000
  -30.9350  -18.1210   18.0100 C   0  0  0  0  0  3  0  0  0  0  0  0
  -30.9680  -19.3530   18.6840 C   0  0  0  0  0  0  0  0  0  0  0  0
  -30.5260  -16.9590   18.6740 C   0  0  0  0  0  0  0  0  0  0  0  0
  -30.4420  -19.4010   19.9990 C   0  0  0  0  0  0  0  0  0  0  0  0
  -30.1750  -17.0190   20.0460 C   0  0  0  0  0  0  0  0  0  0  0  0
  -30.0560  -18.2540   20.6550 N   0  0  0  0  0  0  0  0  0  0  0  0
  -30.3790  -20.6300   20.7060 N   0  0  0  0  0  0  0  0  0  0  0  0
  -30.4940  -15.7960   17.9790 F   0  0  0  0  0  0  0  0  0  0  0  0
  -31.0570  -21.3010   20.3550 H   0  0  0  0  0  0  0  0  0  0  0  0
  -30.6640  -14.6290   20.5750 C   0  0  0  0  0  0  0  0  0  0  0  0
  -30.4240  -12.3920   19.5700 C   0  0  0  0  0  2  0  0  0  0  0  0
  -29.5370  -12.5180   18.3140 C   0  0  0  0  0  2  0  0  0  0  0  0
  -28.0470  -12.3900   18.6840 C   0  0  0  0  0  2  0  0  0  0  0  0
  -27.6480  -13.2750   19.8970 C   0  0  0  0  0  3  0  0  0  0  0  0
  -28.6630  -13.1500   21.0560 C   0  0  0  0  0  2  0  0  0  0  0  0
  -29.9980  -13.4380   20.5170 N   0  0  0  0  0  0  0  0  0  0  0  0
  -31.8680  -14.7010   20.3160 O   0  0  0  0  0  0  0  0  0  0  0  0
  -29.9140  -15.7610   20.7150 N   0  0  0  0  0  0  0  0  0  0  0  0
  -28.9890  -15.6500   21.0930 H   0  0  0  0  0  0  0  0  0  0  0  0
  -25.2270  -13.8770   20.5130 C   0  0  0  0  0  0  0  0  0  0  0  0
  -24.1490  -13.1060   20.8560 C   0  0  0  0  0  0  0  0  0  0  0  0
  -24.6150  -11.7570   20.8680 C   0  0  0  0  0  0  0  0  0  0  0  0
  -26.2830  -12.9970   20.3370 N   0  0  0  0  0  0  0  0  0  0  0  0
  -25.9180  -11.7170   20.6110 N   0  0  0  0  0  0  0  0  0  0  0  0
  -23.8860  -10.4950   21.0510 C   0  0  0  0  0  0  0  0  0  0  0  0
  -24.2920   -9.5380   22.0070 C   0  0  0  0  0  3  0  0  0  0  0  0
  -23.5630   -8.3410   22.1770 C   0  0  0  0  0  3  0  0  0  0  0  0
  -22.4130   -8.0930   21.3910 C   0  0  0  0  0  0  0  0  0  0  0  0
  -22.0260   -9.0380   20.4240 C   0  0  0  0  0  3  0  0  0  0  0  0
  -22.7550  -10.2260   20.2530 C   0  0  0  0  0  3  0  0  0  0  0  0
  -21.6560   -6.9490   21.4690 O   0  0  0  0  0  0  0  0  0  0  0  0
  -21.5780   -6.2150   22.6260 C   0  0  0  0  0  0  0  0  0  0  0  0
  -21.1150   -6.7770   23.8350 C   0  0  0  0  0  3  0  0  0  0  0  0
  -20.9870   -5.9700   24.9840 C   0  0  0  0  0  3  0  0  0  0  0  0
  -21.3120   -4.6020   24.9210 C   0  0  0  0  0  0  0  0  0  0  0  0
  -21.7660   -4.0390   23.7160 C   0  0  0  0  0  3  0  0  0  0  0  0
  -21.8960   -4.8440   22.5700 C   0  0  0  0  0  0  0  0  0  0  0  0
  -22.3170   -4.2910   21.4070 F   0  0  0  0  0  0  0  0  0  0  0  0
  -21.1800   -3.8230   26.0210 F   0  0  0  0  0  0  0  0  0  0  0  0
  -22.7410  -13.5840   21.0640 C   0  0  0  0  0  0  0  0  0  0  0  0
  -21.9810  -12.9030   21.9140 N   0  0  0  0  0  0  0  0  0  0  0  0
  -22.3220  -14.5980   20.5070 O   0  0  0  0  0  0  0  0  0  0  0  0
  -22.3300  -12.0840   22.3880 H   0  0  0  0  0  0  0  0  0  0  0  0
  -21.0340  -13.2060   22.0920 H   0  0  0  0  0  0  0  0  0  0  0  0
  -25.3920  -15.2440   20.3130 N   0  0  0  0  0  0  0  0  0  0  0  0
  -24.6120  -15.8900   20.3720 H   0  0  0  0  0  0  0  0  0  0  0  0
  -26.2430  -15.6800   19.9810 H   0  0  0  0  0  0  0  0  0  0  0  0
  -31.5870  -20.5240   17.9200 C   0  0  1  0  0  0  0  0  0  0  0  0
  -32.6920  -20.0980   17.3060 F   0  0  0  0  0  0  0  0  0  0  0  0
  -30.7410  -20.9580   16.9870 F   0  0  0  0  0  0  0  0  0  0  0  0
  -31.9490  -21.5410   18.7050 F   0  0  0  0  0  0  0  0  0  0  0  0
  -29.0800  -21.3190   20.8930 C   0  0  0  0  0  2  0  0  0  0  0  0
  -28.7840  -22.5840   19.9870 C   0  0  0  0  0  3  0  0  0  0  0  0
  -29.3480  -22.4120   18.7930 F   0  0  0  0  0  0  0  0  0  0  0  0
  -29.0370  -24.0510   20.4900 C   0  0  0  0  0  0  0  0  0  0  0  0
  -29.8650  -24.3090   21.3710 O   0  0  0  0  0  0  0  0  0  0  0  0
  -28.1700  -25.1660   19.8170 C   0  0  0  0  0  2  0  0  0  0  0  0
  -28.3580  -26.5610   20.2560 O   0  0  0  0  0  0  0  0  0  0  0  0
  -24.6090  -31.9080   23.2740 C   0  0  0  0  0  0  0  0  0  0  0  0
  -27.2370  -27.4000   20.1840 C   0  0  0  0  0  0  0  0  0  0  0  0
  -23.4090  -30.5150   21.6300 C   0  0  0  0  0  3  0  0  0  0  0  0
  -24.8620  -28.9900   20.1900 C   0  0  0  0  0  0  0  0  0  0  0  0
  -25.9450  -30.8500   21.4440 C   0  0  0  0  0  2  0  0  0  0  0  0
  -26.0290  -29.4780   20.7920 C   0  0  0  0  0  0  0  0  0  0  0  0
  -27.2160  -28.6910   20.7890 C   0  0  0  0  0  3  0  0  0  0  0  0
  -26.0500  -26.9780   19.5320 C   0  0  0  0  0  3  0  0  0  0  0  0
  -24.8740  -27.7430   19.5530 C   0  0  0  0  0  3  0  0  0  0  0  0
  -23.6220  -29.8530   20.2440 C   0  0  0  0  0  2  0  0  0  0  0  0
  -24.6730  -31.1070   22.1720 N   0  0  0  0  0  0  0  0  0  0  0  0
  -23.5260  -32.1780   23.8120 O   0  0  0  0  0  0  0  0  0  0  0  0
  -22.7560  -29.4860   22.5830 C   0  0  0  0  0  0  0  0  0  0  0  0
  -21.4330  -29.2940   22.4510 N   0  0  0  0  0  0  0  0  0  0  0  0
  -23.4390  -28.8640   23.4020 O   0  0  0  0  0  0  0  0  0  0  0  0
  -20.9420  -29.8490   21.7650 H   0  0  0  0  0  0  0  0  0  0  0  0
  -18.0670  -28.0590   22.9300 C   0  0  0  0  0  0  0  0  0  0  0  0
  -20.6200  -28.3490   23.2190 C   0  0  0  0  0  3  0  0  0  0  0  0
  -20.7420  -26.9160   22.6490 C   0  0  0  0  0  2  0  0  0  0  0  0
  -19.6510  -26.5780   21.6280 C   0  0  0  0  0  2  0  0  0  0  0  0
  -18.2630  -26.7090   22.2600 C   0  0  0  0  0  2  0  0  0  0  0  0
  -19.1730  -28.8350   23.3670 C   0  0  0  0  0  0  0  0  0  0  0  0
  -18.9360  -30.0970   23.9530 C   0  0  0  0  0  3  0  0  0  0  0  0
  -17.6250  -30.5840   24.1080 C   0  0  0  0  0  3  0  0  0  0  0  0
  -16.5320  -29.8060   23.6860 C   0  0  0  0  0  3  0  0  0  0  0  0
  -16.7540  -28.5460   23.1030 C   0  0  0  0  0  3  0  0  0  0  0  0
  -25.8920  -32.5410   23.8960 C   0  0  0  0  0  3  0  0  0  0  0  0
  -25.5820  -33.9410   24.2140 N   0  0  0  0  0  0  0  0  0  0  0  0
  -25.9140  -34.9880   23.4470 C   0  0  0  0  0  0  0  0  0  0  0  0
  -26.5840  -34.8760   22.4160 O   0  0  0  0  0  0  0  0  0  0  0  0
  -24.9850  -34.1020   25.0120 H   0  0  0  0  0  0  0  0  0  0  0  0
  -24.1820  -36.7760   23.0840 C   0  0  0  0  0  1  0  0  0  0  0  0
  -25.4270  -36.3800   23.8940 C   0  0  0  0  0  3  0  0  0  0  0  0
  -27.5620  -37.2750   24.7110 C   0  0  0  0  0  1  0  0  0  0  0  0
  -26.4570  -37.4330   23.7690 N   0  0  0  0  0  0  0  0  0  0  0  0
  -26.0510  -38.3540   23.9070 H   0  0  0  0  0  0  0  0  0  0  0  0
  -26.4010  -31.7760   25.1790 C   0  0  1  0  0  0  0  0  0  0  0  0
  -25.3020  -31.5520   26.2430 C   0  0  0  0  0  1  0  0  0  0  0  0
  -26.9820  -30.3930   24.8020 C   0  0  0  0  0  1  0  0  0  0  0  0
  -27.5480  -32.5740   25.8410 C   0  0  0  0  0  1  0  0  0  0  0  0
  1  3  2  0
  1  2  1  0
  2  4  2  0
  3  5  1  0
  4  6  1  0
  4  7  1  0
  5  6  2  0
  5 18  1  0
  7 52  1  0
  8  3  1  0
  9  7  1  0
 10 18  1  0
 11 16  1  0
 12 13  1  0
 12 11  1  0
 14 13  1  0
 14 23  1  0
 14 15  1  0
 16 10  1  0
 16 15  1  0
 17 10  2  0
 18 19  1  0
 20 21  2  0
 21 22  1  0
 21 40  1  0
 22 25  1  0
 23 20  1  0
 23 24  1  0
 24 22  2  0
 25 26  1  0
 26 27  2  0
 28 31  1  0
 28 27  1  0
 29 28  2  0
 30 29  1  0
 30 25  2  0
 31 32  1  0
 32 33  1  0
 33 34  2  0
 35 34  1  0
 35 39  1  0
 36 35  2  0
 37 32  2  0
 37 36  1  0
 38 37  1  0
 40 41  1  0
 41 44  1  0
 41 43  1  0
 42 40  2  0
 45 46  1  0
 45 20  1  0
 47 45  1  0
 48  2  1  0
 48 51  1  1
 49 48  1  0
 50 48  1  0
 53 54  1  0
 53 55  1  0
 53 52  1  0
 55 56  2  0
 57 58  1  0
 57 55  1  0
 59 70  2  0
 60 58  1  0
 60 65  1  0
 61 69  1  0
 61 71  1  0
 62 68  1  0
 62 64  1  0
 63 69  1  0
 64 63  1  0
 65 64  2  0
 66 67  1  0
 66 60  2  0
 67 62  2  0
 68 61  1  0
 69 59  1  0
 71 73  2  0
 72 71  1  0
 74 72  1  0
 75 84  2  0
 75 80  1  0
 76 72  1  0
 76 80  1  0
 77 76  1  0
 78 79  1  0
 78 77  1  0
 79 75  1  0
 80 81  2  0
 81 82  1  0
 83 82  2  0
 84 83  1  0
 85 59  1  0
 85 86  1  0
 85 95  1  0
 86 89  1  0
 87 91  1  0
 87 86  1  0
 88 87  2  0
 91 90  1  0
 93 91  1  0
 93 94  1  0
 93 92  1  0
 95 98  1  1
 95 96  1  0
 97 95  1  0
M  ISO  4  10 100  18 100  57 101  58 101
M  END
>  <TORSDO>  (3) 
F 21

>  <SCORE>  (3) 
-13.425

>  <name>  (3) 
2

>  <ligand_id>  (3) 
2

>  <original_smiles>  (3) 
[H]c1c([H])c([H])c2c(c1[H])C([H])([H])C([H])([H])C([H])([H])C2([H])N([H])C(=O)C1([H])N(C(=O)C([H])(N([H])C(=O)C([H])(N([H])C([H])([H])[H])C([H])([H])[H])C(C([H])([H])[H])(C([H])([H])[H])C([H])([H])[H])C([H])([H])c2c([H])c(OC([H])([H])C(=O)C([H])(F)C([H])([H])N([H])c3nc(N([H])C(=O)N4C([H])([H])C([H])([H])C([H])([H])C([H])(n5nc(-c6c([H])c([H])c(Oc7c([H])c([H])c(F)c([H])c7F)c([H])c6[H])c(C(=O)N([H])[H])c5N([H])[H])C4([H])[H])c(F)c([H])c3C(F)(F)F)c([H])c([H])c2C1([H])[H]

>  <smiles>  (3) 
[H]c1c([H])c([H])c2c(c1[H])C([H])([H])C([H])([H])C([H])([H])C2([H])N([H])C(=O)C1([H])N(C(=O)C([H])(N([H])C(=O)C([H])(N([H])C([H])([H])[H])C([H])([H])[H])C(C([H])([H])[H])(C([H])([H])[H])C([H])([H])[H])C([H])([H])c2c([H])c(OC([H])([H])C(=O)C([H])(F)C([H])([H])N([H])c3nc(N([H])C(=O)N4C([H])([H])C([H])([H])C([H])([H])C([H])(n5nc(-c6c([H])c([H])c(Oc7c([H])c([H])c(F)c([H])c7F)c([H])c6[H])c(C(=O)N([H])[H])c5N([H])[H])C4([H])[H])c(F)c([H])c3C(F)(F)F)c([H])c([H])c2C1([H])[H]

$$$$
3:0:0
     RDKit          3D

 95103  0  0  1  0  0  0  0  0999 V2000
  -29.1810  -22.9470   19.6780 C   0  0  0  0  0  0  0  0  0  0  0  0
  -29.5850  -21.9340   20.4990 N   0  0  0  0  0  0  0  0  0  0  0  0
  -29.1010  -22.7770   18.4610 O   0  0  0  0  0  0  0  0  0  0  0  0
  -29.5420  -22.1640   21.4810 H   0  0  0  0  0  0  0  0  0  0  0  0
  -28.4870  -25.3590   19.6500 C   0  0  0  0  0  3  0  0  0  0  0  0
  -28.9590  -24.2670   20.3380 C   0  0  0  0  0  0  0  0  0  0  0  0
  -29.2690  -24.4000   21.6350 O   0  0  0  0  0  0  0  0  0  0  0  0
  -29.0870  -25.3000   21.8720 H   0  0  0  0  0  0  0  0  0  0  0  0
  -28.3870  -26.6580   20.1690 O   0  0  0  0  0  0  0  0  0  0  0  0
  -24.5320  -31.9070   23.1600 C   0  0  0  0  0  0  0  0  0  0  0  0
  -27.2250  -27.4330   20.0790 C   0  0  0  0  0  0  0  0  0  0  0  0
  -23.3440  -30.4960   21.5170 C   0  0  0  0  0  3  0  0  0  0  0  0
  -24.8170  -28.9730   20.0820 C   0  0  0  0  0  0  0  0  0  0  0  0
  -25.8740  -30.8620   21.3270 C   0  0  0  0  0  2  0  0  0  0  0  0
  -25.9740  -29.4900   20.6760 C   0  0  0  0  0  0  0  0  0  0  0  0
  -27.1760  -28.7320   20.6660 C   0  0  0  0  0  3  0  0  0  0  0  0
  -26.0440  -26.9480   19.4730 C   0  0  0  0  0  3  0  0  0  0  0  0
  -24.8530  -27.7050   19.4760 C   0  0  0  0  0  3  0  0  0  0  0  0
  -23.5640  -29.8220   20.1370 C   0  0  0  0  0  2  0  0  0  0  0  0
  -24.6010  -31.1050   22.0590 N   0  0  0  0  0  0  0  0  0  0  0  0
  -23.4460  -32.1670   23.6980 O   0  0  0  0  0  0  0  0  0  0  0  0
  -22.6970  -29.4680   22.4740 C   0  0  0  0  0  0  0  0  0  0  0  0
  -21.3700  -29.2910   22.3630 N   0  0  0  0  0  0  0  0  0  0  0  0
  -23.3880  -28.8340   23.2750 O   0  0  0  0  0  0  0  0  0  0  0  0
  -20.8720  -29.8540   21.6880 H   0  0  0  0  0  0  0  0  0  0  0  0
  -18.0000  -28.1020   22.9070 C   0  0  0  0  0  0  0  0  0  0  0  0
  -20.5630  -28.3470   23.1350 C   0  0  0  0  0  3  0  0  0  0  0  0
  -20.6480  -26.9210   22.5400 C   0  0  0  0  0  2  0  0  0  0  0  0
  -19.5280  -26.6200   21.5400 C   0  0  0  0  0  2  0  0  0  0  0  0
  -18.1590  -26.7610   22.2110 C   0  0  0  0  0  2  0  0  0  0  0  0
  -19.1290  -28.8540   23.3270 C   0  0  0  0  0  0  0  0  0  0  0  0
  -18.9260  -30.1090   23.9390 C   0  0  0  0  0  3  0  0  0  0  0  0
  -17.6270  -30.6140   24.1370 C   0  0  0  0  0  3  0  0  0  0  0  0
  -16.5130  -29.8590   23.7320 C   0  0  0  0  0  3  0  0  0  0  0  0
  -16.7000  -28.6060   23.1230 C   0  0  0  0  0  3  0  0  0  0  0  0
  -25.8070  -32.5550   23.7820 C   0  0  0  0  0  3  0  0  0  0  0  0
  -26.3460  -31.7800   25.0470 C   0  0  1  0  0  0  0  0  0  0  0  0
  -25.2640  -31.5190   26.1200 C   0  0  0  0  0  1  0  0  0  0  0  0
  -26.9440  -30.4120   24.6390 C   0  0  0  0  0  1  0  0  0  0  0  0
  -27.4890  -32.5840   25.7080 C   0  0  0  0  0  1  0  0  0  0  0  0
  -25.4750  -33.9440   24.1280 N   0  0  0  0  0  0  0  0  0  0  0  0
  -25.8100  -35.0140   23.3920 C   0  0  0  0  0  0  0  0  0  0  0  0
  -26.4960  -34.9340   22.3700 O   0  0  0  0  0  0  0  0  0  0  0  0
  -24.8630  -34.0800   24.9190 H   0  0  0  0  0  0  0  0  0  0  0  0
  -24.0840  -36.8060   23.0190 C   0  0  0  0  0  1  0  0  0  0  0  0
  -25.2990  -36.3900   23.8630 C   0  0  0  0  0  3  0  0  0  0  0  0
  -27.4010  -37.2640   24.7840 C   0  0  0  0  0  1  0  0  0  0  0  0
  -26.3300  -37.4490   23.8100 N   0  0  0  0  0  0  0  0  0  0  0  0
  -25.9140  -38.3640   23.9690 H   0  0  0  0  0  0  0  0  0  0  0  0
  -31.8200  -21.0080   20.9360 C   0  0  0  0  0  1  0  0  0  0  0  0
  -30.5170  -20.8160   20.1430 C   0  0  0  0  0  3  0  0  0  0  0  0
  -30.1920  -18.3240   21.2650 C   0  0  0  0  0  3  0  0  0  0  0  0
  -30.0680  -19.3240   20.2220 C   0  0  0  0  0  0  0  0  0  0  0  0
  -29.9290  -17.1110   20.6510 C   0  0  0  0  0  0  0  0  0  0  0  0
  -29.1930  -16.5300   18.2480 C   0  0  0  0  0  1  0  0  0  0  0  0
  -29.6950  -18.7290   19.0890 N   0  0  0  0  0  0  0  0  0  0  0  0
  -29.6000  -17.3980   19.3360 N   0  0  0  0  0  0  0  0  0  0  0  0
  -30.6760  -14.7780   20.9570 C   0  0  0  0  0  0  0  0  0  0  0  0
  -30.5990  -12.4790   20.0310 C   0  0  0  0  0  2  0  0  0  0  0  0
  -29.7680  -12.4910   18.7300 C   0  0  0  0  0  2  0  0  0  0  0  0
  -28.2650  -12.3270   19.0330 C   0  0  0  0  0  2  0  0  0  0  0  0
  -27.7720  -13.2520   20.1790 C   0  0  0  0  0  3  0  0  0  0  0  0
  -28.7300  -13.2100   21.3910 C   0  0  0  0  0  2  0  0  0  0  0  0
  -30.0790  -13.5430   20.9110 N   0  0  0  0  0  0  0  0  0  0  0  0
  -31.8600  -14.9260   20.6510 O   0  0  0  0  0  0  0  0  0  0  0  0
  -29.8710  -15.8480   21.2200 N   0  0  0  0  0  0  0  0  0  0  0  0
  -28.9640  -15.5960   21.5760 H   0  0  0  0  0  0  0  0  0  0  0  0
  -25.3190  -13.8260   20.6850 C   0  0  0  0  0  0  0  0  0  0  0  0
  -24.2390  -13.0410   20.9790 C   0  0  0  0  0  0  0  0  0  0  0  0
  -24.7250  -11.6980   21.0160 C   0  0  0  0  0  0  0  0  0  0  0  0
  -26.3940  -12.9600   20.5600 N   0  0  0  0  0  0  0  0  0  0  0  0
  -26.0360  -11.6780   20.8200 N   0  0  0  0  0  0  0  0  0  0  0  0
  -24.0090  -10.4260   21.1660 C   0  0  0  0  0  0  0  0  0  0  0  0
  -24.3920   -9.4720   22.1340 C   0  0  0  0  0  3  0  0  0  0  0  0
  -23.6720   -8.2680   22.2750 C   0  0  0  0  0  3  0  0  0  0  0  0
  -22.5570   -8.0050   21.4460 C   0  0  0  0  0  0  0  0  0  0  0  0
  -22.1930   -8.9470   20.4670 C   0  0  0  0  0  3  0  0  0  0  0  0
  -22.9150  -10.1450   20.3250 C   0  0  0  0  0  3  0  0  0  0  0  0
  -21.8180   -6.8480   21.4930 O   0  0  0  0  0  0  0  0  0  0  0  0
  -21.7170   -6.1030   22.6410 C   0  0  0  0  0  0  0  0  0  0  0  0
  -21.2010   -6.6480   23.8370 C   0  0  0  0  0  3  0  0  0  0  0  0
  -21.0440   -5.8300   24.9740 C   0  0  0  0  0  3  0  0  0  0  0  0
  -21.3950   -4.4680   24.9170 C   0  0  0  0  0  0  0  0  0  0  0  0
  -21.9060   -3.9230   23.7250 C   0  0  0  0  0  3  0  0  0  0  0  0
  -22.0620   -4.7380   22.5900 C   0  0  0  0  0  0  0  0  0  0  0  0
  -22.5300   -4.2000   21.4390 F   0  0  0  0  0  0  0  0  0  0  0  0
  -21.2420   -3.6810   26.0070 F   0  0  0  0  0  0  0  0  0  0  0  0
  -22.8160  -13.4990   21.1150 C   0  0  0  0  0  0  0  0  0  0  0  0
  -22.0250  -12.8090   21.9310 N   0  0  0  0  0  0  0  0  0  0  0  0
  -22.4100  -14.5050   20.5350 O   0  0  0  0  0  0  0  0  0  0  0  0
  -22.3640  -11.9960   22.4240 H   0  0  0  0  0  0  0  0  0  0  0  0
  -21.0660  -13.1000   22.0630 H   0  0  0  0  0  0  0  0  0  0  0  0
  -25.4760  -15.1940   20.4890 N   0  0  0  0  0  0  0  0  0  0  0  0
  -24.6870  -15.8290   20.4910 H   0  0  0  0  0  0  0  0  0  0  0  0
  -26.3360  -15.6370   20.1910 H   0  0  0  0  0  0  0  0  0  0  0  0
  1  6  1  0
  1  2  1  0
  2  4  1  0
  3  1  2  0
  5  9  1  0
  5  6  2  0
  6  7  1  0
  7  8  1  0
 10 21  2  0
 11  9  1  0
 11 16  1  0
 12 20  1  0
 12 22  1  0
 13 19  1  0
 13 15  1  0
 14 20  1  0
 15 14  1  0
 16 15  2  0
 17 18  1  0
 17 11  2  0
 18 13  2  0
 19 12  1  0
 20 10  1  0
 22 24  2  0
 23 22  1  0
 25 23  1  0
 26 35  2  0
 26 31  1  0
 27 23  1  0
 27 31  1  0
 28 27  1  0
 29 30  1  0
 29 28  1  0
 30 26  1  0
 31 32  2  0
 32 33  1  0
 34 33  2  0
 35 34  1  0
 36 10  1  0
 36 41  1  0
 36 37  1  0
 37 40  1  1
 37 38  1  0
 39 37  1  0
 41 44  1  0
 42 46  1  0
 42 41  1  0
 43 42  2  0
 46 45  1  0
 48 46  1  0
 48 49  1  0
 48 47  1  0
 51 53  1  0
 51  2  1  0
 51 50  1  0
 53 52  1  0
 54 66  1  0
 54 52  2  0
 55 57  1  0
 56 57  1  0
 56 53  2  0
 57 54  1  0
 58 66  1  0
 59 64  1  0
 60 61  1  0
 60 59  1  0
 62 61  1  0
 62 71  1  0
 62 63  1  0
 64 58  1  0
 64 63  1  0
 65 58  2  0
 66 67  1  0
 68 69  2  0
 69 70  1  0
 69 88  1  0
 70 73  1  0
 71 68  1  0
 71 72  1  0
 72 70  2  0
 73 74  1  0
 74 75  2  0
 76 79  1  0
 76 75  1  0
 77 76  2  0
 78 77  1  0
 78 73  2  0
 79 80  1  0
 80 81  1  0
 81 82  2  0
 83 82  1  0
 83 87  1  0
 84 83  2  0
 85 80  2  0
 85 84  1  0
 86 85  1  0
 88 89  1  0
 89 92  1  0
 89 91  1  0
 90 88  2  0
 93 94  1  0
 93 68  1  0
 95 93  1  0
M  ISO  4   5 101   9 101  58 100  66 100
M  END
>  <TORSDO>  (4) 
F 20

>  <SCORE>  (4) 
-13.385

>  <name>  (4) 
3

>  <ligand_id>  (4) 
3

>  <original_smiles>  (4) 
[H]OC(C(=O)N([H])C([H])(c1nn(C([H])([H])[H])c(N([H])C(=O)N2C([H])([H])C([H])([H])C([H])([H])C([H])(n3nc(-c4c([H])c([H])c(Oc5c([H])c([H])c(F)c([H])c5F)c([H])c4[H])c(C(=O)N([H])[H])c3N([H])[H])C2([H])[H])c1[H])C([H])([H])[H])=C([H])Oc1c([H])c([H])c2c(c1[H])C([H])([H])N(C(=O)C([H])(N([H])C(=O)C([H])(N([H])C([H])([H])[H])C([H])([H])[H])C(C([H])([H])[H])(C([H])([H])[H])C([H])([H])[H])C([H])(C(=O)N([H])C1([H])c3c([H])c([H])c([H])c([H])c3C([H])([H])C([H])([H])C1([H])[H])C2([H])[H]

>  <smiles>  (4) 
[H]OC(C(=O)N([H])C([H])(c1nn(C([H])([H])[H])c(N([H])C(=O)N2C([H])([H])C([H])([H])C([H])([H])C([H])(n3nc(-c4c([H])c([H])c(Oc5c([H])c([H])c(F)c([H])c5F)c([H])c4[H])c(C(=O)N([H])[H])c3N([H])[H])C2([H])[H])c1[H])C([H])([H])[H])=C([H])Oc1c([H])c([H])c2c(c1[H])C([H])([H])N(C(=O)C([H])(N([H])C(=O)C([H])(N([H])C([H])([H])[H])C([H])([H])[H])C(C([H])([H])[H])(C([H])([H])[H])C([H])([H])[H])C([H])(C(=O)N([H])C1([H])c3c([H])c([H])c([H])c([H])c3C([H])([H])C([H])([H])C1([H])[H])C2([H])[H]

$$$$
5:0:0
     RDKit          3D

 96104  0  0  1  0  0  0  0  0999 V2000
  -28.5400  -21.4940   20.5920 C   0  0  0  0  0  0  0  0  0  0  0  0
  -29.0710  -20.3270   21.0130 N   0  0  0  0  0  0  0  0  0  0  0  0
  -28.2600  -21.7190   19.4120 O   0  0  0  0  0  0  0  0  0  0  0  0
  -29.0860  -20.1680   22.0110 H   0  0  0  0  0  0  0  0  0  0  0  0
  -30.2010  -19.5100   18.9550 C   0  0  0  0  0  3  0  0  0  0  0  0
  -30.6570  -17.1350   18.6860 C   0  0  0  0  0  3  0  0  0  0  0  0
  -29.5940  -19.2640   20.2110 C   0  0  0  0  0  0  0  0  0  0  0  0
  -30.1010  -16.8610   19.9620 C   0  0  0  0  0  0  0  0  0  0  0  0
  -30.7190  -18.4490   18.1960 C   0  0  0  0  0  0  0  0  0  0  0  0
  -29.5600  -17.9370   20.7110 C   0  0  0  0  0  0  0  0  0  0  0  0
  -31.2810  -18.6940   16.9880 F   0  0  0  0  0  0  0  0  0  0  0  0
  -29.0020  -17.6940   21.9220 F   0  0  0  0  0  0  0  0  0  0  0  0
  -30.7470  -14.4700   20.0600 C   0  0  0  0  0  0  0  0  0  0  0  0
  -30.3670  -12.3450   18.9040 C   0  0  0  0  0  2  0  0  0  0  0  0
  -29.3630  -12.6180   17.7630 C   0  0  0  0  0  2  0  0  0  0  0  0
  -27.9130  -12.4880   18.2710 C   0  0  0  0  0  2  0  0  0  0  0  0
  -27.6600  -13.2770   19.5840 C   0  0  0  0  0  3  0  0  0  0  0  0
  -28.7760  -13.0040   20.6200 C   0  0  0  0  0  2  0  0  0  0  0  0
  -30.0700  -13.2950   19.9850 N   0  0  0  0  0  0  0  0  0  0  0  0
  -31.8830  -14.6190   19.6040 O   0  0  0  0  0  0  0  0  0  0  0  0
  -30.0230  -15.5260   20.4800 N   0  0  0  0  0  0  0  0  0  0  0  0
  -29.2110  -15.3220   21.0450 H   0  0  0  0  0  0  0  0  0  0  0  0
  -25.3090  -13.8750   20.4400 C   0  0  0  0  0  0  0  0  0  0  0  0
  -24.2610  -13.0980   20.8530 C   0  0  0  0  0  0  0  0  0  0  0  0
  -24.7150  -11.7460   20.7690 C   0  0  0  0  0  0  0  0  0  0  0  0
  -26.3360  -12.9960   20.1320 N   0  0  0  0  0  0  0  0  0  0  0  0
  -25.9850  -11.7100   20.3880 N   0  0  0  0  0  0  0  0  0  0  0  0
  -23.9970  -10.4810   20.9750 C   0  0  0  0  0  0  0  0  0  0  0  0
  -24.4550   -9.5140   21.8960 C   0  0  0  0  0  3  0  0  0  0  0  0
  -23.7370   -8.3140   22.0890 C   0  0  0  0  0  3  0  0  0  0  0  0
  -22.5480   -8.0730   21.3620 C   0  0  0  0  0  0  0  0  0  0  0  0
  -22.1090   -9.0300   20.4290 C   0  0  0  0  0  3  0  0  0  0  0  0
  -22.8270  -10.2210   20.2340 C   0  0  0  0  0  3  0  0  0  0  0  0
  -21.7990   -6.9250   21.4640 O   0  0  0  0  0  0  0  0  0  0  0  0
  -21.7470   -6.2020   22.6290 C   0  0  0  0  0  0  0  0  0  0  0  0
  -21.3100   -6.7760   23.8440 C   0  0  0  0  0  3  0  0  0  0  0  0
  -21.2060   -5.9790   25.0010 C   0  0  0  0  0  3  0  0  0  0  0  0
  -21.5280   -4.6090   24.9440 C   0  0  0  0  0  0  0  0  0  0  0  0
  -21.9580   -4.0350   23.7350 C   0  0  0  0  0  3  0  0  0  0  0  0
  -22.0650   -4.8300   22.5800 C   0  0  0  0  0  0  0  0  0  0  0  0
  -22.4580   -4.2680   21.4120 F   0  0  0  0  0  0  0  0  0  0  0  0
  -21.4210   -3.8410   26.0530 F   0  0  0  0  0  0  0  0  0  0  0  0
  -22.8830  -13.5730   21.2150 C   0  0  0  0  0  0  0  0  0  0  0  0
  -22.2030  -12.8610   22.1070 N   0  0  0  0  0  0  0  0  0  0  0  0
  -22.4190  -14.6090   20.7390 O   0  0  0  0  0  0  0  0  0  0  0  0
  -22.5890  -12.0220   22.5130 H   0  0  0  0  0  0  0  0  0  0  0  0
  -21.2810  -13.1630   22.3910 H   0  0  0  0  0  0  0  0  0  0  0  0
  -25.4670  -15.2490   20.2790 N   0  0  0  0  0  0  0  0  0  0  0  0
  -24.7050  -15.8990   20.4420 H   0  0  0  0  0  0  0  0  0  0  0  0
  -26.2930  -15.6950   19.9010 H   0  0  0  0  0  0  0  0  0  0  0  0
  -28.2360  -22.5590   21.6550 C   0  0  0  0  0  2  0  0  0  0  0  0
  -28.2220  -24.0120   21.0870 C   0  0  0  0  0  2  0  0  0  0  0  0
  -28.8900  -25.0790   21.9700 C   0  0  0  0  0  0  0  0  0  0  0  0
  -29.2240  -24.8280   23.1320 O   0  0  0  0  0  0  0  0  0  0  0  0
  -29.1310  -26.4850   21.3860 C   0  0  0  0  0  2  0  0  0  0  0  0
  -28.4580  -26.6620   20.1370 O   0  0  0  0  0  0  0  0  0  0  0  0
  -24.5950  -31.8530   23.1680 C   0  0  0  0  0  0  0  0  0  0  0  0
  -27.3130  -27.4240   20.1640 C   0  0  0  0  0  0  0  0  0  0  0  0
  -23.4210  -30.4410   21.5070 C   0  0  0  0  0  3  0  0  0  0  0  0
  -24.9080  -28.9040   20.1160 C   0  0  0  0  0  0  0  0  0  0  0  0
  -25.9460  -30.8140   21.3540 C   0  0  0  0  0  2  0  0  0  0  0  0
  -26.0490  -29.4390   20.7280 C   0  0  0  0  0  0  0  0  0  0  0  0
  -27.2550  -28.7080   20.7550 C   0  0  0  0  0  3  0  0  0  0  0  0
  -26.1650  -26.9040   19.5360 C   0  0  0  0  0  3  0  0  0  0  0  0
  -24.9600  -27.6310   19.5190 C   0  0  0  0  0  3  0  0  0  0  0  0
  -23.6590  -29.7550   20.1350 C   0  0  0  0  0  2  0  0  0  0  0  0
  -24.6710  -31.0510   22.0690 N   0  0  0  0  0  0  0  0  0  0  0  0
  -23.5040  -32.1240   23.6880 O   0  0  0  0  0  0  0  0  0  0  0  0
  -22.7580  -29.4210   22.4590 C   0  0  0  0  0  0  0  0  0  0  0  0
  -21.4330  -29.2530   22.3240 N   0  0  0  0  0  0  0  0  0  0  0  0
  -23.4320  -28.7850   23.2740 O   0  0  0  0  0  0  0  0  0  0  0  0
  -20.9520  -29.8210   21.6400 H   0  0  0  0  0  0  0  0  0  0  0  0
  -18.0390  -28.1180   22.8140 C   0  0  0  0  0  0  0  0  0  0  0  0
  -20.6020  -28.3200   23.0830 C   0  0  0  0  0  3  0  0  0  0  0  0
  -20.6730  -26.8960   22.4850 C   0  0  0  0  0  2  0  0  0  0  0  0
  -19.5620  -26.6100   21.4700 C   0  0  0  0  0  2  0  0  0  0  0  0
  -18.1860  -26.7760   22.1190 C   0  0  0  0  0  2  0  0  0  0  0  0
  -19.1740  -28.8510   23.2520 C   0  0  0  0  0  0  0  0  0  0  0  0
  -18.9820  -30.1120   23.8590 C   0  0  0  0  0  3  0  0  0  0  0  0
  -17.6890  -30.6370   24.0350 C   0  0  0  0  0  3  0  0  0  0  0  0
  -16.5680  -29.9000   23.6160 C   0  0  0  0  0  3  0  0  0  0  0  0
  -16.7440  -28.6430   23.0110 C   0  0  0  0  0  3  0  0  0  0  0  0
  -25.8700  -32.4880   23.8070 C   0  0  0  0  0  3  0  0  0  0  0  0
  -25.5480  -33.8800   24.1490 N   0  0  0  0  0  0  0  0  0  0  0  0
  -25.8800  -34.9430   23.4040 C   0  0  0  0  0  0  0  0  0  0  0  0
  -26.5630  -34.8550   22.3780 O   0  0  0  0  0  0  0  0  0  0  0  0
  -24.9420  -34.0220   24.9440 H   0  0  0  0  0  0  0  0  0  0  0  0
  -24.1430  -36.7240   23.0400 C   0  0  0  0  0  1  0  0  0  0  0  0
  -25.3750  -36.3210   23.8680 C   0  0  0  0  0  3  0  0  0  0  0  0
  -27.4890  -37.2120   24.7420 C   0  0  0  0  0  1  0  0  0  0  0  0
  -26.4010  -37.3840   23.7830 N   0  0  0  0  0  0  0  0  0  0  0  0
  -25.9850  -38.2990   23.9350 H   0  0  0  0  0  0  0  0  0  0  0  0
  -26.3850  -31.7050   25.0770 C   0  0  1  0  0  0  0  0  0  0  0  0
  -25.2840  -31.4400   26.1310 C   0  0  0  0  0  1  0  0  0  0  0  0
  -26.9850  -30.3390   24.6700 C   0  0  0  0  0  1  0  0  0  0  0  0
  -27.5220  -32.5020   25.7600 C   0  0  0  0  0  1  0  0  0  0  0  0
  1  2  1  0
  1 51  1  0
  2  4  1  0
  3  1  2  0
  5  7  1  0
  6  8  2  0
  7 10  2  0
  7  2  1  0
  8 21  1  0
  8 10  1  0
  9  6  1  0
  9  5  2  0
 10 12  1  0
 11  9  1  0
 13 21  1  0
 14 19  1  0
 15 16  1  0
 15 14  1  0
 17 16  1  0
 17 26  1  0
 17 18  1  0
 19 13  1  0
 19 18  1  0
 20 13  2  0
 21 22  1  0
 23 24  2  0
 24 43  1  0
 25 24  1  0
 25 28  1  0
 26 27  1  0
 26 23  1  0
 27 25  2  0
 28 29  1  0
 29 30  2  0
 31 34  1  0
 31 30  1  0
 32 31  2  0
 33 32  1  0
 33 28  2  0
 34 35  1  0
 35 36  1  0
 36 37  2  0
 38 37  1  0
 38 42  1  0
 39 38  2  0
 40 35  2  0
 40 39  1  0
 41 40  1  0
 43 44  1  0
 44 47  1  0
 44 46  1  0
 45 43  2  0
 48 23  1  0
 48 49  1  0
 50 48  1  0
 52 51  1  0
 52 53  1  0
 53 54  2  0
 55 53  1  0
 56 58  1  0
 56 55  1  0
 57 68  2  0
 58 63  1  0
 59 67  1  0
 59 69  1  0
 60 66  1  0
 60 62  1  0
 61 67  1  0
 62 63  2  0
 62 61  1  0
 64 58  2  0
 65 64  1  0
 65 60  2  0
 66 59  1  0
 67 57  1  0
 69 71  2  0
 70 69  1  0
 72 70  1  0
 73 82  2  0
 73 78  1  0
 74 70  1  0
 74 78  1  0
 75 74  1  0
 76 77  1  0
 76 75  1  0
 77 73  1  0
 78 79  2  0
 79 80  1  0
 81 80  2  0
 82 81  1  0
 83 57  1  0
 83 84  1  0
 83 93  1  0
 84 87  1  0
 85 89  1  0
 85 84  1  0
 86 85  2  0
 89 88  1  0
 91 89  1  0
 91 92  1  0
 91 90  1  0
 93 96  1  1
 93 94  1  0
 95 93  1  0
M  ISO  4  13 100  21 100  55 101  56 101
M  END
>  <TORSDO>  (5) 
F 21

>  <SCORE>  (5) 
-13.604

>  <name>  (5) 
5

>  <ligand_id>  (5) 
5

>  <original_smiles>  (5) 
[H]c1c([H])c([H])c2c(c1[H])C([H])([H])C([H])([H])C([H])([H])C2([H])N([H])C(=O)C1([H])N(C(=O)C([H])(N([H])C(=O)C([H])(N([H])C([H])([H])[H])C([H])([H])[H])C(C([H])([H])[H])(C([H])([H])[H])C([H])([H])[H])C([H])([H])c2c([H])c(OC([H])([H])C(=O)C([H])([H])C([H])([H])C(=O)N([H])c3c([H])c(F)c([H])c(N([H])C(=O)N4C([H])([H])C([H])([H])C([H])([H])C([H])(n5nc(-c6c([H])c([H])c(Oc7c([H])c([H])c(F)c([H])c7F)c([H])c6[H])c(C(=O)N([H])[H])c5N([H])[H])C4([H])[H])c3F)c([H])c([H])c2C1([H])[H]

>  <smiles>  (5) 
[H]c1c([H])c([H])c2c(c1[H])C([H])([H])C([H])([H])C([H])([H])C2([H])N([H])C(=O)C1([H])N(C(=O)C([H])(N([H])C(=O)C([H])(N([H])C([H])([H])[H])C([H])([H])[H])C(C([H])([H])[H])(C([H])([H])[H])C([H])([H])[H])C([H])([H])c2c([H])c(OC([H])([H])C(=O)C([H])([H])C([H])([H])C(=O)N([H])c3c([H])c(F)c([H])c(N([H])C(=O)N4C([H])([H])C([H])([H])C([H])([H])C([H])(n5nc(-c6c([H])c([H])c(Oc7c([H])c([H])c(F)c([H])c7F)c([H])c6[H])c(C(=O)N([H])[H])c5N([H])[H])C4([H])[H])c3F)c([H])c([H])c2C1([H])[H]

$$$$
6:0:0
     RDKit          3D

 99107  0  0  1  0  0  0  0  0999 V2000
  -31.6880  -23.6360   20.3880 C   0  0  0  0  0  3  0  0  0  0  0  0
  -31.5580  -22.2560   20.6200 C   0  0  0  0  0  3  0  0  0  0  0  0
  -30.0910  -22.7260   22.4990 C   0  0  0  0  0  3  0  0  0  0  0  0
  -31.0340  -24.5880   21.2070 C   0  0  0  0  0  0  0  0  0  0  0  0
  -30.2200  -24.1250   22.2920 C   0  0  0  0  0  0  0  0  0  0  0  0
  -30.7590  -21.7880   21.6850 C   0  0  0  0  0  0  0  0  0  0  0  0
  -31.2960  -19.3520   21.5450 C   0  0  0  0  0  0  0  0  0  0  0  0
  -30.5400  -20.4000   21.9210 N   0  0  0  0  0  0  0  0  0  0  0  0
  -32.4060  -19.4330   21.0070 O   0  0  0  0  0  0  0  0  0  0  0  0
  -29.7270  -20.1360   22.4640 H   0  0  0  0  0  0  0  0  0  0  0  0
  -30.6240  -17.9870   21.8910 C   0  0  0  0  0  0  0  0  0  0  0  0
  -29.6190  -17.9060   22.6070 O   0  0  0  0  0  0  0  0  0  0  0  0
  -31.2860  -16.7350   21.3020 C   0  0  0  0  0  2  0  0  0  0  0  0
  -30.4810  -15.4070   21.4390 C   0  0  0  0  0  2  0  0  0  0  0  0
  -30.8910  -14.3600   20.3820 C   0  0  0  0  0  0  0  0  0  0  0  0
  -30.4170  -12.3390   19.0360 C   0  0  0  0  0  2  0  0  0  0  0  0
  -29.4510  -12.6600   17.8810 C   0  0  0  0  0  2  0  0  0  0  0  0
  -27.9900  -12.5420   18.3480 C   0  0  0  0  0  2  0  0  0  0  0  0
  -27.7240  -13.3050   19.6720 C   0  0  0  0  0  3  0  0  0  0  0  0
  -28.8030  -12.9880   20.7350 C   0  0  0  0  0  2  0  0  0  0  0  0
  -30.1240  -13.2600   20.1460 N   0  0  0  0  0  0  0  0  0  0  0  0
  -31.9280  -14.5690   19.7440 O   0  0  0  0  0  0  0  0  0  0  0  0
  -25.3560  -13.9430   20.4610 C   0  0  0  0  0  0  0  0  0  0  0  0
  -24.2740  -13.1860   20.8120 C   0  0  0  0  0  0  0  0  0  0  0  0
  -24.6910  -11.8240   20.7020 C   0  0  0  0  0  0  0  0  0  0  0  0
  -26.3720  -13.0460   20.1660 N   0  0  0  0  0  0  0  0  0  0  0  0
  -25.9740  -11.7620   20.3640 N   0  0  0  0  0  0  0  0  0  0  0  0
  -23.9310  -10.5740   20.8440 C   0  0  0  0  0  0  0  0  0  0  0  0
  -24.3290   -9.5650   21.7490 C   0  0  0  0  0  3  0  0  0  0  0  0
  -23.5700   -8.3820   21.8810 C   0  0  0  0  0  3  0  0  0  0  0  0
  -22.4000   -8.2000   21.1080 C   0  0  0  0  0  0  0  0  0  0  0  0
  -22.0200   -9.1970   20.1910 C   0  0  0  0  0  3  0  0  0  0  0  0
  -22.7790  -10.3720   20.0570 C   0  0  0  0  0  3  0  0  0  0  0  0
  -21.6160   -7.0730   21.1510 O   0  0  0  0  0  0  0  0  0  0  0  0
  -21.4970   -6.3230   22.2920 C   0  0  0  0  0  0  0  0  0  0  0  0
  -21.0290   -6.8790   23.5030 C   0  0  0  0  0  3  0  0  0  0  0  0
  -20.8540   -6.0570   24.6350 C   0  0  0  0  0  3  0  0  0  0  0  0
  -21.1380   -4.6800   24.5550 C   0  0  0  0  0  0  0  0  0  0  0  0
  -21.5990   -4.1230   23.3500 C   0  0  0  0  0  3  0  0  0  0  0  0
  -21.7740   -4.9430   22.2200 C   0  0  0  0  0  0  0  0  0  0  0  0
  -22.1970   -4.3980   21.0540 F   0  0  0  0  0  0  0  0  0  0  0  0
  -20.9640   -3.8880   25.6390 F   0  0  0  0  0  0  0  0  0  0  0  0
  -22.8980  -13.6880   21.1440 C   0  0  0  0  0  0  0  0  0  0  0  0
  -22.1760  -12.9740   22.0010 N   0  0  0  0  0  0  0  0  0  0  0  0
  -22.4750  -14.7450   20.6800 O   0  0  0  0  0  0  0  0  0  0  0  0
  -22.5340  -12.1180   22.3960 H   0  0  0  0  0  0  0  0  0  0  0  0
  -21.2530  -13.2900   22.2650 H   0  0  0  0  0  0  0  0  0  0  0  0
  -25.5600  -15.3170   20.3490 N   0  0  0  0  0  0  0  0  0  0  0  0
  -24.8220  -15.9910   20.5190 H   0  0  0  0  0  0  0  0  0  0  0  0
  -26.4220  -15.7460   20.0350 H   0  0  0  0  0  0  0  0  0  0  0  0
  -29.4320  -25.0530   23.1770 C   0  0  0  0  0  0  0  0  0  0  0  0
  -28.8790  -24.5010   24.4840 C   0  0  0  0  0  1  0  0  0  0  0  0
  -29.1970  -26.2340   22.9090 O   0  0  0  0  0  0  0  0  0  0  0  0
  -31.2560  -26.0190   20.8640 C   0  0  0  0  0  0  0  0  0  0  0  0
  -32.6330  -26.8510   21.3350 S   0  0  0  0  0  0  0  0  0  0  0  0
  -30.1810  -26.7000   19.9810 C   0  0  0  0  0  0  0  0  0  0  0  0
  -30.4570  -27.3020   18.9320 O   0  0  0  0  0  0  0  0  0  0  0  0
  -28.7410  -26.6310   20.5020 C   0  0  0  0  0  2  0  0  0  0  0  0
  -27.8240  -26.7340   19.4150 O   0  0  0  0  0  0  0  0  0  0  0  0
  -24.2270  -31.7080   23.0780 C   0  0  0  0  0  0  0  0  0  0  0  0
  -26.6900  -27.4820   19.6110 C   0  0  0  0  0  0  0  0  0  0  0  0
  -22.9260  -30.4240   21.4060 C   0  0  0  0  0  3  0  0  0  0  0  0
  -24.2970  -28.9600   19.8360 C   0  0  0  0  0  0  0  0  0  0  0  0
  -25.4370  -30.7830   21.1120 C   0  0  0  0  0  2  0  0  0  0  0  0
  -25.4810  -29.4510   20.4000 C   0  0  0  0  0  0  0  0  0  0  0  0
  -26.6810  -28.7220   20.2890 C   0  0  0  0  0  3  0  0  0  0  0  0
  -25.4960  -26.9980   19.0440 C   0  0  0  0  0  3  0  0  0  0  0  0
  -24.2970  -27.7270   19.1590 C   0  0  0  0  0  3  0  0  0  0  0  0
  -23.0670  -29.8230   19.9810 C   0  0  0  0  0  2  0  0  0  0  0  0
  -24.2170  -30.9820   21.9250 N   0  0  0  0  0  0  0  0  0  0  0  0
  -23.1790  -31.9550   23.6880 O   0  0  0  0  0  0  0  0  0  0  0  0
  -22.3110  -29.3520   22.3320 C   0  0  0  0  0  0  0  0  0  0  0  0
  -20.9880  -29.1500   22.2150 N   0  0  0  0  0  0  0  0  0  0  0  0
  -23.0170  -28.7040   23.1100 O   0  0  0  0  0  0  0  0  0  0  0  0
  -20.4750  -29.7320   21.5650 H   0  0  0  0  0  0  0  0  0  0  0  0
  -17.6560  -27.8230   22.6420 C   0  0  0  0  0  0  0  0  0  0  0  0
  -20.1970  -28.1680   22.9560 C   0  0  0  0  0  3  0  0  0  0  0  0
  -20.3600  -26.7530   22.3550 C   0  0  0  0  0  2  0  0  0  0  0  0
  -19.2870  -26.4110   21.3170 C   0  0  0  0  0  2  0  0  0  0  0  0
  -17.8920  -26.4960   21.9420 C   0  0  0  0  0  2  0  0  0  0  0  0
  -18.7390  -28.6160   23.1040 C   0  0  0  0  0  0  0  0  0  0  0  0
  -18.4670  -29.8590   23.7140 C   0  0  0  0  0  3  0  0  0  0  0  0
  -17.1440  -30.3140   23.8650 C   0  0  0  0  0  3  0  0  0  0  0  0
  -16.0750  -29.5180   23.4180 C   0  0  0  0  0  3  0  0  0  0  0  0
  -16.3310  -28.2740   22.8160 C   0  0  0  0  0  3  0  0  0  0  0  0
  -25.5520  -32.2860   23.6720 C   0  0  0  0  0  3  0  0  0  0  0  0
  -25.2970  -33.6820   24.0470 N   0  0  0  0  0  0  0  0  0  0  0  0
  -25.6740  -34.7440   23.3220 C   0  0  0  0  0  0  0  0  0  0  0  0
  -26.3440  -34.6490   22.2900 O   0  0  0  0  0  0  0  0  0  0  0  0
  -24.7060  -33.8320   24.8520 H   0  0  0  0  0  0  0  0  0  0  0  0
  -24.0170  -36.6100   23.0140 C   0  0  0  0  0  1  0  0  0  0  0  0
  -25.2370  -36.1350   23.8210 C   0  0  0  0  0  3  0  0  0  0  0  0
  -27.4030  -36.9070   24.6870 C   0  0  0  0  0  1  0  0  0  0  0  0
  -26.3090  -37.1510   23.7480 N   0  0  0  0  0  0  0  0  0  0  0  0
  -25.9390  -38.0800   23.9270 H   0  0  0  0  0  0  0  0  0  0  0  0
  -26.0910  -31.4630   24.9060 C   0  0  1  0  0  0  0  0  0  0  0  0
  -25.0300  -31.2250   26.0050 C   0  0  0  0  0  1  0  0  0  0  0  0
  -26.6160  -30.0800   24.4510 C   0  0  0  0  0  1  0  0  0  0  0  0
  -27.2830  -32.2060   25.5570 C   0  0  0  0  0  1  0  0  0  0  0  0
  1  2  2  0
  1  4  1  0
  2  6  1  0
  4  5  2  0
  5  3  1  0
  5 51  1  0
  6  8  1  0
  6  3  2  0
  7 11  1  0
  7  8  1  0
  8 10  1  0
  9  7  2  0
 11 12  2  0
 13 14  1  0
 13 11  1  0
 15 14  1  0
 16 21  1  0
 17 18  1  0
 17 16  1  0
 19 18  1  0
 19 26  1  0
 19 20  1  0
 21 15  1  0
 21 20  1  0
 22 15  2  0
 23 24  2  0
 24 43  1  0
 25 24  1  0
 25 28  1  0
 26 27  1  0
 26 23  1  0
 27 25  2  0
 28 29  1  0
 29 30  2  0
 31 34  1  0
 31 30  1  0
 32 31  2  0
 33 32  1  0
 33 28  2  0
 34 35  1  0
 35 36  1  0
 36 37  2  0
 38 37  1  0
 38 42  1  0
 39 38  2  0
 40 35  2  0
 40 39  1  0
 41 40  1  0
 43 44  1  0
 44 47  1  0
 44 46  1  0
 45 43  2  0
 48 23  1  0
 48 49  1  0
 50 48  1  0
 51 52  1  0
 53 51  2  0
 54  4  1  0
 54 55  2  0
 56 58  1  0
 56 54  1  0
 57 56  2  0
 59 61  1  0
 59 58  1  0
 60 71  2  0
 61 66  1  0
 62 70  1  0
 62 72  1  0
 63 69  1  0
 63 65  1  0
 64 70  1  0
 65 64  1  0
 66 65  2  0
 67 68  1  0
 67 61  2  0
 68 63  2  0
 69 62  1  0
 70 60  1  0
 72 74  2  0
 73 72  1  0
 75 73  1  0
 76 85  2  0
 76 81  1  0
 77 73  1  0
 77 81  1  0
 78 77  1  0
 79 80  1  0
 79 78  1  0
 80 76  1  0
 81 82  2  0
 82 83  1  0
 84 83  2  0
 85 84  1  0
 86 60  1  0
 86 87  1  0
 86 96  1  0
 87 90  1  0
 88 92  1  0
 88 87  1  0
 89 88  2  0
 92 91  1  0
 94 92  1  0
 94 95  1  0
 94 93  1  0
 96 99  1  1
 96 97  1  0
 98 96  1  0
M  ISO  4  14 100  15 100  58 101  59 101
M  END
>  <TORSDO>  (6) 
F 24

>  <SCORE>  (6) 
-10.807

>  <name>  (6) 
6

>  <ligand_id>  (6) 
6

>  <original_smiles>  (6) 
[H]c1c([H])c([H])c2c(c1[H])C([H])([H])C([H])([H])C([H])([H])C2([H])N([H])C(=O)C1([H])N(C(=O)C([H])(N([H])C(=O)C([H])(N([H])C([H])([H])[H])C([H])([H])[H])C(C([H])([H])[H])(C([H])([H])[H])C([H])([H])[H])C([H])([H])c2c([H])c(OC([H])([H])C(=O)C(=S)c3c([H])c([H])c(N([H])C(=O)C(=O)C([H])([H])C([H])([H])C(=O)N4C([H])([H])C([H])([H])C([H])([H])C([H])(n5nc(-c6c([H])c([H])c(Oc7c([H])c([H])c(F)c([H])c7F)c([H])c6[H])c(C(=O)N([H])[H])c5N([H])[H])C4([H])[H])c([H])c3C(=O)C([H])([H])[H])c([H])c([H])c2C1([H])[H]

>  <smiles>  (6) 
[H]c1c([H])c([H])c2c(c1[H])C([H])([H])C([H])([H])C([H])([H])C2([H])N([H])C(=O)C1([H])N(C(=O)C([H])(N([H])C(=O)C([H])(N([H])C([H])([H])[H])C([H])([H])[H])C(C([H])([H])[H])(C([H])([H])[H])C([H])([H])[H])C([H])([H])c2c([H])c(OC([H])([H])C(=O)C(=S)c3c([H])c([H])c(N([H])C(=O)C(=O)C([H])([H])C([H])([H])C(=O)N4C([H])([H])C([H])([H])C([H])([H])C([H])(n5nc(-c6c([H])c([H])c(Oc7c([H])c([H])c(F)c([H])c7F)c([H])c6[H])c(C(=O)N([H])[H])c5N([H])[H])C4([H])[H])c([H])c3C(=O)C([H])([H])[H])c([H])c([H])c2C1([H])[H]

$$$$
7:0:0
     RDKit          3D

 95103  0  0  1  0  0  0  0  0999 V2000
  -29.8380  -20.6160   22.2890 C   0  0  0  0  0  1  0  0  0  0  0  0
  -29.8850  -20.6380   20.7500 C   0  0  0  0  0  3  0  0  0  0  0  0
  -29.9080  -17.2890   18.9110 C   0  0  0  0  0  3  0  0  0  0  0  0
  -29.8220  -18.7150   18.8520 C   0  0  0  0  0  0  0  0  0  0  0  0
  -29.7670  -19.2310   20.1260 C   0  0  0  0  0  0  0  0  0  0  0  0
  -29.9080  -16.9860   20.2490 C   0  0  0  0  0  0  0  0  0  0  0  0
  -29.7830  -18.1440   20.9940 O   0  0  0  0  0  0  0  0  0  0  0  0
  -30.6480  -14.6530   20.3820 C   0  0  0  0  0  0  0  0  0  0  0  0
  -30.4100  -12.4180   19.3530 C   0  0  0  0  0  2  0  0  0  0  0  0
  -29.4860  -12.5770   18.1250 C   0  0  0  0  0  2  0  0  0  0  0  0
  -28.0110  -12.4300   18.5420 C   0  0  0  0  0  2  0  0  0  0  0  0
  -27.6460  -13.2980   19.7720 C   0  0  0  0  0  3  0  0  0  0  0  0
  -28.6940  -13.1420   20.9000 C   0  0  0  0  0  2  0  0  0  0  0  0
  -30.0190  -13.4430   20.3410 N   0  0  0  0  0  0  0  0  0  0  0  0
  -31.7960  -14.8030   19.9480 O   0  0  0  0  0  0  0  0  0  0  0  0
  -29.9080  -15.7210   20.7920 N   0  0  0  0  0  0  0  0  0  0  0  0
  -29.1120  -15.5150   21.3790 H   0  0  0  0  0  0  0  0  0  0  0  0
  -25.2470  -13.9010   20.4690 C   0  0  0  0  0  0  0  0  0  0  0  0
  -24.1780  -13.1300   20.8380 C   0  0  0  0  0  0  0  0  0  0  0  0
  -24.6400  -11.7780   20.8200 C   0  0  0  0  0  0  0  0  0  0  0  0
  -26.2930  -13.0200   20.2470 N   0  0  0  0  0  0  0  0  0  0  0  0
  -25.9330  -11.7380   20.5220 N   0  0  0  0  0  0  0  0  0  0  0  0
  -23.9150  -10.5170   21.0140 C   0  0  0  0  0  0  0  0  0  0  0  0
  -24.3450   -9.5550   21.9540 C   0  0  0  0  0  3  0  0  0  0  0  0
  -23.6200   -8.3580   22.1360 C   0  0  0  0  0  3  0  0  0  0  0  0
  -22.4490   -8.1150   21.3780 C   0  0  0  0  0  0  0  0  0  0  0  0
  -22.0350   -9.0670   20.4310 C   0  0  0  0  0  3  0  0  0  0  0  0
  -22.7610  -10.2550   20.2480 C   0  0  0  0  0  3  0  0  0  0  0  0
  -21.6950   -6.9710   21.4700 O   0  0  0  0  0  0  0  0  0  0  0  0
  -21.6470   -6.2280   22.6210 C   0  0  0  0  0  0  0  0  0  0  0  0
  -21.2220   -6.7860   23.8460 C   0  0  0  0  0  3  0  0  0  0  0  0
  -21.1210   -5.9710   24.9910 C   0  0  0  0  0  3  0  0  0  0  0  0
  -21.4320   -4.6010   24.9130 C   0  0  0  0  0  0  0  0  0  0  0  0
  -21.8500   -4.0430   23.6910 C   0  0  0  0  0  3  0  0  0  0  0  0
  -21.9520   -4.8530   22.5480 C   0  0  0  0  0  0  0  0  0  0  0  0
  -22.3350   -4.3090   21.3690 F   0  0  0  0  0  0  0  0  0  0  0  0
  -21.3290   -3.8150   26.0100 F   0  0  0  0  0  0  0  0  0  0  0  0
  -22.7790  -13.6080   21.0940 C   0  0  0  0  0  0  0  0  0  0  0  0
  -22.0440  -12.9220   21.9610 N   0  0  0  0  0  0  0  0  0  0  0  0
  -22.3450  -14.6270   20.5600 O   0  0  0  0  0  0  0  0  0  0  0  0
  -22.4060  -12.0970   22.4140 H   0  0  0  0  0  0  0  0  0  0  0  0
  -21.1080  -13.2300   22.1780 H   0  0  0  0  0  0  0  0  0  0  0  0
  -25.4060  -15.2730   20.2900 N   0  0  0  0  0  0  0  0  0  0  0  0
  -24.6250  -15.9120   20.3780 H   0  0  0  0  0  0  0  0  0  0  0  0
  -26.2530  -15.7180   19.9620 H   0  0  0  0  0  0  0  0  0  0  0  0
  -29.8520  -19.4530   17.6650 N   0  0  0  0  0  0  0  0  0  0  0  0
  -29.9390  -19.0160   16.7510 H   0  0  0  0  0  0  0  0  0  0  0  0
  -29.8640  -20.4670   17.6580 H   0  0  0  0  0  0  0  0  0  0  0  0
  -29.3250  -23.0290   20.1260 C   0  0  0  0  0  0  0  0  0  0  0  0
  -28.9710  -21.7220   20.2830 N   0  0  0  0  0  0  0  0  0  0  0  0
  -30.5130  -23.3530   20.0370 O   0  0  0  0  0  0  0  0  0  0  0  0
  -27.9820  -21.5050   20.3130 H   0  0  0  0  0  0  0  0  0  0  0  0
  -28.2460  -24.1580   20.1630 C   0  0  0  0  0  2  0  0  0  0  0  0
  -28.5590  -25.4870   19.3770 C   0  0  0  0  0  2  0  0  0  0  0  0
  -28.4310  -26.7280   20.1320 O   0  0  0  0  0  0  0  0  0  0  0  0
  -24.5800  -31.9200   23.2330 C   0  0  0  0  0  0  0  0  0  0  0  0
  -27.2480  -27.4590   20.1260 C   0  0  0  0  0  0  0  0  0  0  0  0
  -23.3870  -30.5160   21.5840 C   0  0  0  0  0  3  0  0  0  0  0  0
  -24.8510  -28.9910   20.1610 C   0  0  0  0  0  0  0  0  0  0  0  0
  -25.9180  -30.8810   21.3950 C   0  0  0  0  0  2  0  0  0  0  0  0
  -26.0110  -29.5080   20.7440 C   0  0  0  0  0  0  0  0  0  0  0  0
  -27.2110  -28.7530   20.7200 C   0  0  0  0  0  3  0  0  0  0  0  0
  -26.0520  -26.9570   19.5620 C   0  0  0  0  0  3  0  0  0  0  0  0
  -24.8680  -27.7160   19.5690 C   0  0  0  0  0  3  0  0  0  0  0  0
  -23.6030  -29.8450   20.2040 C   0  0  0  0  0  2  0  0  0  0  0  0
  -24.6450  -31.1200   22.1280 N   0  0  0  0  0  0  0  0  0  0  0  0
  -23.4930  -32.1840   23.7670 O   0  0  0  0  0  0  0  0  0  0  0  0
  -22.7330  -29.4910   22.5370 C   0  0  0  0  0  0  0  0  0  0  0  0
  -21.4110  -29.3020   22.3990 N   0  0  0  0  0  0  0  0  0  0  0  0
  -23.4140  -28.8660   23.3530 O   0  0  0  0  0  0  0  0  0  0  0  0
  -20.9210  -29.8570   21.7100 H   0  0  0  0  0  0  0  0  0  0  0  0
  -18.0370  -28.1030   22.8770 C   0  0  0  0  0  0  0  0  0  0  0  0
  -20.5930  -28.3650   23.1660 C   0  0  0  0  0  3  0  0  0  0  0  0
  -20.7030  -26.9370   22.5850 C   0  0  0  0  0  2  0  0  0  0  0  0
  -19.6090  -26.6150   21.5630 C   0  0  0  0  0  2  0  0  0  0  0  0
  -18.2220  -26.7560   22.1980 C   0  0  0  0  0  2  0  0  0  0  0  0
  -19.1530  -28.8650   23.3170 C   0  0  0  0  0  0  0  0  0  0  0  0
  -18.9290  -30.1260   23.9120 C   0  0  0  0  0  3  0  0  0  0  0  0
  -17.6240  -30.6240   24.0720 C   0  0  0  0  0  3  0  0  0  0  0  0
  -16.5220  -29.8610   23.6480 C   0  0  0  0  0  3  0  0  0  0  0  0
  -16.7310  -28.6010   23.0560 C   0  0  0  0  0  3  0  0  0  0  0  0
  -25.8570  -32.5540   23.8650 C   0  0  0  0  0  3  0  0  0  0  0  0
  -25.5470  -33.9530   24.1830 N   0  0  0  0  0  0  0  0  0  0  0  0
  -25.9010  -34.9990   23.4240 C   0  0  0  0  0  0  0  0  0  0  0  0
  -26.5880  -34.8900   22.4060 O   0  0  0  0  0  0  0  0  0  0  0  0
  -24.9340  -34.1190   24.9680 H   0  0  0  0  0  0  0  0  0  0  0  0
  -24.1830  -36.7910   23.0310 C   0  0  0  0  0  1  0  0  0  0  0  0
  -25.4100  -36.3900   23.8660 C   0  0  0  0  0  3  0  0  0  0  0  0
  -27.5280  -37.2670   24.7360 C   0  0  0  0  0  1  0  0  0  0  0  0
  -26.4440  -37.4410   23.7700 N   0  0  0  0  0  0  0  0  0  0  0  0
  -26.0370  -38.3610   23.9150 H   0  0  0  0  0  0  0  0  0  0  0  0
  -26.3660  -31.7900   25.1480 C   0  0  1  0  0  0  0  0  0  0  0  0
  -25.2640  -31.5620   26.2080 C   0  0  0  0  0  1  0  0  0  0  0  0
  -26.9480  -30.4090   24.7650 C   0  0  0  0  0  1  0  0  0  0  0  0
  -27.5090  -32.5900   25.8170 C   0  0  0  0  0  1  0  0  0  0  0  0
  2  1  1  0
  3  6  2  0
  4  3  1  0
  4  5  2  0
  5  2  1  0
  5  7  1  0
  6 16  1  0
  6  7  1  0
  8 16  1  0
  9 14  1  0
 10 11  1  0
 10  9  1  0
 12 11  1  0
 12 21  1  0
 12 13  1  0
 14  8  1  0
 14 13  1  0
 15  8  2  0
 16 17  1  0
 18 19  2  0
 19 38  1  0
 20 19  1  0
 20 23  1  0
 21 18  1  0
 21 22  1  0
 22 20  2  0
 23 24  1  0
 24 25  2  0
 26 29  1  0
 26 25  1  0
 27 26  2  0
 28 27  1  0
 28 23  2  0
 29 30  1  0
 30 31  1  0
 31 32  2  0
 33 32  1  0
 33 37  1  0
 34 33  2  0
 35 30  2  0
 35 34  1  0
 36 35  1  0
 38 39  1  0
 39 42  1  0
 39 41  1  0
 40 38  2  0
 43 44  1  0
 43 18  1  0
 45 43  1  0
 46  4  1  0
 47 46  1  0
 48 46  1  0
 49 53  1  0
 49 50  1  0
 50 52  1  0
 50  2  1  0
 51 49  2  0
 54 55  1  0
 54 53  1  0
 56 67  2  0
 57 55  1  0
 57 62  1  0
 58 66  1  0
 58 68  1  0
 59 65  1  0
 59 61  1  0
 60 66  1  0
 61 60  1  0
 62 61  2  0
 63 64  1  0
 63 57  2  0
 64 59  2  0
 65 58  1  0
 66 56  1  0
 68 70  2  0
 69 68  1  0
 71 69  1  0
 72 81  2  0
 72 77  1  0
 73 69  1  0
 73 77  1  0
 74 73  1  0
 75 76  1  0
 75 74  1  0
 76 72  1  0
 77 78  2  0
 78 79  1  0
 80 79  2  0
 81 80  1  0
 82 56  1  0
 82 83  1  0
 82 92  1  0
 83 86  1  0
 84 88  1  0
 84 83  1  0
 85 84  2  0
 88 87  1  0
 90 88  1  0
 90 91  1  0
 90 89  1  0
 92 95  1  1
 92 93  1  0
 94 92  1  0
M  ISO  4   8 100  16 100  54 101  55 101
M  END
>  <TORSDO>  (7) 
F 21

>  <SCORE>  (7) 
-13.565

>  <name>  (7) 
7

>  <ligand_id>  (7) 
7

>  <original_smiles>  (7) 
[H]c1c([H])c([H])c2c(c1[H])C([H])([H])C([H])([H])C([H])([H])C2([H])N([H])C(=O)C1([H])N(C(=O)C([H])(N([H])C(=O)C([H])(N([H])C([H])([H])[H])C([H])([H])[H])C(C([H])([H])[H])(C([H])([H])[H])C([H])([H])[H])C([H])([H])c2c([H])c(OC([H])([H])C([H])([H])C(=O)N([H])C([H])(c3oc(N([H])C(=O)N4C([H])([H])C([H])([H])C([H])([H])C([H])(n5nc(-c6c([H])c([H])c(Oc7c([H])c([H])c(F)c([H])c7F)c([H])c6[H])c(C(=O)N([H])[H])c5N([H])[H])C4([H])[H])c([H])c3N([H])[H])C([H])([H])[H])c([H])c([H])c2C1([H])[H]

>  <smiles>  (7) 
[H]c1c([H])c([H])c2c(c1[H])C([H])([H])C([H])([H])C([H])([H])C2([H])N([H])C(=O)C1([H])N(C(=O)C([H])(N([H])C(=O)C([H])(N([H])C([H])([H])[H])C([H])([H])[H])C(C([H])([H])[H])(C([H])([H])[H])C([H])([H])[H])C([H])([H])c2c([H])c(OC([H])([H])C([H])([H])C(=O)N([H])C([H])(c3oc(N([H])C(=O)N4C([H])([H])C([H])([H])C([H])([H])C([H])(n5nc(-c6c([H])c([H])c(Oc7c([H])c([H])c(F)c([H])c7F)c([H])c6[H])c(C(=O)N([H])[H])c5N([H])[H])C4([H])[H])c([H])c3N([H])[H])C([H])([H])[H])c([H])c([H])c2C1([H])[H]

$$$$
8:0:0
     RDKit          3D

 98106  0  0  1  0  0  0  0  0999 V2000
  -29.2370  -20.7530   20.2520 C   0  0  0  0  0  0  0  0  0  0  0  0
  -29.7190  -21.8530   19.6280 N   0  0  0  0  0  0  0  0  0  0  0  0
  -28.1850  -20.7920   20.8920 O   0  0  0  0  0  0  0  0  0  0  0  0
  -30.4620  -21.7060   18.9610 H   0  0  0  0  0  0  0  0  0  0  0  0
  -31.5030  -19.6730   20.5120 C   0  0  0  0  0  3  0  0  0  0  0  0
  -32.3280  -18.5740   20.8150 C   0  0  0  0  0  3  0  0  0  0  0  0
  -30.1180  -19.5040   20.2770 C   0  0  0  0  0  0  0  0  0  0  0  0
  -30.4520  -17.0300   20.4920 C   0  0  0  0  0  0  0  0  0  0  0  0
  -31.8010  -17.2730   20.8570 C   0  0  0  0  0  0  0  0  0  0  0  0
  -29.6070  -18.1610   20.2460 C   0  0  0  0  0  0  0  0  0  0  0  0
  -32.6060  -16.2750   21.3000 F   0  0  0  0  0  0  0  0  0  0  0  0
  -28.2950  -17.9360   19.9840 F   0  0  0  0  0  0  0  0  0  0  0  0
  -30.5900  -14.5650   20.0110 C   0  0  0  0  0  0  0  0  0  0  0  0
  -30.1940  -12.3810   18.9290 C   0  0  0  0  0  2  0  0  0  0  0  0
  -29.1870  -12.5690   17.7760 C   0  0  0  0  0  2  0  0  0  0  0  0
  -27.7450  -12.4280   18.2980 C   0  0  0  0  0  2  0  0  0  0  0  0
  -27.4810  -13.2610   19.5820 C   0  0  0  0  0  3  0  0  0  0  0  0
  -28.6130  -13.1010   20.6230 C   0  0  0  0  0  2  0  0  0  0  0  0
  -29.8860  -13.3970   19.9510 N   0  0  0  0  0  0  0  0  0  0  0  0
  -31.7080  -14.6540   19.5030 O   0  0  0  0  0  0  0  0  0  0  0  0
  -29.9290  -15.6770   20.4290 N   0  0  0  0  0  0  0  0  0  0  0  0
  -28.9380  -15.5780   20.5750 H   0  0  0  0  0  0  0  0  0  0  0  0
  -25.1410  -13.8350   20.4770 C   0  0  0  0  0  0  0  0  0  0  0  0
  -24.1000  -13.0510   20.8890 C   0  0  0  0  0  0  0  0  0  0  0  0
  -24.5560  -11.7000   20.7890 C   0  0  0  0  0  0  0  0  0  0  0  0
  -26.1670  -12.9630   20.1490 N   0  0  0  0  0  0  0  0  0  0  0  0
  -25.8240  -11.6730   20.3970 N   0  0  0  0  0  0  0  0  0  0  0  0
  -23.8400  -10.4340   20.9850 C   0  0  0  0  0  0  0  0  0  0  0  0
  -24.2770   -9.4710   21.9210 C   0  0  0  0  0  3  0  0  0  0  0  0
  -23.5560   -8.2710   22.1040 C   0  0  0  0  0  3  0  0  0  0  0  0
  -22.3840   -8.0240   21.3490 C   0  0  0  0  0  0  0  0  0  0  0  0
  -21.9670   -8.9750   20.4020 C   0  0  0  0  0  3  0  0  0  0  0  0
  -22.6890  -10.1670   20.2170 C   0  0  0  0  0  3  0  0  0  0  0  0
  -21.6340   -6.8760   21.4420 O   0  0  0  0  0  0  0  0  0  0  0  0
  -21.5480   -6.1640   22.6130 C   0  0  0  0  0  0  0  0  0  0  0  0
  -21.0410   -6.7390   23.7980 C   0  0  0  0  0  3  0  0  0  0  0  0
  -20.9060   -5.9530   24.9600 C   0  0  0  0  0  3  0  0  0  0  0  0
  -21.2690   -4.5920   24.9360 C   0  0  0  0  0  0  0  0  0  0  0  0
  -21.7670   -4.0170   23.7540 C   0  0  0  0  0  3  0  0  0  0  0  0
  -21.9050   -4.8010   22.5950 C   0  0  0  0  0  0  0  0  0  0  0  0
  -22.3660   -4.2360   21.4540 F   0  0  0  0  0  0  0  0  0  0  0  0
  -21.1320   -3.8340   26.0490 F   0  0  0  0  0  0  0  0  0  0  0  0
  -22.7240  -13.5200   21.2640 C   0  0  0  0  0  0  0  0  0  0  0  0
  -22.0480  -12.7940   22.1460 N   0  0  0  0  0  0  0  0  0  0  0  0
  -22.2610  -14.5670   20.8120 O   0  0  0  0  0  0  0  0  0  0  0  0
  -22.4390  -11.9450   22.5300 H   0  0  0  0  0  0  0  0  0  0  0  0
  -21.1290  -13.0890   22.4400 H   0  0  0  0  0  0  0  0  0  0  0  0
  -25.2930  -15.2110   20.3320 N   0  0  0  0  0  0  0  0  0  0  0  0
  -24.5250  -15.8500   20.5060 H   0  0  0  0  0  0  0  0  0  0  0  0
  -26.1140  -15.6730   19.9640 H   0  0  0  0  0  0  0  0  0  0  0  0
  -29.6930  -23.2410   20.1710 C   0  0  0  0  0  3  0  0  0  0  0  0
  -32.2570  -23.3160   19.8120 C   0  0  0  0  0  1  0  0  0  0  0  0
  -30.9010  -23.9900   19.5490 C   0  0  0  0  0  3  0  0  0  0  0  0
  -30.7580  -24.1290   18.2280 F   0  0  0  0  0  0  0  0  0  0  0  0
  -28.4190  -24.1090   19.8760 C   0  0  0  0  0  0  0  0  0  0  0  0
  -27.5900  -23.8290   19.0010 O   0  0  0  0  0  0  0  0  0  0  0  0
  -28.1970  -25.3600   20.7820 C   0  0  0  0  0  2  0  0  0  0  0  0
  -28.3140  -26.6440   20.1110 O   0  0  0  0  0  0  0  0  0  0  0  0
  -24.5700  -31.9190   23.2290 C   0  0  0  0  0  0  0  0  0  0  0  0
  -27.1730  -27.4260   20.1380 C   0  0  0  0  0  0  0  0  0  0  0  0
  -23.3530  -30.5130   21.6030 C   0  0  0  0  0  3  0  0  0  0  0  0
  -24.7930  -28.9680   20.1690 C   0  0  0  0  0  0  0  0  0  0  0  0
  -25.8830  -30.8550   21.3910 C   0  0  0  0  0  2  0  0  0  0  0  0
  -25.9620  -29.4810   20.7460 C   0  0  0  0  0  0  0  0  0  0  0  0
  -27.1600  -28.7210   20.7220 C   0  0  0  0  0  3  0  0  0  0  0  0
  -25.9880  -26.9370   19.5550 C   0  0  0  0  0  3  0  0  0  0  0  0
  -24.8020  -27.6960   19.5720 C   0  0  0  0  0  3  0  0  0  0  0  0
  -23.5510  -29.8330   20.2230 C   0  0  0  0  0  2  0  0  0  0  0  0
  -24.6210  -31.1110   22.1310 N   0  0  0  0  0  0  0  0  0  0  0  0
  -23.4930  -32.1980   23.7730 O   0  0  0  0  0  0  0  0  0  0  0  0
  -22.7040  -29.4970   22.5710 C   0  0  0  0  0  0  0  0  0  0  0  0
  -21.3810  -29.3110   22.4450 N   0  0  0  0  0  0  0  0  0  0  0  0
  -23.3880  -28.8810   23.3930 O   0  0  0  0  0  0  0  0  0  0  0  0
  -20.8950  -29.8530   21.7450 H   0  0  0  0  0  0  0  0  0  0  0  0
  -18.0050  -28.1180   22.9510 C   0  0  0  0  0  0  0  0  0  0  0  0
  -20.5630  -28.3810   23.2210 C   0  0  0  0  0  3  0  0  0  0  0  0
  -20.6670  -26.9470   22.6540 C   0  0  0  0  0  2  0  0  0  0  0  0
  -19.5650  -26.6170   21.6420 C   0  0  0  0  0  2  0  0  0  0  0  0
  -18.1810  -26.7640   22.2820 C   0  0  0  0  0  2  0  0  0  0  0  0
  -19.1230  -28.8830   23.3760 C   0  0  0  0  0  0  0  0  0  0  0  0
  -18.9060  -30.1480   23.9630 C   0  0  0  0  0  3  0  0  0  0  0  0
  -17.6020  -30.6530   24.1250 C   0  0  0  0  0  3  0  0  0  0  0  0
  -16.4970  -29.8860   23.7200 C   0  0  0  0  0  3  0  0  0  0  0  0
  -16.6980  -28.6190   23.1420 C   0  0  0  0  0  3  0  0  0  0  0  0
  -25.8590  -32.5520   23.8370 C   0  0  0  0  0  3  0  0  0  0  0  0
  -25.5520  -33.9500   24.1670 N   0  0  0  0  0  0  0  0  0  0  0  0
  -25.8990  -35.0030   23.4160 C   0  0  0  0  0  0  0  0  0  0  0  0
  -26.5830  -34.9010   22.3950 O   0  0  0  0  0  0  0  0  0  0  0  0
  -24.9430  -34.1020   24.9560 H   0  0  0  0  0  0  0  0  0  0  0  0
  -24.1980  -36.8190   23.0220 C   0  0  0  0  0  1  0  0  0  0  0  0
  -25.4070  -36.3920   23.8710 C   0  0  0  0  0  3  0  0  0  0  0  0
  -27.5150  -37.2500   24.7900 C   0  0  0  0  0  1  0  0  0  0  0  0
  -26.4520  -37.4370   23.8060 N   0  0  0  0  0  0  0  0  0  0  0  0
  -26.0510  -38.3600   23.9430 H   0  0  0  0  0  0  0  0  0  0  0  0
  -26.3900  -31.7810   25.1090 C   0  0  1  0  0  0  0  0  0  0  0  0
  -25.3030  -31.5330   26.1820 C   0  0  0  0  0  1  0  0  0  0  0  0
  -26.9820  -30.4090   24.7120 C   0  0  0  0  0  1  0  0  0  0  0  0
  -27.5440  -32.5790   25.7620 C   0  0  0  0  0  1  0  0  0  0  0  0
  1  7  1  0
  1  3  2  0
  2 51  1  0
  2  1  1  0
  4  2  1  0
  5  6  1  0
  6  9  2  0
  7  5  2  0
  8  9  1  0
  9 11  1  0
 10  7  1  0
 10  8  2  0
 12 10  1  0
 13 21  1  0
 14 19  1  0
 15 16  1  0
 15 14  1  0
 17 16  1  0
 17 26  1  0
 17 18  1  0
 19 13  1  0
 19 18  1  0
 20 13  2  0
 21  8  1  0
 21 22  1  0
 23 24  2  0
 24 43  1  0
 25 24  1  0
 25 28  1  0
 26 27  1  0
 26 23  1  0
 27 25  2  0
 28 29  1  0
 29 30  2  0
 31 34  1  0
 31 30  1  0
 32 31  2  0
 33 32  1  0
 33 28  2  0
 34 35  1  0
 35 36  1  0
 36 37  2  0
 38 37  1  0
 38 42  1  0
 39 38  2  0
 40 35  2  0
 40 39  1  0
 41 40  1  0
 43 44  1  0
 44 47  1  0
 44 46  1  0
 45 43  2  0
 48 23  1  0
 48 49  1  0
 50 48  1  0
 51 55  1  0
 53 52  1  0
 53 51  1  0
 54 53  1  0
 55 57  1  0
 56 55  2  0
 58 60  1  0
 58 57  1  0
 59 70  2  0
 60 65  1  0
 61 69  1  0
 61 71  1  0
 62 68  1  0
 62 64  1  0
 63 69  1  0
 64 63  1  0
 65 64  2  0
 66 67  1  0
 66 60  2  0
 67 62  2  0
 68 61  1  0
 69 59  1  0
 71 73  2  0
 72 71  1  0
 74 72  1  0
 75 84  2  0
 75 80  1  0
 76 72  1  0
 76 80  1  0
 77 76  1  0
 78 79  1  0
 78 77  1  0
 79 75  1  0
 80 81  2  0
 81 82  1  0
 83 82  2  0
 84 83  1  0
 85 59  1  0
 85 86  1  0
 85 95  1  0
 86 89  1  0
 87 91  1  0
 87 86  1  0
 88 87  2  0
 91 90  1  0
 93 91  1  0
 93 94  1  0
 93 92  1  0
 95 98  1  1
 95 96  1  0
 97 95  1  0
M  ISO  4  13 100  21 100  57 101  58 101
M  END
>  <TORSDO>  (8) 
F 21

>  <SCORE>  (8) 
-13.343

>  <name>  (8) 
8

>  <ligand_id>  (8) 
8

>  <original_smiles>  (8) 
[H]c1c([H])c([H])c2c(c1[H])C([H])([H])C([H])([H])C([H])([H])C2([H])N([H])C(=O)C1([H])N(C(=O)C([H])(N([H])C(=O)C([H])(N([H])C([H])([H])[H])C([H])([H])[H])C(C([H])([H])[H])(C([H])([H])[H])C([H])([H])[H])C([H])([H])c2c([H])c(OC([H])([H])C(=O)C([H])(N([H])C(=O)c3c([H])c([H])c(F)c(N([H])C(=O)N4C([H])([H])C([H])([H])C([H])([H])C([H])(n5nc(-c6c([H])c([H])c(Oc7c([H])c([H])c(F)c([H])c7F)c([H])c6[H])c(C(=O)N([H])[H])c5N([H])[H])C4([H])[H])c3F)C([H])(F)C([H])([H])[H])c([H])c([H])c2C1([H])[H]

>  <smiles>  (8) 
[H]c1c([H])c([H])c2c(c1[H])C([H])([H])C([H])([H])C([H])([H])C2([H])N([H])C(=O)C1([H])N(C(=O)C([H])(N([H])C(=O)C([H])(N([H])C([H])([H])[H])C([H])([H])[H])C(C([H])([H])[H])(C([H])([H])[H])C([H])([H])[H])C([H])([H])c2c([H])c(OC([H])([H])C(=O)C([H])(N([H])C(=O)c3c([H])c([H])c(F)c(N([H])C(=O)N4C([H])([H])C([H])([H])C([H])([H])C([H])(n5nc(-c6c([H])c([H])c(Oc7c([H])c([H])c(F)c([H])c7F)c([H])c6[H])c(C(=O)N([H])[H])c5N([H])[H])C4([H])[H])c3F)C([H])(F)C([H])([H])[H])c([H])c([H])c2C1([H])[H]

$$$$
9:0:0
     RDKit          3D

 96104  0  0  1  0  0  0  0  0999 V2000
  -29.9820  -21.1170   20.0170 C   0  0  0  0  0  0  0  0  0  0  0  0
  -30.7330  -20.5750   20.9860 N   0  0  0  0  0  0  0  0  0  0  0  0
  -29.1740  -20.5190   19.2980 O   0  0  0  0  0  0  0  0  0  0  0  0
  -31.3260  -21.2520   21.4550 H   0  0  0  0  0  0  0  0  0  0  0  0
  -30.1720  -18.1190   20.9090 C   0  0  0  0  0  3  0  0  0  0  0  0
  -31.7260  -17.8200   23.2490 C   0  0  0  0  0  3  0  0  0  0  0  0
  -30.8050  -19.2500   21.4900 C   0  0  0  0  0  0  0  0  0  0  0  0
  -30.3280  -16.8460   21.5050 C   0  0  0  0  0  0  0  0  0  0  0  0
  -31.5820  -19.0850   22.6540 C   0  0  0  0  0  0  0  0  0  0  0  0
  -31.0950  -16.7010   22.6800 C   0  0  0  0  0  0  0  0  0  0  0  0
  -32.1930  -20.1640   23.2060 F   0  0  0  0  0  0  0  0  0  0  0  0
  -31.2240  -15.4840   23.2640 F   0  0  0  0  0  0  0  0  0  0  0  0
  -30.2600  -14.8980   20.0530 C   0  0  0  0  0  0  0  0  0  0  0  0
  -29.9350  -12.8520   18.7130 C   0  0  0  0  0  2  0  0  0  0  0  0
  -28.8590  -13.0900   17.6340 C   0  0  0  0  0  2  0  0  0  0  0  0
  -27.4490  -12.8220   18.1970 C   0  0  0  0  0  2  0  0  0  0  0  0
  -27.2020  -13.5350   19.5520 C   0  0  0  0  0  3  0  0  0  0  0  0
  -28.3760  -13.2850   20.5250 C   0  0  0  0  0  2  0  0  0  0  0  0
  -29.6200  -13.7160   19.8590 N   0  0  0  0  0  0  0  0  0  0  0  0
  -31.2460  -15.2510   19.3960 O   0  0  0  0  0  0  0  0  0  0  0  0
  -29.6940  -15.7100   20.9540 N   0  0  0  0  0  0  0  0  0  0  0  0
  -28.8770  -15.3620   21.4310 H   0  0  0  0  0  0  0  0  0  0  0  0
  -24.8390  -13.9250   20.4950 C   0  0  0  0  0  0  0  0  0  0  0  0
  -23.8720  -13.0580   20.9290 C   0  0  0  0  0  0  0  0  0  0  0  0
  -24.4310  -11.7490   20.8020 C   0  0  0  0  0  0  0  0  0  0  0  0
  -25.9230  -13.1390   20.1380 N   0  0  0  0  0  0  0  0  0  0  0  0
  -25.6860  -11.8230   20.3740 N   0  0  0  0  0  0  0  0  0  0  0  0
  -23.8270  -10.4260   21.0050 C   0  0  0  0  0  0  0  0  0  0  0  0
  -24.2890   -9.5480   22.0100 C   0  0  0  0  0  3  0  0  0  0  0  0
  -23.6790   -8.2890   22.1980 C   0  0  0  0  0  3  0  0  0  0  0  0
  -22.5930   -7.8980   21.3780 C   0  0  0  0  0  0  0  0  0  0  0  0
  -22.1520   -8.7670   20.3640 C   0  0  0  0  0  3  0  0  0  0  0  0
  -22.7630  -10.0170   20.1760 C   0  0  0  0  0  3  0  0  0  0  0  0
  -21.9580   -6.6840   21.4700 O   0  0  0  0  0  0  0  0  0  0  0  0
  -21.7530   -6.0670   22.6790 C   0  0  0  0  0  0  0  0  0  0  0  0
  -21.0080   -6.6790   23.7110 C   0  0  0  0  0  3  0  0  0  0  0  0
  -20.7630   -5.9830   24.9110 C   0  0  0  0  0  3  0  0  0  0  0  0
  -21.2540   -4.6740   25.0780 C   0  0  0  0  0  0  0  0  0  0  0  0
  -21.9930   -4.0600   24.0510 C   0  0  0  0  0  3  0  0  0  0  0  0
  -22.2380   -4.7550   22.8530 C   0  0  0  0  0  0  0  0  0  0  0  0
  -22.9320   -4.1520   21.8580 F   0  0  0  0  0  0  0  0  0  0  0  0
  -21.0130   -4.0010   26.2280 F   0  0  0  0  0  0  0  0  0  0  0  0
  -22.4750  -13.4110   21.3490 C   0  0  0  0  0  0  0  0  0  0  0  0
  -21.8970  -12.6410   22.2650 N   0  0  0  0  0  0  0  0  0  0  0  0
  -21.9040  -14.4050   20.9020 O   0  0  0  0  0  0  0  0  0  0  0  0
  -22.3720  -11.8380   22.6460 H   0  0  0  0  0  0  0  0  0  0  0  0
  -20.9670  -12.8630   22.5920 H   0  0  0  0  0  0  0  0  0  0  0  0
  -24.8820  -15.3100   20.3600 N   0  0  0  0  0  0  0  0  0  0  0  0
  -24.0820  -15.9010   20.5640 H   0  0  0  0  0  0  0  0  0  0  0  0
  -25.6640  -15.8210   19.9690 H   0  0  0  0  0  0  0  0  0  0  0  0
  -30.2420  -22.6420   19.9160 C   0  0  0  0  0  0  0  0  0  0  0  0
  -31.2800  -23.1610   20.3500 O   0  0  0  0  0  0  0  0  0  0  0  0
  -29.1370  -23.4890   19.2810 C   0  0  0  0  0  2  0  0  0  0  0  0
  -29.2740  -25.0030   19.5490 C   0  0  0  0  0  2  0  0  0  0  0  0
  -27.9820  -25.7430   19.2000 C   0  0  0  0  0  2  0  0  0  0  0  0
  -28.0680  -27.1180   19.5700 O   0  0  0  0  0  0  0  0  0  0  0  0
  -24.4620  -32.0200   23.2410 C   0  0  0  0  0  0  0  0  0  0  0  0
  -26.8770  -27.8030   19.6960 C   0  0  0  0  0  0  0  0  0  0  0  0
  -23.1340  -30.6890   21.6370 C   0  0  0  0  0  3  0  0  0  0  0  0
  -24.4720  -29.2580   20.0090 C   0  0  0  0  0  0  0  0  0  0  0  0
  -25.6280  -31.1020   21.2380 C   0  0  0  0  0  2  0  0  0  0  0  0
  -25.6710  -29.7690   20.5210 C   0  0  0  0  0  0  0  0  0  0  0  0
  -26.8750  -29.0470   20.3650 C   0  0  0  0  0  3  0  0  0  0  0  0
  -25.6540  -27.3090   19.1800 C   0  0  0  0  0  3  0  0  0  0  0  0
  -24.4570  -28.0250   19.3410 C   0  0  0  0  0  3  0  0  0  0  0  0
  -23.2290  -30.0930   20.2080 C   0  0  0  0  0  2  0  0  0  0  0  0
  -24.4320  -31.2810   22.0960 N   0  0  0  0  0  0  0  0  0  0  0  0
  -23.4290  -32.2440   23.8860 O   0  0  0  0  0  0  0  0  0  0  0  0
  -22.5830  -29.6030   22.5890 C   0  0  0  0  0  0  0  0  0  0  0  0
  -21.2730  -29.3250   22.4860 N   0  0  0  0  0  0  0  0  0  0  0  0
  -23.3290  -29.0150   23.3780 O   0  0  0  0  0  0  0  0  0  0  0  0
  -20.7280  -29.8600   21.8240 H   0  0  0  0  0  0  0  0  0  0  0  0
  -18.0310  -27.8020   22.9510 C   0  0  0  0  0  0  0  0  0  0  0  0
  -20.5450  -28.3180   23.2560 C   0  0  0  0  0  3  0  0  0  0  0  0
  -20.7990  -26.8980   22.6980 C   0  0  0  0  0  2  0  0  0  0  0  0
  -19.7510  -26.4560   21.6730 C   0  0  0  0  0  2  0  0  0  0  0  0
  -18.3530  -26.4680   22.2960 C   0  0  0  0  0  2  0  0  0  0  0  0
  -19.0610  -28.6770   23.3880 C   0  0  0  0  0  0  0  0  0  0  0  0
  -18.7080  -29.9190   23.9570 C   0  0  0  0  0  3  0  0  0  0  0  0
  -17.3570  -30.2900   24.0960 C   0  0  0  0  0  3  0  0  0  0  0  0
  -16.3410  -29.4150   23.6740 C   0  0  0  0  0  3  0  0  0  0  0  0
  -16.6790  -28.1730   23.1080 C   0  0  0  0  0  3  0  0  0  0  0  0
  -25.7900  -32.6390   23.7800 C   0  0  0  0  0  3  0  0  0  0  0  0
  -25.5100  -34.0340   24.1440 N   0  0  0  0  0  0  0  0  0  0  0  0
  -25.8140  -35.0940   23.3830 C   0  0  0  0  0  0  0  0  0  0  0  0
  -26.4330  -34.9990   22.3180 O   0  0  0  0  0  0  0  0  0  0  0  0
  -24.9570  -34.1820   24.9750 H   0  0  0  0  0  0  0  0  0  0  0  0
  -24.1010  -36.9160   23.1090 C   0  0  0  0  0  1  0  0  0  0  0  0
  -25.3580  -36.4780   23.8810 C   0  0  0  0  0  3  0  0  0  0  0  0
  -27.5290  -37.3120   24.6690 C   0  0  0  0  0  1  0  0  0  0  0  0
  -26.3990  -37.5230   23.7680 N   0  0  0  0  0  0  0  0  0  0  0  0
  -26.0070  -38.4400   23.9640 H   0  0  0  0  0  0  0  0  0  0  0  0
  -26.3890  -31.8500   25.0070 C   0  0  1  0  0  0  0  0  0  0  0  0
  -25.3680  -31.5900   26.1380 C   0  0  0  0  0  1  0  0  0  0  0  0
  -26.9510  -30.4830   24.5510 C   0  0  0  0  0  1  0  0  0  0  0  0
  -27.5770  -32.6370   25.6070 C   0  0  0  0  0  1  0  0  0  0  0  0
  1  2  1  0
  2  4  1  0
  2  7  1  0
  3  1  2  0
  5  7  2  0
  5  8  1  0
  7  9  1  0
  8 10  2  0
  9 11  1  0
  9  6  2  0
 10  6  1  0
 10 12  1  0
 13 21  1  0
 14 19  1  0
 15 16  1  0
 15 14  1  0
 17 16  1  0
 17 26  1  0
 17 18  1  0
 19 13  1  0
 19 18  1  0
 20 13  2  0
 21 22  1  0
 21  8  1  0
 23 24  2  0
 24 43  1  0
 25 24  1  0
 25 28  1  0
 26 27  1  0
 26 23  1  0
 27 25  2  0
 28 29  1  0
 29 30  2  0
 31 34  1  0
 31 30  1  0
 32 31  2  0
 33 32  1  0
 33 28  2  0
 34 35  1  0
 35 40  2  0
 35 36  1  0
 36 37  2  0
 37 38  1  0
 38 42  1  0
 39 38  2  0
 40 39  1  0
 41 40  1  0
 43 44  1  0
 44 47  1  0
 44 46  1  0
 45 43  2  0
 48 23  1  0
 48 49  1  0
 50 48  1  0
 51  1  1  0
 51 52  2  0
 53 54  1  0
 53 51  1  0
 55 54  1  0
 55 56  1  0
 56 58  1  0
 57 68  2  0
 58 63  1  0
 59 67  1  0
 59 69  1  0
 60 66  1  0
 60 62  1  0
 61 67  1  0
 62 61  1  0
 63 62  2  0
 64 65  1  0
 64 58  2  0
 65 60  2  0
 66 59  1  0
 67 57  1  0
 69 71  2  0
 70 69  1  0
 72 70  1  0
 73 82  2  0
 73 78  1  0
 74 70  1  0
 74 78  1  0
 75 74  1  0
 76 77  1  0
 76 75  1  0
 77 73  1  0
 78 79  2  0
 79 80  1  0
 81 80  2  0
 82 81  1  0
 83 57  1  0
 83 84  1  0
 83 93  1  0
 84 87  1  0
 85 89  1  0
 85 84  1  0
 86 85  2  0
 89 88  1  0
 91 89  1  0
 91 92  1  0
 91 90  1  0
 93 96  1  1
 93 94  1  0
 95 93  1  0
M  ISO  4  13 100  21 100  55 101  56 101
M  END
>  <TORSDO>  (9) 
F 21

>  <SCORE>  (9) 
-10.495

>  <name>  (9) 
9

>  <ligand_id>  (9) 
9

>  <original_smiles>  (9) 
[H]c1c([H])c([H])c2c(c1[H])C([H])([H])C([H])([H])C([H])([H])C2([H])N([H])C(=O)C1([H])N(C(=O)C([H])(N([H])C(=O)C([H])(N([H])C([H])([H])[H])C([H])([H])[H])C(C([H])([H])[H])(C([H])([H])[H])C([H])([H])[H])C([H])([H])c2c([H])c(OC([H])([H])C([H])([H])C([H])([H])C(=O)C(=O)N([H])c3c([H])c(N([H])C(=O)N4C([H])([H])C([H])([H])C([H])([H])C([H])(n5nc(-c6c([H])c([H])c(Oc7c([H])c([H])c(F)c([H])c7F)c([H])c6[H])c(C(=O)N([H])[H])c5N([H])[H])C4([H])[H])c(F)c([H])c3F)c([H])c([H])c2C1([H])[H]

>  <smiles>  (9) 
[H]c1c([H])c([H])c2c(c1[H])C([H])([H])C([H])([H])C([H])([H])C2([H])N([H])C(=O)C1([H])N(C(=O)C([H])(N([H])C(=O)C([H])(N([H])C([H])([H])[H])C([H])([H])[H])C(C([H])([H])[H])(C([H])([H])[H])C([H])([H])[H])C([H])([H])c2c([H])c(OC([H])([H])C([H])([H])C([H])([H])C(=O)C(=O)N([H])c3c([H])c(N([H])C(=O)N4C([H])([H])C([H])([H])C([H])([H])C([H])(n5nc(-c6c([H])c([H])c(Oc7c([H])c([H])c(F)c([H])c7F)c([H])c6[H])c(C(=O)N([H])[H])c5N([H])[H])C4([H])[H])c(F)c([H])c3F)c([H])c([H])c2C1([H])[H]

$$$$
10:0:0
     RDKit          3D

 96104  0  0  1  0  0  0  0  0999 V2000
  -27.9670  -22.3120   21.7470 C   0  0  0  0  0  1  0  0  0  0  0  0
  -30.4330  -22.7080   21.7450 C   0  0  0  0  0  1  0  0  0  0  0  0
  -29.1830  -22.6170   20.8470 C   0  0  2  0  0  0  0  0  0  0  0  0
  -28.9990  -24.0490   20.1180 C   0  0  0  0  0  0  0  0  0  0  0  0
  -29.3960  -24.1480   18.9500 O   0  0  0  0  0  0  0  0  0  0  0  0
  -28.3520  -25.3280   20.8420 C   0  0  2  0  0  0  0  0  0  0  0  0
  -28.9660  -25.5280   22.0350 F   0  0  0  0  0  0  0  0  0  0  0  0
  -27.0610  -25.0110   21.1250 F   0  0  0  0  0  0  0  0  0  0  0  0
  -28.4140  -26.5250   20.1080 O   0  0  0  0  0  0  0  0  0  0  0  0
  -24.6260  -31.8600   23.2090 C   0  0  0  0  0  0  0  0  0  0  0  0
  -27.3120  -27.3890   20.1120 C   0  0  0  0  0  0  0  0  0  0  0  0
  -23.4480  -30.4680   21.5440 C   0  0  0  0  0  3  0  0  0  0  0  0
  -24.9280  -28.9600   20.1030 C   0  0  0  0  0  0  0  0  0  0  0  0
  -25.9810  -30.8260   21.3780 C   0  0  0  0  0  2  0  0  0  0  0  0
  -26.0850  -29.4570   20.7180 C   0  0  0  0  0  0  0  0  0  0  0  0
  -27.2830  -28.6810   20.7200 C   0  0  0  0  0  3  0  0  0  0  0  0
  -26.1430  -26.9570   19.4490 C   0  0  0  0  0  3  0  0  0  0  0  0
  -24.9570  -27.7140   19.4590 C   0  0  0  0  0  3  0  0  0  0  0  0
  -23.6780  -29.8140   20.1560 C   0  0  0  0  0  2  0  0  0  0  0  0
  -24.7030  -31.0680   22.1010 N   0  0  0  0  0  0  0  0  0  0  0  0
  -23.5360  -32.1160   23.7430 O   0  0  0  0  0  0  0  0  0  0  0  0
  -22.7940  -29.4300   22.4860 C   0  0  0  0  0  0  0  0  0  0  0  0
  -21.4760  -29.2180   22.3320 N   0  0  0  0  0  0  0  0  0  0  0  0
  -23.4730  -28.8170   23.3140 O   0  0  0  0  0  0  0  0  0  0  0  0
  -20.9870  -29.7650   21.6370 H   0  0  0  0  0  0  0  0  0  0  0  0
  -18.1280  -27.9110   22.7370 C   0  0  0  0  0  0  0  0  0  0  0  0
  -20.6670  -28.2570   23.0830 C   0  0  0  0  0  3  0  0  0  0  0  0
  -20.8330  -26.8270   22.5200 C   0  0  0  0  0  2  0  0  0  0  0  0
  -19.7750  -26.4630   21.4740 C   0  0  0  0  0  2  0  0  0  0  0  0
  -18.3700  -26.5650   22.0750 C   0  0  0  0  0  2  0  0  0  0  0  0
  -19.2070  -28.7130   23.1960 C   0  0  0  0  0  0  0  0  0  0  0  0
  -18.9270  -29.9700   23.7730 C   0  0  0  0  0  3  0  0  0  0  0  0
  -17.6020  -30.4280   23.8960 C   0  0  0  0  0  3  0  0  0  0  0  0
  -16.5370  -29.6240   23.4530 C   0  0  0  0  0  3  0  0  0  0  0  0
  -16.8000  -28.3670   22.8790 C   0  0  0  0  0  3  0  0  0  0  0  0
  -25.8980  -32.4990   23.8460 C   0  0  0  0  0  3  0  0  0  0  0  0
  -26.4060  -31.7280   25.1250 C   0  0  1  0  0  0  0  0  0  0  0  0
  -25.3030  -31.4790   26.1800 C   0  0  0  0  0  1  0  0  0  0  0  0
  -27.0040  -30.3550   24.7370 C   0  0  0  0  0  1  0  0  0  0  0  0
  -27.5430  -32.5290   25.8020 C   0  0  0  0  0  1  0  0  0  0  0  0
  -25.5770  -33.8950   24.1740 N   0  0  0  0  0  0  0  0  0  0  0  0
  -25.9140  -34.9510   23.4230 C   0  0  0  0  0  0  0  0  0  0  0  0
  -26.5970  -34.8530   22.4000 O   0  0  0  0  0  0  0  0  0  0  0  0
  -24.9710  -34.0440   24.9680 H   0  0  0  0  0  0  0  0  0  0  0  0
  -24.1860  -36.7390   23.0460 C   0  0  0  0  0  1  0  0  0  0  0  0
  -25.4130  -36.3360   23.8770 C   0  0  0  0  0  3  0  0  0  0  0  0
  -27.5270  -37.2270   24.7530 C   0  0  0  0  0  1  0  0  0  0  0  0
  -26.4440  -37.3930   23.7870 N   0  0  0  0  0  0  0  0  0  0  0  0
  -26.0320  -38.3110   23.9270 H   0  0  0  0  0  0  0  0  0  0  0  0
  -29.4250  -21.4730   19.8880 N   0  0  0  0  0  0  0  0  0  0  0  0
  -30.0170  -21.7840   19.1180 H   0  0  0  0  0  0  0  0  0  0  0  0
  -30.7060  -14.7220   20.0200 C   0  0  0  0  0  0  0  0  0  0  0  0
  -30.4490  -12.5000   18.9220 C   0  0  0  0  0  2  0  0  0  0  0  0
  -29.4290  -12.6460   17.7700 C   0  0  0  0  0  2  0  0  0  0  0  0
  -27.9860  -12.4720   18.2840 C   0  0  0  0  0  2  0  0  0  0  0  0
  -27.7020  -13.3070   19.5600 C   0  0  0  0  0  3  0  0  0  0  0  0
  -28.8270  -13.1260   20.6050 C   0  0  0  0  0  2  0  0  0  0  0  0
  -30.1000  -13.4920   19.9600 N   0  0  0  0  0  0  0  0  0  0  0  0
  -31.8290  -14.8980   19.5320 O   0  0  0  0  0  0  0  0  0  0  0  0
  -28.6660  -19.2670   20.8970 C   0  0  0  0  0  3  0  0  0  0  0  0
  -28.8390  -17.8620   21.0080 C   0  0  0  0  0  3  0  0  0  0  0  0
  -29.5850  -20.0620   20.1670 C   0  0  0  0  0  0  0  0  0  0  0  0
  -29.9250  -17.1910   20.3930 C   0  0  0  0  0  0  0  0  0  0  0  0
  -30.6550  -19.3090   19.5970 C   0  0  0  0  0  0  0  0  0  0  0  0
  -30.8200  -17.9520   19.7070 N   0  0  0  0  0  0  0  0  0  0  0  0
  -29.9350  -15.7340   20.5320 N   0  0  0  0  0  0  0  0  0  0  0  0
  -31.5730  -19.9780   18.8590 F   0  0  0  0  0  0  0  0  0  0  0  0
  -29.1120  -15.3720   20.9830 H   0  0  0  0  0  0  0  0  0  0  0  0
  -25.3600  -13.8890   20.4470 C   0  0  0  0  0  0  0  0  0  0  0  0
  -24.3160  -13.1060   20.8600 C   0  0  0  0  0  0  0  0  0  0  0  0
  -24.7700  -11.7560   20.7560 C   0  0  0  0  0  0  0  0  0  0  0  0
  -26.3850  -13.0140   20.1180 N   0  0  0  0  0  0  0  0  0  0  0  0
  -26.0380  -11.7240   20.3640 N   0  0  0  0  0  0  0  0  0  0  0  0
  -24.0530  -10.4890   20.9510 C   0  0  0  0  0  0  0  0  0  0  0  0
  -24.5010   -9.5210   21.8760 C   0  0  0  0  0  3  0  0  0  0  0  0
  -23.7840   -8.3190   22.0590 C   0  0  0  0  0  3  0  0  0  0  0  0
  -22.6040   -8.0760   21.3160 C   0  0  0  0  0  0  0  0  0  0  0  0
  -22.1750   -9.0340   20.3800 C   0  0  0  0  0  3  0  0  0  0  0  0
  -22.8930  -10.2260   20.1950 C   0  0  0  0  0  3  0  0  0  0  0  0
  -21.8570   -6.9270   21.4100 O   0  0  0  0  0  0  0  0  0  0  0  0
  -21.7690   -6.2190   22.5810 C   0  0  0  0  0  0  0  0  0  0  0  0
  -21.2750   -6.8000   23.7680 C   0  0  0  0  0  3  0  0  0  0  0  0
  -21.1370   -6.0160   24.9320 C   0  0  0  0  0  3  0  0  0  0  0  0
  -21.4820   -4.6520   24.9080 C   0  0  0  0  0  0  0  0  0  0  0  0
  -21.9700   -4.0700   23.7240 C   0  0  0  0  0  3  0  0  0  0  0  0
  -22.1100   -4.8500   22.5630 C   0  0  0  0  0  0  0  0  0  0  0  0
  -22.5600   -4.2800   21.4200 F   0  0  0  0  0  0  0  0  0  0  0  0
  -21.3430   -3.8970   26.0220 F   0  0  0  0  0  0  0  0  0  0  0  0
  -22.9410  -13.5760   21.2360 C   0  0  0  0  0  0  0  0  0  0  0  0
  -22.2660  -12.8520   22.1220 N   0  0  0  0  0  0  0  0  0  0  0  0
  -22.4760  -14.6200   20.7810 O   0  0  0  0  0  0  0  0  0  0  0  0
  -22.6570  -12.0070   22.5120 H   0  0  0  0  0  0  0  0  0  0  0  0
  -21.3460  -13.1470   22.4160 H   0  0  0  0  0  0  0  0  0  0  0  0
  -25.5180  -15.2640   20.3020 N   0  0  0  0  0  0  0  0  0  0  0  0
  -24.7530  -15.9090   20.4690 H   0  0  0  0  0  0  0  0  0  0  0  0
  -26.3250  -15.7090   19.8850 H   0  0  0  0  0  0  0  0  0  0  0  0
  3  2  1  1
  3  1  1  0
  4  6  1  0
  4  3  1  0
  5  4  2  0
  6  8  1  1
  6  7  1  0
  9 11  1  0
  9  6  1  0
 10 21  2  0
 11 16  1  0
 12 20  1  0
 12 22  1  0
 13 19  1  0
 13 15  1  0
 14 20  1  0
 15 16  2  0
 15 14  1  0
 17 18  1  0
 17 11  2  0
 18 13  2  0
 19 12  1  0
 20 10  1  0
 22 24  2  0
 23 22  1  0
 25 23  1  0
 26 35  2  0
 26 31  1  0
 27 23  1  0
 27 31  1  0
 28 27  1  0
 29 30  1  0
 29 28  1  0
 30 26  1  0
 31 32  2  0
 32 33  1  0
 34 33  2  0
 35 34  1  0
 36 10  1  0
 36 41  1  0
 36 37  1  0
 37 40  1  1
 37 38  1  0
 39 37  1  0
 41 44  1  0
 42 46  1  0
 42 41  1  0
 43 42  2  0
 46 45  1  0
 48 46  1  0
 48 49  1  0
 48 47  1  0
 50 62  1  0
 50  3  1  0
 51 50  1  0
 52 66  1  0
 53 58  1  0
 54 55  1  0
 54 53  1  0
 56 55  1  0
 56 72  1  0
 56 57  1  0
 58 52  1  0
 58 57  1  0
 59 52  2  0
 60 61  1  0
 62 60  2  0
 63 66  1  0
 63 61  2  0
 64 65  2  0
 64 62  1  0
 65 63  1  0
 66 68  1  0
 67 64  1  0
 69 70  2  0
 70 89  1  0
 71 70  1  0
 71 74  1  0
 72 73  1  0
 72 69  1  0
 73 71  2  0
 74 75  1  0
 75 76  2  0
 77 80  1  0
 77 76  1  0
 78 77  2  0
 79 78  1  0
 79 74  2  0
 80 81  1  0
 81 82  1  0
 82 83  2  0
 84 83  1  0
 84 88  1  0
 85 84  2  0
 86 81  2  0
 86 85  1  0
 87 86  1  0
 89 90  1  0
 90 93  1  0
 90 92  1  0
 91 89  2  0
 94 69  1  0
 94 95  1  0
 96 94  1  0
M  ISO  4   6 101   9 101  52 100  66 100
M  END
>  <TORSDO>  (10) 
F 19

>  <SCORE>  (10) 
-13.967

>  <name>  (10) 
10

>  <ligand_id>  (10) 
10

>  <original_smiles>  (10) 
[H]c1c(N([H])C(=O)N2C([H])([H])C([H])([H])C([H])([H])C([H])(n3nc(-c4c([H])c([H])c(Oc5c([H])c([H])c(F)c([H])c5F)c([H])c4[H])c(C(=O)N([H])[H])c3N([H])[H])C2([H])[H])nc(F)c(N([H])C(C(=O)C(F)(F)Oc2c([H])c([H])c3c(c2[H])C([H])([H])N(C(=O)C([H])(N([H])C(=O)C([H])(N([H])C([H])([H])[H])C([H])([H])[H])C(C([H])([H])[H])(C([H])([H])[H])C([H])([H])[H])C([H])(C(=O)N([H])C2([H])c4c([H])c([H])c([H])c([H])c4C([H])([H])C([H])([H])C2([H])[H])C3([H])[H])(C([H])([H])[H])C([H])([H])[H])c1[H]

>  <smiles>  (10) 
[H]c1c(N([H])C(=O)N2C([H])([H])C([H])([H])C([H])([H])C([H])(n3nc(-c4c([H])c([H])c(Oc5c([H])c([H])c(F)c([H])c5F)c([H])c4[H])c(C(=O)N([H])[H])c3N([H])[H])C2([H])[H])nc(F)c(N([H])C(C(=O)C(F)(F)Oc2c([H])c([H])c3c(c2[H])C([H])([H])N(C(=O)C([H])(N([H])C(=O)C([H])(N([H])C([H])([H])[H])C([H])([H])[H])C(C([H])([H])[H])(C([H])([H])[H])C([H])([H])[H])C([H])(C(=O)N([H])C2([H])c4c([H])c([H])c([H])c([H])c4C([H])([H])C([H])([H])C2([H])[H])C3([H])[H])(C([H])([H])[H])C([H])([H])[H])c1[H]

$$$$
11:0:0
     RDKit          3D

 98106  0  0  1  0  0  0  0  0999 V2000
  -27.6790  -20.8300   19.4510 C   0  0  0  0  0  3  0  0  0  0  0  0
  -27.3670  -19.5080   19.0700 C   0  0  0  0  0  0  0  0  0  0  0  0
  -28.1700  -18.4210   19.4810 C   0  0  0  0  0  0  0  0  0  0  0  0
  -29.3220  -18.6480   20.2690 C   0  0  0  0  0  3  0  0  0  0  0  0
  -28.8020  -21.1330   20.2560 C   0  0  0  0  0  0  0  0  0  0  0  0
  -28.5670  -23.7800   20.1460 C   0  0  0  0  0  0  0  0  0  0  0  0
  -29.5720  -19.9990   20.6190 N   0  0  0  0  0  0  0  0  0  0  0  0
  -28.9990  -22.5600   20.7010 N   0  0  0  0  0  0  0  0  0  0  0  0
  -28.2400  -23.8530   18.9530 O   0  0  0  0  0  0  0  0  0  0  0  0
  -27.8160  -17.1640   19.1060 F   0  0  0  0  0  0  0  0  0  0  0  0
  -30.4190  -20.1490   21.1780 H   0  0  0  0  0  0  0  0  0  0  0  0
  -29.4190  -22.6580   21.6080 H   0  0  0  0  0  0  0  0  0  0  0  0
  -30.6910  -14.9420   20.3900 C   0  0  0  0  0  0  0  0  0  0  0  0
  -30.5010  -12.6540   19.3730 C   0  0  0  0  0  2  0  0  0  0  0  0
  -29.5640  -12.6870   18.1460 C   0  0  0  0  0  2  0  0  0  0  0  0
  -28.0960  -12.4980   18.5770 C   0  0  0  0  0  2  0  0  0  0  0  0
  -27.7070  -13.3930   19.7820 C   0  0  0  0  0  3  0  0  0  0  0  0
  -28.7660  -13.3500   20.9030 C   0  0  0  0  0  2  0  0  0  0  0  0
  -30.0510  -13.7210   20.2990 N   0  0  0  0  0  0  0  0  0  0  0  0
  -31.9010  -14.9830   20.1500 O   0  0  0  0  0  0  0  0  0  0  0  0
  -30.2940  -17.4510   20.5890 C   0  0  0  0  0  0  0  0  0  0  0  0
  -29.9180  -16.1050   20.4860 N   0  0  0  0  0  0  0  0  0  0  0  0
  -31.4300  -17.7750   20.9600 O   0  0  0  0  0  0  0  0  0  0  0  0
  -28.9280  -15.9720   20.3670 H   0  0  0  0  0  0  0  0  0  0  0  0
  -25.3230  -13.9730   20.5190 C   0  0  0  0  0  0  0  0  0  0  0  0
  -24.2600  -13.1930   20.8870 C   0  0  0  0  0  0  0  0  0  0  0  0
  -24.7270  -11.8430   20.8480 C   0  0  0  0  0  0  0  0  0  0  0  0
  -26.3670  -13.0970   20.2760 N   0  0  0  0  0  0  0  0  0  0  0  0
  -26.0180  -11.8110   20.5400 N   0  0  0  0  0  0  0  0  0  0  0  0
  -24.0040  -10.5770   21.0280 C   0  0  0  0  0  0  0  0  0  0  0  0
  -24.4160   -9.6200   21.9810 C   0  0  0  0  0  3  0  0  0  0  0  0
  -23.6910   -8.4210   22.1480 C   0  0  0  0  0  3  0  0  0  0  0  0
  -22.5410   -8.1700   21.3620 C   0  0  0  0  0  0  0  0  0  0  0  0
  -22.1500   -9.1160   20.3980 C   0  0  0  0  0  3  0  0  0  0  0  0
  -22.8750  -10.3070   20.2290 C   0  0  0  0  0  3  0  0  0  0  0  0
  -21.7900   -7.0220   21.4360 O   0  0  0  0  0  0  0  0  0  0  0  0
  -21.6820   -6.3080   22.6030 C   0  0  0  0  0  0  0  0  0  0  0  0
  -21.1250   -6.8700   23.7720 C   0  0  0  0  0  3  0  0  0  0  0  0
  -20.9710   -6.0810   24.9280 C   0  0  0  0  0  3  0  0  0  0  0  0
  -21.3620   -4.7280   24.9160 C   0  0  0  0  0  0  0  0  0  0  0  0
  -21.9110   -4.1640   23.7510 C   0  0  0  0  0  3  0  0  0  0  0  0
  -22.0680   -4.9520   22.5970 C   0  0  0  0  0  0  0  0  0  0  0  0
  -22.5780   -4.3980   21.4710 F   0  0  0  0  0  0  0  0  0  0  0  0
  -21.2050   -3.9670   26.0240 F   0  0  0  0  0  0  0  0  0  0  0  0
  -22.8610  -13.6670   21.1540 C   0  0  0  0  0  0  0  0  0  0  0  0
  -22.1250  -12.9550   22.0000 N   0  0  0  0  0  0  0  0  0  0  0  0
  -22.4280  -14.7010   20.6470 O   0  0  0  0  0  0  0  0  0  0  0  0
  -22.4900  -12.1170   22.4280 H   0  0  0  0  0  0  0  0  0  0  0  0
  -21.1850  -13.2490   22.2220 H   0  0  0  0  0  0  0  0  0  0  0  0
  -25.4800  -15.3440   20.3390 N   0  0  0  0  0  0  0  0  0  0  0  0
  -24.6980  -15.9810   20.4410 H   0  0  0  0  0  0  0  0  0  0  0  0
  -26.2800  -15.7690   19.8880 H   0  0  0  0  0  0  0  0  0  0  0  0
  -26.2520  -19.2660   18.2620 N   0  0  0  0  0  0  0  0  0  0  0  0
  -25.4670  -19.8980   18.3570 H   0  0  0  0  0  0  0  0  0  0  0  0
  -25.9690  -18.2950   18.2100 H   0  0  0  0  0  0  0  0  0  0  0  0
  -29.5670  -25.2860   22.0480 C   0  0  0  0  0  1  0  0  0  0  0  0
  -28.4490  -25.1600   21.0020 C   0  0  0  0  0  3  0  0  0  0  0  0
  -28.4670  -26.4980   20.2910 O   0  0  0  0  0  0  0  0  0  0  0  0
  -24.6310  -31.9760   23.2640 C   0  0  0  0  0  0  0  0  0  0  0  0
  -27.3470  -27.3640   20.3180 C   0  0  0  0  0  0  0  0  0  0  0  0
  -23.4780  -30.5480   21.6150 C   0  0  0  0  0  3  0  0  0  0  0  0
  -24.9740  -28.9880   20.2390 C   0  0  0  0  0  0  0  0  0  0  0  0
  -26.0210  -30.8810   21.4800 C   0  0  0  0  0  2  0  0  0  0  0  0
  -26.1310  -29.4880   20.8530 C   0  0  0  0  0  0  0  0  0  0  0  0
  -27.3250  -28.6920   20.8740 C   0  0  0  0  0  3  0  0  0  0  0  0
  -26.1660  -26.9260   19.6860 C   0  0  0  0  0  3  0  0  0  0  0  0
  -24.9980  -27.7160   19.6440 C   0  0  0  0  0  3  0  0  0  0  0  0
  -23.7310  -29.8590   20.2480 C   0  0  0  0  0  2  0  0  0  0  0  0
  -24.7280  -31.1550   22.1770 N   0  0  0  0  0  0  0  0  0  0  0  0
  -23.5320  -32.2480   23.7740 O   0  0  0  0  0  0  0  0  0  0  0  0
  -22.8030  -29.5370   22.5720 C   0  0  0  0  0  0  0  0  0  0  0  0
  -21.4780  -29.3560   22.4320 N   0  0  0  0  0  0  0  0  0  0  0  0
  -23.4720  -28.9180   23.4040 O   0  0  0  0  0  0  0  0  0  0  0  0
  -20.9990  -29.9060   21.7330 H   0  0  0  0  0  0  0  0  0  0  0  0
  -18.0910  -28.1810   22.9350 C   0  0  0  0  0  0  0  0  0  0  0  0
  -20.6540  -28.4170   23.1950 C   0  0  0  0  0  3  0  0  0  0  0  0
  -20.7400  -26.9910   22.6050 C   0  0  0  0  0  2  0  0  0  0  0  0
  -19.6310  -26.6890   21.5920 C   0  0  0  0  0  2  0  0  0  0  0  0
  -18.2530  -26.8380   22.2440 C   0  0  0  0  0  2  0  0  0  0  0  0
  -19.2180  -28.9300   23.3680 C   0  0  0  0  0  0  0  0  0  0  0  0
  -19.0130  -30.1870   23.9770 C   0  0  0  0  0  3  0  0  0  0  0  0
  -17.7130  -30.6970   24.1530 C   0  0  0  0  0  3  0  0  0  0  0  0
  -16.6000  -29.9450   23.7360 C   0  0  0  0  0  3  0  0  0  0  0  0
  -16.7910  -28.6880   23.1340 C   0  0  0  0  0  3  0  0  0  0  0  0
  -25.8910  -32.6320   23.9090 C   0  0  0  0  0  3  0  0  0  0  0  0
  -25.5580  -34.0300   24.2180 N   0  0  0  0  0  0  0  0  0  0  0  0
  -25.8890  -35.0800   23.4550 C   0  0  0  0  0  0  0  0  0  0  0  0
  -26.5770  -34.9750   22.4360 O   0  0  0  0  0  0  0  0  0  0  0  0
  -24.9490  -34.1860   25.0080 H   0  0  0  0  0  0  0  0  0  0  0  0
  -24.1610  -36.8610   23.0430 C   0  0  0  0  0  1  0  0  0  0  0  0
  -25.3800  -36.4670   23.8920 C   0  0  0  0  0  3  0  0  0  0  0  0
  -27.4750  -37.3780   24.7930 C   0  0  0  0  0  1  0  0  0  0  0  0
  -26.4090  -37.5270   23.8060 N   0  0  0  0  0  0  0  0  0  0  0  0
  -25.9910  -38.4460   23.9280 H   0  0  0  0  0  0  0  0  0  0  0  0
  -26.3870  -31.8810   25.2050 C   0  0  1  0  0  0  0  0  0  0  0  0
  -25.2710  -31.6370   26.2460 C   0  0  0  0  0  1  0  0  0  0  0  0
  -27.0030  -30.5090   24.8420 C   0  0  0  0  0  1  0  0  0  0  0  0
  -27.5090  -32.6990   25.8880 C   0  0  0  0  0  1  0  0  0  0  0  0
  1  5  2  0
  2  1  1  0
  2  3  2  0
  3  4  1  0
  4 21  1  0
  4  7  1  0
  5  7  1  0
  5  8  1  0
  6  8  1  0
  6 57  1  0
  7 11  1  0
  8 12  1  0
  9  6  2  0
 10  3  1  0
 13 22  1  0
 14 19  1  0
 15 16  1  0
 15 14  1  0
 17 16  1  0
 17 28  1  0
 17 18  1  0
 19 13  1  0
 19 18  1  0
 20 13  2  0
 21 23  2  0
 22 21  1  0
 24 22  1  0
 25 26  2  0
 26 45  1  0
 27 26  1  0
 27 30  1  0
 28 25  1  0
 28 29  1  0
 29 27  2  0
 30 31  1  0
 31 32  2  0
 33 36  1  0
 33 32  1  0
 34 33  2  0
 35 34  1  0
 35 30  2  0
 36 37  1  0
 37 38  1  0
 38 39  2  0
 40 39  1  0
 40 44  1  0
 41 40  2  0
 42 37  2  0
 42 41  1  0
 43 42  1  0
 45 46  1  0
 46 49  1  0
 46 48  1  0
 47 45  2  0
 50 51  1  0
 50 25  1  0
 52 50  1  0
 53 54  1  0
 53  2  1  0
 55 53  1  0
 57 56  1  0
 58 60  1  0
 58 57  1  0
 59 70  2  0
 60 65  1  0
 61 69  1  0
 61 71  1  0
 62 68  1  0
 62 64  1  0
 63 69  1  0
 64 65  2  0
 64 63  1  0
 66 60  2  0
 67 66  1  0
 67 62  2  0
 68 61  1  0
 69 59  1  0
 71 73  2  0
 72 71  1  0
 74 72  1  0
 75 84  2  0
 75 80  1  0
 76 72  1  0
 76 80  1  0
 77 76  1  0
 78 79  1  0
 78 77  1  0
 79 75  1  0
 80 81  2  0
 81 82  1  0
 83 82  2  0
 84 83  1  0
 85 59  1  0
 85 86  1  0
 85 95  1  0
 86 89  1  0
 87 91  1  0
 87 86  1  0
 88 87  2  0
 91 90  1  0
 93 91  1  0
 93 94  1  0
 93 92  1  0
 95 98  1  1
 95 96  1  0
 97 95  1  0
M  ISO  4  13 100  22 100  57 101  58 101
M  END
>  <TORSDO>  (11) 
F 18

>  <SCORE>  (11) 
-15.017

>  <name>  (11) 
11

>  <ligand_id>  (11) 
11

>  <original_smiles>  (11) 
[H]c1c([H])c([H])c2c(c1[H])C([H])([H])C([H])([H])C([H])([H])C2([H])N([H])C(=O)C1([H])N(C(=O)C([H])(N([H])C(=O)C([H])(N([H])C([H])([H])[H])C([H])([H])[H])C(C([H])([H])[H])(C([H])([H])[H])C([H])([H])[H])C([H])([H])c2c([H])c(OC([H])(C(=O)N([H])c3c([H])c(N([H])[H])c(F)c(C(=O)N([H])C(=O)N4C([H])([H])C([H])([H])C([H])([H])C([H])(n5nc(-c6c([H])c([H])c(Oc7c([H])c([H])c(F)c([H])c7F)c([H])c6[H])c(C(=O)N([H])[H])c5N([H])[H])C4([H])[H])[n+]3[H])C([H])([H])[H])c([H])c([H])c2C1([H])[H]

>  <smiles>  (11) 
[H]c1c([H])c([H])c2c(c1[H])C([H])([H])C([H])([H])C([H])([H])C2([H])N([H])C(=O)C1([H])N(C(=O)C([H])(N([H])C(=O)C([H])(N([H])C([H])([H])[H])C([H])([H])[H])C(C([H])([H])[H])(C([H])([H])[H])C([H])([H])[H])C([H])([H])c2c([H])c(OC([H])(C(=O)N([H])c3c([H])c(N([H])[H])c(F)c(C(=O)N([H])C(=O)N4C([H])([H])C([H])([H])C([H])([H])C([H])(n5nc(-c6c([H])c([H])c(Oc7c([H])c([H])c(F)c([H])c7F)c([H])c6[H])c(C(=O)N([H])[H])c5N([H])[H])C4([H])[H])[n+]3[H])C([H])([H])[H])c([H])c([H])c2C1([H])[H]

$$$$
12:0:0
     RDKit          3D

 92100  0  0  1  0  0  0  0  0999 V2000
  -29.1800  -21.6170   20.8140 C   0  0  0  0  0  0  0  0  0  0  0  0
  -29.7990  -21.7030   21.8820 O   0  0  0  0  0  0  0  0  0  0  0  0
  -28.0920  -19.5420   19.4100 C   0  0  0  0  0  3  0  0  0  0  0  0
  -28.2740  -18.1010   19.3440 C   0  0  0  0  0  0  0  0  0  0  0  0
  -28.9890  -20.0930   20.3030 C   0  0  0  0  0  0  0  0  0  0  0  0
  -29.3170  -17.6480   20.1390 C   0  0  0  0  0  0  0  0  0  0  0  0
  -29.7200  -18.8950   20.7900 O   0  0  0  0  0  0  0  0  0  0  0  0
  -27.4640  -17.2860   18.6200 F   0  0  0  0  0  0  0  0  0  0  0  0
  -30.3790  -15.1240   20.2180 C   0  0  0  0  0  0  0  0  0  0  0  0
  -30.3850  -12.7310   19.3170 C   0  0  0  0  0  2  0  0  0  0  0  0
  -29.4440  -12.6320   18.0930 C   0  0  0  0  0  2  0  0  0  0  0  0
  -27.9890  -12.3890   18.5410 C   0  0  0  0  0  2  0  0  0  0  0  0
  -27.5690  -13.3250   19.7050 C   0  0  0  0  0  3  0  0  0  0  0  0
  -28.6270  -13.3470   20.8220 C   0  0  0  0  0  2  0  0  0  0  0  0
  -29.8780  -13.8170   20.2090 N   0  0  0  0  0  0  0  0  0  0  0  0
  -31.5690  -15.2430   19.8930 O   0  0  0  0  0  0  0  0  0  0  0  0
  -29.5050  -16.2430   20.4960 N   0  0  0  0  0  0  0  0  0  0  0  0
  -28.6240  -15.8460   20.7760 H   0  0  0  0  0  0  0  0  0  0  0  0
  -25.2090  -13.8930   20.5150 C   0  0  0  0  0  0  0  0  0  0  0  0
  -24.1510  -13.1050   20.8670 C   0  0  0  0  0  0  0  0  0  0  0  0
  -24.6200  -11.7570   20.8130 C   0  0  0  0  0  0  0  0  0  0  0  0
  -26.2470  -13.0210   20.2290 N   0  0  0  0  0  0  0  0  0  0  0  0
  -25.9030  -11.7290   20.4760 N   0  0  0  0  0  0  0  0  0  0  0  0
  -23.9030  -10.4910   21.0120 C   0  0  0  0  0  0  0  0  0  0  0  0
  -24.3510   -9.5210   21.9370 C   0  0  0  0  0  3  0  0  0  0  0  0
  -23.6240   -8.3260   22.1270 C   0  0  0  0  0  3  0  0  0  0  0  0
  -22.4380   -8.0940   21.3910 C   0  0  0  0  0  0  0  0  0  0  0  0
  -22.0110   -9.0510   20.4550 C   0  0  0  0  0  3  0  0  0  0  0  0
  -22.7370  -10.2360   20.2630 C   0  0  0  0  0  3  0  0  0  0  0  0
  -21.6830   -6.9540   21.4880 O   0  0  0  0  0  0  0  0  0  0  0  0
  -21.6590   -6.2040   22.6340 C   0  0  0  0  0  0  0  0  0  0  0  0
  -21.2660   -6.7530   23.8750 C   0  0  0  0  0  3  0  0  0  0  0  0
  -21.1880   -5.9300   25.0170 C   0  0  0  0  0  3  0  0  0  0  0  0
  -21.4980   -4.5580   24.9180 C   0  0  0  0  0  0  0  0  0  0  0  0
  -21.8870   -4.0090   23.6830 C   0  0  0  0  0  3  0  0  0  0  0  0
  -21.9650   -4.8310   22.5440 C   0  0  0  0  0  0  0  0  0  0  0  0
  -22.3210   -4.2950   21.3520 F   0  0  0  0  0  0  0  0  0  0  0  0
  -21.4140   -3.7650   26.0120 F   0  0  0  0  0  0  0  0  0  0  0  0
  -22.7510  -13.5680   21.1440 C   0  0  0  0  0  0  0  0  0  0  0  0
  -22.0340  -12.8720   22.0180 N   0  0  0  0  0  0  0  0  0  0  0  0
  -22.3060  -14.5910   20.6210 O   0  0  0  0  0  0  0  0  0  0  0  0
  -22.4100  -12.0430   22.4540 H   0  0  0  0  0  0  0  0  0  0  0  0
  -21.1000  -13.1670   22.2650 H   0  0  0  0  0  0  0  0  0  0  0  0
  -25.3340  -15.2780   20.4010 N   0  0  0  0  0  0  0  0  0  0  0  0
  -24.4670  -15.7940   20.4830 H   0  0  0  0  0  0  0  0  0  0  0  0
  -26.1100  -15.8790   20.1450 H   0  0  0  0  0  0  0  0  0  0  0  0
  -28.7750  -23.1850   20.1140 C   0  0  0  0  0  0  0  0  0  0  0  0
  -28.9400  -23.2890   18.8910 O   0  0  0  0  0  0  0  0  0  0  0  0
  -29.0070  -24.8190   22.1950 C   0  0  0  0  0  1  0  0  0  0  0  0
  -26.7460  -24.2430   21.2760 C   0  0  0  0  0  1  0  0  0  0  0  0
  -28.2000  -24.5900   20.8900 C   0  0  2  0  0  0  0  0  0  0  0  0
  -28.2820  -26.0630   20.2500 O   0  0  0  0  0  0  0  0  0  0  0  0
  -24.6480  -31.8710   23.2210 C   0  0  0  0  0  0  0  0  0  0  0  0
  -27.2450  -27.0990   20.2450 C   0  0  0  0  0  0  0  0  0  0  0  0
  -23.4670  -30.4710   21.5760 C   0  0  0  0  0  3  0  0  0  0  0  0
  -24.9270  -28.8900   20.1700 C   0  0  0  0  0  0  0  0  0  0  0  0
  -26.0220  -30.7240   21.4330 C   0  0  0  0  0  2  0  0  0  0  0  0
  -26.1010  -29.3180   20.8010 C   0  0  0  0  0  0  0  0  0  0  0  0
  -27.2570  -28.4410   20.8280 C   0  0  0  0  0  3  0  0  0  0  0  0
  -26.0700  -26.8210   19.5160 C   0  0  0  0  0  3  0  0  0  0  0  0
  -24.9250  -27.6510   19.5120 C   0  0  0  0  0  3  0  0  0  0  0  0
  -23.7020  -29.7890   20.2000 C   0  0  0  0  0  2  0  0  0  0  0  0
  -24.7330  -31.0470   22.1310 N   0  0  0  0  0  0  0  0  0  0  0  0
  -23.5560  -32.1480   23.7440 O   0  0  0  0  0  0  0  0  0  0  0  0
  -22.7830  -29.4650   22.5390 C   0  0  0  0  0  0  0  0  0  0  0  0
  -21.4530  -29.3000   22.4210 N   0  0  0  0  0  0  0  0  0  0  0  0
  -23.4510  -28.8360   23.3630 O   0  0  0  0  0  0  0  0  0  0  0  0
  -20.9680  -29.8490   21.7190 H   0  0  0  0  0  0  0  0  0  0  0  0
  -18.0710  -28.1060   22.9430 C   0  0  0  0  0  0  0  0  0  0  0  0
  -20.6320  -28.3690   23.1980 C   0  0  0  0  0  3  0  0  0  0  0  0
  -20.7380  -26.9360   22.6260 C   0  0  0  0  0  2  0  0  0  0  0  0
  -19.6300  -26.6140   21.6180 C   0  0  0  0  0  2  0  0  0  0  0  0
  -18.2450  -26.7610   22.2580 C   0  0  0  0  0  2  0  0  0  0  0  0
  -19.1920  -28.8680   23.3700 C   0  0  0  0  0  0  0  0  0  0  0  0
  -18.9730  -30.1280   23.9700 C   0  0  0  0  0  3  0  0  0  0  0  0
  -17.6700  -30.6230   24.1530 C   0  0  0  0  0  3  0  0  0  0  0  0
  -16.5640  -29.8640   23.7350 C   0  0  0  0  0  3  0  0  0  0  0  0
  -16.7650  -28.6070   23.1350 C   0  0  0  0  0  3  0  0  0  0  0  0
  -25.9180  -32.5200   23.8480 C   0  0  0  0  0  3  0  0  0  0  0  0
  -26.4140  -31.7660   25.1410 C   0  0  1  0  0  0  0  0  0  0  0  0
  -25.2990  -31.5470   26.1920 C   0  0  0  0  0  1  0  0  0  0  0  0
  -26.9990  -30.3830   24.7750 C   0  0  0  0  0  1  0  0  0  0  0  0
  -27.5630  -32.5550   25.8040 C   0  0  0  0  0  1  0  0  0  0  0  0
  -25.5950  -33.9220   24.1740 N   0  0  0  0  0  0  0  0  0  0  0  0
  -25.9270  -34.9790   23.4200 C   0  0  0  0  0  0  0  0  0  0  0  0
  -26.6060  -34.8780   22.3940 O   0  0  0  0  0  0  0  0  0  0  0  0
  -25.0000  -34.0750   24.9700 H   0  0  0  0  0  0  0  0  0  0  0  0
  -24.1970  -36.7700   23.0620 C   0  0  0  0  0  1  0  0  0  0  0  0
  -25.4350  -36.3670   23.8810 C   0  0  0  0  0  3  0  0  0  0  0  0
  -27.5630  -37.2500   24.7220 C   0  0  0  0  0  1  0  0  0  0  0  0
  -26.4700  -37.4220   23.7710 N   0  0  0  0  0  0  0  0  0  0  0  0
  -26.0660  -38.3410   23.9230 H   0  0  0  0  0  0  0  0  0  0  0  0
  1  2  2  0
  3  5  2  0
  4  3  1  0
  4  6  2  0
  5  7  1  0
  5  1  1  0
  6 17  1  0
  6  7  1  0
  8  4  1  0
  9 17  1  0
 10 15  1  0
 11 12  1  0
 11 10  1  0
 13 12  1  0
 13 22  1  0
 13 14  1  0
 15  9  1  0
 15 14  1  0
 16  9  2  0
 17 18  1  0
 19 20  2  0
 20 39  1  0
 21 20  1  0
 21 24  1  0
 22 23  1  0
 22 19  1  0
 23 21  2  0
 24 25  1  0
 25 26  2  0
 27 30  1  0
 27 26  1  0
 28 27  2  0
 29 28  1  0
 29 24  2  0
 30 31  1  0
 31 32  1  0
 32 33  2  0
 34 33  1  0
 34 38  1  0
 35 34  2  0
 36 31  2  0
 36 35  1  0
 37 36  1  0
 39 40  1  0
 40 43  1  0
 40 42  1  0
 41 39  2  0
 44 45  1  0
 44 19  1  0
 46 44  1  0
 47  1  1  0
 47 51  1  0
 48 47  2  0
 51 50  1  1
 51 49  1  0
 52 51  1  0
 53 64  2  0
 54 52  1  0
 54 59  1  0
 55 63  1  0
 55 65  1  0
 56 62  1  0
 56 58  1  0
 57 63  1  0
 58 59  2  0
 58 57  1  0
 60 54  2  0
 61 60  1  0
 61 56  2  0
 62 55  1  0
 63 53  1  0
 65 67  2  0
 66 65  1  0
 68 66  1  0
 69 78  2  0
 69 74  1  0
 70 66  1  0
 70 74  1  0
 71 70  1  0
 72 73  1  0
 72 71  1  0
 73 69  1  0
 74 75  2  0
 75 76  1  0
 77 76  2  0
 78 77  1  0
 79 53  1  0
 79 84  1  0
 79 80  1  0
 80 83  1  1
 80 81  1  0
 82 80  1  0
 84 87  1  0
 85 89  1  0
 85 84  1  0
 86 85  2  0
 89 88  1  0
 91 89  1  0
 91 92  1  0
 91 90  1  0
M  ISO  4   9 100  17 100  51 101  52 101
M  END
>  <TORSDO>  (12) 
F 19

>  <SCORE>  (12) 
-15.654

>  <name>  (12) 
12

>  <ligand_id>  (12) 
12

>  <original_smiles>  (12) 
[H]c1c([H])c([H])c2c(c1[H])C([H])([H])C([H])([H])C([H])([H])C2([H])N([H])C(=O)C1([H])N(C(=O)C([H])(N([H])C(=O)C([H])(N([H])C([H])([H])[H])C([H])([H])[H])C(C([H])([H])[H])(C([H])([H])[H])C([H])([H])[H])C([H])([H])c2c([H])c(OC(C(=O)C(=O)c3oc(N([H])C(=O)N4C([H])([H])C([H])([H])C([H])([H])C([H])(n5nc(-c6c([H])c([H])c(Oc7c([H])c([H])c(F)c([H])c7F)c([H])c6[H])c(C(=O)N([H])[H])c5N([H])[H])C4([H])[H])c(F)c3[H])(C([H])([H])[H])C([H])([H])[H])c([H])c([H])c2C1([H])[H]

>  <smiles>  (12) 
[H]c1c([H])c([H])c2c(c1[H])C([H])([H])C([H])([H])C([H])([H])C2([H])N([H])C(=O)C1([H])N(C(=O)C([H])(N([H])C(=O)C([H])(N([H])C([H])([H])[H])C([H])([H])[H])C(C([H])([H])[H])(C([H])([H])[H])C([H])([H])[H])C([H])([H])c2c([H])c(OC(C(=O)C(=O)c3oc(N([H])C(=O)N4C([H])([H])C([H])([H])C([H])([H])C([H])(n5nc(-c6c([H])c([H])c(Oc7c([H])c([H])c(F)c([H])c7F)c([H])c6[H])c(C(=O)N([H])[H])c5N([H])[H])C4([H])[H])c(F)c3[H])(C([H])([H])[H])C([H])([H])[H])c([H])c([H])c2C1([H])[H]

$$$$
13:0:0
     RDKit          3D

 95103  0  0  1  0  0  0  0  0999 V2000
  -29.1300  -23.8600   20.6060 C   0  0  0  0  0  0  0  0  0  0  0  0
  -28.9520  -22.5010   20.3460 N   0  0  0  0  0  0  0  0  0  0  0  0
  -30.0820  -24.2390   21.2960 O   0  0  0  0  0  0  0  0  0  0  0  0
  -28.1720  -22.3120   19.7310 H   0  0  0  0  0  0  0  0  0  0  0  0
  -28.0400  -24.9300   20.0850 C   0  0  2  0  0  0  0  0  0  0  0  0
  -26.9060  -24.5720   20.7430 F   0  0  0  0  0  0  0  0  0  0  0  0
  -27.8490  -24.6640   18.7690 F   0  0  0  0  0  0  0  0  0  0  0  0
  -28.2760  -26.3270   20.2640 O   0  0  0  0  0  0  0  0  0  0  0  0
  -24.6150  -31.8770   23.2220 C   0  0  0  0  0  0  0  0  0  0  0  0
  -27.2010  -27.2570   20.1600 C   0  0  0  0  0  0  0  0  0  0  0  0
  -23.4060  -30.4800   21.5880 C   0  0  0  0  0  3  0  0  0  0  0  0
  -24.8500  -28.9310   20.1500 C   0  0  0  0  0  0  0  0  0  0  0  0
  -25.9510  -30.7800   21.3980 C   0  0  0  0  0  2  0  0  0  0  0  0
  -26.0230  -29.3970   20.7500 C   0  0  0  0  0  0  0  0  0  0  0  0
  -27.2000  -28.5720   20.7490 C   0  0  0  0  0  3  0  0  0  0  0  0
  -26.0030  -26.8860   19.5020 C   0  0  0  0  0  3  0  0  0  0  0  0
  -24.8450  -27.6840   19.5120 C   0  0  0  0  0  3  0  0  0  0  0  0
  -23.6160  -29.8100   20.2060 C   0  0  0  0  0  2  0  0  0  0  0  0
  -24.6770  -31.0650   22.1260 N   0  0  0  0  0  0  0  0  0  0  0  0
  -23.5330  -32.1580   23.7580 O   0  0  0  0  0  0  0  0  0  0  0  0
  -22.7390  -29.4670   22.5490 C   0  0  0  0  0  0  0  0  0  0  0  0
  -21.4100  -29.3020   22.4310 N   0  0  0  0  0  0  0  0  0  0  0  0
  -23.4160  -28.8330   23.3620 O   0  0  0  0  0  0  0  0  0  0  0  0
  -20.9200  -29.8660   21.7490 H   0  0  0  0  0  0  0  0  0  0  0  0
  -18.0280  -28.1220   22.9540 C   0  0  0  0  0  0  0  0  0  0  0  0
  -20.5910  -28.3680   23.2060 C   0  0  0  0  0  3  0  0  0  0  0  0
  -20.6770  -26.9360   22.6270 C   0  0  0  0  0  2  0  0  0  0  0  0
  -19.5660  -26.6230   21.6200 C   0  0  0  0  0  2  0  0  0  0  0  0
  -18.1910  -26.7750   22.2730 C   0  0  0  0  0  2  0  0  0  0  0  0
  -19.1540  -28.8780   23.3780 C   0  0  0  0  0  0  0  0  0  0  0  0
  -18.9430  -30.1420   23.9730 C   0  0  0  0  0  3  0  0  0  0  0  0
  -17.6400  -30.6470   24.1490 C   0  0  0  0  0  3  0  0  0  0  0  0
  -16.5300  -29.8890   23.7370 C   0  0  0  0  0  3  0  0  0  0  0  0
  -16.7250  -28.6290   23.1470 C   0  0  0  0  0  3  0  0  0  0  0  0
  -25.8980  -32.5080   23.8440 C   0  0  0  0  0  3  0  0  0  0  0  0
  -26.4150  -31.7300   25.1160 C   0  0  1  0  0  0  0  0  0  0  0  0
  -25.3240  -31.4960   26.1870 C   0  0  0  0  0  1  0  0  0  0  0  0
  -26.9890  -30.3530   24.7160 C   0  0  0  0  0  1  0  0  0  0  0  0
  -27.5750  -32.5150   25.7720 C   0  0  0  0  0  1  0  0  0  0  0  0
  -25.5920  -33.9050   24.1840 N   0  0  0  0  0  0  0  0  0  0  0  0
  -25.9190  -34.9610   23.4280 C   0  0  0  0  0  0  0  0  0  0  0  0
  -26.5790  -34.8600   22.3910 O   0  0  0  0  0  0  0  0  0  0  0  0
  -25.0040  -34.0580   24.9900 H   0  0  0  0  0  0  0  0  0  0  0  0
  -24.1850  -36.7490   23.0980 C   0  0  0  0  0  1  0  0  0  0  0  0
  -25.4370  -36.3490   23.8930 C   0  0  0  0  0  3  0  0  0  0  0  0
  -27.5870  -37.2240   24.6960 C   0  0  0  0  0  1  0  0  0  0  0  0
  -26.4690  -37.4010   23.7710 N   0  0  0  0  0  0  0  0  0  0  0  0
  -26.0670  -38.3210   23.9350 H   0  0  0  0  0  0  0  0  0  0  0  0
  -29.5430  -21.2650   21.0320 C   0  0  0  0  0  2  0  0  0  0  0  0
  -29.6800  -18.5500   20.8370 C   0  0  0  0  0  3  0  0  0  0  0  0
  -30.7070  -17.5020   18.9070 C   0  0  0  0  0  3  0  0  0  0  0  0
  -29.8680  -19.8900   20.2800 C   0  0  0  0  0  0  0  0  0  0  0  0
  -30.1060  -17.3190   20.1750 C   0  0  0  0  0  0  0  0  0  0  0  0
  -30.9010  -18.7810   18.3470 C   0  0  0  0  0  0  0  0  0  0  0  0
  -30.5030  -19.9530   19.0210 C   0  0  0  0  0  0  0  0  0  0  0  0
  -31.4870  -18.8830   17.1300 F   0  0  0  0  0  0  0  0  0  0  0  0
  -30.7600  -21.1540   18.4510 F   0  0  0  0  0  0  0  0  0  0  0  0
  -30.6050  -14.7590   20.3540 C   0  0  0  0  0  0  0  0  0  0  0  0
  -30.3620  -12.4870   19.3490 C   0  0  0  0  0  2  0  0  0  0  0  0
  -29.4210  -12.5590   18.1270 C   0  0  0  0  0  2  0  0  0  0  0  0
  -27.9550  -12.3860   18.5690 C   0  0  0  0  0  2  0  0  0  0  0  0
  -27.5880  -13.2840   19.7800 C   0  0  0  0  0  3  0  0  0  0  0  0
  -28.6520  -13.2040   20.9000 C   0  0  0  0  0  2  0  0  0  0  0  0
  -29.9510  -13.5460   20.3060 N   0  0  0  0  0  0  0  0  0  0  0  0
  -31.7780  -14.8220   19.9770 O   0  0  0  0  0  0  0  0  0  0  0  0
  -29.9070  -15.9240   20.6770 N   0  0  0  0  0  0  0  0  0  0  0  0
  -29.0570  -15.7720   21.2010 H   0  0  0  0  0  0  0  0  0  0  0  0
  -25.2040  -13.8840   20.5090 C   0  0  0  0  0  0  0  0  0  0  0  0
  -24.1360  -13.1150   20.8840 C   0  0  0  0  0  0  0  0  0  0  0  0
  -24.5920  -11.7620   20.8580 C   0  0  0  0  0  0  0  0  0  0  0  0
  -26.2430  -12.9990   20.2750 N   0  0  0  0  0  0  0  0  0  0  0  0
  -25.8820  -11.7180   20.5460 N   0  0  0  0  0  0  0  0  0  0  0  0
  -23.8590  -10.5040   21.0540 C   0  0  0  0  0  0  0  0  0  0  0  0
  -24.3020   -9.5290   21.9740 C   0  0  0  0  0  3  0  0  0  0  0  0
  -23.5720   -8.3360   22.1610 C   0  0  0  0  0  3  0  0  0  0  0  0
  -22.3840   -8.1090   21.4270 C   0  0  0  0  0  0  0  0  0  0  0  0
  -21.9580   -9.0730   20.4950 C   0  0  0  0  0  3  0  0  0  0  0  0
  -22.6880  -10.2570   20.3070 C   0  0  0  0  0  3  0  0  0  0  0  0
  -21.6220   -6.9700   21.5230 O   0  0  0  0  0  0  0  0  0  0  0  0
  -21.6040   -6.2100   22.6650 C   0  0  0  0  0  0  0  0  0  0  0  0
  -21.2380   -6.7530   23.9160 C   0  0  0  0  0  3  0  0  0  0  0  0
  -21.1660   -5.9210   25.0510 C   0  0  0  0  0  3  0  0  0  0  0  0
  -21.4500   -4.5470   24.9370 C   0  0  0  0  0  0  0  0  0  0  0  0
  -21.8110   -4.0030   23.6910 C   0  0  0  0  0  3  0  0  0  0  0  0
  -21.8850   -4.8330   22.5590 C   0  0  0  0  0  0  0  0  0  0  0  0
  -22.2110   -4.3000   21.3560 F   0  0  0  0  0  0  0  0  0  0  0  0
  -21.3740   -3.7460   26.0260 F   0  0  0  0  0  0  0  0  0  0  0  0
  -22.7410  -13.5990   21.1570 C   0  0  0  0  0  0  0  0  0  0  0  0
  -22.0130  -12.9120   22.0310 N   0  0  0  0  0  0  0  0  0  0  0  0
  -22.3060  -14.6240   20.6340 O   0  0  0  0  0  0  0  0  0  0  0  0
  -22.3780  -12.0830   22.4760 H   0  0  0  0  0  0  0  0  0  0  0  0
  -21.0780  -13.2180   22.2550 H   0  0  0  0  0  0  0  0  0  0  0  0
  -25.3750  -15.2530   20.3240 N   0  0  0  0  0  0  0  0  0  0  0  0
  -24.6110  -15.9130   20.4160 H   0  0  0  0  0  0  0  0  0  0  0  0
  -26.2230  -15.6770   19.9710 H   0  0  0  0  0  0  0  0  0  0  0  0
  1  3  2  0
  2  1  1  0
  2 49  1  0
  4  2  1  0
  5  8  1  0
  5  1  1  0
  5  6  1  1
  7  5  1  0
  9 20  2  0
 10  8  1  0
 10 15  1  0
 11 19  1  0
 11 21  1  0
 12 18  1  0
 12 14  1  0
 13 19  1  0
 14 13  1  0
 15 14  2  0
 16 17  1  0
 16 10  2  0
 17 12  2  0
 18 11  1  0
 19  9  1  0
 21 23  2  0
 22 21  1  0
 24 22  1  0
 25 34  2  0
 25 30  1  0
 26 22  1  0
 26 30  1  0
 27 26  1  0
 28 29  1  0
 28 27  1  0
 29 25  1  0
 30 31  2  0
 31 32  1  0
 33 32  2  0
 34 33  1  0
 35  9  1  0
 35 40  1  0
 35 36  1  0
 36 39  1  1
 36 37  1  0
 38 36  1  0
 40 43  1  0
 41 45  1  0
 41 40  1  0
 42 41  2  0
 45 44  1  0
 47 45  1  0
 47 48  1  0
 47 46  1  0
 51 53  1  0
 52 50  1  0
 52 49  1  0
 53 66  1  0
 53 50  2  0
 54 51  2  0
 54 55  1  0
 55 52  2  0
 56 54  1  0
 57 55  1  0
 58 66  1  0
 59 64  1  0
 60 61  1  0
 60 59  1  0
 62 61  1  0
 62 71  1  0
 62 63  1  0
 64 58  1  0
 64 63  1  0
 65 58  2  0
 66 67  1  0
 68 69  2  0
 69 88  1  0
 70 69  1  0
 70 73  1  0
 71 68  1  0
 71 72  1  0
 72 70  2  0
 73 74  1  0
 74 75  2  0
 76 79  1  0
 76 75  1  0
 77 76  2  0
 78 77  1  0
 78 73  2  0
 79 80  1  0
 80 81  1  0
 81 82  2  0
 83 82  1  0
 83 87  1  0
 84 83  2  0
 85 80  2  0
 85 84  1  0
 86 85  1  0
 88 89  1  0
 89 92  1  0
 89 91  1  0
 90 88  2  0
 93 94  1  0
 93 68  1  0
 95 93  1  0
M  ISO  4   5 101   8 101  58 100  66 100
M  END
>  <TORSDO>  (13) 
F 19

>  <SCORE>  (13) 
-14.402

>  <name>  (13) 
13

>  <ligand_id>  (13) 
13

>  <original_smiles>  (13) 
[H]c1c([H])c([H])c2c(c1[H])C([H])([H])C([H])([H])C([H])([H])C2([H])N([H])C(=O)C1([H])N(C(=O)C([H])(N([H])C(=O)C([H])(N([H])C([H])([H])[H])C([H])([H])[H])C(C([H])([H])[H])(C([H])([H])[H])C([H])([H])[H])C([H])([H])c2c([H])c(OC(F)(F)C(=O)N([H])C([H])([H])c3c([H])c(N([H])C(=O)N4C([H])([H])C([H])([H])C([H])([H])C([H])(n5nc(-c6c([H])c([H])c(Oc7c([H])c([H])c(F)c([H])c7F)c([H])c6[H])c(C(=O)N([H])[H])c5N([H])[H])C4([H])[H])c([H])c(F)c3F)c([H])c([H])c2C1([H])[H]

>  <smiles>  (13) 
[H]c1c([H])c([H])c2c(c1[H])C([H])([H])C([H])([H])C([H])([H])C2([H])N([H])C(=O)C1([H])N(C(=O)C([H])(N([H])C(=O)C([H])(N([H])C([H])([H])[H])C([H])([H])[H])C(C([H])([H])[H])(C([H])([H])[H])C([H])([H])[H])C([H])([H])c2c([H])c(OC(F)(F)C(=O)N([H])C([H])([H])c3c([H])c(N([H])C(=O)N4C([H])([H])C([H])([H])C([H])([H])C([H])(n5nc(-c6c([H])c([H])c(Oc7c([H])c([H])c(F)c([H])c7F)c([H])c6[H])c(C(=O)N([H])[H])c5N([H])[H])C4([H])[H])c([H])c(F)c3F)c([H])c([H])c2C1([H])[H]

$$$$
14:0:0
     RDKit          3D

 96104  0  0  1  0  0  0  0  0999 V2000
  -30.4300  -18.0260   21.5000 C   0  0  0  0  0  0  0  0  0  0  0  0
  -30.2090  -17.6310   20.1880 C   0  0  0  0  0  0  0  0  0  0  0  0
  -29.6970  -19.9800   20.0500 C   0  0  0  0  0  0  0  0  0  0  0  0
  -28.9140  -22.4820   20.0450 C   0  0  0  0  0  0  0  0  0  0  0  0
  -29.7800  -18.7710   19.3890 N   0  0  0  0  0  0  0  0  0  0  0  0
  -29.3640  -21.3030   19.4490 N   0  0  0  0  0  0  0  0  0  0  0  0
  -28.4240  -22.4430   21.1770 O   0  0  0  0  0  0  0  0  0  0  0  0
  -30.1600  -19.7630   21.7400 S   0  0  0  0  0  0  0  0  0  0  0  0
  -29.5840  -21.3990   18.4690 H   0  0  0  0  0  0  0  0  0  0  0  0
  -30.9640  -15.1030   19.8420 C   0  0  0  0  0  0  0  0  0  0  0  0
  -30.8010  -12.7420   19.0100 C   0  0  0  0  0  2  0  0  0  0  0  0
  -29.8380  -12.6930   17.8040 C   0  0  0  0  0  2  0  0  0  0  0  0
  -28.3760  -12.5440   18.2730 C   0  0  0  0  0  2  0  0  0  0  0  0
  -28.0120  -13.5320   19.4110 C   0  0  0  0  0  3  0  0  0  0  0  0
  -29.0860  -13.5440   20.5160 C   0  0  0  0  0  2  0  0  0  0  0  0
  -30.3660  -13.8620   19.8690 N   0  0  0  0  0  0  0  0  0  0  0  0
  -32.1630  -15.2060   19.5600 O   0  0  0  0  0  0  0  0  0  0  0  0
  -30.1010  -16.1960   19.8100 N   0  0  0  0  0  0  0  0  0  0  0  0
  -29.1450  -15.8910   19.7360 H   0  0  0  0  0  0  0  0  0  0  0  0
  -25.6680  -14.2000   20.2110 C   0  0  0  0  0  0  0  0  0  0  0  0
  -24.5910  -13.4620   20.6160 C   0  0  0  0  0  0  0  0  0  0  0  0
  -25.0120  -12.0980   20.5760 C   0  0  0  0  0  0  0  0  0  0  0  0
  -26.6760  -13.2880   19.9450 N   0  0  0  0  0  0  0  0  0  0  0  0
  -26.2910  -12.0180   20.2300 N   0  0  0  0  0  0  0  0  0  0  0  0
  -24.2550  -10.8570   20.7920 C   0  0  0  0  0  0  0  0  0  0  0  0
  -24.6640   -9.8960   21.7430 C   0  0  0  0  0  3  0  0  0  0  0  0
  -23.9070   -8.7230   21.9460 C   0  0  0  0  0  3  0  0  0  0  0  0
  -22.7270   -8.5020   21.1960 C   0  0  0  0  0  0  0  0  0  0  0  0
  -22.3380   -9.4480   20.2340 C   0  0  0  0  0  3  0  0  0  0  0  0
  -23.0960  -10.6140   20.0300 C   0  0  0  0  0  3  0  0  0  0  0  0
  -21.9430   -7.3790   21.3080 O   0  0  0  0  0  0  0  0  0  0  0  0
  -21.8580   -6.6740   22.4810 C   0  0  0  0  0  0  0  0  0  0  0  0
  -21.4140   -7.2720   23.6810 C   0  0  0  0  0  3  0  0  0  0  0  0
  -21.2770   -6.4940   24.8470 C   0  0  0  0  0  3  0  0  0  0  0  0
  -21.5730   -5.1180   24.8150 C   0  0  0  0  0  0  0  0  0  0  0  0
  -22.0090   -4.5190   23.6190 C   0  0  0  0  0  3  0  0  0  0  0  0
  -22.1480   -5.2940   22.4560 C   0  0  0  0  0  0  0  0  0  0  0  0
  -22.5490   -4.7090   21.3020 F   0  0  0  0  0  0  0  0  0  0  0  0
  -21.4330   -4.3670   25.9320 F   0  0  0  0  0  0  0  0  0  0  0  0
  -23.2160  -13.9800   20.9240 C   0  0  0  0  0  0  0  0  0  0  0  0
  -22.5000  -13.3110   21.8220 N   0  0  0  0  0  0  0  0  0  0  0  0
  -22.7910  -15.0110   20.4070 O   0  0  0  0  0  0  0  0  0  0  0  0
  -22.8620  -12.4770   22.2590 H   0  0  0  0  0  0  0  0  0  0  0  0
  -21.5780  -13.6340   22.0740 H   0  0  0  0  0  0  0  0  0  0  0  0
  -25.8640  -15.5670   20.0220 N   0  0  0  0  0  0  0  0  0  0  0  0
  -25.1060  -16.2320   20.1360 H   0  0  0  0  0  0  0  0  0  0  0  0
  -26.6970  -15.9860   19.6300 H   0  0  0  0  0  0  0  0  0  0  0  0
  -30.8000  -17.2440   22.6910 C   0  0  0  0  0  0  0  0  0  0  0  0
  -30.9330  -17.9300   24.0480 C   0  0  0  0  0  1  0  0  0  0  0  0
  -30.9990  -16.0290   22.6410 O   0  0  0  0  0  0  0  0  0  0  0  0
  -29.0170  -23.9350   19.3300 C   0  0  2  0  0  0  0  0  0  0  0  0
  -29.0520  -23.7250   18.0100 F   0  0  0  0  0  0  0  0  0  0  0  0
  -31.6350  -23.8190   19.3110 C   0  0  0  0  0  1  0  0  0  0  0  0
  -30.3640  -24.5860   19.7210 C   0  0  0  0  0  2  0  0  0  0  0  0
  -27.8600  -25.0630   19.6030 C   0  0  0  0  0  2  0  0  0  0  0  0
  -28.1130  -26.5660   19.5730 O   0  0  0  0  0  0  0  0  0  0  0  0
  -24.5310  -31.8090   23.1560 C   0  0  0  0  0  0  0  0  0  0  0  0
  -27.0160  -27.4640   19.6420 C   0  0  0  0  0  0  0  0  0  0  0  0
  -23.2670  -30.5330   21.4670 C   0  0  0  0  0  3  0  0  0  0  0  0
  -24.6590  -29.1100   19.8590 C   0  0  0  0  0  0  0  0  0  0  0  0
  -25.8010  -30.8690   21.2020 C   0  0  0  0  0  2  0  0  0  0  0  0
  -25.8580  -29.5420   20.4430 C   0  0  0  0  0  0  0  0  0  0  0  0
  -27.0390  -28.7350   20.3200 C   0  0  0  0  0  3  0  0  0  0  0  0
  -25.7890  -27.1120   19.0370 C   0  0  0  0  0  3  0  0  0  0  0  0
  -24.6320  -27.9060   19.1460 C   0  0  0  0  0  3  0  0  0  0  0  0
  -23.4290  -29.9800   20.0280 C   0  0  0  0  0  2  0  0  0  0  0  0
  -24.5550  -31.0850   21.9980 N   0  0  0  0  0  0  0  0  0  0  0  0
  -23.4690  -32.0350   23.7560 O   0  0  0  0  0  0  0  0  0  0  0  0
  -22.6530  -29.4350   22.3710 C   0  0  0  0  0  0  0  0  0  0  0  0
  -21.3310  -29.2240   22.2550 N   0  0  0  0  0  0  0  0  0  0  0  0
  -23.3630  -28.7820   23.1390 O   0  0  0  0  0  0  0  0  0  0  0  0
  -20.8130  -29.8120   21.6190 H   0  0  0  0  0  0  0  0  0  0  0  0
  -18.0170  -27.8220   22.6680 C   0  0  0  0  0  0  0  0  0  0  0  0
  -20.5560  -28.2120   22.9760 C   0  0  0  0  0  3  0  0  0  0  0  0
  -20.7430  -26.8110   22.3500 C   0  0  0  0  0  2  0  0  0  0  0  0
  -19.6680  -26.4680   21.3130 C   0  0  0  0  0  2  0  0  0  0  0  0
  -18.2730  -26.5120   21.9430 C   0  0  0  0  0  2  0  0  0  0  0  0
  -19.0880  -28.6260   23.1390 C   0  0  0  0  0  0  0  0  0  0  0  0
  -18.7930  -29.8500   23.7790 C   0  0  0  0  0  3  0  0  0  0  0  0
  -17.4610  -30.2710   23.9500 C   0  0  0  0  0  3  0  0  0  0  0  0
  -16.4050  -29.4660   23.4900 C   0  0  0  0  0  3  0  0  0  0  0  0
  -16.6830  -28.2430   22.8560 C   0  0  0  0  0  3  0  0  0  0  0  0
  -25.8340  -32.4060   23.7710 C   0  0  0  0  0  3  0  0  0  0  0  0
  -26.3600  -31.5910   25.0150 C   0  0  1  0  0  0  0  0  0  0  0  0
  -25.2850  -31.3500   26.1000 C   0  0  0  0  0  1  0  0  0  0  0  0
  -26.9070  -30.2120   24.5790 C   0  0  0  0  0  1  0  0  0  0  0  0
  -27.5380  -32.3490   25.6730 C   0  0  0  0  0  1  0  0  0  0  0  0
  -25.5460  -33.7980   24.1470 N   0  0  0  0  0  0  0  0  0  0  0  0
  -25.8920  -34.8700   23.4220 C   0  0  0  0  0  0  0  0  0  0  0  0
  -26.5500  -34.7900   22.3820 O   0  0  0  0  0  0  0  0  0  0  0  0
  -24.9570  -33.9350   24.9560 H   0  0  0  0  0  0  0  0  0  0  0  0
  -24.1810  -36.6970   23.1540 C   0  0  0  0  0  1  0  0  0  0  0  0
  -25.4320  -36.2510   23.9280 C   0  0  0  0  0  3  0  0  0  0  0  0
  -27.5910  -37.0870   24.7460 C   0  0  0  0  0  1  0  0  0  0  0  0
  -26.4760  -37.2950   23.8270 N   0  0  0  0  0  0  0  0  0  0  0  0
  -26.0830  -38.2140   24.0050 H   0  0  0  0  0  0  0  0  0  0  0  0
  1  8  1  0
  1 48  1  0
  2  1  2  0
  3  8  1  0
  4  7  2  0
  5  3  2  0
  5  2  1  0
  6  4  1  0
  6  3  1  0
  9  6  1  0
 10 16  1  0
 11 16  1  0
 12 13  1  0
 12 11  1  0
 14 13  1  0
 14 23  1  0
 14 15  1  0
 16 15  1  0
 17 10  2  0
 18 10  1  0
 18  2  1  0
 19 18  1  0
 20 21  2  0
 21 40  1  0
 22 21  1  0
 22 25  1  0
 23 20  1  0
 23 24  1  0
 24 22  2  0
 25 26  1  0
 26 27  2  0
 28 31  1  0
 28 27  1  0
 29 28  2  0
 30 29  1  0
 30 25  2  0
 31 32  1  0
 32 33  1  0
 33 34  2  0
 35 34  1  0
 35 39  1  0
 36 35  2  0
 37 32  2  0
 37 36  1  0
 38 37  1  0
 40 41  1  0
 41 44  1  0
 41 43  1  0
 42 40  2  0
 45 46  1  0
 45 20  1  0
 47 45  1  0
 48 49  1  0
 50 48  2  0
 51 52  1  6
 51 55  1  0
 51 54  1  0
 51  4  1  0
 53 54  1  0
 56 55  1  0
 56 58  1  0
 57 68  2  0
 58 63  1  0
 59 67  1  0
 59 69  1  0
 60 66  1  0
 60 62  1  0
 61 67  1  0
 62 61  1  0
 63 62  2  0
 64 65  1  0
 64 58  2  0
 65 60  2  0
 66 59  1  0
 67 57  1  0
 69 71  2  0
 70 69  1  0
 72 70  1  0
 73 82  2  0
 73 78  1  0
 74 70  1  0
 74 78  1  0
 75 74  1  0
 76 77  1  0
 76 75  1  0
 77 73  1  0
 78 79  2  0
 79 80  1  0
 81 80  2  0
 82 81  1  0
 83 57  1  0
 83 88  1  0
 83 84  1  0
 84 87  1  1
 84 85  1  0
 86 84  1  0
 88 91  1  0
 89 93  1  0
 89 88  1  0
 90 89  2  0
 93 92  1  0
 95 93  1  0
 95 96  1  0
 95 94  1  0
M  ISO  4  10 100  18 100  55 101  56 101
M  END
>  <TORSDO>  (14) 
F 20

>  <SCORE>  (14) 
-12.259

>  <name>  (14) 
14

>  <ligand_id>  (14) 
14

>  <original_smiles>  (14) 
[H]c1c([H])c([H])c2c(c1[H])C([H])([H])C([H])([H])C([H])([H])C2([H])N([H])C(=O)C1([H])N(C(=O)C([H])(N([H])C(=O)C([H])(N([H])C([H])([H])[H])C([H])([H])[H])C(C([H])([H])[H])(C([H])([H])[H])C([H])([H])[H])C([H])([H])c2c([H])c(OC([H])([H])C(F)(C(=O)N([H])c3nc(N([H])C(=O)N4C([H])([H])C([H])([H])C([H])([H])C([H])(n5nc(-c6c([H])c([H])c(Oc7c([H])c([H])c(F)c([H])c7F)c([H])c6[H])c(C(=O)N([H])[H])c5N([H])[H])C4([H])[H])c(C(=O)C([H])([H])[H])s3)C([H])([H])C([H])([H])[H])c([H])c([H])c2C1([H])[H]

>  <smiles>  (14) 
[H]c1c([H])c([H])c2c(c1[H])C([H])([H])C([H])([H])C([H])([H])C2([H])N([H])C(=O)C1([H])N(C(=O)C([H])(N([H])C(=O)C([H])(N([H])C([H])([H])[H])C([H])([H])[H])C(C([H])([H])[H])(C([H])([H])[H])C([H])([H])[H])C([H])([H])c2c([H])c(OC([H])([H])C(F)(C(=O)N([H])c3nc(N([H])C(=O)N4C([H])([H])C([H])([H])C([H])([H])C([H])(n5nc(-c6c([H])c([H])c(Oc7c([H])c([H])c(F)c([H])c7F)c([H])c6[H])c(C(=O)N([H])[H])c5N([H])[H])C4([H])[H])c(C(=O)C([H])([H])[H])s3)C([H])([H])C([H])([H])[H])c([H])c([H])c2C1([H])[H]

$$$$
15:0:0
     RDKit          3D

 98106  0  0  1  0  0  0  0  0999 V2000
  -30.7760  -20.8770   20.3030 C   0  0  0  0  0  3  0  0  0  0  0  0
  -30.7910  -18.1870   20.1680 C   0  0  0  0  0  3  0  0  0  0  0  0
  -30.7710  -16.8920   22.2290 C   0  0  0  0  0  3  0  0  0  0  0  0
  -30.6850  -19.4260   20.9090 C   0  0  0  0  0  0  0  0  0  0  0  0
  -30.8570  -16.9060   20.8230 C   0  0  0  0  0  0  0  0  0  0  0  0
  -30.6450  -18.0830   22.9660 C   0  0  0  0  0  0  0  0  0  0  0  0
  -30.6030  -19.3310   22.3170 C   0  0  0  0  0  0  0  0  0  0  0  0
  -30.5550  -18.0230   24.3160 F   0  0  0  0  0  0  0  0  0  0  0  0
  -30.5020  -20.4540   23.0680 F   0  0  0  0  0  0  0  0  0  0  0  0
  -31.5590  -14.5140   20.0800 C   0  0  0  0  0  0  0  0  0  0  0  0
  -31.1710  -12.3290   18.9530 C   0  0  0  0  0  2  0  0  0  0  0  0
  -30.2010  -12.5590   17.7720 C   0  0  0  0  0  2  0  0  0  0  0  0
  -28.7290  -12.5130   18.2390 C   0  0  0  0  0  2  0  0  0  0  0  0
  -28.4750  -13.3740   19.5040 C   0  0  0  0  0  3  0  0  0  0  0  0
  -29.5460  -13.0910   20.5830 C   0  0  0  0  0  2  0  0  0  0  0  0
  -30.8630  -13.3410   19.9760 N   0  0  0  0  0  0  0  0  0  0  0  0
  -32.7510  -14.6040   19.7710 O   0  0  0  0  0  0  0  0  0  0  0  0
  -30.7420  -15.6040   20.1860 N   0  0  0  0  0  0  0  0  0  0  0  0
  -29.7930  -15.2670   20.1960 H   0  0  0  0  0  0  0  0  0  0  0  0
  -26.1580  -14.1710   20.2850 C   0  0  0  0  0  0  0  0  0  0  0  0
  -25.0370  -13.4870   20.6700 C   0  0  0  0  0  0  0  0  0  0  0  0
  -25.3810  -12.1010   20.6130 C   0  0  0  0  0  0  0  0  0  0  0  0
  -27.1180  -13.2060   20.0180 N   0  0  0  0  0  0  0  0  0  0  0  0
  -26.6580  -11.9570   20.2760 N   0  0  0  0  0  0  0  0  0  0  0  0
  -24.5540  -10.9030   20.8020 C   0  0  0  0  0  0  0  0  0  0  0  0
  -24.8950   -9.9140   21.7510 C   0  0  0  0  0  3  0  0  0  0  0  0
  -24.0740   -8.7800   21.9270 C   0  0  0  0  0  3  0  0  0  0  0  0
  -22.9000   -8.6270   21.1530 C   0  0  0  0  0  0  0  0  0  0  0  0
  -22.5780   -9.6020   20.1920 C   0  0  0  0  0  3  0  0  0  0  0  0
  -23.3990  -10.7290   20.0150 C   0  0  0  0  0  3  0  0  0  0  0  0
  -22.0560   -7.5450   21.2370 O   0  0  0  0  0  0  0  0  0  0  0  0
  -21.8860   -6.8550   22.4100 C   0  0  0  0  0  0  0  0  0  0  0  0
  -21.4580   -7.4940   23.5940 C   0  0  0  0  0  3  0  0  0  0  0  0
  -21.2290   -6.7360   24.7590 C   0  0  0  0  0  3  0  0  0  0  0  0
  -21.4180   -5.3410   24.7420 C   0  0  0  0  0  0  0  0  0  0  0  0
  -21.8390   -4.7020   23.5610 C   0  0  0  0  0  3  0  0  0  0  0  0
  -22.0700   -5.4580   22.3990 C   0  0  0  0  0  0  0  0  0  0  0  0
  -22.4550   -4.8360   21.2590 F   0  0  0  0  0  0  0  0  0  0  0  0
  -21.1900   -4.6110   25.8590 F   0  0  0  0  0  0  0  0  0  0  0  0
  -23.6900  -14.0780   20.9770 C   0  0  0  0  0  0  0  0  0  0  0  0
  -22.9380  -13.4520   21.8740 N   0  0  0  0  0  0  0  0  0  0  0  0
  -23.3200  -15.1280   20.4550 O   0  0  0  0  0  0  0  0  0  0  0  0
  -23.2500  -12.6020   22.3180 H   0  0  0  0  0  0  0  0  0  0  0  0
  -22.0340  -13.8330   22.1230 H   0  0  0  0  0  0  0  0  0  0  0  0
  -26.4320  -15.5250   20.1150 N   0  0  0  0  0  0  0  0  0  0  0  0
  -25.7150  -16.2310   20.2320 H   0  0  0  0  0  0  0  0  0  0  0  0
  -27.2860  -15.8980   19.7200 H   0  0  0  0  0  0  0  0  0  0  0  0
  -29.2610  -22.9880   20.2990 C   0  0  0  0  0  0  0  0  0  0  0  0
  -29.5100  -21.6520   20.0600 N   0  0  0  0  0  0  0  0  0  0  0  0
  -29.8790  -23.6150   21.1570 O   0  0  0  0  0  0  0  0  0  0  0  0
  -28.8190  -21.1700   19.5060 H   0  0  0  0  0  0  0  0  0  0  0  0
  -27.7620  -24.8730   19.3110 C   0  0  0  0  0  3  0  0  0  0  0  0
  -28.3030  -23.6040   19.3380 C   0  0  0  0  0  0  0  0  0  0  0  0
  -27.9490  -22.8210   18.3060 O   0  0  0  0  0  0  0  0  0  0  0  0
  -28.5630  -22.0990   18.2880 H   0  0  0  0  0  0  0  0  0  0  0  0
  -27.8300  -25.9880   20.1540 O   0  0  0  0  0  0  0  0  0  0  0  0
  -24.4640  -31.6630   23.1280 C   0  0  0  0  0  0  0  0  0  0  0  0
  -26.7630  -26.9070   20.1210 C   0  0  0  0  0  0  0  0  0  0  0  0
  -23.1500  -30.2930   21.5520 C   0  0  0  0  0  3  0  0  0  0  0  0
  -24.4820  -28.6370   20.1390 C   0  0  0  0  0  0  0  0  0  0  0  0
  -25.6990  -30.4710   21.3040 C   0  0  0  0  0  2  0  0  0  0  0  0
  -25.6920  -29.0770   20.6900 C   0  0  0  0  0  0  0  0  0  0  0  0
  -26.8360  -28.2230   20.6730 C   0  0  0  0  0  3  0  0  0  0  0  0
  -25.5140  -26.5100   19.5800 C   0  0  0  0  0  3  0  0  0  0  0  0
  -24.3930  -27.3580   19.5760 C   0  0  0  0  0  3  0  0  0  0  0  0
  -23.2960  -29.5780   20.1860 C   0  0  0  0  0  2  0  0  0  0  0  0
  -24.4580  -30.8270   22.0500 N   0  0  0  0  0  0  0  0  0  0  0  0
  -23.4090  -32.0120   23.6780 O   0  0  0  0  0  0  0  0  0  0  0  0
  -22.4570  -29.3350   22.5510 C   0  0  0  0  0  0  0  0  0  0  0  0
  -21.1260  -29.1900   22.4270 N   0  0  0  0  0  0  0  0  0  0  0  0
  -23.1140  -28.7260   23.3980 O   0  0  0  0  0  0  0  0  0  0  0  0
  -20.6540  -29.7310   21.7160 H   0  0  0  0  0  0  0  0  0  0  0  0
  -17.7230  -28.0720   22.9240 C   0  0  0  0  0  0  0  0  0  0  0  0
  -20.2780  -28.3130   23.2350 C   0  0  0  0  0  3  0  0  0  0  0  0
  -20.3710  -26.8460   22.7520 C   0  0  0  0  0  2  0  0  0  0  0  0
  -19.2860  -26.4780   21.7340 C   0  0  0  0  0  2  0  0  0  0  0  0
  -17.8940  -26.6810   22.3360 C   0  0  0  0  0  2  0  0  0  0  0  0
  -18.8420  -28.8440   23.3320 C   0  0  0  0  0  0  0  0  0  0  0  0
  -18.6280  -30.1440   23.8390 C   0  0  0  0  0  3  0  0  0  0  0  0
  -17.3270  -30.6710   23.9450 C   0  0  0  0  0  3  0  0  0  0  0  0
  -16.2210  -29.8960   23.5540 C   0  0  0  0  0  3  0  0  0  0  0  0
  -16.4200  -28.5990   23.0490 C   0  0  0  0  0  3  0  0  0  0  0  0
  -25.7910  -32.2420   23.7060 C   0  0  0  0  0  3  0  0  0  0  0  0
  -25.5390  -33.6390   24.0870 N   0  0  0  0  0  0  0  0  0  0  0  0
  -25.8800  -34.7030   23.3480 C   0  0  0  0  0  0  0  0  0  0  0  0
  -26.5130  -34.6110   22.2930 O   0  0  0  0  0  0  0  0  0  0  0  0
  -24.9810  -33.7870   24.9150 H   0  0  0  0  0  0  0  0  0  0  0  0
  -24.2050  -36.5620   23.1060 C   0  0  0  0  0  1  0  0  0  0  0  0
  -25.4560  -36.0910   23.8650 C   0  0  0  0  0  3  0  0  0  0  0  0
  -27.6430  -36.8780   24.6540 C   0  0  0  0  0  1  0  0  0  0  0  0
  -26.5190  -37.1130   23.7510 N   0  0  0  0  0  0  0  0  0  0  0  0
  -26.1490  -38.0400   23.9410 H   0  0  0  0  0  0  0  0  0  0  0  0
  -26.3430  -31.4200   24.9350 C   0  0  1  0  0  0  0  0  0  0  0  0
  -25.2940  -31.1830   26.0460 C   0  0  0  0  0  1  0  0  0  0  0  0
  -26.8670  -30.0400   24.4790 C   0  0  0  0  0  1  0  0  0  0  0  0
  -27.5430  -32.1650   25.5670 C   0  0  0  0  0  1  0  0  0  0  0  0
  -33.1560  -20.6500   19.2990 C   0  0  0  0  0  1  0  0  0  0  0  0
  -31.6720  -20.9720   19.0450 C   0  0  0  0  0  2  0  0  0  0  0  0
  1 98  1  0
  1  4  1  0
  2  5  2  0
  2  4  1  0
  3  6  2  0
  4  7  2  0
  5  3  1  0
  6  8  1  0
  7  6  1  0
  7  9  1  0
 10 18  1  0
 11 16  1  0
 12 13  1  0
 12 11  1  0
 14 13  1  0
 14 23  1  0
 14 15  1  0
 16 10  1  0
 16 15  1  0
 17 10  2  0
 18 19  1  0
 18  5  1  0
 20 21  2  0
 21 40  1  0
 22 21  1  0
 22 25  1  0
 23 24  1  0
 23 20  1  0
 24 22  2  0
 25 26  1  0
 26 27  2  0
 28 31  1  0
 28 27  1  0
 29 28  2  0
 30 29  1  0
 30 25  2  0
 31 32  1  0
 32 33  1  0
 33 34  2  0
 35 34  1  0
 35 39  1  0
 36 35  2  0
 37 32  2  0
 37 36  1  0
 38 37  1  0
 40 41  1  0
 41 44  1  0
 41 43  1  0
 42 40  2  0
 45 46  1  0
 45 20  1  0
 47 45  1  0
 48 50  2  0
 49 48  1  0
 49  1  1  0
 51 49  1  0
 52 53  2  0
 52 56  1  0
 53 48  1  0
 54 53  1  0
 55 54  1  0
 57 68  2  0
 58 56  1  0
 58 63  1  0
 59 67  1  0
 59 69  1  0
 60 66  1  0
 60 62  1  0
 61 67  1  0
 62 61  1  0
 63 62  2  0
 64 58  2  0
 65 64  1  0
 65 60  2  0
 66 59  1  0
 67 57  1  0
 69 71  2  0
 70 69  1  0
 72 70  1  0
 73 82  2  0
 73 78  1  0
 74 70  1  0
 74 78  1  0
 75 74  1  0
 76 77  1  0
 76 75  1  0
 77 73  1  0
 78 79  2  0
 79 80  1  0
 81 80  2  0
 82 81  1  0
 83 57  1  0
 83 84  1  0
 83 93  1  0
 84 87  1  0
 85 89  1  0
 85 84  1  0
 86 85  2  0
 89 88  1  0
 91 89  1  0
 91 92  1  0
 91 90  1  0
 93 96  1  1
 93 94  1  0
 95 93  1  0
 98 97  1  0
M  ISO  4  10 100  18 100  52 101  56 101
M  END
>  <TORSDO>  (15) 
F 21

>  <SCORE>  (15) 
-12.222

>  <name>  (15) 
15

>  <ligand_id>  (15) 
15

>  <original_smiles>  (15) 
[H]OC(C(=O)N([H])C([H])(c1c([H])c(N([H])C(=O)N2C([H])([H])C([H])([H])C([H])([H])C([H])(n3nc(-c4c([H])c([H])c(Oc5c([H])c([H])c(F)c([H])c5F)c([H])c4[H])c(C(=O)N([H])[H])c3N([H])[H])C2([H])[H])c([H])c(F)c1F)C([H])([H])C([H])([H])[H])=C([H])Oc1c([H])c([H])c2c(c1[H])C([H])([H])N(C(=O)C([H])(N([H])C(=O)C([H])(N([H])C([H])([H])[H])C([H])([H])[H])C(C([H])([H])[H])(C([H])([H])[H])C([H])([H])[H])C([H])(C(=O)N([H])C1([H])c3c([H])c([H])c([H])c([H])c3C([H])([H])C([H])([H])C1([H])[H])C2([H])[H]

>  <smiles>  (15) 
[H]OC(C(=O)N([H])C([H])(c1c([H])c(N([H])C(=O)N2C([H])([H])C([H])([H])C([H])([H])C([H])(n3nc(-c4c([H])c([H])c(Oc5c([H])c([H])c(F)c([H])c5F)c([H])c4[H])c(C(=O)N([H])[H])c3N([H])[H])C2([H])[H])c([H])c(F)c1F)C([H])([H])C([H])([H])[H])=C([H])Oc1c([H])c([H])c2c(c1[H])C([H])([H])N(C(=O)C([H])(N([H])C(=O)C([H])(N([H])C([H])([H])[H])C([H])([H])[H])C(C([H])([H])[H])(C([H])([H])[H])C([H])([H])[H])C([H])(C(=O)N([H])C1([H])c3c([H])c([H])c([H])c([H])c3C([H])([H])C([H])([H])C1([H])[H])C2([H])[H]

$$$$
16:0:0
     RDKit          3D

 97105  0  0  1  0  0  0  0  0999 V2000
  -29.9220  -21.2890   20.8860 C   0  0  0  0  0  0  0  0  0  0  0  0
  -29.8920  -21.9240   19.6980 N   0  0  0  0  0  0  0  0  0  0  0  0
  -29.9870  -21.8960   21.9560 O   0  0  0  0  0  0  0  0  0  0  0  0
  -29.7710  -21.2960   18.9150 H   0  0  0  0  0  0  0  0  0  0  0  0
  -29.2980  -17.5990   19.8790 C   0  0  0  0  0  3  0  0  0  0  0  0
  -29.9750  -19.7670   20.8490 C   0  0  0  0  0  0  0  0  0  0  0  0
  -29.9950  -16.8890   20.8830 C   0  0  0  0  0  0  0  0  0  0  0  0
  -29.2910  -19.0150   19.8560 C   0  0  0  0  0  0  0  0  0  0  0  0
  -30.6840  -19.0440   21.8470 C   0  0  0  0  0  0  0  0  0  0  0  0
  -30.6960  -17.6270   21.8610 C   0  0  0  0  0  0  0  0  0  0  0  0
  -28.6030  -19.6390   18.8690 F   0  0  0  0  0  0  0  0  0  0  0  0
  -31.3610  -19.6950   22.8250 F   0  0  0  0  0  0  0  0  0  0  0  0
  -31.3530  -16.9750   22.8510 F   0  0  0  0  0  0  0  0  0  0  0  0
  -30.5960  -14.5160   20.3980 C   0  0  0  0  0  0  0  0  0  0  0  0
  -30.3290  -12.3750   19.1960 C   0  0  0  0  0  2  0  0  0  0  0  0
  -29.3710  -12.6020   18.0060 C   0  0  0  0  0  2  0  0  0  0  0  0
  -27.8980  -12.4610   18.4410 C   0  0  0  0  0  2  0  0  0  0  0  0
  -27.5720  -13.2670   19.7260 C   0  0  0  0  0  3  0  0  0  0  0  0
  -28.6320  -12.9960   20.8180 C   0  0  0  0  0  2  0  0  0  0  0  0
  -29.9570  -13.3230   20.2570 N   0  0  0  0  0  0  0  0  0  0  0  0
  -31.7110  -14.7460   19.9170 O   0  0  0  0  0  0  0  0  0  0  0  0
  -29.8580  -15.4710   20.9970 N   0  0  0  0  0  0  0  0  0  0  0  0
  -28.9750  -15.1430   21.3540 H   0  0  0  0  0  0  0  0  0  0  0  0
  -25.1690  -13.8770   20.4240 C   0  0  0  0  0  0  0  0  0  0  0  0
  -24.1020  -13.1070   20.7990 C   0  0  0  0  0  0  0  0  0  0  0  0
  -24.5660  -11.7550   20.7800 C   0  0  0  0  0  0  0  0  0  0  0  0
  -26.2170  -12.9950   20.2020 N   0  0  0  0  0  0  0  0  0  0  0  0
  -25.8570  -11.7150   20.4730 N   0  0  0  0  0  0  0  0  0  0  0  0
  -23.8420  -10.4940   20.9820 C   0  0  0  0  0  0  0  0  0  0  0  0
  -24.2720   -9.5400   21.9300 C   0  0  0  0  0  3  0  0  0  0  0  0
  -23.5490   -8.3410   22.1180 C   0  0  0  0  0  3  0  0  0  0  0  0
  -22.3840   -8.0890   21.3570 C   0  0  0  0  0  0  0  0  0  0  0  0
  -21.9730   -9.0320   20.3990 C   0  0  0  0  0  3  0  0  0  0  0  0
  -22.6960  -10.2220   20.2090 C   0  0  0  0  0  3  0  0  0  0  0  0
  -21.6350   -6.9410   21.4520 O   0  0  0  0  0  0  0  0  0  0  0  0
  -21.5810   -6.2110   22.6130 C   0  0  0  0  0  0  0  0  0  0  0  0
  -21.1450   -6.7770   23.8300 C   0  0  0  0  0  3  0  0  0  0  0  0
  -21.0390   -5.9730   24.9820 C   0  0  0  0  0  3  0  0  0  0  0  0
  -21.3610   -4.6040   24.9180 C   0  0  0  0  0  0  0  0  0  0  0  0
  -21.7930   -4.0380   23.7050 C   0  0  0  0  0  3  0  0  0  0  0  0
  -21.9000   -4.8400   22.5560 C   0  0  0  0  0  0  0  0  0  0  0  0
  -22.2950   -4.2850   21.3850 F   0  0  0  0  0  0  0  0  0  0  0  0
  -21.2530   -3.8290   26.0220 F   0  0  0  0  0  0  0  0  0  0  0  0
  -22.7040  -13.5840   21.0670 C   0  0  0  0  0  0  0  0  0  0  0  0
  -21.9740  -12.8900   21.9330 N   0  0  0  0  0  0  0  0  0  0  0  0
  -22.2650  -14.6090   20.5450 O   0  0  0  0  0  0  0  0  0  0  0  0
  -22.3390  -12.0630   22.3800 H   0  0  0  0  0  0  0  0  0  0  0  0
  -21.0360  -13.1950   22.1550 H   0  0  0  0  0  0  0  0  0  0  0  0
  -25.3320  -15.2460   20.2340 N   0  0  0  0  0  0  0  0  0  0  0  0
  -24.5610  -15.8990   20.3290 H   0  0  0  0  0  0  0  0  0  0  0  0
  -26.1740  -15.6800   19.8790 H   0  0  0  0  0  0  0  0  0  0  0  0
  -29.7600  -23.5320   17.8330 C   0  0  0  0  0  1  0  0  0  0  0  0
  -30.1100  -23.3440   19.3200 C   0  0  0  0  0  3  0  0  0  0  0  0
  -29.5870  -24.4960   20.2520 C   0  0  0  0  0  0  0  0  0  0  0  0
  -30.2040  -24.8340   21.2680 O   0  0  0  0  0  0  0  0  0  0  0  0
  -28.3030  -25.2760   19.8690 C   0  0  0  0  0  2  0  0  0  0  0  0
  -28.3910  -26.6810   20.2110 O   0  0  0  0  0  0  0  0  0  0  0  0
  -24.5780  -31.8940   23.2440 C   0  0  0  0  0  0  0  0  0  0  0  0
  -27.2190  -27.4210   20.1750 C   0  0  0  0  0  0  0  0  0  0  0  0
  -23.3720  -30.4900   21.6030 C   0  0  0  0  0  3  0  0  0  0  0  0
  -24.8260  -28.9500   20.1800 C   0  0  0  0  0  0  0  0  0  0  0  0
  -25.9000  -30.8410   21.4090 C   0  0  0  0  0  2  0  0  0  0  0  0
  -25.9850  -29.4670   20.7690 C   0  0  0  0  0  0  0  0  0  0  0  0
  -27.1830  -28.7130   20.7600 C   0  0  0  0  0  3  0  0  0  0  0  0
  -26.0350  -26.9290   19.5760 C   0  0  0  0  0  3  0  0  0  0  0  0
  -24.8470  -27.6820   19.5790 C   0  0  0  0  0  3  0  0  0  0  0  0
  -23.5820  -29.8100   20.2240 C   0  0  0  0  0  2  0  0  0  0  0  0
  -24.6350  -31.0910   22.1430 N   0  0  0  0  0  0  0  0  0  0  0  0
  -23.4960  -32.1660   23.7830 O   0  0  0  0  0  0  0  0  0  0  0  0
  -22.7190  -29.4710   22.5650 C   0  0  0  0  0  0  0  0  0  0  0  0
  -21.3940  -29.2910   22.4380 N   0  0  0  0  0  0  0  0  0  0  0  0
  -23.4010  -28.8450   23.3800 O   0  0  0  0  0  0  0  0  0  0  0  0
  -20.9040  -29.8470   21.7510 H   0  0  0  0  0  0  0  0  0  0  0  0
  -18.0170  -28.1050   22.9410 C   0  0  0  0  0  0  0  0  0  0  0  0
  -20.5760  -28.3540   23.2090 C   0  0  0  0  0  3  0  0  0  0  0  0
  -20.6740  -26.9240   22.6310 C   0  0  0  0  0  2  0  0  0  0  0  0
  -19.5690  -26.6060   21.6190 C   0  0  0  0  0  2  0  0  0  0  0  0
  -18.1880  -26.7540   22.2650 C   0  0  0  0  0  2  0  0  0  0  0  0
  -19.1390  -28.8630   23.3690 C   0  0  0  0  0  0  0  0  0  0  0  0
  -18.9260  -30.1270   23.9620 C   0  0  0  0  0  3  0  0  0  0  0  0
  -17.6240  -30.6330   24.1310 C   0  0  0  0  0  3  0  0  0  0  0  0
  -16.5160  -29.8720   23.7180 C   0  0  0  0  0  3  0  0  0  0  0  0
  -16.7130  -28.6100   23.1290 C   0  0  0  0  0  3  0  0  0  0  0  0
  -25.8630  -32.5260   23.8620 C   0  0  0  0  0  3  0  0  0  0  0  0
  -26.3790  -31.7590   25.1420 C   0  0  1  0  0  0  0  0  0  0  0  0
  -25.2860  -31.5270   26.2110 C   0  0  0  0  0  1  0  0  0  0  0  0
  -26.9610  -30.3790   24.7550 C   0  0  0  0  0  1  0  0  0  0  0  0
  -27.5290  -32.5560   25.8030 C   0  0  0  0  0  1  0  0  0  0  0  0
  -25.5560  -33.9250   24.1840 N   0  0  0  0  0  0  0  0  0  0  0  0
  -25.8950  -34.9740   23.4230 C   0  0  0  0  0  0  0  0  0  0  0  0
  -26.5700  -34.8650   22.3960 O   0  0  0  0  0  0  0  0  0  0  0  0
  -24.9560  -34.0830   24.9810 H   0  0  0  0  0  0  0  0  0  0  0  0
  -24.1770  -36.7730   23.0450 C   0  0  0  0  0  1  0  0  0  0  0  0
  -25.4060  -36.3640   23.8720 C   0  0  0  0  0  3  0  0  0  0  0  0
  -27.5350  -37.2430   24.7270 C   0  0  0  0  0  1  0  0  0  0  0  0
  -26.4440  -37.4150   23.7700 N   0  0  0  0  0  0  0  0  0  0  0  0
  -26.0400  -38.3360   23.9130 H   0  0  0  0  0  0  0  0  0  0  0  0
  1  3  2  0
  2  1  1  0
  4  2  1  0
  5  7  1  0
  6  1  1  0
  6  9  2  0
  7 22  1  0
  7 10  2  0
  8  5  2  0
  8  6  1  0
  9 10  1  0
  9 12  1  0
 10 13  1  0
 11  8  1  0
 14 22  1  0
 15 20  1  0
 16 17  1  0
 16 15  1  0
 18 17  1  0
 18 27  1  0
 18 19  1  0
 20 14  1  0
 20 19  1  0
 21 14  2  0
 22 23  1  0
 24 25  2  0
 25 44  1  0
 26 25  1  0
 26 29  1  0
 27 24  1  0
 27 28  1  0
 28 26  2  0
 29 30  1  0
 30 31  2  0
 32 35  1  0
 32 31  1  0
 33 32  2  0
 34 33  1  0
 34 29  2  0
 35 36  1  0
 36 37  1  0
 37 38  2  0
 39 38  1  0
 39 43  1  0
 40 39  2  0
 41 36  2  0
 41 40  1  0
 42 41  1  0
 44 45  1  0
 45 48  1  0
 45 47  1  0
 46 44  2  0
 49 50  1  0
 49 24  1  0
 51 49  1  0
 53 52  1  0
 53  2  1  0
 53 54  1  0
 54 55  2  0
 56 57  1  0
 56 54  1  0
 58 69  2  0
 59 57  1  0
 59 64  1  0
 60 68  1  0
 60 70  1  0
 61 67  1  0
 61 63  1  0
 62 68  1  0
 63 62  1  0
 64 63  2  0
 65 66  1  0
 65 59  2  0
 66 61  2  0
 67 60  1  0
 68 58  1  0
 70 72  2  0
 71 70  1  0
 73 71  1  0
 74 83  2  0
 74 79  1  0
 75 71  1  0
 75 79  1  0
 76 75  1  0
 77 78  1  0
 77 76  1  0
 78 74  1  0
 79 80  2  0
 80 81  1  0
 82 81  2  0
 83 82  1  0
 84 58  1  0
 84 89  1  0
 84 85  1  0
 85 88  1  1
 85 86  1  0
 87 85  1  0
 89 92  1  0
 90 94  1  0
 90 89  1  0
 91 90  2  0
 94 93  1  0
 96 94  1  0
 96 97  1  0
 96 95  1  0
M  ISO  4  14 100  22 100  56 101  57 101
M  END
>  <TORSDO>  (16) 
F 20

>  <SCORE>  (16) 
-14.148

>  <name>  (16) 
16

>  <ligand_id>  (16) 
16

>  <original_smiles>  (16) 
[H]c1c([H])c([H])c2c(c1[H])C([H])([H])C([H])([H])C([H])([H])C2([H])N([H])C(=O)C1([H])N(C(=O)C([H])(N([H])C(=O)C([H])(N([H])C([H])([H])[H])C([H])([H])[H])C(C([H])([H])[H])(C([H])([H])[H])C([H])([H])[H])C([H])([H])c2c([H])c(OC([H])([H])C(=O)C([H])(N([H])C(=O)c3c(F)c([H])c(N([H])C(=O)N4C([H])([H])C([H])([H])C([H])([H])C([H])(n5nc(-c6c([H])c([H])c(Oc7c([H])c([H])c(F)c([H])c7F)c([H])c6[H])c(C(=O)N([H])[H])c5N([H])[H])C4([H])[H])c(F)c3F)C([H])([H])[H])c([H])c([H])c2C1([H])[H]

>  <smiles>  (16) 
[H]c1c([H])c([H])c2c(c1[H])C([H])([H])C([H])([H])C([H])([H])C2([H])N([H])C(=O)C1([H])N(C(=O)C([H])(N([H])C(=O)C([H])(N([H])C([H])([H])[H])C([H])([H])[H])C(C([H])([H])[H])(C([H])([H])[H])C([H])([H])[H])C([H])([H])c2c([H])c(OC([H])([H])C(=O)C([H])(N([H])C(=O)c3c(F)c([H])c(N([H])C(=O)N4C([H])([H])C([H])([H])C([H])([H])C([H])(n5nc(-c6c([H])c([H])c(Oc7c([H])c([H])c(F)c([H])c7F)c([H])c6[H])c(C(=O)N([H])[H])c5N([H])[H])C4([H])[H])c(F)c3F)C([H])([H])[H])c([H])c([H])c2C1([H])[H]

$$$$
17:0:0
     RDKit          3D

 94102  0  0  1  0  0  0  0  0999 V2000
  -30.3540  -18.6550   18.0150 C   0  0  0  0  0  3  0  0  0  0  0  0
  -30.0010  -19.8610   18.6420 C   0  0  0  0  0  3  0  0  0  0  0  0
  -30.3020  -17.4350   18.7120 C   0  0  0  0  0  0  0  0  0  0  0  0
  -29.5690  -19.8950   19.9840 C   0  0  0  0  0  0  0  0  0  0  0  0
  -29.9230  -17.4100   20.0790 C   0  0  0  0  0  0  0  0  0  0  0  0
  -28.7100  -22.3980   19.8900 C   0  0  0  0  0  0  0  0  0  0  0  0
  -29.5610  -18.6520   20.6670 N   0  0  0  0  0  0  0  0  0  0  0  0
  -29.2630  -21.2710   20.5260 N   0  0  0  0  0  0  0  0  0  0  0  0
  -28.1000  -22.2370   18.8290 O   0  0  0  0  0  0  0  0  0  0  0  0
  -30.5800  -16.2990   18.0230 F   0  0  0  0  0  0  0  0  0  0  0  0
  -29.5620  -21.4340   21.4770 H   0  0  0  0  0  0  0  0  0  0  0  0
  -30.5830  -14.8750   20.4960 C   0  0  0  0  0  0  0  0  0  0  0  0
  -30.4290  -12.5490   19.5730 C   0  0  0  0  0  2  0  0  0  0  0  0
  -29.5450  -12.5900   18.3080 C   0  0  0  0  0  2  0  0  0  0  0  0
  -28.0580  -12.4210   18.6780 C   0  0  0  0  0  2  0  0  0  0  0  0
  -27.6330  -13.3090   19.8790 C   0  0  0  0  0  3  0  0  0  0  0  0
  -28.6570  -13.2710   21.0370 C   0  0  0  0  0  2  0  0  0  0  0  0
  -29.9660  -13.6330   20.4790 N   0  0  0  0  0  0  0  0  0  0  0  0
  -31.7840  -14.9280   20.2050 O   0  0  0  0  0  0  0  0  0  0  0  0
  -29.8390  -16.0460   20.7140 N   0  0  0  0  0  0  0  0  0  0  0  0
  -28.9990  -15.9040   21.2520 H   0  0  0  0  0  0  0  0  0  0  0  0
  -25.2220  -13.8840   20.5280 C   0  0  0  0  0  0  0  0  0  0  0  0
  -24.1500  -13.1080   20.8640 C   0  0  0  0  0  0  0  0  0  0  0  0
  -24.6190  -11.7570   20.8590 C   0  0  0  0  0  0  0  0  0  0  0  0
  -26.2770  -13.0110   20.3270 N   0  0  0  0  0  0  0  0  0  0  0  0
  -25.9220  -11.7260   20.5930 N   0  0  0  0  0  0  0  0  0  0  0  0
  -23.8910  -10.4940   21.0420 C   0  0  0  0  0  0  0  0  0  0  0  0
  -24.3000   -9.5370   21.9980 C   0  0  0  0  0  3  0  0  0  0  0  0
  -23.5720   -8.3400   22.1700 C   0  0  0  0  0  3  0  0  0  0  0  0
  -22.4220   -8.0880   21.3850 C   0  0  0  0  0  0  0  0  0  0  0  0
  -22.0300   -9.0340   20.4200 C   0  0  0  0  0  3  0  0  0  0  0  0
  -22.7580  -10.2230   20.2460 C   0  0  0  0  0  3  0  0  0  0  0  0
  -21.6670   -6.9420   21.4610 O   0  0  0  0  0  0  0  0  0  0  0  0
  -21.5880   -6.2100   22.6180 C   0  0  0  0  0  0  0  0  0  0  0  0
  -21.1300   -6.7750   23.8280 C   0  0  0  0  0  3  0  0  0  0  0  0
  -20.9990   -5.9690   24.9760 C   0  0  0  0  0  3  0  0  0  0  0  0
  -21.3150   -4.5980   24.9160 C   0  0  0  0  0  0  0  0  0  0  0  0
  -21.7700   -4.0340   23.7110 C   0  0  0  0  0  3  0  0  0  0  0  0
  -21.9030   -4.8370   22.5660 C   0  0  0  0  0  0  0  0  0  0  0  0
  -22.3200   -4.2850   21.4000 F   0  0  0  0  0  0  0  0  0  0  0  0
  -21.1820   -3.8200   26.0160 F   0  0  0  0  0  0  0  0  0  0  0  0
  -22.7400  -13.5800   21.0830 C   0  0  0  0  0  0  0  0  0  0  0  0
  -21.9860  -12.8910   21.9300 N   0  0  0  0  0  0  0  0  0  0  0  0
  -22.3170  -14.5980   20.5400 O   0  0  0  0  0  0  0  0  0  0  0  0
  -22.3280  -12.0610   22.3910 H   0  0  0  0  0  0  0  0  0  0  0  0
  -21.0410  -13.1940   22.1190 H   0  0  0  0  0  0  0  0  0  0  0  0
  -25.3820  -15.2570   20.3530 N   0  0  0  0  0  0  0  0  0  0  0  0
  -24.6260  -15.9130   20.5210 H   0  0  0  0  0  0  0  0  0  0  0  0
  -26.2390  -15.7140   20.0680 H   0  0  0  0  0  0  0  0  0  0  0  0
  -28.2690  -24.9450   19.8870 C   0  0  0  0  0  3  0  0  0  0  0  0
  -28.8190  -23.8010   20.4990 C   0  0  0  0  0  0  0  0  0  0  0  0
  -29.4910  -23.9230   21.6550 O   0  0  0  0  0  0  0  0  0  0  0  0
  -29.5230  -24.8440   21.8810 H   0  0  0  0  0  0  0  0  0  0  0  0
  -28.3220  -26.3440   20.2570 O   0  0  0  0  0  0  0  0  0  0  0  0
  -24.6490  -31.8930   23.2390 C   0  0  0  0  0  0  0  0  0  0  0  0
  -27.2210  -27.2530   20.1590 C   0  0  0  0  0  0  0  0  0  0  0  0
  -23.4310  -30.5030   21.6030 C   0  0  0  0  0  3  0  0  0  0  0  0
  -24.8660  -28.9450   20.1510 C   0  0  0  0  0  0  0  0  0  0  0  0
  -25.9760  -30.7850   21.4160 C   0  0  0  0  0  2  0  0  0  0  0  0
  -26.0440  -29.4050   20.7510 C   0  0  0  0  0  0  0  0  0  0  0  0
  -27.2160  -28.5720   20.7430 C   0  0  0  0  0  3  0  0  0  0  0  0
  -26.0140  -26.8700   19.5240 C   0  0  0  0  0  3  0  0  0  0  0  0
  -24.8600  -27.6880   19.5220 C   0  0  0  0  0  3  0  0  0  0  0  0
  -23.6360  -29.8350   20.2150 C   0  0  0  0  0  2  0  0  0  0  0  0
  -24.7050  -31.0830   22.1380 N   0  0  0  0  0  0  0  0  0  0  0  0
  -23.5700  -32.1740   23.7820 O   0  0  0  0  0  0  0  0  0  0  0  0
  -22.7690  -29.4890   22.5680 C   0  0  0  0  0  0  0  0  0  0  0  0
  -21.4430  -29.3010   22.4410 N   0  0  0  0  0  0  0  0  0  0  0  0
  -23.4480  -28.8760   23.3940 O   0  0  0  0  0  0  0  0  0  0  0  0
  -20.9520  -29.8480   21.7490 H   0  0  0  0  0  0  0  0  0  0  0  0
  -18.0820  -28.0490   22.9360 C   0  0  0  0  0  0  0  0  0  0  0  0
  -20.6340  -28.3590   23.2180 C   0  0  0  0  0  3  0  0  0  0  0  0
  -20.7650  -26.9230   22.6600 C   0  0  0  0  0  2  0  0  0  0  0  0
  -19.6750  -26.5680   21.6430 C   0  0  0  0  0  2  0  0  0  0  0  0
  -18.2860  -26.6980   22.2740 C   0  0  0  0  0  2  0  0  0  0  0  0
  -19.1830  -28.8360   23.3640 C   0  0  0  0  0  0  0  0  0  0  0  0
  -18.9370  -30.1000   23.9430 C   0  0  0  0  0  3  0  0  0  0  0  0
  -17.6230  -30.5780   24.0970 C   0  0  0  0  0  3  0  0  0  0  0  0
  -16.5350  -29.7890   23.6830 C   0  0  0  0  0  3  0  0  0  0  0  0
  -16.7660  -28.5260   23.1090 C   0  0  0  0  0  3  0  0  0  0  0  0
  -25.9370  -32.5250   23.8520 C   0  0  0  0  0  3  0  0  0  0  0  0
  -25.6340  -33.9250   24.1870 N   0  0  0  0  0  0  0  0  0  0  0  0
  -25.9510  -34.9790   23.4230 C   0  0  0  0  0  0  0  0  0  0  0  0
  -26.6010  -34.8780   22.3810 O   0  0  0  0  0  0  0  0  0  0  0  0
  -25.0640  -34.0800   25.0060 H   0  0  0  0  0  0  0  0  0  0  0  0
  -24.2180  -36.7750   23.1030 C   0  0  0  0  0  1  0  0  0  0  0  0
  -25.4720  -36.3680   23.8920 C   0  0  0  0  0  3  0  0  0  0  0  0
  -27.6190  -37.2530   24.6890 C   0  0  0  0  0  1  0  0  0  0  0  0
  -26.5040  -37.4200   23.7610 N   0  0  0  0  0  0  0  0  0  0  0  0
  -26.1000  -38.3410   23.9130 H   0  0  0  0  0  0  0  0  0  0  0  0
  -26.4600  -31.7550   25.1280 C   0  0  1  0  0  0  0  0  0  0  0  0
  -25.3740  -31.5280   26.2050 C   0  0  0  0  0  1  0  0  0  0  0  0
  -27.0340  -30.3720   24.7440 C   0  0  0  0  0  1  0  0  0  0  0  0
  -27.6180  -32.5470   25.7790 C   0  0  0  0  0  1  0  0  0  0  0  0
  1  2  2  0
  1  3  1  0
  2  4  1  0
  3  5  2  0
  4  8  1  0
  4  7  2  0
  5  7  1  0
  5 20  1  0
  6 51  1  0
  6  8  1  0
  8 11  1  0
  9  6  2  0
 10  3  1  0
 12 20  1  0
 13 18  1  0
 14 15  1  0
 14 13  1  0
 16 15  1  0
 16 25  1  0
 16 17  1  0
 18 12  1  0
 18 17  1  0
 19 12  2  0
 20 21  1  0
 22 23  2  0
 23 42  1  0
 24 23  1  0
 24 27  1  0
 25 22  1  0
 25 26  1  0
 26 24  2  0
 27 28  1  0
 28 29  2  0
 30 33  1  0
 30 29  1  0
 31 30  2  0
 32 31  1  0
 32 27  2  0
 33 34  1  0
 34 35  1  0
 35 36  2  0
 37 36  1  0
 37 41  1  0
 38 37  2  0
 39 34  2  0
 39 38  1  0
 40 39  1  0
 42 43  1  0
 43 46  1  0
 43 45  1  0
 44 42  2  0
 47 48  1  0
 47 22  1  0
 49 47  1  0
 50 54  1  0
 50 51  2  0
 51 52  1  0
 52 53  1  0
 55 66  2  0
 56 54  1  0
 56 61  1  0
 57 65  1  0
 57 67  1  0
 58 64  1  0
 58 60  1  0
 59 65  1  0
 60 59  1  0
 61 60  2  0
 62 56  2  0
 63 62  1  0
 63 58  2  0
 64 57  1  0
 65 55  1  0
 67 69  2  0
 68 67  1  0
 70 68  1  0
 71 80  2  0
 71 76  1  0
 72 68  1  0
 72 76  1  0
 73 72  1  0
 74 75  1  0
 74 73  1  0
 75 71  1  0
 76 77  2  0
 77 78  1  0
 79 78  2  0
 80 79  1  0
 81 55  1  0
 81 82  1  0
 81 91  1  0
 82 85  1  0
 83 87  1  0
 83 82  1  0
 84 83  2  0
 87 86  1  0
 89 87  1  0
 89 90  1  0
 89 88  1  0
 91 94  1  1
 91 92  1  0
 93 91  1  0
M  ISO  4  12 100  20 100  50 101  54 101
M  END
>  <TORSDO>  (17) 
F 18

>  <SCORE>  (17) 
-14.751

>  <name>  (17) 
17

>  <ligand_id>  (17) 
17

>  <original_smiles>  (17) 
[H]OC(C(=O)N([H])c1nc(N([H])C(=O)N2C([H])([H])C([H])([H])C([H])([H])C([H])(n3nc(-c4c([H])c([H])c(Oc5c([H])c([H])c(F)c([H])c5F)c([H])c4[H])c(C(=O)N([H])[H])c3N([H])[H])C2([H])[H])c(F)c([H])c1[H])=C([H])Oc1c([H])c([H])c2c(c1[H])C([H])([H])N(C(=O)C([H])(N([H])C(=O)C([H])(N([H])C([H])([H])[H])C([H])([H])[H])C(C([H])([H])[H])(C([H])([H])[H])C([H])([H])[H])C([H])(C(=O)N([H])C1([H])c3c([H])c([H])c([H])c([H])c3C([H])([H])C([H])([H])C1([H])[H])C2([H])[H]

>  <smiles>  (17) 
[H]OC(C(=O)N([H])c1nc(N([H])C(=O)N2C([H])([H])C([H])([H])C([H])([H])C([H])(n3nc(-c4c([H])c([H])c(Oc5c([H])c([H])c(F)c([H])c5F)c([H])c4[H])c(C(=O)N([H])[H])c3N([H])[H])C2([H])[H])c(F)c([H])c1[H])=C([H])Oc1c([H])c([H])c2c(c1[H])C([H])([H])N(C(=O)C([H])(N([H])C(=O)C([H])(N([H])C([H])([H])[H])C([H])([H])[H])C(C([H])([H])[H])(C([H])([H])[H])C([H])([H])[H])C([H])(C(=O)N([H])C1([H])c3c([H])c([H])c([H])c([H])c3C([H])([H])C([H])([H])C1([H])[H])C2([H])[H]

$$$$
18:0:0
     RDKit          3D

 93101  0  0  1  0  0  0  0  0999 V2000
  -29.6560  -21.8820   20.6130 C   0  0  0  0  0  2  0  0  0  0  0  0
  -29.0690  -22.9470   19.6420 C   0  0  0  0  0  3  0  0  0  0  0  0
  -29.4850  -22.6570   18.4050 F   0  0  0  0  0  0  0  0  0  0  0  0
  -29.4180  -24.4180   19.9810 C   0  0  0  0  0  0  0  0  0  0  0  0
  -30.5500  -24.8740   19.7750 O   0  0  0  0  0  0  0  0  0  0  0  0
  -28.2990  -25.3030   20.5690 C   0  0  0  0  0  2  0  0  0  0  0  0
  -28.4550  -26.6980   20.2120 O   0  0  0  0  0  0  0  0  0  0  0  0
  -24.6130  -31.8940   23.2390 C   0  0  0  0  0  0  0  0  0  0  0  0
  -27.2910  -27.4410   20.1930 C   0  0  0  0  0  0  0  0  0  0  0  0
  -23.4230  -30.4840   21.5930 C   0  0  0  0  0  3  0  0  0  0  0  0
  -24.8920  -28.9520   20.1780 C   0  0  0  0  0  0  0  0  0  0  0  0
  -25.9490  -30.8510   21.4110 C   0  0  0  0  0  2  0  0  0  0  0  0
  -26.0460  -29.4780   20.7740 C   0  0  0  0  0  0  0  0  0  0  0  0
  -27.2490  -28.7310   20.7760 C   0  0  0  0  0  3  0  0  0  0  0  0
  -26.1210  -26.9430   19.5770 C   0  0  0  0  0  3  0  0  0  0  0  0
  -24.9270  -27.6860   19.5730 C   0  0  0  0  0  3  0  0  0  0  0  0
  -23.6420  -29.8050   20.2170 C   0  0  0  0  0  2  0  0  0  0  0  0
  -24.6800  -31.0910   22.1400 N   0  0  0  0  0  0  0  0  0  0  0  0
  -23.5270  -32.1640   23.7720 O   0  0  0  0  0  0  0  0  0  0  0  0
  -22.7700  -29.4610   22.5510 C   0  0  0  0  0  0  0  0  0  0  0  0
  -21.4460  -29.2760   22.4190 N   0  0  0  0  0  0  0  0  0  0  0  0
  -23.4510  -28.8340   23.3670 O   0  0  0  0  0  0  0  0  0  0  0  0
  -20.9550  -29.8370   21.7360 H   0  0  0  0  0  0  0  0  0  0  0  0
  -18.0700  -28.0820   22.9040 C   0  0  0  0  0  0  0  0  0  0  0  0
  -20.6280  -28.3370   23.1850 C   0  0  0  0  0  3  0  0  0  0  0  0
  -20.7300  -26.9070   22.6050 C   0  0  0  0  0  2  0  0  0  0  0  0
  -19.6320  -26.5870   21.5870 C   0  0  0  0  0  2  0  0  0  0  0  0
  -18.2490  -26.7340   22.2270 C   0  0  0  0  0  2  0  0  0  0  0  0
  -19.1890  -28.8420   23.3390 C   0  0  0  0  0  0  0  0  0  0  0  0
  -18.9710  -30.1070   23.9290 C   0  0  0  0  0  3  0  0  0  0  0  0
  -17.6660  -30.6110   24.0890 C   0  0  0  0  0  3  0  0  0  0  0  0
  -16.5620  -29.8460   23.6740 C   0  0  0  0  0  3  0  0  0  0  0  0
  -16.7650  -28.5850   23.0870 C   0  0  0  0  0  3  0  0  0  0  0  0
  -25.8930  -32.5320   23.8650 C   0  0  0  0  0  3  0  0  0  0  0  0
  -26.4100  -31.7650   25.1440 C   0  0  1  0  0  0  0  0  0  0  0  0
  -25.3140  -31.5220   26.2080 C   0  0  0  0  0  1  0  0  0  0  0  0
  -27.0020  -30.3910   24.7540 C   0  0  0  0  0  1  0  0  0  0  0  0
  -27.5530  -32.5680   25.8110 C   0  0  0  0  0  1  0  0  0  0  0  0
  -25.5810  -33.9310   24.1890 N   0  0  0  0  0  0  0  0  0  0  0  0
  -25.9130  -34.9800   23.4240 C   0  0  0  0  0  0  0  0  0  0  0  0
  -26.5890  -34.8730   22.3970 O   0  0  0  0  0  0  0  0  0  0  0  0
  -24.9870  -34.0900   24.9880 H   0  0  0  0  0  0  0  0  0  0  0  0
  -24.1840  -36.7650   23.0500 C   0  0  0  0  0  1  0  0  0  0  0  0
  -25.4180  -36.3670   23.8740 C   0  0  0  0  0  3  0  0  0  0  0  0
  -27.5430  -37.2600   24.7210 C   0  0  0  0  0  1  0  0  0  0  0  0
  -26.4490  -37.4230   23.7670 N   0  0  0  0  0  0  0  0  0  0  0  0
  -26.0380  -38.3420   23.9100 H   0  0  0  0  0  0  0  0  0  0  0  0
  -28.9540  -20.5880   20.5360 N   0  0  0  0  0  0  0  0  0  0  0  0
  -28.0300  -20.5820   20.9600 H   0  0  0  0  0  0  0  0  0  0  0  0
  -30.6940  -14.5010   20.1110 C   0  0  0  0  0  0  0  0  0  0  0  0
  -30.3420  -12.3610   18.9330 C   0  0  0  0  0  2  0  0  0  0  0  0
  -29.3440  -12.6020   17.7790 C   0  0  0  0  0  2  0  0  0  0  0  0
  -27.8920  -12.4560   18.2740 C   0  0  0  0  0  2  0  0  0  0  0  0
  -27.6160  -13.2600   19.5730 C   0  0  0  0  0  3  0  0  0  0  0  0
  -28.7210  -13.0040   20.6230 C   0  0  0  0  0  2  0  0  0  0  0  0
  -30.0240  -13.3170   20.0050 N   0  0  0  0  0  0  0  0  0  0  0  0
  -31.7950  -14.6840   19.5820 O   0  0  0  0  0  0  0  0  0  0  0  0
  -30.7260  -18.9330   19.7420 C   0  0  0  0  0  0  0  0  0  0  0  0
  -29.5980  -19.3380   20.4310 C   0  0  0  0  0  0  0  0  0  0  0  0
  -30.0670  -16.8940   20.5630 C   0  0  0  0  0  0  0  0  0  0  0  0
  -31.6300  -19.7680   18.8820 C   0  0  0  0  0  1  0  0  0  0  0  0
  -30.9830  -17.5520   19.8390 N   0  0  0  0  0  0  0  0  0  0  0  0
  -30.0200  -15.4760   20.7520 N   0  0  0  0  0  0  0  0  0  0  0  0
  -28.8360  -17.9690   21.2200 S   0  0  0  0  0  0  0  0  0  0  0  0
  -29.2000  -15.1500   21.2400 H   0  0  0  0  0  0  0  0  0  0  0  0
  -25.2500  -13.8540   20.3940 C   0  0  0  0  0  0  0  0  0  0  0  0
  -24.1990  -13.0730   20.7980 C   0  0  0  0  0  0  0  0  0  0  0  0
  -24.6600  -11.7240   20.7270 C   0  0  0  0  0  0  0  0  0  0  0  0
  -26.2850  -12.9770   20.1050 N   0  0  0  0  0  0  0  0  0  0  0  0
  -25.9350  -11.6910   20.3620 N   0  0  0  0  0  0  0  0  0  0  0  0
  -23.9450  -10.4590   20.9320 C   0  0  0  0  0  0  0  0  0  0  0  0
  -24.3970   -9.4970   21.8630 C   0  0  0  0  0  3  0  0  0  0  0  0
  -23.6830   -8.2950   22.0540 C   0  0  0  0  0  3  0  0  0  0  0  0
  -22.5010   -8.0450   21.3170 C   0  0  0  0  0  0  0  0  0  0  0  0
  -22.0690   -8.9950   20.3740 C   0  0  0  0  0  3  0  0  0  0  0  0
  -22.7840  -10.1880   20.1800 C   0  0  0  0  0  3  0  0  0  0  0  0
  -21.7570   -6.8950   21.4180 O   0  0  0  0  0  0  0  0  0  0  0  0
  -21.6960   -6.1790   22.5860 C   0  0  0  0  0  0  0  0  0  0  0  0
  -21.2410   -6.7560   23.7920 C   0  0  0  0  0  3  0  0  0  0  0  0
  -21.1280   -5.9640   24.9530 C   0  0  0  0  0  3  0  0  0  0  0  0
  -21.4580   -4.5960   24.9090 C   0  0  0  0  0  0  0  0  0  0  0  0
  -21.9050   -4.0190   23.7070 C   0  0  0  0  0  3  0  0  0  0  0  0
  -22.0200   -4.8070   22.5490 C   0  0  0  0  0  0  0  0  0  0  0  0
  -22.4310   -4.2410   21.3890 F   0  0  0  0  0  0  0  0  0  0  0  0
  -21.3430   -3.8340   26.0210 F   0  0  0  0  0  0  0  0  0  0  0  0
  -22.8140  -13.5450   21.1400 C   0  0  0  0  0  0  0  0  0  0  0  0
  -22.1290  -12.8330   22.0280 N   0  0  0  0  0  0  0  0  0  0  0  0
  -22.3510  -14.5760   20.6560 O   0  0  0  0  0  0  0  0  0  0  0  0
  -22.5180  -11.9970   22.4390 H   0  0  0  0  0  0  0  0  0  0  0  0
  -21.2020  -13.1260   22.3010 H   0  0  0  0  0  0  0  0  0  0  0  0
  -25.4070  -15.2260   20.2290 N   0  0  0  0  0  0  0  0  0  0  0  0
  -24.6470  -15.8810   20.3830 H   0  0  0  0  0  0  0  0  0  0  0  0
  -26.2370  -15.6680   19.8540 H   0  0  0  0  0  0  0  0  0  0  0  0
  2  3  1  0
  2  4  1  0
  2  1  1  0
  4  6  1  0
  5  4  2  0
  7  6  1  0
  8 19  2  0
  9  7  1  0
  9 14  1  0
 10 18  1  0
 10 20  1  0
 11 17  1  0
 11 13  1  0
 12 18  1  0
 13 14  2  0
 13 12  1  0
 15  9  2  0
 16 15  1  0
 16 11  2  0
 17 10  1  0
 18  8  1  0
 20 22  2  0
 21 20  1  0
 23 21  1  0
 24 33  2  0
 24 29  1  0
 25 21  1  0
 25 29  1  0
 26 25  1  0
 27 28  1  0
 27 26  1  0
 28 24  1  0
 29 30  2  0
 30 31  1  0
 32 31  2  0
 33 32  1  0
 34  8  1  0
 34 39  1  0
 34 35  1  0
 35 38  1  1
 35 36  1  0
 37 35  1  0
 39 42  1  0
 40 44  1  0
 40 39  1  0
 41 40  2  0
 44 43  1  0
 46 44  1  0
 46 47  1  0
 46 45  1  0
 48  1  1  0
 48 49  1  0
 50 63  1  0
 51 56  1  0
 52 53  1  0
 52 51  1  0
 54 53  1  0
 54 69  1  0
 54 55  1  0
 56 50  1  0
 56 55  1  0
 57 50  2  0
 58 62  1  0
 58 59  2  0
 59 48  1  0
 59 64  1  0
 60 63  1  0
 60 64  1  0
 61 58  1  0
 62 60  2  0
 63 65  1  0
 66 67  2  0
 67 86  1  0
 68 67  1  0
 68 71  1  0
 69 70  1  0
 69 66  1  0
 70 68  2  0
 71 72  1  0
 72 73  2  0
 74 77  1  0
 74 73  1  0
 75 74  2  0
 76 75  1  0
 76 71  2  0
 77 78  1  0
 78 79  1  0
 79 80  2  0
 81 80  1  0
 81 85  1  0
 82 81  2  0
 83 78  2  0
 83 82  1  0
 84 83  1  0
 86 87  1  0
 87 90  1  0
 87 89  1  0
 88 86  2  0
 91 92  1  0
 91 66  1  0
 93 91  1  0
M  ISO  4   6 101   7 101  50 100  63 100
M  END
>  <TORSDO>  (18) 
F 20

>  <SCORE>  (18) 
-13.253

>  <name>  (18) 
18

>  <ligand_id>  (18) 
18

>  <original_smiles>  (18) 
[H]c1c([H])c([H])c2c(c1[H])C([H])([H])C([H])([H])C([H])([H])C2([H])N([H])C(=O)C1([H])N(C(=O)C([H])(N([H])C(=O)C([H])(N([H])C([H])([H])[H])C([H])([H])[H])C(C([H])([H])[H])(C([H])([H])[H])C([H])([H])[H])C([H])([H])c2c([H])c(OC([H])([H])C(=O)C([H])(F)C([H])([H])N([H])c3sc(N([H])C(=O)N4C([H])([H])C([H])([H])C([H])([H])C([H])(n5nc(-c6c([H])c([H])c(Oc7c([H])c([H])c(F)c([H])c7F)c([H])c6[H])c(C(=O)N([H])[H])c5N([H])[H])C4([H])[H])nc3C([H])([H])[H])c([H])c([H])c2C1([H])[H]

>  <smiles>  (18) 
[H]c1c([H])c([H])c2c(c1[H])C([H])([H])C([H])([H])C([H])([H])C2([H])N([H])C(=O)C1([H])N(C(=O)C([H])(N([H])C(=O)C([H])(N([H])C([H])([H])[H])C([H])([H])[H])C(C([H])([H])[H])(C([H])([H])[H])C([H])([H])[H])C([H])([H])c2c([H])c(OC([H])([H])C(=O)C([H])(F)C([H])([H])N([H])c3sc(N([H])C(=O)N4C([H])([H])C([H])([H])C([H])([H])C([H])(n5nc(-c6c([H])c([H])c(Oc7c([H])c([H])c(F)c([H])c7F)c([H])c6[H])c(C(=O)N([H])[H])c5N([H])[H])C4([H])[H])nc3C([H])([H])[H])c([H])c([H])c2C1([H])[H]

$$$$
19:0:0
     RDKit          3D

 99107  0  0  1  0  0  0  0  0999 V2000
  -30.4760  -21.1230   21.4970 C   0  0  0  0  0  0  0  0  0  0  0  0
  -31.4740  -20.3400   21.0780 N   0  0  0  0  0  0  0  0  0  0  0  0
  -29.4870  -20.6880   22.0930 O   0  0  0  0  0  0  0  0  0  0  0  0
  -32.2150  -20.9060   20.6800 H   0  0  0  0  0  0  0  0  0  0  0  0
  -30.7620  -17.9610   21.0560 C   0  0  0  0  0  3  0  0  0  0  0  0
  -31.1960  -19.1350   20.3930 C   0  0  0  0  0  0  0  0  0  0  0  0
  -30.4270  -16.8130   20.2940 C   0  0  0  0  0  0  0  0  0  0  0  0
  -31.3340  -19.1530   18.9890 C   0  0  0  0  0  0  0  0  0  0  0  0
  -30.4850  -16.8760   18.8780 C   0  0  0  0  0  0  0  0  0  0  0  0
  -30.9570  -18.0330   18.2310 C   0  0  0  0  0  0  0  0  0  0  0  0
  -31.7910  -20.2680   18.3680 F   0  0  0  0  0  0  0  0  0  0  0  0
  -30.1010  -15.8170   18.1270 F   0  0  0  0  0  0  0  0  0  0  0  0
  -31.0450  -18.0660   16.8790 F   0  0  0  0  0  0  0  0  0  0  0  0
  -30.7740  -14.4680   20.7010 C   0  0  0  0  0  0  0  0  0  0  0  0
  -30.4650  -12.2750   19.6660 C   0  0  0  0  0  2  0  0  0  0  0  0
  -29.6040  -12.4570   18.4010 C   0  0  0  0  0  2  0  0  0  0  0  0
  -28.1080  -12.3600   18.7520 C   0  0  0  0  0  2  0  0  0  0  0  0
  -27.7090  -13.2430   19.9660 C   0  0  0  0  0  3  0  0  0  0  0  0
  -28.7050  -13.0850   21.1380 C   0  0  0  0  0  2  0  0  0  0  0  0
  -30.0610  -13.3160   20.6210 N   0  0  0  0  0  0  0  0  0  0  0  0
  -31.9610  -14.5520   20.3790 O   0  0  0  0  0  0  0  0  0  0  0  0
  -30.0700  -15.5880   20.9310 N   0  0  0  0  0  0  0  0  0  0  0  0
  -29.1110  -15.4830   21.2280 H   0  0  0  0  0  0  0  0  0  0  0  0
  -25.2810  -13.8710   20.5450 C   0  0  0  0  0  0  0  0  0  0  0  0
  -24.1920  -13.1130   20.8750 C   0  0  0  0  0  0  0  0  0  0  0  0
  -24.6460  -11.7580   20.8950 C   0  0  0  0  0  0  0  0  0  0  0  0
  -26.3320  -12.9830   20.3850 N   0  0  0  0  0  0  0  0  0  0  0  0
  -25.9510  -11.7070   20.6560 N   0  0  0  0  0  0  0  0  0  0  0  0
  -23.9010  -10.5040   21.0750 C   0  0  0  0  0  0  0  0  0  0  0  0
  -24.3030   -9.5370   22.0230 C   0  0  0  0  0  3  0  0  0  0  0  0
  -23.5630   -8.3460   22.1920 C   0  0  0  0  0  3  0  0  0  0  0  0
  -22.4050   -8.1150   21.4110 C   0  0  0  0  0  0  0  0  0  0  0  0
  -22.0210   -9.0700   20.4530 C   0  0  0  0  0  3  0  0  0  0  0  0
  -22.7630  -10.2500   20.2830 C   0  0  0  0  0  3  0  0  0  0  0  0
  -21.6390   -6.9780   21.4860 O   0  0  0  0  0  0  0  0  0  0  0  0
  -21.5800   -6.2260   22.6320 C   0  0  0  0  0  0  0  0  0  0  0  0
  -21.1760   -6.7800   23.8670 C   0  0  0  0  0  3  0  0  0  0  0  0
  -21.0620   -5.9560   25.0050 C   0  0  0  0  0  3  0  0  0  0  0  0
  -21.3400   -4.5790   24.9080 C   0  0  0  0  0  0  0  0  0  0  0  0
  -21.7340   -4.0250   23.6780 C   0  0  0  0  0  3  0  0  0  0  0  0
  -21.8520   -4.8460   22.5420 C   0  0  0  0  0  0  0  0  0  0  0  0
  -22.2120   -4.3030   21.3550 F   0  0  0  0  0  0  0  0  0  0  0  0
  -21.2210   -3.7850   25.9980 F   0  0  0  0  0  0  0  0  0  0  0  0
  -22.7850  -13.6030   21.0630 C   0  0  0  0  0  0  0  0  0  0  0  0
  -22.0120  -12.9360   21.9130 N   0  0  0  0  0  0  0  0  0  0  0  0
  -22.3790  -14.6170   20.4990 O   0  0  0  0  0  0  0  0  0  0  0  0
  -22.3520  -12.1190   22.3970 H   0  0  0  0  0  0  0  0  0  0  0  0
  -21.0660  -13.2490   22.0790 H   0  0  0  0  0  0  0  0  0  0  0  0
  -25.4610  -15.2370   20.3460 N   0  0  0  0  0  0  0  0  0  0  0  0
  -24.6880  -15.8940   20.3880 H   0  0  0  0  0  0  0  0  0  0  0  0
  -26.3250  -15.6630   20.0380 H   0  0  0  0  0  0  0  0  0  0  0  0
  -29.6250  -23.3260   21.0280 C   0  0  0  0  0  3  0  0  0  0  0  0
  -30.7070  -22.5180   21.1400 C   0  0  0  0  0  0  0  0  0  0  0  0
  -29.6620  -24.7400   20.6140 C   0  0  0  0  0  0  0  0  0  0  0  0
  -30.7040  -25.4090   20.5920 O   0  0  0  0  0  0  0  0  0  0  0  0
  -28.3310  -25.3600   20.1680 C   0  0  0  0  0  2  0  0  0  0  0  0
  -28.4270  -26.7830   20.1010 O   0  0  0  0  0  0  0  0  0  0  0  0
  -24.6340  -31.8890   23.2320 C   0  0  0  0  0  0  0  0  0  0  0  0
  -27.2360  -27.4730   20.1010 C   0  0  0  0  0  0  0  0  0  0  0  0
  -23.4030  -30.4980   21.5960 C   0  0  0  0  0  3  0  0  0  0  0  0
  -24.8360  -28.9670   20.1460 C   0  0  0  0  0  0  0  0  0  0  0  0
  -25.9260  -30.8570   21.3700 C   0  0  0  0  0  2  0  0  0  0  0  0
  -26.0010  -29.4910   20.7210 C   0  0  0  0  0  0  0  0  0  0  0  0
  -27.2030  -28.7540   20.6900 C   0  0  0  0  0  3  0  0  0  0  0  0
  -26.0530  -26.9520   19.5250 C   0  0  0  0  0  3  0  0  0  0  0  0
  -24.8590  -27.6970   19.5420 C   0  0  0  0  0  3  0  0  0  0  0  0
  -23.5940  -29.8250   20.2090 C   0  0  0  0  0  2  0  0  0  0  0  0
  -24.6730  -31.0950   22.1240 N   0  0  0  0  0  0  0  0  0  0  0  0
  -23.5600  -32.1620   23.7870 O   0  0  0  0  0  0  0  0  0  0  0  0
  -22.7640  -29.4720   22.5580 C   0  0  0  0  0  0  0  0  0  0  0  0
  -21.4370  -29.2990   22.4450 N   0  0  0  0  0  0  0  0  0  0  0  0
  -23.4550  -28.8370   23.3580 O   0  0  0  0  0  0  0  0  0  0  0  0
  -20.9450  -29.8630   21.7680 H   0  0  0  0  0  0  0  0  0  0  0  0
  -18.0610  -28.1180   22.9620 C   0  0  0  0  0  0  0  0  0  0  0  0
  -20.6210  -28.3600   23.2160 C   0  0  0  0  0  3  0  0  0  0  0  0
  -20.7130  -26.9320   22.6310 C   0  0  0  0  0  2  0  0  0  0  0  0
  -19.6010  -26.6210   21.6240 C   0  0  0  0  0  2  0  0  0  0  0  0
  -18.2240  -26.7690   22.2800 C   0  0  0  0  0  2  0  0  0  0  0  0
  -19.1860  -28.8720   23.3860 C   0  0  0  0  0  0  0  0  0  0  0  0
  -18.9790  -30.1340   23.9840 C   0  0  0  0  0  3  0  0  0  0  0  0
  -17.6770  -30.6410   24.1630 C   0  0  0  0  0  3  0  0  0  0  0  0
  -16.5660  -29.8820   23.7550 C   0  0  0  0  0  3  0  0  0  0  0  0
  -16.7590  -28.6230   23.1600 C   0  0  0  0  0  3  0  0  0  0  0  0
  -25.9310  -32.5080   23.8440 C   0  0  0  0  0  3  0  0  0  0  0  0
  -25.6250  -33.8960   24.2110 N   0  0  0  0  0  0  0  0  0  0  0  0
  -25.9410  -34.9650   23.4660 C   0  0  0  0  0  0  0  0  0  0  0  0
  -26.5910  -34.8870   22.4210 O   0  0  0  0  0  0  0  0  0  0  0  0
  -25.0440  -34.0310   25.0250 H   0  0  0  0  0  0  0  0  0  0  0  0
  -24.1970  -36.7560   23.1840 C   0  0  0  0  0  1  0  0  0  0  0  0
  -25.4540  -36.3410   23.9620 C   0  0  0  0  0  3  0  0  0  0  0  0
  -27.6080  -37.2130   24.7600 C   0  0  0  0  0  1  0  0  0  0  0  0
  -26.4790  -37.4020   23.8520 N   0  0  0  0  0  0  0  0  0  0  0  0
  -26.0720  -38.3140   24.0390 H   0  0  0  0  0  0  0  0  0  0  0  0
  -26.4770  -31.7060   25.0890 C   0  0  1  0  0  0  0  0  0  0  0  0
  -25.4080  -31.4420   26.1750 C   0  0  0  0  0  1  0  0  0  0  0  0
  -27.0510  -30.3400   24.6480 C   0  0  0  0  0  1  0  0  0  0  0  0
  -27.6410  -32.4880   25.7420 C   0  0  0  0  0  1  0  0  0  0  0  0
  -31.9640  -22.9370   20.8930 O   0  0  0  0  0  0  0  0  0  0  0  0
  -31.9150  -23.8690   20.7000 H   0  0  0  0  0  0  0  0  0  0  0  0
  1  3  2  0
  2  1  1  0
  4  2  1  0
  6  5  1  0
  6  2  1  0
  7 22  1  0
  7  5  2  0
  8  6  2  0
  9  7  1  0
 10  9  2  0
 10  8  1  0
 11  8  1  0
 12  9  1  0
 13 10  1  0
 14 22  1  0
 15 20  1  0
 16 17  1  0
 16 15  1  0
 18 17  1  0
 18 27  1  0
 18 19  1  0
 20 14  1  0
 20 19  1  0
 21 14  2  0
 22 23  1  0
 24 25  2  0
 25 26  1  0
 25 44  1  0
 26 29  1  0
 27 24  1  0
 27 28  1  0
 28 26  2  0
 29 30  1  0
 30 31  2  0
 32 35  1  0
 32 31  1  0
 33 32  2  0
 34 33  1  0
 34 29  2  0
 35 36  1  0
 36 37  1  0
 37 38  2  0
 39 38  1  0
 39 43  1  0
 40 39  2  0
 41 36  2  0
 41 40  1  0
 42 41  1  0
 44 45  1  0
 45 48  1  0
 45 47  1  0
 46 44  2  0
 49 50  1  0
 49 24  1  0
 51 49  1  0
 52 53  2  0
 53  1  1  0
 54 52  1  0
 55 54  2  0
 56 54  1  0
 57 56  1  0
 58 69  2  0
 59 57  1  0
 59 64  1  0
 60 68  1  0
 60 70  1  0
 61 67  1  0
 61 63  1  0
 62 68  1  0
 63 62  1  0
 64 63  2  0
 65 66  1  0
 65 59  2  0
 66 61  2  0
 67 60  1  0
 68 58  1  0
 70 72  2  0
 71 70  1  0
 73 71  1  0
 74 83  2  0
 74 79  1  0
 75 71  1  0
 75 79  1  0
 76 75  1  0
 77 78  1  0
 77 76  1  0
 78 74  1  0
 79 80  2  0
 80 81  1  0
 82 81  2  0
 83 82  1  0
 84 58  1  0
 84 85  1  0
 84 94  1  0
 85 88  1  0
 86 90  1  0
 86 85  1  0
 87 86  2  0
 90 89  1  0
 92 90  1  0
 92 93  1  0
 92 91  1  0
 94 97  1  1
 94 95  1  0
 96 94  1  0
 98 53  1  0
 99 98  1  0
M  ISO  4  14 100  22 100  56 101  57 101
M  END
>  <TORSDO>  (19) 
F 21

>  <SCORE>  (19) 
-13.640

>  <name>  (19) 
19

>  <ligand_id>  (19) 
19

>  <original_smiles>  (19) 
[H]OC(C(=O)N([H])c1c([H])c(N([H])C(=O)N2C([H])([H])C([H])([H])C([H])([H])C([H])(n3nc(-c4c([H])c([H])c(Oc5c([H])c([H])c(F)c([H])c5F)c([H])c4[H])c(C(=O)N([H])[H])c3N([H])[H])C2([H])[H])c(F)c(F)c1F)=C([H])C(=O)C([H])([H])Oc1c([H])c([H])c2c(c1[H])C([H])([H])N(C(=O)C([H])(N([H])C(=O)C([H])(N([H])C([H])([H])[H])C([H])([H])[H])C(C([H])([H])[H])(C([H])([H])[H])C([H])([H])[H])C([H])(C(=O)N([H])C1([H])c3c([H])c([H])c([H])c([H])c3C([H])([H])C([H])([H])C1([H])[H])C2([H])[H]

>  <smiles>  (19) 
[H]OC(C(=O)N([H])c1c([H])c(N([H])C(=O)N2C([H])([H])C([H])([H])C([H])([H])C([H])(n3nc(-c4c([H])c([H])c(Oc5c([H])c([H])c(F)c([H])c5F)c([H])c4[H])c(C(=O)N([H])[H])c3N([H])[H])C2([H])[H])c(F)c(F)c1F)=C([H])C(=O)C([H])([H])Oc1c([H])c([H])c2c(c1[H])C([H])([H])N(C(=O)C([H])(N([H])C(=O)C([H])(N([H])C([H])([H])[H])C([H])([H])[H])C(C([H])([H])[H])(C([H])([H])[H])C([H])([H])[H])C([H])(C(=O)N([H])C1([H])c3c([H])c([H])c([H])c([H])c3C([H])([H])C([H])([H])C1([H])[H])C2([H])[H]

$$$$
20:0:0
     RDKit          3D

 98106  0  0  1  0  0  0  0  0999 V2000
  -29.1170  -19.4710   19.6710 C   0  0  0  0  0  3  0  0  0  0  0  0
  -30.4300  -19.5280   21.6700 C   0  0  0  0  0  3  0  0  0  0  0  0
  -29.1930  -18.0360   19.6490 C   0  0  0  0  0  0  0  0  0  0  0  0
  -29.7140  -20.2650   20.6850 C   0  0  0  0  0  0  0  0  0  0  0  0
  -29.8680  -17.3020   20.6830 C   0  0  0  0  0  0  0  0  0  0  0  0
  -30.4870  -18.0970   21.6840 C   0  0  0  0  0  0  0  0  0  0  0  0
  -31.1180  -17.4790   22.7120 F   0  0  0  0  0  0  0  0  0  0  0  0
  -30.5860  -14.7920   20.5710 C   0  0  0  0  0  0  0  0  0  0  0  0
  -30.4470  -12.5230   19.5440 C   0  0  0  0  0  2  0  0  0  0  0  0
  -29.5290  -12.6060   18.3030 C   0  0  0  0  0  2  0  0  0  0  0  0
  -28.0480  -12.4290   18.6980 C   0  0  0  0  0  2  0  0  0  0  0  0
  -27.6470  -13.3070   19.9130 C   0  0  0  0  0  3  0  0  0  0  0  0
  -28.6810  -13.1920   21.0560 C   0  0  0  0  0  2  0  0  0  0  0  0
  -29.9970  -13.5520   20.5030 N   0  0  0  0  0  0  0  0  0  0  0  0
  -31.7620  -14.9580   20.2330 O   0  0  0  0  0  0  0  0  0  0  0  0
  -29.7410  -15.8400   20.8420 N   0  0  0  0  0  0  0  0  0  0  0  0
  -28.8060  -15.5310   21.0580 H   0  0  0  0  0  0  0  0  0  0  0  0
  -25.2380  -13.9030   20.5810 C   0  0  0  0  0  0  0  0  0  0  0  0
  -24.1650  -13.1280   20.9310 C   0  0  0  0  0  0  0  0  0  0  0  0
  -24.6310  -11.7780   20.9100 C   0  0  0  0  0  0  0  0  0  0  0  0
  -26.2890  -13.0230   20.3680 N   0  0  0  0  0  0  0  0  0  0  0  0
  -25.9280  -11.7410   20.6280 N   0  0  0  0  0  0  0  0  0  0  0  0
  -23.9040  -10.5150   21.0850 C   0  0  0  0  0  0  0  0  0  0  0  0
  -24.3160   -9.5490   22.0290 C   0  0  0  0  0  3  0  0  0  0  0  0
  -23.5890   -8.3510   22.1930 C   0  0  0  0  0  3  0  0  0  0  0  0
  -22.4350   -8.1100   21.4100 C   0  0  0  0  0  0  0  0  0  0  0  0
  -22.0410   -9.0640   20.4540 C   0  0  0  0  0  3  0  0  0  0  0  0
  -22.7700  -10.2530   20.2900 C   0  0  0  0  0  3  0  0  0  0  0  0
  -21.6820   -6.9630   21.4810 O   0  0  0  0  0  0  0  0  0  0  0  0
  -21.6000   -6.2250   22.6340 C   0  0  0  0  0  0  0  0  0  0  0  0
  -21.1240   -6.7830   23.8420 C   0  0  0  0  0  3  0  0  0  0  0  0
  -20.9900   -5.9720   24.9870 C   0  0  0  0  0  3  0  0  0  0  0  0
  -21.3210   -4.6050   24.9250 C   0  0  0  0  0  0  0  0  0  0  0  0
  -21.7910   -4.0470   23.7230 C   0  0  0  0  0  3  0  0  0  0  0  0
  -21.9260   -4.8560   22.5800 C   0  0  0  0  0  0  0  0  0  0  0  0
  -22.3590   -4.3090   21.4180 F   0  0  0  0  0  0  0  0  0  0  0  0
  -21.1850   -3.8230   26.0220 F   0  0  0  0  0  0  0  0  0  0  0  0
  -22.7610  -13.6030   21.1680 C   0  0  0  0  0  0  0  0  0  0  0  0
  -22.0140  -12.9080   22.0180 N   0  0  0  0  0  0  0  0  0  0  0  0
  -22.3330  -14.6270   20.6340 O   0  0  0  0  0  0  0  0  0  0  0  0
  -22.3710  -12.0810   22.4740 H   0  0  0  0  0  0  0  0  0  0  0  0
  -21.0710  -13.2090   22.2180 H   0  0  0  0  0  0  0  0  0  0  0  0
  -25.3970  -15.2730   20.4030 N   0  0  0  0  0  0  0  0  0  0  0  0
  -24.6050  -15.9020   20.4600 H   0  0  0  0  0  0  0  0  0  0  0  0
  -26.2000  -15.7000   19.9530 H   0  0  0  0  0  0  0  0  0  0  0  0
  -28.5160  -17.3010   18.4940 C   0  0  1  0  0  0  0  0  0  0  0  0
  -28.1990  -18.1230   17.4930 F   0  0  0  0  0  0  0  0  0  0  0  0
  -29.3140  -16.3560   17.9980 F   0  0  0  0  0  0  0  0  0  0  0  0
  -27.3970  -16.7290   18.9320 F   0  0  0  0  0  0  0  0  0  0  0  0
  -28.6780  -22.6360   20.4240 C   0  0  0  0  0  0  0  0  0  0  0  0
  -29.6900  -21.7430   20.6930 N   0  0  0  0  0  0  0  0  0  0  0  0
  -27.5370  -22.2290   20.1960 O   0  0  0  0  0  0  0  0  0  0  0  0
  -30.5430  -22.2040   20.9880 H   0  0  0  0  0  0  0  0  0  0  0  0
  -28.0920  -25.0980   20.3560 C   0  0  0  0  0  3  0  0  0  0  0  0
  -29.0420  -24.1000   20.4310 C   0  0  0  0  0  0  0  0  0  0  0  0
  -30.3380  -24.4390   20.4950 O   0  0  0  0  0  0  0  0  0  0  0  0
  -30.3730  -25.3870   20.4740 H   0  0  0  0  0  0  0  0  0  0  0  0
  -28.2950  -26.5060   20.2830 O   0  0  0  0  0  0  0  0  0  0  0  0
  -24.6070  -31.9750   23.2810 C   0  0  0  0  0  0  0  0  0  0  0  0
  -27.1900  -27.3830   20.2320 C   0  0  0  0  0  0  0  0  0  0  0  0
  -23.3930  -30.5800   21.6440 C   0  0  0  0  0  3  0  0  0  0  0  0
  -24.8360  -29.0220   20.2140 C   0  0  0  0  0  0  0  0  0  0  0  0
  -25.9360  -30.8780   21.4640 C   0  0  0  0  0  2  0  0  0  0  0  0
  -26.0060  -29.4960   20.8210 C   0  0  0  0  0  0  0  0  0  0  0  0
  -27.1830  -28.6850   20.8280 C   0  0  0  0  0  3  0  0  0  0  0  0
  -26.0050  -26.9860   19.5700 C   0  0  0  0  0  3  0  0  0  0  0  0
  -24.8370  -27.7710   19.5810 C   0  0  0  0  0  3  0  0  0  0  0  0
  -23.6030  -29.9040   20.2640 C   0  0  0  0  0  2  0  0  0  0  0  0
  -24.6630  -31.1630   22.1850 N   0  0  0  0  0  0  0  0  0  0  0  0
  -23.5250  -32.2590   23.8170 O   0  0  0  0  0  0  0  0  0  0  0  0
  -22.7260  -29.5690   22.6060 C   0  0  0  0  0  0  0  0  0  0  0  0
  -21.4010  -29.3900   22.4740 N   0  0  0  0  0  0  0  0  0  0  0  0
  -23.4000  -28.9470   23.4320 O   0  0  0  0  0  0  0  0  0  0  0  0
  -20.9140  -29.9450   21.7830 H   0  0  0  0  0  0  0  0  0  0  0  0
  -18.0220  -28.1950   22.9640 C   0  0  0  0  0  0  0  0  0  0  0  0
  -20.5780  -28.4590   23.2470 C   0  0  0  0  0  3  0  0  0  0  0  0
  -20.6840  -27.0230   22.6820 C   0  0  0  0  0  2  0  0  0  0  0  0
  -19.5890  -26.6920   21.6630 C   0  0  0  0  0  2  0  0  0  0  0  0
  -18.2030  -26.8410   22.2980 C   0  0  0  0  0  2  0  0  0  0  0  0
  -19.1370  -28.9610   23.3950 C   0  0  0  0  0  0  0  0  0  0  0  0
  -18.9140  -30.2260   23.9780 C   0  0  0  0  0  3  0  0  0  0  0  0
  -17.6070  -30.7280   24.1340 C   0  0  0  0  0  3  0  0  0  0  0  0
  -16.5060  -29.9590   23.7190 C   0  0  0  0  0  3  0  0  0  0  0  0
  -16.7140  -28.6940   23.1400 C   0  0  0  0  0  3  0  0  0  0  0  0
  -25.8940  -32.6020   23.8990 C   0  0  0  0  0  3  0  0  0  0  0  0
  -26.4060  -31.8310   25.1790 C   0  0  1  0  0  0  0  0  0  0  0  0
  -25.3120  -31.6040   26.2470 C   0  0  0  0  0  1  0  0  0  0  0  0
  -26.9810  -30.4480   24.7930 C   0  0  0  0  0  1  0  0  0  0  0  0
  -27.5630  -32.6200   25.8360 C   0  0  0  0  0  1  0  0  0  0  0  0
  -25.5930  -34.0020   24.2270 N   0  0  0  0  0  0  0  0  0  0  0  0
  -25.9130  -35.0510   23.4570 C   0  0  0  0  0  0  0  0  0  0  0  0
  -26.5650  -34.9410   22.4140 O   0  0  0  0  0  0  0  0  0  0  0  0
  -25.0120  -34.1620   25.0360 H   0  0  0  0  0  0  0  0  0  0  0  0
  -24.1760  -36.8420   23.1360 C   0  0  0  0  0  1  0  0  0  0  0  0
  -25.4390  -36.4430   23.9160 C   0  0  0  0  0  3  0  0  0  0  0  0
  -27.5940  -37.3350   24.6850 C   0  0  0  0  0  1  0  0  0  0  0  0
  -26.4670  -37.4960   23.7690 N   0  0  0  0  0  0  0  0  0  0  0  0
  -26.0650  -38.4170   23.9190 H   0  0  0  0  0  0  0  0  0  0  0  0
  1  4  1  0
  2  6  1  0
  3  1  2  0
  3  5  1  0
  4 51  1  0
  4  2  2  0
  5 16  1  0
  5  6  2  0
  6  7  1  0
  8 16  1  0
  9 14  1  0
 10 11  1  0
 10  9  1  0
 12 11  1  0
 12 21  1  0
 12 13  1  0
 14  8  1  0
 14 13  1  0
 15  8  2  0
 16 17  1  0
 18 19  2  0
 19 38  1  0
 20 19  1  0
 20 23  1  0
 21 18  1  0
 21 22  1  0
 22 20  2  0
 23 24  1  0
 24 25  2  0
 26 29  1  0
 26 25  1  0
 27 26  2  0
 28 27  1  0
 28 23  2  0
 29 30  1  0
 30 31  1  0
 31 32  2  0
 33 32  1  0
 33 37  1  0
 34 33  2  0
 35 30  2  0
 35 34  1  0
 36 35  1  0
 38 39  1  0
 39 42  1  0
 39 41  1  0
 40 38  2  0
 43 44  1  0
 43 18  1  0
 45 43  1  0
 46 49  1  1
 46  3  1  0
 47 46  1  0
 48 46  1  0
 50 55  1  0
 50 51  1  0
 51 53  1  0
 52 50  2  0
 54 55  2  0
 55 56  1  0
 57 56  1  0
 58 54  1  0
 59 70  2  0
 60 58  1  0
 60 65  1  0
 61 69  1  0
 61 71  1  0
 62 68  1  0
 62 64  1  0
 63 69  1  0
 64 65  2  0
 64 63  1  0
 66 67  1  0
 66 60  2  0
 67 62  2  0
 68 61  1  0
 69 59  1  0
 71 73  2  0
 72 71  1  0
 74 72  1  0
 75 84  2  0
 75 80  1  0
 76 72  1  0
 76 80  1  0
 77 76  1  0
 78 79  1  0
 78 77  1  0
 79 75  1  0
 80 81  2  0
 81 82  1  0
 83 82  2  0
 84 83  1  0
 85 59  1  0
 85 90  1  0
 85 86  1  0
 86 89  1  1
 86 87  1  0
 88 86  1  0
 90 93  1  0
 91 95  1  0
 91 90  1  0
 92 91  2  0
 95 94  1  0
 97 95  1  0
 97 98  1  0
 97 96  1  0
M  ISO  4   8 100  16 100  54 101  58 101
M  END
>  <TORSDO>  (20) 
F 20

>  <SCORE>  (20) 
-14.112

>  <name>  (20) 
20

>  <ligand_id>  (20) 
20

>  <original_smiles>  (20) 
[H]OC(C(=O)N([H])c1c([H])c(F)c(N([H])C(=O)N2C([H])([H])C([H])([H])C([H])([H])C([H])(n3nc(-c4c([H])c([H])c(Oc5c([H])c([H])c(F)c([H])c5F)c([H])c4[H])c(C(=O)N([H])[H])c3N([H])[H])C2([H])[H])c(C(F)(F)F)c1[H])=C([H])Oc1c([H])c([H])c2c(c1[H])C([H])([H])N(C(=O)C([H])(N([H])C(=O)C([H])(N([H])C([H])([H])[H])C([H])([H])[H])C(C([H])([H])[H])(C([H])([H])[H])C([H])([H])[H])C([H])(C(=O)N([H])C1([H])c3c([H])c([H])c([H])c([H])c3C([H])([H])C([H])([H])C1([H])[H])C2([H])[H]

>  <smiles>  (20) 
[H]OC(C(=O)N([H])c1c([H])c(F)c(N([H])C(=O)N2C([H])([H])C([H])([H])C([H])([H])C([H])(n3nc(-c4c([H])c([H])c(Oc5c([H])c([H])c(F)c([H])c5F)c([H])c4[H])c(C(=O)N([H])[H])c3N([H])[H])C2([H])[H])c(C(F)(F)F)c1[H])=C([H])Oc1c([H])c([H])c2c(c1[H])C([H])([H])N(C(=O)C([H])(N([H])C(=O)C([H])(N([H])C([H])([H])[H])C([H])([H])[H])C(C([H])([H])[H])(C([H])([H])[H])C([H])([H])[H])C([H])(C(=O)N([H])C1([H])c3c([H])c([H])c([H])c([H])c3C([H])([H])C([H])([H])C1([H])[H])C2([H])[H]

$$$$
21:0:0
     RDKit          3D

 98106  0  0  1  0  0  0  0  0999 V2000
  -29.2890  -21.3000   20.5780 C   0  0  0  0  0  0  0  0  0  0  0  0
  -29.6700  -20.7170   21.7310 N   0  0  0  0  0  0  0  0  0  0  0  0
  -29.1670  -20.6880   19.5140 O   0  0  0  0  0  0  0  0  0  0  0  0
  -29.8770  -21.3780   22.4670 H   0  0  0  0  0  0  0  0  0  0  0  0
  -29.4520  -18.2500   21.3560 C   0  0  0  0  0  3  0  0  0  0  0  0
  -30.8770  -16.7350   22.6350 C   0  0  0  0  0  3  0  0  0  0  0  0
  -31.0520  -19.1470   22.9810 C   0  0  0  0  0  0  0  0  0  0  0  0
  -29.8730  -16.9340   21.6630 C   0  0  0  0  0  0  0  0  0  0  0  0
  -30.0550  -19.3670   21.9940 C   0  0  0  0  0  0  0  0  0  0  0  0
  -31.4580  -17.8320   23.2930 C   0  0  0  0  0  0  0  0  0  0  0  0
  -31.6980  -20.3160   23.7120 C   0  0  0  0  0  1  0  0  0  0  0  0
  -32.4070  -17.6100   24.2340 F   0  0  0  0  0  0  0  0  0  0  0  0
  -29.8010  -15.0490   20.0860 C   0  0  0  0  0  0  0  0  0  0  0  0
  -29.5080  -13.0370   18.6870 C   0  0  0  0  0  2  0  0  0  0  0  0
  -28.3540  -13.2300   17.6850 C   0  0  0  0  0  2  0  0  0  0  0  0
  -27.0060  -12.8470   18.3260 C   0  0  0  0  0  2  0  0  0  0  0  0
  -26.7970  -13.5030   19.7180 C   0  0  0  0  0  3  0  0  0  0  0  0
  -28.0450  -13.3130   20.6080 C   0  0  0  0  0  2  0  0  0  0  0  0
  -29.2080  -13.8450   19.8780 N   0  0  0  0  0  0  0  0  0  0  0  0
  -30.7320  -15.4690   19.3920 O   0  0  0  0  0  0  0  0  0  0  0  0
  -29.2530  -15.8110   21.0480 N   0  0  0  0  0  0  0  0  0  0  0  0
  -28.3760  -15.4960   21.4360 H   0  0  0  0  0  0  0  0  0  0  0  0
  -24.5070  -13.7080   20.8730 C   0  0  0  0  0  0  0  0  0  0  0  0
  -23.6150  -12.7650   21.3080 C   0  0  0  0  0  0  0  0  0  0  0  0
  -24.2130  -11.4980   21.0290 C   0  0  0  0  0  0  0  0  0  0  0  0
  -25.5870  -13.0020   20.3660 N   0  0  0  0  0  0  0  0  0  0  0  0
  -25.4240  -11.6630   20.5130 N   0  0  0  0  0  0  0  0  0  0  0  0
  -23.6770  -10.1380   21.1680 C   0  0  0  0  0  0  0  0  0  0  0  0
  -24.1690   -9.2490   22.1500 C   0  0  0  0  0  3  0  0  0  0  0  0
  -23.6260   -7.9520   22.2770 C   0  0  0  0  0  3  0  0  0  0  0  0
  -22.5800   -7.5340   21.4210 C   0  0  0  0  0  0  0  0  0  0  0  0
  -22.1120   -8.4140   20.4290 C   0  0  0  0  0  3  0  0  0  0  0  0
  -22.6560   -9.7030   20.3010 C   0  0  0  0  0  3  0  0  0  0  0  0
  -22.0100   -6.2840   21.4530 O   0  0  0  0  0  0  0  0  0  0  0  0
  -21.7460   -5.6440   22.6380 C   0  0  0  0  0  0  0  0  0  0  0  0
  -20.8700   -6.1900   23.6010 C   0  0  0  0  0  3  0  0  0  0  0  0
  -20.5730   -5.4660   24.7740 C   0  0  0  0  0  3  0  0  0  0  0  0
  -21.1430   -4.1960   24.9800 C   0  0  0  0  0  0  0  0  0  0  0  0
  -22.0110   -3.6480   24.0190 C   0  0  0  0  0  3  0  0  0  0  0  0
  -22.3090   -4.3690   22.8500 C   0  0  0  0  0  0  0  0  0  0  0  0
  -23.1300   -3.8270   21.9180 F   0  0  0  0  0  0  0  0  0  0  0  0
  -20.8510   -3.4970   26.1020 F   0  0  0  0  0  0  0  0  0  0  0  0
  -22.2430  -13.0190   21.8630 C   0  0  0  0  0  0  0  0  0  0  0  0
  -21.7850  -12.1740   22.7790 N   0  0  0  0  0  0  0  0  0  0  0  0
  -21.5870  -14.0020   21.5200 O   0  0  0  0  0  0  0  0  0  0  0  0
  -22.3310  -11.3790   23.0740 H   0  0  0  0  0  0  0  0  0  0  0  0
  -20.8750  -12.3230   23.1900 H   0  0  0  0  0  0  0  0  0  0  0  0
  -24.4840  -15.1000   20.8480 N   0  0  0  0  0  0  0  0  0  0  0  0
  -23.6790  -15.6340   21.1570 H   0  0  0  0  0  0  0  0  0  0  0  0
  -25.2060  -15.6760   20.4340 H   0  0  0  0  0  0  0  0  0  0  0  0
  -29.1180  -23.5510   19.6580 C   0  0  0  0  0  3  0  0  0  0  0  0
  -29.0800  -22.7430   20.7470 C   0  0  0  0  0  0  0  0  0  0  0  0
  -28.9710  -25.0240   19.7000 C   0  0  0  0  0  0  0  0  0  0  0  0
  -29.6550  -25.7470   20.4350 O   0  0  0  0  0  0  0  0  0  0  0  0
  -27.9340  -25.6640   18.7640 C   0  0  0  0  0  2  0  0  0  0  0  0
  -27.9920  -27.0980   18.8370 O   0  0  0  0  0  0  0  0  0  0  0  0
  -24.4970  -31.8230   22.8250 C   0  0  0  0  0  0  0  0  0  0  0  0
  -26.8110  -27.7880   19.0070 C   0  0  0  0  0  0  0  0  0  0  0  0
  -23.1300  -30.6140   21.1540 C   0  0  0  0  0  3  0  0  0  0  0  0
  -24.4320  -29.2630   19.4260 C   0  0  0  0  0  0  0  0  0  0  0  0
  -25.6260  -31.0100   20.7570 C   0  0  0  0  0  2  0  0  0  0  0  0
  -25.6430  -29.7240   19.9570 C   0  0  0  0  0  0  0  0  0  0  0  0
  -26.8330  -28.9930   19.7460 C   0  0  0  0  0  3  0  0  0  0  0  0
  -25.5800  -27.3470   18.4660 C   0  0  0  0  0  3  0  0  0  0  0  0
  -24.3950  -28.0750   18.6800 C   0  0  0  0  0  3  0  0  0  0  0  0
  -23.2020  -30.1020   19.6910 C   0  0  0  0  0  2  0  0  0  0  0  0
  -24.4420  -31.1580   21.6360 N   0  0  0  0  0  0  0  0  0  0  0  0
  -23.4740  -32.0240   23.4950 O   0  0  0  0  0  0  0  0  0  0  0  0
  -22.5710  -29.4820   22.0470 C   0  0  0  0  0  0  0  0  0  0  0  0
  -21.2450  -29.2800   21.9950 N   0  0  0  0  0  0  0  0  0  0  0  0
  -23.3230  -28.7950   22.7410 O   0  0  0  0  0  0  0  0  0  0  0  0
  -20.6970  -29.8910   21.4060 H   0  0  0  0  0  0  0  0  0  0  0  0
  -17.9410  -27.9260   22.5550 C   0  0  0  0  0  0  0  0  0  0  0  0
  -20.5020  -28.2480   22.7180 C   0  0  0  0  0  3  0  0  0  0  0  0
  -20.6170  -26.8790   22.0090 C   0  0  0  0  0  2  0  0  0  0  0  0
  -19.4710  -26.6100   21.0270 C   0  0  0  0  0  2  0  0  0  0  0  0
  -18.1220  -26.6490   21.7530 C   0  0  0  0  0  2  0  0  0  0  0  0
  -19.0580  -28.6860   22.9930 C   0  0  0  0  0  0  0  0  0  0  0  0
  -18.8350  -29.8840   23.7060 C   0  0  0  0  0  3  0  0  0  0  0  0
  -17.5270  -30.3230   23.9850 C   0  0  0  0  0  3  0  0  0  0  0  0
  -16.4260  -29.5590   23.5620 C   0  0  0  0  0  3  0  0  0  0  0  0
  -16.6330  -28.3620   22.8520 C   0  0  0  0  0  3  0  0  0  0  0  0
  -25.8400  -32.3840   23.3860 C   0  0  0  0  0  3  0  0  0  0  0  0
  -25.5730  -33.7320   23.9030 N   0  0  0  0  0  0  0  0  0  0  0  0
  -25.9090  -34.8680   23.2770 C   0  0  0  0  0  0  0  0  0  0  0  0
  -26.5480  -34.8850   22.2200 O   0  0  0  0  0  0  0  0  0  0  0  0
  -25.0040  -33.7920   24.7350 H   0  0  0  0  0  0  0  0  0  0  0  0
  -24.2370  -36.7440   23.1790 C   0  0  0  0  0  1  0  0  0  0  0  0
  -25.4640  -36.1930   23.9230 C   0  0  0  0  0  3  0  0  0  0  0  0
  -27.6200  -36.8920   24.8660 C   0  0  0  0  0  1  0  0  0  0  0  0
  -26.5280  -37.2190   23.9530 N   0  0  0  0  0  0  0  0  0  0  0  0
  -26.1510  -38.1230   24.2240 H   0  0  0  0  0  0  0  0  0  0  0  0
  -26.4760  -31.4720   24.5060 C   0  0  1  0  0  0  0  0  0  0  0  0
  -25.4890  -31.0980   25.6370 C   0  0  0  0  0  1  0  0  0  0  0  0
  -27.0160  -30.1580   23.8960 C   0  0  0  0  0  1  0  0  0  0  0  0
  -27.6860  -32.1920   25.1460 C   0  0  0  0  0  1  0  0  0  0  0  0
  -28.8360  -23.2200   21.9830 O   0  0  0  0  0  0  0  0  0  0  0  0
  -28.5320  -22.4920   22.5130 H   0  0  0  0  0  0  0  0  0  0  0  0
  1 52  1  0
  1  2  1  0
  2  9  1  0
  2  4  1  0
  3  1  2  0
  5  8  2  0
  5  9  1  0
  6 10  2  0
  7 10  1  0
  7 11  1  0
  8  6  1  0
  9  7  2  0
 10 12  1  0
 13 21  1  0
 14 19  1  0
 15 16  1  0
 15 14  1  0
 17 16  1  0
 17 26  1  0
 17 18  1  0
 19 13  1  0
 19 18  1  0
 20 13  2  0
 21 22  1  0
 21  8  1  0
 23 24  2  0
 24 43  1  0
 25 28  1  0
 25 24  1  0
 26 27  1  0
 26 23  1  0
 27 25  2  0
 28 29  1  0
 29 30  2  0
 31 34  1  0
 31 30  1  0
 32 31  2  0
 33 32  1  0
 33 28  2  0
 34 35  1  0
 35 40  2  0
 35 36  1  0
 36 37  2  0
 37 38  1  0
 38 42  1  0
 39 38  2  0
 40 39  1  0
 41 40  1  0
 43 44  1  0
 44 46  1  0
 44 47  1  0
 45 43  2  0
 48 23  1  0
 48 49  1  0
 50 48  1  0
 51 53  1  0
 51 52  2  0
 52 97  1  0
 53 54  2  0
 55 56  1  0
 55 53  1  0
 56 58  1  0
 57 68  2  0
 58 63  1  0
 59 67  1  0
 59 69  1  0
 60 66  1  0
 60 62  1  0
 61 67  1  0
 62 61  1  0
 63 62  2  0
 64 65  1  0
 64 58  2  0
 65 60  2  0
 66 59  1  0
 67 57  1  0
 69 71  2  0
 70 69  1  0
 72 70  1  0
 73 82  2  0
 73 78  1  0
 74 70  1  0
 74 78  1  0
 75 74  1  0
 76 77  1  0
 76 75  1  0
 77 73  1  0
 78 79  2  0
 79 80  1  0
 81 80  2  0
 82 81  1  0
 83 57  1  0
 83 84  1  0
 83 93  1  0
 84 87  1  0
 85 84  1  0
 85 89  1  0
 86 85  2  0
 89 88  1  0
 89 91  1  0
 91 92  1  0
 91 90  1  0
 93 96  1  1
 93 94  1  0
 95 93  1  0
 97 98  1  0
M  ISO  4  13 100  21 100  55 101  56 101
M  END
>  <TORSDO>  (21) 
F 21

>  <SCORE>  (21) 
-6.420

>  <name>  (21) 
21

>  <ligand_id>  (21) 
21

>  <original_smiles>  (21) 
[H]OC(C(=O)N([H])c1c([H])c(N([H])C(=O)N2C([H])([H])C([H])([H])C([H])([H])C([H])(n3nc(-c4c([H])c([H])c(Oc5c([H])c([H])c(F)c([H])c5F)c([H])c4[H])c(C(=O)N([H])[H])c3N([H])[H])C2([H])[H])c([H])c(F)c1C([H])([H])[H])=C([H])C(=O)C([H])([H])Oc1c([H])c([H])c2c(c1[H])C([H])([H])N(C(=O)C([H])(N([H])C(=O)C([H])(N([H])C([H])([H])[H])C([H])([H])[H])C(C([H])([H])[H])(C([H])([H])[H])C([H])([H])[H])C([H])(C(=O)N([H])C1([H])c3c([H])c([H])c([H])c([H])c3C([H])([H])C([H])([H])C1([H])[H])C2([H])[H]

>  <smiles>  (21) 
[H]OC(C(=O)N([H])c1c([H])c(N([H])C(=O)N2C([H])([H])C([H])([H])C([H])([H])C([H])(n3nc(-c4c([H])c([H])c(Oc5c([H])c([H])c(F)c([H])c5F)c([H])c4[H])c(C(=O)N([H])[H])c3N([H])[H])C2([H])[H])c([H])c(F)c1C([H])([H])[H])=C([H])C(=O)C([H])([H])Oc1c([H])c([H])c2c(c1[H])C([H])([H])N(C(=O)C([H])(N([H])C(=O)C([H])(N([H])C([H])([H])[H])C([H])([H])[H])C(C([H])([H])[H])(C([H])([H])[H])C([H])([H])[H])C([H])(C(=O)N([H])C1([H])c3c([H])c([H])c([H])c([H])c3C([H])([H])C([H])([H])C1([H])[H])C2([H])[H]

$$$$
22:0:0
     RDKit          3D

 98106  0  0  1  0  0  0  0  0999 V2000
  -30.8060  -22.9100   20.1290 C   0  0  0  0  0  0  0  0  0  0  0  0
  -30.5730  -21.8710   20.9420 N   0  0  0  0  0  0  0  0  0  0  0  0
  -31.8690  -23.1220   19.5390 O   0  0  0  0  0  0  0  0  0  0  0  0
  -29.6490  -21.8150   21.3480 H   0  0  0  0  0  0  0  0  0  0  0  0
  -29.6080  -23.8770   20.0700 C   0  0  0  0  0  0  0  0  0  0  0  0
  -28.6070  -23.6550   19.3800 O   0  0  0  0  0  0  0  0  0  0  0  0
  -29.7470  -25.1000   20.9800 C   0  0  0  0  0  2  0  0  0  0  0  0
  -28.5300  -26.6010   22.5910 C   0  0  0  0  0  1  0  0  0  0  0  0
  -28.4670  -25.9290   21.2030 C   0  0  0  0  0  3  0  0  0  0  0  0
  -28.3550  -26.8900   20.1450 O   0  0  0  0  0  0  0  0  0  0  0  0
  -24.5320  -31.9690   23.2810 C   0  0  0  0  0  0  0  0  0  0  0  0
  -27.1860  -27.6090   20.1470 C   0  0  0  0  0  0  0  0  0  0  0  0
  -23.3220  -30.5850   21.6240 C   0  0  0  0  0  3  0  0  0  0  0  0
  -24.7760  -29.0710   20.1740 C   0  0  0  0  0  0  0  0  0  0  0  0
  -25.8390  -30.9700   21.4120 C   0  0  0  0  0  2  0  0  0  0  0  0
  -25.9300  -29.6100   20.7570 C   0  0  0  0  0  0  0  0  0  0  0  0
  -27.1390  -28.8900   20.7350 C   0  0  0  0  0  3  0  0  0  0  0  0
  -26.0240  -27.0730   19.5560 C   0  0  0  0  0  3  0  0  0  0  0  0
  -24.8160  -27.8000   19.5690 C   0  0  0  0  0  3  0  0  0  0  0  0
  -23.5240  -29.9170   20.2360 C   0  0  0  0  0  2  0  0  0  0  0  0
  -24.5830  -31.1880   22.1660 N   0  0  0  0  0  0  0  0  0  0  0  0
  -23.4540  -32.2310   23.8310 O   0  0  0  0  0  0  0  0  0  0  0  0
  -22.6780  -29.5520   22.5750 C   0  0  0  0  0  0  0  0  0  0  0  0
  -21.3570  -29.3520   22.4340 N   0  0  0  0  0  0  0  0  0  0  0  0
  -23.3620  -28.9300   23.3920 O   0  0  0  0  0  0  0  0  0  0  0  0
  -20.8670  -29.9040   21.7440 H   0  0  0  0  0  0  0  0  0  0  0  0
  -17.9940  -28.1150   22.8850 C   0  0  0  0  0  0  0  0  0  0  0  0
  -20.5450  -28.4010   23.1910 C   0  0  0  0  0  3  0  0  0  0  0  0
  -20.6730  -26.9750   22.6080 C   0  0  0  0  0  2  0  0  0  0  0  0
  -19.5880  -26.6440   21.5790 C   0  0  0  0  0  2  0  0  0  0  0  0
  -18.1960  -26.7710   22.2060 C   0  0  0  0  0  2  0  0  0  0  0  0
  -19.0980  -28.8880   23.3340 C   0  0  0  0  0  0  0  0  0  0  0  0
  -18.8590  -30.1480   23.9240 C   0  0  0  0  0  3  0  0  0  0  0  0
  -17.5470  -30.6330   24.0750 C   0  0  0  0  0  3  0  0  0  0  0  0
  -16.4560  -29.8560   23.6480 C   0  0  0  0  0  3  0  0  0  0  0  0
  -16.6810  -28.5990   23.0580 C   0  0  0  0  0  3  0  0  0  0  0  0
  -25.8220  -32.5940   23.9030 C   0  0  0  0  0  3  0  0  0  0  0  0
  -25.5220  -33.9930   24.2330 N   0  0  0  0  0  0  0  0  0  0  0  0
  -25.8850  -35.0450   23.4860 C   0  0  0  0  0  0  0  0  0  0  0  0
  -26.5810  -34.9380   22.4730 O   0  0  0  0  0  0  0  0  0  0  0  0
  -24.9160  -34.1520   25.0240 H   0  0  0  0  0  0  0  0  0  0  0  0
  -24.2070  -36.8690   23.0700 C   0  0  0  0  0  1  0  0  0  0  0  0
  -25.4010  -36.4360   23.9370 C   0  0  0  0  0  3  0  0  0  0  0  0
  -27.5070  -37.2750   24.8800 C   0  0  0  0  0  1  0  0  0  0  0  0
  -26.4560  -37.4720   23.8860 N   0  0  0  0  0  0  0  0  0  0  0  0
  -26.0580  -38.3980   24.0230 H   0  0  0  0  0  0  0  0  0  0  0  0
  -26.3370  -31.8170   25.1760 C   0  0  1  0  0  0  0  0  0  0  0  0
  -25.2410  -31.5770   26.2420 C   0  0  0  0  0  1  0  0  0  0  0  0
  -26.9180  -30.4410   24.7760 C   0  0  0  0  0  1  0  0  0  0  0  0
  -27.4880  -32.6060   25.8420 C   0  0  0  0  0  1  0  0  0  0  0  0
  -31.5840  -20.9430   21.4370 C   0  0  0  0  0  2  0  0  0  0  0  0
  -30.6530  -18.9430   20.1790 C   0  0  0  0  0  3  0  0  0  0  0  0
  -31.1470  -19.4880   21.3840 C   0  0  0  0  0  0  0  0  0  0  0  0
  -30.4430  -16.7500   21.2390 C   0  0  0  0  0  0  0  0  0  0  0  0
  -30.2990  -17.5820   20.1050 C   0  0  0  0  0  0  0  0  0  0  0  0
  -31.2610  -18.6590   22.5250 C   0  0  0  0  0  0  0  0  0  0  0  0
  -30.9000  -17.2970   22.4540 C   0  0  0  0  0  0  0  0  0  0  0  0
  -29.8110  -17.0810   18.9450 F   0  0  0  0  0  0  0  0  0  0  0  0
  -31.7240  -19.1660   23.6930 F   0  0  0  0  0  0  0  0  0  0  0  0
  -31.0130  -16.5120   23.5540 F   0  0  0  0  0  0  0  0  0  0  0  0
  -30.6140  -14.5360   20.2520 C   0  0  0  0  0  0  0  0  0  0  0  0
  -30.2230  -12.4740   18.9650 C   0  0  0  0  0  2  0  0  0  0  0  0
  -29.2260  -12.7620   17.8250 C   0  0  0  0  0  2  0  0  0  0  0  0
  -27.7720  -12.6080   18.3170 C   0  0  0  0  0  2  0  0  0  0  0  0
  -27.5060  -13.3750   19.6400 C   0  0  0  0  0  3  0  0  0  0  0  0
  -28.6080  -13.0690   20.6800 C   0  0  0  0  0  2  0  0  0  0  0  0
  -29.9170  -13.3830   20.0770 N   0  0  0  0  0  0  0  0  0  0  0  0
  -31.6420  -14.8070   19.6210 O   0  0  0  0  0  0  0  0  0  0  0  0
  -30.1140  -15.3750   21.1660 N   0  0  0  0  0  0  0  0  0  0  0  0
  -29.3630  -15.0440   21.7510 H   0  0  0  0  0  0  0  0  0  0  0  0
  -25.1300  -13.9520   20.4520 C   0  0  0  0  0  0  0  0  0  0  0  0
  -24.0840  -13.1640   20.8510 C   0  0  0  0  0  0  0  0  0  0  0  0
  -24.5530  -11.8170   20.7750 C   0  0  0  0  0  0  0  0  0  0  0  0
  -26.1730  -13.0830   20.1640 N   0  0  0  0  0  0  0  0  0  0  0  0
  -25.8290  -11.7930   20.4120 N   0  0  0  0  0  0  0  0  0  0  0  0
  -23.8450  -10.5450   20.9710 C   0  0  0  0  0  0  0  0  0  0  0  0
  -24.2960   -9.5850   21.9030 C   0  0  0  0  0  3  0  0  0  0  0  0
  -23.5870   -8.3770   22.0880 C   0  0  0  0  0  3  0  0  0  0  0  0
  -22.4130   -8.1220   21.3400 C   0  0  0  0  0  0  0  0  0  0  0  0
  -21.9820   -9.0720   20.3970 C   0  0  0  0  0  3  0  0  0  0  0  0
  -22.6910  -10.2700   20.2110 C   0  0  0  0  0  3  0  0  0  0  0  0
  -21.6760   -6.9670   21.4330 O   0  0  0  0  0  0  0  0  0  0  0  0
  -21.6230   -6.2390   22.5940 C   0  0  0  0  0  0  0  0  0  0  0  0
  -21.1510   -6.7950   23.8030 C   0  0  0  0  0  3  0  0  0  0  0  0
  -21.0490   -5.9900   24.9560 C   0  0  0  0  0  3  0  0  0  0  0  0
  -21.4080   -4.6300   24.9000 C   0  0  0  0  0  0  0  0  0  0  0  0
  -21.8740   -4.0740   23.6960 C   0  0  0  0  0  3  0  0  0  0  0  0
  -21.9780   -4.8760   22.5460 C   0  0  0  0  0  0  0  0  0  0  0  0
  -22.4070   -4.3280   21.3830 F   0  0  0  0  0  0  0  0  0  0  0  0
  -21.3030   -3.8560   26.0050 F   0  0  0  0  0  0  0  0  0  0  0  0
  -22.6960  -13.6250   21.1940 C   0  0  0  0  0  0  0  0  0  0  0  0
  -22.0060  -12.8970   22.0650 N   0  0  0  0  0  0  0  0  0  0  0  0
  -22.2330  -14.6650   20.7250 O   0  0  0  0  0  0  0  0  0  0  0  0
  -22.3920  -12.0550   22.4650 H   0  0  0  0  0  0  0  0  0  0  0  0
  -21.0770  -13.1880   22.3370 H   0  0  0  0  0  0  0  0  0  0  0  0
  -25.2770  -15.3270   20.2940 N   0  0  0  0  0  0  0  0  0  0  0  0
  -24.5100  -15.9730   20.4470 H   0  0  0  0  0  0  0  0  0  0  0  0
  -26.1140  -15.7800   19.9480 H   0  0  0  0  0  0  0  0  0  0  0  0
  1  2  1  0
  2  4  1  0
  2 51  1  0
  3  1  2  0
  5  1  1  0
  5  7  1  0
  6  5  2  0
  7  9  1  0
  9  8  1  0
 10 12  1  0
 10  9  1  0
 11 22  2  0
 12 17  1  0
 13 21  1  0
 13 23  1  0
 14 20  1  0
 14 16  1  0
 15 21  1  0
 16 15  1  0
 17 16  2  0
 18 19  1  0
 18 12  2  0
 19 14  2  0
 20 13  1  0
 21 11  1  0
 23 25  2  0
 24 23  1  0
 26 24  1  0
 27 36  2  0
 27 32  1  0
 28 24  1  0
 28 32  1  0
 29 28  1  0
 30 31  1  0
 30 29  1  0
 31 27  1  0
 32 33  2  0
 33 34  1  0
 35 34  2  0
 36 35  1  0
 37 11  1  0
 37 38  1  0
 37 47  1  0
 38 41  1  0
 39 43  1  0
 39 38  1  0
 40 39  2  0
 43 42  1  0
 45 43  1  0
 45 46  1  0
 45 44  1  0
 47 50  1  1
 47 48  1  0
 49 47  1  0
 52 53  1  0
 53 51  1  0
 53 56  2  0
 54 57  2  0
 55 52  2  0
 55 54  1  0
 56 59  1  0
 57 56  1  0
 57 60  1  0
 58 55  1  0
 61 69  1  0
 62 67  1  0
 63 64  1  0
 63 62  1  0
 65 64  1  0
 65 74  1  0
 65 66  1  0
 67 61  1  0
 67 66  1  0
 68 61  2  0
 69 54  1  0
 69 70  1  0
 71 72  2  0
 72 91  1  0
 73 72  1  0
 73 76  1  0
 74 75  1  0
 74 71  1  0
 75 73  2  0
 76 77  1  0
 77 78  2  0
 79 82  1  0
 79 78  1  0
 80 79  2  0
 81 80  1  0
 81 76  2  0
 82 83  1  0
 83 84  1  0
 84 85  2  0
 86 85  1  0
 86 90  1  0
 87 86  2  0
 88 83  2  0
 88 87  1  0
 89 88  1  0
 91 92  1  0
 92 95  1  0
 92 94  1  0
 93 91  2  0
 96 97  1  0
 96 71  1  0
 98 96  1  0
M  ISO  4   9 101  10 101  61 100  69 100
M  END
>  <TORSDO>  (22) 
F 21

>  <SCORE>  (22) 
-13.412

>  <name>  (22) 
22

>  <ligand_id>  (22) 
22

>  <original_smiles>  (22) 
[H]c1c([H])c([H])c2c(c1[H])C([H])([H])C([H])([H])C([H])([H])C2([H])N([H])C(=O)C1([H])N(C(=O)C([H])(N([H])C(=O)C([H])(N([H])C([H])([H])[H])C([H])([H])[H])C(C([H])([H])[H])(C([H])([H])[H])C([H])([H])[H])C([H])([H])c2c([H])c(OC([H])(C([H])([H])[H])C([H])([H])C(=O)C(=O)N([H])C([H])([H])c3c([H])c(F)c(N([H])C(=O)N4C([H])([H])C([H])([H])C([H])([H])C([H])(n5nc(-c6c([H])c([H])c(Oc7c([H])c([H])c(F)c([H])c7F)c([H])c6[H])c(C(=O)N([H])[H])c5N([H])[H])C4([H])[H])c(F)c3F)c([H])c([H])c2C1([H])[H]

>  <smiles>  (22) 
[H]c1c([H])c([H])c2c(c1[H])C([H])([H])C([H])([H])C([H])([H])C2([H])N([H])C(=O)C1([H])N(C(=O)C([H])(N([H])C(=O)C([H])(N([H])C([H])([H])[H])C([H])([H])[H])C(C([H])([H])[H])(C([H])([H])[H])C([H])([H])[H])C([H])([H])c2c([H])c(OC([H])(C([H])([H])[H])C([H])([H])C(=O)C(=O)N([H])C([H])([H])c3c([H])c(F)c(N([H])C(=O)N4C([H])([H])C([H])([H])C([H])([H])C([H])(n5nc(-c6c([H])c([H])c(Oc7c([H])c([H])c(F)c([H])c7F)c([H])c6[H])c(C(=O)N([H])[H])c5N([H])[H])C4([H])[H])c(F)c3F)c([H])c([H])c2C1([H])[H]

$$$$
23:0:0
     RDKit          3D

 96104  0  0  1  0  0  0  0  0999 V2000
  -28.7840  -21.8440   20.7400 C   0  0  0  0  0  0  0  0  0  0  0  0
  -29.6660  -20.9840   20.1950 N   0  0  0  0  0  0  0  0  0  0  0  0
  -27.8660  -21.5490   21.5160 O   0  0  0  0  0  0  0  0  0  0  0  0
  -30.3320  -21.4140   19.5660 H   0  0  0  0  0  0  0  0  0  0  0  0
  -31.0720  -17.6050   19.6560 C   0  0  0  0  0  3  0  0  0  0  0  0
  -30.2090  -16.8060   20.4430 C   0  0  0  0  0  0  0  0  0  0  0  0
  -30.8600  -19.0000   19.6050 C   0  0  0  0  0  0  0  0  0  0  0  0
  -29.7990  -19.5750   20.3370 C   0  0  0  0  0  0  0  0  0  0  0  0
  -29.1890  -17.4690   21.1500 C   0  0  0  0  0  0  0  0  0  0  0  0
  -28.9870  -18.8050   21.1030 N   0  0  0  0  0  0  0  0  0  0  0  0
  -31.6650  -19.7840   18.8460 F   0  0  0  0  0  0  0  0  0  0  0  0
  -28.3460  -16.7280   21.9070 F   0  0  0  0  0  0  0  0  0  0  0  0
  -30.8500  -14.4820   19.7340 C   0  0  0  0  0  0  0  0  0  0  0  0
  -30.4270  -12.4040   18.4730 C   0  0  0  0  0  2  0  0  0  0  0  0
  -29.3550  -12.6910   17.4010 C   0  0  0  0  0  2  0  0  0  0  0  0
  -27.9360  -12.5290   17.9820 C   0  0  0  0  0  2  0  0  0  0  0  0
  -27.7520  -13.2800   19.3270 C   0  0  0  0  0  3  0  0  0  0  0  0
  -28.9180  -12.9610   20.2900 C   0  0  0  0  0  2  0  0  0  0  0  0
  -30.1820  -13.3030   19.6110 N   0  0  0  0  0  0  0  0  0  0  0  0
  -31.8780  -14.7430   19.1040 O   0  0  0  0  0  0  0  0  0  0  0  0
  -30.2600  -15.3770   20.5470 N   0  0  0  0  0  0  0  0  0  0  0  0
  -29.5430  -14.9820   21.1390 H   0  0  0  0  0  0  0  0  0  0  0  0
  -25.4420  -13.8560   20.3110 C   0  0  0  0  0  0  0  0  0  0  0  0
  -24.4180  -13.0660   20.7600 C   0  0  0  0  0  0  0  0  0  0  0  0
  -24.8670  -11.7180   20.6180 C   0  0  0  0  0  0  0  0  0  0  0  0
  -26.4540  -12.9870   19.9320 N   0  0  0  0  0  0  0  0  0  0  0  0
  -26.1160  -11.6930   20.1700 N   0  0  0  0  0  0  0  0  0  0  0  0
  -24.1620  -10.4480   20.8290 C   0  0  0  0  0  0  0  0  0  0  0  0
  -24.6210   -9.4930   21.7620 C   0  0  0  0  0  3  0  0  0  0  0  0
  -23.9160   -8.2870   21.9590 C   0  0  0  0  0  3  0  0  0  0  0  0
  -22.7360   -8.0260   21.2230 C   0  0  0  0  0  0  0  0  0  0  0  0
  -22.2950   -8.9690   20.2780 C   0  0  0  0  0  3  0  0  0  0  0  0
  -23.0020  -10.1670   20.0780 C   0  0  0  0  0  3  0  0  0  0  0  0
  -22.0000   -6.8710   21.3290 O   0  0  0  0  0  0  0  0  0  0  0  0
  -21.8910   -6.1940   22.5180 C   0  0  0  0  0  0  0  0  0  0  0  0
  -21.3740   -6.8080   23.6800 C   0  0  0  0  0  3  0  0  0  0  0  0
  -21.2150   -6.0560   24.8610 C   0  0  0  0  0  3  0  0  0  0  0  0
  -21.5600   -4.6920   24.8800 C   0  0  0  0  0  0  0  0  0  0  0  0
  -22.0690   -4.0780   23.7230 C   0  0  0  0  0  3  0  0  0  0  0  0
  -22.2310   -4.8270   22.5440 C   0  0  0  0  0  0  0  0  0  0  0  0
  -22.7020   -4.2250   21.4250 F   0  0  0  0  0  0  0  0  0  0  0  0
  -21.3990   -3.9680   26.0120 F   0  0  0  0  0  0  0  0  0  0  0  0
  -23.0590  -13.5290   21.2040 C   0  0  0  0  0  0  0  0  0  0  0  0
  -22.4460  -12.8160   22.1430 N   0  0  0  0  0  0  0  0  0  0  0  0
  -22.5540  -14.5580   20.7560 O   0  0  0  0  0  0  0  0  0  0  0  0
  -22.8690  -11.9840   22.5270 H   0  0  0  0  0  0  0  0  0  0  0  0
  -21.5410  -13.1070   22.4840 H   0  0  0  0  0  0  0  0  0  0  0  0
  -25.5920  -15.2330   20.1750 N   0  0  0  0  0  0  0  0  0  0  0  0
  -24.8450  -15.8820   20.3950 H   0  0  0  0  0  0  0  0  0  0  0  0
  -26.4010  -15.6830   19.7660 H   0  0  0  0  0  0  0  0  0  0  0  0
  -29.0440  -23.3120   20.2810 C   0  0  0  0  0  0  0  0  0  0  0  0
  -29.8480  -23.5750   19.3770 O   0  0  0  0  0  0  0  0  0  0  0  0
  -28.2460  -24.4230   20.9980 C   0  0  0  0  0  2  0  0  0  0  0  0
  -28.7890  -26.4430   22.4930 C   0  0  0  0  0  1  0  0  0  0  0  0
  -28.9490  -25.8090   21.0960 C   0  0  0  0  0  3  0  0  0  0  0  0
  -28.6280  -26.7170   20.0220 O   0  0  0  0  0  0  0  0  0  0  0  0
  -24.7560  -31.7850   23.2170 C   0  0  0  0  0  0  0  0  0  0  0  0
  -27.4420  -27.4140   20.0910 C   0  0  0  0  0  0  0  0  0  0  0  0
  -23.5510  -30.3670   21.5850 C   0  0  0  0  0  3  0  0  0  0  0  0
  -25.0130  -28.8610   20.1350 C   0  0  0  0  0  0  0  0  0  0  0  0
  -26.0620  -30.7820   21.3460 C   0  0  0  0  0  2  0  0  0  0  0  0
  -26.1670  -29.4130   20.7060 C   0  0  0  0  0  0  0  0  0  0  0  0
  -27.3850  -28.7010   20.6750 C   0  0  0  0  0  3  0  0  0  0  0  0
  -26.2790  -26.8750   19.5070 C   0  0  0  0  0  3  0  0  0  0  0  0
  -25.0640  -27.5900   19.5320 C   0  0  0  0  0  3  0  0  0  0  0  0
  -23.7520  -29.6940   20.2000 C   0  0  0  0  0  2  0  0  0  0  0  0
  -24.8090  -30.9930   22.1090 N   0  0  0  0  0  0  0  0  0  0  0  0
  -23.6790  -32.0350   23.7750 O   0  0  0  0  0  0  0  0  0  0  0  0
  -22.9340  -29.3310   22.5530 C   0  0  0  0  0  0  0  0  0  0  0  0
  -21.6160  -29.1090   22.4290 N   0  0  0  0  0  0  0  0  0  0  0  0
  -23.6390  -28.7300   23.3670 O   0  0  0  0  0  0  0  0  0  0  0  0
  -21.1080  -29.6490   21.7420 H   0  0  0  0  0  0  0  0  0  0  0  0
  -18.2810  -27.8110   22.9280 C   0  0  0  0  0  0  0  0  0  0  0  0
  -20.8290  -28.1500   23.2030 C   0  0  0  0  0  3  0  0  0  0  0  0
  -20.9780  -26.7190   22.6310 C   0  0  0  0  0  2  0  0  0  0  0  0
  -19.8880  -26.3590   21.6170 C   0  0  0  0  0  2  0  0  0  0  0  0
  -18.5010  -26.4640   22.2600 C   0  0  0  0  0  2  0  0  0  0  0  0
  -19.3750  -28.6090   23.3560 C   0  0  0  0  0  0  0  0  0  0  0  0
  -19.1180  -29.8680   23.9400 C   0  0  0  0  0  3  0  0  0  0  0  0
  -17.7990  -30.3300   24.1010 C   0  0  0  0  0  3  0  0  0  0  0  0
  -16.7190  -29.5300   23.6900 C   0  0  0  0  0  3  0  0  0  0  0  0
  -16.9610  -28.2730   23.1090 C   0  0  0  0  0  3  0  0  0  0  0  0
  -26.0410  -32.4360   23.8200 C   0  0  0  0  0  3  0  0  0  0  0  0
  -26.6070  -31.6530   25.0680 C   0  0  1  0  0  0  0  0  0  0  0  0
  -25.5440  -31.3640   26.1530 C   0  0  0  0  0  1  0  0  0  0  0  0
  -27.2190  -30.3010   24.6300 C   0  0  0  0  0  1  0  0  0  0  0  0
  -27.7490  -32.4660   25.7230 C   0  0  0  0  0  1  0  0  0  0  0  0
  -25.7080  -33.8200   24.1800 N   0  0  0  0  0  0  0  0  0  0  0  0
  -26.0100  -34.8930   23.4350 C   0  0  0  0  0  0  0  0  0  0  0  0
  -26.6680  -34.8220   22.3950 O   0  0  0  0  0  0  0  0  0  0  0  0
  -25.1180  -33.9470   24.9900 H   0  0  0  0  0  0  0  0  0  0  0  0
  -24.2460  -36.6590   23.1240 C   0  0  0  0  0  1  0  0  0  0  0  0
  -25.4980  -36.2610   23.9230 C   0  0  0  0  0  3  0  0  0  0  0  0
  -27.6190  -37.1690   24.7650 C   0  0  0  0  0  1  0  0  0  0  0  0
  -26.5110  -37.3350   23.8280 N   0  0  0  0  0  0  0  0  0  0  0  0
  -26.0890  -38.2440   23.9950 H   0  0  0  0  0  0  0  0  0  0  0  0
  1  3  2  0
  2  8  1  0
  2  1  1  0
  4  2  1  0
  5  6  1  0
  6 21  1  0
  6  9  2  0
  7  5  2  0
  7  8  1  0
  8 10  2  0
  9 12  1  0
 10  9  1  0
 11  7  1  0
 13 21  1  0
 14 19  1  0
 15 16  1  0
 15 14  1  0
 17 16  1  0
 17 26  1  0
 17 18  1  0
 19 13  1  0
 19 18  1  0
 20 13  2  0
 21 22  1  0
 23 24  2  0
 24 43  1  0
 25 24  1  0
 25 28  1  0
 26 27  1  0
 26 23  1  0
 27 25  2  0
 28 29  1  0
 29 30  2  0
 31 34  1  0
 31 30  1  0
 32 31  2  0
 33 32  1  0
 33 28  2  0
 34 35  1  0
 35 40  2  0
 35 36  1  0
 36 37  2  0
 37 38  1  0
 38 42  1  0
 39 38  2  0
 40 39  1  0
 41 40  1  0
 43 44  1  0
 44 47  1  0
 44 46  1  0
 45 43  2  0
 48 23  1  0
 48 49  1  0
 50 48  1  0
 51  1  1  0
 51 53  1  0
 52 51  2  0
 53 55  1  0
 55 54  1  0
 56 58  1  0
 56 55  1  0
 57 68  2  0
 58 63  1  0
 59 67  1  0
 59 69  1  0
 60 66  1  0
 60 62  1  0
 61 67  1  0
 62 61  1  0
 63 62  2  0
 64 65  1  0
 64 58  2  0
 65 60  2  0
 66 59  1  0
 67 57  1  0
 69 71  2  0
 70 69  1  0
 72 70  1  0
 73 82  2  0
 73 78  1  0
 74 70  1  0
 74 78  1  0
 75 74  1  0
 76 77  1  0
 76 75  1  0
 77 73  1  0
 78 79  2  0
 79 80  1  0
 81 80  2  0
 82 81  1  0
 83 57  1  0
 83 88  1  0
 83 84  1  0
 84 87  1  1
 84 85  1  0
 86 84  1  0
 88 91  1  0
 89 93  1  0
 89 88  1  0
 90 89  2  0
 93 92  1  0
 95 93  1  0
 95 96  1  0
 95 94  1  0
M  ISO  4  13 100  21 100  55 101  56 101
M  END
>  <TORSDO>  (23) 
F 20

>  <SCORE>  (23) 
-11.822

>  <name>  (23) 
23

>  <ligand_id>  (23) 
23

>  <original_smiles>  (23) 
[H]c1c([H])c([H])c2c(c1[H])C([H])([H])C([H])([H])C([H])([H])C2([H])N([H])C(=O)C1([H])N(C(=O)C([H])(N([H])C(=O)C([H])(N([H])C([H])([H])[H])C([H])([H])[H])C(C([H])([H])[H])(C([H])([H])[H])C([H])([H])[H])C([H])([H])c2c([H])c(OC([H])(C([H])([H])[H])C([H])([H])C(=O)C(=O)N([H])c3nc(F)c(N([H])C(=O)N4C([H])([H])C([H])([H])C([H])([H])C([H])(n5nc(-c6c([H])c([H])c(Oc7c([H])c([H])c(F)c([H])c7F)c([H])c6[H])c(C(=O)N([H])[H])c5N([H])[H])C4([H])[H])c([H])c3F)c([H])c([H])c2C1([H])[H]

>  <smiles>  (23) 
[H]c1c([H])c([H])c2c(c1[H])C([H])([H])C([H])([H])C([H])([H])C2([H])N([H])C(=O)C1([H])N(C(=O)C([H])(N([H])C(=O)C([H])(N([H])C([H])([H])[H])C([H])([H])[H])C(C([H])([H])[H])(C([H])([H])[H])C([H])([H])[H])C([H])([H])c2c([H])c(OC([H])(C([H])([H])[H])C([H])([H])C(=O)C(=O)N([H])c3nc(F)c(N([H])C(=O)N4C([H])([H])C([H])([H])C([H])([H])C([H])(n5nc(-c6c([H])c([H])c(Oc7c([H])c([H])c(F)c([H])c7F)c([H])c6[H])c(C(=O)N([H])[H])c5N([H])[H])C4([H])[H])c([H])c3F)c([H])c([H])c2C1([H])[H]

$$$$
24:0:0
     RDKit          3D

 95103  0  0  1  0  0  0  0  0999 V2000
  -29.9780  -18.1340   20.3940 C   0  0  0  0  0  0  0  0  0  0  0  0
  -28.5970  -18.1250   20.3670 C   0  0  0  0  0  0  0  0  0  0  0  0
  -29.5700  -20.4080   20.2520 C   0  0  0  0  0  0  0  0  0  0  0  0
  -29.1190  -22.8700   20.3390 C   0  0  0  0  0  0  0  0  0  0  0  0
  -30.5060  -19.4440   20.3060 N   0  0  0  0  0  0  0  0  0  0  0  0
  -29.9350  -21.7950   20.2150 N   0  0  0  0  0  0  0  0  0  0  0  0
  -27.8970  -22.8010   20.5110 O   0  0  0  0  0  0  0  0  0  0  0  0
  -27.9340  -19.7420   20.2500 S   0  0  0  0  0  0  0  0  0  0  0  0
  -30.9170  -22.0080   20.1080 H   0  0  0  0  0  0  0  0  0  0  0  0
  -27.7240  -17.0430   20.4630 N   0  0  0  0  0  0  0  0  0  0  0  0
  -27.9700  -16.2260   21.0100 H   0  0  0  0  0  0  0  0  0  0  0  0
  -26.7230  -17.2090   20.4900 H   0  0  0  0  0  0  0  0  0  0  0  0
  -29.8420  -24.2660   20.2570 C   0  0  0  0  0  0  0  0  0  0  0  0
  -30.9970  -24.4420   20.6660 O   0  0  0  0  0  0  0  0  0  0  0  0
  -29.0300  -25.3980   19.5840 C   0  0  0  0  0  2  0  0  0  0  0  0
  -29.1350  -26.7240   20.1810 O   0  0  0  0  0  0  0  0  0  0  0  0
  -24.7250  -31.4220   23.3220 C   0  0  0  0  0  0  0  0  0  0  0  0
  -27.9590  -27.4640   20.0960 C   0  0  0  0  0  0  0  0  0  0  0  0
  -23.7890  -30.1260   21.4410 C   0  0  0  0  0  3  0  0  0  0  0  0
  -25.4800  -28.8560   20.0200 C   0  0  0  0  0  0  0  0  0  0  0  0
  -26.2980  -30.6500   21.5460 C   0  0  0  0  0  2  0  0  0  0  0  0
  -26.5430  -29.3640   20.7780 C   0  0  0  0  0  0  0  0  0  0  0  0
  -27.7860  -28.6750   20.8180 C   0  0  0  0  0  3  0  0  0  0  0  0
  -26.8710  -27.0060   19.3100 C   0  0  0  0  0  3  0  0  0  0  0  0
  -25.6410  -27.6760   19.2840 C   0  0  0  0  0  3  0  0  0  0  0  0
  -24.1780  -29.6200   20.0280 C   0  0  0  0  0  2  0  0  0  0  0  0
  -24.9490  -30.7430   22.1620 N   0  0  0  0  0  0  0  0  0  0  0  0
  -23.5800  -31.5690   23.7700 O   0  0  0  0  0  0  0  0  0  0  0  0
  -23.1320  -28.9650   22.2220 C   0  0  0  0  0  0  0  0  0  0  0  0
  -21.8290  -28.7420   21.9800 N   0  0  0  0  0  0  0  0  0  0  0  0
  -23.7910  -28.2750   23.0030 O   0  0  0  0  0  0  0  0  0  0  0  0
  -21.3590  -29.3540   21.3280 H   0  0  0  0  0  0  0  0  0  0  0  0
  -18.4710  -27.4180   22.1890 C   0  0  0  0  0  0  0  0  0  0  0  0
  -21.0130  -27.6840   22.5760 C   0  0  0  0  0  3  0  0  0  0  0  0
  -21.1670  -26.3570   21.7970 C   0  0  0  0  0  2  0  0  0  0  0  0
  -20.1000  -26.1670   20.7140 C   0  0  0  0  0  2  0  0  0  0  0  0
  -18.6970  -26.1880   21.3270 C   0  0  0  0  0  2  0  0  0  0  0  0
  -19.5590  -28.1300   22.7620 C   0  0  0  0  0  0  0  0  0  0  0  0
  -19.2930  -29.2870   23.5270 C   0  0  0  0  0  3  0  0  0  0  0  0
  -17.9730  -29.7310   23.7250 C   0  0  0  0  0  3  0  0  0  0  0  0
  -16.8990  -29.0160   23.1670 C   0  0  0  0  0  3  0  0  0  0  0  0
  -17.1480  -27.8610   22.4060 C   0  0  0  0  0  3  0  0  0  0  0  0
  -25.8950  -32.0680   24.1250 C   0  0  0  0  0  3  0  0  0  0  0  0
  -26.1720  -31.3530   25.5060 C   0  0  1  0  0  0  0  0  0  0  0  0
  -24.9100  -31.1920   26.3850 C   0  0  0  0  0  1  0  0  0  0  0  0
  -26.7730  -29.9440   25.2840 C   0  0  0  0  0  1  0  0  0  0  0  0
  -27.2190  -32.1580   26.3120 C   0  0  0  0  0  1  0  0  0  0  0  0
  -25.5590  -33.4840   24.3330 N   0  0  0  0  0  0  0  0  0  0  0  0
  -26.0130  -34.4930   23.5770 C   0  0  0  0  0  0  0  0  0  0  0  0
  -26.8280  -34.3320   22.6640 O   0  0  0  0  0  0  0  0  0  0  0  0
  -24.8510  -33.6850   25.0240 H   0  0  0  0  0  0  0  0  0  0  0  0
  -24.3820  -36.2700   22.8630 C   0  0  0  0  0  1  0  0  0  0  0  0
  -25.4730  -35.9030   23.8810 C   0  0  0  0  0  3  0  0  0  0  0  0
  -27.4700  -36.8060   24.9880 C   0  0  0  0  0  1  0  0  0  0  0  0
  -26.5150  -36.9530   23.8920 N   0  0  0  0  0  0  0  0  0  0  0  0
  -26.0900  -37.8730   23.9710 H   0  0  0  0  0  0  0  0  0  0  0  0
  -30.9410  -16.9620   20.5610 C   0  0  0  0  0  2  0  0  0  0  0  0
  -31.0280  -14.5110   20.1240 C   0  0  0  0  0  0  0  0  0  0  0  0
  -30.6630  -12.2940   19.1000 C   0  0  0  0  0  2  0  0  0  0  0  0
  -29.6870  -12.4610   17.9160 C   0  0  0  0  0  2  0  0  0  0  0  0
  -28.2290  -12.3550   18.4030 C   0  0  0  0  0  2  0  0  0  0  0  0
  -27.9420  -13.2450   19.6430 C   0  0  0  0  0  3  0  0  0  0  0  0
  -29.0350  -13.0760   20.7220 C   0  0  0  0  0  2  0  0  0  0  0  0
  -30.3340  -13.3390   20.0850 N   0  0  0  0  0  0  0  0  0  0  0  0
  -32.1510  -14.6270   19.6300 O   0  0  0  0  0  0  0  0  0  0  0  0
  -30.3740  -15.5960   20.5860 N   0  0  0  0  0  0  0  0  0  0  0  0
  -29.4320  -15.4900   20.9330 H   0  0  0  0  0  0  0  0  0  0  0  0
  -25.6060  -13.9110   20.4920 C   0  0  0  0  0  0  0  0  0  0  0  0
  -24.5280  -13.1660   20.8860 C   0  0  0  0  0  0  0  0  0  0  0  0
  -24.9360  -11.7990   20.7850 C   0  0  0  0  0  0  0  0  0  0  0  0
  -26.6060  -13.0010   20.1820 N   0  0  0  0  0  0  0  0  0  0  0  0
  -26.2080  -11.7230   20.4130 N   0  0  0  0  0  0  0  0  0  0  0  0
  -24.1700  -10.5590   20.9680 C   0  0  0  0  0  0  0  0  0  0  0  0
  -24.5780   -9.5720   21.8920 C   0  0  0  0  0  3  0  0  0  0  0  0
  -23.8140   -8.3970   22.0630 C   0  0  0  0  0  3  0  0  0  0  0  0
  -22.6310   -8.2020   21.3120 C   0  0  0  0  0  0  0  0  0  0  0  0
  -22.2440   -9.1780   20.3770 C   0  0  0  0  0  3  0  0  0  0  0  0
  -23.0060  -10.3450   20.2020 C   0  0  0  0  0  3  0  0  0  0  0  0
  -21.8420   -7.0810   21.3920 O   0  0  0  0  0  0  0  0  0  0  0  0
  -21.6940   -6.3880   22.5670 C   0  0  0  0  0  0  0  0  0  0  0  0
  -21.1620   -6.9930   23.7280 C   0  0  0  0  0  3  0  0  0  0  0  0
  -20.9640   -6.2260   24.8930 C   0  0  0  0  0  3  0  0  0  0  0  0
  -21.2840   -4.8550   24.8980 C   0  0  0  0  0  0  0  0  0  0  0  0
  -21.8050   -4.2500   23.7410 C   0  0  0  0  0  3  0  0  0  0  0  0
  -22.0070   -5.0140   22.5790 C   0  0  0  0  0  0  0  0  0  0  0  0
  -22.4920   -4.4220   21.4600 F   0  0  0  0  0  0  0  0  0  0  0  0
  -21.0880   -4.1160   26.0160 F   0  0  0  0  0  0  0  0  0  0  0  0
  -23.1660  -13.6860   21.2490 C   0  0  0  0  0  0  0  0  0  0  0  0
  -22.4700  -13.0020   22.1490 N   0  0  0  0  0  0  0  0  0  0  0  0
  -22.7310  -14.7320   20.7700 O   0  0  0  0  0  0  0  0  0  0  0  0
  -22.8350  -12.1540   22.5580 H   0  0  0  0  0  0  0  0  0  0  0  0
  -21.5580  -13.3280   22.4310 H   0  0  0  0  0  0  0  0  0  0  0  0
  -25.8170  -15.2800   20.3610 N   0  0  0  0  0  0  0  0  0  0  0  0
  -25.1000  -15.9580   20.5880 H   0  0  0  0  0  0  0  0  0  0  0  0
  -26.7210  -15.7040   20.1910 H   0  0  0  0  0  0  0  0  0  0  0  0
  1 57  1  0
  2  1  2  0
  2 10  1  0
  3  5  2  0
  4  7  2  0
  5  1  1  0
  6  3  1  0
  6  4  1  0
  8  3  1  0
  8  2  1  0
  9  6  1  0
 10 12  1  0
 10 11  1  0
 13  4  1  0
 13 14  2  0
 15 16  1  0
 15 13  1  0
 17 28  2  0
 18 16  1  0
 18 23  1  0
 19 27  1  0
 19 29  1  0
 20 26  1  0
 20 22  1  0
 21 27  1  0
 22 23  2  0
 22 21  1  0
 24 18  2  0
 25 24  1  0
 25 20  2  0
 26 19  1  0
 27 17  1  0
 29 31  2  0
 30 29  1  0
 32 30  1  0
 33 42  2  0
 33 38  1  0
 34 30  1  0
 34 38  1  0
 35 34  1  0
 36 37  1  0
 36 35  1  0
 37 33  1  0
 38 39  2  0
 39 40  1  0
 41 40  2  0
 42 41  1  0
 43 17  1  0
 43 48  1  0
 43 44  1  0
 44 47  1  1
 44 45  1  0
 46 44  1  0
 48 51  1  0
 49 53  1  0
 49 48  1  0
 50 49  2  0
 53 52  1  0
 53 55  1  0
 55 56  1  0
 55 54  1  0
 57 66  1  0
 58 66  1  0
 59 64  1  0
 60 61  1  0
 60 59  1  0
 62 61  1  0
 62 71  1  0
 62 63  1  0
 64 58  1  0
 64 63  1  0
 65 58  2  0
 66 67  1  0
 68 69  2  0
 69 88  1  0
 70 69  1  0
 70 73  1  0
 71 72  1  0
 71 68  1  0
 72 70  2  0
 73 74  1  0
 74 75  2  0
 76 79  1  0
 76 75  1  0
 77 76  2  0
 78 77  1  0
 78 73  2  0
 79 80  1  0
 80 85  2  0
 80 81  1  0
 81 82  2  0
 82 83  1  0
 83 87  1  0
 84 83  2  0
 85 84  1  0
 86 85  1  0
 88 89  1  0
 89 92  1  0
 89 91  1  0
 90 88  2  0
 93 68  1  0
 93 94  1  0
 95 93  1  0
M  ISO  4  15 101  16 101  58 100  66 100
M  END
>  <TORSDO>  (24) 
F 20

>  <SCORE>  (24) 
-12.769

>  <name>  (24) 
24

>  <ligand_id>  (24) 
24

>  <original_smiles>  (24) 
[H]c1c([H])c([H])c2c(c1[H])C([H])([H])C([H])([H])C([H])([H])C2([H])N([H])C(=O)C1([H])N(C(=O)C([H])(N([H])C(=O)C([H])(N([H])C([H])([H])[H])C([H])([H])[H])C(C([H])([H])[H])(C([H])([H])[H])C([H])([H])[H])C([H])([H])c2c([H])c(OC([H])([H])C(=O)C(=O)N([H])c3nc(C([H])([H])N([H])C(=O)N4C([H])([H])C([H])([H])C([H])([H])C([H])(n5nc(-c6c([H])c([H])c(Oc7c([H])c([H])c(F)c([H])c7F)c([H])c6[H])c(C(=O)N([H])[H])c5N([H])[H])C4([H])[H])c(N([H])[H])s3)c([H])c([H])c2C1([H])[H]

>  <smiles>  (24) 
[H]c1c([H])c([H])c2c(c1[H])C([H])([H])C([H])([H])C([H])([H])C2([H])N([H])C(=O)C1([H])N(C(=O)C([H])(N([H])C(=O)C([H])(N([H])C([H])([H])[H])C([H])([H])[H])C(C([H])([H])[H])(C([H])([H])[H])C([H])([H])[H])C([H])([H])c2c([H])c(OC([H])([H])C(=O)C(=O)N([H])c3nc(C([H])([H])N([H])C(=O)N4C([H])([H])C([H])([H])C([H])([H])C([H])(n5nc(-c6c([H])c([H])c(Oc7c([H])c([H])c(F)c([H])c7F)c([H])c6[H])c(C(=O)N([H])[H])c5N([H])[H])C4([H])[H])c(N([H])[H])s3)c([H])c([H])c2C1([H])[H]

$$$$
25:0:0
     RDKit          3D

 97 96  0  0  1  0  0  0  0  0999 V2000
  -25.7170  -14.7600   19.9050 C   0  0  0  0  0  1  0  0  0  0  0  0
  -26.4790  -14.5620   18.7720 N   0  0  0  0  0  0  0  0  0  0  0  0
  -25.4710  -13.3220   22.0840 O   0  0  0  0  0  0  0  0  0  0  0  0
  -25.9560  -14.8090   17.9490 H   0  0  0  0  0  0  0  0  0  0  0  0
  -28.0420  -16.0970   17.6440 C   0  0  0  0  0  1  0  0  0  0  0  0
  -27.9380  -14.8390   18.5150 C   0  0  0  0  0  3  0  0  0  0  0  0
  -28.9050  -15.6320   20.8370 C   0  0  0  0  0  3  0  0  0  0  0  0
  -31.1680  -15.2070   21.4390 C   0  0  0  0  0  3  0  0  0  0  0  0
  -29.9710  -15.8560   21.7010 C   0  0  0  0  0  0  0  0  0  0  0  0
  -29.0360  -14.9200   19.6360 C   0  0  0  0  0  0  0  0  0  0  0  0
  -31.1460  -14.2740   20.3910 C   0  0  0  0  0  0  0  0  0  0  0  0
  -30.2050  -14.2830   19.4120 N   0  0  0  0  0  0  0  0  0  0  0  0
  -29.8030  -16.5840   22.8320 F   0  0  0  0  0  0  0  0  0  0  0  0
  -31.5250  -12.2820   21.5490 C   0  0  0  0  0  0  0  0  0  0  0  0
  -31.1160  -10.4990   20.0040 C   0  0  0  0  0  2  0  0  0  0  0  0
  -30.7340  -11.1790   18.6880 C   0  0  0  0  0  2  0  0  0  0  0  0
  -29.2610  -11.4700   18.7070 C   0  0  0  0  0  2  0  0  0  0  0  0
  -28.5870  -11.5750   20.1230 C   0  0  0  0  0  3  0  0  0  0  0  0
  -29.2860  -11.3200   21.4240 C   0  0  0  0  0  2  0  0  0  0  0  0
  -30.6940  -11.3240   21.1250 N   0  0  0  0  0  0  0  0  0  0  0  0
  -32.0210  -12.3570   22.6520 O   0  0  0  0  0  0  0  0  0  0  0  0
  -31.9150  -13.1270   20.5820 N   0  0  0  0  0  0  0  0  0  0  0  0
  -31.9770  -12.6080   19.7200 H   0  0  0  0  0  0  0  0  0  0  0  0
  -26.4250  -13.7140   21.7000 C   0  0  0  0  0  2  0  0  0  0  0  0
  -24.5700  -13.0010   21.5090 C   0  0  0  0  0  2  0  0  0  0  0  0
  -24.4630  -11.5420   20.1630 C   0  0  0  0  0  1  0  0  0  0  0  0
  -27.6210  -12.5860   20.1470 N   0  0  0  0  0  1  0  0  0  0  0  0
  -26.1590  -11.3260   19.2650 N   0  0  0  0  0 15  0  0  0  0  0  0
  -23.8860  -10.1100   20.7000 C   0  0  0  0  0  0  0  0  0  0  0  0
  -24.4240   -9.0700   21.5980 C   0  0  0  0  0  3  0  0  0  0  0  0
  -23.6930   -7.8760   22.0020 C   0  0  0  0  0  3  0  0  0  0  0  0
  -22.3690   -7.6590   21.5320 C   0  0  0  0  0  0  0  0  0  0  0  0
  -21.8630   -8.6440   20.6700 C   0  0  0  0  0  3  0  0  0  0  0  0
  -22.5880   -9.7950   20.2820 C   0  0  0  0  0  3  0  0  0  0  0  0
  -21.5350   -6.5550   21.7190 O   0  0  0  0  0  0  0  0  0  0  0  0
  -21.4680   -5.7510   22.8400 C   0  0  0  0  0  0  0  0  0  0  0  0
  -21.2920   -6.2640   24.1430 C   0  0  0  0  0  3  0  0  0  0  0  0
  -21.1600   -5.3860   25.2420 C   0  0  0  0  0  3  0  0  0  0  0  0
  -21.1980   -3.9920   25.0480 C   0  0  0  0  0  0  0  0  0  0  0  0
  -21.3370   -3.4730   23.7500 C   0  0  0  0  0  3  0  0  0  0  0  0
  -21.4560   -4.3460   22.6530 C   0  0  0  0  0  0  0  0  0  0  0  0
  -21.5520   -3.8250   21.4060 F   0  0  0  0  0  0  0  0  0  0  0  0
  -21.0940   -3.1500   26.1050 F   0  0  0  0  0  0  0  0  0  0  0  0
  -23.2190  -13.4580   21.6330 C   0  0  0  0  0  0  0  0  0  0  0  0
  -22.4370  -12.6170   22.2910 N   0  0  0  0  0  0  0  0  0  0  0  0
  -22.8140  -14.2960   20.8450 O   0  0  0  0  0  0  0  0  0  0  0  0
  -22.8370  -11.8570   22.8240 H   0  0  0  0  0  0  0  0  0  0  0  0
  -21.4410  -12.7760   22.3150 H   0  0  0  0  0  0  0  0  0  0  0  0
  -26.9440  -14.8960   21.9760 N   0  0  0  0  0  0  0  0  0  0  0  0
  -26.5260  -15.4960   22.6760 H   0  0  0  0  0  0  0  0  0  0  0  0
  -27.9330  -15.0800   21.8500 H   0  0  0  0  0  0  0  0  0  0  0  0
  -25.7190  -16.8850   19.6130 C   0  0  0  0  0 15  0  0  0  0  0  0
  -26.6180  -18.8100   18.8920 C   0  0  0  0  0 15  0  0  0  0  0  0
  -27.4360  -20.7180   19.1810 C   0  0  0  0  0  2  0  0  0  0  0  0
  -28.2480  -20.6130   20.1070 O   0  0  0  0  0  0  0  0  0  0  0  0
  -27.4000  -22.7310   18.5930 C   0  0  0  0  0 15  0  0  0  0  0  0
  -28.0370  -24.5920   18.9200 O   0  0  0  0  0  1  0  0  0  0  0  0
  -24.8030  -31.0080   22.5700 C   0  0  0  0  0  0  0  0  0  0  0  0
  -27.4430  -26.1250   19.0100 C   0  0  0  0  0  0  0  0  0  0  0  0
  -23.7940  -29.6710   20.7970 C   0  0  0  0  0  3  0  0  0  0  0  0
  -25.3500  -28.3670   19.1550 C   0  0  0  0  0  0  0  0  0  0  0  0
  -26.3620  -29.9500   20.7520 C   0  0  0  0  0  2  0  0  0  0  0  0
  -26.5030  -28.5820   19.9080 C   0  0  0  0  0  0  0  0  0  0  0  0
  -27.5550  -27.4750   19.8180 C   0  0  0  0  0  3  0  0  0  0  0  0
  -26.3760  -26.3310   18.1390 C   0  0  0  0  0  3  0  0  0  0  0  0
  -25.3640  -27.3170   18.2350 C   0  0  0  0  0  3  0  0  0  0  0  0
  -24.1000  -29.2370   19.3360 C   0  0  0  0  0  2  0  0  0  0  0  0
  -25.0140  -30.2610   21.4230 N   0  0  0  0  0  0  0  0  0  0  0  0
  -23.6740  -31.1210   23.0840 O   0  0  0  0  0  0  0  0  0  0  0  0
  -23.2280  -28.4880   21.6300 C   0  0  0  0  0  0  0  0  0  0  0  0
  -21.9220  -28.1840   21.5060 N   0  0  0  0  0  0  0  0  0  0  0  0
  -23.9740  -27.8560   22.3820 O   0  0  0  0  0  0  0  0  0  0  0  0
  -21.3530  -28.7520   20.8930 H   0  0  0  0  0  0  0  0  0  0  0  0
  -18.7360  -26.4860   21.9180 C   0  0  0  0  0  0  0  0  0  0  0  0
  -21.2470  -27.0620   22.1710 C   0  0  0  0  0  3  0  0  0  0  0  0
  -21.5150  -25.7320   21.4280 C   0  0  0  0  0  2  0  0  0  0  0  0
  -20.4370  -25.3910   20.3960 C   0  0  0  0  0  2  0  0  0  0  0  0
  -19.0680  -25.2680   21.0710 C   0  0  0  0  0  2  0  0  0  0  0  0
  -19.7570  -27.3370   22.4200 C   0  0  0  0  0  0  0  0  0  0  0  0
  -19.3910  -28.4700   23.1800 C   0  0  0  0  0  3  0  0  0  0  0  0
  -18.0380  -28.7600   23.4350 C   0  0  0  0  0  3  0  0  0  0  0  0
  -17.0320  -27.9110   22.9420 C   0  0  0  0  0  3  0  0  0  0  0  0
  -17.3810  -26.7740   22.1920 C   0  0  0  0  0  3  0  0  0  0  0  0
  -25.9520  -31.7730   23.2910 C   0  0  0  0  0  3  0  0  0  0  0  0
  -25.3890  -33.0120   23.8790 N   0  0  0  0  0  0  0  0  0  0  0  0
  -25.4900  -34.2440   23.3610 C   0  0  0  0  0  0  0  0  0  0  0  0
  -26.1190  -34.4750   22.3270 O   0  0  0  0  0  0  0  0  0  0  0  0
  -24.8100  -32.8910   24.6980 H   0  0  0  0  0  0  0  0  0  0  0  0
  -23.4420  -35.7210   23.4270 C   0  0  0  0  0  1  0  0  0  0  0  0
  -24.7870  -35.4050   24.1040 C   0  0  0  0  0  3  0  0  0  0  0  0
  -26.7670  -36.5160   25.0460 C   0  0  0  0  0  1  0  0  0  0  0  0
  -25.5970  -36.6420   24.1790 N   0  0  0  0  0  0  0  0  0  0  0  0
  -25.0350  -37.4180   24.5200 H   0  0  0  0  0  0  0  0  0  0  0  0
  -26.6380  -30.9240   24.4330 C   0  0  1  0  0  0  0  0  0  0  0  0
  -25.6410  -30.3210   25.4500 C   0  0  0  0  0  1  0  0  0  0  0  0
  -27.4630  -29.7580   23.8530 C   0  0  0  0  0  1  0  0  0  0  0  0
  -27.6350  -31.8100   25.2180 C   0  0  0  0  0  1  0  0  0  0  0  0
  2  1  1  0
  4  2  1  0
  6  5  1  0
  6  2  1  0
  6 10  1  0
  7  9  1  0
  8  9  2  0
  9 13  1  0
 10  7  2  0
 11 22  1  0
 11  8  1  0
 12 10  1  0
 12 11  2  0
 14 21  2  0
 15 20  1  0
 16 17  1  0
 16 15  1  0
 17 18  1  0
 18 27  1  0
 18 19  1  0
 20 19  1  0
 20 14  1  0
 22 14  1  0
 23 22  1  0
 24 49  1  0
 24  3  1  0
 25 44  1  0
 25  3  1  0
 26 29  1  0
 29 30  1  0
 30 31  2  0
 32 35  1  0
 32 31  1  0
 33 32  2  0
 34 33  1  0
 34 29  2  0
 35 36  1  0
 36 37  1  0
 37 38  2  0
 39 38  1  0
 39 43  1  0
 40 39  2  0
 41 36  2  0
 41 40  1  0
 42 41  1  0
 44 45  1  0
 45 48  1  0
 45 47  1  0
 46 44  2  0
 49 50  1  0
 51 49  1  0
 54 55  2  0
 57 59  1  0
 58 69  2  0
 59 64  1  0
 60 68  1  0
 60 70  1  0
 61 67  1  0
 61 63  1  0
 62 68  1  0
 63 62  1  0
 64 63  2  0
 65 66  1  0
 65 59  2  0
 66 61  2  0
 67 60  1  0
 68 58  1  0
 70 72  2  0
 71 70  1  0
 73 71  1  0
 74 83  2  0
 74 79  1  0
 75 71  1  0
 75 79  1  0
 76 75  1  0
 77 78  1  0
 77 76  1  0
 78 74  1  0
 79 80  2  0
 80 81  1  0
 82 81  2  0
 83 82  1  0
 84 58  1  0
 84 85  1  0
 84 94  1  0
 85 88  1  0
 86 85  1  0
 86 90  1  0
 87 86  2  0
 90 89  1  0
 90 92  1  0
 92 93  1  0
 92 91  1  0
 94 97  1  1
 94 95  1  0
 96 94  1  0
M  ISO  4  14 100  22 100  56 101  57 101
M  END
>  <TORSDO>  (25) 
F 22

>  <SCORE>  (25) 
-2.464

>  <name>  (25) 
25

>  <ligand_id>  (25) 
25

>  <original_smiles>  (25) 
[H]c1c([H])c([H])c2c(c1[H])C([H])([H])C([H])([H])C([H])([H])C2([H])N([H])C(=O)C1([H])N(C(=O)C([H])(N([H])C(=O)C([H])(N([H])C([H])([H])[H])C([H])([H])[H])C(C([H])([H])[H])(C([H])([H])[H])C([H])([H])[H])C([H])([H])c2c([H])c(OC([H])([H])C(=O)C([H])([H])C([H])([H])C(=O)N([H])C([H])(c3nc(N([H])C(=O)N4C([H])([H])C([H])([H])C([H])([H])C([H])(n5nc(-c6c([H])c([H])c(Oc7c([H])c([H])c(F)c([H])c7F)c([H])c6[H])c(C(=O)N([H])[H])c5N([H])[H])C4([H])[H])c([H])c(F)c3[H])C([H])([H])[H])c([H])c([H])c2C1([H])[H]

>  <smiles>  (25) 
[H]c1c([H])c([H])c2c(c1[H])C([H])([H])C([H])([H])C([H])([H])C2([H])N([H])C(=O)C1([H])N(C(=O)C([H])(N([H])C(=O)C([H])(N([H])C([H])([H])[H])C([H])([H])[H])C(C([H])([H])[H])(C([H])([H])[H])C([H])([H])[H])C([H])([H])c2c([H])c(OC([H])([H])C(=O)C([H])([H])C([H])([H])C(=O)N([H])C([H])(c3nc(N([H])C(=O)N4C([H])([H])C([H])([H])C([H])([H])C([H])(n5nc(-c6c([H])c([H])c(Oc7c([H])c([H])c(F)c([H])c7F)c([H])c6[H])c(C(=O)N([H])[H])c5N([H])[H])C4([H])[H])c([H])c(F)c3[H])C([H])([H])[H])c([H])c([H])c2C1([H])[H]

$$$$
26:0:0
     RDKit          3D

 96104  0  0  1  0  0  0  0  0999 V2000
  -29.1580  -23.2360   20.1350 C   0  0  0  0  0  0  0  0  0  0  0  0
  -29.0190  -21.8790   20.2670 N   0  0  0  0  0  0  0  0  0  0  0  0
  -30.0920  -23.7400   19.5120 O   0  0  0  0  0  0  0  0  0  0  0  0
  -28.1550  -21.6360   20.7370 H   0  0  0  0  0  0  0  0  0  0  0  0
  -27.8640  -25.3360   20.9660 C   0  0  0  0  0  3  0  0  0  0  0  0
  -28.1640  -23.9920   20.9410 C   0  0  0  0  0  0  0  0  0  0  0  0
  -27.4470  -23.2460   21.8020 O   0  0  0  0  0  0  0  0  0  0  0  0
  -26.8610  -23.8340   22.2620 H   0  0  0  0  0  0  0  0  0  0  0  0
  -28.2440  -26.4690   20.2380 O   0  0  0  0  0  0  0  0  0  0  0  0
  -24.5710  -31.8930   23.2360 C   0  0  0  0  0  0  0  0  0  0  0  0
  -27.1980  -27.3920   20.1350 C   0  0  0  0  0  0  0  0  0  0  0  0
  -23.3670  -30.4990   21.5950 C   0  0  0  0  0  3  0  0  0  0  0  0
  -24.8210  -28.9690   20.1480 C   0  0  0  0  0  0  0  0  0  0  0  0
  -25.9040  -30.8330   21.4060 C   0  0  0  0  0  2  0  0  0  0  0  0
  -25.9870  -29.4640   20.7500 C   0  0  0  0  0  0  0  0  0  0  0  0
  -27.1830  -28.6830   20.7400 C   0  0  0  0  0  3  0  0  0  0  0  0
  -26.0160  -26.9530   19.4980 C   0  0  0  0  0  3  0  0  0  0  0  0
  -24.8370  -27.7190   19.5090 C   0  0  0  0  0  3  0  0  0  0  0  0
  -23.5780  -29.8330   20.2110 C   0  0  0  0  0  2  0  0  0  0  0  0
  -24.6320  -31.0920   22.1370 N   0  0  0  0  0  0  0  0  0  0  0  0
  -23.4890  -32.1670   23.7770 O   0  0  0  0  0  0  0  0  0  0  0  0
  -22.7120  -29.4760   22.5520 C   0  0  0  0  0  0  0  0  0  0  0  0
  -21.3850  -29.3000   22.4310 N   0  0  0  0  0  0  0  0  0  0  0  0
  -23.3940  -28.8420   23.3620 O   0  0  0  0  0  0  0  0  0  0  0  0
  -20.8910  -29.8590   21.7490 H   0  0  0  0  0  0  0  0  0  0  0  0
  -18.0090  -28.1130   22.9420 C   0  0  0  0  0  0  0  0  0  0  0  0
  -20.5690  -28.3620   23.2020 C   0  0  0  0  0  3  0  0  0  0  0  0
  -20.6640  -26.9310   22.6220 C   0  0  0  0  0  2  0  0  0  0  0  0
  -19.5580  -26.6210   21.6070 C   0  0  0  0  0  2  0  0  0  0  0  0
  -18.1770  -26.7660   22.2550 C   0  0  0  0  0  2  0  0  0  0  0  0
  -19.1330  -28.8680   23.3720 C   0  0  0  0  0  0  0  0  0  0  0  0
  -18.9210  -30.1280   23.9710 C   0  0  0  0  0  3  0  0  0  0  0  0
  -17.6190  -30.6300   24.1460 C   0  0  0  0  0  3  0  0  0  0  0  0
  -16.5100  -29.8720   23.7320 C   0  0  0  0  0  3  0  0  0  0  0  0
  -16.7050  -28.6160   23.1330 C   0  0  0  0  0  3  0  0  0  0  0  0
  -25.8560  -32.5230   23.8590 C   0  0  0  0  0  3  0  0  0  0  0  0
  -26.3600  -31.7580   25.1450 C   0  0  1  0  0  0  0  0  0  0  0  0
  -25.2620  -31.5410   26.2130 C   0  0  0  0  0  1  0  0  0  0  0  0
  -26.9290  -30.3710   24.7680 C   0  0  0  0  0  1  0  0  0  0  0  0
  -27.5150  -32.5480   25.8030 C   0  0  0  0  0  1  0  0  0  0  0  0
  -25.5490  -33.9250   24.1800 N   0  0  0  0  0  0  0  0  0  0  0  0
  -25.8920  -34.9740   23.4180 C   0  0  0  0  0  0  0  0  0  0  0  0
  -26.5740  -34.8590   22.3960 O   0  0  0  0  0  0  0  0  0  0  0  0
  -24.9410  -34.0860   24.9710 H   0  0  0  0  0  0  0  0  0  0  0  0
  -24.1840  -36.7780   23.0260 C   0  0  0  0  0  1  0  0  0  0  0  0
  -25.4060  -36.3660   23.8620 C   0  0  0  0  0  3  0  0  0  0  0  0
  -27.5340  -37.2400   24.7230 C   0  0  0  0  0  1  0  0  0  0  0  0
  -26.4460  -37.4130   23.7630 N   0  0  0  0  0  0  0  0  0  0  0  0
  -26.0420  -38.3350   23.9060 H   0  0  0  0  0  0  0  0  0  0  0  0
  -30.0970  -20.8550   20.4280 C   0  0  0  0  0  2  0  0  0  0  0  0
  -30.2010  -19.4420   18.2770 C   0  0  0  0  0  3  0  0  0  0  0  0
  -30.3490  -16.9930   18.3250 C   0  0  0  0  0  3  0  0  0  0  0  0
  -30.0200  -19.4860   19.6820 C   0  0  0  0  0  0  0  0  0  0  0  0
  -30.1360  -16.9830   19.7290 C   0  0  0  0  0  0  0  0  0  0  0  0
  -30.3620  -18.2090   17.6080 C   0  0  0  0  0  0  0  0  0  0  0  0
  -29.9520  -18.2400   20.3890 C   0  0  0  0  0  0  0  0  0  0  0  0
  -30.5580  -18.1880   16.2610 F   0  0  0  0  0  0  0  0  0  0  0  0
  -29.7370  -18.2420   21.7280 F   0  0  0  0  0  0  0  0  0  0  0  0
  -30.8280  -14.6510   20.3470 C   0  0  0  0  0  0  0  0  0  0  0  0
  -30.5960  -12.4220   19.3600 C   0  0  0  0  0  2  0  0  0  0  0  0
  -29.6920  -12.6250   18.1270 C   0  0  0  0  0  2  0  0  0  0  0  0
  -28.2080  -12.4870   18.5240 C   0  0  0  0  0  2  0  0  0  0  0  0
  -27.8410  -13.3230   19.7820 C   0  0  0  0  0  3  0  0  0  0  0  0
  -28.8770  -13.1270   20.9060 C   0  0  0  0  0  2  0  0  0  0  0  0
  -30.2050  -13.4370   20.3540 N   0  0  0  0  0  0  0  0  0  0  0  0
  -32.0130  -14.7830   20.0370 O   0  0  0  0  0  0  0  0  0  0  0  0
  -30.0150  -15.7330   20.4590 N   0  0  0  0  0  0  0  0  0  0  0  0
  -29.1190  -15.5670   20.8910 H   0  0  0  0  0  0  0  0  0  0  0  0
  -25.4280  -13.9300   20.4370 C   0  0  0  0  0  0  0  0  0  0  0  0
  -24.3540  -13.1600   20.7950 C   0  0  0  0  0  0  0  0  0  0  0  0
  -24.8200  -11.8110   20.7920 C   0  0  0  0  0  0  0  0  0  0  0  0
  -26.4810  -13.0490   20.2410 N   0  0  0  0  0  0  0  0  0  0  0  0
  -26.1160  -11.7690   20.5110 N   0  0  0  0  0  0  0  0  0  0  0  0
  -24.0940  -10.5520   20.9880 C   0  0  0  0  0  0  0  0  0  0  0  0
  -24.5090   -9.6030   21.9470 C   0  0  0  0  0  3  0  0  0  0  0  0
  -23.7890   -8.4020   22.1320 C   0  0  0  0  0  3  0  0  0  0  0  0
  -22.6360   -8.1450   21.3540 C   0  0  0  0  0  0  0  0  0  0  0  0
  -22.2360   -9.0810   20.3870 C   0  0  0  0  0  3  0  0  0  0  0  0
  -22.9580  -10.2720   20.2020 C   0  0  0  0  0  3  0  0  0  0  0  0
  -21.8930   -6.9920   21.4410 O   0  0  0  0  0  0  0  0  0  0  0  0
  -21.8170   -6.2680   22.6040 C   0  0  0  0  0  0  0  0  0  0  0  0
  -21.3600   -6.8400   23.8080 C   0  0  0  0  0  3  0  0  0  0  0  0
  -21.2300   -6.0440   24.9640 C   0  0  0  0  0  3  0  0  0  0  0  0
  -21.5480   -4.6760   24.9150 C   0  0  0  0  0  0  0  0  0  0  0  0
  -22.0020   -4.1030   23.7150 C   0  0  0  0  0  3  0  0  0  0  0  0
  -22.1350   -4.8960   22.5620 C   0  0  0  0  0  0  0  0  0  0  0  0
  -22.5500   -4.3330   21.4020 F   0  0  0  0  0  0  0  0  0  0  0  0
  -21.4180   -3.9090   26.0230 F   0  0  0  0  0  0  0  0  0  0  0  0
  -22.9500  -13.6410   21.0290 C   0  0  0  0  0  0  0  0  0  0  0  0
  -22.2040  -12.9620   21.8910 N   0  0  0  0  0  0  0  0  0  0  0  0
  -22.5210  -14.6560   20.4810 O   0  0  0  0  0  0  0  0  0  0  0  0
  -22.5680  -12.1510   22.3690 H   0  0  0  0  0  0  0  0  0  0  0  0
  -21.2620  -13.2690   22.0920 H   0  0  0  0  0  0  0  0  0  0  0  0
  -25.5880  -15.2960   20.2330 N   0  0  0  0  0  0  0  0  0  0  0  0
  -24.7930  -15.9270   20.2400 H   0  0  0  0  0  0  0  0  0  0  0  0
  -26.4140  -15.7150   19.8320 H   0  0  0  0  0  0  0  0  0  0  0  0
  1  2  1  0
  1  6  1  0
  2 50  1  0
  2  4  1  0
  3  1  2  0
  6  5  2  0
  6  7  1  0
  7  8  1  0
  9  5  1  0
 10 21  2  0
 11  9  1  0
 11 16  1  0
 12 20  1  0
 12 22  1  0
 13 19  1  0
 13 15  1  0
 14 20  1  0
 15 14  1  0
 16 15  2  0
 17 18  1  0
 17 11  2  0
 18 13  2  0
 19 12  1  0
 20 10  1  0
 22 24  2  0
 23 22  1  0
 25 23  1  0
 26 35  2  0
 26 31  1  0
 27 23  1  0
 27 31  1  0
 28 27  1  0
 29 30  1  0
 29 28  1  0
 30 26  1  0
 31 32  2  0
 32 33  1  0
 34 33  2  0
 35 34  1  0
 36 10  1  0
 36 41  1  0
 36 37  1  0
 37 40  1  1
 37 38  1  0
 39 37  1  0
 41 44  1  0
 42 46  1  0
 42 41  1  0
 43 42  2  0
 46 45  1  0
 48 46  1  0
 48 49  1  0
 48 47  1  0
 51 53  1  0
 52 54  2  0
 53 56  2  0
 53 50  1  0
 54 56  1  0
 54 67  1  0
 55 51  2  0
 55 52  1  0
 56 58  1  0
 57 55  1  0
 59 65  1  0
 59 67  1  0
 60 65  1  0
 61 62  1  0
 61 60  1  0
 63 62  1  0
 63 72  1  0
 63 64  1  0
 65 64  1  0
 66 59  2  0
 67 68  1  0
 69 70  2  0
 70 89  1  0
 71 70  1  0
 71 74  1  0
 72 69  1  0
 72 73  1  0
 73 71  2  0
 74 75  1  0
 75 76  2  0
 77 80  1  0
 77 76  1  0
 78 77  2  0
 79 78  1  0
 79 74  2  0
 80 81  1  0
 81 82  1  0
 82 83  2  0
 84 83  1  0
 84 88  1  0
 85 84  2  0
 86 81  2  0
 86 85  1  0
 87 86  1  0
 89 90  1  0
 90 93  1  0
 90 92  1  0
 91 89  2  0
 94 95  1  0
 94 69  1  0
 96 94  1  0
M  ISO  4   5 101   9 101  59 100  67 100
M  END
>  <TORSDO>  (26) 
F 20

>  <SCORE>  (26) 
-14.010

>  <name>  (26) 
26

>  <ligand_id>  (26) 
26

>  <original_smiles>  (26) 
[H]OC(C(=O)N([H])C([H])([H])c1c([H])c(F)c([H])c(N([H])C(=O)N2C([H])([H])C([H])([H])C([H])([H])C([H])(n3nc(-c4c([H])c([H])c(Oc5c([H])c([H])c(F)c([H])c5F)c([H])c4[H])c(C(=O)N([H])[H])c3N([H])[H])C2([H])[H])c1F)=C([H])Oc1c([H])c([H])c2c(c1[H])C([H])([H])N(C(=O)C([H])(N([H])C(=O)C([H])(N([H])C([H])([H])[H])C([H])([H])[H])C(C([H])([H])[H])(C([H])([H])[H])C([H])([H])[H])C([H])(C(=O)N([H])C1([H])c3c([H])c([H])c([H])c([H])c3C([H])([H])C([H])([H])C1([H])[H])C2([H])[H]

>  <smiles>  (26) 
[H]OC(C(=O)N([H])C([H])([H])c1c([H])c(F)c([H])c(N([H])C(=O)N2C([H])([H])C([H])([H])C([H])([H])C([H])(n3nc(-c4c([H])c([H])c(Oc5c([H])c([H])c(F)c([H])c5F)c([H])c4[H])c(C(=O)N([H])[H])c3N([H])[H])C2([H])[H])c1F)=C([H])Oc1c([H])c([H])c2c(c1[H])C([H])([H])N(C(=O)C([H])(N([H])C(=O)C([H])(N([H])C([H])([H])[H])C([H])([H])[H])C(C([H])([H])[H])(C([H])([H])[H])C([H])([H])[H])C([H])(C(=O)N([H])C1([H])c3c([H])c([H])c([H])c([H])c3C([H])([H])C([H])([H])C1([H])[H])C2([H])[H]

$$$$
27:0:0
     RDKit          3D

 97105  0  0  1  0  0  0  0  0999 V2000
  -30.0050  -20.9350   20.1500 C   0  0  0  0  0  0  0  0  0  0  0  0
  -29.2680  -23.3100   20.2940 C   0  0  0  0  0  0  0  0  0  0  0  0
  -29.1130  -21.9460   20.3540 N   0  0  0  0  0  0  0  0  0  0  0  0
  -31.2260  -21.1190   20.0800 O   0  0  0  0  0  0  0  0  0  0  0  0
  -30.1830  -23.8720   19.6840 O   0  0  0  0  0  0  0  0  0  0  0  0
  -28.1990  -21.6700   20.6810 H   0  0  0  0  0  0  0  0  0  0  0  0
  -28.5770  -19.3460   18.8370 C   0  0  0  0  0  3  0  0  0  0  0  0
  -28.2170  -18.0630   18.3980 C   0  0  0  0  0  3  0  0  0  0  0  0
  -29.4690  -19.5190   19.9170 C   0  0  0  0  0  0  0  0  0  0  0  0
  -29.5100  -17.0130   20.2080 C   0  0  0  0  0  0  0  0  0  0  0  0
  -28.7040  -16.9170   19.0480 C   0  0  0  0  0  0  0  0  0  0  0  0
  -29.9150  -18.3350   20.6150 C   0  0  0  0  0  0  0  0  0  0  0  0
  -28.3730  -15.7140   18.5360 F   0  0  0  0  0  0  0  0  0  0  0  0
  -30.7250  -18.4590   21.6960 F   0  0  0  0  0  0  0  0  0  0  0  0
  -30.5310  -14.7410   20.6880 C   0  0  0  0  0  0  0  0  0  0  0  0
  -30.4200  -12.4620   19.7220 C   0  0  0  0  0  2  0  0  0  0  0  0
  -29.5280  -12.5400   18.4650 C   0  0  0  0  0  2  0  0  0  0  0  0
  -28.0440  -12.3430   18.8440 C   0  0  0  0  0  2  0  0  0  0  0  0
  -27.6030  -13.2120   20.0530 C   0  0  0  0  0  3  0  0  0  0  0  0
  -28.6280  -13.1390   21.2080 C   0  0  0  0  0  2  0  0  0  0  0  0
  -29.9500  -13.4970   20.6650 N   0  0  0  0  0  0  0  0  0  0  0  0
  -31.6980  -14.9100   20.3360 O   0  0  0  0  0  0  0  0  0  0  0  0
  -29.7270  -15.8010   20.9950 N   0  0  0  0  0  0  0  0  0  0  0  0
  -28.8830  -15.4880   21.4450 H   0  0  0  0  0  0  0  0  0  0  0  0
  -25.1700  -13.7590   20.6600 C   0  0  0  0  0  0  0  0  0  0  0  0
  -24.1080  -12.9610   20.9900 C   0  0  0  0  0  0  0  0  0  0  0  0
  -24.6060  -11.6220   20.9860 C   0  0  0  0  0  0  0  0  0  0  0  0
  -26.2470  -12.9020   20.4850 N   0  0  0  0  0  0  0  0  0  0  0  0
  -25.9100  -11.6120   20.7410 N   0  0  0  0  0  0  0  0  0  0  0  0
  -23.9080  -10.3430   21.1520 C   0  0  0  0  0  0  0  0  0  0  0  0
  -24.3330   -9.3880   22.1020 C   0  0  0  0  0  3  0  0  0  0  0  0
  -23.6330   -8.1720   22.2550 C   0  0  0  0  0  3  0  0  0  0  0  0
  -22.4950   -7.9030   21.4580 C   0  0  0  0  0  0  0  0  0  0  0  0
  -22.0920   -8.8470   20.4970 C   0  0  0  0  0  3  0  0  0  0  0  0
  -22.7940  -10.0540   20.3420 C   0  0  0  0  0  3  0  0  0  0  0  0
  -21.7680   -6.7390   21.5200 O   0  0  0  0  0  0  0  0  0  0  0  0
  -21.7040   -5.9930   22.6700 C   0  0  0  0  0  0  0  0  0  0  0  0
  -21.2060   -6.5280   23.8790 C   0  0  0  0  0  3  0  0  0  0  0  0
  -21.0910   -5.7060   25.0180 C   0  0  0  0  0  3  0  0  0  0  0  0
  -21.4610   -4.3500   24.9490 C   0  0  0  0  0  0  0  0  0  0  0  0
  -21.9530   -3.8150   23.7450 C   0  0  0  0  0  3  0  0  0  0  0  0
  -22.0690   -4.6330   22.6080 C   0  0  0  0  0  0  0  0  0  0  0  0
  -22.5230   -4.1070   21.4450 F   0  0  0  0  0  0  0  0  0  0  0  0
  -21.3430   -3.5580   26.0400 F   0  0  0  0  0  0  0  0  0  0  0  0
  -22.6870  -13.4030   21.1920 C   0  0  0  0  0  0  0  0  0  0  0  0
  -21.9390  -12.6930   22.0270 N   0  0  0  0  0  0  0  0  0  0  0  0
  -22.2470  -14.4130   20.6430 O   0  0  0  0  0  0  0  0  0  0  0  0
  -22.3070  -11.8800   22.4990 H   0  0  0  0  0  0  0  0  0  0  0  0
  -20.9840  -12.9690   22.2000 H   0  0  0  0  0  0  0  0  0  0  0  0
  -25.3000  -15.1330   20.4740 N   0  0  0  0  0  0  0  0  0  0  0  0
  -24.4920  -15.7460   20.4980 H   0  0  0  0  0  0  0  0  0  0  0  0
  -26.1310  -15.5880   20.1170 H   0  0  0  0  0  0  0  0  0  0  0  0
  -27.9300  -25.3660   21.0910 C   0  0  0  0  0  3  0  0  0  0  0  0
  -28.2330  -24.0250   21.0710 C   0  0  0  0  0  0  0  0  0  0  0  0
  -27.4880  -23.2540   21.8900 O   0  0  0  0  0  0  0  0  0  0  0  0
  -26.8680  -23.8200   22.3310 H   0  0  0  0  0  0  0  0  0  0  0  0
  -28.3550  -26.5020   20.3790 O   0  0  0  0  0  0  0  0  0  0  0  0
  -24.6610  -31.9490   23.2770 C   0  0  0  0  0  0  0  0  0  0  0  0
  -27.3200  -27.4270   20.2370 C   0  0  0  0  0  0  0  0  0  0  0  0
  -23.4740  -30.5300   21.6390 C   0  0  0  0  0  3  0  0  0  0  0  0
  -24.9470  -29.0020   20.2100 C   0  0  0  0  0  0  0  0  0  0  0  0
  -26.0120  -30.8750   21.4660 C   0  0  0  0  0  2  0  0  0  0  0  0
  -26.1060  -29.5030   20.8200 C   0  0  0  0  0  0  0  0  0  0  0  0
  -27.3000  -28.7210   20.8340 C   0  0  0  0  0  3  0  0  0  0  0  0
  -26.1510  -26.9870   19.5770 C   0  0  0  0  0  3  0  0  0  0  0  0
  -24.9720  -27.7500   19.5760 C   0  0  0  0  0  3  0  0  0  0  0  0
  -23.6970  -29.8570   20.2590 C   0  0  0  0  0  2  0  0  0  0  0  0
  -24.7330  -31.1360   22.1840 N   0  0  0  0  0  0  0  0  0  0  0  0
  -23.5740  -32.2190   23.8060 O   0  0  0  0  0  0  0  0  0  0  0  0
  -22.8220  -29.5090   22.6010 C   0  0  0  0  0  0  0  0  0  0  0  0
  -21.5020  -29.3050   22.4600 N   0  0  0  0  0  0  0  0  0  0  0  0
  -23.5040  -28.9020   23.4310 O   0  0  0  0  0  0  0  0  0  0  0  0
  -21.0110  -29.8450   21.7610 H   0  0  0  0  0  0  0  0  0  0  0  0
  -18.1430  -28.0480   22.9260 C   0  0  0  0  0  0  0  0  0  0  0  0
  -20.6910  -28.3630   23.2340 C   0  0  0  0  0  3  0  0  0  0  0  0
  -20.8310  -26.9250   22.6840 C   0  0  0  0  0  2  0  0  0  0  0  0
  -19.7530  -26.5630   21.6560 C   0  0  0  0  0  2  0  0  0  0  0  0
  -18.3580  -26.6920   22.2740 C   0  0  0  0  0  2  0  0  0  0  0  0
  -19.2400  -28.8390   23.3620 C   0  0  0  0  0  0  0  0  0  0  0  0
  -18.9840  -30.1050   23.9320 C   0  0  0  0  0  3  0  0  0  0  0  0
  -17.6670  -30.5820   24.0710 C   0  0  0  0  0  3  0  0  0  0  0  0
  -16.5860  -29.7890   23.6490 C   0  0  0  0  0  3  0  0  0  0  0  0
  -16.8250  -28.5240   23.0830 C   0  0  0  0  0  3  0  0  0  0  0  0
  -25.9380  -32.5950   23.8980 C   0  0  0  0  0  3  0  0  0  0  0  0
  -26.4540  -31.8350   25.1810 C   0  0  1  0  0  0  0  0  0  0  0  0
  -25.3560  -31.5990   26.2450 C   0  0  0  0  0  1  0  0  0  0  0  0
  -27.0490  -30.4580   24.8030 C   0  0  0  0  0  1  0  0  0  0  0  0
  -27.5940  -32.6430   25.8430 C   0  0  0  0  0  1  0  0  0  0  0  0
  -25.6160  -33.9920   24.2190 N   0  0  0  0  0  0  0  0  0  0  0  0
  -25.9360  -35.0410   23.4510 C   0  0  0  0  0  0  0  0  0  0  0  0
  -26.6040  -34.9350   22.4180 O   0  0  0  0  0  0  0  0  0  0  0  0
  -25.0260  -34.1480   25.0230 H   0  0  0  0  0  0  0  0  0  0  0  0
  -24.1910  -36.8130   23.0740 C   0  0  0  0  0  1  0  0  0  0  0  0
  -25.4340  -36.4290   23.8940 C   0  0  0  0  0  3  0  0  0  0  0  0
  -27.5630  -37.3380   24.7180 C   0  0  0  0  0  1  0  0  0  0  0  0
  -26.4570  -37.4910   23.7770 N   0  0  0  0  0  0  0  0  0  0  0  0
  -26.0410  -38.4070   23.9240 H   0  0  0  0  0  0  0  0  0  0  0  0
  1  3  1  0
  2  3  1  0
  2 54  1  0
  3  6  1  0
  4  1  2  0
  5  2  2  0
  7  9  1  0
  8  7  2  0
  8 11  1  0
  9  1  1  0
  9 12  2  0
 10 12  1  0
 10 23  1  0
 11 10  2  0
 12 14  1  0
 13 11  1  0
 15 23  1  0
 16 21  1  0
 17 18  1  0
 17 16  1  0
 19 18  1  0
 19 28  1  0
 19 20  1  0
 21 15  1  0
 21 20  1  0
 22 15  2  0
 23 24  1  0
 25 26  2  0
 26 45  1  0
 27 26  1  0
 27 30  1  0
 28 25  1  0
 28 29  1  0
 29 27  2  0
 30 31  1  0
 31 32  2  0
 33 36  1  0
 33 32  1  0
 34 33  2  0
 35 34  1  0
 35 30  2  0
 36 37  1  0
 37 38  1  0
 38 39  2  0
 40 39  1  0
 40 44  1  0
 41 40  2  0
 42 37  2  0
 42 41  1  0
 43 42  1  0
 45 46  1  0
 46 49  1  0
 46 48  1  0
 47 45  2  0
 50 51  1  0
 50 25  1  0
 52 50  1  0
 54 53  2  0
 54 55  1  0
 55 56  1  0
 57 53  1  0
 58 69  2  0
 59 57  1  0
 59 64  1  0
 60 68  1  0
 60 70  1  0
 61 67  1  0
 61 63  1  0
 62 68  1  0
 63 64  2  0
 63 62  1  0
 65 59  2  0
 66 65  1  0
 66 61  2  0
 67 60  1  0
 68 58  1  0
 70 72  2  0
 71 70  1  0
 73 71  1  0
 74 83  2  0
 74 79  1  0
 75 71  1  0
 75 79  1  0
 76 75  1  0
 77 78  1  0
 77 76  1  0
 78 74  1  0
 79 80  2  0
 80 81  1  0
 82 81  2  0
 83 82  1  0
 84 58  1  0
 84 89  1  0
 84 85  1  0
 85 88  1  1
 85 86  1  0
 87 85  1  0
 89 92  1  0
 90 94  1  0
 90 89  1  0
 91 90  2  0
 94 93  1  0
 96 94  1  0
 96 97  1  0
 96 95  1  0
M  ISO  4  15 100  23 100  53 101  57 101
M  END
>  <TORSDO>  (27) 
F 19

>  <SCORE>  (27) 
-14.931

>  <name>  (27) 
27

>  <ligand_id>  (27) 
27

>  <original_smiles>  (27) 
[H]OC(C(=O)N([H])C(=O)c1c([H])c([H])c(F)c(N([H])C(=O)N2C([H])([H])C([H])([H])C([H])([H])C([H])(n3nc(-c4c([H])c([H])c(Oc5c([H])c([H])c(F)c([H])c5F)c([H])c4[H])c(C(=O)N([H])[H])c3N([H])[H])C2([H])[H])c1F)=C([H])Oc1c([H])c([H])c2c(c1[H])C([H])([H])N(C(=O)C([H])(N([H])C(=O)C([H])(N([H])C([H])([H])[H])C([H])([H])[H])C(C([H])([H])[H])(C([H])([H])[H])C([H])([H])[H])C([H])(C(=O)N([H])C1([H])c3c([H])c([H])c([H])c([H])c3C([H])([H])C([H])([H])C1([H])[H])C2([H])[H]

>  <smiles>  (27) 
[H]OC(C(=O)N([H])C(=O)c1c([H])c([H])c(F)c(N([H])C(=O)N2C([H])([H])C([H])([H])C([H])([H])C([H])(n3nc(-c4c([H])c([H])c(Oc5c([H])c([H])c(F)c([H])c5F)c([H])c4[H])c(C(=O)N([H])[H])c3N([H])[H])C2([H])[H])c1F)=C([H])Oc1c([H])c([H])c2c(c1[H])C([H])([H])N(C(=O)C([H])(N([H])C(=O)C([H])(N([H])C([H])([H])[H])C([H])([H])[H])C(C([H])([H])[H])(C([H])([H])[H])C([H])([H])[H])C([H])(C(=O)N([H])C1([H])c3c([H])c([H])c([H])c([H])c3C([H])([H])C([H])([H])C1([H])[H])C2([H])[H]

$$$$
28:0:0
     RDKit          3D

 91 99  0  0  1  0  0  0  0  0999 V2000
  -28.3750  -21.8060   20.3660 C   0  0  0  0  0  0  0  0  0  0  0  0
  -27.1670  -21.6560   20.5630 O   0  0  0  0  0  0  0  0  0  0  0  0
  -30.5930  -20.3570   20.0530 C   0  0  0  0  0  3  0  0  0  0  0  0
  -29.2320  -20.4200   20.2770 C   0  0  0  0  0  0  0  0  0  0  0  0
  -28.8320  -18.9380   20.4000 C   0  0  0  0  0  0  0  0  0  0  0  0
  -29.7760  -17.8380   20.2890 C   0  0  0  0  0  0  0  0  0  0  0  0
  -27.5690  -18.6460   20.6090 F   0  0  0  0  0  0  0  0  0  0  0  0
  -31.2850  -18.6980   20.0030 S   0  0  0  0  0  0  0  0  0  0  0  0
  -30.4690  -15.1890   20.1810 C   0  0  0  0  0  0  0  0  0  0  0  0
  -30.4040  -12.8000   19.2430 C   0  0  0  0  0  2  0  0  0  0  0  0
  -29.4360  -12.7000   18.0380 C   0  0  0  0  0  2  0  0  0  0  0  0
  -27.9930  -12.4510   18.5130 C   0  0  0  0  0  2  0  0  0  0  0  0
  -27.6010  -13.3660   19.7010 C   0  0  0  0  0  3  0  0  0  0  0  0
  -28.6880  -13.4180   20.7950 C   0  0  0  0  0  2  0  0  0  0  0  0
  -29.9170  -13.8950   20.1450 N   0  0  0  0  0  0  0  0  0  0  0  0
  -31.6670  -15.2540   19.8730 O   0  0  0  0  0  0  0  0  0  0  0  0
  -29.6480  -16.3710   20.3720 N   0  0  0  0  0  0  0  0  0  0  0  0
  -28.7040  -16.0980   20.5990 H   0  0  0  0  0  0  0  0  0  0  0  0
  -25.2520  -13.9120   20.5420 C   0  0  0  0  0  0  0  0  0  0  0  0
  -24.2030  -13.1240   20.9270 C   0  0  0  0  0  0  0  0  0  0  0  0
  -24.6680  -11.7750   20.8430 C   0  0  0  0  0  0  0  0  0  0  0  0
  -26.2860  -13.0440   20.2390 N   0  0  0  0  0  0  0  0  0  0  0  0
  -25.9490  -11.7520   20.4880 N   0  0  0  0  0  0  0  0  0  0  0  0
  -23.9490  -10.5080   21.0240 C   0  0  0  0  0  0  0  0  0  0  0  0
  -24.3850   -9.5360   21.9500 C   0  0  0  0  0  3  0  0  0  0  0  0
  -23.6640   -8.3360   22.1220 C   0  0  0  0  0  3  0  0  0  0  0  0
  -22.4930   -8.0970   21.3640 C   0  0  0  0  0  0  0  0  0  0  0  0
  -22.0770   -9.0580   20.4250 C   0  0  0  0  0  3  0  0  0  0  0  0
  -22.7990  -10.2500   20.2530 C   0  0  0  0  0  3  0  0  0  0  0  0
  -21.7420   -6.9490   21.4440 O   0  0  0  0  0  0  0  0  0  0  0  0
  -21.6510   -6.2280   22.6080 C   0  0  0  0  0  0  0  0  0  0  0  0
  -21.1480   -6.7950   23.7980 C   0  0  0  0  0  3  0  0  0  0  0  0
  -21.0070   -5.9990   24.9530 C   0  0  0  0  0  3  0  0  0  0  0  0
  -21.3590   -4.6370   24.9160 C   0  0  0  0  0  0  0  0  0  0  0  0
  -21.8540   -4.0680   23.7300 C   0  0  0  0  0  3  0  0  0  0  0  0
  -21.9970   -4.8620   22.5780 C   0  0  0  0  0  0  0  0  0  0  0  0
  -22.4550   -4.3040   21.4320 F   0  0  0  0  0  0  0  0  0  0  0  0
  -21.2160   -3.8700   26.0220 F   0  0  0  0  0  0  0  0  0  0  0  0
  -22.8150  -13.5920   21.2520 C   0  0  0  0  0  0  0  0  0  0  0  0
  -22.1170  -12.8770   22.1270 N   0  0  0  0  0  0  0  0  0  0  0  0
  -22.3600  -14.6280   20.7670 O   0  0  0  0  0  0  0  0  0  0  0  0
  -22.5020  -12.0400   22.5420 H   0  0  0  0  0  0  0  0  0  0  0  0
  -21.1860  -13.1700   22.3870 H   0  0  0  0  0  0  0  0  0  0  0  0
  -25.4050  -15.2880   20.3990 N   0  0  0  0  0  0  0  0  0  0  0  0
  -24.6420  -15.9320   20.5760 H   0  0  0  0  0  0  0  0  0  0  0  0
  -26.2290  -15.7470   20.0360 H   0  0  0  0  0  0  0  0  0  0  0  0
  -27.9680  -24.5830   20.3030 C   0  0  0  0  0  3  0  0  0  0  0  0
  -28.8050  -23.4000   20.2540 C   0  0  0  0  0  0  0  0  0  0  0  0
  -30.1210  -23.6030   20.1080 O   0  0  0  0  0  0  0  0  0  0  0  0
  -30.2500  -24.5420   20.0760 H   0  0  0  0  0  0  0  0  0  0  0  0
  -28.2330  -26.0630   20.2360 O   0  0  0  0  0  0  0  0  0  0  0  0
  -24.6850  -31.9140   23.2620 C   0  0  0  0  0  0  0  0  0  0  0  0
  -27.2070  -27.1120   20.2140 C   0  0  0  0  0  0  0  0  0  0  0  0
  -23.4730  -30.5270   21.6280 C   0  0  0  0  0  3  0  0  0  0  0  0
  -24.9030  -28.9350   20.1930 C   0  0  0  0  0  0  0  0  0  0  0  0
  -26.0320  -30.7530   21.4590 C   0  0  0  0  0  2  0  0  0  0  0  0
  -26.0920  -29.3520   20.8050 C   0  0  0  0  0  0  0  0  0  0  0  0
  -27.2420  -28.4580   20.7980 C   0  0  0  0  0  3  0  0  0  0  0  0
  -25.9960  -26.8290   19.5440 C   0  0  0  0  0  3  0  0  0  0  0  0
  -24.8730  -27.6910   19.5450 C   0  0  0  0  0  3  0  0  0  0  0  0
  -23.6850  -29.8490   20.2480 C   0  0  0  0  0  2  0  0  0  0  0  0
  -24.7510  -31.0890   22.1700 N   0  0  0  0  0  0  0  0  0  0  0  0
  -23.6010  -32.2040   23.7940 O   0  0  0  0  0  0  0  0  0  0  0  0
  -22.7880  -29.5260   22.5940 C   0  0  0  0  0  0  0  0  0  0  0  0
  -21.4600  -29.3500   22.4630 N   0  0  0  0  0  0  0  0  0  0  0  0
  -23.4570  -28.9070   23.4260 O   0  0  0  0  0  0  0  0  0  0  0  0
  -20.9760  -29.8980   21.7660 H   0  0  0  0  0  0  0  0  0  0  0  0
  -18.0830  -28.1280   22.9610 C   0  0  0  0  0  0  0  0  0  0  0  0
  -20.6400  -28.4120   23.2360 C   0  0  0  0  0  3  0  0  0  0  0  0
  -20.7530  -26.9770   22.6710 C   0  0  0  0  0  2  0  0  0  0  0  0
  -19.6580  -26.6410   21.6540 C   0  0  0  0  0  2  0  0  0  0  0  0
  -18.2720  -26.7780   22.2910 C   0  0  0  0  0  2  0  0  0  0  0  0
  -19.1940  -28.9030   23.3900 C   0  0  0  0  0  0  0  0  0  0  0  0
  -18.9610  -30.1650   23.9790 C   0  0  0  0  0  3  0  0  0  0  0  0
  -17.6510  -30.6530   24.1420 C   0  0  0  0  0  3  0  0  0  0  0  0
  -16.5550  -29.8770   23.7280 C   0  0  0  0  0  3  0  0  0  0  0  0
  -16.7720  -28.6160   23.1430 C   0  0  0  0  0  3  0  0  0  0  0  0
  -25.9650  -32.5470   23.8860 C   0  0  0  0  0  3  0  0  0  0  0  0
  -26.4800  -31.7730   25.1630 C   0  0  1  0  0  0  0  0  0  0  0  0
  -25.3890  -31.5380   26.2330 C   0  0  0  0  0  1  0  0  0  0  0  0
  -27.0600  -30.3920   24.7740 C   0  0  0  0  0  1  0  0  0  0  0  0
  -27.6350  -32.5620   25.8240 C   0  0  0  0  0  1  0  0  0  0  0  0
  -25.6560  -33.9450   24.2300 N   0  0  0  0  0  0  0  0  0  0  0  0
  -25.9470  -35.0060   23.4650 C   0  0  0  0  0  0  0  0  0  0  0  0
  -26.5710  -34.9110   22.4050 O   0  0  0  0  0  0  0  0  0  0  0  0
  -25.0950  -34.0910   25.0570 H   0  0  0  0  0  0  0  0  0  0  0  0
  -24.1810  -36.7840   23.2240 C   0  0  0  0  0  1  0  0  0  0  0  0
  -25.4760  -36.3910   23.9520 C   0  0  0  0  0  3  0  0  0  0  0  0
  -27.6460  -37.3070   24.6480 C   0  0  0  0  0  1  0  0  0  0  0  0
  -26.4870  -37.4560   23.7730 N   0  0  0  0  0  0  0  0  0  0  0  0
  -26.0800  -38.3720   23.9380 H   0  0  0  0  0  0  0  0  0  0  0  0
  1  2  2  0
  3  4  2  0
  4  1  1  0
  4  5  1  0
  5  7  1  0
  6 17  1  0
  6  5  2  0
  8  3  1  0
  8  6  1  0
  9 17  1  0
 10 15  1  0
 11 12  1  0
 11 10  1  0
 13 12  1  0
 13 22  1  0
 13 14  1  0
 15  9  1  0
 15 14  1  0
 16  9  2  0
 17 18  1  0
 19 20  2  0
 20 39  1  0
 21 20  1  0
 21 24  1  0
 22 23  1  0
 22 19  1  0
 23 21  2  0
 24 25  1  0
 25 26  2  0
 27 30  1  0
 27 26  1  0
 28 27  2  0
 29 28  1  0
 29 24  2  0
 30 31  1  0
 31 32  1  0
 32 33  2  0
 34 33  1  0
 34 38  1  0
 35 34  2  0
 36 31  2  0
 36 35  1  0
 37 36  1  0
 39 40  1  0
 40 43  1  0
 40 42  1  0
 41 39  2  0
 44 19  1  0
 44 45  1  0
 46 44  1  0
 48 47  2  0
 48  1  1  0
 49 48  1  0
 50 49  1  0
 51 47  1  0
 52 63  2  0
 53 51  1  0
 53 58  1  0
 54 62  1  0
 54 64  1  0
 55 61  1  0
 55 57  1  0
 56 62  1  0
 57 56  1  0
 58 57  2  0
 59 60  1  0
 59 53  2  0
 60 55  2  0
 61 54  1  0
 62 52  1  0
 64 66  2  0
 65 64  1  0
 67 65  1  0
 68 77  2  0
 68 73  1  0
 69 65  1  0
 69 73  1  0
 70 69  1  0
 71 72  1  0
 71 70  1  0
 72 68  1  0
 73 74  2  0
 74 75  1  0
 76 75  2  0
 77 76  1  0
 78 52  1  0
 78 83  1  0
 78 79  1  0
 79 82  1  1
 79 80  1  0
 81 79  1  0
 83 86  1  0
 84 88  1  0
 84 83  1  0
 85 84  2  0
 88 87  1  0
 90 91  1  0
 90 88  1  0
 90 89  1  0
M  ISO  4   9 100  17 100  47 101  51 101
M  END
>  <TORSDO>  (28) 
F 19

>  <SCORE>  (28) 
-14.398

>  <name>  (28) 
28

>  <ligand_id>  (28) 
28

>  <original_smiles>  (28) 
[H]OC(C(=O)c1c([H])sc(N([H])C(=O)N2C([H])([H])C([H])([H])C([H])([H])C([H])(n3nc(-c4c([H])c([H])c(Oc5c([H])c([H])c(F)c([H])c5F)c([H])c4[H])c(C(=O)N([H])[H])c3N([H])[H])C2([H])[H])c1F)=C([H])Oc1c([H])c([H])c2c(c1[H])C([H])([H])N(C(=O)C([H])(N([H])C(=O)C([H])(N([H])C([H])([H])[H])C([H])([H])[H])C(C([H])([H])[H])(C([H])([H])[H])C([H])([H])[H])C([H])(C(=O)N([H])C1([H])c3c([H])c([H])c([H])c([H])c3C([H])([H])C([H])([H])C1([H])[H])C2([H])[H]

>  <smiles>  (28) 
[H]OC(C(=O)c1c([H])sc(N([H])C(=O)N2C([H])([H])C([H])([H])C([H])([H])C([H])(n3nc(-c4c([H])c([H])c(Oc5c([H])c([H])c(F)c([H])c5F)c([H])c4[H])c(C(=O)N([H])[H])c3N([H])[H])C2([H])[H])c1F)=C([H])Oc1c([H])c([H])c2c(c1[H])C([H])([H])N(C(=O)C([H])(N([H])C(=O)C([H])(N([H])C([H])([H])[H])C([H])([H])[H])C(C([H])([H])[H])(C([H])([H])[H])C([H])([H])[H])C([H])(C(=O)N([H])C1([H])c3c([H])c([H])c([H])c([H])c3C([H])([H])C([H])([H])C1([H])[H])C2([H])[H]

$$$$
29:0:0
     RDKit          3D

 96104  0  0  1  0  0  0  0  0999 V2000
  -29.8340  -20.9640   20.6370 C   0  0  0  0  0  0  0  0  0  0  0  0
  -30.4240  -20.4080   21.7050 N   0  0  0  0  0  0  0  0  0  0  0  0
  -29.1570  -20.3750   19.7870 O   0  0  0  0  0  0  0  0  0  0  0  0
  -30.9560  -21.0780   22.2500 H   0  0  0  0  0  0  0  0  0  0  0  0
  -29.8120  -17.9700   21.5270 C   0  0  0  0  0  3  0  0  0  0  0  0
  -30.7770  -16.4310   23.1650 C   0  0  0  0  0  3  0  0  0  0  0  0
  -29.9780  -16.6560   22.0250 C   0  0  0  0  0  0  0  0  0  0  0  0
  -30.4860  -19.0550   22.1460 C   0  0  0  0  0  0  0  0  0  0  0  0
  -31.4240  -17.5080   23.7970 C   0  0  0  0  0  0  0  0  0  0  0  0
  -31.2820  -18.8120   23.2860 C   0  0  0  0  0  0  0  0  0  0  0  0
  -32.1910  -17.2860   24.8910 F   0  0  0  0  0  0  0  0  0  0  0  0
  -31.9190  -19.8430   23.8940 F   0  0  0  0  0  0  0  0  0  0  0  0
  -29.8640  -14.8470   20.3940 C   0  0  0  0  0  0  0  0  0  0  0  0
  -29.6100  -12.8900   18.9170 C   0  0  0  0  0  2  0  0  0  0  0  0
  -28.5460  -13.1440   17.8320 C   0  0  0  0  0  2  0  0  0  0  0  0
  -27.1440  -12.7780   18.3530 C   0  0  0  0  0  2  0  0  0  0  0  0
  -26.8390  -13.4130   19.7360 C   0  0  0  0  0  3  0  0  0  0  0  0
  -28.0030  -13.1700   20.7220 C   0  0  0  0  0  2  0  0  0  0  0  0
  -29.2430  -13.6730   20.1050 N   0  0  0  0  0  0  0  0  0  0  0  0
  -30.8340  -15.2690   19.7570 O   0  0  0  0  0  0  0  0  0  0  0  0
  -29.3330  -15.5600   21.3980 N   0  0  0  0  0  0  0  0  0  0  0  0
  -28.4680  -15.2290   21.7980 H   0  0  0  0  0  0  0  0  0  0  0  0
  -24.4430  -13.6530   20.6470 C   0  0  0  0  0  0  0  0  0  0  0  0
  -23.5060  -12.7230   21.0110 C   0  0  0  0  0  0  0  0  0  0  0  0
  -24.1230  -11.4480   20.8250 C   0  0  0  0  0  0  0  0  0  0  0  0
  -25.5670  -12.9330   20.2720 N   0  0  0  0  0  0  0  0  0  0  0  0
  -25.3820  -11.5980   20.4320 N   0  0  0  0  0  0  0  0  0  0  0  0
  -23.5700  -10.0930   20.9420 C   0  0  0  0  0  0  0  0  0  0  0  0
  -24.1310   -9.1390   21.8200 C   0  0  0  0  0  3  0  0  0  0  0  0
  -23.5700   -7.8490   21.9280 C   0  0  0  0  0  3  0  0  0  0  0  0
  -22.4350   -7.5010   21.1570 C   0  0  0  0  0  0  0  0  0  0  0  0
  -21.8950   -8.4460   20.2670 C   0  0  0  0  0  3  0  0  0  0  0  0
  -22.4570   -9.7290   20.1570 C   0  0  0  0  0  3  0  0  0  0  0  0
  -21.8390   -6.2640   21.1780 O   0  0  0  0  0  0  0  0  0  0  0  0
  -21.8420   -5.4820   22.3050 C   0  0  0  0  0  0  0  0  0  0  0  0
  -21.3020   -5.9350   23.5280 C   0  0  0  0  0  3  0  0  0  0  0  0
  -21.2620   -5.0740   24.6430 C   0  0  0  0  0  3  0  0  0  0  0  0
  -21.7520   -3.7600   24.5350 C   0  0  0  0  0  0  0  0  0  0  0  0
  -22.2860   -3.3040   23.3170 C   0  0  0  0  0  3  0  0  0  0  0  0
  -22.3280   -4.1620   22.2040 C   0  0  0  0  0  0  0  0  0  0  0  0
  -22.8230   -3.7120   21.0260 F   0  0  0  0  0  0  0  0  0  0  0  0
  -21.7080   -2.9290   25.6030 F   0  0  0  0  0  0  0  0  0  0  0  0
  -22.0870  -12.9960   21.4160 C   0  0  0  0  0  0  0  0  0  0  0  0
  -21.5200  -12.1510   22.2710 N   0  0  0  0  0  0  0  0  0  0  0  0
  -21.4840  -13.9890   21.0100 O   0  0  0  0  0  0  0  0  0  0  0  0
  -22.0210  -11.3460   22.6190 H   0  0  0  0  0  0  0  0  0  0  0  0
  -20.5730  -12.3120   22.5840 H   0  0  0  0  0  0  0  0  0  0  0  0
  -24.4300  -15.0430   20.5870 N   0  0  0  0  0  0  0  0  0  0  0  0
  -23.6020  -15.5880   20.8020 H   0  0  0  0  0  0  0  0  0  0  0  0
  -25.2000  -15.6090   20.2520 H   0  0  0  0  0  0  0  0  0  0  0  0
  -30.1060  -22.4930   20.5900 C   0  0  0  0  0  0  0  0  0  0  0  0
  -31.0080  -23.0200   21.2560 O   0  0  0  0  0  0  0  0  0  0  0  0
  -29.1940  -23.3250   19.6830 C   0  0  0  0  0  2  0  0  0  0  0  0
  -29.3160  -24.8520   19.8780 C   0  0  0  0  0  2  0  0  0  0  0  0
  -28.1240  -25.5900   19.2570 C   0  0  0  0  0  2  0  0  0  0  0  0
  -28.1980  -26.9870   19.5410 O   0  0  0  0  0  0  0  0  0  0  0  0
  -24.5240  -31.8840   23.1340 C   0  0  0  0  0  0  0  0  0  0  0  0
  -27.0080  -27.6810   19.6240 C   0  0  0  0  0  0  0  0  0  0  0  0
  -23.2300  -30.5800   21.4780 C   0  0  0  0  0  3  0  0  0  0  0  0
  -24.6050  -29.1530   19.8730 C   0  0  0  0  0  0  0  0  0  0  0  0
  -25.7380  -30.9740   21.1590 C   0  0  0  0  0  2  0  0  0  0  0  0
  -25.7920  -29.6500   20.4260 C   0  0  0  0  0  0  0  0  0  0  0  0
  -26.9940  -28.9210   20.3010 C   0  0  0  0  0  3  0  0  0  0  0  0
  -25.8010  -27.2030   19.0590 C   0  0  0  0  0  3  0  0  0  0  0  0
  -24.6040  -27.9270   19.1880 C   0  0  0  0  0  3  0  0  0  0  0  0
  -23.3600  -29.9920   20.0470 C   0  0  0  0  0  2  0  0  0  0  0  0
  -24.5180  -31.1570   21.9820 N   0  0  0  0  0  0  0  0  0  0  0  0
  -23.4750  -32.1120   23.7530 O   0  0  0  0  0  0  0  0  0  0  0  0
  -22.6420  -29.4930   22.4060 C   0  0  0  0  0  0  0  0  0  0  0  0
  -21.3200  -29.2800   22.3140 N   0  0  0  0  0  0  0  0  0  0  0  0
  -23.3710  -28.8440   23.1620 O   0  0  0  0  0  0  0  0  0  0  0  0
  -20.7930  -29.8590   21.6750 H   0  0  0  0  0  0  0  0  0  0  0  0
  -18.0020  -27.9450   22.8270 C   0  0  0  0  0  0  0  0  0  0  0  0
  -20.5540  -28.2830   23.0610 C   0  0  0  0  0  3  0  0  0  0  0  0
  -20.6960  -26.8810   22.4230 C   0  0  0  0  0  2  0  0  0  0  0  0
  -19.5850  -26.5600   21.4190 C   0  0  0  0  0  2  0  0  0  0  0  0
  -18.2120  -26.6300   22.0950 C   0  0  0  0  0  2  0  0  0  0  0  0
  -19.1030  -28.7290   23.2660 C   0  0  0  0  0  0  0  0  0  0  0  0
  -18.8530  -29.9590   23.9120 C   0  0  0  0  0  3  0  0  0  0  0  0
  -17.5360  -30.4080   24.1210 C   0  0  0  0  0  3  0  0  0  0  0  0
  -16.4510  -29.6220   23.7000 C   0  0  0  0  0  3  0  0  0  0  0  0
  -16.6840  -28.3920   23.0580 C   0  0  0  0  0  3  0  0  0  0  0  0
  -25.8420  -32.4820   23.7170 C   0  0  0  0  0  3  0  0  0  0  0  0
  -25.5550  -33.8620   24.1300 N   0  0  0  0  0  0  0  0  0  0  0  0
  -25.8710  -34.9510   23.4150 C   0  0  0  0  0  0  0  0  0  0  0  0
  -26.5080  -34.8970   22.3600 O   0  0  0  0  0  0  0  0  0  0  0  0
  -24.9880  -33.9770   24.9560 H   0  0  0  0  0  0  0  0  0  0  0  0
  -24.1560  -36.7750   23.1920 C   0  0  0  0  0  1  0  0  0  0  0  0
  -25.4060  -36.3160   23.9580 C   0  0  0  0  0  3  0  0  0  0  0  0
  -27.5620  -37.1310   24.8000 C   0  0  0  0  0  1  0  0  0  0  0  0
  -26.4480  -37.3630   23.8860 N   0  0  0  0  0  0  0  0  0  0  0  0
  -26.0540  -38.2770   24.0920 H   0  0  0  0  0  0  0  0  0  0  0  0
  -26.4240  -31.6480   24.9240 C   0  0  1  0  0  0  0  0  0  0  0  0
  -25.3900  -31.3610   26.0370 C   0  0  0  0  0  1  0  0  0  0  0  0
  -26.9790  -30.2920   24.4300 C   0  0  0  0  0  1  0  0  0  0  0  0
  -27.6130  -32.4050   25.5610 C   0  0  0  0  0  1  0  0  0  0  0  0
  1  2  1  0
  2  8  1  0
  2  4  1  0
  3  1  2  0
  5  7  2  0
  5  8  1  0
  6  9  2  0
  7  6  1  0
  8 10  2  0
  9 11  1  0
 10  9  1  0
 10 12  1  0
 13 21  1  0
 14 19  1  0
 15 16  1  0
 15 14  1  0
 17 16  1  0
 17 26  1  0
 17 18  1  0
 19 13  1  0
 19 18  1  0
 20 13  2  0
 21 22  1  0
 21  7  1  0
 23 24  2  0
 24 43  1  0
 25 28  1  0
 25 24  1  0
 26 27  1  0
 26 23  1  0
 27 25  2  0
 28 29  1  0
 29 30  2  0
 31 34  1  0
 31 30  1  0
 32 31  2  0
 33 32  1  0
 33 28  2  0
 34 35  1  0
 35 36  1  0
 36 37  2  0
 38 37  1  0
 38 42  1  0
 39 38  2  0
 40 35  2  0
 40 39  1  0
 41 40  1  0
 43 44  1  0
 44 47  1  0
 44 46  1  0
 45 43  2  0
 48 23  1  0
 48 49  1  0
 50 48  1  0
 51  1  1  0
 51 52  2  0
 53 54  1  0
 53 51  1  0
 55 56  1  0
 55 54  1  0
 56 58  1  0
 57 68  2  0
 58 63  1  0
 59 67  1  0
 59 69  1  0
 60 66  1  0
 60 62  1  0
 61 67  1  0
 62 61  1  0
 63 62  2  0
 64 65  1  0
 64 58  2  0
 65 60  2  0
 66 59  1  0
 67 57  1  0
 69 71  2  0
 70 69  1  0
 72 70  1  0
 73 82  2  0
 73 78  1  0
 74 70  1  0
 74 78  1  0
 75 74  1  0
 76 77  1  0
 76 75  1  0
 77 73  1  0
 78 79  2  0
 79 80  1  0
 81 80  2  0
 82 81  1  0
 83 57  1  0
 83 84  1  0
 83 93  1  0
 84 87  1  0
 85 89  1  0
 85 84  1  0
 86 85  2  0
 89 88  1  0
 91 89  1  0
 91 92  1  0
 91 90  1  0
 93 96  1  1
 93 94  1  0
 95 93  1  0
M  ISO  4  13 100  21 100  55 101  56 101
M  END
>  <TORSDO>  (29) 
F 21

>  <SCORE>  (29) 
-5.981

>  <name>  (29) 
29

>  <ligand_id>  (29) 
29

>  <original_smiles>  (29) 
[H]c1c([H])c([H])c2c(c1[H])C([H])([H])C([H])([H])C([H])([H])C2([H])N([H])C(=O)C1([H])N(C(=O)C([H])(N([H])C(=O)C([H])(N([H])C([H])([H])[H])C([H])([H])[H])C(C([H])([H])[H])(C([H])([H])[H])C([H])([H])[H])C([H])([H])c2c([H])c(OC([H])([H])C([H])([H])C([H])([H])C(=O)C(=O)N([H])c3c([H])c(N([H])C(=O)N4C([H])([H])C([H])([H])C([H])([H])C([H])(n5nc(-c6c([H])c([H])c(Oc7c([H])c([H])c(F)c([H])c7F)c([H])c6[H])c(C(=O)N([H])[H])c5N([H])[H])C4([H])[H])c([H])c(F)c3F)c([H])c([H])c2C1([H])[H]

>  <smiles>  (29) 
[H]c1c([H])c([H])c2c(c1[H])C([H])([H])C([H])([H])C([H])([H])C2([H])N([H])C(=O)C1([H])N(C(=O)C([H])(N([H])C(=O)C([H])(N([H])C([H])([H])[H])C([H])([H])[H])C(C([H])([H])[H])(C([H])([H])[H])C([H])([H])[H])C([H])([H])c2c([H])c(OC([H])([H])C([H])([H])C([H])([H])C(=O)C(=O)N([H])c3c([H])c(N([H])C(=O)N4C([H])([H])C([H])([H])C([H])([H])C([H])(n5nc(-c6c([H])c([H])c(Oc7c([H])c([H])c(F)c([H])c7F)c([H])c6[H])c(C(=O)N([H])[H])c5N([H])[H])C4([H])[H])c([H])c(F)c3F)c([H])c([H])c2C1([H])[H]

$$$$
30:0:0
     RDKit          3D

 95103  0  0  1  0  0  0  0  0999 V2000
  -30.5120  -18.1230   17.9030 C   0  0  0  0  0  3  0  0  0  0  0  0
  -29.9830  -19.2970   18.4530 C   0  0  0  0  0  0  0  0  0  0  0  0
  -30.4630  -16.9270   18.6320 C   0  0  0  0  0  0  0  0  0  0  0  0
  -29.4320  -19.2640   19.7570 C   0  0  0  0  0  0  0  0  0  0  0  0
  -29.9370  -16.9270   19.9530 C   0  0  0  0  0  0  0  0  0  0  0  0
  -29.2690  -21.7330   20.1310 C   0  0  0  0  0  0  0  0  0  0  0  0
  -29.4050  -18.0880   20.4710 N   0  0  0  0  0  0  0  0  0  0  0  0
  -28.7930  -20.4650   20.2160 N   0  0  0  0  0  0  0  0  0  0  0  0
  -30.4690  -22.0300   20.1590 O   0  0  0  0  0  0  0  0  0  0  0  0
  -29.9470  -20.4190   17.6900 F   0  0  0  0  0  0  0  0  0  0  0  0
  -30.8710  -15.7910   18.0140 F   0  0  0  0  0  0  0  0  0  0  0  0
  -27.8040  -20.3930   20.4020 H   0  0  0  0  0  0  0  0  0  0  0  0
  -30.6590  -14.5900   20.5400 C   0  0  0  0  0  0  0  0  0  0  0  0
  -30.4340  -12.3740   19.5030 C   0  0  0  0  0  2  0  0  0  0  0  0
  -29.5270  -12.5350   18.2640 C   0  0  0  0  0  2  0  0  0  0  0  0
  -28.0430  -12.3930   18.6520 C   0  0  0  0  0  2  0  0  0  0  0  0
  -27.6560  -13.2600   19.8780 C   0  0  0  0  0  3  0  0  0  0  0  0
  -28.6820  -13.0960   21.0240 C   0  0  0  0  0  2  0  0  0  0  0  0
  -30.0170  -13.3880   20.4840 N   0  0  0  0  0  0  0  0  0  0  0  0
  -31.8640  -14.7000   20.2910 O   0  0  0  0  0  0  0  0  0  0  0  0
  -29.8570  -15.6800   20.6780 N   0  0  0  0  0  0  0  0  0  0  0  0
  -28.9710  -15.5060   21.1210 H   0  0  0  0  0  0  0  0  0  0  0  0
  -25.2400  -13.8660   20.5150 C   0  0  0  0  0  0  0  0  0  0  0  0
  -24.1620  -13.0960   20.8620 C   0  0  0  0  0  0  0  0  0  0  0  0
  -24.6290  -11.7450   20.8620 C   0  0  0  0  0  0  0  0  0  0  0  0
  -26.2930  -12.9860   20.3240 N   0  0  0  0  0  0  0  0  0  0  0  0
  -25.9280  -11.7060   20.5920 N   0  0  0  0  0  0  0  0  0  0  0  0
  -23.9000  -10.4840   21.0450 C   0  0  0  0  0  0  0  0  0  0  0  0
  -24.3090   -9.5270   21.9990 C   0  0  0  0  0  3  0  0  0  0  0  0
  -23.5820   -8.3270   22.1690 C   0  0  0  0  0  3  0  0  0  0  0  0
  -22.4320   -8.0790   21.3820 C   0  0  0  0  0  0  0  0  0  0  0  0
  -22.0440   -9.0240   20.4180 C   0  0  0  0  0  3  0  0  0  0  0  0
  -22.7720  -10.2120   20.2470 C   0  0  0  0  0  3  0  0  0  0  0  0
  -21.6790   -6.9320   21.4590 O   0  0  0  0  0  0  0  0  0  0  0  0
  -21.5980   -6.2000   22.6180 C   0  0  0  0  0  0  0  0  0  0  0  0
  -21.1240   -6.7650   23.8220 C   0  0  0  0  0  3  0  0  0  0  0  0
  -20.9920   -5.9600   24.9720 C   0  0  0  0  0  3  0  0  0  0  0  0
  -21.3200   -4.5930   24.9180 C   0  0  0  0  0  0  0  0  0  0  0  0
  -21.7880   -4.0290   23.7180 C   0  0  0  0  0  3  0  0  0  0  0  0
  -21.9230   -4.8310   22.5710 C   0  0  0  0  0  0  0  0  0  0  0  0
  -22.3530   -4.2770   21.4110 F   0  0  0  0  0  0  0  0  0  0  0  0
  -21.1850   -3.8190   26.0200 F   0  0  0  0  0  0  0  0  0  0  0  0
  -22.7570  -13.5740   21.0860 C   0  0  0  0  0  0  0  0  0  0  0  0
  -22.0020  -12.8850   21.9370 N   0  0  0  0  0  0  0  0  0  0  0  0
  -22.3320  -14.5920   20.5410 O   0  0  0  0  0  0  0  0  0  0  0  0
  -22.3580  -12.0630   22.3990 H   0  0  0  0  0  0  0  0  0  0  0  0
  -21.0590  -13.1870   22.1300 H   0  0  0  0  0  0  0  0  0  0  0  0
  -25.4070  -15.2350   20.3240 N   0  0  0  0  0  0  0  0  0  0  0  0
  -24.6260  -15.8820   20.3820 H   0  0  0  0  0  0  0  0  0  0  0  0
  -26.2550  -15.6690   19.9840 H   0  0  0  0  0  0  0  0  0  0  0  0
  -28.1480  -22.8290   20.0200 C   0  0  0  0  0  0  0  0  0  0  0  0
  -27.0870  -22.5990   19.4260 O   0  0  0  0  0  0  0  0  0  0  0  0
  -28.3790  -24.2240   20.6600 C   0  0  0  0  0  2  0  0  0  0  0  0
  -28.6080  -25.3990   19.6590 C   0  0  0  0  0  2  0  0  0  0  0  0
  -28.4950  -26.7240   20.2430 O   0  0  0  0  0  0  0  0  0  0  0  0
  -24.6090  -31.9090   23.2810 C   0  0  0  0  0  0  0  0  0  0  0  0
  -27.3000  -27.4350   20.2260 C   0  0  0  0  0  0  0  0  0  0  0  0
  -23.4260  -30.4940   21.6340 C   0  0  0  0  0  3  0  0  0  0  0  0
  -24.8970  -28.9580   20.2240 C   0  0  0  0  0  0  0  0  0  0  0  0
  -25.9550  -30.8550   21.4600 C   0  0  0  0  0  2  0  0  0  0  0  0
  -26.0520  -29.4810   20.8200 C   0  0  0  0  0  0  0  0  0  0  0  0
  -27.2520  -28.7280   20.8150 C   0  0  0  0  0  3  0  0  0  0  0  0
  -26.1150  -26.9300   19.6420 C   0  0  0  0  0  3  0  0  0  0  0  0
  -24.9260  -27.6840   19.6340 C   0  0  0  0  0  3  0  0  0  0  0  0
  -23.6510  -29.8140   20.2590 C   0  0  0  0  0  2  0  0  0  0  0  0
  -24.6810  -31.1030   22.1820 N   0  0  0  0  0  0  0  0  0  0  0  0
  -23.5210  -32.1760   23.8090 O   0  0  0  0  0  0  0  0  0  0  0  0
  -22.7730  -29.4720   22.5930 C   0  0  0  0  0  0  0  0  0  0  0  0
  -21.4500  -29.2840   22.4570 N   0  0  0  0  0  0  0  0  0  0  0  0
  -23.4530  -28.8500   23.4140 O   0  0  0  0  0  0  0  0  0  0  0  0
  -20.9620  -29.8380   21.7680 H   0  0  0  0  0  0  0  0  0  0  0  0
  -18.0760  -28.0760   22.9380 C   0  0  0  0  0  0  0  0  0  0  0  0
  -20.6320  -28.3420   23.2220 C   0  0  0  0  0  3  0  0  0  0  0  0
  -20.7420  -26.9120   22.6440 C   0  0  0  0  0  2  0  0  0  0  0  0
  -19.6450  -26.5860   21.6250 C   0  0  0  0  0  2  0  0  0  0  0  0
  -18.2610  -26.7270   22.2650 C   0  0  0  0  0  2  0  0  0  0  0  0
  -19.1900  -28.8400   23.3730 C   0  0  0  0  0  0  0  0  0  0  0  0
  -18.9650  -30.1040   23.9630 C   0  0  0  0  0  3  0  0  0  0  0  0
  -17.6570  -30.6010   24.1230 C   0  0  0  0  0  3  0  0  0  0  0  0
  -16.5580  -29.8320   23.7030 C   0  0  0  0  0  3  0  0  0  0  0  0
  -16.7680  -28.5710   23.1170 C   0  0  0  0  0  3  0  0  0  0  0  0
  -25.8850  -32.5510   23.9100 C   0  0  0  0  0  3  0  0  0  0  0  0
  -26.3870  -31.7970   25.2020 C   0  0  1  0  0  0  0  0  0  0  0  0
  -25.2800  -31.5740   26.2600 C   0  0  0  0  0  1  0  0  0  0  0  0
  -26.9760  -30.4160   24.8370 C   0  0  0  0  0  1  0  0  0  0  0  0
  -27.5270  -32.6030   25.8680 C   0  0  0  0  0  1  0  0  0  0  0  0
  -25.5690  -33.9530   24.2150 N   0  0  0  0  0  0  0  0  0  0  0  0
  -25.9090  -34.9950   23.4460 C   0  0  0  0  0  0  0  0  0  0  0  0
  -26.5930  -34.8790   22.4260 O   0  0  0  0  0  0  0  0  0  0  0  0
  -24.9620  -34.1170   25.0050 H   0  0  0  0  0  0  0  0  0  0  0  0
  -24.1820  -36.7780   23.0410 C   0  0  0  0  0  1  0  0  0  0  0  0
  -25.4110  -36.3880   23.8770 C   0  0  0  0  0  3  0  0  0  0  0  0
  -27.5370  -37.2820   24.7230 C   0  0  0  0  0  1  0  0  0  0  0  0
  -26.4410  -37.4450   23.7710 N   0  0  0  0  0  0  0  0  0  0  0  0
  -26.0290  -38.3630   23.9200 H   0  0  0  0  0  0  0  0  0  0  0  0
  1  2  2  0
  1  3  1  0
  2  4  1  0
  3  5  2  0
  4  8  1  0
  4  7  2  0
  5  7  1  0
  5 21  1  0
  6  9  2  0
  6  8  1  0
  8 12  1  0
 10  2  1  0
 11  3  1  0
 13 21  1  0
 14 19  1  0
 15 16  1  0
 15 14  1  0
 17 16  1  0
 17 26  1  0
 17 18  1  0
 19 13  1  0
 19 18  1  0
 20 13  2  0
 21 22  1  0
 23 24  2  0
 24 25  1  0
 24 43  1  0
 25 28  1  0
 26 23  1  0
 26 27  1  0
 27 25  2  0
 28 29  1  0
 29 30  2  0
 31 34  1  0
 31 30  1  0
 32 31  2  0
 33 32  1  0
 33 28  2  0
 34 35  1  0
 35 36  1  0
 36 37  2  0
 38 37  1  0
 38 42  1  0
 39 38  2  0
 40 35  2  0
 40 39  1  0
 41 40  1  0
 43 44  1  0
 44 47  1  0
 44 46  1  0
 45 43  2  0
 48 49  1  0
 48 23  1  0
 50 48  1  0
 51  6  1  0
 51 53  1  0
 52 51  2  0
 54 55  1  0
 54 53  1  0
 56 67  2  0
 57 55  1  0
 57 62  1  0
 58 66  1  0
 58 68  1  0
 59 65  1  0
 59 61  1  0
 60 66  1  0
 61 60  1  0
 62 61  2  0
 63 57  2  0
 64 63  1  0
 64 59  2  0
 65 58  1  0
 66 56  1  0
 68 70  2  0
 69 68  1  0
 71 69  1  0
 72 81  2  0
 72 77  1  0
 73 69  1  0
 73 77  1  0
 74 73  1  0
 75 76  1  0
 75 74  1  0
 76 72  1  0
 77 78  2  0
 78 79  1  0
 80 79  2  0
 81 80  1  0
 82 56  1  0
 82 87  1  0
 82 83  1  0
 83 86  1  1
 83 84  1  0
 85 83  1  0
 87 90  1  0
 88 92  1  0
 88 87  1  0
 89 88  2  0
 92 91  1  0
 94 92  1  0
 94 95  1  0
 94 93  1  0
M  ISO  4  13 100  21 100  54 101  55 101
M  END
>  <TORSDO>  (30) 
F 19

>  <SCORE>  (30) 
-14.251

>  <name>  (30) 
30

>  <ligand_id>  (30) 
30

>  <original_smiles>  (30) 
[H]c1c([H])c([H])c2c(c1[H])C([H])([H])C([H])([H])C([H])([H])C2([H])N([H])C(=O)C1([H])N(C(=O)C([H])(N([H])C(=O)C([H])(N([H])C([H])([H])[H])C([H])([H])[H])C(C([H])([H])[H])(C([H])([H])[H])C([H])([H])[H])C([H])([H])c2c([H])c(OC([H])([H])C([H])([H])C(=O)C(=O)N([H])c3nc(N([H])C(=O)N4C([H])([H])C([H])([H])C([H])([H])C([H])(n5nc(-c6c([H])c([H])c(Oc7c([H])c([H])c(F)c([H])c7F)c([H])c6[H])c(C(=O)N([H])[H])c5N([H])[H])C4([H])[H])c(F)c([H])c3F)c([H])c([H])c2C1([H])[H]

>  <smiles>  (30) 
[H]c1c([H])c([H])c2c(c1[H])C([H])([H])C([H])([H])C([H])([H])C2([H])N([H])C(=O)C1([H])N(C(=O)C([H])(N([H])C(=O)C([H])(N([H])C([H])([H])[H])C([H])([H])[H])C(C([H])([H])[H])(C([H])([H])[H])C([H])([H])[H])C([H])([H])c2c([H])c(OC([H])([H])C([H])([H])C(=O)C(=O)N([H])c3nc(N([H])C(=O)N4C([H])([H])C([H])([H])C([H])([H])C([H])(n5nc(-c6c([H])c([H])c(Oc7c([H])c([H])c(F)c([H])c7F)c([H])c6[H])c(C(=O)N([H])[H])c5N([H])[H])C4([H])[H])c(F)c([H])c3F)c([H])c([H])c2C1([H])[H]

$$$$
31:0:0
     RDKit          3D

 97105  0  0  1  0  0  0  0  0999 V2000
  -30.5320  -21.7170   21.0290 N   0  0  0  0  0  0  0  0  0  0  0  0
  -30.8650  -21.1840   21.8320 H   0  0  0  0  0  0  0  0  0  0  0  0
  -32.0200  -22.6600   19.1500 O   0  0  0  0  0  0  0  0  0  0  0  0
  -32.6770  -22.9540   21.5870 O   0  0  0  0  0  0  0  0  0  0  0  0
  -31.6390  -22.9370   20.5440 S   0  0  2  0  0  0  0  0  0  0  0  0
  -30.6620  -24.4910   20.6890 C   0  0  0  0  0  2  0  0  0  0  0  0
  -30.1630  -25.0700   19.3650 C   0  0  0  0  0  0  0  0  0  0  0  0
  -30.9220  -25.3230   18.4240 O   0  0  0  0  0  0  0  0  0  0  0  0
  -28.6900  -25.4740   19.3060 C   0  0  0  0  0  2  0  0  0  0  0  0
  -28.5590  -26.7250   19.9710 O   0  0  0  0  0  0  0  0  0  0  0  0
  -24.5690  -31.6810   23.0810 C   0  0  0  0  0  0  0  0  0  0  0  0
  -27.3490  -27.3790   19.9370 C   0  0  0  0  0  0  0  0  0  0  0  0
  -23.4260  -30.3330   21.3490 C   0  0  0  0  0  3  0  0  0  0  0  0
  -24.9340  -28.8500   19.9250 C   0  0  0  0  0  0  0  0  0  0  0  0
  -25.9520  -30.7120   21.2520 C   0  0  0  0  0  2  0  0  0  0  0  0
  -26.0650  -29.3650   20.5710 C   0  0  0  0  0  0  0  0  0  0  0  0
  -27.2700  -28.6340   20.5770 C   0  0  0  0  0  3  0  0  0  0  0  0
  -26.1970  -26.8650   19.2950 C   0  0  0  0  0  3  0  0  0  0  0  0
  -24.9940  -27.5980   19.2890 C   0  0  0  0  0  3  0  0  0  0  0  0
  -23.6850  -29.7000   19.9550 C   0  0  0  0  0  2  0  0  0  0  0  0
  -24.6650  -30.9210   21.9540 N   0  0  0  0  0  0  0  0  0  0  0  0
  -23.4690  -31.9310   23.5940 O   0  0  0  0  0  0  0  0  0  0  0  0
  -22.7460  -29.2780   22.2500 C   0  0  0  0  0  0  0  0  0  0  0  0
  -21.4230  -29.1170   22.0880 N   0  0  0  0  0  0  0  0  0  0  0  0
  -23.4070  -28.6080   23.0480 O   0  0  0  0  0  0  0  0  0  0  0  0
  -20.9530  -29.7130   21.4200 H   0  0  0  0  0  0  0  0  0  0  0  0
  -18.0180  -27.9800   22.4940 C   0  0  0  0  0  0  0  0  0  0  0  0
  -20.5790  -28.1550   22.7960 C   0  0  0  0  0  3  0  0  0  0  0  0
  -20.6490  -26.7590   22.1340 C   0  0  0  0  0  2  0  0  0  0  0  0
  -19.5460  -26.5270   21.0970 C   0  0  0  0  0  2  0  0  0  0  0  0
  -18.1640  -26.6690   21.7400 C   0  0  0  0  0  2  0  0  0  0  0  0
  -19.1530  -28.6860   22.9760 C   0  0  0  0  0  0  0  0  0  0  0  0
  -18.9630  -29.9170   23.6380 C   0  0  0  0  0  3  0  0  0  0  0  0
  -17.6710  -30.4420   23.8250 C   0  0  0  0  0  3  0  0  0  0  0  0
  -16.5500  -29.7330   23.3630 C   0  0  0  0  0  3  0  0  0  0  0  0
  -16.7250  -28.5030   22.7030 C   0  0  0  0  0  3  0  0  0  0  0  0
  -25.8320  -32.2900   23.7690 C   0  0  0  0  0  3  0  0  0  0  0  0
  -25.5150  -33.6780   24.1240 N   0  0  0  0  0  0  0  0  0  0  0  0
  -25.8750  -34.7490   23.4020 C   0  0  0  0  0  0  0  0  0  0  0  0
  -26.5810  -34.6700   22.3930 O   0  0  0  0  0  0  0  0  0  0  0  0
  -24.8910  -33.8150   24.9050 H   0  0  0  0  0  0  0  0  0  0  0  0
  -24.1580  -36.5480   23.0320 C   0  0  0  0  0  1  0  0  0  0  0  0
  -25.3730  -36.1260   23.8750 C   0  0  0  0  0  3  0  0  0  0  0  0
  -27.4760  -36.9920   24.8010 C   0  0  0  0  0  1  0  0  0  0  0  0
  -26.4080  -37.1820   23.8220 N   0  0  0  0  0  0  0  0  0  0  0  0
  -25.9960  -38.0980   23.9750 H   0  0  0  0  0  0  0  0  0  0  0  0
  -26.2990  -31.4810   25.0410 C   0  0  1  0  0  0  0  0  0  0  0  0
  -25.1660  -31.2150   26.0580 C   0  0  0  0  0  1  0  0  0  0  0  0
  -26.8970  -30.1150   24.6300 C   0  0  0  0  0  1  0  0  0  0  0  0
  -27.4250  -32.2540   25.7700 C   0  0  0  0  0  1  0  0  0  0  0  0
  -29.7350  -20.9700   20.0510 C   0  0  0  0  0  2  0  0  0  0  0  0
  -29.6390  -18.8200   21.4010 C   0  0  0  0  0  3  0  0  0  0  0  0
  -30.5330  -17.3140   19.2000 C   0  0  0  0  0  3  0  0  0  0  0  0
  -29.9230  -19.4690   20.1800 C   0  0  0  0  0  0  0  0  0  0  0  0
  -30.2370  -16.6580   20.4210 C   0  0  0  0  0  0  0  0  0  0  0  0
  -29.7840  -17.4230   21.5150 C   0  0  0  0  0  0  0  0  0  0  0  0
  -30.3750  -18.7070   19.0800 C   0  0  0  0  0  0  0  0  0  0  0  0
  -29.4720  -16.8040   22.6790 F   0  0  0  0  0  0  0  0  0  0  0  0
  -30.6510  -19.3050   17.8980 F   0  0  0  0  0  0  0  0  0  0  0  0
  -30.8500  -14.3360   19.7870 C   0  0  0  0  0  0  0  0  0  0  0  0
  -30.4170  -12.2340   18.5900 C   0  0  0  0  0  2  0  0  0  0  0  0
  -29.3430  -12.4910   17.5130 C   0  0  0  0  0  2  0  0  0  0  0  0
  -27.9260  -12.3410   18.1010 C   0  0  0  0  0  2  0  0  0  0  0  0
  -27.7410  -13.1290   19.4250 C   0  0  0  0  0  3  0  0  0  0  0  0
  -28.9100  -12.8460   20.3950 C   0  0  0  0  0  2  0  0  0  0  0  0
  -30.1740  -13.1620   19.7030 N   0  0  0  0  0  0  0  0  0  0  0  0
  -31.8710  -14.5770   19.1350 O   0  0  0  0  0  0  0  0  0  0  0  0
  -30.2950  -15.2460   20.5990 N   0  0  0  0  0  0  0  0  0  0  0  0
  -29.6370  -14.8850   21.2740 H   0  0  0  0  0  0  0  0  0  0  0  0
  -25.4310  -13.7120   20.4050 C   0  0  0  0  0  0  0  0  0  0  0  0
  -24.4130  -12.9260   20.8740 C   0  0  0  0  0  0  0  0  0  0  0  0
  -24.8710  -11.5780   20.7600 C   0  0  0  0  0  0  0  0  0  0  0  0
  -26.4480  -12.8410   20.0410 N   0  0  0  0  0  0  0  0  0  0  0  0
  -26.1170  -11.5510   20.3070 N   0  0  0  0  0  0  0  0  0  0  0  0
  -24.1740  -10.3080   21.0000 C   0  0  0  0  0  0  0  0  0  0  0  0
  -24.6340   -9.3850   21.9660 C   0  0  0  0  0  3  0  0  0  0  0  0
  -23.9380   -8.1790   22.1910 C   0  0  0  0  0  3  0  0  0  0  0  0
  -22.7680   -7.8850   21.4520 C   0  0  0  0  0  0  0  0  0  0  0  0
  -22.3270   -8.7960   20.4750 C   0  0  0  0  0  3  0  0  0  0  0  0
  -23.0240   -9.9940   20.2480 C   0  0  0  0  0  3  0  0  0  0  0  0
  -22.0420   -6.7270   21.5850 O   0  0  0  0  0  0  0  0  0  0  0  0
  -21.9150   -6.0930   22.7950 C   0  0  0  0  0  0  0  0  0  0  0  0
  -21.3620   -6.7400   23.9210 C   0  0  0  0  0  3  0  0  0  0  0  0
  -21.1860   -6.0290   25.1260 C   0  0  0  0  0  3  0  0  0  0  0  0
  -21.5490   -4.6720   25.2030 C   0  0  0  0  0  0  0  0  0  0  0  0
  -22.0940   -4.0240   24.0800 C   0  0  0  0  0  3  0  0  0  0  0  0
  -22.2730   -4.7320   22.8780 C   0  0  0  0  0  0  0  0  0  0  0  0
  -22.7780   -4.0970   21.7940 F   0  0  0  0  0  0  0  0  0  0  0  0
  -21.3720   -3.9860   26.3560 F   0  0  0  0  0  0  0  0  0  0  0  0
  -23.0550  -13.3910   21.3160 C   0  0  0  0  0  0  0  0  0  0  0  0
  -22.4490  -12.6920   22.2700 N   0  0  0  0  0  0  0  0  0  0  0  0
  -22.5440  -14.4070   20.8500 O   0  0  0  0  0  0  0  0  0  0  0  0
  -22.8750  -11.8660   22.6640 H   0  0  0  0  0  0  0  0  0  0  0  0
  -21.5460  -12.9890   22.6130 H   0  0  0  0  0  0  0  0  0  0  0  0
  -25.5740  -15.0870   20.2420 N   0  0  0  0  0  0  0  0  0  0  0  0
  -24.8230  -15.7390   20.4450 H   0  0  0  0  0  0  0  0  0  0  0  0
  -26.3880  -15.5330   19.8410 H   0  0  0  0  0  0  0  0  0  0  0  0
  1  2  1  0
  3  5  2  0
  5  6  1  6
  5  1  1  0
  5  4  2  0
  7  6  1  0
  8  7  2  0
  9  7  1  0
  9 10  1  0
 11 22  2  0
 12 10  1  0
 12 17  1  0
 13 21  1  0
 13 23  1  0
 14 20  1  0
 14 16  1  0
 15 21  1  0
 16 17  2  0
 16 15  1  0
 18 12  2  0
 19 18  1  0
 19 14  2  0
 20 13  1  0
 21 11  1  0
 23 25  2  0
 24 23  1  0
 26 24  1  0
 27 36  2  0
 27 32  1  0
 28 24  1  0
 28 32  1  0
 29 28  1  0
 30 31  1  0
 30 29  1  0
 31 27  1  0
 32 33  2  0
 33 34  1  0
 35 34  2  0
 36 35  1  0
 37 11  1  0
 37 38  1  0
 37 47  1  0
 38 41  1  0
 39 43  1  0
 39 38  1  0
 40 39  2  0
 43 42  1  0
 45 43  1  0
 45 46  1  0
 45 44  1  0
 47 50  1  1
 47 48  1  0
 49 47  1  0
 51 54  1  0
 51  1  1  0
 52 56  1  0
 53 55  1  0
 54 52  2  0
 55 68  1  0
 55 56  2  0
 56 58  1  0
 57 53  2  0
 57 54  1  0
 59 57  1  0
 60 68  1  0
 61 66  1  0
 62 63  1  0
 62 61  1  0
 64 63  1  0
 64 73  1  0
 64 65  1  0
 66 60  1  0
 66 65  1  0
 67 60  2  0
 68 69  1  0
 70 71  2  0
 71 90  1  0
 72 71  1  0
 72 75  1  0
 73 74  1  0
 73 70  1  0
 74 72  2  0
 75 76  1  0
 76 77  2  0
 78 81  1  0
 78 77  1  0
 79 78  2  0
 80 79  1  0
 80 75  2  0
 81 82  1  0
 82 87  2  0
 82 83  1  0
 83 84  2  0
 84 85  1  0
 85 89  1  0
 86 85  2  0
 87 86  1  0
 88 87  1  0
 90 91  1  0
 91 94  1  0
 91 93  1  0
 92 90  2  0
 95 70  1  0
 95 96  1  0
 97 95  1  0
M  ISO  4   9 101  10 101  60 100  68 100
M  END
>  <TORSDO>  (31) 
F 22

>  <SCORE>  (31) 
-10.454

>  <name>  (31) 
31

>  <ligand_id>  (31) 
31

>  <original_smiles>  (31) 
[H]c1c([H])c([H])c2c(c1[H])C([H])([H])C([H])([H])C([H])([H])C2([H])N([H])C(=O)C1([H])N(C(=O)C([H])(N([H])C(=O)C([H])(N([H])C([H])([H])[H])C([H])([H])[H])C(C([H])([H])[H])(C([H])([H])[H])C([H])([H])[H])C([H])([H])c2c([H])c(OC([H])([H])C(=O)C([H])([H])S(=O)(=O)N([H])C([H])([H])c3c([H])c(F)c(N([H])C(=O)N4C([H])([H])C([H])([H])C([H])([H])C([H])(n5nc(-c6c([H])c([H])c(Oc7c([H])c([H])c(F)c([H])c7F)c([H])c6[H])c(C(=O)N([H])[H])c5N([H])[H])C4([H])[H])c([H])c3F)c([H])c([H])c2C1([H])[H]

>  <smiles>  (31) 
[H]c1c([H])c([H])c2c(c1[H])C([H])([H])C([H])([H])C([H])([H])C2([H])N([H])C(=O)C1([H])N(C(=O)C([H])(N([H])C(=O)C([H])(N([H])C([H])([H])[H])C([H])([H])[H])C(C([H])([H])[H])(C([H])([H])[H])C([H])([H])[H])C([H])([H])c2c([H])c(OC([H])([H])C(=O)C([H])([H])S(=O)(=O)N([H])C([H])([H])c3c([H])c(F)c(N([H])C(=O)N4C([H])([H])C([H])([H])C([H])([H])C([H])(n5nc(-c6c([H])c([H])c(Oc7c([H])c([H])c(F)c([H])c7F)c([H])c6[H])c(C(=O)N([H])[H])c5N([H])[H])C4([H])[H])c([H])c3F)c([H])c([H])c2C1([H])[H]

$$$$
32:0:0
     RDKit          3D

 94102  0  0  1  0  0  0  0  0999 V2000
  -28.9170  -23.1260   20.6080 C   0  0  0  0  0  3  0  0  0  0  0  0
  -29.6530  -21.9830   20.6500 C   0  0  0  0  0  0  0  0  0  0  0  0
  -28.9500  -20.6640   20.7030 C   0  0  0  0  0  0  0  0  0  0  0  0
  -27.7520  -20.6300   21.0080 O   0  0  0  0  0  0  0  0  0  0  0  0
  -30.8710  -14.5810   19.9940 C   0  0  0  0  0  0  0  0  0  0  0  0
  -30.5620  -12.3830   18.9170 C   0  0  0  0  0  2  0  0  0  0  0  0
  -29.5340  -12.5390   17.7740 C   0  0  0  0  0  2  0  0  0  0  0  0
  -28.0930  -12.3880   18.2980 C   0  0  0  0  0  2  0  0  0  0  0  0
  -27.8230  -13.2500   19.5600 C   0  0  0  0  0  3  0  0  0  0  0  0
  -28.9500  -13.0570   20.6010 C   0  0  0  0  0  2  0  0  0  0  0  0
  -30.2360  -13.3760   19.9520 N   0  0  0  0  0  0  0  0  0  0  0  0
  -31.9430  -14.7860   19.4160 O   0  0  0  0  0  0  0  0  0  0  0  0
  -29.6390  -19.3810   20.4090 C   0  0  0  0  0  0  0  0  0  0  0  0
  -30.6370  -18.9990   19.5240 C   0  0  0  0  0  0  0  0  0  0  0  0
  -30.1890  -16.9530   20.4630 C   0  0  0  0  0  0  0  0  0  0  0  0
  -31.3740  -19.8190   18.5040 C   0  0  0  0  0  1  0  0  0  0  0  0
  -30.9370  -17.6230   19.5790 N   0  0  0  0  0  0  0  0  0  0  0  0
  -30.2000  -15.5410   20.6590 N   0  0  0  0  0  0  0  0  0  0  0  0
  -29.0750  -17.9930   21.3330 S   0  0  0  0  0  0  0  0  0  0  0  0
  -29.4290  -15.1910   21.2020 H   0  0  0  0  0  0  0  0  0  0  0  0
  -25.4810  -13.8530   20.4480 C   0  0  0  0  0  0  0  0  0  0  0  0
  -24.4400  -13.0760   20.8790 C   0  0  0  0  0  0  0  0  0  0  0  0
  -24.8910  -11.7240   20.7870 C   0  0  0  0  0  0  0  0  0  0  0  0
  -26.5030  -12.9730   20.1260 N   0  0  0  0  0  0  0  0  0  0  0  0
  -26.1550  -11.6870   20.3860 N   0  0  0  0  0  0  0  0  0  0  0  0
  -24.1750  -10.4610   21.0050 C   0  0  0  0  0  0  0  0  0  0  0  0
  -24.5960   -9.5310   21.9820 C   0  0  0  0  0  3  0  0  0  0  0  0
  -23.8810   -8.3300   22.1830 C   0  0  0  0  0  3  0  0  0  0  0  0
  -22.7320   -8.0500   21.4070 C   0  0  0  0  0  0  0  0  0  0  0  0
  -22.3310   -8.9680   20.4190 C   0  0  0  0  0  3  0  0  0  0  0  0
  -23.0470  -10.1600   20.2170 C   0  0  0  0  0  3  0  0  0  0  0  0
  -21.9880   -6.9000   21.5160 O   0  0  0  0  0  0  0  0  0  0  0  0
  -21.8160   -6.2650   22.7210 C   0  0  0  0  0  0  0  0  0  0  0  0
  -21.2210   -6.9150   23.8250 C   0  0  0  0  0  3  0  0  0  0  0  0
  -21.0000   -6.2050   25.0220 C   0  0  0  0  0  3  0  0  0  0  0  0
  -21.3620   -4.8470   25.1150 C   0  0  0  0  0  0  0  0  0  0  0  0
  -21.9480   -4.1990   24.0140 C   0  0  0  0  0  3  0  0  0  0  0  0
  -22.1710   -4.9060   22.8200 C   0  0  0  0  0  0  0  0  0  0  0  0
  -22.7180   -4.2700   21.7550 F   0  0  0  0  0  0  0  0  0  0  0  0
  -21.1410   -4.1630   26.2610 F   0  0  0  0  0  0  0  0  0  0  0  0
  -23.0670  -13.5500   21.2640 C   0  0  0  0  0  0  0  0  0  0  0  0
  -22.4070  -12.8480   22.1780 N   0  0  0  0  0  0  0  0  0  0  0  0
  -22.5920  -14.5810   20.7860 O   0  0  0  0  0  0  0  0  0  0  0  0
  -22.8040  -12.0140   22.5850 H   0  0  0  0  0  0  0  0  0  0  0  0
  -21.4900  -13.1500   22.4740 H   0  0  0  0  0  0  0  0  0  0  0  0
  -25.6410  -15.2260   20.2860 N   0  0  0  0  0  0  0  0  0  0  0  0
  -24.8880  -15.8830   20.4640 H   0  0  0  0  0  0  0  0  0  0  0  0
  -26.4580  -15.6640   19.8790 H   0  0  0  0  0  0  0  0  0  0  0  0
  -29.4610  -24.5050   20.5830 C   0  0  0  0  0  0  0  0  0  0  0  0
  -30.6320  -24.7590   20.2790 O   0  0  0  0  0  0  0  0  0  0  0  0
  -28.5060  -25.6420   20.9990 C   0  0  0  0  0  2  0  0  0  0  0  0
  -28.7060  -26.8530   20.2510 O   0  0  0  0  0  0  0  0  0  0  0  0
  -24.7120  -31.8470   23.3620 C   0  0  0  0  0  0  0  0  0  0  0  0
  -27.5560  -27.6050   20.1980 C   0  0  0  0  0  0  0  0  0  0  0  0
  -23.5970  -30.5040   21.6090 C   0  0  0  0  0  3  0  0  0  0  0  0
  -25.1360  -29.0620   20.1730 C   0  0  0  0  0  0  0  0  0  0  0  0
  -26.1190  -30.9190   21.5270 C   0  0  0  0  0  2  0  0  0  0  0  0
  -26.2590  -29.5830   20.8300 C   0  0  0  0  0  0  0  0  0  0  0  0
  -27.4760  -28.8620   20.8370 C   0  0  0  0  0  3  0  0  0  0  0  0
  -26.4210  -27.1030   19.5250 C   0  0  0  0  0  3  0  0  0  0  0  0
  -25.2120  -27.8220   19.5150 C   0  0  0  0  0  3  0  0  0  0  0  0
  -23.8740  -29.8940   20.2090 C   0  0  0  0  0  2  0  0  0  0  0  0
  -24.8250  -31.1020   22.2260 N   0  0  0  0  0  0  0  0  0  0  0  0
  -23.6060  -32.0740   23.8720 O   0  0  0  0  0  0  0  0  0  0  0  0
  -22.9280  -29.4280   22.4950 C   0  0  0  0  0  0  0  0  0  0  0  0
  -21.6140  -29.2240   22.3030 N   0  0  0  0  0  0  0  0  0  0  0  0
  -23.5900  -28.7790   23.3100 O   0  0  0  0  0  0  0  0  0  0  0  0
  -21.1420  -29.8020   21.6220 H   0  0  0  0  0  0  0  0  0  0  0  0
  -18.2460  -27.9540   22.6040 C   0  0  0  0  0  0  0  0  0  0  0  0
  -20.7850  -28.2380   22.9950 C   0  0  0  0  0  3  0  0  0  0  0  0
  -20.9360  -26.8380   22.3600 C   0  0  0  0  0  2  0  0  0  0  0  0
  -19.8840  -26.5450   21.2860 C   0  0  0  0  0  2  0  0  0  0  0  0
  -18.4740  -26.6400   21.8750 C   0  0  0  0  0  2  0  0  0  0  0  0
  -19.3320  -28.7120   23.1160 C   0  0  0  0  0  0  0  0  0  0  0  0
  -19.0670  -29.9440   23.7520 C   0  0  0  0  0  3  0  0  0  0  0  0
  -17.7490  -30.4180   23.8860 C   0  0  0  0  0  3  0  0  0  0  0  0
  -16.6760  -29.6540   23.3930 C   0  0  0  0  0  3  0  0  0  0  0  0
  -16.9250  -28.4250   22.7570 C   0  0  0  0  0  3  0  0  0  0  0  0
  -25.9630  -32.4680   24.0590 C   0  0  0  0  0  3  0  0  0  0  0  0
  -26.4150  -31.6770   25.3470 C   0  0  1  0  0  0  0  0  0  0  0  0
  -25.2680  -31.4170   26.3510 C   0  0  0  0  0  1  0  0  0  0  0  0
  -27.0230  -30.3080   24.9590 C   0  0  0  0  0  1  0  0  0  0  0  0
  -27.5250  -32.4610   26.0840 C   0  0  0  0  0  1  0  0  0  0  0  0
  -25.6390  -33.8610   24.3920 N   0  0  0  0  0  0  0  0  0  0  0  0
  -26.0130  -34.9240   23.6680 C   0  0  0  0  0  0  0  0  0  0  0  0
  -26.7410  -34.8340   22.6730 O   0  0  0  0  0  0  0  0  0  0  0  0
  -25.0050  -34.0050   25.1640 H   0  0  0  0  0  0  0  0  0  0  0  0
  -24.3170  -36.7260   23.2280 C   0  0  0  0  0  1  0  0  0  0  0  0
  -25.5000  -36.3050   24.1150 C   0  0  0  0  0  3  0  0  0  0  0  0
  -27.5740  -37.1720   25.1050 C   0  0  0  0  0  1  0  0  0  0  0  0
  -26.5390  -37.3570   24.0910 N   0  0  0  0  0  0  0  0  0  0  0  0
  -26.1250  -38.2770   24.2250 H   0  0  0  0  0  0  0  0  0  0  0  0
  -30.9960  -21.9870   20.6810 O   0  0  0  0  0  0  0  0  0  0  0  0
  -31.2740  -22.8960   20.6230 H   0  0  0  0  0  0  0  0  0  0  0  0
  1  2  2  0
  2 93  1  0
  2  3  1  0
  3  4  2  0
  5 18  1  0
  6 11  1  0
  7  8  1  0
  7  6  1  0
  9  8  1  0
  9 24  1  0
  9 10  1  0
 11  5  1  0
 11 10  1  0
 12  5  2  0
 13  3  1  0
 13 19  1  0
 14 17  1  0
 14 13  2  0
 15 18  1  0
 15 19  1  0
 16 14  1  0
 17 15  2  0
 18 20  1  0
 21 22  2  0
 22 41  1  0
 23 22  1  0
 23 26  1  0
 24 25  1  0
 24 21  1  0
 25 23  2  0
 26 27  1  0
 27 28  2  0
 29 32  1  0
 29 28  1  0
 30 29  2  0
 31 30  1  0
 31 26  2  0
 32 33  1  0
 33 38  2  0
 33 34  1  0
 34 35  2  0
 35 36  1  0
 36 40  1  0
 37 36  2  0
 38 37  1  0
 39 38  1  0
 41 42  1  0
 42 45  1  0
 42 44  1  0
 43 41  2  0
 46 21  1  0
 46 47  1  0
 48 46  1  0
 49  1  1  0
 49 51  1  0
 50 49  2  0
 52 51  1  0
 53 64  2  0
 54 52  1  0
 54 59  1  0
 55 63  1  0
 55 65  1  0
 56 62  1  0
 56 58  1  0
 57 63  1  0
 58 59  2  0
 58 57  1  0
 60 54  2  0
 61 60  1  0
 61 56  2  0
 62 55  1  0
 63 53  1  0
 65 67  2  0
 66 65  1  0
 68 66  1  0
 69 78  2  0
 69 74  1  0
 70 66  1  0
 70 74  1  0
 71 70  1  0
 72 73  1  0
 72 71  1  0
 73 69  1  0
 74 75  2  0
 75 76  1  0
 77 76  2  0
 78 77  1  0
 79 53  1  0
 79 84  1  0
 79 80  1  0
 80 83  1  1
 80 81  1  0
 82 80  1  0
 84 87  1  0
 85 89  1  0
 85 84  1  0
 86 85  2  0
 89 88  1  0
 91 89  1  0
 91 92  1  0
 91 90  1  0
 94 93  1  0
M  ISO  4   5 100  18 100  51 101  52 101
M  END
>  <TORSDO>  (32) 
F 20

>  <SCORE>  (32) 
-12.808

>  <name>  (32) 
32

>  <ligand_id>  (32) 
32

>  <original_smiles>  (32) 
[H]OC(C(=O)c1sc(N([H])C(=O)N2C([H])([H])C([H])([H])C([H])([H])C([H])(n3nc(-c4c([H])c([H])c(Oc5c([H])c([H])c(F)c([H])c5F)c([H])c4[H])c(C(=O)N([H])[H])c3N([H])[H])C2([H])[H])nc1C([H])([H])[H])=C([H])C(=O)C([H])([H])Oc1c([H])c([H])c2c(c1[H])C([H])([H])N(C(=O)C([H])(N([H])C(=O)C([H])(N([H])C([H])([H])[H])C([H])([H])[H])C(C([H])([H])[H])(C([H])([H])[H])C([H])([H])[H])C([H])(C(=O)N([H])C1([H])c3c([H])c([H])c([H])c([H])c3C([H])([H])C([H])([H])C1([H])[H])C2([H])[H]

>  <smiles>  (32) 
[H]OC(C(=O)c1sc(N([H])C(=O)N2C([H])([H])C([H])([H])C([H])([H])C([H])(n3nc(-c4c([H])c([H])c(Oc5c([H])c([H])c(F)c([H])c5F)c([H])c4[H])c(C(=O)N([H])[H])c3N([H])[H])C2([H])[H])nc1C([H])([H])[H])=C([H])C(=O)C([H])([H])Oc1c([H])c([H])c2c(c1[H])C([H])([H])N(C(=O)C([H])(N([H])C(=O)C([H])(N([H])C([H])([H])[H])C([H])([H])[H])C(C([H])([H])[H])(C([H])([H])[H])C([H])([H])[H])C([H])(C(=O)N([H])C1([H])c3c([H])c([H])c([H])c([H])c3C([H])([H])C([H])([H])C1([H])[H])C2([H])[H]

$$$$
33:0:0
     RDKit          3D

 95103  0  0  1  0  0  0  0  0999 V2000
  -29.7850  -18.5790   20.4480 C   0  0  0  0  0  0  0  0  0  0  0  0
  -29.0690  -18.6870   19.2700 C   0  0  0  0  0  0  0  0  0  0  0  0
  -29.0700  -20.7770   20.6010 C   0  0  0  0  0  0  0  0  0  0  0  0
  -28.8990  -23.2640   20.5350 C   0  0  0  0  0  0  0  0  0  0  0  0
  -29.7220  -19.7700   21.2220 N   0  0  0  0  0  0  0  0  0  0  0  0
  -28.8690  -22.0710   21.1850 N   0  0  0  0  0  0  0  0  0  0  0  0
  -29.4310  -23.4330   19.4320 O   0  0  0  0  0  0  0  0  0  0  0  0
  -28.3910  -20.2910   19.0560 S   0  0  0  0  0  0  0  0  0  0  0  0
  -28.5310  -22.0900   22.1360 H   0  0  0  0  0  0  0  0  0  0  0  0
  -28.8620  -17.6450   18.2110 C   0  0  1  0  0  0  0  0  0  0  0  0
  -29.9970  -17.0220   17.9000 F   0  0  0  0  0  0  0  0  0  0  0  0
  -27.9930  -16.7190   18.6160 F   0  0  0  0  0  0  0  0  0  0  0  0
  -28.3800  -18.1680   17.0840 F   0  0  0  0  0  0  0  0  0  0  0  0
  -28.1900  -24.4440   21.3000 C   0  0  0  0  0  0  0  0  0  0  0  0
  -27.0860  -24.2660   21.8310 O   0  0  0  0  0  0  0  0  0  0  0  0
  -28.8950  -25.8290   21.4310 C   0  0  0  0  0  2  0  0  0  0  0  0
  -28.6340  -26.7770   20.3620 O   0  0  0  0  0  0  0  0  0  0  0  0
  -24.6740  -32.0210   23.2840 C   0  0  0  0  0  0  0  0  0  0  0  0
  -27.4630  -27.5110   20.4070 C   0  0  0  0  0  0  0  0  0  0  0  0
  -23.5330  -30.5500   21.6560 C   0  0  0  0  0  3  0  0  0  0  0  0
  -25.0480  -28.9950   20.3130 C   0  0  0  0  0  0  0  0  0  0  0  0
  -26.0590  -30.9430   21.5080 C   0  0  0  0  0  2  0  0  0  0  0  0
  -26.1850  -29.5500   20.9180 C   0  0  0  0  0  0  0  0  0  0  0  0
  -27.3980  -28.8160   20.9590 C   0  0  0  0  0  3  0  0  0  0  0  0
  -26.3130  -26.9820   19.7880 C   0  0  0  0  0  3  0  0  0  0  0  0
  -25.1090  -27.7100   19.7470 C   0  0  0  0  0  3  0  0  0  0  0  0
  -23.7890  -29.8340   20.3030 C   0  0  0  0  0  2  0  0  0  0  0  0
  -24.7720  -31.1890   22.2070 N   0  0  0  0  0  0  0  0  0  0  0  0
  -23.5750  -32.2850   23.7930 O   0  0  0  0  0  0  0  0  0  0  0  0
  -22.8780  -29.5430   22.6310 C   0  0  0  0  0  0  0  0  0  0  0  0
  -21.5710  -29.2940   22.4510 N   0  0  0  0  0  0  0  0  0  0  0  0
  -23.5480  -28.9860   23.5060 O   0  0  0  0  0  0  0  0  0  0  0  0
  -21.0920  -29.7970   21.7170 H   0  0  0  0  0  0  0  0  0  0  0  0
  -18.2320  -27.9660   22.8440 C   0  0  0  0  0  0  0  0  0  0  0  0
  -20.7600  -28.3520   23.2220 C   0  0  0  0  0  3  0  0  0  0  0  0
  -20.9530  -26.9040   22.7150 C   0  0  0  0  0  2  0  0  0  0  0  0
  -19.9170  -26.4900   21.6660 C   0  0  0  0  0  2  0  0  0  0  0  0
  -18.5000  -26.6000   22.2370 C   0  0  0  0  0  2  0  0  0  0  0  0
  -19.2950  -28.7950   23.2930 C   0  0  0  0  0  0  0  0  0  0  0  0
  -18.9940  -30.0710   23.8180 C   0  0  0  0  0  3  0  0  0  0  0  0
  -17.6630  -30.5200   23.8990 C   0  0  0  0  0  3  0  0  0  0  0  0
  -16.6140  -29.6890   23.4690 C   0  0  0  0  0  3  0  0  0  0  0  0
  -16.8990  -28.4150   22.9480 C   0  0  0  0  0  3  0  0  0  0  0  0
  -25.9320  -32.6950   23.9130 C   0  0  0  0  0  3  0  0  0  0  0  0
  -25.5780  -34.0840   24.2310 N   0  0  0  0  0  0  0  0  0  0  0  0
  -25.9060  -35.1440   23.4800 C   0  0  0  0  0  0  0  0  0  0  0  0
  -26.6090  -35.0550   22.4700 O   0  0  0  0  0  0  0  0  0  0  0  0
  -24.9570  -34.2240   25.0140 H   0  0  0  0  0  0  0  0  0  0  0  0
  -24.1600  -36.9010   23.0480 C   0  0  0  0  0  1  0  0  0  0  0  0
  -25.3690  -36.5190   23.9190 C   0  0  0  0  0  3  0  0  0  0  0  0
  -27.4360  -37.4460   24.8610 C   0  0  0  0  0  1  0  0  0  0  0  0
  -26.3830  -37.5940   23.8610 N   0  0  0  0  0  0  0  0  0  0  0  0
  -25.9530  -38.5050   23.9860 H   0  0  0  0  0  0  0  0  0  0  0  0
  -26.4610  -31.9460   25.1990 C   0  0  1  0  0  0  0  0  0  0  0  0
  -25.3530  -31.6260   26.2290 C   0  0  0  0  0  1  0  0  0  0  0  0
  -27.1470  -30.6150   24.8120 C   0  0  0  0  0  1  0  0  0  0  0  0
  -27.5340  -32.8090   25.9030 C   0  0  0  0  0  1  0  0  0  0  0  0
  -30.6650  -17.3920   20.8620 C   0  0  0  0  0  2  0  0  0  0  0  0
  -29.9840  -15.9850   21.0600 C   0  0  0  0  0  2  0  0  0  0  0  0
  -30.7650  -14.7400   20.5120 C   0  0  0  0  0  0  0  0  0  0  0  0
  -30.5150  -12.5940   19.2980 C   0  0  0  0  0  2  0  0  0  0  0  0
  -29.5620  -12.8160   18.1050 C   0  0  0  0  0  2  0  0  0  0  0  0
  -28.0930  -12.6330   18.5370 C   0  0  0  0  0  2  0  0  0  0  0  0
  -27.7480  -13.4240   19.8260 C   0  0  0  0  0  3  0  0  0  0  0  0
  -28.8170  -13.2060   20.9200 C   0  0  0  0  0  2  0  0  0  0  0  0
  -30.1290  -13.5430   20.3560 N   0  0  0  0  0  0  0  0  0  0  0  0
  -31.9140  -14.9030   20.0900 O   0  0  0  0  0  0  0  0  0  0  0  0
  -25.3500  -13.9780   20.5640 C   0  0  0  0  0  0  0  0  0  0  0  0
  -24.2970  -13.1820   20.9270 C   0  0  0  0  0  0  0  0  0  0  0  0
  -24.7800  -11.8400   20.8720 C   0  0  0  0  0  0  0  0  0  0  0  0
  -26.4060  -13.1180   20.3110 N   0  0  0  0  0  0  0  0  0  0  0  0
  -26.0690  -11.8250   20.5560 N   0  0  0  0  0  0  0  0  0  0  0  0
  -24.0760  -10.5630   21.0430 C   0  0  0  0  0  0  0  0  0  0  0  0
  -24.4960   -9.6100   21.9980 C   0  0  0  0  0  3  0  0  0  0  0  0
  -23.7920   -8.3970   22.1570 C   0  0  0  0  0  3  0  0  0  0  0  0
  -22.6550   -8.1270   21.3600 C   0  0  0  0  0  0  0  0  0  0  0  0
  -22.2530   -9.0690   20.3960 C   0  0  0  0  0  3  0  0  0  0  0  0
  -22.9570  -10.2740   20.2360 C   0  0  0  0  0  3  0  0  0  0  0  0
  -21.9230   -6.9660   21.4270 O   0  0  0  0  0  0  0  0  0  0  0  0
  -21.8110   -6.2520   22.5930 C   0  0  0  0  0  0  0  0  0  0  0  0
  -21.2390   -6.8110   23.7560 C   0  0  0  0  0  3  0  0  0  0  0  0
  -21.0800   -6.0200   24.9110 C   0  0  0  0  0  3  0  0  0  0  0  0
  -21.4830   -4.6720   24.9040 C   0  0  0  0  0  0  0  0  0  0  0  0
  -22.0470   -4.1110   23.7440 C   0  0  0  0  0  3  0  0  0  0  0  0
  -22.2080   -4.9000   22.5910 C   0  0  0  0  0  0  0  0  0  0  0  0
  -22.7330   -4.3500   21.4690 F   0  0  0  0  0  0  0  0  0  0  0  0
  -21.3240   -3.9090   26.0110 F   0  0  0  0  0  0  0  0  0  0  0  0
  -22.8930  -13.6320   21.2130 C   0  0  0  0  0  0  0  0  0  0  0  0
  -22.1710  -12.8950   22.0510 N   0  0  0  0  0  0  0  0  0  0  0  0
  -22.4430  -14.6690   20.7270 O   0  0  0  0  0  0  0  0  0  0  0  0
  -22.5470  -12.0550   22.4650 H   0  0  0  0  0  0  0  0  0  0  0  0
  -21.2300  -13.1770   22.2820 H   0  0  0  0  0  0  0  0  0  0  0  0
  -25.4920  -15.3530   20.4050 N   0  0  0  0  0  0  0  0  0  0  0  0
  -24.7110  -15.9920   20.5120 H   0  0  0  0  0  0  0  0  0  0  0  0
  -26.3230  -15.8000   20.0410 H   0  0  0  0  0  0  0  0  0  0  0  0
  1 58  1  0
  1  5  1  0
  2  1  2  0
  3  6  1  0
  3  5  2  0
  4  6  1  0
  4 14  1  0
  6  9  1  0
  7  4  2  0
  8  2  1  0
  8  3  1  0
 10 12  1  1
 10  2  1  0
 11 10  1  0
 13 10  1  0
 14 16  1  0
 14 15  2  0
 17 19  1  0
 17 16  1  0
 18 29  2  0
 19 24  1  0
 20 28  1  0
 20 30  1  0
 21 23  1  0
 22 28  1  0
 23 24  2  0
 23 22  1  0
 25 19  2  0
 26 25  1  0
 26 21  2  0
 27 21  1  0
 27 20  1  0
 28 18  1  0
 30 32  2  0
 31 30  1  0
 33 31  1  0
 34 43  2  0
 34 39  1  0
 35 31  1  0
 35 39  1  0
 36 35  1  0
 37 38  1  0
 37 36  1  0
 38 34  1  0
 39 40  2  0
 40 41  1  0
 42 41  2  0
 43 42  1  0
 44 18  1  0
 44 45  1  0
 44 54  1  0
 45 48  1  0
 46 50  1  0
 46 45  1  0
 47 46  2  0
 50 49  1  0
 52 50  1  0
 52 53  1  0
 52 51  1  0
 54 57  1  1
 54 55  1  0
 56 54  1  0
 58 59  1  0
 60 59  1  0
 61 66  1  0
 62 63  1  0
 62 61  1  0
 64 63  1  0
 64 71  1  0
 64 65  1  0
 66 60  1  0
 66 65  1  0
 67 60  2  0
 68 69  2  0
 69 88  1  0
 70 69  1  0
 70 73  1  0
 71 72  1  0
 71 68  1  0
 72 70  2  0
 73 74  1  0
 74 75  2  0
 76 79  1  0
 76 75  1  0
 77 76  2  0
 78 77  1  0
 78 73  2  0
 79 80  1  0
 80 81  1  0
 81 82  2  0
 83 82  1  0
 83 87  1  0
 84 83  2  0
 85 80  2  0
 85 84  1  0
 86 85  1  0
 88 89  1  0
 89 92  1  0
 89 91  1  0
 90 88  2  0
 93 94  1  0
 93 68  1  0
 95 93  1  0
M  ISO  4  16 101  17 101  59 100  60 100
M  END
>  <TORSDO>  (33) 
F 21

>  <SCORE>  (33) 
-13.800

>  <name>  (33) 
33

>  <ligand_id>  (33) 
33

>  <original_smiles>  (33) 
[H]c1c([H])c([H])c2c(c1[H])C([H])([H])C([H])([H])C([H])([H])C2([H])N([H])C(=O)C1([H])N(C(=O)C([H])(N([H])C(=O)C([H])(N([H])C([H])([H])[H])C([H])([H])[H])C(C([H])([H])[H])(C([H])([H])[H])C([H])([H])[H])C([H])([H])c2c([H])c(OC([H])([H])C(=O)C(=O)N([H])c3nc(C([H])([H])C([H])([H])C(=O)N4C([H])([H])C([H])([H])C([H])([H])C([H])(n5nc(-c6c([H])c([H])c(Oc7c([H])c([H])c(F)c([H])c7F)c([H])c6[H])c(C(=O)N([H])[H])c5N([H])[H])C4([H])[H])c(C(F)(F)F)s3)c([H])c([H])c2C1([H])[H]

>  <smiles>  (33) 
[H]c1c([H])c([H])c2c(c1[H])C([H])([H])C([H])([H])C([H])([H])C2([H])N([H])C(=O)C1([H])N(C(=O)C([H])(N([H])C(=O)C([H])(N([H])C([H])([H])[H])C([H])([H])[H])C(C([H])([H])[H])(C([H])([H])[H])C([H])([H])[H])C([H])([H])c2c([H])c(OC([H])([H])C(=O)C(=O)N([H])c3nc(C([H])([H])C([H])([H])C(=O)N4C([H])([H])C([H])([H])C([H])([H])C([H])(n5nc(-c6c([H])c([H])c(Oc7c([H])c([H])c(F)c([H])c7F)c([H])c6[H])c(C(=O)N([H])[H])c5N([H])[H])C4([H])[H])c(C(F)(F)F)s3)c([H])c([H])c2C1([H])[H]

$$$$
34:0:0
     RDKit          3D

 96104  0  0  1  0  0  0  0  0999 V2000
  -28.4920  -23.6820   18.6680 C   0  0  0  0  0  0  0  0  0  0  0  0
  -29.5500  -22.8480   18.7030 N   0  0  0  0  0  0  0  0  0  0  0  0
  -27.3340  -23.2710   18.7540 O   0  0  0  0  0  0  0  0  0  0  0  0
  -30.4520  -23.3040   18.7510 H   0  0  0  0  0  0  0  0  0  0  0  0
  -29.6020  -21.5210   18.0680 C   0  0  0  0  0  2  0  0  0  0  0  0
  -29.9320  -19.2800   19.2910 C   0  0  0  0  0  3  0  0  0  0  0  0
  -27.6650  -20.0700   18.8910 C   0  0  0  0  0  3  0  0  0  0  0  0
  -28.0340  -17.8510   19.8430 C   0  0  0  0  0  3  0  0  0  0  0  0
  -29.0550  -20.2930   18.8130 C   0  0  0  0  0  0  0  0  0  0  0  0
  -29.4360  -18.0440   19.7880 C   0  0  0  0  0  0  0  0  0  0  0  0
  -27.1560  -18.8630   19.4080 C   0  0  0  0  0  0  0  0  0  0  0  0
  -25.8180  -18.6630   19.4530 F   0  0  0  0  0  0  0  0  0  0  0  0
  -30.4230  -16.9360   20.2050 C   0  0  0  0  0  2  0  0  0  0  0  0
  -30.8050  -14.4780   20.3140 C   0  0  0  0  0  0  0  0  0  0  0  0
  -30.5820  -12.2080   19.3990 C   0  0  0  0  0  2  0  0  0  0  0  0
  -29.6690  -12.2730   18.1570 C   0  0  0  0  0  2  0  0  0  0  0  0
  -28.1880  -12.1360   18.5620 C   0  0  0  0  0  2  0  0  0  0  0  0
  -27.7950  -13.0830   19.7290 C   0  0  0  0  0  3  0  0  0  0  0  0
  -28.8280  -13.0130   20.8780 C   0  0  0  0  0  2  0  0  0  0  0  0
  -30.1600  -13.2810   20.3120 N   0  0  0  0  0  0  0  0  0  0  0  0
  -31.9590  -14.6210   19.9030 O   0  0  0  0  0  0  0  0  0  0  0  0
  -30.0370  -15.5570   20.5630 N   0  0  0  0  0  0  0  0  0  0  0  0
  -29.0940  -15.3900   20.8750 H   0  0  0  0  0  0  0  0  0  0  0  0
  -25.3880  -13.7000   20.3970 C   0  0  0  0  0  0  0  0  0  0  0  0
  -24.3190  -12.9340   20.7760 C   0  0  0  0  0  0  0  0  0  0  0  0
  -24.7850  -11.5830   20.7850 C   0  0  0  0  0  0  0  0  0  0  0  0
  -26.4380  -12.8170   20.2000 N   0  0  0  0  0  0  0  0  0  0  0  0
  -26.0790  -11.5400   20.4930 N   0  0  0  0  0  0  0  0  0  0  0  0
  -24.0620  -10.3230   20.9990 C   0  0  0  0  0  0  0  0  0  0  0  0
  -24.4620   -9.4000   21.9880 C   0  0  0  0  0  3  0  0  0  0  0  0
  -23.7400   -8.2050   22.1890 C   0  0  0  0  0  3  0  0  0  0  0  0
  -22.6010   -7.9230   21.3950 C   0  0  0  0  0  0  0  0  0  0  0  0
  -22.2200   -8.8340   20.3940 C   0  0  0  0  0  3  0  0  0  0  0  0
  -22.9460  -10.0200   20.1940 C   0  0  0  0  0  3  0  0  0  0  0  0
  -21.8530   -6.7750   21.5010 O   0  0  0  0  0  0  0  0  0  0  0  0
  -21.7280   -6.1050   22.6910 C   0  0  0  0  0  0  0  0  0  0  0  0
  -21.2090   -6.7260   23.8480 C   0  0  0  0  0  3  0  0  0  0  0  0
  -21.0330   -5.9800   25.0300 C   0  0  0  0  0  3  0  0  0  0  0  0
  -21.3660   -4.6120   25.0560 C   0  0  0  0  0  0  0  0  0  0  0  0
  -21.8780   -3.9900   23.9040 C   0  0  0  0  0  3  0  0  0  0  0  0
  -22.0560   -4.7340   22.7240 C   0  0  0  0  0  0  0  0  0  0  0  0
  -22.5290   -4.1240   21.6110 F   0  0  0  0  0  0  0  0  0  0  0  0
  -21.1900   -3.8920   26.1890 F   0  0  0  0  0  0  0  0  0  0  0  0
  -22.9150  -13.4110   21.0170 C   0  0  0  0  0  0  0  0  0  0  0  0
  -22.1840  -12.7430   21.9020 N   0  0  0  0  0  0  0  0  0  0  0  0
  -22.4760  -14.4150   20.4570 O   0  0  0  0  0  0  0  0  0  0  0  0
  -22.5540  -11.9340   22.3790 H   0  0  0  0  0  0  0  0  0  0  0  0
  -21.2430  -13.0450   22.1060 H   0  0  0  0  0  0  0  0  0  0  0  0
  -25.5510  -15.0670   20.1870 N   0  0  0  0  0  0  0  0  0  0  0  0
  -24.7820  -15.7200   20.2850 H   0  0  0  0  0  0  0  0  0  0  0  0
  -26.3910  -15.4970   19.8230 H   0  0  0  0  0  0  0  0  0  0  0  0
  -28.7350  -25.1630   18.2800 C   0  0  0  0  0  2  0  0  0  0  0  0
  -29.5940  -27.5290   18.6560 C   0  0  0  0  0  1  0  0  0  0  0  0
  -30.5000  -25.6780   20.0480 C   0  0  0  0  0  1  0  0  0  0  0  0
  -29.2300  -26.1950   19.3420 C   0  0  2  0  0  0  0  0  0  0  0  0
  -28.3190  -26.4750   20.4150 O   0  0  0  0  0  0  0  0  0  0  0  0
  -24.6360  -31.7680   23.3470 C   0  0  0  0  0  0  0  0  0  0  0  0
  -27.2040  -27.2760   20.2690 C   0  0  0  0  0  0  0  0  0  0  0  0
  -23.4210  -30.4210   21.6630 C   0  0  0  0  0  3  0  0  0  0  0  0
  -24.8560  -28.8570   20.2410 C   0  0  0  0  0  0  0  0  0  0  0  0
  -25.9580  -30.7000   21.5250 C   0  0  0  0  0  2  0  0  0  0  0  0
  -26.0130  -29.3360   20.8670 C   0  0  0  0  0  0  0  0  0  0  0  0
  -27.1840  -28.5460   20.8900 C   0  0  0  0  0  3  0  0  0  0  0  0
  -26.0310  -26.8110   19.6360 C   0  0  0  0  0  3  0  0  0  0  0  0
  -24.8600  -27.5930   19.6210 C   0  0  0  0  0  3  0  0  0  0  0  0
  -23.6370  -29.7510   20.2800 C   0  0  0  0  0  2  0  0  0  0  0  0
  -24.6880  -30.9790   22.2350 N   0  0  0  0  0  0  0  0  0  0  0  0
  -23.5540  -32.0710   23.8660 O   0  0  0  0  0  0  0  0  0  0  0  0
  -22.7160  -29.4140   22.5990 C   0  0  0  0  0  0  0  0  0  0  0  0
  -21.3860  -29.2960   22.4560 N   0  0  0  0  0  0  0  0  0  0  0  0
  -23.3600  -28.7460   23.4130 O   0  0  0  0  0  0  0  0  0  0  0  0
  -20.9300  -29.8860   21.7750 H   0  0  0  0  0  0  0  0  0  0  0  0
  -17.9550  -28.2610   22.9060 C   0  0  0  0  0  0  0  0  0  0  0  0
  -20.5190  -28.3810   23.1990 C   0  0  0  0  0  3  0  0  0  0  0  0
  -20.5530  -26.9610   22.5860 C   0  0  0  0  0  2  0  0  0  0  0  0
  -19.4420  -26.7230   21.5590 C   0  0  0  0  0  2  0  0  0  0  0  0
  -18.0650  -26.9210   22.2000 C   0  0  0  0  0  2  0  0  0  0  0  0
  -19.1050  -28.9540   23.3620 C   0  0  0  0  0  0  0  0  0  0  0  0
  -18.9490  -30.2140   23.9800 C   0  0  0  0  0  3  0  0  0  0  0  0
  -17.6700  -30.7750   24.1520 C   0  0  0  0  0  3  0  0  0  0  0  0
  -16.5310  -30.0790   23.7130 C   0  0  0  0  0  3  0  0  0  0  0  0
  -16.6750  -28.8240   23.0960 C   0  0  0  0  0  3  0  0  0  0  0  0
  -25.9290  -32.3440   24.0060 C   0  0  0  0  0  3  0  0  0  0  0  0
  -25.6700  -33.7510   24.3410 N   0  0  0  0  0  0  0  0  0  0  0  0
  -26.0600  -34.7940   23.5960 C   0  0  0  0  0  0  0  0  0  0  0  0
  -26.7460  -34.6700   22.5780 O   0  0  0  0  0  0  0  0  0  0  0  0
  -25.0610  -33.9250   25.1270 H   0  0  0  0  0  0  0  0  0  0  0  0
  -24.3960  -36.6450   23.2250 C   0  0  0  0  0  1  0  0  0  0  0  0
  -25.6120  -36.1970   24.0520 C   0  0  0  0  0  3  0  0  0  0  0  0
  -27.7650  -36.9990   24.9180 C   0  0  0  0  0  1  0  0  0  0  0  0
  -26.6830  -37.2140   23.9590 N   0  0  0  0  0  0  0  0  0  0  0  0
  -26.3090  -38.1470   24.1060 H   0  0  0  0  0  0  0  0  0  0  0  0
  -26.3940  -31.5390   25.2810 C   0  0  1  0  0  0  0  0  0  0  0  0
  -25.2720  -31.3240   26.3240 C   0  0  0  0  0  1  0  0  0  0  0  0
  -26.9390  -30.1470   24.8820 C   0  0  0  0  0  1  0  0  0  0  0  0
  -27.5580  -32.2860   25.9760 C   0  0  0  0  0  1  0  0  0  0  0  0
  1  2  1  0
  1  3  2  0
  2  4  1  0
  5  2  1  0
  5  9  1  0
  6 10  1  0
  7 11  2  0
  9  7  1  0
  9  6  2  0
 10  8  2  0
 10 13  1  0
 11 12  1  0
 11  8  1  0
 13 22  1  0
 14 22  1  0
 15 20  1  0
 16 17  1  0
 16 15  1  0
 18 17  1  0
 18 27  1  0
 18 19  1  0
 20 14  1  0
 20 19  1  0
 21 14  2  0
 22 23  1  0
 24 25  2  0
 25 26  1  0
 25 44  1  0
 26 29  1  0
 27 24  1  0
 27 28  1  0
 28 26  2  0
 29 30  1  0
 30 31  2  0
 32 35  1  0
 32 31  1  0
 33 32  2  0
 34 33  1  0
 34 29  2  0
 35 36  1  0
 36 41  2  0
 36 37  1  0
 37 38  2  0
 38 39  1  0
 39 43  1  0
 40 39  2  0
 41 40  1  0
 42 41  1  0
 44 45  1  0
 45 48  1  0
 45 47  1  0
 46 44  2  0
 49 50  1  0
 49 24  1  0
 51 49  1  0
 52  1  1  0
 52 55  1  0
 55 53  1  6
 55 54  1  0
 55 56  1  0
 57 68  2  0
 58 56  1  0
 58 63  1  0
 59 67  1  0
 59 69  1  0
 60 66  1  0
 60 62  1  0
 61 67  1  0
 62 63  2  0
 62 61  1  0
 64 58  2  0
 65 64  1  0
 65 60  2  0
 66 59  1  0
 67 57  1  0
 69 71  2  0
 70 69  1  0
 72 70  1  0
 73 82  2  0
 73 78  1  0
 74 70  1  0
 74 78  1  0
 75 74  1  0
 76 77  1  0
 76 75  1  0
 77 73  1  0
 78 79  2  0
 79 80  1  0
 81 80  2  0
 82 81  1  0
 83 57  1  0
 83 84  1  0
 83 93  1  0
 84 87  1  0
 85 89  1  0
 85 84  1  0
 86 85  2  0
 89 88  1  0
 91 89  1  0
 91 92  1  0
 91 90  1  0
 93 96  1  1
 93 94  1  0
 95 93  1  0
M  ISO  4  14 100  22 100  55 101  56 101
M  END
>  <TORSDO>  (34) 
F 21

>  <SCORE>  (34) 
-13.104

>  <name>  (34) 
34

>  <ligand_id>  (34) 
34

>  <original_smiles>  (34) 
[H]c1c([H])c([H])c2c(c1[H])C([H])([H])C([H])([H])C([H])([H])C2([H])N([H])C(=O)C1([H])N(C(=O)C([H])(N([H])C(=O)C([H])(N([H])C([H])([H])[H])C([H])([H])[H])C(C([H])([H])[H])(C([H])([H])[H])C([H])([H])[H])C([H])([H])c2c([H])c(OC(C([H])([H])[H])(C([H])([H])[H])C([H])([H])C(=O)N([H])C([H])([H])c3c([H])c(F)c([H])c(C([H])([H])N([H])C(=O)N4C([H])([H])C([H])([H])C([H])([H])C([H])(n5nc(-c6c([H])c([H])c(Oc7c([H])c([H])c(F)c([H])c7F)c([H])c6[H])c(C(=O)N([H])[H])c5N([H])[H])C4([H])[H])c3[H])c([H])c([H])c2C1([H])[H]

>  <smiles>  (34) 
[H]c1c([H])c([H])c2c(c1[H])C([H])([H])C([H])([H])C([H])([H])C2([H])N([H])C(=O)C1([H])N(C(=O)C([H])(N([H])C(=O)C([H])(N([H])C([H])([H])[H])C([H])([H])[H])C(C([H])([H])[H])(C([H])([H])[H])C([H])([H])[H])C([H])([H])c2c([H])c(OC(C([H])([H])[H])(C([H])([H])[H])C([H])([H])C(=O)N([H])C([H])([H])c3c([H])c(F)c([H])c(C([H])([H])N([H])C(=O)N4C([H])([H])C([H])([H])C([H])([H])C([H])(n5nc(-c6c([H])c([H])c(Oc7c([H])c([H])c(F)c([H])c7F)c([H])c6[H])c(C(=O)N([H])[H])c5N([H])[H])C4([H])[H])c3[H])c([H])c([H])c2C1([H])[H]

$$$$
35:0:0
     RDKit          3D

 98106  0  0  1  0  0  0  0  0999 V2000
  -30.8210  -14.2550   20.1260 C   0  0  0  0  0  0  0  0  0  0  0  0
  -30.8320  -11.8140   19.7640 C   0  0  0  0  0  2  0  0  0  0  0  0
  -30.1660  -11.5190   18.4030 C   0  0  0  0  0  2  0  0  0  0  0  0
  -28.6340  -11.4120   18.5440 C   0  0  0  0  0  2  0  0  0  0  0  0
  -28.0230  -12.5930   19.3470 C   0  0  0  0  0  3  0  0  0  0  0  0
  -28.8130  -12.8170   20.6540 C   0  0  0  0  0  2  0  0  0  0  0  0
  -30.2290  -13.0420   20.3040 N   0  0  0  0  0  0  0  0  0  0  0  0
  -32.0030  -14.3690   19.7810 O   0  0  0  0  0  0  0  0  0  0  0  0
  -28.7810  -18.6780   19.2260 C   0  0  0  0  0  3  0  0  0  0  0  0
  -28.8210  -17.4290   19.8970 C   0  0  0  0  0  0  0  0  0  0  0  0
  -29.8340  -19.0670   18.3740 C   0  0  0  0  0  0  0  0  0  0  0  0
  -29.9640  -16.5910   19.6880 C   0  0  0  0  0  0  0  0  0  0  0  0
  -30.9210  -18.1900   18.2530 C   0  0  0  0  0  0  0  0  0  0  0  0
  -30.9760  -17.0000   18.8810 N   0  0  0  0  0  0  0  0  0  0  0  0
  -29.9980  -15.3060   20.3150 N   0  0  0  0  0  0  0  0  0  0  0  0
  -31.9610  -18.5430   17.4600 F   0  0  0  0  0  0  0  0  0  0  0  0
  -29.1390  -15.0720   20.7980 H   0  0  0  0  0  0  0  0  0  0  0  0
  -25.5280  -13.2310   19.3430 C   0  0  0  0  0  0  0  0  0  0  0  0
  -24.4070  -12.5350   19.7110 C   0  0  0  0  0  0  0  0  0  0  0  0
  -24.8650  -11.2650   20.1780 C   0  0  0  0  0  0  0  0  0  0  0  0
  -26.5990  -12.3890   19.6020 N   0  0  0  0  0  0  0  0  0  0  0  0
  -26.1900  -11.2180   20.1560 N   0  0  0  0  0  0  0  0  0  0  0  0
  -24.1170  -10.0730   20.5930 C   0  0  0  0  0  0  0  0  0  0  0  0
  -24.4040   -9.4050   21.8050 C   0  0  0  0  0  3  0  0  0  0  0  0
  -23.6600   -8.2710   22.1920 C   0  0  0  0  0  3  0  0  0  0  0  0
  -22.6130   -7.7930   21.3670 C   0  0  0  0  0  0  0  0  0  0  0  0
  -22.3450   -8.4470   20.1520 C   0  0  0  0  0  3  0  0  0  0  0  0
  -23.0910   -9.5740   19.7660 C   0  0  0  0  0  3  0  0  0  0  0  0
  -21.8540   -6.6830   21.6490 O   0  0  0  0  0  0  0  0  0  0  0  0
  -21.6100   -6.2860   22.9390 C   0  0  0  0  0  0  0  0  0  0  0  0
  -21.0160   -7.1520   23.8840 C   0  0  0  0  0  3  0  0  0  0  0  0
  -20.7200   -6.6820   25.1800 C   0  0  0  0  0  3  0  0  0  0  0  0
  -21.0060   -5.3480   25.5290 C   0  0  0  0  0  0  0  0  0  0  0  0
  -21.5910   -4.4840   24.5870 C   0  0  0  0  0  3  0  0  0  0  0  0
  -21.8900   -4.9520   23.2960 C   0  0  0  0  0  0  0  0  0  0  0  0
  -22.4350   -4.1090   22.3860 F   0  0  0  0  0  0  0  0  0  0  0  0
  -20.7140   -4.8940   26.7710 F   0  0  0  0  0  0  0  0  0  0  0  0
  -22.9830  -12.9830   19.5470 C   0  0  0  0  0  0  0  0  0  0  0  0
  -22.0990  -12.5570   20.4410 N   0  0  0  0  0  0  0  0  0  0  0  0
  -22.6550  -13.7530   18.6440 O   0  0  0  0  0  0  0  0  0  0  0  0
  -22.3680  -11.9400   21.1940 H   0  0  0  0  0  0  0  0  0  0  0  0
  -21.1350  -12.8530   20.3740 H   0  0  0  0  0  0  0  0  0  0  0  0
  -25.7240  -14.4920   18.7890 N   0  0  0  0  0  0  0  0  0  0  0  0
  -24.9460  -15.0820   18.5150 H   0  0  0  0  0  0  0  0  0  0  0  0
  -26.6190  -14.8400   18.4710 H   0  0  0  0  0  0  0  0  0  0  0  0
  -28.9350  -21.2450   17.5020 C   0  0  0  0  0  0  0  0  0  0  0  0
  -29.8850  -20.3030   17.6540 N   0  0  0  0  0  0  0  0  0  0  0  0
  -27.8090  -21.2040   18.0050 O   0  0  0  0  0  0  0  0  0  0  0  0
  -30.7250  -20.4750   17.1150 H   0  0  0  0  0  0  0  0  0  0  0  0
  -29.4030  -22.4140   16.5840 C   0  0  0  0  0  0  0  0  0  0  0  0
  -30.5310  -22.4230   16.0740 O   0  0  0  0  0  0  0  0  0  0  0  0
  -28.3820  -23.5390   16.3350 C   0  0  0  0  0  2  0  0  0  0  0  0
  -28.9750  -24.9420   16.0450 C   0  0  0  0  0  2  0  0  0  0  0  0
  -29.0240  -25.7810   17.2070 O   0  0  0  0  0  0  0  0  0  0  0  0
  -25.0500  -27.8020   22.7500 C   0  0  0  0  0  0  0  0  0  0  0  0
  -27.8910  -26.4620   17.6100 C   0  0  0  0  0  0  0  0  0  0  0  0
  -24.0640  -28.2220   20.5210 C   0  0  0  0  0  3  0  0  0  0  0  0
  -25.6350  -27.9050   18.5380 C   0  0  0  0  0  0  0  0  0  0  0  0
  -26.6020  -28.1440   20.8310 C   0  0  0  0  0  2  0  0  0  0  0  0
  -26.7010  -27.6400   19.4060 C   0  0  0  0  0  0  0  0  0  0  0  0
  -27.8250  -26.9200   18.9470 C   0  0  0  0  0  3  0  0  0  0  0  0
  -26.7950  -26.7260   16.7530 C   0  0  0  0  0  3  0  0  0  0  0  0
  -25.6750  -27.4450   17.2110 C   0  0  0  0  0  3  0  0  0  0  0  0
  -24.4700  -28.6890   19.0980 C   0  0  0  0  0  2  0  0  0  0  0  0
  -25.2470  -28.0210   21.4190 N   0  0  0  0  0  0  0  0  0  0  0  0
  -23.9120  -27.8050   23.2380 O   0  0  0  0  0  0  0  0  0  0  0  0
  -23.1760  -26.9640   20.3910 C   0  0  0  0  0  0  0  0  0  0  0  0
  -21.8990  -27.1690   20.0280 N   0  0  0  0  0  0  0  0  0  0  0  0
  -23.6400  -25.8380   20.5850 O   0  0  0  0  0  0  0  0  0  0  0  0
  -21.5920  -28.1220   19.8950 H   0  0  0  0  0  0  0  0  0  0  0  0
  -18.4620  -26.6140   19.0660 C   0  0  0  0  0  0  0  0  0  0  0  0
  -20.8910  -26.1330   19.8060 C   0  0  0  0  0  3  0  0  0  0  0  0
  -21.0740  -25.4680   18.4230 C   0  0  0  0  0  2  0  0  0  0  0  0
  -20.2300  -26.1200   17.3230 C   0  0  0  0  0  2  0  0  0  0  0  0
  -18.7420  -26.0570   17.6810 C   0  0  0  0  0  2  0  0  0  0  0  0
  -19.4760  -26.6640   20.0590 C   0  0  0  0  0  0  0  0  0  0  0  0
  -19.1730  -27.2240   21.3200 C   0  0  0  0  0  3  0  0  0  0  0  0
  -17.8860  -27.7230   21.5950 C   0  0  0  0  0  3  0  0  0  0  0  0
  -16.8820  -27.6560   20.6140 C   0  0  0  0  0  3  0  0  0  0  0  0
  -17.1690  -27.0990   19.3560 C   0  0  0  0  0  3  0  0  0  0  0  0
  -26.2450  -27.5600   23.7250 C   0  0  0  0  0  3  0  0  0  0  0  0
  -25.8720  -28.1250   25.0280 N   0  0  0  0  0  0  0  0  0  0  0  0
  -26.3110  -29.3010   25.5000 C   0  0  0  0  0  0  0  0  0  0  0  0
  -27.1380  -29.9950   24.9040 O   0  0  0  0  0  0  0  0  0  0  0  0
  -25.1520  -27.6410   25.5430 H   0  0  0  0  0  0  0  0  0  0  0  0
  -24.6440  -30.8300   26.5990 C   0  0  0  0  0  1  0  0  0  0  0  0
  -25.7400  -29.7820   26.8480 C   0  0  0  0  0  3  0  0  0  0  0  0
  -27.6990  -29.3360   28.2570 C   0  0  0  0  0  1  0  0  0  0  0  0
  -26.7650  -30.3390   27.7560 N   0  0  0  0  0  0  0  0  0  0  0  0
  -26.3310  -30.7940   28.5550 H   0  0  0  0  0  0  0  0  0  0  0  0
  -26.6330  -26.0370   23.8670 C   0  0  1  0  0  0  0  0  0  0  0  0
  -25.4350  -25.1190   24.2010 C   0  0  0  0  0  1  0  0  0  0  0  0
  -27.2780  -25.5130   22.5620 C   0  0  0  0  0  1  0  0  0  0  0  0
  -27.6910  -25.8670   24.9830 C   0  0  0  0  0  1  0  0  0  0  0  0
  -27.6700  -17.0580   20.7990 C   0  0  0  0  0  0  0  0  0  0  0  0
  -27.7660  -16.2310   21.7110 O   0  0  0  0  0  0  0  0  0  0  0  0
  -25.1400  -17.0400   21.2840 C   0  0  0  0  0  1  0  0  0  0  0  0
  -26.3110  -17.7370   20.5700 C   0  0  0  0  0  2  0  0  0  0  0  0
  1  7  1  0
  1 15  1  0
  2  7  1  0
  3  4  1  0
  3  2  1  0
  5  4  1  0
  5 21  1  0
  5  6  1  0
  7  6  1  0
  8  1  2  0
  9 10  1  0
 10 95  1  0
 11  9  2  0
 12 10  2  0
 12 15  1  0
 13 11  1  0
 13 14  2  0
 14 12  1  0
 15 17  1  0
 16 13  1  0
 18 21  1  0
 18 19  2  0
 19 20  1  0
 20 23  1  0
 21 22  1  0
 22 20  2  0
 23 24  1  0
 24 25  2  0
 26 29  1  0
 26 25  1  0
 27 26  2  0
 28 27  1  0
 28 23  2  0
 29 30  1  0
 30 35  2  0
 30 31  1  0
 31 32  2  0
 32 33  1  0
 33 37  1  0
 34 33  2  0
 35 34  1  0
 36 35  1  0
 38 19  1  0
 38 39  1  0
 39 41  1  0
 40 38  2  0
 42 39  1  0
 43 18  1  0
 44 43  1  0
 45 43  1  0
 46 47  1  0
 46 48  2  0
 47 11  1  0
 49 47  1  0
 50 46  1  0
 51 50  2  0
 52 50  1  0
 53 52  1  0
 53 54  1  0
 54 56  1  0
 55 66  2  0
 56 61  1  0
 57 67  1  0
 57 65  1  0
 58 64  1  0
 58 60  1  0
 59 65  1  0
 60 59  1  0
 61 60  2  0
 62 63  1  0
 62 56  2  0
 63 58  2  0
 64 57  1  0
 65 55  1  0
 67 69  2  0
 68 67  1  0
 70 68  1  0
 71 80  2  0
 71 76  1  0
 72 68  1  0
 72 76  1  0
 73 72  1  0
 74 75  1  0
 74 73  1  0
 75 71  1  0
 76 77  2  0
 77 78  1  0
 79 78  2  0
 80 79  1  0
 81 55  1  0
 81 91  1  0
 81 82  1  0
 82 83  1  0
 82 85  1  0
 83 87  1  0
 84 83  2  0
 87 86  1  0
 87 89  1  0
 89 88  1  0
 89 90  1  0
 91 92  1  1
 91 94  1  0
 93 91  1  0
 95 96  2  0
 98 95  1  0
 98 97  1  0
M  ISO  4   1 100  15 100  53 101  54 101
M  END
>  <TORSDO>  (35) 
F 21

>  <SCORE>  (35) 
0.972

>  <name>  (35) 
35

>  <ligand_id>  (35) 
35

>  <original_smiles>  (35) 
[H]c1c([H])c([H])c2c(c1[H])C([H])([H])C([H])([H])C([H])([H])C2([H])N([H])C(=O)C1([H])N(C(=O)C([H])(N([H])C(=O)C([H])(N([H])C([H])([H])[H])C([H])([H])[H])C(C([H])([H])[H])(C([H])([H])[H])C([H])([H])[H])C([H])([H])c2c([H])c(OC([H])([H])C([H])([H])C(=O)C(=O)N([H])c3c(F)nc(N([H])C(=O)N4C([H])([H])C([H])([H])C([H])([H])C([H])(n5nc(-c6c([H])c([H])c(Oc7c([H])c([H])c(F)c([H])c7F)c([H])c6[H])c(C(=O)N([H])[H])c5N([H])[H])C4([H])[H])c(C(=O)C([H])([H])C([H])([H])[H])c3[H])c([H])c([H])c2C1([H])[H]

>  <smiles>  (35) 
[H]c1c([H])c([H])c2c(c1[H])C([H])([H])C([H])([H])C([H])([H])C2([H])N([H])C(=O)C1([H])N(C(=O)C([H])(N([H])C(=O)C([H])(N([H])C([H])([H])[H])C([H])([H])[H])C(C([H])([H])[H])(C([H])([H])[H])C([H])([H])[H])C([H])([H])c2c([H])c(OC([H])([H])C([H])([H])C(=O)C(=O)N([H])c3c(F)nc(N([H])C(=O)N4C([H])([H])C([H])([H])C([H])([H])C([H])(n5nc(-c6c([H])c([H])c(Oc7c([H])c([H])c(F)c([H])c7F)c([H])c6[H])c(C(=O)N([H])[H])c5N([H])[H])C4([H])[H])c(C(=O)C([H])([H])C([H])([H])[H])c3[H])c([H])c([H])c2C1([H])[H]

$$$$
36:0:0
     RDKit          3D

 91 99  0  0  1  0  0  0  0  0999 V2000
  -29.7650  -21.4480   18.2720 O   0  0  0  0  0  0  0  0  0  0  0  0
  -27.5320  -21.0470   19.3760 O   0  0  0  0  0  0  0  0  0  0  0  0
  -28.9940  -21.2030   19.5060 S   0  0  1  0  0  0  0  0  0  0  0  0
  -30.6140  -14.6110   20.3560 C   0  0  0  0  0  0  0  0  0  0  0  0
  -30.3910  -12.3890   19.2690 C   0  0  0  0  0  2  0  0  0  0  0  0
  -29.4500  -12.5440   18.0530 C   0  0  0  0  0  2  0  0  0  0  0  0
  -27.9750  -12.3880   18.4770 C   0  0  0  0  0  2  0  0  0  0  0  0
  -27.6200  -13.2390   19.7250 C   0  0  0  0  0  3  0  0  0  0  0  0
  -28.6750  -13.0610   20.8410 C   0  0  0  0  0  2  0  0  0  0  0  0
  -29.9910  -13.3950   20.2710 N   0  0  0  0  0  0  0  0  0  0  0  0
  -31.7790  -14.7590   19.9680 O   0  0  0  0  0  0  0  0  0  0  0  0
  -30.9220  -19.1590   20.2270 C   0  0  0  0  0  3  0  0  0  0  0  0
  -29.6120  -19.5750   20.1130 C   0  0  0  0  0  0  0  0  0  0  0  0
  -29.9380  -17.0940   20.5300 C   0  0  0  0  0  0  0  0  0  0  0  0
  -31.0970  -17.7680   20.4580 N   0  0  0  0  0  0  0  0  0  0  0  0
  -29.8110  -15.6570   20.7170 N   0  0  0  0  0  0  0  0  0  0  0  0
  -28.5410  -18.1970   20.3970 S   0  0  0  0  0  0  0  0  0  0  0  0
  -28.8870  -15.3610   20.9840 H   0  0  0  0  0  0  0  0  0  0  0  0
  -25.2210  -13.8440   20.4240 C   0  0  0  0  0  0  0  0  0  0  0  0
  -24.1540  -13.0730   20.7980 C   0  0  0  0  0  0  0  0  0  0  0  0
  -24.6180  -11.7220   20.7840 C   0  0  0  0  0  0  0  0  0  0  0  0
  -26.2680  -12.9620   20.2040 N   0  0  0  0  0  0  0  0  0  0  0  0
  -25.9100  -11.6820   20.4800 N   0  0  0  0  0  0  0  0  0  0  0  0
  -23.8930  -10.4620   20.9840 C   0  0  0  0  0  0  0  0  0  0  0  0
  -24.3190   -9.5080   21.9350 C   0  0  0  0  0  3  0  0  0  0  0  0
  -23.5950   -8.3110   22.1220 C   0  0  0  0  0  3  0  0  0  0  0  0
  -22.4310   -8.0590   21.3580 C   0  0  0  0  0  0  0  0  0  0  0  0
  -22.0240   -9.0010   20.3960 C   0  0  0  0  0  3  0  0  0  0  0  0
  -22.7480  -10.1900   20.2080 C   0  0  0  0  0  3  0  0  0  0  0  0
  -21.6790   -6.9130   21.4530 O   0  0  0  0  0  0  0  0  0  0  0  0
  -21.6190   -6.1860   22.6150 C   0  0  0  0  0  0  0  0  0  0  0  0
  -21.1710   -6.7550   23.8270 C   0  0  0  0  0  3  0  0  0  0  0  0
  -21.0590   -5.9530   24.9820 C   0  0  0  0  0  3  0  0  0  0  0  0
  -21.3850   -4.5850   24.9240 C   0  0  0  0  0  0  0  0  0  0  0  0
  -21.8260   -4.0160   23.7160 C   0  0  0  0  0  3  0  0  0  0  0  0
  -21.9390   -4.8140   22.5640 C   0  0  0  0  0  0  0  0  0  0  0  0
  -22.3440   -4.2570   21.3980 F   0  0  0  0  0  0  0  0  0  0  0  0
  -21.2700   -3.8130   26.0300 F   0  0  0  0  0  0  0  0  0  0  0  0
  -22.7540  -13.5510   21.0570 C   0  0  0  0  0  0  0  0  0  0  0  0
  -22.0210  -12.8600   21.9230 N   0  0  0  0  0  0  0  0  0  0  0  0
  -22.3190  -14.5730   20.5280 O   0  0  0  0  0  0  0  0  0  0  0  0
  -22.3850  -12.0350   22.3750 H   0  0  0  0  0  0  0  0  0  0  0  0
  -21.0810  -13.1620   22.1370 H   0  0  0  0  0  0  0  0  0  0  0  0
  -25.3840  -15.2140   20.2320 N   0  0  0  0  0  0  0  0  0  0  0  0
  -24.6090  -15.8610   20.3240 H   0  0  0  0  0  0  0  0  0  0  0  0
  -26.2160  -15.6490   19.8560 H   0  0  0  0  0  0  0  0  0  0  0  0
  -29.3010  -22.6390   20.6950 C   0  0  0  0  0  2  0  0  0  0  0  0
  -29.2070  -24.0810   20.0750 C   0  0  0  0  0  0  0  0  0  0  0  0
  -29.9860  -24.4280   19.1800 O   0  0  0  0  0  0  0  0  0  0  0  0
  -28.1810  -25.1240   20.6440 C   0  0  0  0  0  2  0  0  0  0  0  0
  -28.3930  -26.5200   20.2100 O   0  0  0  0  0  0  0  0  0  0  0  0
  -24.6100  -31.8600   23.2150 C   0  0  0  0  0  0  0  0  0  0  0  0
  -27.2630  -27.3380   20.1800 C   0  0  0  0  0  0  0  0  0  0  0  0
  -23.4200  -30.4570   21.5660 C   0  0  0  0  0  3  0  0  0  0  0  0
  -24.8860  -28.9130   20.1520 C   0  0  0  0  0  0  0  0  0  0  0  0
  -25.9560  -30.7950   21.3960 C   0  0  0  0  0  2  0  0  0  0  0  0
  -26.0460  -29.4180   20.7540 C   0  0  0  0  0  0  0  0  0  0  0  0
  -27.2400  -28.6420   20.7570 C   0  0  0  0  0  3  0  0  0  0  0  0
  -26.0850  -26.8800   19.5510 C   0  0  0  0  0  3  0  0  0  0  0  0
  -24.9060  -27.6490   19.5420 C   0  0  0  0  0  3  0  0  0  0  0  0
  -23.6440  -29.7790   20.1880 C   0  0  0  0  0  2  0  0  0  0  0  0
  -24.6800  -31.0540   22.1170 N   0  0  0  0  0  0  0  0  0  0  0  0
  -23.5230  -32.1340   23.7440 O   0  0  0  0  0  0  0  0  0  0  0  0
  -22.7560  -29.4380   22.5220 C   0  0  0  0  0  0  0  0  0  0  0  0
  -21.4300  -29.2650   22.3930 N   0  0  0  0  0  0  0  0  0  0  0  0
  -23.4340  -28.8060   23.3370 O   0  0  0  0  0  0  0  0  0  0  0  0
  -20.9440  -29.8260   21.7080 H   0  0  0  0  0  0  0  0  0  0  0  0
  -18.0460  -28.0920   22.8920 C   0  0  0  0  0  0  0  0  0  0  0  0
  -20.6070  -28.3280   23.1590 C   0  0  0  0  0  3  0  0  0  0  0  0
  -20.6960  -26.9010   22.5720 C   0  0  0  0  0  2  0  0  0  0  0  0
  -19.5890  -26.5940   21.5580 C   0  0  0  0  0  2  0  0  0  0  0  0
  -18.2100  -26.7450   22.2070 C   0  0  0  0  0  2  0  0  0  0  0  0
  -19.1710  -28.8420   23.3250 C   0  0  0  0  0  0  0  0  0  0  0  0
  -18.9640  -30.1030   23.9250 C   0  0  0  0  0  3  0  0  0  0  0  0
  -17.6640  -30.6140   24.0970 C   0  0  0  0  0  3  0  0  0  0  0  0
  -16.5530  -29.8590   23.6810 C   0  0  0  0  0  3  0  0  0  0  0  0
  -16.7440  -28.6010   23.0840 C   0  0  0  0  0  3  0  0  0  0  0  0
  -25.8880  -32.4940   23.8470 C   0  0  0  0  0  3  0  0  0  0  0  0
  -26.3990  -31.7220   25.1260 C   0  0  1  0  0  0  0  0  0  0  0  0
  -25.2990  -31.4820   26.1860 C   0  0  0  0  0  1  0  0  0  0  0  0
  -26.9850  -30.3450   24.7360 C   0  0  0  0  0  1  0  0  0  0  0  0
  -27.5440  -32.5170   25.7940 C   0  0  0  0  0  1  0  0  0  0  0  0
  -25.5750  -33.8910   24.1750 N   0  0  0  0  0  0  0  0  0  0  0  0
  -25.9080  -34.9450   23.4180 C   0  0  0  0  0  0  0  0  0  0  0  0
  -26.5830  -34.8430   22.3900 O   0  0  0  0  0  0  0  0  0  0  0  0
  -24.9750  -34.0440   24.9720 H   0  0  0  0  0  0  0  0  0  0  0  0
  -24.1820  -36.7360   23.0520 C   0  0  0  0  0  1  0  0  0  0  0  0
  -25.4160  -36.3320   23.8730 C   0  0  0  0  0  3  0  0  0  0  0  0
  -27.5420  -37.2180   24.7250 C   0  0  0  0  0  1  0  0  0  0  0  0
  -26.4480  -37.3860   23.7710 N   0  0  0  0  0  0  0  0  0  0  0  0
  -26.0400  -38.3060   23.9150 H   0  0  0  0  0  0  0  0  0  0  0  0
  1  3  2  0
  2  3  2  0
  3 13  1  0
  3 47  1  1
  4 16  1  0
  5 10  1  0
  6  7  1  0
  6  5  1  0
  8  7  1  0
  8 22  1  0
  8  9  1  0
 10  4  1  0
 10  9  1  0
 11  4  2  0
 12 15  1  0
 13 12  2  0
 13 17  1  0
 14 16  1  0
 15 14  2  0
 16 18  1  0
 17 14  1  0
 19 20  2  0
 20 39  1  0
 21 20  1  0
 21 24  1  0
 22 19  1  0
 22 23  1  0
 23 21  2  0
 24 25  1  0
 25 26  2  0
 27 30  1  0
 27 26  1  0
 28 27  2  0
 29 28  1  0
 29 24  2  0
 30 31  1  0
 31 32  1  0
 32 33  2  0
 34 33  1  0
 34 38  1  0
 35 34  2  0
 36 31  2  0
 36 35  1  0
 37 36  1  0
 39 40  1  0
 40 43  1  0
 40 42  1  0
 41 39  2  0
 44 45  1  0
 44 19  1  0
 46 44  1  0
 48 50  1  0
 48 47  1  0
 49 48  2  0
 51 50  1  0
 52 63  2  0
 53 51  1  0
 53 58  1  0
 54 62  1  0
 54 64  1  0
 55 61  1  0
 55 57  1  0
 56 62  1  0
 57 58  2  0
 57 56  1  0
 59 53  2  0
 60 59  1  0
 60 55  2  0
 61 54  1  0
 62 52  1  0
 64 66  2  0
 65 64  1  0
 67 65  1  0
 68 77  2  0
 68 73  1  0
 69 65  1  0
 69 73  1  0
 70 69  1  0
 71 72  1  0
 71 70  1  0
 72 68  1  0
 73 74  2  0
 74 75  1  0
 76 75  2  0
 77 76  1  0
 78 52  1  0
 78 83  1  0
 78 79  1  0
 79 82  1  1
 79 80  1  0
 81 79  1  0
 83 86  1  0
 84 88  1  0
 84 83  1  0
 85 84  2  0
 88 87  1  0
 90 88  1  0
 90 91  1  0
 90 89  1  0
M  ISO  4   4 100  16 100  50 101  51 101
M  END
>  <TORSDO>  (36) 
F 19

>  <SCORE>  (36) 
-14.276

>  <name>  (36) 
36

>  <ligand_id>  (36) 
36

>  <original_smiles>  (36) 
[H]c1nc(N([H])C(=O)N2C([H])([H])C([H])([H])C([H])([H])C([H])(n3nc(-c4c([H])c([H])c(Oc5c([H])c([H])c(F)c([H])c5F)c([H])c4[H])c(C(=O)N([H])[H])c3N([H])[H])C2([H])[H])sc1S(=O)(=O)C([H])([H])C(=O)C([H])([H])Oc1c([H])c([H])c2c(c1[H])C([H])([H])N(C(=O)C([H])(N([H])C(=O)C([H])(N([H])C([H])([H])[H])C([H])([H])[H])C(C([H])([H])[H])(C([H])([H])[H])C([H])([H])[H])C([H])(C(=O)N([H])C1([H])c3c([H])c([H])c([H])c([H])c3C([H])([H])C([H])([H])C1([H])[H])C2([H])[H]

>  <smiles>  (36) 
[H]c1nc(N([H])C(=O)N2C([H])([H])C([H])([H])C([H])([H])C([H])(n3nc(-c4c([H])c([H])c(Oc5c([H])c([H])c(F)c([H])c5F)c([H])c4[H])c(C(=O)N([H])[H])c3N([H])[H])C2([H])[H])sc1S(=O)(=O)C([H])([H])C(=O)C([H])([H])Oc1c([H])c([H])c2c(c1[H])C([H])([H])N(C(=O)C([H])(N([H])C(=O)C([H])(N([H])C([H])([H])[H])C([H])([H])[H])C(C([H])([H])[H])(C([H])([H])[H])C([H])([H])[H])C([H])(C(=O)N([H])C1([H])c3c([H])c([H])c([H])c([H])c3C([H])([H])C([H])([H])C1([H])[H])C2([H])[H]

$$$$
37:0:0
     RDKit          3D

 99107  0  0  1  0  0  0  0  0999 V2000
  -29.5780  -20.8190   20.3730 C   0  0  0  0  0  0  0  0  0  0  0  0
  -28.6620  -21.6060   19.7610 N   0  0  0  0  0  0  0  0  0  0  0  0
  -30.3100  -21.2480   21.2700 O   0  0  0  0  0  0  0  0  0  0  0  0
  -28.0400  -21.0800   19.1610 H   0  0  0  0  0  0  0  0  0  0  0  0
  -30.7790  -14.7340   20.7650 C   0  0  0  0  0  0  0  0  0  0  0  0
  -30.5870  -12.5110   19.7230 C   0  0  0  0  0  2  0  0  0  0  0  0
  -29.7140  -12.6610   18.4590 C   0  0  0  0  0  2  0  0  0  0  0  0
  -28.2200  -12.5160   18.8080 C   0  0  0  0  0  2  0  0  0  0  0  0
  -27.8010  -13.3770   20.0300 C   0  0  0  0  0  3  0  0  0  0  0  0
  -28.8000  -13.2230   21.2010 C   0  0  0  0  0  2  0  0  0  0  0  0
  -30.1430  -13.5300   20.6920 N   0  0  0  0  0  0  0  0  0  0  0  0
  -31.9720  -14.8550   20.4650 O   0  0  0  0  0  0  0  0  0  0  0  0
  -30.2490  -16.8800   18.7740 C   0  0  0  0  0  3  0  0  0  0  0  0
  -30.2750  -17.9910   17.9250 C   0  0  0  0  0  0  0  0  0  0  0  0
  -30.0470  -19.2660   18.4520 C   0  0  0  0  0  0  0  0  0  0  0  0
  -29.7550  -19.3970   19.8280 C   0  0  0  0  0  0  0  0  0  0  0  0
  -30.0150  -17.0390   20.1560 C   0  0  0  0  0  0  0  0  0  0  0  0
  -29.7440  -18.2920   20.6570 N   0  0  0  0  0  0  0  0  0  0  0  0
  -29.9940  -15.8340   20.9550 N   0  0  0  0  0  0  0  0  0  0  0  0
  -30.5380  -17.8300   16.6050 F   0  0  0  0  0  0  0  0  0  0  0  0
  -30.1610  -20.3420   17.6370 F   0  0  0  0  0  0  0  0  0  0  0  0
  -29.1340  -15.6700   21.4530 H   0  0  0  0  0  0  0  0  0  0  0  0
  -25.3680  -13.9640   20.6140 C   0  0  0  0  0  0  0  0  0  0  0  0
  -24.2900  -13.1840   20.9360 C   0  0  0  0  0  0  0  0  0  0  0  0
  -24.7650  -11.8370   20.9440 C   0  0  0  0  0  0  0  0  0  0  0  0
  -26.4310  -13.0910   20.4450 N   0  0  0  0  0  0  0  0  0  0  0  0
  -26.0690  -11.8070   20.7040 N   0  0  0  0  0  0  0  0  0  0  0  0
  -24.0410  -10.5690   21.1080 C   0  0  0  0  0  0  0  0  0  0  0  0
  -24.4220   -9.6220   22.0840 C   0  0  0  0  0  3  0  0  0  0  0  0
  -23.6980   -8.4190   22.2350 C   0  0  0  0  0  3  0  0  0  0  0  0
  -22.5800   -8.1560   21.4090 C   0  0  0  0  0  0  0  0  0  0  0  0
  -22.2180   -9.0920   20.4240 C   0  0  0  0  0  3  0  0  0  0  0  0
  -22.9430  -10.2860   20.2710 C   0  0  0  0  0  3  0  0  0  0  0  0
  -21.8330   -7.0030   21.4670 O   0  0  0  0  0  0  0  0  0  0  0  0
  -21.7080   -6.2850   22.6280 C   0  0  0  0  0  0  0  0  0  0  0  0
  -21.1420   -6.8450   23.7950 C   0  0  0  0  0  3  0  0  0  0  0  0
  -20.9670   -6.0510   24.9450 C   0  0  0  0  0  3  0  0  0  0  0  0
  -21.3480   -4.6960   24.9300 C   0  0  0  0  0  0  0  0  0  0  0  0
  -21.9080   -4.1340   23.7690 C   0  0  0  0  0  3  0  0  0  0  0  0
  -22.0830   -4.9270   22.6210 C   0  0  0  0  0  0  0  0  0  0  0  0
  -22.6030   -4.3740   21.4980 F   0  0  0  0  0  0  0  0  0  0  0  0
  -21.1750   -3.9310   26.0330 F   0  0  0  0  0  0  0  0  0  0  0  0
  -22.8760  -13.6510   21.1300 C   0  0  0  0  0  0  0  0  0  0  0  0
  -22.1110  -12.9580   21.9660 N   0  0  0  0  0  0  0  0  0  0  0  0
  -22.4560  -14.6650   20.5740 O   0  0  0  0  0  0  0  0  0  0  0  0
  -22.4620  -12.1370   22.4370 H   0  0  0  0  0  0  0  0  0  0  0  0
  -21.1600  -13.2530   22.1380 H   0  0  0  0  0  0  0  0  0  0  0  0
  -25.5300  -15.3340   20.4300 N   0  0  0  0  0  0  0  0  0  0  0  0
  -24.7510  -15.9800   20.4860 H   0  0  0  0  0  0  0  0  0  0  0  0
  -26.3860  -15.7740   20.1210 H   0  0  0  0  0  0  0  0  0  0  0  0
  -28.8750  -22.9900   19.2330 C   0  0  0  0  0  3  0  0  0  0  0  0
  -27.9690  -23.1120   17.9710 C   0  0  2  0  0  0  0  0  0  0  0  0
  -27.9130  -21.9580   17.3060 F   0  0  0  0  0  0  0  0  0  0  0  0
  -28.4390  -24.0340   17.1300 F   0  0  0  0  0  0  0  0  0  0  0  0
  -26.7180  -23.4400   18.3020 F   0  0  0  0  0  0  0  0  0  0  0  0
  -28.5370  -24.2040   20.1870 C   0  0  0  0  0  0  0  0  0  0  0  0
  -28.1730  -24.0590   21.3600 O   0  0  0  0  0  0  0  0  0  0  0  0
  -28.7010  -25.6440   19.5820 C   0  0  0  0  0  2  0  0  0  0  0  0
  -28.4590  -26.7570   20.4850 O   0  0  0  0  0  0  0  0  0  0  0  0
  -24.5340  -32.0020   23.3530 C   0  0  0  0  0  0  0  0  0  0  0  0
  -27.2830  -27.4960   20.4000 C   0  0  0  0  0  0  0  0  0  0  0  0
  -23.3790  -30.5630   21.7080 C   0  0  0  0  0  3  0  0  0  0  0  0
  -24.8780  -29.0160   20.3340 C   0  0  0  0  0  0  0  0  0  0  0  0
  -25.9090  -30.9310   21.5630 C   0  0  0  0  0  2  0  0  0  0  0  0
  -26.0200  -29.5480   20.9450 C   0  0  0  0  0  0  0  0  0  0  0  0
  -27.2200  -28.7940   20.9770 C   0  0  0  0  0  3  0  0  0  0  0  0
  -26.1120  -26.9880   19.7900 C   0  0  0  0  0  3  0  0  0  0  0  0
  -24.9210  -27.7380   19.7560 C   0  0  0  0  0  3  0  0  0  0  0  0
  -23.6260  -29.8670   20.3430 C   0  0  0  0  0  2  0  0  0  0  0  0
  -24.6240  -31.1830   22.2660 N   0  0  0  0  0  0  0  0  0  0  0  0
  -23.4370  -32.2720   23.8650 O   0  0  0  0  0  0  0  0  0  0  0  0
  -22.7160  -29.5500   22.6700 C   0  0  0  0  0  0  0  0  0  0  0  0
  -21.4040  -29.3230   22.4920 N   0  0  0  0  0  0  0  0  0  0  0  0
  -23.3820  -28.9710   23.5330 O   0  0  0  0  0  0  0  0  0  0  0  0
  -20.9280  -29.8440   21.7690 H   0  0  0  0  0  0  0  0  0  0  0  0
  -18.0520  -28.0250   22.8730 C   0  0  0  0  0  0  0  0  0  0  0  0
  -20.5840  -28.3810   23.2550 C   0  0  0  0  0  3  0  0  0  0  0  0
  -20.7620  -26.9370   22.7310 C   0  0  0  0  0  2  0  0  0  0  0  0
  -19.7220  -26.5440   21.6780 C   0  0  0  0  0  2  0  0  0  0  0  0
  -18.3070  -26.6620   22.2520 C   0  0  0  0  0  2  0  0  0  0  0  0
  -19.1230  -28.8390   23.3290 C   0  0  0  0  0  0  0  0  0  0  0  0
  -18.8340  -30.1120   23.8670 C   0  0  0  0  0  3  0  0  0  0  0  0
  -17.5060  -30.5720   23.9550 C   0  0  0  0  0  3  0  0  0  0  0  0
  -16.4490  -29.7560   23.5160 C   0  0  0  0  0  3  0  0  0  0  0  0
  -16.7230  -28.4850   22.9800 C   0  0  0  0  0  3  0  0  0  0  0  0
  -25.7980  -32.6590   23.9910 C   0  0  0  0  0  3  0  0  0  0  0  0
  -26.2800  -31.9300   25.3050 C   0  0  1  0  0  0  0  0  0  0  0  0
  -25.1540  -31.7090   26.3420 C   0  0  0  0  0  1  0  0  0  0  0  0
  -26.8930  -30.5500   24.9710 C   0  0  0  0  0  1  0  0  0  0  0  0
  -27.3970  -32.7580   25.9830 C   0  0  0  0  0  1  0  0  0  0  0  0
  -25.4760  -34.0650   24.2660 N   0  0  0  0  0  0  0  0  0  0  0  0
  -25.8280  -35.0940   23.4820 C   0  0  0  0  0  0  0  0  0  0  0  0
  -26.5290  -34.9590   22.4760 O   0  0  0  0  0  0  0  0  0  0  0  0
  -24.8580  -34.2430   25.0430 H   0  0  0  0  0  0  0  0  0  0  0  0
  -24.1160  -36.8730   23.0080 C   0  0  0  0  0  1  0  0  0  0  0  0
  -25.3240  -36.4940   23.8800 C   0  0  0  0  0  3  0  0  0  0  0  0
  -27.4180  -37.4130   24.7750 C   0  0  0  0  0  1  0  0  0  0  0  0
  -26.3600  -37.5440   23.7770 N   0  0  0  0  0  0  0  0  0  0  0  0
  -25.9480  -38.4690   23.8720 H   0  0  0  0  0  0  0  0  0  0  0  0
  1  3  2  0
  2  1  1  0
  4  2  1  0
  5 19  1  0
  6 11  1  0
  7  8  1  0
  7  6  1  0
  9  8  1  0
  9 26  1  0
  9 10  1  0
 11  5  1  0
 11 10  1  0
 12  5  2  0
 13 17  1  0
 14 15  1  0
 14 13  2  0
 15 16  2  0
 16  1  1  0
 16 18  1  0
 17 18  2  0
 17 19  1  0
 19 22  1  0
 20 14  1  0
 21 15  1  0
 23 24  2  0
 24 25  1  0
 24 43  1  0
 25 28  1  0
 26 23  1  0
 26 27  1  0
 27 25  2  0
 28 29  1  0
 29 30  2  0
 31 34  1  0
 31 30  1  0
 32 31  2  0
 33 32  1  0
 33 28  2  0
 34 35  1  0
 35 36  1  0
 36 37  2  0
 38 37  1  0
 38 42  1  0
 39 38  2  0
 40 35  2  0
 40 39  1  0
 41 40  1  0
 43 44  1  0
 44 47  1  0
 44 46  1  0
 45 43  2  0
 48 49  1  0
 48 23  1  0
 50 48  1  0
 51  2  1  0
 51 56  1  0
 52 55  1  1
 52 51  1  0
 53 52  1  0
 54 52  1  0
 56 57  2  0
 58 56  1  0
 58 59  1  0
 60 71  2  0
 61 59  1  0
 61 66  1  0
 62 70  1  0
 62 72  1  0
 63 69  1  0
 63 65  1  0
 64 70  1  0
 65 66  2  0
 65 64  1  0
 67 61  2  0
 68 67  1  0
 68 63  2  0
 69 62  1  0
 70 60  1  0
 72 74  2  0
 73 72  1  0
 75 73  1  0
 76 85  2  0
 76 81  1  0
 77 73  1  0
 77 81  1  0
 78 77  1  0
 79 80  1  0
 79 78  1  0
 80 76  1  0
 81 82  2  0
 82 83  1  0
 84 83  2  0
 85 84  1  0
 86 60  1  0
 86 91  1  0
 86 87  1  0
 87 90  1  1
 87 88  1  0
 89 87  1  0
 91 94  1  0
 92 96  1  0
 92 91  1  0
 93 92  2  0
 96 95  1  0
 98 99  1  0
 98 96  1  0
 98 97  1  0
M  ISO  4   5 100  19 100  58 101  59 101
M  END
>  <TORSDO>  (37) 
F 20

>  <SCORE>  (37) 
-13.930

>  <name>  (37) 
37

>  <ligand_id>  (37) 
37

>  <original_smiles>  (37) 
[H]c1c([H])c([H])c2c(c1[H])C([H])([H])C([H])([H])C([H])([H])C2([H])N([H])C(=O)C1([H])N(C(=O)C([H])(N([H])C(=O)C([H])(N([H])C([H])([H])[H])C([H])([H])[H])C(C([H])([H])[H])(C([H])([H])[H])C([H])([H])[H])C([H])([H])c2c([H])c(OC([H])([H])C(=O)C([H])(N([H])C(=O)c3nc(N([H])C(=O)N4C([H])([H])C([H])([H])C([H])([H])C([H])(n5nc(-c6c([H])c([H])c(Oc7c([H])c([H])c(F)c([H])c7F)c([H])c6[H])c(C(=O)N([H])[H])c5N([H])[H])C4([H])[H])c([H])c(F)c3F)C(F)(F)F)c([H])c([H])c2C1([H])[H]

>  <smiles>  (37) 
[H]c1c([H])c([H])c2c(c1[H])C([H])([H])C([H])([H])C([H])([H])C2([H])N([H])C(=O)C1([H])N(C(=O)C([H])(N([H])C(=O)C([H])(N([H])C([H])([H])[H])C([H])([H])[H])C(C([H])([H])[H])(C([H])([H])[H])C([H])([H])[H])C([H])([H])c2c([H])c(OC([H])([H])C(=O)C([H])(N([H])C(=O)c3nc(N([H])C(=O)N4C([H])([H])C([H])([H])C([H])([H])C([H])(n5nc(-c6c([H])c([H])c(Oc7c([H])c([H])c(F)c([H])c7F)c([H])c6[H])c(C(=O)N([H])[H])c5N([H])[H])C4([H])[H])c([H])c(F)c3F)C(F)(F)F)c([H])c([H])c2C1([H])[H]

$$$$
38:0:0
     RDKit          3D

 95103  0  0  1  0  0  0  0  0999 V2000
  -28.7150  -20.9680   20.6470 N   0  0  0  0  0  4  0  0  0  0  0  0
  -27.9000  -20.6300   21.1450 H   0  0  0  0  0  0  0  0  0  0  0  0
  -30.5550  -14.8570   20.2530 C   0  0  0  0  0  0  0  0  0  0  0  0
  -30.3590  -12.5630   19.2770 C   0  0  0  0  0  2  0  0  0  0  0  0
  -29.4150  -12.6230   18.0560 C   0  0  0  0  0  2  0  0  0  0  0  0
  -27.9510  -12.4380   18.4990 C   0  0  0  0  0  2  0  0  0  0  0  0
  -27.5770  -13.3220   19.7190 C   0  0  0  0  0  3  0  0  0  0  0  0
  -28.6460  -13.2660   20.8310 C   0  0  0  0  0  2  0  0  0  0  0  0
  -29.9300  -13.6260   20.2170 N   0  0  0  0  0  0  0  0  0  0  0  0
  -31.7630  -14.8980   20.0010 O   0  0  0  0  0  0  0  0  0  0  0  0
  -31.0920  -19.0370   18.5000 C   0  0  0  0  0  3  0  0  0  0  0  0
  -30.8490  -17.7110   18.9150 C   0  0  0  0  0  0  0  0  0  0  0  0
  -30.4440  -20.1240   19.1110 C   0  0  0  0  0  0  0  0  0  0  0  0
  -29.9930  -17.4450   20.0180 C   0  0  0  0  0  0  0  0  0  0  0  0
  -29.5250  -19.8730   20.1470 C   0  0  0  0  0  0  0  0  0  0  0  0
  -29.3200  -18.5530   20.5740 N   0  0  0  0  0  0  0  0  0  0  0  0
  -29.7810  -16.0120   20.4190 N   0  0  0  0  0  0  0  0  0  0  0  0
  -31.4030  -16.7160   18.1840 F   0  0  0  0  0  0  0  0  0  0  0  0
  -30.6440  -21.3780   18.6340 F   0  0  0  0  0  0  0  0  0  0  0  0
  -28.8580  -15.8300   20.7760 H   0  0  0  0  0  0  0  0  0  0  0  0
  -25.1990  -13.8890   20.4890 C   0  0  0  0  0  0  0  0  0  0  0  0
  -24.1420  -13.1070   20.8660 C   0  0  0  0  0  0  0  0  0  0  0  0
  -24.6100  -11.7590   20.8170 C   0  0  0  0  0  0  0  0  0  0  0  0
  -26.2430  -13.0170   20.2270 N   0  0  0  0  0  0  0  0  0  0  0  0
  -25.8970  -11.7300   20.4900 N   0  0  0  0  0  0  0  0  0  0  0  0
  -23.8910  -10.4920   21.0040 C   0  0  0  0  0  0  0  0  0  0  0  0
  -24.3180   -9.5340   21.9500 C   0  0  0  0  0  3  0  0  0  0  0  0
  -23.6010   -8.3310   22.1250 C   0  0  0  0  0  3  0  0  0  0  0  0
  -22.4400   -8.0790   21.3550 C   0  0  0  0  0  0  0  0  0  0  0  0
  -22.0320   -9.0250   20.4000 C   0  0  0  0  0  3  0  0  0  0  0  0
  -22.7500  -10.2200   20.2240 C   0  0  0  0  0  3  0  0  0  0  0  0
  -21.6930   -6.9290   21.4390 O   0  0  0  0  0  0  0  0  0  0  0  0
  -21.6120   -6.2070   22.6020 C   0  0  0  0  0  0  0  0  0  0  0  0
  -21.0960   -6.7670   23.7930 C   0  0  0  0  0  3  0  0  0  0  0  0
  -20.9660   -5.9690   24.9470 C   0  0  0  0  0  3  0  0  0  0  0  0
  -21.3390   -4.6120   24.9120 C   0  0  0  0  0  0  0  0  0  0  0  0
  -21.8460   -4.0510   23.7260 C   0  0  0  0  0  3  0  0  0  0  0  0
  -21.9780   -4.8470   22.5740 C   0  0  0  0  0  0  0  0  0  0  0  0
  -22.4490   -4.2960   21.4290 F   0  0  0  0  0  0  0  0  0  0  0  0
  -21.2060   -3.8440   26.0180 F   0  0  0  0  0  0  0  0  0  0  0  0
  -22.7470  -13.5760   21.1590 C   0  0  0  0  0  0  0  0  0  0  0  0
  -22.0260  -12.8630   22.0170 N   0  0  0  0  0  0  0  0  0  0  0  0
  -22.3040  -14.6110   20.6630 O   0  0  0  0  0  0  0  0  0  0  0  0
  -22.3950  -12.0240   22.4390 H   0  0  0  0  0  0  0  0  0  0  0  0
  -21.0910  -13.1610   22.2540 H   0  0  0  0  0  0  0  0  0  0  0  0
  -25.3530  -15.2630   20.3250 N   0  0  0  0  0  0  0  0  0  0  0  0
  -24.5780  -15.9070   20.4460 H   0  0  0  0  0  0  0  0  0  0  0  0
  -26.1850  -15.7150   19.9690 H   0  0  0  0  0  0  0  0  0  0  0  0
  -30.5200  -22.4410   21.6680 C   0  0  0  0  0  1  0  0  0  0  0  0
  -29.0910  -22.3900   21.0870 C   0  0  0  0  0  0  0  0  0  0  0  0
  -28.7500  -23.7270   20.1970 C   0  0  0  0  0  2  0  0  0  0  0  0
  -28.3360  -25.1450   20.9200 C   0  0  2  0  0  0  0  0  0  0  0  0
  -29.1190  -25.2580   22.0180 F   0  0  0  0  0  0  0  0  0  0  0  0
  -27.0850  -24.9060   21.3880 F   0  0  0  0  0  0  0  0  0  0  0  0
  -28.3780  -26.4020   20.2550 O   0  0  0  0  0  0  0  0  0  0  0  0
  -24.5640  -31.9000   23.2300 C   0  0  0  0  0  0  0  0  0  0  0  0
  -27.2860  -27.3010   20.2690 C   0  0  0  0  0  0  0  0  0  0  0  0
  -23.4240  -30.4930   21.5560 C   0  0  0  0  0  3  0  0  0  0  0  0
  -24.9260  -28.9400   20.1800 C   0  0  0  0  0  0  0  0  0  0  0  0
  -25.9680  -30.8110   21.4540 C   0  0  0  0  0  2  0  0  0  0  0  0
  -26.0770  -29.4240   20.8190 C   0  0  0  0  0  0  0  0  0  0  0  0
  -27.2620  -28.6150   20.8570 C   0  0  0  0  0  3  0  0  0  0  0  0
  -26.1170  -26.8940   19.5930 C   0  0  0  0  0  3  0  0  0  0  0  0
  -24.9490  -27.6830   19.5590 C   0  0  0  0  0  3  0  0  0  0  0  0
  -23.6880  -29.8190   20.1850 C   0  0  0  0  0  2  0  0  0  0  0  0
  -24.6700  -31.0870   22.1380 N   0  0  0  0  0  0  0  0  0  0  0  0
  -23.4620  -32.1700   23.7310 O   0  0  0  0  0  0  0  0  0  0  0  0
  -22.7340  -29.4740   22.4960 C   0  0  0  0  0  0  0  0  0  0  0  0
  -21.4100  -29.2990   22.3400 N   0  0  0  0  0  0  0  0  0  0  0  0
  -23.3920  -28.8440   23.3270 O   0  0  0  0  0  0  0  0  0  0  0  0
  -20.9360  -29.8640   21.6490 H   0  0  0  0  0  0  0  0  0  0  0  0
  -18.0200  -28.1080   22.7760 C   0  0  0  0  0  0  0  0  0  0  0  0
  -20.5750  -28.3570   23.0880 C   0  0  0  0  0  3  0  0  0  0  0  0
  -20.6790  -26.9290   22.5030 C   0  0  0  0  0  2  0  0  0  0  0  0
  -19.5930  -26.6190   21.4680 C   0  0  0  0  0  2  0  0  0  0  0  0
  -18.2020  -26.7640   22.0900 C   0  0  0  0  0  2  0  0  0  0  0  0
  -19.1340  -28.8620   23.2310 C   0  0  0  0  0  0  0  0  0  0  0  0
  -18.9100  -30.1190   23.8320 C   0  0  0  0  0  3  0  0  0  0  0  0
  -17.6050  -30.6240   23.9820 C   0  0  0  0  0  3  0  0  0  0  0  0
  -16.5050  -29.8690   23.5400 C   0  0  0  0  0  3  0  0  0  0  0  0
  -16.7130  -28.6120   22.9450 C   0  0  0  0  0  3  0  0  0  0  0  0
  -25.8190  -32.5480   23.8900 C   0  0  0  0  0  3  0  0  0  0  0  0
  -26.2850  -31.7990   25.2000 C   0  0  1  0  0  0  0  0  0  0  0  0
  -25.1530  -31.5740   26.2280 C   0  0  0  0  0  1  0  0  0  0  0  0
  -26.8850  -30.4170   24.8520 C   0  0  0  0  0  1  0  0  0  0  0  0
  -27.4050  -32.6070   25.8960 C   0  0  0  0  0  1  0  0  0  0  0  0
  -25.4940  -33.9510   24.1880 N   0  0  0  0  0  0  0  0  0  0  0  0
  -25.8470  -34.9940   23.4240 C   0  0  0  0  0  0  0  0  0  0  0  0
  -26.5460  -34.8760   22.4160 O   0  0  0  0  0  0  0  0  0  0  0  0
  -24.8760  -34.1150   24.9690 H   0  0  0  0  0  0  0  0  0  0  0  0
  -24.1370  -36.7880   22.9790 C   0  0  0  0  0  1  0  0  0  0  0  0
  -25.3430  -36.3890   23.8460 C   0  0  0  0  0  3  0  0  0  0  0  0
  -27.4390  -37.2850   24.7580 C   0  0  0  0  0  1  0  0  0  0  0  0
  -26.3810  -37.4400   23.7630 N   0  0  0  0  0  0  0  0  0  0  0  0
  -25.9690  -38.3630   23.8800 H   0  0  0  0  0  0  0  0  0  0  0  0
  1 50  2  3
  1  2  1  0
  3 17  1  0
  4  9  1  0
  5  6  1  0
  5  4  1  0
  7  6  1  0
  7 24  1  0
  7  8  1  0
  9  3  1  0
  9  8  1  0
 10  3  2  0
 11 12  2  0
 11 13  1  0
 12 14  1  0
 13 15  2  0
 14 17  1  0
 14 16  2  0
 15 16  1  0
 15  1  1  0
 17 20  1  0
 18 12  1  0
 19 13  1  0
 21 22  2  0
 22 41  1  0
 23 22  1  0
 23 26  1  0
 24 21  1  0
 24 25  1  0
 25 23  2  0
 26 27  1  0
 27 28  2  0
 29 32  1  0
 29 28  1  0
 30 29  2  0
 31 30  1  0
 31 26  2  0
 32 33  1  0
 33 34  1  0
 34 35  2  0
 36 35  1  0
 36 40  1  0
 37 36  2  0
 38 33  2  0
 38 37  1  0
 39 38  1  0
 41 42  1  0
 42 45  1  0
 42 44  1  0
 43 41  2  0
 46 47  1  0
 46 21  1  0
 48 46  1  0
 50 49  1  0
 51 52  1  0
 51 50  1  0
 52 54  1  1
 52 53  1  0
 55 57  1  0
 55 52  1  0
 56 67  2  0
 57 62  1  0
 58 66  1  0
 58 68  1  0
 59 65  1  0
 59 61  1  0
 60 66  1  0
 61 62  2  0
 61 60  1  0
 63 57  2  0
 64 63  1  0
 64 59  2  0
 65 58  1  0
 66 56  1  0
 68 70  2  0
 69 68  1  0
 71 69  1  0
 72 81  2  0
 72 77  1  0
 73 69  1  0
 73 77  1  0
 74 73  1  0
 75 76  1  0
 75 74  1  0
 76 72  1  0
 77 78  2  0
 78 79  1  0
 80 79  2  0
 81 80  1  0
 82 56  1  0
 82 87  1  0
 82 83  1  0
 83 86  1  1
 83 84  1  0
 85 83  1  0
 87 90  1  0
 88 92  1  0
 88 87  1  0
 89 88  2  0
 92 91  1  0
 94 92  1  0
 94 95  1  0
 94 93  1  0
M  ISO  4   3 100  17 100  52 101  55 101
M  END
>  <TORSDO>  (38) 
F 19

>  <SCORE>  (38) 
-14.670

>  <name>  (38) 
38

>  <ligand_id>  (38) 
38

>  <original_smiles>  (38) 
[H]c1c([H])c([H])c2c(c1[H])C([H])([H])C([H])([H])C([H])([H])C2([H])N([H])C(=O)C1([H])N(C(=O)C([H])(N([H])C(=O)C([H])(N([H])C([H])([H])[H])C([H])([H])[H])C(C([H])([H])[H])(C([H])([H])[H])C([H])([H])[H])C([H])([H])c2c([H])c(OC(F)(F)C([H])([H])C([H])(N([H])c3nc(N([H])C(=O)N4C([H])([H])C([H])([H])C([H])([H])C([H])(n5nc(-c6c([H])c([H])c(Oc7c([H])c([H])c(F)c([H])c7F)c([H])c6[H])c(C(=O)N([H])[H])c5N([H])[H])C4([H])[H])c(F)c([H])c3F)C([H])([H])[H])c([H])c([H])c2C1([H])[H]

>  <smiles>  (38) 
[H]c1c([H])c([H])c2c(c1[H])C([H])([H])C([H])([H])C([H])([H])C2([H])N([H])C(=O)C1([H])N(C(=O)C([H])(N([H])C(=O)C([H])(N([H])C([H])([H])[H])C([H])([H])[H])C(C([H])([H])[H])(C([H])([H])[H])C([H])([H])[H])C([H])([H])c2c([H])c(OC(F)(F)C([H])([H])C([H])(N([H])c3nc(N([H])C(=O)N4C([H])([H])C([H])([H])C([H])([H])C([H])(n5nc(-c6c([H])c([H])c(Oc7c([H])c([H])c(F)c([H])c7F)c([H])c6[H])c(C(=O)N([H])[H])c5N([H])[H])C4([H])[H])c(F)c([H])c3F)C([H])([H])[H])c([H])c([H])c2C1([H])[H]

$$$$
39:0:0
     RDKit          3D

 97106  0  0  1  0  0  0  0  0999 V2000
  -29.7070  -22.6160   22.0070 C   0  0  0  0  0  2  0  0  0  0  0  0
  -29.5900  -21.1200   21.5730 C   0  0  0  0  0  2  0  0  0  0  0  0
  -28.5530  -21.5210   19.3280 C   0  0  0  0  0  2  0  0  0  0  0  0
  -28.8270  -23.7240   21.3190 C   0  0  0  0  0  2  0  0  0  0  0  0
  -28.7220  -22.9940   18.8600 C   0  0  0  0  0  2  0  0  0  0  0  0
  -29.7570  -20.8870   20.0600 C   0  0  0  0  0  3  0  0  0  0  0  0
  -29.1910  -24.1200   19.8520 C   0  0  2  0  0  0  0  0  0  0  0  0
  -30.7110  -14.6940   20.4420 C   0  0  0  0  0  0  0  0  0  0  0  0
  -30.4720  -12.4570   19.4460 C   0  0  0  0  0  2  0  0  0  0  0  0
  -29.5640  -12.5810   18.2050 C   0  0  0  0  0  2  0  0  0  0  0  0
  -28.0780  -12.4490   18.5950 C   0  0  0  0  0  2  0  0  0  0  0  0
  -27.6920  -13.3200   19.8200 C   0  0  0  0  0  3  0  0  0  0  0  0
  -28.7290  -13.2020   20.9590 C   0  0  0  0  0  2  0  0  0  0  0  0
  -30.0550  -13.4980   20.4030 N   0  0  0  0  0  0  0  0  0  0  0  0
  -31.9150  -14.7670   20.1790 O   0  0  0  0  0  0  0  0  0  0  0  0
  -30.6030  -16.9550   18.4740 C   0  0  0  0  0  3  0  0  0  0  0  0
  -30.8250  -18.1000   17.6970 C   0  0  0  0  0  0  0  0  0  0  0  0
  -30.5890  -19.3610   18.2490 C   0  0  0  0  0  0  0  0  0  0  0  0
  -30.0910  -19.4430   19.5660 C   0  0  0  0  0  0  0  0  0  0  0  0
  -30.1520  -17.0670   19.8090 C   0  0  0  0  0  0  0  0  0  0  0  0
  -29.8410  -18.3140   20.3170 N   0  0  0  0  0  0  0  0  0  0  0  0
  -29.9500  -15.8260   20.5370 N   0  0  0  0  0  0  0  0  0  0  0  0
  -31.2490  -17.9820   16.4130 F   0  0  0  0  0  0  0  0  0  0  0  0
  -30.8020  -20.4750   17.5040 F   0  0  0  0  0  0  0  0  0  0  0  0
  -29.0360  -15.7170   20.9430 H   0  0  0  0  0  0  0  0  0  0  0  0
  -25.2770  -13.9030   20.4770 C   0  0  0  0  0  0  0  0  0  0  0  0
  -24.2100  -13.1240   20.8300 C   0  0  0  0  0  0  0  0  0  0  0  0
  -24.6870  -11.7770   20.8330 C   0  0  0  0  0  0  0  0  0  0  0  0
  -26.3370  -13.0310   20.2820 N   0  0  0  0  0  0  0  0  0  0  0  0
  -25.9850  -11.7480   20.5590 N   0  0  0  0  0  0  0  0  0  0  0  0
  -23.9670  -10.5100   21.0200 C   0  0  0  0  0  0  0  0  0  0  0  0
  -24.3810   -9.5600   21.9800 C   0  0  0  0  0  3  0  0  0  0  0  0
  -23.6610   -8.3610   22.1580 C   0  0  0  0  0  3  0  0  0  0  0  0
  -22.5120   -8.0970   21.3740 C   0  0  0  0  0  0  0  0  0  0  0  0
  -22.1170   -9.0350   20.4020 C   0  0  0  0  0  3  0  0  0  0  0  0
  -22.8390  -10.2270   20.2230 C   0  0  0  0  0  3  0  0  0  0  0  0
  -21.7690   -6.9450   21.4560 O   0  0  0  0  0  0  0  0  0  0  0  0
  -21.6870   -6.2220   22.6190 C   0  0  0  0  0  0  0  0  0  0  0  0
  -21.2050   -6.7910   23.8180 C   0  0  0  0  0  3  0  0  0  0  0  0
  -21.0760   -5.9920   24.9730 C   0  0  0  0  0  3  0  0  0  0  0  0
  -21.4160   -4.6270   24.9280 C   0  0  0  0  0  0  0  0  0  0  0  0
  -21.8910   -4.0580   23.7340 C   0  0  0  0  0  3  0  0  0  0  0  0
  -22.0230   -4.8540   22.5820 C   0  0  0  0  0  0  0  0  0  0  0  0
  -22.4590   -4.2960   21.4280 F   0  0  0  0  0  0  0  0  0  0  0  0
  -21.2840   -3.8590   26.0350 F   0  0  0  0  0  0  0  0  0  0  0  0
  -22.7990  -13.5870   21.0540 C   0  0  0  0  0  0  0  0  0  0  0  0
  -22.0550  -12.8980   21.9120 N   0  0  0  0  0  0  0  0  0  0  0  0
  -22.3650  -14.5980   20.5010 O   0  0  0  0  0  0  0  0  0  0  0  0
  -22.4180  -12.0870   22.3870 H   0  0  0  0  0  0  0  0  0  0  0  0
  -21.1040  -13.1870   22.0950 H   0  0  0  0  0  0  0  0  0  0  0  0
  -25.4310  -15.2720   20.2810 N   0  0  0  0  0  0  0  0  0  0  0  0
  -24.6620  -15.9240   20.3950 H   0  0  0  0  0  0  0  0  0  0  0  0
  -26.2670  -15.7150   19.9260 H   0  0  0  0  0  0  0  0  0  0  0  0
  -31.3870  -25.1250   20.3620 C   0  0  0  0  0  1  0  0  0  0  0  0
  -30.6190  -24.1260   19.6870 O   0  0  0  0  0  0  0  0  0  0  0  0
  -28.6140  -25.5150   19.3120 C   0  0  0  0  0  2  0  0  0  0  0  0
  -28.4220  -26.6620   20.2020 O   0  0  0  0  0  0  0  0  0  0  0  0
  -24.5840  -31.9160   23.2580 C   0  0  0  0  0  0  0  0  0  0  0  0
  -27.2480  -27.4250   20.1650 C   0  0  0  0  0  0  0  0  0  0  0  0
  -23.3900  -30.5170   21.6140 C   0  0  0  0  0  3  0  0  0  0  0  0
  -24.8520  -28.9890   20.1890 C   0  0  0  0  0  0  0  0  0  0  0  0
  -25.9210  -30.8710   21.4180 C   0  0  0  0  0  2  0  0  0  0  0  0
  -26.0160  -29.4940   20.7740 C   0  0  0  0  0  0  0  0  0  0  0  0
  -27.2110  -28.7210   20.7570 C   0  0  0  0  0  3  0  0  0  0  0  0
  -26.0370  -26.9440   19.6060 C   0  0  0  0  0  3  0  0  0  0  0  0
  -24.8600  -27.7140   19.6060 C   0  0  0  0  0  3  0  0  0  0  0  0
  -23.6070  -29.8500   20.2310 C   0  0  0  0  0  2  0  0  0  0  0  0
  -24.6530  -31.1120   22.1570 N   0  0  0  0  0  0  0  0  0  0  0  0
  -23.5000  -32.1840   23.7940 O   0  0  0  0  0  0  0  0  0  0  0  0
  -22.7350  -29.4900   22.5670 C   0  0  0  0  0  0  0  0  0  0  0  0
  -21.4090  -29.3080   22.4430 N   0  0  0  0  0  0  0  0  0  0  0  0
  -23.4190  -28.8620   23.3790 O   0  0  0  0  0  0  0  0  0  0  0  0
  -20.9110  -29.8640   21.7620 H   0  0  0  0  0  0  0  0  0  0  0  0
  -18.0400  -28.1060   22.9460 C   0  0  0  0  0  0  0  0  0  0  0  0
  -20.5990  -28.3640   23.2140 C   0  0  0  0  0  3  0  0  0  0  0  0
  -20.7000  -26.9350   22.6300 C   0  0  0  0  0  2  0  0  0  0  0  0
  -19.5970  -26.6170   21.6160 C   0  0  0  0  0  2  0  0  0  0  0  0
  -18.2160  -26.7610   22.2630 C   0  0  0  0  0  2  0  0  0  0  0  0
  -19.1590  -28.8660   23.3810 C   0  0  0  0  0  0  0  0  0  0  0  0
  -18.9390  -30.1260   23.9780 C   0  0  0  0  0  3  0  0  0  0  0  0
  -17.6340  -30.6250   24.1460 C   0  0  0  0  0  3  0  0  0  0  0  0
  -16.5290  -29.8610   23.7310 C   0  0  0  0  0  3  0  0  0  0  0  0
  -16.7340  -28.6030   23.1360 C   0  0  0  0  0  3  0  0  0  0  0  0
  -25.8630  -32.5600   23.8780 C   0  0  0  0  0  3  0  0  0  0  0  0
  -25.5520  -33.9620   24.1900 N   0  0  0  0  0  0  0  0  0  0  0  0
  -25.8960  -35.0050   23.4220 C   0  0  0  0  0  0  0  0  0  0  0  0
  -26.5780  -34.8900   22.4000 O   0  0  0  0  0  0  0  0  0  0  0  0
  -24.9430  -34.1280   24.9760 H   0  0  0  0  0  0  0  0  0  0  0  0
  -24.1840  -36.8050   23.0190 C   0  0  0  0  0  1  0  0  0  0  0  0
  -25.4040  -36.3970   23.8600 C   0  0  0  0  0  3  0  0  0  0  0  0
  -27.5210  -37.2820   24.7360 C   0  0  0  0  0  1  0  0  0  0  0  0
  -26.4400  -37.4460   23.7660 N   0  0  0  0  0  0  0  0  0  0  0  0
  -26.0300  -38.3660   23.9040 H   0  0  0  0  0  0  0  0  0  0  0  0
  -26.3770  -31.8010   25.1620 C   0  0  1  0  0  0  0  0  0  0  0  0
  -25.2820  -31.5660   26.2280 C   0  0  0  0  0  1  0  0  0  0  0  0
  -26.9570  -30.4190   24.7810 C   0  0  0  0  0  1  0  0  0  0  0  0
  -27.5200  -32.6040   25.8260 C   0  0  0  0  0  1  0  0  0  0  0  0
  2  1  1  0
  3  6  1  0
  4  1  1  0
  5  3  1  0
  5  7  1  0
  6 19  1  0
  6  2  1  0
  7 56  1  6
  7  4  1  0
  8 22  1  0
  9 14  1  0
 10 11  1  0
 10  9  1  0
 12 11  1  0
 12 29  1  0
 12 13  1  0
 14  8  1  0
 14 13  1  0
 15  8  2  0
 16 20  1  0
 17 18  1  0
 17 16  2  0
 18 19  2  0
 19 21  1  0
 20 21  2  0
 20 22  1  0
 22 25  1  0
 23 17  1  0
 24 18  1  0
 26 27  2  0
 27 28  1  0
 27 46  1  0
 28 31  1  0
 29 26  1  0
 29 30  1  0
 30 28  2  0
 31 32  1  0
 32 33  2  0
 34 37  1  0
 34 33  1  0
 35 34  2  0
 36 35  1  0
 36 31  2  0
 37 38  1  0
 38 39  1  0
 39 40  2  0
 41 40  1  0
 41 45  1  0
 42 41  2  0
 43 38  2  0
 43 42  1  0
 44 43  1  0
 46 47  1  0
 47 50  1  0
 47 49  1  0
 48 46  2  0
 51 52  1  0
 51 26  1  0
 53 51  1  0
 55  7  1  0
 55 54  1  0
 56 57  1  0
 58 69  2  0
 59 57  1  0
 59 64  1  0
 60 68  1  0
 60 70  1  0
 61 67  1  0
 61 63  1  0
 62 68  1  0
 63 62  1  0
 64 63  2  0
 65 66  1  0
 65 59  2  0
 66 61  2  0
 67 60  1  0
 68 58  1  0
 70 72  2  0
 71 70  1  0
 73 71  1  0
 74 83  2  0
 74 79  1  0
 75 71  1  0
 75 79  1  0
 76 75  1  0
 77 78  1  0
 77 76  1  0
 78 74  1  0
 79 80  2  0
 80 81  1  0
 82 81  2  0
 83 82  1  0
 84 58  1  0
 84 85  1  0
 84 94  1  0
 85 88  1  0
 86 90  1  0
 86 85  1  0
 87 86  2  0
 90 89  1  0
 92 90  1  0
 92 93  1  0
 92 91  1  0
 94 97  1  1
 94 95  1  0
 96 94  1  0
M  ISO  4   8 100  22 100  56 101  57 101
M  END
>  <TORSDO>  (39) 
F 18

>  <SCORE>  (39) 
-14.982

>  <name>  (39) 
39

>  <ligand_id>  (39) 
39

>  <original_smiles>  (39) 
[H]c1c([H])c([H])c2c(c1[H])C([H])([H])C([H])([H])C([H])([H])C2([H])N([H])C(=O)C1([H])N(C(=O)C([H])(N([H])C(=O)C([H])(N([H])C([H])([H])[H])C([H])([H])[H])C(C([H])([H])[H])(C([H])([H])[H])C([H])([H])[H])C([H])([H])c2c([H])c(OC([H])([H])C3(OC([H])([H])[H])C([H])([H])C([H])([H])C([H])([H])C([H])(c4nc(N([H])C(=O)N5C([H])([H])C([H])([H])C([H])([H])C([H])(n6nc(-c7c([H])c([H])c(Oc8c([H])c([H])c(F)c([H])c8F)c([H])c7[H])c(C(=O)N([H])[H])c6N([H])[H])C5([H])[H])c([H])c(F)c4F)C([H])([H])C3([H])[H])c([H])c([H])c2C1([H])[H]

>  <smiles>  (39) 
[H]c1c([H])c([H])c2c(c1[H])C([H])([H])C([H])([H])C([H])([H])C2([H])N([H])C(=O)C1([H])N(C(=O)C([H])(N([H])C(=O)C([H])(N([H])C([H])([H])[H])C([H])([H])[H])C(C([H])([H])[H])(C([H])([H])[H])C([H])([H])[H])C([H])([H])c2c([H])c(OC([H])([H])C3(OC([H])([H])[H])C([H])([H])C([H])([H])C([H])([H])C([H])(c4nc(N([H])C(=O)N5C([H])([H])C([H])([H])C([H])([H])C([H])(n6nc(-c7c([H])c([H])c(Oc8c([H])c([H])c(F)c([H])c8F)c([H])c7[H])c(C(=O)N([H])[H])c6N([H])[H])C5([H])[H])c([H])c(F)c4F)C([H])([H])C3([H])[H])c([H])c([H])c2C1([H])[H]

$$$$
40:0:0
     RDKit          3D

 99107  0  0  1  0  0  0  0  0999 V2000
  -29.6320  -21.0700   19.4210 C   0  0  0  0  0  0  0  0  0  0  0  0
  -29.2600  -22.0240   20.2890 N   0  0  0  0  0  0  0  0  0  0  0  0
  -29.9240  -21.3310   18.2520 O   0  0  0  0  0  0  0  0  0  0  0  0
  -29.0100  -21.7270   21.2230 H   0  0  0  0  0  0  0  0  0  0  0  0
  -29.1720  -18.6010   19.0840 C   0  0  0  0  0  3  0  0  0  0  0  0
  -29.6750  -19.6380   19.9080 C   0  0  0  0  0  0  0  0  0  0  0  0
  -29.8560  -16.8930   20.7020 C   0  0  0  0  0  0  0  0  0  0  0  0
  -29.2510  -17.2480   19.4760 C   0  0  0  0  0  0  0  0  0  0  0  0
  -30.2860  -19.2730   21.1370 C   0  0  0  0  0  0  0  0  0  0  0  0
  -30.3710  -17.9160   21.5300 C   0  0  0  0  0  0  0  0  0  0  0  0
  -28.7240  -16.2890   18.6740 F   0  0  0  0  0  0  0  0  0  0  0  0
  -30.8100  -20.2220   21.9540 F   0  0  0  0  0  0  0  0  0  0  0  0
  -30.9440  -17.5960   22.7160 F   0  0  0  0  0  0  0  0  0  0  0  0
  -30.5930  -14.5550   20.5860 C   0  0  0  0  0  0  0  0  0  0  0  0
  -30.4060  -12.3140   19.5730 C   0  0  0  0  0  2  0  0  0  0  0  0
  -29.4860  -12.4400   18.3410 C   0  0  0  0  0  2  0  0  0  0  0  0
  -28.0050  -12.2870   18.7420 C   0  0  0  0  0  2  0  0  0  0  0  0
  -27.6190  -13.1640   19.9640 C   0  0  0  0  0  3  0  0  0  0  0  0
  -28.6590  -13.0190   21.0990 C   0  0  0  0  0  2  0  0  0  0  0  0
  -29.9870  -13.3370   20.5440 N   0  0  0  0  0  0  0  0  0  0  0  0
  -31.7010  -14.7750   20.0860 O   0  0  0  0  0  0  0  0  0  0  0  0
  -29.8620  -15.5350   21.1400 N   0  0  0  0  0  0  0  0  0  0  0  0
  -29.0210  -15.2300   21.6020 H   0  0  0  0  0  0  0  0  0  0  0  0
  -25.2170  -13.7520   20.6780 C   0  0  0  0  0  0  0  0  0  0  0  0
  -24.1510  -12.9710   21.0290 C   0  0  0  0  0  0  0  0  0  0  0  0
  -24.6140  -11.6200   20.9720 C   0  0  0  0  0  0  0  0  0  0  0  0
  -26.2640  -12.8770   20.4300 N   0  0  0  0  0  0  0  0  0  0  0  0
  -25.9050  -11.5880   20.6620 N   0  0  0  0  0  0  0  0  0  0  0  0
  -23.8890  -10.3540   21.1380 C   0  0  0  0  0  0  0  0  0  0  0  0
  -24.3110   -9.3780   22.0670 C   0  0  0  0  0  3  0  0  0  0  0  0
  -23.5860   -8.1760   22.2210 C   0  0  0  0  0  3  0  0  0  0  0  0
  -22.4250   -7.9450   21.4450 C   0  0  0  0  0  0  0  0  0  0  0  0
  -22.0230   -8.9100   20.5050 C   0  0  0  0  0  3  0  0  0  0  0  0
  -22.7490  -10.1030   20.3500 C   0  0  0  0  0  3  0  0  0  0  0  0
  -21.6740   -6.7950   21.5070 O   0  0  0  0  0  0  0  0  0  0  0  0
  -21.5900   -6.0510   22.6570 C   0  0  0  0  0  0  0  0  0  0  0  0
  -21.0710   -6.5900   23.8540 C   0  0  0  0  0  3  0  0  0  0  0  0
  -20.9340   -5.7710   24.9940 C   0  0  0  0  0  3  0  0  0  0  0  0
  -21.3080   -4.4160   24.9360 C   0  0  0  0  0  0  0  0  0  0  0  0
  -21.8210   -3.8760   23.7430 C   0  0  0  0  0  3  0  0  0  0  0  0
  -21.9590   -4.6910   22.6070 C   0  0  0  0  0  0  0  0  0  0  0  0
  -22.4320   -4.1610   21.4520 F   0  0  0  0  0  0  0  0  0  0  0  0
  -21.1710   -3.6270   26.0280 F   0  0  0  0  0  0  0  0  0  0  0  0
  -22.7530  -13.4410   21.3130 C   0  0  0  0  0  0  0  0  0  0  0  0
  -22.0260  -12.7260   22.1630 N   0  0  0  0  0  0  0  0  0  0  0  0
  -22.3140  -14.4770   20.8190 O   0  0  0  0  0  0  0  0  0  0  0  0
  -22.3950  -11.8870   22.5860 H   0  0  0  0  0  0  0  0  0  0  0  0
  -21.0890  -13.0240   22.3960 H   0  0  0  0  0  0  0  0  0  0  0  0
  -25.3770  -15.1280   20.5350 N   0  0  0  0  0  0  0  0  0  0  0  0
  -24.5980  -15.7710   20.6350 H   0  0  0  0  0  0  0  0  0  0  0  0
  -26.2340  -15.5820   20.2470 H   0  0  0  0  0  0  0  0  0  0  0  0
  -29.4880  -23.4810   20.1340 C   0  0  0  0  0  3  0  0  0  0  0  0
  -30.5400  -23.8820   21.1840 C   0  0  0  0  0  0  0  0  0  0  0  0
  -31.6750  -24.7970   20.7420 C   0  0  0  0  0  1  0  0  0  0  0  0
  -30.5100  -23.4790   22.3500 O   0  0  0  0  0  0  0  0  0  0  0  0
  -28.1660  -24.3110   20.2290 C   0  0  0  0  0  0  0  0  0  0  0  0
  -27.0710  -23.8230   19.9200 O   0  0  0  0  0  0  0  0  0  0  0  0
  -28.2150  -25.7960   20.6860 C   0  0  0  0  0  2  0  0  0  0  0  0
  -27.8200  -26.6920   19.6370 O   0  0  0  0  0  0  0  0  0  0  0  0
  -24.4530  -31.9120   23.2200 C   0  0  0  0  0  0  0  0  0  0  0  0
  -26.6950  -27.4560   19.8500 C   0  0  0  0  0  0  0  0  0  0  0  0
  -23.0810  -30.6140   21.6200 C   0  0  0  0  0  3  0  0  0  0  0  0
  -24.3730  -29.0550   20.0670 C   0  0  0  0  0  0  0  0  0  0  0  0
  -25.6020  -30.8710   21.2680 C   0  0  0  0  0  2  0  0  0  0  0  0
  -25.5890  -29.5120   20.5940 C   0  0  0  0  0  0  0  0  0  0  0  0
  -26.7560  -28.7180   20.4870 C   0  0  0  0  0  3  0  0  0  0  0  0
  -25.4660  -27.0100   19.3270 C   0  0  0  0  0  3  0  0  0  0  0  0
  -24.3040  -27.8000   19.4370 C   0  0  0  0  0  3  0  0  0  0  0  0
  -23.1730  -29.9660   20.2120 C   0  0  0  0  0  2  0  0  0  0  0  0
  -24.4010  -31.1460   22.0940 N   0  0  0  0  0  0  0  0  0  0  0  0
  -23.4240  -32.2130   23.8400 O   0  0  0  0  0  0  0  0  0  0  0  0
  -22.4490  -29.5920   22.5940 C   0  0  0  0  0  0  0  0  0  0  0  0
  -21.1210  -29.4120   22.4990 N   0  0  0  0  0  0  0  0  0  0  0  0
  -23.1510  -28.9630   23.3910 O   0  0  0  0  0  0  0  0  0  0  0  0
  -20.6150  -29.9730   21.8270 H   0  0  0  0  0  0  0  0  0  0  0  0
  -17.7720  -28.1610   23.0130 C   0  0  0  0  0  0  0  0  0  0  0  0
  -20.3230  -28.4750   23.2880 C   0  0  0  0  0  3  0  0  0  0  0  0
  -20.4560  -27.0340   22.7410 C   0  0  0  0  0  2  0  0  0  0  0  0
  -19.3640  -26.6700   21.7300 C   0  0  0  0  0  2  0  0  0  0  0  0
  -17.9780  -26.8020   22.3650 C   0  0  0  0  0  2  0  0  0  0  0  0
  -18.8740  -28.9530   23.4330 C   0  0  0  0  0  0  0  0  0  0  0  0
  -18.6300  -30.2230   23.9990 C   0  0  0  0  0  3  0  0  0  0  0  0
  -17.3150  -30.7020   24.1470 C   0  0  0  0  0  3  0  0  0  0  0  0
  -16.2270  -29.9090   23.7430 C   0  0  0  0  0  3  0  0  0  0  0  0
  -16.4560  -28.6390   23.1840 C   0  0  0  0  0  3  0  0  0  0  0  0
  -25.8060  -32.4670   23.7680 C   0  0  0  0  0  3  0  0  0  0  0  0
  -25.5900  -33.8730   24.1370 N   0  0  0  0  0  0  0  0  0  0  0  0
  -25.9500  -34.9200   23.3840 C   0  0  0  0  0  0  0  0  0  0  0  0
  -26.5730  -34.8020   22.3250 O   0  0  0  0  0  0  0  0  0  0  0  0
  -25.0360  -34.0430   24.9630 H   0  0  0  0  0  0  0  0  0  0  0  0
  -24.3240  -36.8200   23.1160 C   0  0  0  0  0  1  0  0  0  0  0  0
  -25.5570  -36.3220   23.8860 C   0  0  0  0  0  3  0  0  0  0  0  0
  -27.7570  -37.0630   24.6890 C   0  0  0  0  0  1  0  0  0  0  0  0
  -26.6460  -37.3150   23.7740 N   0  0  0  0  0  0  0  0  0  0  0  0
  -26.2960  -38.2520   23.9550 H   0  0  0  0  0  0  0  0  0  0  0  0
  -26.3660  -31.6470   24.9940 C   0  0  1  0  0  0  0  0  0  0  0  0
  -25.3340  -31.4440   26.1280 C   0  0  0  0  0  1  0  0  0  0  0  0
  -26.8500  -30.2510   24.5400 C   0  0  0  0  0  1  0  0  0  0  0  0
  -27.5920  -32.3730   25.5960 C   0  0  0  0  0  1  0  0  0  0  0  0
  1  6  1  0
  1  2  1  0
  2  4  1  0
  3  1  2  0
  5  8  2  0
  5  6  1  0
  6  9  2  0
  7 22  1  0
  7 10  2  0
  8  7  1  0
  9 10  1  0
  9 12  1  0
 10 13  1  0
 11  8  1  0
 14 22  1  0
 15 20  1  0
 16 17  1  0
 16 15  1  0
 18 17  1  0
 18 27  1  0
 18 19  1  0
 20 14  1  0
 20 19  1  0
 21 14  2  0
 22 23  1  0
 24 25  2  0
 25 44  1  0
 26 25  1  0
 26 29  1  0
 27 28  1  0
 27 24  1  0
 28 26  2  0
 29 30  1  0
 30 31  2  0
 32 35  1  0
 32 31  1  0
 33 32  2  0
 34 33  1  0
 34 29  2  0
 35 36  1  0
 36 37  1  0
 37 38  2  0
 39 38  1  0
 39 43  1  0
 40 39  2  0
 41 36  2  0
 41 40  1  0
 42 41  1  0
 44 45  1  0
 45 48  1  0
 45 47  1  0
 46 44  2  0
 49 50  1  0
 49 24  1  0
 51 49  1  0
 52 56  1  0
 52  2  1  0
 52 53  1  0
 53 55  2  0
 54 53  1  0
 56 58  1  0
 57 56  2  0
 59 61  1  0
 59 58  1  0
 60 71  2  0
 61 66  1  0
 62 70  1  0
 62 72  1  0
 63 69  1  0
 63 65  1  0
 64 70  1  0
 65 64  1  0
 66 65  2  0
 67 68  1  0
 67 61  2  0
 68 63  2  0
 69 62  1  0
 70 60  1  0
 72 74  2  0
 73 72  1  0
 75 73  1  0
 76 85  2  0
 76 81  1  0
 77 73  1  0
 77 81  1  0
 78 77  1  0
 79 80  1  0
 79 78  1  0
 80 76  1  0
 81 82  2  0
 82 83  1  0
 84 83  2  0
 85 84  1  0
 86 60  1  0
 86 87  1  0
 86 96  1  0
 87 90  1  0
 88 92  1  0
 88 87  1  0
 89 88  2  0
 92 91  1  0
 94 92  1  0
 94 95  1  0
 94 93  1  0
 96 99  1  1
 96 97  1  0
 98 96  1  0
M  ISO  4  14 100  22 100  58 101  59 101
M  END
>  <TORSDO>  (40) 
F 21

>  <SCORE>  (40) 
-13.464

>  <name>  (40) 
40

>  <ligand_id>  (40) 
40

>  <original_smiles>  (40) 
[H]c1c([H])c([H])c2c(c1[H])C([H])([H])C([H])([H])C([H])([H])C2([H])N([H])C(=O)C1([H])N(C(=O)C([H])(N([H])C(=O)C([H])(N([H])C([H])([H])[H])C([H])([H])[H])C(C([H])([H])[H])(C([H])([H])[H])C([H])([H])[H])C([H])([H])c2c([H])c(OC([H])([H])C(=O)C([H])(C(=O)C([H])([H])[H])N([H])C(=O)c3c([H])c(F)c(N([H])C(=O)N4C([H])([H])C([H])([H])C([H])([H])C([H])(n5nc(-c6c([H])c([H])c(Oc7c([H])c([H])c(F)c([H])c7F)c([H])c6[H])c(C(=O)N([H])[H])c5N([H])[H])C4([H])[H])c(F)c3F)c([H])c([H])c2C1([H])[H]

>  <smiles>  (40) 
[H]c1c([H])c([H])c2c(c1[H])C([H])([H])C([H])([H])C([H])([H])C2([H])N([H])C(=O)C1([H])N(C(=O)C([H])(N([H])C(=O)C([H])(N([H])C([H])([H])[H])C([H])([H])[H])C(C([H])([H])[H])(C([H])([H])[H])C([H])([H])[H])C([H])([H])c2c([H])c(OC([H])([H])C(=O)C([H])(C(=O)C([H])([H])[H])N([H])C(=O)c3c([H])c(F)c(N([H])C(=O)N4C([H])([H])C([H])([H])C([H])([H])C([H])(n5nc(-c6c([H])c([H])c(Oc7c([H])c([H])c(F)c([H])c7F)c([H])c6[H])c(C(=O)N([H])[H])c5N([H])[H])C4([H])[H])c(F)c3F)c([H])c([H])c2C1([H])[H]

$$$$
41:0:0
     RDKit          3D

100108  0  0  1  0  0  0  0  0999 V2000
  -29.3690  -23.2120   21.0330 C   0  0  0  0  0  3  0  0  0  0  0  0
  -29.4620  -20.7100   20.6930 C   0  0  0  0  0  0  0  0  0  0  0  0
  -29.9190  -21.9580   20.4620 N   0  0  0  0  0  0  0  0  0  0  0  0
  -28.2990  -20.5020   21.0460 O   0  0  0  0  0  0  0  0  0  0  0  0
  -30.8560  -22.0200   20.0840 H   0  0  0  0  0  0  0  0  0  0  0  0
  -29.9590  -18.2070   20.4930 C   0  0  0  0  0  3  0  0  0  0  0  0
  -32.2320  -17.3470   20.5500 C   0  0  0  0  0  3  0  0  0  0  0  0
  -30.4390  -19.5510   20.5670 C   0  0  0  0  0  0  0  0  0  0  0  0
  -30.8430  -17.0940   20.4680 C   0  0  0  0  0  0  0  0  0  0  0  0
  -32.7240  -18.6600   20.6120 C   0  0  0  0  0  0  0  0  0  0  0  0
  -31.8440  -19.7560   20.6180 C   0  0  0  0  0  0  0  0  0  0  0  0
  -34.0600  -18.8710   20.6810 F   0  0  0  0  0  0  0  0  0  0  0  0
  -32.3800  -20.9990   20.6980 F   0  0  0  0  0  0  0  0  0  0  0  0
  -30.9680  -14.6450   19.9440 C   0  0  0  0  0  0  0  0  0  0  0  0
  -30.5620  -12.4220   18.9540 C   0  0  0  0  0  2  0  0  0  0  0  0
  -29.5830  -12.5680   17.7730 C   0  0  0  0  0  2  0  0  0  0  0  0
  -28.1260  -12.4830   18.2680 C   0  0  0  0  0  2  0  0  0  0  0  0
  -27.8510  -13.4050   19.4870 C   0  0  0  0  0  3  0  0  0  0  0  0
  -28.9480  -13.2560   20.5660 C   0  0  0  0  0  2  0  0  0  0  0  0
  -30.2490  -13.4890   19.9190 N   0  0  0  0  0  0  0  0  0  0  0  0
  -32.0830  -14.7240   19.4210 O   0  0  0  0  0  0  0  0  0  0  0  0
  -30.3310  -15.7480   20.4070 N   0  0  0  0  0  0  0  0  0  0  0  0
  -29.3630  -15.6150   20.6550 H   0  0  0  0  0  0  0  0  0  0  0  0
  -25.5300  -14.1060   20.3490 C   0  0  0  0  0  0  0  0  0  0  0  0
  -24.4460  -13.3750   20.7560 C   0  0  0  0  0  0  0  0  0  0  0  0
  -24.8360  -12.0040   20.6620 C   0  0  0  0  0  0  0  0  0  0  0  0
  -26.5150  -13.1810   20.0350 N   0  0  0  0  0  0  0  0  0  0  0  0
  -26.1040  -11.9100   20.2810 N   0  0  0  0  0  0  0  0  0  0  0  0
  -24.0560  -10.7750   20.8580 C   0  0  0  0  0  0  0  0  0  0  0  0
  -24.4620   -9.7800   21.7750 C   0  0  0  0  0  3  0  0  0  0  0  0
  -23.6860   -8.6160   21.9590 C   0  0  0  0  0  3  0  0  0  0  0  0
  -22.4900   -8.4370   21.2260 C   0  0  0  0  0  0  0  0  0  0  0  0
  -22.1020   -9.4190   20.2970 C   0  0  0  0  0  3  0  0  0  0  0  0
  -22.8770  -10.5760   20.1110 C   0  0  0  0  0  3  0  0  0  0  0  0
  -21.6860   -7.3260   21.3190 O   0  0  0  0  0  0  0  0  0  0  0  0
  -21.6000   -6.5960   22.4780 C   0  0  0  0  0  0  0  0  0  0  0  0
  -21.1820   -7.1770   23.6950 C   0  0  0  0  0  3  0  0  0  0  0  0
  -21.0390   -6.3760   24.8450 C   0  0  0  0  0  3  0  0  0  0  0  0
  -21.3040   -4.9950   24.7800 C   0  0  0  0  0  0  0  0  0  0  0  0
  -21.7160   -4.4130   23.5670 C   0  0  0  0  0  3  0  0  0  0  0  0
  -21.8600   -5.2120   22.4190 C   0  0  0  0  0  0  0  0  0  0  0  0
  -22.2350   -4.6430   21.2480 F   0  0  0  0  0  0  0  0  0  0  0  0
  -21.1600   -4.2230   25.8820 F   0  0  0  0  0  0  0  0  0  0  0  0
  -23.0930  -13.9140   21.1190 C   0  0  0  0  0  0  0  0  0  0  0  0
  -22.3830  -13.2350   22.0140 N   0  0  0  0  0  0  0  0  0  0  0  0
  -22.6760  -14.9690   20.6440 O   0  0  0  0  0  0  0  0  0  0  0  0
  -22.7340  -12.3800   22.4200 H   0  0  0  0  0  0  0  0  0  0  0  0
  -21.4760  -13.5770   22.2990 H   0  0  0  0  0  0  0  0  0  0  0  0
  -25.7560  -15.4710   20.1990 N   0  0  0  0  0  0  0  0  0  0  0  0
  -25.0280  -16.1570   20.3620 H   0  0  0  0  0  0  0  0  0  0  0  0
  -26.6010  -15.8760   19.8170 H   0  0  0  0  0  0  0  0  0  0  0  0
  -29.2260  -24.3770   20.0100 C   0  0  0  0  0  0  0  0  0  0  0  0
  -29.8340  -24.4090   18.9350 O   0  0  0  0  0  0  0  0  0  0  0  0
  -28.2730  -25.5260   20.4230 C   0  0  0  0  0  2  0  0  0  0  0  0
  -28.4600  -26.7690   19.7050 O   0  0  0  0  0  0  0  0  0  0  0  0
  -24.6550  -31.7330   23.1300 C   0  0  0  0  0  0  0  0  0  0  0  0
  -27.3120  -27.5340   19.7330 C   0  0  0  0  0  0  0  0  0  0  0  0
  -23.4310  -30.3680   21.4730 C   0  0  0  0  0  3  0  0  0  0  0  0
  -24.8770  -28.9640   19.9090 C   0  0  0  0  0  0  0  0  0  0  0  0
  -25.9350  -30.8290   21.1900 C   0  0  0  0  0  2  0  0  0  0  0  0
  -26.0430  -29.4960   20.4750 C   0  0  0  0  0  0  0  0  0  0  0  0
  -27.2670  -28.7900   20.3840 C   0  0  0  0  0  3  0  0  0  0  0  0
  -26.1330  -27.0310   19.1420 C   0  0  0  0  0  3  0  0  0  0  0  0
  -24.9180  -27.7320   19.2340 C   0  0  0  0  0  3  0  0  0  0  0  0
  -23.6060  -29.7690   20.0530 C   0  0  0  0  0  2  0  0  0  0  0  0
  -24.6940  -30.9890   21.9900 N   0  0  0  0  0  0  0  0  0  0  0  0
  -23.5890  -31.9380   23.7270 O   0  0  0  0  0  0  0  0  0  0  0  0
  -22.8600  -29.2760   22.4070 C   0  0  0  0  0  0  0  0  0  0  0  0
  -21.5540  -28.9940   22.2690 N   0  0  0  0  0  0  0  0  0  0  0  0
  -23.5870  -28.6880   23.2110 O   0  0  0  0  0  0  0  0  0  0  0  0
  -21.0240  -29.5240   21.5920 H   0  0  0  0  0  0  0  0  0  0  0  0
  -18.3100  -27.4440   22.6370 C   0  0  0  0  0  0  0  0  0  0  0  0
  -20.8100  -27.9780   23.0150 C   0  0  0  0  0  3  0  0  0  0  0  0
  -21.0910  -26.5620   22.4600 C   0  0  0  0  0  2  0  0  0  0  0  0
  -20.0760  -26.1160   21.4030 C   0  0  0  0  0  2  0  0  0  0  0  0
  -18.6590  -26.1170   21.9850 C   0  0  0  0  0  2  0  0  0  0  0  0
  -19.3200  -28.3250   23.1060 C   0  0  0  0  0  0  0  0  0  0  0  0
  -18.9410  -29.5620   23.6710 C   0  0  0  0  0  3  0  0  0  0  0  0
  -17.5840  -29.9220   23.7750 C   0  0  0  0  0  3  0  0  0  0  0  0
  -16.5870  -29.0390   23.3220 C   0  0  0  0  0  3  0  0  0  0  0  0
  -16.9510  -27.8030   22.7590 C   0  0  0  0  0  3  0  0  0  0  0  0
  -25.9430  -32.3830   23.7270 C   0  0  0  0  0  3  0  0  0  0  0  0
  -25.6140  -33.7680   24.0850 N   0  0  0  0  0  0  0  0  0  0  0  0
  -25.9320  -34.8400   23.3460 C   0  0  0  0  0  0  0  0  0  0  0  0
  -26.6060  -34.7680   22.3140 O   0  0  0  0  0  0  0  0  0  0  0  0
  -25.0160  -33.8980   24.8880 H   0  0  0  0  0  0  0  0  0  0  0  0
  -24.1770  -36.6120   23.0230 C   0  0  0  0  0  1  0  0  0  0  0  0
  -25.4230  -36.2110   23.8300 C   0  0  0  0  0  3  0  0  0  0  0  0
  -27.5450  -37.1090   24.6780 C   0  0  0  0  0  1  0  0  0  0  0  0
  -26.4390  -37.2830   23.7410 N   0  0  0  0  0  0  0  0  0  0  0  0
  -26.0170  -38.1920   23.9140 H   0  0  0  0  0  0  0  0  0  0  0  0
  -26.5110  -31.6030   24.9760 C   0  0  1  0  0  0  0  0  0  0  0  0
  -25.4540  -31.3250   26.0680 C   0  0  0  0  0  1  0  0  0  0  0  0
  -27.1130  -30.2450   24.5440 C   0  0  0  0  0  1  0  0  0  0  0  0
  -27.6630  -32.4130   25.6180 C   0  0  0  0  0  1  0  0  0  0  0  0
  -30.2060  -23.6380   22.2740 C   0  0  0  0  0  2  0  0  0  0  0  0
  -29.8770  -22.8910   23.5770 C   0  0  1  0  0  0  0  0  0  0  0  0
  -30.5110  -23.4790   24.5890 F   0  0  0  0  0  0  0  0  0  0  0  0
  -28.5660  -22.9360   23.8160 F   0  0  0  0  0  0  0  0  0  0  0  0
  -30.2730  -21.6210   23.5180 F   0  0  0  0  0  0  0  0  0  0  0  0
  1 96  1  0
  2  4  2  0
  3  2  1  0
  3  1  1  0
  5  3  1  0
  6  8  1  0
  7 10  2  0
  8 11  2  0
  8  2  1  0
  9  6  2  0
  9  7  1  0
 10 11  1  0
 10 12  1  0
 11 13  1  0
 14 22  1  0
 15 20  1  0
 16 17  1  0
 16 15  1  0
 18 17  1  0
 18 27  1  0
 18 19  1  0
 20 14  1  0
 20 19  1  0
 21 14  2  0
 22  9  1  0
 22 23  1  0
 24 25  2  0
 25 44  1  0
 26 25  1  0
 26 29  1  0
 27 28  1  0
 27 24  1  0
 28 26  2  0
 29 30  1  0
 30 31  2  0
 32 35  1  0
 32 31  1  0
 33 32  2  0
 34 33  1  0
 34 29  2  0
 35 36  1  0
 36 37  1  0
 37 38  2  0
 39 38  1  0
 39 43  1  0
 40 39  2  0
 41 36  2  0
 41 40  1  0
 42 41  1  0
 44 45  1  0
 45 48  1  0
 45 47  1  0
 46 44  2  0
 49 24  1  0
 49 50  1  0
 51 49  1  0
 52 54  1  0
 52  1  1  0
 53 52  2  0
 55 57  1  0
 55 54  1  0
 56 67  2  0
 57 62  1  0
 58 66  1  0
 58 68  1  0
 59 65  1  0
 59 61  1  0
 60 66  1  0
 61 60  1  0
 62 61  2  0
 63 64  1  0
 63 57  2  0
 64 59  2  0
 65 58  1  0
 66 56  1  0
 68 70  2  0
 69 68  1  0
 71 69  1  0
 72 81  2  0
 72 77  1  0
 73 69  1  0
 73 77  1  0
 74 73  1  0
 75 76  1  0
 75 74  1  0
 76 72  1  0
 77 78  2  0
 78 79  1  0
 80 79  2  0
 81 80  1  0
 82 56  1  0
 82 83  1  0
 82 92  1  0
 83 86  1  0
 84 88  1  0
 84 83  1  0
 85 84  2  0
 88 87  1  0
 90 88  1  0
 90 91  1  0
 90 89  1  0
 92 95  1  1
 92 93  1  0
 94 92  1  0
 96 97  1  0
 97 99  1  1
 97 98  1  0
100 97  1  0
M  ISO  4  14 100  22 100  54 101  55 101
M  END
>  <TORSDO>  (41) 
F 22

>  <SCORE>  (41) 
-11.963

>  <name>  (41) 
41

>  <ligand_id>  (41) 
41

>  <original_smiles>  (41) 
[H]c1c([H])c([H])c2c(c1[H])C([H])([H])C([H])([H])C([H])([H])C2([H])N([H])C(=O)C1([H])N(C(=O)C([H])(N([H])C(=O)C([H])(N([H])C([H])([H])[H])C([H])([H])[H])C(C([H])([H])[H])(C([H])([H])[H])C([H])([H])[H])C([H])([H])c2c([H])c(OC([H])([H])C(=O)C([H])(N([H])C(=O)c3c([H])c(N([H])C(=O)N4C([H])([H])C([H])([H])C([H])([H])C([H])(n5nc(-c6c([H])c([H])c(Oc7c([H])c([H])c(F)c([H])c7F)c([H])c6[H])c(C(=O)N([H])[H])c5N([H])[H])C4([H])[H])c([H])c(F)c3F)C([H])([H])C(F)(F)F)c([H])c([H])c2C1([H])[H]

>  <smiles>  (41) 
[H]c1c([H])c([H])c2c(c1[H])C([H])([H])C([H])([H])C([H])([H])C2([H])N([H])C(=O)C1([H])N(C(=O)C([H])(N([H])C(=O)C([H])(N([H])C([H])([H])[H])C([H])([H])[H])C(C([H])([H])[H])(C([H])([H])[H])C([H])([H])[H])C([H])([H])c2c([H])c(OC([H])([H])C(=O)C([H])(N([H])C(=O)c3c([H])c(N([H])C(=O)N4C([H])([H])C([H])([H])C([H])([H])C([H])(n5nc(-c6c([H])c([H])c(Oc7c([H])c([H])c(F)c([H])c7F)c([H])c6[H])c(C(=O)N([H])[H])c5N([H])[H])C4([H])[H])c([H])c(F)c3F)C([H])([H])C(F)(F)F)c([H])c([H])c2C1([H])[H]

$$$$
42:0:0
     RDKit          3D

 95103  0  0  1  0  0  0  0  0999 V2000
  -28.5600  -21.6580   20.7110 C   0  0  0  0  0  0  0  0  0  0  0  0
  -29.6040  -20.8170   20.6670 N   0  0  0  0  0  0  0  0  0  0  0  0
  -27.5540  -21.4510   21.3900 O   0  0  0  0  0  0  0  0  0  0  0  0
  -30.4800  -21.2190   20.3540 H   0  0  0  0  0  0  0  0  0  0  0  0
  -30.7470  -14.4700   20.1980 C   0  0  0  0  0  0  0  0  0  0  0  0
  -30.3900  -12.3950   18.9010 C   0  0  0  0  0  2  0  0  0  0  0  0
  -29.3700  -12.6510   17.7730 C   0  0  0  0  0  2  0  0  0  0  0  0
  -27.9230  -12.5000   18.2860 C   0  0  0  0  0  2  0  0  0  0  0  0
  -27.6660  -13.2870   19.6000 C   0  0  0  0  0  3  0  0  0  0  0  0
  -28.7720  -12.9710   20.6290 C   0  0  0  0  0  2  0  0  0  0  0  0
  -30.0770  -13.3000   20.0190 N   0  0  0  0  0  0  0  0  0  0  0  0
  -31.7610  -14.7690   19.5550 O   0  0  0  0  0  0  0  0  0  0  0  0
  -30.9740  -17.5100   21.6530 C   0  0  0  0  0  3  0  0  0  0  0  0
  -29.6530  -19.4210   20.9280 C   0  0  0  0  0  0  0  0  0  0  0  0
  -30.7880  -18.9000   21.5720 C   0  0  0  0  0  0  0  0  0  0  0  0
  -30.0270  -16.6560   21.0630 C   0  0  0  0  0  0  0  0  0  0  0  0
  -28.7170  -18.4960   20.4230 C   0  0  0  0  0  0  0  0  0  0  0  0
  -28.8990  -17.1500   20.5000 N   0  0  0  0  0  0  0  0  0  0  0  0
  -30.2320  -15.2560   21.1610 N   0  0  0  0  0  0  0  0  0  0  0  0
  -31.7170  -19.7410   22.0820 F   0  0  0  0  0  0  0  0  0  0  0  0
  -27.6210  -18.9350   19.7590 F   0  0  0  0  0  0  0  0  0  0  0  0
  -29.5150  -14.7740   21.6830 H   0  0  0  0  0  0  0  0  0  0  0  0
  -25.3110  -13.9010   20.4510 C   0  0  0  0  0  0  0  0  0  0  0  0
  -24.2560  -13.1270   20.8580 C   0  0  0  0  0  0  0  0  0  0  0  0
  -24.7020  -11.7730   20.7680 C   0  0  0  0  0  0  0  0  0  0  0  0
  -26.3320  -13.0180   20.1380 N   0  0  0  0  0  0  0  0  0  0  0  0
  -25.9710  -11.7290   20.3840 N   0  0  0  0  0  0  0  0  0  0  0  0
  -23.9780  -10.5100   20.9720 C   0  0  0  0  0  0  0  0  0  0  0  0
  -24.4360   -9.5380   21.8890 C   0  0  0  0  0  3  0  0  0  0  0  0
  -23.7160   -8.3390   22.0800 C   0  0  0  0  0  3  0  0  0  0  0  0
  -22.5230   -8.1050   21.3550 C   0  0  0  0  0  0  0  0  0  0  0  0
  -22.0850   -9.0640   20.4240 C   0  0  0  0  0  3  0  0  0  0  0  0
  -22.8070  -10.2550   20.2320 C   0  0  0  0  0  3  0  0  0  0  0  0
  -21.7730   -6.9590   21.4550 O   0  0  0  0  0  0  0  0  0  0  0  0
  -21.7250   -6.2280   22.6160 C   0  0  0  0  0  0  0  0  0  0  0  0
  -21.2810   -6.7910   23.8320 C   0  0  0  0  0  3  0  0  0  0  0  0
  -21.1830   -5.9870   24.9860 C   0  0  0  0  0  3  0  0  0  0  0  0
  -21.5160   -4.6200   24.9230 C   0  0  0  0  0  0  0  0  0  0  0  0
  -21.9520   -4.0570   23.7110 C   0  0  0  0  0  3  0  0  0  0  0  0
  -22.0530   -4.8580   22.5610 C   0  0  0  0  0  0  0  0  0  0  0  0
  -22.4530   -4.3060   21.3910 F   0  0  0  0  0  0  0  0  0  0  0  0
  -21.4140   -3.8460   26.0290 F   0  0  0  0  0  0  0  0  0  0  0  0
  -22.8780  -13.6060   21.2200 C   0  0  0  0  0  0  0  0  0  0  0  0
  -22.1920  -12.8920   22.1050 N   0  0  0  0  0  0  0  0  0  0  0  0
  -22.4200  -14.6470   20.7510 O   0  0  0  0  0  0  0  0  0  0  0  0
  -22.5700  -12.0470   22.5080 H   0  0  0  0  0  0  0  0  0  0  0  0
  -21.2690  -13.1950   22.3830 H   0  0  0  0  0  0  0  0  0  0  0  0
  -25.4860  -15.2750   20.3090 N   0  0  0  0  0  0  0  0  0  0  0  0
  -24.7610  -15.9490   20.5300 H   0  0  0  0  0  0  0  0  0  0  0  0
  -26.3500  -15.7120   20.0100 H   0  0  0  0  0  0  0  0  0  0  0  0
  -28.7120  -22.9320   19.8680 C   0  0  0  0  0  2  0  0  0  0  0  0
  -28.1740  -24.2720   20.4460 C   0  0  0  0  0  2  0  0  0  0  0  0
  -28.3810  -25.4150   18.0940 C   0  0  0  0  0  1  0  0  0  0  0  0
  -28.6720  -25.4920   19.6090 C   0  0  0  0  0  3  0  0  0  0  0  0
  -28.4620  -26.7970   20.1860 O   0  0  0  0  0  0  0  0  0  0  0  0
  -24.6120  -31.9310   23.2310 C   0  0  0  0  0  0  0  0  0  0  0  0
  -27.2580  -27.4800   20.1640 C   0  0  0  0  0  0  0  0  0  0  0  0
  -23.4020  -30.5230   21.5980 C   0  0  0  0  0  3  0  0  0  0  0  0
  -24.8570  -28.9910   20.1700 C   0  0  0  0  0  0  0  0  0  0  0  0
  -25.9240  -30.8930   21.3820 C   0  0  0  0  0  2  0  0  0  0  0  0
  -26.0140  -29.5200   20.7460 C   0  0  0  0  0  0  0  0  0  0  0  0
  -27.2120  -28.7710   20.7430 C   0  0  0  0  0  3  0  0  0  0  0  0
  -26.0690  -26.9580   19.6090 C   0  0  0  0  0  3  0  0  0  0  0  0
  -24.8780  -27.7080   19.5980 C   0  0  0  0  0  3  0  0  0  0  0  0
  -23.6070  -29.8430   20.2170 C   0  0  0  0  0  2  0  0  0  0  0  0
  -24.6640  -31.1310   22.1280 N   0  0  0  0  0  0  0  0  0  0  0  0
  -23.5350  -32.1970   23.7820 O   0  0  0  0  0  0  0  0  0  0  0  0
  -22.7670  -29.4990   22.5610 C   0  0  0  0  0  0  0  0  0  0  0  0
  -21.4450  -29.3060   22.4420 N   0  0  0  0  0  0  0  0  0  0  0  0
  -23.4590  -28.8760   23.3740 O   0  0  0  0  0  0  0  0  0  0  0  0
  -20.9440  -29.8540   21.7570 H   0  0  0  0  0  0  0  0  0  0  0  0
  -18.0830  -28.0910   22.9650 C   0  0  0  0  0  0  0  0  0  0  0  0
  -20.6420  -28.3640   23.2210 C   0  0  0  0  0  3  0  0  0  0  0  0
  -20.7490  -26.9330   22.6440 C   0  0  0  0  0  2  0  0  0  0  0  0
  -19.6430  -26.6030   21.6390 C   0  0  0  0  0  2  0  0  0  0  0  0
  -18.2630  -26.7420   22.2910 C   0  0  0  0  0  2  0  0  0  0  0  0
  -19.2010  -28.8590   23.3890 C   0  0  0  0  0  0  0  0  0  0  0  0
  -18.9790  -30.1220   23.9810 C   0  0  0  0  0  3  0  0  0  0  0  0
  -17.6730  -30.6190   24.1510 C   0  0  0  0  0  3  0  0  0  0  0  0
  -16.5710  -29.8470   23.7420 C   0  0  0  0  0  3  0  0  0  0  0  0
  -16.7760  -28.5860   23.1540 C   0  0  0  0  0  3  0  0  0  0  0  0
  -25.8990  -32.5700   23.8420 C   0  0  0  0  0  3  0  0  0  0  0  0
  -26.4360  -31.8000   25.1100 C   0  0  1  0  0  0  0  0  0  0  0  0
  -25.3530  -31.5430   26.1840 C   0  0  0  0  0  1  0  0  0  0  0  0
  -27.0340  -30.4320   24.7050 C   0  0  0  0  0  1  0  0  0  0  0  0
  -27.5790  -32.6070   25.7710 C   0  0  0  0  0  1  0  0  0  0  0  0
  -25.5860  -33.9640   24.1780 N   0  0  0  0  0  0  0  0  0  0  0  0
  -25.9100  -35.0190   23.4180 C   0  0  0  0  0  0  0  0  0  0  0  0
  -26.5780  -34.9220   22.3860 O   0  0  0  0  0  0  0  0  0  0  0  0
  -24.9910  -34.1130   24.9790 H   0  0  0  0  0  0  0  0  0  0  0  0
  -24.1740  -36.8050   23.0640 C   0  0  0  0  0  1  0  0  0  0  0  0
  -25.4130  -36.4050   23.8800 C   0  0  0  0  0  3  0  0  0  0  0  0
  -27.5390  -37.2950   24.7260 C   0  0  0  0  0  1  0  0  0  0  0  0
  -26.4430  -37.4610   23.7750 N   0  0  0  0  0  0  0  0  0  0  0  0
  -26.0340  -38.3810   23.9190 H   0  0  0  0  0  0  0  0  0  0  0  0
  1  3  2  0
  2  1  1  0
  2 14  1  0
  4  2  1  0
  5 19  1  0
  6 11  1  0
  7  8  1  0
  7  6  1  0
  9  8  1  0
  9 26  1  0
  9 10  1  0
 11  5  1  0
 11 10  1  0
 12  5  2  0
 14 15  2  0
 15 13  1  0
 15 20  1  0
 16 19  1  0
 16 13  2  0
 17 18  2  0
 17 14  1  0
 18 16  1  0
 19 22  1  0
 21 17  1  0
 23 24  2  0
 24 43  1  0
 25 24  1  0
 25 28  1  0
 26 27  1  0
 26 23  1  0
 27 25  2  0
 28 29  1  0
 29 30  2  0
 31 34  1  0
 31 30  1  0
 32 31  2  0
 33 32  1  0
 33 28  2  0
 34 35  1  0
 35 36  1  0
 36 37  2  0
 38 37  1  0
 38 42  1  0
 39 38  2  0
 40 35  2  0
 40 39  1  0
 41 40  1  0
 43 44  1  0
 44 47  1  0
 44 46  1  0
 45 43  2  0
 48 23  1  0
 48 49  1  0
 50 48  1  0
 51 52  1  0
 51  1  1  0
 54 53  1  0
 54 55  1  0
 54 52  1  0
 56 67  2  0
 57 55  1  0
 57 62  1  0
 58 66  1  0
 58 68  1  0
 59 65  1  0
 59 61  1  0
 60 66  1  0
 61 60  1  0
 62 61  2  0
 63 57  2  0
 64 63  1  0
 64 59  2  0
 65 58  1  0
 66 56  1  0
 68 70  2  0
 69 68  1  0
 71 69  1  0
 72 81  2  0
 72 77  1  0
 73 69  1  0
 73 77  1  0
 74 73  1  0
 75 76  1  0
 75 74  1  0
 76 72  1  0
 77 78  2  0
 78 79  1  0
 80 79  2  0
 81 80  1  0
 82 56  1  0
 82 87  1  0
 82 83  1  0
 83 86  1  1
 83 84  1  0
 85 83  1  0
 87 90  1  0
 88 92  1  0
 88 87  1  0
 89 88  2  0
 92 91  1  0
 94 92  1  0
 94 95  1  0
 94 93  1  0
M  ISO  4   5 100  19 100  54 101  55 101
M  END
>  <TORSDO>  (42) 
F 19

>  <SCORE>  (42) 
-14.505

>  <name>  (42) 
42

>  <ligand_id>  (42) 
42

>  <original_smiles>  (42) 
[H]c1c([H])c([H])c2c(c1[H])C([H])([H])C([H])([H])C([H])([H])C2([H])N([H])C(=O)C1([H])N(C(=O)C([H])(N([H])C(=O)C([H])(N([H])C([H])([H])[H])C([H])([H])[H])C(C([H])([H])[H])(C([H])([H])[H])C([H])([H])[H])C([H])([H])c2c([H])c(OC([H])(C([H])([H])[H])C([H])([H])C([H])([H])C(=O)N([H])c3c(F)nc(N([H])C(=O)N4C([H])([H])C([H])([H])C([H])([H])C([H])(n5nc(-c6c([H])c([H])c(Oc7c([H])c([H])c(F)c([H])c7F)c([H])c6[H])c(C(=O)N([H])[H])c5N([H])[H])C4([H])[H])c([H])c3F)c([H])c([H])c2C1([H])[H]

>  <smiles>  (42) 
[H]c1c([H])c([H])c2c(c1[H])C([H])([H])C([H])([H])C([H])([H])C2([H])N([H])C(=O)C1([H])N(C(=O)C([H])(N([H])C(=O)C([H])(N([H])C([H])([H])[H])C([H])([H])[H])C(C([H])([H])[H])(C([H])([H])[H])C([H])([H])[H])C([H])([H])c2c([H])c(OC([H])(C([H])([H])[H])C([H])([H])C([H])([H])C(=O)N([H])c3c(F)nc(N([H])C(=O)N4C([H])([H])C([H])([H])C([H])([H])C([H])(n5nc(-c6c([H])c([H])c(Oc7c([H])c([H])c(F)c([H])c7F)c([H])c6[H])c(C(=O)N([H])[H])c5N([H])[H])C4([H])[H])c([H])c3F)c([H])c([H])c2C1([H])[H]

$$$$
43:0:0
     RDKit          3D

 93101  0  0  1  0  0  0  0  0999 V2000
  -28.6540  -22.9790   21.0060 C   0  0  0  0  0  0  0  0  0  0  0  0
  -28.7630  -21.6400   18.8840 C   0  0  0  0  0  1  0  0  0  0  0  0
  -28.8340  -21.7830   20.3460 N   0  0  0  0  0  0  0  0  0  0  0  0
  -28.3420  -22.9780   22.2020 O   0  0  0  0  0  0  0  0  0  0  0  0
  -28.2480  -25.3940   20.7180 C   0  0  0  0  0  3  0  0  0  0  0  0
  -28.8730  -24.2640   20.2850 C   0  0  0  0  0  0  0  0  0  0  0  0
  -29.7040  -24.3510   19.2350 O   0  0  0  0  0  0  0  0  0  0  0  0
  -29.7030  -25.2600   18.9630 H   0  0  0  0  0  0  0  0  0  0  0  0
  -28.3950  -26.6620   20.1610 O   0  0  0  0  0  0  0  0  0  0  0  0
  -24.6020  -31.9120   23.2320 C   0  0  0  0  0  0  0  0  0  0  0  0
  -27.2630  -27.4600   20.1510 C   0  0  0  0  0  0  0  0  0  0  0  0
  -23.4070  -30.5100   21.5830 C   0  0  0  0  0  3  0  0  0  0  0  0
  -24.8720  -28.9850   20.1510 C   0  0  0  0  0  0  0  0  0  0  0  0
  -25.9350  -30.8750   21.3930 C   0  0  0  0  0  2  0  0  0  0  0  0
  -26.0300  -29.5040   20.7460 C   0  0  0  0  0  0  0  0  0  0  0  0
  -27.2320  -28.7500   20.7420 C   0  0  0  0  0  3  0  0  0  0  0  0
  -26.0910  -26.9690   19.5410 C   0  0  0  0  0  3  0  0  0  0  0  0
  -24.8990  -27.7180   19.5440 C   0  0  0  0  0  3  0  0  0  0  0  0
  -23.6240  -29.8400   20.2000 C   0  0  0  0  0  2  0  0  0  0  0  0
  -24.6660  -31.1150   22.1270 N   0  0  0  0  0  0  0  0  0  0  0  0
  -23.5180  -32.1740   23.7720 O   0  0  0  0  0  0  0  0  0  0  0  0
  -22.7590  -29.4820   22.5390 C   0  0  0  0  0  0  0  0  0  0  0  0
  -21.4340  -29.2970   22.4160 N   0  0  0  0  0  0  0  0  0  0  0  0
  -23.4470  -28.8510   23.3470 O   0  0  0  0  0  0  0  0  0  0  0  0
  -20.9400  -29.8560   21.7360 H   0  0  0  0  0  0  0  0  0  0  0  0
  -18.0630  -28.1000   22.9310 C   0  0  0  0  0  0  0  0  0  0  0  0
  -20.6230  -28.3530   23.1850 C   0  0  0  0  0  3  0  0  0  0  0  0
  -20.7190  -26.9280   22.5920 C   0  0  0  0  0  2  0  0  0  0  0  0
  -19.6080  -26.6180   21.5850 C   0  0  0  0  0  2  0  0  0  0  0  0
  -18.2320  -26.7580   22.2400 C   0  0  0  0  0  2  0  0  0  0  0  0
  -19.1850  -28.8560   23.3600 C   0  0  0  0  0  0  0  0  0  0  0  0
  -18.9720  -30.1130   23.9670 C   0  0  0  0  0  3  0  0  0  0  0  0
  -17.6690  -30.6140   24.1470 C   0  0  0  0  0  3  0  0  0  0  0  0
  -16.5610  -29.8540   23.7340 C   0  0  0  0  0  3  0  0  0  0  0  0
  -16.7580  -28.5990   23.1310 C   0  0  0  0  0  3  0  0  0  0  0  0
  -25.8820  -32.5480   23.8570 C   0  0  0  0  0  3  0  0  0  0  0  0
  -26.3970  -31.7840   25.1370 C   0  0  1  0  0  0  0  0  0  0  0  0
  -25.3010  -31.5450   26.2010 C   0  0  0  0  0  1  0  0  0  0  0  0
  -26.9880  -30.4080   24.7510 C   0  0  0  0  0  1  0  0  0  0  0  0
  -27.5440  -32.5840   25.7990 C   0  0  0  0  0  1  0  0  0  0  0  0
  -25.5690  -33.9470   24.1780 N   0  0  0  0  0  0  0  0  0  0  0  0
  -25.9100  -34.9960   23.4180 C   0  0  0  0  0  0  0  0  0  0  0  0
  -26.5920  -34.8890   22.3950 O   0  0  0  0  0  0  0  0  0  0  0  0
  -24.9670  -34.1060   24.9730 H   0  0  0  0  0  0  0  0  0  0  0  0
  -24.1950  -36.7920   23.0250 C   0  0  0  0  0  1  0  0  0  0  0  0
  -25.4170  -36.3860   23.8630 C   0  0  0  0  0  3  0  0  0  0  0  0
  -27.5340  -37.2670   24.7400 C   0  0  0  0  0  1  0  0  0  0  0  0
  -26.4550  -37.4360   23.7710 N   0  0  0  0  0  0  0  0  0  0  0  0
  -26.0480  -38.3580   23.9060 H   0  0  0  0  0  0  0  0  0  0  0  0
  -28.7480  -20.4760   21.0760 C   0  0  0  0  0  2  0  0  0  0  0  0
  -30.6770  -14.6120   20.1160 C   0  0  0  0  0  0  0  0  0  0  0  0
  -30.3810  -12.4230   19.0070 C   0  0  0  0  0  2  0  0  0  0  0  0
  -29.3840  -12.6010   17.8400 C   0  0  0  0  0  2  0  0  0  0  0  0
  -27.9310  -12.4460   18.3320 C   0  0  0  0  0  2  0  0  0  0  0  0
  -27.6350  -13.2830   19.6060 C   0  0  0  0  0  3  0  0  0  0  0  0
  -28.7420  -13.0850   20.6690 C   0  0  0  0  0  2  0  0  0  0  0  0
  -30.0310  -13.4120   20.0400 N   0  0  0  0  0  0  0  0  0  0  0  0
  -31.8140  -14.7610   19.6600 O   0  0  0  0  0  0  0  0  0  0  0  0
  -30.8810  -19.3990   20.0350 C   0  0  0  0  0  3  0  0  0  0  0  0
  -29.6390  -19.3160   20.6160 C   0  0  0  0  0  0  0  0  0  0  0  0
  -30.1680  -17.0620   20.4290 C   0  0  0  0  0  0  0  0  0  0  0  0
  -29.2520  -17.9680   20.8290 N   0  0  0  0  0  0  0  0  0  0  0  0
  -29.9270  -15.6520   20.5630 N   0  0  0  0  0  0  0  0  0  0  0  0
  -31.5960  -17.8300   19.7330 S   0  0  0  0  0  0  0  0  0  0  0  0
  -29.0200  -15.4010   20.9180 H   0  0  0  0  0  0  0  0  0  0  0  0
  -25.2710  -13.8690   20.4300 C   0  0  0  0  0  0  0  0  0  0  0  0
  -24.2220  -13.0890   20.8390 C   0  0  0  0  0  0  0  0  0  0  0  0
  -24.6890  -11.7390   20.7750 C   0  0  0  0  0  0  0  0  0  0  0  0
  -26.3080  -12.9950   20.1440 N   0  0  0  0  0  0  0  0  0  0  0  0
  -25.9640  -11.7090   20.4110 N   0  0  0  0  0  0  0  0  0  0  0  0
  -23.9760  -10.4720   20.9850 C   0  0  0  0  0  0  0  0  0  0  0  0
  -24.4300   -9.5170   21.9220 C   0  0  0  0  0  3  0  0  0  0  0  0
  -23.7190   -8.3130   22.1190 C   0  0  0  0  0  3  0  0  0  0  0  0
  -22.5390   -8.0570   21.3810 C   0  0  0  0  0  0  0  0  0  0  0  0
  -22.1040   -9.0010   20.4340 C   0  0  0  0  0  3  0  0  0  0  0  0
  -22.8160  -10.1950   20.2350 C   0  0  0  0  0  3  0  0  0  0  0  0
  -21.7970   -6.9050   21.4860 O   0  0  0  0  0  0  0  0  0  0  0  0
  -21.7430   -6.1900   22.6550 C   0  0  0  0  0  0  0  0  0  0  0  0
  -21.2730   -6.7610   23.8580 C   0  0  0  0  0  3  0  0  0  0  0  0
  -21.1690   -5.9700   25.0190 C   0  0  0  0  0  3  0  0  0  0  0  0
  -21.5260   -4.6080   24.9790 C   0  0  0  0  0  0  0  0  0  0  0  0
  -21.9880   -4.0370   23.7810 C   0  0  0  0  0  3  0  0  0  0  0  0
  -22.0950   -4.8260   22.6220 C   0  0  0  0  0  0  0  0  0  0  0  0
  -22.5230   -4.2640   21.4660 F   0  0  0  0  0  0  0  0  0  0  0  0
  -21.4180   -3.8460   26.0930 F   0  0  0  0  0  0  0  0  0  0  0  0
  -22.8370  -13.5570   21.1740 C   0  0  0  0  0  0  0  0  0  0  0  0
  -22.1470  -12.8470   22.0610 N   0  0  0  0  0  0  0  0  0  0  0  0
  -22.3740  -14.5870   20.6860 O   0  0  0  0  0  0  0  0  0  0  0  0
  -22.5340  -12.0150   22.4810 H   0  0  0  0  0  0  0  0  0  0  0  0
  -21.2180  -13.1410   22.3260 H   0  0  0  0  0  0  0  0  0  0  0  0
  -25.4250  -15.2420   20.2590 N   0  0  0  0  0  0  0  0  0  0  0  0
  -24.6620  -15.8940   20.4050 H   0  0  0  0  0  0  0  0  0  0  0  0
  -26.2580  -15.6880   19.8960 H   0  0  0  0  0  0  0  0  0  0  0  0
  1  4  2  0
  2  3  1  0
  3  1  1  0
  3 50  1  0
  6  5  2  0
  6  1  1  0
  7  6  1  0
  8  7  1  0
  9  5  1  0
 10 21  2  0
 11  9  1  0
 11 16  1  0
 12 20  1  0
 12 22  1  0
 13 19  1  0
 13 15  1  0
 14 20  1  0
 15 14  1  0
 16 15  2  0
 17 18  1  0
 17 11  2  0
 18 13  2  0
 19 12  1  0
 20 10  1  0
 22 24  2  0
 23 22  1  0
 25 23  1  0
 26 35  2  0
 26 31  1  0
 27 23  1  0
 27 31  1  0
 28 27  1  0
 29 30  1  0
 29 28  1  0
 30 26  1  0
 31 32  2  0
 32 33  1  0
 34 33  2  0
 35 34  1  0
 36 10  1  0
 36 41  1  0
 36 37  1  0
 37 40  1  1
 37 38  1  0
 39 37  1  0
 41 44  1  0
 42 46  1  0
 42 41  1  0
 43 42  2  0
 46 45  1  0
 48 46  1  0
 48 49  1  0
 48 47  1  0
 51 63  1  0
 52 57  1  0
 53 54  1  0
 53 52  1  0
 55 54  1  0
 55 69  1  0
 55 56  1  0
 57 51  1  0
 57 56  1  0
 58 51  2  0
 59 60  2  0
 60 62  1  0
 60 50  1  0
 61 63  1  0
 61 62  2  0
 63 65  1  0
 64 59  1  0
 64 61  1  0
 66 67  2  0
 67 86  1  0
 68 67  1  0
 68 71  1  0
 69 70  1  0
 69 66  1  0
 70 68  2  0
 71 72  1  0
 72 73  2  0
 74 77  1  0
 74 73  1  0
 75 74  2  0
 76 75  1  0
 76 71  2  0
 77 78  1  0
 78 79  1  0
 79 80  2  0
 81 80  1  0
 81 85  1  0
 82 81  2  0
 83 78  2  0
 83 82  1  0
 84 83  1  0
 86 87  1  0
 87 90  1  0
 87 89  1  0
 88 86  2  0
 91 92  1  0
 91 66  1  0
 93 91  1  0
M  ISO  4   5 101   9 101  51 100  63 100
M  END
>  <TORSDO>  (43) 
F 19

>  <SCORE>  (43) 
-14.393

>  <name>  (43) 
43

>  <ligand_id>  (43) 
43

>  <original_smiles>  (43) 
[H]OC(C(=O)N(C([H])([H])[H])C([H])([H])c1nc(N([H])C(=O)N2C([H])([H])C([H])([H])C([H])([H])C([H])(n3nc(-c4c([H])c([H])c(Oc5c([H])c([H])c(F)c([H])c5F)c([H])c4[H])c(C(=O)N([H])[H])c3N([H])[H])C2([H])[H])sc1[H])=C([H])Oc1c([H])c([H])c2c(c1[H])C([H])([H])N(C(=O)C([H])(N([H])C(=O)C([H])(N([H])C([H])([H])[H])C([H])([H])[H])C(C([H])([H])[H])(C([H])([H])[H])C([H])([H])[H])C([H])(C(=O)N([H])C1([H])c3c([H])c([H])c([H])c([H])c3C([H])([H])C([H])([H])C1([H])[H])C2([H])[H]

>  <smiles>  (43) 
[H]OC(C(=O)N(C([H])([H])[H])C([H])([H])c1nc(N([H])C(=O)N2C([H])([H])C([H])([H])C([H])([H])C([H])(n3nc(-c4c([H])c([H])c(Oc5c([H])c([H])c(F)c([H])c5F)c([H])c4[H])c(C(=O)N([H])[H])c3N([H])[H])C2([H])[H])sc1[H])=C([H])Oc1c([H])c([H])c2c(c1[H])C([H])([H])N(C(=O)C([H])(N([H])C(=O)C([H])(N([H])C([H])([H])[H])C([H])([H])[H])C(C([H])([H])[H])(C([H])([H])[H])C([H])([H])[H])C([H])(C(=O)N([H])C1([H])c3c([H])c([H])c([H])c([H])c3C([H])([H])C([H])([H])C1([H])[H])C2([H])[H]

$$$$
44:0:0
     RDKit          3D

 97105  0  0  1  0  0  0  0  0999 V2000
  -31.0560  -20.2640   21.7190 N   0  0  0  0  0  0  0  0  0  0  0  0
  -31.8010  -20.7900   21.2570 H   0  0  0  0  0  0  0  0  0  0  0  0
  -30.4460  -17.9090   21.4690 C   0  0  0  0  0  3  0  0  0  0  0  0
  -30.0440  -16.8250   20.6500 C   0  0  0  0  0  0  0  0  0  0  0  0
  -30.6150  -19.2010   20.9150 C   0  0  0  0  0  0  0  0  0  0  0  0
  -29.7480  -17.0650   19.2850 C   0  0  0  0  0  0  0  0  0  0  0  0
  -30.3580  -19.4120   19.5420 C   0  0  0  0  0  0  0  0  0  0  0  0
  -29.9090  -18.3510   18.7350 C   0  0  0  0  0  0  0  0  0  0  0  0
  -29.3010  -16.0590   18.4930 F   0  0  0  0  0  0  0  0  0  0  0  0
  -30.5330  -20.6430   18.9970 F   0  0  0  0  0  0  0  0  0  0  0  0
  -29.6330  -18.5660   17.4260 F   0  0  0  0  0  0  0  0  0  0  0  0
  -30.6310  -14.4700   20.6940 C   0  0  0  0  0  0  0  0  0  0  0  0
  -30.3660  -12.2950   19.5850 C   0  0  0  0  0  2  0  0  0  0  0  0
  -29.4640  -12.4870   18.3460 C   0  0  0  0  0  2  0  0  0  0  0  0
  -27.9770  -12.3540   18.7300 C   0  0  0  0  0  2  0  0  0  0  0  0
  -27.5980  -13.2080   19.9700 C   0  0  0  0  0  3  0  0  0  0  0  0
  -28.6180  -13.0060   21.1160 C   0  0  0  0  0  2  0  0  0  0  0  0
  -29.9640  -13.2910   20.5900 N   0  0  0  0  0  0  0  0  0  0  0  0
  -31.7680  -14.6440   20.2480 O   0  0  0  0  0  0  0  0  0  0  0  0
  -29.9250  -15.5060   21.1850 N   0  0  0  0  0  0  0  0  0  0  0  0
  -29.0560  -15.2780   21.6420 H   0  0  0  0  0  0  0  0  0  0  0  0
  -25.1790  -13.8160   20.6050 C   0  0  0  0  0  0  0  0  0  0  0  0
  -24.1000  -13.0410   20.9430 C   0  0  0  0  0  0  0  0  0  0  0  0
  -24.5640  -11.6900   20.9330 C   0  0  0  0  0  0  0  0  0  0  0  0
  -26.2310  -12.9340   20.4080 N   0  0  0  0  0  0  0  0  0  0  0  0
  -25.8630  -11.6520   20.6630 N   0  0  0  0  0  0  0  0  0  0  0  0
  -23.8350  -10.4260   21.1080 C   0  0  0  0  0  0  0  0  0  0  0  0
  -24.2520   -9.4590   22.0490 C   0  0  0  0  0  3  0  0  0  0  0  0
  -23.5240   -8.2600   22.2110 C   0  0  0  0  0  3  0  0  0  0  0  0
  -22.3670   -8.0210   21.4310 C   0  0  0  0  0  0  0  0  0  0  0  0
  -21.9720   -8.9770   20.4780 C   0  0  0  0  0  3  0  0  0  0  0  0
  -22.7010  -10.1670   20.3150 C   0  0  0  0  0  3  0  0  0  0  0  0
  -21.6140   -6.8750   21.5030 O   0  0  0  0  0  0  0  0  0  0  0  0
  -21.5470   -6.1250   22.6500 C   0  0  0  0  0  0  0  0  0  0  0  0
  -21.0880   -6.6700   23.8700 C   0  0  0  0  0  3  0  0  0  0  0  0
  -20.9710   -5.8470   25.0070 C   0  0  0  0  0  3  0  0  0  0  0  0
  -21.3030   -4.4820   24.9270 C   0  0  0  0  0  0  0  0  0  0  0  0
  -21.7540   -3.9360   23.7130 C   0  0  0  0  0  3  0  0  0  0  0  0
  -21.8730   -4.7560   22.5760 C   0  0  0  0  0  0  0  0  0  0  0  0
  -22.2890   -4.2210   21.4020 F   0  0  0  0  0  0  0  0  0  0  0  0
  -21.1820   -3.6890   26.0180 F   0  0  0  0  0  0  0  0  0  0  0  0
  -22.6940  -13.5150   21.1740 C   0  0  0  0  0  0  0  0  0  0  0  0
  -21.9420  -12.8180   22.0200 N   0  0  0  0  0  0  0  0  0  0  0  0
  -22.2700  -14.5400   20.6420 O   0  0  0  0  0  0  0  0  0  0  0  0
  -22.2970  -11.9900   22.4720 H   0  0  0  0  0  0  0  0  0  0  0  0
  -20.9970  -13.1190   22.2160 H   0  0  0  0  0  0  0  0  0  0  0  0
  -25.3490  -15.1850   20.4340 N   0  0  0  0  0  0  0  0  0  0  0  0
  -24.5890  -15.8480   20.5400 H   0  0  0  0  0  0  0  0  0  0  0  0
  -26.2170  -15.6220   20.1540 H   0  0  0  0  0  0  0  0  0  0  0  0
  -30.0210  -21.2660   21.9800 C   0  0  0  0  0  2  0  0  0  0  0  0
  -30.5380  -22.6950   21.7550 C   0  0  0  0  0  0  0  0  0  0  0  0
  -31.6640  -22.8880   21.2800 O   0  0  0  0  0  0  0  0  0  0  0  0
  -29.6350  -23.8500   22.1890 C   0  0  0  0  0  2  0  0  0  0  0  0
  -29.0660  -24.6390   21.0020 C   0  0  0  0  0  0  0  0  0  0  0  0
  -28.8790  -24.1290   19.8890 O   0  0  0  0  0  0  0  0  0  0  0  0
  -28.6710  -26.0940   21.2930 C   0  0  0  0  0  2  0  0  0  0  0  0
  -28.3430  -26.7680   20.0790 O   0  0  0  0  0  0  0  0  0  0  0  0
  -24.5720  -31.9040   23.2740 C   0  0  0  0  0  0  0  0  0  0  0  0
  -27.1870  -27.4980   20.1460 C   0  0  0  0  0  0  0  0  0  0  0  0
  -23.3460  -30.5070   21.6360 C   0  0  0  0  0  3  0  0  0  0  0  0
  -24.7870  -28.9730   20.1930 C   0  0  0  0  0  0  0  0  0  0  0  0
  -25.8650  -30.8730   21.4130 C   0  0  0  0  0  2  0  0  0  0  0  0
  -25.9460  -29.5020   20.7780 C   0  0  0  0  0  0  0  0  0  0  0  0
  -27.1500  -28.7660   20.7630 C   0  0  0  0  0  3  0  0  0  0  0  0
  -26.0190  -26.9740   19.5590 C   0  0  0  0  0  3  0  0  0  0  0  0
  -24.8160  -27.7060   19.5860 C   0  0  0  0  0  3  0  0  0  0  0  0
  -23.5410  -29.8290   20.2520 C   0  0  0  0  0  2  0  0  0  0  0  0
  -24.6120  -31.1100   22.1660 N   0  0  0  0  0  0  0  0  0  0  0  0
  -23.4970  -32.1740   23.8280 O   0  0  0  0  0  0  0  0  0  0  0  0
  -22.7050  -29.4840   22.5990 C   0  0  0  0  0  0  0  0  0  0  0  0
  -21.3810  -29.2940   22.4740 N   0  0  0  0  0  0  0  0  0  0  0  0
  -23.3940  -28.8610   23.4120 O   0  0  0  0  0  0  0  0  0  0  0  0
  -20.8860  -29.8500   21.7910 H   0  0  0  0  0  0  0  0  0  0  0  0
  -18.0170  -28.0800   22.9630 C   0  0  0  0  0  0  0  0  0  0  0  0
  -20.5710  -28.3500   23.2420 C   0  0  0  0  0  3  0  0  0  0  0  0
  -20.6840  -26.9190   22.6680 C   0  0  0  0  0  2  0  0  0  0  0  0
  -19.5880  -26.5890   21.6500 C   0  0  0  0  0  2  0  0  0  0  0  0
  -18.2030  -26.7290   22.2900 C   0  0  0  0  0  2  0  0  0  0  0  0
  -19.1300  -28.8470   23.3960 C   0  0  0  0  0  0  0  0  0  0  0  0
  -18.9030  -30.1120   23.9810 C   0  0  0  0  0  3  0  0  0  0  0  0
  -17.5950  -30.6090   24.1370 C   0  0  0  0  0  3  0  0  0  0  0  0
  -16.4960  -29.8360   23.7240 C   0  0  0  0  0  3  0  0  0  0  0  0
  -16.7080  -28.5740   23.1420 C   0  0  0  0  0  3  0  0  0  0  0  0
  -25.8670  -32.5260   23.8830 C   0  0  0  0  0  3  0  0  0  0  0  0
  -25.5760  -33.9310   24.1950 N   0  0  0  0  0  0  0  0  0  0  0  0
  -25.9220  -34.9710   23.4240 C   0  0  0  0  0  0  0  0  0  0  0  0
  -26.5920  -34.8480   22.3950 O   0  0  0  0  0  0  0  0  0  0  0  0
  -24.9840  -34.1030   24.9940 H   0  0  0  0  0  0  0  0  0  0  0  0
  -24.2170  -36.7780   23.0350 C   0  0  0  0  0  1  0  0  0  0  0  0
  -25.4450  -36.3680   23.8630 C   0  0  0  0  0  3  0  0  0  0  0  0
  -27.5900  -37.2260   24.6960 C   0  0  0  0  0  1  0  0  0  0  0  0
  -26.4860  -37.4130   23.7570 N   0  0  0  0  0  0  0  0  0  0  0  0
  -26.0860  -38.3330   23.9250 H   0  0  0  0  0  0  0  0  0  0  0  0
  -26.3830  -31.7610   25.1620 C   0  0  1  0  0  0  0  0  0  0  0  0
  -25.2930  -31.5460   26.2370 C   0  0  0  0  0  1  0  0  0  0  0  0
  -26.9490  -30.3740   24.7750 C   0  0  0  0  0  1  0  0  0  0  0  0
  -27.5440  -32.5490   25.8140 C   0  0  0  0  0  1  0  0  0  0  0  0
  1 50  1  0
  2  1  1  0
  4 20  1  0
  4  3  2  0
  5  3  1  0
  5  1  1  0
  6  4  1  0
  7  5  2  0
  8  6  2  0
  8  7  1  0
  9  6  1  0
 10  7  1  0
 11  8  1  0
 12 20  1  0
 13 18  1  0
 14 15  1  0
 14 13  1  0
 16 15  1  0
 16 25  1  0
 16 17  1  0
 18 12  1  0
 18 17  1  0
 19 12  2  0
 20 21  1  0
 22 23  2  0
 23 42  1  0
 24 23  1  0
 24 27  1  0
 25 22  1  0
 25 26  1  0
 26 24  2  0
 27 28  1  0
 28 29  2  0
 30 33  1  0
 30 29  1  0
 31 30  2  0
 32 31  1  0
 32 27  2  0
 33 34  1  0
 34 35  1  0
 35 36  2  0
 37 36  1  0
 37 41  1  0
 38 37  2  0
 39 34  2  0
 39 38  1  0
 40 39  1  0
 42 43  1  0
 43 46  1  0
 43 45  1  0
 44 42  2  0
 47 48  1  0
 47 22  1  0
 49 47  1  0
 51 50  1  0
 51 53  1  0
 52 51  2  0
 54 56  1  0
 54 53  1  0
 55 54  2  0
 57 59  1  0
 57 56  1  0
 58 69  2  0
 59 64  1  0
 60 68  1  0
 60 70  1  0
 61 67  1  0
 61 63  1  0
 62 68  1  0
 63 62  1  0
 64 63  2  0
 65 66  1  0
 65 59  2  0
 66 61  2  0
 67 60  1  0
 68 58  1  0
 70 72  2  0
 71 70  1  0
 73 71  1  0
 74 83  2  0
 74 79  1  0
 75 71  1  0
 75 79  1  0
 76 75  1  0
 77 78  1  0
 77 76  1  0
 78 74  1  0
 79 80  2  0
 80 81  1  0
 82 81  2  0
 83 82  1  0
 84 58  1  0
 84 85  1  0
 84 94  1  0
 85 88  1  0
 86 90  1  0
 86 85  1  0
 87 86  2  0
 90 89  1  0
 92 90  1  0
 92 93  1  0
 92 91  1  0
 94 97  1  1
 94 95  1  0
 96 94  1  0
M  ISO  4  12 100  20 100  56 101  57 101
M  END
>  <TORSDO>  (44) 
F 22

>  <SCORE>  (44) 
-13.277

>  <name>  (44) 
44

>  <ligand_id>  (44) 
44

>  <original_smiles>  (44) 
[H]c1c([H])c([H])c2c(c1[H])C([H])([H])C([H])([H])C([H])([H])C2([H])N([H])C(=O)C1([H])N(C(=O)C([H])(N([H])C(=O)C([H])(N([H])C([H])([H])[H])C([H])([H])[H])C(C([H])([H])[H])(C([H])([H])[H])C([H])([H])[H])C([H])([H])c2c([H])c(OC([H])([H])C(=O)C([H])([H])C(=O)C([H])([H])N([H])c3c([H])c(N([H])C(=O)N4C([H])([H])C([H])([H])C([H])([H])C([H])(n5nc(-c6c([H])c([H])c(Oc7c([H])c([H])c(F)c([H])c7F)c([H])c6[H])c(C(=O)N([H])[H])c5N([H])[H])C4([H])[H])c(F)c(F)c3F)c([H])c([H])c2C1([H])[H]

>  <smiles>  (44) 
[H]c1c([H])c([H])c2c(c1[H])C([H])([H])C([H])([H])C([H])([H])C2([H])N([H])C(=O)C1([H])N(C(=O)C([H])(N([H])C(=O)C([H])(N([H])C([H])([H])[H])C([H])([H])[H])C(C([H])([H])[H])(C([H])([H])[H])C([H])([H])[H])C([H])([H])c2c([H])c(OC([H])([H])C(=O)C([H])([H])C(=O)C([H])([H])N([H])c3c([H])c(N([H])C(=O)N4C([H])([H])C([H])([H])C([H])([H])C([H])(n5nc(-c6c([H])c([H])c(Oc7c([H])c([H])c(F)c([H])c7F)c([H])c6[H])c(C(=O)N([H])[H])c5N([H])[H])C4([H])[H])c(F)c(F)c3F)c([H])c([H])c2C1([H])[H]

$$$$
45:0:0
     RDKit          3D

 98106  0  0  1  0  0  0  0  0999 V2000
  -29.9830  -23.5090   20.6670 C   0  0  0  0  0  3  0  0  0  0  0  0
  -30.6360  -21.1900   21.3250 C   0  0  0  0  0  0  0  0  0  0  0  0
  -29.7850  -22.0370   20.7140 N   0  0  0  0  0  0  0  0  0  0  0  0
  -31.5500  -21.6040   22.0440 O   0  0  0  0  0  0  0  0  0  0  0  0
  -29.0350  -21.6390   20.1660 H   0  0  0  0  0  0  0  0  0  0  0  0
  -31.5020  -17.5090   20.7450 C   0  0  0  0  0  3  0  0  0  0  0  0
  -29.1410  -17.7950   21.1060 C   0  0  0  0  0  3  0  0  0  0  0  0
  -30.2260  -16.9150   20.8940 C   0  0  0  0  0  0  0  0  0  0  0  0
  -31.6340  -18.9090   20.8370 C   0  0  0  0  0  0  0  0  0  0  0  0
  -30.4830  -19.7020   21.0650 C   0  0  0  0  0  0  0  0  0  0  0  0
  -29.2500  -19.1450   21.1800 N   0  0  0  0  0  0  0  0  0  0  0  0
  -32.8640  -19.4660   20.7110 F   0  0  0  0  0  0  0  0  0  0  0  0
  -30.6760  -14.5100   20.2530 C   0  0  0  0  0  0  0  0  0  0  0  0
  -30.3350  -12.3870   19.0420 C   0  0  0  0  0  2  0  0  0  0  0  0
  -29.3470  -12.6330   17.8810 C   0  0  0  0  0  2  0  0  0  0  0  0
  -27.8890  -12.4900   18.3590 C   0  0  0  0  0  2  0  0  0  0  0  0
  -27.6070  -13.2850   19.6620 C   0  0  0  0  0  3  0  0  0  0  0  0
  -28.7000  -13.0140   20.7210 C   0  0  0  0  0  2  0  0  0  0  0  0
  -30.0040  -13.3350   20.1180 N   0  0  0  0  0  0  0  0  0  0  0  0
  -31.7810  -14.7020   19.7390 O   0  0  0  0  0  0  0  0  0  0  0  0
  -29.9810  -15.4970   20.8610 N   0  0  0  0  0  0  0  0  0  0  0  0
  -29.0820  -15.1990   21.2110 H   0  0  0  0  0  0  0  0  0  0  0  0
  -25.2390  -13.8910   20.4660 C   0  0  0  0  0  0  0  0  0  0  0  0
  -24.1790  -13.1180   20.8570 C   0  0  0  0  0  0  0  0  0  0  0  0
  -24.6310  -11.7650   20.7810 C   0  0  0  0  0  0  0  0  0  0  0  0
  -26.2690  -13.0090   20.1800 N   0  0  0  0  0  0  0  0  0  0  0  0
  -25.9080  -11.7240   20.4260 N   0  0  0  0  0  0  0  0  0  0  0  0
  -23.9050  -10.5030   20.9710 C   0  0  0  0  0  0  0  0  0  0  0  0
  -24.3340   -9.5370   21.9070 C   0  0  0  0  0  3  0  0  0  0  0  0
  -23.6100   -8.3380   22.0840 C   0  0  0  0  0  3  0  0  0  0  0  0
  -22.4410   -8.0980   21.3230 C   0  0  0  0  0  0  0  0  0  0  0  0
  -22.0320   -9.0530   20.3760 C   0  0  0  0  0  3  0  0  0  0  0  0
  -22.7570  -10.2420   20.1970 C   0  0  0  0  0  3  0  0  0  0  0  0
  -21.6860   -6.9530   21.4090 O   0  0  0  0  0  0  0  0  0  0  0  0
  -21.5910   -6.2400   22.5770 C   0  0  0  0  0  0  0  0  0  0  0  0
  -21.0900   -6.8180   23.7640 C   0  0  0  0  0  3  0  0  0  0  0  0
  -20.9430   -6.0320   24.9240 C   0  0  0  0  0  3  0  0  0  0  0  0
  -21.2860   -4.6680   24.8980 C   0  0  0  0  0  0  0  0  0  0  0  0
  -21.7800   -4.0890   23.7140 C   0  0  0  0  0  3  0  0  0  0  0  0
  -21.9290   -4.8720   22.5560 C   0  0  0  0  0  0  0  0  0  0  0  0
  -22.3840   -4.3040   21.4140 F   0  0  0  0  0  0  0  0  0  0  0  0
  -21.1380   -3.9090   26.0090 F   0  0  0  0  0  0  0  0  0  0  0  0
  -22.7960  -13.5970   21.1880 C   0  0  0  0  0  0  0  0  0  0  0  0
  -22.0920  -12.8830   22.0600 N   0  0  0  0  0  0  0  0  0  0  0  0
  -22.3470  -14.6380   20.7090 O   0  0  0  0  0  0  0  0  0  0  0  0
  -22.4680  -12.0390   22.4660 H   0  0  0  0  0  0  0  0  0  0  0  0
  -21.1670  -13.1870   22.3280 H   0  0  0  0  0  0  0  0  0  0  0  0
  -25.4070  -15.2650   20.3100 N   0  0  0  0  0  0  0  0  0  0  0  0
  -24.6470  -15.9220   20.4470 H   0  0  0  0  0  0  0  0  0  0  0  0
  -26.2390  -15.7000   19.9330 H   0  0  0  0  0  0  0  0  0  0  0  0
  -30.9550  -23.8950   19.5250 C   0  0  2  0  0  0  0  0  0  0  0  0
  -32.1190  -23.2550   19.6370 F   0  0  0  0  0  0  0  0  0  0  0  0
  -31.2080  -25.2050   19.5420 F   0  0  0  0  0  0  0  0  0  0  0  0
  -30.4200  -23.5910   18.3400 F   0  0  0  0  0  0  0  0  0  0  0  0
  -28.6610  -24.3150   20.6080 C   0  0  0  0  0  0  0  0  0  0  0  0
  -27.6060  -23.8310   20.1790 O   0  0  0  0  0  0  0  0  0  0  0  0
  -28.6800  -25.7700   21.1400 C   0  0  0  0  0  2  0  0  0  0  0  0
  -28.4920  -26.7300   20.0870 O   0  0  0  0  0  0  0  0  0  0  0  0
  -24.5930  -31.8610   23.1890 C   0  0  0  0  0  0  0  0  0  0  0  0
  -27.3210  -27.4500   20.1410 C   0  0  0  0  0  0  0  0  0  0  0  0
  -23.4210  -30.4550   21.5230 C   0  0  0  0  0  3  0  0  0  0  0  0
  -24.9100  -28.9250   20.1240 C   0  0  0  0  0  0  0  0  0  0  0  0
  -25.9450  -30.8350   21.3650 C   0  0  0  0  0  2  0  0  0  0  0  0
  -26.0550  -29.4630   20.7300 C   0  0  0  0  0  0  0  0  0  0  0  0
  -27.2640  -28.7300   20.7380 C   0  0  0  0  0  3  0  0  0  0  0  0
  -26.1640  -26.9240   19.5320 C   0  0  0  0  0  3  0  0  0  0  0  0
  -24.9600  -27.6540   19.5240 C   0  0  0  0  0  3  0  0  0  0  0  0
  -23.6600  -29.7750   20.1480 C   0  0  0  0  0  2  0  0  0  0  0  0
  -24.6700  -31.0660   22.0840 N   0  0  0  0  0  0  0  0  0  0  0  0
  -23.5020  -32.1190   23.7160 O   0  0  0  0  0  0  0  0  0  0  0  0
  -22.7630  -29.4280   22.4710 C   0  0  0  0  0  0  0  0  0  0  0  0
  -21.4380  -29.2490   22.3350 N   0  0  0  0  0  0  0  0  0  0  0  0
  -23.4410  -28.7940   23.2850 O   0  0  0  0  0  0  0  0  0  0  0  0
  -20.9520  -29.8140   21.6540 H   0  0  0  0  0  0  0  0  0  0  0  0
  -18.0570  -28.0720   22.8240 C   0  0  0  0  0  0  0  0  0  0  0  0
  -20.6160  -28.3070   23.0940 C   0  0  0  0  0  3  0  0  0  0  0  0
  -20.7060  -26.8830   22.4970 C   0  0  0  0  0  2  0  0  0  0  0  0
  -19.6010  -26.5850   21.4790 C   0  0  0  0  0  2  0  0  0  0  0  0
  -18.2200  -26.7340   22.1240 C   0  0  0  0  0  2  0  0  0  0  0  0
  -19.1820  -28.8190   23.2640 C   0  0  0  0  0  0  0  0  0  0  0  0
  -18.9740  -30.0750   23.8720 C   0  0  0  0  0  3  0  0  0  0  0  0
  -17.6730  -30.5840   24.0480 C   0  0  0  0  0  3  0  0  0  0  0  0
  -16.5630  -29.8330   23.6240 C   0  0  0  0  0  3  0  0  0  0  0  0
  -16.7550  -28.5790   23.0180 C   0  0  0  0  0  3  0  0  0  0  0  0
  -25.8650  -32.5010   23.8290 C   0  0  0  0  0  3  0  0  0  0  0  0
  -25.5410  -33.8940   24.1620 N   0  0  0  0  0  0  0  0  0  0  0  0
  -25.8670  -34.9510   23.4060 C   0  0  0  0  0  0  0  0  0  0  0  0
  -26.5420  -34.8570   22.3770 O   0  0  0  0  0  0  0  0  0  0  0  0
  -24.9520  -34.0430   24.9680 H   0  0  0  0  0  0  0  0  0  0  0  0
  -24.1260  -36.7260   23.0390 C   0  0  0  0  0  1  0  0  0  0  0  0
  -25.3620  -36.3330   23.8630 C   0  0  0  0  0  3  0  0  0  0  0  0
  -27.4780  -37.2340   24.7210 C   0  0  0  0  0  1  0  0  0  0  0  0
  -26.3850  -37.3970   23.7660 N   0  0  0  0  0  0  0  0  0  0  0  0
  -25.9680  -38.3120   23.9150 H   0  0  0  0  0  0  0  0  0  0  0  0
  -26.3750  -31.7280   25.1080 C   0  0  1  0  0  0  0  0  0  0  0  0
  -25.2730  -31.4720   26.1630 C   0  0  0  0  0  1  0  0  0  0  0  0
  -26.9770  -30.3590   24.7140 C   0  0  0  0  0  1  0  0  0  0  0  0
  -27.5100  -32.5300   25.7870 C   0  0  0  0  0  1  0  0  0  0  0  0
  1 55  1  0
  1  3  1  0
  2  4  2  0
  3  2  1  0
  5  3  1  0
  6  9  2  0
  6  8  1  0
  7 11  1  0
  8  7  2  0
  9 10  1  0
 10 11  2  0
 10  2  1  0
 12  9  1  0
 13 21  1  0
 14 19  1  0
 15 16  1  0
 15 14  1  0
 17 16  1  0
 17 26  1  0
 17 18  1  0
 19 13  1  0
 19 18  1  0
 20 13  2  0
 21  8  1  0
 21 22  1  0
 23 24  2  0
 24 43  1  0
 25 24  1  0
 25 28  1  0
 26 27  1  0
 26 23  1  0
 27 25  2  0
 28 29  1  0
 29 30  2  0
 31 34  1  0
 31 30  1  0
 32 31  2  0
 33 32  1  0
 33 28  2  0
 34 35  1  0
 35 36  1  0
 36 37  2  0
 38 37  1  0
 38 42  1  0
 39 38  2  0
 40 35  2  0
 40 39  1  0
 41 40  1  0
 43 44  1  0
 44 47  1  0
 44 46  1  0
 45 43  2  0
 48 49  1  0
 48 23  1  0
 50 48  1  0
 51 53  1  6
 51 52  1  0
 51  1  1  0
 54 51  1  0
 55 57  1  0
 56 55  2  0
 58 60  1  0
 58 57  1  0
 59 70  2  0
 60 65  1  0
 61 69  1  0
 61 71  1  0
 62 68  1  0
 62 64  1  0
 63 69  1  0
 64 65  2  0
 64 63  1  0
 66 60  2  0
 67 66  1  0
 67 62  2  0
 68 61  1  0
 69 59  1  0
 71 73  2  0
 72 71  1  0
 74 72  1  0
 75 84  2  0
 75 80  1  0
 76 72  1  0
 76 80  1  0
 77 76  1  0
 78 79  1  0
 78 77  1  0
 79 75  1  0
 80 81  2  0
 81 82  1  0
 83 82  2  0
 84 83  1  0
 85 59  1  0
 85 86  1  0
 85 95  1  0
 86 89  1  0
 87 91  1  0
 87 86  1  0
 88 87  2  0
 91 90  1  0
 93 91  1  0
 93 94  1  0
 93 92  1  0
 95 98  1  1
 95 96  1  0
 97 95  1  0
M  ISO  4  13 100  21 100  57 101  58 101
M  END
>  <TORSDO>  (45) 
F 21

>  <SCORE>  (45) 
-13.549

>  <name>  (45) 
45

>  <ligand_id>  (45) 
45

>  <original_smiles>  (45) 
[H]c1nc(C(=O)N([H])C([H])(C(=O)C([H])([H])Oc2c([H])c([H])c3c(c2[H])C([H])([H])N(C(=O)C([H])(N([H])C(=O)C([H])(N([H])C([H])([H])[H])C([H])([H])[H])C(C([H])([H])[H])(C([H])([H])[H])C([H])([H])[H])C([H])(C(=O)N([H])C2([H])c4c([H])c([H])c([H])c([H])c4C([H])([H])C([H])([H])C2([H])[H])C3([H])[H])C(F)(F)F)c(F)c([H])c1N([H])C(=O)N1C([H])([H])C([H])([H])C([H])([H])C([H])(n2nc(-c3c([H])c([H])c(Oc4c([H])c([H])c(F)c([H])c4F)c([H])c3[H])c(C(=O)N([H])[H])c2N([H])[H])C1([H])[H]

>  <smiles>  (45) 
[H]c1nc(C(=O)N([H])C([H])(C(=O)C([H])([H])Oc2c([H])c([H])c3c(c2[H])C([H])([H])N(C(=O)C([H])(N([H])C(=O)C([H])(N([H])C([H])([H])[H])C([H])([H])[H])C(C([H])([H])[H])(C([H])([H])[H])C([H])([H])[H])C([H])(C(=O)N([H])C2([H])c4c([H])c([H])c([H])c([H])c4C([H])([H])C([H])([H])C2([H])[H])C3([H])[H])C(F)(F)F)c(F)c([H])c1N([H])C(=O)N1C([H])([H])C([H])([H])C([H])([H])C([H])(n2nc(-c3c([H])c([H])c(Oc4c([H])c([H])c(F)c([H])c4F)c([H])c3[H])c(C(=O)N([H])[H])c2N([H])[H])C1([H])[H]

$$$$
46:0:0
     RDKit          3D

 96104  0  0  1  0  0  0  0  0999 V2000
  -29.4910  -20.7340   21.2230 C   0  0  0  0  0  0  0  0  0  0  0  0
  -29.4640  -21.9370   20.6070 N   0  0  0  0  0  0  0  0  0  0  0  0
  -29.4630  -20.6350   22.4510 O   0  0  0  0  0  0  0  0  0  0  0  0
  -29.4380  -21.9230   19.5930 H   0  0  0  0  0  0  0  0  0  0  0  0
  -29.7850  -18.1970   20.9460 C   0  0  0  0  0  3  0  0  0  0  0  0
  -29.9260  -17.1590   18.7480 C   0  0  0  0  0  3  0  0  0  0  0  0
  -29.6240  -19.4900   20.3540 C   0  0  0  0  0  0  0  0  0  0  0  0
  -29.9450  -17.0230   20.1570 C   0  0  0  0  0  0  0  0  0  0  0  0
  -29.7450  -18.4150   18.1490 C   0  0  0  0  0  0  0  0  0  0  0  0
  -29.5880  -19.5700   18.9370 C   0  0  0  0  0  0  0  0  0  0  0  0
  -29.7070  -18.5130   16.7980 F   0  0  0  0  0  0  0  0  0  0  0  0
  -29.3950  -20.7480   18.2950 F   0  0  0  0  0  0  0  0  0  0  0  0
  -30.7140  -14.6620   20.2240 C   0  0  0  0  0  0  0  0  0  0  0  0
  -30.3930  -12.4770   19.1270 C   0  0  0  0  0  2  0  0  0  0  0  0
  -29.4190  -12.6790   17.9460 C   0  0  0  0  0  2  0  0  0  0  0  0
  -27.9620  -12.5290   18.4210 C   0  0  0  0  0  2  0  0  0  0  0  0
  -27.6560  -13.3650   19.6950 C   0  0  0  0  0  3  0  0  0  0  0  0
  -28.7480  -13.1730   20.7740 C   0  0  0  0  0  2  0  0  0  0  0  0
  -30.0540  -13.4680   20.1650 N   0  0  0  0  0  0  0  0  0  0  0  0
  -31.8200  -14.8300   19.7030 O   0  0  0  0  0  0  0  0  0  0  0  0
  -30.0340  -15.7120   20.7480 N   0  0  0  0  0  0  0  0  0  0  0  0
  -29.3080  -15.4790   21.4090 H   0  0  0  0  0  0  0  0  0  0  0  0
  -25.2890  -13.9560   20.5080 C   0  0  0  0  0  0  0  0  0  0  0  0
  -24.2330  -13.1770   20.9000 C   0  0  0  0  0  0  0  0  0  0  0  0
  -24.6900  -11.8260   20.8240 C   0  0  0  0  0  0  0  0  0  0  0  0
  -26.3220  -13.0790   20.2180 N   0  0  0  0  0  0  0  0  0  0  0  0
  -25.9680  -11.7920   20.4660 N   0  0  0  0  0  0  0  0  0  0  0  0
  -23.9690  -10.5610   21.0200 C   0  0  0  0  0  0  0  0  0  0  0  0
  -24.4220   -9.5850   21.9340 C   0  0  0  0  0  3  0  0  0  0  0  0
  -23.6990   -8.3840   22.1160 C   0  0  0  0  0  3  0  0  0  0  0  0
  -22.5110   -8.1510   21.3830 C   0  0  0  0  0  0  0  0  0  0  0  0
  -22.0770   -9.1170   20.4580 C   0  0  0  0  0  3  0  0  0  0  0  0
  -22.7990  -10.3090   20.2750 C   0  0  0  0  0  3  0  0  0  0  0  0
  -21.7640   -7.0030   21.4730 O   0  0  0  0  0  0  0  0  0  0  0  0
  -21.7260   -6.2570   22.6250 C   0  0  0  0  0  0  0  0  0  0  0  0
  -21.2750   -6.7990   23.8490 C   0  0  0  0  0  3  0  0  0  0  0  0
  -21.1870   -5.9790   24.9920 C   0  0  0  0  0  3  0  0  0  0  0  0
  -21.5400   -4.6190   24.9100 C   0  0  0  0  0  0  0  0  0  0  0  0
  -21.9820   -4.0760   23.6920 C   0  0  0  0  0  3  0  0  0  0  0  0
  -22.0740   -4.8930   22.5520 C   0  0  0  0  0  0  0  0  0  0  0  0
  -22.4810   -4.3620   21.3730 F   0  0  0  0  0  0  0  0  0  0  0  0
  -21.4480   -3.8270   26.0060 F   0  0  0  0  0  0  0  0  0  0  0  0
  -22.8480  -13.6510   21.2330 C   0  0  0  0  0  0  0  0  0  0  0  0
  -22.1500  -12.9400   22.1090 N   0  0  0  0  0  0  0  0  0  0  0  0
  -22.3950  -14.6890   20.7510 O   0  0  0  0  0  0  0  0  0  0  0  0
  -22.5300  -12.1030   22.5280 H   0  0  0  0  0  0  0  0  0  0  0  0
  -21.2200  -13.2390   22.3690 H   0  0  0  0  0  0  0  0  0  0  0  0
  -25.4490  -15.3300   20.3560 N   0  0  0  0  0  0  0  0  0  0  0  0
  -24.6870  -15.9790   20.5090 H   0  0  0  0  0  0  0  0  0  0  0  0
  -26.2910  -15.7800   20.0220 H   0  0  0  0  0  0  0  0  0  0  0  0
  -30.9540  -23.6720   21.5140 C   0  0  0  0  0  1  0  0  0  0  0  0
  -29.4920  -23.2820   21.2170 C   0  0  0  0  0  3  0  0  0  0  0  0
  -28.7660  -24.3500   20.3420 C   0  0  0  0  0  0  0  0  0  0  0  0
  -28.5120  -24.1540   19.1480 O   0  0  0  0  0  0  0  0  0  0  0  0
  -28.3620  -25.6880   21.0080 C   0  0  0  0  0  2  0  0  0  0  0  0
  -28.3480  -26.7990   20.0800 O   0  0  0  0  0  0  0  0  0  0  0  0
  -24.5820  -31.9510   23.2830 C   0  0  0  0  0  0  0  0  0  0  0  0
  -27.1980  -27.5600   20.1130 C   0  0  0  0  0  0  0  0  0  0  0  0
  -23.3600  -30.5850   21.6180 C   0  0  0  0  0  3  0  0  0  0  0  0
  -24.8070  -29.0720   20.1570 C   0  0  0  0  0  0  0  0  0  0  0  0
  -25.8860  -30.9490   21.4070 C   0  0  0  0  0  2  0  0  0  0  0  0
  -25.9700  -29.5880   20.7430 C   0  0  0  0  0  0  0  0  0  0  0  0
  -27.1740  -28.8420   20.7140 C   0  0  0  0  0  3  0  0  0  0  0  0
  -26.0200  -27.0600   19.5220 C   0  0  0  0  0  3  0  0  0  0  0  0
  -24.8260  -27.8080   19.5420 C   0  0  0  0  0  3  0  0  0  0  0  0
  -23.5620  -29.9290   20.2260 C   0  0  0  0  0  2  0  0  0  0  0  0
  -24.6270  -31.1750   22.1620 N   0  0  0  0  0  0  0  0  0  0  0  0
  -23.5050  -32.2140   23.8380 O   0  0  0  0  0  0  0  0  0  0  0  0
  -22.7130  -29.5480   22.5650 C   0  0  0  0  0  0  0  0  0  0  0  0
  -21.3960  -29.3390   22.4180 N   0  0  0  0  0  0  0  0  0  0  0  0
  -23.3970  -28.9330   23.3890 O   0  0  0  0  0  0  0  0  0  0  0  0
  -20.9040  -29.8810   21.7230 H   0  0  0  0  0  0  0  0  0  0  0  0
  -18.0480  -28.0470   22.8340 C   0  0  0  0  0  0  0  0  0  0  0  0
  -20.5880  -28.3820   23.1740 C   0  0  0  0  0  3  0  0  0  0  0  0
  -20.7470  -26.9520   22.6100 C   0  0  0  0  0  2  0  0  0  0  0  0
  -19.6830  -26.5920   21.5680 C   0  0  0  0  0  2  0  0  0  0  0  0
  -18.2810  -26.6990   22.1720 C   0  0  0  0  0  2  0  0  0  0  0  0
  -19.1310  -28.8440   23.2910 C   0  0  0  0  0  0  0  0  0  0  0  0
  -18.8580  -30.1030   23.8680 C   0  0  0  0  0  3  0  0  0  0  0  0
  -17.5350  -30.5670   23.9950 C   0  0  0  0  0  3  0  0  0  0  0  0
  -16.4660  -29.7670   23.5540 C   0  0  0  0  0  3  0  0  0  0  0  0
  -16.7230  -28.5110   22.9780 C   0  0  0  0  0  3  0  0  0  0  0  0
  -25.8750  -32.5680   23.9040 C   0  0  0  0  0  3  0  0  0  0  0  0
  -26.3750  -31.8010   25.1910 C   0  0  1  0  0  0  0  0  0  0  0  0
  -25.2730  -31.5920   26.2530 C   0  0  0  0  0  1  0  0  0  0  0  0
  -26.9370  -30.4080   24.8160 C   0  0  0  0  0  1  0  0  0  0  0  0
  -27.5290  -32.5850   25.8560 C   0  0  0  0  0  1  0  0  0  0  0  0
  -25.5850  -33.9740   24.2160 N   0  0  0  0  0  0  0  0  0  0  0  0
  -25.9530  -35.0120   23.4520 C   0  0  0  0  0  0  0  0  0  0  0  0
  -26.6390  -34.8850   22.4340 O   0  0  0  0  0  0  0  0  0  0  0  0
  -24.9810  -34.1470   25.0040 H   0  0  0  0  0  0  0  0  0  0  0  0
  -24.2780  -36.8420   23.0340 C   0  0  0  0  0  1  0  0  0  0  0  0
  -25.4830  -36.4120   23.8870 C   0  0  0  0  0  3  0  0  0  0  0  0
  -27.6050  -37.2570   24.7900 C   0  0  0  0  0  1  0  0  0  0  0  0
  -26.5420  -37.4410   23.8050 N   0  0  0  0  0  0  0  0  0  0  0  0
  -26.1490  -38.3700   23.9310 H   0  0  0  0  0  0  0  0  0  0  0  0
  1  3  2  0
  2 52  1  0
  2  1  1  0
  4  2  1  0
  6  8  1  0
  7  5  1  0
  7  1  1  0
  8 21  1  0
  8  5  2  0
  9  6  2  0
  9 10  1  0
 10  7  2  0
 11  9  1  0
 12 10  1  0
 13 21  1  0
 14 19  1  0
 15 16  1  0
 15 14  1  0
 17 16  1  0
 17 26  1  0
 17 18  1  0
 19 13  1  0
 19 18  1  0
 20 13  2  0
 21 22  1  0
 23 24  2  0
 24 43  1  0
 25 24  1  0
 25 28  1  0
 26 27  1  0
 26 23  1  0
 27 25  2  0
 28 29  1  0
 29 30  2  0
 31 34  1  0
 31 30  1  0
 32 31  2  0
 33 32  1  0
 33 28  2  0
 34 35  1  0
 35 36  1  0
 36 37  2  0
 38 37  1  0
 38 42  1  0
 39 38  2  0
 40 35  2  0
 40 39  1  0
 41 40  1  0
 43 44  1  0
 44 47  1  0
 44 46  1  0
 45 43  2  0
 48 23  1  0
 48 49  1  0
 50 48  1  0
 52 51  1  0
 53 55  1  0
 53 52  1  0
 54 53  2  0
 56 58  1  0
 56 55  1  0
 57 68  2  0
 58 63  1  0
 59 67  1  0
 59 69  1  0
 60 66  1  0
 60 62  1  0
 61 67  1  0
 62 61  1  0
 63 62  2  0
 64 65  1  0
 64 58  2  0
 65 60  2  0
 66 59  1  0
 67 57  1  0
 69 71  2  0
 70 69  1  0
 72 70  1  0
 73 82  2  0
 73 78  1  0
 74 70  1  0
 74 78  1  0
 75 74  1  0
 76 77  1  0
 76 75  1  0
 77 73  1  0
 78 79  2  0
 79 80  1  0
 81 80  2  0
 82 81  1  0
 83 57  1  0
 83 88  1  0
 83 84  1  0
 84 87  1  1
 84 85  1  0
 86 84  1  0
 88 91  1  0
 89 93  1  0
 89 88  1  0
 90 89  2  0
 93 92  1  0
 95 93  1  0
 95 96  1  0
 95 94  1  0
M  ISO  4  13 100  21 100  55 101  56 101
M  END
>  <TORSDO>  (46) 
F 20

>  <SCORE>  (46) 
-13.666

>  <name>  (46) 
46

>  <ligand_id>  (46) 
46

>  <original_smiles>  (46) 
[H]c1c([H])c([H])c2c(c1[H])C([H])([H])C([H])([H])C([H])([H])C2([H])N([H])C(=O)C1([H])N(C(=O)C([H])(N([H])C(=O)C([H])(N([H])C([H])([H])[H])C([H])([H])[H])C(C([H])([H])[H])(C([H])([H])[H])C([H])([H])[H])C([H])([H])c2c([H])c(OC([H])([H])C(=O)C([H])(N([H])C(=O)c3c([H])c(N([H])C(=O)N4C([H])([H])C([H])([H])C([H])([H])C([H])(n5nc(-c6c([H])c([H])c(Oc7c([H])c([H])c(F)c([H])c7F)c([H])c6[H])c(C(=O)N([H])[H])c5N([H])[H])C4([H])[H])c([H])c(F)c3F)C([H])([H])[H])c([H])c([H])c2C1([H])[H]

>  <smiles>  (46) 
[H]c1c([H])c([H])c2c(c1[H])C([H])([H])C([H])([H])C([H])([H])C2([H])N([H])C(=O)C1([H])N(C(=O)C([H])(N([H])C(=O)C([H])(N([H])C([H])([H])[H])C([H])([H])[H])C(C([H])([H])[H])(C([H])([H])[H])C([H])([H])[H])C([H])([H])c2c([H])c(OC([H])([H])C(=O)C([H])(N([H])C(=O)c3c([H])c(N([H])C(=O)N4C([H])([H])C([H])([H])C([H])([H])C([H])(n5nc(-c6c([H])c([H])c(Oc7c([H])c([H])c(F)c([H])c7F)c([H])c6[H])c(C(=O)N([H])[H])c5N([H])[H])C4([H])[H])c([H])c(F)c3F)C([H])([H])[H])c([H])c([H])c2C1([H])[H]

$$$$
47:0:0
     RDKit          3D

 97106  0  0  1  0  0  0  0  0999 V2000
  -31.7170  -20.8560   20.4050 C   0  0  0  0  0  2  0  0  0  0  0  0
  -31.1050  -23.3340   20.5730 C   0  0  0  0  0  2  0  0  0  0  0  0
  -30.3770  -20.6340   19.6810 C   0  0  0  0  0  3  0  0  0  0  0  0
  -29.7750  -23.0560   19.8280 C   0  0  0  0  0  3  0  0  0  0  0  0
  -32.1980  -22.3080   20.2030 C   0  0  1  0  0  0  0  0  0  0  0  0
  -29.3330  -21.6340   20.0960 N   0  0  0  0  0  4  0  0  0  0  0  0
  -33.2800  -22.5210   20.9530 F   0  0  0  0  0  0  0  0  0  0  0  0
  -32.5400  -22.4870   18.9270 F   0  0  0  0  0  0  0  0  0  0  0  0
  -29.1180  -21.5220   21.0750 H   0  0  0  0  0  0  0  0  0  0  0  0
  -28.4860  -21.4600   19.5810 H   0  0  0  0  0  0  0  0  0  0  0  0
  -29.0230  -16.9600   18.9590 C   0  0  0  0  0  3  0  0  0  0  0  0
  -29.6910  -16.9160   20.1560 C   0  0  0  0  0  0  0  0  0  0  0  0
  -29.8450  -19.1910   19.6930 C   0  0  0  0  0  0  0  0  0  0  0  0
  -30.0950  -18.2070   20.6020 N   0  0  0  0  0  0  0  0  0  0  0  0
  -28.9600  -18.5720   18.2980 S   0  0  0  0  0  0  0  0  0  0  0  0
  -30.5690  -14.6120   20.4820 C   0  0  0  0  0  0  0  0  0  0  0  0
  -30.3400  -12.3980   19.4140 C   0  0  0  0  0  2  0  0  0  0  0  0
  -29.4150  -12.5640   18.1880 C   0  0  0  0  0  2  0  0  0  0  0  0
  -27.9350  -12.4150   18.5960 C   0  0  0  0  0  2  0  0  0  0  0  0
  -27.5660  -13.2580   19.8460 C   0  0  0  0  0  3  0  0  0  0  0  0
  -28.6110  -13.0830   20.9720 C   0  0  0  0  0  2  0  0  0  0  0  0
  -29.9350  -13.4020   20.4150 N   0  0  0  0  0  0  0  0  0  0  0  0
  -31.7230  -14.7650   20.0720 O   0  0  0  0  0  0  0  0  0  0  0  0
  -29.8120  -15.6730   20.8750 N   0  0  0  0  0  0  0  0  0  0  0  0
  -28.9610  -15.3820   21.3290 H   0  0  0  0  0  0  0  0  0  0  0  0
  -25.1550  -13.8520   20.5170 C   0  0  0  0  0  0  0  0  0  0  0  0
  -24.0860  -13.0750   20.8750 C   0  0  0  0  0  0  0  0  0  0  0  0
  -24.5560  -11.7270   20.8610 C   0  0  0  0  0  0  0  0  0  0  0  0
  -26.2090  -12.9750   20.3070 N   0  0  0  0  0  0  0  0  0  0  0  0
  -25.8520  -11.6920   20.5730 N   0  0  0  0  0  0  0  0  0  0  0  0
  -23.8340  -10.4610   21.0500 C   0  0  0  0  0  0  0  0  0  0  0  0
  -24.2620   -9.4970   21.9910 C   0  0  0  0  0  3  0  0  0  0  0  0
  -23.5400   -8.2980   22.1670 C   0  0  0  0  0  3  0  0  0  0  0  0
  -22.3730   -8.0530   21.4030 C   0  0  0  0  0  0  0  0  0  0  0  0
  -21.9640   -9.0050   20.4530 C   0  0  0  0  0  3  0  0  0  0  0  0
  -22.6870  -10.1960   20.2740 C   0  0  0  0  0  3  0  0  0  0  0  0
  -21.6230   -6.9050   21.4870 O   0  0  0  0  0  0  0  0  0  0  0  0
  -21.5750   -6.1590   22.6370 C   0  0  0  0  0  0  0  0  0  0  0  0
  -21.1460   -6.7110   23.8650 C   0  0  0  0  0  3  0  0  0  0  0  0
  -21.0460   -5.8920   25.0070 C   0  0  0  0  0  3  0  0  0  0  0  0
  -21.3630   -4.5230   24.9240 C   0  0  0  0  0  0  0  0  0  0  0  0
  -21.7860   -3.9710   23.7010 C   0  0  0  0  0  3  0  0  0  0  0  0
  -21.8880   -4.7880   22.5610 C   0  0  0  0  0  0  0  0  0  0  0  0
  -22.2750   -4.2480   21.3810 F   0  0  0  0  0  0  0  0  0  0  0  0
  -21.2590   -3.7350   26.0190 F   0  0  0  0  0  0  0  0  0  0  0  0
  -22.6820  -13.5460   21.1230 C   0  0  0  0  0  0  0  0  0  0  0  0
  -21.9430  -12.8540   21.9810 N   0  0  0  0  0  0  0  0  0  0  0  0
  -22.2480  -14.5670   20.5920 O   0  0  0  0  0  0  0  0  0  0  0  0
  -22.3030  -12.0260   22.4350 H   0  0  0  0  0  0  0  0  0  0  0  0
  -21.0000  -13.1540   22.1880 H   0  0  0  0  0  0  0  0  0  0  0  0
  -25.3130  -15.2220   20.3310 N   0  0  0  0  0  0  0  0  0  0  0  0
  -24.5340  -15.8640   20.4160 H   0  0  0  0  0  0  0  0  0  0  0  0
  -26.1610  -15.6740   20.0130 H   0  0  0  0  0  0  0  0  0  0  0  0
  -28.6930  -24.1280   20.2280 C   0  0  0  0  0  0  0  0  0  0  0  0
  -27.8790  -23.9220   21.1340 O   0  0  0  0  0  0  0  0  0  0  0  0
  -28.6650  -25.4860   19.4470 C   0  0  0  0  0  2  0  0  0  0  0  0
  -28.4370  -26.6770   20.2630 O   0  0  0  0  0  0  0  0  0  0  0  0
  -24.6000  -31.9100   23.2710 C   0  0  0  0  0  0  0  0  0  0  0  0
  -27.2580  -27.4170   20.2010 C   0  0  0  0  0  0  0  0  0  0  0  0
  -23.4010  -30.5040   21.6300 C   0  0  0  0  0  3  0  0  0  0  0  0
  -24.8600  -28.9600   20.2070 C   0  0  0  0  0  0  0  0  0  0  0  0
  -25.9310  -30.8490   21.4430 C   0  0  0  0  0  2  0  0  0  0  0  0
  -26.0180  -29.4740   20.8000 C   0  0  0  0  0  0  0  0  0  0  0  0
  -27.2130  -28.7080   20.7940 C   0  0  0  0  0  3  0  0  0  0  0  0
  -26.0710  -26.9260   19.6080 C   0  0  0  0  0  3  0  0  0  0  0  0
  -24.8850  -27.6890   19.6080 C   0  0  0  0  0  3  0  0  0  0  0  0
  -23.6150  -29.8200   20.2530 C   0  0  0  0  0  2  0  0  0  0  0  0
  -24.6620  -31.1050   22.1720 N   0  0  0  0  0  0  0  0  0  0  0  0
  -23.5170  -32.1840   23.8070 O   0  0  0  0  0  0  0  0  0  0  0  0
  -22.7450  -29.4860   22.5930 C   0  0  0  0  0  0  0  0  0  0  0  0
  -21.4220  -29.2930   22.4560 N   0  0  0  0  0  0  0  0  0  0  0  0
  -23.4250  -28.8710   23.4190 O   0  0  0  0  0  0  0  0  0  0  0  0
  -20.9340  -29.8410   21.7610 H   0  0  0  0  0  0  0  0  0  0  0  0
  -18.0580  -28.0550   22.9170 C   0  0  0  0  0  0  0  0  0  0  0  0
  -20.6070  -28.3540   23.2260 C   0  0  0  0  0  3  0  0  0  0  0  0
  -20.7390  -26.9170   22.6710 C   0  0  0  0  0  2  0  0  0  0  0  0
  -19.6580  -26.5670   21.6420 C   0  0  0  0  0  2  0  0  0  0  0  0
  -18.2640  -26.7000   22.2620 C   0  0  0  0  0  2  0  0  0  0  0  0
  -19.1580  -28.8390   23.3560 C   0  0  0  0  0  0  0  0  0  0  0  0
  -18.9120  -30.1060   23.9270 C   0  0  0  0  0  3  0  0  0  0  0  0
  -17.5970  -30.5890   24.0650 C   0  0  0  0  0  3  0  0  0  0  0  0
  -16.5110  -29.8040   23.6440 C   0  0  0  0  0  3  0  0  0  0  0  0
  -16.7420  -28.5380   23.0760 C   0  0  0  0  0  3  0  0  0  0  0  0
  -25.8830  -32.5470   23.8930 C   0  0  0  0  0  3  0  0  0  0  0  0
  -26.3950  -31.7870   25.1780 C   0  0  1  0  0  0  0  0  0  0  0  0
  -25.3000  -31.5620   26.2460 C   0  0  0  0  0  1  0  0  0  0  0  0
  -26.9770  -30.4040   24.8000 C   0  0  0  0  0  1  0  0  0  0  0  0
  -27.5470  -32.5840   25.8360 C   0  0  0  0  0  1  0  0  0  0  0  0
  -25.5740  -33.9470   24.2100 N   0  0  0  0  0  0  0  0  0  0  0  0
  -25.9110  -34.9950   23.4440 C   0  0  0  0  0  0  0  0  0  0  0  0
  -26.5850  -34.8820   22.4160 O   0  0  0  0  0  0  0  0  0  0  0  0
  -24.9760  -34.1100   25.0080 H   0  0  0  0  0  0  0  0  0  0  0  0
  -24.1870  -36.7870   23.0680 C   0  0  0  0  0  1  0  0  0  0  0  0
  -25.4240  -36.3870   23.8890 C   0  0  0  0  0  3  0  0  0  0  0  0
  -27.5560  -37.2760   24.7210 C   0  0  0  0  0  1  0  0  0  0  0  0
  -26.4580  -37.4380   23.7710 N   0  0  0  0  0  0  0  0  0  0  0  0
  -26.0540  -38.3590   23.9100 H   0  0  0  0  0  0  0  0  0  0  0  0
  3 13  1  0
  3  6  1  0
  3  1  1  0
  4  6  1  0
  4 54  1  0
  4  2  1  0
  5  1  1  0
  5  2  1  0
  5  7  1  1
  6  9  1  0
  8  5  1  0
 10  6  1  0
 11 12  2  0
 12 14  1  0
 12 24  1  0
 13 14  2  0
 15 11  1  0
 15 13  1  0
 16 24  1  0
 17 22  1  0
 18 19  1  0
 18 17  1  0
 20 19  1  0
 20 29  1  0
 20 21  1  0
 22 16  1  0
 22 21  1  0
 23 16  2  0
 24 25  1  0
 26 27  2  0
 27 46  1  0
 28 27  1  0
 28 31  1  0
 29 26  1  0
 29 30  1  0
 30 28  2  0
 31 32  1  0
 32 33  2  0
 34 37  1  0
 34 33  1  0
 35 34  2  0
 36 35  1  0
 36 31  2  0
 37 38  1  0
 38 39  1  0
 39 40  2  0
 41 40  1  0
 41 45  1  0
 42 41  2  0
 43 38  2  0
 43 42  1  0
 44 43  1  0
 46 47  1  0
 47 50  1  0
 47 49  1  0
 48 46  2  0
 51 52  1  0
 51 26  1  0
 53 51  1  0
 54 55  2  0
 56 54  1  0
 56 57  1  0
 58 69  2  0
 59 57  1  0
 59 64  1  0
 60 68  1  0
 60 70  1  0
 61 67  1  0
 61 63  1  0
 62 68  1  0
 63 62  1  0
 64 63  2  0
 65 59  2  0
 66 65  1  0
 66 61  2  0
 67 60  1  0
 68 58  1  0
 70 72  2  0
 71 70  1  0
 73 71  1  0
 74 83  2  0
 74 79  1  0
 75 71  1  0
 75 79  1  0
 76 75  1  0
 77 78  1  0
 77 76  1  0
 78 74  1  0
 79 80  2  0
 80 81  1  0
 82 81  2  0
 83 82  1  0
 84 58  1  0
 84 89  1  0
 84 85  1  0
 85 88  1  1
 85 86  1  0
 87 85  1  0
 89 92  1  0
 90 94  1  0
 90 89  1  0
 91 90  2  0
 94 93  1  0
 96 94  1  0
 96 97  1  0
 96 95  1  0
M  ISO  4  16 100  24 100  56 101  57 101
M  END
>  <TORSDO>  (47) 
F 19

>  <SCORE>  (47) 
-14.197

>  <name>  (47) 
47

>  <ligand_id>  (47) 
47

>  <original_smiles>  (47) 
[H]c1sc(C2([H])C([H])([H])C(F)(F)C([H])([H])C([H])(C(=O)C([H])([H])Oc3c([H])c([H])c4c(c3[H])C([H])([H])N(C(=O)C([H])(N([H])C(=O)C([H])(N([H])C([H])([H])[H])C([H])([H])[H])C(C([H])([H])[H])(C([H])([H])[H])C([H])([H])[H])C([H])(C(=O)N([H])C3([H])c5c([H])c([H])c([H])c([H])c5C([H])([H])C([H])([H])C3([H])[H])C4([H])[H])[N+]2([H])[H])nc1N([H])C(=O)N1C([H])([H])C([H])([H])C([H])([H])C([H])(n2nc(-c3c([H])c([H])c(Oc4c([H])c([H])c(F)c([H])c4F)c([H])c3[H])c(C(=O)N([H])[H])c2N([H])[H])C1([H])[H]

>  <smiles>  (47) 
[H]c1sc(C2([H])C([H])([H])C(F)(F)C([H])([H])C([H])(C(=O)C([H])([H])Oc3c([H])c([H])c4c(c3[H])C([H])([H])N(C(=O)C([H])(N([H])C(=O)C([H])(N([H])C([H])([H])[H])C([H])([H])[H])C(C([H])([H])[H])(C([H])([H])[H])C([H])([H])[H])C([H])(C(=O)N([H])C3([H])c5c([H])c([H])c([H])c([H])c5C([H])([H])C([H])([H])C3([H])[H])C4([H])[H])[N+]2([H])[H])nc1N([H])C(=O)N1C([H])([H])C([H])([H])C([H])([H])C([H])(n2nc(-c3c([H])c([H])c(Oc4c([H])c([H])c(F)c([H])c4F)c([H])c3[H])c(C(=O)N([H])[H])c2N([H])[H])C1([H])[H]

$$$$
48:0:0
     RDKit          3D

 94102  0  0  1  0  0  0  0  0999 V2000
  -30.7100  -22.0960   19.9700 N   0  0  0  0  0  0  0  0  0  0  0  0
  -31.5880  -22.5530   19.7180 H   0  0  0  0  0  0  0  0  0  0  0  0
  -29.6980  -21.8530   22.3230 O   0  0  0  0  0  0  0  0  0  0  0  0
  -32.2120  -21.6060   21.9850 O   0  0  0  0  0  0  0  0  0  0  0  0
  -30.8360  -21.3710   21.5220 S   0  0  2  0  0  0  0  0  0  0  0  0
  -30.9730  -14.4610   20.1540 C   0  0  0  0  0  0  0  0  0  0  0  0
  -30.6090  -12.3420   18.9360 C   0  0  0  0  0  2  0  0  0  0  0  0
  -29.6230  -12.5950   17.7750 C   0  0  0  0  0  2  0  0  0  0  0  0
  -28.1620  -12.4710   18.2550 C   0  0  0  0  0  2  0  0  0  0  0  0
  -27.8880  -13.2740   19.5530 C   0  0  0  0  0  3  0  0  0  0  0  0
  -28.9760  -12.9830   20.6110 C   0  0  0  0  0  2  0  0  0  0  0  0
  -30.2890  -13.2910   20.0130 N   0  0  0  0  0  0  0  0  0  0  0  0
  -32.0660  -14.6550   19.6070 O   0  0  0  0  0  0  0  0  0  0  0  0
  -29.5120  -18.9150   21.7350 C   0  0  0  0  0  3  0  0  0  0  0  0
  -29.4450  -17.5110   21.5810 C   0  0  0  0  0  3  0  0  0  0  0  0
  -31.6300  -18.8420   20.5960 C   0  0  0  0  0  3  0  0  0  0  0  0
  -30.6340  -19.5990   21.2390 C   0  0  0  0  0  0  0  0  0  0  0  0
  -30.4890  -16.8140   20.9360 C   0  0  0  0  0  0  0  0  0  0  0  0
  -31.5580  -17.4900   20.4460 N   0  0  0  0  0  0  0  0  0  0  0  0
  -30.3120  -15.4020   20.8580 N   0  0  0  0  0  0  0  0  0  0  0  0
  -29.4660  -15.0580   21.2810 H   0  0  0  0  0  0  0  0  0  0  0  0
  -25.5220  -13.9110   20.3460 C   0  0  0  0  0  0  0  0  0  0  0  0
  -24.4550  -13.1500   20.7410 C   0  0  0  0  0  0  0  0  0  0  0  0
  -24.8940  -11.7920   20.6780 C   0  0  0  0  0  0  0  0  0  0  0  0
  -26.5460  -13.0160   20.0700 N   0  0  0  0  0  0  0  0  0  0  0  0
  -26.1720  -11.7360   20.3260 N   0  0  0  0  0  0  0  0  0  0  0  0
  -24.1560  -10.5380   20.8770 C   0  0  0  0  0  0  0  0  0  0  0  0
  -24.5500   -9.5960   21.8510 C   0  0  0  0  0  3  0  0  0  0  0  0
  -23.8140   -8.4050   22.0360 C   0  0  0  0  0  3  0  0  0  0  0  0
  -22.6690   -8.1500   21.2450 C   0  0  0  0  0  0  0  0  0  0  0  0
  -22.2930   -9.0810   20.2620 C   0  0  0  0  0  3  0  0  0  0  0  0
  -23.0300  -10.2620   20.0750 C   0  0  0  0  0  3  0  0  0  0  0  0
  -21.9080   -7.0100   21.3370 O   0  0  0  0  0  0  0  0  0  0  0  0
  -21.7320   -6.3560   22.5300 C   0  0  0  0  0  0  0  0  0  0  0  0
  -21.1530   -6.9910   23.6500 C   0  0  0  0  0  3  0  0  0  0  0  0
  -20.9280   -6.2610   24.8350 C   0  0  0  0  0  3  0  0  0  0  0  0
  -21.2700   -4.8960   24.8990 C   0  0  0  0  0  0  0  0  0  0  0  0
  -21.8410   -4.2620   23.7820 C   0  0  0  0  0  3  0  0  0  0  0  0
  -22.0680   -4.9880   22.6000 C   0  0  0  0  0  0  0  0  0  0  0  0
  -22.5990   -4.3660   21.5200 F   0  0  0  0  0  0  0  0  0  0  0  0
  -21.0460   -4.1940   26.0330 F   0  0  0  0  0  0  0  0  0  0  0  0
  -23.0750  -13.6440   21.0680 C   0  0  0  0  0  0  0  0  0  0  0  0
  -22.3690  -12.9500   21.9530 N   0  0  0  0  0  0  0  0  0  0  0  0
  -22.6330  -14.6790   20.5720 O   0  0  0  0  0  0  0  0  0  0  0  0
  -22.7400  -12.1130   22.3760 H   0  0  0  0  0  0  0  0  0  0  0  0
  -21.4440  -13.2630   22.2130 H   0  0  0  0  0  0  0  0  0  0  0  0
  -25.7030  -15.2810   20.1800 N   0  0  0  0  0  0  0  0  0  0  0  0
  -24.9460  -15.9420   20.3160 H   0  0  0  0  0  0  0  0  0  0  0  0
  -26.5420  -15.7100   19.8110 H   0  0  0  0  0  0  0  0  0  0  0  0
  -29.5330  -22.9220   19.6310 C   0  0  0  0  0  2  0  0  0  0  0  0
  -29.5640  -24.3770   20.1370 C   0  0  0  0  0  0  0  0  0  0  0  0
  -30.5330  -24.8160   20.7700 O   0  0  0  0  0  0  0  0  0  0  0  0
  -28.3360  -25.2380   19.8000 C   0  0  0  0  0  2  0  0  0  0  0  0
  -28.4620  -26.6170   20.2030 O   0  0  0  0  0  0  0  0  0  0  0  0
  -24.6720  -31.8390   23.2480 C   0  0  0  0  0  0  0  0  0  0  0  0
  -27.2980  -27.3670   20.1710 C   0  0  0  0  0  0  0  0  0  0  0  0
  -23.4670  -30.4510   21.5960 C   0  0  0  0  0  3  0  0  0  0  0  0
  -24.9150  -28.9100   20.1760 C   0  0  0  0  0  0  0  0  0  0  0  0
  -26.0000  -30.7840   21.4190 C   0  0  0  0  0  2  0  0  0  0  0  0
  -26.0770  -29.4130   20.7750 C   0  0  0  0  0  0  0  0  0  0  0  0
  -27.2690  -28.6500   20.7720 C   0  0  0  0  0  3  0  0  0  0  0  0
  -26.1120  -26.8900   19.5590 C   0  0  0  0  0  3  0  0  0  0  0  0
  -24.9280  -27.6470   19.5670 C   0  0  0  0  0  3  0  0  0  0  0  0
  -23.6800  -29.7780   20.2150 C   0  0  0  0  0  2  0  0  0  0  0  0
  -24.7310  -31.0390   22.1450 N   0  0  0  0  0  0  0  0  0  0  0  0
  -23.5890  -32.1180   23.7810 O   0  0  0  0  0  0  0  0  0  0  0  0
  -22.8020  -29.4300   22.5490 C   0  0  0  0  0  0  0  0  0  0  0  0
  -21.4840  -29.2280   22.3840 N   0  0  0  0  0  0  0  0  0  0  0  0
  -23.4690  -28.8230   23.3900 O   0  0  0  0  0  0  0  0  0  0  0  0
  -21.0070  -29.7710   21.6780 H   0  0  0  0  0  0  0  0  0  0  0  0
  -18.1180  -27.9680   22.7700 C   0  0  0  0  0  0  0  0  0  0  0  0
  -20.6560  -28.2900   23.1420 C   0  0  0  0  0  3  0  0  0  0  0  0
  -20.8150  -26.8490   22.6040 C   0  0  0  0  0  2  0  0  0  0  0  0
  -19.7630  -26.4780   21.5530 C   0  0  0  0  0  2  0  0  0  0  0  0
  -18.3530  -26.6080   22.1360 C   0  0  0  0  0  2  0  0  0  0  0  0
  -19.2010  -28.7650   23.2280 C   0  0  0  0  0  0  0  0  0  0  0  0
  -18.9300  -30.0370   23.7770 C   0  0  0  0  0  3  0  0  0  0  0  0
  -17.6090  -30.5140   23.8750 C   0  0  0  0  0  3  0  0  0  0  0  0
  -16.5410  -29.7140   23.4340 C   0  0  0  0  0  3  0  0  0  0  0  0
  -16.7960  -28.4440   22.8870 C   0  0  0  0  0  3  0  0  0  0  0  0
  -25.9590  -32.4580   23.8770 C   0  0  0  0  0  3  0  0  0  0  0  0
  -26.4720  -31.6710   25.1450 C   0  0  1  0  0  0  0  0  0  0  0  0
  -25.3760  -31.4210   26.2060 C   0  0  0  0  0  1  0  0  0  0  0  0
  -27.0570  -30.2990   24.7370 C   0  0  0  0  0  1  0  0  0  0  0  0
  -27.6200  -32.4570   25.8200 C   0  0  0  0  0  1  0  0  0  0  0  0
  -25.6560  -33.8540   24.2170 N   0  0  0  0  0  0  0  0  0  0  0  0
  -25.9890  -34.9110   23.4640 C   0  0  0  0  0  0  0  0  0  0  0  0
  -26.6560  -34.8120   22.4310 O   0  0  0  0  0  0  0  0  0  0  0  0
  -25.0650  -34.0050   25.0220 H   0  0  0  0  0  0  0  0  0  0  0  0
  -24.2680  -36.7100   23.1200 C   0  0  0  0  0  1  0  0  0  0  0  0
  -25.5050  -36.2960   23.9320 C   0  0  0  0  0  3  0  0  0  0  0  0
  -27.6360  -37.1700   24.7810 C   0  0  0  0  0  1  0  0  0  0  0  0
  -26.5410  -37.3470   23.8310 N   0  0  0  0  0  0  0  0  0  0  0  0
  -26.1370  -38.2670   23.9790 H   0  0  0  0  0  0  0  0  0  0  0  0
  5  1  1  6
  2  1  1  0
  5  4  2  0
  5  3  2  0
  6 20  1  0
  7 12  1  0
  8  9  1  0
  8  7  1  0
 10  9  1  0
 10 25  1  0
 10 11  1  0
 12  6  1  0
 12 11  1  0
 13  6  2  0
 15 14  1  0
 16 17  1  0
 17  5  1  0
 17 14  2  0
 18 15  2  0
 19 16  2  0
 19 18  1  0
 20 18  1  0
 20 21  1  0
 22 23  2  0
 23 42  1  0
 24 23  1  0
 24 27  1  0
 25 26  1  0
 25 22  1  0
 26 24  2  0
 27 28  1  0
 28 29  2  0
 30 33  1  0
 30 29  1  0
 31 30  2  0
 32 31  1  0
 32 27  2  0
 33 34  1  0
 34 39  2  0
 34 35  1  0
 35 36  2  0
 36 37  1  0
 37 41  1  0
 38 37  2  0
 39 38  1  0
 40 39  1  0
 42 43  1  0
 43 46  1  0
 43 45  1  0
 44 42  2  0
 47 48  1  0
 47 22  1  0
 49 47  1  0
 50  1  1  0
 50 51  1  0
 51 52  2  0
 53 51  1  0
 53 54  1  0
 55 66  2  0
 56 54  1  0
 56 61  1  0
 57 65  1  0
 57 67  1  0
 58 64  1  0
 58 60  1  0
 59 65  1  0
 60 59  1  0
 61 60  2  0
 62 63  1  0
 62 56  2  0
 63 58  2  0
 64 57  1  0
 65 55  1  0
 67 69  2  0
 68 67  1  0
 70 68  1  0
 71 80  2  0
 71 76  1  0
 72 68  1  0
 72 76  1  0
 73 72  1  0
 74 75  1  0
 74 73  1  0
 75 71  1  0
 76 77  2  0
 77 78  1  0
 79 78  2  0
 80 79  1  0
 81 55  1  0
 81 86  1  0
 81 82  1  0
 82 85  1  1
 82 83  1  0
 84 82  1  0
 86 89  1  0
 87 91  1  0
 87 86  1  0
 88 87  2  0
 91 90  1  0
 93 91  1  0
 93 94  1  0
 93 92  1  0
M  ISO  4   6 100  20 100  53 101  54 101
M  END
>  <TORSDO>  (48) 
F 20

>  <SCORE>  (48) 
-12.737

>  <name>  (48) 
48

>  <ligand_id>  (48) 
48

>  <original_smiles>  (48) 
[H]c1nc(N([H])C(=O)N2C([H])([H])C([H])([H])C([H])([H])C([H])(n3nc(-c4c([H])c([H])c(Oc5c([H])c([H])c(F)c([H])c5F)c([H])c4[H])c(C(=O)N([H])[H])c3N([H])[H])C2([H])[H])c([H])c([H])c1S(=O)(=O)N([H])C([H])([H])C(=O)C([H])([H])Oc1c([H])c([H])c2c(c1[H])C([H])([H])N(C(=O)C([H])(N([H])C(=O)C([H])(N([H])C([H])([H])[H])C([H])([H])[H])C(C([H])([H])[H])(C([H])([H])[H])C([H])([H])[H])C([H])(C(=O)N([H])C1([H])c3c([H])c([H])c([H])c([H])c3C([H])([H])C([H])([H])C1([H])[H])C2([H])[H]

>  <smiles>  (48) 
[H]c1nc(N([H])C(=O)N2C([H])([H])C([H])([H])C([H])([H])C([H])(n3nc(-c4c([H])c([H])c(Oc5c([H])c([H])c(F)c([H])c5F)c([H])c4[H])c(C(=O)N([H])[H])c3N([H])[H])C2([H])[H])c([H])c([H])c1S(=O)(=O)N([H])C([H])([H])C(=O)C([H])([H])Oc1c([H])c([H])c2c(c1[H])C([H])([H])N(C(=O)C([H])(N([H])C(=O)C([H])(N([H])C([H])([H])[H])C([H])([H])[H])C(C([H])([H])[H])(C([H])([H])[H])C([H])([H])[H])C([H])(C(=O)N([H])C1([H])c3c([H])c([H])c([H])c([H])c3C([H])([H])C([H])([H])C1([H])[H])C2([H])[H]

$$$$
49:0:0
     RDKit          3D

 96104  0  0  1  0  0  0  0  0999 V2000
  -28.9200  -20.7140   17.6930 C   0  0  0  0  0  0  0  0  0  0  0  0
  -30.9770  -19.4030   17.3560 C   0  0  0  0  0  1  0  0  0  0  0  0
  -29.5320  -19.5210   17.5670 N   0  0  0  0  0  0  0  0  0  0  0  0
  -27.7810  -20.9170   17.2540 O   0  0  0  0  0  0  0  0  0  0  0  0
  -28.7440  -18.2810   17.5770 C   0  0  0  0  0  2  0  0  0  0  0  0
  -30.9200  -14.2350   20.0600 C   0  0  0  0  0  0  0  0  0  0  0  0
  -30.3760  -12.1590   18.8190 C   0  0  0  0  0  2  0  0  0  0  0  0
  -29.4070  -12.5000   17.6700 C   0  0  0  0  0  2  0  0  0  0  0  0
  -27.9490  -12.4570   18.1520 C   0  0  0  0  0  2  0  0  0  0  0  0
  -27.7340  -13.2140   19.4960 C   0  0  0  0  0  3  0  0  0  0  0  0
  -28.8300  -12.8900   20.5300 C   0  0  0  0  0  2  0  0  0  0  0  0
  -30.1260  -13.1400   19.8910 N   0  0  0  0  0  0  0  0  0  0  0  0
  -32.0260  -14.3420   19.5090 O   0  0  0  0  0  0  0  0  0  0  0  0
  -27.8550  -17.5690   21.2080 C   0  0  0  0  0  3  0  0  0  0  0  0
  -27.7850  -18.1790   19.9480 C   0  0  0  0  0  0  0  0  0  0  0  0
  -28.6620  -17.6730   18.9700 C   0  0  0  0  0  0  0  0  0  0  0  0
  -29.5160  -16.1650   20.4930 C   0  0  0  0  0  0  0  0  0  0  0  0
  -28.7460  -16.5880   21.4860 N   0  0  0  0  0  0  0  0  0  0  0  0
  -29.5090  -16.6620   19.2510 N   0  0  0  0  0  0  0  0  0  0  0  0
  -30.4550  -15.2380   20.8290 N   0  0  0  0  0  0  0  0  0  0  0  0
  -26.9340  -19.2050   19.6920 F   0  0  0  0  0  0  0  0  0  0  0  0
  -31.2080  -15.6880   21.3250 H   0  0  0  0  0  0  0  0  0  0  0  0
  -25.3820  -13.8750   20.2720 C   0  0  0  0  0  0  0  0  0  0  0  0
  -24.3140  -13.1390   20.7090 C   0  0  0  0  0  0  0  0  0  0  0  0
  -24.7370  -11.7740   20.6770 C   0  0  0  0  0  0  0  0  0  0  0  0
  -26.3970  -12.9730   20.0230 N   0  0  0  0  0  0  0  0  0  0  0  0
  -26.0170  -11.7010   20.3230 N   0  0  0  0  0  0  0  0  0  0  0  0
  -23.9820  -10.5360   20.9080 C   0  0  0  0  0  0  0  0  0  0  0  0
  -24.4070   -9.5700   21.8450 C   0  0  0  0  0  3  0  0  0  0  0  0
  -23.6470   -8.3970   22.0600 C   0  0  0  0  0  3  0  0  0  0  0  0
  -22.4440   -8.1870   21.3420 C   0  0  0  0  0  0  0  0  0  0  0  0
  -22.0390   -9.1420   20.3920 C   0  0  0  0  0  3  0  0  0  0  0  0
  -22.8000  -10.3050   20.1760 C   0  0  0  0  0  3  0  0  0  0  0  0
  -21.6480   -7.0760   21.4690 O   0  0  0  0  0  0  0  0  0  0  0  0
  -21.5990   -6.3600   22.6400 C   0  0  0  0  0  0  0  0  0  0  0  0
  -21.2190   -6.9570   23.8600 C   0  0  0  0  0  3  0  0  0  0  0  0
  -21.1180   -6.1730   25.0250 C   0  0  0  0  0  3  0  0  0  0  0  0
  -21.3730   -4.7900   24.9700 C   0  0  0  0  0  0  0  0  0  0  0  0
  -21.7370   -4.1900   23.7490 C   0  0  0  0  0  3  0  0  0  0  0  0
  -21.8470   -4.9730   22.5860 C   0  0  0  0  0  0  0  0  0  0  0  0
  -22.1810   -4.3840   21.4150 F   0  0  0  0  0  0  0  0  0  0  0  0
  -21.2640   -4.0350   26.0880 F   0  0  0  0  0  0  0  0  0  0  0  0
  -22.9400  -13.6610   21.0300 C   0  0  0  0  0  0  0  0  0  0  0  0
  -22.2330  -13.0030   21.9410 N   0  0  0  0  0  0  0  0  0  0  0  0
  -22.5120  -14.6910   20.5130 O   0  0  0  0  0  0  0  0  0  0  0  0
  -22.6030  -12.1660   22.3770 H   0  0  0  0  0  0  0  0  0  0  0  0
  -21.3210  -13.3400   22.2170 H   0  0  0  0  0  0  0  0  0  0  0  0
  -25.5670  -15.2380   20.0620 N   0  0  0  0  0  0  0  0  0  0  0  0
  -24.7710  -15.8610   20.1360 H   0  0  0  0  0  0  0  0  0  0  0  0
  -26.3090  -15.5970   19.4820 H   0  0  0  0  0  0  0  0  0  0  0  0
  -29.6170  -21.8100   18.5310 C   0  0  0  0  0  2  0  0  0  0  0  0
  -28.7360  -23.0610   18.5770 C   0  0  0  0  0  2  0  0  0  0  0  0
  -29.1950  -24.2770   19.3860 C   0  0  0  0  0  0  0  0  0  0  0  0
  -30.2910  -24.3740   19.9430 O   0  0  0  0  0  0  0  0  0  0  0  0
  -28.0980  -25.3280   19.4200 C   0  0  0  0  0  2  0  0  0  0  0  0
  -28.3410  -26.5890   20.0600 O   0  0  0  0  0  0  0  0  0  0  0  0
  -24.5830  -31.8430   23.1700 C   0  0  0  0  0  0  0  0  0  0  0  0
  -27.1880  -27.3710   20.0780 C   0  0  0  0  0  0  0  0  0  0  0  0
  -23.3750  -30.4620   21.5220 C   0  0  0  0  0  3  0  0  0  0  0  0
  -24.8170  -28.9330   20.1040 C   0  0  0  0  0  0  0  0  0  0  0  0
  -25.9120  -30.7890   21.3450 C   0  0  0  0  0  2  0  0  0  0  0  0
  -25.9860  -29.4210   20.6990 C   0  0  0  0  0  0  0  0  0  0  0  0
  -27.1740  -28.6450   20.6950 C   0  0  0  0  0  3  0  0  0  0  0  0
  -25.9740  -26.9180   19.4850 C   0  0  0  0  0  3  0  0  0  0  0  0
  -24.8040  -27.6740   19.5020 C   0  0  0  0  0  3  0  0  0  0  0  0
  -23.5860  -29.8010   20.1410 C   0  0  0  0  0  2  0  0  0  0  0  0
  -24.6430  -31.0440   22.0700 N   0  0  0  0  0  0  0  0  0  0  0  0
  -23.5000  -32.1220   23.7030 O   0  0  0  0  0  0  0  0  0  0  0  0
  -22.7120  -29.4340   22.4690 C   0  0  0  0  0  0  0  0  0  0  0  0
  -21.3880  -29.2500   22.3250 N   0  0  0  0  0  0  0  0  0  0  0  0
  -23.3840  -28.8040   23.2910 O   0  0  0  0  0  0  0  0  0  0  0  0
  -20.9050  -29.8080   21.6370 H   0  0  0  0  0  0  0  0  0  0  0  0
  -18.0090  -28.0480   22.7770 C   0  0  0  0  0  0  0  0  0  0  0  0
  -20.5620  -28.3160   23.0910 C   0  0  0  0  0  3  0  0  0  0  0  0
  -20.6780  -26.8800   22.5300 C   0  0  0  0  0  2  0  0  0  0  0  0
  -19.5940  -26.5440   21.5010 C   0  0  0  0  0  2  0  0  0  0  0  0
  -18.2010  -26.6920   22.1200 C   0  0  0  0  0  2  0  0  0  0  0  0
  -19.1190  -28.8170   23.2200 C   0  0  0  0  0  0  0  0  0  0  0  0
  -18.8890  -30.0850   23.7950 C   0  0  0  0  0  3  0  0  0  0  0  0
  -17.5810  -30.5870   23.9310 C   0  0  0  0  0  3  0  0  0  0  0  0
  -16.4850  -29.8170   23.5040 C   0  0  0  0  0  3  0  0  0  0  0  0
  -16.7010  -28.5490   22.9330 C   0  0  0  0  0  3  0  0  0  0  0  0
  -25.8710  -32.4620   23.7940 C   0  0  0  0  0  3  0  0  0  0  0  0
  -25.5630  -33.8540   24.1460 N   0  0  0  0  0  0  0  0  0  0  0  0
  -25.8890  -34.9160   23.3970 C   0  0  0  0  0  0  0  0  0  0  0  0
  -26.5540  -34.8280   22.3620 O   0  0  0  0  0  0  0  0  0  0  0  0
  -24.9720  -33.9950   24.9520 H   0  0  0  0  0  0  0  0  0  0  0  0
  -24.1590  -36.7110   23.0680 C   0  0  0  0  0  1  0  0  0  0  0  0
  -25.4000  -36.2960   23.8750 C   0  0  0  0  0  3  0  0  0  0  0  0
  -27.5340  -37.1690   24.7170 C   0  0  0  0  0  1  0  0  0  0  0  0
  -26.4310  -37.3520   23.7780 N   0  0  0  0  0  0  0  0  0  0  0  0
  -26.0250  -38.2700   23.9400 H   0  0  0  0  0  0  0  0  0  0  0  0
  -26.3950  -31.6650   25.0490 C   0  0  1  0  0  0  0  0  0  0  0  0
  -25.3070  -31.4070   26.1180 C   0  0  0  0  0  1  0  0  0  0  0  0
  -26.9800  -30.2960   24.6310 C   0  0  0  0  0  1  0  0  0  0  0  0
  -27.5480  -32.4480   25.7190 C   0  0  0  0  0  1  0  0  0  0  0  0
  1 51  1  0
  2  3  1  0
  3  5  1  0
  3  1  1  0
  4  1  2  0
  5 16  1  0
  6 20  1  0
  7 12  1  0
  8  9  1  0
  8  7  1  0
 10  9  1  0
 10 26  1  0
 10 11  1  0
 12  6  1  0
 12 11  1  0
 13  6  2  0
 14 18  1  0
 15 14  2  0
 16 19  2  0
 16 15  1  0
 17 20  1  0
 17 18  2  0
 19 17  1  0
 20 22  1  0
 21 15  1  0
 23 24  2  0
 24 43  1  0
 25 24  1  0
 25 28  1  0
 26 23  1  0
 26 27  1  0
 27 25  2  0
 28 29  1  0
 29 30  2  0
 31 34  1  0
 31 30  1  0
 32 31  2  0
 33 32  1  0
 33 28  2  0
 34 35  1  0
 35 36  1  0
 36 37  2  0
 38 37  1  0
 38 42  1  0
 39 38  2  0
 40 35  2  0
 40 39  1  0
 41 40  1  0
 43 44  1  0
 44 47  1  0
 44 46  1  0
 45 43  2  0
 48 49  1  0
 48 23  1  0
 50 48  1  0
 51 52  1  0
 52 53  1  0
 53 55  1  0
 53 54  2  0
 55 56  1  0
 56 58  1  0
 57 68  2  0
 58 63  1  0
 59 67  1  0
 59 69  1  0
 60 66  1  0
 60 62  1  0
 61 67  1  0
 62 61  1  0
 63 62  2  0
 64 65  1  0
 64 58  2  0
 65 60  2  0
 66 59  1  0
 67 57  1  0
 69 71  2  0
 70 69  1  0
 72 70  1  0
 73 82  2  0
 73 78  1  0
 74 70  1  0
 74 78  1  0
 75 74  1  0
 76 77  1  0
 76 75  1  0
 77 73  1  0
 78 79  2  0
 79 80  1  0
 81 80  2  0
 82 81  1  0
 83 57  1  0
 83 84  1  0
 83 93  1  0
 84 87  1  0
 85 89  1  0
 85 84  1  0
 86 85  2  0
 89 88  1  0
 91 89  1  0
 91 92  1  0
 91 90  1  0
 93 96  1  1
 93 94  1  0
 95 93  1  0
M  ISO  4   6 100  20 100  55 101  56 101
M  END
>  <TORSDO>  (49) 
F 21

>  <SCORE>  (49) 
-12.406

>  <name>  (49) 
49

>  <ligand_id>  (49) 
49

>  <original_smiles>  (49) 
[H]c1nc(N([H])C(=O)N2C([H])([H])C([H])([H])C([H])([H])C([H])(n3nc(-c4c([H])c([H])c(Oc5c([H])c([H])c(F)c([H])c5F)c([H])c4[H])c(C(=O)N([H])[H])c3N([H])[H])C2([H])[H])nc(C([H])([H])N(C(=O)C([H])([H])C([H])([H])C(=O)C([H])([H])Oc2c([H])c([H])c3c(c2[H])C([H])([H])N(C(=O)C([H])(N([H])C(=O)C([H])(N([H])C([H])([H])[H])C([H])([H])[H])C(C([H])([H])[H])(C([H])([H])[H])C([H])([H])[H])C([H])(C(=O)N([H])C2([H])c4c([H])c([H])c([H])c([H])c4C([H])([H])C([H])([H])C2([H])[H])C3([H])[H])C([H])([H])[H])c1F

>  <smiles>  (49) 
[H]c1nc(N([H])C(=O)N2C([H])([H])C([H])([H])C([H])([H])C([H])(n3nc(-c4c([H])c([H])c(Oc5c([H])c([H])c(F)c([H])c5F)c([H])c4[H])c(C(=O)N([H])[H])c3N([H])[H])C2([H])[H])nc(C([H])([H])N(C(=O)C([H])([H])C([H])([H])C(=O)C([H])([H])Oc2c([H])c([H])c3c(c2[H])C([H])([H])N(C(=O)C([H])(N([H])C(=O)C([H])(N([H])C([H])([H])[H])C([H])([H])[H])C(C([H])([H])[H])(C([H])([H])[H])C([H])([H])[H])C([H])(C(=O)N([H])C2([H])c4c([H])c([H])c([H])c([H])c4C([H])([H])C([H])([H])C2([H])[H])C3([H])[H])C([H])([H])[H])c1F

$$$$
50:0:0
     RDKit          3D

 93101  0  0  1  0  0  0  0  0999 V2000
  -28.6080  -22.8400   20.1460 C   0  0  0  0  0  0  0  0  0  0  0  0
  -28.8670  -21.9150   21.1050 N   0  0  0  0  0  0  0  0  0  0  0  0
  -28.5840  -22.5220   18.9530 O   0  0  0  0  0  0  0  0  0  0  0  0
  -28.6460  -22.2470   22.0350 H   0  0  0  0  0  0  0  0  0  0  0  0
  -28.2920  -25.2790   19.8150 C   0  0  0  0  0  3  0  0  0  0  0  0
  -28.5000  -24.2280   20.6590 C   0  0  0  0  0  0  0  0  0  0  0  0
  -28.6640  -24.4520   21.9770 O   0  0  0  0  0  0  0  0  0  0  0  0
  -28.5890  -25.3840   22.1200 H   0  0  0  0  0  0  0  0  0  0  0  0
  -28.3270  -26.6180   20.1980 O   0  0  0  0  0  0  0  0  0  0  0  0
  -24.6650  -31.9010   23.2890 C   0  0  0  0  0  0  0  0  0  0  0  0
  -27.1900  -27.4070   20.1510 C   0  0  0  0  0  0  0  0  0  0  0  0
  -23.4200  -30.5280   21.6500 C   0  0  0  0  0  3  0  0  0  0  0  0
  -24.8300  -28.9870   20.1870 C   0  0  0  0  0  0  0  0  0  0  0  0
  -25.9500  -30.8460   21.4240 C   0  0  0  0  0  2  0  0  0  0  0  0
  -26.0030  -29.4770   20.7690 C   0  0  0  0  0  0  0  0  0  0  0  0
  -27.1830  -28.6940   20.7550 C   0  0  0  0  0  3  0  0  0  0  0  0
  -26.0020  -26.9520   19.5370 C   0  0  0  0  0  3  0  0  0  0  0  0
  -24.8300  -27.7300   19.5580 C   0  0  0  0  0  3  0  0  0  0  0  0
  -23.5970  -29.8610   20.2620 C   0  0  0  0  0  2  0  0  0  0  0  0
  -24.6980  -31.1060   22.1800 N   0  0  0  0  0  0  0  0  0  0  0  0
  -23.5940  -32.1820   23.8420 O   0  0  0  0  0  0  0  0  0  0  0  0
  -22.7670  -29.5070   22.6120 C   0  0  0  0  0  0  0  0  0  0  0  0
  -21.4430  -29.3190   22.4820 N   0  0  0  0  0  0  0  0  0  0  0  0
  -23.4520  -28.8800   23.4250 O   0  0  0  0  0  0  0  0  0  0  0  0
  -20.9440  -29.8760   21.8040 H   0  0  0  0  0  0  0  0  0  0  0  0
  -18.0780  -28.0900   22.9530 C   0  0  0  0  0  0  0  0  0  0  0  0
  -20.6300  -28.3790   23.2530 C   0  0  0  0  0  3  0  0  0  0  0  0
  -20.7510  -26.9400   22.6910 C   0  0  0  0  0  2  0  0  0  0  0  0
  -19.6660  -26.5980   21.6670 C   0  0  0  0  0  2  0  0  0  0  0  0
  -18.2750  -26.7390   22.2930 C   0  0  0  0  0  2  0  0  0  0  0  0
  -19.1840  -28.8700   23.3890 C   0  0  0  0  0  0  0  0  0  0  0  0
  -18.9410  -30.1400   23.9590 C   0  0  0  0  0  3  0  0  0  0  0  0
  -17.6280  -30.6250   24.1040 C   0  0  0  0  0  3  0  0  0  0  0  0
  -16.5400  -29.8410   23.6820 C   0  0  0  0  0  3  0  0  0  0  0  0
  -16.7660  -28.5760   23.1140 C   0  0  0  0  0  3  0  0  0  0  0  0
  -25.9680  -32.5120   23.8950 C   0  0  0  0  0  3  0  0  0  0  0  0
  -26.4980  -31.7290   25.1630 C   0  0  1  0  0  0  0  0  0  0  0  0
  -25.4180  -31.4970   26.2450 C   0  0  0  0  0  1  0  0  0  0  0  0
  -27.0570  -30.3460   24.7520 C   0  0  0  0  0  1  0  0  0  0  0  0
  -27.6610  -32.5130   25.8180 C   0  0  0  0  0  1  0  0  0  0  0  0
  -25.6780  -33.9080   24.2410 N   0  0  0  0  0  0  0  0  0  0  0  0
  -25.9760  -34.9620   23.4680 C   0  0  0  0  0  0  0  0  0  0  0  0
  -26.5990  -34.8610   22.4080 O   0  0  0  0  0  0  0  0  0  0  0  0
  -25.1360  -34.0670   25.0770 H   0  0  0  0  0  0  0  0  0  0  0  0
  -24.2220  -36.7420   23.2120 C   0  0  0  0  0  1  0  0  0  0  0  0
  -25.5130  -36.3480   23.9490 C   0  0  0  0  0  3  0  0  0  0  0  0
  -27.6900  -37.2440   24.6460 C   0  0  0  0  0  1  0  0  0  0  0  0
  -26.5290  -37.4080   23.7730 N   0  0  0  0  0  0  0  0  0  0  0  0
  -26.1300  -38.3250   23.9510 H   0  0  0  0  0  0  0  0  0  0  0  0
  -29.9960  -20.9450   21.0700 C   0  0  0  0  0  2  0  0  0  0  0  0
  -30.7050  -14.5940   20.3320 C   0  0  0  0  0  0  0  0  0  0  0  0
  -30.4840  -12.4060   19.1810 C   0  0  0  0  0  2  0  0  0  0  0  0
  -29.5190  -12.5750   17.9860 C   0  0  0  0  0  2  0  0  0  0  0  0
  -28.0530  -12.3940   18.4380 C   0  0  0  0  0  2  0  0  0  0  0  0
  -27.7200  -13.2240   19.7030 C   0  0  0  0  0  3  0  0  0  0  0  0
  -28.7900  -13.0190   20.7980 C   0  0  0  0  0  2  0  0  0  0  0  0
  -30.1000  -13.3760   20.2240 N   0  0  0  0  0  0  0  0  0  0  0  0
  -31.8000  -14.8270   19.7980 O   0  0  0  0  0  0  0  0  0  0  0  0
  -29.3680  -18.8540   19.6020 C   0  0  0  0  0  3  0  0  0  0  0  0
  -29.7520  -19.4620   20.7810 C   0  0  0  0  0  0  0  0  0  0  0  0
  -29.9240  -16.9500   20.7660 C   0  0  0  0  0  0  0  0  0  0  0  0
  -29.4760  -17.4430   19.6000 N   0  0  0  0  0  0  0  0  0  0  0  0
  -30.0160  -15.5390   21.0220 N   0  0  0  0  0  0  0  0  0  0  0  0
  -30.1510  -18.2220   21.9790 S   0  0  0  0  0  0  0  0  0  0  0  0
  -29.2920  -15.1810   21.6240 H   0  0  0  0  0  0  0  0  0  0  0  0
  -25.3310  -13.8130   20.4570 C   0  0  0  0  0  0  0  0  0  0  0  0
  -24.2740  -13.0330   20.8400 C   0  0  0  0  0  0  0  0  0  0  0  0
  -24.7430  -11.6850   20.7890 C   0  0  0  0  0  0  0  0  0  0  0  0
  -26.3760  -12.9390   20.1990 N   0  0  0  0  0  0  0  0  0  0  0  0
  -26.0270  -11.6550   20.4540 N   0  0  0  0  0  0  0  0  0  0  0  0
  -24.0310  -10.4160   20.9830 C   0  0  0  0  0  0  0  0  0  0  0  0
  -24.4720   -9.4590   21.9240 C   0  0  0  0  0  3  0  0  0  0  0  0
  -23.7590   -8.2540   22.1040 C   0  0  0  0  0  3  0  0  0  0  0  0
  -22.5930   -7.9980   21.3440 C   0  0  0  0  0  0  0  0  0  0  0  0
  -22.1740   -8.9450   20.3920 C   0  0  0  0  0  3  0  0  0  0  0  0
  -22.8860  -10.1420   20.2080 C   0  0  0  0  0  3  0  0  0  0  0  0
  -21.8500   -6.8430   21.4320 O   0  0  0  0  0  0  0  0  0  0  0  0
  -21.7750   -6.1260   22.5980 C   0  0  0  0  0  0  0  0  0  0  0  0
  -21.2990   -6.6980   23.7960 C   0  0  0  0  0  3  0  0  0  0  0  0
  -21.1680   -5.9050   24.9540 C   0  0  0  0  0  3  0  0  0  0  0  0
  -21.5080   -4.5400   24.9150 C   0  0  0  0  0  0  0  0  0  0  0  0
  -21.9790   -3.9660   23.7190 C   0  0  0  0  0  3  0  0  0  0  0  0
  -22.1110   -4.7560   22.5630 C   0  0  0  0  0  0  0  0  0  0  0  0
  -22.5430   -4.1950   21.4090 F   0  0  0  0  0  0  0  0  0  0  0  0
  -21.3800   -3.7750   26.0260 F   0  0  0  0  0  0  0  0  0  0  0  0
  -22.8790  -13.4990   21.1420 C   0  0  0  0  0  0  0  0  0  0  0  0
  -22.1730  -12.7950   22.0210 N   0  0  0  0  0  0  0  0  0  0  0  0
  -22.4230  -14.5240   20.6350 O   0  0  0  0  0  0  0  0  0  0  0  0
  -22.5540  -11.9650   22.4510 H   0  0  0  0  0  0  0  0  0  0  0  0
  -21.2340  -13.0840   22.2560 H   0  0  0  0  0  0  0  0  0  0  0  0
  -25.4870  -15.1850   20.2860 N   0  0  0  0  0  0  0  0  0  0  0  0
  -24.7120  -15.8320   20.3680 H   0  0  0  0  0  0  0  0  0  0  0  0
  -26.3340  -15.6270   19.9500 H   0  0  0  0  0  0  0  0  0  0  0  0
  1  6  1  0
  1  2  1  0
  2  4  1  0
  3  1  2  0
  5  9  1  0
  5  6  2  0
  6  7  1  0
  7  8  1  0
 10 21  2  0
 11  9  1  0
 11 16  1  0
 12 20  1  0
 12 22  1  0
 13 19  1  0
 13 15  1  0
 14 20  1  0
 15 14  1  0
 16 15  2  0
 17 18  1  0
 17 11  2  0
 18 13  2  0
 19 12  1  0
 20 10  1  0
 22 24  2  0
 23 22  1  0
 25 23  1  0
 26 35  2  0
 26 31  1  0
 27 23  1  0
 27 31  1  0
 28 27  1  0
 29 30  1  0
 29 28  1  0
 30 26  1  0
 31 32  2  0
 32 33  1  0
 34 33  2  0
 35 34  1  0
 36 10  1  0
 36 41  1  0
 36 37  1  0
 37 40  1  1
 37 38  1  0
 39 37  1  0
 41 44  1  0
 42 46  1  0
 42 41  1  0
 43 42  2  0
 46 45  1  0
 48 46  1  0
 48 49  1  0
 48 47  1  0
 50  2  1  0
 51 63  1  0
 52 57  1  0
 53 54  1  0
 53 52  1  0
 55 54  1  0
 55 69  1  0
 55 56  1  0
 57 51  1  0
 57 56  1  0
 58 51  2  0
 59 60  2  0
 60 50  1  0
 60 64  1  0
 61 63  1  0
 61 64  1  0
 62 59  1  0
 62 61  2  0
 63 65  1  0
 66 67  2  0
 67 86  1  0
 68 67  1  0
 68 71  1  0
 69 70  1  0
 69 66  1  0
 70 68  2  0
 71 72  1  0
 72 73  2  0
 74 77  1  0
 74 73  1  0
 75 74  2  0
 76 75  1  0
 76 71  2  0
 77 78  1  0
 78 79  1  0
 79 80  2  0
 81 80  1  0
 81 85  1  0
 82 81  2  0
 83 78  2  0
 83 82  1  0
 84 83  1  0
 86 87  1  0
 87 90  1  0
 87 89  1  0
 88 86  2  0
 91 92  1  0
 91 66  1  0
 93 91  1  0
M  ISO  4   5 101   9 101  51 100  63 100
M  END
>  <TORSDO>  (50) 
F 19

>  <SCORE>  (50) 
-14.114

>  <name>  (50) 
50

>  <ligand_id>  (50) 
50

>  <original_smiles>  (50) 
[H]OC(C(=O)N([H])C([H])([H])c1sc(N([H])C(=O)N2C([H])([H])C([H])([H])C([H])([H])C([H])(n3nc(-c4c([H])c([H])c(Oc5c([H])c([H])c(F)c([H])c5F)c([H])c4[H])c(C(=O)N([H])[H])c3N([H])[H])C2([H])[H])nc1[H])=C([H])Oc1c([H])c([H])c2c(c1[H])C([H])([H])N(C(=O)C([H])(N([H])C(=O)C([H])(N([H])C([H])([H])[H])C([H])([H])[H])C(C([H])([H])[H])(C([H])([H])[H])C([H])([H])[H])C([H])(C(=O)N([H])C1([H])c3c([H])c([H])c([H])c([H])c3C([H])([H])C([H])([H])C1([H])[H])C2([H])[H]

>  <smiles>  (50) 
[H]OC(C(=O)N([H])C([H])([H])c1sc(N([H])C(=O)N2C([H])([H])C([H])([H])C([H])([H])C([H])(n3nc(-c4c([H])c([H])c(Oc5c([H])c([H])c(F)c([H])c5F)c([H])c4[H])c(C(=O)N([H])[H])c3N([H])[H])C2([H])[H])nc1[H])=C([H])Oc1c([H])c([H])c2c(c1[H])C([H])([H])N(C(=O)C([H])(N([H])C(=O)C([H])(N([H])C([H])([H])[H])C([H])([H])[H])C(C([H])([H])[H])(C([H])([H])[H])C([H])([H])[H])C([H])(C(=O)N([H])C1([H])c3c([H])c([H])c([H])c([H])c3C([H])([H])C([H])([H])C1([H])[H])C2([H])[H]

$$$$
51:0:0
     RDKit          3D

 97105  0  0  1  0  0  0  0  0999 V2000
  -28.7610  -21.7300   20.1170 C   0  0  0  0  0  0  0  0  0  0  0  0
  -29.1220  -20.6370   20.8380 N   0  0  0  0  0  0  0  0  0  0  0  0
  -28.5700  -21.7240   18.8960 O   0  0  0  0  0  0  0  0  0  0  0  0
  -29.0710  -20.7540   21.8400 H   0  0  0  0  0  0  0  0  0  0  0  0
  -30.6820  -14.5470   20.3710 C   0  0  0  0  0  0  0  0  0  0  0  0
  -30.3550  -12.3490   19.3120 C   0  0  0  0  0  2  0  0  0  0  0  0
  -29.4260  -12.5340   18.0950 C   0  0  0  0  0  2  0  0  0  0  0  0
  -27.9510  -12.4010   18.5240 C   0  0  0  0  0  2  0  0  0  0  0  0
  -27.6080  -13.2580   19.7740 C   0  0  0  0  0  3  0  0  0  0  0  0
  -28.6660  -13.0990   20.8880 C   0  0  0  0  0  2  0  0  0  0  0  0
  -29.9840  -13.3780   20.3020 N   0  0  0  0  0  0  0  0  0  0  0  0
  -31.8700  -14.5800   20.0420 O   0  0  0  0  0  0  0  0  0  0  0  0
  -29.5220  -18.1420   20.7240 C   0  0  0  0  0  3  0  0  0  0  0  0
  -29.8460  -19.4890   20.3560 C   0  0  0  0  0  0  0  0  0  0  0  0
  -31.0010  -19.6880   19.5680 C   0  0  0  0  0  0  0  0  0  0  0  0
  -30.3260  -17.0470   20.2680 C   0  0  0  0  0  0  0  0  0  0  0  0
  -31.7280  -18.5650   19.1540 C   0  0  0  0  0  0  0  0  0  0  0  0
  -31.3980  -17.3060   19.4750 N   0  0  0  0  0  0  0  0  0  0  0  0
  -29.9750  -15.6860   20.6320 N   0  0  0  0  0  0  0  0  0  0  0  0
  -31.4370  -20.9310   19.2390 F   0  0  0  0  0  0  0  0  0  0  0  0
  -29.0440  -15.5460   20.9870 H   0  0  0  0  0  0  0  0  0  0  0  0
  -25.2140  -13.8580   20.4850 C   0  0  0  0  0  0  0  0  0  0  0  0
  -24.1480  -13.0850   20.8580 C   0  0  0  0  0  0  0  0  0  0  0  0
  -24.6130  -11.7330   20.8370 C   0  0  0  0  0  0  0  0  0  0  0  0
  -26.2610  -12.9780   20.2590 N   0  0  0  0  0  0  0  0  0  0  0  0
  -25.9040  -11.6960   20.5320 N   0  0  0  0  0  0  0  0  0  0  0  0
  -23.8890  -10.4710   21.0310 C   0  0  0  0  0  0  0  0  0  0  0  0
  -24.3250   -9.5050   21.9650 C   0  0  0  0  0  3  0  0  0  0  0  0
  -23.5990   -8.3070   22.1470 C   0  0  0  0  0  3  0  0  0  0  0  0
  -22.4230   -8.0690   21.3980 C   0  0  0  0  0  0  0  0  0  0  0  0
  -22.0060   -9.0240   20.4540 C   0  0  0  0  0  3  0  0  0  0  0  0
  -22.7320  -10.2120   20.2690 C   0  0  0  0  0  3  0  0  0  0  0  0
  -21.6680   -6.9250   21.4910 O   0  0  0  0  0  0  0  0  0  0  0  0
  -21.6300   -6.1780   22.6410 C   0  0  0  0  0  0  0  0  0  0  0  0
  -21.2190   -6.7290   23.8740 C   0  0  0  0  0  3  0  0  0  0  0  0
  -21.1290   -5.9090   25.0170 C   0  0  0  0  0  3  0  0  0  0  0  0
  -21.4400   -4.5390   24.9280 C   0  0  0  0  0  0  0  0  0  0  0  0
  -21.8460   -3.9870   23.7000 C   0  0  0  0  0  3  0  0  0  0  0  0
  -21.9370   -4.8040   22.5580 C   0  0  0  0  0  0  0  0  0  0  0  0
  -22.3070   -4.2640   21.3730 F   0  0  0  0  0  0  0  0  0  0  0  0
  -21.3470   -3.7490   26.0230 F   0  0  0  0  0  0  0  0  0  0  0  0
  -22.7500  -13.5610   21.1230 C   0  0  0  0  0  0  0  0  0  0  0  0
  -22.0200  -12.8680   21.9900 N   0  0  0  0  0  0  0  0  0  0  0  0
  -22.3120  -14.5840   20.5960 O   0  0  0  0  0  0  0  0  0  0  0  0
  -22.3860  -12.0410   22.4370 H   0  0  0  0  0  0  0  0  0  0  0  0
  -21.0810  -13.1700   22.2110 H   0  0  0  0  0  0  0  0  0  0  0  0
  -25.3760  -15.2270   20.2970 N   0  0  0  0  0  0  0  0  0  0  0  0
  -24.6030  -15.8770   20.3940 H   0  0  0  0  0  0  0  0  0  0  0  0
  -26.2150  -15.6650   19.9370 H   0  0  0  0  0  0  0  0  0  0  0  0
  -32.8760  -18.7160   18.3870 N   0  0  0  0  0  0  0  0  0  0  0  0
  -33.0040  -19.6200   17.9480 H   0  0  0  0  0  0  0  0  0  0  0  0
  -33.2000  -17.9270   17.8440 H   0  0  0  0  0  0  0  0  0  0  0  0
  -28.5380  -23.0210   20.9860 C   0  0  0  0  0  0  0  0  0  0  0  0
  -29.0110  -23.1110   22.1250 O   0  0  0  0  0  0  0  0  0  0  0  0
  -27.6810  -24.1820   20.4120 C   0  0  0  0  0  2  0  0  0  0  0  0
  -28.4370  -25.3180   19.6450 C   0  0  0  0  0  2  0  0  0  0  0  0
  -28.3740  -26.6560   20.2060 O   0  0  0  0  0  0  0  0  0  0  0  0
  -24.5860  -31.8930   23.2270 C   0  0  0  0  0  0  0  0  0  0  0  0
  -27.2040  -27.4020   20.1550 C   0  0  0  0  0  0  0  0  0  0  0  0
  -23.3740  -30.4940   21.5880 C   0  0  0  0  0  3  0  0  0  0  0  0
  -24.8200  -28.9490   20.1600 C   0  0  0  0  0  0  0  0  0  0  0  0
  -25.9040  -30.8340   21.3920 C   0  0  0  0  0  2  0  0  0  0  0  0
  -25.9820  -29.4590   20.7510 C   0  0  0  0  0  0  0  0  0  0  0  0
  -27.1730  -28.6920   20.7450 C   0  0  0  0  0  3  0  0  0  0  0  0
  -26.0190  -26.9180   19.5520 C   0  0  0  0  0  3  0  0  0  0  0  0
  -24.8360  -27.6810   19.5570 C   0  0  0  0  0  3  0  0  0  0  0  0
  -23.5810  -29.8170   20.2070 C   0  0  0  0  0  2  0  0  0  0  0  0
  -24.6400  -31.0900   22.1270 N   0  0  0  0  0  0  0  0  0  0  0  0
  -23.5050  -32.1700   23.7670 O   0  0  0  0  0  0  0  0  0  0  0  0
  -22.7200  -29.4770   22.5510 C   0  0  0  0  0  0  0  0  0  0  0  0
  -21.3950  -29.3010   22.4290 N   0  0  0  0  0  0  0  0  0  0  0  0
  -23.4030  -28.8480   23.3640 O   0  0  0  0  0  0  0  0  0  0  0  0
  -20.9030  -29.8590   21.7440 H   0  0  0  0  0  0  0  0  0  0  0  0
  -18.0150  -28.1240   22.9360 C   0  0  0  0  0  0  0  0  0  0  0  0
  -20.5760  -28.3670   23.2010 C   0  0  0  0  0  3  0  0  0  0  0  0
  -20.6690  -26.9360   22.6230 C   0  0  0  0  0  2  0  0  0  0  0  0
  -19.5610  -26.6210   21.6120 C   0  0  0  0  0  2  0  0  0  0  0  0
  -18.1820  -26.7740   22.2600 C   0  0  0  0  0  2  0  0  0  0  0  0
  -19.1390  -28.8790   23.3640 C   0  0  0  0  0  0  0  0  0  0  0  0
  -18.9300  -30.1430   23.9560 C   0  0  0  0  0  3  0  0  0  0  0  0
  -17.6290  -30.6530   24.1260 C   0  0  0  0  0  3  0  0  0  0  0  0
  -16.5190  -29.8940   23.7160 C   0  0  0  0  0  3  0  0  0  0  0  0
  -16.7130  -28.6320   23.1250 C   0  0  0  0  0  3  0  0  0  0  0  0
  -25.8720  -32.5230   23.8440 C   0  0  0  0  0  3  0  0  0  0  0  0
  -26.3920  -31.7510   25.1190 C   0  0  1  0  0  0  0  0  0  0  0  0
  -25.3010  -31.5170   26.1910 C   0  0  0  0  0  1  0  0  0  0  0  0
  -26.9700  -30.3720   24.7260 C   0  0  0  0  0  1  0  0  0  0  0  0
  -27.5460  -32.5430   25.7780 C   0  0  0  0  0  1  0  0  0  0  0  0
  -25.5680  -33.9220   24.1730 N   0  0  0  0  0  0  0  0  0  0  0  0
  -25.9010  -34.9740   23.4120 C   0  0  0  0  0  0  0  0  0  0  0  0
  -26.5690  -34.8670   22.3800 O   0  0  0  0  0  0  0  0  0  0  0  0
  -24.9730  -34.0790   24.9730 H   0  0  0  0  0  0  0  0  0  0  0  0
  -24.1760  -36.7700   23.0560 C   0  0  0  0  0  1  0  0  0  0  0  0
  -25.4160  -36.3630   23.8680 C   0  0  0  0  0  3  0  0  0  0  0  0
  -27.5530  -37.2440   24.6980 C   0  0  0  0  0  1  0  0  0  0  0  0
  -26.4520  -37.4140   23.7540 N   0  0  0  0  0  0  0  0  0  0  0  0
  -26.0480  -38.3350   23.9000 H   0  0  0  0  0  0  0  0  0  0  0  0
  1  2  1  0
  1 53  1  0
  2  4  1  0
  3  1  2  0
  5 19  1  0
  6 11  1  0
  7  8  1  0
  7  6  1  0
  9  8  1  0
  9 25  1  0
  9 10  1  0
 11  5  1  0
 11 10  1  0
 12  5  2  0
 14 13  1  0
 14  2  1  0
 15 14  2  0
 16 19  1  0
 16 13  2  0
 17 18  2  0
 17 15  1  0
 18 16  1  0
 19 21  1  0
 20 15  1  0
 22 23  2  0
 23 42  1  0
 24 23  1  0
 24 27  1  0
 25 22  1  0
 25 26  1  0
 26 24  2  0
 27 28  1  0
 28 29  2  0
 30 33  1  0
 30 29  1  0
 31 30  2  0
 32 31  1  0
 32 27  2  0
 33 34  1  0
 34 35  1  0
 35 36  2  0
 37 36  1  0
 37 41  1  0
 38 37  2  0
 39 34  2  0
 39 38  1  0
 40 39  1  0
 42 43  1  0
 43 46  1  0
 43 45  1  0
 44 42  2  0
 47 48  1  0
 47 22  1  0
 49 47  1  0
 50 17  1  0
 51 50  1  0
 52 50  1  0
 53 54  2  0
 55 53  1  0
 56 57  1  0
 56 55  1  0
 58 69  2  0
 59 57  1  0
 59 64  1  0
 60 68  1  0
 60 70  1  0
 61 67  1  0
 61 63  1  0
 62 68  1  0
 63 62  1  0
 64 63  2  0
 65 66  1  0
 65 59  2  0
 66 61  2  0
 67 60  1  0
 68 58  1  0
 70 72  2  0
 71 70  1  0
 73 71  1  0
 74 83  2  0
 74 79  1  0
 75 71  1  0
 75 79  1  0
 76 75  1  0
 77 78  1  0
 77 76  1  0
 78 74  1  0
 79 80  2  0
 80 81  1  0
 82 81  2  0
 83 82  1  0
 84 58  1  0
 84 89  1  0
 84 85  1  0
 85 88  1  1
 85 86  1  0
 87 85  1  0
 89 92  1  0
 90 94  1  0
 90 89  1  0
 91 90  2  0
 94 93  1  0
 96 94  1  0
 96 97  1  0
 96 95  1  0
M  ISO  4   5 100  19 100  56 101  57 101
M  END
>  <TORSDO>  (51) 
F 20

>  <SCORE>  (51) 
-14.329

>  <name>  (51) 
51

>  <ligand_id>  (51) 
51

>  <original_smiles>  (51) 
[H]c1c([H])c([H])c2c(c1[H])C([H])([H])C([H])([H])C([H])([H])C2([H])N([H])C(=O)C1([H])N(C(=O)C([H])(N([H])C(=O)C([H])(N([H])C([H])([H])[H])C([H])([H])[H])C(C([H])([H])[H])(C([H])([H])[H])C([H])([H])[H])C([H])([H])c2c([H])c(OC([H])([H])C([H])([H])C(=O)C(=O)N([H])c3c([H])c(N([H])C(=O)N4C([H])([H])C([H])([H])C([H])([H])C([H])(n5nc(-c6c([H])c([H])c(Oc7c([H])c([H])c(F)c([H])c7F)c([H])c6[H])c(C(=O)N([H])[H])c5N([H])[H])C4([H])[H])nc(N([H])[H])c3F)c([H])c([H])c2C1([H])[H]

>  <smiles>  (51) 
[H]c1c([H])c([H])c2c(c1[H])C([H])([H])C([H])([H])C([H])([H])C2([H])N([H])C(=O)C1([H])N(C(=O)C([H])(N([H])C(=O)C([H])(N([H])C([H])([H])[H])C([H])([H])[H])C(C([H])([H])[H])(C([H])([H])[H])C([H])([H])[H])C([H])([H])c2c([H])c(OC([H])([H])C([H])([H])C(=O)C(=O)N([H])c3c([H])c(N([H])C(=O)N4C([H])([H])C([H])([H])C([H])([H])C([H])(n5nc(-c6c([H])c([H])c(Oc7c([H])c([H])c(F)c([H])c7F)c([H])c6[H])c(C(=O)N([H])[H])c5N([H])[H])C4([H])[H])nc(N([H])[H])c3F)c([H])c([H])c2C1([H])[H]

$$$$
52:0:0
     RDKit          3D

100108  0  0  1  0  0  0  0  0999 V2000
  -29.4320  -23.6250   20.5660 C   0  0  0  0  0  3  0  0  0  0  0  0
  -30.2070  -21.2590   20.4700 C   0  0  0  0  0  0  0  0  0  0  0  0
  -29.3690  -22.2330   20.0560 N   0  0  0  0  0  0  0  0  0  0  0  0
  -31.2350  -21.5380   21.0900 O   0  0  0  0  0  0  0  0  0  0  0  0
  -28.5910  -22.0070   19.4450 H   0  0  0  0  0  0  0  0  0  0  0  0
  -29.2090  -17.6880   19.5100 C   0  0  0  0  0  3  0  0  0  0  0  0
  -29.2570  -19.1010   19.2710 C   0  0  0  0  0  0  0  0  0  0  0  0
  -29.8540  -19.8280   20.2680 C   0  0  0  0  0  0  0  0  0  0  0  0
  -29.7550  -17.3220   20.7250 C   0  0  0  0  0  0  0  0  0  0  0  0
  -28.7630  -19.6310   18.1740 F   0  0  0  0  0  0  0  0  0  0  0  0
  -30.3690  -18.7400   21.5460 S   0  0  0  0  0  0  0  0  0  0  0  0
  -30.6410  -15.0990   21.1400 C   0  0  0  0  0  0  0  0  0  0  0  0
  -30.6770  -12.7290   20.4770 C   0  0  0  0  0  2  0  0  0  0  0  0
  -29.9240  -12.6220   19.1340 C   0  0  0  0  0  2  0  0  0  0  0  0
  -28.4120  -12.4400   19.3680 C   0  0  0  0  0  2  0  0  0  0  0  0
  -27.8340  -13.4600   20.3850 C   0  0  0  0  0  3  0  0  0  0  0  0
  -28.7190  -13.5510   21.6500 C   0  0  0  0  0  2  0  0  0  0  0  0
  -30.0970  -13.8540   21.2230 N   0  0  0  0  0  0  0  0  0  0  0  0
  -31.8070  -15.3090   20.7950 O   0  0  0  0  0  0  0  0  0  0  0  0
  -29.7740  -16.1060   21.3390 N   0  0  0  0  0  0  0  0  0  0  0  0
  -28.9250  -15.8360   21.8140 H   0  0  0  0  0  0  0  0  0  0  0  0
  -25.3550  -14.0120   20.8050 C   0  0  0  0  0  0  0  0  0  0  0  0
  -24.2710  -13.2150   21.0660 C   0  0  0  0  0  0  0  0  0  0  0  0
  -24.7680  -11.8770   21.1120 C   0  0  0  0  0  0  0  0  0  0  0  0
  -26.4430  -13.1570   20.7150 N   0  0  0  0  0  0  0  0  0  0  0  0
  -26.0860  -11.8690   20.9560 N   0  0  0  0  0  0  0  0  0  0  0  0
  -24.0570  -10.5970   21.2430 C   0  0  0  0  0  0  0  0  0  0  0  0
  -24.4160   -9.6510   22.2280 C   0  0  0  0  0  3  0  0  0  0  0  0
  -23.7050   -8.4360   22.3470 C   0  0  0  0  0  3  0  0  0  0  0  0
  -22.6250   -8.1590   21.4760 C   0  0  0  0  0  0  0  0  0  0  0  0
  -22.2850   -9.0960   20.4850 C   0  0  0  0  0  3  0  0  0  0  0  0
  -22.9950  -10.3020   20.3650 C   0  0  0  0  0  3  0  0  0  0  0  0
  -21.8930   -6.9960   21.5000 O   0  0  0  0  0  0  0  0  0  0  0  0
  -21.7570   -6.2550   22.6460 C   0  0  0  0  0  0  0  0  0  0  0  0
  -21.1770   -6.7910   23.8160 C   0  0  0  0  0  3  0  0  0  0  0  0
  -20.9940   -5.9750   24.9490 C   0  0  0  0  0  3  0  0  0  0  0  0
  -21.3780   -4.6210   24.9120 C   0  0  0  0  0  0  0  0  0  0  0  0
  -21.9490   -4.0820   23.7470 C   0  0  0  0  0  3  0  0  0  0  0  0
  -22.1350   -4.8970   22.6150 C   0  0  0  0  0  0  0  0  0  0  0  0
  -22.6680   -4.3680   21.4870 F   0  0  0  0  0  0  0  0  0  0  0  0
  -21.1940   -3.8340   25.9980 F   0  0  0  0  0  0  0  0  0  0  0  0
  -22.8400  -13.6570   21.1680 C   0  0  0  0  0  0  0  0  0  0  0  0
  -22.0400  -12.9630   21.9700 N   0  0  0  0  0  0  0  0  0  0  0  0
  -22.4320  -14.6530   20.5730 O   0  0  0  0  0  0  0  0  0  0  0  0
  -22.3780  -12.1550   22.4730 H   0  0  0  0  0  0  0  0  0  0  0  0
  -21.0770  -13.2430   22.0840 H   0  0  0  0  0  0  0  0  0  0  0  0
  -25.5010  -15.3840   20.6210 N   0  0  0  0  0  0  0  0  0  0  0  0
  -24.7060  -16.0130   20.6060 H   0  0  0  0  0  0  0  0  0  0  0  0
  -26.3750  -15.8420   20.3860 H   0  0  0  0  0  0  0  0  0  0  0  0
  -28.7150  -24.6780   19.6710 C   0  0  0  0  0  0  0  0  0  0  0  0
  -28.1840  -24.3840   18.5920 O   0  0  0  0  0  0  0  0  0  0  0  0
  -28.7010  -26.1440   20.1790 C   0  0  0  0  0  2  0  0  0  0  0  0
  -28.4290  -27.1070   19.1400 O   0  0  0  0  0  0  0  0  0  0  0  0
  -24.6340  -31.6610   23.1120 C   0  0  0  0  0  0  0  0  0  0  0  0
  -27.2520  -27.7970   19.3150 C   0  0  0  0  0  0  0  0  0  0  0  0
  -23.3830  -30.4350   21.3650 C   0  0  0  0  0  3  0  0  0  0  0  0
  -24.8060  -29.1740   19.6610 C   0  0  0  0  0  0  0  0  0  0  0  0
  -25.8720  -30.9380   21.0730 C   0  0  0  0  0  2  0  0  0  0  0  0
  -25.9770  -29.6690   20.2500 C   0  0  0  0  0  0  0  0  0  0  0  0
  -27.2060  -28.9890   20.0730 C   0  0  0  0  0  3  0  0  0  0  0  0
  -26.0680  -27.3120   18.7270 C   0  0  0  0  0  3  0  0  0  0  0  0
  -24.8460  -27.9940   18.8970 C   0  0  0  0  0  3  0  0  0  0  0  0
  -23.5320  -29.9560   19.8970 C   0  0  0  0  0  2  0  0  0  0  0  0
  -24.6500  -31.0200   21.9090 N   0  0  0  0  0  0  0  0  0  0  0  0
  -23.5790  -31.8050   23.7490 O   0  0  0  0  0  0  0  0  0  0  0  0
  -22.8360  -29.2630   22.2130 C   0  0  0  0  0  0  0  0  0  0  0  0
  -21.5350  -28.9670   22.0600 N   0  0  0  0  0  0  0  0  0  0  0  0
  -23.5790  -28.6270   22.9660 O   0  0  0  0  0  0  0  0  0  0  0  0
  -20.9910  -29.5420   21.4320 H   0  0  0  0  0  0  0  0  0  0  0  0
  -18.3170  -27.3530   22.3330 C   0  0  0  0  0  0  0  0  0  0  0  0
  -20.8160  -27.8840   22.7250 C   0  0  0  0  0  3  0  0  0  0  0  0
  -21.1050  -26.5250   22.0490 C   0  0  0  0  0  2  0  0  0  0  0  0
  -20.0810  -26.1580   20.9690 C   0  0  0  0  0  2  0  0  0  0  0  0
  -18.6710  -26.0900   21.5670 C   0  0  0  0  0  2  0  0  0  0  0  0
  -19.3230  -28.2050   22.8600 C   0  0  0  0  0  0  0  0  0  0  0  0
  -18.9380  -29.3840   23.5350 C   0  0  0  0  0  3  0  0  0  0  0  0
  -17.5770  -29.7150   23.6850 C   0  0  0  0  0  3  0  0  0  0  0  0
  -16.5850  -28.8610   23.1750 C   0  0  0  0  0  3  0  0  0  0  0  0
  -16.9550  -27.6810   22.5040 C   0  0  0  0  0  3  0  0  0  0  0  0
  -25.9300  -32.2660   23.7350 C   0  0  0  0  0  3  0  0  0  0  0  0
  -25.5990  -33.6050   24.2380 N   0  0  0  0  0  0  0  0  0  0  0  0
  -25.9070  -34.7500   23.6160 C   0  0  0  0  0  0  0  0  0  0  0  0
  -26.5740  -34.7890   22.5760 O   0  0  0  0  0  0  0  0  0  0  0  0
  -25.0120  -33.6460   25.0590 H   0  0  0  0  0  0  0  0  0  0  0  0
  -24.1590  -36.5500   23.4670 C   0  0  0  0  0  1  0  0  0  0  0  0
  -25.3920  -36.0590   24.2420 C   0  0  0  0  0  3  0  0  0  0  0  0
  -27.4960  -36.8520   25.2220 C   0  0  0  0  0  1  0  0  0  0  0  0
  -26.4120  -37.1300   24.2860 N   0  0  0  0  0  0  0  0  0  0  0  0
  -25.9900  -38.0180   24.5460 H   0  0  0  0  0  0  0  0  0  0  0  0
  -26.5410  -31.3760   24.8870 C   0  0  1  0  0  0  0  0  0  0  0  0
  -25.5170  -30.9830   25.9770 C   0  0  0  0  0  1  0  0  0  0  0  0
  -27.1410  -30.0750   24.3060 C   0  0  0  0  0  1  0  0  0  0  0  0
  -27.7050  -32.1280   25.5750 C   0  0  0  0  0  1  0  0  0  0  0  0
  -28.9900  -23.6690   22.0640 C   0  0  0  0  0  2  0  0  0  0  0  0
  -29.7110  -24.7500   22.9050 C   0  0  0  0  0  3  0  0  0  0  0  0
  -30.5960  -25.3650   22.1140 F   0  0  0  0  0  0  0  0  0  0  0  0
  -29.6820  -26.7980   24.3840 C   0  0  0  0  0  1  0  0  0  0  0  0
  -27.7760  -25.1970   24.5280 C   0  0  0  0  0  1  0  0  0  0  0  0
  -28.0490  -26.6470   22.4980 C   0  0  0  0  0  1  0  0  0  0  0  0
  -28.8010  -25.8300   23.5650 C   0  0  2  0  0  0  0  0  0  0  0  0
  1 94  1  0
  2  4  2  0
  3  2  1  0
  3  1  1  0
  5  3  1  0
  6  9  2  0
  7  6  1  0
  7  8  2  0
  8  2  1  0
  8 11  1  0
  9 20  1  0
  9 11  1  0
 10  7  1  0
 12 18  1  0
 12 20  1  0
 13 18  1  0
 14 15  1  0
 14 13  1  0
 16 15  1  0
 16 25  1  0
 16 17  1  0
 18 17  1  0
 19 12  2  0
 20 21  1  0
 22 23  2  0
 23 24  1  0
 23 42  1  0
 24 27  1  0
 25 22  1  0
 25 26  1  0
 26 24  2  0
 27 28  1  0
 28 29  2  0
 30 33  1  0
 30 29  1  0
 31 30  2  0
 32 31  1  0
 32 27  2  0
 33 34  1  0
 34 35  1  0
 35 36  2  0
 37 36  1  0
 37 41  1  0
 38 37  2  0
 39 34  2  0
 39 38  1  0
 40 39  1  0
 42 43  1  0
 43 46  1  0
 43 45  1  0
 44 42  2  0
 47 22  1  0
 48 47  1  0
 49 47  1  0
 50 52  1  0
 50  1  1  0
 51 50  2  0
 53 55  1  0
 53 52  1  0
 54 65  2  0
 55 60  1  0
 56 64  1  0
 56 66  1  0
 57 63  1  0
 57 59  1  0
 58 64  1  0
 59 58  1  0
 60 59  2  0
 61 62  1  0
 61 55  2  0
 62 57  2  0
 63 56  1  0
 64 54  1  0
 66 68  2  0
 67 66  1  0
 69 67  1  0
 70 79  2  0
 70 75  1  0
 71 67  1  0
 71 75  1  0
 72 71  1  0
 73 74  1  0
 73 72  1  0
 74 70  1  0
 75 76  2  0
 76 77  1  0
 78 77  2  0
 79 78  1  0
 80 54  1  0
 80 81  1  0
 80 90  1  0
 81 84  1  0
 82 81  1  0
 82 86  1  0
 83 82  2  0
 86 85  1  0
 86 88  1  0
 88 89  1  0
 88 87  1  0
 90 93  1  1
 90 91  1  0
 92 90  1  0
 94 95  1  0
 95 96  1  0
 95100  1  0
100 99  1  6
100 97  1  0
100 98  1  0
M  ISO  4  12 100  20 100  52 101  53 101
M  END
>  <TORSDO>  (52) 
F 23

>  <SCORE>  (52) 
-10.875

>  <name>  (52) 
52

>  <ligand_id>  (52) 
52

>  <original_smiles>  (52) 
[H]c1c([H])c([H])c2c(c1[H])C([H])([H])C([H])([H])C([H])([H])C2([H])N([H])C(=O)C1([H])N(C(=O)C([H])(N([H])C(=O)C([H])(N([H])C([H])([H])[H])C([H])([H])[H])C(C([H])([H])[H])(C([H])([H])[H])C([H])([H])[H])C([H])([H])c2c([H])c(OC([H])([H])C(=O)C([H])(N([H])C(=O)c3sc(N([H])C(=O)N4C([H])([H])C([H])([H])C([H])([H])C([H])(n5nc(-c6c([H])c([H])c(Oc7c([H])c([H])c(F)c([H])c7F)c([H])c6[H])c(C(=O)N([H])[H])c5N([H])[H])C4([H])[H])c([H])c3F)C([H])([H])C([H])(F)C(C([H])([H])[H])(C([H])([H])[H])C([H])([H])[H])c([H])c([H])c2C1([H])[H]

>  <smiles>  (52) 
[H]c1c([H])c([H])c2c(c1[H])C([H])([H])C([H])([H])C([H])([H])C2([H])N([H])C(=O)C1([H])N(C(=O)C([H])(N([H])C(=O)C([H])(N([H])C([H])([H])[H])C([H])([H])[H])C(C([H])([H])[H])(C([H])([H])[H])C([H])([H])[H])C([H])([H])c2c([H])c(OC([H])([H])C(=O)C([H])(N([H])C(=O)c3sc(N([H])C(=O)N4C([H])([H])C([H])([H])C([H])([H])C([H])(n5nc(-c6c([H])c([H])c(Oc7c([H])c([H])c(F)c([H])c7F)c([H])c6[H])c(C(=O)N([H])[H])c5N([H])[H])C4([H])[H])c([H])c3F)C([H])([H])C([H])(F)C(C([H])([H])[H])(C([H])([H])[H])C([H])([H])[H])c([H])c([H])c2C1([H])[H]

$$$$
53:0:0
     RDKit          3D

 94102  0  0  1  0  0  0  0  0999 V2000
  -27.6090  -20.9410   20.3090 C   0  0  0  0  0  0  0  0  0  0  0  0
  -28.5660  -20.1950   20.8840 N   0  0  0  0  0  0  0  0  0  0  0  0
  -26.9070  -20.5670   19.3680 O   0  0  0  0  0  0  0  0  0  0  0  0
  -28.9430  -20.5620   21.7460 H   0  0  0  0  0  0  0  0  0  0  0  0
  -30.9210  -14.4870   20.0990 C   0  0  0  0  0  0  0  0  0  0  0  0
  -30.5700  -12.3660   18.9020 C   0  0  0  0  0  2  0  0  0  0  0  0
  -29.5510  -12.6120   17.7690 C   0  0  0  0  0  2  0  0  0  0  0  0
  -28.1050  -12.4670   18.2890 C   0  0  0  0  0  2  0  0  0  0  0  0
  -27.8540  -13.2870   19.5820 C   0  0  0  0  0  3  0  0  0  0  0  0
  -28.9630  -12.9930   20.6150 C   0  0  0  0  0  2  0  0  0  0  0  0
  -30.2680  -13.3000   19.9960 N   0  0  0  0  0  0  0  0  0  0  0  0
  -31.9570  -14.7530   19.4780 O   0  0  0  0  0  0  0  0  0  0  0  0
  -29.2860  -18.4240   19.2750 C   0  0  0  0  0  0  0  0  0  0  0  0
  -29.0220  -18.9670   20.5240 C   0  0  0  0  0  0  0  0  0  0  0  0
  -29.9430  -16.6800   20.5850 C   0  0  0  0  0  0  0  0  0  0  0  0
  -29.1250  -19.0540   17.9200 C   0  0  0  0  0  1  0  0  0  0  0  0
  -29.7910  -17.1180   19.3310 N   0  0  0  0  0  0  0  0  0  0  0  0
  -30.3350  -15.3660   20.9180 N   0  0  0  0  0  0  0  0  0  0  0  0
  -29.4500  -17.8420   21.7940 S   0  0  0  0  0  0  0  0  0  0  0  0
  -29.7650  -14.9530   21.6380 H   0  0  0  0  0  0  0  0  0  0  0  0
  -25.5130  -13.9250   20.4540 C   0  0  0  0  0  0  0  0  0  0  0  0
  -24.4540  -13.1600   20.8690 C   0  0  0  0  0  0  0  0  0  0  0  0
  -24.8850  -11.8030   20.7650 C   0  0  0  0  0  0  0  0  0  0  0  0
  -26.5230  -13.0290   20.1300 N   0  0  0  0  0  0  0  0  0  0  0  0
  -26.1500  -11.7470   20.3710 N   0  0  0  0  0  0  0  0  0  0  0  0
  -24.1470  -10.5500   20.9650 C   0  0  0  0  0  0  0  0  0  0  0  0
  -24.5680   -9.5930   21.9140 C   0  0  0  0  0  3  0  0  0  0  0  0
  -23.8400   -8.3980   22.0980 C   0  0  0  0  0  3  0  0  0  0  0  0
  -22.6740   -8.1540   21.3330 C   0  0  0  0  0  0  0  0  0  0  0  0
  -22.2720   -9.1000   20.3730 C   0  0  0  0  0  3  0  0  0  0  0  0
  -23.0020  -10.2860   20.1870 C   0  0  0  0  0  3  0  0  0  0  0  0
  -21.9160   -7.0110   21.4250 O   0  0  0  0  0  0  0  0  0  0  0  0
  -21.7760   -6.3330   22.6100 C   0  0  0  0  0  0  0  0  0  0  0  0
  -21.2510   -6.9510   23.7660 C   0  0  0  0  0  3  0  0  0  0  0  0
  -21.0610   -6.1970   24.9420 C   0  0  0  0  0  3  0  0  0  0  0  0
  -21.3860   -4.8280   24.9620 C   0  0  0  0  0  0  0  0  0  0  0  0
  -21.9020   -4.2090   23.8090 C   0  0  0  0  0  3  0  0  0  0  0  0
  -22.0950   -4.9600   22.6370 C   0  0  0  0  0  0  0  0  0  0  0  0
  -22.5720   -4.3550   21.5230 F   0  0  0  0  0  0  0  0  0  0  0  0
  -21.1960   -4.1020   26.0890 F   0  0  0  0  0  0  0  0  0  0  0  0
  -23.0900  -13.6520   21.2550 C   0  0  0  0  0  0  0  0  0  0  0  0
  -22.4160  -12.9430   22.1560 N   0  0  0  0  0  0  0  0  0  0  0  0
  -22.6320  -14.6970   20.7950 O   0  0  0  0  0  0  0  0  0  0  0  0
  -22.7990  -12.0950   22.5480 H   0  0  0  0  0  0  0  0  0  0  0  0
  -21.5050  -13.2530   22.4580 H   0  0  0  0  0  0  0  0  0  0  0  0
  -25.7000  -15.2950   20.3120 N   0  0  0  0  0  0  0  0  0  0  0  0
  -24.9600  -15.9670   20.4860 H   0  0  0  0  0  0  0  0  0  0  0  0
  -26.5390  -15.7210   19.9360 H   0  0  0  0  0  0  0  0  0  0  0  0
  -27.3710  -22.3140   20.9320 C   0  0  0  0  0  2  0  0  0  0  0  0
  -28.6450  -23.1900   20.9220 C   0  0  0  0  0  2  0  0  0  0  0  0
  -28.5180  -24.4260   20.0370 C   0  0  0  0  0  0  0  0  0  0  0  0
  -28.3090  -24.3220   18.8230 O   0  0  0  0  0  0  0  0  0  0  0  0
  -28.6870  -25.7820   20.7310 C   0  0  0  0  0  2  0  0  0  0  0  0
  -28.5750  -26.8600   19.8040 O   0  0  0  0  0  0  0  0  0  0  0  0
  -24.5260  -31.6900   23.0820 C   0  0  0  0  0  0  0  0  0  0  0  0
  -27.3680  -27.5080   19.8540 C   0  0  0  0  0  0  0  0  0  0  0  0
  -23.3860  -30.3100   21.3690 C   0  0  0  0  0  3  0  0  0  0  0  0
  -24.9100  -28.8810   19.9090 C   0  0  0  0  0  0  0  0  0  0  0  0
  -25.8930  -30.7790   21.2120 C   0  0  0  0  0  2  0  0  0  0  0  0
  -26.0360  -29.4350   20.5310 C   0  0  0  0  0  0  0  0  0  0  0  0
  -27.2680  -28.7500   20.5110 C   0  0  0  0  0  3  0  0  0  0  0  0
  -26.2300  -26.9520   19.2370 C   0  0  0  0  0  3  0  0  0  0  0  0
  -24.9960  -27.6310   19.2690 C   0  0  0  0  0  3  0  0  0  0  0  0
  -23.6340  -29.6900   19.9670 C   0  0  0  0  0  2  0  0  0  0  0  0
  -24.6190  -30.9380   21.9490 N   0  0  0  0  0  0  0  0  0  0  0  0
  -23.4310  -31.9030   23.6200 O   0  0  0  0  0  0  0  0  0  0  0  0
  -22.7660  -29.2300   22.2820 C   0  0  0  0  0  0  0  0  0  0  0  0
  -21.4480  -29.0170   22.1470 N   0  0  0  0  0  0  0  0  0  0  0  0
  -23.4670  -28.5900   23.0710 O   0  0  0  0  0  0  0  0  0  0  0  0
  -20.9450  -29.5930   21.4870 H   0  0  0  0  0  0  0  0  0  0  0  0
  -18.1050  -27.7270   22.5860 C   0  0  0  0  0  0  0  0  0  0  0  0
  -20.6560  -28.0220   22.8680 C   0  0  0  0  0  3  0  0  0  0  0  0
  -20.7850  -26.6250   22.2160 C   0  0  0  0  0  2  0  0  0  0  0  0
  -19.6870  -26.3370   21.1860 C   0  0  0  0  0  2  0  0  0  0  0  0
  -18.3060  -26.4180   21.8400 C   0  0  0  0  0  2  0  0  0  0  0  0
  -19.2090  -28.4880   23.0540 C   0  0  0  0  0  0  0  0  0  0  0  0
  -18.9650  -29.7140   23.7100 C   0  0  0  0  0  3  0  0  0  0  0  0
  -17.6510  -30.1800   23.9030 C   0  0  0  0  0  3  0  0  0  0  0  0
  -16.5630  -29.4150   23.4500 C   0  0  0  0  0  3  0  0  0  0  0  0
  -16.7920  -28.1900   22.7980 C   0  0  0  0  0  3  0  0  0  0  0  0
  -25.7850  -32.3370   23.7410 C   0  0  0  0  0  3  0  0  0  0  0  0
  -26.3200  -31.5320   24.9880 C   0  0  1  0  0  0  0  0  0  0  0  0
  -25.2320  -31.2140   26.0400 C   0  0  0  0  0  1  0  0  0  0  0  0
  -26.9530  -30.1930   24.5410 C   0  0  0  0  0  1  0  0  0  0  0  0
  -27.4360  -32.3360   25.6950 C   0  0  0  0  0  1  0  0  0  0  0  0
  -25.4260  -33.7090   24.1220 N   0  0  0  0  0  0  0  0  0  0  0  0
  -25.7300  -34.8010   23.4090 C   0  0  0  0  0  0  0  0  0  0  0  0
  -26.4160  -34.7620   22.3830 O   0  0  0  0  0  0  0  0  0  0  0  0
  -24.8170  -33.8110   24.9210 H   0  0  0  0  0  0  0  0  0  0  0  0
  -23.9450  -36.5450   23.1010 C   0  0  0  0  0  1  0  0  0  0  0  0
  -25.1890  -36.1530   23.9120 C   0  0  0  0  0  3  0  0  0  0  0  0
  -27.2790  -37.0800   24.8070 C   0  0  0  0  0  1  0  0  0  0  0  0
  -26.1860  -37.2440   23.8520 N   0  0  0  0  0  0  0  0  0  0  0  0
  -25.7450  -38.1430   24.0250 H   0  0  0  0  0  0  0  0  0  0  0  0
  1  2  1  0
  1 49  1  0
  2  4  1  0
  3  1  2  0
  5 18  1  0
  6 11  1  0
  7  8  1  0
  7  6  1  0
  9  8  1  0
  9 24  1  0
  9 10  1  0
 11  5  1  0
 11 10  1  0
 12  5  2  0
 13 17  1  0
 13 14  2  0
 14  2  1  0
 14 19  1  0
 15 18  1  0
 15 19  1  0
 16 13  1  0
 17 15  2  0
 18 20  1  0
 21 22  2  0
 22 41  1  0
 23 22  1  0
 23 26  1  0
 24 25  1  0
 24 21  1  0
 25 23  2  0
 26 27  1  0
 27 28  2  0
 29 32  1  0
 29 28  1  0
 30 29  2  0
 31 30  1  0
 31 26  2  0
 32 33  1  0
 33 38  2  0
 33 34  1  0
 34 35  2  0
 35 36  1  0
 36 40  1  0
 37 36  2  0
 38 37  1  0
 39 38  1  0
 41 42  1  0
 42 45  1  0
 42 44  1  0
 43 41  2  0
 46 21  1  0
 46 47  1  0
 48 46  1  0
 50 49  1  0
 51 53  1  0
 51 50  1  0
 52 51  2  0
 54 56  1  0
 54 53  1  0
 55 66  2  0
 56 61  1  0
 57 65  1  0
 57 67  1  0
 58 64  1  0
 58 60  1  0
 59 65  1  0
 60 59  1  0
 61 60  2  0
 62 63  1  0
 62 56  2  0
 63 58  2  0
 64 57  1  0
 65 55  1  0
 67 69  2  0
 68 67  1  0
 70 68  1  0
 71 80  2  0
 71 76  1  0
 72 68  1  0
 72 76  1  0
 73 72  1  0
 74 75  1  0
 74 73  1  0
 75 71  1  0
 76 77  2  0
 77 78  1  0
 79 78  2  0
 80 79  1  0
 81 55  1  0
 81 86  1  0
 81 82  1  0
 82 85  1  1
 82 83  1  0
 84 82  1  0
 86 89  1  0
 87 91  1  0
 87 86  1  0
 88 87  2  0
 91 90  1  0
 93 91  1  0
 93 94  1  0
 93 92  1  0
M  ISO  4   5 100  18 100  53 101  54 101
M  END
>  <TORSDO>  (53) 
F 20

>  <SCORE>  (53) 
-12.494

>  <name>  (53) 
53

>  <ligand_id>  (53) 
53

>  <original_smiles>  (53) 
[H]c1c([H])c([H])c2c(c1[H])C([H])([H])C([H])([H])C([H])([H])C2([H])N([H])C(=O)C1([H])N(C(=O)C([H])(N([H])C(=O)C([H])(N([H])C([H])([H])[H])C([H])([H])[H])C(C([H])([H])[H])(C([H])([H])[H])C([H])([H])[H])C([H])([H])c2c([H])c(OC([H])([H])C(=O)C([H])([H])C([H])([H])C(=O)N([H])c3sc(N([H])C(=O)N4C([H])([H])C([H])([H])C([H])([H])C([H])(n5nc(-c6c([H])c([H])c(Oc7c([H])c([H])c(F)c([H])c7F)c([H])c6[H])c(C(=O)N([H])[H])c5N([H])[H])C4([H])[H])nc3C([H])([H])[H])c([H])c([H])c2C1([H])[H]

>  <smiles>  (53) 
[H]c1c([H])c([H])c2c(c1[H])C([H])([H])C([H])([H])C([H])([H])C2([H])N([H])C(=O)C1([H])N(C(=O)C([H])(N([H])C(=O)C([H])(N([H])C([H])([H])[H])C([H])([H])[H])C(C([H])([H])[H])(C([H])([H])[H])C([H])([H])[H])C([H])([H])c2c([H])c(OC([H])([H])C(=O)C([H])([H])C([H])([H])C(=O)N([H])c3sc(N([H])C(=O)N4C([H])([H])C([H])([H])C([H])([H])C([H])(n5nc(-c6c([H])c([H])c(Oc7c([H])c([H])c(F)c([H])c7F)c([H])c6[H])c(C(=O)N([H])[H])c5N([H])[H])C4([H])[H])nc3C([H])([H])[H])c([H])c([H])c2C1([H])[H]

$$$$
54:0:0
     RDKit          3D

 96104  0  0  1  0  0  0  0  0999 V2000
  -28.7550  -22.9700   20.7790 C   0  0  0  0  0  0  0  0  0  0  0  0
  -29.6520  -22.0340   20.3900 N   0  0  0  0  0  0  0  0  0  0  0  0
  -27.7170  -22.6790   21.3810 O   0  0  0  0  0  0  0  0  0  0  0  0
  -30.5030  -22.4160   19.9990 H   0  0  0  0  0  0  0  0  0  0  0  0
  -28.3840  -19.9080   20.2020 C   0  0  0  0  0  3  0  0  0  0  0  0
  -28.6050  -18.4950   20.1350 C   0  0  0  0  0  0  0  0  0  0  0  0
  -29.9210  -18.1460   20.3220 C   0  0  0  0  0  0  0  0  0  0  0  0
  -29.5150  -20.6690   20.3900 C   0  0  0  0  0  0  0  0  0  0  0  0
  -30.8920  -19.5920   20.5590 S   0  0  0  0  0  0  0  0  0  0  0  0
  -27.5270  -17.5210   19.7880 C   0  0  1  0  0  0  0  0  0  0  0  0
  -26.3430  -18.1200   19.6480 F   0  0  0  0  0  0  0  0  0  0  0  0
  -27.8230  -16.9520   18.6240 F   0  0  0  0  0  0  0  0  0  0  0  0
  -27.3820  -16.5760   20.7180 F   0  0  0  0  0  0  0  0  0  0  0  0
  -30.5790  -16.8260   20.2550 C   0  0  0  0  0  3  0  0  0  0  0  0
  -30.0680  -15.6600   20.4920 N   0  0  0  0  0  0  0  0  0  0  0  0
  -30.8480  -14.5320   20.1810 C   0  0  0  0  0  0  0  0  0  0  0  0
  -30.6220  -12.2130   19.3520 C   0  0  0  0  0  2  0  0  0  0  0  0
  -29.6730  -12.2160   18.1370 C   0  0  0  0  0  2  0  0  0  0  0  0
  -28.2140  -12.0400   18.5970 C   0  0  0  0  0  2  0  0  0  0  0  0
  -27.8260  -13.0080   19.7480 C   0  0  0  0  0  3  0  0  0  0  0  0
  -28.9060  -13.0380   20.8550 C   0  0  0  0  0  2  0  0  0  0  0  0
  -30.2100  -13.3220   20.2330 N   0  0  0  0  0  0  0  0  0  0  0  0
  -31.9930  -14.5930   19.7250 O   0  0  0  0  0  0  0  0  0  0  0  0
  -25.4470  -13.5460   20.5780 C   0  0  0  0  0  0  0  0  0  0  0  0
  -24.4100  -12.7550   20.9820 C   0  0  0  0  0  0  0  0  0  0  0  0
  -24.8890  -11.4140   20.8940 C   0  0  0  0  0  0  0  0  0  0  0  0
  -26.5010  -12.6940   20.2850 N   0  0  0  0  0  0  0  0  0  0  0  0
  -26.1670  -11.4000   20.5300 N   0  0  0  0  0  0  0  0  0  0  0  0
  -24.1800  -10.1420   21.0760 C   0  0  0  0  0  0  0  0  0  0  0  0
  -24.5960   -9.1980   22.0390 C   0  0  0  0  0  3  0  0  0  0  0  0
  -23.8840   -7.9920   22.2100 C   0  0  0  0  0  3  0  0  0  0  0  0
  -22.7420   -7.7240   21.4190 C   0  0  0  0  0  0  0  0  0  0  0  0
  -22.3450   -8.6580   20.4470 C   0  0  0  0  0  3  0  0  0  0  0  0
  -23.0590   -9.8550   20.2730 C   0  0  0  0  0  3  0  0  0  0  0  0
  -22.0040   -6.5680   21.4980 O   0  0  0  0  0  0  0  0  0  0  0  0
  -21.8380   -5.9020   22.6860 C   0  0  0  0  0  0  0  0  0  0  0  0
  -21.2660   -6.5250   23.8160 C   0  0  0  0  0  3  0  0  0  0  0  0
  -21.0500   -5.7840   24.9950 C   0  0  0  0  0  3  0  0  0  0  0  0
  -21.3960   -4.4200   25.0430 C   0  0  0  0  0  0  0  0  0  0  0  0
  -21.9610   -3.7960   23.9170 C   0  0  0  0  0  3  0  0  0  0  0  0
  -22.1790   -4.5350   22.7410 C   0  0  0  0  0  0  0  0  0  0  0  0
  -22.7040   -3.9240   21.6510 F   0  0  0  0  0  0  0  0  0  0  0  0
  -21.1810   -3.7060   26.1730 F   0  0  0  0  0  0  0  0  0  0  0  0
  -23.0240  -13.2160   21.3280 C   0  0  0  0  0  0  0  0  0  0  0  0
  -22.3440  -12.4970   22.2130 N   0  0  0  0  0  0  0  0  0  0  0  0
  -22.5550  -14.2490   20.8530 O   0  0  0  0  0  0  0  0  0  0  0  0
  -22.7370  -11.6610   22.6200 H   0  0  0  0  0  0  0  0  0  0  0  0
  -21.4170  -12.7870   22.4900 H   0  0  0  0  0  0  0  0  0  0  0  0
  -25.5530  -14.9150   20.4150 N   0  0  0  0  0  0  0  0  0  0  0  0
  -24.7650  -15.5360   20.5510 H   0  0  0  0  0  0  0  0  0  0  0  0
  -26.3770  -15.3820   20.0530 H   0  0  0  0  0  0  0  0  0  0  0  0
  -28.2730  -25.3600   20.6870 C   0  0  0  0  0  3  0  0  0  0  0  0
  -29.1380  -24.3480   20.4310 C   0  0  0  0  0  0  0  0  0  0  0  0
  -30.3230  -24.6010   19.8520 O   0  0  0  0  0  0  0  0  0  0  0  0
  -30.3610  -25.5390   19.7110 H   0  0  0  0  0  0  0  0  0  0  0  0
  -28.4860  -26.6910   20.3750 O   0  0  0  0  0  0  0  0  0  0  0  0
  -24.7160  -31.9300   23.4220 C   0  0  0  0  0  0  0  0  0  0  0  0
  -27.3570  -27.4880   20.3350 C   0  0  0  0  0  0  0  0  0  0  0  0
  -23.5260  -30.5760   21.7270 C   0  0  0  0  0  3  0  0  0  0  0  0
  -24.9880  -29.0400   20.3090 C   0  0  0  0  0  0  0  0  0  0  0  0
  -26.0610  -30.8940   21.5960 C   0  0  0  0  0  2  0  0  0  0  0  0
  -26.1420  -29.5330   20.9340 C   0  0  0  0  0  0  0  0  0  0  0  0
  -27.3320  -28.7650   20.9450 C   0  0  0  0  0  3  0  0  0  0  0  0
  -26.1900  -27.0180   19.6910 C   0  0  0  0  0  3  0  0  0  0  0  0
  -25.0090  -27.7820   19.6820 C   0  0  0  0  0  3  0  0  0  0  0  0
  -23.7570  -29.9170   20.3410 C   0  0  0  0  0  2  0  0  0  0  0  0
  -24.7850  -31.1470   22.3070 N   0  0  0  0  0  0  0  0  0  0  0  0
  -23.6270  -32.2120   23.9400 O   0  0  0  0  0  0  0  0  0  0  0  0
  -22.8330  -29.5510   22.6550 C   0  0  0  0  0  0  0  0  0  0  0  0
  -21.5110  -29.3890   22.4880 N   0  0  0  0  0  0  0  0  0  0  0  0
  -23.4850  -28.9060   23.4800 O   0  0  0  0  0  0  0  0  0  0  0  0
  -21.0480  -29.9620   21.7960 H   0  0  0  0  0  0  0  0  0  0  0  0
  -18.1040  -28.2520   22.8900 C   0  0  0  0  0  0  0  0  0  0  0  0
  -20.6600  -28.4520   23.2210 C   0  0  0  0  0  3  0  0  0  0  0  0
  -20.7460  -27.0310   22.6160 C   0  0  0  0  0  2  0  0  0  0  0  0
  -19.6600  -26.7530   21.5730 C   0  0  0  0  0  2  0  0  0  0  0  0
  -18.2680  -26.9130   22.1900 C   0  0  0  0  0  2  0  0  0  0  0  0
  -19.2280  -28.9810   23.3600 C   0  0  0  0  0  0  0  0  0  0  0  0
  -19.0220  -30.2360   23.9720 C   0  0  0  0  0  3  0  0  0  0  0  0
  -17.7240  -30.7610   24.1200 C   0  0  0  0  0  3  0  0  0  0  0  0
  -16.6140  -30.0270   23.6680 C   0  0  0  0  0  3  0  0  0  0  0  0
  -16.8040  -28.7740   23.0580 C   0  0  0  0  0  3  0  0  0  0  0  0
  -25.9970  -32.5270   24.0820 C   0  0  0  0  0  3  0  0  0  0  0  0
  -25.7120  -33.9290   24.4160 N   0  0  0  0  0  0  0  0  0  0  0  0
  -26.0580  -34.9770   23.6560 C   0  0  0  0  0  0  0  0  0  0  0  0
  -26.7230  -34.8650   22.6230 O   0  0  0  0  0  0  0  0  0  0  0  0
  -25.1220  -34.0910   25.2190 H   0  0  0  0  0  0  0  0  0  0  0  0
  -24.3430  -36.7850   23.3210 C   0  0  0  0  0  1  0  0  0  0  0  0
  -25.5910  -36.3710   24.1160 C   0  0  0  0  0  3  0  0  0  0  0  0
  -27.7470  -37.2350   24.9120 C   0  0  0  0  0  1  0  0  0  0  0  0
  -26.6340  -37.4140   23.9850 N   0  0  0  0  0  0  0  0  0  0  0  0
  -26.2390  -38.3380   24.1350 H   0  0  0  0  0  0  0  0  0  0  0  0
  -26.4660  -31.7320   25.3620 C   0  0  1  0  0  0  0  0  0  0  0  0
  -25.3380  -31.4920   26.3920 C   0  0  0  0  0  1  0  0  0  0  0  0
  -27.0440  -30.3530   24.9670 C   0  0  0  0  0  1  0  0  0  0  0  0
  -27.6040  -32.5030   26.0710 C   0  0  0  0  0  1  0  0  0  0  0  0
  1  3  2  0
  2  1  1  0
  4  2  1  0
  5  8  2  0
  6  5  1  0
  6  7  2  0
  7  9  1  0
  8  2  1  0
  8  9  1  0
 10  6  1  0
 10 13  1  1
 11 10  1  0
 12 10  1  0
 14  7  1  0
 14 15  2  0
 16 22  1  0
 16 15  1  0
 17 22  1  0
 18 19  1  0
 18 17  1  0
 20 19  1  0
 20 27  1  0
 20 21  1  0
 22 21  1  0
 23 16  2  0
 24 25  2  0
 25 44  1  0
 26 25  1  0
 26 29  1  0
 27 28  1  0
 27 24  1  0
 28 26  2  0
 29 30  1  0
 30 31  2  0
 32 35  1  0
 32 31  1  0
 33 32  2  0
 34 33  1  0
 34 29  2  0
 35 36  1  0
 36 41  2  0
 36 37  1  0
 37 38  2  0
 38 39  1  0
 39 43  1  0
 40 39  2  0
 41 40  1  0
 42 41  1  0
 44 45  1  0
 45 48  1  0
 45 47  1  0
 46 44  2  0
 49 50  1  0
 49 24  1  0
 51 49  1  0
 53 52  2  0
 53  1  1  0
 54 53  1  0
 55 54  1  0
 56 52  1  0
 57 68  2  0
 58 56  1  0
 58 63  1  0
 59 67  1  0
 59 69  1  0
 60 66  1  0
 60 62  1  0
 61 67  1  0
 62 63  2  0
 62 61  1  0
 64 58  2  0
 65 64  1  0
 65 60  2  0
 66 59  1  0
 67 57  1  0
 69 71  2  0
 70 69  1  0
 72 70  1  0
 73 82  2  0
 73 78  1  0
 74 70  1  0
 74 78  1  0
 75 74  1  0
 76 77  1  0
 76 75  1  0
 77 73  1  0
 78 79  2  0
 79 80  1  0
 81 80  2  0
 82 81  1  0
 83 57  1  0
 83 84  1  0
 83 93  1  0
 84 87  1  0
 85 89  1  0
 85 84  1  0
 86 85  2  0
 89 88  1  0
 91 89  1  0
 91 92  1  0
 91 90  1  0
 93 96  1  1
 93 94  1  0
 95 93  1  0
M  ISO  4  15 100  16 100  52 101  56 101
M  END
>  <TORSDO>  (54) 
F 21

>  <SCORE>  (54) 
-13.658

>  <name>  (54) 
54

>  <ligand_id>  (54) 
54

>  <original_smiles>  (54) 
[H]OC(C(=O)N([H])c1sc(C([H])=NC(=O)N2C([H])([H])C([H])([H])C([H])([H])C([H])(n3nc(-c4c([H])c([H])c(Oc5c([H])c([H])c(F)c([H])c5F)c([H])c4[H])c(C(=O)N([H])[H])c3N([H])[H])C2([H])[H])c(C(F)(F)F)c1[H])=C([H])Oc1c([H])c([H])c2c(c1[H])C([H])([H])N(C(=O)C([H])(N([H])C(=O)C([H])(N([H])C([H])([H])[H])C([H])([H])[H])C(C([H])([H])[H])(C([H])([H])[H])C([H])([H])[H])C([H])(C(=O)N([H])C1([H])c3c([H])c([H])c([H])c([H])c3C([H])([H])C([H])([H])C1([H])[H])C2([H])[H]

>  <smiles>  (54) 
[H]OC(C(=O)N([H])c1sc(C([H])=NC(=O)N2C([H])([H])C([H])([H])C([H])([H])C([H])(n3nc(-c4c([H])c([H])c(Oc5c([H])c([H])c(F)c([H])c5F)c([H])c4[H])c(C(=O)N([H])[H])c3N([H])[H])C2([H])[H])c(C(F)(F)F)c1[H])=C([H])Oc1c([H])c([H])c2c(c1[H])C([H])([H])N(C(=O)C([H])(N([H])C(=O)C([H])(N([H])C([H])([H])[H])C([H])([H])[H])C(C([H])([H])[H])(C([H])([H])[H])C([H])([H])[H])C([H])(C(=O)N([H])C1([H])c3c([H])c([H])c([H])c([H])c3C([H])([H])C([H])([H])C1([H])[H])C2([H])[H]

$$$$
55:0:0
     RDKit          3D

 99107  0  0  1  0  0  0  0  0999 V2000
  -30.1340  -18.9390   21.8800 C   0  0  0  0  0  3  0  0  0  0  0  0
  -29.7520  -20.2710   21.6150 C   0  0  0  0  0  3  0  0  0  0  0  0
  -30.4110  -19.9760   19.3060 C   0  0  0  0  0  3  0  0  0  0  0  0
  -30.6780  -18.1080   20.8760 C   0  0  0  0  0  0  0  0  0  0  0  0
  -30.8190  -18.6420   19.5610 C   0  0  0  0  0  0  0  0  0  0  0  0
  -29.9020  -20.8240   20.3180 C   0  0  0  0  0  0  0  0  0  0  0  0
  -29.1740  -23.2290   20.7200 C   0  0  0  0  0  0  0  0  0  0  0  0
  -29.5780  -22.1810   19.9580 N   0  0  0  0  0  0  0  0  0  0  0  0
  -29.0190  -23.1520   21.9400 O   0  0  0  0  0  0  0  0  0  0  0  0
  -29.7440  -22.4110   18.9890 H   0  0  0  0  0  0  0  0  0  0  0  0
  -28.7230  -25.6350   20.6200 C   0  0  0  0  0  3  0  0  0  0  0  0
  -28.9730  -24.4750   19.9560 C   0  0  0  0  0  0  0  0  0  0  0  0
  -29.0170  -24.4720   18.6100 O   0  0  0  0  0  0  0  0  0  0  0  0
  -28.8140  -23.5960   18.3110 H   0  0  0  0  0  0  0  0  0  0  0  0
  -28.6000  -26.8590   20.0050 O   0  0  0  0  0  0  0  0  0  0  0  0
  -24.5780  -31.8500   23.1950 C   0  0  0  0  0  0  0  0  0  0  0  0
  -27.3970  -27.5330   20.0910 C   0  0  0  0  0  0  0  0  0  0  0  0
  -23.4380  -30.4440   21.5110 C   0  0  0  0  0  3  0  0  0  0  0  0
  -24.9560  -28.9600   20.0970 C   0  0  0  0  0  0  0  0  0  0  0  0
  -25.9560  -30.8750   21.3550 C   0  0  0  0  0  2  0  0  0  0  0  0
  -26.0900  -29.5120   20.7070 C   0  0  0  0  0  0  0  0  0  0  0  0
  -27.3160  -28.8080   20.7000 C   0  0  0  0  0  3  0  0  0  0  0  0
  -26.2450  -26.9860   19.4870 C   0  0  0  0  0  3  0  0  0  0  0  0
  -25.0240  -27.6890   19.4920 C   0  0  0  0  0  3  0  0  0  0  0  0
  -23.6870  -29.7820   20.1300 C   0  0  0  0  0  2  0  0  0  0  0  0
  -24.6750  -31.0750   22.0760 N   0  0  0  0  0  0  0  0  0  0  0  0
  -23.4820  -32.0830   23.7210 O   0  0  0  0  0  0  0  0  0  0  0  0
  -22.7940  -29.3950   22.4450 C   0  0  0  0  0  0  0  0  0  0  0  0
  -21.4730  -29.1970   22.3070 N   0  0  0  0  0  0  0  0  0  0  0  0
  -23.4800  -28.7590   23.2490 O   0  0  0  0  0  0  0  0  0  0  0  0
  -20.9760  -29.7550   21.6270 H   0  0  0  0  0  0  0  0  0  0  0  0
  -18.1020  -28.0060   22.8190 C   0  0  0  0  0  0  0  0  0  0  0  0
  -20.6660  -28.2280   23.0490 C   0  0  0  0  0  3  0  0  0  0  0  0
  -20.7460  -26.8270   22.3980 C   0  0  0  0  0  2  0  0  0  0  0  0
  -19.6210  -26.5670   21.3910 C   0  0  0  0  0  2  0  0  0  0  0  0
  -18.2540  -26.6910   22.0720 C   0  0  0  0  0  2  0  0  0  0  0  0
  -19.2370  -28.7370   23.2640 C   0  0  0  0  0  0  0  0  0  0  0  0
  -19.0430  -29.9720   23.9170 C   0  0  0  0  0  3  0  0  0  0  0  0
  -17.7460  -30.4760   24.1350 C   0  0  0  0  0  3  0  0  0  0  0  0
  -16.6260  -29.7420   23.7090 C   0  0  0  0  0  3  0  0  0  0  0  0
  -16.8050  -28.5090   23.0560 C   0  0  0  0  0  3  0  0  0  0  0  0
  -25.8350  -32.5020   23.8510 C   0  0  0  0  0  3  0  0  0  0  0  0
  -25.5030  -33.9010   24.1590 N   0  0  0  0  0  0  0  0  0  0  0  0
  -25.8700  -34.9520   23.4130 C   0  0  0  0  0  0  0  0  0  0  0  0
  -26.5970  -34.8470   22.4210 O   0  0  0  0  0  0  0  0  0  0  0  0
  -24.8630  -34.0580   24.9250 H   0  0  0  0  0  0  0  0  0  0  0  0
  -24.1800  -36.7460   22.9280 C   0  0  0  0  0  1  0  0  0  0  0  0
  -25.3500  -36.3390   23.8360 C   0  0  0  0  0  3  0  0  0  0  0  0
  -27.4010  -37.2240   24.8500 C   0  0  0  0  0  1  0  0  0  0  0  0
  -26.3890  -37.3910   23.8090 N   0  0  0  0  0  0  0  0  0  0  0  0
  -25.9730  -38.3120   23.9130 H   0  0  0  0  0  0  0  0  0  0  0  0
  -26.3220  -31.7470   25.1490 C   0  0  1  0  0  0  0  0  0  0  0  0
  -25.1980  -31.4950   26.1780 C   0  0  0  0  0  1  0  0  0  0  0  0
  -26.9400  -30.3800   24.7790 C   0  0  0  0  0  1  0  0  0  0  0  0
  -27.4340  -32.5650   25.8470 C   0  0  0  0  0  1  0  0  0  0  0  0
  -31.3340  -17.8040   18.3810 C   0  0  0  0  0  2  0  0  0  0  0  0
  -33.2400  -19.5040   17.8970 C   0  0  0  0  0  1  0  0  0  0  0  0
  -33.8370  -17.2230   18.6380 C   0  0  0  0  0  1  0  0  0  0  0  0
  -32.8490  -17.5420   16.3880 C   0  0  0  0  0  1  0  0  0  0  0  0
  -32.7910  -18.0330   17.8490 C   0  0  1  0  0  0  0  0  0  0  0  0
  -31.1770  -16.7120   21.2990 C   0  0  0  0  0  2  0  0  0  0  0  0
  -30.8440  -14.5340   20.1490 C   0  0  0  0  0  0  0  0  0  0  0  0
  -30.3620  -12.4580   18.9180 C   0  0  0  0  0  2  0  0  0  0  0  0
  -29.3760  -12.7440   17.7730 C   0  0  0  0  0  2  0  0  0  0  0  0
  -27.9270  -12.6100   18.2750 C   0  0  0  0  0  2  0  0  0  0  0  0
  -27.6730  -13.3910   19.5940 C   0  0  0  0  0  3  0  0  0  0  0  0
  -28.7860  -13.1380   20.6360 C   0  0  0  0  0  2  0  0  0  0  0  0
  -30.0780  -13.4210   19.9970 N   0  0  0  0  0  0  0  0  0  0  0  0
  -31.9160  -14.6570   19.5650 O   0  0  0  0  0  0  0  0  0  0  0  0
  -30.3730  -15.5340   20.9160 N   0  0  0  0  0  0  0  0  0  0  0  0
  -29.4780  -15.4070   21.3610 H   0  0  0  0  0  0  0  0  0  0  0  0
  -25.3200  -13.9690   20.4500 C   0  0  0  0  0  0  0  0  0  0  0  0
  -24.2750  -13.1830   20.8560 C   0  0  0  0  0  0  0  0  0  0  0  0
  -24.7340  -11.8340   20.7650 C   0  0  0  0  0  0  0  0  0  0  0  0
  -26.3500  -13.0970   20.1390 N   0  0  0  0  0  0  0  0  0  0  0  0
  -26.0060  -11.8070   20.3860 N   0  0  0  0  0  0  0  0  0  0  0  0
  -24.0190  -10.5660   20.9640 C   0  0  0  0  0  0  0  0  0  0  0  0
  -24.4700   -9.6020   21.8940 C   0  0  0  0  0  3  0  0  0  0  0  0
  -23.7550   -8.4000   22.0800 C   0  0  0  0  0  3  0  0  0  0  0  0
  -22.5740   -8.1540   21.3410 C   0  0  0  0  0  0  0  0  0  0  0  0
  -22.1460   -9.1040   20.3980 C   0  0  0  0  0  3  0  0  0  0  0  0
  -22.8610  -10.2990   20.2080 C   0  0  0  0  0  3  0  0  0  0  0  0
  -21.8300   -7.0040   21.4370 O   0  0  0  0  0  0  0  0  0  0  0  0
  -21.7650   -6.2830   22.6030 C   0  0  0  0  0  0  0  0  0  0  0  0
  -21.2500   -6.8380   23.7960 C   0  0  0  0  0  3  0  0  0  0  0  0
  -21.1390   -6.0410   24.9520 C   0  0  0  0  0  3  0  0  0  0  0  0
  -21.5320   -4.6890   24.9170 C   0  0  0  0  0  0  0  0  0  0  0  0
  -22.0390   -4.1330   23.7290 C   0  0  0  0  0  3  0  0  0  0  0  0
  -22.1530   -4.9280   22.5750 C   0  0  0  0  0  0  0  0  0  0  0  0
  -22.6230   -4.3810   21.4280 F   0  0  0  0  0  0  0  0  0  0  0  0
  -21.4170   -3.9200   26.0250 F   0  0  0  0  0  0  0  0  0  0  0  0
  -22.8950  -13.6510   21.2170 C   0  0  0  0  0  0  0  0  0  0  0  0
  -22.2040  -12.9150   22.0810 N   0  0  0  0  0  0  0  0  0  0  0  0
  -22.4370  -14.7030   20.7690 O   0  0  0  0  0  0  0  0  0  0  0  0
  -22.5880  -12.0650   22.4650 H   0  0  0  0  0  0  0  0  0  0  0  0
  -21.2780  -13.2050   22.3610 H   0  0  0  0  0  0  0  0  0  0  0  0
  -25.4760  -15.3430   20.2970 N   0  0  0  0  0  0  0  0  0  0  0  0
  -24.7210  -16.0000   20.4710 H   0  0  0  0  0  0  0  0  0  0  0  0
  -26.3200  -15.7900   19.9580 H   0  0  0  0  0  0  0  0  0  0  0  0
  2  1  1  0
  3  5  2  0
  3  6  1  0
  4 61  1  0
  4  1  2  0
  5  4  1  0
  6  2  2  0
  7  9  2  0
  8  6  1  0
  8  7  1  0
 10  8  1  0
 12 11  2  0
 12  7  1  0
 13 12  1  0
 14 13  1  0
 15 17  1  0
 15 11  1  0
 16 27  2  0
 17 22  1  0
 18 26  1  0
 18 28  1  0
 19 25  1  0
 19 21  1  0
 20 26  1  0
 21 20  1  0
 22 21  2  0
 23 24  1  0
 23 17  2  0
 24 19  2  0
 25 18  1  0
 26 16  1  0
 28 30  2  0
 29 28  1  0
 31 29  1  0
 32 41  2  0
 32 37  1  0
 33 29  1  0
 33 37  1  0
 34 33  1  0
 35 36  1  0
 35 34  1  0
 36 32  1  0
 37 38  2  0
 38 39  1  0
 40 39  2  0
 41 40  1  0
 42 16  1  0
 42 43  1  0
 42 52  1  0
 43 46  1  0
 44 48  1  0
 44 43  1  0
 45 44  2  0
 48 47  1  0
 50 48  1  0
 50 51  1  0
 50 49  1  0
 52 55  1  1
 52 53  1  0
 54 52  1  0
 56  5  1  0
 60 59  1  6
 60 57  1  0
 60 56  1  0
 60 58  1  0
 62 70  1  0
 63 68  1  0
 64 65  1  0
 64 63  1  0
 66 65  1  0
 66 75  1  0
 66 67  1  0
 68 62  1  0
 68 67  1  0
 69 62  2  0
 70 61  1  0
 70 71  1  0
 72 73  2  0
 73 92  1  0
 74 73  1  0
 74 77  1  0
 75 76  1  0
 75 72  1  0
 76 74  2  0
 77 78  1  0
 78 79  2  0
 80 83  1  0
 80 79  1  0
 81 80  2  0
 82 81  1  0
 82 77  2  0
 83 84  1  0
 84 85  1  0
 85 86  2  0
 87 86  1  0
 87 91  1  0
 88 87  2  0
 89 84  2  0
 89 88  1  0
 90 89  1  0
 92 93  1  0
 93 96  1  0
 93 95  1  0
 94 92  2  0
 97 72  1  0
 97 98  1  0
 99 97  1  0
M  ISO  4  11 101  15 101  62 100  70 100
M  END
>  <TORSDO>  (55) 
F 22

>  <SCORE>  (55) 
-13.069

>  <name>  (55) 
55

>  <ligand_id>  (55) 
55

>  <original_smiles>  (55) 
[H]OC(C(=O)N([H])c1c([H])c([H])c(C([H])([H])N([H])C(=O)N2C([H])([H])C([H])([H])C([H])([H])C([H])(n3nc(-c4c([H])c([H])c(Oc5c([H])c([H])c(F)c([H])c5F)c([H])c4[H])c(C(=O)N([H])[H])c3N([H])[H])C2([H])[H])c(C([H])([H])C(C([H])([H])[H])(C([H])([H])[H])C([H])([H])[H])c1[H])=C([H])Oc1c([H])c([H])c2c(c1[H])C([H])([H])N(C(=O)C([H])(N([H])C(=O)C([H])(N([H])C([H])([H])[H])C([H])([H])[H])C(C([H])([H])[H])(C([H])([H])[H])C([H])([H])[H])C([H])(C(=O)N([H])C1([H])c3c([H])c([H])c([H])c([H])c3C([H])([H])C([H])([H])C1([H])[H])C2([H])[H]

>  <smiles>  (55) 
[H]OC(C(=O)N([H])c1c([H])c([H])c(C([H])([H])N([H])C(=O)N2C([H])([H])C([H])([H])C([H])([H])C([H])(n3nc(-c4c([H])c([H])c(Oc5c([H])c([H])c(F)c([H])c5F)c([H])c4[H])c(C(=O)N([H])[H])c3N([H])[H])C2([H])[H])c(C([H])([H])C(C([H])([H])[H])(C([H])([H])[H])C([H])([H])[H])c1[H])=C([H])Oc1c([H])c([H])c2c(c1[H])C([H])([H])N(C(=O)C([H])(N([H])C(=O)C([H])(N([H])C([H])([H])[H])C([H])([H])[H])C(C([H])([H])[H])(C([H])([H])[H])C([H])([H])[H])C([H])(C(=O)N([H])C1([H])c3c([H])c([H])c([H])c([H])c3C([H])([H])C([H])([H])C1([H])[H])C2([H])[H]

$$$$
56:0:0
     RDKit          3D

 95103  0  0  1  0  0  0  0  0999 V2000
  -28.8830  -21.4780   19.5320 C   0  0  0  0  0  2  0  0  0  0  0  0
  -29.7290  -22.7780   19.6820 C   0  0  0  0  0  0  0  0  0  0  0  0
  -30.8810  -22.6940   20.1230 O   0  0  0  0  0  0  0  0  0  0  0  0
  -29.1600  -24.1470   19.1850 C   0  0  0  0  0  2  0  0  0  0  0  0
  -28.9970  -25.3220   20.2180 C   0  0  1  0  0  0  0  0  0  0  0  0
  -27.9140  -25.0350   20.9850 F   0  0  0  0  0  0  0  0  0  0  0  0
  -30.0490  -25.3630   21.0710 F   0  0  0  0  0  0  0  0  0  0  0  0
  -28.8920  -26.5710   19.6240 O   0  0  0  0  0  0  0  0  0  0  0  0
  -24.7150  -31.3740   22.9760 C   0  0  0  0  0  0  0  0  0  0  0  0
  -27.7050  -27.2850   19.6880 C   0  0  0  0  0  0  0  0  0  0  0  0
  -23.6510  -30.0400   21.1890 C   0  0  0  0  0  3  0  0  0  0  0  0
  -25.2400  -28.6910   19.7150 C   0  0  0  0  0  0  0  0  0  0  0  0
  -26.1620  -30.5380   21.1180 C   0  0  0  0  0  2  0  0  0  0  0  0
  -26.3500  -29.2200   20.3880 C   0  0  0  0  0  0  0  0  0  0  0  0
  -27.5890  -28.5250   20.3700 C   0  0  0  0  0  3  0  0  0  0  0  0
  -26.5790  -26.7900   18.9970 C   0  0  0  0  0  3  0  0  0  0  0  0
  -25.3510  -27.4770   19.0160 C   0  0  0  0  0  3  0  0  0  0  0  0
  -23.9500  -29.4840   19.7720 C   0  0  0  0  0  2  0  0  0  0  0  0
  -24.8600  -30.6630   21.8220 N   0  0  0  0  0  0  0  0  0  0  0  0
  -23.6010  -31.5420   23.4900 O   0  0  0  0  0  0  0  0  0  0  0  0
  -23.0240  -28.9150   22.0430 C   0  0  0  0  0  0  0  0  0  0  0  0
  -21.7120  -28.6850   21.8660 N   0  0  0  0  0  0  0  0  0  0  0  0
  -23.7160  -28.2550   22.8250 O   0  0  0  0  0  0  0  0  0  0  0  0
  -21.2100  -29.2760   21.2180 H   0  0  0  0  0  0  0  0  0  0  0  0
  -18.3810  -27.3300   22.1990 C   0  0  0  0  0  0  0  0  0  0  0  0
  -20.9250  -27.6490   22.5350 C   0  0  0  0  0  3  0  0  0  0  0  0
  -21.0830  -26.2800   21.8320 C   0  0  0  0  0  2  0  0  0  0  0  0
  -20.0120  -26.0180   20.7700 C   0  0  0  0  0  2  0  0  0  0  0  0
  -18.6140  -26.0600   21.3960 C   0  0  0  0  0  2  0  0  0  0  0  0
  -19.4670  -28.0840   22.7200 C   0  0  0  0  0  0  0  0  0  0  0  0
  -19.1980  -29.2750   23.4290 C   0  0  0  0  0  3  0  0  0  0  0  0
  -17.8760  -29.7130   23.6230 C   0  0  0  0  0  3  0  0  0  0  0  0
  -16.8020  -28.9540   23.1220 C   0  0  0  0  0  3  0  0  0  0  0  0
  -17.0570  -27.7650   22.4150 C   0  0  0  0  0  3  0  0  0  0  0  0
  -25.9380  -32.0270   23.6910 C   0  0  0  0  0  3  0  0  0  0  0  0
  -26.3950  -31.2400   24.9810 C   0  0  1  0  0  0  0  0  0  0  0  0
  -25.2460  -30.9520   25.9750 C   0  0  0  0  0  1  0  0  0  0  0  0
  -27.0390  -29.8880   24.5960 C   0  0  0  0  0  1  0  0  0  0  0  0
  -27.4780  -32.0500   25.7320 C   0  0  0  0  0  1  0  0  0  0  0  0
  -25.5660  -33.4060   24.0300 N   0  0  0  0  0  0  0  0  0  0  0  0
  -25.9180  -34.4850   23.3170 C   0  0  0  0  0  0  0  0  0  0  0  0
  -26.6580  -34.4240   22.3310 O   0  0  0  0  0  0  0  0  0  0  0  0
  -24.9140  -33.5260   24.7910 H   0  0  0  0  0  0  0  0  0  0  0  0
  -24.1840  -36.2500   22.8640 C   0  0  0  0  0  1  0  0  0  0  0  0
  -25.3610  -35.8480   23.7670 C   0  0  0  0  0  3  0  0  0  0  0  0
  -27.3850  -36.7660   24.8090 C   0  0  0  0  0  1  0  0  0  0  0  0
  -26.3730  -36.9270   23.7690 N   0  0  0  0  0  0  0  0  0  0  0  0
  -25.9340  -37.8360   23.8910 H   0  0  0  0  0  0  0  0  0  0  0  0
  -29.6480  -20.2010   19.4230 N   0  0  0  0  0  0  0  0  0  0  0  0
  -30.4660  -20.2220   18.8220 H   0  0  0  0  0  0  0  0  0  0  0  0
  -31.0870  -14.6010   20.2750 C   0  0  0  0  0  0  0  0  0  0  0  0
  -30.9430  -12.2680   19.4230 C   0  0  0  0  0  2  0  0  0  0  0  0
  -30.0680  -12.1730   18.1570 C   0  0  0  0  0  2  0  0  0  0  0  0
  -28.5870  -12.0010   18.5380 C   0  0  0  0  0  2  0  0  0  0  0  0
  -28.1250  -13.0210   19.6140 C   0  0  0  0  0  3  0  0  0  0  0  0
  -29.1230  -13.0630   20.7940 C   0  0  0  0  0  2  0  0  0  0  0  0
  -30.4450  -13.3890   20.2490 N   0  0  0  0  0  0  0  0  0  0  0  0
  -32.1980  -14.7290   19.7560 O   0  0  0  0  0  0  0  0  0  0  0  0
  -28.2960  -16.5290   20.9420 C   0  0  0  0  0  3  0  0  0  0  0  0
  -27.8110  -18.7980   20.2340 C   0  0  0  0  0  3  0  0  0  0  0  0
  -27.3820  -17.5830   20.7760 C   0  0  0  0  0  0  0  0  0  0  0  0
  -29.6430  -16.6940   20.5620 C   0  0  0  0  0  0  0  0  0  0  0  0
  -29.1640  -18.9530   19.8970 C   0  0  0  0  0  0  0  0  0  0  0  0
  -30.0500  -17.9170   20.0660 N   0  0  0  0  0  0  0  0  0  0  0  0
  -30.5650  -15.6510   20.9700 N   0  0  0  0  0  0  0  0  0  0  0  0
  -26.0960  -17.4470   21.1760 F   0  0  0  0  0  0  0  0  0  0  0  0
  -31.3810  -16.1140   21.3390 H   0  0  0  0  0  0  0  0  0  0  0  0
  -25.6900  -13.6200   20.1730 C   0  0  0  0  0  0  0  0  0  0  0  0
  -24.6210  -12.8610   20.5570 C   0  0  0  0  0  0  0  0  0  0  0  0
  -25.1000  -11.5180   20.6250 C   0  0  0  0  0  0  0  0  0  0  0  0
  -26.7590  -12.7480   20.0530 N   0  0  0  0  0  0  0  0  0  0  0  0
  -26.4040  -11.4790   20.3780 N   0  0  0  0  0  0  0  0  0  0  0  0
  -24.3810  -10.2590   20.8530 C   0  0  0  0  0  0  0  0  0  0  0  0
  -24.7670   -9.3650   21.8740 C   0  0  0  0  0  3  0  0  0  0  0  0
  -24.0480   -8.1700   22.0860 C   0  0  0  0  0  3  0  0  0  0  0  0
  -22.9260   -7.8620   21.2800 C   0  0  0  0  0  0  0  0  0  0  0  0
  -22.5610   -8.7470   20.2480 C   0  0  0  0  0  3  0  0  0  0  0  0
  -23.2830   -9.9320   20.0340 C   0  0  0  0  0  3  0  0  0  0  0  0
  -22.1810   -6.7140   21.3990 O   0  0  0  0  0  0  0  0  0  0  0  0
  -21.9830   -6.1090   22.6140 C   0  0  0  0  0  0  0  0  0  0  0  0
  -21.3480   -6.7780   23.6840 C   0  0  0  0  0  3  0  0  0  0  0  0
  -21.1020   -6.0950   24.8930 C   0  0  0  0  0  3  0  0  0  0  0  0
  -21.4770   -4.7460   25.0290 C   0  0  0  0  0  0  0  0  0  0  0  0
  -22.1020   -4.0770   23.9620 C   0  0  0  0  0  3  0  0  0  0  0  0
  -22.3520   -4.7560   22.7560 C   0  0  0  0  0  0  0  0  0  0  0  0
  -22.9340   -4.1020   21.7230 F   0  0  0  0  0  0  0  0  0  0  0  0
  -21.2340   -4.0860   26.1860 F   0  0  0  0  0  0  0  0  0  0  0  0
  -23.2080  -13.3360   20.7490 C   0  0  0  0  0  0  0  0  0  0  0  0
  -22.4650  -12.7010   21.6490 N   0  0  0  0  0  0  0  0  0  0  0  0
  -22.7690  -14.3070   20.1340 O   0  0  0  0  0  0  0  0  0  0  0  0
  -22.8290  -11.9160   22.1700 H   0  0  0  0  0  0  0  0  0  0  0  0
  -21.5170  -13.0020   21.8180 H   0  0  0  0  0  0  0  0  0  0  0  0
  -25.8350  -14.9710   19.8830 N   0  0  0  0  0  0  0  0  0  0  0  0
  -25.0700  -15.6320   19.9450 H   0  0  0  0  0  0  0  0  0  0  0  0
  -26.7040  -15.3930   19.5870 H   0  0  0  0  0  0  0  0  0  0  0  0
  1  2  1  0
  2  3  2  0
  4  2  1  0
  4  5  1  0
  5  6  1  1
  5  7  1  0
  8 10  1  0
  8  5  1  0
  9 20  2  0
 10 15  1  0
 11 19  1  0
 11 21  1  0
 12 18  1  0
 12 14  1  0
 13 19  1  0
 14 13  1  0
 15 14  2  0
 16 17  1  0
 16 10  2  0
 17 12  2  0
 18 11  1  0
 19  9  1  0
 21 23  2  0
 22 21  1  0
 24 22  1  0
 25 34  2  0
 25 30  1  0
 26 22  1  0
 26 30  1  0
 27 26  1  0
 28 29  1  0
 28 27  1  0
 29 25  1  0
 30 31  2  0
 31 32  1  0
 33 32  2  0
 34 33  1  0
 35  9  1  0
 35 40  1  0
 35 36  1  0
 36 39  1  1
 36 37  1  0
 38 36  1  0
 40 43  1  0
 41 45  1  0
 41 40  1  0
 42 41  2  0
 45 44  1  0
 45 47  1  0
 47 48  1  0
 47 46  1  0
 49  1  1  0
 49 63  1  0
 50 49  1  0
 51 65  1  0
 52 57  1  0
 53 54  1  0
 53 52  1  0
 55 54  1  0
 55 71  1  0
 55 56  1  0
 57 51  1  0
 57 56  1  0
 58 51  2  0
 60 61  2  0
 61 59  1  0
 61 66  1  0
 62 59  2  0
 62 65  1  0
 63 64  2  0
 63 60  1  0
 64 62  1  0
 65 67  1  0
 68 69  2  0
 69 70  1  0
 69 88  1  0
 70 73  1  0
 71 68  1  0
 71 72  1  0
 72 70  2  0
 73 74  1  0
 74 75  2  0
 76 79  1  0
 76 75  1  0
 77 76  2  0
 78 77  1  0
 78 73  2  0
 79 80  1  0
 80 85  2  0
 80 81  1  0
 81 82  2  0
 82 83  1  0
 83 87  1  0
 84 83  2  0
 85 84  1  0
 86 85  1  0
 88 89  1  0
 89 92  1  0
 89 91  1  0
 90 88  2  0
 93 94  1  0
 93 68  1  0
 95 93  1  0
M  ISO  4   5 101   8 101  51 100  65 100
M  END
>  <TORSDO>  (56) 
F 20

>  <SCORE>  (56) 
-10.656

>  <name>  (56) 
56

>  <ligand_id>  (56) 
56

>  <original_smiles>  (56) 
[H]c1c([H])c([H])c2c(c1[H])C([H])([H])C([H])([H])C([H])([H])C2([H])N([H])C(=O)C1([H])N(C(=O)C([H])(N([H])C(=O)C([H])(N([H])C([H])([H])[H])C([H])([H])[H])C(C([H])([H])[H])(C([H])([H])[H])C([H])([H])[H])C([H])([H])c2c([H])c(OC(F)(F)C([H])([H])C(=O)C([H])([H])N([H])c3nc(N([H])C(=O)N4C([H])([H])C([H])([H])C([H])([H])C([H])(n5nc(-c6c([H])c([H])c(Oc7c([H])c([H])c(F)c([H])c7F)c([H])c6[H])c(C(=O)N([H])[H])c5N([H])[H])C4([H])[H])c([H])c(F)c3[H])c([H])c([H])c2C1([H])[H]

>  <smiles>  (56) 
[H]c1c([H])c([H])c2c(c1[H])C([H])([H])C([H])([H])C([H])([H])C2([H])N([H])C(=O)C1([H])N(C(=O)C([H])(N([H])C(=O)C([H])(N([H])C([H])([H])[H])C([H])([H])[H])C(C([H])([H])[H])(C([H])([H])[H])C([H])([H])[H])C([H])([H])c2c([H])c(OC(F)(F)C([H])([H])C(=O)C([H])([H])N([H])c3nc(N([H])C(=O)N4C([H])([H])C([H])([H])C([H])([H])C([H])(n5nc(-c6c([H])c([H])c(Oc7c([H])c([H])c(F)c([H])c7F)c([H])c6[H])c(C(=O)N([H])[H])c5N([H])[H])C4([H])[H])c([H])c(F)c3[H])c([H])c([H])c2C1([H])[H]

$$$$
57:0:0
     RDKit          3D

 97 98  0  0  1  0  0  0  0  0999 V2000
  -29.0030  -12.9310   19.1550 N   0  0  0  0  0  0  0  0  0  0  0  0
  -28.3160  -12.7590   19.8770 H   0  0  0  0  0  0  0  0  0  0  0  0
  -28.5010  -12.8050   18.2860 H   0  0  0  0  0  0  0  0  0  0  0  0
  -28.9970  -10.5140   18.3820 C   0  0  0  0  0  1  0  0  0  0  0  0
  -29.7920  -11.5890   19.1490 C   0  0  0  0  0  3  0  0  0  0  0  0
  -32.0990  -13.5770   20.2890 C   0  0  0  0  0  0  0  0  0  0  0  0
  -30.9290  -13.8800   18.0600 C   0  0  0  0  0  3  0  0  0  0  0  0
  -29.2670  -13.8950   17.0500 C   0  0  0  0  0  3  0  0  0  0  0  0
  -27.5680  -14.1090   17.9470 C   0  0  0  0  0  1  0  0  0  0  0  0
  -27.5230  -14.2660   19.9370 C   0  0  0  0  0  1  0  0  0  0  0  0
  -29.3700  -14.1950   21.0010 C   0  0  0  0  0  1  0  0  0  0  0  0
  -30.9470  -14.0570   19.9170 N   0  0  0  0  0  0  0  0  0  0  0  0
  -32.9780  -13.4430   19.4460 O   0  0  0  0  0  0  0  0  0  0  0  0
  -31.6130  -10.9270   20.7570 C   0  0  0  0  0  2  0  0  0  0  0  0
  -30.2390  -11.0120   20.4960 C   0  0  0  0  0  3  0  0  0  0  0  0
  -29.4170  -10.7010   21.6070 C   0  0  0  0  0  0  0  0  0  0  0  0
  -31.8700  -11.7600   21.8560 C   0  0  0  0  0  3  0  0  0  0  0  0
  -30.0250  -10.8420   22.8840 C   0  0  0  0  0  0  0  0  0  0  0  0
  -31.2360  -11.4610   23.0160 N   0  0  0  0  0  2  0  0  0  0  0  0
  -32.1480  -13.1200   21.5510 N   0  0  0  0  0  0  0  0  0  0  0  0
  -28.1130  -10.3740   21.4850 F   0  0  0  0  0  0  0  0  0  0  0  0
  -29.3280  -10.5200   24.0010 F   0  0  0  0  0  0  0  0  0  0  0  0
  -31.7540  -13.7530   22.2290 H   0  0  0  0  0  0  0  0  0  0  0  0
  -25.4440  -13.8870   20.9230 C   0  0  0  0  0  0  0  0  0  0  0  0
  -24.5010  -12.9620   21.1010 C   0  0  0  0  0  0  0  0  0  0  0  0
  -25.0660  -11.6710   20.8750 C   0  0  0  0  0  0  0  0  0  0  0  0
  -26.5170  -13.2790   20.4420 N   0  0  0  0  0  0  0  0  0  0  0  0
  -26.3580  -11.8740   20.4420 N   0  0  0  0  0  0  0  0  0  0  0  0
  -24.3080  -10.3720   21.0150 C   0  0  0  0  0  0  0  0  0  0  0  0
  -24.6260   -9.3600   21.9580 C   0  0  0  0  0  3  0  0  0  0  0  0
  -23.7820   -8.2310   22.1470 C   0  0  0  0  0  3  0  0  0  0  0  0
  -22.5840   -8.0890   21.4030 C   0  0  0  0  0  0  0  0  0  0  0  0
  -22.2660   -9.0870   20.4640 C   0  0  0  0  0  3  0  0  0  0  0  0
  -23.1120  -10.1990   20.2730 C   0  0  0  0  0  3  0  0  0  0  0  0
  -21.7230   -7.0140   21.4790 O   0  0  0  0  0  0  0  0  0  0  0  0
  -21.5550   -6.2780   22.6290 C   0  0  0  0  0  0  0  0  0  0  0  0
  -21.1200   -6.8730   23.8340 C   0  0  0  0  0  3  0  0  0  0  0  0
  -20.8950   -6.0750   24.9740 C   0  0  0  0  0  3  0  0  0  0  0  0
  -21.0940   -4.6820   24.9140 C   0  0  0  0  0  0  0  0  0  0  0  0
  -21.5140   -4.0850   23.7120 C   0  0  0  0  0  3  0  0  0  0  0  0
  -21.7370   -4.8790   22.5720 C   0  0  0  0  0  0  0  0  0  0  0  0
  -22.1180   -4.2910   21.4140 F   0  0  0  0  0  0  0  0  0  0  0  0
  -20.8730   -3.9150   26.0080 F   0  0  0  0  0  0  0  0  0  0  0  0
  -23.1160  -13.3960   21.3810 C   0  0  0  0  0  0  0  0  0  0  0  0
  -22.4350  -12.7200   22.2840 N   0  0  0  0  0  0  0  0  0  0  0  0
  -22.6810  -14.4210   20.8520 O   0  0  0  0  0  0  0  0  0  0  0  0
  -22.8320  -11.9070   22.7340 H   0  0  0  0  0  0  0  0  0  0  0  0
  -21.5010  -13.0110   22.5330 H   0  0  0  0  0  0  0  0  0  0  0  0
  -25.4250  -15.2650   21.0970 N   0  0  0  0  0  0  0  0  0  0  0  0
  -24.5780  -15.7370   21.3920 H   0  0  0  0  0  0  0  0  0  0  0  0
  -26.1950  -15.9060   20.9630 H   0  0  0  0  0  0  0  0  0  0  0  0
  -29.8810  -16.4100   17.9110 C   0  0  0  0  0  1  0  0  0  0  0  0
  -28.9580  -15.6700   18.9550 C   0  0  0  0  0  1  0  0  0  0  0  0
  -28.7560  -18.2300   19.9650 C   0  0  0  0  0  2  0  0  0  0  0  0
  -28.9980  -18.0550   21.1620 O   0  0  0  0  0  0  0  0  0  0  0  0
  -28.3800  -20.7180   19.9180 C   0  0  0  0  0 15  0  0  0  0  0  0
  -28.4270  -23.0010   20.6660 O   0  0  0  0  0 15  0  0  0  0  0  0
  -25.6130  -30.8410   24.0330 C   0  0  0  0  0  0  0  0  0  0  0  0
  -27.8350  -24.8190   20.7760 C   0  0  0  0  0  3  0  0  0  0  0  0
  -24.5710  -29.6430   22.1750 C   0  0  0  0  0  3  0  0  0  0  0  0
  -26.0000  -27.7660   20.8090 C   0  0  0  0  0  0  0  0  0  0  0  0
  -27.1260  -29.1980   22.4650 C   0  0  0  0  0  2  0  0  0  0  0  0
  -27.1170  -27.7090   21.6450 C   0  0  0  0  0  0  0  0  0  0  0  0
  -27.9730  -26.3170   21.5780 C   0  0  0  0  0  3  0  0  0  0  0  0
  -26.7630  -25.4020   19.9450 C   0  0  0  0  0  3  0  0  0  0  0  0
  -25.9360  -26.6360   19.9520 C   0  0  0  0  0  3  0  0  0  0  0  0
  -24.9540  -28.9530   20.8120 C   0  0  0  0  0  2  0  0  0  0  0  0
  -25.8150  -29.9500   22.9550 N   0  0  0  0  0  0  0  0  0  0  0  0
  -24.4780  -31.2430   24.3720 O   0  0  0  0  0  0  0  0  0  0  0  0
  -23.5780  -28.7640   22.9940 C   0  0  0  0  0  0  0  0  0  0  0  0
  -22.2690  -28.7280   22.6580 N   0  0  0  0  0  0  0  0  0  0  0  0
  -24.0180  -28.0980   23.9320 O   0  0  0  0  0  0  0  0  0  0  0  0
  -21.9490  -29.3160   21.9020 H   0  0  0  0  0  0  0  0  0  0  0  0
  -18.7920  -27.5990   22.5620 C   0  0  0  0  0  0  0  0  0  0  0  0
  -21.2810  -27.8090   23.2530 C   0  0  0  0  0  3  0  0  0  0  0  0
  -21.4420  -26.3830   22.6730 C   0  0  0  0  0  2  0  0  0  0  0  0
  -20.5300  -26.1170   21.4720 C   0  0  0  0  0  2  0  0  0  0  0  0
  -19.0610  -26.2720   21.8730 C   0  0  0  0  0  2  0  0  0  0  0  0
  -19.8360  -28.3300   23.1930 C   0  0  0  0  0  0  0  0  0  0  0  0
  -19.5280  -29.5670   23.8000 C   0  0  0  0  0  3  0  0  0  0  0  0
  -18.2150  -30.0760   23.7760 C   0  0  0  0  0  3  0  0  0  0  0  0
  -17.1880  -29.3440   23.1560 C   0  0  0  0  0  3  0  0  0  0  0  0
  -17.4760  -28.1060   22.5560 C   0  0  0  0  0  3  0  0  0  0  0  0
  -26.7670  -31.4180   24.9220 C   0  0  0  0  0  3  0  0  0  0  0  0
  -26.8880  -30.6810   26.3150 C   0  0  1  0  0  0  0  0  0  0  0  0
  -25.5710  -30.6430   27.1280 C   0  0  0  0  0  1  0  0  0  0  0  0
  -27.3520  -29.2240   26.1320 C   0  0  0  0  0  1  0  0  0  0  0  0
  -27.9690  -31.3670   27.1850 C   0  0  0  0  0  1  0  0  0  0  0  0
  -26.5370  -32.8690   25.1870 N   0  0  0  0  0  0  0  0  0  0  0  0
  -27.1390  -33.8990   24.5690 C   0  0  0  0  0  0  0  0  0  0  0  0
  -27.9740  -33.7280   23.6810 O   0  0  0  0  0  0  0  0  0  0  0  0
  -25.8150  -33.0830   25.8590 H   0  0  0  0  0  0  0  0  0  0  0  0
  -25.7470  -35.9380   24.0080 C   0  0  0  0  0  1  0  0  0  0  0  0
  -26.7670  -35.3450   24.9930 C   0  0  0  0  0  3  0  0  0  0  0  0
  -28.8260  -35.9580   26.1970 C   0  0  0  0  0  1  0  0  0  0  0  0
  -27.9300  -36.2600   25.0860 N   0  0  0  0  0  0  0  0  0  0  0  0
  -27.6230  -37.2250   25.1800 H   0  0  0  0  0  0  0  0  0  0  0  0
  1  2  1  0
  3  1  1  0
  5  4  1  0
  5  1  1  0
  6 20  1  0
  7 12  1  0
  8  9  1  0
  8  7  2  0
 10 27  1  0
 12  6  1  0
 12 11  1  0
 13  6  2  0
 14 17  1  0
 15  5  1  0
 15 14  1  0
 15 16  1  0
 16 18  2  0
 17 20  1  0
 17 19  1  0
 18 19  1  0
 18 22  1  0
 20 23  1  0
 21 16  1  0
 24 49  1  0
 24 25  2  0
 25 44  1  0
 26 29  1  0
 26 25  1  0
 27 28  1  0
 27 24  1  0
 28 26  2  0
 29 30  1  0
 30 31  2  0
 32 35  1  0
 32 31  1  0
 33 32  2  0
 34 33  1  0
 34 29  2  0
 35 36  1  0
 36 37  1  0
 37 38  2  0
 39 38  1  0
 39 43  1  0
 40 39  2  0
 41 36  2  0
 41 40  1  0
 42 41  1  0
 44 45  1  0
 45 48  1  0
 45 47  1  0
 46 44  2  0
 49 50  1  0
 51 49  1  0
 52 53  1  0
 54 55  2  0
 58 69  2  0
 59 64  1  0
 60 68  1  0
 60 70  1  0
 61 67  1  0
 61 63  1  0
 62 68  1  0
 63 62  1  0
 64 63  2  0
 65 66  1  0
 65 59  2  0
 66 61  2  0
 67 60  1  0
 68 58  1  0
 70 72  2  0
 71 70  1  0
 73 71  1  0
 74 79  1  0
 75 71  1  0
 76 75  1  0
 77 78  1  0
 77 76  1  0
 78 74  1  0
 79 75  1  0
 79 80  2  0
 81 80  1  0
 82 81  2  0
 83 74  2  0
 83 82  1  0
 84 58  1  0
 84 89  1  0
 84 85  1  0
 85 86  1  1
 85 88  1  0
 87 85  1  0
 89 92  1  0
 90 94  1  0
 90 89  1  0
 91 90  2  0
 94 93  1  0
 94 96  1  0
 96 97  1  0
 96 95  1  0
M  ISO  4   6 100  20 100  56 101  57 101
M  END
>  <TORSDO>  (57) 
F 20

>  <SCORE>  (57) 
-6.624

>  <name>  (57) 
57

>  <ligand_id>  (57) 
57

>  <original_smiles>  (57) 
[H]c1c([H])c([H])c2c(c1[H])C([H])([H])C([H])([H])C([H])([H])C2([H])N([H])C(=O)C1([H])N(C(=O)C([H])(N([H])C(=O)C([H])(N([H])C([H])([H])[H])C([H])([H])[H])C(C([H])([H])[H])(C([H])([H])[H])C([H])([H])[H])C([H])([H])c2c([H])c(OC([H])([H])C(=O)C([H])(C([H])([H])[H])[N+]([H])([H])C([H])(c3c([H])c(N([H])C(=O)N4C([H])([H])C([H])([H])C([H])([H])C([H])(n5nc(-c6c([H])c([H])c(Oc7c([H])c([H])c(F)c([H])c7F)c([H])c6[H])c(C(=O)N([H])[H])c5N([H])[H])C4([H])[H])nc(F)c3F)C([H])([H])[H])c([H])c([H])c2C1([H])[H]

>  <smiles>  (57) 
[H]c1c([H])c([H])c2c(c1[H])C([H])([H])C([H])([H])C([H])([H])C2([H])N([H])C(=O)C1([H])N(C(=O)C([H])(N([H])C(=O)C([H])(N([H])C([H])([H])[H])C([H])([H])[H])C(C([H])([H])[H])(C([H])([H])[H])C([H])([H])[H])C([H])([H])c2c([H])c(OC([H])([H])C(=O)C([H])(C([H])([H])[H])[N+]([H])([H])C([H])(c3c([H])c(N([H])C(=O)N4C([H])([H])C([H])([H])C([H])([H])C([H])(n5nc(-c6c([H])c([H])c(Oc7c([H])c([H])c(F)c([H])c7F)c([H])c6[H])c(C(=O)N([H])[H])c5N([H])[H])C4([H])[H])nc(F)c3F)C([H])([H])[H])c([H])c([H])c2C1([H])[H]

$$$$
58:0:0
     RDKit          3D

 96104  0  0  1  0  0  0  0  0999 V2000
  -29.7770  -23.3720   20.7050 C   0  0  0  0  0  3  0  0  0  0  0  0
  -30.7680  -22.4850   20.4450 C   0  0  0  0  0  0  0  0  0  0  0  0
  -30.6480  -21.1530   21.0350 C   0  0  0  0  0  0  0  0  0  0  0  0
  -31.5050  -20.2850   20.4900 N   0  0  0  0  0  0  0  0  0  0  0  0
  -29.8580  -20.8350   21.9280 O   0  0  0  0  0  0  0  0  0  0  0  0
  -32.0830  -20.7380   19.7930 H   0  0  0  0  0  0  0  0  0  0  0  0
  -30.9310  -17.9670   21.1220 C   0  0  0  0  0  3  0  0  0  0  0  0
  -30.4370  -16.8020   20.4680 C   0  0  0  0  0  0  0  0  0  0  0  0
  -30.2850  -16.9420   19.1080 C   0  0  0  0  0  0  0  0  0  0  0  0
  -31.1400  -19.0070   20.2460 C   0  0  0  0  0  0  0  0  0  0  0  0
  -29.7990  -15.9860   18.0760 C   0  0  0  0  0  1  0  0  0  0  0  0
  -30.8110  -18.5210   18.6030 S   0  0  0  0  0  0  0  0  0  0  0  0
  -30.9310  -14.5400   21.1420 C   0  0  0  0  0  0  0  0  0  0  0  0
  -30.7850  -12.2780   20.2400 C   0  0  0  0  0  2  0  0  0  0  0  0
  -30.0010  -12.3530   18.9160 C   0  0  0  0  0  2  0  0  0  0  0  0
  -28.4810  -12.2630   19.1680 C   0  0  0  0  0  2  0  0  0  0  0  0
  -27.9800  -13.1880   20.3110 C   0  0  0  0  0  3  0  0  0  0  0  0
  -28.9040  -13.0940   21.5450 C   0  0  0  0  0  2  0  0  0  0  0  0
  -30.2860  -13.3480   21.1080 N   0  0  0  0  0  0  0  0  0  0  0  0
  -32.1390  -14.6680   20.9280 O   0  0  0  0  0  0  0  0  0  0  0  0
  -30.1220  -15.6070   21.1670 N   0  0  0  0  0  0  0  0  0  0  0  0
  -29.1490  -15.4050   21.3160 H   0  0  0  0  0  0  0  0  0  0  0  0
  -25.5210  -13.8190   20.7390 C   0  0  0  0  0  0  0  0  0  0  0  0
  -24.4180  -13.0530   21.0130 C   0  0  0  0  0  0  0  0  0  0  0  0
  -24.8810  -11.7030   21.0670 C   0  0  0  0  0  0  0  0  0  0  0  0
  -26.5830  -12.9320   20.6490 N   0  0  0  0  0  0  0  0  0  0  0  0
  -26.1950  -11.6590   20.9060 N   0  0  0  0  0  0  0  0  0  0  0  0
  -24.1440  -10.4410   21.2060 C   0  0  0  0  0  0  0  0  0  0  0  0
  -24.4950   -9.4850   22.1870 C   0  0  0  0  0  3  0  0  0  0  0  0
  -23.7570   -8.2900   22.3180 C   0  0  0  0  0  3  0  0  0  0  0  0
  -22.6530   -8.0410   21.4710 C   0  0  0  0  0  0  0  0  0  0  0  0
  -22.3220   -8.9840   20.4830 C   0  0  0  0  0  3  0  0  0  0  0  0
  -23.0610  -10.1720   20.3480 C   0  0  0  0  0  3  0  0  0  0  0  0
  -21.8950   -6.8950   21.5110 O   0  0  0  0  0  0  0  0  0  0  0  0
  -21.7640   -6.1580   22.6600 C   0  0  0  0  0  0  0  0  0  0  0  0
  -21.2610   -6.7160   23.8550 C   0  0  0  0  0  3  0  0  0  0  0  0
  -21.0810   -5.9050   24.9920 C   0  0  0  0  0  3  0  0  0  0  0  0
  -21.3900   -4.5320   24.9350 C   0  0  0  0  0  0  0  0  0  0  0  0
  -21.8860   -3.9730   23.7450 C   0  0  0  0  0  3  0  0  0  0  0  0
  -22.0700   -4.7820   22.6100 C   0  0  0  0  0  0  0  0  0  0  0  0
  -22.5270   -4.2330   21.4600 F   0  0  0  0  0  0  0  0  0  0  0  0
  -21.2090   -3.7490   26.0220 F   0  0  0  0  0  0  0  0  0  0  0  0
  -22.9970  -13.5280   21.1150 C   0  0  0  0  0  0  0  0  0  0  0  0
  -22.1810  -12.8590   21.9240 N   0  0  0  0  0  0  0  0  0  0  0  0
  -22.6140  -14.5320   20.5180 O   0  0  0  0  0  0  0  0  0  0  0  0
  -22.4960  -12.0550   22.4490 H   0  0  0  0  0  0  0  0  0  0  0  0
  -21.2220  -13.1610   22.0220 H   0  0  0  0  0  0  0  0  0  0  0  0
  -25.7050  -15.1900   20.5490 N   0  0  0  0  0  0  0  0  0  0  0  0
  -24.9500  -15.8640   20.6250 H   0  0  0  0  0  0  0  0  0  0  0  0
  -26.5890  -15.6350   20.3360 H   0  0  0  0  0  0  0  0  0  0  0  0
  -29.6810  -24.7420   20.1770 C   0  0  0  0  0  0  0  0  0  0  0  0
  -30.5560  -25.2720   19.4770 O   0  0  0  0  0  0  0  0  0  0  0  0
  -28.3920  -25.4940   20.5380 C   0  0  0  0  0  2  0  0  0  0  0  0
  -28.3820  -26.8000   19.9730 O   0  0  0  0  0  0  0  0  0  0  0  0
  -24.5400  -31.8530   23.1540 C   0  0  0  0  0  0  0  0  0  0  0  0
  -27.1780  -27.4580   20.0330 C   0  0  0  0  0  0  0  0  0  0  0  0
  -23.3160  -30.4490   21.5210 C   0  0  0  0  0  3  0  0  0  0  0  0
  -24.7600  -28.9120   20.0890 C   0  0  0  0  0  0  0  0  0  0  0  0
  -25.8330  -30.8270   21.2910 C   0  0  0  0  0  2  0  0  0  0  0  0
  -25.9190  -29.4580   20.6540 C   0  0  0  0  0  0  0  0  0  0  0  0
  -27.1320  -28.7410   20.6170 C   0  0  0  0  0  3  0  0  0  0  0  0
  -26.0030  -26.9110   19.4750 C   0  0  0  0  0  3  0  0  0  0  0  0
  -24.7940  -27.6370   19.4990 C   0  0  0  0  0  3  0  0  0  0  0  0
  -23.5110  -29.7640   20.1420 C   0  0  0  0  0  2  0  0  0  0  0  0
  -24.5810  -31.0590   22.0470 N   0  0  0  0  0  0  0  0  0  0  0  0
  -23.4640  -32.1220   23.7060 O   0  0  0  0  0  0  0  0  0  0  0  0
  -22.6780  -29.4290   22.4890 C   0  0  0  0  0  0  0  0  0  0  0  0
  -21.3510  -29.2540   22.3800 N   0  0  0  0  0  0  0  0  0  0  0  0
  -23.3720  -28.7960   23.2880 O   0  0  0  0  0  0  0  0  0  0  0  0
  -20.8530  -29.8150   21.7030 H   0  0  0  0  0  0  0  0  0  0  0  0
  -17.9770  -28.0890   22.9280 C   0  0  0  0  0  0  0  0  0  0  0  0
  -20.5410  -28.3170   23.1580 C   0  0  0  0  0  3  0  0  0  0  0  0
  -20.6190  -26.8900   22.5660 C   0  0  0  0  0  2  0  0  0  0  0  0
  -19.4960  -26.5900   21.5690 C   0  0  0  0  0  2  0  0  0  0  0  0
  -18.1280  -26.7440   22.2380 C   0  0  0  0  0  2  0  0  0  0  0  0
  -19.1100  -28.8360   23.3470 C   0  0  0  0  0  0  0  0  0  0  0  0
  -18.9160  -30.0960   23.9520 C   0  0  0  0  0  3  0  0  0  0  0  0
  -17.6200  -30.6100   24.1440 C   0  0  0  0  0  3  0  0  0  0  0  0
  -16.5010  -29.8610   23.7420 C   0  0  0  0  0  3  0  0  0  0  0  0
  -16.6800  -28.6020   23.1410 C   0  0  0  0  0  3  0  0  0  0  0  0
  -25.8340  -32.4790   23.7630 C   0  0  0  0  0  3  0  0  0  0  0  0
  -25.5230  -33.8670   24.1240 N   0  0  0  0  0  0  0  0  0  0  0  0
  -25.8390  -34.9360   23.3790 C   0  0  0  0  0  0  0  0  0  0  0  0
  -26.4970  -34.8550   22.3370 O   0  0  0  0  0  0  0  0  0  0  0  0
  -24.9350  -34.0040   24.9350 H   0  0  0  0  0  0  0  0  0  0  0  0
  -24.0970  -36.7230   23.0760 C   0  0  0  0  0  1  0  0  0  0  0  0
  -25.3480  -36.3130   23.8680 C   0  0  0  0  0  3  0  0  0  0  0  0
  -27.4890  -37.1920   24.6880 C   0  0  0  0  0  1  0  0  0  0  0  0
  -26.3730  -37.3730   23.7630 N   0  0  0  0  0  0  0  0  0  0  0  0
  -25.9640  -38.2880   23.9360 H   0  0  0  0  0  0  0  0  0  0  0  0
  -26.3810  -31.6850   25.0110 C   0  0  1  0  0  0  0  0  0  0  0  0
  -25.3110  -31.4240   26.0960 C   0  0  0  0  0  1  0  0  0  0  0  0
  -26.9570  -30.3170   24.5760 C   0  0  0  0  0  1  0  0  0  0  0  0
  -27.5440  -32.4700   25.6650 C   0  0  0  0  0  1  0  0  0  0  0  0
  -31.8190  -22.7730   19.6520 O   0  0  0  0  0  0  0  0  0  0  0  0
  -31.7170  -23.6750   19.3660 H   0  0  0  0  0  0  0  0  0  0  0  0
  2  1  2  0
  2  3  1  0
  3  5  2  0
  4  3  1  0
  6  4  1  0
  8  7  1  0
  8 21  1  0
  9  8  2  0
 10  4  1  0
 10  7  2  0
 11  9  1  0
 12  9  1  0
 12 10  1  0
 13 21  1  0
 14 19  1  0
 15 16  1  0
 15 14  1  0
 17 16  1  0
 17 26  1  0
 17 18  1  0
 19 13  1  0
 19 18  1  0
 20 13  2  0
 21 22  1  0
 23 24  2  0
 24 25  1  0
 24 43  1  0
 25 28  1  0
 26 23  1  0
 26 27  1  0
 27 25  2  0
 28 29  1  0
 29 30  2  0
 31 34  1  0
 31 30  1  0
 32 31  2  0
 33 32  1  0
 33 28  2  0
 34 35  1  0
 35 36  1  0
 36 37  2  0
 38 37  1  0
 38 42  1  0
 39 38  2  0
 40 35  2  0
 40 39  1  0
 41 40  1  0
 43 44  1  0
 44 47  1  0
 44 46  1  0
 45 43  2  0
 48 49  1  0
 48 23  1  0
 50 48  1  0
 51 53  1  0
 51  1  1  0
 52 51  2  0
 54 56  1  0
 54 53  1  0
 55 66  2  0
 56 61  1  0
 57 65  1  0
 57 67  1  0
 58 64  1  0
 58 60  1  0
 59 65  1  0
 60 59  1  0
 61 60  2  0
 62 63  1  0
 62 56  2  0
 63 58  2  0
 64 57  1  0
 65 55  1  0
 67 69  2  0
 68 67  1  0
 70 68  1  0
 71 80  2  0
 71 76  1  0
 72 68  1  0
 72 76  1  0
 73 72  1  0
 74 75  1  0
 74 73  1  0
 75 71  1  0
 76 77  2  0
 77 78  1  0
 79 78  2  0
 80 79  1  0
 81 55  1  0
 81 82  1  0
 81 91  1  0
 82 85  1  0
 83 87  1  0
 83 82  1  0
 84 83  2  0
 87 86  1  0
 89 87  1  0
 89 90  1  0
 89 88  1  0
 91 94  1  1
 91 92  1  0
 93 91  1  0
 95  2  1  0
 96 95  1  0
M  ISO  4  13 100  21 100  53 101  54 101
M  END
>  <TORSDO>  (58) 
F 21

>  <SCORE>  (58) 
-12.506

>  <name>  (58) 
58

>  <ligand_id>  (58) 
58

>  <original_smiles>  (58) 
[H]OC(C(=O)N([H])c1sc(C([H])([H])[H])c(N([H])C(=O)N2C([H])([H])C([H])([H])C([H])([H])C([H])(n3nc(-c4c([H])c([H])c(Oc5c([H])c([H])c(F)c([H])c5F)c([H])c4[H])c(C(=O)N([H])[H])c3N([H])[H])C2([H])[H])c1[H])=C([H])C(=O)C([H])([H])Oc1c([H])c([H])c2c(c1[H])C([H])([H])N(C(=O)C([H])(N([H])C(=O)C([H])(N([H])C([H])([H])[H])C([H])([H])[H])C(C([H])([H])[H])(C([H])([H])[H])C([H])([H])[H])C([H])(C(=O)N([H])C1([H])c3c([H])c([H])c([H])c([H])c3C([H])([H])C([H])([H])C1([H])[H])C2([H])[H]

>  <smiles>  (58) 
[H]OC(C(=O)N([H])c1sc(C([H])([H])[H])c(N([H])C(=O)N2C([H])([H])C([H])([H])C([H])([H])C([H])(n3nc(-c4c([H])c([H])c(Oc5c([H])c([H])c(F)c([H])c5F)c([H])c4[H])c(C(=O)N([H])[H])c3N([H])[H])C2([H])[H])c1[H])=C([H])C(=O)C([H])([H])Oc1c([H])c([H])c2c(c1[H])C([H])([H])N(C(=O)C([H])(N([H])C(=O)C([H])(N([H])C([H])([H])[H])C([H])([H])[H])C(C([H])([H])[H])(C([H])([H])[H])C([H])([H])[H])C([H])(C(=O)N([H])C1([H])c3c([H])c([H])c([H])c([H])c3C([H])([H])C([H])([H])C1([H])[H])C2([H])[H]

$$$$
59:0:0
     RDKit          3D

 97105  0  0  1  0  0  0  0  0999 V2000
  -26.5420  -20.3210   19.1920 O   0  0  0  0  0  0  0  0  0  0  0  0
  -27.2170  -21.0180   21.5280 O   0  0  0  0  0  0  0  0  0  0  0  0
  -27.6070  -20.6230   20.1630 S   0  0  1  0  0  0  0  0  0  0  0  0
  -29.9240  -17.6110   21.6810 C   0  0  0  0  0  3  0  0  0  0  0  0
  -29.2470  -18.8390   21.5220 C   0  0  0  0  0  3  0  0  0  0  0  0
  -30.0680  -16.7180   20.5950 C   0  0  0  0  0  0  0  0  0  0  0  0
  -29.5590  -17.1010   19.3220 C   0  0  0  0  0  0  0  0  0  0  0  0
  -28.8820  -18.3300   19.1630 C   0  0  0  0  0  0  0  0  0  0  0  0
  -28.7000  -19.1870   20.2710 C   0  0  0  0  0  0  0  0  0  0  0  0
  -29.6430  -16.2720   18.2530 F   0  0  0  0  0  0  0  0  0  0  0  0
  -28.3700  -18.6500   17.9490 F   0  0  0  0  0  0  0  0  0  0  0  0
  -31.1240  -14.5470   20.0190 C   0  0  0  0  0  0  0  0  0  0  0  0
  -30.7590  -12.3780   18.9030 C   0  0  0  0  0  2  0  0  0  0  0  0
  -29.7270  -12.5620   17.7710 C   0  0  0  0  0  2  0  0  0  0  0  0
  -28.2860  -12.4390   18.3030 C   0  0  0  0  0  2  0  0  0  0  0  0
  -28.0450  -13.3020   19.5680 C   0  0  0  0  0  3  0  0  0  0  0  0
  -29.1700  -13.0700   20.6040 C   0  0  0  0  0  2  0  0  0  0  0  0
  -30.4670  -13.3590   19.9580 N   0  0  0  0  0  0  0  0  0  0  0  0
  -32.1260  -14.8110   19.3460 O   0  0  0  0  0  0  0  0  0  0  0  0
  -30.6040  -15.4280   20.8870 N   0  0  0  0  0  0  0  0  0  0  0  0
  -30.1580  -14.9800   21.6720 H   0  0  0  0  0  0  0  0  0  0  0  0
  -25.7380  -13.9570   20.5110 C   0  0  0  0  0  0  0  0  0  0  0  0
  -24.6730  -13.2040   20.9290 C   0  0  0  0  0  0  0  0  0  0  0  0
  -25.0710  -11.8400   20.7740 C   0  0  0  0  0  0  0  0  0  0  0  0
  -26.7230  -13.0530   20.1410 N   0  0  0  0  0  0  0  0  0  0  0  0
  -26.3260  -11.7710   20.3510 N   0  0  0  0  0  0  0  0  0  0  0  0
  -24.3110  -10.5960   20.9510 C   0  0  0  0  0  0  0  0  0  0  0  0
  -24.7130   -9.6100   21.8790 C   0  0  0  0  0  3  0  0  0  0  0  0
  -23.9570   -8.4310   22.0430 C   0  0  0  0  0  3  0  0  0  0  0  0
  -22.7830   -8.2280   21.2790 C   0  0  0  0  0  0  0  0  0  0  0  0
  -22.3990   -9.2020   20.3400 C   0  0  0  0  0  3  0  0  0  0  0  0
  -23.1550  -10.3740   20.1740 C   0  0  0  0  0  3  0  0  0  0  0  0
  -21.9980   -7.1020   21.3530 O   0  0  0  0  0  0  0  0  0  0  0  0
  -21.8310   -6.4190   22.5310 C   0  0  0  0  0  0  0  0  0  0  0  0
  -21.3080   -7.0410   23.6850 C   0  0  0  0  0  3  0  0  0  0  0  0
  -21.0880   -6.2850   24.8540 C   0  0  0  0  0  3  0  0  0  0  0  0
  -21.3800   -4.9070   24.8680 C   0  0  0  0  0  0  0  0  0  0  0  0
  -21.8950   -4.2850   23.7170 C   0  0  0  0  0  3  0  0  0  0  0  0
  -22.1170   -5.0380   22.5510 C   0  0  0  0  0  0  0  0  0  0  0  0
  -22.5960   -4.4300   21.4390 F   0  0  0  0  0  0  0  0  0  0  0  0
  -21.1610   -4.1790   25.9870 F   0  0  0  0  0  0  0  0  0  0  0  0
  -23.3260  -13.7140   21.3540 C   0  0  0  0  0  0  0  0  0  0  0  0
  -22.6640  -13.0080   22.2640 N   0  0  0  0  0  0  0  0  0  0  0  0
  -22.8730  -14.7700   20.9160 O   0  0  0  0  0  0  0  0  0  0  0  0
  -23.0460  -12.1520   22.6400 H   0  0  0  0  0  0  0  0  0  0  0  0
  -21.7640  -13.3280   22.5910 H   0  0  0  0  0  0  0  0  0  0  0  0
  -25.9430  -15.3290   20.3940 N   0  0  0  0  0  0  0  0  0  0  0  0
  -25.2000  -15.9990   20.5620 H   0  0  0  0  0  0  0  0  0  0  0  0
  -26.7620  -15.7390   19.9670 H   0  0  0  0  0  0  0  0  0  0  0  0
  -28.8990  -23.0910   20.0860 C   0  0  0  0  0  0  0  0  0  0  0  0
  -28.5490  -21.8890   19.4660 N   0  0  0  0  0  0  0  0  0  0  0  0
  -29.1650  -23.1620   21.2900 O   0  0  0  0  0  0  0  0  0  0  0  0
  -28.5090  -21.8480   18.4500 H   0  0  0  0  0  0  0  0  0  0  0  0
  -28.8870  -24.3330   19.1720 C   0  0  0  0  0  3  0  0  0  0  0  0
  -29.9040  -24.2400   18.3100 F   0  0  0  0  0  0  0  0  0  0  0  0
  -28.9570  -25.6750   19.9420 C   0  0  0  0  0  2  0  0  0  0  0  0
  -28.7700  -26.8230   19.1010 O   0  0  0  0  0  0  0  0  0  0  0  0
  -24.6290  -31.3320   22.7370 C   0  0  0  0  0  0  0  0  0  0  0  0
  -27.5450  -27.4400   19.2080 C   0  0  0  0  0  0  0  0  0  0  0  0
  -23.5040  -30.0210   20.9650 C   0  0  0  0  0  3  0  0  0  0  0  0
  -25.0460  -28.7410   19.3890 C   0  0  0  0  0  0  0  0  0  0  0  0
  -25.9930  -30.5840   20.7910 C   0  0  0  0  0  2  0  0  0  0  0  0
  -26.1690  -29.2940   20.0170 C   0  0  0  0  0  0  0  0  0  0  0  0
  -27.4240  -28.6520   19.9220 C   0  0  0  0  0  3  0  0  0  0  0  0
  -26.4070  -26.8900   18.5820 C   0  0  0  0  0  3  0  0  0  0  0  0
  -25.1580  -27.5360   18.6700 C   0  0  0  0  0  3  0  0  0  0  0  0
  -23.7440  -29.4980   19.5240 C   0  0  0  0  0  2  0  0  0  0  0  0
  -24.7270  -30.6560   21.5570 N   0  0  0  0  0  0  0  0  0  0  0  0
  -23.5380  -31.4710   23.3080 O   0  0  0  0  0  0  0  0  0  0  0  0
  -22.9380  -28.8650   21.8190 C   0  0  0  0  0  0  0  0  0  0  0  0
  -21.6200  -28.6300   21.7090 N   0  0  0  0  0  0  0  0  0  0  0  0
  -23.6800  -28.1870   22.5350 O   0  0  0  0  0  0  0  0  0  0  0  0
  -21.0820  -29.2320   21.1020 H   0  0  0  0  0  0  0  0  0  0  0  0
  -18.3280  -27.2160   22.1550 C   0  0  0  0  0  0  0  0  0  0  0  0
  -20.8770  -27.5710   22.3880 C   0  0  0  0  0  3  0  0  0  0  0  0
  -21.0300  -26.2220   21.6460 C   0  0  0  0  0  2  0  0  0  0  0  0
  -19.9120  -25.9630   20.6310 C   0  0  0  0  0  2  0  0  0  0  0  0
  -18.5470  -25.9640   21.3250 C   0  0  0  0  0  2  0  0  0  0  0  0
  -19.4220  -27.9800   22.6410 C   0  0  0  0  0  0  0  0  0  0  0  0
  -19.1630  -29.1570   23.3780 C   0  0  0  0  0  3  0  0  0  0  0  0
  -17.8420  -29.5700   23.6340 C   0  0  0  0  0  3  0  0  0  0  0  0
  -16.7630  -28.7990   23.1650 C   0  0  0  0  0  3  0  0  0  0  0  0
  -17.0060  -27.6250   22.4310 C   0  0  0  0  0  3  0  0  0  0  0  0
  -25.8760  -31.9850   23.4110 C   0  0  0  0  0  3  0  0  0  0  0  0
  -26.4990  -31.0970   24.5570 C   0  0  1  0  0  0  0  0  0  0  0  0
  -25.4700  -30.6310   25.6130 C   0  0  0  0  0  1  0  0  0  0  0  0
  -27.1710  -29.8370   23.9650 C   0  0  0  0  0  1  0  0  0  0  0  0
  -27.6090  -31.8890   25.2890 C   0  0  0  0  0  1  0  0  0  0  0  0
  -25.4600  -33.2940   23.9330 N   0  0  0  0  0  0  0  0  0  0  0  0
  -25.6940  -34.4630   23.3250 C   0  0  0  0  0  0  0  0  0  0  0  0
  -26.3530  -34.5580   22.2850 O   0  0  0  0  0  0  0  0  0  0  0  0
  -24.8670  -33.2870   24.7500 H   0  0  0  0  0  0  0  0  0  0  0  0
  -23.8180  -36.1350   23.2300 C   0  0  0  0  0  1  0  0  0  0  0  0
  -25.1030  -35.7310   23.9700 C   0  0  0  0  0  3  0  0  0  0  0  0
  -27.1710  -36.6710   24.9010 C   0  0  0  0  0  1  0  0  0  0  0  0
  -26.0440  -36.8720   23.9950 N   0  0  0  0  0  0  0  0  0  0  0  0
  -25.5660  -37.7270   24.2690 H   0  0  0  0  0  0  0  0  0  0  0  0
  1  3  2  0
  3  9  1  0
  3  2  2  0
  5  4  1  0
  6 20  1  0
  6  4  2  0
  7  6  1  0
  8  7  2  0
  8  9  1  0
  9  5  2  0
 10  7  1  0
 11  8  1  0
 12 20  1  0
 13 18  1  0
 14 15  1  0
 14 13  1  0
 16 15  1  0
 16 25  1  0
 16 17  1  0
 18 12  1  0
 18 17  1  0
 19 12  2  0
 20 21  1  0
 22 23  2  0
 23 42  1  0
 24 23  1  0
 24 27  1  0
 25 26  1  0
 25 22  1  0
 26 24  2  0
 27 28  1  0
 28 29  2  0
 30 33  1  0
 30 29  1  0
 31 30  2  0
 32 31  1  0
 32 27  2  0
 33 34  1  0
 34 39  2  0
 34 35  1  0
 35 36  2  0
 36 37  1  0
 37 41  1  0
 38 37  2  0
 39 38  1  0
 40 39  1  0
 42 43  1  0
 43 46  1  0
 43 45  1  0
 44 42  2  0
 47 22  1  0
 47 48  1  0
 49 47  1  0
 50 52  2  0
 51 50  1  0
  3 51  1  6
 53 51  1  0
 54 55  1  0
 54 56  1  0
 54 50  1  0
 57 59  1  0
 57 56  1  0
 58 69  2  0
 59 64  1  0
 60 68  1  0
 60 70  1  0
 61 67  1  0
 61 63  1  0
 62 68  1  0
 63 62  1  0
 64 63  2  0
 65 66  1  0
 65 59  2  0
 66 61  2  0
 67 60  1  0
 68 58  1  0
 70 72  2  0
 71 70  1  0
 73 71  1  0
 74 83  2  0
 74 79  1  0
 75 71  1  0
 75 79  1  0
 76 75  1  0
 77 78  1  0
 77 76  1  0
 78 74  1  0
 79 80  2  0
 80 81  1  0
 82 81  2  0
 83 82  1  0
 84 58  1  0
 84 89  1  0
 84 85  1  0
 85 88  1  1
 85 86  1  0
 87 85  1  0
 89 92  1  0
 90 89  1  0
 90 94  1  0
 91 90  2  0
 94 93  1  0
 94 96  1  0
 96 97  1  0
 96 95  1  0
M  ISO  4  12 100  20 100  56 101  57 101
M  END
>  <TORSDO>  (59) 
F 20

>  <SCORE>  (59) 
-9.495

>  <name>  (59) 
59

>  <ligand_id>  (59) 
59

>  <original_smiles>  (59) 
[H]c1c([H])c([H])c2c(c1[H])C([H])([H])C([H])([H])C([H])([H])C2([H])N([H])C(=O)C1([H])N(C(=O)C([H])(N([H])C(=O)C([H])(N([H])C([H])([H])[H])C([H])([H])[H])C(C([H])([H])[H])(C([H])([H])[H])C([H])([H])[H])C([H])([H])c2c([H])c(OC([H])([H])C([H])(F)C(=O)N([H])S(=O)(=O)c3c([H])c([H])c(N([H])C(=O)N4C([H])([H])C([H])([H])C([H])([H])C([H])(n5nc(-c6c([H])c([H])c(Oc7c([H])c([H])c(F)c([H])c7F)c([H])c6[H])c(C(=O)N([H])[H])c5N([H])[H])C4([H])[H])c(F)c3F)c([H])c([H])c2C1([H])[H]

>  <smiles>  (59) 
[H]c1c([H])c([H])c2c(c1[H])C([H])([H])C([H])([H])C([H])([H])C2([H])N([H])C(=O)C1([H])N(C(=O)C([H])(N([H])C(=O)C([H])(N([H])C([H])([H])[H])C([H])([H])[H])C(C([H])([H])[H])(C([H])([H])[H])C([H])([H])[H])C([H])([H])c2c([H])c(OC([H])([H])C([H])(F)C(=O)N([H])S(=O)(=O)c3c([H])c([H])c(N([H])C(=O)N4C([H])([H])C([H])([H])C([H])([H])C([H])(n5nc(-c6c([H])c([H])c(Oc7c([H])c([H])c(F)c([H])c7F)c([H])c6[H])c(C(=O)N([H])[H])c5N([H])[H])C4([H])[H])c(F)c3F)c([H])c([H])c2C1([H])[H]

$$$$
60:0:0
     RDKit          3D

 94102  0  0  1  0  0  0  0  0999 V2000
  -28.6300  -19.3520   20.7110 C   0  0  0  0  0  3  0  0  0  0  0  0
  -30.9110  -18.0920   19.8660 C   0  0  0  0  0  3  0  0  0  0  0  0
  -29.8950  -17.2380   20.3680 C   0  0  0  0  0  0  0  0  0  0  0  0
  -28.7390  -17.9350   20.7930 C   0  0  0  0  0  0  0  0  0  0  0  0
  -29.6850  -20.1470   20.1920 C   0  0  0  0  0  0  0  0  0  0  0  0
  -28.6650  -22.5720   20.3980 C   0  0  0  0  0  0  0  0  0  0  0  0
  -30.8030  -19.4640   19.7860 N   0  0  0  0  0  0  0  0  0  0  0  0
  -29.6170  -21.6220   20.0770 N   0  0  0  0  0  0  0  0  0  0  0  0
  -27.5850  -22.2560   20.9030 O   0  0  0  0  0  0  0  0  0  0  0  0
  -27.6980  -17.2200   21.2860 F   0  0  0  0  0  0  0  0  0  0  0  0
  -30.4390  -22.0510   19.6770 H   0  0  0  0  0  0  0  0  0  0  0  0
  -30.7030  -14.7580   19.9840 C   0  0  0  0  0  0  0  0  0  0  0  0
  -30.4770  -12.5320   18.8740 C   0  0  0  0  0  2  0  0  0  0  0  0
  -29.4440  -12.6660   17.7320 C   0  0  0  0  0  2  0  0  0  0  0  0
  -28.0060  -12.4730   18.2580 C   0  0  0  0  0  2  0  0  0  0  0  0
  -27.7270  -13.2960   19.5430 C   0  0  0  0  0  3  0  0  0  0  0  0
  -28.8640  -13.1190   20.5760 C   0  0  0  0  0  2  0  0  0  0  0  0
  -30.1230  -13.5130   19.9220 N   0  0  0  0  0  0  0  0  0  0  0  0
  -31.8220  -14.9670   19.5050 O   0  0  0  0  0  0  0  0  0  0  0  0
  -29.9050  -15.7650   20.4720 N   0  0  0  0  0  0  0  0  0  0  0  0
  -29.0660  -15.4020   20.9010 H   0  0  0  0  0  0  0  0  0  0  0  0
  -25.3920  -13.8580   20.4580 C   0  0  0  0  0  0  0  0  0  0  0  0
  -24.3540  -13.0680   20.8690 C   0  0  0  0  0  0  0  0  0  0  0  0
  -24.8120  -11.7200   20.7490 C   0  0  0  0  0  0  0  0  0  0  0  0
  -26.4170  -12.9900   20.1120 N   0  0  0  0  0  0  0  0  0  0  0  0
  -26.0770  -11.6970   20.3470 N   0  0  0  0  0  0  0  0  0  0  0  0
  -24.1000  -10.4500   20.9380 C   0  0  0  0  0  0  0  0  0  0  0  0
  -24.5360   -9.4920   21.8800 C   0  0  0  0  0  3  0  0  0  0  0  0
  -23.8230   -8.2860   22.0570 C   0  0  0  0  0  3  0  0  0  0  0  0
  -22.6610   -8.0290   21.2900 C   0  0  0  0  0  0  0  0  0  0  0  0
  -22.2460   -8.9760   20.3380 C   0  0  0  0  0  3  0  0  0  0  0  0
  -22.9590  -10.1730   20.1590 C   0  0  0  0  0  3  0  0  0  0  0  0
  -21.9220   -6.8750   21.3760 O   0  0  0  0  0  0  0  0  0  0  0  0
  -21.7730   -6.2000   22.5620 C   0  0  0  0  0  0  0  0  0  0  0  0
  -21.1940   -6.8080   23.6970 C   0  0  0  0  0  3  0  0  0  0  0  0
  -20.9980   -6.0580   24.8730 C   0  0  0  0  0  3  0  0  0  0  0  0
  -21.3690   -4.7000   24.9150 C   0  0  0  0  0  0  0  0  0  0  0  0
  -21.9410   -4.0920   23.7830 C   0  0  0  0  0  3  0  0  0  0  0  0
  -22.1390   -4.8400   22.6090 C   0  0  0  0  0  0  0  0  0  0  0  0
  -22.6710   -4.2440   21.5150 F   0  0  0  0  0  0  0  0  0  0  0  0
  -21.1740   -3.9780   26.0420 F   0  0  0  0  0  0  0  0  0  0  0  0
  -22.9800  -13.5300   21.2620 C   0  0  0  0  0  0  0  0  0  0  0  0
  -22.3190  -12.7990   22.1530 N   0  0  0  0  0  0  0  0  0  0  0  0
  -22.5050  -14.5740   20.8180 O   0  0  0  0  0  0  0  0  0  0  0  0
  -22.7180  -11.9540   22.5340 H   0  0  0  0  0  0  0  0  0  0  0  0
  -21.4000  -13.0890   22.4580 H   0  0  0  0  0  0  0  0  0  0  0  0
  -25.5430  -15.2350   20.3280 N   0  0  0  0  0  0  0  0  0  0  0  0
  -24.7960  -15.8820   20.5570 H   0  0  0  0  0  0  0  0  0  0  0  0
  -26.3860  -15.7010   20.0200 H   0  0  0  0  0  0  0  0  0  0  0  0
  -28.1590  -25.0620   20.3610 C   0  0  0  0  0  3  0  0  0  0  0  0
  -29.0180  -24.0080   20.1010 C   0  0  0  0  0  0  0  0  0  0  0  0
  -30.2170  -24.2690   19.5580 O   0  0  0  0  0  0  0  0  0  0  0  0
  -30.2650  -25.2110   19.4410 H   0  0  0  0  0  0  0  0  0  0  0  0
  -28.3730  -26.4500   20.1330 O   0  0  0  0  0  0  0  0  0  0  0  0
  -24.6240  -31.8600   23.1970 C   0  0  0  0  0  0  0  0  0  0  0  0
  -27.2660  -27.3210   20.1170 C   0  0  0  0  0  0  0  0  0  0  0  0
  -23.4330  -30.4690   21.5410 C   0  0  0  0  0  3  0  0  0  0  0  0
  -24.8960  -28.9340   20.1080 C   0  0  0  0  0  0  0  0  0  0  0  0
  -25.9730  -30.7950   21.3720 C   0  0  0  0  0  2  0  0  0  0  0  0
  -26.0610  -29.4200   20.7160 C   0  0  0  0  0  0  0  0  0  0  0  0
  -27.2490  -28.6240   20.7140 C   0  0  0  0  0  3  0  0  0  0  0  0
  -26.0810  -26.8980   19.4780 C   0  0  0  0  0  3  0  0  0  0  0  0
  -24.9080  -27.6790   19.4790 C   0  0  0  0  0  3  0  0  0  0  0  0
  -23.6560  -29.8050   20.1570 C   0  0  0  0  0  2  0  0  0  0  0  0
  -24.6960  -31.0590   22.0940 N   0  0  0  0  0  0  0  0  0  0  0  0
  -23.5390  -32.1300   23.7300 O   0  0  0  0  0  0  0  0  0  0  0  0
  -22.7690  -29.4440   22.4920 C   0  0  0  0  0  0  0  0  0  0  0  0
  -21.4420  -29.2710   22.3660 N   0  0  0  0  0  0  0  0  0  0  0  0
  -23.4480  -28.8090   23.3030 O   0  0  0  0  0  0  0  0  0  0  0  0
  -20.9530  -29.8360   21.6850 H   0  0  0  0  0  0  0  0  0  0  0  0
  -18.0570  -28.1120   22.8980 C   0  0  0  0  0  0  0  0  0  0  0  0
  -20.6230  -28.3260   23.1280 C   0  0  0  0  0  3  0  0  0  0  0  0
  -20.6930  -26.9080   22.5150 C   0  0  0  0  0  2  0  0  0  0  0  0
  -19.5680  -26.6270   21.5130 C   0  0  0  0  0  2  0  0  0  0  0  0
  -18.2010  -26.7770   22.1860 C   0  0  0  0  0  2  0  0  0  0  0  0
  -19.1940  -28.8460   23.3270 C   0  0  0  0  0  0  0  0  0  0  0  0
  -19.0040  -30.0960   23.9530 C   0  0  0  0  0  3  0  0  0  0  0  0
  -17.7100  -30.6120   24.1560 C   0  0  0  0  0  3  0  0  0  0  0  0
  -16.5870  -29.8740   23.7430 C   0  0  0  0  0  3  0  0  0  0  0  0
  -16.7610  -28.6250   23.1200 C   0  0  0  0  0  3  0  0  0  0  0  0
  -25.9030  -32.4920   23.8280 C   0  0  0  0  0  3  0  0  0  0  0  0
  -25.5840  -33.8850   24.1780 N   0  0  0  0  0  0  0  0  0  0  0  0
  -25.8890  -34.9490   23.4250 C   0  0  0  0  0  0  0  0  0  0  0  0
  -26.5380  -34.8640   22.3790 O   0  0  0  0  0  0  0  0  0  0  0  0
  -25.0030  -34.0230   24.9930 H   0  0  0  0  0  0  0  0  0  0  0  0
  -24.1270  -36.7210   23.1370 C   0  0  0  0  0  1  0  0  0  0  0  0
  -25.3970  -36.3280   23.9080 C   0  0  0  0  0  3  0  0  0  0  0  0
  -27.5390  -37.2430   24.6870 C   0  0  0  0  0  1  0  0  0  0  0  0
  -26.4110  -37.3960   23.7700 N   0  0  0  0  0  0  0  0  0  0  0  0
  -25.9950  -38.3100   23.9280 H   0  0  0  0  0  0  0  0  0  0  0  0
  -26.4230  -31.7080   25.0960 C   0  0  1  0  0  0  0  0  0  0  0  0
  -25.3290  -31.4420   26.1560 C   0  0  0  0  0  1  0  0  0  0  0  0
  -27.0240  -30.3430   24.6860 C   0  0  0  0  0  1  0  0  0  0  0  0
  -27.5620  -32.5050   25.7740 C   0  0  0  0  0  1  0  0  0  0  0  0
  1  4  1  0
  2  3  1  0
  3 20  1  0
  3  4  2  0
  4 10  1  0
  5  1  2  0
  6  9  2  0
  7  2  2  0
  7  5  1  0
  8  5  1  0
  8  6  1  0
 11  8  1  0
 12 20  1  0
 13 18  1  0
 14 15  1  0
 14 13  1  0
 16 15  1  0
 16 25  1  0
 16 17  1  0
 18 12  1  0
 18 17  1  0
 19 12  2  0
 20 21  1  0
 22 23  2  0
 23 42  1  0
 24 23  1  0
 24 27  1  0
 25 26  1  0
 25 22  1  0
 26 24  2  0
 27 28  1  0
 28 29  2  0
 30 33  1  0
 30 29  1  0
 31 30  2  0
 32 31  1  0
 32 27  2  0
 33 34  1  0
 34 39  2  0
 34 35  1  0
 35 36  2  0
 36 37  1  0
 37 41  1  0
 38 37  2  0
 39 38  1  0
 40 39  1  0
 42 43  1  0
 43 46  1  0
 43 45  1  0
 44 42  2  0
 47 22  1  0
 47 48  1  0
 49 47  1  0
 51 50  2  0
 51  6  1  0
 52 51  1  0
 53 52  1  0
 54 50  1  0
 55 66  2  0
 56 54  1  0
 56 61  1  0
 57 65  1  0
 57 67  1  0
 58 64  1  0
 58 60  1  0
 59 65  1  0
 60 59  1  0
 61 60  2  0
 62 63  1  0
 62 56  2  0
 63 58  2  0
 64 57  1  0
 65 55  1  0
 67 69  2  0
 68 67  1  0
 70 68  1  0
 71 80  2  0
 71 76  1  0
 72 68  1  0
 72 76  1  0
 73 72  1  0
 74 75  1  0
 74 73  1  0
 75 71  1  0
 76 77  2  0
 77 78  1  0
 79 78  2  0
 80 79  1  0
 81 55  1  0
 81 82  1  0
 81 91  1  0
 82 85  1  0
 83 87  1  0
 83 82  1  0
 84 83  2  0
 87 86  1  0
 89 87  1  0
 89 90  1  0
 89 88  1  0
 91 94  1  1
 91 92  1  0
 93 91  1  0
M  ISO  4  12 100  20 100  50 101  54 101
M  END
>  <TORSDO>  (60) 
F 18

>  <SCORE>  (60) 
-14.062

>  <name>  (60) 
60

>  <ligand_id>  (60) 
60

>  <original_smiles>  (60) 
[H]OC(C(=O)N([H])c1nc([H])c(N([H])C(=O)N2C([H])([H])C([H])([H])C([H])([H])C([H])(n3nc(-c4c([H])c([H])c(Oc5c([H])c([H])c(F)c([H])c5F)c([H])c4[H])c(C(=O)N([H])[H])c3N([H])[H])C2([H])[H])c(F)c1[H])=C([H])Oc1c([H])c([H])c2c(c1[H])C([H])([H])N(C(=O)C([H])(N([H])C(=O)C([H])(N([H])C([H])([H])[H])C([H])([H])[H])C(C([H])([H])[H])(C([H])([H])[H])C([H])([H])[H])C([H])(C(=O)N([H])C1([H])c3c([H])c([H])c([H])c([H])c3C([H])([H])C([H])([H])C1([H])[H])C2([H])[H]

>  <smiles>  (60) 
[H]OC(C(=O)N([H])c1nc([H])c(N([H])C(=O)N2C([H])([H])C([H])([H])C([H])([H])C([H])(n3nc(-c4c([H])c([H])c(Oc5c([H])c([H])c(F)c([H])c5F)c([H])c4[H])c(C(=O)N([H])[H])c3N([H])[H])C2([H])[H])c(F)c1[H])=C([H])Oc1c([H])c([H])c2c(c1[H])C([H])([H])N(C(=O)C([H])(N([H])C(=O)C([H])(N([H])C([H])([H])[H])C([H])([H])[H])C(C([H])([H])[H])(C([H])([H])[H])C([H])([H])[H])C([H])(C(=O)N([H])C1([H])c3c([H])c([H])c([H])c([H])c3C([H])([H])C([H])([H])C1([H])[H])C2([H])[H]

$$$$
61:0:0
     RDKit          3D

 95103  0  0  1  0  0  0  0  0999 V2000
  -30.7480  -22.1870   19.4760 C   0  0  0  0  0  1  0  0  0  0  0  0
  -29.3700  -21.6360   19.8930 C   0  0  0  0  0  3  0  0  0  0  0  0
  -30.6670  -18.1170   20.8120 C   0  0  0  0  0  3  0  0  0  0  0  0
  -29.6910  -17.1860   20.3690 C   0  0  0  0  0  0  0  0  0  0  0  0
  -28.5690  -17.7820   19.7400 C   0  0  0  0  0  0  0  0  0  0  0  0
  -28.4470  -19.1950   19.5860 C   0  0  0  0  0  0  0  0  0  0  0  0
  -29.4570  -20.0520   20.0860 C   0  0  0  0  0  0  0  0  0  0  0  0
  -30.5540  -19.4820   20.6860 N   0  0  0  0  0  0  0  0  0  0  0  0
  -27.5740  -16.9770   19.2850 F   0  0  0  0  0  0  0  0  0  0  0  0
  -27.3580  -19.7210   18.9740 F   0  0  0  0  0  0  0  0  0  0  0  0
  -30.5540  -14.7120   20.4030 C   0  0  0  0  0  0  0  0  0  0  0  0
  -30.4040  -12.4490   19.3710 C   0  0  0  0  0  2  0  0  0  0  0  0
  -29.4540  -12.5400   18.1530 C   0  0  0  0  0  2  0  0  0  0  0  0
  -27.9810  -12.3720   18.5820 C   0  0  0  0  0  2  0  0  0  0  0  0
  -27.6090  -13.2560   19.8000 C   0  0  0  0  0  3  0  0  0  0  0  0
  -28.6650  -13.1090   20.9190 C   0  0  0  0  0  2  0  0  0  0  0  0
  -29.9760  -13.4680   20.3480 N   0  0  0  0  0  0  0  0  0  0  0  0
  -31.7300  -14.9020   20.0800 O   0  0  0  0  0  0  0  0  0  0  0  0
  -29.6700  -15.7360   20.6310 N   0  0  0  0  0  0  0  0  0  0  0  0
  -28.7380  -15.3740   20.7670 H   0  0  0  0  0  0  0  0  0  0  0  0
  -25.2170  -13.8650   20.5110 C   0  0  0  0  0  0  0  0  0  0  0  0
  -24.1470  -13.1000   20.8830 C   0  0  0  0  0  0  0  0  0  0  0  0
  -24.6050  -11.7460   20.8580 C   0  0  0  0  0  0  0  0  0  0  0  0
  -26.2580  -12.9820   20.2810 N   0  0  0  0  0  0  0  0  0  0  0  0
  -25.8970  -11.7030   20.5530 N   0  0  0  0  0  0  0  0  0  0  0  0
  -23.8770  -10.4870   21.0460 C   0  0  0  0  0  0  0  0  0  0  0  0
  -24.3000   -9.5200   21.9850 C   0  0  0  0  0  3  0  0  0  0  0  0
  -23.5710   -8.3240   22.1600 C   0  0  0  0  0  3  0  0  0  0  0  0
  -22.4040   -8.0860   21.3960 C   0  0  0  0  0  0  0  0  0  0  0  0
  -22.0010   -9.0410   20.4460 C   0  0  0  0  0  3  0  0  0  0  0  0
  -22.7310  -10.2270   20.2690 C   0  0  0  0  0  3  0  0  0  0  0  0
  -21.6470   -6.9420   21.4820 O   0  0  0  0  0  0  0  0  0  0  0  0
  -21.5900   -6.2030   22.6360 C   0  0  0  0  0  0  0  0  0  0  0  0
  -21.1410   -6.7570   23.8540 C   0  0  0  0  0  3  0  0  0  0  0  0
  -21.0320   -5.9430   25.0000 C   0  0  0  0  0  3  0  0  0  0  0  0
  -21.3590   -4.5750   24.9270 C   0  0  0  0  0  0  0  0  0  0  0  0
  -21.8020   -4.0220   23.7130 C   0  0  0  0  0  3  0  0  0  0  0  0
  -21.9130   -4.8330   22.5710 C   0  0  0  0  0  0  0  0  0  0  0  0
  -22.3190   -4.2900   21.3980 F   0  0  0  0  0  0  0  0  0  0  0  0
  -21.2470   -3.7900   26.0240 F   0  0  0  0  0  0  0  0  0  0  0  0
  -22.7490  -13.5800   21.1440 C   0  0  0  0  0  0  0  0  0  0  0  0
  -22.0130  -12.8820   22.0010 N   0  0  0  0  0  0  0  0  0  0  0  0
  -22.3190  -14.6110   20.6240 O   0  0  0  0  0  0  0  0  0  0  0  0
  -22.3730  -12.0490   22.4430 H   0  0  0  0  0  0  0  0  0  0  0  0
  -21.0750  -13.1890   22.2200 H   0  0  0  0  0  0  0  0  0  0  0  0
  -25.3840  -15.2330   20.3180 N   0  0  0  0  0  0  0  0  0  0  0  0
  -24.6020  -15.8740   20.3910 H   0  0  0  0  0  0  0  0  0  0  0  0
  -26.1820  -15.6510   19.8560 H   0  0  0  0  0  0  0  0  0  0  0  0
  -28.7700  -22.4770   21.0880 C   0  0  0  0  0  0  0  0  0  0  0  0
  -28.7010  -21.8770   22.1680 O   0  0  0  0  0  0  0  0  0  0  0  0
  -28.6810  -24.6360   22.3930 C   0  0  0  0  0  1  0  0  0  0  0  0
  -26.6380  -23.8470   21.1910 C   0  0  0  0  0  1  0  0  0  0  0  0
  -28.1730  -23.9880   21.0760 C   0  0  2  0  0  0  0  0  0  0  0  0
  -28.4570  -25.0710   19.9210 C   0  0  0  0  0  2  0  0  0  0  0  0
  -28.3620  -26.5300   20.2310 O   0  0  0  0  0  0  0  0  0  0  0  0
  -24.5430  -31.8680   23.2060 C   0  0  0  0  0  0  0  0  0  0  0  0
  -27.1950  -27.3130   20.1690 C   0  0  0  0  0  0  0  0  0  0  0  0
  -23.3480  -30.4670   21.5630 C   0  0  0  0  0  3  0  0  0  0  0  0
  -24.8060  -28.9020   20.1530 C   0  0  0  0  0  0  0  0  0  0  0  0
  -25.8810  -30.7940   21.3770 C   0  0  0  0  0  2  0  0  0  0  0  0
  -25.9700  -29.4110   20.7360 C   0  0  0  0  0  0  0  0  0  0  0  0
  -27.1650  -28.6290   20.7300 C   0  0  0  0  0  3  0  0  0  0  0  0
  -26.0030  -26.8480   19.5730 C   0  0  0  0  0  3  0  0  0  0  0  0
  -24.8210  -27.6220   19.5700 C   0  0  0  0  0  3  0  0  0  0  0  0
  -23.5680  -29.7780   20.1900 C   0  0  0  0  0  2  0  0  0  0  0  0
  -24.6110  -31.0600   22.1080 N   0  0  0  0  0  0  0  0  0  0  0  0
  -23.4560  -32.1480   23.7360 O   0  0  0  0  0  0  0  0  0  0  0  0
  -22.6790  -29.4570   22.5220 C   0  0  0  0  0  0  0  0  0  0  0  0
  -21.3520  -29.2850   22.3900 N   0  0  0  0  0  0  0  0  0  0  0  0
  -23.3540  -28.8310   23.3450 O   0  0  0  0  0  0  0  0  0  0  0  0
  -20.8710  -29.8400   21.6950 H   0  0  0  0  0  0  0  0  0  0  0  0
  -17.9710  -28.1100   22.8920 C   0  0  0  0  0  0  0  0  0  0  0  0
  -20.5300  -28.3510   23.1580 C   0  0  0  0  0  3  0  0  0  0  0  0
  -20.6190  -26.9220   22.5770 C   0  0  0  0  0  2  0  0  0  0  0  0
  -19.5140  -26.6120   21.5620 C   0  0  0  0  0  2  0  0  0  0  0  0
  -18.1350  -26.7620   22.2090 C   0  0  0  0  0  2  0  0  0  0  0  0
  -19.0950  -28.8630   23.3250 C   0  0  0  0  0  0  0  0  0  0  0  0
  -18.8880  -30.1230   23.9240 C   0  0  0  0  0  3  0  0  0  0  0  0
  -17.5860  -30.6310   24.0960 C   0  0  0  0  0  3  0  0  0  0  0  0
  -16.4760  -29.8760   23.6780 C   0  0  0  0  0  3  0  0  0  0  0  0
  -16.6690  -28.6180   23.0810 C   0  0  0  0  0  3  0  0  0  0  0  0
  -25.8230  -32.4990   23.8350 C   0  0  0  0  0  3  0  0  0  0  0  0
  -26.3350  -31.7260   25.1120 C   0  0  1  0  0  0  0  0  0  0  0  0
  -25.2390  -31.4880   26.1760 C   0  0  0  0  0  1  0  0  0  0  0  0
  -26.9200  -30.3470   24.7190 C   0  0  0  0  0  1  0  0  0  0  0  0
  -27.4830  -32.5190   25.7820 C   0  0  0  0  0  1  0  0  0  0  0  0
  -25.5110  -33.8980   24.1610 N   0  0  0  0  0  0  0  0  0  0  0  0
  -25.8490  -34.9530   23.4060 C   0  0  0  0  0  0  0  0  0  0  0  0
  -26.5240  -34.8500   22.3790 O   0  0  0  0  0  0  0  0  0  0  0  0
  -24.9030  -34.0510   24.9510 H   0  0  0  0  0  0  0  0  0  0  0  0
  -24.1280  -36.7520   23.0420 C   0  0  0  0  0  1  0  0  0  0  0  0
  -25.3600  -36.3400   23.8630 C   0  0  0  0  0  3  0  0  0  0  0  0
  -27.4850  -37.2260   24.7190 C   0  0  0  0  0  1  0  0  0  0  0  0
  -26.3940  -37.3920   23.7620 N   0  0  0  0  0  0  0  0  0  0  0  0
  -25.9850  -38.3120   23.9040 H   0  0  0  0  0  0  0  0  0  0  0  0
  2  1  1  0
  2  7  1  0
  2 49  1  0
  4 19  1  0
  4  3  2  0
  5  4  1  0
  6  5  2  0
  6  7  1  0
  7  8  2  0
  8  3  1  0
  9  5  1  0
 10  6  1  0
 11 19  1  0
 12 17  1  0
 13 14  1  0
 13 12  1  0
 15 14  1  0
 15 24  1  0
 15 16  1  0
 17 11  1  0
 17 16  1  0
 18 11  2  0
 19 20  1  0
 21 22  2  0
 22 41  1  0
 23 22  1  0
 23 26  1  0
 24 21  1  0
 24 25  1  0
 25 23  2  0
 26 27  1  0
 27 28  2  0
 29 32  1  0
 29 28  1  0
 30 29  2  0
 31 30  1  0
 31 26  2  0
 32 33  1  0
 33 34  1  0
 34 35  2  0
 36 35  1  0
 36 40  1  0
 37 36  2  0
 38 33  2  0
 38 37  1  0
 39 38  1  0
 41 42  1  0
 42 45  1  0
 42 44  1  0
 43 41  2  0
 46 47  1  0
 46 21  1  0
 48 46  1  0
 49 50  2  0
 53 49  1  0
 53 52  1  1
 53 51  1  0
 54 55  1  0
 54 53  1  0
 56 67  2  0
 57 55  1  0
 57 62  1  0
 58 66  1  0
 58 68  1  0
 59 65  1  0
 59 61  1  0
 60 66  1  0
 61 60  1  0
 62 61  2  0
 63 57  2  0
 64 63  1  0
 64 59  2  0
 65 58  1  0
 66 56  1  0
 68 70  2  0
 69 68  1  0
 71 69  1  0
 72 81  2  0
 72 77  1  0
 73 69  1  0
 73 77  1  0
 74 73  1  0
 75 76  1  0
 75 74  1  0
 76 72  1  0
 77 78  2  0
 78 79  1  0
 80 79  2  0
 81 80  1  0
 82 56  1  0
 82 87  1  0
 82 83  1  0
 83 86  1  1
 83 84  1  0
 85 83  1  0
 87 90  1  0
 88 92  1  0
 88 87  1  0
 89 88  2  0
 92 91  1  0
 94 92  1  0
 94 95  1  0
 94 93  1  0
M  ISO  4  11 100  19 100  54 101  55 101
M  END
>  <TORSDO>  (61) 
F 20

>  <SCORE>  (61) 
-14.521

>  <name>  (61) 
61

>  <ligand_id>  (61) 
61

>  <original_smiles>  (61) 
[H]c1nc(C([H])(C(=O)C(C([H])([H])[H])(C([H])([H])[H])C([H])([H])Oc2c([H])c([H])c3c(c2[H])C([H])([H])N(C(=O)C([H])(N([H])C(=O)C([H])(N([H])C([H])([H])[H])C([H])([H])[H])C(C([H])([H])[H])(C([H])([H])[H])C([H])([H])[H])C([H])(C(=O)N([H])C2([H])c4c([H])c([H])c([H])c([H])c4C([H])([H])C([H])([H])C2([H])[H])C3([H])[H])C([H])([H])[H])c(F)c(F)c1N([H])C(=O)N1C([H])([H])C([H])([H])C([H])([H])C([H])(n2nc(-c3c([H])c([H])c(Oc4c([H])c([H])c(F)c([H])c4F)c([H])c3[H])c(C(=O)N([H])[H])c2N([H])[H])C1([H])[H]

>  <smiles>  (61) 
[H]c1nc(C([H])(C(=O)C(C([H])([H])[H])(C([H])([H])[H])C([H])([H])Oc2c([H])c([H])c3c(c2[H])C([H])([H])N(C(=O)C([H])(N([H])C(=O)C([H])(N([H])C([H])([H])[H])C([H])([H])[H])C(C([H])([H])[H])(C([H])([H])[H])C([H])([H])[H])C([H])(C(=O)N([H])C2([H])c4c([H])c([H])c([H])c([H])c4C([H])([H])C([H])([H])C2([H])[H])C3([H])[H])C([H])([H])[H])c(F)c(F)c1N([H])C(=O)N1C([H])([H])C([H])([H])C([H])([H])C([H])(n2nc(-c3c([H])c([H])c(Oc4c([H])c([H])c(F)c([H])c4F)c([H])c3[H])c(C(=O)N([H])[H])c2N([H])[H])C1([H])[H]

$$$$
62:0:0
     RDKit          3D

 93101  0  0  1  0  0  0  0  0999 V2000
  -28.5710  -22.9440   21.2390 C   0  0  0  0  0  0  0  0  0  0  0  0
  -28.9950  -21.7910   20.6730 N   0  0  0  0  0  0  0  0  0  0  0  0
  -28.0720  -22.9870   22.3680 O   0  0  0  0  0  0  0  0  0  0  0  0
  -29.4140  -21.8560   19.7540 H   0  0  0  0  0  0  0  0  0  0  0  0
  -28.7570  -24.2340   20.3560 C   0  0  0  0  0  0  0  0  0  0  0  0
  -29.2190  -24.1800   19.2090 O   0  0  0  0  0  0  0  0  0  0  0  0
  -28.3280  -25.5820   20.9960 C   0  0  0  0  0  2  0  0  0  0  0  0
  -28.4230  -26.7200   20.1040 O   0  0  0  0  0  0  0  0  0  0  0  0
  -24.6360  -31.9190   23.2080 C   0  0  0  0  0  0  0  0  0  0  0  0
  -27.2840  -27.4970   20.1000 C   0  0  0  0  0  0  0  0  0  0  0  0
  -23.4290  -30.5180   21.5630 C   0  0  0  0  0  3  0  0  0  0  0  0
  -24.8840  -28.9970   20.1210 C   0  0  0  0  0  0  0  0  0  0  0  0
  -25.9530  -30.8910   21.3540 C   0  0  0  0  0  2  0  0  0  0  0  0
  -26.0440  -29.5220   20.7090 C   0  0  0  0  0  0  0  0  0  0  0  0
  -27.2480  -28.7800   20.6950 C   0  0  0  0  0  3  0  0  0  0  0  0
  -26.1150  -26.9900   19.4980 C   0  0  0  0  0  3  0  0  0  0  0  0
  -24.9170  -27.7290   19.5100 C   0  0  0  0  0  3  0  0  0  0  0  0
  -23.6360  -29.8480   20.1780 C   0  0  0  0  0  2  0  0  0  0  0  0
  -24.6910  -31.1270   22.0990 N   0  0  0  0  0  0  0  0  0  0  0  0
  -23.5560  -32.1800   23.7570 O   0  0  0  0  0  0  0  0  0  0  0  0
  -22.7900  -29.4880   22.5230 C   0  0  0  0  0  0  0  0  0  0  0  0
  -21.4660  -29.2990   22.4030 N   0  0  0  0  0  0  0  0  0  0  0  0
  -23.4840  -28.8630   23.3290 O   0  0  0  0  0  0  0  0  0  0  0  0
  -20.9700  -29.8610   21.7270 H   0  0  0  0  0  0  0  0  0  0  0  0
  -18.1000  -28.0800   22.8990 C   0  0  0  0  0  0  0  0  0  0  0  0
  -20.6550  -28.3520   23.1710 C   0  0  0  0  0  3  0  0  0  0  0  0
  -20.7650  -26.9250   22.5830 C   0  0  0  0  0  2  0  0  0  0  0  0
  -19.6610  -26.6030   21.5700 C   0  0  0  0  0  2  0  0  0  0  0  0
  -18.2810  -26.7350   22.2180 C   0  0  0  0  0  2  0  0  0  0  0  0
  -19.2140  -28.8470   23.3330 C   0  0  0  0  0  0  0  0  0  0  0  0
  -18.9880  -30.1070   23.9280 C   0  0  0  0  0  3  0  0  0  0  0  0
  -17.6790  -30.5990   24.1000 C   0  0  0  0  0  3  0  0  0  0  0  0
  -16.5800  -29.8290   23.6810 C   0  0  0  0  0  3  0  0  0  0  0  0
  -16.7920  -28.5720   23.0880 C   0  0  0  0  0  3  0  0  0  0  0  0
  -25.9210  -32.5500   23.8290 C   0  0  0  0  0  3  0  0  0  0  0  0
  -26.4430  -31.7770   25.1010 C   0  0  1  0  0  0  0  0  0  0  0  0
  -25.3550  -31.5280   26.1710 C   0  0  0  0  0  1  0  0  0  0  0  0
  -27.0310  -30.4060   24.6960 C   0  0  0  0  0  1  0  0  0  0  0  0
  -27.5940  -32.5740   25.7620 C   0  0  0  0  0  1  0  0  0  0  0  0
  -25.6120  -33.9470   24.1620 N   0  0  0  0  0  0  0  0  0  0  0  0
  -25.9470  -35.0010   23.4060 C   0  0  0  0  0  0  0  0  0  0  0  0
  -26.6220  -34.9010   22.3770 O   0  0  0  0  0  0  0  0  0  0  0  0
  -25.0160  -34.0990   24.9630 H   0  0  0  0  0  0  0  0  0  0  0  0
  -24.2290  -36.8000   23.0340 C   0  0  0  0  0  1  0  0  0  0  0  0
  -25.4560  -36.3880   23.8640 C   0  0  0  0  0  3  0  0  0  0  0  0
  -27.5810  -37.2610   24.7310 C   0  0  0  0  0  1  0  0  0  0  0  0
  -26.4900  -37.4410   23.7740 N   0  0  0  0  0  0  0  0  0  0  0  0
  -26.0850  -38.3600   23.9240 H   0  0  0  0  0  0  0  0  0  0  0  0
  -28.9030  -20.4580   21.3060 C   0  0  0  0  0  2  0  0  0  0  0  0
  -30.7310  -14.6250   20.0540 C   0  0  0  0  0  0  0  0  0  0  0  0
  -30.4160  -12.4440   18.9330 C   0  0  0  0  0  2  0  0  0  0  0  0
  -29.4020  -12.6510   17.7870 C   0  0  0  0  0  2  0  0  0  0  0  0
  -27.9590  -12.4740   18.2980 C   0  0  0  0  0  2  0  0  0  0  0  0
  -27.6880  -13.2950   19.5880 C   0  0  0  0  0  3  0  0  0  0  0  0
  -28.8100  -13.0840   20.6290 C   0  0  0  0  0  2  0  0  0  0  0  0
  -30.0920  -13.4200   19.9880 N   0  0  0  0  0  0  0  0  0  0  0  0
  -31.8530  -14.7960   19.5660 O   0  0  0  0  0  0  0  0  0  0  0  0
  -29.6160  -19.3050   20.6000 C   0  0  0  0  0  0  0  0  0  0  0  0
  -30.5490  -19.3670   19.5930 C   0  0  0  0  0  0  0  0  0  0  0  0
  -30.1370  -17.0570   20.3060 C   0  0  0  0  0  0  0  0  0  0  0  0
  -29.3880  -17.9580   20.9830 N   0  0  0  0  0  0  0  0  0  0  0  0
  -30.0000  -15.6480   20.5590 N   0  0  0  0  0  0  0  0  0  0  0  0
  -30.9680  -20.5230   19.0150 F   0  0  0  0  0  0  0  0  0  0  0  0
  -31.1840  -17.8170   19.0990 S   0  0  0  0  0  0  0  0  0  0  0  0
  -29.1520  -15.3830   21.0310 H   0  0  0  0  0  0  0  0  0  0  0  0
  -25.3440  -13.8750   20.4730 C   0  0  0  0  0  0  0  0  0  0  0  0
  -24.2980  -13.0920   20.8830 C   0  0  0  0  0  0  0  0  0  0  0  0
  -24.7520  -11.7420   20.7780 C   0  0  0  0  0  0  0  0  0  0  0  0
  -26.3690  -13.0020   20.1450 N   0  0  0  0  0  0  0  0  0  0  0  0
  -26.0200  -11.7100   20.3830 N   0  0  0  0  0  0  0  0  0  0  0  0
  -24.0370  -10.4750   20.9710 C   0  0  0  0  0  0  0  0  0  0  0  0
  -24.4850   -9.5090   21.8990 C   0  0  0  0  0  3  0  0  0  0  0  0
  -23.7690   -8.3040   22.0800 C   0  0  0  0  0  3  0  0  0  0  0  0
  -22.5920   -8.0580   21.3360 C   0  0  0  0  0  0  0  0  0  0  0  0
  -22.1630   -9.0150   20.3980 C   0  0  0  0  0  3  0  0  0  0  0  0
  -22.8770  -10.2110   20.2140 C   0  0  0  0  0  3  0  0  0  0  0  0
  -21.8460   -6.9090   21.4250 O   0  0  0  0  0  0  0  0  0  0  0  0
  -21.7660   -6.1970   22.5960 C   0  0  0  0  0  0  0  0  0  0  0  0
  -21.2600   -6.7720   23.7830 C   0  0  0  0  0  3  0  0  0  0  0  0
  -21.1270   -5.9840   24.9450 C   0  0  0  0  0  3  0  0  0  0  0  0
  -21.4860   -4.6220   24.9180 C   0  0  0  0  0  0  0  0  0  0  0  0
  -21.9840   -4.0490   23.7350 C   0  0  0  0  0  3  0  0  0  0  0  0
  -22.1210   -4.8340   22.5760 C   0  0  0  0  0  0  0  0  0  0  0  0
  -22.5810   -4.2700   21.4330 F   0  0  0  0  0  0  0  0  0  0  0  0
  -21.3530   -3.8620   26.0320 F   0  0  0  0  0  0  0  0  0  0  0  0
  -22.9200  -13.5620   21.2580 C   0  0  0  0  0  0  0  0  0  0  0  0
  -22.2430  -12.8360   22.1370 N   0  0  0  0  0  0  0  0  0  0  0  0
  -22.4590  -14.6110   20.8090 O   0  0  0  0  0  0  0  0  0  0  0  0
  -22.6340  -11.9900   22.5260 H   0  0  0  0  0  0  0  0  0  0  0  0
  -21.3200  -13.1300   22.4250 H   0  0  0  0  0  0  0  0  0  0  0  0
  -25.5040  -15.2500   20.3340 N   0  0  0  0  0  0  0  0  0  0  0  0
  -24.7440  -15.8990   20.5010 H   0  0  0  0  0  0  0  0  0  0  0  0
  -26.3410  -15.7020   19.9880 H   0  0  0  0  0  0  0  0  0  0  0  0
  1  3  2  0
  2  1  1  0
  2 49  1  0
  4  2  1  0
  5  7  1  0
  5  1  1  0
  6  5  2  0
  8  7  1  0
  9 20  2  0
 10  8  1  0
 10 15  1  0
 11 19  1  0
 11 21  1  0
 12 18  1  0
 12 14  1  0
 13 19  1  0
 14 13  1  0
 15 14  2  0
 16 17  1  0
 16 10  2  0
 17 12  2  0
 18 11  1  0
 19  9  1  0
 21 23  2  0
 22 21  1  0
 24 22  1  0
 25 34  2  0
 25 30  1  0
 26 22  1  0
 26 30  1  0
 27 26  1  0
 28 29  1  0
 28 27  1  0
 29 25  1  0
 30 31  2  0
 31 32  1  0
 33 32  2  0
 34 33  1  0
 35  9  1  0
 35 40  1  0
 35 36  1  0
 36 39  1  1
 36 37  1  0
 38 36  1  0
 40 43  1  0
 41 45  1  0
 41 40  1  0
 42 41  2  0
 45 44  1  0
 47 45  1  0
 47 48  1  0
 47 46  1  0
 50 62  1  0
 51 56  1  0
 52 53  1  0
 52 51  1  0
 54 53  1  0
 54 69  1  0
 54 55  1  0
 56 50  1  0
 56 55  1  0
 57 50  2  0
 58 61  1  0
 58 49  1  0
 59 58  2  0
 60 62  1  0
 60 61  2  0
 62 65  1  0
 63 59  1  0
 64 59  1  0
 64 60  1  0
 66 67  2  0
 67 86  1  0
 68 67  1  0
 68 71  1  0
 69 70  1  0
 69 66  1  0
 70 68  2  0
 71 72  1  0
 72 73  2  0
 74 77  1  0
 74 73  1  0
 75 74  2  0
 76 75  1  0
 76 71  2  0
 77 78  1  0
 78 79  1  0
 79 80  2  0
 81 80  1  0
 81 85  1  0
 82 81  2  0
 83 78  2  0
 83 82  1  0
 84 83  1  0
 86 87  1  0
 87 90  1  0
 87 89  1  0
 88 86  2  0
 91 66  1  0
 91 92  1  0
 93 91  1  0
M  ISO  4   7 101   8 101  50 100  62 100
M  END
>  <TORSDO>  (62) 
F 19

>  <SCORE>  (62) 
-13.834

>  <name>  (62) 
62

>  <ligand_id>  (62) 
62

>  <original_smiles>  (62) 
[H]c1c([H])c([H])c2c(c1[H])C([H])([H])C([H])([H])C([H])([H])C2([H])N([H])C(=O)C1([H])N(C(=O)C([H])(N([H])C(=O)C([H])(N([H])C([H])([H])[H])C([H])([H])[H])C(C([H])([H])[H])(C([H])([H])[H])C([H])([H])[H])C([H])([H])c2c([H])c(OC([H])([H])C(=O)C(=O)N([H])C([H])([H])c3nc(N([H])C(=O)N4C([H])([H])C([H])([H])C([H])([H])C([H])(n5nc(-c6c([H])c([H])c(Oc7c([H])c([H])c(F)c([H])c7F)c([H])c6[H])c(C(=O)N([H])[H])c5N([H])[H])C4([H])[H])sc3F)c([H])c([H])c2C1([H])[H]

>  <smiles>  (62) 
[H]c1c([H])c([H])c2c(c1[H])C([H])([H])C([H])([H])C([H])([H])C2([H])N([H])C(=O)C1([H])N(C(=O)C([H])(N([H])C(=O)C([H])(N([H])C([H])([H])[H])C([H])([H])[H])C(C([H])([H])[H])(C([H])([H])[H])C([H])([H])[H])C([H])([H])c2c([H])c(OC([H])([H])C(=O)C(=O)N([H])C([H])([H])c3nc(N([H])C(=O)N4C([H])([H])C([H])([H])C([H])([H])C([H])(n5nc(-c6c([H])c([H])c(Oc7c([H])c([H])c(F)c([H])c7F)c([H])c6[H])c(C(=O)N([H])[H])c5N([H])[H])C4([H])[H])sc3F)c([H])c([H])c2C1([H])[H]

$$$$
63:0:0
     RDKit          3D

 94102  0  0  1  0  0  0  0  0999 V2000
  -29.3800  -20.9370   20.5730 C   0  0  0  0  0  0  0  0  0  0  0  0
  -29.8110  -23.2560   21.3930 C   0  0  0  0  0  0  0  0  0  0  0  0
  -29.9670  -21.9080   21.3040 N   0  0  0  0  0  0  0  0  0  0  0  0
  -28.4260  -21.1320   19.8150 O   0  0  0  0  0  0  0  0  0  0  0  0
  -30.5040  -23.8260   22.2410 O   0  0  0  0  0  0  0  0  0  0  0  0
  -30.6690  -21.5520   21.9290 H   0  0  0  0  0  0  0  0  0  0  0  0
  -31.2930  -17.6260   21.0210 C   0  0  0  0  0  3  0  0  0  0  0  0
  -31.2150  -19.0640   21.0110 C   0  0  0  0  0  0  0  0  0  0  0  0
  -29.9440  -19.5420   20.7510 C   0  0  0  0  0  0  0  0  0  0  0  0
  -30.1070  -16.9710   20.7810 C   0  0  0  0  0  0  0  0  0  0  0  0
  -32.4290  -19.9180   21.2530 C   0  0  0  0  0  1  0  0  0  0  0  0
  -28.8520  -18.1790   20.5100 S   0  0  0  0  0  0  0  0  0  0  0  0
  -30.6170  -14.5790   20.3850 C   0  0  0  0  0  0  0  0  0  0  0  0
  -30.3560  -12.3940   19.2530 C   0  0  0  0  0  2  0  0  0  0  0  0
  -29.3960  -12.5740   18.0560 C   0  0  0  0  0  2  0  0  0  0  0  0
  -27.9290  -12.4130   18.5030 C   0  0  0  0  0  2  0  0  0  0  0  0
  -27.5940  -13.2480   19.7670 C   0  0  0  0  0  3  0  0  0  0  0  0
  -28.6660  -13.0510   20.8640 C   0  0  0  0  0  2  0  0  0  0  0  0
  -29.9730  -13.3810   20.2760 N   0  0  0  0  0  0  0  0  0  0  0  0
  -31.7720  -14.7420   19.9810 O   0  0  0  0  0  0  0  0  0  0  0  0
  -29.8330  -15.6230   20.7660 N   0  0  0  0  0  0  0  0  0  0  0  0
  -28.8730  -15.3710   20.9450 H   0  0  0  0  0  0  0  0  0  0  0  0
  -25.2020  -13.8350   20.5070 C   0  0  0  0  0  0  0  0  0  0  0  0
  -24.1430  -13.0530   20.8850 C   0  0  0  0  0  0  0  0  0  0  0  0
  -24.6150  -11.7050   20.8470 C   0  0  0  0  0  0  0  0  0  0  0  0
  -26.2500  -12.9610   20.2620 N   0  0  0  0  0  0  0  0  0  0  0  0
  -25.9020  -11.6750   20.5260 N   0  0  0  0  0  0  0  0  0  0  0  0
  -23.9010  -10.4370   21.0400 C   0  0  0  0  0  0  0  0  0  0  0  0
  -24.3490   -9.4700   21.9670 C   0  0  0  0  0  3  0  0  0  0  0  0
  -23.6340   -8.2650   22.1470 C   0  0  0  0  0  3  0  0  0  0  0  0
  -22.4570   -8.0200   21.4010 C   0  0  0  0  0  0  0  0  0  0  0  0
  -22.0280   -8.9760   20.4640 C   0  0  0  0  0  3  0  0  0  0  0  0
  -22.7430  -10.1710   20.2800 C   0  0  0  0  0  3  0  0  0  0  0  0
  -21.7130   -6.8690   21.4910 O   0  0  0  0  0  0  0  0  0  0  0  0
  -21.6790   -6.1220   22.6420 C   0  0  0  0  0  0  0  0  0  0  0  0
  -21.2500   -6.6670   23.8710 C   0  0  0  0  0  3  0  0  0  0  0  0
  -21.1650   -5.8460   25.0140 C   0  0  0  0  0  3  0  0  0  0  0  0
  -21.4980   -4.4810   24.9280 C   0  0  0  0  0  0  0  0  0  0  0  0
  -21.9210   -3.9350   23.7030 C   0  0  0  0  0  3  0  0  0  0  0  0
  -22.0080   -4.7540   22.5620 C   0  0  0  0  0  0  0  0  0  0  0  0
  -22.3950   -4.2190   21.3800 F   0  0  0  0  0  0  0  0  0  0  0  0
  -21.4090   -3.6910   26.0230 F   0  0  0  0  0  0  0  0  0  0  0  0
  -22.7450  -13.5190   21.1710 C   0  0  0  0  0  0  0  0  0  0  0  0
  -22.0300  -12.8130   22.0430 N   0  0  0  0  0  0  0  0  0  0  0  0
  -22.2940  -14.5420   20.6590 O   0  0  0  0  0  0  0  0  0  0  0  0
  -22.4070  -11.9860   22.4780 H   0  0  0  0  0  0  0  0  0  0  0  0
  -21.0930  -13.1080   22.2770 H   0  0  0  0  0  0  0  0  0  0  0  0
  -25.3550  -15.2060   20.3310 N   0  0  0  0  0  0  0  0  0  0  0  0
  -24.5830  -15.8540   20.4490 H   0  0  0  0  0  0  0  0  0  0  0  0
  -26.1890  -15.6510   19.9710 H   0  0  0  0  0  0  0  0  0  0  0  0
  -28.8790  -24.1500   20.5040 C   0  0  0  0  0  2  0  0  0  0  0  0
  -27.3750  -25.4450   22.1540 C   0  0  0  0  0  1  0  0  0  0  0  0
  -28.5120  -25.5660   21.1130 C   0  0  0  0  0  3  0  0  0  0  0  0
  -28.3400  -26.6290   20.1270 O   0  0  0  0  0  0  0  0  0  0  0  0
  -24.5730  -31.8980   23.2220 C   0  0  0  0  0  0  0  0  0  0  0  0
  -27.1970  -27.4140   20.1560 C   0  0  0  0  0  0  0  0  0  0  0  0
  -23.3650  -30.4990   21.5770 C   0  0  0  0  0  3  0  0  0  0  0  0
  -24.8170  -28.9540   20.1530 C   0  0  0  0  0  0  0  0  0  0  0  0
  -25.8940  -30.8430   21.3850 C   0  0  0  0  0  2  0  0  0  0  0  0
  -25.9780  -29.4670   20.7480 C   0  0  0  0  0  0  0  0  0  0  0  0
  -27.1740  -28.7050   20.7440 C   0  0  0  0  0  3  0  0  0  0  0  0
  -26.0260  -26.9270   19.5440 C   0  0  0  0  0  3  0  0  0  0  0  0
  -24.8370  -27.6860   19.5460 C   0  0  0  0  0  3  0  0  0  0  0  0
  -23.5760  -29.8200   20.1980 C   0  0  0  0  0  2  0  0  0  0  0  0
  -24.6290  -31.0960   22.1190 N   0  0  0  0  0  0  0  0  0  0  0  0
  -23.4910  -32.1740   23.7590 O   0  0  0  0  0  0  0  0  0  0  0  0
  -22.7080  -29.4820   22.5380 C   0  0  0  0  0  0  0  0  0  0  0  0
  -21.3800  -29.3140   22.4170 N   0  0  0  0  0  0  0  0  0  0  0  0
  -23.3870  -28.8470   23.3480 O   0  0  0  0  0  0  0  0  0  0  0  0
  -20.8940  -29.8770   21.7340 H   0  0  0  0  0  0  0  0  0  0  0  0
  -17.9940  -28.1600   22.9330 C   0  0  0  0  0  0  0  0  0  0  0  0
  -20.5570  -28.3810   23.1860 C   0  0  0  0  0  3  0  0  0  0  0  0
  -20.6360  -26.9550   22.5950 C   0  0  0  0  0  2  0  0  0  0  0  0
  -19.5210  -26.6560   21.5880 C   0  0  0  0  0  2  0  0  0  0  0  0
  -18.1460  -26.8140   22.2460 C   0  0  0  0  0  2  0  0  0  0  0  0
  -19.1270  -28.9030   23.3610 C   0  0  0  0  0  0  0  0  0  0  0  0
  -18.9310  -30.1650   23.9630 C   0  0  0  0  0  3  0  0  0  0  0  0
  -17.6340  -30.6820   24.1460 C   0  0  0  0  0  3  0  0  0  0  0  0
  -16.5160  -29.9350   23.7360 C   0  0  0  0  0  3  0  0  0  0  0  0
  -16.6970  -28.6760   23.1350 C   0  0  0  0  0  3  0  0  0  0  0  0
  -25.8600  -32.5250   23.8440 C   0  0  0  0  0  3  0  0  0  0  0  0
  -26.3730  -31.7500   25.1180 C   0  0  1  0  0  0  0  0  0  0  0  0
  -25.2790  -31.5150   26.1860 C   0  0  0  0  0  1  0  0  0  0  0  0
  -26.9510  -30.3710   24.7220 C   0  0  0  0  0  1  0  0  0  0  0  0
  -27.5260  -32.5400   25.7820 C   0  0  0  0  0  1  0  0  0  0  0  0
  -25.5550  -33.9230   24.1730 N   0  0  0  0  0  0  0  0  0  0  0  0
  -25.8970  -34.9750   23.4160 C   0  0  0  0  0  0  0  0  0  0  0  0
  -26.5720  -34.8690   22.3880 O   0  0  0  0  0  0  0  0  0  0  0  0
  -24.9530  -34.0800   24.9680 H   0  0  0  0  0  0  0  0  0  0  0  0
  -24.1830  -36.7790   23.0500 C   0  0  0  0  0  1  0  0  0  0  0  0
  -25.4140  -36.3650   23.8720 C   0  0  0  0  0  3  0  0  0  0  0  0
  -27.5450  -37.2360   24.7250 C   0  0  0  0  0  1  0  0  0  0  0  0
  -26.4540  -37.4120   23.7710 N   0  0  0  0  0  0  0  0  0  0  0  0
  -26.0520  -38.3340   23.9160 H   0  0  0  0  0  0  0  0  0  0  0  0
  1  9  1  0
  1  3  1  0
  2  5  2  0
  3  2  1  0
  3  6  1  0
  4  1  2  0
  8  7  1  0
  8 11  1  0
  9  8  2  0
 10  7  2  0
 12  9  1  0
 12 10  1  0
 13 21  1  0
 14 19  1  0
 15 16  1  0
 15 14  1  0
 17 16  1  0
 17 26  1  0
 17 18  1  0
 19 13  1  0
 19 18  1  0
 20 13  2  0
 21 10  1  0
 21 22  1  0
 23 24  2  0
 24 43  1  0
 25 24  1  0
 25 28  1  0
 26 23  1  0
 26 27  1  0
 27 25  2  0
 28 29  1  0
 29 30  2  0
 31 34  1  0
 31 30  1  0
 32 31  2  0
 33 32  1  0
 33 28  2  0
 34 35  1  0
 35 36  1  0
 36 37  2  0
 38 37  1  0
 38 42  1  0
 39 38  2  0
 40 35  2  0
 40 39  1  0
 41 40  1  0
 43 44  1  0
 44 47  1  0
 44 46  1  0
 45 43  2  0
 48 49  1  0
 48 23  1  0
 50 48  1  0
 51 53  1  0
 51  2  1  0
 53 52  1  0
 54 56  1  0
 54 53  1  0
 55 66  2  0
 56 61  1  0
 57 65  1  0
 57 67  1  0
 58 64  1  0
 58 60  1  0
 59 65  1  0
 60 59  1  0
 61 60  2  0
 62 63  1  0
 62 56  2  0
 63 58  2  0
 64 57  1  0
 65 55  1  0
 67 69  2  0
 68 67  1  0
 70 68  1  0
 71 80  2  0
 71 76  1  0
 72 68  1  0
 72 76  1  0
 73 72  1  0
 74 75  1  0
 74 73  1  0
 75 71  1  0
 76 77  2  0
 77 78  1  0
 79 78  2  0
 80 79  1  0
 81 55  1  0
 81 86  1  0
 81 82  1  0
 82 85  1  1
 82 83  1  0
 84 82  1  0
 86 89  1  0
 87 91  1  0
 87 86  1  0
 88 87  2  0
 91 90  1  0
 93 91  1  0
 93 94  1  0
 93 92  1  0
M  ISO  4  13 100  21 100  53 101  54 101
M  END
>  <TORSDO>  (63) 
F 19

>  <SCORE>  (63) 
-14.675

>  <name>  (63) 
63

>  <ligand_id>  (63) 
63

>  <original_smiles>  (63) 
[H]c1c([H])c([H])c2c(c1[H])C([H])([H])C([H])([H])C([H])([H])C2([H])N([H])C(=O)C1([H])N(C(=O)C([H])(N([H])C(=O)C([H])(N([H])C([H])([H])[H])C([H])([H])[H])C(C([H])([H])[H])(C([H])([H])[H])C([H])([H])[H])C([H])([H])c2c([H])c(OC([H])(C([H])([H])[H])C([H])([H])C(=O)N([H])C(=O)c3sc(N([H])C(=O)N4C([H])([H])C([H])([H])C([H])([H])C([H])(n5nc(-c6c([H])c([H])c(Oc7c([H])c([H])c(F)c([H])c7F)c([H])c6[H])c(C(=O)N([H])[H])c5N([H])[H])C4([H])[H])c([H])c3C([H])([H])[H])c([H])c([H])c2C1([H])[H]

>  <smiles>  (63) 
[H]c1c([H])c([H])c2c(c1[H])C([H])([H])C([H])([H])C([H])([H])C2([H])N([H])C(=O)C1([H])N(C(=O)C([H])(N([H])C(=O)C([H])(N([H])C([H])([H])[H])C([H])([H])[H])C(C([H])([H])[H])(C([H])([H])[H])C([H])([H])[H])C([H])([H])c2c([H])c(OC([H])(C([H])([H])[H])C([H])([H])C(=O)N([H])C(=O)c3sc(N([H])C(=O)N4C([H])([H])C([H])([H])C([H])([H])C([H])(n5nc(-c6c([H])c([H])c(Oc7c([H])c([H])c(F)c([H])c7F)c([H])c6[H])c(C(=O)N([H])[H])c5N([H])[H])C4([H])[H])c([H])c3C([H])([H])[H])c([H])c([H])c2C1([H])[H]

$$$$
64:0:0
     RDKit          3D

 97105  0  0  1  0  0  0  0  0999 V2000
  -28.6530  -22.6610   21.0870 C   0  0  0  0  0  0  0  0  0  0  0  0
  -29.3120  -21.4950   21.1690 N   0  0  0  0  0  0  0  0  0  0  0  0
  -27.4550  -22.8060   21.3530 O   0  0  0  0  0  0  0  0  0  0  0  0
  -30.2910  -21.5090   20.9140 H   0  0  0  0  0  0  0  0  0  0  0  0
  -29.5610  -23.8130   20.5610 C   0  0  0  0  0  0  0  0  0  0  0  0
  -30.1830  -23.6990   19.4960 O   0  0  0  0  0  0  0  0  0  0  0  0
  -29.7370  -25.0550   21.4640 C   0  0  0  0  0  3  0  0  0  0  0  0
  -30.9690  -25.7400   21.2160 O   0  0  0  0  0  0  0  0  0  0  0  0
  -30.9810  -26.5130   21.7690 H   0  0  0  0  0  0  0  0  0  0  0  0
  -28.5760  -26.0730   21.4350 C   0  0  0  0  0  2  0  0  0  0  0  0
  -28.4170  -26.7350   20.1750 O   0  0  0  0  0  0  0  0  0  0  0  0
  -24.6100  -31.8910   23.2500 C   0  0  0  0  0  0  0  0  0  0  0  0
  -27.2810  -27.5000   20.1490 C   0  0  0  0  0  0  0  0  0  0  0  0
  -23.4130  -30.4900   21.5990 C   0  0  0  0  0  3  0  0  0  0  0  0
  -24.8780  -28.9720   20.1640 C   0  0  0  0  0  0  0  0  0  0  0  0
  -25.9330  -30.8720   21.4040 C   0  0  0  0  0  2  0  0  0  0  0  0
  -26.0290  -29.5070   20.7580 C   0  0  0  0  0  0  0  0  0  0  0  0
  -27.2350  -28.7760   20.7510 C   0  0  0  0  0  3  0  0  0  0  0  0
  -26.1220  -26.9750   19.5460 C   0  0  0  0  0  3  0  0  0  0  0  0
  -24.9190  -27.7040   19.5560 C   0  0  0  0  0  3  0  0  0  0  0  0
  -23.6260  -29.8190   20.2150 C   0  0  0  0  0  2  0  0  0  0  0  0
  -24.6700  -31.0980   22.1430 N   0  0  0  0  0  0  0  0  0  0  0  0
  -23.5270  -32.1520   23.7920 O   0  0  0  0  0  0  0  0  0  0  0  0
  -22.7670  -29.4600   22.5530 C   0  0  0  0  0  0  0  0  0  0  0  0
  -21.4420  -29.2770   22.4280 N   0  0  0  0  0  0  0  0  0  0  0  0
  -23.4540  -28.8290   23.3600 O   0  0  0  0  0  0  0  0  0  0  0  0
  -20.9500  -29.8400   21.7480 H   0  0  0  0  0  0  0  0  0  0  0  0
  -18.0680  -28.0880   22.9330 C   0  0  0  0  0  0  0  0  0  0  0  0
  -20.6280  -28.3340   23.1930 C   0  0  0  0  0  3  0  0  0  0  0  0
  -20.7220  -26.9100   22.5990 C   0  0  0  0  0  2  0  0  0  0  0  0
  -19.6130  -26.6030   21.5870 C   0  0  0  0  0  2  0  0  0  0  0  0
  -18.2350  -26.7460   22.2420 C   0  0  0  0  0  2  0  0  0  0  0  0
  -19.1920  -28.8400   23.3660 C   0  0  0  0  0  0  0  0  0  0  0  0
  -18.9830  -30.0990   23.9710 C   0  0  0  0  0  3  0  0  0  0  0  0
  -17.6820  -30.6040   24.1490 C   0  0  0  0  0  3  0  0  0  0  0  0
  -16.5720  -29.8480   23.7340 C   0  0  0  0  0  3  0  0  0  0  0  0
  -16.7660  -28.5920   23.1310 C   0  0  0  0  0  3  0  0  0  0  0  0
  -25.8930  -32.5250   23.8750 C   0  0  0  0  0  3  0  0  0  0  0  0
  -25.5810  -33.9220   24.2030 N   0  0  0  0  0  0  0  0  0  0  0  0
  -25.9160  -34.9740   23.4430 C   0  0  0  0  0  0  0  0  0  0  0  0
  -26.5900  -34.8710   22.4150 O   0  0  0  0  0  0  0  0  0  0  0  0
  -24.9830  -34.0740   25.0010 H   0  0  0  0  0  0  0  0  0  0  0  0
  -24.1890  -36.7650   23.0680 C   0  0  0  0  0  1  0  0  0  0  0  0
  -25.4210  -36.3630   23.8950 C   0  0  0  0  0  3  0  0  0  0  0  0
  -27.5460  -37.2470   24.7490 C   0  0  0  0  0  1  0  0  0  0  0  0
  -26.4560  -37.4160   23.7930 N   0  0  0  0  0  0  0  0  0  0  0  0
  -26.0480  -38.3360   23.9360 H   0  0  0  0  0  0  0  0  0  0  0  0
  -26.4090  -31.7540   25.1520 C   0  0  1  0  0  0  0  0  0  0  0  0
  -25.3140  -31.5120   26.2170 C   0  0  0  0  0  1  0  0  0  0  0  0
  -26.9970  -30.3790   24.7570 C   0  0  0  0  0  1  0  0  0  0  0  0
  -27.5550  -32.5510   25.8180 C   0  0  0  0  0  1  0  0  0  0  0  0
  -28.7340  -20.1710   21.3840 C   0  0  0  0  0  2  0  0  0  0  0  0
  -29.8500  -19.4870   19.2100 C   0  0  0  0  0  3  0  0  0  0  0  0
  -30.5450  -17.1980   18.9100 C   0  0  0  0  0  3  0  0  0  0  0  0
  -30.4510  -18.5060   18.4180 C   0  0  0  0  0  0  0  0  0  0  0  0
  -29.3690  -19.1210   20.4770 C   0  0  0  0  0  0  0  0  0  0  0  0
  -30.0450  -16.8880   20.1970 C   0  0  0  0  0  0  0  0  0  0  0  0
  -29.4570  -17.8520   20.9510 N   0  0  0  0  0  0  0  0  0  0  0  0
  -30.9330  -18.8170   17.1920 F   0  0  0  0  0  0  0  0  0  0  0  0
  -30.7990  -14.5200   20.1920 C   0  0  0  0  0  0  0  0  0  0  0  0
  -30.4720  -12.3770   19.0440 C   0  0  0  0  0  2  0  0  0  0  0  0
  -29.5020  -12.6250   17.8670 C   0  0  0  0  0  2  0  0  0  0  0  0
  -28.0360  -12.4980   18.3290 C   0  0  0  0  0  2  0  0  0  0  0  0
  -27.7370  -13.3000   19.6230 C   0  0  0  0  0  3  0  0  0  0  0  0
  -28.8200  -13.0420   20.6970 C   0  0  0  0  0  2  0  0  0  0  0  0
  -30.1350  -13.3380   20.1020 N   0  0  0  0  0  0  0  0  0  0  0  0
  -31.9350  -14.6830   19.7340 O   0  0  0  0  0  0  0  0  0  0  0  0
  -30.0730  -15.5460   20.6790 N   0  0  0  0  0  0  0  0  0  0  0  0
  -29.2900  -15.2850   21.2550 H   0  0  0  0  0  0  0  0  0  0  0  0
  -25.3550  -13.8970   20.3940 C   0  0  0  0  0  0  0  0  0  0  0  0
  -24.2990  -13.1190   20.7900 C   0  0  0  0  0  0  0  0  0  0  0  0
  -24.7650  -11.7690   20.7420 C   0  0  0  0  0  0  0  0  0  0  0  0
  -26.3970  -13.0200   20.1330 N   0  0  0  0  0  0  0  0  0  0  0  0
  -26.0460  -11.7360   20.3990 N   0  0  0  0  0  0  0  0  0  0  0  0
  -24.0490  -10.5020   20.9440 C   0  0  0  0  0  0  0  0  0  0  0  0
  -24.4900   -9.5470   21.8870 C   0  0  0  0  0  3  0  0  0  0  0  0
  -23.7740   -8.3460   22.0780 C   0  0  0  0  0  3  0  0  0  0  0  0
  -22.6010   -8.0920   21.3280 C   0  0  0  0  0  0  0  0  0  0  0  0
  -22.1760   -9.0380   20.3790 C   0  0  0  0  0  3  0  0  0  0  0  0
  -22.8930  -10.2310   20.1850 C   0  0  0  0  0  3  0  0  0  0  0  0
  -21.8540   -6.9420   21.4300 O   0  0  0  0  0  0  0  0  0  0  0  0
  -21.7960   -6.2250   22.5960 C   0  0  0  0  0  0  0  0  0  0  0  0
  -21.3380   -6.7990   23.8030 C   0  0  0  0  0  3  0  0  0  0  0  0
  -21.2260   -6.0050   24.9620 C   0  0  0  0  0  3  0  0  0  0  0  0
  -21.5600   -4.6380   24.9160 C   0  0  0  0  0  0  0  0  0  0  0  0
  -22.0110   -4.0630   23.7140 C   0  0  0  0  0  3  0  0  0  0  0  0
  -22.1240   -4.8540   22.5560 C   0  0  0  0  0  0  0  0  0  0  0  0
  -22.5370   -4.2910   21.3960 F   0  0  0  0  0  0  0  0  0  0  0  0
  -21.4460   -3.8730   26.0270 F   0  0  0  0  0  0  0  0  0  0  0  0
  -22.9070  -13.5910   21.0990 C   0  0  0  0  0  0  0  0  0  0  0  0
  -22.2010  -12.8900   21.9810 N   0  0  0  0  0  0  0  0  0  0  0  0
  -22.4510  -14.6170   20.5930 O   0  0  0  0  0  0  0  0  0  0  0  0
  -22.5800  -12.0610   22.4160 H   0  0  0  0  0  0  0  0  0  0  0  0
  -21.2680  -13.1870   22.2270 H   0  0  0  0  0  0  0  0  0  0  0  0
  -25.5100  -15.2690   20.2190 N   0  0  0  0  0  0  0  0  0  0  0  0
  -24.7440  -15.9180   20.3600 H   0  0  0  0  0  0  0  0  0  0  0  0
  -26.3470  -15.7160   19.8660 H   0  0  0  0  0  0  0  0  0  0  0  0
  1  2  1  0
  1  3  2  0
  2 52  1  0
  4  2  1  0
  5  1  1  0
  5  7  1  0
  6  5  2  0
  7 10  1  0
  8  7  1  0
  8  9  1  0
 11 10  1  0
 12 23  2  0
 13 11  1  0
 13 18  1  0
 14 22  1  0
 14 24  1  0
 15 21  1  0
 15 17  1  0
 16 22  1  0
 17 16  1  0
 18 17  2  0
 19 20  1  0
 19 13  2  0
 20 15  2  0
 21 14  1  0
 22 12  1  0
 24 26  2  0
 25 24  1  0
 27 25  1  0
 28 37  2  0
 28 33  1  0
 29 25  1  0
 29 33  1  0
 30 29  1  0
 31 32  1  0
 31 30  1  0
 32 28  1  0
 33 34  2  0
 34 35  1  0
 36 35  2  0
 37 36  1  0
 38 12  1  0
 38 39  1  0
 38 48  1  0
 39 42  1  0
 40 44  1  0
 40 39  1  0
 41 40  2  0
 44 43  1  0
 46 44  1  0
 46 47  1  0
 46 45  1  0
 48 51  1  1
 48 49  1  0
 50 48  1  0
 53 56  1  0
 54 57  2  0
 55 54  1  0
 55 53  2  0
 56 58  2  0
 56 52  1  0
 57 68  1  0
 57 58  1  0
 59 55  1  0
 60 68  1  0
 61 66  1  0
 62 63  1  0
 62 61  1  0
 64 63  1  0
 64 73  1  0
 64 65  1  0
 66 60  1  0
 66 65  1  0
 67 60  2  0
 68 69  1  0
 70 71  2  0
 71 90  1  0
 72 71  1  0
 72 75  1  0
 73 70  1  0
 73 74  1  0
 74 72  2  0
 75 76  1  0
 76 77  2  0
 78 81  1  0
 78 77  1  0
 79 78  2  0
 80 79  1  0
 80 75  2  0
 81 82  1  0
 82 83  1  0
 83 84  2  0
 85 84  1  0
 85 89  1  0
 86 85  2  0
 87 82  2  0
 87 86  1  0
 88 87  1  0
 90 91  1  0
 91 94  1  0
 91 93  1  0
 92 90  2  0
 95 96  1  0
 95 70  1  0
 97 95  1  0
M  ISO  4  10 101  11 101  60 100  68 100
M  END
>  <TORSDO>  (64) 
F 22

>  <SCORE>  (64) 
-13.251

>  <name>  (64) 
64

>  <ligand_id>  (64) 
64

>  <original_smiles>  (64) 
[H]OC([H])(C(=O)C(=O)N([H])C([H])([H])c1nc(N([H])C(=O)N2C([H])([H])C([H])([H])C([H])([H])C([H])(n3nc(-c4c([H])c([H])c(Oc5c([H])c([H])c(F)c([H])c5F)c([H])c4[H])c(C(=O)N([H])[H])c3N([H])[H])C2([H])[H])c([H])c(F)c1[H])C([H])([H])Oc1c([H])c([H])c2c(c1[H])C([H])([H])N(C(=O)C([H])(N([H])C(=O)C([H])(N([H])C([H])([H])[H])C([H])([H])[H])C(C([H])([H])[H])(C([H])([H])[H])C([H])([H])[H])C([H])(C(=O)N([H])C1([H])c3c([H])c([H])c([H])c([H])c3C([H])([H])C([H])([H])C1([H])[H])C2([H])[H]

>  <smiles>  (64) 
[H]OC([H])(C(=O)C(=O)N([H])C([H])([H])c1nc(N([H])C(=O)N2C([H])([H])C([H])([H])C([H])([H])C([H])(n3nc(-c4c([H])c([H])c(Oc5c([H])c([H])c(F)c([H])c5F)c([H])c4[H])c(C(=O)N([H])[H])c3N([H])[H])C2([H])[H])c([H])c(F)c1[H])C([H])([H])Oc1c([H])c([H])c2c(c1[H])C([H])([H])N(C(=O)C([H])(N([H])C(=O)C([H])(N([H])C([H])([H])[H])C([H])([H])[H])C(C([H])([H])[H])(C([H])([H])[H])C([H])([H])[H])C([H])(C(=O)N([H])C1([H])c3c([H])c([H])c([H])c([H])c3C([H])([H])C([H])([H])C1([H])[H])C2([H])[H]

$$$$
65:0:0
     RDKit          3D

 96104  0  0  1  0  0  0  0  0999 V2000
  -28.3380  -20.0160   20.1620 C   0  0  0  0  0  0  0  0  0  0  0  0
  -27.1960  -20.3330   19.8090 O   0  0  0  0  0  0  0  0  0  0  0  0
  -30.6800  -14.4390   20.6410 C   0  0  0  0  0  0  0  0  0  0  0  0
  -30.4080  -12.2750   19.5230 C   0  0  0  0  0  2  0  0  0  0  0  0
  -29.5130  -12.5020   18.2860 C   0  0  0  0  0  2  0  0  0  0  0  0
  -28.0210  -12.3880   18.6600 C   0  0  0  0  0  2  0  0  0  0  0  0
  -27.6510  -13.2270   19.9120 C   0  0  0  0  0  3  0  0  0  0  0  0
  -28.6620  -12.9880   21.0570 C   0  0  0  0  0  2  0  0  0  0  0  0
  -30.0150  -13.2600   20.5410 N   0  0  0  0  0  0  0  0  0  0  0  0
  -31.8300  -14.6080   20.2260 O   0  0  0  0  0  0  0  0  0  0  0  0
  -28.9910  -18.7470   19.8360 C   0  0  0  0  0  0  0  0  0  0  0  0
  -29.4230  -18.3830   18.5700 C   0  0  0  0  0  0  0  0  0  0  0  0
  -29.7670  -16.6480   20.2880 C   0  0  0  0  0  0  0  0  0  0  0  0
  -29.1790  -17.7340   20.7980 N   0  0  0  0  0  0  0  0  0  0  0  0
  -29.9400  -15.4750   21.0650 N   0  0  0  0  0  0  0  0  0  0  0  0
  -30.1330  -16.7910   18.5670 S   0  0  0  0  0  0  0  0  0  0  0  0
  -29.1610  -15.2470   21.6620 H   0  0  0  0  0  0  0  0  0  0  0  0
  -25.2260  -13.8560   20.5040 C   0  0  0  0  0  0  0  0  0  0  0  0
  -24.1400  -13.0930   20.8410 C   0  0  0  0  0  0  0  0  0  0  0  0
  -24.5980  -11.7400   20.8610 C   0  0  0  0  0  0  0  0  0  0  0  0
  -26.2770  -12.9670   20.3370 N   0  0  0  0  0  0  0  0  0  0  0  0
  -25.8990  -11.6910   20.6090 N   0  0  0  0  0  0  0  0  0  0  0  0
  -23.8600  -10.4830   21.0540 C   0  0  0  0  0  0  0  0  0  0  0  0
  -24.2730   -9.5240   22.0040 C   0  0  0  0  0  3  0  0  0  0  0  0
  -23.5410   -8.3290   22.1790 C   0  0  0  0  0  3  0  0  0  0  0  0
  -22.3810   -8.0880   21.4040 C   0  0  0  0  0  0  0  0  0  0  0  0
  -21.9880   -9.0370   20.4440 C   0  0  0  0  0  3  0  0  0  0  0  0
  -22.7210  -10.2230   20.2670 C   0  0  0  0  0  3  0  0  0  0  0  0
  -21.6190   -6.9470   21.4890 O   0  0  0  0  0  0  0  0  0  0  0  0
  -21.5640   -6.2070   22.6420 C   0  0  0  0  0  0  0  0  0  0  0  0
  -21.1480   -6.7680   23.8700 C   0  0  0  0  0  3  0  0  0  0  0  0
  -21.0330   -5.9510   25.0130 C   0  0  0  0  0  3  0  0  0  0  0  0
  -21.3270   -4.5760   24.9310 C   0  0  0  0  0  0  0  0  0  0  0  0
  -21.7390   -4.0170   23.7090 C   0  0  0  0  0  3  0  0  0  0  0  0
  -21.8530   -4.8300   22.5680 C   0  0  0  0  0  0  0  0  0  0  0  0
  -22.2280   -4.2800   21.3860 F   0  0  0  0  0  0  0  0  0  0  0  0
  -21.2110   -3.7900   26.0280 F   0  0  0  0  0  0  0  0  0  0  0  0
  -22.7360  -13.5800   21.0530 C   0  0  0  0  0  0  0  0  0  0  0  0
  -21.9760  -12.9070   21.9120 N   0  0  0  0  0  0  0  0  0  0  0  0
  -22.3190  -14.5910   20.4910 O   0  0  0  0  0  0  0  0  0  0  0  0
  -22.3220  -12.0830   22.3810 H   0  0  0  0  0  0  0  0  0  0  0  0
  -21.0320  -13.2170   22.0940 H   0  0  0  0  0  0  0  0  0  0  0  0
  -25.4050  -15.2220   20.3140 N   0  0  0  0  0  0  0  0  0  0  0  0
  -24.6350  -15.8790   20.3860 H   0  0  0  0  0  0  0  0  0  0  0  0
  -26.2800  -15.6590   20.0570 H   0  0  0  0  0  0  0  0  0  0  0  0
  -29.3810  -19.0790   17.3600 N   0  0  0  0  0  0  0  0  0  0  0  0
  -28.8550  -19.9360   17.2130 H   0  0  0  0  0  0  0  0  0  0  0  0
  -29.6420  -18.6470   16.4790 H   0  0  0  0  0  0  0  0  0  0  0  0
  -29.1720  -20.9960   20.9910 C   0  0  0  0  0  2  0  0  0  0  0  0
  -28.8510  -22.4850   20.6790 C   0  0  0  0  0  2  0  0  0  0  0  0
  -30.0850  -23.3760   20.4770 C   0  0  0  0  0  0  0  0  0  0  0  0
  -31.2320  -22.9160   20.5690 O   0  0  0  0  0  0  0  0  0  0  0  0
  -29.8770  -24.8800   20.1590 C   0  0  0  0  0  0  0  0  0  0  0  0
  -30.8540  -25.6340   20.0410 O   0  0  0  0  0  0  0  0  0  0  0  0
  -28.4480  -25.4120   19.9840 C   0  0  0  0  0  2  0  0  0  0  0  0
  -28.4480  -26.8260   20.1730 O   0  0  0  0  0  0  0  0  0  0  0  0
  -24.5960  -31.9140   23.2500 C   0  0  0  0  0  0  0  0  0  0  0  0
  -27.2390  -27.4800   20.1830 C   0  0  0  0  0  0  0  0  0  0  0  0
  -23.3840  -30.5070   21.6150 C   0  0  0  0  0  3  0  0  0  0  0  0
  -24.8340  -28.9600   20.2020 C   0  0  0  0  0  0  0  0  0  0  0  0
  -25.9070  -30.8710   21.4070 C   0  0  0  0  0  2  0  0  0  0  0  0
  -25.9900  -29.4970   20.7790 C   0  0  0  0  0  0  0  0  0  0  0  0
  -27.1940  -28.7630   20.7650 C   0  0  0  0  0  3  0  0  0  0  0  0
  -26.0600  -26.9410   19.6160 C   0  0  0  0  0  3  0  0  0  0  0  0
  -24.8600  -27.6780   19.6240 C   0  0  0  0  0  3  0  0  0  0  0  0
  -23.5890  -29.8160   20.2410 C   0  0  0  0  0  2  0  0  0  0  0  0
  -24.6480  -31.1130   22.1490 N   0  0  0  0  0  0  0  0  0  0  0  0
  -23.5170  -32.1910   23.7900 O   0  0  0  0  0  0  0  0  0  0  0  0
  -22.7340  -29.4920   22.5810 C   0  0  0  0  0  0  0  0  0  0  0  0
  -21.4090  -29.3130   22.4570 N   0  0  0  0  0  0  0  0  0  0  0  0
  -23.4180  -28.8660   23.3940 O   0  0  0  0  0  0  0  0  0  0  0  0
  -20.9170  -29.8690   21.7710 H   0  0  0  0  0  0  0  0  0  0  0  0
  -18.0310  -28.1410   22.9620 C   0  0  0  0  0  0  0  0  0  0  0  0
  -20.5900  -28.3800   23.2310 C   0  0  0  0  0  3  0  0  0  0  0  0
  -20.6830  -26.9490   22.6540 C   0  0  0  0  0  2  0  0  0  0  0  0
  -19.5770  -26.6330   21.6420 C   0  0  0  0  0  2  0  0  0  0  0  0
  -18.1980  -26.7890   22.2880 C   0  0  0  0  0  2  0  0  0  0  0  0
  -19.1550  -28.8950   23.3900 C   0  0  0  0  0  0  0  0  0  0  0  0
  -18.9460  -30.1620   23.9770 C   0  0  0  0  0  3  0  0  0  0  0  0
  -17.6460  -30.6740   24.1410 C   0  0  0  0  0  3  0  0  0  0  0  0
  -16.5360  -29.9160   23.7330 C   0  0  0  0  0  3  0  0  0  0  0  0
  -16.7290  -28.6510   23.1480 C   0  0  0  0  0  3  0  0  0  0  0  0
  -25.8840  -32.5450   23.8680 C   0  0  0  0  0  3  0  0  0  0  0  0
  -26.4030  -31.7750   25.1440 C   0  0  1  0  0  0  0  0  0  0  0  0
  -25.3130  -31.5430   26.2160 C   0  0  0  0  0  1  0  0  0  0  0  0
  -26.9810  -30.3960   24.7490 C   0  0  0  0  0  1  0  0  0  0  0  0
  -27.5570  -32.5680   25.8020 C   0  0  0  0  0  1  0  0  0  0  0  0
  -25.5790  -33.9440   24.1930 N   0  0  0  0  0  0  0  0  0  0  0  0
  -25.9160  -34.9920   23.4290 C   0  0  0  0  0  0  0  0  0  0  0  0
  -26.5870  -34.8830   22.3990 O   0  0  0  0  0  0  0  0  0  0  0  0
  -24.9830  -34.1030   24.9920 H   0  0  0  0  0  0  0  0  0  0  0  0
  -24.1910  -36.7850   23.0670 C   0  0  0  0  0  1  0  0  0  0  0  0
  -25.4300  -36.3830   23.8810 C   0  0  0  0  0  3  0  0  0  0  0  0
  -27.5680  -37.2630   24.7070 C   0  0  0  0  0  1  0  0  0  0  0  0
  -26.4650  -37.4330   23.7650 N   0  0  0  0  0  0  0  0  0  0  0  0
  -26.0610  -38.3540   23.9120 H   0  0  0  0  0  0  0  0  0  0  0  0
  1 49  1  0
  2  1  2  0
  3 15  1  0
  4  9  1  0
  5  6  1  0
  5  4  1  0
  7  6  1  0
  7 21  1  0
  7  8  1  0
  9  3  1  0
  9  8  1  0
 10  3  2  0
 11  1  1  0
 11 14  1  0
 12 11  2  0
 13 14  2  0
 13 15  1  0
 15 17  1  0
 16 12  1  0
 16 13  1  0
 18 19  2  0
 19 20  1  0
 19 38  1  0
 20 23  1  0
 21 18  1  0
 21 22  1  0
 22 20  2  0
 23 24  1  0
 24 25  2  0
 26 29  1  0
 26 25  1  0
 27 26  2  0
 28 27  1  0
 28 23  2  0
 29 30  1  0
 30 31  1  0
 31 32  2  0
 33 32  1  0
 33 37  1  0
 34 33  2  0
 35 30  2  0
 35 34  1  0
 36 35  1  0
 38 39  1  0
 39 42  1  0
 39 41  1  0
 40 38  2  0
 43 44  1  0
 43 18  1  0
 45 43  1  0
 46 12  1  0
 47 46  1  0
 48 46  1  0
 50 49  1  0
 51 52  2  0
 51 50  1  0
 53 51  1  0
 54 53  2  0
 55 53  1  0
 55 56  1  0
 56 58  1  0
 57 68  2  0
 58 63  1  0
 59 67  1  0
 59 69  1  0
 60 66  1  0
 60 62  1  0
 61 67  1  0
 62 61  1  0
 63 62  2  0
 64 65  1  0
 64 58  2  0
 65 60  2  0
 66 59  1  0
 67 57  1  0
 69 71  2  0
 70 69  1  0
 72 70  1  0
 73 82  2  0
 73 78  1  0
 74 70  1  0
 74 78  1  0
 75 74  1  0
 76 77  1  0
 76 75  1  0
 77 73  1  0
 78 79  2  0
 79 80  1  0
 81 80  2  0
 82 81  1  0
 83 57  1  0
 83 88  1  0
 83 84  1  0
 84 87  1  1
 84 85  1  0
 86 84  1  0
 88 91  1  0
 89 93  1  0
 89 88  1  0
 90 89  2  0
 93 92  1  0
 95 93  1  0
 95 96  1  0
 95 94  1  0
M  ISO  4   3 100  15 100  55 101  56 101
M  END
>  <TORSDO>  (65) 
F 22

>  <SCORE>  (65) 
-13.145

>  <name>  (65) 
65

>  <ligand_id>  (65) 
65

>  <original_smiles>  (65) 
[H]c1c([H])c([H])c2c(c1[H])C([H])([H])C([H])([H])C([H])([H])C2([H])N([H])C(=O)C1([H])N(C(=O)C([H])(N([H])C(=O)C([H])(N([H])C([H])([H])[H])C([H])([H])[H])C(C([H])([H])[H])(C([H])([H])[H])C([H])([H])[H])C([H])([H])c2c([H])c(OC([H])([H])C(=O)C(=O)C([H])([H])C([H])([H])C(=O)c3nc(N([H])C(=O)N4C([H])([H])C([H])([H])C([H])([H])C([H])(n5nc(-c6c([H])c([H])c(Oc7c([H])c([H])c(F)c([H])c7F)c([H])c6[H])c(C(=O)N([H])[H])c5N([H])[H])C4([H])[H])sc3N([H])[H])c([H])c([H])c2C1([H])[H]

>  <smiles>  (65) 
[H]c1c([H])c([H])c2c(c1[H])C([H])([H])C([H])([H])C([H])([H])C2([H])N([H])C(=O)C1([H])N(C(=O)C([H])(N([H])C(=O)C([H])(N([H])C([H])([H])[H])C([H])([H])[H])C(C([H])([H])[H])(C([H])([H])[H])C([H])([H])[H])C([H])([H])c2c([H])c(OC([H])([H])C(=O)C(=O)C([H])([H])C([H])([H])C(=O)c3nc(N([H])C(=O)N4C([H])([H])C([H])([H])C([H])([H])C([H])(n5nc(-c6c([H])c([H])c(Oc7c([H])c([H])c(F)c([H])c7F)c([H])c6[H])c(C(=O)N([H])[H])c5N([H])[H])C4([H])[H])sc3N([H])[H])c([H])c([H])c2C1([H])[H]

$$$$
66:0:0
     RDKit          3D

 97105  0  0  1  0  0  0  0  0999 V2000
  -29.8800  -21.8060   20.6950 C   0  0  0  0  0  0  0  0  0  0  0  0
  -29.4340  -20.5230   20.7750 N   0  0  0  0  0  0  0  0  0  0  0  0
  -31.0790  -22.1110   20.6780 O   0  0  0  0  0  0  0  0  0  0  0  0
  -28.4340  -20.4220   20.6480 H   0  0  0  0  0  0  0  0  0  0  0  0
  -31.4150  -19.3590   21.7410 C   0  0  0  0  0  3  0  0  0  0  0  0
  -32.0970  -18.1750   22.0740 C   0  0  0  0  0  3  0  0  0  0  0  0
  -30.1740  -19.3160   21.0600 C   0  0  0  0  0  0  0  0  0  0  0  0
  -30.3350  -16.8310   21.0370 C   0  0  0  0  0  0  0  0  0  0  0  0
  -31.5620  -16.9210   21.7370 C   0  0  0  0  0  0  0  0  0  0  0  0
  -29.6350  -18.0360   20.7290 C   0  0  0  0  0  0  0  0  0  0  0  0
  -32.2190  -15.8030   22.1340 F   0  0  0  0  0  0  0  0  0  0  0  0
  -28.4330  -17.9630   20.1060 F   0  0  0  0  0  0  0  0  0  0  0  0
  -30.4240  -14.5330   20.0830 C   0  0  0  0  0  0  0  0  0  0  0  0
  -30.0230  -12.4310   18.8430 C   0  0  0  0  0  2  0  0  0  0  0  0
  -28.9980  -12.6820   17.7200 C   0  0  0  0  0  2  0  0  0  0  0  0
  -27.5600  -12.5180   18.2510 C   0  0  0  0  0  2  0  0  0  0  0  0
  -27.3160  -13.2970   19.5710 C   0  0  0  0  0  3  0  0  0  0  0  0
  -28.4490  -13.0380   20.5890 C   0  0  0  0  0  2  0  0  0  0  0  0
  -29.7240  -13.3730   19.9360 N   0  0  0  0  0  0  0  0  0  0  0  0
  -31.5110  -14.7160   19.5290 O   0  0  0  0  0  0  0  0  0  0  0  0
  -29.7830  -15.5430   20.7130 N   0  0  0  0  0  0  0  0  0  0  0  0
  -28.8120  -15.3990   20.9370 H   0  0  0  0  0  0  0  0  0  0  0  0
  -24.9650  -13.8650   20.4460 C   0  0  0  0  0  0  0  0  0  0  0  0
  -23.9300  -13.0750   20.8700 C   0  0  0  0  0  0  0  0  0  0  0  0
  -24.4010  -11.7290   20.7870 C   0  0  0  0  0  0  0  0  0  0  0  0
  -26.0010  -12.9990   20.1330 N   0  0  0  0  0  0  0  0  0  0  0  0
  -25.6700  -11.7080   20.3960 N   0  0  0  0  0  0  0  0  0  0  0  0
  -23.7010  -10.4560   21.0030 C   0  0  0  0  0  0  0  0  0  0  0  0
  -24.1880   -9.4900   21.9100 C   0  0  0  0  0  3  0  0  0  0  0  0
  -23.4870   -8.2810   22.1130 C   0  0  0  0  0  3  0  0  0  0  0  0
  -22.2850   -8.0310   21.4100 C   0  0  0  0  0  0  0  0  0  0  0  0
  -21.8160   -8.9870   20.4910 C   0  0  0  0  0  3  0  0  0  0  0  0
  -22.5180  -10.1860   20.2850 C   0  0  0  0  0  3  0  0  0  0  0  0
  -21.5510   -6.8750   21.5250 O   0  0  0  0  0  0  0  0  0  0  0  0
  -21.5560   -6.1300   22.6760 C   0  0  0  0  0  0  0  0  0  0  0  0
  -21.1770   -6.6790   23.9210 C   0  0  0  0  0  3  0  0  0  0  0  0
  -21.1310   -5.8590   25.0660 C   0  0  0  0  0  3  0  0  0  0  0  0
  -21.4530   -4.4920   24.9690 C   0  0  0  0  0  0  0  0  0  0  0  0
  -21.8250   -3.9430   23.7300 C   0  0  0  0  0  3  0  0  0  0  0  0
  -21.8740   -4.7600   22.5860 C   0  0  0  0  0  0  0  0  0  0  0  0
  -22.2130   -4.2210   21.3900 F   0  0  0  0  0  0  0  0  0  0  0  0
  -21.4010   -3.7030   26.0670 F   0  0  0  0  0  0  0  0  0  0  0  0
  -22.5490  -13.5330   21.2400 C   0  0  0  0  0  0  0  0  0  0  0  0
  -21.8910  -12.8240   22.1500 N   0  0  0  0  0  0  0  0  0  0  0  0
  -22.0630  -14.5550   20.7560 O   0  0  0  0  0  0  0  0  0  0  0  0
  -22.2970  -11.9970   22.5630 H   0  0  0  0  0  0  0  0  0  0  0  0
  -20.9670  -13.1120   22.4390 H   0  0  0  0  0  0  0  0  0  0  0  0
  -25.1050  -15.2400   20.2800 N   0  0  0  0  0  0  0  0  0  0  0  0
  -24.3380  -15.8830   20.4470 H   0  0  0  0  0  0  0  0  0  0  0  0
  -25.9230  -15.6950   19.8970 H   0  0  0  0  0  0  0  0  0  0  0  0
  -28.7200  -22.8870   20.6330 C   0  0  0  0  0  0  0  0  0  0  0  0
  -27.5680  -22.5170   20.8990 O   0  0  0  0  0  0  0  0  0  0  0  0
  -28.0740  -25.2990   20.4920 C   0  0  0  0  0  3  0  0  0  0  0  0
  -29.0030  -24.3340   20.2820 C   0  0  0  0  0  0  0  0  0  0  0  0
  -30.1830  -24.6710   19.7400 O   0  0  0  0  0  0  0  0  0  0  0  0
  -30.1580  -25.6080   19.5960 H   0  0  0  0  0  0  0  0  0  0  0  0
  -28.2440  -26.6440   20.1790 O   0  0  0  0  0  0  0  0  0  0  0  0
  -24.5140  -31.9370   23.2240 C   0  0  0  0  0  0  0  0  0  0  0  0
  -27.1090  -27.4390   20.1590 C   0  0  0  0  0  0  0  0  0  0  0  0
  -23.2950  -30.5400   21.5910 C   0  0  0  0  0  3  0  0  0  0  0  0
  -24.7340  -28.9890   20.1630 C   0  0  0  0  0  0  0  0  0  0  0  0
  -25.8260  -30.8720   21.3890 C   0  0  0  0  0  2  0  0  0  0  0  0
  -25.9000  -29.4970   20.7520 C   0  0  0  0  0  0  0  0  0  0  0  0
  -27.0920  -28.7280   20.7480 C   0  0  0  0  0  3  0  0  0  0  0  0
  -25.9290  -26.9630   19.5460 C   0  0  0  0  0  3  0  0  0  0  0  0
  -24.7450  -27.7230   19.5560 C   0  0  0  0  0  3  0  0  0  0  0  0
  -23.4970  -29.8580   20.2110 C   0  0  0  0  0  2  0  0  0  0  0  0
  -24.5640  -31.1310   22.1260 N   0  0  0  0  0  0  0  0  0  0  0  0
  -23.4360  -32.2200   23.7660 O   0  0  0  0  0  0  0  0  0  0  0  0
  -22.6390  -29.5250   22.5550 C   0  0  0  0  0  0  0  0  0  0  0  0
  -21.3120  -29.3510   22.4320 N   0  0  0  0  0  0  0  0  0  0  0  0
  -23.3200  -28.8980   23.3710 O   0  0  0  0  0  0  0  0  0  0  0  0
  -20.8240  -29.9090   21.7460 H   0  0  0  0  0  0  0  0  0  0  0  0
  -17.9290  -28.1940   22.9550 C   0  0  0  0  0  0  0  0  0  0  0  0
  -20.4910  -28.4220   23.2080 C   0  0  0  0  0  3  0  0  0  0  0  0
  -20.5730  -26.9900   22.6290 C   0  0  0  0  0  2  0  0  0  0  0  0
  -19.4600  -26.6830   21.6220 C   0  0  0  0  0  2  0  0  0  0  0  0
  -18.0840  -26.8430   22.2770 C   0  0  0  0  0  2  0  0  0  0  0  0
  -19.0590  -28.9420   23.3780 C   0  0  0  0  0  0  0  0  0  0  0  0
  -18.8590  -30.2080   23.9720 C   0  0  0  0  0  3  0  0  0  0  0  0
  -17.5620  -30.7240   24.1470 C   0  0  0  0  0  3  0  0  0  0  0  0
  -16.4460  -29.9730   23.7410 C   0  0  0  0  0  3  0  0  0  0  0  0
  -16.6310  -28.7090   23.1510 C   0  0  0  0  0  3  0  0  0  0  0  0
  -25.8070  -32.5620   23.8380 C   0  0  0  0  0  3  0  0  0  0  0  0
  -26.3340  -31.7810   25.1040 C   0  0  1  0  0  0  0  0  0  0  0  0
  -25.2500  -31.5350   26.1780 C   0  0  0  0  0  1  0  0  0  0  0  0
  -26.9150  -30.4070   24.6950 C   0  0  0  0  0  1  0  0  0  0  0  0
  -27.4900  -32.5710   25.7620 C   0  0  0  0  0  1  0  0  0  0  0  0
  -25.5040  -33.9590   24.1780 N   0  0  0  0  0  0  0  0  0  0  0  0
  -25.8300  -35.0140   23.4190 C   0  0  0  0  0  0  0  0  0  0  0  0
  -26.4880  -34.9140   22.3800 O   0  0  0  0  0  0  0  0  0  0  0  0
  -24.9190  -34.1110   24.9870 H   0  0  0  0  0  0  0  0  0  0  0  0
  -24.0990  -36.8090   23.0930 C   0  0  0  0  0  1  0  0  0  0  0  0
  -25.3490  -36.4000   23.8890 C   0  0  0  0  0  3  0  0  0  0  0  0
  -27.4940  -37.2790   24.6970 C   0  0  0  0  0  1  0  0  0  0  0  0
  -26.3800  -37.4530   23.7680 N   0  0  0  0  0  0  0  0  0  0  0  0
  -25.9770  -38.3730   23.9250 H   0  0  0  0  0  0  0  0  0  0  0  0
  1  2  1  0
  2  7  1  0
  3  1  2  0
  4  2  1  0
  5  6  1  0
  7  5  2  0
  8  9  1  0
  9  6  2  0
  9 11  1  0
 10  8  2  0
 10  7  1  0
 12 10  1  0
 13 21  1  0
 14 19  1  0
 15 16  1  0
 15 14  1  0
 17 16  1  0
 17 26  1  0
 17 18  1  0
 19 13  1  0
 19 18  1  0
 20 13  2  0
 21 22  1  0
 21  8  1  0
 23 24  2  0
 24 43  1  0
 25 24  1  0
 25 28  1  0
 26 27  1  0
 26 23  1  0
 27 25  2  0
 28 29  1  0
 29 30  2  0
 31 34  1  0
 31 30  1  0
 32 31  2  0
 33 32  1  0
 33 28  2  0
 34 35  1  0
 35 36  1  0
 36 37  2  0
 38 37  1  0
 38 42  1  0
 39 38  2  0
 40 35  2  0
 40 39  1  0
 41 40  1  0
 43 44  1  0
 44 47  1  0
 44 46  1  0
 45 43  2  0
 48 23  1  0
 48 49  1  0
 50 48  1  0
 51  1  1  0
 51 52  2  0
 54 53  2  0
 54 51  1  0
 55 54  1  0
 56 55  1  0
 57 53  1  0
 58 69  2  0
 59 57  1  0
 59 64  1  0
 60 68  1  0
 60 70  1  0
 61 67  1  0
 61 63  1  0
 62 68  1  0
 63 62  1  0
 64 63  2  0
 65 66  1  0
 65 59  2  0
 66 61  2  0
 67 60  1  0
 68 58  1  0
 70 72  2  0
 71 70  1  0
 73 71  1  0
 74 83  2  0
 74 79  1  0
 75 71  1  0
 75 79  1  0
 76 75  1  0
 77 78  1  0
 77 76  1  0
 78 74  1  0
 79 80  2  0
 80 81  1  0
 82 81  2  0
 83 82  1  0
 84 58  1  0
 84 89  1  0
 84 85  1  0
 85 88  1  1
 85 86  1  0
 87 85  1  0
 89 92  1  0
 90 94  1  0
 90 89  1  0
 91 90  2  0
 94 93  1  0
 96 94  1  0
 96 97  1  0
 96 95  1  0
M  ISO  4  13 100  21 100  53 101  57 101
M  END
>  <TORSDO>  (66) 
F 20

>  <SCORE>  (66) 
-12.543

>  <name>  (66) 
66

>  <ligand_id>  (66) 
66

>  <original_smiles>  (66) 
[H]OC(C(=O)C(=O)N([H])c1c([H])c([H])c(F)c(N([H])C(=O)N2C([H])([H])C([H])([H])C([H])([H])C([H])(n3nc(-c4c([H])c([H])c(Oc5c([H])c([H])c(F)c([H])c5F)c([H])c4[H])c(C(=O)N([H])[H])c3N([H])[H])C2([H])[H])c1F)=C([H])Oc1c([H])c([H])c2c(c1[H])C([H])([H])N(C(=O)C([H])(N([H])C(=O)C([H])(N([H])C([H])([H])[H])C([H])([H])[H])C(C([H])([H])[H])(C([H])([H])[H])C([H])([H])[H])C([H])(C(=O)N([H])C1([H])c3c([H])c([H])c([H])c([H])c3C([H])([H])C([H])([H])C1([H])[H])C2([H])[H]

>  <smiles>  (66) 
[H]OC(C(=O)C(=O)N([H])c1c([H])c([H])c(F)c(N([H])C(=O)N2C([H])([H])C([H])([H])C([H])([H])C([H])(n3nc(-c4c([H])c([H])c(Oc5c([H])c([H])c(F)c([H])c5F)c([H])c4[H])c(C(=O)N([H])[H])c3N([H])[H])C2([H])[H])c1F)=C([H])Oc1c([H])c([H])c2c(c1[H])C([H])([H])N(C(=O)C([H])(N([H])C(=O)C([H])(N([H])C([H])([H])[H])C([H])([H])[H])C(C([H])([H])[H])(C([H])([H])[H])C([H])([H])[H])C([H])(C(=O)N([H])C1([H])c3c([H])c([H])c([H])c([H])c3C([H])([H])C([H])([H])C1([H])[H])C2([H])[H]

$$$$
67:0:0
     RDKit          3D

 94102  0  0  1  0  0  0  0  0999 V2000
  -28.9460  -22.4830   20.5450 C   0  0  0  0  0  3  0  0  0  0  0  0
  -29.0110  -21.2020   19.9840 C   0  0  0  0  0  0  0  0  0  0  0  0
  -30.4390  -20.0270   21.7400 C   0  0  0  0  0  3  0  0  0  0  0  0
  -30.9150  -17.6120   21.8170 C   0  0  0  0  0  3  0  0  0  0  0  0
  -29.6160  -19.9010   20.5970 C   0  0  0  0  0  0  0  0  0  0  0  0
  -30.1060  -17.3650   20.6870 C   0  0  0  0  0  0  0  0  0  0  0  0
  -31.0670  -18.9140   22.3370 C   0  0  0  0  0  0  0  0  0  0  0  0
  -29.4500  -18.5300   20.1040 C   0  0  0  0  0  0  0  0  0  0  0  0
  -31.8310  -19.1020   23.4400 F   0  0  0  0  0  0  0  0  0  0  0  0
  -28.6310  -18.3240   19.0430 F   0  0  0  0  0  0  0  0  0  0  0  0
  -30.6960  -14.8540   20.1370 C   0  0  0  0  0  0  0  0  0  0  0  0
  -30.5100  -12.5760   19.0940 C   0  0  0  0  0  2  0  0  0  0  0  0
  -29.5210  -12.6100   17.9070 C   0  0  0  0  0  2  0  0  0  0  0  0
  -28.0710  -12.4200   18.3970 C   0  0  0  0  0  2  0  0  0  0  0  0
  -27.7320  -13.3250   19.6110 C   0  0  0  0  0  3  0  0  0  0  0  0
  -28.8240  -13.2470   20.6960 C   0  0  0  0  0  2  0  0  0  0  0  0
  -30.0880  -13.6210   20.0520 N   0  0  0  0  0  0  0  0  0  0  0  0
  -31.8860  -14.9770   19.8280 O   0  0  0  0  0  0  0  0  0  0  0  0
  -29.8620  -15.9580   20.2730 N   0  0  0  0  0  0  0  0  0  0  0  0
  -28.8880  -15.7380   20.1510 H   0  0  0  0  0  0  0  0  0  0  0  0
  -25.3830  -13.9290   20.4430 C   0  0  0  0  0  0  0  0  0  0  0  0
  -24.3250  -13.1590   20.8420 C   0  0  0  0  0  0  0  0  0  0  0  0
  -24.7750  -11.8050   20.7740 C   0  0  0  0  0  0  0  0  0  0  0  0
  -26.4070  -13.0440   20.1490 N   0  0  0  0  0  0  0  0  0  0  0  0
  -26.0520  -11.7610   20.4150 N   0  0  0  0  0  0  0  0  0  0  0  0
  -24.0450  -10.5460   20.9720 C   0  0  0  0  0  0  0  0  0  0  0  0
  -24.4780   -9.5820   21.9100 C   0  0  0  0  0  3  0  0  0  0  0  0
  -23.7500   -8.3880   22.0950 C   0  0  0  0  0  3  0  0  0  0  0  0
  -22.5770   -8.1490   21.3410 C   0  0  0  0  0  0  0  0  0  0  0  0
  -22.1650   -9.0990   20.3900 C   0  0  0  0  0  3  0  0  0  0  0  0
  -22.8930  -10.2860   20.2030 C   0  0  0  0  0  3  0  0  0  0  0  0
  -21.8210   -7.0060   21.4340 O   0  0  0  0  0  0  0  0  0  0  0  0
  -21.7370   -6.2930   22.6020 C   0  0  0  0  0  0  0  0  0  0  0  0
  -21.2350   -6.8660   23.7900 C   0  0  0  0  0  3  0  0  0  0  0  0
  -21.1010   -6.0770   24.9510 C   0  0  0  0  0  3  0  0  0  0  0  0
  -21.4590   -4.7160   24.9230 C   0  0  0  0  0  0  0  0  0  0  0  0
  -21.9520   -4.1400   23.7380 C   0  0  0  0  0  3  0  0  0  0  0  0
  -22.0870   -4.9270   22.5810 C   0  0  0  0  0  0  0  0  0  0  0  0
  -22.5450   -4.3630   21.4360 F   0  0  0  0  0  0  0  0  0  0  0  0
  -21.3220   -3.9560   26.0340 F   0  0  0  0  0  0  0  0  0  0  0  0
  -22.9430  -13.6430   21.1730 C   0  0  0  0  0  0  0  0  0  0  0  0
  -22.2420  -12.9360   22.0530 N   0  0  0  0  0  0  0  0  0  0  0  0
  -22.4950  -14.6820   20.6900 O   0  0  0  0  0  0  0  0  0  0  0  0
  -22.6180  -12.0930   22.4610 H   0  0  0  0  0  0  0  0  0  0  0  0
  -21.3170  -13.2400   22.3200 H   0  0  0  0  0  0  0  0  0  0  0  0
  -25.5480  -15.3020   20.2780 N   0  0  0  0  0  0  0  0  0  0  0  0
  -24.7840  -15.9530   20.4190 H   0  0  0  0  0  0  0  0  0  0  0  0
  -26.3620  -15.7390   19.8650 H   0  0  0  0  0  0  0  0  0  0  0  0
  -28.4150  -23.8190   19.9500 C   0  0  0  0  0  0  0  0  0  0  0  0
  -28.0930  -23.9200   18.7620 O   0  0  0  0  0  0  0  0  0  0  0  0
  -28.2390  -25.1310   20.8480 C   0  0  0  0  0  2  0  0  0  0  0  0
  -28.3470  -26.4850   20.2120 O   0  0  0  0  0  0  0  0  0  0  0  0
  -24.5860  -31.9170   23.2110 C   0  0  0  0  0  0  0  0  0  0  0  0
  -27.2290  -27.3350   20.2130 C   0  0  0  0  0  0  0  0  0  0  0  0
  -23.3980  -30.5090   21.5660 C   0  0  0  0  0  3  0  0  0  0  0  0
  -24.8610  -28.9490   20.1650 C   0  0  0  0  0  0  0  0  0  0  0  0
  -25.9350  -30.8360   21.3940 C   0  0  0  0  0  2  0  0  0  0  0  0
  -26.0270  -29.4490   20.7620 C   0  0  0  0  0  0  0  0  0  0  0  0
  -27.2150  -28.6550   20.7700 C   0  0  0  0  0  3  0  0  0  0  0  0
  -26.0450  -26.8880   19.5920 C   0  0  0  0  0  3  0  0  0  0  0  0
  -24.8750  -27.6760   19.5690 C   0  0  0  0  0  3  0  0  0  0  0  0
  -23.6210  -29.8230   20.1930 C   0  0  0  0  0  2  0  0  0  0  0  0
  -24.6590  -31.1050   22.1150 N   0  0  0  0  0  0  0  0  0  0  0  0
  -23.4980  -32.1910   23.7390 O   0  0  0  0  0  0  0  0  0  0  0  0
  -22.7280  -29.4960   22.5290 C   0  0  0  0  0  0  0  0  0  0  0  0
  -21.4040  -29.3150   22.3940 N   0  0  0  0  0  0  0  0  0  0  0  0
  -23.4020  -28.8750   23.3560 O   0  0  0  0  0  0  0  0  0  0  0  0
  -20.9170  -29.8730   21.7050 H   0  0  0  0  0  0  0  0  0  0  0  0
  -18.0260  -28.1130   22.8710 C   0  0  0  0  0  0  0  0  0  0  0  0
  -20.5810  -28.3780   23.1620 C   0  0  0  0  0  3  0  0  0  0  0  0
  -20.6890  -26.9440   22.5940 C   0  0  0  0  0  2  0  0  0  0  0  0
  -19.5970  -26.6180   21.5710 C   0  0  0  0  0  2  0  0  0  0  0  0
  -18.2100  -26.7610   22.2020 C   0  0  0  0  0  2  0  0  0  0  0  0
  -19.1380  -28.8770   23.3090 C   0  0  0  0  0  0  0  0  0  0  0  0
  -18.9150  -30.1400   23.8980 C   0  0  0  0  0  3  0  0  0  0  0  0
  -17.6070  -30.6390   24.0540 C   0  0  0  0  0  3  0  0  0  0  0  0
  -16.5070  -29.8720   23.6370 C   0  0  0  0  0  3  0  0  0  0  0  0
  -16.7170  -28.6110   23.0490 C   0  0  0  0  0  3  0  0  0  0  0  0
  -25.8600  -32.5570   23.8440 C   0  0  0  0  0  3  0  0  0  0  0  0
  -26.3780  -31.7810   25.1180 C   0  0  1  0  0  0  0  0  0  0  0  0
  -25.2820  -31.5240   26.1790 C   0  0  0  0  0  1  0  0  0  0  0  0
  -26.9790  -30.4150   24.7150 C   0  0  0  0  0  1  0  0  0  0  0  0
  -27.5170  -32.5820   25.7910 C   0  0  0  0  0  1  0  0  0  0  0  0
  -25.5370  -33.9500   24.1870 N   0  0  0  0  0  0  0  0  0  0  0  0
  -25.8670  -35.0150   23.4440 C   0  0  0  0  0  0  0  0  0  0  0  0
  -26.5470  -34.9260   22.4180 O   0  0  0  0  0  0  0  0  0  0  0  0
  -24.9360  -34.0890   24.9850 H   0  0  0  0  0  0  0  0  0  0  0  0
  -24.1390  -36.8060   23.0890 C   0  0  0  0  0  1  0  0  0  0  0  0
  -25.3700  -36.3960   23.9130 C   0  0  0  0  0  3  0  0  0  0  0  0
  -27.4850  -37.2800   24.7890 C   0  0  0  0  0  1  0  0  0  0  0  0
  -26.4000  -37.4550   23.8290 N   0  0  0  0  0  0  0  0  0  0  0  0
  -25.9890  -38.3720   23.9810 H   0  0  0  0  0  0  0  0  0  0  0  0
  -28.5410  -20.9970   18.7430 O   0  0  0  0  0  0  0  0  0  0  0  0
  -28.6120  -20.0630   18.5640 H   0  0  0  0  0  0  0  0  0  0  0  0
  2  1  2  0
  2  5  1  0
  3  7  1  0
  4  7  2  0
  5  3  2  0
  6  4  1  0
  7  9  1  0
  8  5  1  0
  8  6  2  0
 10  8  1  0
 11 19  1  0
 12 17  1  0
 13 14  1  0
 13 12  1  0
 15 14  1  0
 15 24  1  0
 15 16  1  0
 17 11  1  0
 17 16  1  0
 18 11  2  0
 19  6  1  0
 20 19  1  0
 21 22  2  0
 22 41  1  0
 23 22  1  0
 23 26  1  0
 24 25  1  0
 24 21  1  0
 25 23  2  0
 26 27  1  0
 27 28  2  0
 29 32  1  0
 29 28  1  0
 30 29  2  0
 31 30  1  0
 31 26  2  0
 32 33  1  0
 33 34  1  0
 34 35  2  0
 36 35  1  0
 36 40  1  0
 37 36  2  0
 38 33  2  0
 38 37  1  0
 39 38  1  0
 41 42  1  0
 42 45  1  0
 42 44  1  0
 43 41  2  0
 46 47  1  0
 46 21  1  0
 48 46  1  0
 49  1  1  0
 49 51  1  0
 50 49  2  0
 52 54  1  0
 52 51  1  0
 53 64  2  0
 54 59  1  0
 55 63  1  0
 55 65  1  0
 56 62  1  0
 56 58  1  0
 57 63  1  0
 58 59  2  0
 58 57  1  0
 60 54  2  0
 61 60  1  0
 61 56  2  0
 62 55  1  0
 63 53  1  0
 65 67  2  0
 66 65  1  0
 68 66  1  0
 69 78  2  0
 69 74  1  0
 70 66  1  0
 70 74  1  0
 71 70  1  0
 72 73  1  0
 72 71  1  0
 73 69  1  0
 74 75  2  0
 75 76  1  0
 77 76  2  0
 78 77  1  0
 79 53  1  0
 79 84  1  0
 79 80  1  0
 80 83  1  1
 80 81  1  0
 82 80  1  0
 84 87  1  0
 85 89  1  0
 85 84  1  0
 86 85  2  0
 89 88  1  0
 91 89  1  0
 91 92  1  0
 91 90  1  0
 93  2  1  0
 94 93  1  0
M  ISO  4  11 100  19 100  51 101  52 101
M  END
>  <TORSDO>  (67) 
F 20

>  <SCORE>  (67) 
-14.223

>  <name>  (67) 
67

>  <ligand_id>  (67) 
67

>  <original_smiles>  (67) 
[H]OC(=C([H])C(=O)C([H])([H])Oc1c([H])c([H])c2c(c1[H])C([H])([H])N(C(=O)C([H])(N([H])C(=O)C([H])(N([H])C([H])([H])[H])C([H])([H])[H])C(C([H])([H])[H])(C([H])([H])[H])C([H])([H])[H])C([H])(C(=O)N([H])C1([H])c3c([H])c([H])c([H])c([H])c3C([H])([H])C([H])([H])C1([H])[H])C2([H])[H])c1c([H])c(F)c([H])c(N([H])C(=O)N2C([H])([H])C([H])([H])C([H])([H])C([H])(n3nc(-c4c([H])c([H])c(Oc5c([H])c([H])c(F)c([H])c5F)c([H])c4[H])c(C(=O)N([H])[H])c3N([H])[H])C2([H])[H])c1F

>  <smiles>  (67) 
[H]OC(=C([H])C(=O)C([H])([H])Oc1c([H])c([H])c2c(c1[H])C([H])([H])N(C(=O)C([H])(N([H])C(=O)C([H])(N([H])C([H])([H])[H])C([H])([H])[H])C(C([H])([H])[H])(C([H])([H])[H])C([H])([H])[H])C([H])(C(=O)N([H])C1([H])c3c([H])c([H])c([H])c([H])c3C([H])([H])C([H])([H])C1([H])[H])C2([H])[H])c1c([H])c(F)c([H])c(N([H])C(=O)N2C([H])([H])C([H])([H])C([H])([H])C([H])(n3nc(-c4c([H])c([H])c(Oc5c([H])c([H])c(F)c([H])c5F)c([H])c4[H])c(C(=O)N([H])[H])c3N([H])[H])C2([H])[H])c1F

$$$$
68:0:0
     RDKit          3D

 98106  0  0  1  0  0  0  0  0999 V2000
  -29.6570  -21.8090   21.1910 C   0  0  0  0  0  0  0  0  0  0  0  0
  -29.5620  -20.6140   20.5500 N   0  0  0  0  0  0  0  0  0  0  0  0
  -30.4030  -22.0330   22.1510 O   0  0  0  0  0  0  0  0  0  0  0  0
  -28.7790  -20.5500   19.9150 H   0  0  0  0  0  0  0  0  0  0  0  0
  -32.0150  -17.1360   21.0300 C   0  0  0  0  0  3  0  0  0  0  0  0
  -32.5840  -18.4170   21.0270 C   0  0  0  0  0  3  0  0  0  0  0  0
  -29.7990  -18.1150   20.6890 C   0  0  0  0  0  0  0  0  0  0  0  0
  -30.6300  -16.9520   20.8050 C   0  0  0  0  0  0  0  0  0  0  0  0
  -30.3740  -19.4330   20.7190 C   0  0  0  0  0  0  0  0  0  0  0  0
  -31.7830  -19.5530   20.8380 C   0  0  0  0  0  0  0  0  0  0  0  0
  -32.4050  -20.7520   20.7320 F   0  0  0  0  0  0  0  0  0  0  0  0
  -30.6950  -14.5500   20.1050 C   0  0  0  0  0  0  0  0  0  0  0  0
  -30.2890  -12.3940   18.9730 C   0  0  0  0  0  2  0  0  0  0  0  0
  -29.2940  -12.5970   17.8130 C   0  0  0  0  0  2  0  0  0  0  0  0
  -27.8470  -12.4530   18.3180 C   0  0  0  0  0  2  0  0  0  0  0  0
  -27.5730  -13.2950   19.5930 C   0  0  0  0  0  3  0  0  0  0  0  0
  -28.6840  -13.1050   20.6500 C   0  0  0  0  0  2  0  0  0  0  0  0
  -29.9770  -13.3950   20.0090 N   0  0  0  0  0  0  0  0  0  0  0  0
  -31.7870  -14.6720   19.5450 O   0  0  0  0  0  0  0  0  0  0  0  0
  -30.1020  -15.6090   20.7130 N   0  0  0  0  0  0  0  0  0  0  0  0
  -29.1510  -15.4640   21.0160 H   0  0  0  0  0  0  0  0  0  0  0  0
  -25.2250  -13.8920   20.4560 C   0  0  0  0  0  0  0  0  0  0  0  0
  -24.1730  -13.1160   20.8620 C   0  0  0  0  0  0  0  0  0  0  0  0
  -24.6200  -11.7620   20.7650 C   0  0  0  0  0  0  0  0  0  0  0  0
  -26.2470  -13.0110   20.1410 N   0  0  0  0  0  0  0  0  0  0  0  0
  -25.8910  -11.7230   20.3850 N   0  0  0  0  0  0  0  0  0  0  0  0
  -23.8930  -10.5000   20.9570 C   0  0  0  0  0  0  0  0  0  0  0  0
  -24.3300   -9.5290   21.8850 C   0  0  0  0  0  3  0  0  0  0  0  0
  -23.6050   -8.3330   22.0660 C   0  0  0  0  0  3  0  0  0  0  0  0
  -22.4270   -8.0970   21.3170 C   0  0  0  0  0  0  0  0  0  0  0  0
  -22.0080   -9.0560   20.3780 C   0  0  0  0  0  3  0  0  0  0  0  0
  -22.7350  -10.2440   20.1950 C   0  0  0  0  0  3  0  0  0  0  0  0
  -21.6710   -6.9530   21.4070 O   0  0  0  0  0  0  0  0  0  0  0  0
  -21.5880   -6.2350   22.5740 C   0  0  0  0  0  0  0  0  0  0  0  0
  -21.1110   -6.8110   23.7710 C   0  0  0  0  0  3  0  0  0  0  0  0
  -20.9780   -6.0180   24.9290 C   0  0  0  0  0  3  0  0  0  0  0  0
  -21.3100   -4.6510   24.8890 C   0  0  0  0  0  0  0  0  0  0  0  0
  -21.7800   -4.0750   23.6960 C   0  0  0  0  0  3  0  0  0  0  0  0
  -21.9160   -4.8630   22.5410 C   0  0  0  0  0  0  0  0  0  0  0  0
  -22.3490   -4.2990   21.3880 F   0  0  0  0  0  0  0  0  0  0  0  0
  -21.1740   -3.8880   25.9990 F   0  0  0  0  0  0  0  0  0  0  0  0
  -22.7980  -13.5950   21.2260 C   0  0  0  0  0  0  0  0  0  0  0  0
  -22.1080  -12.8710   22.1010 N   0  0  0  0  0  0  0  0  0  0  0  0
  -22.3440  -14.6440   20.7710 O   0  0  0  0  0  0  0  0  0  0  0  0
  -22.4870  -12.0210   22.4900 H   0  0  0  0  0  0  0  0  0  0  0  0
  -21.1870  -13.1730   22.3870 H   0  0  0  0  0  0  0  0  0  0  0  0
  -25.3920  -15.2640   20.3090 N   0  0  0  0  0  0  0  0  0  0  0  0
  -24.6340  -15.9180   20.4700 H   0  0  0  0  0  0  0  0  0  0  0  0
  -26.2140  -15.7010   19.9160 H   0  0  0  0  0  0  0  0  0  0  0  0
  -27.9090  -17.7250   19.0360 C   0  0  0  0  0  1  0  0  0  0  0  0
  -28.2930  -17.9410   20.5060 C   0  0  0  0  0  2  0  0  0  0  0  0
  -28.6050  -22.8710   20.7020 C   0  0  0  0  0  0  0  0  0  0  0  0
  -27.4400  -22.4950   20.5170 O   0  0  0  0  0  0  0  0  0  0  0  0
  -28.0590  -25.2800   20.4610 C   0  0  0  0  0  3  0  0  0  0  0  0
  -29.0040  -24.3100   20.4810 C   0  0  0  0  0  0  0  0  0  0  0  0
  -30.2970  -24.6120   20.2900 O   0  0  0  0  0  0  0  0  0  0  0  0
  -30.3420  -25.5520   20.1610 H   0  0  0  0  0  0  0  0  0  0  0  0
  -28.2750  -26.6330   20.2140 O   0  0  0  0  0  0  0  0  0  0  0  0
  -24.5580  -31.9490   23.2270 C   0  0  0  0  0  0  0  0  0  0  0  0
  -27.1510  -27.4460   20.1630 C   0  0  0  0  0  0  0  0  0  0  0  0
  -23.3370  -30.5440   21.6000 C   0  0  0  0  0  3  0  0  0  0  0  0
  -24.7760  -28.9990   20.1680 C   0  0  0  0  0  0  0  0  0  0  0  0
  -25.8680  -30.8810   21.3920 C   0  0  0  0  0  2  0  0  0  0  0  0
  -25.9430  -29.5050   20.7570 C   0  0  0  0  0  0  0  0  0  0  0  0
  -27.1330  -28.7340   20.7570 C   0  0  0  0  0  3  0  0  0  0  0  0
  -25.9740  -26.9870   19.5290 C   0  0  0  0  0  3  0  0  0  0  0  0
  -24.7890  -27.7410   19.5480 C   0  0  0  0  0  3  0  0  0  0  0  0
  -23.5370  -29.8630   20.2200 C   0  0  0  0  0  2  0  0  0  0  0  0
  -24.6070  -31.1400   22.1310 N   0  0  0  0  0  0  0  0  0  0  0  0
  -23.4800  -32.2290   23.7710 O   0  0  0  0  0  0  0  0  0  0  0  0
  -22.6870  -29.5280   22.5680 C   0  0  0  0  0  0  0  0  0  0  0  0
  -21.3640  -29.3400   22.4420 N   0  0  0  0  0  0  0  0  0  0  0  0
  -23.3710  -28.9130   23.3920 O   0  0  0  0  0  0  0  0  0  0  0  0
  -20.8720  -29.8870   21.7500 H   0  0  0  0  0  0  0  0  0  0  0  0
  -17.9900  -28.1480   22.9580 C   0  0  0  0  0  0  0  0  0  0  0  0
  -20.5480  -28.4070   23.2210 C   0  0  0  0  0  3  0  0  0  0  0  0
  -20.6490  -26.9730   22.6540 C   0  0  0  0  0  2  0  0  0  0  0  0
  -19.5440  -26.6440   21.6450 C   0  0  0  0  0  2  0  0  0  0  0  0
  -18.1640  -26.7940   22.2910 C   0  0  0  0  0  2  0  0  0  0  0  0
  -19.1100  -28.9120   23.3790 C   0  0  0  0  0  0  0  0  0  0  0  0
  -18.8940  -30.1810   23.9610 C   0  0  0  0  0  3  0  0  0  0  0  0
  -17.5900  -30.6840   24.1270 C   0  0  0  0  0  3  0  0  0  0  0  0
  -16.4840  -29.9160   23.7220 C   0  0  0  0  0  3  0  0  0  0  0  0
  -16.6850  -28.6500   23.1430 C   0  0  0  0  0  3  0  0  0  0  0  0
  -25.8500  -32.5780   23.8340 C   0  0  0  0  0  3  0  0  0  0  0  0
  -25.5450  -33.9770   24.1640 N   0  0  0  0  0  0  0  0  0  0  0  0
  -25.8790  -35.0280   23.4020 C   0  0  0  0  0  0  0  0  0  0  0  0
  -26.5450  -34.9210   22.3680 O   0  0  0  0  0  0  0  0  0  0  0  0
  -24.9560  -34.1350   24.9670 H   0  0  0  0  0  0  0  0  0  0  0  0
  -24.1600  -36.8270   23.0400 C   0  0  0  0  0  1  0  0  0  0  0  0
  -25.3960  -36.4170   23.8580 C   0  0  0  0  0  3  0  0  0  0  0  0
  -27.5290  -37.2920   24.7010 C   0  0  0  0  0  1  0  0  0  0  0  0
  -26.4330  -37.4670   23.7510 N   0  0  0  0  0  0  0  0  0  0  0  0
  -26.0310  -38.3880   23.8970 H   0  0  0  0  0  0  0  0  0  0  0  0
  -26.3780  -31.8080   25.1050 C   0  0  1  0  0  0  0  0  0  0  0  0
  -25.2930  -31.5570   26.1770 C   0  0  0  0  0  1  0  0  0  0  0  0
  -26.9730  -30.4370   24.7060 C   0  0  0  0  0  1  0  0  0  0  0  0
  -27.5250  -32.6110   25.7650 C   0  0  0  0  0  1  0  0  0  0  0  0
  1  3  2  0
  2  9  1  0
  2  1  1  0
  4  2  1  0
  6  5  1  0
  7  9  2  0
  7  8  1  0
  8  5  2  0
  9 10  1  0
 10  6  2  0
 11 10  1  0
 12 20  1  0
 13 18  1  0
 14 15  1  0
 14 13  1  0
 16 15  1  0
 16 25  1  0
 16 17  1  0
 18 12  1  0
 18 17  1  0
 19 12  2  0
 20  8  1  0
 20 21  1  0
 22 23  2  0
 23 42  1  0
 24 23  1  0
 24 27  1  0
 25 26  1  0
 25 22  1  0
 26 24  2  0
 27 28  1  0
 28 29  2  0
 30 33  1  0
 30 29  1  0
 31 30  2  0
 32 31  1  0
 32 27  2  0
 33 34  1  0
 34 35  1  0
 35 36  2  0
 37 36  1  0
 37 41  1  0
 38 37  2  0
 39 34  2  0
 39 38  1  0
 40 39  1  0
 42 43  1  0
 43 46  1  0
 43 45  1  0
 44 42  2  0
 47 22  1  0
 47 48  1  0
 49 47  1  0
 50 51  1  0
 51  7  1  0
 52  1  1  0
 53 52  2  0
 54 55  2  0
 55 52  1  0
 56 55  1  0
 57 56  1  0
 58 54  1  0
 59 70  2  0
 60 58  1  0
 60 65  1  0
 61 69  1  0
 61 71  1  0
 62 68  1  0
 62 64  1  0
 63 69  1  0
 64 63  1  0
 65 64  2  0
 66 67  1  0
 66 60  2  0
 67 62  2  0
 68 61  1  0
 69 59  1  0
 71 73  2  0
 72 71  1  0
 74 72  1  0
 75 84  2  0
 75 80  1  0
 76 72  1  0
 76 80  1  0
 77 76  1  0
 78 79  1  0
 78 77  1  0
 79 75  1  0
 80 81  2  0
 81 82  1  0
 83 82  2  0
 84 83  1  0
 85 59  1  0
 85 86  1  0
 85 95  1  0
 86 89  1  0
 87 91  1  0
 87 86  1  0
 88 87  2  0
 91 90  1  0
 93 91  1  0
 93 94  1  0
 93 92  1  0
 95 98  1  1
 95 96  1  0
 97 95  1  0
M  ISO  4  12 100  20 100  54 101  58 101
M  END
>  <TORSDO>  (68) 
F 21

>  <SCORE>  (68) 
-14.089

>  <name>  (68) 
68

>  <ligand_id>  (68) 
68

>  <original_smiles>  (68) 
[H]OC(C(=O)C(=O)N([H])c1c(F)c([H])c([H])c(N([H])C(=O)N2C([H])([H])C([H])([H])C([H])([H])C([H])(n3nc(-c4c([H])c([H])c(Oc5c([H])c([H])c(F)c([H])c5F)c([H])c4[H])c(C(=O)N([H])[H])c3N([H])[H])C2([H])[H])c1C([H])([H])C([H])([H])[H])=C([H])Oc1c([H])c([H])c2c(c1[H])C([H])([H])N(C(=O)C([H])(N([H])C(=O)C([H])(N([H])C([H])([H])[H])C([H])([H])[H])C(C([H])([H])[H])(C([H])([H])[H])C([H])([H])[H])C([H])(C(=O)N([H])C1([H])c3c([H])c([H])c([H])c([H])c3C([H])([H])C([H])([H])C1([H])[H])C2([H])[H]

>  <smiles>  (68) 
[H]OC(C(=O)C(=O)N([H])c1c(F)c([H])c([H])c(N([H])C(=O)N2C([H])([H])C([H])([H])C([H])([H])C([H])(n3nc(-c4c([H])c([H])c(Oc5c([H])c([H])c(F)c([H])c5F)c([H])c4[H])c(C(=O)N([H])[H])c3N([H])[H])C2([H])[H])c1C([H])([H])C([H])([H])[H])=C([H])Oc1c([H])c([H])c2c(c1[H])C([H])([H])N(C(=O)C([H])(N([H])C(=O)C([H])(N([H])C([H])([H])[H])C([H])([H])[H])C(C([H])([H])[H])(C([H])([H])[H])C([H])([H])[H])C([H])(C(=O)N([H])C1([H])c3c([H])c([H])c([H])c([H])c3C([H])([H])C([H])([H])C1([H])[H])C2([H])[H]

$$$$
69:0:0
     RDKit          3D

 94102  0  0  1  0  0  0  0  0999 V2000
  -28.7250  -18.7940   20.5290 C   0  0  0  0  0  3  0  0  0  0  0  0
  -31.1940  -17.5880   20.4340 C   0  0  0  0  0  3  0  0  0  0  0  0
  -30.0710  -16.7800   20.6980 C   0  0  0  0  0  0  0  0  0  0  0  0
  -28.8210  -17.4130   20.7550 C   0  0  0  0  0  0  0  0  0  0  0  0
  -29.8960  -19.5290   20.2640 C   0  0  0  0  0  0  0  0  0  0  0  0
  -29.8550  -21.9620   20.7230 C   0  0  0  0  0  0  0  0  0  0  0  0
  -31.1060  -18.9240   20.2180 N   0  0  0  0  0  0  0  0  0  0  0  0
  -29.7560  -20.8910   19.9230 N   0  0  0  0  0  0  0  0  0  0  0  0
  -29.8650  -21.9430   21.9610 O   0  0  0  0  0  0  0  0  0  0  0  0
  -27.7100  -16.6770   20.9960 F   0  0  0  0  0  0  0  0  0  0  0  0
  -29.7600  -21.1270   18.9420 H   0  0  0  0  0  0  0  0  0  0  0  0
  -30.7120  -14.4670   20.1100 C   0  0  0  0  0  0  0  0  0  0  0  0
  -30.2880  -12.3970   18.8340 C   0  0  0  0  0  2  0  0  0  0  0  0
  -29.2780  -12.7200   17.7130 C   0  0  0  0  0  2  0  0  0  0  0  0
  -27.8310  -12.5760   18.2300 C   0  0  0  0  0  2  0  0  0  0  0  0
  -27.5990  -13.3300   19.5670 C   0  0  0  0  0  3  0  0  0  0  0  0
  -28.7190  -12.9940   20.5800 C   0  0  0  0  0  2  0  0  0  0  0  0
  -30.0180  -13.3080   19.9540 N   0  0  0  0  0  0  0  0  0  0  0  0
  -31.7680  -14.7100   19.5210 O   0  0  0  0  0  0  0  0  0  0  0  0
  -30.1110  -15.3680   20.9020 N   0  0  0  0  0  0  0  0  0  0  0  0
  -29.2980  -14.9960   21.3700 H   0  0  0  0  0  0  0  0  0  0  0  0
  -25.2510  -13.9260   20.4470 C   0  0  0  0  0  0  0  0  0  0  0  0
  -24.2050  -13.1480   20.8580 C   0  0  0  0  0  0  0  0  0  0  0  0
  -24.6590  -11.7980   20.7660 C   0  0  0  0  0  0  0  0  0  0  0  0
  -26.2770  -13.0500   20.1240 N   0  0  0  0  0  0  0  0  0  0  0  0
  -25.9260  -11.7630   20.3740 N   0  0  0  0  0  0  0  0  0  0  0  0
  -23.9420  -10.5350   20.9730 C   0  0  0  0  0  0  0  0  0  0  0  0
  -24.4100   -9.5620   21.8840 C   0  0  0  0  0  3  0  0  0  0  0  0
  -23.6930   -8.3610   22.0800 C   0  0  0  0  0  3  0  0  0  0  0  0
  -22.4940   -8.1260   21.3660 C   0  0  0  0  0  0  0  0  0  0  0  0
  -22.0450   -9.0870   20.4430 C   0  0  0  0  0  3  0  0  0  0  0  0
  -22.7620  -10.2790   20.2460 C   0  0  0  0  0  3  0  0  0  0  0  0
  -21.7450   -6.9790   21.4720 O   0  0  0  0  0  0  0  0  0  0  0  0
  -21.7130   -6.2470   22.6310 C   0  0  0  0  0  0  0  0  0  0  0  0
  -21.2670   -6.8020   23.8510 C   0  0  0  0  0  3  0  0  0  0  0  0
  -21.1850   -5.9930   25.0030 C   0  0  0  0  0  3  0  0  0  0  0  0
  -21.5340   -4.6300   24.9330 C   0  0  0  0  0  0  0  0  0  0  0  0
  -21.9710   -4.0760   23.7170 C   0  0  0  0  0  3  0  0  0  0  0  0
  -22.0570   -4.8820   22.5690 C   0  0  0  0  0  0  0  0  0  0  0  0
  -22.4600   -4.3390   21.3960 F   0  0  0  0  0  0  0  0  0  0  0  0
  -21.4460   -3.8510   26.0370 F   0  0  0  0  0  0  0  0  0  0  0  0
  -22.8330  -13.6240   21.2380 C   0  0  0  0  0  0  0  0  0  0  0  0
  -22.1600  -12.9060   22.1320 N   0  0  0  0  0  0  0  0  0  0  0  0
  -22.3660  -14.6650   20.7770 O   0  0  0  0  0  0  0  0  0  0  0  0
  -22.5530  -12.0630   22.5240 H   0  0  0  0  0  0  0  0  0  0  0  0
  -21.2400  -13.2030   22.4260 H   0  0  0  0  0  0  0  0  0  0  0  0
  -25.4080  -15.3010   20.3110 N   0  0  0  0  0  0  0  0  0  0  0  0
  -24.6820  -15.9390   20.6150 H   0  0  0  0  0  0  0  0  0  0  0  0
  -26.3110  -15.7530   20.2210 H   0  0  0  0  0  0  0  0  0  0  0  0
  -29.9140  -23.2630   19.8720 C   0  0  0  0  0  0  0  0  0  0  0  0
  -30.1730  -23.2210   18.6620 O   0  0  0  0  0  0  0  0  0  0  0  0
  -29.6680  -24.6160   20.5570 C   0  0  0  0  0  2  0  0  0  0  0  0
  -28.4500  -25.3680   19.9840 C   0  0  0  0  0  2  0  0  0  0  0  0
  -28.4580  -26.7400   20.4080 O   0  0  0  0  0  0  0  0  0  0  0  0
  -24.6040  -31.9670   23.3160 C   0  0  0  0  0  0  0  0  0  0  0  0
  -27.2750  -27.4570   20.3480 C   0  0  0  0  0  0  0  0  0  0  0  0
  -23.4210  -30.5530   21.6670 C   0  0  0  0  0  3  0  0  0  0  0  0
  -24.8910  -28.9880   20.2930 C   0  0  0  0  0  0  0  0  0  0  0  0
  -25.9560  -30.8890   21.5220 C   0  0  0  0  0  2  0  0  0  0  0  0
  -26.0420  -29.5100   20.8960 C   0  0  0  0  0  0  0  0  0  0  0  0
  -27.2320  -28.7490   20.9230 C   0  0  0  0  0  3  0  0  0  0  0  0
  -26.0980  -26.9500   19.7470 C   0  0  0  0  0  3  0  0  0  0  0  0
  -24.9120  -27.7060   19.7220 C   0  0  0  0  0  3  0  0  0  0  0  0
  -23.6520  -29.8540   20.3010 C   0  0  0  0  0  2  0  0  0  0  0  0
  -24.6770  -31.1540   22.2250 N   0  0  0  0  0  0  0  0  0  0  0  0
  -23.5130  -32.2540   23.8280 O   0  0  0  0  0  0  0  0  0  0  0  0
  -22.7460  -29.5480   22.6270 C   0  0  0  0  0  0  0  0  0  0  0  0
  -21.4240  -29.3740   22.4730 N   0  0  0  0  0  0  0  0  0  0  0  0
  -23.4090  -28.9230   23.4590 O   0  0  0  0  0  0  0  0  0  0  0  0
  -20.9510  -29.9250   21.7700 H   0  0  0  0  0  0  0  0  0  0  0  0
  -18.0240  -28.2470   22.9370 C   0  0  0  0  0  0  0  0  0  0  0  0
  -20.5820  -28.4560   23.2390 C   0  0  0  0  0  3  0  0  0  0  0  0
  -20.6630  -27.0220   22.6680 C   0  0  0  0  0  2  0  0  0  0  0  0
  -19.5670  -26.7190   21.6410 C   0  0  0  0  0  2  0  0  0  0  0  0
  -18.1810  -26.8940   22.2680 C   0  0  0  0  0  2  0  0  0  0  0  0
  -19.1510  -28.9900   23.3780 C   0  0  0  0  0  0  0  0  0  0  0  0
  -18.9500  -30.2600   23.9610 C   0  0  0  0  0  3  0  0  0  0  0  0
  -17.6540  -30.7870   24.1090 C   0  0  0  0  0  3  0  0  0  0  0  0
  -16.5410  -30.0420   23.6830 C   0  0  0  0  0  3  0  0  0  0  0  0
  -16.7250  -28.7740   23.1040 C   0  0  0  0  0  3  0  0  0  0  0  0
  -25.8820  -32.5930   23.9590 C   0  0  0  0  0  3  0  0  0  0  0  0
  -26.3790  -31.8200   25.2400 C   0  0  1  0  0  0  0  0  0  0  0  0
  -25.2670  -31.5750   26.2860 C   0  0  0  0  0  1  0  0  0  0  0  0
  -26.9720  -30.4450   24.8550 C   0  0  0  0  0  1  0  0  0  0  0  0
  -27.5160  -32.6160   25.9240 C   0  0  0  0  0  1  0  0  0  0  0  0
  -25.5720  -33.9910   24.2810 N   0  0  0  0  0  0  0  0  0  0  0  0
  -25.9160  -35.0410   23.5230 C   0  0  0  0  0  0  0  0  0  0  0  0
  -26.5990  -34.9340   22.5000 O   0  0  0  0  0  0  0  0  0  0  0  0
  -24.9650  -34.1490   25.0730 H   0  0  0  0  0  0  0  0  0  0  0  0
  -24.1960  -36.8320   23.1380 C   0  0  0  0  0  1  0  0  0  0  0  0
  -25.4220  -36.4290   23.9720 C   0  0  0  0  0  3  0  0  0  0  0  0
  -27.5400  -37.3130   24.8450 C   0  0  0  0  0  1  0  0  0  0  0  0
  -26.4580  -37.4810   23.8770 N   0  0  0  0  0  0  0  0  0  0  0  0
  -26.0500  -38.4010   24.0150 H   0  0  0  0  0  0  0  0  0  0  0  0
  1  4  1  0
  2  3  1  0
  3  4  2  0
  3 20  1  0
  4 10  1  0
  5  1  2  0
  6  9  2  0
  7  5  1  0
  7  2  2  0
  8  5  1  0
  8  6  1  0
 11  8  1  0
 12 20  1  0
 13 18  1  0
 14 15  1  0
 14 13  1  0
 16 15  1  0
 16 25  1  0
 16 17  1  0
 18 12  1  0
 18 17  1  0
 19 12  2  0
 20 21  1  0
 22 23  2  0
 23 42  1  0
 24 23  1  0
 24 27  1  0
 25 26  1  0
 25 22  1  0
 26 24  2  0
 27 28  1  0
 28 29  2  0
 30 33  1  0
 30 29  1  0
 31 30  2  0
 32 31  1  0
 32 27  2  0
 33 34  1  0
 34 35  1  0
 35 36  2  0
 37 36  1  0
 37 41  1  0
 38 37  2  0
 39 34  2  0
 39 38  1  0
 40 39  1  0
 42 43  1  0
 43 46  1  0
 43 45  1  0
 44 42  2  0
 47 22  1  0
 47 48  1  0
 49 47  1  0
 50 52  1  0
 50  6  1  0
 51 50  2  0
 53 54  1  0
 53 52  1  0
 55 66  2  0
 56 54  1  0
 56 61  1  0
 57 65  1  0
 57 67  1  0
 58 64  1  0
 58 60  1  0
 59 65  1  0
 60 61  2  0
 60 59  1  0
 62 56  2  0
 63 62  1  0
 63 58  2  0
 64 57  1  0
 65 55  1  0
 67 69  2  0
 68 67  1  0
 70 68  1  0
 71 80  2  0
 71 76  1  0
 72 68  1  0
 72 76  1  0
 73 72  1  0
 74 75  1  0
 74 73  1  0
 75 71  1  0
 76 77  2  0
 77 78  1  0
 79 78  2  0
 80 79  1  0
 81 55  1  0
 81 86  1  0
 81 82  1  0
 82 85  1  1
 82 83  1  0
 84 82  1  0
 86 89  1  0
 87 91  1  0
 87 86  1  0
 88 87  2  0
 91 90  1  0
 93 91  1  0
 93 94  1  0
 93 92  1  0
M  ISO  4  12 100  20 100  53 101  54 101
M  END
>  <TORSDO>  (69) 
F 19

>  <SCORE>  (69) 
-14.130

>  <name>  (69) 
69

>  <ligand_id>  (69) 
69

>  <original_smiles>  (69) 
[H]c1nc(N([H])C(=O)C(=O)C([H])([H])C([H])([H])Oc2c([H])c([H])c3c(c2[H])C([H])([H])N(C(=O)C([H])(N([H])C(=O)C([H])(N([H])C([H])([H])[H])C([H])([H])[H])C(C([H])([H])[H])(C([H])([H])[H])C([H])([H])[H])C([H])(C(=O)N([H])C2([H])c4c([H])c([H])c([H])c([H])c4C([H])([H])C([H])([H])C2([H])[H])C3([H])[H])c([H])c(F)c1N([H])C(=O)N1C([H])([H])C([H])([H])C([H])([H])C([H])(n2nc(-c3c([H])c([H])c(Oc4c([H])c([H])c(F)c([H])c4F)c([H])c3[H])c(C(=O)N([H])[H])c2N([H])[H])C1([H])[H]

>  <smiles>  (69) 
[H]c1nc(N([H])C(=O)C(=O)C([H])([H])C([H])([H])Oc2c([H])c([H])c3c(c2[H])C([H])([H])N(C(=O)C([H])(N([H])C(=O)C([H])(N([H])C([H])([H])[H])C([H])([H])[H])C(C([H])([H])[H])(C([H])([H])[H])C([H])([H])[H])C([H])(C(=O)N([H])C2([H])c4c([H])c([H])c([H])c([H])c4C([H])([H])C([H])([H])C2([H])[H])C3([H])[H])c([H])c(F)c1N([H])C(=O)N1C([H])([H])C([H])([H])C([H])([H])C([H])(n2nc(-c3c([H])c([H])c(Oc4c([H])c([H])c(F)c([H])c4F)c([H])c3[H])c(C(=O)N([H])[H])c2N([H])[H])C1([H])[H]

$$$$
70:0:0
     RDKit          3D

 98106  0  0  1  0  0  0  0  0999 V2000
  -28.3320  -17.6830   20.3110 C   0  0  0  0  0  3  0  0  0  0  0  0
  -27.2950  -18.6300   20.3710 C   0  0  0  0  0  3  0  0  0  0  0  0
  -29.6560  -18.0670   19.9930 C   0  0  0  0  0  0  0  0  0  0  0  0
  -28.8590  -20.4170   19.7940 C   0  0  0  0  0  0  0  0  0  0  0  0
  -27.5460  -19.9880   20.1050 C   0  0  0  0  0  0  0  0  0  0  0  0
  -29.8960  -19.4490   19.7180 C   0  0  0  0  0  0  0  0  0  0  0  0
  -26.5040  -20.8540   20.1020 F   0  0  0  0  0  0  0  0  0  0  0  0
  -31.1260  -19.8810   19.3580 F   0  0  0  0  0  0  0  0  0  0  0  0
  -28.7780  -22.8810   20.1550 C   0  0  0  0  0  0  0  0  0  0  0  0
  -29.1490  -21.7830   19.4650 N   0  0  0  0  0  0  0  0  0  0  0  0
  -28.2650  -22.8070   21.2730 O   0  0  0  0  0  0  0  0  0  0  0  0
  -29.7430  -21.9280   18.6600 H   0  0  0  0  0  0  0  0  0  0  0  0
  -29.0510  -24.2680   19.5140 C   0  0  0  0  0  2  0  0  0  0  0  0
  -29.0930  -25.8240   21.5980 C   0  0  0  0  0  1  0  0  0  0  0  0
  -28.4210  -25.4900   20.2530 C   0  0  0  0  0  3  0  0  0  0  0  0
  -28.4700  -26.6960   19.4570 O   0  0  0  0  0  0  0  0  0  0  0  0
  -24.6140  -31.5520   22.9700 C   0  0  0  0  0  0  0  0  0  0  0  0
  -27.3100  -27.4390   19.5090 C   0  0  0  0  0  0  0  0  0  0  0  0
  -23.4100  -30.2290   21.2640 C   0  0  0  0  0  3  0  0  0  0  0  0
  -24.8730  -28.8590   19.6860 C   0  0  0  0  0  0  0  0  0  0  0  0
  -25.9160  -30.6950   21.0240 C   0  0  0  0  0  2  0  0  0  0  0  0
  -26.0310  -29.3800   20.2780 C   0  0  0  0  0  0  0  0  0  0  0  0
  -27.2560  -28.6800   20.1850 C   0  0  0  0  0  3  0  0  0  0  0  0
  -26.1400  -26.9410   18.8990 C   0  0  0  0  0  3  0  0  0  0  0  0
  -24.9220  -27.6390   18.9890 C   0  0  0  0  0  3  0  0  0  0  0  0
  -23.6020  -29.6630   19.8310 C   0  0  0  0  0  2  0  0  0  0  0  0
  -24.6670  -30.8360   21.8110 N   0  0  0  0  0  0  0  0  0  0  0  0
  -23.5410  -31.7430   23.5580 O   0  0  0  0  0  0  0  0  0  0  0  0
  -22.8250  -29.1170   22.1640 C   0  0  0  0  0  0  0  0  0  0  0  0
  -21.5010  -28.9100   22.0750 N   0  0  0  0  0  0  0  0  0  0  0  0
  -23.5560  -28.4460   22.8970 O   0  0  0  0  0  0  0  0  0  0  0  0
  -20.9690  -29.5050   21.4560 H   0  0  0  0  0  0  0  0  0  0  0  0
  -18.1760  -27.6050   22.6200 C   0  0  0  0  0  0  0  0  0  0  0  0
  -20.7390  -27.8930   22.7990 C   0  0  0  0  0  3  0  0  0  0  0  0
  -20.8410  -26.5180   22.1000 C   0  0  0  0  0  2  0  0  0  0  0  0
  -19.6990  -26.2590   21.1120 C   0  0  0  0  0  2  0  0  0  0  0  0
  -18.3460  -26.3210   21.8270 C   0  0  0  0  0  2  0  0  0  0  0  0
  -19.2990  -28.3520   23.0630 C   0  0  0  0  0  0  0  0  0  0  0  0
  -19.0870  -29.5590   23.7640 C   0  0  0  0  0  3  0  0  0  0  0  0
  -17.7820  -30.0150   24.0310 C   0  0  0  0  0  3  0  0  0  0  0  0
  -16.6740  -29.2630   23.6040 C   0  0  0  0  0  3  0  0  0  0  0  0
  -16.8710  -28.0610   22.9030 C   0  0  0  0  0  3  0  0  0  0  0  0
  -25.8950  -32.1840   23.5990 C   0  0  0  0  0  3  0  0  0  0  0  0
  -25.5510  -33.5450   24.0300 N   0  0  0  0  0  0  0  0  0  0  0  0
  -25.8290  -34.6560   23.3340 C   0  0  0  0  0  0  0  0  0  0  0  0
  -26.4750  -34.6430   22.2830 O   0  0  0  0  0  0  0  0  0  0  0  0
  -24.9720  -33.6280   24.8530 H   0  0  0  0  0  0  0  0  0  0  0  0
  -24.0230  -36.3960   23.1540 C   0  0  0  0  0  1  0  0  0  0  0  0
  -25.3080  -35.9930   23.8940 C   0  0  0  0  0  3  0  0  0  0  0  0
  -27.4360  -36.9130   24.7050 C   0  0  0  0  0  1  0  0  0  0  0  0
  -26.2960  -37.0920   23.8090 N   0  0  0  0  0  0  0  0  0  0  0  0
  -25.8600  -37.9850   24.0240 H   0  0  0  0  0  0  0  0  0  0  0  0
  -26.4740  -31.3450   24.8050 C   0  0  1  0  0  0  0  0  0  0  0  0
  -25.4240  -31.0090   25.8880 C   0  0  0  0  0  1  0  0  0  0  0  0
  -27.0790  -30.0140   24.3020 C   0  0  0  0  0  1  0  0  0  0  0  0
  -27.6260  -32.1260   25.4800 C   0  0  0  0  0  1  0  0  0  0  0  0
  -30.7840  -16.9980   19.8900 C   0  0  0  0  0  3  0  0  0  0  0  0
  -30.9920  -14.5350   19.7620 C   0  0  0  0  0  0  0  0  0  0  0  0
  -30.5910  -12.3220   18.7240 C   0  0  0  0  0  2  0  0  0  0  0  0
  -29.5490  -12.4380   17.5930 C   0  0  0  0  0  2  0  0  0  0  0  0
  -28.1190  -12.2920   18.1470 C   0  0  0  0  0  2  0  0  0  0  0  0
  -27.8730  -13.1780   19.3950 C   0  0  0  0  0  3  0  0  0  0  0  0
  -29.0240  -13.0200   20.4130 C   0  0  0  0  0  2  0  0  0  0  0  0
  -30.2890  -13.3570   19.7360 N   0  0  0  0  0  0  0  0  0  0  0  0
  -31.9930  -14.6700   19.0500 O   0  0  0  0  0  0  0  0  0  0  0  0
  -30.1930  -15.6030   21.8520 C   0  0  0  0  0  1  0  0  0  0  0  0
  -30.4670  -15.6230   20.4040 N   0  0  0  0  0  0  0  0  0  0  0  0
  -25.5820  -13.7800   20.3980 C   0  0  0  0  0  0  0  0  0  0  0  0
  -24.5440  -13.0050   20.8430 C   0  0  0  0  0  0  0  0  0  0  0  0
  -24.9650  -11.6500   20.6770 C   0  0  0  0  0  0  0  0  0  0  0  0
  -26.5730  -12.8970   20.0010 N   0  0  0  0  0  0  0  0  0  0  0  0
  -26.2120  -11.6080   20.2240 N   0  0  0  0  0  0  0  0  0  0  0  0
  -24.2330  -10.3910   20.8710 C   0  0  0  0  0  0  0  0  0  0  0  0
  -24.6700   -9.4190   21.7970 C   0  0  0  0  0  3  0  0  0  0  0  0
  -23.9390   -8.2260   21.9810 C   0  0  0  0  0  3  0  0  0  0  0  0
  -22.7550   -7.9980   21.2390 C   0  0  0  0  0  0  0  0  0  0  0  0
  -22.3360   -8.9580   20.3020 C   0  0  0  0  0  3  0  0  0  0  0  0
  -23.0680  -10.1430   20.1170 C   0  0  0  0  0  3  0  0  0  0  0  0
  -21.9950   -6.8570   21.3340 O   0  0  0  0  0  0  0  0  0  0  0  0
  -21.8650   -6.1740   22.5160 C   0  0  0  0  0  0  0  0  0  0  0  0
  -21.3260   -6.7790   23.6730 C   0  0  0  0  0  3  0  0  0  0  0  0
  -21.1440   -6.0200   24.8460 C   0  0  0  0  0  3  0  0  0  0  0  0
  -21.4930   -4.6550   24.8610 C   0  0  0  0  0  0  0  0  0  0  0  0
  -22.0260   -4.0500   23.7110 C   0  0  0  0  0  3  0  0  0  0  0  0
  -22.2070   -4.8060   22.5400 C   0  0  0  0  0  0  0  0  0  0  0  0
  -22.7010   -4.2120   21.4270 F   0  0  0  0  0  0  0  0  0  0  0  0
  -21.3140   -3.9250   25.9870 F   0  0  0  0  0  0  0  0  0  0  0  0
  -23.1990  -13.4890   21.3000 C   0  0  0  0  0  0  0  0  0  0  0  0
  -22.5620  -12.7620   22.2130 N   0  0  0  0  0  0  0  0  0  0  0  0
  -22.7250  -14.5450   20.8820 O   0  0  0  0  0  0  0  0  0  0  0  0
  -22.9590  -11.9070   22.5740 H   0  0  0  0  0  0  0  0  0  0  0  0
  -21.6650  -13.0690   22.5620 H   0  0  0  0  0  0  0  0  0  0  0  0
  -25.7520  -15.1560   20.2770 N   0  0  0  0  0  0  0  0  0  0  0  0
  -24.9990  -15.8000   20.4890 H   0  0  0  0  0  0  0  0  0  0  0  0
  -26.5300  -15.5960   19.8070 H   0  0  0  0  0  0  0  0  0  0  0  0
  -32.1600  -17.4960   20.4320 C   0  0  0  0  0  3  0  0  0  0  0  0
  -32.8690  -18.0790   19.4670 F   0  0  0  0  0  0  0  0  0  0  0  0
  -32.9200  -16.5200   20.9350 F   0  0  0  0  0  0  0  0  0  0  0  0
  1  2  1  0
  3  1  2  0
  4  5  1  0
  5  2  2  0
  6  4  2  0
  6  3  1  0
  7  5  1  0
  8  6  1  0
  9 11  2  0
 10  4  1  0
 10  9  1  0
 12 10  1  0
 13  9  1  0
 13 15  1  0
 15 14  1  0
 16 18  1  0
 16 15  1  0
 17 28  2  0
 18 23  1  0
 19 27  1  0
 19 29  1  0
 20 26  1  0
 20 22  1  0
 21 27  1  0
 22 21  1  0
 23 22  2  0
 24 25  1  0
 24 18  2  0
 25 20  2  0
 26 19  1  0
 27 17  1  0
 29 31  2  0
 30 29  1  0
 32 30  1  0
 33 42  2  0
 33 38  1  0
 34 30  1  0
 34 38  1  0
 35 34  1  0
 36 37  1  0
 36 35  1  0
 37 33  1  0
 38 39  2  0
 39 40  1  0
 41 40  2  0
 42 41  1  0
 43 17  1  0
 43 44  1  0
 43 53  1  0
 44 47  1  0
 45 49  1  0
 45 44  1  0
 46 45  2  0
 49 48  1  0
 51 49  1  0
 51 52  1  0
 51 50  1  0
 53 56  1  1
 53 54  1  0
 55 53  1  0
 57  3  1  0
 57 67  1  0
 57 96  1  0
 58 67  1  0
 59 64  1  0
 60 61  1  0
 60 59  1  0
 62 61  1  0
 62 71  1  0
 62 63  1  0
 64 58  1  0
 64 63  1  0
 65 58  2  0
 67 66  1  0
 68 69  2  0
 69 88  1  0
 70 69  1  0
 70 73  1  0
 71 72  1  0
 71 68  1  0
 72 70  2  0
 73 74  1  0
 74 75  2  0
 76 79  1  0
 76 75  1  0
 77 76  2  0
 78 77  1  0
 78 73  2  0
 79 80  1  0
 80 85  2  0
 80 81  1  0
 81 82  2  0
 82 83  1  0
 83 87  1  0
 84 83  2  0
 85 84  1  0
 86 85  1  0
 88 89  1  0
 89 92  1  0
 89 91  1  0
 90 88  2  0
 93 68  1  0
 93 94  1  0
 95 93  1  0
 96 98  1  0
 97 96  1  0
M  ISO  4  15 101  16 101  58 100  67 100
M  END
>  <TORSDO>  (70) 
F 21

>  <SCORE>  (70) 
-11.152

>  <name>  (70) 
70

>  <ligand_id>  (70) 
70

>  <original_smiles>  (70) 
[H]c1c([H])c([H])c2c(c1[H])C([H])([H])C([H])([H])C([H])([H])C2([H])N([H])C(=O)C1([H])N(C(=O)C([H])(N([H])C(=O)C([H])(N([H])C([H])([H])[H])C([H])([H])[H])C(C([H])([H])[H])(C([H])([H])[H])C([H])([H])[H])C([H])([H])c2c([H])c(OC([H])(C([H])([H])[H])C([H])([H])C(=O)N([H])c3c(F)c([H])c([H])c(C([H])(N(C(=O)N4C([H])([H])C([H])([H])C([H])([H])C([H])(n5nc(-c6c([H])c([H])c(Oc7c([H])c([H])c(F)c([H])c7F)c([H])c6[H])c(C(=O)N([H])[H])c5N([H])[H])C4([H])[H])C([H])([H])[H])C([H])(F)F)c3F)c([H])c([H])c2C1([H])[H]

>  <smiles>  (70) 
[H]c1c([H])c([H])c2c(c1[H])C([H])([H])C([H])([H])C([H])([H])C2([H])N([H])C(=O)C1([H])N(C(=O)C([H])(N([H])C(=O)C([H])(N([H])C([H])([H])[H])C([H])([H])[H])C(C([H])([H])[H])(C([H])([H])[H])C([H])([H])[H])C([H])([H])c2c([H])c(OC([H])(C([H])([H])[H])C([H])([H])C(=O)N([H])c3c(F)c([H])c([H])c(C([H])(N(C(=O)N4C([H])([H])C([H])([H])C([H])([H])C([H])(n5nc(-c6c([H])c([H])c(Oc7c([H])c([H])c(F)c([H])c7F)c([H])c6[H])c(C(=O)N([H])[H])c5N([H])[H])C4([H])[H])C([H])([H])[H])C([H])(F)F)c3F)c([H])c([H])c2C1([H])[H]

$$$$
71:0:0
     RDKit          3D

 98106  0  0  1  0  0  0  0  0999 V2000
  -29.4370  -20.7880   18.9160 C   0  0  0  0  0  3  0  0  0  0  0  0
  -29.2160  -23.1240   19.7520 C   0  0  0  0  0  0  0  0  0  0  0  0
  -28.9380  -22.1660   18.8590 N   0  0  0  0  0  0  0  0  0  0  0  0
  -29.9240  -22.9510   20.7490 O   0  0  0  0  0  0  0  0  0  0  0  0
  -28.3480  -22.4270   18.0820 H   0  0  0  0  0  0  0  0  0  0  0  0
  -28.5800  -24.4860   19.3900 C   0  0  0  0  0  0  0  0  0  0  0  0
  -28.2680  -24.7820   18.2270 O   0  0  0  0  0  0  0  0  0  0  0  0
  -28.3420  -25.4430   20.5650 C   0  0  0  0  0  2  0  0  0  0  0  0
  -28.4110  -26.8080   20.1470 O   0  0  0  0  0  0  0  0  0  0  0  0
  -24.5540  -31.9010   23.2320 C   0  0  0  0  0  0  0  0  0  0  0  0
  -27.2220  -27.4920   20.1590 C   0  0  0  0  0  0  0  0  0  0  0  0
  -23.3590  -30.5030   21.5770 C   0  0  0  0  0  3  0  0  0  0  0  0
  -24.8210  -28.9680   20.1650 C   0  0  0  0  0  0  0  0  0  0  0  0
  -25.8830  -30.8690   21.3960 C   0  0  0  0  0  2  0  0  0  0  0  0
  -25.9730  -29.5020   20.7570 C   0  0  0  0  0  0  0  0  0  0  0  0
  -27.1790  -28.7710   20.7470 C   0  0  0  0  0  3  0  0  0  0  0  0
  -26.0540  -26.9580   19.5710 C   0  0  0  0  0  3  0  0  0  0  0  0
  -24.8540  -27.6930   19.5720 C   0  0  0  0  0  3  0  0  0  0  0  0
  -23.5770  -29.8250   20.1980 C   0  0  0  0  0  2  0  0  0  0  0  0
  -24.6160  -31.1040   22.1280 N   0  0  0  0  0  0  0  0  0  0  0  0
  -23.4690  -32.1740   23.7640 O   0  0  0  0  0  0  0  0  0  0  0  0
  -22.7000  -29.4800   22.5290 C   0  0  0  0  0  0  0  0  0  0  0  0
  -21.3750  -29.3050   22.3940 N   0  0  0  0  0  0  0  0  0  0  0  0
  -23.3780  -28.8460   23.3430 O   0  0  0  0  0  0  0  0  0  0  0  0
  -20.8930  -29.8710   21.7080 H   0  0  0  0  0  0  0  0  0  0  0  0
  -17.9900  -28.1420   22.8680 C   0  0  0  0  0  0  0  0  0  0  0  0
  -20.5490  -28.3690   23.1530 C   0  0  0  0  0  3  0  0  0  0  0  0
  -20.6390  -26.9430   22.5640 C   0  0  0  0  0  2  0  0  0  0  0  0
  -19.5380  -26.6400   21.5430 C   0  0  0  0  0  2  0  0  0  0  0  0
  -18.1550  -26.7950   22.1840 C   0  0  0  0  0  2  0  0  0  0  0  0
  -19.1150  -28.8880   23.3090 C   0  0  0  0  0  0  0  0  0  0  0  0
  -18.9100  -30.1500   23.9080 C   0  0  0  0  0  3  0  0  0  0  0  0
  -17.6100  -30.6660   24.0710 C   0  0  0  0  0  3  0  0  0  0  0  0
  -16.4990  -29.9150   23.6480 C   0  0  0  0  0  3  0  0  0  0  0  0
  -16.6890  -28.6550   23.0530 C   0  0  0  0  0  3  0  0  0  0  0  0
  -25.8370  -32.5270   23.8640 C   0  0  0  0  0  3  0  0  0  0  0  0
  -25.5320  -33.9270   24.1860 N   0  0  0  0  0  0  0  0  0  0  0  0
  -25.8770  -34.9740   23.4250 C   0  0  0  0  0  0  0  0  0  0  0  0
  -26.5570  -34.8620   22.4010 O   0  0  0  0  0  0  0  0  0  0  0  0
  -24.9310  -34.0880   24.9810 H   0  0  0  0  0  0  0  0  0  0  0  0
  -24.1640  -36.7720   23.0360 C   0  0  0  0  0  1  0  0  0  0  0  0
  -25.3900  -36.3660   23.8690 C   0  0  0  0  0  3  0  0  0  0  0  0
  -27.5150  -37.2430   24.7310 C   0  0  0  0  0  1  0  0  0  0  0  0
  -26.4300  -37.4120   23.7680 N   0  0  0  0  0  0  0  0  0  0  0  0
  -26.0270  -38.3360   23.9050 H   0  0  0  0  0  0  0  0  0  0  0  0
  -26.3410  -31.7550   25.1450 C   0  0  1  0  0  0  0  0  0  0  0  0
  -25.2380  -31.5190   26.2040 C   0  0  0  0  0  1  0  0  0  0  0  0
  -26.9240  -30.3760   24.7550 C   0  0  0  0  0  1  0  0  0  0  0  0
  -27.4860  -32.5450   25.8180 C   0  0  0  0  0  1  0  0  0  0  0  0
  -27.5540  -20.0150   17.2950 C   0  0  0  0  0  1  0  0  0  0  0  0
  -29.8410  -20.6010   16.3970 C   0  0  0  0  0  1  0  0  0  0  0  0
  -29.0650  -20.0420   17.6030 C   0  0  0  0  0  3  0  0  0  0  0  0
  -28.9420  -20.0130   20.1720 C   0  0  0  0  0  0  0  0  0  0  0  0
  -27.8960  -20.3220   20.7520 O   0  0  0  0  0  0  0  0  0  0  0  0
  -31.1130  -18.9700   20.8160 C   0  0  0  0  0  3  0  0  0  0  0  0
  -29.7680  -18.8750   20.5460 C   0  0  0  0  0  0  0  0  0  0  0  0
  -29.2970  -17.5380   20.6970 C   0  0  0  0  0  0  0  0  0  0  0  0
  -30.2670  -16.6170   20.9860 C   0  0  0  0  0  0  0  0  0  0  0  0
  -28.0440  -17.2000   20.4860 F   0  0  0  0  0  0  0  0  0  0  0  0
  -31.8100  -17.4190   21.2000 S   0  0  0  0  0  0  0  0  0  0  0  0
  -30.6830  -14.3910   20.2770 C   0  0  0  0  0  0  0  0  0  0  0  0
  -30.2890  -12.3370   18.9780 C   0  0  0  0  0  2  0  0  0  0  0  0
  -29.2980  -12.6370   17.8360 C   0  0  0  0  0  2  0  0  0  0  0  0
  -27.8390  -12.5130   18.3190 C   0  0  0  0  0  2  0  0  0  0  0  0
  -27.5770  -13.2750   19.6460 C   0  0  0  0  0  3  0  0  0  0  0  0
  -28.6680  -12.9360   20.6860 C   0  0  0  0  0  2  0  0  0  0  0  0
  -29.9810  -13.2460   20.0910 N   0  0  0  0  0  0  0  0  0  0  0  0
  -31.7490  -14.6300   19.6980 O   0  0  0  0  0  0  0  0  0  0  0  0
  -30.0870  -15.2810   21.0780 N   0  0  0  0  0  0  0  0  0  0  0  0
  -29.1950  -14.9810   21.4420 H   0  0  0  0  0  0  0  0  0  0  0  0
  -25.2050  -13.8860   20.4470 C   0  0  0  0  0  0  0  0  0  0  0  0
  -24.1450  -13.1130   20.8400 C   0  0  0  0  0  0  0  0  0  0  0  0
  -24.5990  -11.7600   20.7760 C   0  0  0  0  0  0  0  0  0  0  0  0
  -26.2370  -13.0030   20.1670 N   0  0  0  0  0  0  0  0  0  0  0  0
  -25.8760  -11.7200   20.4190 N   0  0  0  0  0  0  0  0  0  0  0  0
  -23.8760  -10.4990   20.9810 C   0  0  0  0  0  0  0  0  0  0  0  0
  -24.3260   -9.5320   21.9080 C   0  0  0  0  0  3  0  0  0  0  0  0
  -23.6040   -8.3340   22.0980 C   0  0  0  0  0  3  0  0  0  0  0  0
  -22.4200   -8.0940   21.3620 C   0  0  0  0  0  0  0  0  0  0  0  0
  -21.9880   -9.0510   20.4260 C   0  0  0  0  0  3  0  0  0  0  0  0
  -22.7110  -10.2400   20.2340 C   0  0  0  0  0  3  0  0  0  0  0  0
  -21.6690   -6.9480   21.4610 O   0  0  0  0  0  0  0  0  0  0  0  0
  -21.6270   -6.2120   22.6180 C   0  0  0  0  0  0  0  0  0  0  0  0
  -21.1870   -6.7670   23.8390 C   0  0  0  0  0  3  0  0  0  0  0  0
  -21.0930   -5.9570   24.9880 C   0  0  0  0  0  3  0  0  0  0  0  0
  -21.4310   -4.5930   24.9180 C   0  0  0  0  0  0  0  0  0  0  0  0
  -21.8650   -4.0360   23.7010 C   0  0  0  0  0  3  0  0  0  0  0  0
  -21.9600   -4.8430   22.5550 C   0  0  0  0  0  0  0  0  0  0  0  0
  -22.3590   -4.2970   21.3800 F   0  0  0  0  0  0  0  0  0  0  0  0
  -21.3320   -3.8130   26.0190 F   0  0  0  0  0  0  0  0  0  0  0  0
  -22.7610  -13.5940   21.1730 C   0  0  0  0  0  0  0  0  0  0  0  0
  -22.0580  -12.8860   22.0490 N   0  0  0  0  0  0  0  0  0  0  0  0
  -22.3120  -14.6330   20.6900 O   0  0  0  0  0  0  0  0  0  0  0  0
  -22.4310  -12.0440   22.4630 H   0  0  0  0  0  0  0  0  0  0  0  0
  -21.1340  -13.1960   22.3130 H   0  0  0  0  0  0  0  0  0  0  0  0
  -25.3720  -15.2590   20.2910 N   0  0  0  0  0  0  0  0  0  0  0  0
  -24.6280  -15.9180   20.4880 H   0  0  0  0  0  0  0  0  0  0  0  0
  -26.2360  -15.7130   20.0190 H   0  0  0  0  0  0  0  0  0  0  0  0
  1 52  1  0
  1 53  1  0
  2  4  2  0
  3  1  1  0
  3  2  1  0
  5  3  1  0
  6  2  1  0
  6  8  1  0
  7  6  2  0
  9 11  1  0
  9  8  1  0
 10 21  2  0
 11 16  1  0
 12 20  1  0
 12 22  1  0
 13 19  1  0
 13 15  1  0
 14 20  1  0
 15 14  1  0
 16 15  2  0
 17 18  1  0
 17 11  2  0
 18 13  2  0
 19 12  1  0
 20 10  1  0
 22 24  2  0
 23 22  1  0
 25 23  1  0
 26 35  2  0
 26 31  1  0
 27 23  1  0
 27 31  1  0
 28 27  1  0
 29 30  1  0
 29 28  1  0
 30 26  1  0
 31 32  2  0
 32 33  1  0
 34 33  2  0
 35 34  1  0
 36 10  1  0
 36 37  1  0
 36 46  1  0
 37 40  1  0
 38 42  1  0
 38 37  1  0
 39 38  2  0
 42 41  1  0
 44 42  1  0
 44 45  1  0
 44 43  1  0
 46 49  1  1
 46 47  1  0
 48 46  1  0
 50 52  1  0
 51 52  1  0
 53 56  1  0
 53 54  2  0
 55 60  1  0
 56 57  1  0
 56 55  2  0
 57 58  2  0
 58 69  1  0
 58 60  1  0
 59 57  1  0
 61 69  1  0
 62 67  1  0
 63 64  1  0
 63 62  1  0
 65 64  1  0
 65 74  1  0
 65 66  1  0
 67 61  1  0
 67 66  1  0
 68 61  2  0
 69 70  1  0
 71 72  2  0
 72 91  1  0
 73 72  1  0
 73 76  1  0
 74 75  1  0
 74 71  1  0
 75 73  2  0
 76 77  1  0
 77 78  2  0
 79 82  1  0
 79 78  1  0
 80 79  2  0
 81 80  1  0
 81 76  2  0
 82 83  1  0
 83 84  1  0
 84 85  2  0
 86 85  1  0
 86 90  1  0
 87 86  2  0
 88 83  2  0
 88 87  1  0
 89 88  1  0
 91 92  1  0
 92 95  1  0
 92 94  1  0
 93 91  2  0
 96 71  1  0
 96 97  1  0
 98 96  1  0
M  ISO  4   8 101   9 101  61 100  69 100
M  END
>  <TORSDO>  (71) 
F 22

>  <SCORE>  (71) 
-13.597

>  <name>  (71) 
71

>  <ligand_id>  (71) 
71

>  <original_smiles>  (71) 
[H]c1sc(N([H])C(=O)N2C([H])([H])C([H])([H])C([H])([H])C([H])(n3nc(-c4c([H])c([H])c(Oc5c([H])c([H])c(F)c([H])c5F)c([H])c4[H])c(C(=O)N([H])[H])c3N([H])[H])C2([H])[H])c(F)c1C(=O)C([H])(N([H])C(=O)C(=O)C([H])([H])Oc1c([H])c([H])c2c(c1[H])C([H])([H])N(C(=O)C([H])(N([H])C(=O)C([H])(N([H])C([H])([H])[H])C([H])([H])[H])C(C([H])([H])[H])(C([H])([H])[H])C([H])([H])[H])C([H])(C(=O)N([H])C1([H])c3c([H])c([H])c([H])c([H])c3C([H])([H])C([H])([H])C1([H])[H])C2([H])[H])C([H])(C([H])([H])[H])C([H])([H])[H]

>  <smiles>  (71) 
[H]c1sc(N([H])C(=O)N2C([H])([H])C([H])([H])C([H])([H])C([H])(n3nc(-c4c([H])c([H])c(Oc5c([H])c([H])c(F)c([H])c5F)c([H])c4[H])c(C(=O)N([H])[H])c3N([H])[H])C2([H])[H])c(F)c1C(=O)C([H])(N([H])C(=O)C(=O)C([H])([H])Oc1c([H])c([H])c2c(c1[H])C([H])([H])N(C(=O)C([H])(N([H])C(=O)C([H])(N([H])C([H])([H])[H])C([H])([H])[H])C(C([H])([H])[H])(C([H])([H])[H])C([H])([H])[H])C([H])(C(=O)N([H])C1([H])c3c([H])c([H])c([H])c([H])c3C([H])([H])C([H])([H])C1([H])[H])C2([H])[H])C([H])(C([H])([H])[H])C([H])([H])[H]

$$$$
72:0:0
     RDKit          3D

 96104  0  0  1  0  0  0  0  0999 V2000
  -28.8330  -18.8650   20.8000 C   0  0  0  0  0  3  0  0  0  0  0  0
  -28.7330  -16.4840   20.4970 C   0  0  0  0  0  3  0  0  0  0  0  0
  -28.1120  -17.7370   20.3940 C   0  0  0  0  0  0  0  0  0  0  0  0
  -30.1510  -18.7330   21.2860 C   0  0  0  0  0  0  0  0  0  0  0  0
  -30.0490  -16.3870   20.9920 C   0  0  0  0  0  0  0  0  0  0  0  0
  -30.7100  -21.1470   21.2020 C   0  0  0  0  0  0  0  0  0  0  0  0
  -30.7270  -17.5000   21.3960 N   0  0  0  0  0  0  0  0  0  0  0  0
  -30.8010  -19.9140   21.7470 N   0  0  0  0  0  0  0  0  0  0  0  0
  -30.4120  -21.3400   20.0190 O   0  0  0  0  0  0  0  0  0  0  0  0
  -31.3040  -19.8270   22.6180 H   0  0  0  0  0  0  0  0  0  0  0  0
  -30.9360  -14.2600   20.1260 C   0  0  0  0  0  0  0  0  0  0  0  0
  -30.5140  -12.1120   18.9580 C   0  0  0  0  0  2  0  0  0  0  0  0
  -29.4940  -12.2960   17.8140 C   0  0  0  0  0  2  0  0  0  0  0  0
  -28.0460  -12.2080   18.3370 C   0  0  0  0  0  2  0  0  0  0  0  0
  -27.8070  -13.0790   19.5970 C   0  0  0  0  0  3  0  0  0  0  0  0
  -28.9190  -12.8280   20.6410 C   0  0  0  0  0  2  0  0  0  0  0  0
  -30.2300  -13.0980   20.0140 N   0  0  0  0  0  0  0  0  0  0  0  0
  -31.9160  -14.5270   19.4180 O   0  0  0  0  0  0  0  0  0  0  0  0
  -30.5290  -15.0570   21.1290 N   0  0  0  0  0  0  0  0  0  0  0  0
  -29.9680  -14.5200   21.7720 H   0  0  0  0  0  0  0  0  0  0  0  0
  -25.4960  -13.7730   20.4960 C   0  0  0  0  0  0  0  0  0  0  0  0
  -24.4200  -13.0490   20.9300 C   0  0  0  0  0  0  0  0  0  0  0  0
  -24.8050  -11.6790   20.8120 C   0  0  0  0  0  0  0  0  0  0  0  0
  -26.4770  -12.8540   20.1580 N   0  0  0  0  0  0  0  0  0  0  0  0
  -26.0630  -11.5830   20.4000 N   0  0  0  0  0  0  0  0  0  0  0  0
  -24.0250  -10.4530   21.0110 C   0  0  0  0  0  0  0  0  0  0  0  0
  -24.4490   -9.4450   21.9040 C   0  0  0  0  0  3  0  0  0  0  0  0
  -23.6710   -8.2800   22.0890 C   0  0  0  0  0  3  0  0  0  0  0  0
  -22.4570   -8.1190   21.3810 C   0  0  0  0  0  0  0  0  0  0  0  0
  -22.0510   -9.1160   20.4750 C   0  0  0  0  0  3  0  0  0  0  0  0
  -22.8290  -10.2700   20.2880 C   0  0  0  0  0  3  0  0  0  0  0  0
  -21.6520   -7.0100   21.4780 O   0  0  0  0  0  0  0  0  0  0  0  0
  -21.5770   -6.2750   22.6330 C   0  0  0  0  0  0  0  0  0  0  0  0
  -21.1760   -6.8520   23.8590 C   0  0  0  0  0  3  0  0  0  0  0  0
  -21.0480   -6.0460   25.0080 C   0  0  0  0  0  3  0  0  0  0  0  0
  -21.3080   -4.6650   24.9320 C   0  0  0  0  0  0  0  0  0  0  0  0
  -21.7010   -4.0890   23.7120 C   0  0  0  0  0  3  0  0  0  0  0  0
  -21.8320   -4.8900   22.5660 C   0  0  0  0  0  0  0  0  0  0  0  0
  -22.1920   -4.3280   21.3870 F   0  0  0  0  0  0  0  0  0  0  0  0
  -21.1760   -3.8890   26.0330 F   0  0  0  0  0  0  0  0  0  0  0  0
  -23.0780  -13.5930   21.3260 C   0  0  0  0  0  0  0  0  0  0  0  0
  -22.3840  -12.9180   22.2340 N   0  0  0  0  0  0  0  0  0  0  0  0
  -22.6530  -14.6530   20.8650 O   0  0  0  0  0  0  0  0  0  0  0  0
  -22.7390  -12.0620   22.6330 H   0  0  0  0  0  0  0  0  0  0  0  0
  -21.4810  -13.2600   22.5340 H   0  0  0  0  0  0  0  0  0  0  0  0
  -25.7020  -15.1330   20.3390 N   0  0  0  0  0  0  0  0  0  0  0  0
  -24.9830  -15.8020   20.5900 H   0  0  0  0  0  0  0  0  0  0  0  0
  -26.5070  -15.5570   19.8980 H   0  0  0  0  0  0  0  0  0  0  0  0
  -26.7470  -18.4480   18.4000 C   0  0  0  0  0  1  0  0  0  0  0  0
  -26.7120  -17.8930   19.8320 C   0  0  0  0  0  2  0  0  0  0  0  0
  -31.0200  -22.3690   22.0790 C   0  0  0  0  0  2  0  0  0  0  0  0
  -29.7830  -23.3120   22.1750 C   0  0  0  0  0  2  0  0  0  0  0  0
  -29.7310  -24.4840   21.1790 C   0  0  0  0  0  0  0  0  0  0  0  0
  -30.7460  -24.8980   20.6090 O   0  0  0  0  0  0  0  0  0  0  0  0
  -28.3520  -25.1220   20.9230 C   0  0  0  0  0  2  0  0  0  0  0  0
  -28.4890  -26.4970   20.5350 O   0  0  0  0  0  0  0  0  0  0  0  0
  -24.5560  -31.7850   23.2270 C   0  0  0  0  0  0  0  0  0  0  0  0
  -27.3120  -27.2110   20.4600 C   0  0  0  0  0  0  0  0  0  0  0  0
  -23.4140  -30.3270   21.5850 C   0  0  0  0  0  3  0  0  0  0  0  0
  -24.9220  -28.7180   20.3030 C   0  0  0  0  0  0  0  0  0  0  0  0
  -25.9470  -30.6650   21.4880 C   0  0  0  0  0  2  0  0  0  0  0  0
  -26.0570  -29.2670   20.9160 C   0  0  0  0  0  0  0  0  0  0  0  0
  -27.2530  -28.5210   20.9910 C   0  0  0  0  0  3  0  0  0  0  0  0
  -26.1610  -26.6760   19.8430 C   0  0  0  0  0  3  0  0  0  0  0  0
  -24.9680  -27.4200   19.7720 C   0  0  0  0  0  3  0  0  0  0  0  0
  -23.6860  -29.5880   20.2490 C   0  0  0  0  0  2  0  0  0  0  0  0
  -24.6550  -30.9470   22.1580 N   0  0  0  0  0  0  0  0  0  0  0  0
  -23.4540  -32.0840   23.7090 O   0  0  0  0  0  0  0  0  0  0  0  0
  -22.7160  -29.3490   22.5560 C   0  0  0  0  0  0  0  0  0  0  0  0
  -21.3900  -29.1970   22.3980 N   0  0  0  0  0  0  0  0  0  0  0  0
  -23.3620  -28.7250   23.4030 O   0  0  0  0  0  0  0  0  0  0  0  0
  -20.9330  -29.7490   21.6860 H   0  0  0  0  0  0  0  0  0  0  0  0
  -17.9640  -28.1790   22.9110 C   0  0  0  0  0  0  0  0  0  0  0  0
  -20.5320  -28.3030   23.1740 C   0  0  0  0  0  3  0  0  0  0  0  0
  -20.5580  -26.8680   22.5970 C   0  0  0  0  0  2  0  0  0  0  0  0
  -19.4370  -26.6060   21.5860 C   0  0  0  0  0  2  0  0  0  0  0  0
  -18.0670  -26.8240   22.2340 C   0  0  0  0  0  2  0  0  0  0  0  0
  -19.1230  -28.8810   23.3380 C   0  0  0  0  0  0  0  0  0  0  0  0
  -18.9730  -30.1530   23.9310 C   0  0  0  0  0  3  0  0  0  0  0  0
  -17.6970  -30.7210   24.1040 C   0  0  0  0  0  3  0  0  0  0  0  0
  -16.5530  -30.0160   23.6900 C   0  0  0  0  0  3  0  0  0  0  0  0
  -16.6850  -28.7480   23.0980 C   0  0  0  0  0  3  0  0  0  0  0  0
  -25.8170  -32.4280   23.8830 C   0  0  0  0  0  3  0  0  0  0  0  0
  -25.4840  -33.8200   24.2080 N   0  0  0  0  0  0  0  0  0  0  0  0
  -25.8170  -34.8750   23.4520 C   0  0  0  0  0  0  0  0  0  0  0  0
  -26.5080  -34.7810   22.4340 O   0  0  0  0  0  0  0  0  0  0  0  0
  -24.8710  -33.9680   24.9960 H   0  0  0  0  0  0  0  0  0  0  0  0
  -24.0560  -36.6290   23.0720 C   0  0  0  0  0  1  0  0  0  0  0  0
  -25.2980  -36.2560   23.8960 C   0  0  0  0  0  3  0  0  0  0  0  0
  -27.4080  -37.1860   24.7410 C   0  0  0  0  0  1  0  0  0  0  0  0
  -26.3100  -37.3280   23.7870 N   0  0  0  0  0  0  0  0  0  0  0  0
  -25.8840  -38.2410   23.9260 H   0  0  0  0  0  0  0  0  0  0  0  0
  -26.3180  -31.6590   25.1670 C   0  0  1  0  0  0  0  0  0  0  0  0
  -25.2030  -31.3790   26.2010 C   0  0  0  0  0  1  0  0  0  0  0  0
  -26.9520  -30.3030   24.7780 C   0  0  0  0  0  1  0  0  0  0  0  0
  -27.4260  -32.4780   25.8710 C   0  0  0  0  0  1  0  0  0  0  0  0
  1  4  1  0
  2  5  2  0
  3  2  1  0
  3  1  2  0
  4  7  2  0
  4  8  1  0
  5 19  1  0
  5  7  1  0
  6  8  1  0
  6 51  1  0
  8 10  1  0
  9  6  2  0
 11 19  1  0
 12 17  1  0
 13 14  1  0
 13 12  1  0
 15 14  1  0
 15 24  1  0
 15 16  1  0
 17 11  1  0
 17 16  1  0
 18 11  2  0
 19 20  1  0
 21 22  2  0
 22 41  1  0
 23 22  1  0
 23 26  1  0
 24 25  1  0
 24 21  1  0
 25 23  2  0
 26 27  1  0
 27 28  2  0
 29 32  1  0
 29 28  1  0
 30 29  2  0
 31 30  1  0
 31 26  2  0
 32 33  1  0
 33 34  1  0
 34 35  2  0
 36 35  1  0
 36 40  1  0
 37 36  2  0
 38 33  2  0
 38 37  1  0
 39 38  1  0
 41 42  1  0
 42 45  1  0
 42 44  1  0
 43 41  2  0
 46 21  1  0
 46 47  1  0
 48 46  1  0
 49 50  1  0
 50  3  1  0
 51 52  1  0
 53 52  1  0
 54 53  2  0
 55 53  1  0
 56 55  1  0
 57 68  2  0
 58 56  1  0
 58 63  1  0
 59 67  1  0
 59 69  1  0
 60 62  1  0
 61 67  1  0
 62 63  2  0
 62 61  1  0
 64 58  2  0
 65 64  1  0
 65 60  2  0
 66 60  1  0
 66 59  1  0
 67 57  1  0
 69 71  2  0
 70 69  1  0
 72 70  1  0
 73 82  2  0
 73 78  1  0
 74 70  1  0
 74 78  1  0
 75 74  1  0
 76 77  1  0
 76 75  1  0
 77 73  1  0
 78 79  2  0
 79 80  1  0
 81 80  2  0
 82 81  1  0
 83 57  1  0
 83 84  1  0
 83 93  1  0
 84 87  1  0
 85 89  1  0
 85 84  1  0
 86 85  2  0
 89 88  1  0
 91 89  1  0
 91 92  1  0
 91 90  1  0
 93 96  1  1
 93 94  1  0
 95 93  1  0
M  ISO  4  11 100  19 100  55 101  56 101
M  END
>  <TORSDO>  (72) 
F 21

>  <SCORE>  (72) 
-13.212

>  <name>  (72) 
72

>  <ligand_id>  (72) 
72

>  <original_smiles>  (72) 
[H]c1c([H])c([H])c2c(c1[H])C([H])([H])C([H])([H])C([H])([H])C2([H])N([H])C(=O)C1([H])N(C(=O)C([H])(N([H])C(=O)C([H])(N([H])C([H])([H])[H])C([H])([H])[H])C(C([H])([H])[H])(C([H])([H])[H])C([H])([H])[H])C([H])([H])c2c([H])c(OC([H])([H])C(=O)C([H])([H])C([H])([H])C(=O)N([H])c3nc(N([H])C(=O)N4C([H])([H])C([H])([H])C([H])([H])C([H])(n5nc(-c6c([H])c([H])c(Oc7c([H])c([H])c(F)c([H])c7F)c([H])c6[H])c(C(=O)N([H])[H])c5N([H])[H])C4([H])[H])c([H])c(C([H])([H])C([H])([H])[H])c3[H])c([H])c([H])c2C1([H])[H]

>  <smiles>  (72) 
[H]c1c([H])c([H])c2c(c1[H])C([H])([H])C([H])([H])C([H])([H])C2([H])N([H])C(=O)C1([H])N(C(=O)C([H])(N([H])C(=O)C([H])(N([H])C([H])([H])[H])C([H])([H])[H])C(C([H])([H])[H])(C([H])([H])[H])C([H])([H])[H])C([H])([H])c2c([H])c(OC([H])([H])C(=O)C([H])([H])C([H])([H])C(=O)N([H])c3nc(N([H])C(=O)N4C([H])([H])C([H])([H])C([H])([H])C([H])(n5nc(-c6c([H])c([H])c(Oc7c([H])c([H])c(F)c([H])c7F)c([H])c6[H])c(C(=O)N([H])[H])c5N([H])[H])C4([H])[H])c([H])c(C([H])([H])C([H])([H])[H])c3[H])c([H])c([H])c2C1([H])[H]

$$$$
73:0:0
     RDKit          3D

 96104  0  0  1  0  0  0  0  0999 V2000
  -29.2190  -19.8790   20.1940 C   0  0  0  0  0  0  0  0  0  0  0  0
  -28.5870  -22.4790   19.8600 C   0  0  0  0  0  0  0  0  0  0  0  0
  -29.1250  -21.2510   20.5790 N   0  0  0  0  0  0  0  0  0  0  0  0
  -28.7390  -19.4980   18.9990 N   0  0  0  0  0  4  0  0  0  0  0  0
  -28.1070  -22.2850   18.7350 O   0  0  0  0  0  0  0  0  0  0  0  0
  -29.5130  -21.3740   21.4990 H   0  0  0  0  0  0  0  0  0  0  0  0
  -28.8200  -18.5470   18.6800 H   0  0  0  0  0  0  0  0  0  0  0  0
  -28.3270  -20.1840   18.3780 H   0  0  0  0  0  0  0  0  0  0  0  0
  -31.3010  -18.0960   23.0640 C   0  0  0  0  0  3  0  0  0  0  0  0
  -30.0840  -17.3480   21.1690 C   0  0  0  0  0  0  0  0  0  0  0  0
  -30.8430  -17.0350   22.3540 C   0  0  0  0  0  0  0  0  0  0  0  0
  -29.8870  -18.7880   21.0440 C   0  0  0  0  0  0  0  0  0  0  0  0
  -31.0590  -15.8070   22.7700 F   0  0  0  0  0  0  0  0  0  0  0  0
  -30.8000  -19.5760   22.3340 S   0  0  0  0  0  0  0  0  0  0  0  0
  -30.3570  -14.9580   20.1580 C   0  0  0  0  0  0  0  0  0  0  0  0
  -30.1530  -12.6950   19.0690 C   0  0  0  0  0  2  0  0  0  0  0  0
  -29.1480  -12.7210   17.8980 C   0  0  0  0  0  2  0  0  0  0  0  0
  -27.7130  -12.4920   18.4090 C   0  0  0  0  0  2  0  0  0  0  0  0
  -27.3770  -13.3490   19.6590 C   0  0  0  0  0  3  0  0  0  0  0  0
  -28.5000  -13.2960   20.7160 C   0  0  0  0  0  2  0  0  0  0  0  0
  -29.7290  -13.7300   20.0460 N   0  0  0  0  0  0  0  0  0  0  0  0
  -31.5280  -15.0530   19.7810 O   0  0  0  0  0  0  0  0  0  0  0  0
  -29.6160  -16.1220   20.4410 N   0  0  0  0  0  0  0  0  0  0  0  0
  -28.6180  -15.9970   20.4210 H   0  0  0  0  0  0  0  0  0  0  0  0
  -25.0250  -13.8520   20.5380 C   0  0  0  0  0  0  0  0  0  0  0  0
  -24.0000  -13.0410   20.9370 C   0  0  0  0  0  0  0  0  0  0  0  0
  -24.4950  -11.7030   20.8430 C   0  0  0  0  0  0  0  0  0  0  0  0
  -26.0740  -13.0090   20.2180 N   0  0  0  0  0  0  0  0  0  0  0  0
  -25.7660  -11.7100   20.4670 N   0  0  0  0  0  0  0  0  0  0  0  0
  -23.8100  -10.4180   21.0310 C   0  0  0  0  0  0  0  0  0  0  0  0
  -24.2850   -9.4530   21.9460 C   0  0  0  0  0  3  0  0  0  0  0  0
  -23.6000   -8.2330   22.1220 C   0  0  0  0  0  3  0  0  0  0  0  0
  -22.4230   -7.9670   21.3830 C   0  0  0  0  0  0  0  0  0  0  0  0
  -21.9670   -8.9210   20.4560 C   0  0  0  0  0  3  0  0  0  0  0  0
  -22.6530  -10.1340   20.2770 C   0  0  0  0  0  3  0  0  0  0  0  0
  -21.7030   -6.8000   21.4700 O   0  0  0  0  0  0  0  0  0  0  0  0
  -21.6650   -6.0650   22.6270 C   0  0  0  0  0  0  0  0  0  0  0  0
  -21.1790   -6.6040   23.8370 C   0  0  0  0  0  3  0  0  0  0  0  0
  -21.0920   -5.7910   24.9850 C   0  0  0  0  0  3  0  0  0  0  0  0
  -21.4840   -4.4400   24.9230 C   0  0  0  0  0  0  0  0  0  0  0  0
  -21.9650   -3.9010   23.7170 C   0  0  0  0  0  3  0  0  0  0  0  0
  -22.0520   -4.7110   22.5710 C   0  0  0  0  0  0  0  0  0  0  0  0
  -22.4940   -4.1810   21.4060 F   0  0  0  0  0  0  0  0  0  0  0  0
  -21.3950   -3.6560   26.0230 F   0  0  0  0  0  0  0  0  0  0  0  0
  -22.6060  -13.4750   21.2890 C   0  0  0  0  0  0  0  0  0  0  0  0
  -21.9400  -12.7410   22.1740 N   0  0  0  0  0  0  0  0  0  0  0  0
  -22.1170  -14.4970   20.8110 O   0  0  0  0  0  0  0  0  0  0  0  0
  -22.3560  -11.9180   22.5830 H   0  0  0  0  0  0  0  0  0  0  0  0
  -21.0040  -13.0080   22.4450 H   0  0  0  0  0  0  0  0  0  0  0  0
  -25.1410  -15.2320   20.3940 N   0  0  0  0  0  0  0  0  0  0  0  0
  -24.3580  -15.8490   20.5800 H   0  0  0  0  0  0  0  0  0  0  0  0
  -25.9340  -15.7080   19.9880 H   0  0  0  0  0  0  0  0  0  0  0  0
  -28.1660  -25.0390   19.8440 C   0  0  0  0  0  3  0  0  0  0  0  0
  -28.6570  -23.8850   20.4820 C   0  0  0  0  0  0  0  0  0  0  0  0
  -29.3040  -24.0060   21.8540 C   0  0  0  0  0  1  0  0  0  0  0  0
  -28.2270  -26.4280   20.2510 O   0  0  0  0  0  0  0  0  0  0  0  0
  -24.5830  -31.9620   23.2950 C   0  0  0  0  0  0  0  0  0  0  0  0
  -27.1380  -27.3470   20.1720 C   0  0  0  0  0  0  0  0  0  0  0  0
  -23.3600  -30.5890   21.6490 C   0  0  0  0  0  3  0  0  0  0  0  0
  -24.7920  -29.0400   20.1860 C   0  0  0  0  0  0  0  0  0  0  0  0
  -25.9050  -30.8750   21.4550 C   0  0  0  0  0  2  0  0  0  0  0  0
  -25.9720  -29.4950   20.7880 C   0  0  0  0  0  0  0  0  0  0  0  0
  -27.1420  -28.6630   20.7680 C   0  0  0  0  0  3  0  0  0  0  0  0
  -25.9300  -26.9740   19.5340 C   0  0  0  0  0  3  0  0  0  0  0  0
  -24.7810  -27.7900   19.5460 C   0  0  0  0  0  3  0  0  0  0  0  0
  -23.5600  -29.9260   20.2590 C   0  0  0  0  0  2  0  0  0  0  0  0
  -24.6360  -31.1630   22.1880 N   0  0  0  0  0  0  0  0  0  0  0  0
  -23.5030  -32.2410   23.8390 O   0  0  0  0  0  0  0  0  0  0  0  0
  -22.6970  -29.5660   22.6040 C   0  0  0  0  0  0  0  0  0  0  0  0
  -21.3740  -29.3730   22.4650 N   0  0  0  0  0  0  0  0  0  0  0  0
  -23.3750  -28.9510   23.4320 O   0  0  0  0  0  0  0  0  0  0  0  0
  -20.8850  -29.9170   21.7680 H   0  0  0  0  0  0  0  0  0  0  0  0
  -18.0120  -28.1090   22.9250 C   0  0  0  0  0  0  0  0  0  0  0  0
  -20.5620  -28.4240   23.2300 C   0  0  0  0  0  3  0  0  0  0  0  0
  -20.7010  -26.9910   22.6680 C   0  0  0  0  0  2  0  0  0  0  0  0
  -19.6200  -26.6390   21.6400 C   0  0  0  0  0  2  0  0  0  0  0  0
  -18.2260  -26.7600   22.2610 C   0  0  0  0  0  2  0  0  0  0  0  0
  -19.1090  -28.8970   23.3660 C   0  0  0  0  0  0  0  0  0  0  0  0
  -18.8530  -30.1580   23.9480 C   0  0  0  0  0  3  0  0  0  0  0  0
  -17.5350  -30.6320   24.0930 C   0  0  0  0  0  3  0  0  0  0  0  0
  -16.4540  -29.8420   23.6650 C   0  0  0  0  0  3  0  0  0  0  0  0
  -16.6930  -28.5820   23.0880 C   0  0  0  0  0  3  0  0  0  0  0  0
  -25.8720  -32.5850   23.9160 C   0  0  0  0  0  3  0  0  0  0  0  0
  -25.5790  -33.9900   24.2370 N   0  0  0  0  0  0  0  0  0  0  0  0
  -25.9130  -35.0330   23.4640 C   0  0  0  0  0  0  0  0  0  0  0  0
  -26.5660  -34.9130   22.4250 O   0  0  0  0  0  0  0  0  0  0  0  0
  -24.9970  -34.1590   25.0440 H   0  0  0  0  0  0  0  0  0  0  0  0
  -24.1940  -36.8380   23.1250 C   0  0  0  0  0  1  0  0  0  0  0  0
  -25.4460  -36.4310   23.9180 C   0  0  0  0  0  3  0  0  0  0  0  0
  -27.5980  -37.3070   24.7090 C   0  0  0  0  0  1  0  0  0  0  0  0
  -26.4860  -37.4730   23.7760 N   0  0  0  0  0  0  0  0  0  0  0  0
  -26.0880  -38.3980   23.9170 H   0  0  0  0  0  0  0  0  0  0  0  0
  -26.3720  -31.8180   25.2030 C   0  0  1  0  0  0  0  0  0  0  0  0
  -25.2720  -31.6040   26.2670 C   0  0  0  0  0  1  0  0  0  0  0  0
  -26.9410  -30.4300   24.8290 C   0  0  0  0  0  1  0  0  0  0  0  0
  -27.5290  -32.6050   25.8620 C   0  0  0  0  0  1  0  0  0  0  0  0
  1  3  1  0
  1 12  1  0
  2 54  1  0
  2  3  1  0
  3  6  1  0
  4  1  2  0
  5  2  2  0
  7  4  1  0
  8  4  1  0
 10 11  1  0
 11 13  1  0
 11  9  2  0
 12 10  2  0
 12 14  1  0
 14  9  1  0
 15 23  1  0
 16 21  1  0
 17 18  1  0
 17 16  1  0
 19 18  1  0
 19 28  1  0
 19 20  1  0
 21 15  1  0
 21 20  1  0
 22 15  2  0
 23 10  1  0
 24 23  1  0
 25 26  2  0
 26 45  1  0
 27 26  1  0
 27 30  1  0
 28 29  1  0
 28 25  1  0
 29 27  2  0
 30 31  1  0
 31 32  2  0
 33 36  1  0
 33 32  1  0
 34 33  2  0
 35 34  1  0
 35 30  2  0
 36 37  1  0
 37 38  1  0
 38 39  2  0
 40 39  1  0
 40 44  1  0
 41 40  2  0
 42 37  2  0
 42 41  1  0
 43 42  1  0
 45 46  1  0
 46 49  1  0
 46 48  1  0
 47 45  2  0
 50 25  1  0
 50 51  1  0
 52 50  1  0
 53 56  1  0
 53 54  2  0
 54 55  1  0
 57 68  2  0
 58 56  1  0
 58 63  1  0
 59 67  1  0
 59 69  1  0
 60 66  1  0
 60 62  1  0
 61 67  1  0
 62 61  1  0
 63 62  2  0
 64 65  1  0
 64 58  2  0
 65 60  2  0
 66 59  1  0
 67 57  1  0
 69 71  2  0
 70 69  1  0
 72 70  1  0
 73 82  2  0
 73 78  1  0
 74 70  1  0
 74 78  1  0
 75 74  1  0
 76 77  1  0
 76 75  1  0
 77 73  1  0
 78 79  2  0
 79 80  1  0
 81 80  2  0
 82 81  1  0
 83 57  1  0
 83 84  1  0
 83 93  1  0
 84 87  1  0
 85 89  1  0
 85 84  1  0
 86 85  2  0
 89 88  1  0
 91 92  1  0
 91 89  1  0
 91 90  1  0
 93 96  1  1
 93 94  1  0
 95 93  1  0
M  ISO  4  15 100  23 100  53 101  56 101
M  END
>  <TORSDO>  (73) 
F 18

>  <SCORE>  (73) 
-14.118

>  <name>  (73) 
73

>  <ligand_id>  (73) 
73

>  <original_smiles>  (73) 
[H]C(Oc1c([H])c([H])c2c(c1[H])C([H])([H])N(C(=O)C([H])(N([H])C(=O)C([H])(N([H])C([H])([H])[H])C([H])([H])[H])C(C([H])([H])[H])(C([H])([H])[H])C([H])([H])[H])C([H])(C(=O)N([H])C1([H])c3c([H])c([H])c([H])c([H])c3C([H])([H])C([H])([H])C1([H])[H])C2([H])[H])=C(C(=O)N([H])C(c1sc([H])c(F)c1N([H])C(=O)N1C([H])([H])C([H])([H])C([H])([H])C([H])(n2nc(-c3c([H])c([H])c(Oc4c([H])c([H])c(F)c([H])c4F)c([H])c3[H])c(C(=O)N([H])[H])c2N([H])[H])C1([H])[H])=[N+]([H])[H])C([H])([H])[H]

>  <smiles>  (73) 
[H]C(Oc1c([H])c([H])c2c(c1[H])C([H])([H])N(C(=O)C([H])(N([H])C(=O)C([H])(N([H])C([H])([H])[H])C([H])([H])[H])C(C([H])([H])[H])(C([H])([H])[H])C([H])([H])[H])C([H])(C(=O)N([H])C1([H])c3c([H])c([H])c([H])c([H])c3C([H])([H])C([H])([H])C1([H])[H])C2([H])[H])=C(C(=O)N([H])C(c1sc([H])c(F)c1N([H])C(=O)N1C([H])([H])C([H])([H])C([H])([H])C([H])(n2nc(-c3c([H])c([H])c(Oc4c([H])c([H])c(F)c([H])c4F)c([H])c3[H])c(C(=O)N([H])[H])c2N([H])[H])C1([H])[H])=[N+]([H])[H])C([H])([H])[H]

$$$$
74:0:0
     RDKit          3D

 97105  0  0  1  0  0  0  0  0999 V2000
  -29.0280  -22.2170   19.9690 C   0  0  0  0  0  3  0  0  0  0  0  0
  -28.6610  -23.6940   20.5940 C   0  0  0  0  0  0  0  0  0  0  0  0
  -28.5960  -23.8410   21.8150 O   0  0  0  0  0  0  0  0  0  0  0  0
  -28.3810  -24.9840   19.6570 C   0  0  0  0  0  2  0  0  0  0  0  0
  -28.3520  -26.3800   20.2440 O   0  0  0  0  0  0  0  0  0  0  0  0
  -24.5630  -31.8420   23.1910 C   0  0  0  0  0  0  0  0  0  0  0  0
  -27.2370  -27.2580   20.1470 C   0  0  0  0  0  0  0  0  0  0  0  0
  -23.3890  -30.4430   21.5340 C   0  0  0  0  0  3  0  0  0  0  0  0
  -24.8680  -28.9070   20.1170 C   0  0  0  0  0  0  0  0  0  0  0  0
  -25.9330  -30.7620   21.3870 C   0  0  0  0  0  2  0  0  0  0  0  0
  -26.0300  -29.3820   20.7360 C   0  0  0  0  0  0  0  0  0  0  0  0
  -27.2120  -28.5690   20.7440 C   0  0  0  0  0  3  0  0  0  0  0  0
  -26.0440  -26.8610   19.4950 C   0  0  0  0  0  3  0  0  0  0  0  0
  -24.8830  -27.6550   19.4890 C   0  0  0  0  0  3  0  0  0  0  0  0
  -23.6270  -29.7770   20.1540 C   0  0  0  0  0  2  0  0  0  0  0  0
  -24.6470  -31.0350   22.0930 N   0  0  0  0  0  0  0  0  0  0  0  0
  -23.4710  -32.1100   23.7140 O   0  0  0  0  0  0  0  0  0  0  0  0
  -22.7220  -29.4160   22.4830 C   0  0  0  0  0  0  0  0  0  0  0  0
  -21.3950  -29.2470   22.3600 N   0  0  0  0  0  0  0  0  0  0  0  0
  -23.4010  -28.7770   23.2910 O   0  0  0  0  0  0  0  0  0  0  0  0
  -20.9060  -29.8180   21.6850 H   0  0  0  0  0  0  0  0  0  0  0  0
  -18.0090  -28.0840   22.8910 C   0  0  0  0  0  0  0  0  0  0  0  0
  -20.5750  -28.3030   23.1230 C   0  0  0  0  0  3  0  0  0  0  0  0
  -20.6460  -26.8840   22.5140 C   0  0  0  0  0  2  0  0  0  0  0  0
  -19.5230  -26.5990   21.5120 C   0  0  0  0  0  2  0  0  0  0  0  0
  -18.1560  -26.7470   22.1820 C   0  0  0  0  0  2  0  0  0  0  0  0
  -19.1460  -28.8210   23.3190 C   0  0  0  0  0  0  0  0  0  0  0  0
  -18.9520  -30.0730   23.9440 C   0  0  0  0  0  3  0  0  0  0  0  0
  -17.6570  -30.5860   24.1430 C   0  0  0  0  0  3  0  0  0  0  0  0
  -16.5370  -29.8470   23.7280 C   0  0  0  0  0  3  0  0  0  0  0  0
  -16.7140  -28.5960   23.1090 C   0  0  0  0  0  3  0  0  0  0  0  0
  -25.8340  -32.4840   23.8280 C   0  0  0  0  0  3  0  0  0  0  0  0
  -25.5070  -33.8770   24.1640 N   0  0  0  0  0  0  0  0  0  0  0  0
  -25.8430  -34.9400   23.4190 C   0  0  0  0  0  0  0  0  0  0  0  0
  -26.5310  -34.8490   22.3990 O   0  0  0  0  0  0  0  0  0  0  0  0
  -24.9010  -34.0210   24.9590 H   0  0  0  0  0  0  0  0  0  0  0  0
  -24.1280  -36.7390   23.0280 C   0  0  0  0  0  1  0  0  0  0  0  0
  -25.3380  -36.3200   23.8800 C   0  0  0  0  0  3  0  0  0  0  0  0
  -27.4300  -37.2030   24.8140 C   0  0  0  0  0  1  0  0  0  0  0  0
  -26.3730  -37.3760   23.8230 N   0  0  0  0  0  0  0  0  0  0  0  0
  -25.9550  -38.2950   23.9580 H   0  0  0  0  0  0  0  0  0  0  0  0
  -26.3440  -31.7120   25.1070 C   0  0  1  0  0  0  0  0  0  0  0  0
  -25.2410  -31.4620   26.1620 C   0  0  0  0  0  1  0  0  0  0  0  0
  -26.9450  -30.3400   24.7200 C   0  0  0  0  0  1  0  0  0  0  0  0
  -27.4760  -32.5170   25.7870 C   0  0  0  0  0  1  0  0  0  0  0  0
  -29.0530  -20.9850   20.8780 N   0  0  0  0  0  0  0  0  0  0  0  0
  -28.1480  -20.7430   21.2660 H   0  0  0  0  0  0  0  0  0  0  0  0
  -30.7750  -14.8200   20.8060 C   0  0  0  0  0  0  0  0  0  0  0  0
  -30.5850  -12.5250   19.8330 C   0  0  0  0  0  2  0  0  0  0  0  0
  -29.7410  -12.5830   18.5430 C   0  0  0  0  0  2  0  0  0  0  0  0
  -28.2500  -12.3990   18.8800 C   0  0  0  0  0  2  0  0  0  0  0  0
  -27.7890  -13.2980   20.0580 C   0  0  0  0  0  3  0  0  0  0  0  0
  -28.7790  -13.2690   21.2470 C   0  0  0  0  0  2  0  0  0  0  0  0
  -30.1060  -13.6150   20.7210 N   0  0  0  0  0  0  0  0  0  0  0  0
  -31.9810  -14.8170   20.5580 O   0  0  0  0  0  0  0  0  0  0  0  0
  -31.8250  -17.7790   20.6720 C   0  0  0  0  0  3  0  0  0  0  0  0
  -31.3260  -20.1570   20.5490 C   0  0  0  0  0  3  0  0  0  0  0  0
  -32.2530  -19.1080   20.5230 C   0  0  0  0  0  0  0  0  0  0  0  0
  -30.4580  -17.4570   20.8450 C   0  0  0  0  0  0  0  0  0  0  0  0
  -29.9690  -19.8730   20.7550 C   0  0  0  0  0  0  0  0  0  0  0  0
  -29.5680  -18.5430   20.9060 N   0  0  0  0  0  0  0  0  0  0  0  0
  -30.0600  -16.0130   20.9560 N   0  0  0  0  0  0  0  0  0  0  0  0
  -33.5720  -19.3760   20.3690 F   0  0  0  0  0  0  0  0  0  0  0  0
  -29.0740  -15.8740   21.0950 H   0  0  0  0  0  0  0  0  0  0  0  0
  -25.3490  -13.8580   20.6140 C   0  0  0  0  0  0  0  0  0  0  0  0
  -24.2720  -13.0760   20.9290 C   0  0  0  0  0  0  0  0  0  0  0  0
  -24.7540  -11.7300   20.9510 C   0  0  0  0  0  0  0  0  0  0  0  0
  -26.4200  -12.9920   20.4660 N   0  0  0  0  0  0  0  0  0  0  0  0
  -26.0640  -11.7070   20.7310 N   0  0  0  0  0  0  0  0  0  0  0  0
  -24.0290  -10.4630   21.1130 C   0  0  0  0  0  0  0  0  0  0  0  0
  -24.3920   -9.5270   22.1050 C   0  0  0  0  0  3  0  0  0  0  0  0
  -23.6660   -8.3240   22.2560 C   0  0  0  0  0  3  0  0  0  0  0  0
  -22.5620   -8.0500   21.4140 C   0  0  0  0  0  0  0  0  0  0  0  0
  -22.2200   -8.9760   20.4120 C   0  0  0  0  0  3  0  0  0  0  0  0
  -22.9450  -10.1690   20.2600 C   0  0  0  0  0  3  0  0  0  0  0  0
  -21.8180   -6.8970   21.4680 O   0  0  0  0  0  0  0  0  0  0  0  0
  -21.6700   -6.1920   22.6370 C   0  0  0  0  0  0  0  0  0  0  0  0
  -21.0800   -6.7650   23.7840 C   0  0  0  0  0  3  0  0  0  0  0  0
  -20.8840   -5.9840   24.9400 C   0  0  0  0  0  3  0  0  0  0  0  0
  -21.2660   -4.6290   24.9490 C   0  0  0  0  0  0  0  0  0  0  0  0
  -21.8470   -4.0550   23.8050 C   0  0  0  0  0  3  0  0  0  0  0  0
  -22.0460   -4.8330   22.6520 C   0  0  0  0  0  0  0  0  0  0  0  0
  -22.5890   -4.2680   21.5460 F   0  0  0  0  0  0  0  0  0  0  0  0
  -21.0700   -3.8760   26.0570 F   0  0  0  0  0  0  0  0  0  0  0  0
  -22.8550  -13.5400   21.0950 C   0  0  0  0  0  0  0  0  0  0  0  0
  -22.0750  -12.8490   21.9170 N   0  0  0  0  0  0  0  0  0  0  0  0
  -22.4440  -14.5530   20.5270 O   0  0  0  0  0  0  0  0  0  0  0  0
  -22.4160  -12.0310   22.4010 H   0  0  0  0  0  0  0  0  0  0  0  0
  -21.1200  -13.1450   22.0650 H   0  0  0  0  0  0  0  0  0  0  0  0
  -25.5020  -15.2270   20.4230 N   0  0  0  0  0  0  0  0  0  0  0  0
  -24.7100  -15.8580   20.4780 H   0  0  0  0  0  0  0  0  0  0  0  0
  -26.3470  -15.6840   20.1050 H   0  0  0  0  0  0  0  0  0  0  0  0
  -28.1250  -21.9080   18.7410 C   0  0  0  0  0  2  0  0  0  0  0  0
  -28.8590  -21.2440   17.5620 C   0  0  2  0  0  0  0  0  0  0  0  0
  -28.0010  -21.0830   16.5540 F   0  0  0  0  0  0  0  0  0  0  0  0
  -29.3440  -20.0500   17.8990 F   0  0  0  0  0  0  0  0  0  0  0  0
  -29.8600  -22.0180   17.1450 F   0  0  0  0  0  0  0  0  0  0  0  0
  1 93  1  0
  1  2  1  0
  1 46  1  0
  2  3  2  0
  4  5  1  0
  4  2  1  0
  6 17  2  0
  7  5  1  0
  7 12  1  0
  8 16  1  0
  8 18  1  0
  9 15  1  0
  9 11  1  0
 10 16  1  0
 11 12  2  0
 11 10  1  0
 13  7  2  0
 14 13  1  0
 14  9  2  0
 15  8  1  0
 16  6  1  0
 18 20  2  0
 19 18  1  0
 21 19  1  0
 22 31  2  0
 22 27  1  0
 23 19  1  0
 23 27  1  0
 24 23  1  0
 25 26  1  0
 25 24  1  0
 26 22  1  0
 27 28  2  0
 28 29  1  0
 30 29  2  0
 31 30  1  0
 32  6  1  0
 32 33  1  0
 32 42  1  0
 33 36  1  0
 34 38  1  0
 34 33  1  0
 35 34  2  0
 38 37  1  0
 40 38  1  0
 40 41  1  0
 40 39  1  0
 42 45  1  1
 42 43  1  0
 44 42  1  0
 46 47  1  0
 48 62  1  0
 49 54  1  0
 50 51  1  0
 50 49  1  0
 52 51  1  0
 52 68  1  0
 52 53  1  0
 54 48  1  0
 54 53  1  0
 55 48  2  0
 56 59  1  0
 57 60  2  0
 58 57  1  0
 58 56  2  0
 59 61  2  0
 59 62  1  0
 60 46  1  0
 60 61  1  0
 62 64  1  0
 63 58  1  0
 65 66  2  0
 66 67  1  0
 66 85  1  0
 67 70  1  0
 68 65  1  0
 68 69  1  0
 69 67  2  0
 70 71  1  0
 71 72  2  0
 73 76  1  0
 73 72  1  0
 74 73  2  0
 75 74  1  0
 75 70  2  0
 76 77  1  0
 77 82  2  0
 77 78  1  0
 78 79  2  0
 79 80  1  0
 80 84  1  0
 81 80  2  0
 82 81  1  0
 83 82  1  0
 85 86  1  0
 86 89  1  0
 86 88  1  0
 87 85  2  0
 90 91  1  0
 90 65  1  0
 92 90  1  0
 94 96  1  1
 94 93  1  0
 95 94  1  0
 97 94  1  0
M  ISO  4   4 101   5 101  48 100  62 100
M  END
>  <TORSDO>  (74) 
F 21

>  <SCORE>  (74) 
-13.545

>  <name>  (74) 
74

>  <ligand_id>  (74) 
74

>  <original_smiles>  (74) 
[H]c1c([H])c([H])c2c(c1[H])C([H])([H])C([H])([H])C([H])([H])C2([H])N([H])C(=O)C1([H])N(C(=O)C([H])(N([H])C(=O)C([H])(N([H])C([H])([H])[H])C([H])([H])[H])C(C([H])([H])[H])(C([H])([H])[H])C([H])([H])[H])C([H])([H])c2c([H])c(OC([H])([H])C(=O)C([H])(N([H])c3nc(N([H])C(=O)N4C([H])([H])C([H])([H])C([H])([H])C([H])(n5nc(-c6c([H])c([H])c(Oc7c([H])c([H])c(F)c([H])c7F)c([H])c6[H])c(C(=O)N([H])[H])c5N([H])[H])C4([H])[H])c([H])c(F)c3[H])C([H])([H])C(F)(F)F)c([H])c([H])c2C1([H])[H]

>  <smiles>  (74) 
[H]c1c([H])c([H])c2c(c1[H])C([H])([H])C([H])([H])C([H])([H])C2([H])N([H])C(=O)C1([H])N(C(=O)C([H])(N([H])C(=O)C([H])(N([H])C([H])([H])[H])C([H])([H])[H])C(C([H])([H])[H])(C([H])([H])[H])C([H])([H])[H])C([H])([H])c2c([H])c(OC([H])([H])C(=O)C([H])(N([H])c3nc(N([H])C(=O)N4C([H])([H])C([H])([H])C([H])([H])C([H])(n5nc(-c6c([H])c([H])c(Oc7c([H])c([H])c(F)c([H])c7F)c([H])c6[H])c(C(=O)N([H])[H])c5N([H])[H])C4([H])[H])c([H])c(F)c3[H])C([H])([H])C(F)(F)F)c([H])c([H])c2C1([H])[H]

$$$$
75:0:0
     RDKit          3D

 93101  0  0  1  0  0  0  0  0999 V2000
  -28.8500  -20.5140   20.5600 C   0  0  0  0  0  0  0  0  0  0  0  0
  -29.4920  -21.7010   20.6340 N   0  0  0  0  0  0  0  0  0  0  0  0
  -27.6170  -20.4470   20.5420 O   0  0  0  0  0  0  0  0  0  0  0  0
  -30.5050  -21.7000   20.6150 H   0  0  0  0  0  0  0  0  0  0  0  0
  -31.3340  -17.6810   20.4490 C   0  0  0  0  0  3  0  0  0  0  0  0
  -30.2810  -16.8140   20.6780 C   0  0  0  0  0  0  0  0  0  0  0  0
  -29.6610  -19.2400   20.5710 C   0  0  0  0  0  0  0  0  0  0  0  0
  -30.9770  -19.0450   20.3940 N   0  0  0  0  0  0  0  0  0  0  0  0
  -28.7950  -17.7200   20.8250 S   0  0  0  0  0  0  0  0  0  0  0  0
  -30.9060  -14.5210   20.1110 C   0  0  0  0  0  0  0  0  0  0  0  0
  -30.5480  -12.3960   18.9020 C   0  0  0  0  0  2  0  0  0  0  0  0
  -29.5290  -12.6420   17.7700 C   0  0  0  0  0  2  0  0  0  0  0  0
  -28.0840  -12.4920   18.2880 C   0  0  0  0  0  2  0  0  0  0  0  0
  -27.8340  -13.2800   19.6010 C   0  0  0  0  0  3  0  0  0  0  0  0
  -28.9560  -13.0030   20.6280 C   0  0  0  0  0  2  0  0  0  0  0  0
  -30.2450  -13.3360   19.9920 N   0  0  0  0  0  0  0  0  0  0  0  0
  -31.9790  -14.7560   19.5480 O   0  0  0  0  0  0  0  0  0  0  0  0
  -30.2390  -15.4570   20.8120 N   0  0  0  0  0  0  0  0  0  0  0  0
  -29.4080  -15.0940   21.2570 H   0  0  0  0  0  0  0  0  0  0  0  0
  -25.4860  -13.8810   20.4720 C   0  0  0  0  0  0  0  0  0  0  0  0
  -24.4370  -13.1040   20.8810 C   0  0  0  0  0  0  0  0  0  0  0  0
  -24.8820  -11.7510   20.7760 C   0  0  0  0  0  0  0  0  0  0  0  0
  -26.5090  -13.0020   20.1500 N   0  0  0  0  0  0  0  0  0  0  0  0
  -26.1510  -11.7130   20.3870 N   0  0  0  0  0  0  0  0  0  0  0  0
  -24.1600  -10.4870   20.9680 C   0  0  0  0  0  0  0  0  0  0  0  0
  -24.6020   -9.5150   21.8930 C   0  0  0  0  0  3  0  0  0  0  0  0
  -23.8810   -8.3160   22.0710 C   0  0  0  0  0  3  0  0  0  0  0  0
  -22.7010   -8.0800   21.3260 C   0  0  0  0  0  0  0  0  0  0  0  0
  -22.2770   -9.0400   20.3910 C   0  0  0  0  0  3  0  0  0  0  0  0
  -22.9980  -10.2310   20.2110 C   0  0  0  0  0  3  0  0  0  0  0  0
  -21.9500   -6.9330   21.4150 O   0  0  0  0  0  0  0  0  0  0  0  0
  -21.8660   -6.2160   22.5820 C   0  0  0  0  0  0  0  0  0  0  0  0
  -21.3540   -6.7820   23.7700 C   0  0  0  0  0  3  0  0  0  0  0  0
  -21.2220   -5.9900   24.9280 C   0  0  0  0  0  3  0  0  0  0  0  0
  -21.5900   -4.6320   24.8970 C   0  0  0  0  0  0  0  0  0  0  0  0
  -22.0950   -4.0650   23.7140 C   0  0  0  0  0  3  0  0  0  0  0  0
  -22.2300   -4.8550   22.5590 C   0  0  0  0  0  0  0  0  0  0  0  0
  -22.6970   -4.2980   21.4160 F   0  0  0  0  0  0  0  0  0  0  0  0
  -21.4550   -3.8670   26.0060 F   0  0  0  0  0  0  0  0  0  0  0  0
  -23.0640  -13.5810   21.2570 C   0  0  0  0  0  0  0  0  0  0  0  0
  -22.3820  -12.8580   22.1390 N   0  0  0  0  0  0  0  0  0  0  0  0
  -22.6050  -14.6300   20.8080 O   0  0  0  0  0  0  0  0  0  0  0  0
  -22.7660  -12.0090   22.5260 H   0  0  0  0  0  0  0  0  0  0  0  0
  -21.4630  -13.1610   22.4320 H   0  0  0  0  0  0  0  0  0  0  0  0
  -25.6470  -15.2550   20.3280 N   0  0  0  0  0  0  0  0  0  0  0  0
  -24.8790  -15.8970   20.4860 H   0  0  0  0  0  0  0  0  0  0  0  0
  -26.4650  -15.7060   19.9380 H   0  0  0  0  0  0  0  0  0  0  0  0
  -28.5180  -23.1370   22.4110 C   0  0  0  0  0  1  0  0  0  0  0  0
  -28.7800  -22.9770   20.9010 C   0  0  0  0  0  3  0  0  0  0  0  0
  -29.3880  -24.2660   20.2770 C   0  0  0  0  0  0  0  0  0  0  0  0
  -30.6000  -24.5060   20.2710 O   0  0  0  0  0  0  0  0  0  0  0  0
  -28.3720  -25.2560   19.6580 C   0  0  0  0  0  2  0  0  0  0  0  0
  -28.5530  -26.6490   20.0310 O   0  0  0  0  0  0  0  0  0  0  0  0
  -24.7160  -31.7730   23.2360 C   0  0  0  0  0  0  0  0  0  0  0  0
  -27.4020  -27.4310   20.0040 C   0  0  0  0  0  0  0  0  0  0  0  0
  -23.5370  -30.4430   21.5210 C   0  0  0  0  0  3  0  0  0  0  0  0
  -25.0110  -28.9730   20.0490 C   0  0  0  0  0  0  0  0  0  0  0  0
  -26.0720  -30.7940   21.3840 C   0  0  0  0  0  2  0  0  0  0  0  0
  -26.1640  -29.4510   20.6830 C   0  0  0  0  0  0  0  0  0  0  0  0
  -27.3600  -28.6870   20.6640 C   0  0  0  0  0  3  0  0  0  0  0  0
  -26.2270  -27.0000   19.3350 C   0  0  0  0  0  3  0  0  0  0  0  0
  -25.0400  -27.7470   19.3710 C   0  0  0  0  0  3  0  0  0  0  0  0
  -23.7680  -29.8290   20.1150 C   0  0  0  0  0  2  0  0  0  0  0  0
  -24.7930  -31.0160   22.1040 N   0  0  0  0  0  0  0  0  0  0  0  0
  -23.6260  -32.0250   23.7670 O   0  0  0  0  0  0  0  0  0  0  0  0
  -22.8730  -29.3790   22.4250 C   0  0  0  0  0  0  0  0  0  0  0  0
  -21.5450  -29.2240   22.2950 N   0  0  0  0  0  0  0  0  0  0  0  0
  -23.5480  -28.6980   23.2010 O   0  0  0  0  0  0  0  0  0  0  0  0
  -21.0580  -29.8230   21.6420 H   0  0  0  0  0  0  0  0  0  0  0  0
  -18.1460  -28.1000   22.7820 C   0  0  0  0  0  0  0  0  0  0  0  0
  -20.7150  -28.2610   23.0190 C   0  0  0  0  0  3  0  0  0  0  0  0
  -20.7640  -26.8710   22.3440 C   0  0  0  0  0  2  0  0  0  0  0  0
  -19.6340  -26.6500   21.3350 C   0  0  0  0  0  2  0  0  0  0  0  0
  -18.2690  -26.7930   22.0150 C   0  0  0  0  0  2  0  0  0  0  0  0
  -19.2950  -28.7960   23.2390 C   0  0  0  0  0  0  0  0  0  0  0  0
  -19.1260  -30.0240   23.9150 C   0  0  0  0  0  3  0  0  0  0  0  0
  -17.8400  -30.5510   24.1420 C   0  0  0  0  0  3  0  0  0  0  0  0
  -16.7060  -29.8480   23.7010 C   0  0  0  0  0  3  0  0  0  0  0  0
  -16.8590  -28.6240   23.0240 C   0  0  0  0  0  3  0  0  0  0  0  0
  -25.9920  -32.3780   23.8990 C   0  0  0  0  0  3  0  0  0  0  0  0
  -26.4950  -31.5520   25.1460 C   0  0  1  0  0  0  0  0  0  0  0  0
  -25.3890  -31.2640   26.1860 C   0  0  0  0  0  1  0  0  0  0  0  0
  -27.0860  -30.1940   24.7000 C   0  0  0  0  0  1  0  0  0  0  0  0
  -27.6350  -32.3180   25.8580 C   0  0  0  0  0  1  0  0  0  0  0  0
  -25.6790  -33.7600   24.2830 N   0  0  0  0  0  0  0  0  0  0  0  0
  -26.0210  -34.8430   23.5720 C   0  0  0  0  0  0  0  0  0  0  0  0
  -26.7050  -34.7830   22.5460 O   0  0  0  0  0  0  0  0  0  0  0  0
  -25.0760  -33.8850   25.0810 H   0  0  0  0  0  0  0  0  0  0  0  0
  -24.3010  -36.6480   23.2610 C   0  0  0  0  0  1  0  0  0  0  0  0
  -25.5250  -36.2100   24.0790 C   0  0  0  0  0  3  0  0  0  0  0  0
  -27.6380  -37.0590   24.9970 C   0  0  0  0  0  1  0  0  0  0  0  0
  -26.5600  -37.2650   24.0340 N   0  0  0  0  0  0  0  0  0  0  0  0
  -26.1490  -38.1780   24.2060 H   0  0  0  0  0  0  0  0  0  0  0  0
  1  7  1  0
  1  2  1  0
  2 49  1  0
  3  1  2  0
  4  2  1  0
  5  6  2  0
  6 18  1  0
  6  9  1  0
  7  9  1  0
  8  5  1  0
  8  7  2  0
 10 18  1  0
 11 16  1  0
 12 13  1  0
 12 11  1  0
 14 13  1  0
 14 23  1  0
 14 15  1  0
 16 10  1  0
 16 15  1  0
 17 10  2  0
 18 19  1  0
 20 21  2  0
 21 40  1  0
 22 21  1  0
 22 25  1  0
 23 24  1  0
 23 20  1  0
 24 22  2  0
 25 26  1  0
 26 27  2  0
 28 31  1  0
 28 27  1  0
 29 28  2  0
 30 29  1  0
 30 25  2  0
 31 32  1  0
 32 33  1  0
 33 34  2  0
 35 34  1  0
 35 39  1  0
 36 35  2  0
 37 32  2  0
 37 36  1  0
 38 37  1  0
 40 41  1  0
 41 44  1  0
 41 43  1  0
 42 40  2  0
 45 20  1  0
 45 46  1  0
 47 45  1  0
 49 48  1  0
 50 49  1  0
 51 50  2  0
 52 53  1  0
 52 50  1  0
 54 65  2  0
 55 53  1  0
 55 60  1  0
 56 64  1  0
 56 66  1  0
 57 63  1  0
 57 59  1  0
 58 64  1  0
 59 58  1  0
 60 59  2  0
 61 62  1  0
 61 55  2  0
 62 57  2  0
 63 56  1  0
 64 54  1  0
 66 68  2  0
 67 66  1  0
 69 67  1  0
 70 79  2  0
 70 75  1  0
 71 67  1  0
 71 75  1  0
 72 71  1  0
 73 74  1  0
 73 72  1  0
 74 70  1  0
 75 76  2  0
 76 77  1  0
 78 77  2  0
 79 78  1  0
 80 54  1  0
 80 85  1  0
 80 81  1  0
 81 84  1  1
 81 82  1  0
 83 81  1  0
 85 88  1  0
 86 90  1  0
 86 85  1  0
 87 86  2  0
 90 89  1  0
 92 90  1  0
 92 93  1  0
 92 91  1  0
M  ISO  4  10 100  18 100  52 101  53 101
M  END
>  <TORSDO>  (75) 
F 20

>  <SCORE>  (75) 
-13.114

>  <name>  (75) 
75

>  <ligand_id>  (75) 
75

>  <original_smiles>  (75) 
[H]c1nc(C(=O)N([H])C([H])(C(=O)C([H])([H])Oc2c([H])c([H])c3c(c2[H])C([H])([H])N(C(=O)C([H])(N([H])C(=O)C([H])(N([H])C([H])([H])[H])C([H])([H])[H])C(C([H])([H])[H])(C([H])([H])[H])C([H])([H])[H])C([H])(C(=O)N([H])C2([H])c4c([H])c([H])c([H])c([H])c4C([H])([H])C([H])([H])C2([H])[H])C3([H])[H])C([H])([H])[H])sc1N([H])C(=O)N1C([H])([H])C([H])([H])C([H])([H])C([H])(n2nc(-c3c([H])c([H])c(Oc4c([H])c([H])c(F)c([H])c4F)c([H])c3[H])c(C(=O)N([H])[H])c2N([H])[H])C1([H])[H]

>  <smiles>  (75) 
[H]c1nc(C(=O)N([H])C([H])(C(=O)C([H])([H])Oc2c([H])c([H])c3c(c2[H])C([H])([H])N(C(=O)C([H])(N([H])C(=O)C([H])(N([H])C([H])([H])[H])C([H])([H])[H])C(C([H])([H])[H])(C([H])([H])[H])C([H])([H])[H])C([H])(C(=O)N([H])C2([H])c4c([H])c([H])c([H])c([H])c4C([H])([H])C([H])([H])C2([H])[H])C3([H])[H])C([H])([H])[H])sc1N([H])C(=O)N1C([H])([H])C([H])([H])C([H])([H])C([H])(n2nc(-c3c([H])c([H])c(Oc4c([H])c([H])c(F)c([H])c4F)c([H])c3[H])c(C(=O)N([H])[H])c2N([H])[H])C1([H])[H]

$$$$
76:0:0
     RDKit          3D

 94102  0  0  1  0  0  0  0  0999 V2000
  -28.6310  -22.5870   20.4790 C   0  0  0  0  0  0  0  0  0  0  0  0
  -29.5530  -21.6280   20.1140 N   0  0  0  0  0  0  0  0  0  0  0  0
  -27.5760  -22.2810   21.0390 O   0  0  0  0  0  0  0  0  0  0  0  0
  -30.3690  -22.0200   19.6640 H   0  0  0  0  0  0  0  0  0  0  0  0
  -30.8960  -18.0620   19.8410 C   0  0  0  0  0  3  0  0  0  0  0  0
  -28.7380  -18.0140   20.8290 C   0  0  0  0  0  3  0  0  0  0  0  0
  -29.8570  -17.2580   20.3840 C   0  0  0  0  0  0  0  0  0  0  0  0
  -30.7620  -19.4900   19.7710 C   0  0  0  0  0  0  0  0  0  0  0  0
  -29.5910  -20.1580   20.2400 C   0  0  0  0  0  0  0  0  0  0  0  0
  -28.6040  -19.3760   20.7650 N   0  0  0  0  0  0  0  0  0  0  0  0
  -31.7720  -20.2250   19.2420 F   0  0  0  0  0  0  0  0  0  0  0  0
  -30.6310  -14.7560   20.0380 C   0  0  0  0  0  0  0  0  0  0  0  0
  -30.4090  -12.5280   18.9340 C   0  0  0  0  0  2  0  0  0  0  0  0
  -29.3940  -12.6610   17.7740 C   0  0  0  0  0  2  0  0  0  0  0  0
  -27.9490  -12.4730   18.2790 C   0  0  0  0  0  2  0  0  0  0  0  0
  -27.6510  -13.3030   19.5560 C   0  0  0  0  0  3  0  0  0  0  0  0
  -28.7710  -13.1320   20.6070 C   0  0  0  0  0  2  0  0  0  0  0  0
  -30.0400  -13.5160   19.9700 N   0  0  0  0  0  0  0  0  0  0  0  0
  -31.7610  -14.9490   19.5790 O   0  0  0  0  0  0  0  0  0  0  0  0
  -29.8310  -15.7800   20.4980 N   0  0  0  0  0  0  0  0  0  0  0  0
  -28.9820  -15.4210   20.9060 H   0  0  0  0  0  0  0  0  0  0  0  0
  -25.3010  -13.8760   20.4210 C   0  0  0  0  0  0  0  0  0  0  0  0
  -24.2570  -13.0890   20.8290 C   0  0  0  0  0  0  0  0  0  0  0  0
  -24.7190  -11.7410   20.7340 C   0  0  0  0  0  0  0  0  0  0  0  0
  -26.3320  -13.0040   20.1050 N   0  0  0  0  0  0  0  0  0  0  0  0
  -25.9900  -11.7130   20.3530 N   0  0  0  0  0  0  0  0  0  0  0  0
  -24.0050  -10.4720   20.9280 C   0  0  0  0  0  0  0  0  0  0  0  0
  -24.4410   -9.5160   21.8720 C   0  0  0  0  0  3  0  0  0  0  0  0
  -23.7270   -8.3120   22.0540 C   0  0  0  0  0  3  0  0  0  0  0  0
  -22.5630   -8.0550   21.2910 C   0  0  0  0  0  0  0  0  0  0  0  0
  -22.1470   -9.0000   20.3360 C   0  0  0  0  0  3  0  0  0  0  0  0
  -22.8620  -10.1950   20.1530 C   0  0  0  0  0  3  0  0  0  0  0  0
  -21.8220   -6.9020   21.3800 O   0  0  0  0  0  0  0  0  0  0  0  0
  -21.7060   -6.2100   22.5600 C   0  0  0  0  0  0  0  0  0  0  0  0
  -21.1680   -6.8050   23.7220 C   0  0  0  0  0  3  0  0  0  0  0  0
  -21.0020   -6.0380   24.8920 C   0  0  0  0  0  3  0  0  0  0  0  0
  -21.3640   -4.6780   24.9010 C   0  0  0  0  0  0  0  0  0  0  0  0
  -21.8960   -4.0830   23.7430 C   0  0  0  0  0  3  0  0  0  0  0  0
  -22.0630   -4.8470   22.5760 C   0  0  0  0  0  0  0  0  0  0  0  0
  -22.5560   -4.2640   21.4570 F   0  0  0  0  0  0  0  0  0  0  0  0
  -21.1980   -3.9400   26.0240 F   0  0  0  0  0  0  0  0  0  0  0  0
  -22.8760  -13.5550   21.1890 C   0  0  0  0  0  0  0  0  0  0  0  0
  -22.1960  -12.8320   22.0720 N   0  0  0  0  0  0  0  0  0  0  0  0
  -22.4110  -14.5960   20.7240 O   0  0  0  0  0  0  0  0  0  0  0  0
  -22.5870  -11.9900   22.4700 H   0  0  0  0  0  0  0  0  0  0  0  0
  -21.2720  -13.1250   22.3550 H   0  0  0  0  0  0  0  0  0  0  0  0
  -25.4530  -15.2510   20.2700 N   0  0  0  0  0  0  0  0  0  0  0  0
  -24.6820  -15.8910   20.4170 H   0  0  0  0  0  0  0  0  0  0  0  0
  -26.2540  -15.6910   19.8360 H   0  0  0  0  0  0  0  0  0  0  0  0
  -28.1410  -25.0790   20.4340 C   0  0  0  0  0  3  0  0  0  0  0  0
  -28.9840  -24.0180   20.1540 C   0  0  0  0  0  0  0  0  0  0  0  0
  -30.1650  -24.2670   19.5700 O   0  0  0  0  0  0  0  0  0  0  0  0
  -30.2150  -25.2070   19.4440 H   0  0  0  0  0  0  0  0  0  0  0  0
  -28.3540  -26.4630   20.1840 O   0  0  0  0  0  0  0  0  0  0  0  0
  -24.6180  -31.8860   23.2330 C   0  0  0  0  0  0  0  0  0  0  0  0
  -27.2480  -27.3340   20.1670 C   0  0  0  0  0  0  0  0  0  0  0  0
  -23.4200  -30.4880   21.5900 C   0  0  0  0  0  3  0  0  0  0  0  0
  -24.8780  -28.9460   20.1570 C   0  0  0  0  0  0  0  0  0  0  0  0
  -25.9590  -30.8130   21.4090 C   0  0  0  0  0  2  0  0  0  0  0  0
  -26.0450  -29.4350   20.7590 C   0  0  0  0  0  0  0  0  0  0  0  0
  -27.2330  -28.6400   20.7570 C   0  0  0  0  0  3  0  0  0  0  0  0
  -26.0610  -26.9090   19.5310 C   0  0  0  0  0  3  0  0  0  0  0  0
  -24.8880  -27.6880   19.5340 C   0  0  0  0  0  3  0  0  0  0  0  0
  -23.6370  -29.8170   20.2070 C   0  0  0  0  0  2  0  0  0  0  0  0
  -24.6840  -31.0800   22.1340 N   0  0  0  0  0  0  0  0  0  0  0  0
  -23.5340  -32.1580   23.7700 O   0  0  0  0  0  0  0  0  0  0  0  0
  -22.7600  -29.4660   22.5470 C   0  0  0  0  0  0  0  0  0  0  0  0
  -21.4340  -29.2870   22.4230 N   0  0  0  0  0  0  0  0  0  0  0  0
  -23.4420  -28.8380   23.3630 O   0  0  0  0  0  0  0  0  0  0  0  0
  -20.9430  -29.8450   21.7380 H   0  0  0  0  0  0  0  0  0  0  0  0
  -18.0580  -28.0920   22.9350 C   0  0  0  0  0  0  0  0  0  0  0  0
  -20.6190  -28.3450   23.1910 C   0  0  0  0  0  3  0  0  0  0  0  0
  -20.7150  -26.9170   22.6040 C   0  0  0  0  0  2  0  0  0  0  0  0
  -19.6060  -26.6040   21.5940 C   0  0  0  0  0  2  0  0  0  0  0  0
  -18.2280  -26.7470   22.2480 C   0  0  0  0  0  2  0  0  0  0  0  0
  -19.1810  -28.8490   23.3640 C   0  0  0  0  0  0  0  0  0  0  0  0
  -18.9670  -30.1070   23.9670 C   0  0  0  0  0  3  0  0  0  0  0  0
  -17.6640  -30.6090   24.1450 C   0  0  0  0  0  3  0  0  0  0  0  0
  -16.5560  -29.8490   23.7320 C   0  0  0  0  0  3  0  0  0  0  0  0
  -16.7540  -28.5910   23.1330 C   0  0  0  0  0  3  0  0  0  0  0  0
  -25.8990  -32.5230   23.8570 C   0  0  0  0  0  3  0  0  0  0  0  0
  -26.4130  -31.7540   25.1370 C   0  0  1  0  0  0  0  0  0  0  0  0
  -25.3160  -31.5150   26.2010 C   0  0  0  0  0  1  0  0  0  0  0  0
  -27.0020  -30.3780   24.7500 C   0  0  0  0  0  1  0  0  0  0  0  0
  -27.5580  -32.5530   25.8020 C   0  0  0  0  0  1  0  0  0  0  0  0
  -25.5850  -33.9210   24.1860 N   0  0  0  0  0  0  0  0  0  0  0  0
  -25.9150  -34.9730   23.4250 C   0  0  0  0  0  0  0  0  0  0  0  0
  -26.5820  -34.8700   22.3930 O   0  0  0  0  0  0  0  0  0  0  0  0
  -24.9920  -34.0750   24.9880 H   0  0  0  0  0  0  0  0  0  0  0  0
  -24.1860  -36.7660   23.0700 C   0  0  0  0  0  1  0  0  0  0  0  0
  -25.4260  -36.3620   23.8830 C   0  0  0  0  0  3  0  0  0  0  0  0
  -27.5560  -37.2510   24.7190 C   0  0  0  0  0  1  0  0  0  0  0  0
  -26.4590  -37.4150   23.7700 N   0  0  0  0  0  0  0  0  0  0  0  0
  -26.0510  -38.3360   23.9130 H   0  0  0  0  0  0  0  0  0  0  0  0
  1  3  2  0
  2  9  1  0
  2  1  1  0
  4  2  1  0
  5  7  1  0
  7 20  1  0
  7  6  2  0
  8  5  2  0
  8  9  1  0
  9 10  2  0
 10  6  1  0
 11  8  1  0
 12 20  1  0
 13 18  1  0
 14 15  1  0
 14 13  1  0
 16 15  1  0
 16 25  1  0
 16 17  1  0
 18 12  1  0
 18 17  1  0
 19 12  2  0
 20 21  1  0
 22 23  2  0
 23 42  1  0
 24 23  1  0
 24 27  1  0
 25 26  1  0
 25 22  1  0
 26 24  2  0
 27 28  1  0
 28 29  2  0
 30 33  1  0
 30 29  1  0
 31 30  2  0
 32 31  1  0
 32 27  2  0
 33 34  1  0
 34 39  2  0
 34 35  1  0
 35 36  2  0
 36 37  1  0
 37 41  1  0
 38 37  2  0
 39 38  1  0
 40 39  1  0
 42 43  1  0
 43 46  1  0
 43 45  1  0
 44 42  2  0
 47 48  1  0
 47 22  1  0
 49 47  1  0
 51 50  2  0
 51  1  1  0
 52 51  1  0
 53 52  1  0
 54 50  1  0
 55 66  2  0
 56 54  1  0
 56 61  1  0
 57 65  1  0
 57 67  1  0
 58 64  1  0
 58 60  1  0
 59 65  1  0
 60 59  1  0
 61 60  2  0
 62 63  1  0
 62 56  2  0
 63 58  2  0
 64 57  1  0
 65 55  1  0
 67 69  2  0
 68 67  1  0
 70 68  1  0
 71 80  2  0
 71 76  1  0
 72 68  1  0
 72 76  1  0
 73 72  1  0
 74 75  1  0
 74 73  1  0
 75 71  1  0
 76 77  2  0
 77 78  1  0
 79 78  2  0
 80 79  1  0
 81 55  1  0
 81 86  1  0
 81 82  1  0
 82 85  1  1
 82 83  1  0
 84 82  1  0
 86 89  1  0
 87 91  1  0
 87 86  1  0
 88 87  2  0
 91 90  1  0
 93 91  1  0
 93 94  1  0
 93 92  1  0
M  ISO  4  12 100  20 100  50 101  54 101
M  END
>  <TORSDO>  (76) 
F 19

>  <SCORE>  (76) 
-14.276

>  <name>  (76) 
76

>  <ligand_id>  (76) 
76

>  <original_smiles>  (76) 
[H]OC(C(=O)N([H])c1nc([H])c(N([H])C(=O)N2C([H])([H])C([H])([H])C([H])([H])C([H])(n3nc(-c4c([H])c([H])c(Oc5c([H])c([H])c(F)c([H])c5F)c([H])c4[H])c(C(=O)N([H])[H])c3N([H])[H])C2([H])[H])c([H])c1F)=C([H])Oc1c([H])c([H])c2c(c1[H])C([H])([H])N(C(=O)C([H])(N([H])C(=O)C([H])(N([H])C([H])([H])[H])C([H])([H])[H])C(C([H])([H])[H])(C([H])([H])[H])C([H])([H])[H])C([H])(C(=O)N([H])C1([H])c3c([H])c([H])c([H])c([H])c3C([H])([H])C([H])([H])C1([H])[H])C2([H])[H]

>  <smiles>  (76) 
[H]OC(C(=O)N([H])c1nc([H])c(N([H])C(=O)N2C([H])([H])C([H])([H])C([H])([H])C([H])(n3nc(-c4c([H])c([H])c(Oc5c([H])c([H])c(F)c([H])c5F)c([H])c4[H])c(C(=O)N([H])[H])c3N([H])[H])C2([H])[H])c([H])c1F)=C([H])Oc1c([H])c([H])c2c(c1[H])C([H])([H])N(C(=O)C([H])(N([H])C(=O)C([H])(N([H])C([H])([H])[H])C([H])([H])[H])C(C([H])([H])[H])(C([H])([H])[H])C([H])([H])[H])C([H])(C(=O)N([H])C1([H])c3c([H])c([H])c([H])c([H])c3C([H])([H])C([H])([H])C1([H])[H])C2([H])[H]

$$$$
77:0:0
     RDKit          3D

 96104  0  0  1  0  0  0  0  0999 V2000
  -28.7080  -22.6060   20.0400 C   0  0  0  0  0  0  0  0  0  0  0  0
  -29.5270  -21.6660   20.6230 N   0  0  0  0  0  0  0  0  0  0  0  0
  -27.8670  -22.2720   19.2020 O   0  0  0  0  0  0  0  0  0  0  0  0
  -30.2280  -22.0890   21.2180 H   0  0  0  0  0  0  0  0  0  0  0  0
  -28.5250  -19.3480   20.0980 C   0  0  0  0  0  3  0  0  0  0  0  0
  -29.5890  -20.1890   20.5290 C   0  0  0  0  0  0  0  0  0  0  0  0
  -29.7840  -17.2330   20.5630 C   0  0  0  0  0  0  0  0  0  0  0  0
  -28.6200  -17.9220   20.1280 C   0  0  0  0  0  0  0  0  0  0  0  0
  -30.7610  -19.4960   20.9590 C   0  0  0  0  0  0  0  0  0  0  0  0
  -30.8640  -18.0640   20.9740 C   0  0  0  0  0  0  0  0  0  0  0  0
  -27.5460  -17.1870   19.7450 F   0  0  0  0  0  0  0  0  0  0  0  0
  -31.8160  -20.2270   21.3960 F   0  0  0  0  0  0  0  0  0  0  0  0
  -32.0020  -17.4960   21.4440 F   0  0  0  0  0  0  0  0  0  0  0  0
  -30.5590  -14.7280   20.3660 C   0  0  0  0  0  0  0  0  0  0  0  0
  -30.3680  -12.4810   19.2970 C   0  0  0  0  0  2  0  0  0  0  0  0
  -29.3950  -12.5960   18.1020 C   0  0  0  0  0  2  0  0  0  0  0  0
  -27.9320  -12.4230   18.5560 C   0  0  0  0  0  2  0  0  0  0  0  0
  -27.5890  -13.2770   19.8060 C   0  0  0  0  0  3  0  0  0  0  0  0
  -28.6710  -13.1260   20.8990 C   0  0  0  0  0  2  0  0  0  0  0  0
  -29.9640  -13.4920   20.2970 N   0  0  0  0  0  0  0  0  0  0  0  0
  -31.7210  -14.8960   19.9850 O   0  0  0  0  0  0  0  0  0  0  0  0
  -29.7160  -15.7660   20.6760 N   0  0  0  0  0  0  0  0  0  0  0  0
  -28.7780  -15.4360   20.8430 H   0  0  0  0  0  0  0  0  0  0  0  0
  -25.2110  -13.8660   20.5780 C   0  0  0  0  0  0  0  0  0  0  0  0
  -24.1500  -13.0860   20.9570 C   0  0  0  0  0  0  0  0  0  0  0  0
  -24.6140  -11.7370   20.9010 C   0  0  0  0  0  0  0  0  0  0  0  0
  -26.2500  -12.9890   20.3130 N   0  0  0  0  0  0  0  0  0  0  0  0
  -25.8980  -11.7020   20.5680 N   0  0  0  0  0  0  0  0  0  0  0  0
  -23.8910  -10.4710   21.0900 C   0  0  0  0  0  0  0  0  0  0  0  0
  -24.3440   -9.4900   21.9990 C   0  0  0  0  0  3  0  0  0  0  0  0
  -23.6220   -8.2910   22.1760 C   0  0  0  0  0  3  0  0  0  0  0  0
  -22.4320   -8.0630   21.4450 C   0  0  0  0  0  0  0  0  0  0  0  0
  -21.9970   -9.0340   20.5250 C   0  0  0  0  0  3  0  0  0  0  0  0
  -22.7200  -10.2250   20.3450 C   0  0  0  0  0  3  0  0  0  0  0  0
  -21.6800   -6.9170   21.5330 O   0  0  0  0  0  0  0  0  0  0  0  0
  -21.6600   -6.1540   22.6740 C   0  0  0  0  0  0  0  0  0  0  0  0
  -21.2500   -6.6840   23.9160 C   0  0  0  0  0  3  0  0  0  0  0  0
  -21.1770   -5.8480   25.0480 C   0  0  0  0  0  3  0  0  0  0  0  0
  -21.5060   -4.4830   24.9380 C   0  0  0  0  0  0  0  0  0  0  0  0
  -21.9110   -3.9530   23.7000 C   0  0  0  0  0  3  0  0  0  0  0  0
  -21.9840   -4.7870   22.5710 C   0  0  0  0  0  0  0  0  0  0  0  0
  -22.3540   -4.2660   21.3760 F   0  0  0  0  0  0  0  0  0  0  0  0
  -21.4300   -3.6780   26.0240 F   0  0  0  0  0  0  0  0  0  0  0  0
  -22.7590  -13.5600   21.2590 C   0  0  0  0  0  0  0  0  0  0  0  0
  -22.0450  -12.8520   22.1280 N   0  0  0  0  0  0  0  0  0  0  0  0
  -22.3100  -14.5920   20.7610 O   0  0  0  0  0  0  0  0  0  0  0  0
  -22.4190  -12.0170   22.5540 H   0  0  0  0  0  0  0  0  0  0  0  0
  -21.1110  -13.1510   22.3730 H   0  0  0  0  0  0  0  0  0  0  0  0
  -25.3670  -15.2390   20.4180 N   0  0  0  0  0  0  0  0  0  0  0  0
  -24.5980  -15.8820   20.5660 H   0  0  0  0  0  0  0  0  0  0  0  0
  -26.2030  -15.7080   20.0870 H   0  0  0  0  0  0  0  0  0  0  0  0
  -28.2160  -25.0840   19.9080 C   0  0  0  0  0  3  0  0  0  0  0  0
  -28.9110  -24.0350   20.4730 C   0  0  0  0  0  0  0  0  0  0  0  0
  -29.7970  -24.2910   21.4470 O   0  0  0  0  0  0  0  0  0  0  0  0
  -29.7870  -25.2300   21.5870 H   0  0  0  0  0  0  0  0  0  0  0  0
  -28.2970  -26.4690   20.2260 O   0  0  0  0  0  0  0  0  0  0  0  0
  -24.5730  -31.9040   23.2540 C   0  0  0  0  0  0  0  0  0  0  0  0
  -27.1700  -27.3220   20.1800 C   0  0  0  0  0  0  0  0  0  0  0  0
  -23.3640  -30.5090   21.6180 C   0  0  0  0  0  3  0  0  0  0  0  0
  -24.8060  -28.9590   20.1860 C   0  0  0  0  0  0  0  0  0  0  0  0
  -25.9060  -30.8150   21.4320 C   0  0  0  0  0  2  0  0  0  0  0  0
  -25.9800  -29.4350   20.7820 C   0  0  0  0  0  0  0  0  0  0  0  0
  -27.1600  -28.6280   20.7720 C   0  0  0  0  0  3  0  0  0  0  0  0
  -25.9620  -26.9080   19.5620 C   0  0  0  0  0  3  0  0  0  0  0  0
  -24.8010  -27.7010   19.5690 C   0  0  0  0  0  3  0  0  0  0  0  0
  -23.5730  -29.8370   20.2360 C   0  0  0  0  0  2  0  0  0  0  0  0
  -24.6340  -31.0930   22.1570 N   0  0  0  0  0  0  0  0  0  0  0  0
  -23.4920  -32.1850   23.7900 O   0  0  0  0  0  0  0  0  0  0  0  0
  -22.7010  -29.4930   22.5780 C   0  0  0  0  0  0  0  0  0  0  0  0
  -21.3750  -29.3130   22.4500 N   0  0  0  0  0  0  0  0  0  0  0  0
  -23.3790  -28.8690   23.3990 O   0  0  0  0  0  0  0  0  0  0  0  0
  -20.8870  -29.8690   21.7610 H   0  0  0  0  0  0  0  0  0  0  0  0
  -17.9970  -28.1190   22.9520 C   0  0  0  0  0  0  0  0  0  0  0  0
  -20.5550  -28.3770   23.2230 C   0  0  0  0  0  3  0  0  0  0  0  0
  -20.6570  -26.9450   22.6490 C   0  0  0  0  0  2  0  0  0  0  0  0
  -19.5550  -26.6210   21.6350 C   0  0  0  0  0  2  0  0  0  0  0  0
  -18.1720  -26.7690   22.2780 C   0  0  0  0  0  2  0  0  0  0  0  0
  -19.1160  -28.8820   23.3810 C   0  0  0  0  0  0  0  0  0  0  0  0
  -18.8970  -30.1450   23.9710 C   0  0  0  0  0  3  0  0  0  0  0  0
  -17.5920  -30.6470   24.1370 C   0  0  0  0  0  3  0  0  0  0  0  0
  -16.4880  -29.8820   23.7240 C   0  0  0  0  0  3  0  0  0  0  0  0
  -16.6900  -28.6190   23.1380 C   0  0  0  0  0  3  0  0  0  0  0  0
  -25.8590  -32.5340   23.8730 C   0  0  0  0  0  3  0  0  0  0  0  0
  -26.3720  -31.7640   25.1520 C   0  0  1  0  0  0  0  0  0  0  0  0
  -25.2790  -31.5310   26.2200 C   0  0  0  0  0  1  0  0  0  0  0  0
  -26.9520  -30.3840   24.7650 C   0  0  0  0  0  1  0  0  0  0  0  0
  -27.5260  -32.5570   25.8110 C   0  0  0  0  0  1  0  0  0  0  0  0
  -25.5520  -33.9340   24.2020 N   0  0  0  0  0  0  0  0  0  0  0  0
  -25.8750  -34.9840   23.4360 C   0  0  0  0  0  0  0  0  0  0  0  0
  -26.5310  -34.8780   22.3970 O   0  0  0  0  0  0  0  0  0  0  0  0
  -24.9660  -34.0900   25.0090 H   0  0  0  0  0  0  0  0  0  0  0  0
  -24.1400  -36.7770   23.1010 C   0  0  0  0  0  1  0  0  0  0  0  0
  -25.3930  -36.3750   23.8960 C   0  0  0  0  0  3  0  0  0  0  0  0
  -27.5370  -37.2660   24.6950 C   0  0  0  0  0  1  0  0  0  0  0  0
  -26.4240  -37.4270   23.7640 N   0  0  0  0  0  0  0  0  0  0  0  0
  -26.0190  -38.3490   23.9120 H   0  0  0  0  0  0  0  0  0  0  0  0
  1 53  1  0
  1  2  1  0
  2  4  1  0
  3  1  2  0
  5  8  2  0
  5  6  1  0
  6  2  1  0
  6  9  2  0
  7 22  1  0
  7 10  2  0
  8  7  1  0
  9 10  1  0
  9 12  1  0
 10 13  1  0
 11  8  1  0
 14 22  1  0
 15 20  1  0
 16 17  1  0
 16 15  1  0
 18 17  1  0
 18 27  1  0
 18 19  1  0
 20 14  1  0
 20 19  1  0
 21 14  2  0
 22 23  1  0
 24 25  2  0
 25 44  1  0
 26 25  1  0
 26 29  1  0
 27 28  1  0
 27 24  1  0
 28 26  2  0
 29 30  1  0
 30 31  2  0
 32 35  1  0
 32 31  1  0
 33 32  2  0
 34 33  1  0
 34 29  2  0
 35 36  1  0
 36 37  1  0
 37 38  2  0
 39 38  1  0
 39 43  1  0
 40 39  2  0
 41 36  2  0
 41 40  1  0
 42 41  1  0
 44 45  1  0
 45 48  1  0
 45 47  1  0
 46 44  2  0
 49 50  1  0
 49 24  1  0
 51 49  1  0
 52 56  1  0
 52 53  2  0
 53 54  1  0
 54 55  1  0
 57 68  2  0
 58 56  1  0
 58 63  1  0
 59 67  1  0
 59 69  1  0
 60 66  1  0
 60 62  1  0
 61 67  1  0
 62 61  1  0
 63 62  2  0
 64 65  1  0
 64 58  2  0
 65 60  2  0
 66 59  1  0
 67 57  1  0
 69 71  2  0
 70 69  1  0
 72 70  1  0
 73 82  2  0
 73 78  1  0
 74 70  1  0
 74 78  1  0
 75 74  1  0
 76 77  1  0
 76 75  1  0
 77 73  1  0
 78 79  2  0
 79 80  1  0
 81 80  2  0
 82 81  1  0
 83 57  1  0
 83 88  1  0
 83 84  1  0
 84 87  1  1
 84 85  1  0
 86 84  1  0
 88 91  1  0
 89 93  1  0
 89 88  1  0
 90 89  2  0
 93 92  1  0
 95 93  1  0
 95 96  1  0
 95 94  1  0
M  ISO  4  14 100  22 100  52 101  56 101
M  END
>  <TORSDO>  (77) 
F 19

>  <SCORE>  (77) 
-15.087

>  <name>  (77) 
77

>  <ligand_id>  (77) 
77

>  <original_smiles>  (77) 
[H]OC(C(=O)N([H])c1c([H])c(F)c(N([H])C(=O)N2C([H])([H])C([H])([H])C([H])([H])C([H])(n3nc(-c4c([H])c([H])c(Oc5c([H])c([H])c(F)c([H])c5F)c([H])c4[H])c(C(=O)N([H])[H])c3N([H])[H])C2([H])[H])c(F)c1F)=C([H])Oc1c([H])c([H])c2c(c1[H])C([H])([H])N(C(=O)C([H])(N([H])C(=O)C([H])(N([H])C([H])([H])[H])C([H])([H])[H])C(C([H])([H])[H])(C([H])([H])[H])C([H])([H])[H])C([H])(C(=O)N([H])C1([H])c3c([H])c([H])c([H])c([H])c3C([H])([H])C([H])([H])C1([H])[H])C2([H])[H]

>  <smiles>  (77) 
[H]OC(C(=O)N([H])c1c([H])c(F)c(N([H])C(=O)N2C([H])([H])C([H])([H])C([H])([H])C([H])(n3nc(-c4c([H])c([H])c(Oc5c([H])c([H])c(F)c([H])c5F)c([H])c4[H])c(C(=O)N([H])[H])c3N([H])[H])C2([H])[H])c(F)c1F)=C([H])Oc1c([H])c([H])c2c(c1[H])C([H])([H])N(C(=O)C([H])(N([H])C(=O)C([H])(N([H])C([H])([H])[H])C([H])([H])[H])C(C([H])([H])[H])(C([H])([H])[H])C([H])([H])[H])C([H])(C(=O)N([H])C1([H])c3c([H])c([H])c([H])c([H])c3C([H])([H])C([H])([H])C1([H])[H])C2([H])[H]

$$$$
78:0:0
     RDKit          3D

 93101  0  0  1  0  0  0  0  0999 V2000
  -29.4770  -20.6700   20.8510 C   0  0  0  0  0  0  0  0  0  0  0  0
  -29.1470  -21.6440   19.9730 N   0  0  0  0  0  0  0  0  0  0  0  0
  -29.7620  -20.9330   22.0220 O   0  0  0  0  0  0  0  0  0  0  0  0
  -28.8800  -21.3140   19.0540 H   0  0  0  0  0  0  0  0  0  0  0  0
  -29.6520  -18.0500   21.1450 C   0  0  0  0  0  3  0  0  0  0  0  0
  -29.5500  -19.2440   20.3300 C   0  0  0  0  0  0  0  0  0  0  0  0
  -29.8350  -16.8610   20.4500 C   0  0  0  0  0  0  0  0  0  0  0  0
  -29.6180  -18.8970   19.0040 C   0  0  0  0  0  0  0  0  0  0  0  0
  -29.5470  -19.7730   17.9710 F   0  0  0  0  0  0  0  0  0  0  0  0
  -29.8460  -17.1940   18.7230 S   0  0  0  0  0  0  0  0  0  0  0  0
  -30.6350  -14.5570   20.4200 C   0  0  0  0  0  0  0  0  0  0  0  0
  -30.3710  -12.3730   19.3030 C   0  0  0  0  0  2  0  0  0  0  0  0
  -29.4280  -12.5840   18.1010 C   0  0  0  0  0  2  0  0  0  0  0  0
  -27.9540  -12.4430   18.5270 C   0  0  0  0  0  2  0  0  0  0  0  0
  -27.6180  -13.2690   19.7980 C   0  0  0  0  0  3  0  0  0  0  0  0
  -28.6760  -13.0430   20.9030 C   0  0  0  0  0  2  0  0  0  0  0  0
  -29.9980  -13.3540   20.3380 N   0  0  0  0  0  0  0  0  0  0  0  0
  -31.7620  -14.7390   19.9460 O   0  0  0  0  0  0  0  0  0  0  0  0
  -29.9210  -15.5820   20.9490 N   0  0  0  0  0  0  0  0  0  0  0  0
  -29.1570  -15.2980   21.5450 H   0  0  0  0  0  0  0  0  0  0  0  0
  -25.2210  -13.8780   20.5070 C   0  0  0  0  0  0  0  0  0  0  0  0
  -24.1510  -13.1080   20.8780 C   0  0  0  0  0  0  0  0  0  0  0  0
  -24.6110  -11.7560   20.8530 C   0  0  0  0  0  0  0  0  0  0  0  0
  -26.2650  -12.9950   20.2780 N   0  0  0  0  0  0  0  0  0  0  0  0
  -25.9010  -11.7130   20.5430 N   0  0  0  0  0  0  0  0  0  0  0  0
  -23.8830  -10.4960   21.0490 C   0  0  0  0  0  0  0  0  0  0  0  0
  -24.3280   -9.5220   21.9710 C   0  0  0  0  0  3  0  0  0  0  0  0
  -23.6000   -8.3270   22.1570 C   0  0  0  0  0  3  0  0  0  0  0  0
  -22.4140   -8.0970   21.4210 C   0  0  0  0  0  0  0  0  0  0  0  0
  -21.9870   -9.0580   20.4880 C   0  0  0  0  0  3  0  0  0  0  0  0
  -22.7160  -10.2450   20.3010 C   0  0  0  0  0  3  0  0  0  0  0  0
  -21.6580   -6.9520   21.5130 O   0  0  0  0  0  0  0  0  0  0  0  0
  -21.6380   -6.1930   22.6560 C   0  0  0  0  0  0  0  0  0  0  0  0
  -21.2620   -6.7380   23.9030 C   0  0  0  0  0  3  0  0  0  0  0  0
  -21.1870   -5.9070   25.0400 C   0  0  0  0  0  3  0  0  0  0  0  0
  -21.4780   -4.5340   24.9290 C   0  0  0  0  0  0  0  0  0  0  0  0
  -21.8480   -3.9900   23.6870 C   0  0  0  0  0  3  0  0  0  0  0  0
  -21.9250   -4.8170   22.5530 C   0  0  0  0  0  0  0  0  0  0  0  0
  -22.2610   -4.2840   21.3540 F   0  0  0  0  0  0  0  0  0  0  0  0
  -21.3980   -3.7340   26.0180 F   0  0  0  0  0  0  0  0  0  0  0  0
  -22.7560  -13.5900   21.1510 C   0  0  0  0  0  0  0  0  0  0  0  0
  -22.0280  -12.9010   22.0230 N   0  0  0  0  0  0  0  0  0  0  0  0
  -22.3180  -14.6140   20.6270 O   0  0  0  0  0  0  0  0  0  0  0  0
  -22.3930  -12.0730   22.4710 H   0  0  0  0  0  0  0  0  0  0  0  0
  -21.0920  -13.2080   22.2460 H   0  0  0  0  0  0  0  0  0  0  0  0
  -25.3870  -15.2480   20.3260 N   0  0  0  0  0  0  0  0  0  0  0  0
  -24.6240  -15.9050   20.4380 H   0  0  0  0  0  0  0  0  0  0  0  0
  -26.2410  -15.6860   20.0020 H   0  0  0  0  0  0  0  0  0  0  0  0
  -29.5700  -23.0690   20.0520 C   0  0  0  0  0  2  0  0  0  0  0  0
  -28.4500  -24.1320   20.2380 C   0  0  0  0  0  0  0  0  0  0  0  0
  -27.4960  -23.9250   20.9940 O   0  0  0  0  0  0  0  0  0  0  0  0
  -28.5750  -25.4610   19.4270 C   0  0  0  0  0  2  0  0  0  0  0  0
  -28.3990  -26.6760   20.2080 O   0  0  0  0  0  0  0  0  0  0  0  0
  -24.6020  -31.9060   23.2400 C   0  0  0  0  0  0  0  0  0  0  0  0
  -27.2230  -27.4120   20.1630 C   0  0  0  0  0  0  0  0  0  0  0  0
  -23.3890  -30.5010   21.6070 C   0  0  0  0  0  3  0  0  0  0  0  0
  -24.8350  -28.9560   20.1760 C   0  0  0  0  0  0  0  0  0  0  0  0
  -25.9190  -30.8440   21.4040 C   0  0  0  0  0  2  0  0  0  0  0  0
  -25.9970  -29.4690   20.7630 C   0  0  0  0  0  0  0  0  0  0  0  0
  -27.1890  -28.7030   20.7540 C   0  0  0  0  0  3  0  0  0  0  0  0
  -26.0330  -26.9200   19.5790 C   0  0  0  0  0  3  0  0  0  0  0  0
  -24.8500  -27.6830   19.5820 C   0  0  0  0  0  3  0  0  0  0  0  0
  -23.5930  -29.8210   20.2270 C   0  0  0  0  0  2  0  0  0  0  0  0
  -24.6560  -31.1010   22.1410 N   0  0  0  0  0  0  0  0  0  0  0  0
  -23.5220  -32.1810   23.7830 O   0  0  0  0  0  0  0  0  0  0  0  0
  -22.7400  -29.4820   22.5720 C   0  0  0  0  0  0  0  0  0  0  0  0
  -21.4150  -29.3010   22.4510 N   0  0  0  0  0  0  0  0  0  0  0  0
  -23.4260  -28.8580   23.3860 O   0  0  0  0  0  0  0  0  0  0  0  0
  -20.9220  -29.8550   21.7650 H   0  0  0  0  0  0  0  0  0  0  0  0
  -18.0440  -28.0990   22.9570 C   0  0  0  0  0  0  0  0  0  0  0  0
  -20.6010  -28.3650   23.2270 C   0  0  0  0  0  3  0  0  0  0  0  0
  -20.7070  -26.9310   22.6580 C   0  0  0  0  0  2  0  0  0  0  0  0
  -19.6060  -26.6000   21.6450 C   0  0  0  0  0  2  0  0  0  0  0  0
  -18.2240  -26.7470   22.2880 C   0  0  0  0  0  2  0  0  0  0  0  0
  -19.1610  -28.8660   23.3820 C   0  0  0  0  0  0  0  0  0  0  0  0
  -18.9390  -30.1330   23.9670 C   0  0  0  0  0  3  0  0  0  0  0  0
  -17.6330  -30.6310   24.1290 C   0  0  0  0  0  3  0  0  0  0  0  0
  -16.5300  -29.8610   23.7200 C   0  0  0  0  0  3  0  0  0  0  0  0
  -16.7370  -28.5970   23.1380 C   0  0  0  0  0  3  0  0  0  0  0  0
  -25.8890  -32.5400   23.8530 C   0  0  0  0  0  3  0  0  0  0  0  0
  -26.4170  -31.7700   25.1260 C   0  0  1  0  0  0  0  0  0  0  0  0
  -25.3330  -31.5310   26.2030 C   0  0  0  0  0  1  0  0  0  0  0  0
  -26.9980  -30.3930   24.7300 C   0  0  0  0  0  1  0  0  0  0  0  0
  -27.5720  -32.5650   25.7790 C   0  0  0  0  0  1  0  0  0  0  0  0
  -25.5800  -33.9370   24.1850 N   0  0  0  0  0  0  0  0  0  0  0  0
  -25.9080  -34.9900   23.4240 C   0  0  0  0  0  0  0  0  0  0  0  0
  -26.5730  -34.8870   22.3890 O   0  0  0  0  0  0  0  0  0  0  0  0
  -24.9900  -34.0920   24.9890 H   0  0  0  0  0  0  0  0  0  0  0  0
  -24.1740  -36.7790   23.0770 C   0  0  0  0  0  1  0  0  0  0  0  0
  -25.4210  -36.3770   23.8830 C   0  0  0  0  0  3  0  0  0  0  0  0
  -27.5600  -37.2650   24.7000 C   0  0  0  0  0  1  0  0  0  0  0  0
  -26.4510  -37.4320   23.7640 N   0  0  0  0  0  0  0  0  0  0  0  0
  -26.0440  -38.3520   23.9160 H   0  0  0  0  0  0  0  0  0  0  0  0
  1  3  2  0
  2 49  1  0
  2  1  1  0
  4  2  1  0
  6  1  1  0
  6  5  1  0
  7 19  1  0
  7  5  2  0
  8  6  2  0
  9  8  1  0
 10  8  1  0
 10  7  1  0
 11 19  1  0
 12 17  1  0
 13 14  1  0
 13 12  1  0
 15 14  1  0
 15 24  1  0
 15 16  1  0
 17 11  1  0
 17 16  1  0
 18 11  2  0
 19 20  1  0
 21 22  2  0
 22 41  1  0
 23 22  1  0
 23 26  1  0
 24 21  1  0
 24 25  1  0
 25 23  2  0
 26 27  1  0
 27 28  2  0
 29 32  1  0
 29 28  1  0
 30 29  2  0
 31 30  1  0
 31 26  2  0
 32 33  1  0
 33 34  1  0
 34 35  2  0
 36 35  1  0
 36 40  1  0
 37 36  2  0
 38 33  2  0
 38 37  1  0
 39 38  1  0
 41 42  1  0
 42 45  1  0
 42 44  1  0
 43 41  2  0
 46 47  1  0
 46 21  1  0
 48 46  1  0
 49 50  1  0
 50 51  2  0
 52 53  1  0
 52 50  1  0
 54 65  2  0
 55 53  1  0
 55 60  1  0
 56 64  1  0
 56 66  1  0
 57 63  1  0
 57 59  1  0
 58 64  1  0
 59 58  1  0
 60 59  2  0
 61 62  1  0
 61 55  2  0
 62 57  2  0
 63 56  1  0
 64 54  1  0
 66 68  2  0
 67 66  1  0
 69 67  1  0
 70 79  2  0
 70 75  1  0
 71 67  1  0
 71 75  1  0
 72 71  1  0
 73 74  1  0
 73 72  1  0
 74 70  1  0
 75 76  2  0
 76 77  1  0
 78 77  2  0
 79 78  1  0
 80 54  1  0
 80 85  1  0
 80 81  1  0
 81 84  1  1
 81 82  1  0
 83 81  1  0
 85 88  1  0
 86 90  1  0
 86 85  1  0
 87 86  2  0
 90 89  1  0
 92 90  1  0
 92 93  1  0
 92 91  1  0
M  ISO  4  11 100  19 100  52 101  53 101
M  END
>  <TORSDO>  (78) 
F 20

>  <SCORE>  (78) 
-13.884

>  <name>  (78) 
78

>  <ligand_id>  (78) 
78

>  <original_smiles>  (78) 
[H]c1c([H])c([H])c2c(c1[H])C([H])([H])C([H])([H])C([H])([H])C2([H])N([H])C(=O)C1([H])N(C(=O)C([H])(N([H])C(=O)C([H])(N([H])C([H])([H])[H])C([H])([H])[H])C(C([H])([H])[H])(C([H])([H])[H])C([H])([H])[H])C([H])([H])c2c([H])c(OC([H])([H])C(=O)C([H])([H])N([H])C(=O)c3c(F)sc(N([H])C(=O)N4C([H])([H])C([H])([H])C([H])([H])C([H])(n5nc(-c6c([H])c([H])c(Oc7c([H])c([H])c(F)c([H])c7F)c([H])c6[H])c(C(=O)N([H])[H])c5N([H])[H])C4([H])[H])c3[H])c([H])c([H])c2C1([H])[H]

>  <smiles>  (78) 
[H]c1c([H])c([H])c2c(c1[H])C([H])([H])C([H])([H])C([H])([H])C2([H])N([H])C(=O)C1([H])N(C(=O)C([H])(N([H])C(=O)C([H])(N([H])C([H])([H])[H])C([H])([H])[H])C(C([H])([H])[H])(C([H])([H])[H])C([H])([H])[H])C([H])([H])c2c([H])c(OC([H])([H])C(=O)C([H])([H])N([H])C(=O)c3c(F)sc(N([H])C(=O)N4C([H])([H])C([H])([H])C([H])([H])C([H])(n5nc(-c6c([H])c([H])c(Oc7c([H])c([H])c(F)c([H])c7F)c([H])c6[H])c(C(=O)N([H])[H])c5N([H])[H])C4([H])[H])c3[H])c([H])c([H])c2C1([H])[H]

$$$$
79:0:0
     RDKit          3D

 97105  0  0  1  0  0  0  0  0999 V2000
  -30.9190  -21.9780   20.9170 C   0  0  0  0  0  0  0  0  0  0  0  0
  -30.1770  -20.9780   20.4150 N   0  0  0  0  0  0  0  0  0  0  0  0
  -31.7440  -21.8430   21.8280 O   0  0  0  0  0  0  0  0  0  0  0  0
  -29.4470  -21.2730   19.7830 H   0  0  0  0  0  0  0  0  0  0  0  0
  -28.8790  -17.5430   20.5790 C   0  0  0  0  0  3  0  0  0  0  0  0
  -31.2330  -17.5250   21.0990 C   0  0  0  0  0  3  0  0  0  0  0  0
  -30.0350  -16.8040   20.9000 C   0  0  0  0  0  0  0  0  0  0  0  0
  -28.9680  -18.9390   20.4340 C   0  0  0  0  0  0  0  0  0  0  0  0
  -30.2030  -19.5810   20.6590 C   0  0  0  0  0  0  0  0  0  0  0  0
  -31.3150  -18.8740   20.9960 N   0  0  0  0  0  0  0  0  0  0  0  0
  -27.8750  -19.6590   20.0770 F   0  0  0  0  0  0  0  0  0  0  0  0
  -30.6450  -14.4640   20.3670 C   0  0  0  0  0  0  0  0  0  0  0  0
  -30.3360  -12.3550   19.1200 C   0  0  0  0  0  2  0  0  0  0  0  0
  -29.3560  -12.6180   17.9570 C   0  0  0  0  0  2  0  0  0  0  0  0
  -27.8900  -12.4730   18.4180 C   0  0  0  0  0  2  0  0  0  0  0  0
  -27.5990  -13.2470   19.7330 C   0  0  0  0  0  3  0  0  0  0  0  0
  -28.6810  -12.9440   20.7920 C   0  0  0  0  0  2  0  0  0  0  0  0
  -29.9940  -13.2790   20.2100 N   0  0  0  0  0  0  0  0  0  0  0  0
  -31.7350  -14.7190   19.8460 O   0  0  0  0  0  0  0  0  0  0  0  0
  -29.9390  -15.3890   21.0410 N   0  0  0  0  0  0  0  0  0  0  0  0
  -29.0590  -15.0330   21.3850 H   0  0  0  0  0  0  0  0  0  0  0  0
  -25.2150  -13.8500   20.4930 C   0  0  0  0  0  0  0  0  0  0  0  0
  -24.1550  -13.0760   20.8860 C   0  0  0  0  0  0  0  0  0  0  0  0
  -24.6160  -11.7260   20.8380 C   0  0  0  0  0  0  0  0  0  0  0  0
  -26.2540  -12.9700   20.2340 N   0  0  0  0  0  0  0  0  0  0  0  0
  -25.8980  -11.6860   20.4950 N   0  0  0  0  0  0  0  0  0  0  0  0
  -23.8950  -10.4610   21.0390 C   0  0  0  0  0  0  0  0  0  0  0  0
  -24.3530   -9.4900   21.9560 C   0  0  0  0  0  3  0  0  0  0  0  0
  -23.6360   -8.2890   22.1450 C   0  0  0  0  0  3  0  0  0  0  0  0
  -22.4460   -8.0510   21.4180 C   0  0  0  0  0  0  0  0  0  0  0  0
  -22.0050   -9.0120   20.4900 C   0  0  0  0  0  3  0  0  0  0  0  0
  -22.7230  -10.2050   20.2990 C   0  0  0  0  0  3  0  0  0  0  0  0
  -21.6980   -6.9040   21.5170 O   0  0  0  0  0  0  0  0  0  0  0  0
  -21.6850   -6.1490   22.6620 C   0  0  0  0  0  0  0  0  0  0  0  0
  -21.2870   -6.6880   23.9050 C   0  0  0  0  0  3  0  0  0  0  0  0
  -21.2230   -5.8590   25.0430 C   0  0  0  0  0  3  0  0  0  0  0  0
  -21.5450   -4.4920   24.9390 C   0  0  0  0  0  0  0  0  0  0  0  0
  -21.9370   -3.9540   23.7010 C   0  0  0  0  0  3  0  0  0  0  0  0
  -22.0020   -4.7800   22.5650 C   0  0  0  0  0  0  0  0  0  0  0  0
  -22.3590   -4.2500   21.3700 F   0  0  0  0  0  0  0  0  0  0  0  0
  -21.4760   -3.6930   26.0290 F   0  0  0  0  0  0  0  0  0  0  0  0
  -22.7650  -13.5530   21.1950 C   0  0  0  0  0  0  0  0  0  0  0  0
  -22.0530  -12.8530   22.0710 N   0  0  0  0  0  0  0  0  0  0  0  0
  -22.3160  -14.5820   20.6920 O   0  0  0  0  0  0  0  0  0  0  0  0
  -22.4230  -12.0180   22.5000 H   0  0  0  0  0  0  0  0  0  0  0  0
  -21.1240  -13.1610   22.3200 H   0  0  0  0  0  0  0  0  0  0  0  0
  -25.3740  -15.2200   20.3110 N   0  0  0  0  0  0  0  0  0  0  0  0
  -24.5980  -15.8630   20.4130 H   0  0  0  0  0  0  0  0  0  0  0  0
  -26.1790  -15.6370   19.8630 H   0  0  0  0  0  0  0  0  0  0  0  0
  -30.6900  -23.3630   20.2730 C   0  0  1  0  0  0  0  0  0  0  0  0
  -31.7140  -23.5740   19.4440 F   0  0  0  0  0  0  0  0  0  0  0  0
  -29.5730  -23.3340   19.5350 F   0  0  0  0  0  0  0  0  0  0  0  0
  -30.5640  -24.5200   21.3000 C   0  0  0  0  0  2  0  0  0  0  0  0
  -30.5800  -25.9250   20.6740 C   0  0  0  0  0  0  0  0  0  0  0  0
  -31.5130  -26.2960   19.9530 O   0  0  0  0  0  0  0  0  0  0  0  0
  -29.4280  -26.8880   20.9990 C   0  0  0  0  0  2  0  0  0  0  0  0
  -28.3590  -26.6540   20.0880 O   0  0  0  0  0  0  0  0  0  0  0  0
  -24.5550  -31.8570   23.2410 C   0  0  0  0  0  0  0  0  0  0  0  0
  -27.2290  -27.4380   20.1670 C   0  0  0  0  0  0  0  0  0  0  0  0
  -23.3530  -30.4530   21.5930 C   0  0  0  0  0  3  0  0  0  0  0  0
  -24.8170  -28.9170   20.1780 C   0  0  0  0  0  0  0  0  0  0  0  0
  -25.8750  -30.8230   21.4030 C   0  0  0  0  0  2  0  0  0  0  0  0
  -25.9680  -29.4490   20.7720 C   0  0  0  0  0  0  0  0  0  0  0  0
  -27.1760  -28.7170   20.7760 C   0  0  0  0  0  3  0  0  0  0  0  0
  -26.0620  -26.9200   19.5680 C   0  0  0  0  0  3  0  0  0  0  0  0
  -24.8550  -27.6450   19.5780 C   0  0  0  0  0  3  0  0  0  0  0  0
  -23.5680  -29.7690   20.2150 C   0  0  0  0  0  2  0  0  0  0  0  0
  -24.6110  -31.0590   22.1380 N   0  0  0  0  0  0  0  0  0  0  0  0
  -23.4730  -32.1300   23.7800 O   0  0  0  0  0  0  0  0  0  0  0  0
  -22.7010  -29.4320   22.5530 C   0  0  0  0  0  0  0  0  0  0  0  0
  -21.3770  -29.2550   22.4290 N   0  0  0  0  0  0  0  0  0  0  0  0
  -23.3830  -28.8020   23.3650 O   0  0  0  0  0  0  0  0  0  0  0  0
  -20.8880  -29.8200   21.7500 H   0  0  0  0  0  0  0  0  0  0  0  0
  -17.9950  -28.0880   22.9330 C   0  0  0  0  0  0  0  0  0  0  0  0
  -20.5560  -28.3160   23.1930 C   0  0  0  0  0  3  0  0  0  0  0  0
  -20.6400  -26.8900   22.6010 C   0  0  0  0  0  2  0  0  0  0  0  0
  -19.5270  -26.5890   21.5910 C   0  0  0  0  0  2  0  0  0  0  0  0
  -18.1520  -26.7430   22.2450 C   0  0  0  0  0  2  0  0  0  0  0  0
  -19.1240  -28.8340   23.3640 C   0  0  0  0  0  0  0  0  0  0  0  0
  -18.9230  -30.0950   23.9660 C   0  0  0  0  0  3  0  0  0  0  0  0
  -17.6260  -30.6110   24.1420 C   0  0  0  0  0  3  0  0  0  0  0  0
  -16.5110  -29.8610   23.7320 C   0  0  0  0  0  3  0  0  0  0  0  0
  -16.6960  -28.6000   23.1350 C   0  0  0  0  0  3  0  0  0  0  0  0
  -25.8410  -32.4850   23.8640 C   0  0  0  0  0  3  0  0  0  0  0  0
  -25.5400  -33.8870   24.1800 N   0  0  0  0  0  0  0  0  0  0  0  0
  -25.8950  -34.9320   23.4180 C   0  0  0  0  0  0  0  0  0  0  0  0
  -26.5790  -34.8140   22.3980 O   0  0  0  0  0  0  0  0  0  0  0  0
  -24.9250  -34.0520   24.9620 H   0  0  0  0  0  0  0  0  0  0  0  0
  -24.1910  -36.7410   23.0160 C   0  0  0  0  0  1  0  0  0  0  0  0
  -25.4100  -36.3260   23.8580 C   0  0  0  0  0  3  0  0  0  0  0  0
  -27.5320  -37.1940   24.7330 C   0  0  0  0  0  1  0  0  0  0  0  0
  -26.4540  -37.3700   23.7660 N   0  0  0  0  0  0  0  0  0  0  0  0
  -26.0520  -38.2940   23.9030 H   0  0  0  0  0  0  0  0  0  0  0  0
  -26.3530  -31.7190   25.1470 C   0  0  1  0  0  0  0  0  0  0  0  0
  -25.2570  -31.4900   26.2130 C   0  0  0  0  0  1  0  0  0  0  0  0
  -26.9310  -30.3350   24.7640 C   0  0  0  0  0  1  0  0  0  0  0  0
  -27.5040  -32.5130   25.8070 C   0  0  0  0  0  1  0  0  0  0  0  0
  1  3  2  0
  2  9  1  0
  2  1  1  0
  4  2  1  0
  5  7  1  0
  7 20  1  0
  7  6  2  0
  8  5  2  0
  8  9  1  0
  9 10  2  0
 10  6  1  0
 11  8  1  0
 12 20  1  0
 13 18  1  0
 14 15  1  0
 14 13  1  0
 16 15  1  0
 16 25  1  0
 16 17  1  0
 18 12  1  0
 18 17  1  0
 19 12  2  0
 20 21  1  0
 22 23  2  0
 23 42  1  0
 24 23  1  0
 24 27  1  0
 25 22  1  0
 25 26  1  0
 26 24  2  0
 27 28  1  0
 28 29  2  0
 30 33  1  0
 30 29  1  0
 31 30  2  0
 32 31  1  0
 32 27  2  0
 33 34  1  0
 34 35  1  0
 35 36  2  0
 37 36  1  0
 37 41  1  0
 38 37  2  0
 39 34  2  0
 39 38  1  0
 40 39  1  0
 42 43  1  0
 43 46  1  0
 43 45  1  0
 44 42  2  0
 47 48  1  0
 47 22  1  0
 49 47  1  0
 50  1  1  0
 50 53  1  0
 50 51  1  6
 52 50  1  0
 54 56  1  0
 54 53  1  0
 55 54  2  0
 57 59  1  0
 57 56  1  0
 58 69  2  0
 59 64  1  0
 60 68  1  0
 60 70  1  0
 61 67  1  0
 61 63  1  0
 62 68  1  0
 63 64  2  0
 63 62  1  0
 65 66  1  0
 65 59  2  0
 66 61  2  0
 67 60  1  0
 68 58  1  0
 70 72  2  0
 71 70  1  0
 73 71  1  0
 74 83  2  0
 74 79  1  0
 75 71  1  0
 75 79  1  0
 76 75  1  0
 77 78  1  0
 77 76  1  0
 78 74  1  0
 79 80  2  0
 80 81  1  0
 82 81  2  0
 83 82  1  0
 84 58  1  0
 84 85  1  0
 84 94  1  0
 85 88  1  0
 86 90  1  0
 86 85  1  0
 87 86  2  0
 90 89  1  0
 92 90  1  0
 92 93  1  0
 92 91  1  0
 94 97  1  1
 94 95  1  0
 96 94  1  0
M  ISO  4  12 100  20 100  56 101  57 101
M  END
>  <TORSDO>  (79) 
F 21

>  <SCORE>  (79) 
-13.989

>  <name>  (79) 
79

>  <ligand_id>  (79) 
79

>  <original_smiles>  (79) 
[H]c1nc(N([H])C(=O)C(F)(F)C([H])([H])C(=O)C([H])([H])Oc2c([H])c([H])c3c(c2[H])C([H])([H])N(C(=O)C([H])(N([H])C(=O)C([H])(N([H])C([H])([H])[H])C([H])([H])[H])C(C([H])([H])[H])(C([H])([H])[H])C([H])([H])[H])C([H])(C(=O)N([H])C2([H])c4c([H])c([H])c([H])c([H])c4C([H])([H])C([H])([H])C2([H])[H])C3([H])[H])c(F)c([H])c1N([H])C(=O)N1C([H])([H])C([H])([H])C([H])([H])C([H])(n2nc(-c3c([H])c([H])c(Oc4c([H])c([H])c(F)c([H])c4F)c([H])c3[H])c(C(=O)N([H])[H])c2N([H])[H])C1([H])[H]

>  <smiles>  (79) 
[H]c1nc(N([H])C(=O)C(F)(F)C([H])([H])C(=O)C([H])([H])Oc2c([H])c([H])c3c(c2[H])C([H])([H])N(C(=O)C([H])(N([H])C(=O)C([H])(N([H])C([H])([H])[H])C([H])([H])[H])C(C([H])([H])[H])(C([H])([H])[H])C([H])([H])[H])C([H])(C(=O)N([H])C2([H])c4c([H])c([H])c([H])c([H])c4C([H])([H])C([H])([H])C2([H])[H])C3([H])[H])c(F)c([H])c1N([H])C(=O)N1C([H])([H])C([H])([H])C([H])([H])C([H])(n2nc(-c3c([H])c([H])c(Oc4c([H])c([H])c(F)c([H])c4F)c([H])c3[H])c(C(=O)N([H])[H])c2N([H])[H])C1([H])[H]

$$$$
80:0:0
     RDKit          3D

 99107  0  0  1  0  0  0  0  0999 V2000
  -30.4020  -21.0860   20.4520 C   0  0  0  0  0  0  0  0  0  0  0  0
  -29.2850  -21.8570   20.4790 N   0  0  0  0  0  0  0  0  0  0  0  0
  -31.4780  -21.6030   20.1480 O   0  0  0  0  0  0  0  0  0  0  0  0
  -28.4030  -21.4450   20.7480 H   0  0  0  0  0  0  0  0  0  0  0  0
  -30.6170  -14.6310   20.4130 C   0  0  0  0  0  0  0  0  0  0  0  0
  -30.3780  -12.4210   19.3200 C   0  0  0  0  0  2  0  0  0  0  0  0
  -29.4360  -12.5770   18.1070 C   0  0  0  0  0  2  0  0  0  0  0  0
  -27.9590  -12.4290   18.5290 C   0  0  0  0  0  2  0  0  0  0  0  0
  -27.6050  -13.2730   19.7840 C   0  0  0  0  0  3  0  0  0  0  0  0
  -28.6650  -13.1010   20.8950 C   0  0  0  0  0  2  0  0  0  0  0  0
  -29.9740  -13.4300   20.3120 N   0  0  0  0  0  0  0  0  0  0  0  0
  -31.7970  -14.7600   20.0700 O   0  0  0  0  0  0  0  0  0  0  0  0
  -30.4270  -19.6170   20.8290 C   0  0  0  0  0  0  0  0  0  0  0  0
  -31.3930  -18.8950   21.5180 C   0  0  0  0  0  0  0  0  0  0  0  0
  -30.1680  -17.1020   20.7860 C   0  0  0  0  0  0  0  0  0  0  0  0
  -31.2280  -17.5040   21.4960 N   0  0  0  0  0  0  0  0  0  0  0  0
  -29.8170  -15.7080   20.6500 N   0  0  0  0  0  0  0  0  0  0  0  0
  -29.2370  -18.4930   20.1550 S   0  0  0  0  0  0  0  0  0  0  0  0
  -28.8300  -15.5080   20.6570 H   0  0  0  0  0  0  0  0  0  0  0  0
  -25.2090  -13.8650   20.5020 C   0  0  0  0  0  0  0  0  0  0  0  0
  -24.1450  -13.0880   20.8700 C   0  0  0  0  0  0  0  0  0  0  0  0
  -24.6120  -11.7390   20.8370 C   0  0  0  0  0  0  0  0  0  0  0  0
  -26.2570  -12.9870   20.2680 N   0  0  0  0  0  0  0  0  0  0  0  0
  -25.9040  -11.7040   20.5310 N   0  0  0  0  0  0  0  0  0  0  0  0
  -23.8900  -10.4730   21.0260 C   0  0  0  0  0  0  0  0  0  0  0  0
  -24.3150   -9.5120   21.9700 C   0  0  0  0  0  3  0  0  0  0  0  0
  -23.5920   -8.3140   22.1430 C   0  0  0  0  0  3  0  0  0  0  0  0
  -22.4310   -8.0670   21.3740 C   0  0  0  0  0  0  0  0  0  0  0  0
  -22.0260   -9.0160   20.4190 C   0  0  0  0  0  3  0  0  0  0  0  0
  -22.7500  -10.2070   20.2430 C   0  0  0  0  0  3  0  0  0  0  0  0
  -21.6780   -6.9190   21.4580 O   0  0  0  0  0  0  0  0  0  0  0  0
  -21.6100   -6.1850   22.6150 C   0  0  0  0  0  0  0  0  0  0  0  0
  -21.1360   -6.7420   23.8230 C   0  0  0  0  0  3  0  0  0  0  0  0
  -21.0160   -5.9340   24.9720 C   0  0  0  0  0  3  0  0  0  0  0  0
  -21.3630   -4.5710   24.9130 C   0  0  0  0  0  0  0  0  0  0  0  0
  -21.8320   -4.0140   23.7100 C   0  0  0  0  0  3  0  0  0  0  0  0
  -21.9530   -4.8190   22.5650 C   0  0  0  0  0  0  0  0  0  0  0  0
  -22.3830   -4.2730   21.4010 F   0  0  0  0  0  0  0  0  0  0  0  0
  -21.2430   -3.7920   26.0130 F   0  0  0  0  0  0  0  0  0  0  0  0
  -22.7460  -13.5610   21.1390 C   0  0  0  0  0  0  0  0  0  0  0  0
  -22.0150  -12.8540   21.9950 N   0  0  0  0  0  0  0  0  0  0  0  0
  -22.3080  -14.5890   20.6260 O   0  0  0  0  0  0  0  0  0  0  0  0
  -22.3820  -12.0200   22.4300 H   0  0  0  0  0  0  0  0  0  0  0  0
  -21.0760  -13.1500   22.2170 H   0  0  0  0  0  0  0  0  0  0  0  0
  -25.3680  -15.2370   20.3250 N   0  0  0  0  0  0  0  0  0  0  0  0
  -24.5910  -15.8800   20.4370 H   0  0  0  0  0  0  0  0  0  0  0  0
  -26.1960  -15.6830   19.9560 H   0  0  0  0  0  0  0  0  0  0  0  0
  -32.5020  -19.4010   22.2030 N   0  0  0  0  0  0  0  0  0  0  0  0
  -32.8040  -20.3530   22.0160 H   0  0  0  0  0  0  0  0  0  0  0  0
  -33.2490  -18.7690   22.4750 H   0  0  0  0  0  0  0  0  0  0  0  0
  -29.2580  -23.2950   20.0320 C   0  0  0  0  0  3  0  0  0  0  0  0
  -29.0460  -23.3830   18.5030 C   0  0  2  0  0  0  0  0  0  0  0  0
  -30.0260  -22.7720   17.8370 F   0  0  0  0  0  0  0  0  0  0  0  0
  -29.0130  -24.6540   18.0990 F   0  0  0  0  0  0  0  0  0  0  0  0
  -27.8880  -22.8130   18.1650 F   0  0  0  0  0  0  0  0  0  0  0  0
  -28.2740  -24.2300   20.8140 C   0  0  0  0  0  0  0  0  0  0  0  0
  -27.1720  -23.8260   21.2040 O   0  0  0  0  0  0  0  0  0  0  0  0
  -28.7060  -25.6920   21.1680 C   0  0  0  0  0  2  0  0  0  0  0  0
  -28.4630  -26.6810   20.1360 O   0  0  0  0  0  0  0  0  0  0  0  0
  -24.6040  -31.9000   23.2370 C   0  0  0  0  0  0  0  0  0  0  0  0
  -27.3030  -27.4300   20.2130 C   0  0  0  0  0  0  0  0  0  0  0  0
  -23.4280  -30.4940   21.5780 C   0  0  0  0  0  3  0  0  0  0  0  0
  -24.9090  -28.9520   20.1810 C   0  0  0  0  0  0  0  0  0  0  0  0
  -25.9550  -30.8560   21.4150 C   0  0  0  0  0  2  0  0  0  0  0  0
  -26.0570  -29.4750   20.7890 C   0  0  0  0  0  0  0  0  0  0  0  0
  -27.2590  -28.7190   20.8060 C   0  0  0  0  0  3  0  0  0  0  0  0
  -26.1390  -26.9330   19.5950 C   0  0  0  0  0  3  0  0  0  0  0  0
  -24.9450  -27.6820   19.5810 C   0  0  0  0  0  3  0  0  0  0  0  0
  -23.6610  -29.8080   20.2040 C   0  0  0  0  0  2  0  0  0  0  0  0
  -24.6800  -31.0990   22.1360 N   0  0  0  0  0  0  0  0  0  0  0  0
  -23.5140  -32.1710   23.7610 O   0  0  0  0  0  0  0  0  0  0  0  0
  -22.7620  -29.4750   22.5310 C   0  0  0  0  0  0  0  0  0  0  0  0
  -21.4400  -29.2900   22.3810 N   0  0  0  0  0  0  0  0  0  0  0  0
  -23.4320  -28.8490   23.3560 O   0  0  0  0  0  0  0  0  0  0  0  0
  -20.9590  -29.8470   21.6890 H   0  0  0  0  0  0  0  0  0  0  0  0
  -18.0560  -28.1000   22.8420 C   0  0  0  0  0  0  0  0  0  0  0  0
  -20.6130  -28.3480   23.1360 C   0  0  0  0  0  3  0  0  0  0  0  0
  -20.7180  -26.9220   22.5500 C   0  0  0  0  0  2  0  0  0  0  0  0
  -19.6230  -26.6090   21.5240 C   0  0  0  0  0  2  0  0  0  0  0  0
  -18.2350  -26.7540   22.1570 C   0  0  0  0  0  2  0  0  0  0  0  0
  -19.1730  -28.8550   23.2880 C   0  0  0  0  0  0  0  0  0  0  0  0
  -18.9550  -30.1150   23.8850 C   0  0  0  0  0  3  0  0  0  0  0  0
  -17.6500  -30.6210   24.0410 C   0  0  0  0  0  3  0  0  0  0  0  0
  -16.5470  -29.8610   23.6130 C   0  0  0  0  0  3  0  0  0  0  0  0
  -16.7520  -28.6030   23.0220 C   0  0  0  0  0  3  0  0  0  0  0  0
  -25.8780  -32.5350   23.8760 C   0  0  0  0  0  3  0  0  0  0  0  0
  -25.5680  -33.9350   24.1920 N   0  0  0  0  0  0  0  0  0  0  0  0
  -25.9160  -34.9810   23.4300 C   0  0  0  0  0  0  0  0  0  0  0  0
  -26.6030  -34.8670   22.4120 O   0  0  0  0  0  0  0  0  0  0  0  0
  -24.9620  -34.0980   24.9820 H   0  0  0  0  0  0  0  0  0  0  0  0
  -24.2060  -36.7760   23.0180 C   0  0  0  0  0  1  0  0  0  0  0  0
  -25.4210  -36.3710   23.8690 C   0  0  0  0  0  3  0  0  0  0  0  0
  -27.5290  -37.2550   24.7610 C   0  0  0  0  0  1  0  0  0  0  0  0
  -26.4580  -37.4200   23.7810 N   0  0  0  0  0  0  0  0  0  0  0  0
  -26.0520  -38.3430   23.9130 H   0  0  0  0  0  0  0  0  0  0  0  0
  -26.3730  -31.7710   25.1660 C   0  0  1  0  0  0  0  0  0  0  0  0
  -25.2600  -31.5380   26.2150 C   0  0  0  0  0  1  0  0  0  0  0  0
  -26.9650  -30.3920   24.7880 C   0  0  0  0  0  1  0  0  0  0  0  0
  -27.5110  -32.5690   25.8440 C   0  0  0  0  0  1  0  0  0  0  0  0
  1  2  1  0
  1 13  1  0
  2  4  1  0
  3  1  2  0
  5 17  1  0
  6 11  1  0
  7  8  1  0
  7  6  1  0
  9  8  1  0
  9 23  1  0
  9 10  1  0
 11  5  1  0
 11 10  1  0
 12  5  2  0
 13 14  2  0
 14 48  1  0
 15 16  2  0
 16 14  1  0
 17 19  1  0
 17 15  1  0
 18 15  1  0
 18 13  1  0
 20 21  2  0
 21 40  1  0
 22 21  1  0
 22 25  1  0
 23 20  1  0
 23 24  1  0
 24 22  2  0
 25 26  1  0
 26 27  2  0
 28 31  1  0
 28 27  1  0
 29 28  2  0
 30 29  1  0
 30 25  2  0
 31 32  1  0
 32 33  1  0
 33 34  2  0
 35 34  1  0
 35 39  1  0
 36 35  2  0
 37 32  2  0
 37 36  1  0
 38 37  1  0
 40 41  1  0
 41 44  1  0
 41 43  1  0
 42 40  2  0
 45 46  1  0
 45 20  1  0
 47 45  1  0
 48 50  1  0
 49 48  1  0
 51  2  1  0
 51 56  1  0
 52 51  1  0
 52 53  1  6
 54 52  1  0
 55 52  1  0
 56 58  1  0
 56 57  2  0
 59 61  1  0
 59 58  1  0
 60 71  2  0
 61 66  1  0
 62 70  1  0
 62 72  1  0
 63 69  1  0
 63 65  1  0
 64 70  1  0
 65 66  2  0
 65 64  1  0
 67 61  2  0
 68 67  1  0
 68 63  2  0
 69 62  1  0
 70 60  1  0
 72 74  2  0
 73 72  1  0
 75 73  1  0
 76 85  2  0
 76 81  1  0
 77 73  1  0
 77 81  1  0
 78 77  1  0
 79 80  1  0
 79 78  1  0
 80 76  1  0
 81 82  2  0
 82 83  1  0
 84 83  2  0
 85 84  1  0
 86 60  1  0
 86 87  1  0
 86 96  1  0
 87 90  1  0
 88 92  1  0
 88 87  1  0
 89 88  2  0
 92 91  1  0
 94 92  1  0
 94 95  1  0
 94 93  1  0
 96 99  1  1
 96 97  1  0
 98 96  1  0
M  ISO  4   5 100  17 100  58 101  59 101
M  END
>  <TORSDO>  (80) 
F 21

>  <SCORE>  (80) 
-14.055

>  <name>  (80) 
80

>  <ligand_id>  (80) 
80

>  <original_smiles>  (80) 
[H]c1c([H])c([H])c2c(c1[H])C([H])([H])C([H])([H])C([H])([H])C2([H])N([H])C(=O)C1([H])N(C(=O)C([H])(N([H])C(=O)C([H])(N([H])C([H])([H])[H])C([H])([H])[H])C(C([H])([H])[H])(C([H])([H])[H])C([H])([H])[H])C([H])([H])c2c([H])c(OC([H])([H])C(=O)C([H])(N([H])C(=O)c3sc(N([H])C(=O)N4C([H])([H])C([H])([H])C([H])([H])C([H])(n5nc(-c6c([H])c([H])c(Oc7c([H])c([H])c(F)c([H])c7F)c([H])c6[H])c(C(=O)N([H])[H])c5N([H])[H])C4([H])[H])nc3N([H])[H])C(F)(F)F)c([H])c([H])c2C1([H])[H]

>  <smiles>  (80) 
[H]c1c([H])c([H])c2c(c1[H])C([H])([H])C([H])([H])C([H])([H])C2([H])N([H])C(=O)C1([H])N(C(=O)C([H])(N([H])C(=O)C([H])(N([H])C([H])([H])[H])C([H])([H])[H])C(C([H])([H])[H])(C([H])([H])[H])C([H])([H])[H])C([H])([H])c2c([H])c(OC([H])([H])C(=O)C([H])(N([H])C(=O)c3sc(N([H])C(=O)N4C([H])([H])C([H])([H])C([H])([H])C([H])(n5nc(-c6c([H])c([H])c(Oc7c([H])c([H])c(F)c([H])c7F)c([H])c6[H])c(C(=O)N([H])[H])c5N([H])[H])C4([H])[H])nc3N([H])[H])C(F)(F)F)c([H])c([H])c2C1([H])[H]

$$$$
81:0:0
     RDKit          3D

 96104  0  0  1  0  0  0  0  0999 V2000
  -28.6680  -22.9320   20.5390 C   0  0  0  0  0  0  0  0  0  0  0  0
  -29.6680  -22.0470   20.3390 N   0  0  0  0  0  0  0  0  0  0  0  0
  -27.5530  -22.5800   20.9350 O   0  0  0  0  0  0  0  0  0  0  0  0
  -30.5600  -22.4730   20.1160 H   0  0  0  0  0  0  0  0  0  0  0  0
  -28.5920  -19.8040   20.2910 C   0  0  0  0  0  3  0  0  0  0  0  0
  -28.9270  -18.4440   20.5830 C   0  0  0  0  0  0  0  0  0  0  0  0
  -29.6310  -20.6880   20.5000 C   0  0  0  0  0  0  0  0  0  0  0  0
  -30.2070  -18.2630   21.0300 C   0  0  0  0  0  0  0  0  0  0  0  0
  -28.0480  -17.4740   20.4580 F   0  0  0  0  0  0  0  0  0  0  0  0
  -31.0570  -19.7950   21.0120 S   0  0  0  0  0  0  0  0  0  0  0  0
  -32.4060  -16.8150   21.1520 O   0  0  0  0  0  0  0  0  0  0  0  0
  -30.7810  -16.7920   23.1010 O   0  0  0  0  0  0  0  0  0  0  0  0
  -31.0160  -16.7790   21.6450 S   0  0  1  0  0  0  0  0  0  0  0  0
  -30.6560  -14.4440   20.0870 C   0  0  0  0  0  0  0  0  0  0  0  0
  -30.1990  -12.3580   18.8270 C   0  0  0  0  0  2  0  0  0  0  0  0
  -29.1830  -12.6080   17.6960 C   0  0  0  0  0  2  0  0  0  0  0  0
  -27.7410  -12.4770   18.2230 C   0  0  0  0  0  2  0  0  0  0  0  0
  -27.5040  -13.2910   19.5230 C   0  0  0  0  0  3  0  0  0  0  0  0
  -28.6230  -13.0220   20.5550 C   0  0  0  0  0  2  0  0  0  0  0  0
  -29.9160  -13.3140   19.9110 N   0  0  0  0  0  0  0  0  0  0  0  0
  -31.6790  -14.6570   19.4290 O   0  0  0  0  0  0  0  0  0  0  0  0
  -30.2010  -15.3730   21.0290 N   0  0  0  0  0  0  0  0  0  0  0  0
  -29.3260  -15.2150   21.5190 H   0  0  0  0  0  0  0  0  0  0  0  0
  -25.1620  -13.9250   20.3820 C   0  0  0  0  0  0  0  0  0  0  0  0
  -24.1040  -13.1650   20.8030 C   0  0  0  0  0  0  0  0  0  0  0  0
  -24.5410  -11.8060   20.7280 C   0  0  0  0  0  0  0  0  0  0  0  0
  -26.1770  -13.0310   20.0790 N   0  0  0  0  0  0  0  0  0  0  0  0
  -25.8090  -11.7510   20.3430 N   0  0  0  0  0  0  0  0  0  0  0  0
  -23.8070  -10.5530   20.9460 C   0  0  0  0  0  0  0  0  0  0  0  0
  -24.2720   -9.5710   21.8480 C   0  0  0  0  0  3  0  0  0  0  0  0
  -23.5380   -8.3830   22.0540 C   0  0  0  0  0  3  0  0  0  0  0  0
  -22.3260   -8.1670   21.3570 C   0  0  0  0  0  0  0  0  0  0  0  0
  -21.8790   -9.1370   20.4440 C   0  0  0  0  0  3  0  0  0  0  0  0
  -22.6120  -10.3170   20.2350 C   0  0  0  0  0  3  0  0  0  0  0  0
  -21.5600   -7.0320   21.4740 O   0  0  0  0  0  0  0  0  0  0  0  0
  -21.5530   -6.2840   22.6240 C   0  0  0  0  0  0  0  0  0  0  0  0
  -21.2100   -6.8420   23.8750 C   0  0  0  0  0  3  0  0  0  0  0  0
  -21.1490   -6.0210   25.0180 C   0  0  0  0  0  3  0  0  0  0  0  0
  -21.4200   -4.6440   24.9130 C   0  0  0  0  0  0  0  0  0  0  0  0
  -21.7570   -4.0860   23.6680 C   0  0  0  0  0  3  0  0  0  0  0  0
  -21.8200   -4.9030   22.5260 C   0  0  0  0  0  0  0  0  0  0  0  0
  -22.1240   -4.3560   21.3250 F   0  0  0  0  0  0  0  0  0  0  0  0
  -21.3540   -3.8540   26.0110 F   0  0  0  0  0  0  0  0  0  0  0  0
  -22.7350  -13.6590   21.1670 C   0  0  0  0  0  0  0  0  0  0  0  0
  -22.0500  -12.9620   22.0670 N   0  0  0  0  0  0  0  0  0  0  0  0
  -22.2820  -14.7000   20.6890 O   0  0  0  0  0  0  0  0  0  0  0  0
  -22.4290  -12.1210   22.4750 H   0  0  0  0  0  0  0  0  0  0  0  0
  -21.1320  -13.2760   22.3520 H   0  0  0  0  0  0  0  0  0  0  0  0
  -25.3410  -15.2950   20.2170 N   0  0  0  0  0  0  0  0  0  0  0  0
  -24.6000  -15.9630   20.3970 H   0  0  0  0  0  0  0  0  0  0  0  0
  -26.1940  -15.7350   19.8930 H   0  0  0  0  0  0  0  0  0  0  0  0
  -28.1420  -25.3120   20.4670 C   0  0  0  0  0  3  0  0  0  0  0  0
  -29.0410  -24.3260   20.2410 C   0  0  0  0  0  0  0  0  0  0  0  0
  -30.2520  -24.6160   19.7400 O   0  0  0  0  0  0  0  0  0  0  0  0
  -30.2780  -25.5580   19.6190 H   0  0  0  0  0  0  0  0  0  0  0  0
  -28.3310  -26.6550   20.1780 O   0  0  0  0  0  0  0  0  0  0  0  0
  -24.5440  -31.8920   23.2200 C   0  0  0  0  0  0  0  0  0  0  0  0
  -27.1890  -27.4360   20.1470 C   0  0  0  0  0  0  0  0  0  0  0  0
  -23.3360  -30.4760   21.5930 C   0  0  0  0  0  3  0  0  0  0  0  0
  -24.7900  -28.9450   20.1600 C   0  0  0  0  0  0  0  0  0  0  0  0
  -25.8610  -30.8440   21.3800 C   0  0  0  0  0  2  0  0  0  0  0  0
  -25.9510  -29.4710   20.7440 C   0  0  0  0  0  0  0  0  0  0  0  0
  -27.1550  -28.7230   20.7380 C   0  0  0  0  0  3  0  0  0  0  0  0
  -26.0150  -26.9430   19.5340 C   0  0  0  0  0  3  0  0  0  0  0  0
  -24.8170  -27.6800   19.5510 C   0  0  0  0  0  3  0  0  0  0  0  0
  -23.5400  -29.7950   20.2140 C   0  0  0  0  0  2  0  0  0  0  0  0
  -24.5990  -31.0860   22.1220 N   0  0  0  0  0  0  0  0  0  0  0  0
  -23.4640  -32.1610   23.7640 O   0  0  0  0  0  0  0  0  0  0  0  0
  -22.6970  -29.4540   22.5620 C   0  0  0  0  0  0  0  0  0  0  0  0
  -21.3720  -29.2670   22.4480 N   0  0  0  0  0  0  0  0  0  0  0  0
  -23.3900  -28.8340   23.3730 O   0  0  0  0  0  0  0  0  0  0  0  0
  -20.8730  -29.8190   21.7640 H   0  0  0  0  0  0  0  0  0  0  0  0
  -18.0070  -28.0580   22.9750 C   0  0  0  0  0  0  0  0  0  0  0  0
  -20.5660  -28.3290   23.2290 C   0  0  0  0  0  3  0  0  0  0  0  0
  -20.6720  -26.8950   22.6590 C   0  0  0  0  0  2  0  0  0  0  0  0
  -19.5640  -26.5630   21.6540 C   0  0  0  0  0  2  0  0  0  0  0  0
  -18.1850  -26.7060   22.3060 C   0  0  0  0  0  2  0  0  0  0  0  0
  -19.1250  -28.8270   23.3940 C   0  0  0  0  0  0  0  0  0  0  0  0
  -18.9050  -30.0930   23.9790 C   0  0  0  0  0  3  0  0  0  0  0  0
  -17.5990  -30.5900   24.1500 C   0  0  0  0  0  3  0  0  0  0  0  0
  -16.4960  -29.8170   23.7490 C   0  0  0  0  0  3  0  0  0  0  0  0
  -16.7000  -28.5530   23.1670 C   0  0  0  0  0  3  0  0  0  0  0  0
  -25.8300  -32.5350   23.8260 C   0  0  0  0  0  3  0  0  0  0  0  0
  -26.3710  -31.7650   25.0930 C   0  0  1  0  0  0  0  0  0  0  0  0
  -25.2940  -31.5120   26.1740 C   0  0  0  0  0  1  0  0  0  0  0  0
  -26.9640  -30.3950   24.6870 C   0  0  0  0  0  1  0  0  0  0  0  0
  -27.5210  -32.5690   25.7430 C   0  0  0  0  0  1  0  0  0  0  0  0
  -25.5120  -33.9290   24.1620 N   0  0  0  0  0  0  0  0  0  0  0  0
  -25.8340  -34.9860   23.4030 C   0  0  0  0  0  0  0  0  0  0  0  0
  -26.5000  -34.8910   22.3700 O   0  0  0  0  0  0  0  0  0  0  0  0
  -24.9200  -34.0770   24.9660 H   0  0  0  0  0  0  0  0  0  0  0  0
  -24.0910  -36.7660   23.0550 C   0  0  0  0  0  1  0  0  0  0  0  0
  -25.3350  -36.3680   23.8660 C   0  0  0  0  0  3  0  0  0  0  0  0
  -27.4650  -37.2620   24.6970 C   0  0  0  0  0  1  0  0  0  0  0  0
  -26.3610  -37.4300   23.7570 N   0  0  0  0  0  0  0  0  0  0  0  0
  -25.9490  -38.3460   23.9110 H   0  0  0  0  0  0  0  0  0  0  0  0
  1  3  2  0
  2  7  1  0
  2  1  1  0
  4  2  1  0
  5  7  2  0
  5  6  1  0
  6  8  2  0
  7 10  1  0
  8 13  1  0
  9  6  1  0
 10  8  1  0
 11 13  2  0
 13 12  2  0
 14 22  1  0
 15 20  1  0
 16 17  1  0
 16 15  1  0
 18 17  1  0
 18 27  1  0
 18 19  1  0
 20 14  1  0
 20 19  1  0
 21 14  2  0
 22 23  1  0
 13 22  1  6
 24 25  2  0
 25 44  1  0
 26 25  1  0
 26 29  1  0
 27 28  1  0
 27 24  1  0
 28 26  2  0
 29 30  1  0
 30 31  2  0
 32 35  1  0
 32 31  1  0
 33 32  2  0
 34 33  1  0
 34 29  2  0
 35 36  1  0
 36 37  1  0
 37 38  2  0
 39 38  1  0
 39 43  1  0
 40 39  2  0
 41 36  2  0
 41 40  1  0
 42 41  1  0
 44 45  1  0
 45 48  1  0
 45 47  1  0
 46 44  2  0
 49 24  1  0
 49 50  1  0
 51 49  1  0
 53 52  2  0
 53  1  1  0
 54 53  1  0
 55 54  1  0
 56 52  1  0
 57 68  2  0
 58 56  1  0
 58 63  1  0
 59 67  1  0
 59 69  1  0
 60 66  1  0
 60 62  1  0
 61 67  1  0
 62 61  1  0
 63 62  2  0
 64 65  1  0
 64 58  2  0
 65 60  2  0
 66 59  1  0
 67 57  1  0
 69 71  2  0
 70 69  1  0
 72 70  1  0
 73 82  2  0
 73 78  1  0
 74 70  1  0
 74 78  1  0
 75 74  1  0
 76 77  1  0
 76 75  1  0
 77 73  1  0
 78 79  2  0
 79 80  1  0
 81 80  2  0
 82 81  1  0
 83 57  1  0
 83 88  1  0
 83 84  1  0
 84 87  1  1
 84 85  1  0
 86 84  1  0
 88 91  1  0
 89 93  1  0
 89 88  1  0
 90 89  2  0
 93 92  1  0
 95 93  1  0
 95 96  1  0
 95 94  1  0
M  ISO  4  14 100  22 100  52 101  56 101
M  END
>  <TORSDO>  (81) 
F 20

>  <SCORE>  (81) 
-14.221

>  <name>  (81) 
81

>  <ligand_id>  (81) 
81

>  <original_smiles>  (81) 
[H]OC(C(=O)N([H])c1sc(S(=O)(=O)N([H])C(=O)N2C([H])([H])C([H])([H])C([H])([H])C([H])(n3nc(-c4c([H])c([H])c(Oc5c([H])c([H])c(F)c([H])c5F)c([H])c4[H])c(C(=O)N([H])[H])c3N([H])[H])C2([H])[H])c(F)c1[H])=C([H])Oc1c([H])c([H])c2c(c1[H])C([H])([H])N(C(=O)C([H])(N([H])C(=O)C([H])(N([H])C([H])([H])[H])C([H])([H])[H])C(C([H])([H])[H])(C([H])([H])[H])C([H])([H])[H])C([H])(C(=O)N([H])C1([H])c3c([H])c([H])c([H])c([H])c3C([H])([H])C([H])([H])C1([H])[H])C2([H])[H]

>  <smiles>  (81) 
[H]OC(C(=O)N([H])c1sc(S(=O)(=O)N([H])C(=O)N2C([H])([H])C([H])([H])C([H])([H])C([H])(n3nc(-c4c([H])c([H])c(Oc5c([H])c([H])c(F)c([H])c5F)c([H])c4[H])c(C(=O)N([H])[H])c3N([H])[H])C2([H])[H])c(F)c1[H])=C([H])Oc1c([H])c([H])c2c(c1[H])C([H])([H])N(C(=O)C([H])(N([H])C(=O)C([H])(N([H])C([H])([H])[H])C([H])([H])[H])C(C([H])([H])[H])(C([H])([H])[H])C([H])([H])[H])C([H])(C(=O)N([H])C1([H])c3c([H])c([H])c([H])c([H])c3C([H])([H])C([H])([H])C1([H])[H])C2([H])[H]

$$$$
82:0:0
     RDKit          3D

 94102  0  0  1  0  0  0  0  0999 V2000
  -29.0400  -21.1390   21.4810 C   0  0  0  0  0  0  0  0  0  0  0  0
  -30.2320  -20.5200   21.4650 N   0  0  0  0  0  0  0  0  0  0  0  0
  -27.9330  -20.5900   21.4380 O   0  0  0  0  0  0  0  0  0  0  0  0
  -31.0100  -21.1670   21.5000 H   0  0  0  0  0  0  0  0  0  0  0  0
  -30.9090  -14.5100   20.1670 C   0  0  0  0  0  0  0  0  0  0  0  0
  -30.5250  -12.4350   18.8910 C   0  0  0  0  0  2  0  0  0  0  0  0
  -29.5230  -12.6920   17.7470 C   0  0  0  0  0  2  0  0  0  0  0  0
  -28.0720  -12.5370   18.2430 C   0  0  0  0  0  2  0  0  0  0  0  0
  -27.8000  -13.3260   19.5520 C   0  0  0  0  0  3  0  0  0  0  0  0
  -28.9020  -13.0410   20.5960 C   0  0  0  0  0  2  0  0  0  0  0  0
  -30.2090  -13.3590   19.9900 N   0  0  0  0  0  0  0  0  0  0  0  0
  -31.9340  -14.7730   19.5280 O   0  0  0  0  0  0  0  0  0  0  0  0
  -31.7910  -18.6750   21.2340 C   0  0  0  0  0  0  0  0  0  0  0  0
  -30.5210  -19.1940   21.3770 C   0  0  0  0  0  0  0  0  0  0  0  0
  -30.6190  -16.7310   21.1820 C   0  0  0  0  0  0  0  0  0  0  0  0
  -33.0720  -19.4500   21.1670 C   0  0  0  0  0  1  0  0  0  0  0  0
  -31.8350  -17.2810   21.1330 N   0  0  0  0  0  0  0  0  0  0  0  0
  -30.3790  -15.3460   21.0700 N   0  0  0  0  0  0  0  0  0  0  0  0
  -29.3350  -17.8940   21.4330 S   0  0  0  0  0  0  0  0  0  0  0  0
  -29.5280  -15.0140   21.4960 H   0  0  0  0  0  0  0  0  0  0  0  0
  -25.4290  -13.9090   20.3710 C   0  0  0  0  0  0  0  0  0  0  0  0
  -24.3820  -13.1220   20.7740 C   0  0  0  0  0  0  0  0  0  0  0  0
  -24.8500  -11.7740   20.6970 C   0  0  0  0  0  0  0  0  0  0  0  0
  -26.4680  -13.0380   20.0800 N   0  0  0  0  0  0  0  0  0  0  0  0
  -26.1240  -11.7500   20.3300 N   0  0  0  0  0  0  0  0  0  0  0  0
  -24.1420  -10.5030   20.8980 C   0  0  0  0  0  0  0  0  0  0  0  0
  -24.5590   -9.5720   21.8750 C   0  0  0  0  0  3  0  0  0  0  0  0
  -23.8530   -8.3640   22.0600 C   0  0  0  0  0  3  0  0  0  0  0  0
  -22.7150   -8.0800   21.2680 C   0  0  0  0  0  0  0  0  0  0  0  0
  -22.3180   -9.0000   20.2830 C   0  0  0  0  0  3  0  0  0  0  0  0
  -23.0250  -10.1980   20.0950 C   0  0  0  0  0  3  0  0  0  0  0  0
  -21.9820   -6.9220   21.3610 O   0  0  0  0  0  0  0  0  0  0  0  0
  -21.8130   -6.2700   22.5560 C   0  0  0  0  0  0  0  0  0  0  0  0
  -21.2260   -6.9010   23.6740 C   0  0  0  0  0  3  0  0  0  0  0  0
  -21.0090   -6.1730   24.8610 C   0  0  0  0  0  3  0  0  0  0  0  0
  -21.3680   -4.8140   24.9300 C   0  0  0  0  0  0  0  0  0  0  0  0
  -21.9490   -4.1820   23.8160 C   0  0  0  0  0  3  0  0  0  0  0  0
  -22.1670   -4.9070   22.6310 C   0  0  0  0  0  0  0  0  0  0  0  0
  -22.7070   -4.2870   21.5540 F   0  0  0  0  0  0  0  0  0  0  0  0
  -21.1530   -4.1120   26.0670 F   0  0  0  0  0  0  0  0  0  0  0  0
  -22.9960  -13.5830   21.1190 C   0  0  0  0  0  0  0  0  0  0  0  0
  -22.3120  -12.8630   22.0020 N   0  0  0  0  0  0  0  0  0  0  0  0
  -22.5270  -14.6170   20.6430 O   0  0  0  0  0  0  0  0  0  0  0  0
  -22.7040  -12.0260   22.4090 H   0  0  0  0  0  0  0  0  0  0  0  0
  -21.3830  -13.1520   22.2750 H   0  0  0  0  0  0  0  0  0  0  0  0
  -25.5770  -15.2840   20.2110 N   0  0  0  0  0  0  0  0  0  0  0  0
  -24.8130  -15.9320   20.3620 H   0  0  0  0  0  0  0  0  0  0  0  0
  -26.4090  -15.7310   19.8480 H   0  0  0  0  0  0  0  0  0  0  0  0
  -29.2050  -22.6780   21.5590 C   0  0  0  0  0  0  0  0  0  0  0  0
  -30.3170  -23.2190   21.6350 O   0  0  0  0  0  0  0  0  0  0  0  0
  -27.9070  -23.4940   21.5510 C   0  0  0  0  0  2  0  0  0  0  0  0
  -28.0860  -25.0220   21.4560 C   0  0  0  0  0  2  0  0  0  0  0  0
  -28.5770  -25.5130   20.0790 C   0  0  0  0  0  2  0  0  0  0  0  0
  -28.5960  -26.9390   20.0240 O   0  0  0  0  0  0  0  0  0  0  0  0
  -24.7040  -31.8770   23.2970 C   0  0  0  0  0  0  0  0  0  0  0  0
  -27.3930  -27.6100   20.0370 C   0  0  0  0  0  0  0  0  0  0  0  0
  -23.5130  -30.5500   21.5830 C   0  0  0  0  0  3  0  0  0  0  0  0
  -24.9820  -29.0820   20.1060 C   0  0  0  0  0  0  0  0  0  0  0  0
  -26.0370  -30.9300   21.4190 C   0  0  0  0  0  2  0  0  0  0  0  0
  -26.1320  -29.5930   20.7190 C   0  0  0  0  0  0  0  0  0  0  0  0
  -27.3400  -28.8650   20.6780 C   0  0  0  0  0  3  0  0  0  0  0  0
  -26.2220  -27.1040   19.4260 C   0  0  0  0  0  3  0  0  0  0  0  0
  -25.0200  -27.8350   19.4590 C   0  0  0  0  0  3  0  0  0  0  0  0
  -23.7340  -29.9320   20.1770 C   0  0  0  0  0  2  0  0  0  0  0  0
  -24.7690  -31.1310   22.1590 N   0  0  0  0  0  0  0  0  0  0  0  0
  -23.6180  -32.1210   23.8410 O   0  0  0  0  0  0  0  0  0  0  0  0
  -22.8590  -29.4830   22.4900 C   0  0  0  0  0  0  0  0  0  0  0  0
  -21.5330  -29.3180   22.3540 N   0  0  0  0  0  0  0  0  0  0  0  0
  -23.5390  -28.8090   23.2670 O   0  0  0  0  0  0  0  0  0  0  0  0
  -21.0470  -29.9130   21.6970 H   0  0  0  0  0  0  0  0  0  0  0  0
  -18.1450  -28.1510   22.8110 C   0  0  0  0  0  0  0  0  0  0  0  0
  -20.7090  -28.3500   23.0740 C   0  0  0  0  0  3  0  0  0  0  0  0
  -20.7840  -26.9550   22.4130 C   0  0  0  0  0  2  0  0  0  0  0  0
  -19.6680  -26.7110   21.3920 C   0  0  0  0  0  2  0  0  0  0  0  0
  -18.2950  -26.8410   22.0550 C   0  0  0  0  0  2  0  0  0  0  0  0
  -19.2800  -28.8670   23.2760 C   0  0  0  0  0  0  0  0  0  0  0  0
  -19.0870  -30.0970   23.9420 C   0  0  0  0  0  3  0  0  0  0  0  0
  -17.7940  -30.6100   24.1460 C   0  0  0  0  0  3  0  0  0  0  0  0
  -16.6730  -29.8900   23.6990 C   0  0  0  0  0  3  0  0  0  0  0  0
  -16.8500  -28.6610   23.0360 C   0  0  0  0  0  3  0  0  0  0  0  0
  -25.9840  -32.4800   23.9560 C   0  0  0  0  0  3  0  0  0  0  0  0
  -26.4840  -31.6600   25.2080 C   0  0  1  0  0  0  0  0  0  0  0  0
  -25.3760  -31.3840   26.2510 C   0  0  0  0  0  1  0  0  0  0  0  0
  -27.0690  -30.2970   24.7700 C   0  0  0  0  0  1  0  0  0  0  0  0
  -27.6270  -32.4270   25.9150 C   0  0  0  0  0  1  0  0  0  0  0  0
  -25.6780  -33.8670   24.3290 N   0  0  0  0  0  0  0  0  0  0  0  0
  -26.0350  -34.9420   23.6150 C   0  0  0  0  0  0  0  0  0  0  0  0
  -26.7270  -34.8700   22.5950 O   0  0  0  0  0  0  0  0  0  0  0  0
  -25.0640  -33.9970   25.1200 H   0  0  0  0  0  0  0  0  0  0  0  0
  -24.3330  -36.7610   23.2750 C   0  0  0  0  0  1  0  0  0  0  0  0
  -25.5440  -36.3160   24.1100 C   0  0  0  0  0  3  0  0  0  0  0  0
  -27.6570  -37.1470   25.0420 C   0  0  0  0  0  1  0  0  0  0  0  0
  -26.5880  -37.3620   24.0700 N   0  0  0  0  0  0  0  0  0  0  0  0
  -26.1850  -38.2800   24.2390 H   0  0  0  0  0  0  0  0  0  0  0  0
  1 49  1  0
  2  1  1  0
  2  4  1  0
  3  1  2  0
  5 18  1  0
  6 11  1  0
  7  8  1  0
  7  6  1  0
  9  8  1  0
  9 24  1  0
  9 10  1  0
 11  5  1  0
 11 10  1  0
 12  5  2  0
 13 14  2  0
 14 19  1  0
 14  2  1  0
 15 19  1  0
 16 13  1  0
 17 15  2  0
 17 13  1  0
 18 15  1  0
 18 20  1  0
 21 22  2  0
 22 41  1  0
 23 22  1  0
 23 26  1  0
 24 25  1  0
 24 21  1  0
 25 23  2  0
 26 27  1  0
 27 28  2  0
 29 32  1  0
 29 28  1  0
 30 29  2  0
 31 30  1  0
 31 26  2  0
 32 33  1  0
 33 38  2  0
 33 34  1  0
 34 35  2  0
 35 36  1  0
 36 40  1  0
 37 36  2  0
 38 37  1  0
 39 38  1  0
 41 42  1  0
 42 45  1  0
 42 44  1  0
 43 41  2  0
 46 47  1  0
 46 21  1  0
 48 46  1  0
 49 50  2  0
 51 49  1  0
 52 51  1  0
 53 52  1  0
 54 56  1  0
 54 53  1  0
 55 66  2  0
 56 61  1  0
 57 65  1  0
 57 67  1  0
 58 64  1  0
 58 60  1  0
 59 65  1  0
 60 59  1  0
 61 60  2  0
 62 63  1  0
 62 56  2  0
 63 58  2  0
 64 57  1  0
 65 55  1  0
 67 69  2  0
 68 67  1  0
 70 68  1  0
 71 80  2  0
 71 76  1  0
 72 68  1  0
 72 76  1  0
 73 72  1  0
 74 75  1  0
 74 73  1  0
 75 71  1  0
 76 77  2  0
 77 78  1  0
 79 78  2  0
 80 79  1  0
 81 55  1  0
 81 86  1  0
 81 82  1  0
 82 85  1  1
 82 83  1  0
 84 82  1  0
 86 89  1  0
 87 91  1  0
 87 86  1  0
 88 87  2  0
 91 90  1  0
 93 91  1  0
 93 94  1  0
 93 92  1  0
M  ISO  4   5 100  18 100  53 101  54 101
M  END
>  <TORSDO>  (82) 
F 20

>  <SCORE>  (82) 
-13.009

>  <name>  (82) 
82

>  <ligand_id>  (82) 
82

>  <original_smiles>  (82) 
[H]c1c([H])c([H])c2c(c1[H])C([H])([H])C([H])([H])C([H])([H])C2([H])N([H])C(=O)C1([H])N(C(=O)C([H])(N([H])C(=O)C([H])(N([H])C([H])([H])[H])C([H])([H])[H])C(C([H])([H])[H])(C([H])([H])[H])C([H])([H])[H])C([H])([H])c2c([H])c(OC([H])([H])C([H])([H])C([H])([H])C(=O)C(=O)N([H])c3sc(N([H])C(=O)N4C([H])([H])C([H])([H])C([H])([H])C([H])(n5nc(-c6c([H])c([H])c(Oc7c([H])c([H])c(F)c([H])c7F)c([H])c6[H])c(C(=O)N([H])[H])c5N([H])[H])C4([H])[H])nc3C([H])([H])[H])c([H])c([H])c2C1([H])[H]

>  <smiles>  (82) 
[H]c1c([H])c([H])c2c(c1[H])C([H])([H])C([H])([H])C([H])([H])C2([H])N([H])C(=O)C1([H])N(C(=O)C([H])(N([H])C(=O)C([H])(N([H])C([H])([H])[H])C([H])([H])[H])C(C([H])([H])[H])(C([H])([H])[H])C([H])([H])[H])C([H])([H])c2c([H])c(OC([H])([H])C([H])([H])C([H])([H])C(=O)C(=O)N([H])c3sc(N([H])C(=O)N4C([H])([H])C([H])([H])C([H])([H])C([H])(n5nc(-c6c([H])c([H])c(Oc7c([H])c([H])c(F)c([H])c7F)c([H])c6[H])c(C(=O)N([H])[H])c5N([H])[H])C4([H])[H])nc3C([H])([H])[H])c([H])c([H])c2C1([H])[H]

$$$$
83:0:0
     RDKit          3D

 95103  0  0  1  0  0  0  0  0999 V2000
  -29.1600  -21.8540   20.3950 C   0  0  0  0  0  0  0  0  0  0  0  0
  -28.7600  -20.5580   20.4470 N   0  0  0  0  0  0  0  0  0  0  0  0
  -30.3390  -22.2160   20.3080 O   0  0  0  0  0  0  0  0  0  0  0  0
  -27.7880  -20.4340   20.6970 H   0  0  0  0  0  0  0  0  0  0  0  0
  -29.4100  -18.1470   20.6690 C   0  0  0  0  0  3  0  0  0  0  0  0
  -30.6870  -18.2710   18.1760 C   0  0  0  0  0  3  0  0  0  0  0  0
  -29.4620  -19.3940   19.9710 C   0  0  0  0  0  0  0  0  0  0  0  0
  -30.0110  -16.9610   20.1410 C   0  0  0  0  0  0  0  0  0  0  0  0
  -30.1130  -19.4320   18.7150 C   0  0  0  0  0  0  0  0  0  0  0  0
  -30.6200  -17.0450   18.8590 C   0  0  0  0  0  0  0  0  0  0  0  0
  -30.1300  -20.5640   17.9690 F   0  0  0  0  0  0  0  0  0  0  0  0
  -31.0930  -15.9470   18.2220 F   0  0  0  0  0  0  0  0  0  0  0  0
  -30.7210  -14.6200   20.7090 C   0  0  0  0  0  0  0  0  0  0  0  0
  -30.5460  -12.3830   19.7090 C   0  0  0  0  0  2  0  0  0  0  0  0
  -29.6730  -12.5120   18.4430 C   0  0  0  0  0  2  0  0  0  0  0  0
  -28.1790  -12.3630   18.7950 C   0  0  0  0  0  2  0  0  0  0  0  0
  -27.7540  -13.2490   19.9970 C   0  0  0  0  0  3  0  0  0  0  0  0
  -28.7490  -13.1160   21.1710 C   0  0  0  0  0  2  0  0  0  0  0  0
  -30.0950  -13.4120   20.6590 N   0  0  0  0  0  0  0  0  0  0  0  0
  -31.9230  -14.7500   20.4650 O   0  0  0  0  0  0  0  0  0  0  0  0
  -29.9060  -15.6990   20.8430 N   0  0  0  0  0  0  0  0  0  0  0  0
  -29.0110  -15.5080   21.2640 H   0  0  0  0  0  0  0  0  0  0  0  0
  -25.3210  -13.8450   20.5800 C   0  0  0  0  0  0  0  0  0  0  0  0
  -24.2420  -13.0690   20.9060 C   0  0  0  0  0  0  0  0  0  0  0  0
  -24.7140  -11.7210   20.9220 C   0  0  0  0  0  0  0  0  0  0  0  0
  -26.3830  -12.9690   20.4140 N   0  0  0  0  0  0  0  0  0  0  0  0
  -26.0200  -11.6880   20.6800 N   0  0  0  0  0  0  0  0  0  0  0  0
  -23.9900  -10.4550   21.0940 C   0  0  0  0  0  0  0  0  0  0  0  0
  -24.3860   -9.5030   22.0590 C   0  0  0  0  0  3  0  0  0  0  0  0
  -23.6630   -8.3010   22.2160 C   0  0  0  0  0  3  0  0  0  0  0  0
  -22.5290   -8.0440   21.4090 C   0  0  0  0  0  0  0  0  0  0  0  0
  -22.1520   -8.9850   20.4360 C   0  0  0  0  0  3  0  0  0  0  0  0
  -22.8760  -10.1780   20.2750 C   0  0  0  0  0  3  0  0  0  0  0  0
  -21.7810   -6.8940   21.4760 O   0  0  0  0  0  0  0  0  0  0  0  0
  -21.6840   -6.1630   22.6330 C   0  0  0  0  0  0  0  0  0  0  0  0
  -21.1810   -6.7230   23.8280 C   0  0  0  0  0  3  0  0  0  0  0  0
  -21.0340   -5.9170   24.9740 C   0  0  0  0  0  3  0  0  0  0  0  0
  -21.3800   -4.5530   24.9270 C   0  0  0  0  0  0  0  0  0  0  0  0
  -21.8770   -3.9930   23.7370 C   0  0  0  0  0  3  0  0  0  0  0  0
  -22.0250   -4.7960   22.5930 C   0  0  0  0  0  0  0  0  0  0  0  0
  -22.4840   -4.2470   21.4420 F   0  0  0  0  0  0  0  0  0  0  0  0
  -21.2320   -3.7780   26.0260 F   0  0  0  0  0  0  0  0  0  0  0  0
  -22.8290  -13.5380   21.0980 C   0  0  0  0  0  0  0  0  0  0  0  0
  -22.0610  -12.8480   21.9350 N   0  0  0  0  0  0  0  0  0  0  0  0
  -22.4110  -14.5520   20.5410 O   0  0  0  0  0  0  0  0  0  0  0  0
  -22.4110  -12.0280   22.4090 H   0  0  0  0  0  0  0  0  0  0  0  0
  -21.1120  -13.1460   22.1050 H   0  0  0  0  0  0  0  0  0  0  0  0
  -25.4840  -15.2140   20.3880 N   0  0  0  0  0  0  0  0  0  0  0  0
  -24.7070  -15.8610   20.4420 H   0  0  0  0  0  0  0  0  0  0  0  0
  -26.3410  -15.6510   20.0730 H   0  0  0  0  0  0  0  0  0  0  0  0
  -27.9770  -22.8800   20.5160 C   0  0  0  0  0  0  0  0  0  0  0  0
  -26.8110  -22.5360   20.2840 O   0  0  0  0  0  0  0  0  0  0  0  0
  -28.2660  -24.3380   20.9580 C   0  0  0  0  0  2  0  0  0  0  0  0
  -28.5240  -25.3570   19.8100 C   0  0  0  0  0  2  0  0  0  0  0  0
  -28.4490  -26.7450   20.2290 O   0  0  0  0  0  0  0  0  0  0  0  0
  -24.5620  -31.9140   23.2660 C   0  0  0  0  0  0  0  0  0  0  0  0
  -27.2510  -27.4500   20.2100 C   0  0  0  0  0  0  0  0  0  0  0  0
  -23.3770  -30.5030   21.6180 C   0  0  0  0  0  3  0  0  0  0  0  0
  -24.8470  -28.9710   20.2060 C   0  0  0  0  0  0  0  0  0  0  0  0
  -25.9060  -30.8690   21.4390 C   0  0  0  0  0  2  0  0  0  0  0  0
  -26.0020  -29.4950   20.7990 C   0  0  0  0  0  0  0  0  0  0  0  0
  -27.2030  -28.7450   20.7920 C   0  0  0  0  0  3  0  0  0  0  0  0
  -26.0660  -26.9440   19.6240 C   0  0  0  0  0  3  0  0  0  0  0  0
  -24.8780  -27.6960   19.6170 C   0  0  0  0  0  3  0  0  0  0  0  0
  -23.6000  -29.8250   20.2410 C   0  0  0  0  0  2  0  0  0  0  0  0
  -24.6340  -31.1110   22.1660 N   0  0  0  0  0  0  0  0  0  0  0  0
  -23.4750  -32.1790   23.7990 O   0  0  0  0  0  0  0  0  0  0  0  0
  -22.7250  -29.4770   22.5760 C   0  0  0  0  0  0  0  0  0  0  0  0
  -21.4020  -29.2910   22.4440 N   0  0  0  0  0  0  0  0  0  0  0  0
  -23.4090  -28.8540   23.3920 O   0  0  0  0  0  0  0  0  0  0  0  0
  -20.9120  -29.8470   21.7560 H   0  0  0  0  0  0  0  0  0  0  0  0
  -18.0300  -28.0890   22.9330 C   0  0  0  0  0  0  0  0  0  0  0  0
  -20.5860  -28.3480   23.2090 C   0  0  0  0  0  3  0  0  0  0  0  0
  -20.6920  -26.9200   22.6270 C   0  0  0  0  0  2  0  0  0  0  0  0
  -19.5910  -26.6000   21.6090 C   0  0  0  0  0  2  0  0  0  0  0  0
  -18.2080  -26.7410   22.2520 C   0  0  0  0  0  2  0  0  0  0  0  0
  -19.1470  -28.8500   23.3680 C   0  0  0  0  0  0  0  0  0  0  0  0
  -18.9250  -30.1110   23.9630 C   0  0  0  0  0  3  0  0  0  0  0  0
  -17.6210  -30.6100   24.1280 C   0  0  0  0  0  3  0  0  0  0  0  0
  -16.5180  -29.8460   23.7110 C   0  0  0  0  0  3  0  0  0  0  0  0
  -16.7230  -28.5870   23.1190 C   0  0  0  0  0  3  0  0  0  0  0  0
  -25.8390  -32.5550   23.8950 C   0  0  0  0  0  3  0  0  0  0  0  0
  -26.3380  -31.8050   25.1900 C   0  0  1  0  0  0  0  0  0  0  0  0
  -25.2310  -31.5830   26.2460 C   0  0  0  0  0  1  0  0  0  0  0  0
  -26.9270  -30.4210   24.8270 C   0  0  0  0  0  1  0  0  0  0  0  0
  -27.4790  -32.6090   25.8550 C   0  0  0  0  0  1  0  0  0  0  0  0
  -25.5270  -33.9580   24.1960 N   0  0  0  0  0  0  0  0  0  0  0  0
  -25.8730  -34.9970   23.4230 C   0  0  0  0  0  0  0  0  0  0  0  0
  -26.5590  -34.8740   22.4050 O   0  0  0  0  0  0  0  0  0  0  0  0
  -24.9190  -34.1270   24.9840 H   0  0  0  0  0  0  0  0  0  0  0  0
  -24.1600  -36.7890   23.0000 C   0  0  0  0  0  1  0  0  0  0  0  0
  -25.3790  -36.3930   23.8480 C   0  0  0  0  0  3  0  0  0  0  0  0
  -27.4930  -37.2860   24.7210 C   0  0  0  0  0  1  0  0  0  0  0  0
  -26.4190  -37.4410   23.7440 N   0  0  0  0  0  0  0  0  0  0  0  0
  -26.0120  -38.3650   23.8630 H   0  0  0  0  0  0  0  0  0  0  0  0
  1  2  1  0
  1 51  1  0
  2  4  1  0
  3  1  2  0
  6  9  2  0
  6 10  1  0
  7  2  1  0
  7  5  2  0
  8  5  1  0
  8 21  1  0
  9  7  1  0
 10  8  2  0
 11  9  1  0
 12 10  1  0
 13 21  1  0
 14 19  1  0
 15 16  1  0
 15 14  1  0
 17 16  1  0
 17 26  1  0
 17 18  1  0
 19 13  1  0
 19 18  1  0
 20 13  2  0
 21 22  1  0
 23 24  2  0
 24 25  1  0
 24 43  1  0
 25 28  1  0
 26 23  1  0
 26 27  1  0
 27 25  2  0
 28 29  1  0
 29 30  2  0
 31 34  1  0
 31 30  1  0
 32 31  2  0
 33 32  1  0
 33 28  2  0
 34 35  1  0
 35 36  1  0
 36 37  2  0
 38 37  1  0
 38 42  1  0
 39 38  2  0
 40 35  2  0
 40 39  1  0
 41 40  1  0
 43 44  1  0
 44 47  1  0
 44 46  1  0
 45 43  2  0
 48 49  1  0
 48 23  1  0
 50 48  1  0
 51 53  1  0
 52 51  2  0
 54 55  1  0
 54 53  1  0
 56 67  2  0
 57 55  1  0
 57 62  1  0
 58 66  1  0
 58 68  1  0
 59 65  1  0
 59 61  1  0
 60 66  1  0
 61 60  1  0
 62 61  2  0
 63 57  2  0
 64 63  1  0
 64 59  2  0
 65 58  1  0
 66 56  1  0
 68 70  2  0
 69 68  1  0
 71 69  1  0
 72 81  2  0
 72 77  1  0
 73 69  1  0
 73 77  1  0
 74 73  1  0
 75 76  1  0
 75 74  1  0
 76 72  1  0
 77 78  2  0
 78 79  1  0
 80 79  2  0
 81 80  1  0
 82 56  1  0
 82 87  1  0
 82 83  1  0
 83 86  1  1
 83 84  1  0
 85 83  1  0
 87 90  1  0
 88 92  1  0
 88 87  1  0
 89 88  2  0
 92 91  1  0
 94 92  1  0
 94 95  1  0
 94 93  1  0
M  ISO  4  13 100  21 100  54 101  55 101
M  END
>  <TORSDO>  (83) 
F 20

>  <SCORE>  (83) 
-13.990

>  <name>  (83) 
83

>  <ligand_id>  (83) 
83

>  <original_smiles>  (83) 
[H]c1c([H])c([H])c2c(c1[H])C([H])([H])C([H])([H])C([H])([H])C2([H])N([H])C(=O)C1([H])N(C(=O)C([H])(N([H])C(=O)C([H])(N([H])C([H])([H])[H])C([H])([H])[H])C(C([H])([H])[H])(C([H])([H])[H])C([H])([H])[H])C([H])([H])c2c([H])c(OC([H])([H])C([H])([H])C(=O)C(=O)N([H])c3c([H])c(N([H])C(=O)N4C([H])([H])C([H])([H])C([H])([H])C([H])(n5nc(-c6c([H])c([H])c(Oc7c([H])c([H])c(F)c([H])c7F)c([H])c6[H])c(C(=O)N([H])[H])c5N([H])[H])C4([H])[H])c(F)c([H])c3F)c([H])c([H])c2C1([H])[H]

>  <smiles>  (83) 
[H]c1c([H])c([H])c2c(c1[H])C([H])([H])C([H])([H])C([H])([H])C2([H])N([H])C(=O)C1([H])N(C(=O)C([H])(N([H])C(=O)C([H])(N([H])C([H])([H])[H])C([H])([H])[H])C(C([H])([H])[H])(C([H])([H])[H])C([H])([H])[H])C([H])([H])c2c([H])c(OC([H])([H])C([H])([H])C(=O)C(=O)N([H])c3c([H])c(N([H])C(=O)N4C([H])([H])C([H])([H])C([H])([H])C([H])(n5nc(-c6c([H])c([H])c(Oc7c([H])c([H])c(F)c([H])c7F)c([H])c6[H])c(C(=O)N([H])[H])c5N([H])[H])C4([H])[H])c(F)c([H])c3F)c([H])c([H])c2C1([H])[H]

$$$$
84:0:0
     RDKit          3D

 96104  0  0  1  0  0  0  0  0999 V2000
  -29.2850  -22.7510   19.6970 C   0  0  0  0  0  0  0  0  0  0  0  0
  -30.3870  -21.9700   19.8340 N   0  0  0  0  0  0  0  0  0  0  0  0
  -28.2120  -22.2640   19.3360 O   0  0  0  0  0  0  0  0  0  0  0  0
  -31.2210  -22.4720   20.1140 H   0  0  0  0  0  0  0  0  0  0  0  0
  -28.5110  -25.1080   19.6640 C   0  0  0  0  0  3  0  0  0  0  0  0
  -29.4880  -24.2030   19.9710 C   0  0  0  0  0  0  0  0  0  0  0  0
  -30.6440  -24.6140   20.5160 O   0  0  0  0  0  0  0  0  0  0  0  0
  -30.5880  -25.5570   20.6080 H   0  0  0  0  0  0  0  0  0  0  0  0
  -28.5490  -26.5040   19.8500 O   0  0  0  0  0  0  0  0  0  0  0  0
  -24.7200  -31.7530   22.9890 C   0  0  0  0  0  0  0  0  0  0  0  0
  -27.3780  -27.2820   19.8420 C   0  0  0  0  0  0  0  0  0  0  0  0
  -23.5140  -30.3480   21.3530 C   0  0  0  0  0  3  0  0  0  0  0  0
  -24.9720  -28.8350   19.9000 C   0  0  0  0  0  0  0  0  0  0  0  0
  -26.0440  -30.7080   21.1410 C   0  0  0  0  0  2  0  0  0  0  0  0
  -26.1360  -29.3380   20.4890 C   0  0  0  0  0  0  0  0  0  0  0  0
  -27.3360  -28.5680   20.4670 C   0  0  0  0  0  3  0  0  0  0  0  0
  -26.1830  -26.8390   19.2180 C   0  0  0  0  0  3  0  0  0  0  0  0
  -24.9950  -27.5870   19.2640 C   0  0  0  0  0  3  0  0  0  0  0  0
  -23.7230  -29.6880   19.9650 C   0  0  0  0  0  2  0  0  0  0  0  0
  -24.7780  -30.9530   21.8840 N   0  0  0  0  0  0  0  0  0  0  0  0
  -23.6400  -32.0090   23.5400 O   0  0  0  0  0  0  0  0  0  0  0  0
  -22.8830  -29.3100   22.3110 C   0  0  0  0  0  0  0  0  0  0  0  0
  -21.5570  -29.1200   22.2080 N   0  0  0  0  0  0  0  0  0  0  0  0
  -23.5850  -28.6800   23.1060 O   0  0  0  0  0  0  0  0  0  0  0  0
  -21.0500  -29.6830   21.5390 H   0  0  0  0  0  0  0  0  0  0  0  0
  -18.1990  -27.8910   22.7580 C   0  0  0  0  0  0  0  0  0  0  0  0
  -20.7610  -28.1660   22.9810 C   0  0  0  0  0  3  0  0  0  0  0  0
  -20.8610  -26.7430   22.3870 C   0  0  0  0  0  2  0  0  0  0  0  0
  -19.7420  -26.4240   21.3900 C   0  0  0  0  0  2  0  0  0  0  0  0
  -18.3730  -26.5510   22.0630 C   0  0  0  0  0  2  0  0  0  0  0  0
  -19.3220  -28.6560   23.1750 C   0  0  0  0  0  0  0  0  0  0  0  0
  -19.1080  -29.9110   23.7860 C   0  0  0  0  0  3  0  0  0  0  0  0
  -17.8040  -30.4020   23.9820 C   0  0  0  0  0  3  0  0  0  0  0  0
  -16.6970  -29.6350   23.5810 C   0  0  0  0  0  3  0  0  0  0  0  0
  -16.8950  -28.3810   22.9770 C   0  0  0  0  0  3  0  0  0  0  0  0
  -26.0050  -32.3950   23.5970 C   0  0  0  0  0  3  0  0  0  0  0  0
  -26.6010  -31.5700   24.8040 C   0  0  1  0  0  0  0  0  0  0  0  0
  -25.5610  -31.2170   25.8930 C   0  0  0  0  0  1  0  0  0  0  0  0
  -27.2290  -30.2460   24.3070 C   0  0  0  0  0  1  0  0  0  0  0  0
  -27.7370  -32.3760   25.4770 C   0  0  0  0  0  1  0  0  0  0  0  0
  -25.6580  -33.7580   24.0220 N   0  0  0  0  0  0  0  0  0  0  0  0
  -25.9370  -34.8640   23.3210 C   0  0  0  0  0  0  0  0  0  0  0  0
  -26.5850  -34.8480   22.2720 O   0  0  0  0  0  0  0  0  0  0  0  0
  -25.0780  -33.8460   24.8440 H   0  0  0  0  0  0  0  0  0  0  0  0
  -24.1420  -36.6140   23.1110 C   0  0  0  0  0  1  0  0  0  0  0  0
  -25.4120  -36.2040   23.8720 C   0  0  0  0  0  3  0  0  0  0  0  0
  -27.5330  -37.1090   24.7130 C   0  0  0  0  0  1  0  0  0  0  0  0
  -26.4040  -37.2980   23.8050 N   0  0  0  0  0  0  0  0  0  0  0  0
  -25.9700  -38.1910   24.0210 H   0  0  0  0  0  0  0  0  0  0  0  0
  -30.5790  -20.5500   19.3840 C   0  0  0  0  0  2  0  0  0  0  0  0
  -30.6740  -19.7450   21.8140 C   0  0  0  0  0  3  0  0  0  0  0  0
  -30.7490  -18.7360   22.7880 C   0  0  0  0  0  3  0  0  0  0  0  0
  -30.7250  -19.4180   20.4410 C   0  0  0  0  0  0  0  0  0  0  0  0
  -30.9550  -16.9920   21.0570 C   0  0  0  0  0  0  0  0  0  0  0  0
  -30.8870  -17.3860   22.4170 C   0  0  0  0  0  0  0  0  0  0  0  0
  -30.8680  -18.0290   20.0670 C   0  0  0  0  0  0  0  0  0  0  0  0
  -30.9400  -16.4480   23.3960 F   0  0  0  0  0  0  0  0  0  0  0  0
  -30.8780  -17.7030   18.7520 F   0  0  0  0  0  0  0  0  0  0  0  0
  -31.6330  -14.6570   20.0700 C   0  0  0  0  0  0  0  0  0  0  0  0
  -31.2410  -12.5060   18.8560 C   0  0  0  0  0  2  0  0  0  0  0  0
  -30.2480  -12.7550   17.6950 C   0  0  0  0  0  2  0  0  0  0  0  0
  -28.7840  -12.7020   18.1760 C   0  0  0  0  0  2  0  0  0  0  0  0
  -28.5580  -13.5250   19.4720 C   0  0  0  0  0  3  0  0  0  0  0  0
  -29.6340  -13.1800   20.5230 C   0  0  0  0  0  2  0  0  0  0  0  0
  -30.9500  -13.4750   19.9300 N   0  0  0  0  0  0  0  0  0  0  0  0
  -32.7130  -14.8620   19.5030 O   0  0  0  0  0  0  0  0  0  0  0  0
  -31.0100  -15.5490   20.8850 N   0  0  0  0  0  0  0  0  0  0  0  0
  -30.2920  -15.0950   21.4290 H   0  0  0  0  0  0  0  0  0  0  0  0
  -26.2570  -14.3060   20.3230 C   0  0  0  0  0  0  0  0  0  0  0  0
  -25.1390  -13.6120   20.7020 C   0  0  0  0  0  0  0  0  0  0  0  0
  -25.4770  -12.2280   20.5920 C   0  0  0  0  0  0  0  0  0  0  0  0
  -27.2070  -13.3470   19.9990 N   0  0  0  0  0  0  0  0  0  0  0  0
  -26.7440  -12.0900   20.2200 N   0  0  0  0  0  0  0  0  0  0  0  0
  -24.6510  -11.0250   20.7730 C   0  0  0  0  0  0  0  0  0  0  0  0
  -24.9930  -10.0280   21.7120 C   0  0  0  0  0  3  0  0  0  0  0  0
  -24.1740   -8.8900   21.8790 C   0  0  0  0  0  3  0  0  0  0  0  0
  -22.9980   -8.7420   21.1040 C   0  0  0  0  0  0  0  0  0  0  0  0
  -22.6740   -9.7280   20.1570 C   0  0  0  0  0  3  0  0  0  0  0  0
  -23.4920  -10.8570   19.9890 C   0  0  0  0  0  3  0  0  0  0  0  0
  -22.1580   -7.6560   21.1720 O   0  0  0  0  0  0  0  0  0  0  0  0
  -21.9620   -6.9730   22.3460 C   0  0  0  0  0  0  0  0  0  0  0  0
  -21.5180   -7.6230   23.5160 C   0  0  0  0  0  3  0  0  0  0  0  0
  -21.2650   -6.8750   24.6840 C   0  0  0  0  0  3  0  0  0  0  0  0
  -21.4400   -5.4770   24.6760 C   0  0  0  0  0  0  0  0  0  0  0  0
  -21.8790   -4.8270   23.5090 C   0  0  0  0  0  3  0  0  0  0  0  0
  -22.1370   -5.5740   22.3450 C   0  0  0  0  0  0  0  0  0  0  0  0
  -22.5410   -4.9410   21.2160 F   0  0  0  0  0  0  0  0  0  0  0  0
  -21.1880   -4.7580   25.7940 F   0  0  0  0  0  0  0  0  0  0  0  0
  -23.8010  -14.1940   21.0660 C   0  0  0  0  0  0  0  0  0  0  0  0
  -23.0810  -13.5570   21.9840 N   0  0  0  0  0  0  0  0  0  0  0  0
  -23.4100  -15.2510   20.5720 O   0  0  0  0  0  0  0  0  0  0  0  0
  -23.4060  -12.6990   22.4060 H   0  0  0  0  0  0  0  0  0  0  0  0
  -22.1860  -13.9300   22.2730 H   0  0  0  0  0  0  0  0  0  0  0  0
  -26.5410  -15.6650   20.2150 N   0  0  0  0  0  0  0  0  0  0  0  0
  -25.8640  -16.3780   20.4680 H   0  0  0  0  0  0  0  0  0  0  0  0
  -27.4320  -16.0480   19.9290 H   0  0  0  0  0  0  0  0  0  0  0  0
  1  2  1  0
  1  6  1  0
  2  4  1  0
  3  1  2  0
  5  9  1  0
  5  6  2  0
  6  7  1  0
  7  8  1  0
 10 21  2  0
 11  9  1  0
 11 16  1  0
 12 20  1  0
 12 22  1  0
 13 19  1  0
 13 15  1  0
 14 20  1  0
 15 14  1  0
 16 15  2  0
 17 18  1  0
 17 11  2  0
 18 13  2  0
 19 12  1  0
 20 10  1  0
 22 24  2  0
 23 22  1  0
 25 23  1  0
 26 35  2  0
 26 31  1  0
 27 23  1  0
 27 31  1  0
 28 27  1  0
 29 30  1  0
 29 28  1  0
 30 26  1  0
 31 32  2  0
 32 33  1  0
 34 33  2  0
 35 34  1  0
 36 10  1  0
 36 41  1  0
 36 37  1  0
 37 40  1  1
 37 38  1  0
 39 37  1  0
 41 44  1  0
 42 46  1  0
 42 41  1  0
 43 42  2  0
 46 45  1  0
 48 46  1  0
 48 49  1  0
 48 47  1  0
 50  2  1  0
 50 53  1  0
 51 52  1  0
 53 51  2  0
 54 55  1  0
 55 52  2  0
 55 57  1  0
 56 53  1  0
 56 54  2  0
 58 56  1  0
 59 67  1  0
 60 65  1  0
 61 62  1  0
 61 60  1  0
 63 62  1  0
 63 72  1  0
 63 64  1  0
 65 59  1  0
 65 64  1  0
 66 59  2  0
 67 54  1  0
 67 68  1  0
 69 70  2  0
 70 89  1  0
 71 70  1  0
 71 74  1  0
 72 73  1  0
 72 69  1  0
 73 71  2  0
 74 75  1  0
 75 76  2  0
 77 80  1  0
 77 76  1  0
 78 77  2  0
 79 78  1  0
 79 74  2  0
 80 81  1  0
 81 82  1  0
 82 83  2  0
 84 83  1  0
 84 88  1  0
 85 84  2  0
 86 81  2  0
 86 85  1  0
 87 86  1  0
 89 90  1  0
 90 93  1  0
 90 92  1  0
 91 89  2  0
 94 69  1  0
 94 95  1  0
 96 94  1  0
M  ISO  4   5 101   9 101  59 100  67 100
M  END
>  <TORSDO>  (84) 
F 20

>  <SCORE>  (84) 
-12.253

>  <name>  (84) 
84

>  <ligand_id>  (84) 
84

>  <original_smiles>  (84) 
[H]OC(C(=O)N([H])C([H])([H])c1c([H])c([H])c(F)c(N([H])C(=O)N2C([H])([H])C([H])([H])C([H])([H])C([H])(n3nc(-c4c([H])c([H])c(Oc5c([H])c([H])c(F)c([H])c5F)c([H])c4[H])c(C(=O)N([H])[H])c3N([H])[H])C2([H])[H])c1F)=C([H])Oc1c([H])c([H])c2c(c1[H])C([H])([H])N(C(=O)C([H])(N([H])C(=O)C([H])(N([H])C([H])([H])[H])C([H])([H])[H])C(C([H])([H])[H])(C([H])([H])[H])C([H])([H])[H])C([H])(C(=O)N([H])C1([H])c3c([H])c([H])c([H])c([H])c3C([H])([H])C([H])([H])C1([H])[H])C2([H])[H]

>  <smiles>  (84) 
[H]OC(C(=O)N([H])C([H])([H])c1c([H])c([H])c(F)c(N([H])C(=O)N2C([H])([H])C([H])([H])C([H])([H])C([H])(n3nc(-c4c([H])c([H])c(Oc5c([H])c([H])c(F)c([H])c5F)c([H])c4[H])c(C(=O)N([H])[H])c3N([H])[H])C2([H])[H])c1F)=C([H])Oc1c([H])c([H])c2c(c1[H])C([H])([H])N(C(=O)C([H])(N([H])C(=O)C([H])(N([H])C([H])([H])[H])C([H])([H])[H])C(C([H])([H])[H])(C([H])([H])[H])C([H])([H])[H])C([H])(C(=O)N([H])C1([H])c3c([H])c([H])c([H])c([H])c3C([H])([H])C([H])([H])C1([H])[H])C2([H])[H]

$$$$
85:0:0
     RDKit          3D

 96104  0  0  1  0  0  0  0  0999 V2000
  -29.8630  -19.2530   18.6550 C   0  0  0  0  0  3  0  0  0  0  0  0
  -30.1310  -16.8580   18.6900 C   0  0  0  0  0  3  0  0  0  0  0  0
  -30.1090  -18.0590   17.9740 C   0  0  0  0  0  0  0  0  0  0  0  0
  -29.6150  -19.2310   20.0430 C   0  0  0  0  0  0  0  0  0  0  0  0
  -29.9250  -16.8670   20.0870 C   0  0  0  0  0  0  0  0  0  0  0  0
  -28.8060  -21.6100   20.2680 C   0  0  0  0  0  0  0  0  0  0  0  0
  -29.6580  -18.0470   20.7260 N   0  0  0  0  0  0  0  0  0  0  0  0
  -29.3980  -20.4740   20.7230 N   0  0  0  0  0  0  0  0  0  0  0  0
  -28.1690  -21.6480   19.2080 O   0  0  0  0  0  0  0  0  0  0  0  0
  -30.3230  -18.0640   16.6360 F   0  0  0  0  0  0  0  0  0  0  0  0
  -29.7290  -20.5160   21.6760 H   0  0  0  0  0  0  0  0  0  0  0  0
  -30.6600  -14.5240   20.4510 C   0  0  0  0  0  0  0  0  0  0  0  0
  -30.3560  -12.3530   19.3430 C   0  0  0  0  0  2  0  0  0  0  0  0
  -29.4290  -12.5790   18.1290 C   0  0  0  0  0  2  0  0  0  0  0  0
  -27.9500  -12.4550   18.5450 C   0  0  0  0  0  2  0  0  0  0  0  0
  -27.6110  -13.2830   19.8140 C   0  0  0  0  0  3  0  0  0  0  0  0
  -28.6590  -13.0610   20.9290 C   0  0  0  0  0  2  0  0  0  0  0  0
  -29.9890  -13.3420   20.3700 N   0  0  0  0  0  0  0  0  0  0  0  0
  -31.8260  -14.6480   20.0630 O   0  0  0  0  0  0  0  0  0  0  0  0
  -29.9170  -15.6070   20.7800 N   0  0  0  0  0  0  0  0  0  0  0  0
  -29.0930  -15.4240   21.3280 H   0  0  0  0  0  0  0  0  0  0  0  0
  -25.2100  -13.8950   20.5040 C   0  0  0  0  0  0  0  0  0  0  0  0
  -24.1360  -13.1260   20.8670 C   0  0  0  0  0  0  0  0  0  0  0  0
  -24.5960  -11.7720   20.8440 C   0  0  0  0  0  0  0  0  0  0  0  0
  -26.2540  -13.0110   20.2840 N   0  0  0  0  0  0  0  0  0  0  0  0
  -25.8890  -11.7290   20.5470 N   0  0  0  0  0  0  0  0  0  0  0  0
  -23.8640  -10.5130   21.0320 C   0  0  0  0  0  0  0  0  0  0  0  0
  -24.2860   -9.5470   21.9730 C   0  0  0  0  0  3  0  0  0  0  0  0
  -23.5560   -8.3520   22.1480 C   0  0  0  0  0  3  0  0  0  0  0  0
  -22.3900   -8.1130   21.3820 C   0  0  0  0  0  0  0  0  0  0  0  0
  -21.9880   -9.0680   20.4300 C   0  0  0  0  0  3  0  0  0  0  0  0
  -22.7190  -10.2550   20.2530 C   0  0  0  0  0  3  0  0  0  0  0  0
  -21.6330   -6.9700   21.4660 O   0  0  0  0  0  0  0  0  0  0  0  0
  -21.5700   -6.2320   22.6200 C   0  0  0  0  0  0  0  0  0  0  0  0
  -21.1220   -6.7880   23.8380 C   0  0  0  0  0  3  0  0  0  0  0  0
  -21.0070   -5.9740   24.9830 C   0  0  0  0  0  3  0  0  0  0  0  0
  -21.3310   -4.6060   24.9120 C   0  0  0  0  0  0  0  0  0  0  0  0
  -21.7720   -4.0500   23.6980 C   0  0  0  0  0  3  0  0  0  0  0  0
  -21.8880   -4.8590   22.5560 C   0  0  0  0  0  0  0  0  0  0  0  0
  -22.2940   -4.3140   21.3840 F   0  0  0  0  0  0  0  0  0  0  0  0
  -21.2140   -3.8230   26.0100 F   0  0  0  0  0  0  0  0  0  0  0  0
  -22.7380  -13.6070   21.1260 C   0  0  0  0  0  0  0  0  0  0  0  0
  -21.9990  -12.9120   21.9840 N   0  0  0  0  0  0  0  0  0  0  0  0
  -22.3090  -14.6340   20.6020 O   0  0  0  0  0  0  0  0  0  0  0  0
  -22.3590  -12.0820   22.4310 H   0  0  0  0  0  0  0  0  0  0  0  0
  -21.0610  -13.2160   22.1970 H   0  0  0  0  0  0  0  0  0  0  0  0
  -25.3790  -15.2640   20.3220 N   0  0  0  0  0  0  0  0  0  0  0  0
  -24.6110  -15.9200   20.4160 H   0  0  0  0  0  0  0  0  0  0  0  0
  -26.2270  -15.6990   19.9830 H   0  0  0  0  0  0  0  0  0  0  0  0
  -28.8470  -22.8620   21.1940 C   0  0  2  0  0  0  0  0  0  0  0  0
  -29.8780  -22.7430   22.0350 F   0  0  0  0  0  0  0  0  0  0  0  0
  -27.7250  -22.8520   21.9190 F   0  0  0  0  0  0  0  0  0  0  0  0
  -28.9650  -24.2240   20.4390 C   0  0  0  0  0  0  0  0  0  0  0  0
  -29.6600  -24.3660   19.4220 O   0  0  0  0  0  0  0  0  0  0  0  0
  -28.2500  -25.4370   21.0770 C   0  0  0  0  0  2  0  0  0  0  0  0
  -28.4290  -26.6700   20.3390 O   0  0  0  0  0  0  0  0  0  0  0  0
  -24.5690  -31.9080   23.2590 C   0  0  0  0  0  0  0  0  0  0  0  0
  -27.2880  -27.4420   20.2840 C   0  0  0  0  0  0  0  0  0  0  0  0
  -23.4040  -30.4920   21.6010 C   0  0  0  0  0  3  0  0  0  0  0  0
  -24.8960  -28.9490   20.2180 C   0  0  0  0  0  0  0  0  0  0  0  0
  -25.9340  -30.8570   21.4550 C   0  0  0  0  0  2  0  0  0  0  0  0
  -26.0400  -29.4810   20.8270 C   0  0  0  0  0  0  0  0  0  0  0  0
  -27.2430  -28.7360   20.8540 C   0  0  0  0  0  3  0  0  0  0  0  0
  -26.1310  -26.9300   19.6590 C   0  0  0  0  0  3  0  0  0  0  0  0
  -24.9370  -27.6740   19.6260 C   0  0  0  0  0  3  0  0  0  0  0  0
  -23.6480  -29.8040   20.2300 C   0  0  0  0  0  2  0  0  0  0  0  0
  -24.6530  -31.1010   22.1640 N   0  0  0  0  0  0  0  0  0  0  0  0
  -23.4760  -32.1800   23.7740 O   0  0  0  0  0  0  0  0  0  0  0  0
  -22.7350  -29.4750   22.5540 C   0  0  0  0  0  0  0  0  0  0  0  0
  -21.4110  -29.3040   22.4130 N   0  0  0  0  0  0  0  0  0  0  0  0
  -23.4050  -28.8450   23.3760 O   0  0  0  0  0  0  0  0  0  0  0  0
  -20.9320  -29.8650   21.7220 H   0  0  0  0  0  0  0  0  0  0  0  0
  -18.0160  -28.1640   22.9020 C   0  0  0  0  0  0  0  0  0  0  0  0
  -20.5780  -28.3710   23.1730 C   0  0  0  0  0  3  0  0  0  0  0  0
  -20.6540  -26.9450   22.5810 C   0  0  0  0  0  2  0  0  0  0  0  0
  -19.5450  -26.6550   21.5640 C   0  0  0  0  0  2  0  0  0  0  0  0
  -18.1670  -26.8190   22.2110 C   0  0  0  0  0  2  0  0  0  0  0  0
  -19.1490  -28.9000   23.3400 C   0  0  0  0  0  0  0  0  0  0  0  0
  -18.9540  -30.1610   23.9440 C   0  0  0  0  0  3  0  0  0  0  0  0
  -17.6590  -30.6850   24.1180 C   0  0  0  0  0  3  0  0  0  0  0  0
  -16.5410  -29.9450   23.6970 C   0  0  0  0  0  3  0  0  0  0  0  0
  -16.7200  -28.6870   23.0940 C   0  0  0  0  0  3  0  0  0  0  0  0
  -25.8390  -32.5490   23.9020 C   0  0  0  0  0  3  0  0  0  0  0  0
  -26.3290  -31.7920   25.1990 C   0  0  1  0  0  0  0  0  0  0  0  0
  -25.2110  -31.5620   26.2430 C   0  0  0  0  0  1  0  0  0  0  0  0
  -26.9240  -30.4120   24.8330 C   0  0  0  0  0  1  0  0  0  0  0  0
  -27.4600  -32.5960   25.8800 C   0  0  0  0  0  1  0  0  0  0  0  0
  -25.5220  -33.9500   24.2070 N   0  0  0  0  0  0  0  0  0  0  0  0
  -25.8730  -34.9930   23.4430 C   0  0  0  0  0  0  0  0  0  0  0  0
  -26.5690  -34.8770   22.4300 O   0  0  0  0  0  0  0  0  0  0  0  0
  -24.9060  -34.1140   24.9890 H   0  0  0  0  0  0  0  0  0  0  0  0
  -24.1570  -36.7820   23.0170 C   0  0  0  0  0  1  0  0  0  0  0  0
  -25.3730  -36.3870   23.8690 C   0  0  0  0  0  3  0  0  0  0  0  0
  -27.4830  -37.2820   24.7530 C   0  0  0  0  0  1  0  0  0  0  0  0
  -26.4100  -37.4380   23.7740 N   0  0  0  0  0  0  0  0  0  0  0  0
  -26.0010  -38.3600   23.8970 H   0  0  0  0  0  0  0  0  0  0  0  0
  1  4  1  0
  2  5  2  0
  3  1  2  0
  3  2  1  0
  4  8  1  0
  4  7  2  0
  5  7  1  0
  5 20  1  0
  6  8  1  0
  6 50  1  0
  8 11  1  0
  9  6  2  0
 10  3  1  0
 12 20  1  0
 13 18  1  0
 14 15  1  0
 14 13  1  0
 16 15  1  0
 16 25  1  0
 16 17  1  0
 18 12  1  0
 18 17  1  0
 19 12  2  0
 20 21  1  0
 22 23  2  0
 23 42  1  0
 24 23  1  0
 24 27  1  0
 25 22  1  0
 25 26  1  0
 26 24  2  0
 27 28  1  0
 28 29  2  0
 30 33  1  0
 30 29  1  0
 31 30  2  0
 32 31  1  0
 32 27  2  0
 33 34  1  0
 34 35  1  0
 35 36  2  0
 37 36  1  0
 37 41  1  0
 38 37  2  0
 39 34  2  0
 39 38  1  0
 40 39  1  0
 42 43  1  0
 43 46  1  0
 43 45  1  0
 44 42  2  0
 47 48  1  0
 47 22  1  0
 49 47  1  0
 50 52  1  1
 50 51  1  0
 53 55  1  0
 53 50  1  0
 54 53  2  0
 56 55  1  0
 57 68  2  0
 58 56  1  0
 58 63  1  0
 59 67  1  0
 59 69  1  0
 60 66  1  0
 60 62  1  0
 61 67  1  0
 62 63  2  0
 62 61  1  0
 64 58  2  0
 65 64  1  0
 65 60  2  0
 66 59  1  0
 67 57  1  0
 69 71  2  0
 70 69  1  0
 72 70  1  0
 73 82  2  0
 73 78  1  0
 74 70  1  0
 74 78  1  0
 75 74  1  0
 76 77  1  0
 76 75  1  0
 77 73  1  0
 78 79  2  0
 79 80  1  0
 81 80  2  0
 82 81  1  0
 83 57  1  0
 83 88  1  0
 83 84  1  0
 84 87  1  1
 84 85  1  0
 86 84  1  0
 88 91  1  0
 89 93  1  0
 89 88  1  0
 90 89  2  0
 93 92  1  0
 95 93  1  0
 95 96  1  0
 95 94  1  0
M  ISO  4  12 100  20 100  55 101  56 101
M  END
>  <TORSDO>  (85) 
F 19

>  <SCORE>  (85) 
-14.577

>  <name>  (85) 
85

>  <ligand_id>  (85) 
85

>  <original_smiles>  (85) 
[H]c1c([H])c([H])c2c(c1[H])C([H])([H])C([H])([H])C([H])([H])C2([H])N([H])C(=O)C1([H])N(C(=O)C([H])(N([H])C(=O)C([H])(N([H])C([H])([H])[H])C([H])([H])[H])C(C([H])([H])[H])(C([H])([H])[H])C([H])([H])[H])C([H])([H])c2c([H])c(OC([H])([H])C(=O)C(F)(F)C(=O)N([H])c3nc(N([H])C(=O)N4C([H])([H])C([H])([H])C([H])([H])C([H])(n5nc(-c6c([H])c([H])c(Oc7c([H])c([H])c(F)c([H])c7F)c([H])c6[H])c(C(=O)N([H])[H])c5N([H])[H])C4([H])[H])c([H])c(F)c3[H])c([H])c([H])c2C1([H])[H]

>  <smiles>  (85) 
[H]c1c([H])c([H])c2c(c1[H])C([H])([H])C([H])([H])C([H])([H])C2([H])N([H])C(=O)C1([H])N(C(=O)C([H])(N([H])C(=O)C([H])(N([H])C([H])([H])[H])C([H])([H])[H])C(C([H])([H])[H])(C([H])([H])[H])C([H])([H])[H])C([H])([H])c2c([H])c(OC([H])([H])C(=O)C(F)(F)C(=O)N([H])c3nc(N([H])C(=O)N4C([H])([H])C([H])([H])C([H])([H])C([H])(n5nc(-c6c([H])c([H])c(Oc7c([H])c([H])c(F)c([H])c7F)c([H])c6[H])c(C(=O)N([H])[H])c5N([H])[H])C4([H])[H])c([H])c(F)c3[H])c([H])c([H])c2C1([H])[H]

$$$$
86:0:0
     RDKit          3D

 94102  0  0  1  0  0  0  0  0999 V2000
  -29.7890  -21.7740   20.7260 C   0  0  0  0  0  0  0  0  0  0  0  0
  -29.8530  -20.5860   20.0810 N   0  0  0  0  0  0  0  0  0  0  0  0
  -29.9310  -21.9120   21.9460 O   0  0  0  0  0  0  0  0  0  0  0  0
  -29.5790  -20.6520   19.1070 H   0  0  0  0  0  0  0  0  0  0  0  0
  -30.6500  -14.5030   20.4840 C   0  0  0  0  0  0  0  0  0  0  0  0
  -30.3520  -12.3570   19.2960 C   0  0  0  0  0  2  0  0  0  0  0  0
  -29.4090  -12.5760   18.0930 C   0  0  0  0  0  2  0  0  0  0  0  0
  -27.9330  -12.4390   18.5190 C   0  0  0  0  0  2  0  0  0  0  0  0
  -27.5990  -13.2660   19.7910 C   0  0  0  0  0  3  0  0  0  0  0  0
  -28.6500  -13.0170   20.8970 C   0  0  0  0  0  2  0  0  0  0  0  0
  -29.9800  -13.3250   20.3390 N   0  0  0  0  0  0  0  0  0  0  0  0
  -31.7690  -14.6960   19.9980 O   0  0  0  0  0  0  0  0  0  0  0  0
  -31.1040  -18.9090   21.4480 C   0  0  0  0  0  0  0  0  0  0  0  0
  -30.1200  -19.3370   20.5700 C   0  0  0  0  0  0  0  0  0  0  0  0
  -30.1800  -16.8760   20.9700 C   0  0  0  0  0  0  0  0  0  0  0  0
  -32.1560  -19.7340   22.1270 C   0  0  0  0  0  1  0  0  0  0  0  0
  -31.1120  -17.5200   21.6760 N   0  0  0  0  0  0  0  0  0  0  0  0
  -29.9550  -15.4790   21.0970 N   0  0  0  0  0  0  0  0  0  0  0  0
  -29.1940  -17.9560   19.9920 S   0  0  0  0  0  0  0  0  0  0  0  0
  -29.0270  -15.2090   21.3810 H   0  0  0  0  0  0  0  0  0  0  0  0
  -25.1980  -13.8860   20.4810 C   0  0  0  0  0  0  0  0  0  0  0  0
  -24.1250  -13.1200   20.8500 C   0  0  0  0  0  0  0  0  0  0  0  0
  -24.5820  -11.7660   20.8270 C   0  0  0  0  0  0  0  0  0  0  0  0
  -26.2410  -12.9990   20.2610 N   0  0  0  0  0  0  0  0  0  0  0  0
  -25.8740  -11.7200   20.5260 N   0  0  0  0  0  0  0  0  0  0  0  0
  -23.8510  -10.5070   21.0190 C   0  0  0  0  0  0  0  0  0  0  0  0
  -24.2730   -9.5450   21.9630 C   0  0  0  0  0  3  0  0  0  0  0  0
  -23.5430   -8.3500   22.1420 C   0  0  0  0  0  3  0  0  0  0  0  0
  -22.3770   -8.1090   21.3770 C   0  0  0  0  0  0  0  0  0  0  0  0
  -21.9740   -9.0600   20.4240 C   0  0  0  0  0  3  0  0  0  0  0  0
  -22.7050  -10.2460   20.2420 C   0  0  0  0  0  3  0  0  0  0  0  0
  -21.6190   -6.9670   21.4650 O   0  0  0  0  0  0  0  0  0  0  0  0
  -21.5570   -6.2310   22.6220 C   0  0  0  0  0  0  0  0  0  0  0  0
  -21.1080   -6.7930   23.8370 C   0  0  0  0  0  3  0  0  0  0  0  0
  -20.9940   -5.9840   24.9860 C   0  0  0  0  0  3  0  0  0  0  0  0
  -21.3180   -4.6150   24.9190 C   0  0  0  0  0  0  0  0  0  0  0  0
  -21.7600   -4.0540   23.7090 C   0  0  0  0  0  3  0  0  0  0  0  0
  -21.8760   -4.8600   22.5620 C   0  0  0  0  0  0  0  0  0  0  0  0
  -22.2820   -4.3100   21.3930 F   0  0  0  0  0  0  0  0  0  0  0  0
  -21.2000   -3.8360   26.0200 F   0  0  0  0  0  0  0  0  0  0  0  0
  -22.7290  -13.6030   21.1130 C   0  0  0  0  0  0  0  0  0  0  0  0
  -21.9930  -12.9090   21.9740 N   0  0  0  0  0  0  0  0  0  0  0  0
  -22.2980  -14.6300   20.5910 O   0  0  0  0  0  0  0  0  0  0  0  0
  -22.3530  -12.0780   22.4200 H   0  0  0  0  0  0  0  0  0  0  0  0
  -21.0550  -13.2150   22.1930 H   0  0  0  0  0  0  0  0  0  0  0  0
  -25.3690  -15.2550   20.2960 N   0  0  0  0  0  0  0  0  0  0  0  0
  -24.5980  -15.9090   20.3880 H   0  0  0  0  0  0  0  0  0  0  0  0
  -26.2130  -15.6870   19.9410 H   0  0  0  0  0  0  0  0  0  0  0  0
  -29.4690  -22.9580   19.7440 C   0  0  0  0  0  0  0  0  0  0  0  0
  -29.2010  -22.7270   18.5540 O   0  0  0  0  0  0  0  0  0  0  0  0
  -29.4730  -24.4400   20.2410 C   0  0  0  0  0  0  0  0  0  0  0  0
  -30.4360  -24.9290   20.8520 O   0  0  0  0  0  0  0  0  0  0  0  0
  -28.2380  -25.2840   19.8730 C   0  0  0  0  0  2  0  0  0  0  0  0
  -28.3690  -26.6860   20.2070 O   0  0  0  0  0  0  0  0  0  0  0  0
  -24.5780  -31.9130   23.2530 C   0  0  0  0  0  0  0  0  0  0  0  0
  -27.2030  -27.4360   20.1770 C   0  0  0  0  0  0  0  0  0  0  0  0
  -23.3680  -30.5140   21.6140 C   0  0  0  0  0  3  0  0  0  0  0  0
  -24.8150  -28.9730   20.1890 C   0  0  0  0  0  0  0  0  0  0  0  0
  -25.8980  -30.8570   21.4180 C   0  0  0  0  0  2  0  0  0  0  0  0
  -25.9770  -29.4850   20.7780 C   0  0  0  0  0  0  0  0  0  0  0  0
  -27.1740  -28.7250   20.7680 C   0  0  0  0  0  3  0  0  0  0  0  0
  -26.0140  -26.9510   19.5780 C   0  0  0  0  0  3  0  0  0  0  0  0
  -24.8290  -27.7060   19.5880 C   0  0  0  0  0  3  0  0  0  0  0  0
  -23.5750  -29.8370   20.2350 C   0  0  0  0  0  2  0  0  0  0  0  0
  -24.6330  -31.1090   22.1530 N   0  0  0  0  0  0  0  0  0  0  0  0
  -23.4970  -32.1890   23.7920 O   0  0  0  0  0  0  0  0  0  0  0  0
  -22.7120  -29.4940   22.5730 C   0  0  0  0  0  0  0  0  0  0  0  0
  -21.3870  -29.3170   22.4450 N   0  0  0  0  0  0  0  0  0  0  0  0
  -23.3930  -28.8680   23.3900 O   0  0  0  0  0  0  0  0  0  0  0  0
  -20.8990  -29.8740   21.7580 H   0  0  0  0  0  0  0  0  0  0  0  0
  -18.0060  -28.1410   22.9460 C   0  0  0  0  0  0  0  0  0  0  0  0
  -20.5660  -28.3830   23.2150 C   0  0  0  0  0  3  0  0  0  0  0  0
  -20.6600  -26.9510   22.6370 C   0  0  0  0  0  2  0  0  0  0  0  0
  -19.5540  -26.6360   21.6240 C   0  0  0  0  0  2  0  0  0  0  0  0
  -18.1740  -26.7900   22.2710 C   0  0  0  0  0  2  0  0  0  0  0  0
  -19.1300  -28.8950   23.3760 C   0  0  0  0  0  0  0  0  0  0  0  0
  -18.9200  -30.1600   23.9670 C   0  0  0  0  0  3  0  0  0  0  0  0
  -17.6190  -30.6700   24.1330 C   0  0  0  0  0  3  0  0  0  0  0  0
  -16.5100  -29.9130   23.7210 C   0  0  0  0  0  3  0  0  0  0  0  0
  -16.7040  -28.6490   23.1330 C   0  0  0  0  0  3  0  0  0  0  0  0
  -25.8660  -32.5400   23.8730 C   0  0  0  0  0  3  0  0  0  0  0  0
  -26.3780  -31.7710   25.1520 C   0  0  1  0  0  0  0  0  0  0  0  0
  -25.2840  -31.5420   26.2200 C   0  0  0  0  0  1  0  0  0  0  0  0
  -26.9570  -30.3910   24.7640 C   0  0  0  0  0  1  0  0  0  0  0  0
  -27.5310  -32.5640   25.8120 C   0  0  0  0  0  1  0  0  0  0  0  0
  -25.5640  -33.9410   24.1940 N   0  0  0  0  0  0  0  0  0  0  0  0
  -25.9050  -34.9870   23.4280 C   0  0  0  0  0  0  0  0  0  0  0  0
  -26.5770  -34.8730   22.4000 O   0  0  0  0  0  0  0  0  0  0  0  0
  -24.9680  -34.1040   24.9920 H   0  0  0  0  0  0  0  0  0  0  0  0
  -24.1930  -36.7890   23.0490 C   0  0  0  0  0  1  0  0  0  0  0  0
  -25.4220  -36.3800   23.8750 C   0  0  0  0  0  3  0  0  0  0  0  0
  -27.5540  -37.2520   24.7260 C   0  0  0  0  0  1  0  0  0  0  0  0
  -26.4640  -37.4250   23.7690 N   0  0  0  0  0  0  0  0  0  0  0  0
  -26.0640  -38.3490   23.9070 H   0  0  0  0  0  0  0  0  0  0  0  0
  1  3  2  0
  2 14  1  0
  2  1  1  0
  4  2  1  0
  5 18  1  0
  6 11  1  0
  7  8  1  0
  7  6  1  0
  9  8  1  0
  9 24  1  0
  9 10  1  0
 11  5  1  0
 11 10  1  0
 12  5  2  0
 13 17  1  0
 13 16  1  0
 14 13  2  0
 15 18  1  0
 15 17  2  0
 18 20  1  0
 19 14  1  0
 19 15  1  0
 21 22  2  0
 22 41  1  0
 23 22  1  0
 23 26  1  0
 24 21  1  0
 24 25  1  0
 25 23  2  0
 26 27  1  0
 27 28  2  0
 29 32  1  0
 29 28  1  0
 30 29  2  0
 31 30  1  0
 31 26  2  0
 32 33  1  0
 33 34  1  0
 34 35  2  0
 36 35  1  0
 36 40  1  0
 37 36  2  0
 38 33  2  0
 38 37  1  0
 39 38  1  0
 41 42  1  0
 42 45  1  0
 42 44  1  0
 43 41  2  0
 46 47  1  0
 46 21  1  0
 48 46  1  0
 49 51  1  0
 49  1  1  0
 50 49  2  0
 51 52  2  0
 53 54  1  0
 53 51  1  0
 55 66  2  0
 56 54  1  0
 56 61  1  0
 57 65  1  0
 57 67  1  0
 58 64  1  0
 58 60  1  0
 59 65  1  0
 60 59  1  0
 61 60  2  0
 62 63  1  0
 62 56  2  0
 63 58  2  0
 64 57  1  0
 65 55  1  0
 67 69  2  0
 68 67  1  0
 70 68  1  0
 71 80  2  0
 71 76  1  0
 72 68  1  0
 72 76  1  0
 73 72  1  0
 74 75  1  0
 74 73  1  0
 75 71  1  0
 76 77  2  0
 77 78  1  0
 79 78  2  0
 80 79  1  0
 81 55  1  0
 81 86  1  0
 81 82  1  0
 82 85  1  1
 82 83  1  0
 84 82  1  0
 86 89  1  0
 87 91  1  0
 87 86  1  0
 88 87  2  0
 91 90  1  0
 93 91  1  0
 93 94  1  0
 93 92  1  0
M  ISO  4   5 100  18 100  53 101  54 101
M  END
>  <TORSDO>  (86) 
F 19

>  <SCORE>  (86) 
-14.616

>  <name>  (86) 
86

>  <ligand_id>  (86) 
86

>  <original_smiles>  (86) 
[H]c1c([H])c([H])c2c(c1[H])C([H])([H])C([H])([H])C([H])([H])C2([H])N([H])C(=O)C1([H])N(C(=O)C([H])(N([H])C(=O)C([H])(N([H])C([H])([H])[H])C([H])([H])[H])C(C([H])([H])[H])(C([H])([H])[H])C([H])([H])[H])C([H])([H])c2c([H])c(OC([H])([H])C(=O)C(=O)C(=O)N([H])c3sc(N([H])C(=O)N4C([H])([H])C([H])([H])C([H])([H])C([H])(n5nc(-c6c([H])c([H])c(Oc7c([H])c([H])c(F)c([H])c7F)c([H])c6[H])c(C(=O)N([H])[H])c5N([H])[H])C4([H])[H])nc3C([H])([H])[H])c([H])c([H])c2C1([H])[H]

>  <smiles>  (86) 
[H]c1c([H])c([H])c2c(c1[H])C([H])([H])C([H])([H])C([H])([H])C2([H])N([H])C(=O)C1([H])N(C(=O)C([H])(N([H])C(=O)C([H])(N([H])C([H])([H])[H])C([H])([H])[H])C(C([H])([H])[H])(C([H])([H])[H])C([H])([H])[H])C([H])([H])c2c([H])c(OC([H])([H])C(=O)C(=O)C(=O)N([H])c3sc(N([H])C(=O)N4C([H])([H])C([H])([H])C([H])([H])C([H])(n5nc(-c6c([H])c([H])c(Oc7c([H])c([H])c(F)c([H])c7F)c([H])c6[H])c(C(=O)N([H])[H])c5N([H])[H])C4([H])[H])nc3C([H])([H])[H])c([H])c([H])c2C1([H])[H]

$$$$
87:0:0
     RDKit          3D

 98106  0  0  1  0  0  0  0  0999 V2000
  -29.8070  -21.3660   23.8260 C   0  0  0  0  0  1  0  0  0  0  0  0
  -31.7930  -22.7450   23.1980 C   0  0  0  0  0  1  0  0  0  0  0  0
  -30.7630  -21.7240   22.6610 C   0  0  2  0  0  0  0  0  0  0  0  0
  -29.9890  -22.3920   21.4870 C   0  0  0  0  0  0  0  0  0  0  0  0
  -29.9790  -21.8580   20.3710 O   0  0  0  0  0  0  0  0  0  0  0  0
  -29.3250  -23.6950   21.7430 C   0  0  0  0  0  3  0  0  0  0  0  0
  -28.8240  -24.5270   20.8010 C   0  0  0  0  0  0  0  0  0  0  0  0
  -28.8430  -24.2870   19.4780 O   0  0  0  0  0  0  0  0  0  0  0  0
  -29.2460  -23.4340   19.3520 H   0  0  0  0  0  0  0  0  0  0  0  0
  -28.1670  -25.8680   21.1240 C   0  0  0  0  0  2  0  0  0  0  0  0
  -28.0770  -26.7580   20.0070 O   0  0  0  0  0  0  0  0  0  0  0  0
  -24.4700  -31.9580   23.2570 C   0  0  0  0  0  0  0  0  0  0  0  0
  -26.9440  -27.5310   20.0470 C   0  0  0  0  0  0  0  0  0  0  0  0
  -23.1880  -30.5940   21.6380 C   0  0  0  0  0  3  0  0  0  0  0  0
  -24.5730  -29.0520   20.1500 C   0  0  0  0  0  0  0  0  0  0  0  0
  -25.7080  -30.9220   21.3610 C   0  0  0  0  0  2  0  0  0  0  0  0
  -25.7540  -29.5580   20.7080 C   0  0  0  0  0  0  0  0  0  0  0  0
  -26.9460  -28.8020   20.6580 C   0  0  0  0  0  3  0  0  0  0  0  0
  -25.7540  -27.0320   19.4830 C   0  0  0  0  0  3  0  0  0  0  0  0
  -24.5650  -27.7860   19.5350 C   0  0  0  0  0  3  0  0  0  0  0  0
  -23.3430  -29.9260   20.2450 C   0  0  0  0  0  2  0  0  0  0  0  0
  -24.4760  -31.1710   22.1430 N   0  0  0  0  0  0  0  0  0  0  0  0
  -23.4110  -32.2420   23.8350 O   0  0  0  0  0  0  0  0  0  0  0  0
  -22.5520  -29.5720   22.6080 C   0  0  0  0  0  0  0  0  0  0  0  0
  -21.2330  -29.3610   22.4720 N   0  0  0  0  0  0  0  0  0  0  0  0
  -23.2430  -28.9730   23.4360 O   0  0  0  0  0  0  0  0  0  0  0  0
  -20.7370  -29.8970   21.7740 H   0  0  0  0  0  0  0  0  0  0  0  0
  -17.8940  -28.0510   22.9030 C   0  0  0  0  0  0  0  0  0  0  0  0
  -20.4290  -28.4180   23.2490 C   0  0  0  0  0  3  0  0  0  0  0  0
  -20.6060  -26.9740   22.7270 C   0  0  0  0  0  2  0  0  0  0  0  0
  -19.5510  -26.5760   21.6880 C   0  0  0  0  0  2  0  0  0  0  0  0
  -18.1440  -26.6880   22.2810 C   0  0  0  0  0  2  0  0  0  0  0  0
  -18.9670  -28.8710   23.3430 C   0  0  0  0  0  0  0  0  0  0  0  0
  -18.6810  -30.1450   23.8800 C   0  0  0  0  0  3  0  0  0  0  0  0
  -17.3540  -30.6000   23.9840 C   0  0  0  0  0  3  0  0  0  0  0  0
  -16.2940  -29.7800   23.5620 C   0  0  0  0  0  3  0  0  0  0  0  0
  -16.5640  -28.5070   23.0270 C   0  0  0  0  0  3  0  0  0  0  0  0
  -25.7860  -32.5600   23.8410 C   0  0  0  0  0  3  0  0  0  0  0  0
  -25.5200  -33.9640   24.1780 N   0  0  0  0  0  0  0  0  0  0  0  0
  -25.8690  -35.0080   23.4140 C   0  0  0  0  0  0  0  0  0  0  0  0
  -26.5220  -34.8890   22.3730 O   0  0  0  0  0  0  0  0  0  0  0  0
  -24.9420  -34.1330   24.9880 H   0  0  0  0  0  0  0  0  0  0  0  0
  -24.1920  -36.8490   23.0710 C   0  0  0  0  0  1  0  0  0  0  0  0
  -25.4220  -36.4080   23.8780 C   0  0  0  0  0  3  0  0  0  0  0  0
  -27.5820  -37.2270   24.7100 C   0  0  0  0  0  1  0  0  0  0  0  0
  -26.4850  -37.4310   23.7680 N   0  0  0  0  0  0  0  0  0  0  0  0
  -26.1050  -38.3620   23.9190 H   0  0  0  0  0  0  0  0  0  0  0  0
  -26.3240  -31.7750   25.1000 C   0  0  1  0  0  0  0  0  0  0  0  0
  -25.2550  -31.5480   26.1930 C   0  0  0  0  0  1  0  0  0  0  0  0
  -26.8750  -30.3910   24.6830 C   0  0  0  0  0  1  0  0  0  0  0  0
  -27.5030  -32.5470   25.7360 C   0  0  0  0  0  1  0  0  0  0  0  0
  -31.5510  -20.5600   22.2240 N   0  0  0  0  0  0  0  0  0  0  0  0
  -32.5170  -20.7420   21.9790 H   0  0  0  0  0  0  0  0  0  0  0  0
  -31.7550  -17.0700   21.0790 C   0  0  0  0  0  3  0  0  0  0  0  0
  -29.4940  -17.6280   21.7090 C   0  0  0  0  0  3  0  0  0  0  0  0
  -30.4090  -16.6620   21.2380 C   0  0  0  0  0  0  0  0  0  0  0  0
  -32.1100  -18.3960   21.3850 C   0  0  0  0  0  0  0  0  0  0  0  0
  -31.1190  -19.2780   21.8560 C   0  0  0  0  0  0  0  0  0  0  0  0
  -29.8310  -18.9050   22.0090 N   0  0  0  0  0  0  0  0  0  0  0  0
  -33.3950  -18.8130   21.2560 F   0  0  0  0  0  0  0  0  0  0  0  0
  -30.4990  -14.4280   20.1400 C   0  0  0  0  0  0  0  0  0  0  0  0
  -30.1290  -12.3180   18.9200 C   0  0  0  0  0  2  0  0  0  0  0  0
  -29.1080  -12.5330   17.7860 C   0  0  0  0  0  2  0  0  0  0  0  0
  -27.6700  -12.3500   18.3100 C   0  0  0  0  0  2  0  0  0  0  0  0
  -27.4010  -13.1570   19.6070 C   0  0  0  0  0  3  0  0  0  0  0  0
  -28.5270  -12.9300   20.6420 C   0  0  0  0  0  2  0  0  0  0  0  0
  -29.8110  -13.2640   20.0010 N   0  0  0  0  0  0  0  0  0  0  0  0
  -31.5210  -14.6790   19.4950 O   0  0  0  0  0  0  0  0  0  0  0  0
  -29.9540  -15.3310   20.9750 N   0  0  0  0  0  0  0  0  0  0  0  0
  -29.0630  -15.0660   21.3720 H   0  0  0  0  0  0  0  0  0  0  0  0
  -25.0270  -13.6960   20.4470 C   0  0  0  0  0  0  0  0  0  0  0  0
  -24.0060  -12.8940   20.8830 C   0  0  0  0  0  0  0  0  0  0  0  0
  -24.5080  -11.5570   20.8360 C   0  0  0  0  0  0  0  0  0  0  0  0
  -26.0840  -12.8460   20.1630 N   0  0  0  0  0  0  0  0  0  0  0  0
  -25.7790  -11.5550   20.4530 N   0  0  0  0  0  0  0  0  0  0  0  0
  -23.8350  -10.2740   21.0790 C   0  0  0  0  0  0  0  0  0  0  0  0
  -24.3060   -9.3670   22.0530 C   0  0  0  0  0  3  0  0  0  0  0  0
  -23.6310   -8.1470   22.2810 C   0  0  0  0  0  3  0  0  0  0  0  0
  -22.4730   -7.8270   21.5340 C   0  0  0  0  0  0  0  0  0  0  0  0
  -22.0220   -8.7240   20.5500 C   0  0  0  0  0  3  0  0  0  0  0  0
  -22.6970   -9.9340   20.3200 C   0  0  0  0  0  3  0  0  0  0  0  0
  -21.7680   -6.6550   21.6690 O   0  0  0  0  0  0  0  0  0  0  0  0
  -21.6950   -5.9930   22.8680 C   0  0  0  0  0  0  0  0  0  0  0  0
  -21.1730   -6.6060   24.0270 C   0  0  0  0  0  3  0  0  0  0  0  0
  -21.0520   -5.8680   25.2220 C   0  0  0  0  0  3  0  0  0  0  0  0
  -21.4430   -4.5150   25.2560 C   0  0  0  0  0  0  0  0  0  0  0  0
  -21.9580   -3.9010   24.1010 C   0  0  0  0  0  3  0  0  0  0  0  0
  -22.0800   -4.6380   22.9090 C   0  0  0  0  0  0  0  0  0  0  0  0
  -22.5580   -4.0350   21.7930 F   0  0  0  0  0  0  0  0  0  0  0  0
  -21.3190   -3.8020   26.4000 F   0  0  0  0  0  0  0  0  0  0  0  0
  -22.6130  -13.3290   21.2340 C   0  0  0  0  0  0  0  0  0  0  0  0
  -21.9660  -12.6280   22.1600 N   0  0  0  0  0  0  0  0  0  0  0  0
  -22.1070  -14.3270   20.7220 O   0  0  0  0  0  0  0  0  0  0  0  0
  -22.3890  -11.8210   22.5940 H   0  0  0  0  0  0  0  0  0  0  0  0
  -21.0350  -12.9030   22.4380 H   0  0  0  0  0  0  0  0  0  0  0  0
  -25.1370  -15.0690   20.2480 N   0  0  0  0  0  0  0  0  0  0  0  0
  -24.3560  -15.7010   20.3900 H   0  0  0  0  0  0  0  0  0  0  0  0
  -25.9510  -15.5270   19.8560 H   0  0  0  0  0  0  0  0  0  0  0  0
  3  2  1  1
  3  1  1  0
  4  6  1  0
  4  3  1  0
  5  4  2  0
  7 10  1  0
  7  6  2  0
  8  7  1  0
  9  8  1  0
 11 13  1  0
 11 10  1  0
 12 23  2  0
 13 18  1  0
 14 22  1  0
 14 24  1  0
 15 21  1  0
 15 17  1  0
 16 22  1  0
 17 16  1  0
 18 17  2  0
 19 20  1  0
 19 13  2  0
 20 15  2  0
 21 14  1  0
 22 12  1  0
 24 26  2  0
 25 24  1  0
 27 25  1  0
 28 37  2  0
 28 33  1  0
 29 25  1  0
 29 33  1  0
 30 29  1  0
 31 32  1  0
 31 30  1  0
 32 28  1  0
 33 34  2  0
 34 35  1  0
 36 35  2  0
 37 36  1  0
 38 12  1  0
 38 39  1  0
 38 48  1  0
 39 42  1  0
 40 44  1  0
 40 39  1  0
 41 40  2  0
 44 43  1  0
 46 44  1  0
 46 47  1  0
 46 45  1  0
 48 51  1  1
 48 49  1  0
 50 48  1  0
 52  3  1  0
 53 52  1  0
 54 56  2  0
 54 57  1  0
 55 59  2  0
 56 55  1  0
 57 58  2  0
 58 59  1  0
 58 52  1  0
 60 57  1  0
 61 69  1  0
 62 67  1  0
 63 64  1  0
 63 62  1  0
 65 64  1  0
 65 74  1  0
 65 66  1  0
 67 61  1  0
 67 66  1  0
 68 61  2  0
 69 56  1  0
 69 70  1  0
 71 72  2  0
 72 91  1  0
 73 72  1  0
 73 76  1  0
 74 71  1  0
 74 75  1  0
 75 73  2  0
 76 77  1  0
 77 78  2  0
 79 82  1  0
 79 78  1  0
 80 79  2  0
 81 80  1  0
 81 76  2  0
 82 83  1  0
 83 88  2  0
 83 84  1  0
 84 85  2  0
 85 86  1  0
 86 90  1  0
 87 86  2  0
 88 87  1  0
 89 88  1  0
 91 92  1  0
 92 95  1  0
 92 94  1  0
 93 91  2  0
 96 97  1  0
 96 71  1  0
 98 96  1  0
M  ISO  4  10 101  11 101  61 100  69 100
M  END
>  <TORSDO>  (87) 
F 22

>  <SCORE>  (87) 
-10.627

>  <name>  (87) 
87

>  <ligand_id>  (87) 
87

>  <original_smiles>  (87) 
[H]OC(=C([H])C(=O)C(N([H])c1nc([H])c(N([H])C(=O)N2C([H])([H])C([H])([H])C([H])([H])C([H])(n3nc(-c4c([H])c([H])c(Oc5c([H])c([H])c(F)c([H])c5F)c([H])c4[H])c(C(=O)N([H])[H])c3N([H])[H])C2([H])[H])c([H])c1F)(C([H])([H])[H])C([H])([H])[H])C([H])([H])Oc1c([H])c([H])c2c(c1[H])C([H])([H])N(C(=O)C([H])(N([H])C(=O)C([H])(N([H])C([H])([H])[H])C([H])([H])[H])C(C([H])([H])[H])(C([H])([H])[H])C([H])([H])[H])C([H])(C(=O)N([H])C1([H])c3c([H])c([H])c([H])c([H])c3C([H])([H])C([H])([H])C1([H])[H])C2([H])[H]

>  <smiles>  (87) 
[H]OC(=C([H])C(=O)C(N([H])c1nc([H])c(N([H])C(=O)N2C([H])([H])C([H])([H])C([H])([H])C([H])(n3nc(-c4c([H])c([H])c(Oc5c([H])c([H])c(F)c([H])c5F)c([H])c4[H])c(C(=O)N([H])[H])c3N([H])[H])C2([H])[H])c([H])c1F)(C([H])([H])[H])C([H])([H])[H])C([H])([H])Oc1c([H])c([H])c2c(c1[H])C([H])([H])N(C(=O)C([H])(N([H])C(=O)C([H])(N([H])C([H])([H])[H])C([H])([H])[H])C(C([H])([H])[H])(C([H])([H])[H])C([H])([H])[H])C([H])(C(=O)N([H])C1([H])c3c([H])c([H])c([H])c([H])c3C([H])([H])C([H])([H])C1([H])[H])C2([H])[H]

$$$$
88:0:0
     RDKit          3D

 98106  0  0  1  0  0  0  0  0999 V2000
  -27.6790  -20.6780   19.6360 C   0  0  0  0  0  3  0  0  0  0  0  0
  -27.2820  -19.4110   19.1740 C   0  0  0  0  0  0  0  0  0  0  0  0
  -28.0710  -18.2790   19.4640 C   0  0  0  0  0  0  0  0  0  0  0  0
  -29.2820  -18.4150   20.1920 C   0  0  0  0  0  3  0  0  0  0  0  0
  -28.8640  -20.8400   20.3940 C   0  0  0  0  0  0  0  0  0  0  0  0
  -28.8040  -23.4190   20.5520 C   0  0  0  0  0  0  0  0  0  0  0  0
  -29.6070  -19.6860   20.6360 N   0  0  0  0  0  0  0  0  0  0  0  0
  -29.1900  -22.1570   20.9450 N   0  0  0  0  0  0  0  0  0  0  0  0
  -28.3760  -23.6720   19.4170 O   0  0  0  0  0  0  0  0  0  0  0  0
  -27.6680  -17.0710   18.9910 F   0  0  0  0  0  0  0  0  0  0  0  0
  -30.4730  -19.7770   21.1750 H   0  0  0  0  0  0  0  0  0  0  0  0
  -29.6490  -22.1690   21.8420 H   0  0  0  0  0  0  0  0  0  0  0  0
  -26.1160  -19.2670   18.4150 N   0  0  0  0  0  0  0  0  0  0  0  0
  -25.3600  -19.9130   18.6020 H   0  0  0  0  0  0  0  0  0  0  0  0
  -25.7990  -18.3090   18.3220 H   0  0  0  0  0  0  0  0  0  0  0  0
  -30.1720  -17.1990   20.3900 C   0  0  0  0  0  3  0  0  0  0  0  0
  -29.7670  -15.8930   20.5250 C   0  0  0  0  0  3  0  0  0  0  0  0
  -30.6530  -14.6990   20.4060 C   0  0  0  0  0  0  0  0  0  0  0  0
  -30.4260  -12.4650   19.3540 C   0  0  0  0  0  2  0  0  0  0  0  0
  -29.4870  -12.6050   18.1340 C   0  0  0  0  0  2  0  0  0  0  0  0
  -28.0130  -12.4360   18.5560 C   0  0  0  0  0  2  0  0  0  0  0  0
  -27.6480  -13.3040   19.7870 C   0  0  0  0  0  3  0  0  0  0  0  0
  -28.7040  -13.1550   20.9070 C   0  0  0  0  0  2  0  0  0  0  0  0
  -30.0210  -13.4820   20.3450 N   0  0  0  0  0  0  0  0  0  0  0  0
  -31.8460  -14.7990   20.1090 O   0  0  0  0  0  0  0  0  0  0  0  0
  -25.2660  -13.9190   20.5240 C   0  0  0  0  0  0  0  0  0  0  0  0
  -24.1950  -13.1510   20.8920 C   0  0  0  0  0  0  0  0  0  0  0  0
  -24.6480  -11.7960   20.8500 C   0  0  0  0  0  0  0  0  0  0  0  0
  -26.3010  -13.0310   20.2750 N   0  0  0  0  0  0  0  0  0  0  0  0
  -25.9370  -11.7500   20.5370 N   0  0  0  0  0  0  0  0  0  0  0  0
  -23.9150  -10.5360   21.0290 C   0  0  0  0  0  0  0  0  0  0  0  0
  -24.3250   -9.5710   21.9740 C   0  0  0  0  0  3  0  0  0  0  0  0
  -23.5940   -8.3750   22.1400 C   0  0  0  0  0  3  0  0  0  0  0  0
  -22.4370   -8.1370   21.3600 C   0  0  0  0  0  0  0  0  0  0  0  0
  -22.0460   -9.0920   20.4050 C   0  0  0  0  0  3  0  0  0  0  0  0
  -22.7780  -10.2790   20.2370 C   0  0  0  0  0  3  0  0  0  0  0  0
  -21.6800   -6.9930   21.4350 O   0  0  0  0  0  0  0  0  0  0  0  0
  -21.5940   -6.2610   22.5920 C   0  0  0  0  0  0  0  0  0  0  0  0
  -21.0730   -6.8110   23.7830 C   0  0  0  0  0  3  0  0  0  0  0  0
  -20.9380   -6.0040   24.9320 C   0  0  0  0  0  3  0  0  0  0  0  0
  -21.3130   -4.6470   24.8870 C   0  0  0  0  0  0  0  0  0  0  0  0
  -21.8270   -4.0980   23.7000 C   0  0  0  0  0  3  0  0  0  0  0  0
  -21.9650   -4.9020   22.5550 C   0  0  0  0  0  0  0  0  0  0  0  0
  -22.4410   -4.3610   21.4070 F   0  0  0  0  0  0  0  0  0  0  0  0
  -21.1750   -3.8690   25.9850 F   0  0  0  0  0  0  0  0  0  0  0  0
  -22.8010  -13.6350   21.1680 C   0  0  0  0  0  0  0  0  0  0  0  0
  -22.0640  -12.9290   22.0200 N   0  0  0  0  0  0  0  0  0  0  0  0
  -22.3710  -14.6720   20.6650 O   0  0  0  0  0  0  0  0  0  0  0  0
  -22.4210  -12.0880   22.4480 H   0  0  0  0  0  0  0  0  0  0  0  0
  -21.1290  -13.2370   22.2460 H   0  0  0  0  0  0  0  0  0  0  0  0
  -25.4410  -15.2890   20.3520 N   0  0  0  0  0  0  0  0  0  0  0  0
  -24.6700  -15.9400   20.4440 H   0  0  0  0  0  0  0  0  0  0  0  0
  -26.2630  -15.7080   19.9340 H   0  0  0  0  0  0  0  0  0  0  0  0
  -28.7930  -25.8070   21.4940 C   0  0  0  0  0  3  0  0  0  0  0  0
  -28.9550  -24.4460   21.6170 C   0  0  0  0  0  0  0  0  0  0  0  0
  -29.2610  -23.9900   22.8460 O   0  0  0  0  0  0  0  0  0  0  0  0
  -29.3140  -24.7380   23.4270 H   0  0  0  0  0  0  0  0  0  0  0  0
  -28.5400  -26.5900   20.3760 O   0  0  0  0  0  0  0  0  0  0  0  0
  -24.6580  -31.9520   23.2910 C   0  0  0  0  0  0  0  0  0  0  0  0
  -27.4260  -27.4200   20.3890 C   0  0  0  0  0  0  0  0  0  0  0  0
  -23.5170  -30.5010   21.6490 C   0  0  0  0  0  3  0  0  0  0  0  0
  -25.0290  -28.9500   20.2940 C   0  0  0  0  0  0  0  0  0  0  0  0
  -26.0480  -30.8720   21.5170 C   0  0  0  0  0  2  0  0  0  0  0  0
  -26.1700  -29.4830   20.9100 C   0  0  0  0  0  0  0  0  0  0  0  0
  -27.3760  -28.7250   20.9570 C   0  0  0  0  0  3  0  0  0  0  0  0
  -26.2690  -26.9250   19.7560 C   0  0  0  0  0  3  0  0  0  0  0  0
  -25.0770  -27.6720   19.7110 C   0  0  0  0  0  3  0  0  0  0  0  0
  -23.7740  -29.7990   20.2900 C   0  0  0  0  0  2  0  0  0  0  0  0
  -24.7580  -31.1270   22.2080 N   0  0  0  0  0  0  0  0  0  0  0  0
  -23.5580  -32.2210   23.7950 O   0  0  0  0  0  0  0  0  0  0  0  0
  -22.8500  -29.4920   22.6140 C   0  0  0  0  0  0  0  0  0  0  0  0
  -21.5300  -29.2940   22.4610 N   0  0  0  0  0  0  0  0  0  0  0  0
  -23.5200  -28.8900   23.4570 O   0  0  0  0  0  0  0  0  0  0  0  0
  -21.0480  -29.8300   21.7540 H   0  0  0  0  0  0  0  0  0  0  0  0
  -18.1510  -28.1060   22.9500 C   0  0  0  0  0  0  0  0  0  0  0  0
  -20.7080  -28.3600   23.2330 C   0  0  0  0  0  3  0  0  0  0  0  0
  -20.8110  -26.9270   22.6620 C   0  0  0  0  0  2  0  0  0  0  0  0
  -19.7140  -26.6040   21.6430 C   0  0  0  0  0  2  0  0  0  0  0  0
  -18.3280  -26.7540   22.2790 C   0  0  0  0  0  2  0  0  0  0  0  0
  -19.2680  -28.8670   23.3840 C   0  0  0  0  0  0  0  0  0  0  0  0
  -19.0490  -30.1320   23.9710 C   0  0  0  0  0  3  0  0  0  0  0  0
  -17.7450  -30.6360   24.1280 C   0  0  0  0  0  3  0  0  0  0  0  0
  -16.6410  -29.8710   23.7130 C   0  0  0  0  0  3  0  0  0  0  0  0
  -16.8450  -28.6080   23.1300 C   0  0  0  0  0  3  0  0  0  0  0  0
  -25.9170  -32.6150   23.9290 C   0  0  0  0  0  3  0  0  0  0  0  0
  -26.4260  -31.8680   25.2230 C   0  0  1  0  0  0  0  0  0  0  0  0
  -25.3130  -31.5970   26.2620 C   0  0  0  0  0  1  0  0  0  0  0  0
  -27.0670  -30.5090   24.8530 C   0  0  0  0  0  1  0  0  0  0  0  0
  -27.5310  -32.7030   25.9110 C   0  0  0  0  0  1  0  0  0  0  0  0
  -25.5750  -34.0120   24.2380 N   0  0  0  0  0  0  0  0  0  0  0  0
  -25.8880  -35.0600   23.4650 C   0  0  0  0  0  0  0  0  0  0  0  0
  -26.5650  -34.9570   22.4390 O   0  0  0  0  0  0  0  0  0  0  0  0
  -24.9740  -34.1640   25.0340 H   0  0  0  0  0  0  0  0  0  0  0  0
  -24.1260  -36.8110   23.0740 C   0  0  0  0  0  1  0  0  0  0  0  0
  -25.3670  -36.4430   23.9010 C   0  0  0  0  0  3  0  0  0  0  0  0
  -27.4680  -37.3920   24.7480 C   0  0  0  0  0  1  0  0  0  0  0  0
  -26.3790  -37.5160   23.7830 N   0  0  0  0  0  0  0  0  0  0  0  0
  -25.9510  -38.4300   23.9040 H   0  0  0  0  0  0  0  0  0  0  0  0
  1  5  2  0
  2  3  2  0
  2  1  1  0
  3  4  1  0
  4 16  1  0
  4  7  1  0
  5  7  1  0
  5  8  1  0
  6  8  1  0
  6 55  1  0
  7 11  1  0
  8 12  1  0
  9  6  2  0
 10  3  1  0
 13 14  1  0
 13  2  1  0
 15 13  1  0
 16 17  2  0
 18 17  1  0
 19 24  1  0
 20 21  1  0
 20 19  1  0
 22 21  1  0
 22 29  1  0
 22 23  1  0
 24 18  1  0
 24 23  1  0
 25 18  2  0
 26 27  2  0
 27 46  1  0
 28 27  1  0
 28 31  1  0
 29 26  1  0
 29 30  1  0
 30 28  2  0
 31 32  1  0
 32 33  2  0
 34 37  1  0
 34 33  1  0
 35 34  2  0
 36 35  1  0
 36 31  2  0
 37 38  1  0
 38 39  1  0
 39 40  2  0
 41 40  1  0
 41 45  1  0
 42 41  2  0
 43 38  2  0
 43 42  1  0
 44 43  1  0
 46 47  1  0
 47 50  1  0
 47 49  1  0
 48 46  2  0
 51 52  1  0
 51 26  1  0
 53 51  1  0
 54 55  2  0
 55 56  1  0
 56 57  1  0
 58 60  1  0
 58 54  1  0
 59 70  2  0
 60 65  1  0
 61 69  1  0
 61 71  1  0
 62 64  1  0
 63 69  1  0
 64 65  2  0
 64 63  1  0
 66 60  2  0
 67 66  1  0
 67 62  2  0
 68 62  1  0
 68 61  1  0
 69 59  1  0
 71 73  2  0
 72 71  1  0
 74 72  1  0
 75 84  2  0
 75 80  1  0
 76 72  1  0
 76 80  1  0
 77 76  1  0
 78 79  1  0
 78 77  1  0
 79 75  1  0
 80 81  2  0
 81 82  1  0
 83 82  2  0
 84 83  1  0
 85 59  1  0
 85 90  1  0
 85 86  1  0
 86 89  1  1
 86 87  1  0
 88 86  1  0
 90 93  1  0
 91 95  1  0
 91 90  1  0
 92 91  2  0
 95 94  1  0
 97 95  1  0
 97 98  1  0
 97 96  1  0
M  ISO  4  17 100  18 100  54 101  58 101
M  END
>  <TORSDO>  (88) 
F 20

>  <SCORE>  (88) 
-14.554

>  <name>  (88) 
88

>  <ligand_id>  (88) 
88

>  <original_smiles>  (88) 
[H]OC(C(=O)N([H])c1c([H])c(N([H])[H])c(F)c(C([H])=C([H])C(=O)N2C([H])([H])C([H])([H])C([H])([H])C([H])(n3nc(-c4c([H])c([H])c(Oc5c([H])c([H])c(F)c([H])c5F)c([H])c4[H])c(C(=O)N([H])[H])c3N([H])[H])C2([H])[H])[n+]1[H])=C([H])Oc1c([H])c([H])c2c(c1[H])C([H])([H])N(C(=O)C([H])(N([H])C(=O)C([H])(N([H])C([H])([H])[H])C([H])([H])[H])C(C([H])([H])[H])(C([H])([H])[H])C([H])([H])[H])C([H])(C(=O)N([H])C1([H])c3c([H])c([H])c([H])c([H])c3C([H])([H])C([H])([H])C1([H])[H])C2([H])[H]

>  <smiles>  (88) 
[H]OC(C(=O)N([H])c1c([H])c(N([H])[H])c(F)c(C([H])=C([H])C(=O)N2C([H])([H])C([H])([H])C([H])([H])C([H])(n3nc(-c4c([H])c([H])c(Oc5c([H])c([H])c(F)c([H])c5F)c([H])c4[H])c(C(=O)N([H])[H])c3N([H])[H])C2([H])[H])[n+]1[H])=C([H])Oc1c([H])c([H])c2c(c1[H])C([H])([H])N(C(=O)C([H])(N([H])C(=O)C([H])(N([H])C([H])([H])[H])C([H])([H])[H])C(C([H])([H])[H])(C([H])([H])[H])C([H])([H])[H])C([H])(C(=O)N([H])C1([H])c3c([H])c([H])c([H])c([H])c3C([H])([H])C([H])([H])C1([H])[H])C2([H])[H]

$$$$
89:0:0
     RDKit          3D

 98106  0  0  1  0  0  0  0  0999 V2000
  -28.6920  -21.3910   21.5920 C   0  0  0  0  0  3  0  0  0  0  0  0
  -27.5350  -20.9650   21.0770 F   0  0  0  0  0  0  0  0  0  0  0  0
  -29.2440  -22.6190   20.8400 C   0  0  0  0  0  0  0  0  0  0  0  0
  -30.4610  -22.8270   20.7490 O   0  0  0  0  0  0  0  0  0  0  0  0
  -28.2220  -23.5430   20.1780 C   0  0  0  0  0  2  0  0  0  0  0  0
  -28.4410  -24.9820   20.6160 C   0  0  0  0  0  0  0  0  0  0  0  0
  -28.2300  -25.3460   21.7830 O   0  0  0  0  0  0  0  0  0  0  0  0
  -28.9220  -25.9520   19.5270 C   0  0  0  0  0  2  0  0  0  0  0  0
  -28.7600  -27.3110   19.9340 O   0  0  0  0  0  0  0  0  0  0  0  0
  -24.5370  -31.9150   23.2660 C   0  0  0  0  0  0  0  0  0  0  0  0
  -27.5050  -27.8860   19.9410 C   0  0  0  0  0  0  0  0  0  0  0  0
  -23.4450  -30.5540   21.5110 C   0  0  0  0  0  3  0  0  0  0  0  0
  -25.0070  -29.2020   20.0200 C   0  0  0  0  0  0  0  0  0  0  0  0
  -25.9400  -31.0900   21.3780 C   0  0  0  0  0  2  0  0  0  0  0  0
  -26.1170  -29.7720   20.6540 C   0  0  0  0  0  0  0  0  0  0  0  0
  -27.3650  -29.1190   20.6120 C   0  0  0  0  0  3  0  0  0  0  0  0
  -26.3720  -27.3160   19.3110 C   0  0  0  0  0  3  0  0  0  0  0  0
  -25.1270  -27.9730   19.3480 C   0  0  0  0  0  3  0  0  0  0  0  0
  -23.7110  -29.9740   20.0960 C   0  0  0  0  0  2  0  0  0  0  0  0
  -24.6580  -31.1960   22.1140 N   0  0  0  0  0  0  0  0  0  0  0  0
  -23.4340  -32.0830   23.8040 O   0  0  0  0  0  0  0  0  0  0  0  0
  -22.8460  -29.4320   22.3920 C   0  0  0  0  0  0  0  0  0  0  0  0
  -21.5380  -29.1780   22.2260 N   0  0  0  0  0  0  0  0  0  0  0  0
  -23.5570  -28.7980   23.1760 O   0  0  0  0  0  0  0  0  0  0  0  0
  -21.0330  -29.7390   21.5540 H   0  0  0  0  0  0  0  0  0  0  0  0
  -18.2300  -27.7700   22.5890 C   0  0  0  0  0  0  0  0  0  0  0  0
  -20.7680  -28.1420   22.9120 C   0  0  0  0  0  3  0  0  0  0  0  0
  -20.9530  -26.7680   22.2280 C   0  0  0  0  0  2  0  0  0  0  0  0
  -19.8750  -26.4670   21.1820 C   0  0  0  0  0  2  0  0  0  0  0  0
  -18.4860  -26.4850   21.8190 C   0  0  0  0  0  2  0  0  0  0  0  0
  -19.3020  -28.5550   23.0900 C   0  0  0  0  0  0  0  0  0  0  0  0
  -19.0080  -29.7580   23.7680 C   0  0  0  0  0  3  0  0  0  0  0  0
  -17.6760  -30.1740   23.9520 C   0  0  0  0  0  3  0  0  0  0  0  0
  -16.6190  -29.3840   23.4660 C   0  0  0  0  0  3  0  0  0  0  0  0
  -16.8990  -28.1830   22.7910 C   0  0  0  0  0  3  0  0  0  0  0  0
  -25.7740  -32.5760   23.9510 C   0  0  0  0  0  3  0  0  0  0  0  0
  -26.2340  -31.8280   25.2620 C   0  0  1  0  0  0  0  0  0  0  0  0
  -25.0830  -31.5520   26.2590 C   0  0  0  0  0  1  0  0  0  0  0  0
  -26.8910  -30.4740   24.9090 C   0  0  0  0  0  1  0  0  0  0  0  0
  -27.3140  -32.6640   25.9900 C   0  0  0  0  0  1  0  0  0  0  0  0
  -25.4230  -33.9700   24.2430 N   0  0  0  0  0  0  0  0  0  0  0  0
  -25.7900  -35.0170   23.4920 C   0  0  0  0  0  0  0  0  0  0  0  0
  -26.5260  -34.9120   22.5070 O   0  0  0  0  0  0  0  0  0  0  0  0
  -24.7750  -34.1260   25.0010 H   0  0  0  0  0  0  0  0  0  0  0  0
  -24.0560  -36.7700   23.0040 C   0  0  0  0  0  1  0  0  0  0  0  0
  -25.2520  -36.4020   23.8990 C   0  0  0  0  0  3  0  0  0  0  0  0
  -27.3120  -37.3380   24.8500 C   0  0  0  0  0  1  0  0  0  0  0  0
  -26.2710  -37.4710   23.8330 N   0  0  0  0  0  0  0  0  0  0  0  0
  -25.8440  -38.3870   23.9410 H   0  0  0  0  0  0  0  0  0  0  0  0
  -29.6290  -20.2710   21.6980 N   0  0  0  0  0  0  0  0  0  0  0  0
  -29.9880  -20.0760   22.6220 H   0  0  0  0  0  0  0  0  0  0  0  0
  -31.3690  -14.7670   20.5270 C   0  0  0  0  0  0  0  0  0  0  0  0
  -31.0910  -12.5630   19.4790 C   0  0  0  0  0  2  0  0  0  0  0  0
  -30.2130  -12.7290   18.2210 C   0  0  0  0  0  2  0  0  0  0  0  0
  -28.7170  -12.6540   18.5860 C   0  0  0  0  0  2  0  0  0  0  0  0
  -28.3410  -13.5680   19.7810 C   0  0  0  0  0  3  0  0  0  0  0  0
  -29.3270  -13.3610   20.9530 C   0  0  0  0  0  2  0  0  0  0  0  0
  -30.6980  -13.5910   20.4500 N   0  0  0  0  0  0  0  0  0  0  0  0
  -32.4870  -14.9500   20.0270 O   0  0  0  0  0  0  0  0  0  0  0  0
  -30.0090  -17.0200   19.1390 C   0  0  0  0  0  3  0  0  0  0  0  0
  -29.5590  -18.2200   18.5560 C   0  0  0  0  0  0  0  0  0  0  0  0
  -29.4270  -19.3550   19.3750 C   0  0  0  0  0  0  0  0  0  0  0  0
  -30.3080  -16.9780   20.5210 C   0  0  0  0  0  0  0  0  0  0  0  0
  -29.7240  -19.2370   20.7580 C   0  0  0  0  0  0  0  0  0  0  0  0
  -30.1420  -18.0710   21.3000 N   0  0  0  0  0  0  0  0  0  0  0  0
  -30.6860  -15.7530   21.1220 N   0  0  0  0  0  0  0  0  0  0  0  0
  -29.0220  -20.5180   18.8150 F   0  0  0  0  0  0  0  0  0  0  0  0
  -30.0180  -15.4170   21.7970 H   0  0  0  0  0  0  0  0  0  0  0  0
  -25.9400  -14.2960   20.3690 C   0  0  0  0  0  0  0  0  0  0  0  0
  -24.8230  -13.5760   20.6960 C   0  0  0  0  0  0  0  0  0  0  0  0
  -25.2260  -12.2060   20.7030 C   0  0  0  0  0  0  0  0  0  0  0  0
  -26.9540  -13.3650   20.1960 N   0  0  0  0  0  0  0  0  0  0  0  0
  -26.5240  -12.1060   20.4530 N   0  0  0  0  0  0  0  0  0  0  0  0
  -24.4420  -10.9780   20.8810 C   0  0  0  0  0  0  0  0  0  0  0  0
  -24.7750  -10.0240   21.8670 C   0  0  0  0  0  3  0  0  0  0  0  0
  -23.9940   -8.8590   22.0270 C   0  0  0  0  0  3  0  0  0  0  0  0
  -22.8670   -8.6410   21.2030 C   0  0  0  0  0  0  0  0  0  0  0  0
  -22.5520   -9.5850   20.2100 C   0  0  0  0  0  3  0  0  0  0  0  0
  -23.3330  -10.7400   20.0470 C   0  0  0  0  0  3  0  0  0  0  0  0
  -22.0640   -7.5280   21.2720 O   0  0  0  0  0  0  0  0  0  0  0  0
  -21.8830   -6.8410   22.4450 C   0  0  0  0  0  0  0  0  0  0  0  0
  -21.3560   -7.4620   23.5980 C   0  0  0  0  0  3  0  0  0  0  0  0
  -21.1240   -6.7040   24.7620 C   0  0  0  0  0  3  0  0  0  0  0  0
  -21.4080   -5.3250   24.7750 C   0  0  0  0  0  0  0  0  0  0  0  0
  -21.9280   -4.7050   23.6260 C   0  0  0  0  0  3  0  0  0  0  0  0
  -22.1630   -5.4590   22.4630 C   0  0  0  0  0  0  0  0  0  0  0  0
  -22.6440   -4.8500   21.3520 F   0  0  0  0  0  0  0  0  0  0  0  0
  -21.1770   -4.5960   25.8910 F   0  0  0  0  0  0  0  0  0  0  0  0
  -23.4380  -14.1150   20.9080 C   0  0  0  0  0  0  0  0  0  0  0  0
  -22.6600  -13.4770   21.7730 N   0  0  0  0  0  0  0  0  0  0  0  0
  -23.0530  -15.1350   20.3380 O   0  0  0  0  0  0  0  0  0  0  0  0
  -22.9810  -12.6490   22.2510 H   0  0  0  0  0  0  0  0  0  0  0  0
  -21.7280  -13.8210   21.9570 H   0  0  0  0  0  0  0  0  0  0  0  0
  -26.1780  -15.6570   20.1880 N   0  0  0  0  0  0  0  0  0  0  0  0
  -25.4530  -16.3560   20.3030 H   0  0  0  0  0  0  0  0  0  0  0  0
  -27.0700  -16.0500   19.9170 H   0  0  0  0  0  0  0  0  0  0  0  0
  -27.8480  -18.9000   16.7740 C   0  0  0  0  0  1  0  0  0  0  0  0
  -29.2270  -18.2820   17.0730 C   0  0  0  0  0  2  0  0  0  0  0  0
  1  2  1  0
  1 50  1  0
  3  1  1  0
  4  3  2  0
  5  6  1  0
  5  3  1  0
  6  7  2  0
  8  9  1  0
  8  6  1  0
  9 11  1  0
 10 21  2  0
 11 16  1  0
 12 20  1  0
 12 22  1  0
 13 19  1  0
 13 15  1  0
 14 20  1  0
 15 14  1  0
 16 15  2  0
 17 18  1  0
 17 11  2  0
 18 13  2  0
 19 12  1  0
 20 10  1  0
 22 24  2  0
 23 22  1  0
 25 23  1  0
 26 35  2  0
 26 31  1  0
 27 23  1  0
 27 31  1  0
 28 27  1  0
 29 30  1  0
 29 28  1  0
 30 26  1  0
 31 32  2  0
 32 33  1  0
 34 33  2  0
 35 34  1  0
 36 10  1  0
 36 41  1  0
 36 37  1  0
 37 40  1  1
 37 38  1  0
 39 37  1  0
 41 44  1  0
 42 46  1  0
 42 41  1  0
 43 42  2  0
 46 45  1  0
 48 46  1  0
 48 49  1  0
 48 47  1  0
 50 51  1  0
 52 66  1  0
 53 58  1  0
 54 55  1  0
 54 53  1  0
 56 55  1  0
 56 72  1  0
 56 57  1  0
 58 52  1  0
 58 57  1  0
 59 52  2  0
 60 63  1  0
 61 60  2  0
 61 62  1  0
 62 64  2  0
 63 66  1  0
 63 65  2  0
 64 65  1  0
 64 50  1  0
 66 68  1  0
 67 62  1  0
 69 70  2  0
 70 71  1  0
 70 89  1  0
 71 74  1  0
 72 69  1  0
 72 73  1  0
 73 71  2  0
 74 75  1  0
 75 76  2  0
 77 80  1  0
 77 76  1  0
 78 77  2  0
 79 78  1  0
 79 74  2  0
 80 81  1  0
 81 86  2  0
 81 82  1  0
 82 83  2  0
 83 84  1  0
 84 88  1  0
 85 84  2  0
 86 85  1  0
 87 86  1  0
 89 90  1  0
 90 93  1  0
 90 92  1  0
 91 89  2  0
 94 95  1  0
 94 69  1  0
 96 94  1  0
 97 98  1  0
 98 61  1  0
M  ISO  4   8 101   9 101  52 100  66 100
M  END
>  <TORSDO>  (89) 
F 22

>  <SCORE>  (89) 
-12.473

>  <name>  (89) 
89

>  <ligand_id>  (89) 
89

>  <original_smiles>  (89) 
[H]c1c([H])c([H])c2c(c1[H])C([H])([H])C([H])([H])C([H])([H])C2([H])N([H])C(=O)C1([H])N(C(=O)C([H])(N([H])C(=O)C([H])(N([H])C([H])([H])[H])C([H])([H])[H])C(C([H])([H])[H])(C([H])([H])[H])C([H])([H])[H])C([H])([H])c2c([H])c(OC([H])([H])C(=O)C([H])([H])C(=O)C([H])(F)N([H])c3nc(N([H])C(=O)N4C([H])([H])C([H])([H])C([H])([H])C([H])(n5nc(-c6c([H])c([H])c(Oc7c([H])c([H])c(F)c([H])c7F)c([H])c6[H])c(C(=O)N([H])[H])c5N([H])[H])C4([H])[H])c([H])c(C([H])([H])C([H])([H])[H])c3F)c([H])c([H])c2C1([H])[H]

>  <smiles>  (89) 
[H]c1c([H])c([H])c2c(c1[H])C([H])([H])C([H])([H])C([H])([H])C2([H])N([H])C(=O)C1([H])N(C(=O)C([H])(N([H])C(=O)C([H])(N([H])C([H])([H])[H])C([H])([H])[H])C(C([H])([H])[H])(C([H])([H])[H])C([H])([H])[H])C([H])([H])c2c([H])c(OC([H])([H])C(=O)C([H])([H])C(=O)C([H])(F)N([H])c3nc(N([H])C(=O)N4C([H])([H])C([H])([H])C([H])([H])C([H])(n5nc(-c6c([H])c([H])c(Oc7c([H])c([H])c(F)c([H])c7F)c([H])c6[H])c(C(=O)N([H])[H])c5N([H])[H])C4([H])[H])c([H])c(C([H])([H])C([H])([H])[H])c3F)c([H])c([H])c2C1([H])[H]

$$$$
90:0:0
     RDKit          3D

 98106  0  0  1  0  0  0  0  0999 V2000
  -29.1460  -23.1870   21.2900 C   0  0  0  0  0  3  0  0  0  0  0  0
  -28.9480  -20.7160   20.9220 C   0  0  0  0  0  0  0  0  0  0  0  0
  -29.5300  -21.9020   20.6500 N   0  0  0  0  0  0  0  0  0  0  0  0
  -27.9070  -20.6590   21.5810 O   0  0  0  0  0  0  0  0  0  0  0  0
  -30.3670  -21.9150   20.0830 H   0  0  0  0  0  0  0  0  0  0  0  0
  -30.5310  -19.1710   19.4890 C   0  0  0  0  0  0  0  0  0  0  0  0
  -30.8650  -17.7840   19.3920 C   0  0  0  0  0  0  0  0  0  0  0  0
  -29.6100  -19.4610   20.4620 C   0  0  0  0  0  0  0  0  0  0  0  0
  -30.2210  -16.9650   20.2980 C   0  0  0  0  0  0  0  0  0  0  0  0
  -31.0600  -20.0800   18.6990 F   0  0  0  0  0  0  0  0  0  0  0  0
  -31.7000  -17.3550   18.4730 F   0  0  0  0  0  0  0  0  0  0  0  0
  -29.1440  -17.9650   21.2670 S   0  0  0  0  0  0  0  0  0  0  0  0
  -30.9250  -14.6530   19.8230 C   0  0  0  0  0  0  0  0  0  0  0  0
  -30.5870  -12.4810   18.7010 C   0  0  0  0  0  2  0  0  0  0  0  0
  -29.5270  -12.6770   17.5960 C   0  0  0  0  0  2  0  0  0  0  0  0
  -28.1010  -12.5190   18.1630 C   0  0  0  0  0  2  0  0  0  0  0  0
  -27.8780  -13.3360   19.4630 C   0  0  0  0  0  3  0  0  0  0  0  0
  -29.0370  -13.1050   20.4580 C   0  0  0  0  0  2  0  0  0  0  0  0
  -30.2980  -13.4450   19.7730 N   0  0  0  0  0  0  0  0  0  0  0  0
  -31.9950  -14.8700   19.2470 O   0  0  0  0  0  0  0  0  0  0  0  0
  -30.2430  -15.6090   20.4880 N   0  0  0  0  0  0  0  0  0  0  0  0
  -29.5020  -15.2480   21.0690 H   0  0  0  0  0  0  0  0  0  0  0  0
  -25.5830  -13.9190   20.4750 C   0  0  0  0  0  0  0  0  0  0  0  0
  -24.5470  -13.1340   20.9060 C   0  0  0  0  0  0  0  0  0  0  0  0
  -24.9770  -11.7830   20.7260 C   0  0  0  0  0  0  0  0  0  0  0  0
  -26.5800  -13.0440   20.0660 N   0  0  0  0  0  0  0  0  0  0  0  0
  -26.2230  -11.7510   20.2710 N   0  0  0  0  0  0  0  0  0  0  0  0
  -24.2520  -10.5180   20.9060 C   0  0  0  0  0  0  0  0  0  0  0  0
  -24.6580   -9.5650   21.8650 C   0  0  0  0  0  3  0  0  0  0  0  0
  -23.9340   -8.3640   22.0310 C   0  0  0  0  0  3  0  0  0  0  0  0
  -22.7910   -8.1090   21.2380 C   0  0  0  0  0  0  0  0  0  0  0  0
  -22.4040   -9.0520   20.2690 C   0  0  0  0  0  3  0  0  0  0  0  0
  -23.1290  -10.2430   20.1000 C   0  0  0  0  0  3  0  0  0  0  0  0
  -22.0420   -6.9590   21.3120 O   0  0  0  0  0  0  0  0  0  0  0  0
  -21.8020   -6.3330   22.5080 C   0  0  0  0  0  0  0  0  0  0  0  0
  -21.1500   -6.9890   23.5760 C   0  0  0  0  0  3  0  0  0  0  0  0
  -20.8590   -6.2860   24.7620 C   0  0  0  0  0  3  0  0  0  0  0  0
  -21.2110   -4.9270   24.8810 C   0  0  0  0  0  0  0  0  0  0  0  0
  -21.8550   -4.2720   23.8170 C   0  0  0  0  0  3  0  0  0  0  0  0
  -22.1470   -4.9720   22.6330 C   0  0  0  0  0  0  0  0  0  0  0  0
  -22.7480   -4.3290   21.6030 F   0  0  0  0  0  0  0  0  0  0  0  0
  -20.9260   -4.2500   26.0170 F   0  0  0  0  0  0  0  0  0  0  0  0
  -23.2000  -13.6050   21.3690 C   0  0  0  0  0  0  0  0  0  0  0  0
  -22.5630  -12.8610   22.2660 N   0  0  0  0  0  0  0  0  0  0  0  0
  -22.7220  -14.6670   20.9720 O   0  0  0  0  0  0  0  0  0  0  0  0
  -22.9630  -11.9990   22.6080 H   0  0  0  0  0  0  0  0  0  0  0  0
  -21.6640  -13.1560   22.6170 H   0  0  0  0  0  0  0  0  0  0  0  0
  -25.7560  -15.2970   20.3790 N   0  0  0  0  0  0  0  0  0  0  0  0
  -25.0180  -15.9500   20.6170 H   0  0  0  0  0  0  0  0  0  0  0  0
  -26.5690  -15.7470   19.9790 H   0  0  0  0  0  0  0  0  0  0  0  0
  -30.0170  -23.4340   22.5500 C   0  0  2  0  0  0  0  0  0  0  0  0
  -29.9570  -22.4070   23.3990 F   0  0  0  0  0  0  0  0  0  0  0  0
  -29.6220  -24.5200   23.2130 F   0  0  0  0  0  0  0  0  0  0  0  0
  -31.2910  -23.6080   22.1930 F   0  0  0  0  0  0  0  0  0  0  0  0
  -29.1210  -24.3970   20.3080 C   0  0  0  0  0  0  0  0  0  0  0  0
  -29.6410  -24.3580   19.1850 O   0  0  0  0  0  0  0  0  0  0  0  0
  -28.3750  -25.6710   20.7820 C   0  0  0  0  0  2  0  0  0  0  0  0
  -28.4360  -26.7680   19.8500 O   0  0  0  0  0  0  0  0  0  0  0  0
  -24.6900  -31.8820   23.1230 C   0  0  0  0  0  0  0  0  0  0  0  0
  -27.2940  -27.5350   19.8790 C   0  0  0  0  0  0  0  0  0  0  0  0
  -23.4520  -30.4930   21.4930 C   0  0  0  0  0  3  0  0  0  0  0  0
  -24.8830  -29.0060   19.9900 C   0  0  0  0  0  0  0  0  0  0  0  0
  -25.9650  -30.8930   21.2230 C   0  0  0  0  0  2  0  0  0  0  0  0
  -26.0530  -29.5370   20.5520 C   0  0  0  0  0  0  0  0  0  0  0  0
  -27.2650  -28.8080   20.4930 C   0  0  0  0  0  3  0  0  0  0  0  0
  -26.1110  -27.0200   19.3080 C   0  0  0  0  0  3  0  0  0  0  0  0
  -24.9070  -27.7480   19.3640 C   0  0  0  0  0  3  0  0  0  0  0  0
  -23.6290  -29.8440   20.0950 C   0  0  0  0  0  2  0  0  0  0  0  0
  -24.7220  -31.1030   22.0050 N   0  0  0  0  0  0  0  0  0  0  0  0
  -23.6220  -32.1280   23.7020 O   0  0  0  0  0  0  0  0  0  0  0  0
  -22.8450  -29.4450   22.4530 C   0  0  0  0  0  0  0  0  0  0  0  0
  -21.5210  -29.2400   22.3570 N   0  0  0  0  0  0  0  0  0  0  0  0
  -23.5610  -28.8200   23.2400 O   0  0  0  0  0  0  0  0  0  0  0  0
  -21.0030  -29.7980   21.6920 H   0  0  0  0  0  0  0  0  0  0  0  0
  -18.1850  -27.9700   22.9110 C   0  0  0  0  0  0  0  0  0  0  0  0
  -20.7420  -28.2760   23.1310 C   0  0  0  0  0  3  0  0  0  0  0  0
  -20.8610  -26.8550   22.5320 C   0  0  0  0  0  2  0  0  0  0  0  0
  -19.7430  -26.5250   21.5370 C   0  0  0  0  0  2  0  0  0  0  0  0
  -18.3730  -26.6330   22.2130 C   0  0  0  0  0  2  0  0  0  0  0  0
  -19.2960  -28.7480   23.3280 C   0  0  0  0  0  0  0  0  0  0  0  0
  -19.0660  -29.9990   23.9400 C   0  0  0  0  0  3  0  0  0  0  0  0
  -17.7560  -30.4720   24.1410 C   0  0  0  0  0  3  0  0  0  0  0  0
  -16.6590  -29.6910   23.7400 C   0  0  0  0  0  3  0  0  0  0  0  0
  -16.8730  -28.4420   23.1320 C   0  0  0  0  0  3  0  0  0  0  0  0
  -25.9860  -32.5190   23.7150 C   0  0  0  0  0  3  0  0  0  0  0  0
  -25.6660  -33.9010   24.0940 N   0  0  0  0  0  0  0  0  0  0  0  0
  -25.9600  -34.9790   23.3540 C   0  0  0  0  0  0  0  0  0  0  0  0
  -26.6010  -34.9140   22.3010 O   0  0  0  0  0  0  0  0  0  0  0  0
  -25.0950  -34.0250   24.9170 H   0  0  0  0  0  0  0  0  0  0  0  0
  -24.2040  -36.7580   23.0890 C   0  0  0  0  0  1  0  0  0  0  0  0
  -25.4650  -36.3460   23.8640 C   0  0  0  0  0  3  0  0  0  0  0  0
  -27.6010  -37.2370   24.6840 C   0  0  0  0  0  1  0  0  0  0  0  0
  -26.4820  -37.4150   23.7620 N   0  0  0  0  0  0  0  0  0  0  0  0
  -26.0660  -38.3250   23.9400 H   0  0  0  0  0  0  0  0  0  0  0  0
  -26.5640  -31.7210   24.9480 C   0  0  1  0  0  0  0  0  0  0  0  0
  -25.5130  -31.4270   26.0450 C   0  0  0  0  0  1  0  0  0  0  0  0
  -27.1620  -30.3690   24.4920 C   0  0  0  0  0  1  0  0  0  0  0  0
  -27.7190  -32.5200   25.5950 C   0  0  0  0  0  1  0  0  0  0  0  0
  1 55  1  0
  1 51  1  0
  2  4  2  0
  3  2  1  0
  3  1  1  0
  5  3  1  0
  6  8  2  0
  7  6  1  0
  7  9  2  0
  8  2  1  0
  8 12  1  0
  9 21  1  0
  9 12  1  0
 10  6  1  0
 11  7  1  0
 13 21  1  0
 14 19  1  0
 15 16  1  0
 15 14  1  0
 17 16  1  0
 17 26  1  0
 17 18  1  0
 19 13  1  0
 19 18  1  0
 20 13  2  0
 21 22  1  0
 23 24  2  0
 24 43  1  0
 25 28  1  0
 25 24  1  0
 26 27  1  0
 26 23  1  0
 27 25  2  0
 28 29  1  0
 29 30  2  0
 31 34  1  0
 31 30  1  0
 32 31  2  0
 33 32  1  0
 33 28  2  0
 34 35  1  0
 35 40  2  0
 35 36  1  0
 36 37  2  0
 37 38  1  0
 38 42  1  0
 39 38  2  0
 40 39  1  0
 41 40  1  0
 43 44  1  0
 44 46  1  0
 44 47  1  0
 45 43  2  0
 48 23  1  0
 48 49  1  0
 50 48  1  0
 51 53  1  1
 51 52  1  0
 54 51  1  0
 55 57  1  0
 56 55  2  0
 58 60  1  0
 58 57  1  0
 59 70  2  0
 60 65  1  0
 61 69  1  0
 61 71  1  0
 62 68  1  0
 62 64  1  0
 63 69  1  0
 64 63  1  0
 65 64  2  0
 66 67  1  0
 66 60  2  0
 67 62  2  0
 68 61  1  0
 69 59  1  0
 71 73  2  0
 72 71  1  0
 74 72  1  0
 75 84  2  0
 75 80  1  0
 76 72  1  0
 76 80  1  0
 77 76  1  0
 78 79  1  0
 78 77  1  0
 79 75  1  0
 80 81  2  0
 81 82  1  0
 83 82  2  0
 84 83  1  0
 85 59  1  0
 85 86  1  0
 85 95  1  0
 86 89  1  0
 87 91  1  0
 87 86  1  0
 88 87  2  0
 91 90  1  0
 93 91  1  0
 93 94  1  0
 93 92  1  0
 95 98  1  1
 95 96  1  0
 97 95  1  0
M  ISO  4  13 100  21 100  57 101  58 101
M  END
>  <TORSDO>  (90) 
F 21

>  <SCORE>  (90) 
-11.779

>  <name>  (90) 
90

>  <ligand_id>  (90) 
90

>  <original_smiles>  (90) 
[H]c1c([H])c([H])c2c(c1[H])C([H])([H])C([H])([H])C([H])([H])C2([H])N([H])C(=O)C1([H])N(C(=O)C([H])(N([H])C(=O)C([H])(N([H])C([H])([H])[H])C([H])([H])[H])C(C([H])([H])[H])(C([H])([H])[H])C([H])([H])[H])C([H])([H])c2c([H])c(OC([H])([H])C(=O)C([H])(N([H])C(=O)c3sc(N([H])C(=O)N4C([H])([H])C([H])([H])C([H])([H])C([H])(n5nc(-c6c([H])c([H])c(Oc7c([H])c([H])c(F)c([H])c7F)c([H])c6[H])c(C(=O)N([H])[H])c5N([H])[H])C4([H])[H])c(F)c3F)C(F)(F)F)c([H])c([H])c2C1([H])[H]

>  <smiles>  (90) 
[H]c1c([H])c([H])c2c(c1[H])C([H])([H])C([H])([H])C([H])([H])C2([H])N([H])C(=O)C1([H])N(C(=O)C([H])(N([H])C(=O)C([H])(N([H])C([H])([H])[H])C([H])([H])[H])C(C([H])([H])[H])(C([H])([H])[H])C([H])([H])[H])C([H])([H])c2c([H])c(OC([H])([H])C(=O)C([H])(N([H])C(=O)c3sc(N([H])C(=O)N4C([H])([H])C([H])([H])C([H])([H])C([H])(n5nc(-c6c([H])c([H])c(Oc7c([H])c([H])c(F)c([H])c7F)c([H])c6[H])c(C(=O)N([H])[H])c5N([H])[H])C4([H])[H])c(F)c3F)C(F)(F)F)c([H])c([H])c2C1([H])[H]

$$$$
91:0:0
     RDKit          3D

 95103  0  0  1  0  0  0  0  0999 V2000
  -29.6710  -22.5530   22.4230 C   0  0  0  0  0  0  0  0  0  0  0  0
  -30.8820  -21.9780   22.3550 N   0  0  0  0  0  0  0  0  0  0  0  0
  -28.6350  -21.9030   22.5660 O   0  0  0  0  0  0  0  0  0  0  0  0
  -31.6580  -22.6020   22.1640 H   0  0  0  0  0  0  0  0  0  0  0  0
  -31.2510  -20.7300   23.0290 C   0  0  0  0  0  2  0  0  0  0  0  0
  -30.9160  -14.6090   20.2560 C   0  0  0  0  0  0  0  0  0  0  0  0
  -30.6170  -12.5270   18.9480 C   0  0  0  0  0  2  0  0  0  0  0  0
  -29.6120  -12.7900   17.8080 C   0  0  0  0  0  2  0  0  0  0  0  0
  -28.1510  -12.6390   18.2900 C   0  0  0  0  0  2  0  0  0  0  0  0
  -27.8800  -13.4030   19.6140 C   0  0  0  0  0  3  0  0  0  0  0  0
  -28.9720  -13.0530   20.6460 C   0  0  0  0  0  2  0  0  0  0  0  0
  -30.2770  -13.4230   20.0630 N   0  0  0  0  0  0  0  0  0  0  0  0
  -31.9630  -14.9100   19.6670 O   0  0  0  0  0  0  0  0  0  0  0  0
  -30.8020  -18.2740   23.2580 C   0  0  0  0  0  3  0  0  0  0  0  0
  -30.9500  -19.3700   22.3910 C   0  0  0  0  0  0  0  0  0  0  0  0
  -30.8620  -19.1060   21.0050 C   0  0  0  0  0  0  0  0  0  0  0  0
  -30.6520  -17.7780   20.5630 C   0  0  0  0  0  0  0  0  0  0  0  0
  -30.5610  -16.7400   21.5240 C   0  0  0  0  0  0  0  0  0  0  0  0
  -30.6080  -17.0050   22.8500 N   0  0  0  0  0  0  0  0  0  0  0  0
  -30.2830  -15.4090   21.1320 N   0  0  0  0  0  0  0  0  0  0  0  0
  -30.9790  -20.1090   20.0950 F   0  0  0  0  0  0  0  0  0  0  0  0
  -30.5150  -17.5170   19.2380 F   0  0  0  0  0  0  0  0  0  0  0  0
  -29.5230  -14.9660   21.6240 H   0  0  0  0  0  0  0  0  0  0  0  0
  -25.5100  -14.0220   20.4120 C   0  0  0  0  0  0  0  0  0  0  0  0
  -24.4530  -13.2510   20.8150 C   0  0  0  0  0  0  0  0  0  0  0  0
  -24.9010  -11.8960   20.7420 C   0  0  0  0  0  0  0  0  0  0  0  0
  -26.5390  -13.1340   20.1290 N   0  0  0  0  0  0  0  0  0  0  0  0
  -26.1750  -11.8520   20.3760 N   0  0  0  0  0  0  0  0  0  0  0  0
  -24.1730  -10.6370   20.9360 C   0  0  0  0  0  0  0  0  0  0  0  0
  -24.5900   -9.6820   21.8880 C   0  0  0  0  0  3  0  0  0  0  0  0
  -23.8620   -8.4860   22.0690 C   0  0  0  0  0  3  0  0  0  0  0  0
  -22.7030   -8.2380   21.2950 C   0  0  0  0  0  0  0  0  0  0  0  0
  -22.3090   -9.1790   20.3270 C   0  0  0  0  0  3  0  0  0  0  0  0
  -23.0390  -10.3650   20.1440 C   0  0  0  0  0  3  0  0  0  0  0  0
  -21.9470   -7.0940   21.3840 O   0  0  0  0  0  0  0  0  0  0  0  0
  -21.8030   -6.4170   22.5680 C   0  0  0  0  0  0  0  0  0  0  0  0
  -21.2680   -7.0360   23.7200 C   0  0  0  0  0  3  0  0  0  0  0  0
  -21.0730   -6.2840   24.8970 C   0  0  0  0  0  3  0  0  0  0  0  0
  -21.4020   -4.9150   24.9190 C   0  0  0  0  0  0  0  0  0  0  0  0
  -21.9290   -4.2960   23.7720 C   0  0  0  0  0  3  0  0  0  0  0  0
  -22.1250   -5.0460   22.6000 C   0  0  0  0  0  0  0  0  0  0  0  0
  -22.6140   -4.4410   21.4900 F   0  0  0  0  0  0  0  0  0  0  0  0
  -21.2070   -4.1910   26.0460 F   0  0  0  0  0  0  0  0  0  0  0  0
  -23.0730  -13.7340   21.1560 C   0  0  0  0  0  0  0  0  0  0  0  0
  -22.3770  -13.0350   22.0450 N   0  0  0  0  0  0  0  0  0  0  0  0
  -22.6210  -14.7690   20.6630 O   0  0  0  0  0  0  0  0  0  0  0  0
  -22.7530  -12.1980   22.4660 H   0  0  0  0  0  0  0  0  0  0  0  0
  -21.4530  -13.3440   22.3110 H   0  0  0  0  0  0  0  0  0  0  0  0
  -25.6730  -15.3940   20.2510 N   0  0  0  0  0  0  0  0  0  0  0  0
  -24.9020  -16.0410   20.3810 H   0  0  0  0  0  0  0  0  0  0  0  0
  -26.5050  -15.8370   19.8860 H   0  0  0  0  0  0  0  0  0  0  0  0
  -29.6280  -24.0890   22.4320 C   0  0  0  0  0  2  0  0  0  0  0  0
  -28.7310  -24.7080   21.3390 C   0  0  0  0  0  2  0  0  0  0  0  0
  -28.8070  -26.2500   21.3150 C   0  0  0  0  0  2  0  0  0  0  0  0
  -28.3380  -26.7470   20.0600 O   0  0  0  0  0  0  0  0  0  0  0  0
  -24.5760  -31.9100   23.2030 C   0  0  0  0  0  0  0  0  0  0  0  0
  -27.1850  -27.4880   20.1100 C   0  0  0  0  0  0  0  0  0  0  0  0
  -23.3450  -30.5100   21.5720 C   0  0  0  0  0  3  0  0  0  0  0  0
  -24.7850  -28.9700   20.1340 C   0  0  0  0  0  0  0  0  0  0  0  0
  -25.8620  -30.8780   21.3380 C   0  0  0  0  0  2  0  0  0  0  0  0
  -25.9430  -29.5030   20.7110 C   0  0  0  0  0  0  0  0  0  0  0  0
  -27.1470  -28.7670   20.7030 C   0  0  0  0  0  3  0  0  0  0  0  0
  -26.0190  -26.9660   19.5160 C   0  0  0  0  0  3  0  0  0  0  0  0
  -24.8160  -27.6980   19.5320 C   0  0  0  0  0  3  0  0  0  0  0  0
  -23.5370  -29.8240   20.1920 C   0  0  0  0  0  2  0  0  0  0  0  0
  -24.6130  -31.1180   22.0940 N   0  0  0  0  0  0  0  0  0  0  0  0
  -23.5050  -32.1780   23.7630 O   0  0  0  0  0  0  0  0  0  0  0  0
  -22.7120  -29.4900   22.5450 C   0  0  0  0  0  0  0  0  0  0  0  0
  -21.3870  -29.3000   22.4320 N   0  0  0  0  0  0  0  0  0  0  0  0
  -23.4100  -28.8660   23.3470 O   0  0  0  0  0  0  0  0  0  0  0  0
  -20.8840  -29.8580   21.7570 H   0  0  0  0  0  0  0  0  0  0  0  0
  -18.0250  -28.0920   22.9690 C   0  0  0  0  0  0  0  0  0  0  0  0
  -20.5850  -28.3590   23.2130 C   0  0  0  0  0  3  0  0  0  0  0  0
  -20.6860  -26.9260   22.6430 C   0  0  0  0  0  2  0  0  0  0  0  0
  -19.5750  -26.5960   21.6390 C   0  0  0  0  0  2  0  0  0  0  0  0
  -18.1980  -26.7410   22.2960 C   0  0  0  0  0  2  0  0  0  0  0  0
  -19.1460  -28.8580   23.3860 C   0  0  0  0  0  0  0  0  0  0  0  0
  -18.9310  -30.1240   23.9730 C   0  0  0  0  0  3  0  0  0  0  0  0
  -17.6270  -30.6230   24.1490 C   0  0  0  0  0  3  0  0  0  0  0  0
  -16.5210  -29.8540   23.7450 C   0  0  0  0  0  3  0  0  0  0  0  0
  -16.7200  -28.5910   23.1600 C   0  0  0  0  0  3  0  0  0  0  0  0
  -25.8720  -32.5420   23.8030 C   0  0  0  0  0  3  0  0  0  0  0  0
  -26.4220  -31.7620   25.0600 C   0  0  1  0  0  0  0  0  0  0  0  0
  -25.3510  -31.5010   26.1440 C   0  0  0  0  0  1  0  0  0  0  0  0
  -27.0100  -30.3940   24.6380 C   0  0  0  0  0  1  0  0  0  0  0  0
  -27.5710  -32.5610   25.7160 C   0  0  0  0  0  1  0  0  0  0  0  0
  -25.5630  -33.9350   24.1520 N   0  0  0  0  0  0  0  0  0  0  0  0
  -25.8820  -34.9980   23.4000 C   0  0  0  0  0  0  0  0  0  0  0  0
  -26.5430  -34.9080   22.3600 O   0  0  0  0  0  0  0  0  0  0  0  0
  -24.9870  -34.0810   24.9690 H   0  0  0  0  0  0  0  0  0  0  0  0
  -24.1460  -36.7840   23.0780 C   0  0  0  0  0  1  0  0  0  0  0  0
  -25.3950  -36.3780   23.8770 C   0  0  0  0  0  3  0  0  0  0  0  0
  -27.5310  -37.2590   24.7030 C   0  0  0  0  0  1  0  0  0  0  0  0
  -26.4210  -37.4370   23.7710 N   0  0  0  0  0  0  0  0  0  0  0  0
  -26.0130  -38.3540   23.9350 H   0  0  0  0  0  0  0  0  0  0  0  0
  1 52  1  0
  1  3  2  0
  2  1  1  0
  2  5  1  0
  4  2  1  0
  6 20  1  0
  7 12  1  0
  8  9  1  0
  8  7  1  0
 10  9  1  0
 10 27  1  0
 10 11  1  0
 12  6  1  0
 12 11  1  0
 13  6  2  0
 15  5  1  0
 15 14  2  0
 16 15  1  0
 17 16  2  0
 17 18  1  0
 18 19  2  0
 19 14  1  0
 20 18  1  0
 20 23  1  0
 21 16  1  0
 22 17  1  0
 24 25  2  0
 25 44  1  0
 26 25  1  0
 26 29  1  0
 27 28  1  0
 27 24  1  0
 28 26  2  0
 29 30  1  0
 30 31  2  0
 32 35  1  0
 32 31  1  0
 33 32  2  0
 34 33  1  0
 34 29  2  0
 35 36  1  0
 36 41  2  0
 36 37  1  0
 37 38  2  0
 38 39  1  0
 39 43  1  0
 40 39  2  0
 41 40  1  0
 42 41  1  0
 44 45  1  0
 45 48  1  0
 45 47  1  0
 46 44  2  0
 49 50  1  0
 49 24  1  0
 51 49  1  0
 53 52  1  0
 54 53  1  0
 55 57  1  0
 55 54  1  0
 56 67  2  0
 57 62  1  0
 58 66  1  0
 58 68  1  0
 59 65  1  0
 59 61  1  0
 60 66  1  0
 61 60  1  0
 62 61  2  0
 63 64  1  0
 63 57  2  0
 64 59  2  0
 65 58  1  0
 66 56  1  0
 68 70  2  0
 69 68  1  0
 71 69  1  0
 72 81  2  0
 72 77  1  0
 73 69  1  0
 73 77  1  0
 74 73  1  0
 75 76  1  0
 75 74  1  0
 76 72  1  0
 77 78  2  0
 78 79  1  0
 80 79  2  0
 81 80  1  0
 82 56  1  0
 82 87  1  0
 82 83  1  0
 83 86  1  1
 83 84  1  0
 85 83  1  0
 87 90  1  0
 88 92  1  0
 88 87  1  0
 89 88  2  0
 92 91  1  0
 94 92  1  0
 94 95  1  0
 94 93  1  0
M  ISO  4   6 100  20 100  54 101  55 101
M  END
>  <TORSDO>  (91) 
F 20

>  <SCORE>  (91) 
-13.859

>  <name>  (91) 
91

>  <ligand_id>  (91) 
91

>  <original_smiles>  (91) 
[H]c1nc(N([H])C(=O)N2C([H])([H])C([H])([H])C([H])([H])C([H])(n3nc(-c4c([H])c([H])c(Oc5c([H])c([H])c(F)c([H])c5F)c([H])c4[H])c(C(=O)N([H])[H])c3N([H])[H])C2([H])[H])c(F)c(F)c1C([H])([H])N([H])C(=O)C([H])([H])C([H])([H])C([H])([H])Oc1c([H])c([H])c2c(c1[H])C([H])([H])N(C(=O)C([H])(N([H])C(=O)C([H])(N([H])C([H])([H])[H])C([H])([H])[H])C(C([H])([H])[H])(C([H])([H])[H])C([H])([H])[H])C([H])(C(=O)N([H])C1([H])c3c([H])c([H])c([H])c([H])c3C([H])([H])C([H])([H])C1([H])[H])C2([H])[H]

>  <smiles>  (91) 
[H]c1nc(N([H])C(=O)N2C([H])([H])C([H])([H])C([H])([H])C([H])(n3nc(-c4c([H])c([H])c(Oc5c([H])c([H])c(F)c([H])c5F)c([H])c4[H])c(C(=O)N([H])[H])c3N([H])[H])C2([H])[H])c(F)c(F)c1C([H])([H])N([H])C(=O)C([H])([H])C([H])([H])C([H])([H])Oc1c([H])c([H])c2c(c1[H])C([H])([H])N(C(=O)C([H])(N([H])C(=O)C([H])(N([H])C([H])([H])[H])C([H])([H])[H])C(C([H])([H])[H])(C([H])([H])[H])C([H])([H])[H])C([H])(C(=O)N([H])C1([H])c3c([H])c([H])c([H])c([H])c3C([H])([H])C([H])([H])C1([H])[H])C2([H])[H]

$$$$
92:0:0
     RDKit          3D

 96104  0  0  1  0  0  0  0  0999 V2000
  -29.1030  -20.5990   20.6040 C   0  0  0  0  0  0  0  0  0  0  0  0
  -29.6060  -21.7950   20.2440 N   0  0  0  0  0  0  0  0  0  0  0  0
  -28.1390  -20.4940   21.3650 O   0  0  0  0  0  0  0  0  0  0  0  0
  -30.4400  -21.7810   19.6750 H   0  0  0  0  0  0  0  0  0  0  0  0
  -30.2380  -19.4910   18.6410 C   0  0  0  0  0  3  0  0  0  0  0  0
  -30.7300  -18.3660   17.9610 C   0  0  0  0  0  3  0  0  0  0  0  0
  -29.7440  -19.3830   19.9630 C   0  0  0  0  0  0  0  0  0  0  0  0
  -30.2830  -16.9600   19.9170 C   0  0  0  0  0  0  0  0  0  0  0  0
  -30.7350  -17.1060   18.5780 C   0  0  0  0  0  0  0  0  0  0  0  0
  -29.7740  -18.1020   20.5950 C   0  0  0  0  0  0  0  0  0  0  0  0
  -31.1260  -16.0410   17.8370 F   0  0  0  0  0  0  0  0  0  0  0  0
  -29.3010  -17.9420   21.8560 F   0  0  0  0  0  0  0  0  0  0  0  0
  -30.9800  -14.6030   20.2350 C   0  0  0  0  0  0  0  0  0  0  0  0
  -30.6580  -12.4380   19.1260 C   0  0  0  0  0  2  0  0  0  0  0  0
  -29.7130  -12.6670   17.9280 C   0  0  0  0  0  2  0  0  0  0  0  0
  -28.2390  -12.5510   18.3650 C   0  0  0  0  0  2  0  0  0  0  0  0
  -27.9210  -13.3840   19.6360 C   0  0  0  0  0  3  0  0  0  0  0  0
  -28.9830  -13.1500   20.7370 C   0  0  0  0  0  2  0  0  0  0  0  0
  -30.3070  -13.4240   20.1590 N   0  0  0  0  0  0  0  0  0  0  0  0
  -32.1500  -14.7330   19.8640 O   0  0  0  0  0  0  0  0  0  0  0  0
  -30.2330  -15.6770   20.5600 N   0  0  0  0  0  0  0  0  0  0  0  0
  -29.4020  -15.4990   21.1000 H   0  0  0  0  0  0  0  0  0  0  0  0
  -25.5310  -14.0130   20.3530 C   0  0  0  0  0  0  0  0  0  0  0  0
  -24.4590  -13.2500   20.7320 C   0  0  0  0  0  0  0  0  0  0  0  0
  -24.9110  -11.8960   20.7090 C   0  0  0  0  0  0  0  0  0  0  0  0
  -26.5680  -13.1230   20.1240 N   0  0  0  0  0  0  0  0  0  0  0  0
  -26.1990  -11.8450   20.3960 N   0  0  0  0  0  0  0  0  0  0  0  0
  -24.1770  -10.6390   20.9110 C   0  0  0  0  0  0  0  0  0  0  0  0
  -24.5780   -9.6980   21.8850 C   0  0  0  0  0  3  0  0  0  0  0  0
  -23.8460   -8.5060   22.0730 C   0  0  0  0  0  3  0  0  0  0  0  0
  -22.6980   -8.2470   21.2860 C   0  0  0  0  0  0  0  0  0  0  0  0
  -22.3160   -9.1760   20.3030 C   0  0  0  0  0  3  0  0  0  0  0  0
  -23.0500  -10.3600   20.1140 C   0  0  0  0  0  3  0  0  0  0  0  0
  -21.9410   -7.1040   21.3810 O   0  0  0  0  0  0  0  0  0  0  0  0
  -21.8170   -6.4180   22.5630 C   0  0  0  0  0  0  0  0  0  0  0  0
  -21.2640   -7.0160   23.7170 C   0  0  0  0  0  3  0  0  0  0  0  0
  -21.0920   -6.2540   24.8900 C   0  0  0  0  0  3  0  0  0  0  0  0
  -21.4630   -4.8960   24.9100 C   0  0  0  0  0  0  0  0  0  0  0  0
  -22.0080   -4.2980   23.7600 C   0  0  0  0  0  3  0  0  0  0  0  0
  -22.1820   -5.0570   22.5880 C   0  0  0  0  0  0  0  0  0  0  0  0
  -22.6880   -4.4720   21.4770 F   0  0  0  0  0  0  0  0  0  0  0  0
  -21.2900   -4.1620   26.0330 F   0  0  0  0  0  0  0  0  0  0  0  0
  -23.0660  -13.7390   21.0060 C   0  0  0  0  0  0  0  0  0  0  0  0
  -22.3370  -13.0540   21.8800 N   0  0  0  0  0  0  0  0  0  0  0  0
  -22.6320  -14.7640   20.4810 O   0  0  0  0  0  0  0  0  0  0  0  0
  -22.7000  -12.2250   22.3280 H   0  0  0  0  0  0  0  0  0  0  0  0
  -21.4020  -13.3630   22.1070 H   0  0  0  0  0  0  0  0  0  0  0  0
  -25.7050  -15.3810   20.1640 N   0  0  0  0  0  0  0  0  0  0  0  0
  -24.9430  -16.0420   20.2720 H   0  0  0  0  0  0  0  0  0  0  0  0
  -26.5540  -15.8110   19.8230 H   0  0  0  0  0  0  0  0  0  0  0  0
  -28.9570  -23.1080   20.4100 C   0  0  0  0  0  2  0  0  0  0  0  0
  -29.5790  -23.9320   21.5460 C   0  0  0  0  0  0  0  0  0  0  0  0
  -29.6360  -23.4770   22.6920 O   0  0  0  0  0  0  0  0  0  0  0  0
  -30.1740  -25.3140   21.2250 C   0  0  0  0  0  2  0  0  0  0  0  0
  -29.2000  -26.5110   21.3550 C   0  0  0  0  0  2  0  0  0  0  0  0
  -28.5250  -26.7340   20.1200 O   0  0  0  0  0  0  0  0  0  0  0  0
  -24.5230  -31.8120   23.2190 C   0  0  0  0  0  0  0  0  0  0  0  0
  -27.3780  -27.4930   20.1600 C   0  0  0  0  0  0  0  0  0  0  0  0
  -23.4060  -30.4100   21.5140 C   0  0  0  0  0  3  0  0  0  0  0  0
  -24.9460  -28.9340   20.1140 C   0  0  0  0  0  0  0  0  0  0  0  0
  -25.9250  -30.8340   21.4070 C   0  0  0  0  0  2  0  0  0  0  0  0
  -26.0680  -29.4740   20.7580 C   0  0  0  0  0  0  0  0  0  0  0  0
  -27.2870  -28.7570   20.7920 C   0  0  0  0  0  3  0  0  0  0  0  0
  -26.2470  -26.9740   19.5010 C   0  0  0  0  0  3  0  0  0  0  0  0
  -25.0290  -27.6790   19.4860 C   0  0  0  0  0  3  0  0  0  0  0  0
  -23.6790  -29.7590   20.1310 C   0  0  0  0  0  2  0  0  0  0  0  0
  -24.6340  -31.0340   22.1060 N   0  0  0  0  0  0  0  0  0  0  0  0
  -23.4190  -32.0490   23.7290 O   0  0  0  0  0  0  0  0  0  0  0  0
  -22.7510  -29.3560   22.4360 C   0  0  0  0  0  0  0  0  0  0  0  0
  -21.4350  -29.1430   22.2630 N   0  0  0  0  0  0  0  0  0  0  0  0
  -23.4230  -28.7340   23.2620 O   0  0  0  0  0  0  0  0  0  0  0  0
  -20.9540  -29.7010   21.5700 H   0  0  0  0  0  0  0  0  0  0  0  0
  -18.0720  -27.8860   22.6550 C   0  0  0  0  0  0  0  0  0  0  0  0
  -20.6180  -28.1730   22.9890 C   0  0  0  0  0  3  0  0  0  0  0  0
  -20.7560  -26.7600   22.3770 C   0  0  0  0  0  2  0  0  0  0  0  0
  -19.6810  -26.4490   21.3310 C   0  0  0  0  0  2  0  0  0  0  0  0
  -18.2840  -26.5570   21.9480 C   0  0  0  0  0  2  0  0  0  0  0  0
  -19.1690  -28.6520   23.1300 C   0  0  0  0  0  0  0  0  0  0  0  0
  -18.9190  -29.8960   23.7470 C   0  0  0  0  0  3  0  0  0  0  0  0
  -17.6030  -30.3750   23.8970 C   0  0  0  0  0  3  0  0  0  0  0  0
  -16.5200  -29.6050   23.4390 C   0  0  0  0  0  3  0  0  0  0  0  0
  -16.7550  -28.3620   22.8230 C   0  0  0  0  0  3  0  0  0  0  0  0
  -25.7740  -32.4620   23.8890 C   0  0  0  0  0  3  0  0  0  0  0  0
  -25.4340  -33.8570   24.2010 N   0  0  0  0  0  0  0  0  0  0  0  0
  -25.7830  -34.9100   23.4500 C   0  0  0  0  0  0  0  0  0  0  0  0
  -26.4960  -34.8110   22.4480 O   0  0  0  0  0  0  0  0  0  0  0  0
  -24.8040  -34.0070   24.9760 H   0  0  0  0  0  0  0  0  0  0  0  0
  -24.0550  -36.6810   23.0050 C   0  0  0  0  0  1  0  0  0  0  0  0
  -25.2580  -36.2930   23.8790 C   0  0  0  0  0  3  0  0  0  0  0  0
  -27.3310  -37.2100   24.8220 C   0  0  0  0  0  1  0  0  0  0  0  0
  -26.2830  -37.3570   23.8150 N   0  0  0  0  0  0  0  0  0  0  0  0
  -25.8600  -38.2730   23.9290 H   0  0  0  0  0  0  0  0  0  0  0  0
  -26.2520  -31.7000   25.1860 C   0  0  1  0  0  0  0  0  0  0  0  0
  -25.1200  -31.4430   26.2080 C   0  0  0  0  0  1  0  0  0  0  0  0
  -26.8750  -30.3330   24.8170 C   0  0  0  0  0  1  0  0  0  0  0  0
  -27.3600  -32.5140   25.8940 C   0  0  0  0  0  1  0  0  0  0  0  0
  1  3  2  0
  2 51  1  0
  2  1  1  0
  4  2  1  0
  5  7  1  0
  6  9  1  0
  6  5  2  0
  7 10  2  0
  7  1  1  0
  8 21  1  0
  8 10  1  0
  9  8  2  0
 10 12  1  0
 11  9  1  0
 13 21  1  0
 14 19  1  0
 15 16  1  0
 15 14  1  0
 17 16  1  0
 17 26  1  0
 17 18  1  0
 19 13  1  0
 19 18  1  0
 20 13  2  0
 21 22  1  0
 23 24  2  0
 24 43  1  0
 25 24  1  0
 25 28  1  0
 26 23  1  0
 26 27  1  0
 27 25  2  0
 28 29  1  0
 29 30  2  0
 31 34  1  0
 31 30  1  0
 32 31  2  0
 33 32  1  0
 33 28  2  0
 34 35  1  0
 35 40  2  0
 35 36  1  0
 36 37  2  0
 37 38  1  0
 38 42  1  0
 39 38  2  0
 40 39  1  0
 41 40  1  0
 43 44  1  0
 44 47  1  0
 44 46  1  0
 45 43  2  0
 48 49  1  0
 48 23  1  0
 50 48  1  0
 51 52  1  0
 52 53  2  0
 54 55  1  0
 54 52  1  0
 56 58  1  0
 56 55  1  0
 57 68  2  0
 58 63  1  0
 59 67  1  0
 59 69  1  0
 60 66  1  0
 60 62  1  0
 61 67  1  0
 62 63  2  0
 62 61  1  0
 64 58  2  0
 65 64  1  0
 65 60  2  0
 66 59  1  0
 67 57  1  0
 69 71  2  0
 70 69  1  0
 72 70  1  0
 73 82  2  0
 73 78  1  0
 74 70  1  0
 74 78  1  0
 75 74  1  0
 76 77  1  0
 76 75  1  0
 77 73  1  0
 78 79  2  0
 79 80  1  0
 81 80  2  0
 82 81  1  0
 83 57  1  0
 83 84  1  0
 83 93  1  0
 84 87  1  0
 85 89  1  0
 85 84  1  0
 86 85  2  0
 89 88  1  0
 91 89  1  0
 91 92  1  0
 91 90  1  0
 93 96  1  1
 93 94  1  0
 95 93  1  0
M  ISO  4  13 100  21 100  55 101  56 101
M  END
>  <TORSDO>  (92) 
F 21

>  <SCORE>  (92) 
-13.113

>  <name>  (92) 
92

>  <ligand_id>  (92) 
92

>  <original_smiles>  (92) 
[H]c1c([H])c([H])c2c(c1[H])C([H])([H])C([H])([H])C([H])([H])C2([H])N([H])C(=O)C1([H])N(C(=O)C([H])(N([H])C(=O)C([H])(N([H])C([H])([H])[H])C([H])([H])[H])C(C([H])([H])[H])(C([H])([H])[H])C([H])([H])[H])C([H])([H])c2c([H])c(OC([H])([H])C([H])([H])C(=O)C([H])([H])N([H])C(=O)c3c([H])c([H])c(F)c(N([H])C(=O)N4C([H])([H])C([H])([H])C([H])([H])C([H])(n5nc(-c6c([H])c([H])c(Oc7c([H])c([H])c(F)c([H])c7F)c([H])c6[H])c(C(=O)N([H])[H])c5N([H])[H])C4([H])[H])c3F)c([H])c([H])c2C1([H])[H]

>  <smiles>  (92) 
[H]c1c([H])c([H])c2c(c1[H])C([H])([H])C([H])([H])C([H])([H])C2([H])N([H])C(=O)C1([H])N(C(=O)C([H])(N([H])C(=O)C([H])(N([H])C([H])([H])[H])C([H])([H])[H])C(C([H])([H])[H])(C([H])([H])[H])C([H])([H])[H])C([H])([H])c2c([H])c(OC([H])([H])C([H])([H])C(=O)C([H])([H])N([H])C(=O)c3c([H])c([H])c(F)c(N([H])C(=O)N4C([H])([H])C([H])([H])C([H])([H])C([H])(n5nc(-c6c([H])c([H])c(Oc7c([H])c([H])c(F)c([H])c7F)c([H])c6[H])c(C(=O)N([H])[H])c5N([H])[H])C4([H])[H])c3F)c([H])c([H])c2C1([H])[H]

$$$$
93:0:0
     RDKit          3D

 96104  0  0  1  0  0  0  0  0999 V2000
  -29.7820  -20.4450   19.5720 C   0  0  0  0  0  0  0  0  0  0  0  0
  -29.2790  -21.5620   20.1590 N   0  0  0  0  0  0  0  0  0  0  0  0
  -29.9460  -20.3950   18.3480 O   0  0  0  0  0  0  0  0  0  0  0  0
  -29.1610  -21.5400   21.1630 H   0  0  0  0  0  0  0  0  0  0  0  0
  -30.7030  -14.5330   20.0960 C   0  0  0  0  0  0  0  0  0  0  0  0
  -30.3690  -12.3880   18.9030 C   0  0  0  0  0  2  0  0  0  0  0  0
  -29.3560  -12.6400   17.7640 C   0  0  0  0  0  2  0  0  0  0  0  0
  -27.9070  -12.4890   18.2760 C   0  0  0  0  0  2  0  0  0  0  0  0
  -27.6530  -13.2700   19.5930 C   0  0  0  0  0  3  0  0  0  0  0  0
  -28.7730  -12.9960   20.6230 C   0  0  0  0  0  2  0  0  0  0  0  0
  -30.0560  -13.3340   19.9870 N   0  0  0  0  0  0  0  0  0  0  0  0
  -31.8230  -14.7260   19.6120 O   0  0  0  0  0  0  0  0  0  0  0  0
  -30.0650  -19.2140   20.4380 C   0  0  0  0  0  0  0  0  0  0  0  0
  -30.5550  -19.1940   21.7380 C   0  0  0  0  0  0  0  0  0  0  0  0
  -30.2500  -16.9180   20.7910 C   0  0  0  0  0  0  0  0  0  0  0  0
  -29.8920  -17.8940   19.9300 N   0  0  0  0  0  0  0  0  0  0  0  0
  -29.9390  -15.5380   20.5890 N   0  0  0  0  0  0  0  0  0  0  0  0
  -30.8140  -17.5580   22.3230 S   0  0  0  0  0  0  0  0  0  0  0  0
  -29.0370  -15.2480   20.9280 H   0  0  0  0  0  0  0  0  0  0  0  0
  -25.3090  -13.8770   20.4570 C   0  0  0  0  0  0  0  0  0  0  0  0
  -24.2550  -13.1060   20.8700 C   0  0  0  0  0  0  0  0  0  0  0  0
  -24.6990  -11.7510   20.7740 C   0  0  0  0  0  0  0  0  0  0  0  0
  -26.3280  -12.9930   20.1400 N   0  0  0  0  0  0  0  0  0  0  0  0
  -25.9680  -11.7070   20.3860 N   0  0  0  0  0  0  0  0  0  0  0  0
  -23.9690  -10.4930   20.9690 C   0  0  0  0  0  0  0  0  0  0  0  0
  -24.4130   -9.5190   21.8900 C   0  0  0  0  0  3  0  0  0  0  0  0
  -23.6870   -8.3240   22.0750 C   0  0  0  0  0  3  0  0  0  0  0  0
  -22.5020   -8.0920   21.3380 C   0  0  0  0  0  0  0  0  0  0  0  0
  -22.0750   -9.0550   20.4050 C   0  0  0  0  0  3  0  0  0  0  0  0
  -22.8020  -10.2420   20.2180 C   0  0  0  0  0  3  0  0  0  0  0  0
  -21.7430   -6.9510   21.4350 O   0  0  0  0  0  0  0  0  0  0  0  0
  -21.6680   -6.2310   22.6000 C   0  0  0  0  0  0  0  0  0  0  0  0
  -21.1680   -6.7960   23.7940 C   0  0  0  0  0  3  0  0  0  0  0  0
  -21.0450   -6.0010   24.9510 C   0  0  0  0  0  3  0  0  0  0  0  0
  -21.4150   -4.6430   24.9140 C   0  0  0  0  0  0  0  0  0  0  0  0
  -21.9050   -4.0770   23.7250 C   0  0  0  0  0  3  0  0  0  0  0  0
  -22.0310   -4.8700   22.5710 C   0  0  0  0  0  0  0  0  0  0  0  0
  -22.4880   -4.3160   21.4220 F   0  0  0  0  0  0  0  0  0  0  0  0
  -21.2870   -3.8770   26.0220 F   0  0  0  0  0  0  0  0  0  0  0  0
  -22.8830  -13.5920   21.2380 C   0  0  0  0  0  0  0  0  0  0  0  0
  -22.1930  -12.8760   22.1190 N   0  0  0  0  0  0  0  0  0  0  0  0
  -22.4340  -14.6410   20.7770 O   0  0  0  0  0  0  0  0  0  0  0  0
  -22.5680  -12.0300   22.5210 H   0  0  0  0  0  0  0  0  0  0  0  0
  -21.2710  -13.1830   22.3960 H   0  0  0  0  0  0  0  0  0  0  0  0
  -25.4750  -15.2510   20.3030 N   0  0  0  0  0  0  0  0  0  0  0  0
  -24.7050  -15.8960   20.4380 H   0  0  0  0  0  0  0  0  0  0  0  0
  -26.2900  -15.6920   19.8920 H   0  0  0  0  0  0  0  0  0  0  0  0
  -30.8680  -20.2380   22.6090 N   0  0  0  0  0  0  0  0  0  0  0  0
  -30.9760  -21.2130   22.3460 H   0  0  0  0  0  0  0  0  0  0  0  0
  -31.1840  -20.0690   23.5620 H   0  0  0  0  0  0  0  0  0  0  0  0
  -27.4410  -22.5520   18.8160 C   0  0  0  0  0  1  0  0  0  0  0  0
  -28.8270  -22.7950   19.4460 C   0  0  0  0  0  3  0  0  0  0  0  0
  -28.8370  -24.1140   20.2980 C   0  0  0  0  0  0  0  0  0  0  0  0
  -28.8980  -24.0950   21.5320 O   0  0  0  0  0  0  0  0  0  0  0  0
  -28.7590  -25.4710   19.5250 C   0  0  0  0  0  2  0  0  0  0  0  0
  -28.5150  -26.6410   20.3570 O   0  0  0  0  0  0  0  0  0  0  0  0
  -24.6190  -31.8900   23.2370 C   0  0  0  0  0  0  0  0  0  0  0  0
  -27.3260  -27.3600   20.2800 C   0  0  0  0  0  0  0  0  0  0  0  0
  -23.4420  -30.4500   21.6060 C   0  0  0  0  0  3  0  0  0  0  0  0
  -24.9210  -28.8860   20.2300 C   0  0  0  0  0  0  0  0  0  0  0  0
  -25.9730  -30.8030   21.4400 C   0  0  0  0  0  2  0  0  0  0  0  0
  -26.0700  -29.4180   20.8260 C   0  0  0  0  0  0  0  0  0  0  0  0
  -27.2690  -28.6610   20.8460 C   0  0  0  0  0  3  0  0  0  0  0  0
  -26.1460  -26.8480   19.6880 C   0  0  0  0  0  3  0  0  0  0  0  0
  -24.9560  -27.6020   19.6600 C   0  0  0  0  0  3  0  0  0  0  0  0
  -23.6720  -29.7390   20.2450 C   0  0  0  0  0  2  0  0  0  0  0  0
  -24.6960  -31.0650   22.1510 N   0  0  0  0  0  0  0  0  0  0  0  0
  -23.5310  -32.1670   23.7560 O   0  0  0  0  0  0  0  0  0  0  0  0
  -22.7780  -29.4490   22.5800 C   0  0  0  0  0  0  0  0  0  0  0  0
  -21.4600  -29.2450   22.4260 N   0  0  0  0  0  0  0  0  0  0  0  0
  -23.4490  -28.8580   23.4300 O   0  0  0  0  0  0  0  0  0  0  0  0
  -20.9800  -29.7700   21.7090 H   0  0  0  0  0  0  0  0  0  0  0  0
  -18.0880  -28.0290   22.8950 C   0  0  0  0  0  0  0  0  0  0  0  0
  -20.6370  -28.3170   23.2040 C   0  0  0  0  0  3  0  0  0  0  0  0
  -20.7640  -26.8760   22.6610 C   0  0  0  0  0  2  0  0  0  0  0  0
  -19.6840  -26.5200   21.6350 C   0  0  0  0  0  2  0  0  0  0  0  0
  -18.2890  -26.6680   22.2490 C   0  0  0  0  0  2  0  0  0  0  0  0
  -19.1910  -28.8100   23.3270 C   0  0  0  0  0  0  0  0  0  0  0  0
  -18.9510  -30.0830   23.8880 C   0  0  0  0  0  3  0  0  0  0  0  0
  -17.6390  -30.5770   24.0180 C   0  0  0  0  0  3  0  0  0  0  0  0
  -16.5490  -29.7920   23.6040 C   0  0  0  0  0  3  0  0  0  0  0  0
  -16.7740  -28.5190   23.0490 C   0  0  0  0  0  3  0  0  0  0  0  0
  -25.8940  -32.5380   23.8630 C   0  0  0  0  0  3  0  0  0  0  0  0
  -26.4160  -31.7760   25.1430 C   0  0  1  0  0  0  0  0  0  0  0  0
  -25.3220  -31.5170   26.2030 C   0  0  0  0  0  1  0  0  0  0  0  0
  -27.0280  -30.4110   24.7540 C   0  0  0  0  0  1  0  0  0  0  0  0
  -27.5490  -32.5900   25.8130 C   0  0  0  0  0  1  0  0  0  0  0  0
  -25.5690  -33.9330   24.1910 N   0  0  0  0  0  0  0  0  0  0  0  0
  -25.8880  -34.9870   23.4280 C   0  0  0  0  0  0  0  0  0  0  0  0
  -26.5590  -34.8890   22.3980 O   0  0  0  0  0  0  0  0  0  0  0  0
  -24.9800  -34.0820   24.9970 H   0  0  0  0  0  0  0  0  0  0  0  0
  -24.1500  -36.7650   23.0500 C   0  0  0  0  0  1  0  0  0  0  0  0
  -25.3810  -36.3700   23.8810 C   0  0  0  0  0  3  0  0  0  0  0  0
  -27.4870  -37.2790   24.7560 C   0  0  0  0  0  1  0  0  0  0  0  0
  -26.4060  -37.4320   23.7850 N   0  0  0  0  0  0  0  0  0  0  0  0
  -25.9880  -38.3490   23.9180 H   0  0  0  0  0  0  0  0  0  0  0  0
  1  2  1  0
  1 13  1  0
  2  4  1  0
  3  1  2  0
  5 17  1  0
  6 11  1  0
  7  8  1  0
  7  6  1  0
  9  8  1  0
  9 23  1  0
  9 10  1  0
 11  5  1  0
 11 10  1  0
 12  5  2  0
 13 14  2  0
 14 18  1  0
 14 48  1  0
 15 18  1  0
 16 13  1  0
 16 15  2  0
 17 15  1  0
 17 19  1  0
 20 21  2  0
 21 40  1  0
 22 21  1  0
 22 25  1  0
 23 24  1  0
 23 20  1  0
 24 22  2  0
 25 26  1  0
 26 27  2  0
 28 31  1  0
 28 27  1  0
 29 28  2  0
 30 29  1  0
 30 25  2  0
 31 32  1  0
 32 33  1  0
 33 34  2  0
 35 34  1  0
 35 39  1  0
 36 35  2  0
 37 32  2  0
 37 36  1  0
 38 37  1  0
 40 41  1  0
 41 44  1  0
 41 43  1  0
 42 40  2  0
 45 46  1  0
 45 20  1  0
 47 45  1  0
 48 50  1  0
 49 48  1  0
 52 51  1  0
 52  2  1  0
 52 53  1  0
 53 54  2  0
 55 53  1  0
 55 56  1  0
 57 68  2  0
 58 56  1  0
 58 63  1  0
 59 67  1  0
 59 69  1  0
 60 66  1  0
 60 62  1  0
 61 67  1  0
 62 63  2  0
 62 61  1  0
 64 58  2  0
 65 64  1  0
 65 60  2  0
 66 59  1  0
 67 57  1  0
 69 71  2  0
 70 69  1  0
 72 70  1  0
 73 82  2  0
 73 78  1  0
 74 70  1  0
 74 78  1  0
 75 74  1  0
 76 77  1  0
 76 75  1  0
 77 73  1  0
 78 79  2  0
 79 80  1  0
 81 80  2  0
 82 81  1  0
 83 57  1  0
 83 88  1  0
 83 84  1  0
 84 87  1  1
 84 85  1  0
 86 84  1  0
 88 91  1  0
 89 93  1  0
 89 88  1  0
 90 89  2  0
 93 92  1  0
 95 93  1  0
 95 96  1  0
 95 94  1  0
M  ISO  4   5 100  17 100  55 101  56 101
M  END
>  <TORSDO>  (93) 
F 20

>  <SCORE>  (93) 
-14.049

>  <name>  (93) 
93

>  <ligand_id>  (93) 
93

>  <original_smiles>  (93) 
[H]c1c([H])c([H])c2c(c1[H])C([H])([H])C([H])([H])C([H])([H])C2([H])N([H])C(=O)C1([H])N(C(=O)C([H])(N([H])C(=O)C([H])(N([H])C([H])([H])[H])C([H])([H])[H])C(C([H])([H])[H])(C([H])([H])[H])C([H])([H])[H])C([H])([H])c2c([H])c(OC([H])([H])C(=O)C([H])(N([H])C(=O)c3nc(N([H])C(=O)N4C([H])([H])C([H])([H])C([H])([H])C([H])(n5nc(-c6c([H])c([H])c(Oc7c([H])c([H])c(F)c([H])c7F)c([H])c6[H])c(C(=O)N([H])[H])c5N([H])[H])C4([H])[H])sc3N([H])[H])C([H])([H])[H])c([H])c([H])c2C1([H])[H]

>  <smiles>  (93) 
[H]c1c([H])c([H])c2c(c1[H])C([H])([H])C([H])([H])C([H])([H])C2([H])N([H])C(=O)C1([H])N(C(=O)C([H])(N([H])C(=O)C([H])(N([H])C([H])([H])[H])C([H])([H])[H])C(C([H])([H])[H])(C([H])([H])[H])C([H])([H])[H])C([H])([H])c2c([H])c(OC([H])([H])C(=O)C([H])(N([H])C(=O)c3nc(N([H])C(=O)N4C([H])([H])C([H])([H])C([H])([H])C([H])(n5nc(-c6c([H])c([H])c(Oc7c([H])c([H])c(F)c([H])c7F)c([H])c6[H])c(C(=O)N([H])[H])c5N([H])[H])C4([H])[H])sc3N([H])[H])C([H])([H])[H])c([H])c([H])c2C1([H])[H]

$$$$
94:0:0
     RDKit          3D

 98106  0  0  1  0  0  0  0  0999 V2000
  -29.0800  -21.5800   19.5760 C   0  0  2  0  0  0  0  0  0  0  0  0
  -27.7640  -21.7600   19.4440 F   0  0  0  0  0  0  0  0  0  0  0  0
  -29.5210  -20.9980   18.4540 F   0  0  0  0  0  0  0  0  0  0  0  0
  -29.3200  -20.5470   20.7390 C   0  0  0  0  0  0  0  0  0  0  0  0
  -29.5830  -19.2110   20.4940 N   0  0  0  0  0  0  0  0  0  0  0  0
  -29.1680  -20.9760   21.8860 O   0  0  0  0  0  0  0  0  0  0  0  0
  -29.5040  -18.9270   19.5260 H   0  0  0  0  0  0  0  0  0  0  0  0
  -30.0740  -16.8400   21.4070 C   0  0  0  0  0  0  0  0  0  0  0  0
  -30.0530  -18.2620   21.3980 C   0  0  0  0  0  0  0  0  0  0  0  0
  -31.1080  -17.1870   23.3980 C   0  0  0  0  0  0  0  0  0  0  0  0
  -30.6310  -16.2770   22.5670 N   0  0  0  0  0  0  0  0  0  0  0  0
  -31.6880  -16.9350   24.5490 F   0  0  0  0  0  0  0  0  0  0  0  0
  -30.9250  -18.8210   22.8420 S   0  0  0  0  0  0  0  0  0  0  0  0
  -30.2110  -14.7870   20.0350 C   0  0  0  0  0  0  0  0  0  0  0  0
  -29.8800  -12.6400   18.8340 C   0  0  0  0  0  2  0  0  0  0  0  0
  -28.8320  -12.7700   17.7130 C   0  0  0  0  0  2  0  0  0  0  0  0
  -27.4190  -12.5340   18.2700 C   0  0  0  0  0  2  0  0  0  0  0  0
  -27.1390  -13.3330   19.5690 C   0  0  0  0  0  3  0  0  0  0  0  0
  -28.3030  -13.2100   20.5780 C   0  0  0  0  0  2  0  0  0  0  0  0
  -29.5290  -13.6120   19.8830 N   0  0  0  0  0  0  0  0  0  0  0  0
  -31.3550  -14.9180   19.5900 O   0  0  0  0  0  0  0  0  0  0  0  0
  -29.5280  -15.8940   20.4640 N   0  0  0  0  0  0  0  0  0  0  0  0
  -28.5220  -15.8490   20.4220 H   0  0  0  0  0  0  0  0  0  0  0  0
  -24.7750  -13.7840   20.4690 C   0  0  0  0  0  0  0  0  0  0  0  0
  -23.7860  -12.9480   20.9050 C   0  0  0  0  0  0  0  0  0  0  0  0
  -24.3280  -11.6260   20.8380 C   0  0  0  0  0  0  0  0  0  0  0  0
  -25.8520  -12.9700   20.1580 N   0  0  0  0  0  0  0  0  0  0  0  0
  -25.5950  -11.6670   20.4450 N   0  0  0  0  0  0  0  0  0  0  0  0
  -23.6960  -10.3200   21.0660 C   0  0  0  0  0  0  0  0  0  0  0  0
  -24.2050   -9.4090   22.0180 C   0  0  0  0  0  3  0  0  0  0  0  0
  -23.5680   -8.1690   22.2340 C   0  0  0  0  0  3  0  0  0  0  0  0
  -22.4070   -7.8290   21.4980 C   0  0  0  0  0  0  0  0  0  0  0  0
  -21.9180   -8.7290   20.5350 C   0  0  0  0  0  3  0  0  0  0  0  0
  -22.5570   -9.9610   20.3170 C   0  0  0  0  0  3  0  0  0  0  0  0
  -21.7380   -6.6350   21.6240 O   0  0  0  0  0  0  0  0  0  0  0  0
  -21.7080   -5.9470   22.8100 C   0  0  0  0  0  0  0  0  0  0  0  0
  -21.1900   -6.5230   23.9920 C   0  0  0  0  0  3  0  0  0  0  0  0
  -21.1140   -5.7550   25.1720 C   0  0  0  0  0  3  0  0  0  0  0  0
  -21.5460   -4.4160   25.1720 C   0  0  0  0  0  0  0  0  0  0  0  0
  -22.0550   -3.8400   23.9950 C   0  0  0  0  0  3  0  0  0  0  0  0
  -22.1330   -4.6030   22.8170 C   0  0  0  0  0  0  0  0  0  0  0  0
  -22.6040   -4.0380   21.6800 F   0  0  0  0  0  0  0  0  0  0  0  0
  -21.4650   -3.6780   26.3040 F   0  0  0  0  0  0  0  0  0  0  0  0
  -22.3840  -13.3340   21.2730 C   0  0  0  0  0  0  0  0  0  0  0  0
  -21.7640  -12.6010   22.1910 N   0  0  0  0  0  0  0  0  0  0  0  0
  -21.8460  -14.3240   20.7800 O   0  0  0  0  0  0  0  0  0  0  0  0
  -22.2140  -11.8020   22.6100 H   0  0  0  0  0  0  0  0  0  0  0  0
  -20.8260  -12.8430   22.4790 H   0  0  0  0  0  0  0  0  0  0  0  0
  -24.8420  -15.1640   20.2810 N   0  0  0  0  0  0  0  0  0  0  0  0
  -24.0430  -15.7660   20.4460 H   0  0  0  0  0  0  0  0  0  0  0  0
  -25.6220  -15.6530   19.8620 H   0  0  0  0  0  0  0  0  0  0  0  0
  -29.7840  -23.0160   19.7050 C   0  0  1  0  0  0  0  0  0  0  0  0
  -30.8990  -22.8720   20.4270 F   0  0  0  0  0  0  0  0  0  0  0  0
  -30.1820  -23.3720   18.4790 F   0  0  0  0  0  0  0  0  0  0  0  0
  -28.9630  -24.2280   20.3010 C   0  0  0  0  0  0  0  0  0  0  0  0
  -28.7300  -24.2790   21.5140 O   0  0  0  0  0  0  0  0  0  0  0  0
  -28.4540  -25.3930   19.3740 C   0  0  0  0  0  2  0  0  0  0  0  0
  -28.3590  -26.7140   20.0350 O   0  0  0  0  0  0  0  0  0  0  0  0
  -24.5620  -31.9610   23.1960 C   0  0  0  0  0  0  0  0  0  0  0  0
  -27.1890  -27.4890   20.0120 C   0  0  0  0  0  0  0  0  0  0  0  0
  -23.3480  -30.5740   21.5540 C   0  0  0  0  0  3  0  0  0  0  0  0
  -24.7910  -29.0580   20.0880 C   0  0  0  0  0  0  0  0  0  0  0  0
  -25.8810  -30.9180   21.3420 C   0  0  0  0  0  2  0  0  0  0  0  0
  -25.9610  -29.5510   20.6750 C   0  0  0  0  0  0  0  0  0  0  0  0
  -27.1550  -28.7740   20.6360 C   0  0  0  0  0  3  0  0  0  0  0  0
  -25.9890  -27.0510   19.4020 C   0  0  0  0  0  3  0  0  0  0  0  0
  -24.8060  -27.8100   19.4490 C   0  0  0  0  0  3  0  0  0  0  0  0
  -23.5480  -29.9240   20.1610 C   0  0  0  0  0  2  0  0  0  0  0  0
  -24.6170  -31.1630   22.0910 N   0  0  0  0  0  0  0  0  0  0  0  0
  -23.4830  -32.2270   23.7460 O   0  0  0  0  0  0  0  0  0  0  0  0
  -22.7100  -29.5340   22.5080 C   0  0  0  0  0  0  0  0  0  0  0  0
  -21.3830  -29.3450   22.4030 N   0  0  0  0  0  0  0  0  0  0  0  0
  -23.4070  -28.8990   23.3030 O   0  0  0  0  0  0  0  0  0  0  0  0
  -20.8730  -29.9150   21.7450 H   0  0  0  0  0  0  0  0  0  0  0  0
  -18.0230  -28.1160   22.9400 C   0  0  0  0  0  0  0  0  0  0  0  0
  -20.5840  -28.3900   23.1760 C   0  0  0  0  0  3  0  0  0  0  0  0
  -20.6870  -26.9640   22.5830 C   0  0  0  0  0  2  0  0  0  0  0  0
  -19.5720  -26.6460   21.5820 C   0  0  0  0  0  2  0  0  0  0  0  0
  -18.1980  -26.7750   22.2460 C   0  0  0  0  0  2  0  0  0  0  0  0
  -19.1430  -28.8800   23.3630 C   0  0  0  0  0  0  0  0  0  0  0  0
  -18.9280  -30.1360   23.9700 C   0  0  0  0  0  3  0  0  0  0  0  0
  -17.6230  -30.6290   24.1600 C   0  0  0  0  0  3  0  0  0  0  0  0
  -16.5170  -29.8610   23.7560 C   0  0  0  0  0  3  0  0  0  0  0  0
  -16.7180  -28.6060   23.1540 C   0  0  0  0  0  3  0  0  0  0  0  0
  -25.8470  -32.5990   23.8040 C   0  0  0  0  0  3  0  0  0  0  0  0
  -25.5350  -33.9960   24.1350 N   0  0  0  0  0  0  0  0  0  0  0  0
  -25.8480  -35.0520   23.3710 C   0  0  0  0  0  0  0  0  0  0  0  0
  -26.5010  -34.9520   22.3280 O   0  0  0  0  0  0  0  0  0  0  0  0
  -24.9670  -34.1500   24.9540 H   0  0  0  0  0  0  0  0  0  0  0  0
  -24.1050  -36.8400   23.0280 C   0  0  0  0  0  1  0  0  0  0  0  0
  -25.3510  -36.4380   23.8330 C   0  0  0  0  0  3  0  0  0  0  0  0
  -27.4900  -37.3330   24.6400 C   0  0  0  0  0  1  0  0  0  0  0  0
  -26.3720  -37.5020   23.7180 N   0  0  0  0  0  0  0  0  0  0  0  0
  -25.9580  -38.4140   23.8880 H   0  0  0  0  0  0  0  0  0  0  0  0
  -26.3810  -31.8330   25.0780 C   0  0  1  0  0  0  0  0  0  0  0  0
  -25.3020  -31.5890   26.1590 C   0  0  0  0  0  1  0  0  0  0  0  0
  -26.9740  -30.4590   24.6830 C   0  0  0  0  0  1  0  0  0  0  0  0
  -27.5320  -32.6370   25.7260 C   0  0  0  0  0  1  0  0  0  0  0  0
  1 52  1  0
  1  4  1  0
  1  2  1  6
  3  1  1  0
  4  6  2  0
  5  4  1  0
  5  9  1  0
  7  5  1  0
  8 11  1  0
  9  8  2  0
  9 13  1  0
 10 12  1  0
 11 10  2  0
 13 10  1  0
 14 22  1  0
 15 20  1  0
 16 17  1  0
 16 15  1  0
 18 17  1  0
 18 27  1  0
 18 19  1  0
 20 14  1  0
 20 19  1  0
 21 14  2  0
 22  8  1  0
 23 22  1  0
 24 25  2  0
 25 44  1  0
 26 25  1  0
 26 29  1  0
 27 28  1  0
 27 24  1  0
 28 26  2  0
 29 30  1  0
 30 31  2  0
 32 35  1  0
 32 31  1  0
 33 32  2  0
 34 33  1  0
 34 29  2  0
 35 36  1  0
 36 41  2  0
 36 37  1  0
 37 38  2  0
 39 38  1  0
 39 43  1  0
 40 39  2  0
 41 40  1  0
 42 41  1  0
 44 45  1  0
 45 48  1  0
 45 47  1  0
 46 44  2  0
 49 50  1  0
 49 24  1  0
 51 49  1  0
 52 55  1  0
 52 53  1  1
 54 52  1  0
 55 56  2  0
 57 58  1  0
 57 55  1  0
 59 70  2  0
 60 58  1  0
 60 65  1  0
 61 69  1  0
 61 71  1  0
 62 68  1  0
 62 64  1  0
 63 69  1  0
 64 63  1  0
 65 64  2  0
 66 67  1  0
 66 60  2  0
 67 62  2  0
 68 61  1  0
 69 59  1  0
 71 73  2  0
 72 71  1  0
 74 72  1  0
 75 84  2  0
 75 80  1  0
 76 72  1  0
 76 80  1  0
 77 76  1  0
 78 79  1  0
 78 77  1  0
 79 75  1  0
 80 81  2  0
 81 82  1  0
 83 82  2  0
 84 83  1  0
 85 59  1  0
 85 86  1  0
 85 95  1  0
 86 89  1  0
 87 91  1  0
 87 86  1  0
 88 87  2  0
 91 90  1  0
 93 91  1  0
 93 94  1  0
 93 92  1  0
 95 98  1  1
 95 96  1  0
 97 95  1  0
M  ISO  4  14 100  22 100  57 101  58 101
M  END
>  <TORSDO>  (94) 
F 21

>  <SCORE>  (94) 
-10.845

>  <name>  (94) 
94

>  <ligand_id>  (94) 
94

>  <original_smiles>  (94) 
[H]c1c([H])c([H])c2c(c1[H])C([H])([H])C([H])([H])C([H])([H])C2([H])N([H])C(=O)C1([H])N(C(=O)C([H])(N([H])C(=O)C([H])(N([H])C([H])([H])[H])C([H])([H])[H])C(C([H])([H])[H])(C([H])([H])[H])C([H])([H])[H])C([H])([H])c2c([H])c(OC([H])([H])C(=O)C(F)(F)C(F)(F)C(=O)N([H])c3sc(F)nc3N([H])C(=O)N3C([H])([H])C([H])([H])C([H])([H])C([H])(n4nc(-c5c([H])c([H])c(Oc6c([H])c([H])c(F)c([H])c6F)c([H])c5[H])c(C(=O)N([H])[H])c4N([H])[H])C3([H])[H])c([H])c([H])c2C1([H])[H]

>  <smiles>  (94) 
[H]c1c([H])c([H])c2c(c1[H])C([H])([H])C([H])([H])C([H])([H])C2([H])N([H])C(=O)C1([H])N(C(=O)C([H])(N([H])C(=O)C([H])(N([H])C([H])([H])[H])C([H])([H])[H])C(C([H])([H])[H])(C([H])([H])[H])C([H])([H])[H])C([H])([H])c2c([H])c(OC([H])([H])C(=O)C(F)(F)C(F)(F)C(=O)N([H])c3sc(F)nc3N([H])C(=O)N3C([H])([H])C([H])([H])C([H])([H])C([H])(n4nc(-c5c([H])c([H])c(Oc6c([H])c([H])c(F)c([H])c6F)c([H])c5[H])c(C(=O)N([H])[H])c4N([H])[H])C3([H])[H])c([H])c([H])c2C1([H])[H]

$$$$
95:0:0
     RDKit          3D

 95103  0  0  1  0  0  0  0  0999 V2000
  -29.2240  -22.8530   19.3300 C   0  0  0  0  0  0  0  0  0  0  0  0
  -29.2210  -21.7230   20.1840 N   0  0  0  0  0  0  0  0  0  0  0  0
  -29.3330  -22.6600   18.1160 O   0  0  0  0  0  0  0  0  0  0  0  0
  -32.3970  -19.6960   19.7580 C   0  0  0  0  0  3  0  0  0  0  0  0
  -32.0290  -18.3440   19.8810 C   0  0  0  0  0  3  0  0  0  0  0  0
  -31.4490  -20.7340   19.8110 C   0  0  0  0  0  3  0  0  0  0  0  0
  -30.6790  -17.9440   20.0220 C   0  0  0  0  0  0  0  0  0  0  0  0
  -30.0700  -20.4820   19.9800 C   0  0  0  0  0  0  0  0  0  0  0  0
  -29.7080  -19.0480   20.0460 C   0  0  0  0  0  0  0  0  0  0  0  0
  -28.4060  -18.6900   20.0930 F   0  0  0  0  0  0  0  0  0  0  0  0
  -31.0800  -15.3070   19.9270 C   0  0  0  0  0  0  0  0  0  0  0  0
  -30.8460  -13.0070   18.9590 C   0  0  0  0  0  2  0  0  0  0  0  0
  -29.8580  -13.0450   17.7740 C   0  0  0  0  0  2  0  0  0  0  0  0
  -28.4130  -12.8530   18.2720 C   0  0  0  0  0  2  0  0  0  0  0  0
  -28.0800  -13.7510   19.4950 C   0  0  0  0  0  3  0  0  0  0  0  0
  -29.1910  -13.7100   20.5680 C   0  0  0  0  0  2  0  0  0  0  0  0
  -30.4460  -14.0790   19.9040 N   0  0  0  0  0  0  0  0  0  0  0  0
  -32.2610  -15.3460   19.5710 O   0  0  0  0  0  0  0  0  0  0  0  0
  -30.3340  -16.4790   20.1380 N   0  0  0  0  0  0  0  0  0  0  0  0
  -29.3680  -16.3080   20.3700 H   0  0  0  0  0  0  0  0  0  0  0  0
  -25.7460  -14.3230   20.3820 C   0  0  0  0  0  0  0  0  0  0  0  0
  -24.6970  -13.5410   20.7800 C   0  0  0  0  0  0  0  0  0  0  0  0
  -25.1460  -12.1900   20.6720 C   0  0  0  0  0  0  0  0  0  0  0  0
  -26.7670  -13.4470   20.0520 N   0  0  0  0  0  0  0  0  0  0  0  0
  -26.4170  -12.1560   20.2900 N   0  0  0  0  0  0  0  0  0  0  0  0
  -24.4190  -10.9260   20.8520 C   0  0  0  0  0  0  0  0  0  0  0  0
  -24.8090   -9.9800   21.8270 C   0  0  0  0  0  3  0  0  0  0  0  0
  -24.0820   -8.7830   21.9930 C   0  0  0  0  0  3  0  0  0  0  0  0
  -22.9500   -8.5200   21.1860 C   0  0  0  0  0  0  0  0  0  0  0  0
  -22.5800   -9.4530   20.2020 C   0  0  0  0  0  3  0  0  0  0  0  0
  -23.3080  -10.6430   20.0330 C   0  0  0  0  0  3  0  0  0  0  0  0
  -22.1980   -7.3720   21.2590 O   0  0  0  0  0  0  0  0  0  0  0  0
  -21.9710   -6.7370   22.4530 C   0  0  0  0  0  0  0  0  0  0  0  0
  -21.2890   -7.3700   23.5160 C   0  0  0  0  0  3  0  0  0  0  0  0
  -21.0140   -6.6570   24.7000 C   0  0  0  0  0  3  0  0  0  0  0  0
  -21.4100   -5.3120   24.8210 C   0  0  0  0  0  0  0  0  0  0  0  0
  -22.0850   -4.6780   23.7620 C   0  0  0  0  0  3  0  0  0  0  0  0
  -22.3600   -5.3880   22.5810 C   0  0  0  0  0  0  0  0  0  0  0  0
  -22.9910   -4.7670   21.5560 F   0  0  0  0  0  0  0  0  0  0  0  0
  -21.1400   -4.6240   25.9560 F   0  0  0  0  0  0  0  0  0  0  0  0
  -23.3210  -14.0170   21.1450 C   0  0  0  0  0  0  0  0  0  0  0  0
  -22.6370  -13.3010   22.0310 N   0  0  0  0  0  0  0  0  0  0  0  0
  -22.8610  -15.0600   20.6800 O   0  0  0  0  0  0  0  0  0  0  0  0
  -23.0220  -12.4580   22.4290 H   0  0  0  0  0  0  0  0  0  0  0  0
  -21.7150  -13.6020   22.3140 H   0  0  0  0  0  0  0  0  0  0  0  0
  -25.9100  -15.6980   20.2500 N   0  0  0  0  0  0  0  0  0  0  0  0
  -25.1520  -16.3470   20.4350 H   0  0  0  0  0  0  0  0  0  0  0  0
  -26.7360  -16.1560   19.8900 H   0  0  0  0  0  0  0  0  0  0  0  0
  -28.4880  -25.3500   19.2150 C   0  0  0  0  0  3  0  0  0  0  0  0
  -29.1340  -24.2940   19.8670 C   0  0  0  0  0  0  0  0  0  0  0  0
  -29.7910  -24.5930   21.0000 O   0  0  0  0  0  0  0  0  0  0  0  0
  -30.2710  -23.8190   21.2640 H   0  0  0  0  0  0  0  0  0  0  0  0
  -28.4830  -26.7500   19.5580 O   0  0  0  0  0  0  0  0  0  0  0  0
  -24.5420  -31.7480   23.0820 C   0  0  0  0  0  0  0  0  0  0  0  0
  -27.3250  -27.5720   19.5760 C   0  0  0  0  0  0  0  0  0  0  0  0
  -23.3730  -30.3990   21.3790 C   0  0  0  0  0  3  0  0  0  0  0  0
  -24.8650  -29.0660   19.7750 C   0  0  0  0  0  0  0  0  0  0  0  0
  -25.8800  -30.8930   21.1340 C   0  0  0  0  0  2  0  0  0  0  0  0
  -26.0250  -29.5710   20.3730 C   0  0  0  0  0  0  0  0  0  0  0  0
  -27.2520  -28.8360   20.2650 C   0  0  0  0  0  3  0  0  0  0  0  0
  -26.1300  -27.1400   18.9540 C   0  0  0  0  0  3  0  0  0  0  0  0
  -24.9230  -27.8620   19.0560 C   0  0  0  0  0  3  0  0  0  0  0  0
  -23.5770  -29.8520   19.9410 C   0  0  0  0  0  2  0  0  0  0  0  0
  -24.6190  -31.0300   21.9220 N   0  0  0  0  0  0  0  0  0  0  0  0
  -23.4630  -31.9050   23.6740 O   0  0  0  0  0  0  0  0  0  0  0  0
  -22.8170  -29.2670   22.2790 C   0  0  0  0  0  0  0  0  0  0  0  0
  -21.5180  -28.9550   22.1320 N   0  0  0  0  0  0  0  0  0  0  0  0
  -23.5560  -28.6760   23.0710 O   0  0  0  0  0  0  0  0  0  0  0  0
  -20.9720  -29.4940   21.4740 H   0  0  0  0  0  0  0  0  0  0  0  0
  -18.3020  -27.3370   22.5040 C   0  0  0  0  0  0  0  0  0  0  0  0
  -20.8040  -27.8940   22.8440 C   0  0  0  0  0  3  0  0  0  0  0  0
  -21.0890  -26.5100   22.2150 C   0  0  0  0  0  2  0  0  0  0  0  0
  -20.0550  -26.1010   21.1610 C   0  0  0  0  0  2  0  0  0  0  0  0
  -18.6540  -26.0490   21.7780 C   0  0  0  0  0  2  0  0  0  0  0  0
  -19.3100  -28.2100   22.9900 C   0  0  0  0  0  0  0  0  0  0  0  0
  -18.9270  -29.4090   23.6270 C   0  0  0  0  0  3  0  0  0  0  0  0
  -17.5670  -29.7400   23.7840 C   0  0  0  0  0  3  0  0  0  0  0  0
  -16.5730  -28.8650   23.3120 C   0  0  0  0  0  3  0  0  0  0  0  0
  -16.9410  -27.6660   22.6770 C   0  0  0  0  0  3  0  0  0  0  0  0
  -25.8000  -32.4230   23.7100 C   0  0  0  0  0  3  0  0  0  0  0  0
  -26.3720  -31.6360   24.9530 C   0  0  1  0  0  0  0  0  0  0  0  0
  -25.3060  -31.3080   26.0250 C   0  0  0  0  0  1  0  0  0  0  0  0
  -27.0180  -30.3040   24.5090 C   0  0  0  0  0  1  0  0  0  0  0  0
  -27.4890  -32.4650   25.6290 C   0  0  0  0  0  1  0  0  0  0  0  0
  -25.4260  -33.7920   24.0950 N   0  0  0  0  0  0  0  0  0  0  0  0
  -25.6740  -34.8860   23.3620 C   0  0  0  0  0  0  0  0  0  0  0  0
  -26.3090  -34.8500   22.3030 O   0  0  0  0  0  0  0  0  0  0  0  0
  -24.8540  -33.8890   24.9200 H   0  0  0  0  0  0  0  0  0  0  0  0
  -23.8320  -36.5860   23.1430 C   0  0  0  0  0  1  0  0  0  0  0  0
  -25.1320  -36.2320   23.8820 C   0  0  0  0  0  3  0  0  0  0  0  0
  -27.2420  -37.2280   24.6500 C   0  0  0  0  0  1  0  0  0  0  0  0
  -26.0970  -37.3450   23.7510 N   0  0  0  0  0  0  0  0  0  0  0  0
  -25.6440  -38.2370   23.9290 H   0  0  0  0  0  0  0  0  0  0  0  0
  -27.1430  -21.0110   21.5010 C   0  0  0  0  0  1  0  0  0  0  0  0
  -28.4480  -21.8170   21.4470 C   0  0  0  0  0  2  0  0  0  0  0  0
  1 50  1  0
  1  2  1  0
  2 95  1  0
  3  1  2  0
  4  6  2  0
  4  5  1  0
  5  7  2  0
  6  8  1  0
  7  9  1  0
  7 19  1  0
  8  9  2  0
  8  2  1  0
  9 10  1  0
 11 19  1  0
 12 17  1  0
 13 14  1  0
 13 12  1  0
 15 14  1  0
 15 24  1  0
 15 16  1  0
 17 11  1  0
 17 16  1  0
 18 11  2  0
 19 20  1  0
 21 22  2  0
 22 41  1  0
 23 22  1  0
 23 26  1  0
 24 25  1  0
 24 21  1  0
 25 23  2  0
 26 27  1  0
 27 28  2  0
 29 32  1  0
 29 28  1  0
 30 29  2  0
 31 30  1  0
 31 26  2  0
 32 33  1  0
 33 38  2  0
 33 34  1  0
 34 35  2  0
 35 36  1  0
 36 40  1  0
 37 36  2  0
 38 37  1  0
 39 38  1  0
 41 42  1  0
 42 45  1  0
 42 44  1  0
 43 41  2  0
 46 21  1  0
 46 47  1  0
 48 46  1  0
 49 53  1  0
 49 50  2  0
 50 51  1  0
 51 52  1  0
 53 55  1  0
 54 65  2  0
 55 60  1  0
 56 64  1  0
 56 66  1  0
 57 63  1  0
 57 59  1  0
 58 64  1  0
 59 58  1  0
 60 59  2  0
 61 62  1  0
 61 55  2  0
 62 57  2  0
 63 56  1  0
 64 54  1  0
 66 68  2  0
 67 66  1  0
 69 67  1  0
 70 79  2  0
 70 75  1  0
 71 67  1  0
 71 75  1  0
 72 71  1  0
 73 74  1  0
 73 72  1  0
 74 70  1  0
 75 76  2  0
 76 77  1  0
 78 77  2  0
 79 78  1  0
 80 54  1  0
 80 85  1  0
 80 81  1  0
 81 84  1  1
 81 82  1  0
 83 81  1  0
 85 88  1  0
 86 90  1  0
 86 85  1  0
 87 86  2  0
 90 89  1  0
 92 90  1  0
 92 93  1  0
 92 91  1  0
 95 94  1  0
M  ISO  4  11 100  19 100  49 101  53 101
M  END
>  <TORSDO>  (95) 
F 20

>  <SCORE>  (95) 
-11.037

>  <name>  (95) 
95

>  <ligand_id>  (95) 
95

>  <original_smiles>  (95) 
[H]OC(C(=O)N(c1c([H])c([H])c([H])c(N([H])C(=O)N2C([H])([H])C([H])([H])C([H])([H])C([H])(n3nc(-c4c([H])c([H])c(Oc5c([H])c([H])c(F)c([H])c5F)c([H])c4[H])c(C(=O)N([H])[H])c3N([H])[H])C2([H])[H])c1F)C([H])([H])C([H])([H])[H])=C([H])Oc1c([H])c([H])c2c(c1[H])C([H])([H])N(C(=O)C([H])(N([H])C(=O)C([H])(N([H])C([H])([H])[H])C([H])([H])[H])C(C([H])([H])[H])(C([H])([H])[H])C([H])([H])[H])C([H])(C(=O)N([H])C1([H])c3c([H])c([H])c([H])c([H])c3C([H])([H])C([H])([H])C1([H])[H])C2([H])[H]

>  <smiles>  (95) 
[H]OC(C(=O)N(c1c([H])c([H])c([H])c(N([H])C(=O)N2C([H])([H])C([H])([H])C([H])([H])C([H])(n3nc(-c4c([H])c([H])c(Oc5c([H])c([H])c(F)c([H])c5F)c([H])c4[H])c(C(=O)N([H])[H])c3N([H])[H])C2([H])[H])c1F)C([H])([H])C([H])([H])[H])=C([H])Oc1c([H])c([H])c2c(c1[H])C([H])([H])N(C(=O)C([H])(N([H])C(=O)C([H])(N([H])C([H])([H])[H])C([H])([H])[H])C(C([H])([H])[H])(C([H])([H])[H])C([H])([H])[H])C([H])(C(=O)N([H])C1([H])c3c([H])c([H])c([H])c([H])c3C([H])([H])C([H])([H])C1([H])[H])C2([H])[H]

$$$$
96:0:0
     RDKit          3D

 96104  0  0  1  0  0  0  0  0999 V2000
  -30.7640  -14.2260   20.1740 C   0  0  0  0  0  0  0  0  0  0  0  0
  -30.7020  -11.7740   19.7370 C   0  0  0  0  0  2  0  0  0  0  0  0
  -29.8460  -11.5010   18.4810 C   0  0  0  0  0  2  0  0  0  0  0  0
  -28.3460  -11.4080   18.8320 C   0  0  0  0  0  2  0  0  0  0  0  0
  -27.8740  -12.5750   19.7370 C   0  0  0  0  0  3  0  0  0  0  0  0
  -28.8420  -12.7620   20.9290 C   0  0  0  0  0  2  0  0  0  0  0  0
  -30.1950  -12.9960   20.3890 N   0  0  0  0  0  0  0  0  0  0  0  0
  -31.8540  -14.3510   19.6040 O   0  0  0  0  0  0  0  0  0  0  0  0
  -28.0320  -16.4310   20.4620 C   0  0  0  0  0  3  0  0  0  0  0  0
  -27.2550  -17.5120   20.0310 C   0  0  0  0  0  0  0  0  0  0  0  0
  -29.3840  -16.3730   20.0910 C   0  0  0  0  0  0  0  0  0  0  0  0
  -29.0670  -18.4130   18.9790 C   0  0  0  0  0  0  0  0  0  0  0  0
  -27.7910  -18.5000   19.2900 N   0  0  0  0  0  0  0  0  0  0  0  0
  -29.8880  -17.4030   19.3300 N   0  0  0  0  0  0  0  0  0  0  0  0
  -30.0810  -15.2720   20.7080 N   0  0  0  0  0  0  0  0  0  0  0  0
  -29.5540  -19.4870   18.2320 N   0  0  0  0  0  0  0  0  0  0  0  0
  -29.5350  -14.9090   21.4700 H   0  0  0  0  0  0  0  0  0  0  0  0
  -30.5380  -19.4470   18.0000 H   0  0  0  0  0  0  0  0  0  0  0  0
  -25.4960  -13.3380   20.3600 C   0  0  0  0  0  0  0  0  0  0  0  0
  -24.3760  -12.6440   20.7240 C   0  0  0  0  0  0  0  0  0  0  0  0
  -24.7510  -11.2660   20.7220 C   0  0  0  0  0  0  0  0  0  0  0  0
  -26.4920  -12.3920   20.1780 N   0  0  0  0  0  0  0  0  0  0  0  0
  -26.0430  -11.1390   20.4470 N   0  0  0  0  0  0  0  0  0  0  0  0
  -23.9390  -10.0560   20.9070 C   0  0  0  0  0  0  0  0  0  0  0  0
  -24.2330   -9.1190   21.9220 C   0  0  0  0  0  3  0  0  0  0  0  0
  -23.4270   -7.9730   22.0920 C   0  0  0  0  0  3  0  0  0  0  0  0
  -22.3150   -7.7560   21.2450 C   0  0  0  0  0  0  0  0  0  0  0  0
  -22.0400   -8.6800   20.2220 C   0  0  0  0  0  3  0  0  0  0  0  0
  -22.8460   -9.8190   20.0500 C   0  0  0  0  0  3  0  0  0  0  0  0
  -21.4930   -6.6570   21.3190 O   0  0  0  0  0  0  0  0  0  0  0  0
  -21.0210   -6.1900   22.5200 C   0  0  0  0  0  0  0  0  0  0  0  0
  -20.2930   -7.0150   23.4060 C   0  0  0  0  0  3  0  0  0  0  0  0
  -19.7680   -6.4760   24.5970 C   0  0  0  0  0  3  0  0  0  0  0  0
  -19.9620   -5.1150   24.9000 C   0  0  0  0  0  0  0  0  0  0  0  0
  -20.6830   -4.2920   24.0170 C   0  0  0  0  0  3  0  0  0  0  0  0
  -21.2090   -4.8280   22.8300 C   0  0  0  0  0  0  0  0  0  0  0  0
  -21.8850   -4.0260   21.9720 F   0  0  0  0  0  0  0  0  0  0  0  0
  -19.4520   -4.5950   26.0410 F   0  0  0  0  0  0  0  0  0  0  0  0
  -23.0070  -13.2170   20.9550 C   0  0  0  0  0  0  0  0  0  0  0  0
  -22.2350  -12.6210   21.8570 N   0  0  0  0  0  0  0  0  0  0  0  0
  -22.6310  -14.2310   20.3690 O   0  0  0  0  0  0  0  0  0  0  0  0
  -22.5490  -11.8030   22.3590 H   0  0  0  0  0  0  0  0  0  0  0  0
  -21.3140  -12.9910   22.0490 H   0  0  0  0  0  0  0  0  0  0  0  0
  -25.7400  -14.6880   20.1420 N   0  0  0  0  0  0  0  0  0  0  0  0
  -24.9540  -15.3240   20.0650 H   0  0  0  0  0  0  0  0  0  0  0  0
  -26.5620  -15.0130   19.6500 H   0  0  0  0  0  0  0  0  0  0  0  0
  -25.8140  -17.6190   20.3570 C   0  0  0  0  0  2  0  0  0  0  0  0
  -24.9830  -18.2200   19.6120 N   0  0  0  0  0  2  0  0  0  0  0  0
  -25.5280  -18.5590   18.8220 H   0  0  0  0  0  0  0  0  0  0  0  0
  -28.9140  -20.8410   18.2140 C   0  0  0  0  0  2  0  0  0  0  0  0
  -29.2920  -21.8180   17.0570 C   0  0  0  0  0  0  0  0  0  0  0  0
  -30.0750  -21.4470   16.1730 O   0  0  0  0  0  0  0  0  0  0  0  0
  -28.6510  -23.2760   17.0160 C   0  0  0  0  0  0  0  0  0  0  0  0
  -27.6050  -23.5160   17.6320 O   0  0  0  0  0  0  0  0  0  0  0  0
  -29.3350  -24.3930   16.1610 C   0  0  0  0  0  2  0  0  0  0  0  0
  -29.4020  -25.7070   16.8010 O   0  0  0  0  0  0  0  0  0  0  0  0
  -25.6000  -28.4520   22.1920 C   0  0  0  0  0  0  0  0  0  0  0  0
  -28.2680  -26.4330   17.1520 C   0  0  0  0  0  0  0  0  0  0  0  0
  -24.4700  -28.4140   19.9890 C   0  0  0  0  0  3  0  0  0  0  0  0
  -25.9620  -27.8810   17.9850 C   0  0  0  0  0  0  0  0  0  0  0  0
  -27.0220  -28.5720   20.1420 C   0  0  0  0  0  2  0  0  0  0  0  0
  -27.0930  -27.8430   18.8090 C   0  0  0  0  0  0  0  0  0  0  0  0
  -28.2440  -27.1260   18.3940 C   0  0  0  0  0  3  0  0  0  0  0  0
  -27.1130  -26.4940   16.3400 C   0  0  0  0  0  3  0  0  0  0  0  0
  -25.9680  -27.2050   16.7520 C   0  0  0  0  0  3  0  0  0  0  0  0
  -24.7680  -28.6590   18.4850 C   0  0  0  0  0  2  0  0  0  0  0  0
  -25.7100  -28.4580   20.8310 N   0  0  0  0  0  0  0  0  0  0  0  0
  -24.4930  -28.4500   22.7460 O   0  0  0  0  0  0  0  0  0  0  0  0
  -23.6820  -27.0910   20.1310 C   0  0  0  0  0  0  0  0  0  0  0  0
  -22.3430  -27.1780   20.0960 N   0  0  0  0  0  0  0  0  0  0  0  0
  -24.2750  -26.0130   20.2420 O   0  0  0  0  0  0  0  0  0  0  0  0
  -21.9310  -28.0970   20.0110 H   0  0  0  0  0  0  0  0  0  0  0  0
  -18.8390  -26.3150   20.3130 C   0  0  0  0  0  0  0  0  0  0  0  0
  -21.4070  -26.0550   20.1660 C   0  0  0  0  0  3  0  0  0  0  0  0
  -21.1620  -25.4460   18.7650 C   0  0  0  0  0  2  0  0  0  0  0  0
  -19.9440  -26.0440   18.0530 C   0  0  0  0  0  2  0  0  0  0  0  0
  -18.6760  -25.8270   18.8840 C   0  0  0  0  0  2  0  0  0  0  0  0
  -20.1220  -26.4350   20.9100 C   0  0  0  0  0  0  0  0  0  0  0  0
  -20.2190  -26.9250   22.2310 C   0  0  0  0  0  3  0  0  0  0  0  0
  -19.0670  -27.2900   22.9510 C   0  0  0  0  0  3  0  0  0  0  0  0
  -17.7980  -27.1560   22.3600 C   0  0  0  0  0  3  0  0  0  0  0  0
  -17.6860  -26.6630   21.0480 C   0  0  0  0  0  3  0  0  0  0  0  0
  -26.8600  -28.4740   23.1130 C   0  0  0  0  0  3  0  0  0  0  0  0
  -27.4170  -27.0330   23.4410 C   0  0  1  0  0  0  0  0  0  0  0  0
  -26.3400  -26.0560   23.9670 C   0  0  0  0  0  1  0  0  0  0  0  0
  -28.0590  -26.3920   22.1880 C   0  0  0  0  0  1  0  0  0  0  0  0
  -28.5330  -27.1310   24.5070 C   0  0  0  0  0  1  0  0  0  0  0  0
  -26.4930  -29.1790   24.3490 N   0  0  0  0  0  0  0  0  0  0  0  0
  -26.8830  -30.4240   24.6590 C   0  0  0  0  0  0  0  0  0  0  0  0
  -27.6580  -31.0770   23.9540 O   0  0  0  0  0  0  0  0  0  0  0  0
  -25.8180  -28.7250   24.9450 H   0  0  0  0  0  0  0  0  0  0  0  0
  -25.2290  -32.0610   25.6120 C   0  0  0  0  0  1  0  0  0  0  0  0
  -26.3250  -31.0400   25.9550 C   0  0  0  0  0  3  0  0  0  0  0  0
  -28.2890  -30.7380   27.3970 C   0  0  0  0  0  1  0  0  0  0  0  0
  -27.3580  -31.6870   26.7920 N   0  0  0  0  0  0  0  0  0  0  0  0
  -26.9290  -32.2290   27.5370 H   0  0  0  0  0  0  0  0  0  0  0  0
  1  7  1  0
  1 15  1  0
  2  7  1  0
  3  4  1  0
  3  2  1  0
  5  4  1  0
  5 22  1  0
  5  6  1  0
  7  6  1  0
  8  1  2  0
 10 47  1  0
 10  9  2  0
 11  9  1  0
 11 15  1  0
 12 13  2  0
 12 14  1  0
 13 10  1  0
 14 11  2  0
 15 17  1  0
 16 12  1  0
 18 16  1  0
 19 20  2  0
 20 39  1  0
 21 20  1  0
 21 24  1  0
 22 19  1  0
 22 23  1  0
 23 21  2  0
 24 25  1  0
 25 26  2  0
 27 30  1  0
 27 26  1  0
 28 27  2  0
 29 28  1  0
 29 24  2  0
 30 31  1  0
 31 36  2  0
 31 32  1  0
 32 33  2  0
 33 34  1  0
 34 38  1  0
 35 34  2  0
 36 35  1  0
 37 36  1  0
 39 40  1  0
 40 43  1  0
 40 42  1  0
 41 39  2  0
 44 19  1  0
 45 44  1  0
 46 44  1  0
 48 47  1  0
 49 48  1  0
 50 16  1  0
 51 50  1  0
 52 51  2  0
 53 51  1  0
 53 54  2  0
 55 56  1  0
 55 53  1  0
 56 58  1  0
 57 68  2  0
 58 63  1  0
 59 69  1  0
 59 67  1  0
 60 66  1  0
 60 62  1  0
 61 67  1  0
 62 61  1  0
 63 62  2  0
 64 65  1  0
 64 58  2  0
 65 60  2  0
 66 59  1  0
 67 57  1  0
 69 71  2  0
 70 69  1  0
 72 70  1  0
 73 78  2  0
 73 82  1  0
 74 70  1  0
 74 78  1  0
 75 74  1  0
 76 75  1  0
 76 77  1  0
 77 73  1  0
 78 79  1  0
 79 80  2  0
 81 80  1  0
 82 81  2  0
 83 57  1  0
 83 84  1  0
 83 88  1  0
 84 85  1  1
 84 87  1  0
 86 84  1  0
 88 89  1  0
 88 91  1  0
 89 93  1  0
 90 89  2  0
 93 92  1  0
 93 95  1  0
 95 94  1  0
 95 96  1  0
M  ISO  4   1 100  15 100  55 101  56 101
M  END
>  <TORSDO>  (96) 
F 20

>  <SCORE>  (96) 
-9.007

>  <name>  (96) 
96

>  <ligand_id>  (96) 
96

>  <original_smiles>  (96) 
[H]N=C([H])c1nc(N([H])C([H])([H])C(=O)C(=O)C([H])([H])Oc2c([H])c([H])c3c(c2[H])C([H])([H])N(C(=O)C([H])(N([H])C(=O)C([H])(N([H])C([H])([H])[H])C([H])([H])[H])C(C([H])([H])[H])(C([H])([H])[H])C([H])([H])[H])C([H])(C(=O)N([H])C2([H])c4c([H])c([H])c([H])c([H])c4C([H])([H])C([H])([H])C2([H])[H])C3([H])[H])nc(N([H])C(=O)N2C([H])([H])C([H])([H])C([H])([H])C([H])(n3nc(-c4c([H])c([H])c(Oc5c([H])c([H])c(F)c([H])c5F)c([H])c4[H])c(C(=O)N([H])[H])c3N([H])[H])C2([H])[H])c1[H]

>  <smiles>  (96) 
[H]N=C([H])c1nc(N([H])C([H])([H])C(=O)C(=O)C([H])([H])Oc2c([H])c([H])c3c(c2[H])C([H])([H])N(C(=O)C([H])(N([H])C(=O)C([H])(N([H])C([H])([H])[H])C([H])([H])[H])C(C([H])([H])[H])(C([H])([H])[H])C([H])([H])[H])C([H])(C(=O)N([H])C2([H])c4c([H])c([H])c([H])c([H])c4C([H])([H])C([H])([H])C2([H])[H])C3([H])[H])nc(N([H])C(=O)N2C([H])([H])C([H])([H])C([H])([H])C([H])(n3nc(-c4c([H])c([H])c(Oc5c([H])c([H])c(F)c([H])c5F)c([H])c4[H])c(C(=O)N([H])[H])c3N([H])[H])C2([H])[H])c1[H]

$$$$
97:0:0
     RDKit          3D

 95103  0  0  1  0  0  0  0  0999 V2000
  -30.9960  -19.5910   19.6650 C   0  0  0  0  0  3  0  0  0  0  0  0
  -30.5180  -20.9320   19.6710 C   0  0  0  0  0  3  0  0  0  0  0  0
  -30.1900  -18.4640   20.0150 C   0  0  0  0  0  0  0  0  0  0  0  0
  -29.1820  -21.2290   20.0280 C   0  0  0  0  0  0  0  0  0  0  0  0
  -28.8390  -18.7570   20.3360 C   0  0  0  0  0  0  0  0  0  0  0  0
  -28.3570  -20.1090   20.3400 C   0  0  0  0  0  0  0  0  0  0  0  0
  -28.0040  -17.7560   20.7020 F   0  0  0  0  0  0  0  0  0  0  0  0
  -27.0660  -20.3400   20.6900 F   0  0  0  0  0  0  0  0  0  0  0  0
  -30.8980  -14.6550   19.9560 C   0  0  0  0  0  0  0  0  0  0  0  0
  -30.5170  -12.3770   19.0270 C   0  0  0  0  0  2  0  0  0  0  0  0
  -29.5380  -12.4480   17.8370 C   0  0  0  0  0  2  0  0  0  0  0  0
  -28.0900  -12.3260   18.3440 C   0  0  0  0  0  2  0  0  0  0  0  0
  -27.7910  -13.2750   19.5380 C   0  0  0  0  0  3  0  0  0  0  0  0
  -28.8990  -13.2130   20.6140 C   0  0  0  0  0  2  0  0  0  0  0  0
  -30.1730  -13.4890   19.9410 N   0  0  0  0  0  0  0  0  0  0  0  0
  -32.0660  -14.6160   19.5620 O   0  0  0  0  0  0  0  0  0  0  0  0
  -30.8850  -17.0970   20.2240 C   0  0  0  0  0  0  0  0  0  0  0  0
  -30.2590  -15.8630   20.1750 N   0  0  0  0  0  0  0  0  0  0  0  0
  -32.1020  -17.1900   20.4150 O   0  0  0  0  0  0  0  0  0  0  0  0
  -29.2560  -15.8510   20.2460 H   0  0  0  0  0  0  0  0  0  0  0  0
  -25.4770  -13.9370   20.4220 C   0  0  0  0  0  0  0  0  0  0  0  0
  -24.4040  -13.1940   20.8310 C   0  0  0  0  0  0  0  0  0  0  0  0
  -24.8110  -11.8280   20.7370 C   0  0  0  0  0  0  0  0  0  0  0  0
  -26.4690  -13.0260   20.1000 N   0  0  0  0  0  0  0  0  0  0  0  0
  -26.0790  -11.7500   20.3530 N   0  0  0  0  0  0  0  0  0  0  0  0
  -24.0460  -10.5900   20.9330 C   0  0  0  0  0  0  0  0  0  0  0  0
  -24.4870   -9.5810   21.8180 C   0  0  0  0  0  3  0  0  0  0  0  0
  -23.7250   -8.4080   22.0030 C   0  0  0  0  0  3  0  0  0  0  0  0
  -22.5060   -8.2350   21.3060 C   0  0  0  0  0  0  0  0  0  0  0  0
  -22.0820   -9.2300   20.4080 C   0  0  0  0  0  3  0  0  0  0  0  0
  -22.8450  -10.3950   20.2200 C   0  0  0  0  0  3  0  0  0  0  0  0
  -21.7120   -7.1170   21.4040 O   0  0  0  0  0  0  0  0  0  0  0  0
  -21.7010   -6.3410   22.5350 C   0  0  0  0  0  0  0  0  0  0  0  0
  -21.3640   -6.8710   23.7990 C   0  0  0  0  0  3  0  0  0  0  0  0
  -21.2970   -6.0230   24.9230 C   0  0  0  0  0  3  0  0  0  0  0  0
  -21.5580   -4.6460   24.7840 C   0  0  0  0  0  0  0  0  0  0  0  0
  -21.8890   -4.1150   23.5240 C   0  0  0  0  0  3  0  0  0  0  0  0
  -21.9570   -4.9610   22.4020 C   0  0  0  0  0  0  0  0  0  0  0  0
  -22.2560   -4.4430   21.1880 F   0  0  0  0  0  0  0  0  0  0  0  0
  -21.4850   -3.8300   25.8600 F   0  0  0  0  0  0  0  0  0  0  0  0
  -23.0460  -13.7160   21.1960 C   0  0  0  0  0  0  0  0  0  0  0  0
  -22.3460  -13.0280   22.0900 N   0  0  0  0  0  0  0  0  0  0  0  0
  -22.6170  -14.7700   20.7230 O   0  0  0  0  0  0  0  0  0  0  0  0
  -22.7070  -12.1750   22.4920 H   0  0  0  0  0  0  0  0  0  0  0  0
  -21.4350  -13.3570   22.3790 H   0  0  0  0  0  0  0  0  0  0  0  0
  -25.6850  -15.3040   20.2740 N   0  0  0  0  0  0  0  0  0  0  0  0
  -24.9530  -15.9830   20.4570 H   0  0  0  0  0  0  0  0  0  0  0  0
  -26.5260  -15.7260   19.9010 H   0  0  0  0  0  0  0  0  0  0  0  0
  -29.0470  -23.8550   19.9150 C   0  0  0  0  0  0  0  0  0  0  0  0
  -28.6110  -22.5730   20.1530 N   0  0  0  0  0  0  0  0  0  0  0  0
  -30.1060  -24.1000   19.3280 O   0  0  0  0  0  0  0  0  0  0  0  0
  -27.6830  -22.5680   20.5520 H   0  0  0  0  0  0  0  0  0  0  0  0
  -26.6840  -24.5220   20.6530 C   0  0  0  0  0  1  0  0  0  0  0  0
  -28.1320  -25.0500   20.4410 C   0  0  0  0  0  3  0  0  0  0  0  0
  -28.2850  -26.3790   19.7570 O   0  0  0  0  0  0  0  0  0  0  0  0
  -24.5170  -31.6450   23.0290 C   0  0  0  0  0  0  0  0  0  0  0  0
  -27.1970  -27.2670   19.7670 C   0  0  0  0  0  0  0  0  0  0  0  0
  -23.3420  -30.3000   21.3300 C   0  0  0  0  0  3  0  0  0  0  0  0
  -24.8180  -28.8500   19.8270 C   0  0  0  0  0  0  0  0  0  0  0  0
  -25.8780  -30.6620   21.1700 C   0  0  0  0  0  2  0  0  0  0  0  0
  -25.9790  -29.3180   20.4580 C   0  0  0  0  0  0  0  0  0  0  0  0
  -27.1720  -28.5360   20.4310 C   0  0  0  0  0  3  0  0  0  0  0  0
  -26.0350  -26.8910   19.0640 C   0  0  0  0  0  3  0  0  0  0  0  0
  -24.8480  -27.6400   19.1220 C   0  0  0  0  0  3  0  0  0  0  0  0
  -23.5670  -29.6970   19.9190 C   0  0  0  0  0  2  0  0  0  0  0  0
  -24.5980  -30.8840   21.8990 N   0  0  0  0  0  0  0  0  0  0  0  0
  -23.4280  -31.8830   23.5710 O   0  0  0  0  0  0  0  0  0  0  0  0
  -22.6920  -29.2290   22.2390 C   0  0  0  0  0  0  0  0  0  0  0  0
  -21.3640  -29.0640   22.1270 N   0  0  0  0  0  0  0  0  0  0  0  0
  -23.3830  -28.5560   23.0100 O   0  0  0  0  0  0  0  0  0  0  0  0
  -20.8660  -29.6540   21.4760 H   0  0  0  0  0  0  0  0  0  0  0  0
  -17.9860  -27.8860   22.6560 C   0  0  0  0  0  0  0  0  0  0  0  0
  -20.5550  -28.0890   22.8600 C   0  0  0  0  0  3  0  0  0  0  0  0
  -20.6170  -26.7000   22.1850 C   0  0  0  0  0  2  0  0  0  0  0  0
  -19.4780  -26.4620   21.1890 C   0  0  0  0  0  2  0  0  0  0  0  0
  -18.1200  -26.5810   21.8860 C   0  0  0  0  0  2  0  0  0  0  0  0
  -19.1300  -28.6000   23.0990 C   0  0  0  0  0  0  0  0  0  0  0  0
  -18.9510  -29.8210   23.7860 C   0  0  0  0  0  3  0  0  0  0  0  0
  -17.6600  -30.3270   24.0310 C   0  0  0  0  0  3  0  0  0  0  0  0
  -16.5310  -29.6070   23.6040 C   0  0  0  0  0  3  0  0  0  0  0  0
  -16.6950  -28.3880   22.9220 C   0  0  0  0  0  3  0  0  0  0  0  0
  -25.7890  -32.2720   23.6810 C   0  0  0  0  0  3  0  0  0  0  0  0
  -25.4590  -33.6530   24.0630 N   0  0  0  0  0  0  0  0  0  0  0  0
  -25.7780  -34.7380   23.3450 C   0  0  0  0  0  0  0  0  0  0  0  0
  -26.4510  -34.6820   22.3130 O   0  0  0  0  0  0  0  0  0  0  0  0
  -24.8590  -33.7700   24.8650 H   0  0  0  0  0  0  0  0  0  0  0  0
  -24.0180  -36.5120   23.0630 C   0  0  0  0  0  1  0  0  0  0  0  0
  -25.2710  -36.1030   23.8530 C   0  0  0  0  0  3  0  0  0  0  0  0
  -27.3910  -36.9950   24.7070 C   0  0  0  0  0  1  0  0  0  0  0  0
  -26.2840  -37.1770   23.7700 N   0  0  0  0  0  0  0  0  0  0  0  0
  -25.8640  -38.0850   23.9480 H   0  0  0  0  0  0  0  0  0  0  0  0
  -26.3090  -31.4610   24.9310 C   0  0  1  0  0  0  0  0  0  0  0  0
  -25.2140  -31.1750   25.9840 C   0  0  0  0  0  1  0  0  0  0  0  0
  -26.9080  -30.1040   24.4960 C   0  0  0  0  0  1  0  0  0  0  0  0
  -27.4490  -32.2430   25.6240 C   0  0  0  0  0  1  0  0  0  0  0  0
  1  2  2  0
  1  3  1  0
  2  4  1  0
  3 17  1  0
  3  5  2  0
  4 50  1  0
  4  6  2  0
  5  6  1  0
  5  7  1  0
  6  8  1  0
  9 18  1  0
 10 15  1  0
 11 12  1  0
 11 10  1  0
 13 12  1  0
 13 24  1  0
 13 14  1  0
 15  9  1  0
 15 14  1  0
 16  9  2  0
 17 19  2  0
 18 17  1  0
 18 20  1  0
 21 22  2  0
 22 41  1  0
 23 22  1  0
 23 26  1  0
 24 25  1  0
 24 21  1  0
 25 23  2  0
 26 27  1  0
 27 28  2  0
 29 32  1  0
 29 28  1  0
 30 29  2  0
 31 30  1  0
 31 26  2  0
 32 33  1  0
 33 34  1  0
 34 35  2  0
 36 35  1  0
 36 40  1  0
 37 36  2  0
 38 33  2  0
 38 37  1  0
 39 38  1  0
 41 42  1  0
 42 45  1  0
 42 44  1  0
 43 41  2  0
 46 21  1  0
 46 47  1  0
 48 46  1  0
 49 50  1  0
 49 54  1  0
 50 52  1  0
 51 49  2  0
 54 53  1  0
 55 57  1  0
 55 54  1  0
 56 67  2  0
 57 62  1  0
 58 66  1  0
 58 68  1  0
 59 65  1  0
 59 61  1  0
 60 66  1  0
 61 60  1  0
 62 61  2  0
 63 64  1  0
 63 57  2  0
 64 59  2  0
 65 58  1  0
 66 56  1  0
 68 70  2  0
 69 68  1  0
 71 69  1  0
 72 81  2  0
 72 77  1  0
 73 69  1  0
 73 77  1  0
 74 73  1  0
 75 76  1  0
 75 74  1  0
 76 72  1  0
 77 78  2  0
 78 79  1  0
 80 79  2  0
 81 80  1  0
 82 56  1  0
 82 83  1  0
 82 92  1  0
 83 86  1  0
 84 88  1  0
 84 83  1  0
 85 84  2  0
 88 87  1  0
 90 88  1  0
 90 91  1  0
 90 89  1  0
 92 95  1  1
 92 93  1  0
 94 92  1  0
M  ISO  4   9 100  18 100  54 101  55 101
M  END
>  <TORSDO>  (97) 
F 18

>  <SCORE>  (97) 
-14.106

>  <name>  (97) 
97

>  <ligand_id>  (97) 
97

>  <original_smiles>  (97) 
[H]c1c([H])c([H])c2c(c1[H])C([H])([H])C([H])([H])C([H])([H])C2([H])N([H])C(=O)C1([H])N(C(=O)C([H])(N([H])C(=O)C([H])(N([H])C([H])([H])[H])C([H])([H])[H])C(C([H])([H])[H])(C([H])([H])[H])C([H])([H])[H])C([H])([H])c2c([H])c(OC([H])(C(=O)N([H])c3c([H])c([H])c(C(=O)N([H])C(=O)N4C([H])([H])C([H])([H])C([H])([H])C([H])(n5nc(-c6c([H])c([H])c(Oc7c([H])c([H])c(F)c([H])c7F)c([H])c6[H])c(C(=O)N([H])[H])c5N([H])[H])C4([H])[H])c(F)c3F)C([H])([H])[H])c([H])c([H])c2C1([H])[H]

>  <smiles>  (97) 
[H]c1c([H])c([H])c2c(c1[H])C([H])([H])C([H])([H])C([H])([H])C2([H])N([H])C(=O)C1([H])N(C(=O)C([H])(N([H])C(=O)C([H])(N([H])C([H])([H])[H])C([H])([H])[H])C(C([H])([H])[H])(C([H])([H])[H])C([H])([H])[H])C([H])([H])c2c([H])c(OC([H])(C(=O)N([H])c3c([H])c([H])c(C(=O)N([H])C(=O)N4C([H])([H])C([H])([H])C([H])([H])C([H])(n5nc(-c6c([H])c([H])c(Oc7c([H])c([H])c(F)c([H])c7F)c([H])c6[H])c(C(=O)N([H])[H])c5N([H])[H])C4([H])[H])c(F)c3F)C([H])([H])[H])c([H])c([H])c2C1([H])[H]

$$$$
