0:0:0
     RDKit          3D

 97 90  0  0  1  0  0  0  0  0999 V2000
  -25.3360  -15.2960   22.1730 N   0  0  0  0  0  2  0  0  0  0  0  0
  -24.3870  -15.4570   21.8580 H   0  0  0  0  0  0  0  0  0  0  0  0
  -25.1040  -11.3300   19.1800 C   0  0  0  0  0  1  0  0  0  0  0  0
  -27.0550  -12.1470   18.8670 C   0  0  0  0  0 15  0  0  0  0  0  0
  -27.1510  -13.9440   21.9840 C   0  0  0  0  0 15  0  0  0  0  0  0
  -23.9900  -11.5590   21.3770 C   0  0  0  0  0  1  0  0  0  0  0  0
  -28.0890  -13.4650   20.2750 C   0  0  0  0  0  1  0  0  0  0  0  0
  -25.3060  -13.4610   22.5120 C   0  0  0  0  0  1  0  0  0  0  0  0
  -30.6480  -13.0550   21.3000 C   0  0  0  0  0  0  0  0  0  0  0  0
  -31.2960  -10.7660   20.7440 C   0  0  0  0  0  2  0  0  0  0  0  0
  -30.6070  -10.5380   19.3690 C   0  0  0  0  0  2  0  0  0  0  0  0
  -29.0670  -10.1820   19.5780 C   0  0  0  0  0  2  0  0  0  0  0  0
  -28.4560  -11.0600   20.6940 C   0  0  0  0  0  3  0  0  0  0  0  0
  -29.2750  -11.1910   21.9790 C   0  0  0  0  0  2  0  0  0  0  0  0
  -30.5060  -11.7360   21.5210 N   0  0  0  0  0  0  0  0  0  0  0  0
  -31.7870  -13.5060   21.5640 O   0  0  0  0  0  0  0  0  0  0  0  0
  -29.6170  -13.6970   20.4970 N   0  0  0  0  0  0  0  0  0  0  0  0
  -29.9410  -14.5800   20.1300 H   0  0  0  0  0  0  0  0  0  0  0  0
  -25.7480  -13.2570   20.0260 C   0  0  0  0  0  2  0  0  0  0  0  0
  -24.9280  -12.9570   20.2540 C   0  0  0  0  0  3  0  0  0  0  0  0
  -26.2040  -11.3180   20.9240 C   0  0  0  0  0  3  0  0  0  0  0  0
  -26.8420  -11.6630   20.8540 N   0  0  0  0  0  2  0  0  0  0  0  0
  -26.6970  -11.1040   22.0160 N   0  0  0  0  0  1  0  0  0  0  0  0
  -25.7070   -9.5310   20.9480 C   0  0  0  0  0  1  0  0  0  0  0  0
  -25.6260   -8.8560   22.8890 C   0  0  0  0  0 15  0  0  0  0  0  0
  -24.0680   -7.7390   23.4650 C   0  0  0  0  0  1  0  0  0  0  0  0
  -22.6640   -7.2540   22.2000 C   0  0  0  0  0  3  0  0  0  0  0  0
  -22.6620   -7.8770   20.4260 C   0  0  0  0  0  2  0  0  0  0  0  0
  -24.1080   -8.9070   19.7110 C   0  0  0  0  0  1  0  0  0  0  0  0
  -22.0300   -6.0070   22.1590 O   0  0  0  0  0  0  0  0  0  0  0  0
  -21.9190   -5.1860   23.2460 C   0  0  0  0  0  0  0  0  0  0  0  0
  -21.3340   -5.7410   24.3950 C   0  0  0  0  0  3  0  0  0  0  0  0
  -21.0940   -4.9490   25.5220 C   0  0  0  0  0  3  0  0  0  0  0  0
  -21.4320   -3.5880   25.5120 C   0  0  0  0  0  0  0  0  0  0  0  0
  -22.0070   -3.0090   24.3660 C   0  0  0  0  0  3  0  0  0  0  0  0
  -22.2490   -3.7980   23.2240 C   0  0  0  0  0  0  0  0  0  0  0  0
  -22.7710   -3.1990   22.1220 F   0  0  0  0  0  0  0  0  0  0  0  0
  -21.1940   -2.8410   26.6140 F   0  0  0  0  0  0  0  0  0  0  0  0
  -23.3420  -13.3420   20.1170 C   0  0  0  0  0  0  0  0  0  0  0  0
  -22.3690  -12.9730   21.0180 N   0  0  0  0  0  0  0  0  0  0  0  0
  -22.9380  -13.8610   19.1300 O   0  0  0  0  0  0  0  0  0  0  0  0
  -22.6090  -12.5480   21.9000 H   0  0  0  0  0  0  0  0  0  0  0  0
  -21.4080  -13.2290   20.8440 H   0  0  0  0  0  0  0  0  0  0  0  0
  -25.8580  -14.4540   19.2820 N   0  0  0  0  0  0  0  0  0  0  0  0
  -25.0520  -14.9560   18.9370 H   0  0  0  0  0  0  0  0  0  0  0  0
  -26.7270  -14.7500   18.8570 H   0  0  0  0  0  0  0  0  0  0  0  0
  -23.2920   -9.8500   21.6560 C   0  0  0  0  0  1  0  0  0  0  0  0
  -24.4340   -7.8380   21.3880 N   0  0  0  0  0  1  0  0  0  0  0  0
  -25.3810   -8.0250   21.0810 H   0  0  0  0  0  0  0  0  0  0  0  0
  -26.0260  -17.1970   21.9680 C   0  0  0  0  0  1  0  0  0  0  0  0
  -25.1250  -17.8600   23.0190 C   0  0  0  0  0  0  0  0  0  0  0  0
  -24.9880  -17.1550   24.3660 C   0  0  0  0  0  1  0  0  0  0  0  0
  -24.4540  -18.8710   22.8030 O   0  0  0  0  0  0  0  0  0  0  0  0
  -26.6120  -19.1780   20.7810 C   0  0  0  0  0  2  0  0  0  0  0  0
  -27.1520  -18.7910   19.7390 O   0  0  0  0  0  0  0  0  0  0  0  0
  -26.6910  -21.3820   20.6430 C   0  0  0  0  0 15  0  0  0  0  0  0
  -27.4880  -23.1510   19.8350 O   0  0  0  0  0  1  0  0  0  0  0  0
  -25.9460  -30.6130   22.5130 C   0  0  0  0  0  0  0  0  0  0  0  0
  -27.2230  -24.8290   19.6600 C   0  0  0  0  0  0  0  0  0  0  0  0
  -24.5900  -29.4080   20.8670 C   0  0  0  0  0  3  0  0  0  0  0  0
  -25.7570  -27.6010   19.3600 C   0  0  0  0  0  0  0  0  0  0  0  0
  -27.1420  -29.0760   20.7620 C   0  0  0  0  0  2  0  0  0  0  0  0
  -26.9340  -27.6070   20.1080 C   0  0  0  0  0  0  0  0  0  0  0  0
  -27.6650  -26.2560   20.2150 C   0  0  0  0  0  3  0  0  0  0  0  0
  -26.2710  -25.2310   18.6760 C   0  0  0  0  0  3  0  0  0  0  0  0
  -25.5360  -26.4580   18.5760 C   0  0  0  0  0  3  0  0  0  0  0  0
  -24.7440  -28.7620   19.4510 C   0  0  0  0  0  2  0  0  0  0  0  0
  -25.9340  -29.7540   21.4240 N   0  0  0  0  0  0  0  0  0  0  0  0
  -24.8960  -31.0130   23.0500 O   0  0  0  0  0  0  0  0  0  0  0  0
  -23.8040  -28.4650   21.8210 C   0  0  0  0  0  0  0  0  0  0  0  0
  -22.4590  -28.4810   21.7790 N   0  0  0  0  0  0  0  0  0  0  0  0
  -24.4210  -27.7190   22.5870 O   0  0  0  0  0  0  0  0  0  0  0  0
  -22.0070  -29.1280   21.1500 H   0  0  0  0  0  0  0  0  0  0  0  0
  -18.9920  -27.6830   22.5320 C   0  0  0  0  0  0  0  0  0  0  0  0
  -21.5780  -27.5930   22.5530 C   0  0  0  0  0  3  0  0  0  0  0  0
  -21.4270  -26.2220   21.8550 C   0  0  0  0  0  2  0  0  0  0  0  0
  -20.2100  -26.1470   20.9290 C   0  0  0  0  0  2  0  0  0  0  0  0
  -18.9220  -26.4000   21.7180 C   0  0  0  0  0  2  0  0  0  0  0  0
  -20.2390  -28.2510   22.9090 C   0  0  0  0  0  0  0  0  0  0  0  0
  -20.2470  -29.4570   23.6420 C   0  0  0  0  0  3  0  0  0  0  0  0
  -19.0420  -30.0950   23.9940 C   0  0  0  0  0  3  0  0  0  0  0  0
  -17.8120  -29.5240   23.6270 C   0  0  0  0  0  3  0  0  0  0  0  0
  -17.7870  -28.3180   22.9030 C   0  0  0  0  0  3  0  0  0  0  0  0
  -27.2700  -31.1460   23.1400 C   0  0  0  0  0  3  0  0  0  0  0  0
  -26.9970  -32.4570   23.7790 N   0  0  0  0  0  0  0  0  0  0  0  0
  -27.3200  -33.6590   23.2790 C   0  0  0  0  0  0  0  0  0  0  0  0
  -27.9370  -33.7890   22.2210 O   0  0  0  0  0  0  0  0  0  0  0  0
  -26.4430  -32.4290   24.6220 H   0  0  0  0  0  0  0  0  0  0  0  0
  -25.6360  -35.5310   23.4560 C   0  0  0  0  0  1  0  0  0  0  0  0
  -26.9000  -34.9150   24.0770 C   0  0  0  0  0  3  0  0  0  0  0  0
  -29.0970  -35.5490   24.9820 C   0  0  0  0  0  1  0  0  0  0  0  0
  -27.9550  -35.9510   24.1640 N   0  0  0  0  0  0  0  0  0  0  0  0
  -27.5800  -36.8100   24.5560 H   0  0  0  0  0  0  0  0  0  0  0  0
  -27.8810  -30.1660   24.2190 C   0  0  1  0  0  0  0  0  0  0  0  0
  -26.8790  -29.7440   25.3190 C   0  0  0  0  0  1  0  0  0  0  0  0
  -28.4190  -28.8740   23.5730 C   0  0  0  0  0  1  0  0  0  0  0  0
  -29.0920  -30.8350   24.9120 C   0  0  0  0  0  1  0  0  0  0  0  0
  1  8  1  0
  2  1  1  0
  6 47  1  0
  7 17  1  0
  9 15  1  0
  9 16  2  0
 10 15  1  0
 11 12  1  0
 11 10  1  0
 12 13  1  0
 13 22  1  0
 13 14  1  0
 15 14  1  0
 17  9  1  0
 18 17  1  0
 19 20  1  0
 20  3  1  0
 21 24  1  0
 21 23  1  0
 22 21  1  0
 27 26  1  0
 28 27  1  0
 29 28  1  0
 30 27  1  0
 30 31  1  0
 31 32  1  0
 32 33  2  0
 34 33  1  0
 34 38  1  0
 35 34  2  0
 36 31  2  0
 36 35  1  0
 37 36  1  0
 39 20  1  0
 39 40  1  0
 40 42  1  0
 41 39  2  0
 43 40  1  0
 44 19  1  0
 45 44  1  0
 46 44  1  0
 49 48  1  0
 50 51  1  0
 51 52  1  0
 53 51  2  0
 55 54  2  0
 58 69  2  0
 59 57  1  0
 59 64  1  0
 60 68  1  0
 60 70  1  0
 61 67  1  0
 61 63  1  0
 62 68  1  0
 63 64  2  0
 63 62  1  0
 65 59  2  0
 66 65  1  0
 66 61  2  0
 67 60  1  0
 68 58  1  0
 70 72  2  0
 71 70  1  0
 73 71  1  0
 74 83  2  0
 74 79  1  0
 75 71  1  0
 75 79  1  0
 76 75  1  0
 77 78  1  0
 77 76  1  0
 78 74  1  0
 79 80  2  0
 80 81  1  0
 82 81  2  0
 83 82  1  0
 84 58  1  0
 84 85  1  0
 84 94  1  0
 85 88  1  0
 86 85  1  0
 86 90  1  0
 87 86  2  0
 90 89  1  0
 90 92  1  0
 92 93  1  0
 92 91  1  0
 94 97  1  1
 94 95  1  0
 96 94  1  0
M  ISO  4   9 100  17 100  56 101  57 101
M  END
>  <TORSDO>  (1) 
F 22

>  <SCORE>  (1) 
34.853

>  <name>  (1) 
0

>  <ligand_id>  (1) 
0

>  <original_smiles>  (1) 
[H]N=C([H])c1c([H])c([H])c(N([H])C(=O)N2C([H])([H])C([H])([H])C([H])([H])C([H])(n3nc(-c4c([H])c([H])c(Oc5c([H])c([H])c(F)c([H])c5F)c([H])c4[H])c(C(=O)N([H])[H])c3N([H])[H])C2([H])[H])c([H])c1N([H])C([H])(C(=O)C([H])([H])[H])C(=O)C([H])([H])Oc1c([H])c([H])c2c(c1[H])C([H])([H])N(C(=O)C([H])(N([H])C(=O)C([H])(N([H])C([H])([H])[H])C([H])([H])[H])C(C([H])([H])[H])(C([H])([H])[H])C([H])([H])[H])C([H])(C(=O)N([H])C1([H])c3c([H])c([H])c([H])c([H])c3C([H])([H])C([H])([H])C1([H])[H])C2([H])[H]

>  <smiles>  (1) 
[H]N=C([H])c1c([H])c([H])c(N([H])C(=O)N2C([H])([H])C([H])([H])C([H])([H])C([H])(n3nc(-c4c([H])c([H])c(Oc5c([H])c([H])c(F)c([H])c5F)c([H])c4[H])c(C(=O)N([H])[H])c3N([H])[H])C2([H])[H])c([H])c1N([H])C([H])(C(=O)C([H])([H])[H])C(=O)C([H])([H])Oc1c([H])c([H])c2c(c1[H])C([H])([H])N(C(=O)C([H])(N([H])C(=O)C([H])(N([H])C([H])([H])[H])C([H])([H])[H])C(C([H])([H])[H])(C([H])([H])[H])C([H])([H])[H])C([H])(C(=O)N([H])C1([H])c3c([H])c([H])c([H])c([H])c3C([H])([H])C([H])([H])C1([H])[H])C2([H])[H]

$$$$
1:0:0
     RDKit          3D

 96104  0  0  1  0  0  0  0  0999 V2000
  -30.7100  -22.1870   20.0520 N   0  0  0  0  0  4  0  0  0  0  0  0
  -31.0910  -21.7200   19.2450 H   0  0  0  0  0  0  0  0  0  0  0  0
  -31.2960  -22.9930   20.2340 H   0  0  0  0  0  0  0  0  0  0  0  0
  -32.0260  -21.6630   22.0830 C   0  0  0  0  0  1  0  0  0  0  0  0
  -30.7720  -21.3190   21.2580 C   0  0  0  0  0  3  0  0  0  0  0  0
  -31.8360  -18.9730   20.9800 C   0  0  0  0  0  3  0  0  0  0  0  0
  -31.7260  -17.5640   20.8850 C   0  0  0  0  0  3  0  0  0  0  0  0
  -29.3160  -17.7740   20.7230 C   0  0  0  0  0  3  0  0  0  0  0  0
  -30.6850  -19.8020   20.9750 C   0  0  0  0  0  0  0  0  0  0  0  0
  -30.4560  -16.9390   20.7780 C   0  0  0  0  0  0  0  0  0  0  0  0
  -29.4260  -19.1810   20.8150 C   0  0  0  0  0  0  0  0  0  0  0  0
  -28.3020  -19.9340   20.7790 F   0  0  0  0  0  0  0  0  0  0  0  0
  -30.9160  -14.5210   20.1320 C   0  0  0  0  0  0  0  0  0  0  0  0
  -30.5370  -12.3860   18.9460 C   0  0  0  0  0  2  0  0  0  0  0  0
  -29.5520  -12.6410   17.7850 C   0  0  0  0  0  2  0  0  0  0  0  0
  -28.0950  -12.5110   18.2700 C   0  0  0  0  0  2  0  0  0  0  0  0
  -27.8210  -13.3220   19.5650 C   0  0  0  0  0  3  0  0  0  0  0  0
  -28.9150  -13.0570   20.6240 C   0  0  0  0  0  2  0  0  0  0  0  0
  -30.2240  -13.3520   20.0120 N   0  0  0  0  0  0  0  0  0  0  0  0
  -32.0260  -14.6860   19.6200 O   0  0  0  0  0  0  0  0  0  0  0  0
  -30.2340  -15.5180   20.7360 N   0  0  0  0  0  0  0  0  0  0  0  0
  -29.3530  -15.2100   21.1170 H   0  0  0  0  0  0  0  0  0  0  0  0
  -25.4540  -13.9510   20.3640 C   0  0  0  0  0  0  0  0  0  0  0  0
  -24.3900  -13.1880   20.7620 C   0  0  0  0  0  0  0  0  0  0  0  0
  -24.8300  -11.8300   20.6980 C   0  0  0  0  0  0  0  0  0  0  0  0
  -26.4800  -13.0590   20.0870 N   0  0  0  0  0  0  0  0  0  0  0  0
  -26.1090  -11.7780   20.3450 N   0  0  0  0  0  0  0  0  0  0  0  0
  -24.0950  -10.5740   20.9010 C   0  0  0  0  0  0  0  0  0  0  0  0
  -24.5030   -9.6260   21.8660 C   0  0  0  0  0  3  0  0  0  0  0  0
  -23.7720   -8.4350   22.0540 C   0  0  0  0  0  3  0  0  0  0  0  0
  -22.6190   -8.1800   21.2740 C   0  0  0  0  0  0  0  0  0  0  0  0
  -22.2270   -9.1180   20.3010 C   0  0  0  0  0  3  0  0  0  0  0  0
  -22.9590  -10.3010   20.1120 C   0  0  0  0  0  3  0  0  0  0  0  0
  -21.8630   -7.0370   21.3670 O   0  0  0  0  0  0  0  0  0  0  0  0
  -21.7310   -6.3560   22.5510 C   0  0  0  0  0  0  0  0  0  0  0  0
  -21.1720   -6.9610   23.6990 C   0  0  0  0  0  3  0  0  0  0  0  0
  -20.9890   -6.2050   24.8730 C   0  0  0  0  0  3  0  0  0  0  0  0
  -21.3540   -4.8450   24.9010 C   0  0  0  0  0  0  0  0  0  0  0  0
  -21.9050   -4.2410   23.7580 C   0  0  0  0  0  3  0  0  0  0  0  0
  -22.0890   -4.9930   22.5840 C   0  0  0  0  0  0  0  0  0  0  0  0
  -22.6000   -4.4000   21.4790 F   0  0  0  0  0  0  0  0  0  0  0  0
  -21.1730   -4.1160   26.0270 F   0  0  0  0  0  0  0  0  0  0  0  0
  -23.0080  -13.6800   21.0870 C   0  0  0  0  0  0  0  0  0  0  0  0
  -22.3000  -12.9860   21.9720 N   0  0  0  0  0  0  0  0  0  0  0  0
  -22.5640  -14.7150   20.5910 O   0  0  0  0  0  0  0  0  0  0  0  0
  -22.6710  -12.1490   22.3950 H   0  0  0  0  0  0  0  0  0  0  0  0
  -21.3760  -13.3020   22.2310 H   0  0  0  0  0  0  0  0  0  0  0  0
  -25.6310  -15.3210   20.1970 N   0  0  0  0  0  0  0  0  0  0  0  0
  -24.8720  -15.9830   20.3280 H   0  0  0  0  0  0  0  0  0  0  0  0
  -26.4640  -15.7430   19.8080 H   0  0  0  0  0  0  0  0  0  0  0  0
  -28.9250  -22.4260   18.3310 C   0  0  0  0  0  1  0  0  0  0  0  0
  -29.4120  -22.8360   19.7350 C   0  0  0  0  0  3  0  0  0  0  0  0
  -29.6330  -24.3740   19.8440 C   0  0  0  0  0  0  0  0  0  0  0  0
  -30.7240  -24.8580   20.1740 O   0  0  0  0  0  0  0  0  0  0  0  0
  -28.4270  -25.2810   19.5180 C   0  0  0  0  0  2  0  0  0  0  0  0
  -28.5650  -26.6540   19.9590 O   0  0  0  0  0  0  0  0  0  0  0  0
  -24.7040  -31.6870   23.2670 C   0  0  0  0  0  0  0  0  0  0  0  0
  -27.3950  -27.4040   19.9680 C   0  0  0  0  0  0  0  0  0  0  0  0
  -23.5220  -30.3680   21.5460 C   0  0  0  0  0  3  0  0  0  0  0  0
  -24.9940  -28.9210   20.0500 C   0  0  0  0  0  0  0  0  0  0  0  0
  -26.0510  -30.7420   21.3880 C   0  0  0  0  0  2  0  0  0  0  0  0
  -26.1480  -29.4060   20.6760 C   0  0  0  0  0  0  0  0  0  0  0  0
  -27.3500  -28.6550   20.6350 C   0  0  0  0  0  3  0  0  0  0  0  0
  -26.2130  -26.9500   19.3300 C   0  0  0  0  0  3  0  0  0  0  0  0
  -25.0220  -27.6940   19.3740 C   0  0  0  0  0  3  0  0  0  0  0  0
  -23.7470  -29.7720   20.1320 C   0  0  0  0  0  2  0  0  0  0  0  0
  -24.7780  -30.9430   22.1260 N   0  0  0  0  0  0  0  0  0  0  0  0
  -23.6160  -31.9250   23.8090 O   0  0  0  0  0  0  0  0  0  0  0  0
  -22.8680  -29.2900   22.4420 C   0  0  0  0  0  0  0  0  0  0  0  0
  -21.5490  -29.0930   22.2790 N   0  0  0  0  0  0  0  0  0  0  0  0
  -23.5450  -28.6390   23.2420 O   0  0  0  0  0  0  0  0  0  0  0  0
  -21.0650  -29.6750   21.6100 H   0  0  0  0  0  0  0  0  0  0  0  0
  -18.1860  -27.8200   22.6410 C   0  0  0  0  0  0  0  0  0  0  0  0
  -20.7320  -28.1080   22.9860 C   0  0  0  0  0  3  0  0  0  0  0  0
  -20.8740  -26.7050   22.3510 C   0  0  0  0  0  2  0  0  0  0  0  0
  -19.8020  -26.4100   21.2980 C   0  0  0  0  0  2  0  0  0  0  0  0
  -18.4040  -26.5030   21.9140 C   0  0  0  0  0  2  0  0  0  0  0  0
  -19.2810  -28.5820   23.1310 C   0  0  0  0  0  0  0  0  0  0  0  0
  -19.0260  -29.8140   23.7700 C   0  0  0  0  0  3  0  0  0  0  0  0
  -17.7090  -30.2860   23.9250 C   0  0  0  0  0  3  0  0  0  0  0  0
  -16.6280  -29.5200   23.4520 C   0  0  0  0  0  3  0  0  0  0  0  0
  -16.8680  -28.2890   22.8170 C   0  0  0  0  0  3  0  0  0  0  0  0
  -25.9800  -32.2930   23.9300 C   0  0  0  0  0  3  0  0  0  0  0  0
  -25.6650  -33.6750   24.3160 N   0  0  0  0  0  0  0  0  0  0  0  0
  -26.0070  -34.7580   23.6070 C   0  0  0  0  0  0  0  0  0  0  0  0
  -26.6900  -34.7000   22.5810 O   0  0  0  0  0  0  0  0  0  0  0  0
  -25.0620  -33.7950   25.1170 H   0  0  0  0  0  0  0  0  0  0  0  0
  -24.2760  -36.5580   23.3050 C   0  0  0  0  0  1  0  0  0  0  0  0
  -25.5100  -36.1250   24.1140 C   0  0  0  0  0  3  0  0  0  0  0  0
  -27.6260  -36.9850   25.0140 C   0  0  0  0  0  1  0  0  0  0  0  0
  -26.5390  -37.1840   24.0580 N   0  0  0  0  0  0  0  0  0  0  0  0
  -26.1280  -38.0970   24.2340 H   0  0  0  0  0  0  0  0  0  0  0  0
  -26.4870  -31.4660   25.1740 C   0  0  1  0  0  0  0  0  0  0  0  0
  -25.3850  -31.1730   26.2180 C   0  0  0  0  0  1  0  0  0  0  0  0
  -27.0820  -30.1110   24.7230 C   0  0  0  0  0  1  0  0  0  0  0  0
  -27.6290  -32.2330   25.8840 C   0  0  0  0  0  1  0  0  0  0  0  0
  1  3  1  0
  1  5  1  0
  2  1  1  0
  5  4  1  0
  7  6  2  0
  8 10  2  0
  8 11  1  0
  9  6  1  0
  9  5  1  0
 10  7  1  0
 11  9  2  0
 12 11  1  0
 13 21  1  0
 14 19  1  0
 15 16  1  0
 15 14  1  0
 17 16  1  0
 17 26  1  0
 17 18  1  0
 19 13  1  0
 19 18  1  0
 20 13  2  0
 21 10  1  0
 21 22  1  0
 23 24  2  0
 24 43  1  0
 25 24  1  0
 25 28  1  0
 26 27  1  0
 26 23  1  0
 27 25  2  0
 28 29  1  0
 29 30  2  0
 31 34  1  0
 31 30  1  0
 32 31  2  0
 33 32  1  0
 33 28  2  0
 34 35  1  0
 35 40  2  0
 35 36  1  0
 36 37  2  0
 37 38  1  0
 38 42  1  0
 39 38  2  0
 40 39  1  0
 41 40  1  0
 43 44  1  0
 44 47  1  0
 44 46  1  0
 45 43  2  0
 48 49  1  0
 48 23  1  0
 50 48  1  0
 52 51  1  0
 52 53  1  0
 52  1  1  0
 53 54  2  0
 55 53  1  0
 55 56  1  0
 56 58  1  0
 57 68  2  0
 58 63  1  0
 59 67  1  0
 59 69  1  0
 60 66  1  0
 60 62  1  0
 61 67  1  0
 62 61  1  0
 63 62  2  0
 64 65  1  0
 64 58  2  0
 65 60  2  0
 66 59  1  0
 67 57  1  0
 69 71  2  0
 70 69  1  0
 72 70  1  0
 73 82  2  0
 73 78  1  0
 74 70  1  0
 74 78  1  0
 75 74  1  0
 76 77  1  0
 76 75  1  0
 77 73  1  0
 78 79  2  0
 79 80  1  0
 81 80  2  0
 82 81  1  0
 83 57  1  0
 83 84  1  0
 83 93  1  0
 84 87  1  0
 85 89  1  0
 85 84  1  0
 86 85  2  0
 89 88  1  0
 91 89  1  0
 91 92  1  0
 91 90  1  0
 93 96  1  1
 93 94  1  0
 95 93  1  0
M  ISO  4  13 100  21 100  55 101  56 101
M  END
>  <TORSDO>  (2) 
F 21

>  <SCORE>  (2) 
-13.220

>  <name>  (2) 
1

>  <ligand_id>  (2) 
1

>  <original_smiles>  (2) 
[H]c1c([H])c([H])c2c(c1[H])C([H])([H])C([H])([H])C([H])([H])C2([H])N([H])C(=O)C1([H])N(C(=O)C([H])(N([H])C(=O)C([H])(N([H])C([H])([H])[H])C([H])([H])[H])C(C([H])([H])[H])(C([H])([H])[H])C([H])([H])[H])C([H])([H])c2c([H])c(OC([H])([H])C(=O)C([H])(C([H])([H])[H])[N+]([H])([H])C([H])(c3c([H])c([H])c(N([H])C(=O)N4C([H])([H])C([H])([H])C([H])([H])C([H])(n5nc(-c6c([H])c([H])c(Oc7c([H])c([H])c(F)c([H])c7F)c([H])c6[H])c(C(=O)N([H])[H])c5N([H])[H])C4([H])[H])c([H])c3F)C([H])([H])[H])c([H])c([H])c2C1([H])[H]

>  <smiles>  (2) 
[H]c1c([H])c([H])c2c(c1[H])C([H])([H])C([H])([H])C([H])([H])C2([H])N([H])C(=O)C1([H])N(C(=O)C([H])(N([H])C(=O)C([H])(N([H])C([H])([H])[H])C([H])([H])[H])C(C([H])([H])[H])(C([H])([H])[H])C([H])([H])[H])C([H])([H])c2c([H])c(OC([H])([H])C(=O)C([H])(C([H])([H])[H])[N+]([H])([H])C([H])(c3c([H])c([H])c(N([H])C(=O)N4C([H])([H])C([H])([H])C([H])([H])C([H])(n5nc(-c6c([H])c([H])c(Oc7c([H])c([H])c(F)c([H])c7F)c([H])c6[H])c(C(=O)N([H])[H])c5N([H])[H])C4([H])[H])c([H])c3F)C([H])([H])[H])c([H])c([H])c2C1([H])[H]

$$$$
2:0:0
     RDKit          3D

 94102  0  0  1  0  0  0  0  0999 V2000
  -29.0940  -21.7140   20.1660 C   0  0  0  0  0  0  0  0  0  0  0  0
  -29.1550  -20.6530   21.0130 N   0  0  0  0  0  0  0  0  0  0  0  0
  -29.3550  -21.6430   18.9600 O   0  0  0  0  0  0  0  0  0  0  0  0
  -28.8360  -20.8790   21.9460 H   0  0  0  0  0  0  0  0  0  0  0  0
  -31.8130  -17.2930   21.0210 C   0  0  0  0  0  3  0  0  0  0  0  0
  -32.2920  -18.6030   21.1710 C   0  0  0  0  0  3  0  0  0  0  0  0
  -29.5530  -18.1620   20.7660 C   0  0  0  0  0  3  0  0  0  0  0  0
  -30.4410  -17.0320   20.7940 C   0  0  0  0  0  0  0  0  0  0  0  0
  -30.0320  -19.5070   20.9150 C   0  0  0  0  0  0  0  0  0  0  0  0
  -31.4210  -19.7040   21.1250 C   0  0  0  0  0  0  0  0  0  0  0  0
  -32.0990  -21.2740   21.3980 Cl  0  0  0  0  0  0  0  0  0  0  0  0
  -30.6490  -14.5700   20.1940 C   0  0  0  0  0  0  0  0  0  0  0  0
  -30.3100  -12.3910   19.0670 C   0  0  0  0  0  2  0  0  0  0  0  0
  -29.3400  -12.5780   17.8830 C   0  0  0  0  0  2  0  0  0  0  0  0
  -27.8810  -12.4260   18.3550 C   0  0  0  0  0  2  0  0  0  0  0  0
  -27.5710  -13.2650   19.6240 C   0  0  0  0  0  3  0  0  0  0  0  0
  -28.6620  -13.0840   20.7050 C   0  0  0  0  0  2  0  0  0  0  0  0
  -29.9580  -13.3960   20.0890 N   0  0  0  0  0  0  0  0  0  0  0  0
  -31.7830  -14.6750   19.7220 O   0  0  0  0  0  0  0  0  0  0  0  0
  -29.9670  -15.6620   20.6540 N   0  0  0  0  0  0  0  0  0  0  0  0
  -28.9950  -15.4980   20.8690 H   0  0  0  0  0  0  0  0  0  0  0  0
  -25.1970  -13.8530   20.4090 C   0  0  0  0  0  0  0  0  0  0  0  0
  -24.1430  -13.0730   20.8040 C   0  0  0  0  0  0  0  0  0  0  0  0
  -24.6080  -11.7240   20.7530 C   0  0  0  0  0  0  0  0  0  0  0  0
  -26.2380  -12.9770   20.1440 N   0  0  0  0  0  0  0  0  0  0  0  0
  -25.8900  -11.6920   20.4100 N   0  0  0  0  0  0  0  0  0  0  0  0
  -23.8920  -10.4570   20.9550 C   0  0  0  0  0  0  0  0  0  0  0  0
  -24.3300   -9.5020   21.8980 C   0  0  0  0  0  3  0  0  0  0  0  0
  -23.6120   -8.3000   22.0870 C   0  0  0  0  0  3  0  0  0  0  0  0
  -22.4430   -8.0470   21.3320 C   0  0  0  0  0  0  0  0  0  0  0  0
  -22.0240   -8.9910   20.3780 C   0  0  0  0  0  3  0  0  0  0  0  0
  -22.7420  -10.1830   20.1870 C   0  0  0  0  0  3  0  0  0  0  0  0
  -21.6970   -6.8970   21.4290 O   0  0  0  0  0  0  0  0  0  0  0  0
  -21.6340   -6.1770   22.5950 C   0  0  0  0  0  0  0  0  0  0  0  0
  -21.1640   -6.7450   23.7980 C   0  0  0  0  0  3  0  0  0  0  0  0
  -21.0510   -5.9510   24.9560 C   0  0  0  0  0  3  0  0  0  0  0  0
  -21.3970   -4.5860   24.9110 C   0  0  0  0  0  0  0  0  0  0  0  0
  -21.8600   -4.0170   23.7120 C   0  0  0  0  0  3  0  0  0  0  0  0
  -21.9750   -4.8100   22.5560 C   0  0  0  0  0  0  0  0  0  0  0  0
  -22.4010   -4.2500   21.3980 F   0  0  0  0  0  0  0  0  0  0  0  0
  -21.2810   -3.8200   26.0200 F   0  0  0  0  0  0  0  0  0  0  0  0
  -22.7520  -13.5440   21.1160 C   0  0  0  0  0  0  0  0  0  0  0  0
  -22.0480  -12.8380   21.9950 N   0  0  0  0  0  0  0  0  0  0  0  0
  -22.2980  -14.5730   20.6160 O   0  0  0  0  0  0  0  0  0  0  0  0
  -22.4290  -12.0050   22.4200 H   0  0  0  0  0  0  0  0  0  0  0  0
  -21.1160  -13.1340   22.2460 H   0  0  0  0  0  0  0  0  0  0  0  0
  -25.3510  -15.2250   20.2320 N   0  0  0  0  0  0  0  0  0  0  0  0
  -24.5800  -15.8730   20.3560 H   0  0  0  0  0  0  0  0  0  0  0  0
  -26.1800  -15.6650   19.8560 H   0  0  0  0  0  0  0  0  0  0  0  0
  -28.6330  -23.0650   20.8550 C   0  0  0  0  0  0  0  0  0  0  0  0
  -28.9170  -23.2960   22.0360 O   0  0  0  0  0  0  0  0  0  0  0  0
  -27.7810  -24.0950   20.0590 C   0  0  0  0  0  2  0  0  0  0  0  0
  -28.4800  -25.3950   19.5210 C   0  0  0  0  0  2  0  0  0  0  0  0
  -28.3480  -26.6520   20.2450 O   0  0  0  0  0  0  0  0  0  0  0  0
  -24.5830  -31.9420   23.2350 C   0  0  0  0  0  0  0  0  0  0  0  0
  -27.1880  -27.4150   20.1810 C   0  0  0  0  0  0  0  0  0  0  0  0
  -23.3670  -30.5370   21.6040 C   0  0  0  0  0  3  0  0  0  0  0  0
  -24.8080  -28.9790   20.1810 C   0  0  0  0  0  0  0  0  0  0  0  0
  -25.9000  -30.8640   21.4050 C   0  0  0  0  0  2  0  0  0  0  0  0
  -25.9720  -29.4860   20.7700 C   0  0  0  0  0  0  0  0  0  0  0  0
  -27.1590  -28.7080   20.7710 C   0  0  0  0  0  3  0  0  0  0  0  0
  -26.0010  -26.9400   19.5760 C   0  0  0  0  0  3  0  0  0  0  0  0
  -24.8210  -27.7080   19.5810 C   0  0  0  0  0  3  0  0  0  0  0  0
  -23.5710  -29.8500   20.2270 C   0  0  0  0  0  2  0  0  0  0  0  0
  -24.6350  -31.1310   22.1380 N   0  0  0  0  0  0  0  0  0  0  0  0
  -23.5030  -32.2250   23.7720 O   0  0  0  0  0  0  0  0  0  0  0  0
  -22.7100  -29.5270   22.5720 C   0  0  0  0  0  0  0  0  0  0  0  0
  -21.3830  -29.3530   22.4510 N   0  0  0  0  0  0  0  0  0  0  0  0
  -23.3910  -28.9010   23.3890 O   0  0  0  0  0  0  0  0  0  0  0  0
  -20.8940  -29.9090   21.7640 H   0  0  0  0  0  0  0  0  0  0  0  0
  -18.0010  -28.1930   22.9780 C   0  0  0  0  0  0  0  0  0  0  0  0
  -20.5630  -28.4240   23.2290 C   0  0  0  0  0  3  0  0  0  0  0  0
  -20.6450  -26.9920   22.6540 C   0  0  0  0  0  2  0  0  0  0  0  0
  -19.5320  -26.6800   21.6480 C   0  0  0  0  0  2  0  0  0  0  0  0
  -18.1570  -26.8400   22.3020 C   0  0  0  0  0  2  0  0  0  0  0  0
  -19.1300  -28.9430   23.3980 C   0  0  0  0  0  0  0  0  0  0  0  0
  -18.9290  -30.2100   23.9900 C   0  0  0  0  0  3  0  0  0  0  0  0
  -17.6320  -30.7240   24.1650 C   0  0  0  0  0  3  0  0  0  0  0  0
  -16.5160  -29.9700   23.7600 C   0  0  0  0  0  3  0  0  0  0  0  0
  -16.7020  -28.7060   23.1730 C   0  0  0  0  0  3  0  0  0  0  0  0
  -25.8720  -32.5730   23.8480 C   0  0  0  0  0  3  0  0  0  0  0  0
  -26.3950  -31.8000   25.1220 C   0  0  1  0  0  0  0  0  0  0  0  0
  -25.3080  -31.5620   26.1950 C   0  0  0  0  0  1  0  0  0  0  0  0
  -26.9770  -30.4240   24.7250 C   0  0  0  0  0  1  0  0  0  0  0  0
  -27.5480  -32.5950   25.7780 C   0  0  0  0  0  1  0  0  0  0  0  0
  -25.5680  -33.9710   24.1790 N   0  0  0  0  0  0  0  0  0  0  0  0
  -25.9030  -35.0230   23.4200 C   0  0  0  0  0  0  0  0  0  0  0  0
  -26.5720  -34.9170   22.3880 O   0  0  0  0  0  0  0  0  0  0  0  0
  -24.9760  -34.1290   24.9800 H   0  0  0  0  0  0  0  0  0  0  0  0
  -24.1860  -36.8250   23.0570 C   0  0  0  0  0  1  0  0  0  0  0  0
  -25.4200  -36.4130   23.8760 C   0  0  0  0  0  3  0  0  0  0  0  0
  -27.5520  -37.2840   24.7280 C   0  0  0  0  0  1  0  0  0  0  0  0
  -26.4590  -37.4600   23.7740 N   0  0  0  0  0  0  0  0  0  0  0  0
  -26.0570  -38.3820   23.9200 H   0  0  0  0  0  0  0  0  0  0  0  0
  1 50  1  0
  1  2  1  0
  2  4  1  0
  3  1  2  0
  5  6  1  0
  7  8  1  0
  7  9  2  0
  8  5  2  0
  9  2  1  0
  9 10  1  0
 10  6  2  0
 10 11  1  0
 12 20  1  0
 13 18  1  0
 14 15  1  0
 14 13  1  0
 16 15  1  0
 16 25  1  0
 16 17  1  0
 18 12  1  0
 18 17  1  0
 19 12  2  0
 20  8  1  0
 20 21  1  0
 22 23  2  0
 23 42  1  0
 24 23  1  0
 24 27  1  0
 25 22  1  0
 25 26  1  0
 26 24  2  0
 27 28  1  0
 28 29  2  0
 30 33  1  0
 30 29  1  0
 31 30  2  0
 32 31  1  0
 32 27  2  0
 33 34  1  0
 34 35  1  0
 35 36  2  0
 37 36  1  0
 37 41  1  0
 38 37  2  0
 39 34  2  0
 39 38  1  0
 40 39  1  0
 42 43  1  0
 43 46  1  0
 43 45  1  0
 44 42  2  0
 47 48  1  0
 47 22  1  0
 49 47  1  0
 50 51  2  0
 52 50  1  0
 53 52  1  0
 53 54  1  0
 55 66  2  0
 56 54  1  0
 56 61  1  0
 57 65  1  0
 57 67  1  0
 58 64  1  0
 58 60  1  0
 59 65  1  0
 60 61  2  0
 60 59  1  0
 62 63  1  0
 62 56  2  0
 63 58  2  0
 64 57  1  0
 65 55  1  0
 67 69  2  0
 68 67  1  0
 70 68  1  0
 71 80  2  0
 71 76  1  0
 72 68  1  0
 72 76  1  0
 73 72  1  0
 74 75  1  0
 74 73  1  0
 75 71  1  0
 76 77  2  0
 77 78  1  0
 79 78  2  0
 80 79  1  0
 81 55  1  0
 81 86  1  0
 81 82  1  0
 82 85  1  1
 82 83  1  0
 84 82  1  0
 86 89  1  0
 87 91  1  0
 87 86  1  0
 88 87  2  0
 91 90  1  0
 93 91  1  0
 93 94  1  0
 93 92  1  0
M  ISO  4  12 100  20 100  53 101  54 101
M  END
>  <TORSDO>  (3) 
F 20

>  <SCORE>  (3) 
-14.135

>  <name>  (3) 
2

>  <ligand_id>  (3) 
2

>  <original_smiles>  (3) 
[H]c1c([H])c([H])c2c(c1[H])C([H])([H])C([H])([H])C([H])([H])C2([H])N([H])C(=O)C1([H])N(C(=O)C([H])(N([H])C(=O)C([H])(N([H])C([H])([H])[H])C([H])([H])[H])C(C([H])([H])[H])(C([H])([H])[H])C([H])([H])[H])C([H])([H])c2c([H])c(OC([H])([H])C([H])([H])C(=O)C(=O)N([H])c3c([H])c(N([H])C(=O)N4C([H])([H])C([H])([H])C([H])([H])C([H])(n5nc(-c6c([H])c([H])c(Oc7c([H])c([H])c(F)c([H])c7F)c([H])c6[H])c(C(=O)N([H])[H])c5N([H])[H])C4([H])[H])c([H])c([H])c3Cl)c([H])c([H])c2C1([H])[H]

>  <smiles>  (3) 
[H]c1c([H])c([H])c2c(c1[H])C([H])([H])C([H])([H])C([H])([H])C2([H])N([H])C(=O)C1([H])N(C(=O)C([H])(N([H])C(=O)C([H])(N([H])C([H])([H])[H])C([H])([H])[H])C(C([H])([H])[H])(C([H])([H])[H])C([H])([H])[H])C([H])([H])c2c([H])c(OC([H])([H])C([H])([H])C(=O)C(=O)N([H])c3c([H])c(N([H])C(=O)N4C([H])([H])C([H])([H])C([H])([H])C([H])(n5nc(-c6c([H])c([H])c(Oc7c([H])c([H])c(F)c([H])c7F)c([H])c6[H])c(C(=O)N([H])[H])c5N([H])[H])C4([H])[H])c([H])c([H])c3Cl)c([H])c([H])c2C1([H])[H]

$$$$
3:0:0
     RDKit          3D

 97105  0  0  1  0  0  0  0  0999 V2000
  -29.3610  -23.1780   19.2830 C   0  0  0  0  0  0  0  0  0  0  0  0
  -30.0730  -22.2360   19.9340 N   0  0  0  0  0  0  0  0  0  0  0  0
  -28.9840  -23.0190   18.1200 O   0  0  0  0  0  0  0  0  0  0  0  0
  -30.3260  -22.4820   20.8830 H   0  0  0  0  0  0  0  0  0  0  0  0
  -28.5570  -25.4810   19.5050 C   0  0  0  0  0  3  0  0  0  0  0  0
  -29.1740  -24.4120   20.0580 C   0  0  0  0  0  0  0  0  0  0  0  0
  -29.6400  -24.4920   21.3150 O   0  0  0  0  0  0  0  0  0  0  0  0
  -29.4390  -25.3680   21.6200 H   0  0  0  0  0  0  0  0  0  0  0  0
  -28.4250  -26.6860   20.1630 O   0  0  0  0  0  0  0  0  0  0  0  0
  -24.6190  -31.8500   23.2330 C   0  0  0  0  0  0  0  0  0  0  0  0
  -27.2460  -27.4090   20.1150 C   0  0  0  0  0  0  0  0  0  0  0  0
  -23.4060  -30.4620   21.5860 C   0  0  0  0  0  3  0  0  0  0  0  0
  -24.8490  -28.9260   20.1480 C   0  0  0  0  0  0  0  0  0  0  0  0
  -25.9330  -30.8090   21.3870 C   0  0  0  0  0  2  0  0  0  0  0  0
  -26.0110  -29.4430   20.7340 C   0  0  0  0  0  0  0  0  0  0  0  0
  -27.2090  -28.6910   20.7120 C   0  0  0  0  0  3  0  0  0  0  0  0
  -26.0580  -26.9020   19.5360 C   0  0  0  0  0  3  0  0  0  0  0  0
  -24.8680  -27.6560   19.5480 C   0  0  0  0  0  3  0  0  0  0  0  0
  -23.6080  -29.7870   20.2040 C   0  0  0  0  0  2  0  0  0  0  0  0
  -24.6710  -31.0550   22.1270 N   0  0  0  0  0  0  0  0  0  0  0  0
  -23.5400  -32.1260   23.7750 O   0  0  0  0  0  0  0  0  0  0  0  0
  -22.7500  -29.4410   22.5440 C   0  0  0  0  0  0  0  0  0  0  0  0
  -21.4260  -29.2590   22.4120 N   0  0  0  0  0  0  0  0  0  0  0  0
  -23.4300  -28.8130   23.3600 O   0  0  0  0  0  0  0  0  0  0  0  0
  -20.9370  -29.8180   21.7270 H   0  0  0  0  0  0  0  0  0  0  0  0
  -18.0510  -28.0560   22.8890 C   0  0  0  0  0  0  0  0  0  0  0  0
  -20.6070  -28.3190   23.1780 C   0  0  0  0  0  3  0  0  0  0  0  0
  -20.7150  -26.8890   22.6020 C   0  0  0  0  0  2  0  0  0  0  0  0
  -19.6220  -26.5650   21.5800 C   0  0  0  0  0  2  0  0  0  0  0  0
  -18.2360  -26.7060   22.2150 C   0  0  0  0  0  2  0  0  0  0  0  0
  -19.1660  -28.8200   23.3270 C   0  0  0  0  0  0  0  0  0  0  0  0
  -18.9400  -30.0840   23.9140 C   0  0  0  0  0  3  0  0  0  0  0  0
  -17.6350  -30.5840   24.0680 C   0  0  0  0  0  3  0  0  0  0  0  0
  -16.5340  -29.8170   23.6470 C   0  0  0  0  0  3  0  0  0  0  0  0
  -16.7440  -28.5540   23.0640 C   0  0  0  0  0  3  0  0  0  0  0  0
  -25.9080  -32.4730   23.8530 C   0  0  0  0  0  3  0  0  0  0  0  0
  -26.4390  -31.6850   25.1140 C   0  0  1  0  0  0  0  0  0  0  0  0
  -25.3560  -31.4280   26.1880 C   0  0  0  0  0  1  0  0  0  0  0  0
  -27.0220  -30.3150   24.6970 C   0  0  0  0  0  1  0  0  0  0  0  0
  -27.5920  -32.4760   25.7770 C   0  0  0  0  0  1  0  0  0  0  0  0
  -25.6010  -33.8670   24.2030 N   0  0  0  0  0  0  0  0  0  0  0  0
  -25.9210  -34.9290   23.4530 C   0  0  0  0  0  0  0  0  0  0  0  0
  -26.5780  -34.8390   22.4120 O   0  0  0  0  0  0  0  0  0  0  0  0
  -25.0080  -34.0090   25.0080 H   0  0  0  0  0  0  0  0  0  0  0  0
  -24.1760  -36.7150   23.1530 C   0  0  0  0  0  1  0  0  0  0  0  0
  -25.4370  -36.3090   23.9340 C   0  0  0  0  0  3  0  0  0  0  0  0
  -27.5870  -37.1980   24.7260 C   0  0  0  0  0  1  0  0  0  0  0  0
  -26.4630  -37.3690   23.8080 N   0  0  0  0  0  0  0  0  0  0  0  0
  -26.0550  -38.2860   23.9720 H   0  0  0  0  0  0  0  0  0  0  0  0
  -30.8310  -21.1590   19.2740 C   0  0  0  0  0  2  0  0  0  0  0  0
  -30.2440  -19.2810   20.9650 C   0  0  0  0  0  3  0  0  0  0  0  0
  -30.5250  -19.6970   19.6430 C   0  0  0  0  0  0  0  0  0  0  0  0
  -30.2190  -16.9140   20.2700 C   0  0  0  0  0  0  0  0  0  0  0  0
  -30.0900  -17.9060   21.2720 C   0  0  0  0  0  0  0  0  0  0  0  0
  -30.6110  -18.7080   18.6350 C   0  0  0  0  0  0  0  0  0  0  0  0
  -30.4410  -17.3390   18.9350 C   0  0  0  0  0  0  0  0  0  0  0  0
  -29.8330  -17.5340   22.5490 F   0  0  0  0  0  0  0  0  0  0  0  0
  -30.8680  -19.0660   17.3530 F   0  0  0  0  0  0  0  0  0  0  0  0
  -30.4770  -16.4430   17.9170 F   0  0  0  0  0  0  0  0  0  0  0  0
  -30.7640  -14.4950   20.1140 C   0  0  0  0  0  0  0  0  0  0  0  0
  -30.4100  -12.3650   18.9410 C   0  0  0  0  0  2  0  0  0  0  0  0
  -29.4080  -12.6190   17.7940 C   0  0  0  0  0  2  0  0  0  0  0  0
  -27.9570  -12.4790   18.2930 C   0  0  0  0  0  2  0  0  0  0  0  0
  -27.6900  -13.2720   19.6000 C   0  0  0  0  0  3  0  0  0  0  0  0
  -28.7980  -13.0060   20.6440 C   0  0  0  0  0  2  0  0  0  0  0  0
  -30.0940  -13.3140   20.0200 N   0  0  0  0  0  0  0  0  0  0  0  0
  -31.8930  -14.6600   19.6430 O   0  0  0  0  0  0  0  0  0  0  0  0
  -30.0590  -15.5280   20.6160 N   0  0  0  0  0  0  0  0  0  0  0  0
  -29.2540  -15.3000   21.1780 H   0  0  0  0  0  0  0  0  0  0  0  0
  -25.3270  -13.8700   20.4280 C   0  0  0  0  0  0  0  0  0  0  0  0
  -24.2750  -13.0920   20.8310 C   0  0  0  0  0  0  0  0  0  0  0  0
  -24.7310  -11.7410   20.7530 C   0  0  0  0  0  0  0  0  0  0  0  0
  -26.3590  -12.9920   20.1330 N   0  0  0  0  0  0  0  0  0  0  0  0
  -26.0060  -11.7060   20.3880 N   0  0  0  0  0  0  0  0  0  0  0  0
  -24.0110  -10.4760   20.9510 C   0  0  0  0  0  0  0  0  0  0  0  0
  -24.4630   -9.5060   21.8740 C   0  0  0  0  0  3  0  0  0  0  0  0
  -23.7430   -8.3050   22.0600 C   0  0  0  0  0  3  0  0  0  0  0  0
  -22.5590   -8.0670   21.3220 C   0  0  0  0  0  0  0  0  0  0  0  0
  -22.1270   -9.0250   20.3890 C   0  0  0  0  0  3  0  0  0  0  0  0
  -22.8470  -10.2170   20.2020 C   0  0  0  0  0  3  0  0  0  0  0  0
  -21.8090   -6.9190   21.4190 O   0  0  0  0  0  0  0  0  0  0  0  0
  -21.7460   -6.1960   22.5830 C   0  0  0  0  0  0  0  0  0  0  0  0
  -21.3010   -6.7710   23.7930 C   0  0  0  0  0  3  0  0  0  0  0  0
  -21.1850   -5.9740   24.9500 C   0  0  0  0  0  3  0  0  0  0  0  0
  -21.5030   -4.6040   24.8980 C   0  0  0  0  0  0  0  0  0  0  0  0
  -21.9420   -4.0290   23.6910 C   0  0  0  0  0  3  0  0  0  0  0  0
  -22.0600   -4.8230   22.5370 C   0  0  0  0  0  0  0  0  0  0  0  0
  -22.4620   -4.2590   21.3720 F   0  0  0  0  0  0  0  0  0  0  0  0
  -21.3850   -3.8360   26.0060 F   0  0  0  0  0  0  0  0  0  0  0  0
  -22.8920  -13.5660   21.1740 C   0  0  0  0  0  0  0  0  0  0  0  0
  -22.2030  -12.8570   22.0630 N   0  0  0  0  0  0  0  0  0  0  0  0
  -22.4310  -14.6000   20.6910 O   0  0  0  0  0  0  0  0  0  0  0  0
  -22.5890  -12.0200   22.4750 H   0  0  0  0  0  0  0  0  0  0  0  0
  -21.2780  -13.1570   22.3340 H   0  0  0  0  0  0  0  0  0  0  0  0
  -25.4870  -15.2430   20.2670 N   0  0  0  0  0  0  0  0  0  0  0  0
  -24.7290  -15.8970   20.4270 H   0  0  0  0  0  0  0  0  0  0  0  0
  -26.3190  -15.6860   19.8980 H   0  0  0  0  0  0  0  0  0  0  0  0
  1  2  1  0
  1  6  1  0
  2  4  1  0
  3  1  2  0
  5  6  2  0
  5  9  1  0
  6  7  1  0
  7  8  1  0
 10 21  2  0
 11  9  1  0
 11 16  1  0
 12 20  1  0
 12 22  1  0
 13 19  1  0
 13 15  1  0
 14 20  1  0
 15 14  1  0
 16 15  2  0
 17 18  1  0
 17 11  2  0
 18 13  2  0
 19 12  1  0
 20 10  1  0
 22 24  2  0
 23 22  1  0
 25 23  1  0
 26 35  2  0
 26 31  1  0
 27 23  1  0
 27 31  1  0
 28 27  1  0
 29 30  1  0
 29 28  1  0
 30 26  1  0
 31 32  2  0
 32 33  1  0
 34 33  2  0
 35 34  1  0
 36 10  1  0
 36 41  1  0
 36 37  1  0
 37 40  1  1
 37 38  1  0
 39 37  1  0
 41 44  1  0
 42 46  1  0
 42 41  1  0
 43 42  2  0
 46 45  1  0
 48 46  1  0
 48 49  1  0
 48 47  1  0
 50 52  1  0
 50  2  1  0
 51 54  1  0
 52 51  2  0
 53 68  1  0
 53 54  2  0
 54 57  1  0
 55 56  2  0
 55 52  1  0
 56 53  1  0
 58 55  1  0
 59 56  1  0
 60 68  1  0
 61 66  1  0
 62 63  1  0
 62 61  1  0
 64 63  1  0
 64 73  1  0
 64 65  1  0
 66 60  1  0
 66 65  1  0
 67 60  2  0
 68 69  1  0
 70 71  2  0
 71 90  1  0
 72 71  1  0
 72 75  1  0
 73 74  1  0
 73 70  1  0
 74 72  2  0
 75 76  1  0
 76 77  2  0
 78 81  1  0
 78 77  1  0
 79 78  2  0
 80 79  1  0
 80 75  2  0
 81 82  1  0
 82 83  1  0
 83 84  2  0
 85 84  1  0
 85 89  1  0
 86 85  2  0
 87 82  2  0
 87 86  1  0
 88 87  1  0
 90 91  1  0
 91 94  1  0
 91 93  1  0
 92 90  2  0
 95 96  1  0
 95 70  1  0
 97 95  1  0
M  ISO  4   5 101   9 101  60 100  68 100
M  END
>  <TORSDO>  (4) 
F 20

>  <SCORE>  (4) 
-13.732

>  <name>  (4) 
3

>  <ligand_id>  (4) 
3

>  <original_smiles>  (4) 
[H]OC(C(=O)N([H])C([H])([H])c1c([H])c(F)c(N([H])C(=O)N2C([H])([H])C([H])([H])C([H])([H])C([H])(n3nc(-c4c([H])c([H])c(Oc5c([H])c([H])c(F)c([H])c5F)c([H])c4[H])c(C(=O)N([H])[H])c3N([H])[H])C2([H])[H])c(F)c1F)=C([H])Oc1c([H])c([H])c2c(c1[H])C([H])([H])N(C(=O)C([H])(N([H])C(=O)C([H])(N([H])C([H])([H])[H])C([H])([H])[H])C(C([H])([H])[H])(C([H])([H])[H])C([H])([H])[H])C([H])(C(=O)N([H])C1([H])c3c([H])c([H])c([H])c([H])c3C([H])([H])C([H])([H])C1([H])[H])C2([H])[H]

>  <smiles>  (4) 
[H]OC(C(=O)N([H])C([H])([H])c1c([H])c(F)c(N([H])C(=O)N2C([H])([H])C([H])([H])C([H])([H])C([H])(n3nc(-c4c([H])c([H])c(Oc5c([H])c([H])c(F)c([H])c5F)c([H])c4[H])c(C(=O)N([H])[H])c3N([H])[H])C2([H])[H])c(F)c1F)=C([H])Oc1c([H])c([H])c2c(c1[H])C([H])([H])N(C(=O)C([H])(N([H])C(=O)C([H])(N([H])C([H])([H])[H])C([H])([H])[H])C(C([H])([H])[H])(C([H])([H])[H])C([H])([H])[H])C([H])(C(=O)N([H])C1([H])c3c([H])c([H])c([H])c([H])c3C([H])([H])C([H])([H])C1([H])[H])C2([H])[H]

$$$$
4:0:0
     RDKit          3D

 95103  0  0  1  0  0  0  0  0999 V2000
  -29.0770  -22.7160   20.1210 C   0  0  0  0  0  0  0  0  0  0  0  0
  -28.9800  -21.3400   20.4370 N   0  0  0  0  0  0  0  0  0  0  0  0
  -29.8560  -23.1310   19.2620 O   0  0  0  0  0  0  0  0  0  0  0  0
  -28.2290  -21.1940   21.1000 H   0  0  0  0  0  0  0  0  0  0  0  0
  -31.0090  -20.2690   19.4300 C   0  0  0  0  0  3  0  0  0  0  0  0
  -31.4560  -17.8510   19.3670 C   0  0  0  0  0  3  0  0  0  0  0  0
  -29.4040  -18.6880   20.3660 C   0  0  0  0  0  0  0  0  0  0  0  0
  -29.7650  -20.0980   20.0750 C   0  0  0  0  0  0  0  0  0  0  0  0
  -30.2450  -17.5200   20.0220 C   0  0  0  0  0  0  0  0  0  0  0  0
  -31.8290  -19.1800   19.0860 C   0  0  0  0  0  0  0  0  0  0  0  0
  -28.0840  -18.4050   21.0600 C   0  0  0  0  0  1  0  0  0  0  0  0
  -33.0110  -19.4150   18.4680 F   0  0  0  0  0  0  0  0  0  0  0  0
  -30.6340  -14.8650   19.9950 C   0  0  0  0  0  0  0  0  0  0  0  0
  -30.3560  -12.6010   18.9460 C   0  0  0  0  0  2  0  0  0  0  0  0
  -29.3550  -12.6860   17.7730 C   0  0  0  0  0  2  0  0  0  0  0  0
  -27.9140  -12.4920   18.2810 C   0  0  0  0  0  2  0  0  0  0  0  0
  -27.6050  -13.3500   19.5370 C   0  0  0  0  0  3  0  0  0  0  0  0
  -28.7270  -13.2620   20.5940 C   0  0  0  0  0  2  0  0  0  0  0  0
  -29.9790  -13.6460   19.9330 N   0  0  0  0  0  0  0  0  0  0  0  0
  -31.8170  -14.8890   19.6460 O   0  0  0  0  0  0  0  0  0  0  0  0
  -29.9200  -16.0530   20.2620 N   0  0  0  0  0  0  0  0  0  0  0  0
  -28.9850  -15.8800   20.5980 H   0  0  0  0  0  0  0  0  0  0  0  0
  -25.2600  -13.9100   20.4050 C   0  0  0  0  0  0  0  0  0  0  0  0
  -24.2190  -13.1240   20.8190 C   0  0  0  0  0  0  0  0  0  0  0  0
  -24.6870  -11.7760   20.7420 C   0  0  0  0  0  0  0  0  0  0  0  0
  -26.2930  -13.0410   20.0990 N   0  0  0  0  0  0  0  0  0  0  0  0
  -25.9600  -11.7510   20.3660 N   0  0  0  0  0  0  0  0  0  0  0  0
  -23.9760  -10.5070   20.9470 C   0  0  0  0  0  0  0  0  0  0  0  0
  -24.4360   -9.5420   21.8720 C   0  0  0  0  0  3  0  0  0  0  0  0
  -23.7220   -8.3400   22.0660 C   0  0  0  0  0  3  0  0  0  0  0  0
  -22.5340   -8.0920   21.3370 C   0  0  0  0  0  0  0  0  0  0  0  0
  -22.0940   -9.0470   20.4010 C   0  0  0  0  0  3  0  0  0  0  0  0
  -22.8080  -10.2400   20.2050 C   0  0  0  0  0  3  0  0  0  0  0  0
  -21.7900   -6.9420   21.4410 O   0  0  0  0  0  0  0  0  0  0  0  0
  -21.7460   -6.2170   22.6050 C   0  0  0  0  0  0  0  0  0  0  0  0
  -21.3140   -6.7880   23.8220 C   0  0  0  0  0  3  0  0  0  0  0  0
  -21.2170   -5.9890   24.9780 C   0  0  0  0  0  3  0  0  0  0  0  0
  -21.5400   -4.6210   24.9190 C   0  0  0  0  0  0  0  0  0  0  0  0
  -21.9650   -4.0490   23.7070 C   0  0  0  0  0  3  0  0  0  0  0  0
  -22.0640   -4.8450   22.5520 C   0  0  0  0  0  0  0  0  0  0  0  0
  -22.4530   -4.2850   21.3820 F   0  0  0  0  0  0  0  0  0  0  0  0
  -21.4400   -3.8510   26.0290 F   0  0  0  0  0  0  0  0  0  0  0  0
  -22.8350  -13.5890   21.1650 C   0  0  0  0  0  0  0  0  0  0  0  0
  -22.1540  -12.8780   22.0570 N   0  0  0  0  0  0  0  0  0  0  0  0
  -22.3690  -14.6200   20.6810 O   0  0  0  0  0  0  0  0  0  0  0  0
  -22.5450  -12.0450   22.4710 H   0  0  0  0  0  0  0  0  0  0  0  0
  -21.2270  -13.1720   22.3290 H   0  0  0  0  0  0  0  0  0  0  0  0
  -25.4070  -15.2830   20.2370 N   0  0  0  0  0  0  0  0  0  0  0  0
  -24.6350  -15.9250   20.3840 H   0  0  0  0  0  0  0  0  0  0  0  0
  -26.2120  -15.7250   19.8170 H   0  0  0  0  0  0  0  0  0  0  0  0
  -27.8690  -25.0210   20.8910 C   0  0  0  0  0  3  0  0  0  0  0  0
  -28.1430  -23.6340   20.8910 C   0  0  0  0  0  0  0  0  0  0  0  0
  -27.4050  -22.9570   21.7910 O   0  0  0  0  0  0  0  0  0  0  0  0
  -26.8590  -23.5840   22.2460 H   0  0  0  0  0  0  0  0  0  0  0  0
  -28.2570  -26.2420   20.2410 O   0  0  0  0  0  0  0  0  0  0  0  0
  -24.6210  -31.8600   23.2150 C   0  0  0  0  0  0  0  0  0  0  0  0
  -27.2400  -27.2390   20.1670 C   0  0  0  0  0  0  0  0  0  0  0  0
  -23.4300  -30.4630   21.5670 C   0  0  0  0  0  3  0  0  0  0  0  0
  -24.8930  -28.9170   20.1360 C   0  0  0  0  0  0  0  0  0  0  0  0
  -25.9770  -30.7660   21.4030 C   0  0  0  0  0  2  0  0  0  0  0  0
  -26.0650  -29.3840   20.7480 C   0  0  0  0  0  0  0  0  0  0  0  0
  -27.2450  -28.5570   20.7560 C   0  0  0  0  0  3  0  0  0  0  0  0
  -26.0510  -26.8600   19.5100 C   0  0  0  0  0  3  0  0  0  0  0  0
  -24.8950  -27.6650   19.5010 C   0  0  0  0  0  3  0  0  0  0  0  0
  -23.6560  -29.7950   20.1850 C   0  0  0  0  0  2  0  0  0  0  0  0
  -24.6940  -31.0500   22.1170 N   0  0  0  0  0  0  0  0  0  0  0  0
  -23.5340  -32.1340   23.7440 O   0  0  0  0  0  0  0  0  0  0  0  0
  -22.7610  -29.4440   22.5230 C   0  0  0  0  0  0  0  0  0  0  0  0
  -21.4320  -29.2770   22.4040 N   0  0  0  0  0  0  0  0  0  0  0  0
  -23.4380  -28.8080   23.3350 O   0  0  0  0  0  0  0  0  0  0  0  0
  -20.9430  -29.8400   21.7230 H   0  0  0  0  0  0  0  0  0  0  0  0
  -18.0480  -28.0960   22.9230 C   0  0  0  0  0  0  0  0  0  0  0  0
  -20.6120  -28.3380   23.1730 C   0  0  0  0  0  3  0  0  0  0  0  0
  -20.6990  -26.9100   22.5840 C   0  0  0  0  0  2  0  0  0  0  0  0
  -19.5860  -26.6050   21.5750 C   0  0  0  0  0  2  0  0  0  0  0  0
  -18.2100  -26.7520   22.2320 C   0  0  0  0  0  2  0  0  0  0  0  0
  -19.1760  -28.8480   23.3510 C   0  0  0  0  0  0  0  0  0  0  0  0
  -18.9690  -30.1050   23.9580 C   0  0  0  0  0  3  0  0  0  0  0  0
  -17.6670  -30.6100   24.1420 C   0  0  0  0  0  3  0  0  0  0  0  0
  -16.5550  -29.8560   23.7290 C   0  0  0  0  0  3  0  0  0  0  0  0
  -16.7470  -28.6010   23.1260 C   0  0  0  0  0  3  0  0  0  0  0  0
  -25.8960  -32.4980   23.8440 C   0  0  0  0  0  3  0  0  0  0  0  0
  -26.4070  -31.7290   25.1250 C   0  0  1  0  0  0  0  0  0  0  0  0
  -25.3070  -31.4930   26.1870 C   0  0  0  0  0  1  0  0  0  0  0  0
  -26.9920  -30.3510   24.7410 C   0  0  0  0  0  1  0  0  0  0  0  0
  -27.5530  -32.5250   25.7910 C   0  0  0  0  0  1  0  0  0  0  0  0
  -25.5800  -33.8950   24.1740 N   0  0  0  0  0  0  0  0  0  0  0  0
  -25.9100  -34.9520   23.4200 C   0  0  0  0  0  0  0  0  0  0  0  0
  -26.5830  -34.8530   22.3900 O   0  0  0  0  0  0  0  0  0  0  0  0
  -24.9830  -34.0450   24.9750 H   0  0  0  0  0  0  0  0  0  0  0  0
  -24.1790  -36.7440   23.0690 C   0  0  0  0  0  1  0  0  0  0  0  0
  -25.4190  -36.3390   23.8810 C   0  0  0  0  0  3  0  0  0  0  0  0
  -27.5510  -37.2270   24.7180 C   0  0  0  0  0  1  0  0  0  0  0  0
  -26.4490  -37.3950   23.7730 N   0  0  0  0  0  0  0  0  0  0  0  0
  -26.0400  -38.3140   23.9230 H   0  0  0  0  0  0  0  0  0  0  0  0
  1  2  1  0
  1 52  1  0
  2  4  1  0
  3  1  2  0
  5  8  1  0
  6  9  2  0
  7 11  1  0
  8  7  2  0
  8  2  1  0
  9 21  1  0
  9  7  1  0
 10  6  1  0
 10  5  2  0
 12 10  1  0
 13 21  1  0
 14 19  1  0
 15 16  1  0
 15 14  1  0
 17 16  1  0
 17 26  1  0
 17 18  1  0
 19 13  1  0
 19 18  1  0
 20 13  2  0
 21 22  1  0
 23 24  2  0
 24 43  1  0
 25 24  1  0
 25 28  1  0
 26 27  1  0
 26 23  1  0
 27 25  2  0
 28 29  1  0
 29 30  2  0
 31 34  1  0
 31 30  1  0
 32 31  2  0
 33 32  1  0
 33 28  2  0
 34 35  1  0
 35 36  1  0
 36 37  2  0
 38 37  1  0
 38 42  1  0
 39 38  2  0
 40 35  2  0
 40 39  1  0
 41 40  1  0
 43 44  1  0
 44 47  1  0
 44 46  1  0
 45 43  2  0
 48 49  1  0
 48 23  1  0
 50 48  1  0
 51 52  2  0
 52 53  1  0
 53 54  1  0
 55 51  1  0
 56 67  2  0
 57 55  1  0
 57 62  1  0
 58 66  1  0
 58 68  1  0
 59 65  1  0
 59 61  1  0
 60 66  1  0
 61 62  2  0
 61 60  1  0
 63 57  2  0
 64 63  1  0
 64 59  2  0
 65 58  1  0
 66 56  1  0
 68 70  2  0
 69 68  1  0
 71 69  1  0
 72 81  2  0
 72 77  1  0
 73 69  1  0
 73 77  1  0
 74 73  1  0
 75 76  1  0
 75 74  1  0
 76 72  1  0
 77 78  2  0
 78 79  1  0
 80 79  2  0
 81 80  1  0
 82 56  1  0
 82 87  1  0
 82 83  1  0
 83 86  1  1
 83 84  1  0
 85 83  1  0
 87 90  1  0
 88 92  1  0
 88 87  1  0
 89 88  2  0
 92 91  1  0
 94 92  1  0
 94 95  1  0
 94 93  1  0
M  ISO  4  13 100  21 100  51 101  55 101
M  END
>  <TORSDO>  (5) 
F 19

>  <SCORE>  (5) 
-13.910

>  <name>  (5) 
4

>  <ligand_id>  (5) 
4

>  <original_smiles>  (5) 
[H]OC(C(=O)N([H])c1c([H])c(F)c([H])c(N([H])C(=O)N2C([H])([H])C([H])([H])C([H])([H])C([H])(n3nc(-c4c([H])c([H])c(Oc5c([H])c([H])c(F)c([H])c5F)c([H])c4[H])c(C(=O)N([H])[H])c3N([H])[H])C2([H])[H])c1C([H])([H])[H])=C([H])Oc1c([H])c([H])c2c(c1[H])C([H])([H])N(C(=O)C([H])(N([H])C(=O)C([H])(N([H])C([H])([H])[H])C([H])([H])[H])C(C([H])([H])[H])(C([H])([H])[H])C([H])([H])[H])C([H])(C(=O)N([H])C1([H])c3c([H])c([H])c([H])c([H])c3C([H])([H])C([H])([H])C1([H])[H])C2([H])[H]

>  <smiles>  (5) 
[H]OC(C(=O)N([H])c1c([H])c(F)c([H])c(N([H])C(=O)N2C([H])([H])C([H])([H])C([H])([H])C([H])(n3nc(-c4c([H])c([H])c(Oc5c([H])c([H])c(F)c([H])c5F)c([H])c4[H])c(C(=O)N([H])[H])c3N([H])[H])C2([H])[H])c1C([H])([H])[H])=C([H])Oc1c([H])c([H])c2c(c1[H])C([H])([H])N(C(=O)C([H])(N([H])C(=O)C([H])(N([H])C([H])([H])[H])C([H])([H])[H])C(C([H])([H])[H])(C([H])([H])[H])C([H])([H])[H])C([H])(C(=O)N([H])C1([H])c3c([H])c([H])c([H])c([H])c3C([H])([H])C([H])([H])C1([H])[H])C2([H])[H]

$$$$
5:0:0
     RDKit          3D

 95103  0  0  1  0  0  0  0  0999 V2000
  -29.1030  -22.7030   20.6680 C   0  0  0  0  0  0  0  0  0  0  0  0
  -29.0420  -21.3240   20.3440 N   0  0  0  0  0  0  0  0  0  0  0  0
  -29.5890  -23.0840   21.7310 O   0  0  0  0  0  0  0  0  0  0  0  0
  -28.3970  -21.1800   19.5770 H   0  0  0  0  0  0  0  0  0  0  0  0
  -29.3230  -18.6800   20.5870 C   0  0  0  0  0  3  0  0  0  0  0  0
  -31.7890  -19.0370   21.7880 C   0  0  0  0  0  3  0  0  0  0  0  0
  -29.7750  -20.0730   20.7920 C   0  0  0  0  0  0  0  0  0  0  0  0
  -30.0900  -17.4650   20.9310 C   0  0  0  0  0  0  0  0  0  0  0  0
  -31.0780  -20.1790   21.3450 C   0  0  0  0  0  0  0  0  0  0  0  0
  -31.3080  -17.7210   21.6110 C   0  0  0  0  0  0  0  0  0  0  0  0
  -31.7030  -21.3760   21.4110 F   0  0  0  0  0  0  0  0  0  0  0  0
  -32.0360  -16.6960   22.1280 F   0  0  0  0  0  0  0  0  0  0  0  0
  -30.3850  -14.9110   20.1920 C   0  0  0  0  0  0  0  0  0  0  0  0
  -30.1430  -12.6960   18.9950 C   0  0  0  0  0  2  0  0  0  0  0  0
  -29.1400  -12.7570   17.8180 C   0  0  0  0  0  2  0  0  0  0  0  0
  -27.6970  -12.5250   18.3100 C   0  0  0  0  0  2  0  0  0  0  0  0
  -27.3670  -13.3630   19.5730 C   0  0  0  0  0  3  0  0  0  0  0  0
  -28.4730  -13.2810   20.6480 C   0  0  0  0  0  2  0  0  0  0  0  0
  -29.7390  -13.6950   20.0250 N   0  0  0  0  0  0  0  0  0  0  0  0
  -31.5280  -15.0200   19.7360 O   0  0  0  0  0  0  0  0  0  0  0  0
  -29.6810  -16.0250   20.7000 N   0  0  0  0  0  0  0  0  0  0  0  0
  -28.7320  -15.8140   20.9740 H   0  0  0  0  0  0  0  0  0  0  0  0
  -25.0120  -13.8810   20.4460 C   0  0  0  0  0  0  0  0  0  0  0  0
  -23.9870  -13.0850   20.8710 C   0  0  0  0  0  0  0  0  0  0  0  0
  -24.4700  -11.7420   20.7820 C   0  0  0  0  0  0  0  0  0  0  0  0
  -26.0570  -13.0290   20.1250 N   0  0  0  0  0  0  0  0  0  0  0  0
  -25.7410  -11.7330   20.3900 N   0  0  0  0  0  0  0  0  0  0  0  0
  -23.7760  -10.4650   20.9900 C   0  0  0  0  0  0  0  0  0  0  0  0
  -24.2600   -9.4990   21.8960 C   0  0  0  0  0  3  0  0  0  0  0  0
  -23.5650   -8.2860   22.0890 C   0  0  0  0  0  3  0  0  0  0  0  0
  -22.3670   -8.0320   21.3800 C   0  0  0  0  0  0  0  0  0  0  0  0
  -21.9010   -8.9890   20.4610 C   0  0  0  0  0  3  0  0  0  0  0  0
  -22.5960  -10.1940   20.2660 C   0  0  0  0  0  3  0  0  0  0  0  0
  -21.6320   -6.8780   21.4920 O   0  0  0  0  0  0  0  0  0  0  0  0
  -21.6310   -6.1320   22.6440 C   0  0  0  0  0  0  0  0  0  0  0  0
  -21.2390   -6.6790   23.8850 C   0  0  0  0  0  3  0  0  0  0  0  0
  -21.1870   -5.8590   25.0310 C   0  0  0  0  0  3  0  0  0  0  0  0
  -21.5150   -4.4940   24.9350 C   0  0  0  0  0  0  0  0  0  0  0  0
  -21.8990   -3.9470   23.6970 C   0  0  0  0  0  3  0  0  0  0  0  0
  -21.9550   -4.7640   22.5560 C   0  0  0  0  0  0  0  0  0  0  0  0
  -22.3040   -4.2260   21.3640 F   0  0  0  0  0  0  0  0  0  0  0  0
  -21.4590   -3.7040   26.0330 F   0  0  0  0  0  0  0  0  0  0  0  0
  -22.6020  -13.5310   21.2350 C   0  0  0  0  0  0  0  0  0  0  0  0
  -21.9390  -12.8120   22.1330 N   0  0  0  0  0  0  0  0  0  0  0  0
  -22.1180  -14.5580   20.7590 O   0  0  0  0  0  0  0  0  0  0  0  0
  -22.3450  -11.9870   22.5520 H   0  0  0  0  0  0  0  0  0  0  0  0
  -21.0080  -13.0930   22.4130 H   0  0  0  0  0  0  0  0  0  0  0  0
  -25.1470  -15.2590   20.2810 N   0  0  0  0  0  0  0  0  0  0  0  0
  -24.3770  -15.8970   20.4370 H   0  0  0  0  0  0  0  0  0  0  0  0
  -25.9560  -15.7060   19.8690 H   0  0  0  0  0  0  0  0  0  0  0  0
  -28.1790  -25.0380   19.5500 C   0  0  0  0  0  3  0  0  0  0  0  0
  -28.5060  -23.6590   19.6320 C   0  0  0  0  0  0  0  0  0  0  0  0
  -28.2520  -23.0050   18.4850 O   0  0  0  0  0  0  0  0  0  0  0  0
  -28.0090  -23.6460   17.8330 H   0  0  0  0  0  0  0  0  0  0  0  0
  -28.1870  -26.2590   20.3260 O   0  0  0  0  0  0  0  0  0  0  0  0
  -24.5920  -31.9300   23.2550 C   0  0  0  0  0  0  0  0  0  0  0  0
  -27.1360  -27.2370   20.2070 C   0  0  0  0  0  0  0  0  0  0  0  0
  -23.3710  -30.5410   21.6260 C   0  0  0  0  0  3  0  0  0  0  0  0
  -24.8040  -28.9730   20.1820 C   0  0  0  0  0  0  0  0  0  0  0  0
  -25.9230  -30.8020   21.4430 C   0  0  0  0  0  2  0  0  0  0  0  0
  -25.9870  -29.4180   20.7820 C   0  0  0  0  0  0  0  0  0  0  0  0
  -27.1510  -28.5660   20.7820 C   0  0  0  0  0  3  0  0  0  0  0  0
  -25.9180  -26.8830   19.5730 C   0  0  0  0  0  3  0  0  0  0  0  0
  -24.7810  -27.7170   19.5590 C   0  0  0  0  0  3  0  0  0  0  0  0
  -23.5780  -29.8710   20.2410 C   0  0  0  0  0  2  0  0  0  0  0  0
  -24.6470  -31.1130   22.1620 N   0  0  0  0  0  0  0  0  0  0  0  0
  -23.5140  -32.2190   23.7940 O   0  0  0  0  0  0  0  0  0  0  0  0
  -22.7010  -29.5310   22.5910 C   0  0  0  0  0  0  0  0  0  0  0  0
  -21.3720  -29.3600   22.4720 N   0  0  0  0  0  0  0  0  0  0  0  0
  -23.3760  -28.9090   23.4160 O   0  0  0  0  0  0  0  0  0  0  0  0
  -20.8860  -29.9110   21.7820 H   0  0  0  0  0  0  0  0  0  0  0  0
  -17.9900  -28.1580   22.9700 C   0  0  0  0  0  0  0  0  0  0  0  0
  -20.5470  -28.4290   23.2490 C   0  0  0  0  0  3  0  0  0  0  0  0
  -20.6550  -26.9920   22.6910 C   0  0  0  0  0  2  0  0  0  0  0  0
  -19.5590  -26.6550   21.6740 C   0  0  0  0  0  2  0  0  0  0  0  0
  -18.1730  -26.8020   22.3090 C   0  0  0  0  0  2  0  0  0  0  0  0
  -19.1040  -28.9280   23.3950 C   0  0  0  0  0  0  0  0  0  0  0  0
  -18.8760  -30.1960   23.9750 C   0  0  0  0  0  3  0  0  0  0  0  0
  -17.5690  -30.6930   24.1330 C   0  0  0  0  0  3  0  0  0  0  0  0
  -16.4690  -29.9190   23.7260 C   0  0  0  0  0  3  0  0  0  0  0  0
  -16.6810  -28.6520   23.1490 C   0  0  0  0  0  3  0  0  0  0  0  0
  -25.8830  -32.5570   23.8680 C   0  0  0  0  0  3  0  0  0  0  0  0
  -26.3910  -31.7950   25.1540 C   0  0  1  0  0  0  0  0  0  0  0  0
  -25.2990  -31.5800   26.2270 C   0  0  0  0  0  1  0  0  0  0  0  0
  -26.9610  -30.4070   24.7850 C   0  0  0  0  0  1  0  0  0  0  0  0
  -27.5530  -32.5850   25.8000 C   0  0  0  0  0  1  0  0  0  0  0  0
  -25.5870  -33.9620   24.1850 N   0  0  0  0  0  0  0  0  0  0  0  0
  -25.9150  -35.0050   23.4100 C   0  0  0  0  0  0  0  0  0  0  0  0
  -26.5620  -34.8870   22.3670 O   0  0  0  0  0  0  0  0  0  0  0  0
  -25.0050  -34.1270   24.9930 H   0  0  0  0  0  0  0  0  0  0  0  0
  -24.1840  -36.8030   23.0890 C   0  0  0  0  0  1  0  0  0  0  0  0
  -25.4500  -36.4020   23.8630 C   0  0  0  0  0  3  0  0  0  0  0  0
  -27.6120  -37.2920   24.6160 C   0  0  0  0  0  1  0  0  0  0  0  0
  -26.4850  -37.4480   23.6990 N   0  0  0  0  0  0  0  0  0  0  0  0
  -26.0880  -38.3730   23.8380 H   0  0  0  0  0  0  0  0  0  0  0  0
  1  3  2  0
  2  1  1  0
  2  7  1  0
  4  2  1  0
  5  7  2  0
  5  8  1  0
  7  9  1  0
  8 10  2  0
  9 11  1  0
  9  6  2  0
 10  6  1  0
 10 12  1  0
 13 21  1  0
 14 19  1  0
 15 16  1  0
 15 14  1  0
 17 16  1  0
 17 26  1  0
 17 18  1  0
 19 13  1  0
 19 18  1  0
 20 13  2  0
 21  8  1  0
 21 22  1  0
 23 24  2  0
 24 43  1  0
 25 24  1  0
 25 28  1  0
 26 27  1  0
 26 23  1  0
 27 25  2  0
 28 29  1  0
 29 30  2  0
 31 34  1  0
 31 30  1  0
 32 31  2  0
 33 32  1  0
 33 28  2  0
 34 35  1  0
 35 36  1  0
 36 37  2  0
 38 37  1  0
 38 42  1  0
 39 38  2  0
 40 35  2  0
 40 39  1  0
 41 40  1  0
 43 44  1  0
 44 47  1  0
 44 46  1  0
 45 43  2  0
 48 49  1  0
 48 23  1  0
 50 48  1  0
 51 52  2  0
 51 55  1  0
 52  1  1  0
 53 52  1  0
 54 53  1  0
 56 67  2  0
 57 55  1  0
 57 62  1  0
 58 66  1  0
 58 68  1  0
 59 65  1  0
 59 61  1  0
 60 66  1  0
 61 62  2  0
 61 60  1  0
 63 57  2  0
 64 63  1  0
 64 59  2  0
 65 58  1  0
 66 56  1  0
 68 70  2  0
 69 68  1  0
 71 69  1  0
 72 81  2  0
 72 77  1  0
 73 69  1  0
 73 77  1  0
 74 73  1  0
 75 76  1  0
 75 74  1  0
 76 72  1  0
 77 78  2  0
 78 79  1  0
 80 79  2  0
 81 80  1  0
 82 56  1  0
 82 87  1  0
 82 83  1  0
 83 86  1  1
 83 84  1  0
 85 83  1  0
 87 90  1  0
 88 92  1  0
 88 87  1  0
 89 88  2  0
 92 91  1  0
 94 95  1  0
 94 92  1  0
 94 93  1  0
M  ISO  4  13 100  21 100  51 101  55 101
M  END
>  <TORSDO>  (6) 
F 19

>  <SCORE>  (6) 
-14.063

>  <name>  (6) 
5

>  <ligand_id>  (6) 
5

>  <original_smiles>  (6) 
[H]OC(C(=O)N([H])c1c([H])c(N([H])C(=O)N2C([H])([H])C([H])([H])C([H])([H])C([H])(n3nc(-c4c([H])c([H])c(Oc5c([H])c([H])c(F)c([H])c5F)c([H])c4[H])c(C(=O)N([H])[H])c3N([H])[H])C2([H])[H])c(F)c([H])c1F)=C([H])Oc1c([H])c([H])c2c(c1[H])C([H])([H])N(C(=O)C([H])(N([H])C(=O)C([H])(N([H])C([H])([H])[H])C([H])([H])[H])C(C([H])([H])[H])(C([H])([H])[H])C([H])([H])[H])C([H])(C(=O)N([H])C1([H])c3c([H])c([H])c([H])c([H])c3C([H])([H])C([H])([H])C1([H])[H])C2([H])[H]

>  <smiles>  (6) 
[H]OC(C(=O)N([H])c1c([H])c(N([H])C(=O)N2C([H])([H])C([H])([H])C([H])([H])C([H])(n3nc(-c4c([H])c([H])c(Oc5c([H])c([H])c(F)c([H])c5F)c([H])c4[H])c(C(=O)N([H])[H])c3N([H])[H])C2([H])[H])c(F)c([H])c1F)=C([H])Oc1c([H])c([H])c2c(c1[H])C([H])([H])N(C(=O)C([H])(N([H])C(=O)C([H])(N([H])C([H])([H])[H])C([H])([H])[H])C(C([H])([H])[H])(C([H])([H])[H])C([H])([H])[H])C([H])(C(=O)N([H])C1([H])c3c([H])c([H])c([H])c([H])c3C([H])([H])C([H])([H])C1([H])[H])C2([H])[H]

$$$$
6:0:0
     RDKit          3D

 96104  0  0  1  0  0  0  0  0999 V2000
  -29.1610  -20.6770   20.9790 C   0  0  0  0  0  0  0  0  0  0  0  0
  -29.0860  -23.0840   21.0930 C   0  0  0  0  0  0  0  0  0  0  0  0
  -30.0800  -21.9750   19.1110 C   0  0  0  0  0  1  0  0  0  0  0  0
  -29.4290  -21.9160   20.4410 N   0  0  0  0  0  0  0  0  0  0  0  0
  -28.1460  -20.4320   21.6420 O   0  0  0  0  0  0  0  0  0  0  0  0
  -28.6830  -23.0960   22.2600 O   0  0  0  0  0  0  0  0  0  0  0  0
  -31.5520  -19.8630   20.8640 C   0  0  0  0  0  3  0  0  0  0  0  0
  -32.1330  -17.5080   20.6410 C   0  0  0  0  0  3  0  0  0  0  0  0
  -30.1750  -19.5560   20.8070 C   0  0  0  0  0  0  0  0  0  0  0  0
  -30.7630  -17.1430   20.6250 C   0  0  0  0  0  0  0  0  0  0  0  0
  -32.5210  -18.8550   20.7580 C   0  0  0  0  0  0  0  0  0  0  0  0
  -29.7930  -18.1820   20.7040 C   0  0  0  0  0  0  0  0  0  0  0  0
  -33.8350  -19.1830   20.7830 F   0  0  0  0  0  0  0  0  0  0  0  0
  -28.4840  -17.8290   20.6670 F   0  0  0  0  0  0  0  0  0  0  0  0
  -30.9380  -14.6920   20.0380 C   0  0  0  0  0  0  0  0  0  0  0  0
  -30.5510  -12.4980   18.9730 C   0  0  0  0  0  2  0  0  0  0  0  0
  -29.5450  -12.6600   17.8170 C   0  0  0  0  0  2  0  0  0  0  0  0
  -28.1090  -12.4890   18.3450 C   0  0  0  0  0  2  0  0  0  0  0  0
  -27.8240  -13.3570   19.6000 C   0  0  0  0  0  3  0  0  0  0  0  0
  -28.9550  -13.2330   20.6490 C   0  0  0  0  0  2  0  0  0  0  0  0
  -30.2330  -13.5250   19.9820 N   0  0  0  0  0  0  0  0  0  0  0  0
  -32.0370  -14.8000   19.4980 O   0  0  0  0  0  0  0  0  0  0  0  0
  -30.3070  -15.7710   20.5630 N   0  0  0  0  0  0  0  0  0  0  0  0
  -29.3550  -15.6210   20.8560 H   0  0  0  0  0  0  0  0  0  0  0  0
  -25.4850  -13.9210   20.5150 C   0  0  0  0  0  0  0  0  0  0  0  0
  -24.4450  -13.1300   20.9250 C   0  0  0  0  0  0  0  0  0  0  0  0
  -24.9020  -11.7820   20.8050 C   0  0  0  0  0  0  0  0  0  0  0  0
  -26.5120  -13.0540   20.1730 N   0  0  0  0  0  0  0  0  0  0  0  0
  -26.1690  -11.7610   20.4080 N   0  0  0  0  0  0  0  0  0  0  0  0
  -24.1880  -10.5110   20.9920 C   0  0  0  0  0  0  0  0  0  0  0  0
  -24.6350   -9.5450   21.9210 C   0  0  0  0  0  3  0  0  0  0  0  0
  -23.9220   -8.3400   22.0980 C   0  0  0  0  0  3  0  0  0  0  0  0
  -22.7490   -8.0910   21.3440 C   0  0  0  0  0  0  0  0  0  0  0  0
  -22.3210   -9.0470   20.4070 C   0  0  0  0  0  3  0  0  0  0  0  0
  -23.0330  -10.2450   20.2290 C   0  0  0  0  0  3  0  0  0  0  0  0
  -22.0070   -6.9370   21.4270 O   0  0  0  0  0  0  0  0  0  0  0  0
  -21.9180   -6.2220   22.5950 C   0  0  0  0  0  0  0  0  0  0  0  0
  -21.3860   -6.7870   23.7740 C   0  0  0  0  0  3  0  0  0  0  0  0
  -21.2480   -5.9970   24.9320 C   0  0  0  0  0  3  0  0  0  0  0  0
  -21.6320   -4.6440   24.9130 C   0  0  0  0  0  0  0  0  0  0  0  0
  -22.1550   -4.0770   23.7360 C   0  0  0  0  0  3  0  0  0  0  0  0
  -22.2950   -4.8640   22.5810 C   0  0  0  0  0  0  0  0  0  0  0  0
  -22.7810   -4.3090   21.4450 F   0  0  0  0  0  0  0  0  0  0  0  0
  -21.4920   -3.8810   26.0230 F   0  0  0  0  0  0  0  0  0  0  0  0
  -23.0720  -13.5930   21.3170 C   0  0  0  0  0  0  0  0  0  0  0  0
  -22.4010  -12.8510   22.1920 N   0  0  0  0  0  0  0  0  0  0  0  0
  -22.6030  -14.6440   20.8840 O   0  0  0  0  0  0  0  0  0  0  0  0
  -22.7910  -11.9990   22.5650 H   0  0  0  0  0  0  0  0  0  0  0  0
  -21.4820  -13.1440   22.4950 H   0  0  0  0  0  0  0  0  0  0  0  0
  -25.6330  -15.2980   20.3820 N   0  0  0  0  0  0  0  0  0  0  0  0
  -24.8680  -15.9390   20.5600 H   0  0  0  0  0  0  0  0  0  0  0  0
  -26.4600  -15.7620   20.0280 H   0  0  0  0  0  0  0  0  0  0  0  0
  -29.2520  -24.4840   20.4170 C   0  0  0  0  0  2  0  0  0  0  0  0
  -28.7320  -26.1780   22.4020 C   0  0  0  0  0  1  0  0  0  0  0  0
  -28.3630  -25.6620   20.9730 C   0  0  0  0  0  3  0  0  0  0  0  0
  -28.4540  -26.7910   20.0670 O   0  0  0  0  0  0  0  0  0  0  0  0
  -24.6140  -31.8840   23.1880 C   0  0  0  0  0  0  0  0  0  0  0  0
  -27.3140  -27.5660   20.0130 C   0  0  0  0  0  0  0  0  0  0  0  0
  -23.4310  -30.5160   21.4990 C   0  0  0  0  0  3  0  0  0  0  0  0
  -24.9120  -29.0470   20.0220 C   0  0  0  0  0  0  0  0  0  0  0  0
  -25.9520  -30.9180   21.3180 C   0  0  0  0  0  2  0  0  0  0  0  0
  -26.0570  -29.5720   20.6330 C   0  0  0  0  0  0  0  0  0  0  0  0
  -27.2650  -28.8380   20.6240 C   0  0  0  0  0  3  0  0  0  0  0  0
  -26.1660  -27.0700   19.3660 C   0  0  0  0  0  3  0  0  0  0  0  0
  -24.9600  -27.8000   19.3800 C   0  0  0  0  0  3  0  0  0  0  0  0
  -23.6490  -29.8770   20.1000 C   0  0  0  0  0  2  0  0  0  0  0  0
  -24.6850  -31.1190   22.0620 N   0  0  0  0  0  0  0  0  0  0  0  0
  -23.5290  -32.1220   23.7350 O   0  0  0  0  0  0  0  0  0  0  0  0
  -22.7950  -29.4580   22.4310 C   0  0  0  0  0  0  0  0  0  0  0  0
  -21.4760  -29.2460   22.2900 N   0  0  0  0  0  0  0  0  0  0  0  0
  -23.4860  -28.8260   23.2340 O   0  0  0  0  0  0  0  0  0  0  0  0
  -20.9670  -29.8160   21.6280 H   0  0  0  0  0  0  0  0  0  0  0  0
  -18.1260  -27.9670   22.7260 C   0  0  0  0  0  0  0  0  0  0  0  0
  -20.6790  -28.2670   23.0310 C   0  0  0  0  0  3  0  0  0  0  0  0
  -20.8150  -26.8550   22.4150 C   0  0  0  0  0  2  0  0  0  0  0  0
  -19.7270  -26.5440   21.3840 C   0  0  0  0  0  2  0  0  0  0  0  0
  -18.3370  -26.6410   22.0180 C   0  0  0  0  0  2  0  0  0  0  0  0
  -19.2280  -28.7380   23.1880 C   0  0  0  0  0  0  0  0  0  0  0  0
  -18.9760  -29.9830   23.8030 C   0  0  0  0  0  3  0  0  0  0  0  0
  -17.6610  -30.4530   23.9710 C   0  0  0  0  0  3  0  0  0  0  0  0
  -16.5750  -29.6780   23.5290 C   0  0  0  0  0  3  0  0  0  0  0  0
  -16.8110  -28.4380   22.9080 C   0  0  0  0  0  3  0  0  0  0  0  0
  -25.8890  -32.5170   23.8270 C   0  0  0  0  0  3  0  0  0  0  0  0
  -26.3990  -31.7350   25.1000 C   0  0  1  0  0  0  0  0  0  0  0  0
  -25.3000  -31.4710   26.1560 C   0  0  0  0  0  1  0  0  0  0  0  0
  -27.0000  -30.3690   24.6930 C   0  0  0  0  0  1  0  0  0  0  0  0
  -27.5340  -32.5340   25.7840 C   0  0  0  0  0  1  0  0  0  0  0  0
  -25.5650  -33.9110   24.1660 N   0  0  0  0  0  0  0  0  0  0  0  0
  -25.9140  -34.9760   23.4360 C   0  0  0  0  0  0  0  0  0  0  0  0
  -26.6110  -34.8890   22.4180 O   0  0  0  0  0  0  0  0  0  0  0  0
  -24.9370  -34.0520   24.9440 H   0  0  0  0  0  0  0  0  0  0  0  0
  -24.1910  -36.7740   23.0680 C   0  0  0  0  0  1  0  0  0  0  0  0
  -25.4110  -36.3570   23.9020 C   0  0  0  0  0  3  0  0  0  0  0  0
  -27.5190  -37.2350   24.7980 C   0  0  0  0  0  1  0  0  0  0  0  0
  -26.4440  -37.4140   23.8290 N   0  0  0  0  0  0  0  0  0  0  0  0
  -26.0350  -38.3320   23.9690 H   0  0  0  0  0  0  0  0  0  0  0  0
  1  5  2  0
  2  6  2  0
  3  4  1  0
  4  1  1  0
  4  2  1  0
  8 11  1  0
  9  7  1  0
  9  1  1  0
 10  8  2  0
 10 12  1  0
 11 13  1  0
 11  7  2  0
 12  9  2  0
 14 12  1  0
 15 23  1  0
 16 21  1  0
 17 18  1  0
 17 16  1  0
 19 18  1  0
 19 28  1  0
 19 20  1  0
 21 15  1  0
 21 20  1  0
 22 15  2  0
 23 10  1  0
 23 24  1  0
 25 26  2  0
 26 45  1  0
 27 26  1  0
 27 30  1  0
 28 29  1  0
 28 25  1  0
 29 27  2  0
 30 31  1  0
 31 32  2  0
 33 36  1  0
 33 32  1  0
 34 33  2  0
 35 34  1  0
 35 30  2  0
 36 37  1  0
 37 38  1  0
 38 39  2  0
 40 39  1  0
 40 44  1  0
 41 40  2  0
 42 37  2  0
 42 41  1  0
 43 42  1  0
 45 46  1  0
 46 49  1  0
 46 48  1  0
 47 45  2  0
 50 25  1  0
 50 51  1  0
 52 50  1  0
 53 55  1  0
 53  2  1  0
 55 54  1  0
 56 55  1  0
 57 68  2  0
 58 56  1  0
 58 63  1  0
 59 67  1  0
 59 69  1  0
 60 66  1  0
 60 62  1  0
 61 67  1  0
 62 61  1  0
 63 62  2  0
 64 65  1  0
 64 58  2  0
 65 60  2  0
 66 59  1  0
 67 57  1  0
 69 71  2  0
 70 69  1  0
 72 70  1  0
 73 82  2  0
 73 78  1  0
 74 70  1  0
 74 78  1  0
 75 74  1  0
 76 77  1  0
 76 75  1  0
 77 73  1  0
 78 79  2  0
 79 80  1  0
 81 80  2  0
 82 81  1  0
 83 57  1  0
 83 88  1  0
 83 84  1  0
 84 87  1  1
 84 85  1  0
 86 84  1  0
 88 91  1  0
 89 93  1  0
 89 88  1  0
 90 89  2  0
 93 92  1  0
 95 93  1  0
 95 96  1  0
 95 94  1  0
M  ISO  4  15 100  23 100  55 101  56 101
M  END
>  <TORSDO>  (7) 
F 19

>  <SCORE>  (7) 
-13.804

>  <name>  (7) 
6

>  <ligand_id>  (7) 
6

>  <original_smiles>  (7) 
[H]c1c([H])c([H])c2c(c1[H])C([H])([H])C([H])([H])C([H])([H])C2([H])N([H])C(=O)C1([H])N(C(=O)C([H])(N([H])C(=O)C([H])(N([H])C([H])([H])[H])C([H])([H])[H])C(C([H])([H])[H])(C([H])([H])[H])C([H])([H])[H])C([H])([H])c2c([H])c(OC([H])(C([H])([H])[H])C([H])([H])C(=O)N(C(=O)c3c([H])c(F)c([H])c(N([H])C(=O)N4C([H])([H])C([H])([H])C([H])([H])C([H])(n5nc(-c6c([H])c([H])c(Oc7c([H])c([H])c(F)c([H])c7F)c([H])c6[H])c(C(=O)N([H])[H])c5N([H])[H])C4([H])[H])c3F)C([H])([H])[H])c([H])c([H])c2C1([H])[H]

>  <smiles>  (7) 
[H]c1c([H])c([H])c2c(c1[H])C([H])([H])C([H])([H])C([H])([H])C2([H])N([H])C(=O)C1([H])N(C(=O)C([H])(N([H])C(=O)C([H])(N([H])C([H])([H])[H])C([H])([H])[H])C(C([H])([H])[H])(C([H])([H])[H])C([H])([H])[H])C([H])([H])c2c([H])c(OC([H])(C([H])([H])[H])C([H])([H])C(=O)N(C(=O)c3c([H])c(F)c([H])c(N([H])C(=O)N4C([H])([H])C([H])([H])C([H])([H])C([H])(n5nc(-c6c([H])c([H])c(Oc7c([H])c([H])c(F)c([H])c7F)c([H])c6[H])c(C(=O)N([H])[H])c5N([H])[H])C4([H])[H])c3F)C([H])([H])[H])c([H])c([H])c2C1([H])[H]

$$$$
7:0:0
     RDKit          3D

 97105  0  0  1  0  0  0  0  0999 V2000
  -28.9410  -22.7890   20.2570 C   0  0  0  0  0  0  0  0  0  0  0  0
  -29.7810  -22.0350   19.4960 N   0  0  0  0  0  0  0  0  0  0  0  0
  -28.1290  -22.2960   21.0430 O   0  0  0  0  0  0  0  0  0  0  0  0
  -30.2400  -22.6010   18.7950 H   0  0  0  0  0  0  0  0  0  0  0  0
  -31.2280  -18.0030   19.1690 C   0  0  0  0  0  3  0  0  0  0  0  0
  -31.1110  -20.3240   18.4460 C   0  0  0  0  0  3  0  0  0  0  0  0
  -29.7440  -19.5710   20.3190 C   0  0  0  0  0  3  0  0  0  0  0  0
  -31.6640  -19.0300   18.3070 C   0  0  0  0  0  0  0  0  0  0  0  0
  -30.2790  -18.2400   20.1810 C   0  0  0  0  0  0  0  0  0  0  0  0
  -30.1610  -20.6350   19.4500 C   0  0  0  0  0  0  0  0  0  0  0  0
  -32.7470  -18.7830   17.3110 C   0  0  0  0  0  0  0  0  0  0  0  0
  -33.1980  -17.3400   17.0980 C   0  0  0  0  0  1  0  0  0  0  0  0
  -33.2980  -19.6790   16.6680 O   0  0  0  0  0  0  0  0  0  0  0  0
  -30.0000  -17.0890   21.1860 C   0  0  0  0  0  2  0  0  0  0  0  0
  -30.5960  -14.6290   20.4580 C   0  0  0  0  0  0  0  0  0  0  0  0
  -30.3880  -12.4040   19.3640 C   0  0  0  0  0  2  0  0  0  0  0  0
  -29.4400  -12.5250   18.1500 C   0  0  0  0  0  2  0  0  0  0  0  0
  -27.9680  -12.3640   18.5800 C   0  0  0  0  0  2  0  0  0  0  0  0
  -27.6080  -13.2440   19.8060 C   0  0  0  0  0  3  0  0  0  0  0  0
  -28.6610  -13.0840   20.9230 C   0  0  0  0  0  2  0  0  0  0  0  0
  -29.9710  -13.4190   20.3440 N   0  0  0  0  0  0  0  0  0  0  0  0
  -31.7860  -14.7770   20.1660 O   0  0  0  0  0  0  0  0  0  0  0  0
  -29.7680  -15.6800   20.7260 N   0  0  0  0  0  0  0  0  0  0  0  0
  -28.8010  -15.4040   20.7940 H   0  0  0  0  0  0  0  0  0  0  0  0
  -25.2140  -13.8660   20.5050 C   0  0  0  0  0  0  0  0  0  0  0  0
  -24.1410  -13.1030   20.8740 C   0  0  0  0  0  0  0  0  0  0  0  0
  -24.5960  -11.7480   20.8550 C   0  0  0  0  0  0  0  0  0  0  0  0
  -26.2550  -12.9780   20.2860 N   0  0  0  0  0  0  0  0  0  0  0  0
  -25.8880  -11.7010   20.5590 N   0  0  0  0  0  0  0  0  0  0  0  0
  -23.8630  -10.4910   21.0490 C   0  0  0  0  0  0  0  0  0  0  0  0
  -24.2970   -9.5210   21.9790 C   0  0  0  0  0  3  0  0  0  0  0  0
  -23.5670   -8.3270   22.1610 C   0  0  0  0  0  3  0  0  0  0  0  0
  -22.3870   -8.0950   21.4140 C   0  0  0  0  0  0  0  0  0  0  0  0
  -21.9730   -9.0550   20.4720 C   0  0  0  0  0  3  0  0  0  0  0  0
  -22.7040  -10.2400   20.2880 C   0  0  0  0  0  3  0  0  0  0  0  0
  -21.6270   -6.9550   21.5060 O   0  0  0  0  0  0  0  0  0  0  0  0
  -21.5970   -6.2030   22.6530 C   0  0  0  0  0  0  0  0  0  0  0  0
  -21.2130   -6.7520   23.8960 C   0  0  0  0  0  3  0  0  0  0  0  0
  -21.1270   -5.9240   25.0330 C   0  0  0  0  0  3  0  0  0  0  0  0
  -21.4160   -4.5500   24.9290 C   0  0  0  0  0  0  0  0  0  0  0  0
  -21.7930   -4.0010   23.6920 C   0  0  0  0  0  3  0  0  0  0  0  0
  -21.8790   -4.8250   22.5550 C   0  0  0  0  0  0  0  0  0  0  0  0
  -22.2230   -4.2870   21.3600 F   0  0  0  0  0  0  0  0  0  0  0  0
  -21.3270   -3.7530   26.0210 F   0  0  0  0  0  0  0  0  0  0  0  0
  -22.7440  -13.5880   21.1310 C   0  0  0  0  0  0  0  0  0  0  0  0
  -22.0060  -12.8990   21.9950 N   0  0  0  0  0  0  0  0  0  0  0  0
  -22.3120  -14.6100   20.5980 O   0  0  0  0  0  0  0  0  0  0  0  0
  -22.3670  -12.0680   22.4400 H   0  0  0  0  0  0  0  0  0  0  0  0
  -21.0690  -13.2070   22.2130 H   0  0  0  0  0  0  0  0  0  0  0  0
  -25.3890  -15.2340   20.3180 N   0  0  0  0  0  0  0  0  0  0  0  0
  -24.6280  -15.8950   20.4200 H   0  0  0  0  0  0  0  0  0  0  0  0
  -26.2320  -15.6640   19.9630 H   0  0  0  0  0  0  0  0  0  0  0  0
  -28.1930  -25.1880   20.3750 C   0  0  0  0  0  3  0  0  0  0  0  0
  -29.1100  -24.2500   20.0000 C   0  0  0  0  0  0  0  0  0  0  0  0
  -30.2360  -24.6680   19.3960 O   0  0  0  0  0  0  0  0  0  0  0  0
  -30.9020  -24.0090   19.5520 H   0  0  0  0  0  0  0  0  0  0  0  0
  -28.3360  -26.5660   20.1600 O   0  0  0  0  0  0  0  0  0  0  0  0
  -24.6080  -31.8830   23.2290 C   0  0  0  0  0  0  0  0  0  0  0  0
  -27.1990  -27.3690   20.1570 C   0  0  0  0  0  0  0  0  0  0  0  0
  -23.3870  -30.4840   21.5990 C   0  0  0  0  0  3  0  0  0  0  0  0
  -24.8240  -28.9340   20.1630 C   0  0  0  0  0  0  0  0  0  0  0  0
  -25.9160  -30.8210   21.3800 C   0  0  0  0  0  2  0  0  0  0  0  0
  -25.9920  -29.4410   20.7480 C   0  0  0  0  0  0  0  0  0  0  0  0
  -27.1840  -28.6650   20.7420 C   0  0  0  0  0  3  0  0  0  0  0  0
  -26.0150  -26.9030   19.5480 C   0  0  0  0  0  3  0  0  0  0  0  0
  -24.8330  -27.6660   19.5590 C   0  0  0  0  0  3  0  0  0  0  0  0
  -23.5870  -29.8040   20.2170 C   0  0  0  0  0  2  0  0  0  0  0  0
  -24.6570  -31.0770   22.1300 N   0  0  0  0  0  0  0  0  0  0  0  0
  -23.5320  -32.1610   23.7750 O   0  0  0  0  0  0  0  0  0  0  0  0
  -22.7350  -29.4670   22.5670 C   0  0  0  0  0  0  0  0  0  0  0  0
  -21.4090  -29.2930   22.4520 N   0  0  0  0  0  0  0  0  0  0  0  0
  -23.4190  -28.8370   23.3800 O   0  0  0  0  0  0  0  0  0  0  0  0
  -20.9140  -29.8630   21.7780 H   0  0  0  0  0  0  0  0  0  0  0  0
  -18.0330  -28.1120   22.9680 C   0  0  0  0  0  0  0  0  0  0  0  0
  -20.5920  -28.3610   23.2300 C   0  0  0  0  0  3  0  0  0  0  0  0
  -20.6850  -26.9280   22.6580 C   0  0  0  0  0  2  0  0  0  0  0  0
  -19.5780  -26.6070   21.6480 C   0  0  0  0  0  2  0  0  0  0  0  0
  -18.2010  -26.7590   22.2980 C   0  0  0  0  0  2  0  0  0  0  0  0
  -19.1560  -28.8730   23.3900 C   0  0  0  0  0  0  0  0  0  0  0  0
  -18.9440  -30.1380   23.9770 C   0  0  0  0  0  3  0  0  0  0  0  0
  -17.6410  -30.6430   24.1510 C   0  0  0  0  0  3  0  0  0  0  0  0
  -16.5330  -29.8790   23.7460 C   0  0  0  0  0  3  0  0  0  0  0  0
  -16.7300  -28.6180   23.1570 C   0  0  0  0  0  3  0  0  0  0  0  0
  -25.9000  -32.5140   23.8380 C   0  0  0  0  0  3  0  0  0  0  0  0
  -25.5930  -33.9110   24.1800 N   0  0  0  0  0  0  0  0  0  0  0  0
  -25.9140  -34.9670   23.4200 C   0  0  0  0  0  0  0  0  0  0  0  0
  -26.5700  -34.8680   22.3780 O   0  0  0  0  0  0  0  0  0  0  0  0
  -25.0210  -34.0650   24.9980 H   0  0  0  0  0  0  0  0  0  0  0  0
  -24.1820  -36.7610   23.0960 C   0  0  0  0  0  1  0  0  0  0  0  0
  -25.4330  -36.3520   23.8910 C   0  0  0  0  0  3  0  0  0  0  0  0
  -27.5820  -37.2320   24.6930 C   0  0  0  0  0  1  0  0  0  0  0  0
  -26.4610  -37.4100   23.7720 N   0  0  0  0  0  0  0  0  0  0  0  0
  -26.0510  -38.3240   23.9460 H   0  0  0  0  0  0  0  0  0  0  0  0
  -26.4340  -31.7350   25.1010 C   0  0  1  0  0  0  0  0  0  0  0  0
  -25.3630  -31.4870   26.1890 C   0  0  0  0  0  1  0  0  0  0  0  0
  -27.0080  -30.3600   24.6840 C   0  0  0  0  0  1  0  0  0  0  0  0
  -27.5930  -32.5260   25.7510 C   0  0  0  0  0  1  0  0  0  0  0  0
  1  3  2  0
  2  1  1  0
  4  2  1  0
  5  9  1  0
  6 10  2  0
  8  6  1  0
  8  5  2  0
  9  7  2  0
  9 14  1  0
 10  2  1  0
 10  7  1  0
 11  8  1  0
 12 11  1  0
 13 11  2  0
 15 23  1  0
 16 21  1  0
 17 18  1  0
 17 16  1  0
 19 18  1  0
 19 28  1  0
 19 20  1  0
 21 15  1  0
 21 20  1  0
 22 15  2  0
 23 24  1  0
 23 14  1  0
 25 26  2  0
 26 45  1  0
 27 26  1  0
 27 30  1  0
 28 25  1  0
 28 29  1  0
 29 27  2  0
 30 31  1  0
 31 32  2  0
 33 36  1  0
 33 32  1  0
 34 33  2  0
 35 34  1  0
 35 30  2  0
 36 37  1  0
 37 38  1  0
 38 39  2  0
 40 39  1  0
 40 44  1  0
 41 40  2  0
 42 37  2  0
 42 41  1  0
 43 42  1  0
 45 46  1  0
 46 49  1  0
 46 48  1  0
 47 45  2  0
 50 51  1  0
 50 25  1  0
 52 50  1  0
 54  1  1  0
 54 53  2  0
 55 56  1  0
 55 54  1  0
 57 53  1  0
 58 69  2  0
 59 57  1  0
 59 64  1  0
 60 68  1  0
 60 70  1  0
 61 67  1  0
 61 63  1  0
 62 68  1  0
 63 62  1  0
 64 63  2  0
 65 66  1  0
 65 59  2  0
 66 61  2  0
 67 60  1  0
 68 58  1  0
 70 72  2  0
 71 70  1  0
 73 71  1  0
 74 83  2  0
 74 79  1  0
 75 71  1  0
 75 79  1  0
 76 75  1  0
 77 78  1  0
 77 76  1  0
 78 74  1  0
 79 80  2  0
 80 81  1  0
 82 81  2  0
 83 82  1  0
 84 58  1  0
 84 85  1  0
 84 94  1  0
 85 88  1  0
 86 90  1  0
 86 85  1  0
 87 86  2  0
 90 89  1  0
 92 90  1  0
 92 93  1  0
 92 91  1  0
 94 97  1  1
 94 95  1  0
 96 94  1  0
M  ISO  4  15 100  23 100  53 101  57 101
M  END
>  <TORSDO>  (8) 
F 21

>  <SCORE>  (8) 
-13.825

>  <name>  (8) 
7

>  <ligand_id>  (8) 
7

>  <original_smiles>  (8) 
[H]OC(C(=O)N([H])c1c([H])c(C(=O)C([H])([H])[H])c([H])c(C([H])([H])N([H])C(=O)N2C([H])([H])C([H])([H])C([H])([H])C([H])(n3nc(-c4c([H])c([H])c(Oc5c([H])c([H])c(F)c([H])c5F)c([H])c4[H])c(C(=O)N([H])[H])c3N([H])[H])C2([H])[H])c1[H])=C([H])Oc1c([H])c([H])c2c(c1[H])C([H])([H])N(C(=O)C([H])(N([H])C(=O)C([H])(N([H])C([H])([H])[H])C([H])([H])[H])C(C([H])([H])[H])(C([H])([H])[H])C([H])([H])[H])C([H])(C(=O)N([H])C1([H])c3c([H])c([H])c([H])c([H])c3C([H])([H])C([H])([H])C1([H])[H])C2([H])[H]

>  <smiles>  (8) 
[H]OC(C(=O)N([H])c1c([H])c(C(=O)C([H])([H])[H])c([H])c(C([H])([H])N([H])C(=O)N2C([H])([H])C([H])([H])C([H])([H])C([H])(n3nc(-c4c([H])c([H])c(Oc5c([H])c([H])c(F)c([H])c5F)c([H])c4[H])c(C(=O)N([H])[H])c3N([H])[H])C2([H])[H])c1[H])=C([H])Oc1c([H])c([H])c2c(c1[H])C([H])([H])N(C(=O)C([H])(N([H])C(=O)C([H])(N([H])C([H])([H])[H])C([H])([H])[H])C(C([H])([H])[H])(C([H])([H])[H])C([H])([H])[H])C([H])(C(=O)N([H])C1([H])c3c([H])c([H])c([H])c([H])c3C([H])([H])C([H])([H])C1([H])[H])C2([H])[H]

$$$$
8:0:0
     RDKit          3D

 96104  0  0  1  0  0  0  0  0999 V2000
  -29.2450  -22.7240   20.2530 C   0  0  0  0  0  0  0  0  0  0  0  0
  -29.2640  -21.3910   19.7900 N   0  0  0  0  0  0  0  0  0  0  0  0
  -29.6500  -23.0140   21.3790 O   0  0  0  0  0  0  0  0  0  0  0  0
  -28.7640  -21.3350   18.9110 H   0  0  0  0  0  0  0  0  0  0  0  0
  -32.1670  -19.2260   20.9410 C   0  0  0  0  0  3  0  0  0  0  0  0
  -31.3130  -20.3110   20.6690 C   0  0  0  0  0  3  0  0  0  0  0  0
  -31.7530  -17.8880   20.7880 C   0  0  0  0  0  3  0  0  0  0  0  0
  -29.5720  -18.7080   20.0430 C   0  0  0  0  0  0  0  0  0  0  0  0
  -29.9960  -20.1280   20.1950 C   0  0  0  0  0  0  0  0  0  0  0  0
  -30.4510  -17.5480   20.3580 C   0  0  0  0  0  0  0  0  0  0  0  0
  -30.7310  -14.9130   20.0270 C   0  0  0  0  0  0  0  0  0  0  0  0
  -30.4900  -12.6900   18.8400 C   0  0  0  0  0  2  0  0  0  0  0  0
  -29.4470  -12.7790   17.6990 C   0  0  0  0  0  2  0  0  0  0  0  0
  -28.0120  -12.5590   18.2210 C   0  0  0  0  0  2  0  0  0  0  0  0
  -27.7360  -13.3520   19.5250 C   0  0  0  0  0  3  0  0  0  0  0  0
  -28.8810  -13.1290   20.5320 C   0  0  0  0  0  2  0  0  0  0  0  0
  -30.1050  -13.6650   19.9030 N   0  0  0  0  0  0  0  0  0  0  0  0
  -31.8560  -15.0070   19.5230 O   0  0  0  0  0  0  0  0  0  0  0  0
  -29.1250  -15.9410   21.6300 C   0  0  0  0  0  1  0  0  0  0  0  0
  -30.0590  -16.0840   20.5060 N   0  0  0  0  0  0  0  0  0  0  0  0
  -25.4040  -13.9060   20.4400 C   0  0  0  0  0  0  0  0  0  0  0  0
  -24.3720  -13.1140   20.8600 C   0  0  0  0  0  0  0  0  0  0  0  0
  -24.8320  -11.7670   20.7390 C   0  0  0  0  0  0  0  0  0  0  0  0
  -26.4310  -13.0400   20.0950 N   0  0  0  0  0  0  0  0  0  0  0  0
  -26.0970  -11.7460   20.3340 N   0  0  0  0  0  0  0  0  0  0  0  0
  -24.1210  -10.4960   20.9270 C   0  0  0  0  0  0  0  0  0  0  0  0
  -24.5600   -9.5360   21.8640 C   0  0  0  0  0  3  0  0  0  0  0  0
  -23.8490   -8.3290   22.0410 C   0  0  0  0  0  3  0  0  0  0  0  0
  -22.6830   -8.0760   21.2800 C   0  0  0  0  0  0  0  0  0  0  0  0
  -22.2630   -9.0240   20.3300 C   0  0  0  0  0  3  0  0  0  0  0  0
  -22.9750  -10.2220   20.1530 C   0  0  0  0  0  3  0  0  0  0  0  0
  -21.9420   -6.9220   21.3660 O   0  0  0  0  0  0  0  0  0  0  0  0
  -21.8010   -6.2430   22.5500 C   0  0  0  0  0  0  0  0  0  0  0  0
  -21.2270   -6.8460   23.6920 C   0  0  0  0  0  3  0  0  0  0  0  0
  -21.0380   -6.0910   24.8660 C   0  0  0  0  0  3  0  0  0  0  0  0
  -21.4120   -4.7350   24.8990 C   0  0  0  0  0  0  0  0  0  0  0  0
  -21.9790   -4.1310   23.7630 C   0  0  0  0  0  3  0  0  0  0  0  0
  -22.1700   -4.8840   22.5910 C   0  0  0  0  0  0  0  0  0  0  0  0
  -22.6970   -4.2920   21.4920 F   0  0  0  0  0  0  0  0  0  0  0  0
  -21.2250   -4.0070   26.0250 F   0  0  0  0  0  0  0  0  0  0  0  0
  -22.9980  -13.5750   21.2530 C   0  0  0  0  0  0  0  0  0  0  0  0
  -22.3410  -12.8480   22.1510 N   0  0  0  0  0  0  0  0  0  0  0  0
  -22.5190  -14.6150   20.8020 O   0  0  0  0  0  0  0  0  0  0  0  0
  -22.7420  -12.0080   22.5380 H   0  0  0  0  0  0  0  0  0  0  0  0
  -21.4200  -13.1360   22.4530 H   0  0  0  0  0  0  0  0  0  0  0  0
  -25.5470  -15.2840   20.2970 N   0  0  0  0  0  0  0  0  0  0  0  0
  -24.7730  -15.9170   20.4650 H   0  0  0  0  0  0  0  0  0  0  0  0
  -26.3370  -15.7360   19.8510 H   0  0  0  0  0  0  0  0  0  0  0  0
  -28.2070  -18.4050   19.5030 C   0  0  0  0  0  0  0  0  0  0  0  0
  -27.0530  -19.3120   19.9190 C   0  0  0  0  0  1  0  0  0  0  0  0
  -27.9560  -17.4330   18.7820 O   0  0  0  0  0  0  0  0  0  0  0  0
  -28.3890  -25.1280   19.2970 C   0  0  0  0  0  3  0  0  0  0  0  0
  -28.6870  -23.7450   19.2690 C   0  0  0  0  0  0  0  0  0  0  0  0
  -28.4330  -23.1890   18.0700 O   0  0  0  0  0  0  0  0  0  0  0  0
  -28.1040  -23.8680   17.4970 H   0  0  0  0  0  0  0  0  0  0  0  0
  -28.3750  -26.2560   20.1900 O   0  0  0  0  0  0  0  0  0  0  0  0
  -24.6430  -31.8450   23.1570 C   0  0  0  0  0  0  0  0  0  0  0  0
  -27.3060  -27.2130   20.1170 C   0  0  0  0  0  0  0  0  0  0  0  0
  -23.4680  -30.4350   21.5140 C   0  0  0  0  0  3  0  0  0  0  0  0
  -24.9420  -28.8930   20.0970 C   0  0  0  0  0  0  0  0  0  0  0  0
  -26.0170  -30.7460   21.3570 C   0  0  0  0  0  2  0  0  0  0  0  0
  -26.1140  -29.3620   20.7040 C   0  0  0  0  0  0  0  0  0  0  0  0
  -27.2960  -28.5370   20.7030 C   0  0  0  0  0  3  0  0  0  0  0  0
  -26.0870  -26.8260   19.5050 C   0  0  0  0  0  3  0  0  0  0  0  0
  -24.9370  -27.6340   19.4850 C   0  0  0  0  0  3  0  0  0  0  0  0
  -23.7000  -29.7650   20.1360 C   0  0  0  0  0  2  0  0  0  0  0  0
  -24.7280  -31.0280   22.0650 N   0  0  0  0  0  0  0  0  0  0  0  0
  -23.5510  -32.1160   23.6790 O   0  0  0  0  0  0  0  0  0  0  0  0
  -22.8000  -29.4160   22.4700 C   0  0  0  0  0  0  0  0  0  0  0  0
  -21.4740  -29.2290   22.3360 N   0  0  0  0  0  0  0  0  0  0  0  0
  -23.4760  -28.7970   23.2960 O   0  0  0  0  0  0  0  0  0  0  0  0
  -20.9860  -29.7810   21.6450 H   0  0  0  0  0  0  0  0  0  0  0  0
  -18.1020  -28.0020   22.8240 C   0  0  0  0  0  0  0  0  0  0  0  0
  -20.6580  -28.2840   23.1030 C   0  0  0  0  0  3  0  0  0  0  0  0
  -20.7720  -26.8530   22.5290 C   0  0  0  0  0  2  0  0  0  0  0  0
  -19.6780  -26.5200   21.5110 C   0  0  0  0  0  2  0  0  0  0  0  0
  -18.2920  -26.6560   22.1480 C   0  0  0  0  0  2  0  0  0  0  0  0
  -19.2120  -28.7750   23.2580 C   0  0  0  0  0  0  0  0  0  0  0  0
  -18.9800  -30.0350   23.8500 C   0  0  0  0  0  3  0  0  0  0  0  0
  -17.6700  -30.5250   24.0110 C   0  0  0  0  0  3  0  0  0  0  0  0
  -16.5740  -29.7490   23.5940 C   0  0  0  0  0  3  0  0  0  0  0  0
  -16.7900  -28.4900   23.0070 C   0  0  0  0  0  3  0  0  0  0  0  0
  -25.9120  -32.4940   23.7890 C   0  0  0  0  0  3  0  0  0  0  0  0
  -26.4240  -31.7330   25.0730 C   0  0  1  0  0  0  0  0  0  0  0  0
  -25.3220  -31.4810   26.1290 C   0  0  0  0  0  1  0  0  0  0  0  0
  -27.0290  -30.3610   24.6940 C   0  0  0  0  0  1  0  0  0  0  0  0
  -27.5560  -32.5420   25.7450 C   0  0  0  0  0  1  0  0  0  0  0  0
  -25.5820  -33.8900   24.1160 N   0  0  0  0  0  0  0  0  0  0  0  0
  -25.9000  -34.9470   23.3570 C   0  0  0  0  0  0  0  0  0  0  0  0
  -26.5680  -34.8510   22.3250 O   0  0  0  0  0  0  0  0  0  0  0  0
  -24.9880  -34.0370   24.9180 H   0  0  0  0  0  0  0  0  0  0  0  0
  -24.1510  -36.7220   23.0050 C   0  0  0  0  0  1  0  0  0  0  0  0
  -25.3970  -36.3310   23.8150 C   0  0  0  0  0  3  0  0  0  0  0  0
  -27.5160  -37.2480   24.6530 C   0  0  0  0  0  1  0  0  0  0  0  0
  -26.4180  -37.3960   23.7020 N   0  0  0  0  0  0  0  0  0  0  0  0
  -25.9990  -38.3110   23.8420 H   0  0  0  0  0  0  0  0  0  0  0  0
  1  3  2  0
  2  9  1  0
  2  1  1  0
  4  2  1  0
  6  5  2  0
  7  5  1  0
  8  9  2  0
  8 10  1  0
  9  6  1  0
 10 20  1  0
 10  7  2  0
 11 20  1  0
 12 17  1  0
 13 14  1  0
 13 12  1  0
 15 14  1  0
 15 24  1  0
 15 16  1  0
 17 11  1  0
 17 16  1  0
 18 11  2  0
 20 19  1  0
 21 22  2  0
 22 41  1  0
 23 22  1  0
 23 26  1  0
 24 25  1  0
 24 21  1  0
 25 23  2  0
 26 27  1  0
 27 28  2  0
 29 32  1  0
 29 28  1  0
 30 29  2  0
 31 30  1  0
 31 26  2  0
 32 33  1  0
 33 38  2  0
 33 34  1  0
 34 35  2  0
 35 36  1  0
 36 40  1  0
 37 36  2  0
 38 37  1  0
 39 38  1  0
 41 42  1  0
 42 45  1  0
 42 44  1  0
 43 41  2  0
 46 21  1  0
 46 47  1  0
 48 46  1  0
 49 50  1  0
 49  8  1  0
 51 49  2  0
 52 56  1  0
 53 52  2  0
 53  1  1  0
 54 53  1  0
 55 54  1  0
 57 68  2  0
 58 56  1  0
 58 63  1  0
 59 67  1  0
 59 69  1  0
 60 66  1  0
 60 62  1  0
 61 67  1  0
 62 61  1  0
 63 62  2  0
 64 58  2  0
 65 64  1  0
 65 60  2  0
 66 59  1  0
 67 57  1  0
 69 71  2  0
 70 69  1  0
 72 70  1  0
 73 82  2  0
 73 78  1  0
 74 70  1  0
 74 78  1  0
 75 74  1  0
 76 77  1  0
 76 75  1  0
 77 73  1  0
 78 79  2  0
 79 80  1  0
 81 80  2  0
 82 81  1  0
 83 57  1  0
 83 88  1  0
 83 84  1  0
 84 87  1  1
 84 85  1  0
 86 84  1  0
 88 91  1  0
 89 93  1  0
 89 88  1  0
 90 89  2  0
 93 92  1  0
 95 93  1  0
 95 96  1  0
 95 94  1  0
M  ISO  4  11 100  20 100  52 101  56 101
M  END
>  <TORSDO>  (9) 
F 20

>  <SCORE>  (9) 
-13.398

>  <name>  (9) 
8

>  <ligand_id>  (9) 
8

>  <original_smiles>  (9) 
[H]OC(C(=O)N([H])c1c([H])c([H])c([H])c(N(C(=O)N2C([H])([H])C([H])([H])C([H])([H])C([H])(n3nc(-c4c([H])c([H])c(Oc5c([H])c([H])c(F)c([H])c5F)c([H])c4[H])c(C(=O)N([H])[H])c3N([H])[H])C2([H])[H])C([H])([H])[H])c1C(=O)C([H])([H])[H])=C([H])Oc1c([H])c([H])c2c(c1[H])C([H])([H])N(C(=O)C([H])(N([H])C(=O)C([H])(N([H])C([H])([H])[H])C([H])([H])[H])C(C([H])([H])[H])(C([H])([H])[H])C([H])([H])[H])C([H])(C(=O)N([H])C1([H])c3c([H])c([H])c([H])c([H])c3C([H])([H])C([H])([H])C1([H])[H])C2([H])[H]

>  <smiles>  (9) 
[H]OC(C(=O)N([H])c1c([H])c([H])c([H])c(N(C(=O)N2C([H])([H])C([H])([H])C([H])([H])C([H])(n3nc(-c4c([H])c([H])c(Oc5c([H])c([H])c(F)c([H])c5F)c([H])c4[H])c(C(=O)N([H])[H])c3N([H])[H])C2([H])[H])C([H])([H])[H])c1C(=O)C([H])([H])[H])=C([H])Oc1c([H])c([H])c2c(c1[H])C([H])([H])N(C(=O)C([H])(N([H])C(=O)C([H])(N([H])C([H])([H])[H])C([H])([H])[H])C(C([H])([H])[H])(C([H])([H])[H])C([H])([H])[H])C([H])(C(=O)N([H])C1([H])c3c([H])c([H])c([H])c([H])c3C([H])([H])C([H])([H])C1([H])[H])C2([H])[H]

$$$$
9:0:0
     RDKit          3D

 93101  0  0  1  0  0  0  0  0999 V2000
  -29.1490  -21.8690   20.9150 C   0  0  0  0  0  0  0  0  0  0  0  0
  -29.3470  -20.6570   20.3250 N   0  0  0  0  0  0  0  0  0  0  0  0
  -29.1730  -22.0600   22.1360 O   0  0  0  0  0  0  0  0  0  0  0  0
  -29.1370  -20.6380   19.3350 H   0  0  0  0  0  0  0  0  0  0  0  0
  -31.6590  -18.4340   22.3110 C   0  0  0  0  0  3  0  0  0  0  0  0
  -30.9970  -19.5780   21.8270 C   0  0  0  0  0  3  0  0  0  0  0  0
  -31.2890  -17.1490   21.8690 C   0  0  0  0  0  3  0  0  0  0  0  0
  -29.5710  -18.1550   20.4540 C   0  0  0  0  0  3  0  0  0  0  0  0
  -29.9450  -19.4670   20.8880 C   0  0  0  0  0  0  0  0  0  0  0  0
  -30.2400  -16.9870   20.9370 C   0  0  0  0  0  0  0  0  0  0  0  0
  -30.5820  -14.6040   20.1820 C   0  0  0  0  0  0  0  0  0  0  0  0
  -30.2720  -12.4470   19.0050 C   0  0  0  0  0  2  0  0  0  0  0  0
  -29.2740  -12.6450   17.8440 C   0  0  0  0  0  2  0  0  0  0  0  0
  -27.8210  -12.4850   18.3340 C   0  0  0  0  0  2  0  0  0  0  0  0
  -27.5280  -13.3020   19.6210 C   0  0  0  0  0  3  0  0  0  0  0  0
  -28.6320  -13.0850   20.6790 C   0  0  0  0  0  2  0  0  0  0  0  0
  -29.9200  -13.4190   20.0520 N   0  0  0  0  0  0  0  0  0  0  0  0
  -31.7300  -14.7650   19.7580 O   0  0  0  0  0  0  0  0  0  0  0  0
  -29.8190  -15.6570   20.5730 N   0  0  0  0  0  0  0  0  0  0  0  0
  -28.8320  -15.4650   20.6580 H   0  0  0  0  0  0  0  0  0  0  0  0
  -25.1590  -13.8880   20.4300 C   0  0  0  0  0  0  0  0  0  0  0  0
  -24.1110  -13.1050   20.8350 C   0  0  0  0  0  0  0  0  0  0  0  0
  -24.5800  -11.7570   20.7780 C   0  0  0  0  0  0  0  0  0  0  0  0
  -26.1990  -13.0140   20.1530 N   0  0  0  0  0  0  0  0  0  0  0  0
  -25.8580  -11.7290   20.4210 N   0  0  0  0  0  0  0  0  0  0  0  0
  -23.8700  -10.4890   20.9840 C   0  0  0  0  0  0  0  0  0  0  0  0
  -24.3360   -9.5230   21.9050 C   0  0  0  0  0  3  0  0  0  0  0  0
  -23.6250   -8.3200   22.1000 C   0  0  0  0  0  3  0  0  0  0  0  0
  -22.4350   -8.0730   21.3740 C   0  0  0  0  0  0  0  0  0  0  0  0
  -21.9880   -9.0270   20.4430 C   0  0  0  0  0  3  0  0  0  0  0  0
  -22.7000  -10.2220   20.2460 C   0  0  0  0  0  3  0  0  0  0  0  0
  -21.6920   -6.9210   21.4800 O   0  0  0  0  0  0  0  0  0  0  0  0
  -21.6770   -6.1780   22.6330 C   0  0  0  0  0  0  0  0  0  0  0  0
  -21.2710   -6.7280   23.8680 C   0  0  0  0  0  3  0  0  0  0  0  0
  -21.2040   -5.9100   25.0130 C   0  0  0  0  0  3  0  0  0  0  0  0
  -21.5320   -4.5440   24.9260 C   0  0  0  0  0  0  0  0  0  0  0  0
  -21.9320   -3.9940   23.6960 C   0  0  0  0  0  3  0  0  0  0  0  0
  -22.0020   -4.8080   22.5510 C   0  0  0  0  0  0  0  0  0  0  0  0
  -22.3670   -4.2690   21.3640 F   0  0  0  0  0  0  0  0  0  0  0  0
  -21.4600   -3.7570   26.0240 F   0  0  0  0  0  0  0  0  0  0  0  0
  -22.7220  -13.5710   21.1610 C   0  0  0  0  0  0  0  0  0  0  0  0
  -22.0290  -12.8610   22.0440 N   0  0  0  0  0  0  0  0  0  0  0  0
  -22.2610  -14.6010   20.6700 O   0  0  0  0  0  0  0  0  0  0  0  0
  -22.4150  -12.0270   22.4630 H   0  0  0  0  0  0  0  0  0  0  0  0
  -21.0980  -13.1540   22.3060 H   0  0  0  0  0  0  0  0  0  0  0  0
  -25.3070  -15.2610   20.2540 N   0  0  0  0  0  0  0  0  0  0  0  0
  -24.5360  -15.9050   20.3880 H   0  0  0  0  0  0  0  0  0  0  0  0
  -26.1280  -15.7070   19.8670 H   0  0  0  0  0  0  0  0  0  0  0  0
  -28.8530  -23.0420   19.9050 C   0  0  0  0  0  0  0  0  0  0  0  0
  -29.4030  -23.0790   18.7980 O   0  0  0  0  0  0  0  0  0  0  0  0
  -27.8290  -24.1450   20.2900 C   0  0  0  0  0  2  0  0  0  0  0  0
  -28.3760  -25.4560   20.9530 C   0  0  0  0  0  2  0  0  0  0  0  0
  -28.3660  -26.6860   20.1780 O   0  0  0  0  0  0  0  0  0  0  0  0
  -24.5740  -31.9420   23.2550 C   0  0  0  0  0  0  0  0  0  0  0  0
  -27.2100  -27.4470   20.2100 C   0  0  0  0  0  0  0  0  0  0  0  0
  -23.3720  -30.5410   21.6110 C   0  0  0  0  0  3  0  0  0  0  0  0
  -24.8270  -28.9890   20.1980 C   0  0  0  0  0  0  0  0  0  0  0  0
  -25.9020  -30.8820   21.4260 C   0  0  0  0  0  2  0  0  0  0  0  0
  -25.9880  -29.5040   20.7910 C   0  0  0  0  0  0  0  0  0  0  0  0
  -27.1850  -28.7440   20.7880 C   0  0  0  0  0  3  0  0  0  0  0  0
  -26.0320  -26.9560   19.6100 C   0  0  0  0  0  3  0  0  0  0  0  0
  -24.8470  -27.7160   19.6040 C   0  0  0  0  0  3  0  0  0  0  0  0
  -23.5880  -29.8560   20.2340 C   0  0  0  0  0  2  0  0  0  0  0  0
  -24.6350  -31.1370   22.1550 N   0  0  0  0  0  0  0  0  0  0  0  0
  -23.4900  -32.2190   23.7880 O   0  0  0  0  0  0  0  0  0  0  0  0
  -22.7100  -29.5250   22.5700 C   0  0  0  0  0  0  0  0  0  0  0  0
  -21.3860  -29.3460   22.4350 N   0  0  0  0  0  0  0  0  0  0  0  0
  -23.3860  -28.9000   23.3920 O   0  0  0  0  0  0  0  0  0  0  0  0
  -20.9020  -29.9010   21.7430 H   0  0  0  0  0  0  0  0  0  0  0  0
  -18.0040  -28.1650   22.9220 C   0  0  0  0  0  0  0  0  0  0  0  0
  -20.5630  -28.4100   23.2020 C   0  0  0  0  0  3  0  0  0  0  0  0
  -20.6600  -26.9790   22.6240 C   0  0  0  0  0  2  0  0  0  0  0  0
  -19.5590  -26.6640   21.6060 C   0  0  0  0  0  2  0  0  0  0  0  0
  -18.1760  -26.8150   22.2460 C   0  0  0  0  0  2  0  0  0  0  0  0
  -19.1260  -28.9210   23.3560 C   0  0  0  0  0  0  0  0  0  0  0  0
  -18.9110  -30.1860   23.9470 C   0  0  0  0  0  3  0  0  0  0  0  0
  -17.6090  -30.6940   24.1080 C   0  0  0  0  0  3  0  0  0  0  0  0
  -16.5020  -29.9340   23.6910 C   0  0  0  0  0  3  0  0  0  0  0  0
  -16.7010  -28.6720   23.1030 C   0  0  0  0  0  3  0  0  0  0  0  0
  -25.8580  -32.5700   23.8800 C   0  0  0  0  0  3  0  0  0  0  0  0
  -26.3640  -31.8040   25.1630 C   0  0  1  0  0  0  0  0  0  0  0  0
  -25.2640  -31.5750   26.2260 C   0  0  0  0  0  1  0  0  0  0  0  0
  -26.9430  -30.4220   24.7800 C   0  0  0  0  0  1  0  0  0  0  0  0
  -27.5130  -32.5960   25.8270 C   0  0  0  0  0  1  0  0  0  0  0  0
  -25.5540  -33.9720   24.1990 N   0  0  0  0  0  0  0  0  0  0  0  0
  -25.8980  -35.0180   23.4360 C   0  0  0  0  0  0  0  0  0  0  0  0
  -26.5760  -34.9040   22.4110 O   0  0  0  0  0  0  0  0  0  0  0  0
  -24.9520  -34.1340   24.9940 H   0  0  0  0  0  0  0  0  0  0  0  0
  -24.1840  -36.8180   23.0530 C   0  0  0  0  0  1  0  0  0  0  0  0
  -25.4140  -36.4120   23.8800 C   0  0  0  0  0  3  0  0  0  0  0  0
  -27.5450  -37.2890   24.7280 C   0  0  0  0  0  1  0  0  0  0  0  0
  -26.4540  -37.4580   23.7720 N   0  0  0  0  0  0  0  0  0  0  0  0
  -26.0520  -38.3820   23.9110 H   0  0  0  0  0  0  0  0  0  0  0  0
  1  3  2  0
  2  9  1  0
  2  1  1  0
  4  2  1  0
  6  5  2  0
  7  5  1  0
  8  9  2  0
  8 10  1  0
  9  6  1  0
 10  7  2  0
 11 19  1  0
 12 17  1  0
 13 14  1  0
 13 12  1  0
 15 14  1  0
 15 24  1  0
 15 16  1  0
 17 11  1  0
 17 16  1  0
 18 11  2  0
 19 20  1  0
 19 10  1  0
 21 22  2  0
 22 41  1  0
 23 22  1  0
 23 26  1  0
 24 25  1  0
 24 21  1  0
 25 23  2  0
 26 27  1  0
 27 28  2  0
 29 32  1  0
 29 28  1  0
 30 29  2  0
 31 30  1  0
 31 26  2  0
 32 33  1  0
 33 34  1  0
 34 35  2  0
 36 35  1  0
 36 40  1  0
 37 36  2  0
 38 33  2  0
 38 37  1  0
 39 38  1  0
 41 42  1  0
 42 45  1  0
 42 44  1  0
 43 41  2  0
 46 47  1  0
 46 21  1  0
 48 46  1  0
 49 51  1  0
 49  1  1  0
 50 49  2  0
 51 52  1  0
 53 55  1  0
 53 52  1  0
 54 65  2  0
 55 60  1  0
 56 64  1  0
 56 66  1  0
 57 63  1  0
 57 59  1  0
 58 64  1  0
 59 58  1  0
 60 59  2  0
 61 55  2  0
 62 61  1  0
 62 57  2  0
 63 56  1  0
 64 54  1  0
 66 68  2  0
 67 66  1  0
 69 67  1  0
 70 79  2  0
 70 75  1  0
 71 67  1  0
 71 75  1  0
 72 71  1  0
 73 74  1  0
 73 72  1  0
 74 70  1  0
 75 76  2  0
 76 77  1  0
 78 77  2  0
 79 78  1  0
 80 54  1  0
 80 85  1  0
 80 81  1  0
 81 84  1  1
 81 82  1  0
 83 81  1  0
 85 88  1  0
 86 90  1  0
 86 85  1  0
 87 86  2  0
 90 89  1  0
 92 90  1  0
 92 93  1  0
 92 91  1  0
M  ISO  4  11 100  19 100  52 101  53 101
M  END
>  <TORSDO>  (10) 
F 20

>  <SCORE>  (10) 
-13.804

>  <name>  (10) 
9

>  <ligand_id>  (10) 
9

>  <original_smiles>  (10) 
[H]c1c([H])c(N([H])C(=O)C(=O)C([H])([H])C([H])([H])Oc2c([H])c([H])c3c(c2[H])C([H])([H])N(C(=O)C([H])(N([H])C(=O)C([H])(N([H])C([H])([H])[H])C([H])([H])[H])C(C([H])([H])[H])(C([H])([H])[H])C([H])([H])[H])C([H])(C(=O)N([H])C2([H])c4c([H])c([H])c([H])c([H])c4C([H])([H])C([H])([H])C2([H])[H])C3([H])[H])c([H])c(N([H])C(=O)N2C([H])([H])C([H])([H])C([H])([H])C([H])(n3nc(-c4c([H])c([H])c(Oc5c([H])c([H])c(F)c([H])c5F)c([H])c4[H])c(C(=O)N([H])[H])c3N([H])[H])C2([H])[H])c1[H]

>  <smiles>  (10) 
[H]c1c([H])c(N([H])C(=O)C(=O)C([H])([H])C([H])([H])Oc2c([H])c([H])c3c(c2[H])C([H])([H])N(C(=O)C([H])(N([H])C(=O)C([H])(N([H])C([H])([H])[H])C([H])([H])[H])C(C([H])([H])[H])(C([H])([H])[H])C([H])([H])[H])C([H])(C(=O)N([H])C2([H])c4c([H])c([H])c([H])c([H])c4C([H])([H])C([H])([H])C2([H])[H])C3([H])[H])c([H])c(N([H])C(=O)N2C([H])([H])C([H])([H])C([H])([H])C([H])(n3nc(-c4c([H])c([H])c(Oc5c([H])c([H])c(F)c([H])c5F)c([H])c4[H])c(C(=O)N([H])[H])c3N([H])[H])C2([H])[H])c1[H]

$$$$
10:0:0
     RDKit          3D

 96104  0  0  1  0  0  0  0  0999 V2000
  -29.6300  -22.3480   22.2170 C   0  0  0  0  0  3  0  0  0  0  0  0
  -30.2620  -20.0110   21.9470 C   0  0  0  0  0  3  0  0  0  0  0  0
  -29.9180  -22.6090   20.8580 C   0  0  0  0  0  0  0  0  0  0  0  0
  -30.5670  -20.2140   20.5780 C   0  0  0  0  0  0  0  0  0  0  0  0
  -29.7990  -21.0620   22.7570 C   0  0  0  0  0  0  0  0  0  0  0  0
  -30.3720  -21.5300   20.0350 C   0  0  0  0  0  0  0  0  0  0  0  0
  -29.5330  -20.8400   24.0650 F   0  0  0  0  0  0  0  0  0  0  0  0
  -30.6550  -21.7570   18.7290 F   0  0  0  0  0  0  0  0  0  0  0  0
  -31.5360  -17.9080   20.1830 C   0  0  0  0  0  0  0  0  0  0  0  0
  -30.9630  -19.0790   19.7640 N   0  0  0  0  0  0  0  0  0  0  0  0
  -32.2910  -17.8740   21.1580 O   0  0  0  0  0  0  0  0  0  0  0  0
  -30.6220  -19.1000   18.8120 H   0  0  0  0  0  0  0  0  0  0  0  0
  -31.1360  -16.5900   19.4450 C   0  0  0  0  0  2  0  0  0  0  0  0
  -32.0390  -15.3070   19.6550 C   0  0  0  0  0  0  0  0  0  0  0  0
  -31.7910  -12.9420   18.9710 C   0  0  0  0  0  2  0  0  0  0  0  0
  -30.8010  -12.9050   17.7810 C   0  0  0  0  0  2  0  0  0  0  0  0
  -29.3420  -12.8190   18.2840 C   0  0  0  0  0  2  0  0  0  0  0  0
  -29.0280  -13.8650   19.3860 C   0  0  0  0  0  3  0  0  0  0  0  0
  -30.1290  -13.8740   20.4710 C   0  0  0  0  0  2  0  0  0  0  0  0
  -31.4280  -14.0930   19.8210 N   0  0  0  0  0  0  0  0  0  0  0  0
  -33.2250  -15.3730   19.3180 O   0  0  0  0  0  0  0  0  0  0  0  0
  -26.7770  -14.6430   20.3570 C   0  0  0  0  0  0  0  0  0  0  0  0
  -25.6630  -13.9530   20.7560 C   0  0  0  0  0  0  0  0  0  0  0  0
  -25.9740  -12.5710   20.5750 C   0  0  0  0  0  0  0  0  0  0  0  0
  -27.6980  -13.6840   19.9620 N   0  0  0  0  0  0  0  0  0  0  0  0
  -27.2250  -12.4280   20.1550 N   0  0  0  0  0  0  0  0  0  0  0  0
  -25.1320  -11.3770   20.7180 C   0  0  0  0  0  0  0  0  0  0  0  0
  -25.4380  -10.3690   21.6590 C   0  0  0  0  0  3  0  0  0  0  0  0
  -24.6050   -9.2370   21.7910 C   0  0  0  0  0  3  0  0  0  0  0  0
  -23.4510   -9.1070   20.9830 C   0  0  0  0  0  0  0  0  0  0  0  0
  -23.1630  -10.1030   20.0340 C   0  0  0  0  0  3  0  0  0  0  0  0
  -23.9960  -11.2260   19.8990 C   0  0  0  0  0  3  0  0  0  0  0  0
  -22.5970   -8.0310   21.0270 O   0  0  0  0  0  0  0  0  0  0  0  0
  -22.2880   -7.4060   22.2070 C   0  0  0  0  0  0  0  0  0  0  0  0
  -21.6780   -8.0940   23.2790 C   0  0  0  0  0  3  0  0  0  0  0  0
  -21.3150   -7.3950   24.4480 C   0  0  0  0  0  3  0  0  0  0  0  0
  -21.5510   -6.0100   24.5430 C   0  0  0  0  0  0  0  0  0  0  0  0
  -22.1530   -5.3220   23.4750 C   0  0  0  0  0  3  0  0  0  0  0  0
  -22.5190   -6.0190   22.3100 C   0  0  0  0  0  0  0  0  0  0  0  0
  -23.0790   -5.3470   21.2750 F   0  0  0  0  0  0  0  0  0  0  0  0
  -21.1950   -5.3380   25.6630 F   0  0  0  0  0  0  0  0  0  0  0  0
  -24.3480  -14.5430   21.1780 C   0  0  0  0  0  0  0  0  0  0  0  0
  -23.6230  -13.8620   22.0570 N   0  0  0  0  0  0  0  0  0  0  0  0
  -23.9780  -15.6410   20.7620 O   0  0  0  0  0  0  0  0  0  0  0  0
  -23.9380  -12.9770   22.4220 H   0  0  0  0  0  0  0  0  0  0  0  0
  -22.7390  -14.2350   22.3700 H   0  0  0  0  0  0  0  0  0  0  0  0
  -27.0720  -15.9990   20.2720 N   0  0  0  0  0  0  0  0  0  0  0  0
  -26.3730  -16.7060   20.4740 H   0  0  0  0  0  0  0  0  0  0  0  0
  -27.9060  -16.3810   19.8470 H   0  0  0  0  0  0  0  0  0  0  0  0
  -29.9490  -24.0690   20.4930 C   0  0  0  0  0  0  0  0  0  0  0  0
  -30.7350  -24.8000   21.1060 O   0  0  0  0  0  0  0  0  0  0  0  0
  -28.6060  -25.9850   19.6740 C   0  0  0  0  0  3  0  0  0  0  0  0
  -29.0080  -24.6930   19.5050 C   0  0  0  0  0  0  0  0  0  0  0  0
  -28.6380  -23.9580   18.4440 O   0  0  0  0  0  0  0  0  0  0  0  0
  -29.1620  -23.1640   18.4480 H   0  0  0  0  0  0  0  0  0  0  0  0
  -27.8990  -26.7260   18.7460 O   0  0  0  0  0  0  0  0  0  0  0  0
  -24.5450  -31.5180   22.9730 C   0  0  0  0  0  0  0  0  0  0  0  0
  -26.7710  -27.4320   19.1210 C   0  0  0  0  0  0  0  0  0  0  0  0
  -23.1430  -30.2920   21.3460 C   0  0  0  0  0  3  0  0  0  0  0  0
  -24.4030  -28.9180   19.6080 C   0  0  0  0  0  0  0  0  0  0  0  0
  -25.6280  -30.6850   20.8800 C   0  0  0  0  0  2  0  0  0  0  0  0
  -25.6330  -29.3820   20.0980 C   0  0  0  0  0  0  0  0  0  0  0  0
  -26.8200  -28.6480   19.8500 C   0  0  0  0  0  3  0  0  0  0  0  0
  -25.5250  -26.9840   18.6430 C   0  0  0  0  0  3  0  0  0  0  0  0
  -24.3430  -27.7130   18.8860 C   0  0  0  0  0  3  0  0  0  0  0  0
  -23.1800  -29.7650   19.8880 C   0  0  0  0  0  2  0  0  0  0  0  0
  -24.4640  -30.8440   21.7890 N   0  0  0  0  0  0  0  0  0  0  0  0
  -23.5390  -31.7150   23.6690 O   0  0  0  0  0  0  0  0  0  0  0  0
  -22.6060  -29.1690   22.2630 C   0  0  0  0  0  0  0  0  0  0  0  0
  -21.2920  -28.9020   22.1830 N   0  0  0  0  0  0  0  0  0  0  0  0
  -23.3670  -28.5410   23.0030 O   0  0  0  0  0  0  0  0  0  0  0  0
  -20.7240  -29.4660   21.5670 H   0  0  0  0  0  0  0  0  0  0  0  0
  -18.0680  -27.3310   22.6230 C   0  0  0  0  0  0  0  0  0  0  0  0
  -20.5830  -27.8570   22.9210 C   0  0  0  0  0  3  0  0  0  0  0  0
  -20.8400  -26.4620   22.3050 C   0  0  0  0  0  2  0  0  0  0  0  0
  -19.7830  -26.0560   21.2710 C   0  0  0  0  0  2  0  0  0  0  0  0
  -18.3920  -26.0310   21.9100 C   0  0  0  0  0  2  0  0  0  0  0  0
  -19.0970  -28.1970   23.0840 C   0  0  0  0  0  0  0  0  0  0  0  0
  -18.7410  -29.4120   23.7070 C   0  0  0  0  0  3  0  0  0  0  0  0
  -17.3910  -29.7670   23.8770 C   0  0  0  0  0  3  0  0  0  0  0  0
  -16.3760  -28.9010   23.4340 C   0  0  0  0  0  3  0  0  0  0  0  0
  -16.7160  -27.6860   22.8120 C   0  0  0  0  0  3  0  0  0  0  0  0
  -25.8990  -32.0890   23.4990 C   0  0  0  0  0  3  0  0  0  0  0  0
  -25.6460  -33.4520   23.9840 N   0  0  0  0  0  0  0  0  0  0  0  0
  -25.9890  -34.5680   23.3280 C   0  0  0  0  0  0  0  0  0  0  0  0
  -26.6240  -34.5560   22.2710 O   0  0  0  0  0  0  0  0  0  0  0  0
  -25.0790  -33.5420   24.8150 H   0  0  0  0  0  0  0  0  0  0  0  0
  -24.3340  -36.4550   23.1900 C   0  0  0  0  0  1  0  0  0  0  0  0
  -25.5610  -35.9140   23.9420 C   0  0  0  0  0  3  0  0  0  0  0  0
  -27.7300  -36.6120   24.8570 C   0  0  0  0  0  1  0  0  0  0  0  0
  -26.6350  -36.9320   23.9440 N   0  0  0  0  0  0  0  0  0  0  0  0
  -26.2630  -37.8420   24.2030 H   0  0  0  0  0  0  0  0  0  0  0  0
  -26.5490  -31.2020   24.6320 C   0  0  1  0  0  0  0  0  0  0  0  0
  -25.5820  -30.8630   25.7890 C   0  0  0  0  0  1  0  0  0  0  0  0
  -27.0770  -29.8710   24.0490 C   0  0  0  0  0  1  0  0  0  0  0  0
  -27.7700  -31.9350   25.2370 C   0  0  0  0  0  1  0  0  0  0  0  0
  1  5  1  0
  2  5  2  0
  3  1  2  0
  4  2  1  0
  5  7  1  0
  6  4  2  0
  6  3  1  0
  8  6  1  0
  9 11  2  0
 10  9  1  0
 10  4  1  0
 12 10  1  0
 13 14  1  0
 13  9  1  0
 14 20  1  0
 15 20  1  0
 16 17  1  0
 16 15  1  0
 18 17  1  0
 18 25  1  0
 18 19  1  0
 20 19  1  0
 21 14  2  0
 22 23  2  0
 23 42  1  0
 24 27  1  0
 24 23  1  0
 25 26  1  0
 25 22  1  0
 26 24  2  0
 27 28  1  0
 28 29  2  0
 30 33  1  0
 30 29  1  0
 31 30  2  0
 32 31  1  0
 32 27  2  0
 33 34  1  0
 34 39  2  0
 34 35  1  0
 35 36  2  0
 36 37  1  0
 37 41  1  0
 38 37  2  0
 39 38  1  0
 40 39  1  0
 42 43  1  0
 43 46  1  0
 43 45  1  0
 44 42  2  0
 47 22  1  0
 47 48  1  0
 49 47  1  0
 50  3  1  0
 50 51  2  0
 53 52  2  0
 53 50  1  0
 54 55  1  0
 54 53  1  0
 56 58  1  0
 56 52  1  0
 57 68  2  0
 58 63  1  0
 59 67  1  0
 59 69  1  0
 60 66  1  0
 60 62  1  0
 61 67  1  0
 62 61  1  0
 63 62  2  0
 64 65  1  0
 64 58  2  0
 65 60  2  0
 66 59  1  0
 67 57  1  0
 69 71  2  0
 70 69  1  0
 72 70  1  0
 73 82  2  0
 73 78  1  0
 74 70  1  0
 74 78  1  0
 75 74  1  0
 76 77  1  0
 76 75  1  0
 77 73  1  0
 78 79  2  0
 79 80  1  0
 81 80  2  0
 82 81  1  0
 83 57  1  0
 83 84  1  0
 83 93  1  0
 84 87  1  0
 85 89  1  0
 85 84  1  0
 86 85  2  0
 89 88  1  0
 89 91  1  0
 91 92  1  0
 91 90  1  0
 93 96  1  1
 93 94  1  0
 95 93  1  0
M  ISO  4  13 100  14 100  52 101  56 101
M  END
>  <TORSDO>  (11) 
F 21

>  <SCORE>  (11) 
-10.294

>  <name>  (11) 
10

>  <ligand_id>  (11) 
10

>  <original_smiles>  (11) 
[H]OC(C(=O)c1c([H])c(F)c([H])c(N([H])C(=O)C([H])([H])C(=O)N2C([H])([H])C([H])([H])C([H])([H])C([H])(n3nc(-c4c([H])c([H])c(Oc5c([H])c([H])c(F)c([H])c5F)c([H])c4[H])c(C(=O)N([H])[H])c3N([H])[H])C2([H])[H])c1F)=C([H])Oc1c([H])c([H])c2c(c1[H])C([H])([H])N(C(=O)C([H])(N([H])C(=O)C([H])(N([H])C([H])([H])[H])C([H])([H])[H])C(C([H])([H])[H])(C([H])([H])[H])C([H])([H])[H])C([H])(C(=O)N([H])C1([H])c3c([H])c([H])c([H])c([H])c3C([H])([H])C([H])([H])C1([H])[H])C2([H])[H]

>  <smiles>  (11) 
[H]OC(C(=O)c1c([H])c(F)c([H])c(N([H])C(=O)C([H])([H])C(=O)N2C([H])([H])C([H])([H])C([H])([H])C([H])(n3nc(-c4c([H])c([H])c(Oc5c([H])c([H])c(F)c([H])c5F)c([H])c4[H])c(C(=O)N([H])[H])c3N([H])[H])C2([H])[H])c1F)=C([H])Oc1c([H])c([H])c2c(c1[H])C([H])([H])N(C(=O)C([H])(N([H])C(=O)C([H])(N([H])C([H])([H])[H])C([H])([H])[H])C(C([H])([H])[H])(C([H])([H])[H])C([H])([H])[H])C([H])(C(=O)N([H])C1([H])c3c([H])c([H])c([H])c([H])c3C([H])([H])C([H])([H])C1([H])[H])C2([H])[H]

$$$$
11:0:0
     RDKit          3D

101109  0  0  1  0  0  0  0  0999 V2000
  -29.4220  -20.4490   20.8490 C   0  0  0  0  0  0  0  0  0  0  0  0
  -29.8540  -21.7330   20.7270 N   0  0  0  0  0  0  0  0  0  0  0  0
  -28.2250  -20.2470   21.4020 N   0  0  0  0  0  4  0  0  0  0  0  0
  -30.6130  -21.8970   20.0770 H   0  0  0  0  0  0  0  0  0  0  0  0
  -27.8600  -19.3060   21.4260 H   0  0  0  0  0  0  0  0  0  0  0  0
  -27.6170  -21.0110   21.6350 H   0  0  0  0  0  0  0  0  0  0  0  0
  -31.6610  -19.5320   20.3140 C   0  0  0  0  0  3  0  0  0  0  0  0
  -32.1030  -17.1450   20.1120 C   0  0  0  0  0  3  0  0  0  0  0  0
  -30.2850  -19.2850   20.5120 C   0  0  0  0  0  0  0  0  0  0  0  0
  -30.7290  -16.8440   20.2850 C   0  0  0  0  0  0  0  0  0  0  0  0
  -32.5610  -18.4730   20.1170 C   0  0  0  0  0  0  0  0  0  0  0  0
  -29.8280  -17.9280   20.4980 C   0  0  0  0  0  0  0  0  0  0  0  0
  -33.8810  -18.7350   19.9550 F   0  0  0  0  0  0  0  0  0  0  0  0
  -28.5200  -17.6440   20.7260 F   0  0  0  0  0  0  0  0  0  0  0  0
  -30.8780  -14.3840   19.8210 C   0  0  0  0  0  0  0  0  0  0  0  0
  -30.5350  -12.1090   18.9250 C   0  0  0  0  0  2  0  0  0  0  0  0
  -29.5180  -12.1560   17.7690 C   0  0  0  0  0  2  0  0  0  0  0  0
  -28.0820  -12.0230   18.3110 C   0  0  0  0  0  2  0  0  0  0  0  0
  -27.7980  -12.9810   19.4990 C   0  0  0  0  0  3  0  0  0  0  0  0
  -28.9310  -12.9350   20.5490 C   0  0  0  0  0  2  0  0  0  0  0  0
  -30.2010  -13.2010   19.8580 N   0  0  0  0  0  0  0  0  0  0  0  0
  -31.9600  -14.4860   19.2390 O   0  0  0  0  0  0  0  0  0  0  0  0
  -30.2460  -15.4810   20.3050 N   0  0  0  0  0  0  0  0  0  0  0  0
  -29.2980  -15.3480   20.6200 H   0  0  0  0  0  0  0  0  0  0  0  0
  -25.4930  -13.6100   20.4500 C   0  0  0  0  0  0  0  0  0  0  0  0
  -24.4460  -12.8480   20.8920 C   0  0  0  0  0  0  0  0  0  0  0  0
  -24.8690  -11.4880   20.7770 C   0  0  0  0  0  0  0  0  0  0  0  0
  -26.4910  -12.7160   20.0960 N   0  0  0  0  0  0  0  0  0  0  0  0
  -26.1260  -11.4320   20.3500 N   0  0  0  0  0  0  0  0  0  0  0  0
  -24.1340  -10.2360   20.9930 C   0  0  0  0  0  0  0  0  0  0  0  0
  -24.5310   -9.3060   21.9790 C   0  0  0  0  0  3  0  0  0  0  0  0
  -23.7950   -8.1190   22.1810 C   0  0  0  0  0  3  0  0  0  0  0  0
  -22.6470   -7.8520   21.3970 C   0  0  0  0  0  0  0  0  0  0  0  0
  -22.2700   -8.7700   20.4020 C   0  0  0  0  0  3  0  0  0  0  0  0
  -23.0060   -9.9490   20.1980 C   0  0  0  0  0  3  0  0  0  0  0  0
  -21.8870   -6.7130   21.5060 O   0  0  0  0  0  0  0  0  0  0  0  0
  -21.6910   -6.0900   22.7120 C   0  0  0  0  0  0  0  0  0  0  0  0
  -21.0610   -6.7430   23.7940 C   0  0  0  0  0  3  0  0  0  0  0  0
  -20.8180   -6.0430   24.9930 C   0  0  0  0  0  3  0  0  0  0  0  0
  -21.1940   -4.6920   25.1090 C   0  0  0  0  0  0  0  0  0  0  0  0
  -21.8170   -4.0390   24.0310 C   0  0  0  0  0  3  0  0  0  0  0  0
  -22.0620   -4.7350   22.8350 C   0  0  0  0  0  0  0  0  0  0  0  0
  -22.6430   -4.0960   21.7910 F   0  0  0  0  0  0  0  0  0  0  0  0
  -20.9540   -4.0170   26.2580 F   0  0  0  0  0  0  0  0  0  0  0  0
  -23.0910  -13.3450   21.3080 C   0  0  0  0  0  0  0  0  0  0  0  0
  -22.4310  -12.6360   22.2170 N   0  0  0  0  0  0  0  0  0  0  0  0
  -22.6330  -14.3960   20.8630 O   0  0  0  0  0  0  0  0  0  0  0  0
  -22.8160  -11.7830   22.5950 H   0  0  0  0  0  0  0  0  0  0  0  0
  -21.5260  -12.9490   22.5380 H   0  0  0  0  0  0  0  0  0  0  0  0
  -25.6750  -14.9820   20.3030 N   0  0  0  0  0  0  0  0  0  0  0  0
  -24.9390  -15.6480   20.5070 H   0  0  0  0  0  0  0  0  0  0  0  0
  -26.5050  -15.4180   19.9220 H   0  0  0  0  0  0  0  0  0  0  0  0
  -29.3680  -22.9490   21.4570 C   0  0  0  0  0  3  0  0  0  0  0  0
  -29.4470  -24.2650   20.6260 C   0  0  0  0  0  0  0  0  0  0  0  0
  -30.2510  -24.4150   19.7000 O   0  0  0  0  0  0  0  0  0  0  0  0
  -28.4660  -25.3960   21.0320 C   0  0  0  0  0  2  0  0  0  0  0  0
  -28.7120  -26.6790   20.4040 O   0  0  0  0  0  0  0  0  0  0  0  0
  -24.5990  -31.8420   23.1390 C   0  0  0  0  0  0  0  0  0  0  0  0
  -27.5560  -27.4300   20.2960 C   0  0  0  0  0  0  0  0  0  0  0  0
  -23.5270  -30.3470   21.4890 C   0  0  0  0  0  3  0  0  0  0  0  0
  -25.1080  -28.8450   20.1600 C   0  0  0  0  0  0  0  0  0  0  0  0
  -26.0440  -30.8110   21.3840 C   0  0  0  0  0  2  0  0  0  0  0  0
  -26.2190  -29.4310   20.7820 C   0  0  0  0  0  0  0  0  0  0  0  0
  -27.4510  -28.7310   20.8450 C   0  0  0  0  0  3  0  0  0  0  0  0
  -26.4320  -26.8720   19.6510 C   0  0  0  0  0  3  0  0  0  0  0  0
  -25.2110  -27.5660   19.5890 C   0  0  0  0  0  3  0  0  0  0  0  0
  -23.8240  -29.6470   20.1360 C   0  0  0  0  0  2  0  0  0  0  0  0
  -24.7390  -31.0170   22.0630 N   0  0  0  0  0  0  0  0  0  0  0  0
  -23.4850  -32.0780   23.6280 O   0  0  0  0  0  0  0  0  0  0  0  0
  -22.8820  -29.3210   22.4480 C   0  0  0  0  0  0  0  0  0  0  0  0
  -21.5700  -29.0890   22.2840 N   0  0  0  0  0  0  0  0  0  0  0  0
  -23.5610  -28.7360   23.2970 O   0  0  0  0  0  0  0  0  0  0  0  0
  -21.0810  -29.6140   21.5720 H   0  0  0  0  0  0  0  0  0  0  0  0
  -18.2120  -27.8320   22.7480 C   0  0  0  0  0  0  0  0  0  0  0  0
  -20.7620  -28.1370   23.0470 C   0  0  0  0  0  3  0  0  0  0  0  0
  -20.8980  -26.7070   22.4740 C   0  0  0  0  0  2  0  0  0  0  0  0
  -19.8130  -26.3630   21.4490 C   0  0  0  0  0  2  0  0  0  0  0  0
  -18.4210  -26.4840   22.0770 C   0  0  0  0  0  2  0  0  0  0  0  0
  -19.3120  -28.6150   23.1880 C   0  0  0  0  0  0  0  0  0  0  0  0
  -19.0640  -29.8750   23.7750 C   0  0  0  0  0  3  0  0  0  0  0  0
  -17.7490  -30.3540   23.9240 C   0  0  0  0  0  3  0  0  0  0  0  0
  -16.6630  -29.5670   23.5000 C   0  0  0  0  0  3  0  0  0  0  0  0
  -16.8950  -28.3080   22.9190 C   0  0  0  0  0  3  0  0  0  0  0  0
  -25.8280  -32.5480   23.7930 C   0  0  0  0  0  3  0  0  0  0  0  0
  -25.4240  -33.9190   24.1310 N   0  0  0  0  0  0  0  0  0  0  0  0
  -25.7000  -34.9980   23.3860 C   0  0  0  0  0  0  0  0  0  0  0  0
  -26.3920  -34.9490   22.3650 O   0  0  0  0  0  0  0  0  0  0  0  0
  -24.8080  -34.0260   24.9230 H   0  0  0  0  0  0  0  0  0  0  0  0
  -23.8720  -36.6820   23.0070 C   0  0  0  0  0  1  0  0  0  0  0  0
  -25.1150  -36.3460   23.8470 C   0  0  0  0  0  3  0  0  0  0  0  0
  -27.1620  -37.3550   24.7520 C   0  0  0  0  0  1  0  0  0  0  0  0
  -26.0820  -37.4630   23.7750 N   0  0  0  0  0  0  0  0  0  0  0  0
  -25.6150  -38.3550   23.9160 H   0  0  0  0  0  0  0  0  0  0  0  0
  -26.3700  -31.7950   25.0690 C   0  0  1  0  0  0  0  0  0  0  0  0
  -25.2650  -31.4130   26.0830 C   0  0  0  0  0  1  0  0  0  0  0  0
  -27.1090  -30.4980   24.6650 C   0  0  0  0  0  1  0  0  0  0  0  0
  -27.4040  -32.6820   25.8020 C   0  0  0  0  0  1  0  0  0  0  0  0
  -30.2240  -23.1350   22.7410 C   0  0  0  0  0  2  0  0  0  0  0  0
  -29.3310  -21.3310   24.3180 C   0  0  0  0  0  1  0  0  0  0  0  0
  -31.7250  -22.1070   24.5000 C   0  0  0  0  0  1  0  0  0  0  0  0
  -30.5500  -21.8550   23.5410 C   0  0  0  0  0  3  0  0  0  0  0  0
  1  3  2  0
  2  1  1  0
  2 53  1  0
  3  5  1  0
  3  6  1  0
  4  2  1  0
  7  9  1  0
  8 11  1  0
  8 10  2  0
  9  1  1  0
 10 23  1  0
 10 12  1  0
 11  7  2  0
 12  9  2  0
 12 14  1  0
 13 11  1  0
 15 21  1  0
 15 23  1  0
 16 21  1  0
 17 18  1  0
 17 16  1  0
 19 18  1  0
 19 28  1  0
 19 20  1  0
 21 20  1  0
 22 15  2  0
 23 24  1  0
 25 26  2  0
 26 45  1  0
 27 26  1  0
 27 30  1  0
 28 29  1  0
 28 25  1  0
 29 27  2  0
 30 31  1  0
 31 32  2  0
 33 36  1  0
 33 32  1  0
 34 33  2  0
 35 34  1  0
 35 30  2  0
 36 37  1  0
 37 42  2  0
 37 38  1  0
 38 39  2  0
 39 40  1  0
 40 44  1  0
 41 40  2  0
 42 41  1  0
 43 42  1  0
 45 46  1  0
 46 49  1  0
 46 48  1  0
 47 45  2  0
 50 25  1  0
 50 51  1  0
 52 50  1  0
 53 98  1  0
 54 56  1  0
 54 53  1  0
 55 54  2  0
 57 56  1  0
 58 69  2  0
 59 57  1  0
 59 64  1  0
 60 68  1  0
 60 70  1  0
 61 63  1  0
 62 68  1  0
 63 64  2  0
 63 62  1  0
 65 59  2  0
 66 65  1  0
 66 61  2  0
 67 61  1  0
 67 60  1  0
 68 58  1  0
 70 72  2  0
 71 70  1  0
 73 71  1  0
 74 83  2  0
 74 79  1  0
 75 71  1  0
 75 79  1  0
 76 75  1  0
 77 78  1  0
 77 76  1  0
 78 74  1  0
 79 80  2  0
 80 81  1  0
 82 81  2  0
 83 82  1  0
 84 58  1  0
 84 85  1  0
 84 94  1  0
 85 88  1  0
 86 90  1  0
 86 85  1  0
 87 86  2  0
 90 89  1  0
 92 90  1  0
 92 93  1  0
 92 91  1  0
 94 97  1  1
 94 95  1  0
 96 94  1  0
 98101  1  0
101 99  1  0
101100  1  0
M  ISO  4  15 100  23 100  56 101  57 101
M  END
>  <TORSDO>  (12) 
F 22

>  <SCORE>  (12) 
-11.839

>  <name>  (12) 
11

>  <ligand_id>  (12) 
11

>  <original_smiles>  (12) 
[H]c1c([H])c([H])c2c(c1[H])C([H])([H])C([H])([H])C([H])([H])C2([H])N([H])C(=O)C1([H])N(C(=O)C([H])(N([H])C(=O)C([H])(N([H])C([H])([H])[H])C([H])([H])[H])C(C([H])([H])[H])(C([H])([H])[H])C([H])([H])[H])C([H])([H])c2c([H])c(OC([H])([H])C(=O)C([H])(N([H])C(c3c([H])c(F)c([H])c(N([H])C(=O)N4C([H])([H])C([H])([H])C([H])([H])C([H])(n5nc(-c6c([H])c([H])c(Oc7c([H])c([H])c(F)c([H])c7F)c([H])c6[H])c(C(=O)N([H])[H])c5N([H])[H])C4([H])[H])c3F)=[N+]([H])[H])C([H])([H])C([H])(C([H])([H])[H])C([H])([H])[H])c([H])c([H])c2C1([H])[H]

>  <smiles>  (12) 
[H]c1c([H])c([H])c2c(c1[H])C([H])([H])C([H])([H])C([H])([H])C2([H])N([H])C(=O)C1([H])N(C(=O)C([H])(N([H])C(=O)C([H])(N([H])C([H])([H])[H])C([H])([H])[H])C(C([H])([H])[H])(C([H])([H])[H])C([H])([H])[H])C([H])([H])c2c([H])c(OC([H])([H])C(=O)C([H])(N([H])C(c3c([H])c(F)c([H])c(N([H])C(=O)N4C([H])([H])C([H])([H])C([H])([H])C([H])(n5nc(-c6c([H])c([H])c(Oc7c([H])c([H])c(F)c([H])c7F)c([H])c6[H])c(C(=O)N([H])[H])c5N([H])[H])C4([H])[H])c3F)=[N+]([H])[H])C([H])([H])C([H])(C([H])([H])[H])C([H])([H])[H])c([H])c([H])c2C1([H])[H]

$$$$
12:0:0
     RDKit          3D

 96104  0  0  1  0  0  0  0  0999 V2000
  -28.9610  -21.9040   20.1830 C   0  0  0  0  0  0  0  0  0  0  0  0
  -28.6150  -20.5910   20.1040 N   0  0  0  0  0  0  0  0  0  0  0  0
  -30.1110  -22.3270   20.0320 O   0  0  0  0  0  0  0  0  0  0  0  0
  -27.6710  -20.3940   20.4140 H   0  0  0  0  0  0  0  0  0  0  0  0
  -29.2760  -18.1860   20.2670 C   0  0  0  0  0  3  0  0  0  0  0  0
  -30.8380  -17.2020   18.6810 C   0  0  0  0  0  3  0  0  0  0  0  0
  -29.9990  -17.0370   19.8100 C   0  0  0  0  0  0  0  0  0  0  0  0
  -29.4050  -19.4690   19.6370 C   0  0  0  0  0  0  0  0  0  0  0  0
  -30.2510  -19.5810   18.4940 C   0  0  0  0  0  0  0  0  0  0  0  0
  -30.9710  -18.4490   18.0410 C   0  0  0  0  0  0  0  0  0  0  0  0
  -31.7920  -18.5620   16.9680 F   0  0  0  0  0  0  0  0  0  0  0  0
  -30.6240  -14.6360   20.3460 C   0  0  0  0  0  0  0  0  0  0  0  0
  -30.3920  -12.4050   19.3530 C   0  0  0  0  0  2  0  0  0  0  0  0
  -29.4530  -12.5370   18.1330 C   0  0  0  0  0  2  0  0  0  0  0  0
  -27.9770  -12.3920   18.5610 C   0  0  0  0  0  2  0  0  0  0  0  0
  -27.6160  -13.2650   19.7930 C   0  0  0  0  0  3  0  0  0  0  0  0
  -28.6760  -13.1280   20.9100 C   0  0  0  0  0  2  0  0  0  0  0  0
  -29.9870  -13.4320   20.3250 N   0  0  0  0  0  0  0  0  0  0  0  0
  -31.8210  -14.7390   20.0810 O   0  0  0  0  0  0  0  0  0  0  0  0
  -29.8140  -15.7320   20.4280 N   0  0  0  0  0  0  0  0  0  0  0  0
  -28.8830  -15.5440   20.7650 H   0  0  0  0  0  0  0  0  0  0  0  0
  -25.2240  -13.8650   20.5060 C   0  0  0  0  0  0  0  0  0  0  0  0
  -24.1500  -13.0950   20.8670 C   0  0  0  0  0  0  0  0  0  0  0  0
  -24.6140  -11.7440   20.8480 C   0  0  0  0  0  0  0  0  0  0  0  0
  -26.2660  -12.9830   20.2790 N   0  0  0  0  0  0  0  0  0  0  0  0
  -25.9050  -11.7020   20.5500 N   0  0  0  0  0  0  0  0  0  0  0  0
  -23.8840  -10.4830   21.0440 C   0  0  0  0  0  0  0  0  0  0  0  0
  -24.3100   -9.5230   21.9890 C   0  0  0  0  0  3  0  0  0  0  0  0
  -23.5890   -8.3240   22.1690 C   0  0  0  0  0  3  0  0  0  0  0  0
  -22.4230   -8.0760   21.4040 C   0  0  0  0  0  0  0  0  0  0  0  0
  -22.0120   -9.0260   20.4510 C   0  0  0  0  0  3  0  0  0  0  0  0
  -22.7350  -10.2170   20.2720 C   0  0  0  0  0  3  0  0  0  0  0  0
  -21.6780   -6.9260   21.4850 O   0  0  0  0  0  0  0  0  0  0  0  0
  -21.6200   -6.1890   22.6410 C   0  0  0  0  0  0  0  0  0  0  0  0
  -21.1640   -6.7440   23.8580 C   0  0  0  0  0  3  0  0  0  0  0  0
  -21.0540   -5.9310   25.0050 C   0  0  0  0  0  3  0  0  0  0  0  0
  -21.3950   -4.5660   24.9340 C   0  0  0  0  0  0  0  0  0  0  0  0
  -21.8480   -4.0140   23.7220 C   0  0  0  0  0  3  0  0  0  0  0  0
  -21.9540   -4.8230   22.5790 C   0  0  0  0  0  0  0  0  0  0  0  0
  -22.3700   -4.2830   21.4080 F   0  0  0  0  0  0  0  0  0  0  0  0
  -21.2840   -3.7810   26.0290 F   0  0  0  0  0  0  0  0  0  0  0  0
  -22.7540  -13.5770   21.1290 C   0  0  0  0  0  0  0  0  0  0  0  0
  -22.0160  -12.8890   21.9900 N   0  0  0  0  0  0  0  0  0  0  0  0
  -22.3240  -14.6040   20.6040 O   0  0  0  0  0  0  0  0  0  0  0  0
  -22.3720  -12.0560   22.4340 H   0  0  0  0  0  0  0  0  0  0  0  0
  -21.0840  -13.2060   22.2080 H   0  0  0  0  0  0  0  0  0  0  0  0
  -25.4020  -15.2340   20.3220 N   0  0  0  0  0  0  0  0  0  0  0  0
  -24.6540  -15.9100   20.4150 H   0  0  0  0  0  0  0  0  0  0  0  0
  -26.2540  -15.6310   19.9470 H   0  0  0  0  0  0  0  0  0  0  0  0
  -30.3700  -20.7440   17.7760 O   0  0  0  0  0  0  0  0  0  0  0  0
  -30.1470  -21.5260   18.2770 H   0  0  0  0  0  0  0  0  0  0  0  0
  -27.7520  -22.8700   20.4610 C   0  0  0  0  0  0  0  0  0  0  0  0
  -26.5840  -22.4870   20.3360 O   0  0  0  0  0  0  0  0  0  0  0  0
  -28.0410  -24.3240   20.9260 C   0  0  0  0  0  2  0  0  0  0  0  0
  -28.4920  -25.3390   19.8330 C   0  0  0  0  0  2  0  0  0  0  0  0
  -28.4430  -26.7230   20.2650 O   0  0  0  0  0  0  0  0  0  0  0  0
  -24.5750  -31.9160   23.2730 C   0  0  0  0  0  0  0  0  0  0  0  0
  -27.2580  -27.4430   20.2320 C   0  0  0  0  0  0  0  0  0  0  0  0
  -23.3920  -30.5060   21.6250 C   0  0  0  0  0  3  0  0  0  0  0  0
  -24.8610  -28.9720   20.2070 C   0  0  0  0  0  0  0  0  0  0  0  0
  -25.9240  -30.8600   21.4590 C   0  0  0  0  0  2  0  0  0  0  0  0
  -26.0140  -29.4900   20.8100 C   0  0  0  0  0  0  0  0  0  0  0  0
  -27.2150  -28.7390   20.8110 C   0  0  0  0  0  3  0  0  0  0  0  0
  -26.0800  -26.9420   19.6330 C   0  0  0  0  0  3  0  0  0  0  0  0
  -24.8940  -27.6990   19.6130 C   0  0  0  0  0  3  0  0  0  0  0  0
  -23.6130  -29.8300   20.2450 C   0  0  0  0  0  2  0  0  0  0  0  0
  -24.6490  -31.1110   22.1750 N   0  0  0  0  0  0  0  0  0  0  0  0
  -23.4870  -32.1900   23.7990 O   0  0  0  0  0  0  0  0  0  0  0  0
  -22.7380  -29.4820   22.5790 C   0  0  0  0  0  0  0  0  0  0  0  0
  -21.4180  -29.2950   22.4320 N   0  0  0  0  0  0  0  0  0  0  0  0
  -23.4150  -28.8620   23.4030 O   0  0  0  0  0  0  0  0  0  0  0  0
  -20.9420  -29.8460   21.7320 H   0  0  0  0  0  0  0  0  0  0  0  0
  -18.0340  -28.1100   22.9060 C   0  0  0  0  0  0  0  0  0  0  0  0
  -20.5900  -28.3570   23.1910 C   0  0  0  0  0  3  0  0  0  0  0  0
  -20.6900  -26.9310   22.6070 C   0  0  0  0  0  2  0  0  0  0  0  0
  -19.5910  -26.6160   21.5860 C   0  0  0  0  0  2  0  0  0  0  0  0
  -18.2040  -26.7660   22.2200 C   0  0  0  0  0  2  0  0  0  0  0  0
  -19.1530  -28.8660   23.3450 C   0  0  0  0  0  0  0  0  0  0  0  0
  -18.9370  -30.1260   23.9440 C   0  0  0  0  0  3  0  0  0  0  0  0
  -17.6340  -30.6280   24.1110 C   0  0  0  0  0  3  0  0  0  0  0  0
  -16.5290  -29.8690   23.6900 C   0  0  0  0  0  3  0  0  0  0  0  0
  -16.7290  -28.6120   23.0930 C   0  0  0  0  0  3  0  0  0  0  0  0
  -25.8500  -32.5510   23.9060 C   0  0  0  0  0  3  0  0  0  0  0  0
  -25.5400  -33.9550   24.2130 N   0  0  0  0  0  0  0  0  0  0  0  0
  -25.8880  -34.9960   23.4470 C   0  0  0  0  0  0  0  0  0  0  0  0
  -26.5800  -34.8780   22.4320 O   0  0  0  0  0  0  0  0  0  0  0  0
  -24.9310  -34.1170   25.0020 H   0  0  0  0  0  0  0  0  0  0  0  0
  -24.1760  -36.7900   23.0170 C   0  0  0  0  0  1  0  0  0  0  0  0
  -25.3900  -36.3920   23.8710 C   0  0  0  0  0  3  0  0  0  0  0  0
  -27.5020  -37.2770   24.7620 C   0  0  0  0  0  1  0  0  0  0  0  0
  -26.4310  -37.4390   23.7800 N   0  0  0  0  0  0  0  0  0  0  0  0
  -26.0260  -38.3650   23.8960 H   0  0  0  0  0  0  0  0  0  0  0  0
  -26.3410  -31.7950   25.2010 C   0  0  1  0  0  0  0  0  0  0  0  0
  -25.2280  -31.5700   26.2500 C   0  0  0  0  0  1  0  0  0  0  0  0
  -26.9300  -30.4110   24.8390 C   0  0  0  0  0  1  0  0  0  0  0  0
  -27.4850  -32.5970   25.8660 C   0  0  0  0  0  1  0  0  0  0  0  0
  1 52  1  0
  2  1  1  0
  2  4  1  0
  3  1  2  0
  6  7  2  0
  7  5  1  0
  7 20  1  0
  8  2  1  0
  8  5  2  0
  9  8  1  0
 10  9  2  0
 10  6  1  0
 11 10  1  0
 12 20  1  0
 13 18  1  0
 14 15  1  0
 14 13  1  0
 16 15  1  0
 16 25  1  0
 16 17  1  0
 18 12  1  0
 18 17  1  0
 19 12  2  0
 20 21  1  0
 22 23  2  0
 23 42  1  0
 24 23  1  0
 24 27  1  0
 25 22  1  0
 25 26  1  0
 26 24  2  0
 27 28  1  0
 28 29  2  0
 30 33  1  0
 30 29  1  0
 31 30  2  0
 32 31  1  0
 32 27  2  0
 33 34  1  0
 34 35  1  0
 35 36  2  0
 37 36  1  0
 37 41  1  0
 38 37  2  0
 39 34  2  0
 39 38  1  0
 40 39  1  0
 42 43  1  0
 43 46  1  0
 43 45  1  0
 44 42  2  0
 47 48  1  0
 47 22  1  0
 49 47  1  0
 50 51  1  0
 50  9  1  0
 52 54  1  0
 53 52  2  0
 55 56  1  0
 55 54  1  0
 57 68  2  0
 58 56  1  0
 58 63  1  0
 59 67  1  0
 59 69  1  0
 60 66  1  0
 60 62  1  0
 61 67  1  0
 62 63  2  0
 62 61  1  0
 64 58  2  0
 65 64  1  0
 65 60  2  0
 66 59  1  0
 67 57  1  0
 69 71  2  0
 70 69  1  0
 72 70  1  0
 73 82  2  0
 73 78  1  0
 74 70  1  0
 74 78  1  0
 75 74  1  0
 76 77  1  0
 76 75  1  0
 77 73  1  0
 78 79  2  0
 79 80  1  0
 81 80  2  0
 82 81  1  0
 83 57  1  0
 83 84  1  0
 83 93  1  0
 84 87  1  0
 85 89  1  0
 85 84  1  0
 86 85  2  0
 89 88  1  0
 91 89  1  0
 91 92  1  0
 91 90  1  0
 93 96  1  1
 93 94  1  0
 95 93  1  0
M  ISO  4  12 100  20 100  55 101  56 101
M  END
>  <TORSDO>  (13) 
F 21

>  <SCORE>  (13) 
-13.831

>  <name>  (13) 
12

>  <ligand_id>  (13) 
12

>  <original_smiles>  (13) 
[H]Oc1c(F)c([H])c(N([H])C(=O)N2C([H])([H])C([H])([H])C([H])([H])C([H])(n3nc(-c4c([H])c([H])c(Oc5c([H])c([H])c(F)c([H])c5F)c([H])c4[H])c(C(=O)N([H])[H])c3N([H])[H])C2([H])[H])c([H])c1N([H])C(=O)C(=O)C([H])([H])C([H])([H])Oc1c([H])c([H])c2c(c1[H])C([H])([H])N(C(=O)C([H])(N([H])C(=O)C([H])(N([H])C([H])([H])[H])C([H])([H])[H])C(C([H])([H])[H])(C([H])([H])[H])C([H])([H])[H])C([H])(C(=O)N([H])C1([H])c3c([H])c([H])c([H])c([H])c3C([H])([H])C([H])([H])C1([H])[H])C2([H])[H]

>  <smiles>  (13) 
[H]Oc1c(F)c([H])c(N([H])C(=O)N2C([H])([H])C([H])([H])C([H])([H])C([H])(n3nc(-c4c([H])c([H])c(Oc5c([H])c([H])c(F)c([H])c5F)c([H])c4[H])c(C(=O)N([H])[H])c3N([H])[H])C2([H])[H])c([H])c1N([H])C(=O)C(=O)C([H])([H])C([H])([H])Oc1c([H])c([H])c2c(c1[H])C([H])([H])N(C(=O)C([H])(N([H])C(=O)C([H])(N([H])C([H])([H])[H])C([H])([H])[H])C(C([H])([H])[H])(C([H])([H])[H])C([H])([H])[H])C([H])(C(=O)N([H])C1([H])c3c([H])c([H])c([H])c([H])c3C([H])([H])C([H])([H])C1([H])[H])C2([H])[H]

$$$$
13:0:0
     RDKit          3D

 97105  0  0  1  0  0  0  0  0999 V2000
  -29.4080  -22.0560   20.9900 N   0  0  0  0  0  4  0  0  0  0  0  0
  -29.2850  -22.8050   21.6630 H   0  0  0  0  0  0  0  0  0  0  0  0
  -28.6030  -21.4620   21.1100 H   0  0  0  0  0  0  0  0  0  0  0  0
  -31.9730  -22.0360   21.3520 C   0  0  0  0  0  1  0  0  0  0  0  0
  -30.6220  -21.2900   21.4220 C   0  0  0  0  0  3  0  0  0  0  0  0
  -31.8850  -19.0750   20.8980 C   0  0  0  0  0  3  0  0  0  0  0  0
  -31.8930  -17.6620   20.7720 C   0  0  0  0  0  3  0  0  0  0  0  0
  -30.6710  -19.7910   21.0490 C   0  0  0  0  0  0  0  0  0  0  0  0
  -30.6780  -16.9320   20.7830 C   0  0  0  0  0  0  0  0  0  0  0  0
  -29.4620  -19.0590   21.0020 C   0  0  0  0  0  0  0  0  0  0  0  0
  -29.4680  -17.6530   20.8710 C   0  0  0  0  0  0  0  0  0  0  0  0
  -28.2790  -19.7100   21.1180 F   0  0  0  0  0  0  0  0  0  0  0  0
  -28.2920  -16.9800   20.8560 F   0  0  0  0  0  0  0  0  0  0  0  0
  -31.1840  -14.5670   19.9970 C   0  0  0  0  0  0  0  0  0  0  0  0
  -30.7770  -12.4300   18.8180 C   0  0  0  0  0  2  0  0  0  0  0  0
  -29.7690  -12.6740   17.6750 C   0  0  0  0  0  2  0  0  0  0  0  0
  -28.3150  -12.5860   18.1840 C   0  0  0  0  0  2  0  0  0  0  0  0
  -28.0810  -13.4160   19.4750 C   0  0  0  0  0  3  0  0  0  0  0  0
  -29.1840  -13.1160   20.5150 C   0  0  0  0  0  2  0  0  0  0  0  0
  -30.4910  -13.3990   19.8880 N   0  0  0  0  0  0  0  0  0  0  0  0
  -32.2590  -14.7640   19.4210 O   0  0  0  0  0  0  0  0  0  0  0  0
  -30.5550  -15.5060   20.7290 N   0  0  0  0  0  0  0  0  0  0  0  0
  -29.7370  -15.1540   21.2050 H   0  0  0  0  0  0  0  0  0  0  0  0
  -25.7540  -14.1140   20.3310 C   0  0  0  0  0  0  0  0  0  0  0  0
  -24.6740  -13.3800   20.7430 C   0  0  0  0  0  0  0  0  0  0  0  0
  -25.0700  -12.0100   20.6530 C   0  0  0  0  0  0  0  0  0  0  0  0
  -26.7440  -13.1920   20.0210 N   0  0  0  0  0  0  0  0  0  0  0  0
  -26.3360  -11.9210   20.2690 N   0  0  0  0  0  0  0  0  0  0  0  0
  -24.2980  -10.7770   20.8540 C   0  0  0  0  0  0  0  0  0  0  0  0
  -24.6760   -9.8200   21.8210 C   0  0  0  0  0  3  0  0  0  0  0  0
  -23.9090   -8.6500   22.0090 C   0  0  0  0  0  3  0  0  0  0  0  0
  -22.7480   -8.4310   21.2300 C   0  0  0  0  0  0  0  0  0  0  0  0
  -22.3890   -9.3760   20.2520 C   0  0  0  0  0  3  0  0  0  0  0  0
  -23.1570  -10.5370   20.0630 C   0  0  0  0  0  3  0  0  0  0  0  0
  -21.9560   -7.3130   21.3240 O   0  0  0  0  0  0  0  0  0  0  0  0
  -21.7710   -6.6610   22.5170 C   0  0  0  0  0  0  0  0  0  0  0  0
  -21.2630   -7.3220   23.6580 C   0  0  0  0  0  3  0  0  0  0  0  0
  -21.0240   -6.5980   24.8430 C   0  0  0  0  0  3  0  0  0  0  0  0
  -21.2800   -5.2150   24.8880 C   0  0  0  0  0  0  0  0  0  0  0  0
  -21.7800   -4.5540   23.7510 C   0  0  0  0  0  3  0  0  0  0  0  0
  -22.0230   -5.2750   22.5690 C   0  0  0  0  0  0  0  0  0  0  0  0
  -22.4830   -4.6290   21.4710 F   0  0  0  0  0  0  0  0  0  0  0  0
  -21.0430   -4.5170   26.0230 F   0  0  0  0  0  0  0  0  0  0  0  0
  -23.3180  -13.9120   21.1100 C   0  0  0  0  0  0  0  0  0  0  0  0
  -22.6280  -13.2490   22.0330 N   0  0  0  0  0  0  0  0  0  0  0  0
  -22.8810  -14.9490   20.6130 O   0  0  0  0  0  0  0  0  0  0  0  0
  -22.9950  -12.4090   22.4560 H   0  0  0  0  0  0  0  0  0  0  0  0
  -21.7200  -13.5860   22.3190 H   0  0  0  0  0  0  0  0  0  0  0  0
  -25.9720  -15.4790   20.1760 N   0  0  0  0  0  0  0  0  0  0  0  0
  -25.2490  -16.1670   20.3560 H   0  0  0  0  0  0  0  0  0  0  0  0
  -26.8340  -15.8880   19.8390 H   0  0  0  0  0  0  0  0  0  0  0  0
  -30.4440  -22.7770   18.7280 C   0  0  0  0  0  1  0  0  0  0  0  0
  -29.2520  -22.8140   19.7080 C   0  0  0  0  0  3  0  0  0  0  0  0
  -28.8940  -24.2700   20.1430 C   0  0  0  0  0  0  0  0  0  0  0  0
  -28.8570  -24.5840   21.3400 O   0  0  0  0  0  0  0  0  0  0  0  0
  -28.5810  -25.3310   19.0580 C   0  0  0  0  0  2  0  0  0  0  0  0
  -28.4590  -26.6650   19.6100 O   0  0  0  0  0  0  0  0  0  0  0  0
  -24.6690  -31.6320   23.0400 C   0  0  0  0  0  0  0  0  0  0  0  0
  -27.2450  -27.3350   19.6710 C   0  0  0  0  0  0  0  0  0  0  0  0
  -23.4160  -30.2810   21.3900 C   0  0  0  0  0  3  0  0  0  0  0  0
  -24.8290  -28.8210   19.8490 C   0  0  0  0  0  0  0  0  0  0  0  0
  -25.9300  -30.6750   21.1100 C   0  0  0  0  0  2  0  0  0  0  0  0
  -26.0040  -29.3320   20.4110 C   0  0  0  0  0  0  0  0  0  0  0  0
  -27.2090  -28.5950   20.3180 C   0  0  0  0  0  3  0  0  0  0  0  0
  -26.0410  -26.8360   19.1180 C   0  0  0  0  0  3  0  0  0  0  0  0
  -24.8440  -27.5730   19.2030 C   0  0  0  0  0  3  0  0  0  0  0  0
  -23.5780  -29.6620   19.9760 C   0  0  0  0  0  2  0  0  0  0  0  0
  -24.6930  -30.8760   21.9050 N   0  0  0  0  0  0  0  0  0  0  0  0
  -23.6060  -31.8680   23.6310 O   0  0  0  0  0  0  0  0  0  0  0  0
  -22.8140  -29.2150   22.3320 C   0  0  0  0  0  0  0  0  0  0  0  0
  -21.4980  -28.9790   22.2100 N   0  0  0  0  0  0  0  0  0  0  0  0
  -23.5300  -28.6030   23.1310 O   0  0  0  0  0  0  0  0  0  0  0  0
  -20.9810  -29.5300   21.5380 H   0  0  0  0  0  0  0  0  0  0  0  0
  -18.1910  -27.5900   22.6540 C   0  0  0  0  0  0  0  0  0  0  0  0
  -20.7270  -27.9890   22.9620 C   0  0  0  0  0  3  0  0  0  0  0  0
  -20.9180  -26.5720   22.3770 C   0  0  0  0  0  2  0  0  0  0  0  0
  -19.8500  -26.1940   21.3460 C   0  0  0  0  0  2  0  0  0  0  0  0
  -18.4530  -26.2580   21.9710 C   0  0  0  0  0  2  0  0  0  0  0  0
  -19.2580  -28.4110   23.1040 C   0  0  0  0  0  0  0  0  0  0  0  0
  -18.9620  -29.6550   23.6990 C   0  0  0  0  0  3  0  0  0  0  0  0
  -17.6290  -30.0830   23.8480 C   0  0  0  0  0  3  0  0  0  0  0  0
  -16.5750  -29.2600   23.4150 C   0  0  0  0  0  3  0  0  0  0  0  0
  -16.8560  -28.0150   22.8240 C   0  0  0  0  0  3  0  0  0  0  0  0
  -25.9710  -32.2540   23.6350 C   0  0  0  0  0  3  0  0  0  0  0  0
  -25.6510  -33.6220   24.0640 N   0  0  0  0  0  0  0  0  0  0  0  0
  -25.9480  -34.7260   23.3650 C   0  0  0  0  0  0  0  0  0  0  0  0
  -26.5920  -34.6990   22.3130 O   0  0  0  0  0  0  0  0  0  0  0  0
  -25.0780  -33.7160   24.8900 H   0  0  0  0  0  0  0  0  0  0  0  0
  -24.1980  -36.5190   23.1530 C   0  0  0  0  0  1  0  0  0  0  0  0
  -25.4530  -36.0750   23.9220 C   0  0  0  0  0  3  0  0  0  0  0  0
  -27.5850  -36.9250   24.7930 C   0  0  0  0  0  1  0  0  0  0  0  0
  -26.4730  -37.1440   23.8710 N   0  0  0  0  0  0  0  0  0  0  0  0
  -26.0600  -38.0480   24.0830 H   0  0  0  0  0  0  0  0  0  0  0  0
  -26.5650  -31.4210   24.8360 C   0  0  1  0  0  0  0  0  0  0  0  0
  -25.5290  -31.0900   25.9360 C   0  0  0  0  0  1  0  0  0  0  0  0
  -27.1620  -30.0860   24.3300 C   0  0  0  0  0  1  0  0  0  0  0  0
  -27.7270  -32.2030   25.4930 C   0  0  0  0  0  1  0  0  0  0  0  0
  1  3  1  0
  1  5  1  0
  1  2  1  0
  5  4  1  0
  6  8  1  0
  7  9  1  0
  7  6  2  0
  8  5  1  0
  9 11  2  0
 10  8  2  0
 10 12  1  0
 11 10  1  0
 13 11  1  0
 14 22  1  0
 15 20  1  0
 16 17  1  0
 16 15  1  0
 18 17  1  0
 18 27  1  0
 18 19  1  0
 20 14  1  0
 20 19  1  0
 21 14  2  0
 22  9  1  0
 22 23  1  0
 24 25  2  0
 25 44  1  0
 26 25  1  0
 26 29  1  0
 27 28  1  0
 27 24  1  0
 28 26  2  0
 29 30  1  0
 30 31  2  0
 32 35  1  0
 32 31  1  0
 33 32  2  0
 34 33  1  0
 34 29  2  0
 35 36  1  0
 36 41  2  0
 36 37  1  0
 37 38  2  0
 38 39  1  0
 39 43  1  0
 40 39  2  0
 41 40  1  0
 42 41  1  0
 44 45  1  0
 45 48  1  0
 45 47  1  0
 46 44  2  0
 49 24  1  0
 49 50  1  0
 51 49  1  0
 53 52  1  0
 53 54  1  0
 53  1  1  0
 54 55  2  0
 56 57  1  0
 56 54  1  0
 57 59  1  0
 58 69  2  0
 59 64  1  0
 60 68  1  0
 60 70  1  0
 61 67  1  0
 61 63  1  0
 62 68  1  0
 63 62  1  0
 64 63  2  0
 65 66  1  0
 65 59  2  0
 66 61  2  0
 67 60  1  0
 68 58  1  0
 70 72  2  0
 71 70  1  0
 73 71  1  0
 74 83  2  0
 74 79  1  0
 75 71  1  0
 75 79  1  0
 76 75  1  0
 77 78  1  0
 77 76  1  0
 78 74  1  0
 79 80  2  0
 80 81  1  0
 82 81  2  0
 83 82  1  0
 84 58  1  0
 84 85  1  0
 84 94  1  0
 85 88  1  0
 86 90  1  0
 86 85  1  0
 87 86  2  0
 90 89  1  0
 92 90  1  0
 92 93  1  0
 92 91  1  0
 94 97  1  1
 94 95  1  0
 96 94  1  0
M  ISO  4  14 100  22 100  56 101  57 101
M  END
>  <TORSDO>  (14) 
F 21

>  <SCORE>  (14) 
-12.548

>  <name>  (14) 
13

>  <ligand_id>  (14) 
13

>  <original_smiles>  (14) 
[H]c1c([H])c([H])c2c(c1[H])C([H])([H])C([H])([H])C([H])([H])C2([H])N([H])C(=O)C1([H])N(C(=O)C([H])(N([H])C(=O)C([H])(N([H])C([H])([H])[H])C([H])([H])[H])C(C([H])([H])[H])(C([H])([H])[H])C([H])([H])[H])C([H])([H])c2c([H])c(OC([H])([H])C(=O)C([H])(C([H])([H])[H])[N+]([H])([H])C([H])(c3c([H])c([H])c(N([H])C(=O)N4C([H])([H])C([H])([H])C([H])([H])C([H])(n5nc(-c6c([H])c([H])c(Oc7c([H])c([H])c(F)c([H])c7F)c([H])c6[H])c(C(=O)N([H])[H])c5N([H])[H])C4([H])[H])c(F)c3F)C([H])([H])[H])c([H])c([H])c2C1([H])[H]

>  <smiles>  (14) 
[H]c1c([H])c([H])c2c(c1[H])C([H])([H])C([H])([H])C([H])([H])C2([H])N([H])C(=O)C1([H])N(C(=O)C([H])(N([H])C(=O)C([H])(N([H])C([H])([H])[H])C([H])([H])[H])C(C([H])([H])[H])(C([H])([H])[H])C([H])([H])[H])C([H])([H])c2c([H])c(OC([H])([H])C(=O)C([H])(C([H])([H])[H])[N+]([H])([H])C([H])(c3c([H])c([H])c(N([H])C(=O)N4C([H])([H])C([H])([H])C([H])([H])C([H])(n5nc(-c6c([H])c([H])c(Oc7c([H])c([H])c(F)c([H])c7F)c([H])c6[H])c(C(=O)N([H])[H])c5N([H])[H])C4([H])[H])c(F)c3F)C([H])([H])[H])c([H])c([H])c2C1([H])[H]

$$$$
14:0:0
     RDKit          3D

 93101  0  0  1  0  0  0  0  0999 V2000
  -29.0280  -23.4500   19.8820 C   0  0  0  0  0  0  0  0  0  0  0  0
  -29.3930  -22.1800   19.5050 N   0  0  0  0  0  0  0  0  0  0  0  0
  -28.8240  -23.7660   21.0560 O   0  0  0  0  0  0  0  0  0  0  0  0
  -29.6240  -22.1390   18.5190 H   0  0  0  0  0  0  0  0  0  0  0  0
  -28.8000  -19.5620   22.1780 C   0  0  0  0  0  3  0  0  0  0  0  0
  -29.3550  -18.4060   21.5970 C   0  0  0  0  0  3  0  0  0  0  0  0
  -28.8340  -20.8000   21.5070 C   0  0  0  0  0  3  0  0  0  0  0  0
  -29.9800  -19.7190   19.6520 C   0  0  0  0  0  3  0  0  0  0  0  0
  -29.9720  -18.4480   20.3270 C   0  0  0  0  0  0  0  0  0  0  0  0
  -29.4240  -20.9160   20.2280 C   0  0  0  0  0  0  0  0  0  0  0  0
  -30.5770  -17.1860   19.7430 C   0  0  0  0  0  3  0  0  0  0  0  0
  -30.4990  -15.9000   20.2200 C   0  0  0  0  0  3  0  0  0  0  0  0
  -31.1920  -14.7520   19.5790 C   0  0  0  0  0  0  0  0  0  0  0  0
  -30.7890  -12.5700   18.4730 C   0  0  0  0  0  2  0  0  0  0  0  0
  -29.6910  -12.7790   17.4050 C   0  0  0  0  0  2  0  0  0  0  0  0
  -28.2860  -12.6220   18.0230 C   0  0  0  0  0  2  0  0  0  0  0  0
  -28.1230  -13.4190   19.3460 C   0  0  0  0  0  3  0  0  0  0  0  0
  -29.3210  -13.1820   20.2890 C   0  0  0  0  0  2  0  0  0  0  0  0
  -30.5460  -13.5430   19.5590 N   0  0  0  0  0  0  0  0  0  0  0  0
  -32.2650  -14.8950   18.9820 O   0  0  0  0  0  0  0  0  0  0  0  0
  -25.9050  -14.0020   20.5080 C   0  0  0  0  0  0  0  0  0  0  0  0
  -24.8670  -13.2240   20.9450 C   0  0  0  0  0  0  0  0  0  0  0  0
  -25.2440  -11.8740   20.6720 C   0  0  0  0  0  0  0  0  0  0  0  0
  -26.8510  -13.1250   20.0000 N   0  0  0  0  0  0  0  0  0  0  0  0
  -26.4670  -11.8320   20.1550 N   0  0  0  0  0  0  0  0  0  0  0  0
  -24.4890  -10.6230   20.8190 C   0  0  0  0  0  0  0  0  0  0  0  0
  -24.9350   -9.5860   21.6680 C   0  0  0  0  0  3  0  0  0  0  0  0
  -24.1830   -8.4000   21.8090 C   0  0  0  0  0  3  0  0  0  0  0  0
  -22.9690   -8.2430   21.0990 C   0  0  0  0  0  0  0  0  0  0  0  0
  -22.5390   -9.2690   20.2380 C   0  0  0  0  0  3  0  0  0  0  0  0
  -23.2930  -10.4460   20.0960 C   0  0  0  0  0  3  0  0  0  0  0  0
  -22.1840   -7.1160   21.1510 O   0  0  0  0  0  0  0  0  0  0  0  0
  -22.0580   -6.3800   22.3020 C   0  0  0  0  0  0  0  0  0  0  0  0
  -21.5840   -6.9510   23.5030 C   0  0  0  0  0  3  0  0  0  0  0  0
  -21.4040   -6.1420   24.6440 C   0  0  0  0  0  3  0  0  0  0  0  0
  -21.6890   -4.7650   24.5830 C   0  0  0  0  0  0  0  0  0  0  0  0
  -22.1550   -4.1930   23.3850 C   0  0  0  0  0  3  0  0  0  0  0  0
  -22.3370   -4.9990   22.2470 C   0  0  0  0  0  0  0  0  0  0  0  0
  -22.7650   -4.4400   21.0910 F   0  0  0  0  0  0  0  0  0  0  0  0
  -21.5090   -3.9870   25.6760 F   0  0  0  0  0  0  0  0  0  0  0  0
  -23.5580  -13.7070   21.4980 C   0  0  0  0  0  0  0  0  0  0  0  0
  -22.9580  -12.9470   22.4060 N   0  0  0  0  0  0  0  0  0  0  0  0
  -23.0830  -14.7910   21.1600 O   0  0  0  0  0  0  0  0  0  0  0  0
  -23.3590  -12.0690   22.6990 H   0  0  0  0  0  0  0  0  0  0  0  0
  -22.0830  -13.2470   22.8150 H   0  0  0  0  0  0  0  0  0  0  0  0
  -26.1170  -15.3780   20.4800 N   0  0  0  0  0  0  0  0  0  0  0  0
  -25.4200  -16.0410   20.8010 H   0  0  0  0  0  0  0  0  0  0  0  0
  -26.9450  -15.8240   20.1030 H   0  0  0  0  0  0  0  0  0  0  0  0
  -28.6710  -25.7390   18.7790 C   0  0  0  0  0  3  0  0  0  0  0  0
  -28.9380  -24.3910   18.7350 C   0  0  0  0  0  0  0  0  0  0  0  0
  -29.1230  -23.8620   17.5120 O   0  0  0  0  0  0  0  0  0  0  0  0
  -29.0200  -24.5610   16.8780 H   0  0  0  0  0  0  0  0  0  0  0  0
  -28.4550  -26.5940   19.8530 O   0  0  0  0  0  0  0  0  0  0  0  0
  -24.8050  -31.8470   23.1330 C   0  0  0  0  0  0  0  0  0  0  0  0
  -27.3430  -27.4370   19.8400 C   0  0  0  0  0  0  0  0  0  0  0  0
  -23.5560  -30.5010   21.4800 C   0  0  0  0  0  3  0  0  0  0  0  0
  -24.9680  -29.0070   19.9620 C   0  0  0  0  0  0  0  0  0  0  0  0
  -26.0850  -30.8410   21.2350 C   0  0  0  0  0  2  0  0  0  0  0  0
  -26.1500  -29.4880   20.5400 C   0  0  0  0  0  0  0  0  0  0  0  0
  -27.3400  -28.7110   20.4780 C   0  0  0  0  0  3  0  0  0  0  0  0
  -26.1360  -26.9890   19.2580 C   0  0  0  0  0  3  0  0  0  0  0  0
  -24.9600  -27.7590   19.3160 C   0  0  0  0  0  3  0  0  0  0  0  0
  -23.7300  -29.8710   20.0720 C   0  0  0  0  0  2  0  0  0  0  0  0
  -24.8360  -31.0770   22.0060 N   0  0  0  0  0  0  0  0  0  0  0  0
  -23.7370  -32.1040   23.7070 O   0  0  0  0  0  0  0  0  0  0  0  0
  -22.9220  -29.4520   22.4240 C   0  0  0  0  0  0  0  0  0  0  0  0
  -21.6020  -29.2400   22.2910 N   0  0  0  0  0  0  0  0  0  0  0  0
  -23.6170  -28.8320   23.2340 O   0  0  0  0  0  0  0  0  0  0  0  0
  -21.1030  -29.7940   21.6090 H   0  0  0  0  0  0  0  0  0  0  0  0
  -18.2700  -27.9000   22.7130 C   0  0  0  0  0  0  0  0  0  0  0  0
  -20.8070  -28.2720   23.0460 C   0  0  0  0  0  3  0  0  0  0  0  0
  -20.9870  -26.8440   22.4810 C   0  0  0  0  0  2  0  0  0  0  0  0
  -19.9260  -26.4680   21.4410 C   0  0  0  0  0  2  0  0  0  0  0  0
  -18.5230  -26.5570   22.0490 C   0  0  0  0  0  2  0  0  0  0  0  0
  -19.3430  -28.7120   23.1670 C   0  0  0  0  0  0  0  0  0  0  0  0
  -19.0550  -29.9670   23.7460 C   0  0  0  0  0  3  0  0  0  0  0  0
  -17.7260  -30.4130   23.8730 C   0  0  0  0  0  3  0  0  0  0  0  0
  -16.6670  -29.5990   23.4350 C   0  0  0  0  0  3  0  0  0  0  0  0
  -16.9400  -28.3440   22.8620 C   0  0  0  0  0  3  0  0  0  0  0  0
  -26.1070  -32.4570   23.7400 C   0  0  0  0  0  3  0  0  0  0  0  0
  -26.7030  -31.5990   24.9230 C   0  0  1  0  0  0  0  0  0  0  0  0
  -25.6690  -31.2460   26.0170 C   0  0  0  0  0  1  0  0  0  0  0  0
  -27.2970  -30.2730   24.3920 C   0  0  0  0  0  1  0  0  0  0  0  0
  -27.8670  -32.3680   25.5930 C   0  0  0  0  0  1  0  0  0  0  0  0
  -25.7870  -33.8170   24.1970 N   0  0  0  0  0  0  0  0  0  0  0  0
  -26.0620  -34.9340   23.5110 C   0  0  0  0  0  0  0  0  0  0  0  0
  -26.6830  -34.9300   22.4450 O   0  0  0  0  0  0  0  0  0  0  0  0
  -25.2300  -33.8940   25.0350 H   0  0  0  0  0  0  0  0  0  0  0  0
  -24.2890  -36.7130   23.3780 C   0  0  0  0  0  1  0  0  0  0  0  0
  -25.5700  -36.2700   24.1020 C   0  0  0  0  0  3  0  0  0  0  0  0
  -27.7230  -37.1260   24.9180 C   0  0  0  0  0  1  0  0  0  0  0  0
  -26.5780  -37.3510   24.0380 N   0  0  0  0  0  0  0  0  0  0  0  0
  -26.1630  -38.2440   24.2850 H   0  0  0  0  0  0  0  0  0  0  0  0
  1  3  2  0
  2  1  1  0
  2 10  1  0
  4  2  1  0
  6  5  1  0
  7  5  2  0
  8 10  2  0
  8  9  1  0
  9  6  2  0
 10  7  1  0
 11 12  2  0
 11  9  1  0
 13 12  1  0
 14 19  1  0
 15 16  1  0
 15 14  1  0
 17 16  1  0
 17 24  1  0
 17 18  1  0
 19 13  1  0
 19 18  1  0
 20 13  2  0
 21 22  2  0
 22 41  1  0
 23 26  1  0
 23 22  1  0
 24 25  1  0
 24 21  1  0
 25 23  2  0
 26 27  1  0
 27 28  2  0
 29 32  1  0
 29 28  1  0
 30 29  2  0
 31 30  1  0
 31 26  2  0
 32 33  1  0
 33 34  1  0
 34 35  2  0
 36 35  1  0
 36 40  1  0
 37 36  2  0
 38 33  2  0
 38 37  1  0
 39 38  1  0
 41 42  1  0
 42 44  1  0
 42 45  1  0
 43 41  2  0
 46 21  1  0
 46 47  1  0
 48 46  1  0
 49 53  1  0
 50 49  2  0
 50  1  1  0
 51 50  1  0
 52 51  1  0
 54 65  2  0
 55 53  1  0
 55 60  1  0
 56 64  1  0
 56 66  1  0
 57 63  1  0
 57 59  1  0
 58 64  1  0
 59 58  1  0
 60 59  2  0
 61 62  1  0
 61 55  2  0
 62 57  2  0
 63 56  1  0
 64 54  1  0
 66 68  2  0
 67 66  1  0
 69 67  1  0
 70 79  2  0
 70 75  1  0
 71 67  1  0
 71 75  1  0
 72 71  1  0
 73 74  1  0
 73 72  1  0
 74 70  1  0
 75 76  2  0
 76 77  1  0
 78 77  2  0
 79 78  1  0
 80 54  1  0
 80 85  1  0
 80 81  1  0
 81 84  1  1
 81 82  1  0
 83 81  1  0
 85 88  1  0
 86 90  1  0
 86 85  1  0
 87 86  2  0
 90 89  1  0
 92 90  1  0
 92 93  1  0
 92 91  1  0
M  ISO  4  12 100  13 100  49 101  53 101
M  END
>  <TORSDO>  (15) 
F 20

>  <SCORE>  (15) 
-9.021

>  <name>  (15) 
14

>  <ligand_id>  (15) 
14

>  <original_smiles>  (15) 
[H]OC(C(=O)N([H])c1c([H])c([H])c([H])c(C([H])=C([H])C(=O)N2C([H])([H])C([H])([H])C([H])([H])C([H])(n3nc(-c4c([H])c([H])c(Oc5c([H])c([H])c(F)c([H])c5F)c([H])c4[H])c(C(=O)N([H])[H])c3N([H])[H])C2([H])[H])c1[H])=C([H])Oc1c([H])c([H])c2c(c1[H])C([H])([H])N(C(=O)C([H])(N([H])C(=O)C([H])(N([H])C([H])([H])[H])C([H])([H])[H])C(C([H])([H])[H])(C([H])([H])[H])C([H])([H])[H])C([H])(C(=O)N([H])C1([H])c3c([H])c([H])c([H])c([H])c3C([H])([H])C([H])([H])C1([H])[H])C2([H])[H]

>  <smiles>  (15) 
[H]OC(C(=O)N([H])c1c([H])c([H])c([H])c(C([H])=C([H])C(=O)N2C([H])([H])C([H])([H])C([H])([H])C([H])(n3nc(-c4c([H])c([H])c(Oc5c([H])c([H])c(F)c([H])c5F)c([H])c4[H])c(C(=O)N([H])[H])c3N([H])[H])C2([H])[H])c1[H])=C([H])Oc1c([H])c([H])c2c(c1[H])C([H])([H])N(C(=O)C([H])(N([H])C(=O)C([H])(N([H])C([H])([H])[H])C([H])([H])[H])C(C([H])([H])[H])(C([H])([H])[H])C([H])([H])[H])C([H])(C(=O)N([H])C1([H])c3c([H])c([H])c([H])c([H])c3C([H])([H])C([H])([H])C1([H])[H])C2([H])[H]

$$$$
15:0:0
     RDKit          3D

100108  0  0  1  0  0  0  0  0999 V2000
  -29.7620  -18.8510   21.1780 C   0  0  0  0  0  3  0  0  0  0  0  0
  -29.3200  -20.1980   21.2260 C   0  0  0  0  0  3  0  0  0  0  0  0
  -30.5630  -18.4100   20.0980 C   0  0  0  0  0  0  0  0  0  0  0  0
  -29.6920  -21.0720   20.1840 C   0  0  0  0  0  0  0  0  0  0  0  0
  -30.7910  -19.3460   19.0500 C   0  0  0  0  0  0  0  0  0  0  0  0
  -30.3610  -20.6300   19.1080 N   0  0  0  0  0  0  0  0  0  0  0  0
  -29.5030  -22.4610   20.1860 N   0  0  0  0  0  0  0  0  0  0  0  0
  -29.8620  -22.9420   19.3690 H   0  0  0  0  0  0  0  0  0  0  0  0
  -31.5020  -14.8210   20.9140 C   0  0  0  0  0  0  0  0  0  0  0  0
  -31.1990  -12.5630   20.0340 C   0  0  0  0  0  2  0  0  0  0  0  0
  -30.4430  -12.6900   18.6970 C   0  0  0  0  0  2  0  0  0  0  0  0
  -28.9240  -12.6330   18.9440 C   0  0  0  0  0  2  0  0  0  0  0  0
  -28.4600  -13.5950   20.0720 C   0  0  0  0  0  3  0  0  0  0  0  0
  -29.3690  -13.5100   21.3200 C   0  0  0  0  0  2  0  0  0  0  0  0
  -30.7570  -13.6820   20.8820 N   0  0  0  0  0  0  0  0  0  0  0  0
  -32.7300  -14.7590   20.8240 O   0  0  0  0  0  0  0  0  0  0  0  0
  -31.3630  -17.1260   20.2120 C   0  0  0  0  0  0  0  0  0  0  0  0
  -30.8310  -15.9990   20.7660 N   0  0  0  0  0  0  0  0  0  0  0  0
  -32.4990  -17.1860   19.7280 O   0  0  0  0  0  0  0  0  0  0  0  0
  -29.8480  -16.0040   20.9780 H   0  0  0  0  0  0  0  0  0  0  0  0
  -26.0360  -14.3150   20.5120 C   0  0  0  0  0  0  0  0  0  0  0  0
  -24.8980  -13.5980   20.7650 C   0  0  0  0  0  0  0  0  0  0  0  0
  -25.2950  -12.2270   20.8040 C   0  0  0  0  0  0  0  0  0  0  0  0
  -27.0560  -13.3830   20.4080 N   0  0  0  0  0  0  0  0  0  0  0  0
  -26.6080  -12.1240   20.6470 N   0  0  0  0  0  0  0  0  0  0  0  0
  -24.4910  -11.0030   20.9230 C   0  0  0  0  0  0  0  0  0  0  0  0
  -24.7680  -10.0280   21.9040 C   0  0  0  0  0  3  0  0  0  0  0  0
  -23.9680   -8.8690   22.0110 C   0  0  0  0  0  3  0  0  0  0  0  0
  -22.8760   -8.6780   21.1310 C   0  0  0  0  0  0  0  0  0  0  0  0
  -22.6180   -9.6410   20.1400 C   0  0  0  0  0  3  0  0  0  0  0  0
  -23.4200  -10.7900   20.0330 C   0  0  0  0  0  3  0  0  0  0  0  0
  -22.0600   -7.5720   21.1440 O   0  0  0  0  0  0  0  0  0  0  0  0
  -21.8330   -6.8590   22.2930 C   0  0  0  0  0  0  0  0  0  0  0  0
  -21.3020   -7.4630   23.4540 C   0  0  0  0  0  3  0  0  0  0  0  0
  -21.0190   -6.6780   24.5890 C   0  0  0  0  0  3  0  0  0  0  0  0
  -21.2570   -5.2910   24.5650 C   0  0  0  0  0  0  0  0  0  0  0  0
  -21.7820   -4.6870   23.4090 C   0  0  0  0  0  3  0  0  0  0  0  0
  -22.0660   -5.4690   22.2760 C   0  0  0  0  0  0  0  0  0  0  0  0
  -22.5510   -4.8770   21.1580 F   0  0  0  0  0  0  0  0  0  0  0  0
  -20.9770   -4.5370   25.6530 F   0  0  0  0  0  0  0  0  0  0  0  0
  -23.5040  -14.1450   20.8690 C   0  0  0  0  0  0  0  0  0  0  0  0
  -22.6560  -13.5130   21.6730 N   0  0  0  0  0  0  0  0  0  0  0  0
  -23.1740  -15.1690   20.2730 O   0  0  0  0  0  0  0  0  0  0  0  0
  -22.9320  -12.6850   22.1770 H   0  0  0  0  0  0  0  0  0  0  0  0
  -21.7150  -13.8660   21.7860 H   0  0  0  0  0  0  0  0  0  0  0  0
  -26.2850  -15.6730   20.3410 N   0  0  0  0  0  0  0  0  0  0  0  0
  -25.5360  -16.3580   20.3510 H   0  0  0  0  0  0  0  0  0  0  0  0
  -27.1790  -16.0710   20.0900 H   0  0  0  0  0  0  0  0  0  0  0  0
  -31.5040  -19.0340   17.8840 N   0  0  0  0  0  0  0  0  0  0  0  0
  -31.5940  -18.0530   17.6560 H   0  0  0  0  0  0  0  0  0  0  0  0
  -31.2330  -19.8770   16.7220 C   0  0  0  0  0  2  0  0  0  0  0  0
  -30.7960  -20.0350   14.2680 C   0  0  0  0  0  1  0  0  0  0  0  0
  -32.4940  -18.3900   15.1000 C   0  0  0  0  0  1  0  0  0  0  0  0
  -30.0320  -17.9980   15.5060 C   0  0  0  0  0  1  0  0  0  0  0  0
  -31.1420  -19.0640   15.4110 C   0  0  1  0  0  0  0  0  0  0  0  0
  -28.4100  -23.1280   20.8980 C   0  0  0  0  0  2  0  0  0  0  0  0
  -28.7140  -24.5750   21.3520 C   0  0  0  0  0  0  0  0  0  0  0  0
  -28.5040  -24.9030   22.5250 O   0  0  0  0  0  0  0  0  0  0  0  0
  -29.2780  -25.5960   20.3380 C   0  0  0  0  0  2  0  0  0  0  0  0
  -29.1320  -26.9640   20.7920 O   0  0  0  0  0  0  0  0  0  0  0  0
  -24.8310  -31.9830   23.4600 C   0  0  0  0  0  0  0  0  0  0  0  0
  -27.9160  -27.6160   20.6720 C   0  0  0  0  0  0  0  0  0  0  0  0
  -23.8320  -30.5160   21.7400 C   0  0  0  0  0  3  0  0  0  0  0  0
  -25.4650  -29.0310   20.4670 C   0  0  0  0  0  0  0  0  0  0  0  0
  -26.3500  -30.9820   21.7530 C   0  0  0  0  0  2  0  0  0  0  0  0
  -26.5490  -29.6100   21.1370 C   0  0  0  0  0  0  0  0  0  0  0  0
  -27.7760  -28.9110   21.2320 C   0  0  0  0  0  3  0  0  0  0  0  0
  -26.8030  -27.0530   20.0040 C   0  0  0  0  0  3  0  0  0  0  0  0
  -25.5880  -27.7530   19.8990 C   0  0  0  0  0  3  0  0  0  0  0  0
  -24.1870  -29.8330   20.3930 C   0  0  0  0  0  2  0  0  0  0  0  0
  -25.0180  -31.1760   22.3760 N   0  0  0  0  0  0  0  0  0  0  0  0
  -23.6960  -32.2110   23.9030 O   0  0  0  0  0  0  0  0  0  0  0  0
  -23.1480  -29.4720   22.6530 C   0  0  0  0  0  0  0  0  0  0  0  0
  -21.8490  -29.2260   22.4140 N   0  0  0  0  0  0  0  0  0  0  0  0
  -23.7880  -28.8860   23.5300 O   0  0  0  0  0  0  0  0  0  0  0  0
  -21.3920  -29.7520   21.6820 H   0  0  0  0  0  0  0  0  0  0  0  0
  -18.4860  -27.9410   22.7010 C   0  0  0  0  0  0  0  0  0  0  0  0
  -21.0160  -28.2570   23.1250 C   0  0  0  0  0  3  0  0  0  0  0  0
  -21.1890  -26.8380   22.5380 C   0  0  0  0  0  2  0  0  0  0  0  0
  -20.1570  -26.5020   21.4570 C   0  0  0  0  0  2  0  0  0  0  0  0
  -18.7360  -26.6070   22.0200 C   0  0  0  0  0  2  0  0  0  0  0  0
  -19.5590  -28.7230   23.2080 C   0  0  0  0  0  0  0  0  0  0  0  0
  -19.2760  -29.9740   23.7990 C   0  0  0  0  0  3  0  0  0  0  0  0
  -17.9520  -30.4440   23.8890 C   0  0  0  0  0  3  0  0  0  0  0  0
  -16.8930  -29.6590   23.4020 C   0  0  0  0  0  3  0  0  0  0  0  0
  -17.1600  -28.4090   22.8150 C   0  0  0  0  0  3  0  0  0  0  0  0
  -26.0300  -32.6740   24.1800 C   0  0  0  0  0  3  0  0  0  0  0  0
  -25.6310  -34.0590   24.4720 N   0  0  0  0  0  0  0  0  0  0  0  0
  -25.9650  -35.1200   23.7260 C   0  0  0  0  0  0  0  0  0  0  0  0
  -26.7120  -35.0400   22.7460 O   0  0  0  0  0  0  0  0  0  0  0  0
  -24.9720  -34.1920   25.2250 H   0  0  0  0  0  0  0  0  0  0  0  0
  -24.1670  -36.8090   23.2420 C   0  0  0  0  0  1  0  0  0  0  0  0
  -25.3770  -36.4850   24.1320 C   0  0  0  0  0  3  0  0  0  0  0  0
  -27.4320  -37.4710   25.0460 C   0  0  0  0  0  1  0  0  0  0  0  0
  -26.3570  -37.5900   24.0640 N   0  0  0  0  0  0  0  0  0  0  0  0
  -25.8990  -38.4870   24.2010 H   0  0  0  0  0  0  0  0  0  0  0  0
  -26.4800  -31.9330   25.4980 C   0  0  1  0  0  0  0  0  0  0  0  0
  -25.3030  -31.5460   26.4240 C   0  0  0  0  0  1  0  0  0  0  0  0
  -27.2590  -30.6410   25.1610 C   0  0  0  0  0  1  0  0  0  0  0  0
  -27.4460  -32.8360   26.3020 C   0  0  0  0  0  1  0  0  0  0  0  0
  1  2  1  0
  3 17  1  0
  3  1  2  0
  4  7  1  0
  4  2  2  0
  5  6  2  0
  5  3  1  0
  6  4  1  0
  7 56  1  0
  8  7  1  0
 10 15  1  0
 11 12  1  0
 11 10  1  0
 13 12  1  0
 13 24  1  0
 13 14  1  0
 15  9  1  0
 15 14  1  0
 16  9  2  0
 17 18  1  0
 18  9  1  0
 18 20  1  0
 19 17  2  0
 21 22  2  0
 22 23  1  0
 22 41  1  0
 23 26  1  0
 24 21  1  0
 24 25  1  0
 25 23  2  0
 26 27  1  0
 27 28  2  0
 29 32  1  0
 29 28  1  0
 30 29  2  0
 31 30  1  0
 31 26  2  0
 32 33  1  0
 33 34  1  0
 34 35  2  0
 36 35  1  0
 36 40  1  0
 37 36  2  0
 38 33  2  0
 38 37  1  0
 39 38  1  0
 41 42  1  0
 42 45  1  0
 42 44  1  0
 43 41  2  0
 46 47  1  0
 46 21  1  0
 48 46  1  0
 49  5  1  0
 50 49  1  0
 51 49  1  0
 55 52  1  6
 53 55  1  0
 55 54  1  0
 55 51  1  0
 56 57  1  0
 57 58  2  0
 59 60  1  0
 59 57  1  0
 61 72  2  0
 62 60  1  0
 62 67  1  0
 63 71  1  0
 63 73  1  0
 64 66  1  0
 65 71  1  0
 66 67  2  0
 66 65  1  0
 68 62  2  0
 69 68  1  0
 69 64  2  0
 70 64  1  0
 70 63  1  0
 71 61  1  0
 73 75  2  0
 74 73  1  0
 76 74  1  0
 77 86  2  0
 77 82  1  0
 78 74  1  0
 78 82  1  0
 79 78  1  0
 80 81  1  0
 80 79  1  0
 81 77  1  0
 82 83  2  0
 83 84  1  0
 85 84  2  0
 86 85  1  0
 87 61  1  0
 87 88  1  0
 87 97  1  0
 88 91  1  0
 89 93  1  0
 89 88  1  0
 90 89  2  0
 93 92  1  0
 95 93  1  0
 95 96  1  0
 95 94  1  0
 97100  1  1
 97 98  1  0
 99 97  1  0
M  ISO  4   9 100  18 100  59 101  60 101
M  END
>  <TORSDO>  (16) 
F 22

>  <SCORE>  (16) 
-11.619

>  <name>  (16) 
15

>  <ligand_id>  (16) 
15

>  <original_smiles>  (16) 
[H]c1c(N([H])C([H])([H])C(=O)C([H])([H])Oc2c([H])c([H])c3c(c2[H])C([H])([H])N(C(=O)C([H])(N([H])C(=O)C([H])(N([H])C([H])([H])[H])C([H])([H])[H])C(C([H])([H])[H])(C([H])([H])[H])C([H])([H])[H])C([H])(C(=O)N([H])C2([H])c4c([H])c([H])c([H])c([H])c4C([H])([H])C([H])([H])C2([H])[H])C3([H])[H])nc(N([H])C([H])([H])C(C([H])([H])[H])(C([H])([H])[H])C([H])([H])[H])c(C(=O)N([H])C(=O)N2C([H])([H])C([H])([H])C([H])([H])C([H])(n3nc(-c4c([H])c([H])c(Oc5c([H])c([H])c(F)c([H])c5F)c([H])c4[H])c(C(=O)N([H])[H])c3N([H])[H])C2([H])[H])c1[H]

>  <smiles>  (16) 
[H]c1c(N([H])C([H])([H])C(=O)C([H])([H])Oc2c([H])c([H])c3c(c2[H])C([H])([H])N(C(=O)C([H])(N([H])C(=O)C([H])(N([H])C([H])([H])[H])C([H])([H])[H])C(C([H])([H])[H])(C([H])([H])[H])C([H])([H])[H])C([H])(C(=O)N([H])C2([H])c4c([H])c([H])c([H])c([H])c4C([H])([H])C([H])([H])C2([H])[H])C3([H])[H])nc(N([H])C([H])([H])C(C([H])([H])[H])(C([H])([H])[H])C([H])([H])[H])c(C(=O)N([H])C(=O)N2C([H])([H])C([H])([H])C([H])([H])C([H])(n3nc(-c4c([H])c([H])c(Oc5c([H])c([H])c(F)c([H])c5F)c([H])c4[H])c(C(=O)N([H])[H])c3N([H])[H])C2([H])[H])c1[H]

$$$$
16:0:0
     RDKit          3D

 93101  0  0  1  0  0  0  0  0999 V2000
  -30.2800  -20.7010   20.8200 C   0  0  0  0  0  0  0  0  0  0  0  0
  -29.6630  -21.8130   20.3470 N   0  0  0  0  0  0  0  0  0  0  0  0
  -31.1400  -20.7750   21.7010 O   0  0  0  0  0  0  0  0  0  0  0  0
  -28.9590  -21.6900   19.6300 H   0  0  0  0  0  0  0  0  0  0  0  0
  -30.3530  -18.1090   20.8820 C   0  0  0  0  0  3  0  0  0  0  0  0
  -29.8690  -19.3280   20.2800 C   0  0  0  0  0  0  0  0  0  0  0  0
  -29.7250  -17.0980   20.1880 C   0  0  0  0  0  0  0  0  0  0  0  0
  -28.1110  -17.1190   18.1650 C   0  0  0  0  0  1  0  0  0  0  0  0
  -29.0520  -19.0620   19.2600 N   0  0  0  0  0  0  0  0  0  0  0  0
  -28.9570  -17.7040   19.1960 N   0  0  0  0  0  0  0  0  0  0  0  0
  -30.5450  -14.7470   20.4250 C   0  0  0  0  0  0  0  0  0  0  0  0
  -30.3890  -12.5010   19.4250 C   0  0  0  0  0  2  0  0  0  0  0  0
  -29.4530  -12.6540   18.2050 C   0  0  0  0  0  2  0  0  0  0  0  0
  -27.9800  -12.4630   18.6230 C   0  0  0  0  0  2  0  0  0  0  0  0
  -27.6000  -13.3080   19.8690 C   0  0  0  0  0  3  0  0  0  0  0  0
  -28.6580  -13.1730   20.9880 C   0  0  0  0  0  2  0  0  0  0  0  0
  -29.9700  -13.5090   20.4080 N   0  0  0  0  0  0  0  0  0  0  0  0
  -31.7310  -14.9290   20.1420 O   0  0  0  0  0  0  0  0  0  0  0  0
  -29.6480  -15.7710   20.5320 N   0  0  0  0  0  0  0  0  0  0  0  0
  -28.7040  -15.4350   20.6370 H   0  0  0  0  0  0  0  0  0  0  0  0
  -25.1920  -13.8760   20.5770 C   0  0  0  0  0  0  0  0  0  0  0  0
  -24.1360  -13.0850   20.9440 C   0  0  0  0  0  0  0  0  0  0  0  0
  -24.6230  -11.7400   20.9150 C   0  0  0  0  0  0  0  0  0  0  0  0
  -26.2530  -13.0110   20.3470 N   0  0  0  0  0  0  0  0  0  0  0  0
  -25.9130  -11.7240   20.6070 N   0  0  0  0  0  0  0  0  0  0  0  0
  -23.9160  -10.4640   21.0980 C   0  0  0  0  0  0  0  0  0  0  0  0
  -24.3560   -9.5020   22.0340 C   0  0  0  0  0  3  0  0  0  0  0  0
  -23.6570   -8.2870   22.1970 C   0  0  0  0  0  3  0  0  0  0  0  0
  -22.4980   -8.0280   21.4270 C   0  0  0  0  0  0  0  0  0  0  0  0
  -22.0790   -8.9780   20.4800 C   0  0  0  0  0  3  0  0  0  0  0  0
  -22.7780  -10.1840   20.3130 C   0  0  0  0  0  3  0  0  0  0  0  0
  -21.7640   -6.8700   21.5030 O   0  0  0  0  0  0  0  0  0  0  0  0
  -21.7070   -6.1300   22.6540 C   0  0  0  0  0  0  0  0  0  0  0  0
  -21.2250   -6.6710   23.8680 C   0  0  0  0  0  3  0  0  0  0  0  0
  -21.1210   -5.8510   25.0100 C   0  0  0  0  0  3  0  0  0  0  0  0
  -21.4890   -4.4930   24.9380 C   0  0  0  0  0  0  0  0  0  0  0  0
  -21.9580   -3.9540   23.7280 C   0  0  0  0  0  3  0  0  0  0  0  0
  -22.0640   -4.7700   22.5880 C   0  0  0  0  0  0  0  0  0  0  0  0
  -22.5020   -4.2410   21.4200 F   0  0  0  0  0  0  0  0  0  0  0  0
  -21.3830   -3.7020   26.0320 F   0  0  0  0  0  0  0  0  0  0  0  0
  -22.7290  -13.5350   21.2180 C   0  0  0  0  0  0  0  0  0  0  0  0
  -22.0110  -12.8180   22.0770 N   0  0  0  0  0  0  0  0  0  0  0  0
  -22.2720  -14.5540   20.7010 O   0  0  0  0  0  0  0  0  0  0  0  0
  -22.3950  -11.9890   22.5060 H   0  0  0  0  0  0  0  0  0  0  0  0
  -21.0620  -13.0910   22.2960 H   0  0  0  0  0  0  0  0  0  0  0  0
  -25.3310  -15.2520   20.3990 N   0  0  0  0  0  0  0  0  0  0  0  0
  -24.5330  -15.8760   20.4600 H   0  0  0  0  0  0  0  0  0  0  0  0
  -26.1680  -15.7270   20.0880 H   0  0  0  0  0  0  0  0  0  0  0  0
  -29.9260  -23.2060   20.8260 C   0  0  0  0  0  2  0  0  0  0  0  0
  -29.0170  -24.3150   20.2060 C   0  0  0  0  0  0  0  0  0  0  0  0
  -28.5370  -24.1690   19.0760 O   0  0  0  0  0  0  0  0  0  0  0  0
  -28.7120  -25.5970   21.0510 C   0  0  0  0  0  2  0  0  0  0  0  0
  -28.6070  -26.8180   20.2690 O   0  0  0  0  0  0  0  0  0  0  0  0
  -24.6140  -31.9760   23.3030 C   0  0  0  0  0  0  0  0  0  0  0  0
  -27.4150  -27.5280   20.3230 C   0  0  0  0  0  0  0  0  0  0  0  0
  -23.4810  -30.5590   21.6220 C   0  0  0  0  0  3  0  0  0  0  0  0
  -25.0020  -29.0280   20.2540 C   0  0  0  0  0  0  0  0  0  0  0  0
  -26.0100  -30.9360   21.5120 C   0  0  0  0  0  2  0  0  0  0  0  0
  -26.1350  -29.5600   20.8800 C   0  0  0  0  0  0  0  0  0  0  0  0
  -27.3450  -28.8200   20.9070 C   0  0  0  0  0  3  0  0  0  0  0  0
  -26.2610  -27.0160   19.6930 C   0  0  0  0  0  3  0  0  0  0  0  0
  -25.0600  -27.7560   19.6550 C   0  0  0  0  0  3  0  0  0  0  0  0
  -23.7540  -29.8830   20.2490 C   0  0  0  0  0  2  0  0  0  0  0  0
  -24.7170  -31.1740   22.2040 N   0  0  0  0  0  0  0  0  0  0  0  0
  -23.5110  -32.2340   23.8070 O   0  0  0  0  0  0  0  0  0  0  0  0
  -22.8070  -29.5290   22.5610 C   0  0  0  0  0  0  0  0  0  0  0  0
  -21.4880  -29.3340   22.3950 N   0  0  0  0  0  0  0  0  0  0  0  0
  -23.4710  -28.9130   23.3980 O   0  0  0  0  0  0  0  0  0  0  0  0
  -21.0130  -29.8850   21.6930 H   0  0  0  0  0  0  0  0  0  0  0  0
  -18.1120  -28.1060   22.7980 C   0  0  0  0  0  0  0  0  0  0  0  0
  -20.6580  -28.3850   23.1410 C   0  0  0  0  0  3  0  0  0  0  0  0
  -20.7880  -26.9570   22.5630 C   0  0  0  0  0  2  0  0  0  0  0  0
  -19.7180  -26.6290   21.5190 C   0  0  0  0  0  2  0  0  0  0  0  0
  -18.3170  -26.7610   22.1240 C   0  0  0  0  0  2  0  0  0  0  0  0
  -19.2100  -28.8770   23.2610 C   0  0  0  0  0  0  0  0  0  0  0  0
  -18.9610  -30.1370   23.8490 C   0  0  0  0  0  3  0  0  0  0  0  0
  -17.6470  -30.6240   23.9800 C   0  0  0  0  0  3  0  0  0  0  0  0
  -16.5630  -29.8500   23.5320 C   0  0  0  0  0  3  0  0  0  0  0  0
  -16.7960  -28.5930   22.9460 C   0  0  0  0  0  3  0  0  0  0  0  0
  -25.8700  -32.6230   23.9650 C   0  0  0  0  0  3  0  0  0  0  0  0
  -26.3470  -31.8680   25.2680 C   0  0  1  0  0  0  0  0  0  0  0  0
  -25.2190  -31.6290   26.2980 C   0  0  0  0  0  1  0  0  0  0  0  0
  -26.9570  -30.4940   24.9080 C   0  0  0  0  0  1  0  0  0  0  0  0
  -27.4670  -32.6780   25.9620 C   0  0  0  0  0  1  0  0  0  0  0  0
  -25.5420  -34.0230   24.2660 N   0  0  0  0  0  0  0  0  0  0  0  0
  -25.8870  -35.0680   23.5000 C   0  0  0  0  0  0  0  0  0  0  0  0
  -26.5880  -34.9540   22.4900 O   0  0  0  0  0  0  0  0  0  0  0  0
  -24.9380  -34.1870   25.0580 H   0  0  0  0  0  0  0  0  0  0  0  0
  -24.1640  -36.8430   23.0600 C   0  0  0  0  0  1  0  0  0  0  0  0
  -25.3770  -36.4590   23.9210 C   0  0  0  0  0  3  0  0  0  0  0  0
  -27.4720  -37.3720   24.8170 C   0  0  0  0  0  1  0  0  0  0  0  0
  -26.4060  -37.5170   23.8290 N   0  0  0  0  0  0  0  0  0  0  0  0
  -25.9880  -38.4360   23.9500 H   0  0  0  0  0  0  0  0  0  0  0  0
  1  3  2  0
  2  1  1  0
  2 49  1  0
  4  2  1  0
  6  1  1  0
  6  5  1  0
  7 19  1  0
  7  5  2  0
  8 10  1  0
  9  6  2  0
 10  9  1  0
 10  7  1  0
 11 19  1  0
 12 17  1  0
 13 14  1  0
 13 12  1  0
 15 14  1  0
 15 24  1  0
 15 16  1  0
 17 11  1  0
 17 16  1  0
 18 11  2  0
 19 20  1  0
 21 22  2  0
 22 41  1  0
 23 22  1  0
 23 26  1  0
 24 21  1  0
 24 25  1  0
 25 23  2  0
 26 27  1  0
 27 28  2  0
 29 32  1  0
 29 28  1  0
 30 29  2  0
 31 30  1  0
 31 26  2  0
 32 33  1  0
 33 34  1  0
 34 35  2  0
 36 35  1  0
 36 40  1  0
 37 36  2  0
 38 33  2  0
 38 37  1  0
 39 38  1  0
 41 42  1  0
 42 45  1  0
 42 44  1  0
 43 41  2  0
 46 47  1  0
 46 21  1  0
 48 46  1  0
 50 49  1  0
 50 52  1  0
 51 50  2  0
 53 55  1  0
 53 52  1  0
 54 65  2  0
 55 60  1  0
 56 64  1  0
 56 66  1  0
 57 59  1  0
 58 64  1  0
 59 60  2  0
 59 58  1  0
 61 55  2  0
 62 61  1  0
 62 57  2  0
 63 57  1  0
 63 56  1  0
 64 54  1  0
 66 68  2  0
 67 66  1  0
 69 67  1  0
 70 79  2  0
 70 75  1  0
 71 67  1  0
 71 75  1  0
 72 71  1  0
 73 74  1  0
 73 72  1  0
 74 70  1  0
 75 76  2  0
 76 77  1  0
 78 77  2  0
 79 78  1  0
 80 54  1  0
 80 85  1  0
 80 81  1  0
 81 84  1  1
 81 82  1  0
 83 81  1  0
 85 88  1  0
 86 90  1  0
 86 85  1  0
 87 86  2  0
 90 89  1  0
 92 90  1  0
 92 93  1  0
 92 91  1  0
M  ISO  4  11 100  19 100  52 101  53 101
M  END
>  <TORSDO>  (17) 
F 20

>  <SCORE>  (17) 
-13.746

>  <name>  (17) 
16

>  <ligand_id>  (17) 
16

>  <original_smiles>  (17) 
[H]c1c([H])c([H])c2c(c1[H])C([H])([H])C([H])([H])C([H])([H])C2([H])N([H])C(=O)C1([H])N(C(=O)C([H])(N([H])C(=O)C([H])(N([H])C([H])([H])[H])C([H])([H])[H])C(C([H])([H])[H])(C([H])([H])[H])C([H])([H])[H])C([H])([H])c2c([H])c(OC([H])([H])C(=O)C([H])([H])N([H])C(=O)c3nn(C([H])([H])[H])c(N([H])C(=O)N4C([H])([H])C([H])([H])C([H])([H])C([H])(n5nc(-c6c([H])c([H])c(Oc7c([H])c([H])c(F)c([H])c7F)c([H])c6[H])c(C(=O)N([H])[H])c5N([H])[H])C4([H])[H])c3[H])c([H])c([H])c2C1([H])[H]

>  <smiles>  (17) 
[H]c1c([H])c([H])c2c(c1[H])C([H])([H])C([H])([H])C([H])([H])C2([H])N([H])C(=O)C1([H])N(C(=O)C([H])(N([H])C(=O)C([H])(N([H])C([H])([H])[H])C([H])([H])[H])C(C([H])([H])[H])(C([H])([H])[H])C([H])([H])[H])C([H])([H])c2c([H])c(OC([H])([H])C(=O)C([H])([H])N([H])C(=O)c3nn(C([H])([H])[H])c(N([H])C(=O)N4C([H])([H])C([H])([H])C([H])([H])C([H])(n5nc(-c6c([H])c([H])c(Oc7c([H])c([H])c(F)c([H])c7F)c([H])c6[H])c(C(=O)N([H])[H])c5N([H])[H])C4([H])[H])c3[H])c([H])c([H])c2C1([H])[H]

$$$$
17:0:0
     RDKit          3D

 99107  0  0  1  0  0  0  0  0999 V2000
  -32.3340  -21.1120   20.2570 C   0  0  0  0  0  1  0  0  0  0  0  0
  -30.9640  -20.4460   20.0160 C   0  0  0  0  0  3  0  0  0  0  0  0
  -30.7890  -17.8740   20.2000 C   0  0  0  0  0  3  0  0  0  0  0  0
  -30.9000  -17.9280   22.9970 C   0  0  0  0  0  3  0  0  0  0  0  0
  -30.8440  -19.1450   20.8640 C   0  0  0  0  0  0  0  0  0  0  0  0
  -30.7900  -16.6460   20.9240 C   0  0  0  0  0  0  0  0  0  0  0  0
  -30.8970  -19.1450   22.2860 C   0  0  0  0  0  0  0  0  0  0  0  0
  -30.8410  -16.6940   22.3270 C   0  0  0  0  0  0  0  0  0  0  0  0
  -30.7990  -15.5430   23.0420 F   0  0  0  0  0  0  0  0  0  0  0  0
  -31.2850  -14.3480   19.9320 C   0  0  0  0  0  0  0  0  0  0  0  0
  -30.8590  -12.2290   18.7150 C   0  0  0  0  0  2  0  0  0  0  0  0
  -29.8490  -12.5270   17.5830 C   0  0  0  0  0  2  0  0  0  0  0  0
  -28.3940  -12.4610   18.0970 C   0  0  0  0  0  2  0  0  0  0  0  0
  -28.1870  -13.2630   19.4090 C   0  0  0  0  0  3  0  0  0  0  0  0
  -29.2860  -12.9010   20.4350 C   0  0  0  0  0  2  0  0  0  0  0  0
  -30.5910  -13.1800   19.8040 N   0  0  0  0  0  0  0  0  0  0  0  0
  -32.4220  -14.5110   19.4810 O   0  0  0  0  0  0  0  0  0  0  0  0
  -30.4990  -15.3660   20.3490 N   0  0  0  0  0  0  0  0  0  0  0  0
  -29.5970  -15.0110   20.6250 H   0  0  0  0  0  0  0  0  0  0  0  0
  -25.8780  -14.0220   20.2590 C   0  0  0  0  0  0  0  0  0  0  0  0
  -24.7830  -13.3180   20.6790 C   0  0  0  0  0  0  0  0  0  0  0  0
  -25.1510  -11.9380   20.6060 C   0  0  0  0  0  0  0  0  0  0  0  0
  -26.8470  -13.0760   19.9590 N   0  0  0  0  0  0  0  0  0  0  0  0
  -26.4170  -11.8180   20.2260 N   0  0  0  0  0  0  0  0  0  0  0  0
  -24.3550  -10.7240   20.8200 C   0  0  0  0  0  0  0  0  0  0  0  0
  -24.7360   -9.7510   21.7700 C   0  0  0  0  0  3  0  0  0  0  0  0
  -23.9450   -8.6000   21.9710 C   0  0  0  0  0  3  0  0  0  0  0  0
  -22.7590   -8.4140   21.2220 C   0  0  0  0  0  0  0  0  0  0  0  0
  -22.3970   -9.3740   20.2600 C   0  0  0  0  0  3  0  0  0  0  0  0
  -23.1890  -10.5170   20.0570 C   0  0  0  0  0  3  0  0  0  0  0  0
  -21.9420   -7.3170   21.3300 O   0  0  0  0  0  0  0  0  0  0  0  0
  -21.7960   -6.6440   22.5180 C   0  0  0  0  0  0  0  0  0  0  0  0
  -21.3450   -7.2890   23.6890 C   0  0  0  0  0  3  0  0  0  0  0  0
  -21.1420   -6.5450   24.8690 C   0  0  0  0  0  3  0  0  0  0  0  0
  -21.3820   -5.1580   24.8770 C   0  0  0  0  0  0  0  0  0  0  0  0
  -21.8270   -4.5130   23.7080 C   0  0  0  0  0  3  0  0  0  0  0  0
  -22.0320   -5.2550   22.5320 C   0  0  0  0  0  0  0  0  0  0  0  0
  -22.4400   -4.6250   21.4040 F   0  0  0  0  0  0  0  0  0  0  0  0
  -21.1800   -4.4410   26.0070 F   0  0  0  0  0  0  0  0  0  0  0  0
  -23.4370  -13.8810   21.0320 C   0  0  0  0  0  0  0  0  0  0  0  0
  -22.7240  -13.2330   21.9450 N   0  0  0  0  0  0  0  0  0  0  0  0
  -23.0310  -14.9300   20.5340 O   0  0  0  0  0  0  0  0  0  0  0  0
  -23.0640  -12.3810   22.3670 H   0  0  0  0  0  0  0  0  0  0  0  0
  -21.8240  -13.5930   22.2270 H   0  0  0  0  0  0  0  0  0  0  0  0
  -26.1210  -15.3840   20.0900 N   0  0  0  0  0  0  0  0  0  0  0  0
  -25.3960  -16.0780   20.2450 H   0  0  0  0  0  0  0  0  0  0  0  0
  -26.9640  -15.7810   19.6960 H   0  0  0  0  0  0  0  0  0  0  0  0
  -30.9670  -20.3250   23.0250 N   0  0  0  0  0  0  0  0  0  0  0  0
  -31.1740  -20.3270   24.0180 H   0  0  0  0  0  0  0  0  0  0  0  0
  -31.0870  -21.2280   22.5600 H   0  0  0  0  0  0  0  0  0  0  0  0
  -29.7320  -22.6790   20.4770 C   0  0  0  0  0  0  0  0  0  0  0  0
  -29.8370  -21.4290   19.9550 N   0  0  0  0  0  0  0  0  0  0  0  0
  -30.3390  -22.9980   21.5010 O   0  0  0  0  0  0  0  0  0  0  0  0
  -29.2000  -21.2580   19.1880 H   0  0  0  0  0  0  0  0  0  0  0  0
  -27.8490  -23.1600   18.7910 C   0  0  0  0  0  1  0  0  0  0  0  0
  -29.9880  -24.4790   18.7840 C   0  0  0  0  0  1  0  0  0  0  0  0
  -28.9420  -23.7860   19.6850 C   0  0  2  0  0  0  0  0  0  0  0  0
  -28.2820  -24.8810   20.6120 C   0  0  0  0  0  2  0  0  0  0  0  0
  -28.3750  -26.2470   20.1170 O   0  0  0  0  0  0  0  0  0  0  0  0
  -24.6610  -31.5520   23.1640 C   0  0  0  0  0  0  0  0  0  0  0  0
  -27.2260  -27.0190   20.1270 C   0  0  0  0  0  0  0  0  0  0  0  0
  -23.4380  -30.1830   21.5040 C   0  0  0  0  0  3  0  0  0  0  0  0
  -24.8690  -28.5990   20.0990 C   0  0  0  0  0  0  0  0  0  0  0  0
  -25.9740  -30.4720   21.3330 C   0  0  0  0  0  2  0  0  0  0  0  0
  -26.0350  -29.0940   20.7000 C   0  0  0  0  0  0  0  0  0  0  0  0
  -27.2180  -28.3150   20.7030 C   0  0  0  0  0  3  0  0  0  0  0  0
  -26.0430  -26.5450   19.5220 C   0  0  0  0  0  3  0  0  0  0  0  0
  -24.8700  -27.3240   19.5050 C   0  0  0  0  0  3  0  0  0  0  0  0
  -23.6480  -29.4940   20.1290 C   0  0  0  0  0  2  0  0  0  0  0  0
  -24.7090  -30.7520   22.0590 N   0  0  0  0  0  0  0  0  0  0  0  0
  -23.5810  -31.8520   23.6930 O   0  0  0  0  0  0  0  0  0  0  0  0
  -22.7490  -29.1810   22.4590 C   0  0  0  0  0  0  0  0  0  0  0  0
  -21.4220  -29.0300   22.3120 N   0  0  0  0  0  0  0  0  0  0  0  0
  -23.4050  -28.5410   23.2840 O   0  0  0  0  0  0  0  0  0  0  0  0
  -20.9560  -29.5990   21.6200 H   0  0  0  0  0  0  0  0  0  0  0  0
  -18.0190  -27.8930   22.7440 C   0  0  0  0  0  0  0  0  0  0  0  0
  -20.5740  -28.1100   23.0690 C   0  0  0  0  0  3  0  0  0  0  0  0
  -20.6630  -26.6750   22.5020 C   0  0  0  0  0  2  0  0  0  0  0  0
  -19.5780  -26.3660   21.4650 C   0  0  0  0  0  2  0  0  0  0  0  0
  -18.1870  -26.5360   22.0800 C   0  0  0  0  0  2  0  0  0  0  0  0
  -19.1400  -28.6390   23.1940 C   0  0  0  0  0  0  0  0  0  0  0  0
  -18.9320  -29.9090   23.7730 C   0  0  0  0  0  3  0  0  0  0  0  0
  -17.6330  -30.4340   23.9080 C   0  0  0  0  0  3  0  0  0  0  0  0
  -16.5240  -29.6870   23.4730 C   0  0  0  0  0  3  0  0  0  0  0  0
  -16.7170  -28.4170   22.8990 C   0  0  0  0  0  3  0  0  0  0  0  0
  -25.9560  -32.1480   23.8010 C   0  0  0  0  0  3  0  0  0  0  0  0
  -25.6750  -33.5500   24.1380 N   0  0  0  0  0  0  0  0  0  0  0  0
  -26.0510  -34.6000   23.3960 C   0  0  0  0  0  0  0  0  0  0  0  0
  -26.7420  -34.4880   22.3790 O   0  0  0  0  0  0  0  0  0  0  0  0
  -25.0680  -33.7130   24.9280 H   0  0  0  0  0  0  0  0  0  0  0  0
  -24.3730  -36.4360   23.0230 C   0  0  0  0  0  1  0  0  0  0  0  0
  -25.5890  -35.9960   23.8540 C   0  0  0  0  0  3  0  0  0  0  0  0
  -27.7310  -36.8240   24.7250 C   0  0  0  0  0  1  0  0  0  0  0  0
  -26.6490  -37.0250   23.7640 N   0  0  0  0  0  0  0  0  0  0  0  0
  -26.2640  -37.9540   23.9080 H   0  0  0  0  0  0  0  0  0  0  0  0
  -26.4430  -31.3530   25.0730 C   0  0  1  0  0  0  0  0  0  0  0  0
  -25.3370  -31.1320   26.1310 C   0  0  0  0  0  1  0  0  0  0  0  0
  -26.9960  -29.9660   24.6700 C   0  0  0  0  0  1  0  0  0  0  0  0
  -27.6070  -32.1130   25.7510 C   0  0  0  0  0  1  0  0  0  0  0  0
  2  1  1  0
  2  5  1  0
  3  5  2  0
  3  6  1  0
  5  7  1  0
  6  8  2  0
  7  4  2  0
  7 48  1  0
  8  4  1  0
  8  9  1  0
 10 18  1  0
 11 16  1  0
 12 13  1  0
 12 11  1  0
 14 13  1  0
 14 23  1  0
 14 15  1  0
 16 10  1  0
 16 15  1  0
 17 10  2  0
 18 19  1  0
 18  6  1  0
 20 21  2  0
 21 40  1  0
 22 21  1  0
 22 25  1  0
 23 24  1  0
 23 20  1  0
 24 22  2  0
 25 26  1  0
 26 27  2  0
 28 31  1  0
 28 27  1  0
 29 28  2  0
 30 29  1  0
 30 25  2  0
 31 32  1  0
 32 37  2  0
 32 33  1  0
 33 34  2  0
 34 35  1  0
 35 39  1  0
 36 35  2  0
 37 36  1  0
 38 37  1  0
 40 41  1  0
 41 44  1  0
 41 43  1  0
 42 40  2  0
 45 46  1  0
 45 20  1  0
 47 45  1  0
 48 49  1  0
 50 48  1  0
 51 53  2  0
 52  2  1  0
 52 51  1  0
 54 52  1  0
 57 55  1  6
 56 57  1  0
 57 51  1  0
 57 58  1  0
 59 61  1  0
 59 58  1  0
 60 71  2  0
 61 66  1  0
 62 70  1  0
 62 72  1  0
 63 69  1  0
 63 65  1  0
 64 70  1  0
 65 66  2  0
 65 64  1  0
 67 61  2  0
 68 67  1  0
 68 63  2  0
 69 62  1  0
 70 60  1  0
 72 74  2  0
 73 72  1  0
 75 73  1  0
 76 85  2  0
 76 81  1  0
 77 73  1  0
 77 81  1  0
 78 77  1  0
 79 80  1  0
 79 78  1  0
 80 76  1  0
 81 82  2  0
 82 83  1  0
 84 83  2  0
 85 84  1  0
 86 60  1  0
 86 87  1  0
 86 96  1  0
 87 90  1  0
 88 92  1  0
 88 87  1  0
 89 88  2  0
 92 91  1  0
 94 92  1  0
 94 95  1  0
 94 93  1  0
 96 99  1  1
 96 97  1  0
 98 96  1  0
M  ISO  4  10 100  18 100  58 101  59 101
M  END
>  <TORSDO>  (18) 
F 21

>  <SCORE>  (18) 
-12.270

>  <name>  (18) 
17

>  <ligand_id>  (18) 
17

>  <original_smiles>  (18) 
[H]c1c([H])c([H])c2c(c1[H])C([H])([H])C([H])([H])C([H])([H])C2([H])N([H])C(=O)C1([H])N(C(=O)C([H])(N([H])C(=O)C([H])(N([H])C([H])([H])[H])C([H])([H])[H])C(C([H])([H])[H])(C([H])([H])[H])C([H])([H])[H])C([H])([H])c2c([H])c(OC([H])([H])C(C(=O)N([H])C([H])(c3c([H])c(N([H])C(=O)N4C([H])([H])C([H])([H])C([H])([H])C([H])(n5nc(-c6c([H])c([H])c(Oc7c([H])c([H])c(F)c([H])c7F)c([H])c6[H])c(C(=O)N([H])[H])c5N([H])[H])C4([H])[H])c(F)c([H])c3N([H])[H])C([H])([H])[H])(C([H])([H])[H])C([H])([H])[H])c([H])c([H])c2C1([H])[H]

>  <smiles>  (18) 
[H]c1c([H])c([H])c2c(c1[H])C([H])([H])C([H])([H])C([H])([H])C2([H])N([H])C(=O)C1([H])N(C(=O)C([H])(N([H])C(=O)C([H])(N([H])C([H])([H])[H])C([H])([H])[H])C(C([H])([H])[H])(C([H])([H])[H])C([H])([H])[H])C([H])([H])c2c([H])c(OC([H])([H])C(C(=O)N([H])C([H])(c3c([H])c(N([H])C(=O)N4C([H])([H])C([H])([H])C([H])([H])C([H])(n5nc(-c6c([H])c([H])c(Oc7c([H])c([H])c(F)c([H])c7F)c([H])c6[H])c(C(=O)N([H])[H])c5N([H])[H])C4([H])[H])c(F)c([H])c3N([H])[H])C([H])([H])[H])(C([H])([H])[H])C([H])([H])[H])c([H])c([H])c2C1([H])[H]

$$$$
18:0:0
     RDKit          3D

 98107  0  0  1  0  0  0  0  0999 V2000
  -29.0280  -22.9400   17.9860 C   0  0  0  0  0  2  0  0  0  0  0  0
  -29.6320  -21.6570   17.4060 C   0  0  0  0  0  2  0  0  0  0  0  0
  -30.7540  -21.1680   19.6430 C   0  0  0  0  0  3  0  0  0  0  0  0
  -28.7870  -22.8440   19.5100 C   0  0  0  0  0  3  0  0  0  0  0  0
  -30.9620  -21.2770   18.0910 C   0  0  2  0  0  0  0  0  0  0  0  0
  -32.0570  -22.3240   17.7700 C   0  0  0  0  0  1  0  0  0  0  0  0
  -31.4470  -19.9460   17.4660 C   0  0  0  0  0  1  0  0  0  0  0  0
  -29.9770  -22.3020   20.2420 N   0  0  0  0  0  4  0  0  0  0  0  0
  -30.6390  -23.0540   20.3330 H   0  0  0  0  0  0  0  0  0  0  0  0
  -29.7130  -22.0410   21.1800 H   0  0  0  0  0  0  0  0  0  0  0  0
  -29.2010  -19.1140   19.9730 C   0  0  0  0  0  3  0  0  0  0  0  0
  -29.0130  -17.7410   20.2670 C   0  0  0  0  0  3  0  0  0  0  0  0
  -31.3210  -17.5710   20.9840 C   0  0  0  0  0  3  0  0  0  0  0  0
  -30.4610  -19.7320   20.1570 C   0  0  0  0  0  0  0  0  0  0  0  0
  -30.0830  -16.9370   20.7320 C   0  0  0  0  0  0  0  0  0  0  0  0
  -31.5090  -18.9430   20.7000 C   0  0  0  0  0  0  0  0  0  0  0  0
  -32.7330  -19.4840   20.9090 F   0  0  0  0  0  0  0  0  0  0  0  0
  -30.6260  -14.5070   20.4900 C   0  0  0  0  0  0  0  0  0  0  0  0
  -30.3520  -12.3320   19.3540 C   0  0  0  0  0  2  0  0  0  0  0  0
  -29.4170  -12.5370   18.1440 C   0  0  0  0  0  2  0  0  0  0  0  0
  -27.9370  -12.4080   18.5610 C   0  0  0  0  0  2  0  0  0  0  0  0
  -27.5950  -13.2340   19.8310 C   0  0  0  0  0  3  0  0  0  0  0  0
  -28.6470  -13.0090   20.9430 C   0  0  0  0  0  2  0  0  0  0  0  0
  -29.9720  -13.3160   20.3800 N   0  0  0  0  0  0  0  0  0  0  0  0
  -31.7690  -14.6770   20.0550 O   0  0  0  0  0  0  0  0  0  0  0  0
  -29.8740  -15.5330   20.9530 N   0  0  0  0  0  0  0  0  0  0  0  0
  -28.9420  -15.2620   21.2280 H   0  0  0  0  0  0  0  0  0  0  0  0
  -25.1930  -13.8400   20.5300 C   0  0  0  0  0  0  0  0  0  0  0  0
  -24.1250  -13.0680   20.8980 C   0  0  0  0  0  0  0  0  0  0  0  0
  -24.5870  -11.7160   20.8690 C   0  0  0  0  0  0  0  0  0  0  0  0
  -26.2400  -12.9600   20.3040 N   0  0  0  0  0  0  0  0  0  0  0  0
  -25.8780  -11.6770   20.5650 N   0  0  0  0  0  0  0  0  0  0  0  0
  -23.8590  -10.4550   21.0580 C   0  0  0  0  0  0  0  0  0  0  0  0
  -24.2910   -9.4850   21.9900 C   0  0  0  0  0  3  0  0  0  0  0  0
  -23.5650   -8.2880   22.1660 C   0  0  0  0  0  3  0  0  0  0  0  0
  -22.3940   -8.0500   21.4080 C   0  0  0  0  0  0  0  0  0  0  0  0
  -21.9820   -9.0070   20.4650 C   0  0  0  0  0  3  0  0  0  0  0  0
  -22.7070  -10.1960   20.2870 C   0  0  0  0  0  3  0  0  0  0  0  0
  -21.6400   -6.9040   21.4930 O   0  0  0  0  0  0  0  0  0  0  0  0
  -21.5910   -6.1590   22.6440 C   0  0  0  0  0  0  0  0  0  0  0  0
  -21.1540   -6.7070   23.8690 C   0  0  0  0  0  3  0  0  0  0  0  0
  -21.0530   -5.8870   25.0100 C   0  0  0  0  0  3  0  0  0  0  0  0
  -21.3780   -4.5210   24.9290 C   0  0  0  0  0  0  0  0  0  0  0  0
  -21.8070   -3.9710   23.7070 C   0  0  0  0  0  3  0  0  0  0  0  0
  -21.9100   -4.7870   22.5680 C   0  0  0  0  0  0  0  0  0  0  0  0
  -22.3040   -4.2490   21.3890 F   0  0  0  0  0  0  0  0  0  0  0  0
  -21.2720   -3.7310   26.0230 F   0  0  0  0  0  0  0  0  0  0  0  0
  -22.7270  -13.5460   21.1660 C   0  0  0  0  0  0  0  0  0  0  0  0
  -21.9940  -12.8460   22.0260 N   0  0  0  0  0  0  0  0  0  0  0  0
  -22.2920  -14.5740   20.6490 O   0  0  0  0  0  0  0  0  0  0  0  0
  -22.3580  -12.0150   22.4670 H   0  0  0  0  0  0  0  0  0  0  0  0
  -21.0570  -13.1480   22.2490 H   0  0  0  0  0  0  0  0  0  0  0  0
  -25.3570  -15.2110   20.3510 N   0  0  0  0  0  0  0  0  0  0  0  0
  -24.5850  -15.8620   20.4470 H   0  0  0  0  0  0  0  0  0  0  0  0
  -26.1960  -15.6440   19.9900 H   0  0  0  0  0  0  0  0  0  0  0  0
  -28.2340  -24.1880   20.1290 C   0  0  0  0  0  3  0  0  0  0  0  0
  -28.6350  -25.5250   19.4300 C   0  0  0  0  0  3  0  0  0  0  0  0
  -28.4060  -26.7270   20.1910 O   0  0  0  0  0  0  0  0  0  0  0  0
  -24.5650  -31.8720   23.2450 C   0  0  0  0  0  0  0  0  0  0  0  0
  -27.2060  -27.4170   20.1500 C   0  0  0  0  0  0  0  0  0  0  0  0
  -23.3520  -30.4730   21.6040 C   0  0  0  0  0  3  0  0  0  0  0  0
  -24.8010  -28.9280   20.1690 C   0  0  0  0  0  0  0  0  0  0  0  0
  -25.8760  -30.8250   21.3960 C   0  0  0  0  0  2  0  0  0  0  0  0
  -25.9570  -29.4500   20.7590 C   0  0  0  0  0  0  0  0  0  0  0  0
  -27.1550  -28.6980   20.7520 C   0  0  0  0  0  3  0  0  0  0  0  0
  -26.0280  -26.9080   19.5560 C   0  0  0  0  0  3  0  0  0  0  0  0
  -24.8320  -27.6550   19.5680 C   0  0  0  0  0  3  0  0  0  0  0  0
  -23.5560  -29.7880   20.2240 C   0  0  0  0  0  2  0  0  0  0  0  0
  -24.6170  -31.0720   22.1410 N   0  0  0  0  0  0  0  0  0  0  0  0
  -23.4880  -32.1450   23.7900 O   0  0  0  0  0  0  0  0  0  0  0  0
  -22.7010  -29.4540   22.5660 C   0  0  0  0  0  0  0  0  0  0  0  0
  -21.3750  -29.2760   22.4440 N   0  0  0  0  0  0  0  0  0  0  0  0
  -23.3850  -28.8270   23.3790 O   0  0  0  0  0  0  0  0  0  0  0  0
  -20.8810  -29.8310   21.7580 H   0  0  0  0  0  0  0  0  0  0  0  0
  -18.0000  -28.0900   22.9460 C   0  0  0  0  0  0  0  0  0  0  0  0
  -20.5580  -28.3390   23.2160 C   0  0  0  0  0  3  0  0  0  0  0  0
  -20.6570  -26.9090   22.6340 C   0  0  0  0  0  2  0  0  0  0  0  0
  -19.5520  -26.5920   21.6220 C   0  0  0  0  0  2  0  0  0  0  0  0
  -18.1720  -26.7400   22.2690 C   0  0  0  0  0  2  0  0  0  0  0  0
  -19.1210  -28.8470   23.3770 C   0  0  0  0  0  0  0  0  0  0  0  0
  -18.9090  -30.1110   23.9680 C   0  0  0  0  0  3  0  0  0  0  0  0
  -17.6060  -30.6170   24.1370 C   0  0  0  0  0  3  0  0  0  0  0  0
  -16.4990  -29.8560   23.7240 C   0  0  0  0  0  3  0  0  0  0  0  0
  -16.6960  -28.5950   23.1340 C   0  0  0  0  0  3  0  0  0  0  0  0
  -25.8550  -32.5000   23.8610 C   0  0  0  0  0  3  0  0  0  0  0  0
  -26.3710  -31.7310   25.1380 C   0  0  1  0  0  0  0  0  0  0  0  0
  -25.2790  -31.5030   26.2090 C   0  0  0  0  0  1  0  0  0  0  0  0
  -26.9440  -30.3490   24.7470 C   0  0  0  0  0  1  0  0  0  0  0  0
  -27.5260  -32.5220   25.7980 C   0  0  0  0  0  1  0  0  0  0  0  0
  -25.5550  -33.9010   24.1850 N   0  0  0  0  0  0  0  0  0  0  0  0
  -25.8950  -34.9480   23.4210 C   0  0  0  0  0  0  0  0  0  0  0  0
  -26.5650  -34.8360   22.3910 O   0  0  0  0  0  0  0  0  0  0  0  0
  -24.9620  -34.0640   24.9860 H   0  0  0  0  0  0  0  0  0  0  0  0
  -24.1830  -36.7490   23.0430 C   0  0  0  0  0  1  0  0  0  0  0  0
  -25.4120  -36.3400   23.8690 C   0  0  0  0  0  3  0  0  0  0  0  0
  -27.5460  -37.2120   24.7150 C   0  0  0  0  0  1  0  0  0  0  0  0
  -26.4530  -37.3850   23.7610 N   0  0  0  0  0  0  0  0  0  0  0  0
  -26.0530  -38.3090   23.9030 H   0  0  0  0  0  0  0  0  0  0  0  0
  1  4  1  0
  2  1  1  0
  2  5  1  0
  3 14  1  0
  3  8  1  0
  4 56  1  0
  4  8  1  0
  5  3  1  0
  5  6  1  1
  7  5  1  0
  8  9  1  0
  8 10  1  0
 11 14  2  0
 11 12  1  0
 12 15  2  0
 14 16  1  0
 15 26  1  0
 15 13  1  0
 16 17  1  0
 16 13  2  0
 18 26  1  0
 19 24  1  0
 20 21  1  0
 20 19  1  0
 22 21  1  0
 22 31  1  0
 22 23  1  0
 24 18  1  0
 24 23  1  0
 25 18  2  0
 26 27  1  0
 28 29  2  0
 29 48  1  0
 30 29  1  0
 30 33  1  0
 31 28  1  0
 31 32  1  0
 32 30  2  0
 33 34  1  0
 34 35  2  0
 36 39  1  0
 36 35  1  0
 37 36  2  0
 38 37  1  0
 38 33  2  0
 39 40  1  0
 40 41  1  0
 41 42  2  0
 43 42  1  0
 43 47  1  0
 44 43  2  0
 45 40  2  0
 45 44  1  0
 46 45  1  0
 48 49  1  0
 49 52  1  0
 49 51  1  0
 50 48  2  0
 53 54  1  0
 53 28  1  0
 55 53  1  0
 57 56  2  0
 57 58  1  0
 59 70  2  0
 60 58  1  0
 60 65  1  0
 61 69  1  0
 61 71  1  0
 62 68  1  0
 62 64  1  0
 63 69  1  0
 64 63  1  0
 65 64  2  0
 66 67  1  0
 66 60  2  0
 67 62  2  0
 68 61  1  0
 69 59  1  0
 71 73  2  0
 72 71  1  0
 74 72  1  0
 75 84  2  0
 75 80  1  0
 76 72  1  0
 76 80  1  0
 77 76  1  0
 78 79  1  0
 78 77  1  0
 79 75  1  0
 80 81  2  0
 81 82  1  0
 83 82  2  0
 84 83  1  0
 85 59  1  0
 85 90  1  0
 85 86  1  0
 86 89  1  1
 86 87  1  0
 88 86  1  0
 90 93  1  0
 91 95  1  0
 91 90  1  0
 92 91  2  0
 95 94  1  0
 97 95  1  0
 97 98  1  0
 97 96  1  0
M  ISO  4  18 100  26 100  57 101  58 101
M  END
>  <TORSDO>  (19) 
F 19

>  <SCORE>  (19) 
-14.594

>  <name>  (19) 
18

>  <ligand_id>  (19) 
18

>  <original_smiles>  (19) 
[H]c1c([H])c([H])c2c(c1[H])C([H])([H])C([H])([H])C([H])([H])C2([H])N([H])C(=O)C1([H])N(C(=O)C([H])(N([H])C(=O)C([H])(N([H])C([H])([H])[H])C([H])([H])[H])C(C([H])([H])[H])(C([H])([H])[H])C([H])([H])[H])C([H])([H])c2c([H])c(OC([H])([H])C([H])([H])C3([H])C([H])([H])C([H])([H])C(C([H])([H])[H])(C([H])([H])[H])C([H])(c4c([H])c([H])c(N([H])C(=O)N5C([H])([H])C([H])([H])C([H])([H])C([H])(n6nc(-c7c([H])c([H])c(Oc8c([H])c([H])c(F)c([H])c8F)c([H])c7[H])c(C(=O)N([H])[H])c6N([H])[H])C5([H])[H])c([H])c4F)[N+]3([H])[H])c([H])c([H])c2C1([H])[H]

>  <smiles>  (19) 
[H]c1c([H])c([H])c2c(c1[H])C([H])([H])C([H])([H])C([H])([H])C2([H])N([H])C(=O)C1([H])N(C(=O)C([H])(N([H])C(=O)C([H])(N([H])C([H])([H])[H])C([H])([H])[H])C(C([H])([H])[H])(C([H])([H])[H])C([H])([H])[H])C([H])([H])c2c([H])c(OC([H])([H])C([H])([H])C3([H])C([H])([H])C([H])([H])C(C([H])([H])[H])(C([H])([H])[H])C([H])(c4c([H])c([H])c(N([H])C(=O)N5C([H])([H])C([H])([H])C([H])([H])C([H])(n6nc(-c7c([H])c([H])c(Oc8c([H])c([H])c(F)c([H])c8F)c([H])c7[H])c(C(=O)N([H])[H])c6N([H])[H])C5([H])[H])c([H])c4F)[N+]3([H])[H])c([H])c([H])c2C1([H])[H]

$$$$
19:0:0
     RDKit          3D

 94102  0  0  1  0  0  0  0  0999 V2000
  -28.6220  -23.1440   21.5410 C   0  0  0  0  0  0  0  0  0  0  0  0
  -29.7090  -21.4350   22.8840 C   0  0  0  0  0  1  0  0  0  0  0  0
  -29.4660  -22.0750   21.5830 N   0  0  0  0  0  0  0  0  0  0  0  0
  -27.7980  -23.3210   22.4450 O   0  0  0  0  0  0  0  0  0  0  0  0
  -30.0810  -21.4050   20.4130 C   0  0  0  0  0  2  0  0  0  0  0  0
  -28.8780  -17.7370   20.4990 C   0  0  0  0  0  3  0  0  0  0  0  0
  -31.2780  -17.8560   20.6460 C   0  0  0  0  0  3  0  0  0  0  0  0
  -30.1100  -17.0560   20.6290 C   0  0  0  0  0  0  0  0  0  0  0  0
  -28.8500  -19.1430   20.3910 C   0  0  0  0  0  0  0  0  0  0  0  0
  -30.0660  -19.8570   20.4430 C   0  0  0  0  0  0  0  0  0  0  0  0
  -31.2590  -19.2150   20.5630 N   0  0  0  0  0  0  0  0  0  0  0  0
  -27.6690  -19.7950   20.2550 F   0  0  0  0  0  0  0  0  0  0  0  0
  -30.8340  -14.6740   20.1770 C   0  0  0  0  0  0  0  0  0  0  0  0
  -30.5390  -12.5330   18.9720 C   0  0  0  0  0  2  0  0  0  0  0  0
  -29.5500  -12.7710   17.8080 C   0  0  0  0  0  2  0  0  0  0  0  0
  -28.0860  -12.6300   18.2780 C   0  0  0  0  0  2  0  0  0  0  0  0
  -27.8000  -13.4280   19.5790 C   0  0  0  0  0  3  0  0  0  0  0  0
  -28.8860  -13.1380   20.6390 C   0  0  0  0  0  2  0  0  0  0  0  0
  -30.1960  -13.4750   20.0490 N   0  0  0  0  0  0  0  0  0  0  0  0
  -31.9380  -14.9060   19.6780 O   0  0  0  0  0  0  0  0  0  0  0  0
  -30.0890  -15.6250   20.7850 N   0  0  0  0  0  0  0  0  0  0  0  0
  -29.2370  -15.2480   21.1720 H   0  0  0  0  0  0  0  0  0  0  0  0
  -25.4290  -14.0550   20.3600 C   0  0  0  0  0  0  0  0  0  0  0  0
  -24.3650  -13.2920   20.7600 C   0  0  0  0  0  0  0  0  0  0  0  0
  -24.8100  -11.9360   20.7010 C   0  0  0  0  0  0  0  0  0  0  0  0
  -26.4570  -13.1650   20.0900 N   0  0  0  0  0  0  0  0  0  0  0  0
  -26.0890  -11.8850   20.3520 N   0  0  0  0  0  0  0  0  0  0  0  0
  -24.0750  -10.6800   20.9000 C   0  0  0  0  0  0  0  0  0  0  0  0
  -24.4880   -9.7300   21.8610 C   0  0  0  0  0  3  0  0  0  0  0  0
  -23.7570   -8.5370   22.0480 C   0  0  0  0  0  3  0  0  0  0  0  0
  -22.5990   -8.2860   21.2740 C   0  0  0  0  0  0  0  0  0  0  0  0
  -22.2050   -9.2240   20.3040 C   0  0  0  0  0  3  0  0  0  0  0  0
  -22.9370  -10.4090   20.1150 C   0  0  0  0  0  3  0  0  0  0  0  0
  -21.8410   -7.1440   21.3680 O   0  0  0  0  0  0  0  0  0  0  0  0
  -21.7140   -6.4600   22.5510 C   0  0  0  0  0  0  0  0  0  0  0  0
  -21.1880   -7.0700   23.7110 C   0  0  0  0  0  3  0  0  0  0  0  0
  -21.0110   -6.3110   24.8860 C   0  0  0  0  0  3  0  0  0  0  0  0
  -21.3490   -4.9440   24.8990 C   0  0  0  0  0  0  0  0  0  0  0  0
  -21.8670   -4.3350   23.7420 C   0  0  0  0  0  3  0  0  0  0  0  0
  -22.0460   -5.0910   22.5710 C   0  0  0  0  0  0  0  0  0  0  0  0
  -22.5280   -4.4950   21.4540 F   0  0  0  0  0  0  0  0  0  0  0  0
  -21.1710   -4.2120   26.0230 F   0  0  0  0  0  0  0  0  0  0  0  0
  -22.9810  -13.7820   21.0780 C   0  0  0  0  0  0  0  0  0  0  0  0
  -22.2740  -13.0900   21.9660 N   0  0  0  0  0  0  0  0  0  0  0  0
  -22.5360  -14.8120   20.5750 O   0  0  0  0  0  0  0  0  0  0  0  0
  -22.6490  -12.2570   22.3970 H   0  0  0  0  0  0  0  0  0  0  0  0
  -21.3460  -13.3970   22.2160 H   0  0  0  0  0  0  0  0  0  0  0  0
  -25.6000  -15.4230   20.1780 N   0  0  0  0  0  0  0  0  0  0  0  0
  -24.8190  -16.0650   20.2620 H   0  0  0  0  0  0  0  0  0  0  0  0
  -26.3940  -15.8290   19.7000 H   0  0  0  0  0  0  0  0  0  0  0  0
  -28.7350  -24.2400   20.4430 C   0  0  0  0  0  2  0  0  0  0  0  0
  -29.5040  -26.1860   21.9750 C   0  0  0  0  0  1  0  0  0  0  0  0
  -28.4470  -25.6920   20.9750 C   0  0  0  0  0  3  0  0  0  0  0  0
  -28.3810  -26.7050   19.9480 O   0  0  0  0  0  0  0  0  0  0  0  0
  -24.6460  -31.8800   23.1790 C   0  0  0  0  0  0  0  0  0  0  0  0
  -27.2420  -27.4830   19.9870 C   0  0  0  0  0  0  0  0  0  0  0  0
  -23.4160  -30.5010   21.5350 C   0  0  0  0  0  3  0  0  0  0  0  0
  -24.8490  -28.9880   20.0620 C   0  0  0  0  0  0  0  0  0  0  0  0
  -25.9370  -30.8680   21.2980 C   0  0  0  0  0  2  0  0  0  0  0  0
  -26.0170  -29.5040   20.6380 C   0  0  0  0  0  0  0  0  0  0  0  0
  -27.2210  -28.7610   20.5950 C   0  0  0  0  0  3  0  0  0  0  0  0
  -26.0610  -26.9800   19.4070 C   0  0  0  0  0  3  0  0  0  0  0  0
  -24.8650  -27.7250   19.4430 C   0  0  0  0  0  3  0  0  0  0  0  0
  -23.6030  -29.8420   20.1420 C   0  0  0  0  0  2  0  0  0  0  0  0
  -24.6860  -31.0970   22.0630 N   0  0  0  0  0  0  0  0  0  0  0  0
  -23.5740  -32.1410   23.7410 O   0  0  0  0  0  0  0  0  0  0  0  0
  -22.7800  -29.4660   22.4900 C   0  0  0  0  0  0  0  0  0  0  0  0
  -21.4540  -29.2830   22.3810 N   0  0  0  0  0  0  0  0  0  0  0  0
  -23.4780  -28.8280   23.2850 O   0  0  0  0  0  0  0  0  0  0  0  0
  -20.9520  -29.8480   21.7110 H   0  0  0  0  0  0  0  0  0  0  0  0
  -18.0910  -28.0750   22.9120 C   0  0  0  0  0  0  0  0  0  0  0  0
  -20.6510  -28.3320   23.1510 C   0  0  0  0  0  3  0  0  0  0  0  0
  -20.7480  -26.9110   22.5500 C   0  0  0  0  0  2  0  0  0  0  0  0
  -19.6320  -26.6020   21.5470 C   0  0  0  0  0  2  0  0  0  0  0  0
  -18.2590  -26.7360   22.2140 C   0  0  0  0  0  2  0  0  0  0  0  0
  -19.2140  -28.8310   23.3390 C   0  0  0  0  0  0  0  0  0  0  0  0
  -19.0030  -30.0860   23.9510 C   0  0  0  0  0  3  0  0  0  0  0  0
  -17.7010  -30.5830   24.1420 C   0  0  0  0  0  3  0  0  0  0  0  0
  -16.5920  -29.8230   23.7330 C   0  0  0  0  0  3  0  0  0  0  0  0
  -16.7880  -28.5710   23.1230 C   0  0  0  0  0  3  0  0  0  0  0  0
  -25.9420  -32.5030   23.7860 C   0  0  0  0  0  3  0  0  0  0  0  0
  -26.4810  -31.7150   25.0420 C   0  0  1  0  0  0  0  0  0  0  0  0
  -25.4060  -31.4590   26.1240 C   0  0  0  0  0  1  0  0  0  0  0  0
  -27.0590  -30.3440   24.6190 C   0  0  0  0  0  1  0  0  0  0  0  0
  -27.6390  -32.5010   25.6970 C   0  0  0  0  0  1  0  0  0  0  0  0
  -25.6390  -33.8970   24.1390 N   0  0  0  0  0  0  0  0  0  0  0  0
  -25.9760  -34.9600   23.3950 C   0  0  0  0  0  0  0  0  0  0  0  0
  -26.6460  -34.8700   22.3620 O   0  0  0  0  0  0  0  0  0  0  0  0
  -25.0430  -34.0420   24.9420 H   0  0  0  0  0  0  0  0  0  0  0  0
  -24.2660  -36.7720   23.0520 C   0  0  0  0  0  1  0  0  0  0  0  0
  -25.4930  -36.3420   23.8720 C   0  0  0  0  0  3  0  0  0  0  0  0
  -27.6200  -37.1940   24.7540 C   0  0  0  0  0  1  0  0  0  0  0  0
  -26.5350  -37.3890   23.7960 N   0  0  0  0  0  0  0  0  0  0  0  0
  -26.1340  -38.3100   23.9540 H   0  0  0  0  0  0  0  0  0  0  0  0
  1  3  1  0
  1  4  2  0
  3  2  1  0
  5 10  1  0
  5  3  1  0
  6  8  1  0
  8  7  2  0
  8 21  1  0
  9 10  1  0
  9  6  2  0
 10 11  2  0
 11  7  1  0
 12  9  1  0
 13 21  1  0
 14 19  1  0
 15 16  1  0
 15 14  1  0
 17 16  1  0
 17 26  1  0
 17 18  1  0
 19 13  1  0
 19 18  1  0
 20 13  2  0
 21 22  1  0
 23 24  2  0
 24 43  1  0
 25 24  1  0
 25 28  1  0
 26 27  1  0
 26 23  1  0
 27 25  2  0
 28 29  1  0
 29 30  2  0
 31 34  1  0
 31 30  1  0
 32 31  2  0
 33 32  1  0
 33 28  2  0
 34 35  1  0
 35 40  2  0
 35 36  1  0
 36 37  2  0
 37 38  1  0
 38 42  1  0
 39 38  2  0
 40 39  1  0
 41 40  1  0
 43 44  1  0
 44 47  1  0
 44 46  1  0
 45 43  2  0
 48 49  1  0
 48 23  1  0
 50 48  1  0
 51 53  1  0
 51  1  1  0
 53 52  1  0
 54 56  1  0
 54 53  1  0
 55 66  2  0
 56 61  1  0
 57 65  1  0
 57 67  1  0
 58 64  1  0
 58 60  1  0
 59 65  1  0
 60 59  1  0
 61 60  2  0
 62 63  1  0
 62 56  2  0
 63 58  2  0
 64 57  1  0
 65 55  1  0
 67 69  2  0
 68 67  1  0
 70 68  1  0
 71 80  2  0
 71 76  1  0
 72 68  1  0
 72 76  1  0
 73 72  1  0
 74 75  1  0
 74 73  1  0
 75 71  1  0
 76 77  2  0
 77 78  1  0
 79 78  2  0
 80 79  1  0
 81 55  1  0
 81 86  1  0
 81 82  1  0
 82 85  1  1
 82 83  1  0
 84 82  1  0
 86 89  1  0
 87 91  1  0
 87 86  1  0
 88 87  2  0
 91 90  1  0
 93 91  1  0
 93 94  1  0
 93 92  1  0
M  ISO  4  13 100  21 100  53 101  54 101
M  END
>  <TORSDO>  (20) 
F 20

>  <SCORE>  (20) 
-13.723

>  <name>  (20) 
19

>  <ligand_id>  (20) 
19

>  <original_smiles>  (20) 
[H]c1nc(C([H])([H])N(C(=O)C([H])([H])C([H])(Oc2c([H])c([H])c3c(c2[H])C([H])([H])N(C(=O)C([H])(N([H])C(=O)C([H])(N([H])C([H])([H])[H])C([H])([H])[H])C(C([H])([H])[H])(C([H])([H])[H])C([H])([H])[H])C([H])(C(=O)N([H])C2([H])c4c([H])c([H])c([H])c([H])c4C([H])([H])C([H])([H])C2([H])[H])C3([H])[H])C([H])([H])[H])C([H])([H])[H])c(F)c([H])c1N([H])C(=O)N1C([H])([H])C([H])([H])C([H])([H])C([H])(n2nc(-c3c([H])c([H])c(Oc4c([H])c([H])c(F)c([H])c4F)c([H])c3[H])c(C(=O)N([H])[H])c2N([H])[H])C1([H])[H]

>  <smiles>  (20) 
[H]c1nc(C([H])([H])N(C(=O)C([H])([H])C([H])(Oc2c([H])c([H])c3c(c2[H])C([H])([H])N(C(=O)C([H])(N([H])C(=O)C([H])(N([H])C([H])([H])[H])C([H])([H])[H])C(C([H])([H])[H])(C([H])([H])[H])C([H])([H])[H])C([H])(C(=O)N([H])C2([H])c4c([H])c([H])c([H])c([H])c4C([H])([H])C([H])([H])C2([H])[H])C3([H])[H])C([H])([H])[H])C([H])([H])[H])c(F)c([H])c1N([H])C(=O)N1C([H])([H])C([H])([H])C([H])([H])C([H])(n2nc(-c3c([H])c([H])c(Oc4c([H])c([H])c(F)c([H])c4F)c([H])c3[H])c(C(=O)N([H])[H])c2N([H])[H])C1([H])[H]

$$$$
20:0:0
     RDKit          3D

 97105  0  0  1  0  0  0  0  0999 V2000
  -30.8570  -20.7560   19.8810 C   0  0  0  0  0  0  0  0  0  0  0  0
  -29.7150  -20.0660   19.7010 N   0  0  0  0  0  0  0  0  0  0  0  0
  -31.8920  -20.2210   20.2820 O   0  0  0  0  0  0  0  0  0  0  0  0
  -28.9310  -20.6280   19.4100 H   0  0  0  0  0  0  0  0  0  0  0  0
  -30.4010  -17.6410   20.2690 C   0  0  0  0  0  3  0  0  0  0  0  0
  -29.4350  -18.6800   19.9690 C   0  0  0  0  0  0  0  0  0  0  0  0
  -28.1380  -18.2200   19.9490 C   0  0  0  0  0  0  0  0  0  0  0  0
  -29.8140  -16.4080   20.5120 C   0  0  0  0  0  0  0  0  0  0  0  0
  -28.0760  -16.5410   20.3980 S   0  0  0  0  0  0  0  0  0  0  0  0
  -30.8600  -14.2590   20.0340 C   0  0  0  0  0  0  0  0  0  0  0  0
  -30.5740  -11.9690   19.1320 C   0  0  0  0  0  2  0  0  0  0  0  0
  -29.5920  -12.0050   17.9420 C   0  0  0  0  0  2  0  0  0  0  0  0
  -28.1300  -11.9120   18.4250 C   0  0  0  0  0  2  0  0  0  0  0  0
  -27.8220  -12.9090   19.5730 C   0  0  0  0  0  3  0  0  0  0  0  0
  -28.8990  -12.8060   20.6750 C   0  0  0  0  0  2  0  0  0  0  0  0
  -30.2200  -13.0550   20.0590 N   0  0  0  0  0  0  0  0  0  0  0  0
  -31.8740  -14.4750   19.3620 O   0  0  0  0  0  0  0  0  0  0  0  0
  -30.3190  -15.1850   20.8460 N   0  0  0  0  0  0  0  0  0  0  0  0
  -29.7540  -14.7270   21.5470 H   0  0  0  0  0  0  0  0  0  0  0  0
  -25.4970  -13.6470   20.4060 C   0  0  0  0  0  0  0  0  0  0  0  0
  -24.4080  -12.9330   20.8260 C   0  0  0  0  0  0  0  0  0  0  0  0
  -24.7850  -11.5580   20.7520 C   0  0  0  0  0  0  0  0  0  0  0  0
  -26.4770  -12.7110   20.1130 N   0  0  0  0  0  0  0  0  0  0  0  0
  -26.0530  -11.4480   20.3730 N   0  0  0  0  0  0  0  0  0  0  0  0
  -23.9970  -10.3370   20.9640 C   0  0  0  0  0  0  0  0  0  0  0  0
  -24.4150   -9.3370   21.8700 C   0  0  0  0  0  3  0  0  0  0  0  0
  -23.6310   -8.1800   22.0680 C   0  0  0  0  0  3  0  0  0  0  0  0
  -22.4160   -8.0160   21.3620 C   0  0  0  0  0  0  0  0  0  0  0  0
  -22.0160   -9.0040   20.4440 C   0  0  0  0  0  3  0  0  0  0  0  0
  -22.8000  -10.1520   20.2440 C   0  0  0  0  0  3  0  0  0  0  0  0
  -21.6020   -6.9130   21.4720 O   0  0  0  0  0  0  0  0  0  0  0  0
  -21.5450   -6.1740   22.6260 C   0  0  0  0  0  0  0  0  0  0  0  0
  -21.1920   -6.7530   23.8650 C   0  0  0  0  0  3  0  0  0  0  0  0
  -21.0740   -5.9440   25.0130 C   0  0  0  0  0  3  0  0  0  0  0  0
  -21.3020   -4.5570   24.9240 C   0  0  0  0  0  0  0  0  0  0  0  0
  -21.6480   -3.9780   23.6890 C   0  0  0  0  0  3  0  0  0  0  0  0
  -21.7660   -4.7850   22.5440 C   0  0  0  0  0  0  0  0  0  0  0  0
  -22.0790   -4.2190   21.3530 F   0  0  0  0  0  0  0  0  0  0  0  0
  -21.1820   -3.7780   26.0230 F   0  0  0  0  0  0  0  0  0  0  0  0
  -23.0570  -13.4870   21.1820 C   0  0  0  0  0  0  0  0  0  0  0  0
  -22.3420  -12.8260   22.0860 N   0  0  0  0  0  0  0  0  0  0  0  0
  -22.6490  -14.5400   20.6940 O   0  0  0  0  0  0  0  0  0  0  0  0
  -22.6850  -11.9740   22.5030 H   0  0  0  0  0  0  0  0  0  0  0  0
  -21.4380  -13.1790   22.3660 H   0  0  0  0  0  0  0  0  0  0  0  0
  -25.7260  -15.0080   20.2310 N   0  0  0  0  0  0  0  0  0  0  0  0
  -24.9980  -15.6970   20.3750 H   0  0  0  0  0  0  0  0  0  0  0  0
  -26.5740  -15.3970   19.8400 H   0  0  0  0  0  0  0  0  0  0  0  0
  -26.8710  -18.8770   19.6520 C   0  0  0  0  0  3  0  0  0  0  0  0
  -26.6810  -19.7540   18.7560 N   0  0  0  0  0  0  0  0  0  0  0  0
  -27.5050  -19.9280   18.1930 H   0  0  0  0  0  0  0  0  0  0  0  0
  -29.8190  -22.9940   20.0340 C   0  0  0  0  0  3  0  0  0  0  0  0
  -30.7850  -22.1800   19.5150 C   0  0  0  0  0  0  0  0  0  0  0  0
  -31.8780  -22.6530   18.5600 C   0  0  0  0  0  1  0  0  0  0  0  0
  -29.7370  -24.4750   19.8260 C   0  0  0  0  0  0  0  0  0  0  0  0
  -30.7300  -25.1710   19.5860 O   0  0  0  0  0  0  0  0  0  0  0  0
  -28.3620  -25.1700   19.9600 C   0  0  0  0  0  2  0  0  0  0  0  0
  -28.4640  -26.6160   19.9180 O   0  0  0  0  0  0  0  0  0  0  0  0
  -24.5510  -31.6980   23.0770 C   0  0  0  0  0  0  0  0  0  0  0  0
  -27.2790  -27.3340   19.9270 C   0  0  0  0  0  0  0  0  0  0  0  0
  -23.3810  -30.3230   21.3890 C   0  0  0  0  0  3  0  0  0  0  0  0
  -24.8670  -28.8330   19.9490 C   0  0  0  0  0  0  0  0  0  0  0  0
  -25.9100  -30.7050   21.2350 C   0  0  0  0  0  2  0  0  0  0  0  0
  -26.0170  -29.3510   20.5580 C   0  0  0  0  0  0  0  0  0  0  0  0
  -27.2260  -28.6140   20.5370 C   0  0  0  0  0  3  0  0  0  0  0  0
  -26.1040  -26.8390   19.3130 C   0  0  0  0  0  3  0  0  0  0  0  0
  -24.9070  -27.5780   19.3240 C   0  0  0  0  0  3  0  0  0  0  0  0
  -23.6140  -29.6780   19.9990 C   0  0  0  0  0  2  0  0  0  0  0  0
  -24.6310  -30.9230   21.9580 N   0  0  0  0  0  0  0  0  0  0  0  0
  -23.4610  -31.9470   23.6080 O   0  0  0  0  0  0  0  0  0  0  0  0
  -22.7270  -29.2740   22.3170 C   0  0  0  0  0  0  0  0  0  0  0  0
  -21.4020  -29.1020   22.1880 N   0  0  0  0  0  0  0  0  0  0  0  0
  -23.4110  -28.6170   23.1070 O   0  0  0  0  0  0  0  0  0  0  0  0
  -20.9120  -29.6830   21.5230 H   0  0  0  0  0  0  0  0  0  0  0  0
  -18.0180  -27.9340   22.6890 C   0  0  0  0  0  0  0  0  0  0  0  0
  -20.5830  -28.1430   22.9310 C   0  0  0  0  0  3  0  0  0  0  0  0
  -20.6550  -26.7370   22.2910 C   0  0  0  0  0  2  0  0  0  0  0  0
  -19.5330  -26.4760   21.2800 C   0  0  0  0  0  2  0  0  0  0  0  0
  -18.1640  -26.6120   21.9520 C   0  0  0  0  0  2  0  0  0  0  0  0
  -19.1540  -28.6600   23.1340 C   0  0  0  0  0  0  0  0  0  0  0  0
  -18.9630  -29.9000   23.7820 C   0  0  0  0  0  3  0  0  0  0  0  0
  -17.6680  -30.4130   23.9850 C   0  0  0  0  0  3  0  0  0  0  0  0
  -16.5470  -29.6830   23.5560 C   0  0  0  0  0  3  0  0  0  0  0  0
  -16.7230  -28.4440   22.9150 C   0  0  0  0  0  3  0  0  0  0  0  0
  -25.8230  -32.3290   23.7270 C   0  0  0  0  0  3  0  0  0  0  0  0
  -25.4930  -33.7130   24.0920 N   0  0  0  0  0  0  0  0  0  0  0  0
  -25.8190  -34.7890   23.3660 C   0  0  0  0  0  0  0  0  0  0  0  0
  -26.5010  -34.7230   22.3380 O   0  0  0  0  0  0  0  0  0  0  0  0
  -24.8870  -33.8360   24.8900 H   0  0  0  0  0  0  0  0  0  0  0  0
  -24.0670  -36.5650   23.0470 C   0  0  0  0  0  1  0  0  0  0  0  0
  -25.3090  -36.1580   23.8560 C   0  0  0  0  0  3  0  0  0  0  0  0
  -27.4270  -37.0460   24.7220 C   0  0  0  0  0  1  0  0  0  0  0  0
  -26.3270  -37.2270   23.7790 N   0  0  0  0  0  0  0  0  0  0  0  0
  -25.9070  -38.1370   23.9520 H   0  0  0  0  0  0  0  0  0  0  0  0
  -26.3410  -31.5280   24.9850 C   0  0  1  0  0  0  0  0  0  0  0  0
  -25.2420  -31.2490   26.0380 C   0  0  0  0  0  1  0  0  0  0  0  0
  -26.9440  -30.1690   24.5590 C   0  0  0  0  0  1  0  0  0  0  0  0
  -27.4780  -32.3180   25.6750 C   0  0  0  0  0  1  0  0  0  0  0  0
  1  3  2  0
  2  1  1  0
  2  6  1  0
  4  2  1  0
  5  8  2  0
  6  5  1  0
  7  6  2  0
  7  9  1  0
  8 18  1  0
  9  8  1  0
 10 16  1  0
 10 18  1  0
 11 16  1  0
 12 13  1  0
 12 11  1  0
 14 13  1  0
 14 23  1  0
 14 15  1  0
 16 15  1  0
 17 10  2  0
 18 19  1  0
 20 21  2  0
 21 40  1  0
 22 21  1  0
 22 25  1  0
 23 24  1  0
 23 20  1  0
 24 22  2  0
 25 26  1  0
 26 27  2  0
 28 31  1  0
 28 27  1  0
 29 28  2  0
 30 29  1  0
 30 25  2  0
 31 32  1  0
 32 33  1  0
 33 34  2  0
 35 34  1  0
 35 39  1  0
 36 35  2  0
 37 32  2  0
 37 36  1  0
 38 37  1  0
 40 41  1  0
 41 44  1  0
 41 43  1  0
 42 40  2  0
 45 46  1  0
 45 20  1  0
 47 45  1  0
 48  7  1  0
 49 48  2  0
 50 49  1  0
 52  1  1  0
 52 51  2  0
 53 52  1  0
 54 56  1  0
 54 51  1  0
 55 54  2  0
 57 59  1  0
 57 56  1  0
 58 69  2  0
 59 64  1  0
 60 68  1  0
 60 70  1  0
 61 67  1  0
 61 63  1  0
 62 68  1  0
 63 62  1  0
 64 63  2  0
 65 66  1  0
 65 59  2  0
 66 61  2  0
 67 60  1  0
 68 58  1  0
 70 72  2  0
 71 70  1  0
 73 71  1  0
 74 83  2  0
 74 79  1  0
 75 71  1  0
 75 79  1  0
 76 75  1  0
 77 78  1  0
 77 76  1  0
 78 74  1  0
 79 80  2  0
 80 81  1  0
 82 81  2  0
 83 82  1  0
 84 58  1  0
 84 85  1  0
 84 94  1  0
 85 88  1  0
 86 90  1  0
 86 85  1  0
 87 86  2  0
 90 89  1  0
 92 90  1  0
 92 93  1  0
 92 91  1  0
 94 97  1  1
 94 95  1  0
 96 94  1  0
M  ISO  4  10 100  18 100  56 101  57 101
M  END
>  <TORSDO>  (21) 
F 21

>  <SCORE>  (21) 
-13.163

>  <name>  (21) 
20

>  <ligand_id>  (21) 
20

>  <original_smiles>  (21) 
[H]N=C([H])c1sc(N([H])C(=O)N2C([H])([H])C([H])([H])C([H])([H])C([H])(n3nc(-c4c([H])c([H])c(Oc5c([H])c([H])c(F)c([H])c5F)c([H])c4[H])c(C(=O)N([H])[H])c3N([H])[H])C2([H])[H])c([H])c1N([H])C(=O)C(=C([H])C(=O)C([H])([H])Oc1c([H])c([H])c2c(c1[H])C([H])([H])N(C(=O)C([H])(N([H])C(=O)C([H])(N([H])C([H])([H])[H])C([H])([H])[H])C(C([H])([H])[H])(C([H])([H])[H])C([H])([H])[H])C([H])(C(=O)N([H])C1([H])c3c([H])c([H])c([H])c([H])c3C([H])([H])C([H])([H])C1([H])[H])C2([H])[H])C([H])([H])[H]

>  <smiles>  (21) 
[H]N=C([H])c1sc(N([H])C(=O)N2C([H])([H])C([H])([H])C([H])([H])C([H])(n3nc(-c4c([H])c([H])c(Oc5c([H])c([H])c(F)c([H])c5F)c([H])c4[H])c(C(=O)N([H])[H])c3N([H])[H])C2([H])[H])c([H])c1N([H])C(=O)C(=C([H])C(=O)C([H])([H])Oc1c([H])c([H])c2c(c1[H])C([H])([H])N(C(=O)C([H])(N([H])C(=O)C([H])(N([H])C([H])([H])[H])C([H])([H])[H])C(C([H])([H])[H])(C([H])([H])[H])C([H])([H])[H])C([H])(C(=O)N([H])C1([H])c3c([H])c([H])c([H])c([H])c3C([H])([H])C([H])([H])C1([H])[H])C2([H])[H])C([H])([H])[H]

$$$$
21:0:0
     RDKit          3D

100108  0  0  1  0  0  0  0  0999 V2000
  -30.6400  -21.2100   21.4760 C   0  0  0  0  0  0  0  0  0  0  0  0
  -30.0790  -22.1640   20.7010 N   0  0  0  0  0  0  0  0  0  0  0  0
  -31.3590  -21.6070   22.5330 N   0  0  0  0  0  4  0  0  0  0  0  0
  -29.5410  -21.8670   19.8960 H   0  0  0  0  0  0  0  0  0  0  0  0
  -31.8470  -20.9180   23.0870 H   0  0  0  0  0  0  0  0  0  0  0  0
  -31.4420  -22.5710   22.8020 H   0  0  0  0  0  0  0  0  0  0  0  0
  -30.4040  -18.8960   22.3620 C   0  0  0  0  0  3  0  0  0  0  0  0
  -30.4750  -17.7750   19.7850 C   0  0  0  0  0  3  0  0  0  0  0  0
  -30.4940  -19.7580   21.2440 C   0  0  0  0  0  0  0  0  0  0  0  0
  -30.4120  -16.9170   20.9120 C   0  0  0  0  0  0  0  0  0  0  0  0
  -30.3490  -17.4980   22.1940 C   0  0  0  0  0  0  0  0  0  0  0  0
  -30.5080  -19.1830   19.9490 C   0  0  0  0  0  0  0  0  0  0  0  0
  -30.2390  -16.6970   23.2840 F   0  0  0  0  0  0  0  0  0  0  0  0
  -30.5730  -19.9730   18.8500 F   0  0  0  0  0  0  0  0  0  0  0  0
  -30.9140  -14.6300   19.9950 C   0  0  0  0  0  0  0  0  0  0  0  0
  -30.5680  -12.5260   18.7460 C   0  0  0  0  0  2  0  0  0  0  0  0
  -29.5290  -12.7620   17.6300 C   0  0  0  0  0  2  0  0  0  0  0  0
  -28.0920  -12.5900   18.1640 C   0  0  0  0  0  2  0  0  0  0  0  0
  -27.8490  -13.3740   19.4800 C   0  0  0  0  0  3  0  0  0  0  0  0
  -28.9810  -13.0900   20.4940 C   0  0  0  0  0  2  0  0  0  0  0  0
  -30.2650  -13.4420   19.8570 N   0  0  0  0  0  0  0  0  0  0  0  0
  -31.9410  -14.9110   19.3670 O   0  0  0  0  0  0  0  0  0  0  0  0
  -30.3260  -15.4920   20.8410 N   0  0  0  0  0  0  0  0  0  0  0  0
  -29.6420  -15.0860   21.4610 H   0  0  0  0  0  0  0  0  0  0  0  0
  -25.5060  -13.9480   20.3820 C   0  0  0  0  0  0  0  0  0  0  0  0
  -24.4700  -13.1590   20.8060 C   0  0  0  0  0  0  0  0  0  0  0  0
  -24.9310  -11.8120   20.6960 C   0  0  0  0  0  0  0  0  0  0  0  0
  -26.5330  -13.0800   20.0450 N   0  0  0  0  0  0  0  0  0  0  0  0
  -26.1930  -11.7880   20.2880 N   0  0  0  0  0  0  0  0  0  0  0  0
  -24.2260  -10.5390   20.8990 C   0  0  0  0  0  0  0  0  0  0  0  0
  -24.6480   -9.6100   21.8750 C   0  0  0  0  0  3  0  0  0  0  0  0
  -23.9440   -8.4020   22.0650 C   0  0  0  0  0  3  0  0  0  0  0  0
  -22.8040   -8.1140   21.2770 C   0  0  0  0  0  0  0  0  0  0  0  0
  -22.4020   -9.0320   20.2920 C   0  0  0  0  0  3  0  0  0  0  0  0
  -23.1070  -10.2320   20.1010 C   0  0  0  0  0  3  0  0  0  0  0  0
  -22.0740   -6.9530   21.3720 O   0  0  0  0  0  0  0  0  0  0  0  0
  -21.8700   -6.3300   22.5760 C   0  0  0  0  0  0  0  0  0  0  0  0
  -21.2530   -6.9880   23.6610 C   0  0  0  0  0  3  0  0  0  0  0  0
  -20.9980   -6.2880   24.8570 C   0  0  0  0  0  3  0  0  0  0  0  0
  -21.3500   -4.9290   24.9680 C   0  0  0  0  0  0  0  0  0  0  0  0
  -21.9620   -4.2710   23.8860 C   0  0  0  0  0  3  0  0  0  0  0  0
  -22.2180   -4.9690   22.6930 C   0  0  0  0  0  0  0  0  0  0  0  0
  -22.7860   -4.3230   21.6470 F   0  0  0  0  0  0  0  0  0  0  0  0
  -21.1000   -4.2540   26.1140 F   0  0  0  0  0  0  0  0  0  0  0  0
  -23.0960  -13.6200   21.1990 C   0  0  0  0  0  0  0  0  0  0  0  0
  -22.4520  -12.9110   22.1200 N   0  0  0  0  0  0  0  0  0  0  0  0
  -22.6030  -14.6440   20.7260 O   0  0  0  0  0  0  0  0  0  0  0  0
  -22.8650  -12.0840   22.5250 H   0  0  0  0  0  0  0  0  0  0  0  0
  -21.5330  -13.2020   22.4250 H   0  0  0  0  0  0  0  0  0  0  0  0
  -25.6560  -15.3250   20.2390 N   0  0  0  0  0  0  0  0  0  0  0  0
  -24.9000  -15.9740   20.4290 H   0  0  0  0  0  0  0  0  0  0  0  0
  -26.4780  -15.7760   19.8560 H   0  0  0  0  0  0  0  0  0  0  0  0
  -30.3110  -23.6380   20.7980 C   0  0  0  0  0  3  0  0  0  0  0  0
  -31.6070  -24.0070   20.0470 C   0  0  0  0  0  0  0  0  0  0  0  0
  -32.1740  -25.4080   20.2390 C   0  0  0  0  0  1  0  0  0  0  0  0
  -32.2090  -23.2130   19.3170 O   0  0  0  0  0  0  0  0  0  0  0  0
  -29.1130  -24.4580   20.2720 C   0  0  0  0  0  0  0  0  0  0  0  0
  -28.4040  -24.0700   19.3350 O   0  0  0  0  0  0  0  0  0  0  0  0
  -28.7950  -25.7830   21.0010 C   0  0  0  0  0  2  0  0  0  0  0  0
  -28.7310  -26.9010   20.1040 O   0  0  0  0  0  0  0  0  0  0  0  0
  -24.6350  -31.8370   23.2400 C   0  0  0  0  0  0  0  0  0  0  0  0
  -27.5340  -27.5780   20.1370 C   0  0  0  0  0  0  0  0  0  0  0  0
  -23.5170  -30.3920   21.5700 C   0  0  0  0  0  3  0  0  0  0  0  0
  -25.0630  -28.9430   20.1490 C   0  0  0  0  0  0  0  0  0  0  0  0
  -26.0220  -30.8860   21.3990 C   0  0  0  0  0  2  0  0  0  0  0  0
  -26.1860  -29.5270   20.7490 C   0  0  0  0  0  0  0  0  0  0  0  0
  -27.4290  -28.8530   20.7370 C   0  0  0  0  0  3  0  0  0  0  0  0
  -26.3970  -27.0000   19.5400 C   0  0  0  0  0  3  0  0  0  0  0  0
  -25.1630  -27.6770   19.5430 C   0  0  0  0  0  3  0  0  0  0  0  0
  -23.7760  -29.7360   20.1880 C   0  0  0  0  0  2  0  0  0  0  0  0
  -24.7410  -31.0530   22.1300 N   0  0  0  0  0  0  0  0  0  0  0  0
  -23.5360  -32.0470   23.7730 O   0  0  0  0  0  0  0  0  0  0  0  0
  -22.9090  -29.3300   22.5150 C   0  0  0  0  0  0  0  0  0  0  0  0
  -21.6020  -29.0650   22.3540 N   0  0  0  0  0  0  0  0  0  0  0  0
  -23.6110  -28.7480   23.3470 O   0  0  0  0  0  0  0  0  0  0  0  0
  -21.0940  -29.5930   21.6580 H   0  0  0  0  0  0  0  0  0  0  0  0
  -18.3030  -27.6450   22.7500 C   0  0  0  0  0  0  0  0  0  0  0  0
  -20.8280  -28.0740   23.1010 C   0  0  0  0  0  3  0  0  0  0  0  0
  -21.0440  -26.6530   22.5330 C   0  0  0  0  0  2  0  0  0  0  0  0
  -19.9990  -26.2560   21.4860 C   0  0  0  0  0  2  0  0  0  0  0  0
  -18.5900  -26.3090   22.0860 C   0  0  0  0  0  2  0  0  0  0  0  0
  -19.3530  -28.4800   23.2120 C   0  0  0  0  0  0  0  0  0  0  0  0
  -19.0340  -29.7270   23.7920 C   0  0  0  0  0  3  0  0  0  0  0  0
  -17.6940  -30.1410   23.9160 C   0  0  0  0  0  3  0  0  0  0  0  0
  -16.6570  -29.3040   23.4700 C   0  0  0  0  0  3  0  0  0  0  0  0
  -16.9620  -28.0580   22.8920 C   0  0  0  0  0  3  0  0  0  0  0  0
  -25.8810  -32.5250   23.8800 C   0  0  0  0  0  3  0  0  0  0  0  0
  -25.5160  -33.9150   24.1750 N   0  0  0  0  0  0  0  0  0  0  0  0
  -25.8250  -34.9640   23.4020 C   0  0  0  0  0  0  0  0  0  0  0  0
  -26.5190  -34.8650   22.3870 O   0  0  0  0  0  0  0  0  0  0  0  0
  -24.8950  -34.0630   24.9590 H   0  0  0  0  0  0  0  0  0  0  0  0
  -24.0280  -36.6760   22.9910 C   0  0  0  0  0  1  0  0  0  0  0  0
  -25.2770  -36.3420   23.8220 C   0  0  0  0  0  3  0  0  0  0  0  0
  -27.3640  -37.3320   24.6520 C   0  0  0  0  0  1  0  0  0  0  0  0
  -26.2660  -37.4330   23.6940 N   0  0  0  0  0  0  0  0  0  0  0  0
  -25.8210  -38.3380   23.8160 H   0  0  0  0  0  0  0  0  0  0  0  0
  -26.3970  -31.7930   25.1790 C   0  0  1  0  0  0  0  0  0  0  0  0
  -25.2870  -31.5180   26.2210 C   0  0  0  0  0  1  0  0  0  0  0  0
  -27.0540  -30.4390   24.8200 C   0  0  0  0  0  1  0  0  0  0  0  0
  -27.4900  -32.6480   25.8640 C   0  0  0  0  0  1  0  0  0  0  0  0
  1  3  2  0
  2 53  1  0
  2  1  1  0
  3  6  1  0
  3  5  1  0
  4  2  1  0
  8 12  2  0
  8 10  1  0
  9  1  1  0
  9  7  2  0
 10 11  2  0
 11  7  1  0
 11 13  1  0
 12  9  1  0
 14 12  1  0
 15 23  1  0
 16 21  1  0
 17 18  1  0
 17 16  1  0
 19 18  1  0
 19 28  1  0
 19 20  1  0
 21 15  1  0
 21 20  1  0
 22 15  2  0
 23 10  1  0
 23 24  1  0
 25 26  2  0
 26 45  1  0
 27 26  1  0
 27 30  1  0
 28 29  1  0
 28 25  1  0
 29 27  2  0
 30 31  1  0
 31 32  2  0
 33 36  1  0
 33 32  1  0
 34 33  2  0
 35 34  1  0
 35 30  2  0
 36 37  1  0
 37 42  2  0
 37 38  1  0
 38 39  2  0
 39 40  1  0
 40 44  1  0
 41 40  2  0
 42 41  1  0
 43 42  1  0
 45 46  1  0
 46 49  1  0
 46 48  1  0
 47 45  2  0
 50 25  1  0
 50 51  1  0
 52 50  1  0
 53 54  1  0
 54 55  1  0
 56 54  2  0
 57 53  1  0
 57 59  1  0
 58 57  2  0
 60 62  1  0
 60 59  1  0
 61 72  2  0
 62 67  1  0
 63 71  1  0
 63 73  1  0
 64 70  1  0
 64 66  1  0
 65 71  1  0
 66 65  1  0
 67 66  2  0
 68 69  1  0
 68 62  2  0
 69 64  2  0
 70 63  1  0
 71 61  1  0
 73 75  2  0
 74 73  1  0
 76 74  1  0
 77 86  2  0
 77 82  1  0
 78 74  1  0
 78 82  1  0
 79 78  1  0
 80 81  1  0
 80 79  1  0
 81 77  1  0
 82 83  2  0
 83 84  1  0
 85 84  2  0
 86 85  1  0
 87 61  1  0
 87 88  1  0
 87 97  1  0
 88 91  1  0
 89 93  1  0
 89 88  1  0
 90 89  2  0
 93 92  1  0
 95 96  1  0
 95 93  1  0
 95 94  1  0
 97100  1  1
 97 98  1  0
 99 97  1  0
M  ISO  4  15 100  23 100  59 101  60 101
M  END
>  <TORSDO>  (22) 
F 21

>  <SCORE>  (22) 
-12.624

>  <name>  (22) 
21

>  <ligand_id>  (22) 
21

>  <original_smiles>  (22) 
[H]c1c([H])c([H])c2c(c1[H])C([H])([H])C([H])([H])C([H])([H])C2([H])N([H])C(=O)C1([H])N(C(=O)C([H])(N([H])C(=O)C([H])(N([H])C([H])([H])[H])C([H])([H])[H])C(C([H])([H])[H])(C([H])([H])[H])C([H])([H])[H])C([H])([H])c2c([H])c(OC([H])([H])C(=O)C([H])(C(=O)C([H])([H])[H])N([H])C(c3c([H])c(F)c(N([H])C(=O)N4C([H])([H])C([H])([H])C([H])([H])C([H])(n5nc(-c6c([H])c([H])c(Oc7c([H])c([H])c(F)c([H])c7F)c([H])c6[H])c(C(=O)N([H])[H])c5N([H])[H])C4([H])[H])c([H])c3F)=[N+]([H])[H])c([H])c([H])c2C1([H])[H]

>  <smiles>  (22) 
[H]c1c([H])c([H])c2c(c1[H])C([H])([H])C([H])([H])C([H])([H])C2([H])N([H])C(=O)C1([H])N(C(=O)C([H])(N([H])C(=O)C([H])(N([H])C([H])([H])[H])C([H])([H])[H])C(C([H])([H])[H])(C([H])([H])[H])C([H])([H])[H])C([H])([H])c2c([H])c(OC([H])([H])C(=O)C([H])(C(=O)C([H])([H])[H])N([H])C(c3c([H])c(F)c(N([H])C(=O)N4C([H])([H])C([H])([H])C([H])([H])C([H])(n5nc(-c6c([H])c([H])c(Oc7c([H])c([H])c(F)c([H])c7F)c([H])c6[H])c(C(=O)N([H])[H])c5N([H])[H])C4([H])[H])c([H])c3F)=[N+]([H])[H])c([H])c([H])c2C1([H])[H]

$$$$
22:0:0
     RDKit          3D

 97105  0  0  1  0  0  0  0  0999 V2000
  -29.9990  -23.3310   19.5340 C   0  0  0  0  0  0  0  0  0  0  0  0
  -30.6160  -22.2790   20.2040 N   0  0  0  0  0  0  0  0  0  0  0  0
  -29.6790  -23.2520   18.3490 O   0  0  0  0  0  0  0  0  0  0  0  0
  -30.9320  -22.6310   21.0980 H   0  0  0  0  0  0  0  0  0  0  0  0
  -32.2370  -15.3940   19.6340 C   0  0  0  0  0  0  0  0  0  0  0  0
  -32.0430  -13.0440   18.7750 C   0  0  0  0  0  2  0  0  0  0  0  0
  -30.9500  -13.0110   17.6820 C   0  0  0  0  0  2  0  0  0  0  0  0
  -29.5510  -12.8230   18.3020 C   0  0  0  0  0  2  0  0  0  0  0  0
  -29.3020  -13.7700   19.5050 C   0  0  0  0  0  3  0  0  0  0  0  0
  -30.4960  -13.7520   20.4880 C   0  0  0  0  0  2  0  0  0  0  0  0
  -31.7000  -14.1260   19.7280 N   0  0  0  0  0  0  0  0  0  0  0  0
  -33.3270  -15.5600   19.0710 O   0  0  0  0  0  0  0  0  0  0  0  0
  -30.7020  -18.5370   21.0800 C   0  0  0  0  0  3  0  0  0  0  0  0
  -31.4670  -20.1020   18.9930 C   0  0  0  0  0  3  0  0  0  0  0  0
  -30.4440  -19.9420   21.1340 C   0  0  0  0  0  0  0  0  0  0  0  0
  -30.8210  -20.8050   20.0560 C   0  0  0  0  0  0  0  0  0  0  0  0
  -31.3620  -17.9080   20.0030 C   0  0  0  0  0  0  0  0  0  0  0  0
  -31.7320  -18.7370   18.9730 N   0  0  0  0  0  0  0  0  0  0  0  0
  -31.4450  -16.4280   20.1070 N   0  0  0  0  0  0  0  0  0  0  0  0
  -30.6910  -16.0480   20.6570 H   0  0  0  0  0  0  0  0  0  0  0  0
  -27.1280  -14.3690   20.7320 C   0  0  0  0  0  0  0  0  0  0  0  0
  -26.0750  -13.6060   21.1570 C   0  0  0  0  0  0  0  0  0  0  0  0
  -26.4040  -12.2570   20.8260 C   0  0  0  0  0  0  0  0  0  0  0  0
  -28.0360  -13.4840   20.1730 N   0  0  0  0  0  0  0  0  0  0  0  0
  -27.6160  -12.1980   20.2870 N   0  0  0  0  0  0  0  0  0  0  0  0
  -25.6120  -11.0250   20.9380 C   0  0  0  0  0  0  0  0  0  0  0  0
  -25.8900  -10.0540   21.9250 C   0  0  0  0  0  3  0  0  0  0  0  0
  -25.1020   -8.8870   22.0250 C   0  0  0  0  0  3  0  0  0  0  0  0
  -24.0200   -8.6830   21.1340 C   0  0  0  0  0  0  0  0  0  0  0  0
  -23.7620   -9.6420   20.1390 C   0  0  0  0  0  3  0  0  0  0  0  0
  -24.5510  -10.8000   20.0380 C   0  0  0  0  0  3  0  0  0  0  0  0
  -23.2180   -7.5690   21.1390 O   0  0  0  0  0  0  0  0  0  0  0  0
  -22.6720   -7.0800   22.2990 C   0  0  0  0  0  0  0  0  0  0  0  0
  -21.8580   -7.8760   23.1330 C   0  0  0  0  0  3  0  0  0  0  0  0
  -21.2620   -7.3130   24.2800 C   0  0  0  0  0  3  0  0  0  0  0  0
  -21.4690   -5.9560   24.5870 C   0  0  0  0  0  0  0  0  0  0  0  0
  -22.2750   -5.1600   23.7560 C   0  0  0  0  0  3  0  0  0  0  0  0
  -22.8720   -5.7200   22.6120 C   0  0  0  0  0  0  0  0  0  0  0  0
  -23.6310   -4.9430   21.8020 F   0  0  0  0  0  0  0  0  0  0  0  0
  -20.8900   -5.4130   25.6850 F   0  0  0  0  0  0  0  0  0  0  0  0
  -24.7900  -14.1100   21.7490 C   0  0  0  0  0  0  0  0  0  0  0  0
  -24.1370  -13.3000   22.5760 N   0  0  0  0  0  0  0  0  0  0  0  0
  -24.3820  -15.2470   21.5190 O   0  0  0  0  0  0  0  0  0  0  0  0
  -24.4810  -12.3740   22.7810 H   0  0  0  0  0  0  0  0  0  0  0  0
  -23.2790  -13.6110   23.0090 H   0  0  0  0  0  0  0  0  0  0  0  0
  -27.3790  -15.7380   20.7500 N   0  0  0  0  0  0  0  0  0  0  0  0
  -26.6920  -16.4020   21.0890 H   0  0  0  0  0  0  0  0  0  0  0  0
  -28.1740  -16.1830   20.3100 H   0  0  0  0  0  0  0  0  0  0  0  0
  -29.7560  -20.5050   22.3800 C   0  0  1  0  0  0  0  0  0  0  0  0
  -29.5480  -19.5830   23.3220 F   0  0  0  0  0  0  0  0  0  0  0  0
  -30.5180  -21.4700   22.8990 F   0  0  0  0  0  0  0  0  0  0  0  0
  -28.5780  -21.0370   22.0490 F   0  0  0  0  0  0  0  0  0  0  0  0
  -29.5090  -25.8920   20.2600 C   0  0  0  0  0  3  0  0  0  0  0  0
  -29.7780  -24.5310   20.4400 C   0  0  0  0  0  0  0  0  0  0  0  0
  -29.7820  -24.2090   21.7470 O   0  0  0  0  0  0  0  0  0  0  0  0
  -29.3980  -23.3440   21.8230 H   0  0  0  0  0  0  0  0  0  0  0  0
  -29.3210  -26.8300   19.2170 O   0  0  0  0  0  0  0  0  0  0  0  0
  -25.0300  -31.3460   22.9830 C   0  0  0  0  0  0  0  0  0  0  0  0
  -28.1320  -27.5870   19.3180 C   0  0  0  0  0  0  0  0  0  0  0  0
  -23.9580  -29.9100   21.2850 C   0  0  0  0  0  3  0  0  0  0  0  0
  -25.5380  -28.7750   19.6160 C   0  0  0  0  0  0  0  0  0  0  0  0
  -26.3890  -30.6800   20.9800 C   0  0  0  0  0  2  0  0  0  0  0  0
  -26.6540  -29.4000   20.1900 C   0  0  0  0  0  0  0  0  0  0  0  0
  -27.9560  -28.8170   20.0360 C   0  0  0  0  0  3  0  0  0  0  0  0
  -26.9850  -27.0260   18.7230 C   0  0  0  0  0  3  0  0  0  0  0  0
  -25.7050  -27.5960   18.8710 C   0  0  0  0  0  3  0  0  0  0  0  0
  -24.1770  -29.4100   19.8320 C   0  0  0  0  0  2  0  0  0  0  0  0
  -25.1450  -30.6610   21.8060 N   0  0  0  0  0  0  0  0  0  0  0  0
  -23.9590  -31.3770   23.6080 O   0  0  0  0  0  0  0  0  0  0  0  0
  -23.5510  -28.7120   22.1760 C   0  0  0  0  0  0  0  0  0  0  0  0
  -22.3100  -28.2230   22.0090 N   0  0  0  0  0  0  0  0  0  0  0  0
  -24.3530  -28.2260   22.9790 O   0  0  0  0  0  0  0  0  0  0  0  0
  -21.7070  -28.6810   21.3390 H   0  0  0  0  0  0  0  0  0  0  0  0
  -19.3840  -26.1070   22.2520 C   0  0  0  0  0  0  0  0  0  0  0  0
  -21.7380  -27.0730   22.7120 C   0  0  0  0  0  3  0  0  0  0  0  0
  -22.2820  -25.7430   22.1400 C   0  0  0  0  0  2  0  0  0  0  0  0
  -21.3910  -25.1490   21.0440 C   0  0  0  0  0  2  0  0  0  0  0  0
  -19.9830  -24.8810   21.5840 C   0  0  0  0  0  2  0  0  0  0  0  0
  -20.2070  -27.1430   22.7680 C   0  0  0  0  0  0  0  0  0  0  0  0
  -19.5970  -28.2760   23.3490 C   0  0  0  0  0  3  0  0  0  0  0  0
  -18.1950  -28.3810   23.4220 C   0  0  0  0  0  3  0  0  0  0  0  0
  -17.3860  -27.3460   22.9210 C   0  0  0  0  0  3  0  0  0  0  0  0
  -17.9800  -26.2110   22.3420 C   0  0  0  0  0  3  0  0  0  0  0  0
  -26.2300  -32.1380   23.5870 C   0  0  0  0  0  3  0  0  0  0  0  0
  -26.8860  -31.4170   24.8280 C   0  0  1  0  0  0  0  0  0  0  0  0
  -25.8670  -30.9990   25.9150 C   0  0  0  0  0  1  0  0  0  0  0  0
  -27.6490  -30.1480   24.3860 C   0  0  0  0  0  1  0  0  0  0  0  0
  -27.9280  -32.3530   25.4860 C   0  0  0  0  0  1  0  0  0  0  0  0
  -25.7390  -33.4710   23.9640 N   0  0  0  0  0  0  0  0  0  0  0  0
  -25.9680  -34.5920   23.2680 C   0  0  0  0  0  0  0  0  0  0  0  0
  -26.6830  -34.6210   22.2630 O   0  0  0  0  0  0  0  0  0  0  0  0
  -25.1000  -33.5130   24.7450 H   0  0  0  0  0  0  0  0  0  0  0  0
  -24.0800  -36.2110   22.8890 C   0  0  0  0  0  1  0  0  0  0  0  0
  -25.3010  -35.8890   23.7660 C   0  0  0  0  0  3  0  0  0  0  0  0
  -27.2610  -36.9420   24.8050 C   0  0  0  0  0  1  0  0  0  0  0  0
  -26.2160  -37.0510   23.7910 N   0  0  0  0  0  0  0  0  0  0  0  0
  -25.7010  -37.9120   23.9560 H   0  0  0  0  0  0  0  0  0  0  0  0
  1  2  1  0
  1 54  1  0
  2  4  1  0
  3  1  2  0
  5 11  1  0
  5 19  1  0
  6 11  1  0
  7  8  1  0
  7  6  1  0
  9  8  1  0
  9 24  1  0
  9 10  1  0
 11 10  1  0
 12  5  2  0
 13 15  1  0
 14 16  1  0
 15 49  1  0
 16  2  1  0
 16 15  2  0
 17 19  1  0
 17 13  2  0
 18 14  2  0
 18 17  1  0
 19 20  1  0
 21 46  1  0
 21 22  2  0
 22 41  1  0
 23 26  1  0
 23 22  1  0
 24 25  1  0
 24 21  1  0
 25 23  2  0
 26 27  1  0
 27 28  2  0
 29 32  1  0
 29 28  1  0
 30 29  2  0
 31 30  1  0
 31 26  2  0
 32 33  1  0
 33 38  2  0
 33 34  1  0
 34 35  2  0
 35 36  1  0
 36 40  1  0
 37 36  2  0
 38 37  1  0
 39 38  1  0
 41 42  1  0
 42 44  1  0
 42 45  1  0
 43 41  2  0
 46 47  1  0
 48 46  1  0
 49 51  1  1
 49 50  1  0
 52 49  1  0
 53 54  2  0
 54 55  1  0
 55 56  1  0
 57 59  1  0
 57 53  1  0
 58 69  2  0
 59 64  1  0
 60 68  1  0
 60 70  1  0
 61 67  1  0
 61 63  1  0
 62 68  1  0
 63 62  1  0
 64 63  2  0
 65 66  1  0
 65 59  2  0
 66 61  2  0
 67 60  1  0
 68 58  1  0
 70 72  2  0
 71 70  1  0
 73 71  1  0
 74 83  2  0
 74 79  1  0
 75 71  1  0
 75 79  1  0
 76 75  1  0
 77 78  1  0
 77 76  1  0
 78 74  1  0
 79 80  2  0
 80 81  1  0
 82 81  2  0
 83 82  1  0
 84 58  1  0
 84 89  1  0
 84 85  1  0
 85 88  1  1
 85 86  1  0
 87 85  1  0
 89 92  1  0
 90 94  1  0
 90 89  1  0
 91 90  2  0
 94 93  1  0
 94 96  1  0
 96 97  1  0
 96 95  1  0
M  ISO  4   5 100  19 100  53 101  57 101
M  END
>  <TORSDO>  (23) 
F 19

>  <SCORE>  (23) 
-6.216

>  <name>  (23) 
22

>  <ligand_id>  (23) 
22

>  <original_smiles>  (23) 
[H]OC(C(=O)N([H])c1c([H])nc(N([H])C(=O)N2C([H])([H])C([H])([H])C([H])([H])C([H])(n3nc(-c4c([H])c([H])c(Oc5c([H])c([H])c(F)c([H])c5F)c([H])c4[H])c(C(=O)N([H])[H])c3N([H])[H])C2([H])[H])c([H])c1C(F)(F)F)=C([H])Oc1c([H])c([H])c2c(c1[H])C([H])([H])N(C(=O)C([H])(N([H])C(=O)C([H])(N([H])C([H])([H])[H])C([H])([H])[H])C(C([H])([H])[H])(C([H])([H])[H])C([H])([H])[H])C([H])(C(=O)N([H])C1([H])c3c([H])c([H])c([H])c([H])c3C([H])([H])C([H])([H])C1([H])[H])C2([H])[H]

>  <smiles>  (23) 
[H]OC(C(=O)N([H])c1c([H])nc(N([H])C(=O)N2C([H])([H])C([H])([H])C([H])([H])C([H])(n3nc(-c4c([H])c([H])c(Oc5c([H])c([H])c(F)c([H])c5F)c([H])c4[H])c(C(=O)N([H])[H])c3N([H])[H])C2([H])[H])c([H])c1C(F)(F)F)=C([H])Oc1c([H])c([H])c2c(c1[H])C([H])([H])N(C(=O)C([H])(N([H])C(=O)C([H])(N([H])C([H])([H])[H])C([H])([H])[H])C(C([H])([H])[H])(C([H])([H])[H])C([H])([H])[H])C([H])(C(=O)N([H])C1([H])c3c([H])c([H])c([H])c([H])c3C([H])([H])C([H])([H])C1([H])[H])C2([H])[H]

$$$$
23:0:0
     RDKit          3D

 96104  0  0  1  0  0  0  0  0999 V2000
  -29.2160  -23.2270   18.9650 C   0  0  0  0  0  0  0  0  0  0  0  0
  -29.7480  -22.1320   19.5400 N   0  0  0  0  0  0  0  0  0  0  0  0
  -28.9070  -23.2440   17.7720 O   0  0  0  0  0  0  0  0  0  0  0  0
  -29.9670  -22.1930   20.5270 H   0  0  0  0  0  0  0  0  0  0  0  0
  -28.5390  -25.5250   19.3970 C   0  0  0  0  0  3  0  0  0  0  0  0
  -29.0930  -24.3820   19.8610 C   0  0  0  0  0  0  0  0  0  0  0  0
  -29.5340  -24.3100   21.1260 O   0  0  0  0  0  0  0  0  0  0  0  0
  -29.3920  -25.1630   21.5160 H   0  0  0  0  0  0  0  0  0  0  0  0
  -28.3960  -26.6610   20.1610 O   0  0  0  0  0  0  0  0  0  0  0  0
  -24.5850  -31.8260   23.2200 C   0  0  0  0  0  0  0  0  0  0  0  0
  -27.2160  -27.3850   20.1170 C   0  0  0  0  0  0  0  0  0  0  0  0
  -23.3710  -30.4350   21.5770 C   0  0  0  0  0  3  0  0  0  0  0  0
  -24.8170  -28.8960   20.1450 C   0  0  0  0  0  0  0  0  0  0  0  0
  -25.8980  -30.7850   21.3750 C   0  0  0  0  0  2  0  0  0  0  0  0
  -25.9790  -29.4150   20.7300 C   0  0  0  0  0  0  0  0  0  0  0  0
  -27.1770  -28.6660   20.7170 C   0  0  0  0  0  3  0  0  0  0  0  0
  -26.0280  -26.8730   19.5420 C   0  0  0  0  0  3  0  0  0  0  0  0
  -24.8370  -27.6230   19.5500 C   0  0  0  0  0  3  0  0  0  0  0  0
  -23.5750  -29.7580   20.1940 C   0  0  0  0  0  2  0  0  0  0  0  0
  -24.6370  -31.0300   22.1150 N   0  0  0  0  0  0  0  0  0  0  0  0
  -23.5060  -32.1010   23.7630 O   0  0  0  0  0  0  0  0  0  0  0  0
  -22.7180  -29.4130   22.5350 C   0  0  0  0  0  0  0  0  0  0  0  0
  -21.3910  -29.2430   22.4140 N   0  0  0  0  0  0  0  0  0  0  0  0
  -23.4010  -28.7770   23.3420 O   0  0  0  0  0  0  0  0  0  0  0  0
  -20.9020  -29.8080   21.7340 H   0  0  0  0  0  0  0  0  0  0  0  0
  -18.0090  -28.0780   22.9240 C   0  0  0  0  0  0  0  0  0  0  0  0
  -20.5710  -28.3080   23.1830 C   0  0  0  0  0  3  0  0  0  0  0  0
  -20.6570  -26.8800   22.5950 C   0  0  0  0  0  2  0  0  0  0  0  0
  -19.5450  -26.5750   21.5870 C   0  0  0  0  0  2  0  0  0  0  0  0
  -18.1690  -26.7300   22.2400 C   0  0  0  0  0  2  0  0  0  0  0  0
  -19.1390  -28.8250   23.3530 C   0  0  0  0  0  0  0  0  0  0  0  0
  -18.9370  -30.0880   23.9540 C   0  0  0  0  0  3  0  0  0  0  0  0
  -17.6380  -30.6010   24.1290 C   0  0  0  0  0  3  0  0  0  0  0  0
  -16.5230  -29.8500   23.7170 C   0  0  0  0  0  3  0  0  0  0  0  0
  -16.7100  -28.5900   23.1200 C   0  0  0  0  0  3  0  0  0  0  0  0
  -25.8750  -32.4500   23.8410 C   0  0  0  0  0  3  0  0  0  0  0  0
  -26.4080  -31.6560   25.0960 C   0  0  1  0  0  0  0  0  0  0  0  0
  -25.3270  -31.3920   26.1700 C   0  0  0  0  0  1  0  0  0  0  0  0
  -26.9920  -30.2890   24.6680 C   0  0  0  0  0  1  0  0  0  0  0  0
  -27.5640  -32.4410   25.7610 C   0  0  0  0  0  1  0  0  0  0  0  0
  -25.5630  -33.8400   24.2000 N   0  0  0  0  0  0  0  0  0  0  0  0
  -25.8770  -34.9070   23.4530 C   0  0  0  0  0  0  0  0  0  0  0  0
  -26.5330  -34.8260   22.4100 O   0  0  0  0  0  0  0  0  0  0  0  0
  -24.9780  -33.9790   25.0110 H   0  0  0  0  0  0  0  0  0  0  0  0
  -24.1330  -36.6950   23.1560 C   0  0  0  0  0  1  0  0  0  0  0  0
  -25.3890  -36.2850   23.9400 C   0  0  0  0  0  3  0  0  0  0  0  0
  -27.5310  -37.1710   24.7520 C   0  0  0  0  0  1  0  0  0  0  0  0
  -26.4140  -37.3460   23.8270 N   0  0  0  0  0  0  0  0  0  0  0  0
  -26.0050  -38.2620   23.9910 H   0  0  0  0  0  0  0  0  0  0  0  0
  -30.2440  -20.9840   18.7670 C   0  0  0  0  0  2  0  0  0  0  0  0
  -30.6570  -18.5410   18.5040 C   0  0  0  0  0  3  0  0  0  0  0  0
  -30.6650  -17.1960   18.9130 C   0  0  0  0  0  3  0  0  0  0  0  0
  -30.2380  -19.5720   19.3700 C   0  0  0  0  0  0  0  0  0  0  0  0
  -30.2510  -16.8370   20.2200 C   0  0  0  0  0  0  0  0  0  0  0  0
  -29.8240  -19.2260   20.6820 C   0  0  0  0  0  0  0  0  0  0  0  0
  -29.8220  -17.8660   21.0950 C   0  0  0  0  0  0  0  0  0  0  0  0
  -29.4150  -20.1830   21.5520 F   0  0  0  0  0  0  0  0  0  0  0  0
  -29.4020  -17.5500   22.3460 F   0  0  0  0  0  0  0  0  0  0  0  0
  -30.8330  -14.4290   20.0800 C   0  0  0  0  0  0  0  0  0  0  0  0
  -30.4060  -12.3130   18.9070 C   0  0  0  0  0  2  0  0  0  0  0  0
  -29.4080  -12.6050   17.7690 C   0  0  0  0  0  2  0  0  0  0  0  0
  -27.9570  -12.4860   18.2780 C   0  0  0  0  0  2  0  0  0  0  0  0
  -27.7190  -13.2730   19.5960 C   0  0  0  0  0  3  0  0  0  0  0  0
  -28.8330  -12.9930   20.6300 C   0  0  0  0  0  2  0  0  0  0  0  0
  -30.1330  -13.2680   19.9940 N   0  0  0  0  0  0  0  0  0  0  0  0
  -31.9430  -14.5770   19.5580 O   0  0  0  0  0  0  0  0  0  0  0  0
  -30.1870  -15.4680   20.6440 N   0  0  0  0  0  0  0  0  0  0  0  0
  -29.4330  -15.2380   21.2730 H   0  0  0  0  0  0  0  0  0  0  0  0
  -25.3750  -13.8890   20.4580 C   0  0  0  0  0  0  0  0  0  0  0  0
  -24.3190  -13.1190   20.8640 C   0  0  0  0  0  0  0  0  0  0  0  0
  -24.7590  -11.7620   20.7690 C   0  0  0  0  0  0  0  0  0  0  0  0
  -26.3920  -13.0020   20.1420 N   0  0  0  0  0  0  0  0  0  0  0  0
  -26.0270  -11.7170   20.3840 N   0  0  0  0  0  0  0  0  0  0  0  0
  -24.0290  -10.5040   20.9670 C   0  0  0  0  0  0  0  0  0  0  0  0
  -24.4750   -9.5260   21.8820 C   0  0  0  0  0  3  0  0  0  0  0  0
  -23.7420   -8.3330   22.0700 C   0  0  0  0  0  3  0  0  0  0  0  0
  -22.5490   -8.1120   21.3420 C   0  0  0  0  0  0  0  0  0  0  0  0
  -22.1220   -9.0770   20.4170 C   0  0  0  0  0  3  0  0  0  0  0  0
  -22.8540  -10.2610   20.2280 C   0  0  0  0  0  3  0  0  0  0  0  0
  -21.7880   -6.9720   21.4390 O   0  0  0  0  0  0  0  0  0  0  0  0
  -21.7210   -6.2490   22.6020 C   0  0  0  0  0  0  0  0  0  0  0  0
  -21.2940   -6.8280   23.8170 C   0  0  0  0  0  3  0  0  0  0  0  0
  -21.1740   -6.0300   24.9740 C   0  0  0  0  0  3  0  0  0  0  0  0
  -21.4690   -4.6550   24.9160 C   0  0  0  0  0  0  0  0  0  0  0  0
  -21.8880   -4.0760   23.7060 C   0  0  0  0  0  3  0  0  0  0  0  0
  -22.0100   -4.8700   22.5510 C   0  0  0  0  0  0  0  0  0  0  0  0
  -22.3960   -4.3020   21.3830 F   0  0  0  0  0  0  0  0  0  0  0  0
  -21.3460   -3.8870   26.0240 F   0  0  0  0  0  0  0  0  0  0  0  0
  -22.9470  -13.6040   21.2310 C   0  0  0  0  0  0  0  0  0  0  0  0
  -22.2690  -12.8970   22.1290 N   0  0  0  0  0  0  0  0  0  0  0  0
  -22.4880  -14.6420   20.7580 O   0  0  0  0  0  0  0  0  0  0  0  0
  -22.6540  -12.0510   22.5250 H   0  0  0  0  0  0  0  0  0  0  0  0
  -21.3540  -13.2040   22.4240 H   0  0  0  0  0  0  0  0  0  0  0  0
  -25.5490  -15.2630   20.3160 N   0  0  0  0  0  0  0  0  0  0  0  0
  -24.8120  -15.9310   20.5130 H   0  0  0  0  0  0  0  0  0  0  0  0
  -26.4070  -15.6990   20.0010 H   0  0  0  0  0  0  0  0  0  0  0  0
  1  2  1  0
  1  6  1  0
  2  4  1  0
  3  1  2  0
  5  6  2  0
  5  9  1  0
  6  7  1  0
  7  8  1  0
 10 21  2  0
 11  9  1  0
 11 16  1  0
 12 20  1  0
 12 22  1  0
 13 19  1  0
 13 15  1  0
 14 20  1  0
 15 14  1  0
 16 15  2  0
 17 18  1  0
 17 11  2  0
 18 13  2  0
 19 12  1  0
 20 10  1  0
 22 24  2  0
 23 22  1  0
 25 23  1  0
 26 35  2  0
 26 31  1  0
 27 23  1  0
 27 31  1  0
 28 27  1  0
 29 30  1  0
 29 28  1  0
 30 26  1  0
 31 32  2  0
 32 33  1  0
 34 33  2  0
 35 34  1  0
 36 10  1  0
 36 41  1  0
 36 37  1  0
 37 40  1  1
 37 38  1  0
 39 37  1  0
 41 44  1  0
 42 46  1  0
 42 41  1  0
 43 42  2  0
 46 45  1  0
 48 46  1  0
 48 49  1  0
 48 47  1  0
 50 53  1  0
 50  2  1  0
 51 52  2  0
 51 53  1  0
 52 54  1  0
 53 55  2  0
 54 67  1  0
 54 56  2  0
 55 56  1  0
 55 57  1  0
 56 58  1  0
 59 67  1  0
 60 65  1  0
 61 62  1  0
 61 60  1  0
 63 62  1  0
 63 72  1  0
 63 64  1  0
 65 59  1  0
 65 64  1  0
 66 59  2  0
 67 68  1  0
 69 70  2  0
 70 89  1  0
 71 70  1  0
 71 74  1  0
 72 73  1  0
 72 69  1  0
 73 71  2  0
 74 75  1  0
 75 76  2  0
 77 80  1  0
 77 76  1  0
 78 77  2  0
 79 78  1  0
 79 74  2  0
 80 81  1  0
 81 82  1  0
 82 83  2  0
 84 83  1  0
 84 88  1  0
 85 84  2  0
 86 81  2  0
 86 85  1  0
 87 86  1  0
 89 90  1  0
 90 93  1  0
 90 92  1  0
 91 89  2  0
 94 69  1  0
 94 95  1  0
 96 94  1  0
M  ISO  4   5 101   9 101  59 100  67 100
M  END
>  <TORSDO>  (24) 
F 20

>  <SCORE>  (24) 
-13.620

>  <name>  (24) 
23

>  <ligand_id>  (24) 
23

>  <original_smiles>  (24) 
[H]OC(C(=O)N([H])C([H])([H])c1c([H])c([H])c(N([H])C(=O)N2C([H])([H])C([H])([H])C([H])([H])C([H])(n3nc(-c4c([H])c([H])c(Oc5c([H])c([H])c(F)c([H])c5F)c([H])c4[H])c(C(=O)N([H])[H])c3N([H])[H])C2([H])[H])c(F)c1F)=C([H])Oc1c([H])c([H])c2c(c1[H])C([H])([H])N(C(=O)C([H])(N([H])C(=O)C([H])(N([H])C([H])([H])[H])C([H])([H])[H])C(C([H])([H])[H])(C([H])([H])[H])C([H])([H])[H])C([H])(C(=O)N([H])C1([H])c3c([H])c([H])c([H])c([H])c3C([H])([H])C([H])([H])C1([H])[H])C2([H])[H]

>  <smiles>  (24) 
[H]OC(C(=O)N([H])C([H])([H])c1c([H])c([H])c(N([H])C(=O)N2C([H])([H])C([H])([H])C([H])([H])C([H])(n3nc(-c4c([H])c([H])c(Oc5c([H])c([H])c(F)c([H])c5F)c([H])c4[H])c(C(=O)N([H])[H])c3N([H])[H])C2([H])[H])c(F)c1F)=C([H])Oc1c([H])c([H])c2c(c1[H])C([H])([H])N(C(=O)C([H])(N([H])C(=O)C([H])(N([H])C([H])([H])[H])C([H])([H])[H])C(C([H])([H])[H])(C([H])([H])[H])C([H])([H])[H])C([H])(C(=O)N([H])C1([H])c3c([H])c([H])c([H])c([H])c3C([H])([H])C([H])([H])C1([H])[H])C2([H])[H]

$$$$
24:0:0
     RDKit          3D

 97106  0  0  1  0  0  0  0  0999 V2000
  -30.1100  -22.6530   17.4660 C   0  0  0  0  0  2  0  0  0  0  0  0
  -30.5550  -21.5130   18.3860 C   0  0  0  0  0  2  0  0  0  0  0  0
  -29.7780  -22.2810   20.6750 C   0  0  0  0  0  2  0  0  0  0  0  0
  -30.1900  -24.0580   18.0910 C   0  0  0  0  0  2  0  0  0  0  0  0
  -29.2970  -23.7770   20.5160 C   0  0  0  0  0  2  0  0  0  0  0  0
  -29.5770  -21.2220   19.5420 C   0  0  0  0  0  3  0  0  0  0  0  0
  -29.1020  -24.4620   19.1240 C   0  0  2  0  0  0  0  0  0  0  0  0
  -30.5450  -19.3460   21.0670 C   0  0  0  0  0  3  0  0  0  0  0  0
  -30.7340  -17.9880   21.4250 C   0  0  0  0  0  3  0  0  0  0  0  0
  -29.3230  -17.3160   19.5790 C   0  0  0  0  0  3  0  0  0  0  0  0
  -29.7380  -19.7270   19.9610 C   0  0  0  0  0  0  0  0  0  0  0  0
  -29.1310  -18.6720   19.2120 C   0  0  0  0  0  0  0  0  0  0  0  0
  -30.1270  -16.9530   20.6780 C   0  0  0  0  0  0  0  0  0  0  0  0
  -30.9190  -14.6100   20.4820 C   0  0  0  0  0  0  0  0  0  0  0  0
  -30.6590  -12.4390   19.3310 C   0  0  0  0  0  2  0  0  0  0  0  0
  -29.6990  -12.6450   18.1390 C   0  0  0  0  0  2  0  0  0  0  0  0
  -28.2300  -12.4910   18.5810 C   0  0  0  0  0  2  0  0  0  0  0  0
  -27.9000  -13.3080   19.8590 C   0  0  0  0  0  3  0  0  0  0  0  0
  -28.9690  -13.0760   20.9520 C   0  0  0  0  0  2  0  0  0  0  0  0
  -30.2860  -13.4060   20.3770 N   0  0  0  0  0  0  0  0  0  0  0  0
  -32.0280  -14.8260   19.9870 O   0  0  0  0  0  0  0  0  0  0  0  0
  -30.2060  -15.5840   21.0880 N   0  0  0  0  0  0  0  0  0  0  0  0
  -29.3720  -15.2320   21.5340 H   0  0  0  0  0  0  0  0  0  0  0  0
  -25.5080  -13.8990   20.6020 C   0  0  0  0  0  0  0  0  0  0  0  0
  -24.4450  -13.1200   20.9710 C   0  0  0  0  0  0  0  0  0  0  0  0
  -24.9090  -11.7690   20.9170 C   0  0  0  0  0  0  0  0  0  0  0  0
  -26.5520  -13.0230   20.3460 N   0  0  0  0  0  0  0  0  0  0  0  0
  -26.1950  -11.7370   20.5910 N   0  0  0  0  0  0  0  0  0  0  0  0
  -24.1880  -10.5030   21.0980 C   0  0  0  0  0  0  0  0  0  0  0  0
  -24.6050   -9.5430   22.0460 C   0  0  0  0  0  3  0  0  0  0  0  0
  -23.8850   -8.3410   22.2140 C   0  0  0  0  0  3  0  0  0  0  0  0
  -22.7330   -8.0890   21.4310 C   0  0  0  0  0  0  0  0  0  0  0  0
  -22.3350   -9.0380   20.4720 C   0  0  0  0  0  3  0  0  0  0  0  0
  -23.0560  -10.2320   20.3030 C   0  0  0  0  0  3  0  0  0  0  0  0
  -21.9860   -6.9390   21.5070 O   0  0  0  0  0  0  0  0  0  0  0  0
  -21.8740   -6.2290   22.6750 C   0  0  0  0  0  0  0  0  0  0  0  0
  -21.2960   -6.7890   23.8360 C   0  0  0  0  0  3  0  0  0  0  0  0
  -21.1380   -6.0020   24.9940 C   0  0  0  0  0  3  0  0  0  0  0  0
  -21.5490   -4.6550   24.9920 C   0  0  0  0  0  0  0  0  0  0  0  0
  -22.1200   -4.0940   23.8360 C   0  0  0  0  0  3  0  0  0  0  0  0
  -22.2790   -4.8790   22.6800 C   0  0  0  0  0  0  0  0  0  0  0  0
  -22.8100   -4.3270   21.5620 F   0  0  0  0  0  0  0  0  0  0  0  0
  -21.3900   -3.8970   26.1010 F   0  0  0  0  0  0  0  0  0  0  0  0
  -23.0510  -13.5890   21.2690 C   0  0  0  0  0  0  0  0  0  0  0  0
  -22.3330  -12.8700   22.1260 N   0  0  0  0  0  0  0  0  0  0  0  0
  -22.6060  -14.6260   20.7800 O   0  0  0  0  0  0  0  0  0  0  0  0
  -22.7030  -12.0270   22.5400 H   0  0  0  0  0  0  0  0  0  0  0  0
  -21.3980  -13.1670   22.3700 H   0  0  0  0  0  0  0  0  0  0  0  0
  -25.6700  -15.2720   20.4440 N   0  0  0  0  0  0  0  0  0  0  0  0
  -24.9070  -15.9270   20.5760 H   0  0  0  0  0  0  0  0  0  0  0  0
  -26.5210  -15.7180   20.1280 H   0  0  0  0  0  0  0  0  0  0  0  0
  -26.7770  -19.0620   18.3520 C   0  0  0  0  0  1  0  0  0  0  0  0
  -28.2580  -18.9270   17.9880 C   0  0  0  0  0  2  0  0  0  0  0  0
  -27.8420  -24.0490   18.6220 O   0  0  0  0  0  0  0  0  0  0  0  0
  -27.7360  -24.4300   17.7580 H   0  0  0  0  0  0  0  0  0  0  0  0
  -29.0750  -26.0460   19.1560 C   0  0  0  0  0  2  0  0  0  0  0  0
  -28.5810  -26.7570   20.3040 O   0  0  0  0  0  0  0  0  0  0  0  0
  -24.6070  -31.9010   23.2430 C   0  0  0  0  0  0  0  0  0  0  0  0
  -27.4130  -27.4950   20.2070 C   0  0  0  0  0  0  0  0  0  0  0  0
  -23.4680  -30.4780   21.5690 C   0  0  0  0  0  3  0  0  0  0  0  0
  -24.9870  -28.9680   20.1690 C   0  0  0  0  0  0  0  0  0  0  0  0
  -25.9920  -30.8750   21.4390 C   0  0  0  0  0  2  0  0  0  0  0  0
  -26.1170  -29.5050   20.7970 C   0  0  0  0  0  0  0  0  0  0  0  0
  -27.3280  -28.7680   20.8260 C   0  0  0  0  0  3  0  0  0  0  0  0
  -26.2660  -26.9800   19.5700 C   0  0  0  0  0  3  0  0  0  0  0  0
  -25.0560  -27.7040   19.5570 C   0  0  0  0  0  3  0  0  0  0  0  0
  -23.7230  -29.8010   20.1940 C   0  0  0  0  0  2  0  0  0  0  0  0
  -24.7060  -31.1010   22.1420 N   0  0  0  0  0  0  0  0  0  0  0  0
  -23.5090  -32.1530   23.7570 O   0  0  0  0  0  0  0  0  0  0  0  0
  -22.8100  -29.4470   22.5140 C   0  0  0  0  0  0  0  0  0  0  0  0
  -21.4900  -29.2550   22.3660 N   0  0  0  0  0  0  0  0  0  0  0  0
  -23.4870  -28.8240   23.3360 O   0  0  0  0  0  0  0  0  0  0  0  0
  -21.0050  -29.8100   21.6740 H   0  0  0  0  0  0  0  0  0  0  0  0
  -18.1140  -28.0550   22.8340 C   0  0  0  0  0  0  0  0  0  0  0  0
  -20.6710  -28.3040   23.1170 C   0  0  0  0  0  3  0  0  0  0  0  0
  -20.7730  -26.8840   22.5110 C   0  0  0  0  0  2  0  0  0  0  0  0
  -19.6740  -26.5840   21.4880 C   0  0  0  0  0  2  0  0  0  0  0  0
  -18.2910  -26.7190   22.1320 C   0  0  0  0  0  2  0  0  0  0  0  0
  -19.2330  -28.8060   23.2820 C   0  0  0  0  0  0  0  0  0  0  0  0
  -19.0150  -30.0580   23.8980 C   0  0  0  0  0  3  0  0  0  0  0  0
  -17.7110  -30.5590   24.0700 C   0  0  0  0  0  3  0  0  0  0  0  0
  -16.6060  -29.8040   23.6400 C   0  0  0  0  0  3  0  0  0  0  0  0
  -16.8090  -28.5530   23.0280 C   0  0  0  0  0  3  0  0  0  0  0  0
  -25.8660  -32.5540   23.8950 C   0  0  0  0  0  3  0  0  0  0  0  0
  -26.3570  -31.7990   25.1920 C   0  0  1  0  0  0  0  0  0  0  0  0
  -25.2370  -31.5490   26.2270 C   0  0  0  0  0  1  0  0  0  0  0  0
  -26.9770  -30.4310   24.8250 C   0  0  0  0  0  1  0  0  0  0  0  0
  -27.4740  -32.6170   25.8820 C   0  0  0  0  0  1  0  0  0  0  0  0
  -25.5310  -33.9500   24.2040 N   0  0  0  0  0  0  0  0  0  0  0  0
  -25.8650  -34.9990   23.4390 C   0  0  0  0  0  0  0  0  0  0  0  0
  -26.5560  -34.8940   22.4220 O   0  0  0  0  0  0  0  0  0  0  0  0
  -24.9170  -34.1050   24.9900 H   0  0  0  0  0  0  0  0  0  0  0  0
  -24.1290  -36.7700   23.0160 C   0  0  0  0  0  1  0  0  0  0  0  0
  -25.3490  -36.3860   23.8700 C   0  0  0  0  0  3  0  0  0  0  0  0
  -27.4370  -37.3110   24.7720 C   0  0  0  0  0  1  0  0  0  0  0  0
  -26.3730  -37.4490   23.7800 N   0  0  0  0  0  0  0  0  0  0  0  0
  -25.9510  -38.3670   23.8930 H   0  0  0  0  0  0  0  0  0  0  0  0
  1  4  1  0
  1  2  1  0
  2  6  1  0
  4  7  1  0
  5  3  1  0
  6 11  1  0
  6  3  1  0
  7 56  1  1
  7  5  1  0
  8  9  1  0
 10 13  1  0
 11  8  2  0
 12 10  2  0
 12 11  1  0
 13 22  1  0
 13  9  2  0
 14 22  1  0
 15 20  1  0
 16 17  1  0
 16 15  1  0
 18 17  1  0
 18 27  1  0
 18 19  1  0
 20 14  1  0
 20 19  1  0
 21 14  2  0
 22 23  1  0
 24 25  2  0
 25 44  1  0
 26 25  1  0
 26 29  1  0
 27 28  1  0
 27 24  1  0
 28 26  2  0
 29 30  1  0
 30 31  2  0
 32 35  1  0
 32 31  1  0
 33 32  2  0
 34 33  1  0
 34 29  2  0
 35 36  1  0
 36 41  2  0
 36 37  1  0
 37 38  2  0
 39 38  1  0
 39 43  1  0
 40 39  2  0
 41 40  1  0
 42 41  1  0
 44 45  1  0
 45 48  1  0
 45 47  1  0
 46 44  2  0
 49 50  1  0
 49 24  1  0
 51 49  1  0
 53 52  1  0
 53 12  1  0
 54  7  1  0
 55 54  1  0
 56 57  1  0
 58 69  2  0
 59 57  1  0
 59 64  1  0
 60 68  1  0
 60 70  1  0
 61 67  1  0
 61 63  1  0
 62 68  1  0
 63 64  2  0
 63 62  1  0
 65 59  2  0
 66 65  1  0
 66 61  2  0
 67 60  1  0
 68 58  1  0
 70 72  2  0
 71 70  1  0
 73 71  1  0
 74 83  2  0
 74 79  1  0
 75 71  1  0
 75 79  1  0
 76 75  1  0
 77 78  1  0
 77 76  1  0
 78 74  1  0
 79 80  2  0
 80 81  1  0
 82 81  2  0
 83 82  1  0
 84 58  1  0
 84 89  1  0
 84 85  1  0
 85 88  1  1
 85 86  1  0
 87 85  1  0
 89 92  1  0
 90 94  1  0
 90 89  1  0
 91 90  2  0
 94 93  1  0
 96 94  1  0
 96 97  1  0
 96 95  1  0
M  ISO  4  14 100  22 100  56 101  57 101
M  END
>  <TORSDO>  (25) 
F 20

>  <SCORE>  (25) 
-14.100

>  <name>  (25) 
24

>  <ligand_id>  (25) 
24

>  <original_smiles>  (25) 
[H]OC1(C([H])([H])Oc2c([H])c([H])c3c(c2[H])C([H])([H])N(C(=O)C([H])(N([H])C(=O)C([H])(N([H])C([H])([H])[H])C([H])([H])[H])C(C([H])([H])[H])(C([H])([H])[H])C([H])([H])[H])C([H])(C(=O)N([H])C2([H])c4c([H])c([H])c([H])c([H])c4C([H])([H])C([H])([H])C2([H])[H])C3([H])[H])C([H])([H])C([H])([H])C([H])([H])C([H])(c2c([H])c([H])c(N([H])C(=O)N3C([H])([H])C([H])([H])C([H])([H])C([H])(n4nc(-c5c([H])c([H])c(Oc6c([H])c([H])c(F)c([H])c6F)c([H])c5[H])c(C(=O)N([H])[H])c4N([H])[H])C3([H])[H])c([H])c2C([H])([H])C([H])([H])[H])C([H])([H])C1([H])[H]

>  <smiles>  (25) 
[H]OC1(C([H])([H])Oc2c([H])c([H])c3c(c2[H])C([H])([H])N(C(=O)C([H])(N([H])C(=O)C([H])(N([H])C([H])([H])[H])C([H])([H])[H])C(C([H])([H])[H])(C([H])([H])[H])C([H])([H])[H])C([H])(C(=O)N([H])C2([H])c4c([H])c([H])c([H])c([H])c4C([H])([H])C([H])([H])C2([H])[H])C3([H])[H])C([H])([H])C([H])([H])C([H])([H])C([H])(c2c([H])c([H])c(N([H])C(=O)N3C([H])([H])C([H])([H])C([H])([H])C([H])(n4nc(-c5c([H])c([H])c(Oc6c([H])c([H])c(F)c([H])c6F)c([H])c5[H])c(C(=O)N([H])[H])c4N([H])[H])C3([H])[H])c([H])c2C([H])([H])C([H])([H])[H])C([H])([H])C1([H])[H]

$$$$
25:0:0
     RDKit          3D

 95103  0  0  1  0  0  0  0  0999 V2000
  -29.4020  -22.5590   21.8250 C   0  0  0  0  0  0  0  0  0  0  0  0
  -28.8000  -21.4930   21.2750 N   0  0  0  0  0  0  0  0  0  0  0  0
  -30.2470  -22.4880   22.7230 O   0  0  0  0  0  0  0  0  0  0  0  0
  -28.1120  -21.7070   20.5640 H   0  0  0  0  0  0  0  0  0  0  0  0
  -28.9150  -23.9050   21.2160 C   0  0  0  0  0  0  0  0  0  0  0  0
  -27.8000  -24.0090   20.6870 O   0  0  0  0  0  0  0  0  0  0  0  0
  -29.8940  -25.0890   21.2840 C   0  0  0  0  0  2  0  0  0  0  0  0
  -29.2400  -26.4880   21.2690 C   0  0  0  0  0  2  0  0  0  0  0  0
  -28.6950  -26.7970   19.9860 O   0  0  0  0  0  0  0  0  0  0  0  0
  -24.7300  -31.7930   23.1790 C   0  0  0  0  0  0  0  0  0  0  0  0
  -27.5330  -27.5270   20.0190 C   0  0  0  0  0  0  0  0  0  0  0  0
  -23.5740  -30.3830   21.5040 C   0  0  0  0  0  3  0  0  0  0  0  0
  -25.0840  -28.9280   20.0510 C   0  0  0  0  0  0  0  0  0  0  0  0
  -26.0830  -30.8390   21.3190 C   0  0  0  0  0  2  0  0  0  0  0  0
  -26.2180  -29.4850   20.6590 C   0  0  0  0  0  0  0  0  0  0  0  0
  -27.4440  -28.7870   20.6520 C   0  0  0  0  0  3  0  0  0  0  0  0
  -26.3920  -26.9850   19.3970 C   0  0  0  0  0  3  0  0  0  0  0  0
  -25.1640  -27.6740   19.4200 C   0  0  0  0  0  3  0  0  0  0  0  0
  -23.8080  -29.7380   20.1120 C   0  0  0  0  0  2  0  0  0  0  0  0
  -24.8130  -31.0190   22.0600 N   0  0  0  0  0  0  0  0  0  0  0  0
  -23.6400  -32.0180   23.7220 O   0  0  0  0  0  0  0  0  0  0  0  0
  -22.9570  -29.3210   22.4430 C   0  0  0  0  0  0  0  0  0  0  0  0
  -21.6380  -29.1060   22.3150 N   0  0  0  0  0  0  0  0  0  0  0  0
  -23.6630  -28.6960   23.2390 O   0  0  0  0  0  0  0  0  0  0  0  0
  -21.1310  -29.6630   21.6430 H   0  0  0  0  0  0  0  0  0  0  0  0
  -18.2950  -27.8330   22.8150 C   0  0  0  0  0  0  0  0  0  0  0  0
  -20.8510  -28.1270   23.0640 C   0  0  0  0  0  3  0  0  0  0  0  0
  -20.9720  -26.7190   22.4370 C   0  0  0  0  0  2  0  0  0  0  0  0
  -19.8620  -26.4110   21.4270 C   0  0  0  0  0  2  0  0  0  0  0  0
  -18.4860  -26.5100   22.0920 C   0  0  0  0  0  2  0  0  0  0  0  0
  -19.4050  -28.6000   23.2570 C   0  0  0  0  0  0  0  0  0  0  0  0
  -19.1730  -29.8390   23.8920 C   0  0  0  0  0  3  0  0  0  0  0  0
  -17.8630  -30.3130   24.0880 C   0  0  0  0  0  3  0  0  0  0  0  0
  -16.7670  -29.5420   23.6630 C   0  0  0  0  0  3  0  0  0  0  0  0
  -16.9830  -28.3040   23.0330 C   0  0  0  0  0  3  0  0  0  0  0  0
  -25.9940  -32.4520   23.8140 C   0  0  0  0  0  3  0  0  0  0  0  0
  -25.6500  -33.8400   24.1470 N   0  0  0  0  0  0  0  0  0  0  0  0
  -25.9670  -34.9030   23.3950 C   0  0  0  0  0  0  0  0  0  0  0  0
  -26.6530  -34.8190   22.3730 O   0  0  0  0  0  0  0  0  0  0  0  0
  -25.0400  -33.9770   24.9390 H   0  0  0  0  0  0  0  0  0  0  0  0
  -24.2030  -36.6550   23.0200 C   0  0  0  0  0  1  0  0  0  0  0  0
  -25.4400  -36.2760   23.8500 C   0  0  0  0  0  3  0  0  0  0  0  0
  -27.5360  -37.2070   24.7230 C   0  0  0  0  0  1  0  0  0  0  0  0
  -26.4490  -37.3530   23.7600 N   0  0  0  0  0  0  0  0  0  0  0  0
  -26.0190  -38.2630   23.9010 H   0  0  0  0  0  0  0  0  0  0  0  0
  -26.5220  -31.6850   25.0880 C   0  0  1  0  0  0  0  0  0  0  0  0
  -25.4260  -31.4020   26.1410 C   0  0  0  0  0  1  0  0  0  0  0  0
  -27.1500  -30.3290   24.6870 C   0  0  0  0  0  1  0  0  0  0  0  0
  -27.6420  -32.5060   25.7680 C   0  0  0  0  0  1  0  0  0  0  0  0
  -28.9290  -20.0940   21.7010 C   0  0  0  0  0  2  0  0  0  0  0  0
  -31.5080  -18.9020   19.0960 C   0  0  0  0  0  3  0  0  0  0  0  0
  -30.7020  -19.7440   19.8800 C   0  0  0  0  0  3  0  0  0  0  0  0
  -31.4220  -17.5070   19.2390 C   0  0  0  0  0  3  0  0  0  0  0  0
  -29.8030  -19.1970   20.8220 C   0  0  0  0  0  0  0  0  0  0  0  0
  -30.5330  -16.9280   20.1810 C   0  0  0  0  0  0  0  0  0  0  0  0
  -29.7290  -17.7870   20.9650 C   0  0  0  0  0  0  0  0  0  0  0  0
  -28.8680  -17.2440   21.8600 F   0  0  0  0  0  0  0  0  0  0  0  0
  -30.9820  -14.5040   19.7310 C   0  0  0  0  0  0  0  0  0  0  0  0
  -30.5430  -12.3750   18.5820 C   0  0  0  0  0  2  0  0  0  0  0  0
  -29.4960  -12.6250   17.4780 C   0  0  0  0  0  2  0  0  0  0  0  0
  -28.0700  -12.4860   18.0450 C   0  0  0  0  0  2  0  0  0  0  0  0
  -27.8620  -13.2940   19.3540 C   0  0  0  0  0  3  0  0  0  0  0  0
  -29.0180  -13.0440   20.3500 C   0  0  0  0  0  2  0  0  0  0  0  0
  -30.2870  -13.3380   19.6640 N   0  0  0  0  0  0  0  0  0  0  0  0
  -32.0660  -14.6530   19.1610 O   0  0  0  0  0  0  0  0  0  0  0  0
  -30.3590  -15.5180   20.3600 N   0  0  0  0  0  0  0  0  0  0  0  0
  -29.5560  -15.2590   20.9140 H   0  0  0  0  0  0  0  0  0  0  0  0
  -25.5530  -13.8890   20.3220 C   0  0  0  0  0  0  0  0  0  0  0  0
  -24.5180  -13.1090   20.7650 C   0  0  0  0  0  0  0  0  0  0  0  0
  -24.9590  -11.7570   20.6350 C   0  0  0  0  0  0  0  0  0  0  0  0
  -26.5600  -13.0100   19.9550 N   0  0  0  0  0  0  0  0  0  0  0  0
  -26.2100  -11.7210   20.1980 N   0  0  0  0  0  0  0  0  0  0  0  0
  -24.2410  -10.4940   20.8460 C   0  0  0  0  0  0  0  0  0  0  0  0
  -24.6790   -9.5460   21.7980 C   0  0  0  0  0  3  0  0  0  0  0  0
  -23.9610   -8.3460   21.9960 C   0  0  0  0  0  3  0  0  0  0  0  0
  -22.7920   -8.0860   21.2420 C   0  0  0  0  0  0  0  0  0  0  0  0
  -22.3740   -9.0220   20.2800 C   0  0  0  0  0  3  0  0  0  0  0  0
  -23.0920  -10.2130   20.0810 C   0  0  0  0  0  3  0  0  0  0  0  0
  -22.0460   -6.9370   21.3490 O   0  0  0  0  0  0  0  0  0  0  0  0
  -21.9000   -6.2820   22.5450 C   0  0  0  0  0  0  0  0  0  0  0  0
  -21.3510   -6.9160   23.6810 C   0  0  0  0  0  3  0  0  0  0  0  0
  -21.1560   -6.1860   24.8710 C   0  0  0  0  0  3  0  0  0  0  0  0
  -21.4970   -4.8220   24.9240 C   0  0  0  0  0  0  0  0  0  0  0  0
  -22.0400   -4.1870   23.7910 C   0  0  0  0  0  3  0  0  0  0  0  0
  -22.2370   -4.9150   22.6050 C   0  0  0  0  0  0  0  0  0  0  0  0
  -22.7390   -4.2920   21.5120 F   0  0  0  0  0  0  0  0  0  0  0  0
  -21.3030   -4.1170   26.0630 F   0  0  0  0  0  0  0  0  0  0  0  0
  -23.1610  -13.5860   21.1970 C   0  0  0  0  0  0  0  0  0  0  0  0
  -22.5320  -12.8790   22.1300 N   0  0  0  0  0  0  0  0  0  0  0  0
  -22.6700  -14.6170   20.7420 O   0  0  0  0  0  0  0  0  0  0  0  0
  -22.9430  -12.0430   22.5190 H   0  0  0  0  0  0  0  0  0  0  0  0
  -21.6250  -13.1790   22.4610 H   0  0  0  0  0  0  0  0  0  0  0  0
  -25.7150  -15.2640   20.1840 N   0  0  0  0  0  0  0  0  0  0  0  0
  -24.9770  -15.9240   20.4020 H   0  0  0  0  0  0  0  0  0  0  0  0
  -26.5440  -15.7100   19.8100 H   0  0  0  0  0  0  0  0  0  0  0  0
  1  3  2  0
  2 50  1  0
  2  1  1  0
  4  2  1  0
  5  7  1  0
  5  1  1  0
  6  5  2  0
  8  7  1  0
  9 11  1  0
  9  8  1  0
 10 21  2  0
 11 16  1  0
 12 20  1  0
 12 22  1  0
 13 19  1  0
 13 15  1  0
 14 20  1  0
 15 14  1  0
 16 15  2  0
 17 18  1  0
 17 11  2  0
 18 13  2  0
 19 12  1  0
 20 10  1  0
 22 24  2  0
 23 22  1  0
 25 23  1  0
 26 35  2  0
 26 31  1  0
 27 23  1  0
 27 31  1  0
 28 27  1  0
 29 30  1  0
 29 28  1  0
 30 26  1  0
 31 32  2  0
 32 33  1  0
 34 33  2  0
 35 34  1  0
 36 10  1  0
 36 37  1  0
 36 46  1  0
 37 40  1  0
 38 42  1  0
 38 37  1  0
 39 38  2  0
 42 41  1  0
 44 42  1  0
 44 45  1  0
 44 43  1  0
 46 49  1  1
 46 47  1  0
 48 46  1  0
 51 53  2  0
 51 52  1  0
 52 54  2  0
 53 55  1  0
 54 56  1  0
 54 50  1  0
 55 66  1  0
 55 56  2  0
 56 57  1  0
 58 66  1  0
 59 64  1  0
 60 61  1  0
 60 59  1  0
 62 61  1  0
 62 71  1  0
 62 63  1  0
 64 58  1  0
 64 63  1  0
 65 58  2  0
 66 67  1  0
 68 69  2  0
 69 88  1  0
 70 69  1  0
 70 73  1  0
 71 72  1  0
 71 68  1  0
 72 70  2  0
 73 74  1  0
 74 75  2  0
 76 79  1  0
 76 75  1  0
 77 76  2  0
 78 77  1  0
 78 73  2  0
 79 80  1  0
 80 85  2  0
 80 81  1  0
 81 82  2  0
 82 83  1  0
 83 87  1  0
 84 83  2  0
 85 84  1  0
 86 85  1  0
 88 89  1  0
 89 92  1  0
 89 91  1  0
 90 88  2  0
 93 68  1  0
 93 94  1  0
 95 93  1  0
M  ISO  4   8 101   9 101  58 100  66 100
M  END
>  <TORSDO>  (26) 
F 21

>  <SCORE>  (26) 
-11.893

>  <name>  (26) 
25

>  <ligand_id>  (26) 
25

>  <original_smiles>  (26) 
[H]c1c([H])c(N([H])C(=O)N2C([H])([H])C([H])([H])C([H])([H])C([H])(n3nc(-c4c([H])c([H])c(Oc5c([H])c([H])c(F)c([H])c5F)c([H])c4[H])c(C(=O)N([H])[H])c3N([H])[H])C2([H])[H])c(F)c(C([H])([H])N([H])C(=O)C(=O)C([H])([H])C([H])([H])Oc2c([H])c([H])c3c(c2[H])C([H])([H])N(C(=O)C([H])(N([H])C(=O)C([H])(N([H])C([H])([H])[H])C([H])([H])[H])C(C([H])([H])[H])(C([H])([H])[H])C([H])([H])[H])C([H])(C(=O)N([H])C2([H])c4c([H])c([H])c([H])c([H])c4C([H])([H])C([H])([H])C2([H])[H])C3([H])[H])c1[H]

>  <smiles>  (26) 
[H]c1c([H])c(N([H])C(=O)N2C([H])([H])C([H])([H])C([H])([H])C([H])(n3nc(-c4c([H])c([H])c(Oc5c([H])c([H])c(F)c([H])c5F)c([H])c4[H])c(C(=O)N([H])[H])c3N([H])[H])C2([H])[H])c(F)c(C([H])([H])N([H])C(=O)C(=O)C([H])([H])C([H])([H])Oc2c([H])c([H])c3c(c2[H])C([H])([H])N(C(=O)C([H])(N([H])C(=O)C([H])(N([H])C([H])([H])[H])C([H])([H])[H])C(C([H])([H])[H])(C([H])([H])[H])C([H])([H])[H])C([H])(C(=O)N([H])C2([H])c4c([H])c([H])c([H])c([H])c4C([H])([H])C([H])([H])C2([H])[H])C3([H])[H])c1[H]

$$$$
26:0:0
     RDKit          3D

 97105  0  0  1  0  0  0  0  0999 V2000
  -29.2630  -20.6370   20.8800 C   0  0  0  0  0  0  0  0  0  0  0  0
  -29.5630  -21.9390   20.6280 N   0  0  0  0  0  0  0  0  0  0  0  0
  -28.0620  -20.3820   21.4050 N   0  0  0  0  0  4  0  0  0  0  0  0
  -30.3990  -22.1290   20.0860 H   0  0  0  0  0  0  0  0  0  0  0  0
  -27.7800  -19.4180   21.5160 H   0  0  0  0  0  0  0  0  0  0  0  0
  -27.4020  -21.1160   21.5930 H   0  0  0  0  0  0  0  0  0  0  0  0
  -32.5750  -18.8100   20.6260 C   0  0  0  0  0  3  0  0  0  0  0  0
  -31.6120  -19.8330   20.6940 C   0  0  0  0  0  3  0  0  0  0  0  0
  -32.1790  -17.4630   20.5600 C   0  0  0  0  0  3  0  0  0  0  0  0
  -30.2330  -19.5270   20.6900 C   0  0  0  0  0  0  0  0  0  0  0  0
  -30.8070  -17.1120   20.5380 C   0  0  0  0  0  0  0  0  0  0  0  0
  -29.8420  -18.1540   20.6090 C   0  0  0  0  0  0  0  0  0  0  0  0
  -28.5290  -17.8090   20.6360 F   0  0  0  0  0  0  0  0  0  0  0  0
  -30.9990  -14.6790   19.9590 C   0  0  0  0  0  0  0  0  0  0  0  0
  -30.6250  -12.4690   18.9240 C   0  0  0  0  0  2  0  0  0  0  0  0
  -29.6210  -12.6140   17.7630 C   0  0  0  0  0  2  0  0  0  0  0  0
  -28.1750  -12.4820   18.2800 C   0  0  0  0  0  2  0  0  0  0  0  0
  -27.9000  -13.3740   19.5220 C   0  0  0  0  0  3  0  0  0  0  0  0
  -29.0190  -13.2290   20.5790 C   0  0  0  0  0  2  0  0  0  0  0  0
  -30.3040  -13.5070   19.9200 N   0  0  0  0  0  0  0  0  0  0  0  0
  -32.0910  -14.8020   19.4020 O   0  0  0  0  0  0  0  0  0  0  0  0
  -30.3620  -15.7420   20.5010 N   0  0  0  0  0  0  0  0  0  0  0  0
  -29.4140  -15.5800   20.8040 H   0  0  0  0  0  0  0  0  0  0  0  0
  -25.5780  -14.0000   20.4310 C   0  0  0  0  0  0  0  0  0  0  0  0
  -24.5180  -13.2360   20.8430 C   0  0  0  0  0  0  0  0  0  0  0  0
  -24.9400  -11.8770   20.7200 C   0  0  0  0  0  0  0  0  0  0  0  0
  -26.5790  -13.1070   20.0880 N   0  0  0  0  0  0  0  0  0  0  0  0
  -26.2040  -11.8230   20.3190 N   0  0  0  0  0  0  0  0  0  0  0  0
  -24.1960  -10.6260   20.9080 C   0  0  0  0  0  0  0  0  0  0  0  0
  -24.6040   -9.6570   21.8520 C   0  0  0  0  0  3  0  0  0  0  0  0
  -23.8610   -8.4700   22.0280 C   0  0  0  0  0  3  0  0  0  0  0  0
  -22.6950   -8.2420   21.2590 C   0  0  0  0  0  0  0  0  0  0  0  0
  -22.3060   -9.1980   20.3040 C   0  0  0  0  0  3  0  0  0  0  0  0
  -23.0500  -10.3770   20.1270 C   0  0  0  0  0  3  0  0  0  0  0  0
  -21.9260   -7.1070   21.3420 O   0  0  0  0  0  0  0  0  0  0  0  0
  -21.7830   -6.4200   22.5210 C   0  0  0  0  0  0  0  0  0  0  0  0
  -21.2230   -7.0200   23.6700 C   0  0  0  0  0  3  0  0  0  0  0  0
  -21.0300   -6.2570   24.8400 C   0  0  0  0  0  3  0  0  0  0  0  0
  -21.3860   -4.8960   24.8590 C   0  0  0  0  0  0  0  0  0  0  0  0
  -21.9380   -4.2950   23.7140 C   0  0  0  0  0  3  0  0  0  0  0  0
  -22.1330   -5.0550   22.5470 C   0  0  0  0  0  0  0  0  0  0  0  0
  -22.6450   -4.4660   21.4400 F   0  0  0  0  0  0  0  0  0  0  0  0
  -21.1940   -4.1600   25.9800 F   0  0  0  0  0  0  0  0  0  0  0  0
  -23.1570  -13.7340   21.2360 C   0  0  0  0  0  0  0  0  0  0  0  0
  -22.4750  -13.0190   22.1230 N   0  0  0  0  0  0  0  0  0  0  0  0
  -22.7090  -14.7910   20.7910 O   0  0  0  0  0  0  0  0  0  0  0  0
  -22.8500  -12.1620   22.5040 H   0  0  0  0  0  0  0  0  0  0  0  0
  -21.5650  -13.3330   22.4290 H   0  0  0  0  0  0  0  0  0  0  0  0
  -25.7640  -15.3730   20.3030 N   0  0  0  0  0  0  0  0  0  0  0  0
  -25.0250  -16.0380   20.5010 H   0  0  0  0  0  0  0  0  0  0  0  0
  -26.6060  -15.8150   19.9530 H   0  0  0  0  0  0  0  0  0  0  0  0
  -29.0830  -23.4650   22.5520 C   0  0  0  0  0  1  0  0  0  0  0  0
  -28.8020  -23.1530   21.0610 C   0  0  0  0  0  3  0  0  0  0  0  0
  -29.0850  -24.4120   20.1860 C   0  0  0  0  0  0  0  0  0  0  0  0
  -29.8450  -24.3820   19.2120 O   0  0  0  0  0  0  0  0  0  0  0  0
  -28.3740  -25.7210   20.6180 C   0  0  0  0  0  2  0  0  0  0  0  0
  -28.4550  -26.8070   19.6670 O   0  0  0  0  0  0  0  0  0  0  0  0
  -24.5310  -31.7250   23.0300 C   0  0  0  0  0  0  0  0  0  0  0  0
  -27.3030  -27.5630   19.6790 C   0  0  0  0  0  0  0  0  0  0  0  0
  -23.3600  -30.3700   21.3240 C   0  0  0  0  0  3  0  0  0  0  0  0
  -24.8560  -28.9780   19.7950 C   0  0  0  0  0  0  0  0  0  0  0  0
  -25.8680  -30.8410   21.1180 C   0  0  0  0  0  2  0  0  0  0  0  0
  -26.0020  -29.5130   20.3980 C   0  0  0  0  0  0  0  0  0  0  0  0
  -27.2320  -28.8150   20.3370 C   0  0  0  0  0  3  0  0  0  0  0  0
  -26.1440  -27.0500   19.0610 C   0  0  0  0  0  3  0  0  0  0  0  0
  -24.9230  -27.7460   19.1200 C   0  0  0  0  0  3  0  0  0  0  0  0
  -23.5780  -29.7790   19.9060 C   0  0  0  0  0  2  0  0  0  0  0  0
  -24.6050  -30.9910   21.8840 N   0  0  0  0  0  0  0  0  0  0  0  0
  -23.4470  -31.9230   23.5970 O   0  0  0  0  0  0  0  0  0  0  0  0
  -22.7610  -29.2720   22.2320 C   0  0  0  0  0  0  0  0  0  0  0  0
  -21.4400  -29.0590   22.1260 N   0  0  0  0  0  0  0  0  0  0  0  0
  -23.4820  -28.6160   22.9890 O   0  0  0  0  0  0  0  0  0  0  0  0
  -20.9170  -29.6440   21.4880 H   0  0  0  0  0  0  0  0  0  0  0  0
  -18.1080  -27.7590   22.6470 C   0  0  0  0  0  0  0  0  0  0  0  0
  -20.6690  -28.0520   22.8530 C   0  0  0  0  0  3  0  0  0  0  0  0
  -20.7780  -26.6680   22.1720 C   0  0  0  0  0  2  0  0  0  0  0  0
  -19.6480  -26.3960   21.1740 C   0  0  0  0  0  2  0  0  0  0  0  0
  -18.2870  -26.4650   21.8710 C   0  0  0  0  0  2  0  0  0  0  0  0
  -19.2260  -28.5120   23.0950 C   0  0  0  0  0  0  0  0  0  0  0  0
  -19.0040  -29.7260   23.7810 C   0  0  0  0  0  3  0  0  0  0  0  0
  -17.6960  -30.1870   24.0250 C   0  0  0  0  0  3  0  0  0  0  0  0
  -16.5930  -29.4290   23.5940 C   0  0  0  0  0  3  0  0  0  0  0  0
  -16.8000  -28.2180   22.9110 C   0  0  0  0  0  3  0  0  0  0  0  0
  -25.8000  -32.3710   23.6700 C   0  0  0  0  0  3  0  0  0  0  0  0
  -26.3540  -31.5610   24.9070 C   0  0  1  0  0  0  0  0  0  0  0  0
  -25.2780  -31.2380   25.9700 C   0  0  0  0  0  1  0  0  0  0  0  0
  -26.9790  -30.2240   24.4450 C   0  0  0  0  0  1  0  0  0  0  0  0
  -27.4820  -32.3640   25.5960 C   0  0  0  0  0  1  0  0  0  0  0  0
  -25.4480  -33.7420   24.0620 N   0  0  0  0  0  0  0  0  0  0  0  0
  -25.7510  -34.8370   23.3500 C   0  0  0  0  0  0  0  0  0  0  0  0
  -26.4250  -34.7990   22.3180 O   0  0  0  0  0  0  0  0  0  0  0  0
  -24.8480  -33.8440   24.8670 H   0  0  0  0  0  0  0  0  0  0  0  0
  -23.9740  -36.5930   23.0610 C   0  0  0  0  0  1  0  0  0  0  0  0
  -25.2190  -36.1880   23.8660 C   0  0  0  0  0  3  0  0  0  0  0  0
  -27.3130  -37.0980   24.7680 C   0  0  0  0  0  1  0  0  0  0  0  0
  -26.2220  -37.2730   23.8130 N   0  0  0  0  0  0  0  0  0  0  0  0
  -25.7860  -38.1750   23.9910 H   0  0  0  0  0  0  0  0  0  0  0  0
  1  3  2  0
  2  1  1  0
  2 53  1  0
  3  5  1  0
  3  6  1  0
  4  2  1  0
  7  8  1  0
  9  7  2  0
 10  8  2  0
 10  1  1  0
 11  9  1  0
 11 12  2  0
 12 13  1  0
 12 10  1  0
 14 22  1  0
 15 20  1  0
 16 17  1  0
 16 15  1  0
 18 17  1  0
 18 27  1  0
 18 19  1  0
 20 14  1  0
 20 19  1  0
 21 14  2  0
 22 11  1  0
 22 23  1  0
 24 25  2  0
 25 44  1  0
 26 25  1  0
 26 29  1  0
 27 28  1  0
 27 24  1  0
 28 26  2  0
 29 30  1  0
 30 31  2  0
 32 35  1  0
 32 31  1  0
 33 32  2  0
 34 33  1  0
 34 29  2  0
 35 36  1  0
 36 41  2  0
 36 37  1  0
 37 38  2  0
 38 39  1  0
 39 43  1  0
 40 39  2  0
 41 40  1  0
 42 41  1  0
 44 45  1  0
 45 48  1  0
 45 47  1  0
 46 44  2  0
 49 24  1  0
 49 50  1  0
 51 49  1  0
 53 52  1  0
 54 56  1  0
 54 53  1  0
 55 54  2  0
 57 59  1  0
 57 56  1  0
 58 69  2  0
 59 64  1  0
 60 68  1  0
 60 70  1  0
 61 67  1  0
 61 63  1  0
 62 68  1  0
 63 62  1  0
 64 63  2  0
 65 66  1  0
 65 59  2  0
 66 61  2  0
 67 60  1  0
 68 58  1  0
 70 72  2  0
 71 70  1  0
 73 71  1  0
 74 83  2  0
 74 79  1  0
 75 71  1  0
 75 79  1  0
 76 75  1  0
 77 78  1  0
 77 76  1  0
 78 74  1  0
 79 80  2  0
 80 81  1  0
 82 81  2  0
 83 82  1  0
 84 58  1  0
 84 89  1  0
 84 85  1  0
 85 88  1  1
 85 86  1  0
 87 85  1  0
 89 92  1  0
 90 94  1  0
 90 89  1  0
 91 90  2  0
 94 93  1  0
 96 94  1  0
 96 97  1  0
 96 95  1  0
M  ISO  4  14 100  22 100  56 101  57 101
M  END
>  <TORSDO>  (27) 
F 20

>  <SCORE>  (27) 
-13.387

>  <name>  (27) 
26

>  <ligand_id>  (27) 
26

>  <original_smiles>  (27) 
[H]c1c([H])c(C(N([H])C([H])(C(=O)C([H])([H])Oc2c([H])c([H])c3c(c2[H])C([H])([H])N(C(=O)C([H])(N([H])C(=O)C([H])(N([H])C([H])([H])[H])C([H])([H])[H])C(C([H])([H])[H])(C([H])([H])[H])C([H])([H])[H])C([H])(C(=O)N([H])C2([H])c4c([H])c([H])c([H])c([H])c4C([H])([H])C([H])([H])C2([H])[H])C3([H])[H])C([H])([H])[H])=[N+]([H])[H])c(F)c(N([H])C(=O)N2C([H])([H])C([H])([H])C([H])([H])C([H])(n3nc(-c4c([H])c([H])c(Oc5c([H])c([H])c(F)c([H])c5F)c([H])c4[H])c(C(=O)N([H])[H])c3N([H])[H])C2([H])[H])c1[H]

>  <smiles>  (27) 
[H]c1c([H])c(C(N([H])C([H])(C(=O)C([H])([H])Oc2c([H])c([H])c3c(c2[H])C([H])([H])N(C(=O)C([H])(N([H])C(=O)C([H])(N([H])C([H])([H])[H])C([H])([H])[H])C(C([H])([H])[H])(C([H])([H])[H])C([H])([H])[H])C([H])(C(=O)N([H])C2([H])c4c([H])c([H])c([H])c([H])c4C([H])([H])C([H])([H])C2([H])[H])C3([H])[H])C([H])([H])[H])=[N+]([H])[H])c(F)c(N([H])C(=O)N2C([H])([H])C([H])([H])C([H])([H])C([H])(n3nc(-c4c([H])c([H])c(Oc5c([H])c([H])c(F)c([H])c5F)c([H])c4[H])c(C(=O)N([H])[H])c3N([H])[H])C2([H])[H])c1[H]

$$$$
27:0:0
     RDKit          3D

 94102  0  0  1  0  0  0  0  0999 V2000
  -29.2240  -18.4900   20.5730 C   0  0  0  0  0  3  0  0  0  0  0  0
  -30.1940  -17.4090   20.5200 C   0  0  0  0  0  0  0  0  0  0  0  0
  -29.6340  -19.8730   20.4540 C   0  0  0  0  0  0  0  0  0  0  0  0
  -31.7850  -19.1030   20.2900 C   0  0  0  0  0  0  0  0  0  0  0  0
  -31.4740  -17.8080   20.3970 N   0  0  0  0  0  0  0  0  0  0  0  0
  -30.9370  -20.1290   20.3100 N   0  0  0  0  0  0  0  0  0  0  0  0
  -28.7890  -21.0450   20.5130 N   0  0  0  0  0  0  0  0  0  0  0  0
  -27.7930  -20.8810   20.6150 H   0  0  0  0  0  0  0  0  0  0  0  0
  -30.6040  -14.8040   20.3850 C   0  0  0  0  0  0  0  0  0  0  0  0
  -30.3840  -12.5230   19.3750 C   0  0  0  0  0  2  0  0  0  0  0  0
  -29.4460  -12.5870   18.1500 C   0  0  0  0  0  2  0  0  0  0  0  0
  -27.9790  -12.4090   18.5830 C   0  0  0  0  0  2  0  0  0  0  0  0
  -27.6050  -13.3020   19.7970 C   0  0  0  0  0  3  0  0  0  0  0  0
  -28.6640  -13.2340   20.9190 C   0  0  0  0  0  2  0  0  0  0  0  0
  -29.9580  -13.5850   20.3210 N   0  0  0  0  0  0  0  0  0  0  0  0
  -31.7950  -14.8460   20.0610 O   0  0  0  0  0  0  0  0  0  0  0  0
  -29.8490  -15.9590   20.6110 N   0  0  0  0  0  0  0  0  0  0  0  0
  -28.8820  -15.7720   20.8180 H   0  0  0  0  0  0  0  0  0  0  0  0
  -25.2220  -13.8870   20.5350 C   0  0  0  0  0  0  0  0  0  0  0  0
  -24.1580  -13.1100   20.9060 C   0  0  0  0  0  0  0  0  0  0  0  0
  -24.6220  -11.7590   20.8670 C   0  0  0  0  0  0  0  0  0  0  0  0
  -26.2640  -13.0090   20.2910 N   0  0  0  0  0  0  0  0  0  0  0  0
  -25.9120  -11.7240   20.5550 N   0  0  0  0  0  0  0  0  0  0  0  0
  -23.8960  -10.4960   21.0510 C   0  0  0  0  0  0  0  0  0  0  0  0
  -24.3260   -9.5250   21.9840 C   0  0  0  0  0  3  0  0  0  0  0  0
  -23.5980   -8.3280   22.1570 C   0  0  0  0  0  3  0  0  0  0  0  0
  -22.4280   -8.0920   21.3970 C   0  0  0  0  0  0  0  0  0  0  0  0
  -22.0190   -9.0510   20.4530 C   0  0  0  0  0  3  0  0  0  0  0  0
  -22.7460  -10.2390   20.2790 C   0  0  0  0  0  3  0  0  0  0  0  0
  -21.6730   -6.9470   21.4790 O   0  0  0  0  0  0  0  0  0  0  0  0
  -21.6110   -6.2070   22.6320 C   0  0  0  0  0  0  0  0  0  0  0  0
  -21.1660   -6.7620   23.8510 C   0  0  0  0  0  3  0  0  0  0  0  0
  -21.0510   -5.9490   24.9960 C   0  0  0  0  0  3  0  0  0  0  0  0
  -21.3730   -4.5800   24.9230 C   0  0  0  0  0  0  0  0  0  0  0  0
  -21.8130   -4.0240   23.7080 C   0  0  0  0  0  3  0  0  0  0  0  0
  -21.9290   -4.8360   22.5660 C   0  0  0  0  0  0  0  0  0  0  0  0
  -22.3320   -4.2900   21.3930 F   0  0  0  0  0  0  0  0  0  0  0  0
  -21.2570   -3.7960   26.0200 F   0  0  0  0  0  0  0  0  0  0  0  0
  -22.7610  -13.5860   21.1790 C   0  0  0  0  0  0  0  0  0  0  0  0
  -22.0320  -12.8820   22.0390 N   0  0  0  0  0  0  0  0  0  0  0  0
  -22.3250  -14.6170   20.6680 O   0  0  0  0  0  0  0  0  0  0  0  0
  -22.3980  -12.0470   22.4720 H   0  0  0  0  0  0  0  0  0  0  0  0
  -21.0950  -13.1820   22.2670 H   0  0  0  0  0  0  0  0  0  0  0  0
  -25.3830  -15.2590   20.3600 N   0  0  0  0  0  0  0  0  0  0  0  0
  -24.6080  -15.9040   20.4600 H   0  0  0  0  0  0  0  0  0  0  0  0
  -26.2110  -15.6940   19.9740 H   0  0  0  0  0  0  0  0  0  0  0  0
  -33.8170  -19.6780   21.6920 C   0  0  0  0  0  1  0  0  0  0  0  0
  -33.2700  -19.4500   20.2750 C   0  0  0  0  0  3  0  0  0  0  0  0
  -33.9890  -18.4880   19.6880 F   0  0  0  0  0  0  0  0  0  0  0  0
  -29.1660  -22.4240   19.9800 C   0  0  0  0  0  2  0  0  0  0  0  0
  -28.4250  -23.7600   20.4800 C   0  0  0  0  0  0  0  0  0  0  0  0
  -27.7920  -23.7290   21.5400 O   0  0  0  0  0  0  0  0  0  0  0  0
  -28.4690  -25.1120   19.6120 C   0  0  0  0  0  2  0  0  0  0  0  0
  -28.3470  -26.4520   20.2880 O   0  0  0  0  0  0  0  0  0  0  0  0
  -24.6010  -31.8940   23.2430 C   0  0  0  0  0  0  0  0  0  0  0  0
  -27.2220  -27.3020   20.1920 C   0  0  0  0  0  0  0  0  0  0  0  0
  -23.4020  -30.4900   21.6050 C   0  0  0  0  0  3  0  0  0  0  0  0
  -24.8560  -28.9370   20.1760 C   0  0  0  0  0  0  0  0  0  0  0  0
  -25.9440  -30.8050   21.4250 C   0  0  0  0  0  2  0  0  0  0  0  0
  -26.0240  -29.4230   20.7760 C   0  0  0  0  0  0  0  0  0  0  0  0
  -27.2040  -28.6150   20.7740 C   0  0  0  0  0  3  0  0  0  0  0  0
  -26.0270  -26.8790   19.5690 C   0  0  0  0  0  3  0  0  0  0  0  0
  -24.8630  -27.6740   19.5620 C   0  0  0  0  0  3  0  0  0  0  0  0
  -23.6170  -29.8120   20.2250 C   0  0  0  0  0  2  0  0  0  0  0  0
  -24.6670  -31.0820   22.1470 N   0  0  0  0  0  0  0  0  0  0  0  0
  -23.5170  -32.1700   23.7770 O   0  0  0  0  0  0  0  0  0  0  0  0
  -22.7410  -29.4750   22.5690 C   0  0  0  0  0  0  0  0  0  0  0  0
  -21.4150  -29.2950   22.4440 N   0  0  0  0  0  0  0  0  0  0  0  0
  -23.4200  -28.8520   23.3880 O   0  0  0  0  0  0  0  0  0  0  0  0
  -20.9240  -29.8490   21.7560 H   0  0  0  0  0  0  0  0  0  0  0  0
  -18.0380  -28.0970   22.9530 C   0  0  0  0  0  0  0  0  0  0  0  0
  -20.5980  -28.3570   23.2170 C   0  0  0  0  0  3  0  0  0  0  0  0
  -20.6990  -26.9260   22.6400 C   0  0  0  0  0  2  0  0  0  0  0  0
  -19.5940  -26.6040   21.6290 C   0  0  0  0  0  2  0  0  0  0  0  0
  -18.2130  -26.7480   22.2750 C   0  0  0  0  0  2  0  0  0  0  0  0
  -19.1570  -28.8590   23.3810 C   0  0  0  0  0  0  0  0  0  0  0  0
  -18.9400  -30.1210   23.9750 C   0  0  0  0  0  3  0  0  0  0  0  0
  -17.6350  -30.6210   24.1460 C   0  0  0  0  0  3  0  0  0  0  0  0
  -16.5290  -29.8560   23.7340 C   0  0  0  0  0  3  0  0  0  0  0  0
  -16.7330  -28.5950   23.1440 C   0  0  0  0  0  3  0  0  0  0  0  0
  -25.8820  -32.5330   23.8640 C   0  0  0  0  0  3  0  0  0  0  0  0
  -26.3960  -31.7700   25.1490 C   0  0  1  0  0  0  0  0  0  0  0  0
  -25.2990  -31.5390   26.2150 C   0  0  0  0  0  1  0  0  0  0  0  0
  -26.9820  -30.3900   24.7690 C   0  0  0  0  0  1  0  0  0  0  0  0
  -27.5440  -32.5700   25.8090 C   0  0  0  0  0  1  0  0  0  0  0  0
  -25.5700  -33.9320   24.1880 N   0  0  0  0  0  0  0  0  0  0  0  0
  -25.9060  -34.9830   23.4290 C   0  0  0  0  0  0  0  0  0  0  0  0
  -26.5790  -34.8760   22.4000 O   0  0  0  0  0  0  0  0  0  0  0  0
  -24.9730  -34.0890   24.9870 H   0  0  0  0  0  0  0  0  0  0  0  0
  -24.1850  -36.7800   23.0570 C   0  0  0  0  0  1  0  0  0  0  0  0
  -25.4180  -36.3730   23.8800 C   0  0  0  0  0  3  0  0  0  0  0  0
  -27.5450  -37.2560   24.7310 C   0  0  0  0  0  1  0  0  0  0  0  0
  -26.4530  -37.4250   23.7760 N   0  0  0  0  0  0  0  0  0  0  0  0
  -26.0480  -38.3460   23.9180 H   0  0  0  0  0  0  0  0  0  0  0  0
  2  1  2  0
  2 17  1  0
  3  7  1  0
  3  1  1  0
  4  6  1  0
  4  5  2  0
  5  2  1  0
  6  3  2  0
  7  8  1  0
  9 17  1  0
 10 15  1  0
 11 12  1  0
 11 10  1  0
 13 12  1  0
 13 22  1  0
 13 14  1  0
 15  9  1  0
 15 14  1  0
 16  9  2  0
 17 18  1  0
 19 20  2  0
 20 39  1  0
 21 20  1  0
 21 24  1  0
 22 19  1  0
 22 23  1  0
 23 21  2  0
 24 25  1  0
 25 26  2  0
 27 30  1  0
 27 26  1  0
 28 27  2  0
 29 28  1  0
 29 24  2  0
 30 31  1  0
 31 32  1  0
 32 33  2  0
 34 33  1  0
 34 38  1  0
 35 34  2  0
 36 31  2  0
 36 35  1  0
 37 36  1  0
 39 40  1  0
 40 43  1  0
 40 42  1  0
 41 39  2  0
 44 45  1  0
 44 19  1  0
 46 44  1  0
 48  4  1  0
 48 47  1  0
 49 48  1  0
 50 51  1  0
 50  7  1  0
 51 52  2  0
 53 54  1  0
 53 51  1  0
 55 66  2  0
 56 54  1  0
 56 61  1  0
 57 65  1  0
 57 67  1  0
 58 64  1  0
 58 60  1  0
 59 65  1  0
 60 59  1  0
 61 60  2  0
 62 56  2  0
 63 62  1  0
 63 58  2  0
 64 57  1  0
 65 55  1  0
 67 69  2  0
 68 67  1  0
 70 68  1  0
 71 80  2  0
 71 76  1  0
 72 68  1  0
 72 76  1  0
 73 72  1  0
 74 75  1  0
 74 73  1  0
 75 71  1  0
 76 77  2  0
 77 78  1  0
 79 78  2  0
 80 79  1  0
 81 55  1  0
 81 86  1  0
 81 82  1  0
 82 85  1  1
 82 83  1  0
 84 82  1  0
 86 89  1  0
 87 91  1  0
 87 86  1  0
 88 87  2  0
 91 90  1  0
 93 91  1  0
 93 94  1  0
 93 92  1  0
M  ISO  4   9 100  17 100  53 101  54 101
M  END
>  <TORSDO>  (28) 
F 20

>  <SCORE>  (28) 
-14.128

>  <name>  (28) 
27

>  <ligand_id>  (28) 
27

>  <original_smiles>  (28) 
[H]c1c(N([H])C(=O)N2C([H])([H])C([H])([H])C([H])([H])C([H])(n3nc(-c4c([H])c([H])c(Oc5c([H])c([H])c(F)c([H])c5F)c([H])c4[H])c(C(=O)N([H])[H])c3N([H])[H])C2([H])[H])nc(C([H])(F)C([H])([H])[H])nc1N([H])C([H])([H])C(=O)C([H])([H])Oc1c([H])c([H])c2c(c1[H])C([H])([H])N(C(=O)C([H])(N([H])C(=O)C([H])(N([H])C([H])([H])[H])C([H])([H])[H])C(C([H])([H])[H])(C([H])([H])[H])C([H])([H])[H])C([H])(C(=O)N([H])C1([H])c3c([H])c([H])c([H])c([H])c3C([H])([H])C([H])([H])C1([H])[H])C2([H])[H]

>  <smiles>  (28) 
[H]c1c(N([H])C(=O)N2C([H])([H])C([H])([H])C([H])([H])C([H])(n3nc(-c4c([H])c([H])c(Oc5c([H])c([H])c(F)c([H])c5F)c([H])c4[H])c(C(=O)N([H])[H])c3N([H])[H])C2([H])[H])nc(C([H])(F)C([H])([H])[H])nc1N([H])C([H])([H])C(=O)C([H])([H])Oc1c([H])c([H])c2c(c1[H])C([H])([H])N(C(=O)C([H])(N([H])C(=O)C([H])(N([H])C([H])([H])[H])C([H])([H])[H])C(C([H])([H])[H])(C([H])([H])[H])C([H])([H])[H])C([H])(C(=O)N([H])C1([H])c3c([H])c([H])c([H])c([H])c3C([H])([H])C([H])([H])C1([H])[H])C2([H])[H]

$$$$
28:0:0
     RDKit          3D

 98106  0  0  1  0  0  0  0  0999 V2000
  -29.6910  -20.9510   19.2920 C   0  0  0  0  0  0  0  0  0  0  0  0
  -29.8550  -22.0010   20.1080 N   0  0  0  0  0  0  0  0  0  0  0  0
  -29.4810  -21.0850   18.0850 O   0  0  0  0  0  0  0  0  0  0  0  0
  -30.0170  -21.8270   21.0890 H   0  0  0  0  0  0  0  0  0  0  0  0
  -30.9800  -19.0700   20.4380 C   0  0  0  0  0  3  0  0  0  0  0  0
  -31.0850  -17.7160   20.8500 C   0  0  0  0  0  3  0  0  0  0  0  0
  -29.7740  -19.5690   19.8850 C   0  0  0  0  0  0  0  0  0  0  0  0
  -29.9760  -16.8440   20.7260 C   0  0  0  0  0  0  0  0  0  0  0  0
  -28.6640  -18.7020   19.7960 C   0  0  0  0  0  0  0  0  0  0  0  0
  -28.7660  -17.3640   20.2250 C   0  0  0  0  0  0  0  0  0  0  0  0
  -27.4850  -19.1410   19.2860 F   0  0  0  0  0  0  0  0  0  0  0  0
  -27.6890  -16.5580   20.1280 F   0  0  0  0  0  0  0  0  0  0  0  0
  -30.6770  -14.4960   20.4850 C   0  0  0  0  0  0  0  0  0  0  0  0
  -30.3790  -12.3370   19.3230 C   0  0  0  0  0  2  0  0  0  0  0  0
  -29.4270  -12.5420   18.1250 C   0  0  0  0  0  2  0  0  0  0  0  0
  -27.9560  -12.3910   18.5610 C   0  0  0  0  0  2  0  0  0  0  0  0
  -27.6210  -13.2230   19.8280 C   0  0  0  0  0  3  0  0  0  0  0  0
  -28.6850  -13.0040   20.9300 C   0  0  0  0  0  2  0  0  0  0  0  0
  -30.0120  -13.3120   20.3630 N   0  0  0  0  0  0  0  0  0  0  0  0
  -31.7840  -14.6990   19.9780 O   0  0  0  0  0  0  0  0  0  0  0  0
  -30.0010  -15.4710   21.1200 N   0  0  0  0  0  0  0  0  0  0  0  0
  -29.1280  -15.1360   21.4990 H   0  0  0  0  0  0  0  0  0  0  0  0
  -25.2200  -13.8260   20.5480 C   0  0  0  0  0  0  0  0  0  0  0  0
  -24.1560  -13.0510   20.9180 C   0  0  0  0  0  0  0  0  0  0  0  0
  -24.6200  -11.7020   20.8820 C   0  0  0  0  0  0  0  0  0  0  0  0
  -26.2690  -12.9490   20.3120 N   0  0  0  0  0  0  0  0  0  0  0  0
  -25.9100  -11.6650   20.5690 N   0  0  0  0  0  0  0  0  0  0  0  0
  -23.8970  -10.4400   21.0710 C   0  0  0  0  0  0  0  0  0  0  0  0
  -24.3410   -9.4670   21.9930 C   0  0  0  0  0  3  0  0  0  0  0  0
  -23.6160   -8.2690   22.1720 C   0  0  0  0  0  3  0  0  0  0  0  0
  -22.4330   -8.0380   21.4300 C   0  0  0  0  0  0  0  0  0  0  0  0
  -22.0090   -9.0010   20.4970 C   0  0  0  0  0  3  0  0  0  0  0  0
  -22.7330  -10.1900   20.3170 C   0  0  0  0  0  3  0  0  0  0  0  0
  -21.6800   -6.8930   21.5180 O   0  0  0  0  0  0  0  0  0  0  0  0
  -21.6540   -6.1360   22.6620 C   0  0  0  0  0  0  0  0  0  0  0  0
  -21.2440   -6.6740   23.9020 C   0  0  0  0  0  3  0  0  0  0  0  0
  -21.1650   -5.8430   25.0380 C   0  0  0  0  0  3  0  0  0  0  0  0
  -21.4840   -4.4750   24.9340 C   0  0  0  0  0  0  0  0  0  0  0  0
  -21.8880   -3.9380   23.6990 C   0  0  0  0  0  3  0  0  0  0  0  0
  -21.9690   -4.7660   22.5650 C   0  0  0  0  0  0  0  0  0  0  0  0
  -22.3370   -4.2380   21.3730 F   0  0  0  0  0  0  0  0  0  0  0  0
  -21.4010   -3.6750   26.0220 F   0  0  0  0  0  0  0  0  0  0  0  0
  -22.7600  -13.5290   21.1990 C   0  0  0  0  0  0  0  0  0  0  0  0
  -22.0360  -12.8300   22.0660 N   0  0  0  0  0  0  0  0  0  0  0  0
  -22.3200  -14.5570   20.6870 O   0  0  0  0  0  0  0  0  0  0  0  0
  -22.4050  -11.9980   22.5020 H   0  0  0  0  0  0  0  0  0  0  0  0
  -21.1010  -13.1340   22.2970 H   0  0  0  0  0  0  0  0  0  0  0  0
  -25.3670  -15.1960   20.3790 N   0  0  0  0  0  0  0  0  0  0  0  0
  -24.6030  -15.8440   20.5250 H   0  0  0  0  0  0  0  0  0  0  0  0
  -26.2380  -15.6600   20.1410 H   0  0  0  0  0  0  0  0  0  0  0  0
  -30.0320  -23.4000   19.6600 C   0  0  0  0  0  3  0  0  0  0  0  0
  -31.4000  -23.8980   20.1610 C   0  0  0  0  0  0  0  0  0  0  0  0
  -32.0440  -25.0750   19.4370 C   0  0  0  0  0  1  0  0  0  0  0  0
  -32.0020  -23.3740   21.1040 O   0  0  0  0  0  0  0  0  0  0  0  0
  -28.8830  -24.3310   20.1330 C   0  0  0  0  0  0  0  0  0  0  0  0
  -28.1770  -24.0790   21.1190 O   0  0  0  0  0  0  0  0  0  0  0  0
  -28.6150  -25.6070   19.3000 C   0  0  0  0  0  2  0  0  0  0  0  0
  -28.3810  -26.7530   20.1380 O   0  0  0  0  0  0  0  0  0  0  0  0
  -24.5510  -31.8850   23.2320 C   0  0  0  0  0  0  0  0  0  0  0  0
  -27.1770  -27.4370   20.1180 C   0  0  0  0  0  0  0  0  0  0  0  0
  -23.3300  -30.4850   21.5960 C   0  0  0  0  0  3  0  0  0  0  0  0
  -24.7720  -28.9420   20.1620 C   0  0  0  0  0  0  0  0  0  0  0  0
  -25.8550  -30.8370   21.3820 C   0  0  0  0  0  2  0  0  0  0  0  0
  -25.9330  -29.4650   20.7420 C   0  0  0  0  0  0  0  0  0  0  0  0
  -27.1310  -28.7160   20.7220 C   0  0  0  0  0  3  0  0  0  0  0  0
  -25.9880  -26.9210   19.5490 C   0  0  0  0  0  3  0  0  0  0  0  0
  -24.7940  -27.6690   19.5680 C   0  0  0  0  0  3  0  0  0  0  0  0
  -23.5290  -29.8020   20.2150 C   0  0  0  0  0  2  0  0  0  0  0  0
  -24.5980  -31.0840   22.1280 N   0  0  0  0  0  0  0  0  0  0  0  0
  -23.4750  -32.1590   23.7790 O   0  0  0  0  0  0  0  0  0  0  0  0
  -22.6850  -29.4660   22.5630 C   0  0  0  0  0  0  0  0  0  0  0  0
  -21.3590  -29.2850   22.4440 N   0  0  0  0  0  0  0  0  0  0  0  0
  -23.3730  -28.8410   23.3740 O   0  0  0  0  0  0  0  0  0  0  0  0
  -20.8650  -29.8430   21.7610 H   0  0  0  0  0  0  0  0  0  0  0  0
  -17.9880  -28.0940   22.9590 C   0  0  0  0  0  0  0  0  0  0  0  0
  -20.5470  -28.3470   23.2180 C   0  0  0  0  0  3  0  0  0  0  0  0
  -20.6450  -26.9170   22.6400 C   0  0  0  0  0  2  0  0  0  0  0  0
  -19.5370  -26.5960   21.6320 C   0  0  0  0  0  2  0  0  0  0  0  0
  -18.1590  -26.7450   22.2820 C   0  0  0  0  0  2  0  0  0  0  0  0
  -19.1100  -28.8530   23.3840 C   0  0  0  0  0  0  0  0  0  0  0  0
  -18.8970  -30.1180   23.9750 C   0  0  0  0  0  3  0  0  0  0  0  0
  -17.5940  -30.6230   24.1460 C   0  0  0  0  0  3  0  0  0  0  0  0
  -16.4870  -29.8580   23.7400 C   0  0  0  0  0  3  0  0  0  0  0  0
  -16.6850  -28.5960   23.1530 C   0  0  0  0  0  3  0  0  0  0  0  0
  -25.8430  -32.5140   23.8410 C   0  0  0  0  0  3  0  0  0  0  0  0
  -25.5420  -33.9130   24.1710 N   0  0  0  0  0  0  0  0  0  0  0  0
  -25.8790  -34.9630   23.4100 C   0  0  0  0  0  0  0  0  0  0  0  0
  -26.5480  -34.8540   22.3780 O   0  0  0  0  0  0  0  0  0  0  0  0
  -24.9490  -34.0730   24.9730 H   0  0  0  0  0  0  0  0  0  0  0  0
  -24.1650  -36.7670   23.0430 C   0  0  0  0  0  1  0  0  0  0  0  0
  -25.3980  -36.3540   23.8630 C   0  0  0  0  0  3  0  0  0  0  0  0
  -27.5340  -37.2240   24.7070 C   0  0  0  0  0  1  0  0  0  0  0  0
  -26.4390  -37.4000   23.7580 N   0  0  0  0  0  0  0  0  0  0  0  0
  -26.0370  -38.3220   23.9050 H   0  0  0  0  0  0  0  0  0  0  0  0
  -26.3700  -31.7420   25.1140 C   0  0  1  0  0  0  0  0  0  0  0  0
  -25.2860  -31.5070   26.1930 C   0  0  0  0  0  1  0  0  0  0  0  0
  -26.9470  -30.3630   24.7170 C   0  0  0  0  0  1  0  0  0  0  0  0
  -27.5270  -32.5340   25.7670 C   0  0  0  0  0  1  0  0  0  0  0  0
  1  7  1  0
  1  2  1  0
  2  4  1  0
  3  1  2  0
  5  6  1  0
  7  5  2  0
  8  6  2  0
  8 21  1  0
  9  7  1  0
  9 10  2  0
 10  8  1  0
 11  9  1  0
 12 10  1  0
 13 21  1  0
 14 19  1  0
 15 16  1  0
 15 14  1  0
 17 16  1  0
 17 26  1  0
 17 18  1  0
 19 13  1  0
 19 18  1  0
 20 13  2  0
 21 22  1  0
 23 24  2  0
 24 43  1  0
 25 24  1  0
 25 28  1  0
 26 23  1  0
 26 27  1  0
 27 25  2  0
 28 29  1  0
 29 30  2  0
 31 34  1  0
 31 30  1  0
 32 31  2  0
 33 32  1  0
 33 28  2  0
 34 35  1  0
 35 36  1  0
 36 37  2  0
 38 37  1  0
 38 42  1  0
 39 38  2  0
 40 35  2  0
 40 39  1  0
 41 40  1  0
 43 44  1  0
 44 47  1  0
 44 46  1  0
 45 43  2  0
 48 49  1  0
 48 23  1  0
 50 48  1  0
 51  2  1  0
 51 55  1  0
 51 52  1  0
 52 54  2  0
 53 52  1  0
 55 56  2  0
 57 55  1  0
 57 58  1  0
 59 70  2  0
 60 58  1  0
 60 65  1  0
 61 69  1  0
 61 71  1  0
 62 68  1  0
 62 64  1  0
 63 69  1  0
 64 63  1  0
 65 64  2  0
 66 67  1  0
 66 60  2  0
 67 62  2  0
 68 61  1  0
 69 59  1  0
 71 73  2  0
 72 71  1  0
 74 72  1  0
 75 84  2  0
 75 80  1  0
 76 72  1  0
 76 80  1  0
 77 76  1  0
 78 79  1  0
 78 77  1  0
 79 75  1  0
 80 81  2  0
 81 82  1  0
 83 82  2  0
 84 83  1  0
 85 59  1  0
 85 86  1  0
 85 95  1  0
 86 89  1  0
 87 91  1  0
 87 86  1  0
 88 87  2  0
 91 90  1  0
 93 91  1  0
 93 94  1  0
 93 92  1  0
 95 98  1  1
 95 96  1  0
 97 95  1  0
M  ISO  4  13 100  21 100  57 101  58 101
M  END
>  <TORSDO>  (29) 
F 21

>  <SCORE>  (29) 
-13.788

>  <name>  (29) 
28

>  <ligand_id>  (29) 
28

>  <original_smiles>  (29) 
[H]c1c([H])c([H])c2c(c1[H])C([H])([H])C([H])([H])C([H])([H])C2([H])N([H])C(=O)C1([H])N(C(=O)C([H])(N([H])C(=O)C([H])(N([H])C([H])([H])[H])C([H])([H])[H])C(C([H])([H])[H])(C([H])([H])[H])C([H])([H])[H])C([H])([H])c2c([H])c(OC([H])([H])C(=O)C([H])(C(=O)C([H])([H])[H])N([H])C(=O)c3c([H])c([H])c(N([H])C(=O)N4C([H])([H])C([H])([H])C([H])([H])C([H])(n5nc(-c6c([H])c([H])c(Oc7c([H])c([H])c(F)c([H])c7F)c([H])c6[H])c(C(=O)N([H])[H])c5N([H])[H])C4([H])[H])c(F)c3F)c([H])c([H])c2C1([H])[H]

>  <smiles>  (29) 
[H]c1c([H])c([H])c2c(c1[H])C([H])([H])C([H])([H])C([H])([H])C2([H])N([H])C(=O)C1([H])N(C(=O)C([H])(N([H])C(=O)C([H])(N([H])C([H])([H])[H])C([H])([H])[H])C(C([H])([H])[H])(C([H])([H])[H])C([H])([H])[H])C([H])([H])c2c([H])c(OC([H])([H])C(=O)C([H])(C(=O)C([H])([H])[H])N([H])C(=O)c3c([H])c([H])c(N([H])C(=O)N4C([H])([H])C([H])([H])C([H])([H])C([H])(n5nc(-c6c([H])c([H])c(Oc7c([H])c([H])c(F)c([H])c7F)c([H])c6[H])c(C(=O)N([H])[H])c5N([H])[H])C4([H])[H])c(F)c3F)c([H])c([H])c2C1([H])[H]

$$$$
29:0:0
     RDKit          3D

101109  0  0  1  0  0  0  0  0999 V2000
  -31.9170  -18.1580   21.4680 C   0  0  0  0  0  3  0  0  0  0  0  0
  -30.7960  -20.3010   21.0770 C   0  0  0  0  0  3  0  0  0  0  0  0
  -31.4750  -18.9180   19.2020 C   0  0  0  0  0  3  0  0  0  0  0  0
  -31.3080  -19.3280   21.9630 C   0  0  0  0  0  0  0  0  0  0  0  0
  -32.0270  -17.9320   20.0840 C   0  0  0  0  0  0  0  0  0  0  0  0
  -30.8940  -20.1320   19.6750 C   0  0  0  0  0  0  0  0  0  0  0  0
  -30.0660  -22.4280   18.9280 C   0  0  0  0  0  0  0  0  0  0  0  0
  -30.4160  -21.1210   18.7260 N   0  0  0  0  0  0  0  0  0  0  0  0
  -30.1970  -22.9740   20.0230 O   0  0  0  0  0  0  0  0  0  0  0  0
  -30.4210  -20.8170   17.7660 H   0  0  0  0  0  0  0  0  0  0  0  0
  -29.3000  -24.4900   17.8140 C   0  0  0  0  0  3  0  0  0  0  0  0
  -29.5460  -23.1490   17.7400 C   0  0  0  0  0  0  0  0  0  0  0  0
  -29.2870  -22.4780   16.6070 O   0  0  0  0  0  0  0  0  0  0  0  0
  -29.2690  -21.5550   16.8190 H   0  0  0  0  0  0  0  0  0  0  0  0
  -28.8160  -25.2980   16.7890 O   0  0  0  0  0  0  0  0  0  0  0  0
  -24.6150  -28.8250   21.4030 C   0  0  0  0  0  0  0  0  0  0  0  0
  -27.6250  -25.9530   17.0410 C   0  0  0  0  0  0  0  0  0  0  0  0
  -23.5290  -27.9760   19.3510 C   0  0  0  0  0  3  0  0  0  0  0  0
  -25.1070  -27.1760   17.5090 C   0  0  0  0  0  0  0  0  0  0  0  0
  -26.0120  -28.6060   19.3480 C   0  0  0  0  0  2  0  0  0  0  0  0
  -26.2220  -27.5600   18.2670 C   0  0  0  0  0  0  0  0  0  0  0  0
  -27.4880  -26.9620   18.0290 C   0  0  0  0  0  3  0  0  0  0  0  0
  -26.4920  -25.5960   16.2820 C   0  0  0  0  0  3  0  0  0  0  0  0
  -25.2400  -26.1960   16.5110 C   0  0  0  0  0  3  0  0  0  0  0  0
  -23.7850  -27.8420   17.8260 C   0  0  0  0  0  2  0  0  0  0  0  0
  -24.7350  -28.4650   20.0930 N   0  0  0  0  0  0  0  0  0  0  0  0
  -23.5180  -28.7920   21.9790 O   0  0  0  0  0  0  0  0  0  0  0  0
  -22.9880  -26.6280   19.8820 C   0  0  0  0  0  0  0  0  0  0  0  0
  -21.8260  -26.2010   19.3580 N   0  0  0  0  0  0  0  0  0  0  0  0
  -23.6210  -25.9830   20.7200 O   0  0  0  0  0  0  0  0  0  0  0  0
  -21.3670  -26.7870   18.6770 H   0  0  0  0  0  0  0  0  0  0  0  0
  -19.0660  -24.0620   18.4380 C   0  0  0  0  0  0  0  0  0  0  0  0
  -21.1500  -24.9470   19.6840 C   0  0  0  0  0  3  0  0  0  0  0  0
  -21.9000  -23.7390   19.0760 C   0  0  0  0  0  2  0  0  0  0  0  0
  -21.3720  -23.3350   17.6950 C   0  0  0  0  0  2  0  0  0  0  0  0
  -19.8870  -22.9700   17.7730 C   0  0  0  0  0  2  0  0  0  0  0  0
  -19.6620  -25.0000   19.3220 C   0  0  0  0  0  0  0  0  0  0  0  0
  -18.8610  -26.0170   19.8850 C   0  0  0  0  0  3  0  0  0  0  0  0
  -17.4880  -26.1020   19.5840 C   0  0  0  0  0  3  0  0  0  0  0  0
  -16.8990  -25.1600   18.7220 C   0  0  0  0  0  3  0  0  0  0  0  0
  -17.6860  -24.1430   18.1530 C   0  0  0  0  0  3  0  0  0  0  0  0
  -25.8420  -29.3200   22.2280 C   0  0  0  0  0  3  0  0  0  0  0  0
  -25.3990  -30.4680   23.0310 N   0  0  0  0  0  0  0  0  0  0  0  0
  -25.7490  -31.7390   22.7950 C   0  0  0  0  0  0  0  0  0  0  0  0
  -26.5430  -32.0620   21.9070 O   0  0  0  0  0  0  0  0  0  0  0  0
  -24.7000  -30.2880   23.7360 H   0  0  0  0  0  0  0  0  0  0  0  0
  -23.9870  -33.5310   22.9130 C   0  0  0  0  0  1  0  0  0  0  0  0
  -25.1140  -32.8260   23.6830 C   0  0  0  0  0  3  0  0  0  0  0  0
  -27.0210  -33.2950   25.1560 C   0  0  0  0  0  1  0  0  0  0  0  0
  -26.0860  -33.8300   24.1690 N   0  0  0  0  0  0  0  0  0  0  0  0
  -25.6050  -34.6240   24.5860 H   0  0  0  0  0  0  0  0  0  0  0  0
  -26.4610  -28.1990   23.1500 C   0  0  1  0  0  0  0  0  0  0  0  0
  -25.4200  -27.4940   24.0490 C   0  0  0  0  0  1  0  0  0  0  0  0
  -27.1690  -27.1150   22.3020 C   0  0  0  0  0  1  0  0  0  0  0  0
  -27.5470  -28.8140   24.0650 C   0  0  0  0  0  1  0  0  0  0  0  0
  -31.2520  -19.5630   23.4600 C   0  0  0  0  0  2  0  0  0  0  0  0
  -32.5330  -20.1040   23.9340 N   0  0  0  0  0  4  0  0  0  0  0  0
  -33.2460  -19.4030   23.8570 H   0  0  0  0  0  0  0  0  0  0  0  0
  -32.4560  -20.3810   24.8940 H   0  0  0  0  0  0  0  0  0  0  0  0
  -32.8030  -20.9030   23.3920 H   0  0  0  0  0  0  0  0  0  0  0  0
  -32.8480  -16.6920   19.6270 C   0  0  0  0  0  0  0  0  0  0  0  0
  -32.5620  -14.1300   19.4510 C   0  0  0  0  0  0  0  0  0  0  0  0
  -31.8720  -11.8240   18.8880 C   0  0  0  0  0  2  0  0  0  0  0  0
  -30.8600  -11.8570   17.7290 C   0  0  0  0  0  2  0  0  0  0  0  0
  -29.4300  -11.9900   18.2830 C   0  0  0  0  0  2  0  0  0  0  0  0
  -29.2960  -13.1350   19.3250 C   0  0  0  0  0  3  0  0  0  0  0  0
  -30.4340  -13.0970   20.3710 C   0  0  0  0  0  2  0  0  0  0  0  0
  -31.7090  -13.0830   19.6420 N   0  0  0  0  0  0  0  0  0  0  0  0
  -33.6800  -13.9330   18.9820 O   0  0  0  0  0  0  0  0  0  0  0  0
  -32.0950  -15.3920   19.6490 N   0  0  0  0  0  4  0  0  0  0  0  0
  -31.1440  -15.4520   19.9840 H   0  0  0  0  0  0  0  0  0  0  0  0
  -27.2380  -14.2010   20.4260 C   0  0  0  0  0  0  0  0  0  0  0  0
  -26.0480  -13.6740   20.8500 C   0  0  0  0  0  0  0  0  0  0  0  0
  -26.1280  -12.2680   20.6070 C   0  0  0  0  0  0  0  0  0  0  0  0
  -27.9800  -13.1310   19.9560 N   0  0  0  0  0  0  0  0  0  0  0  0
  -27.3230  -11.9520   20.1210 N   0  0  0  0  0  0  0  0  0  0  0  0
  -25.1150  -11.2140   20.7520 C   0  0  0  0  0  0  0  0  0  0  0  0
  -25.3170  -10.1070   21.6050 C   0  0  0  0  0  3  0  0  0  0  0  0
  -24.3210   -9.1180   21.7420 C   0  0  0  0  0  3  0  0  0  0  0  0
  -23.1040   -9.2290   21.0280 C   0  0  0  0  0  0  0  0  0  0  0  0
  -22.9160  -10.3230   20.1630 C   0  0  0  0  0  3  0  0  0  0  0  0
  -23.9120  -11.3040   20.0230 C   0  0  0  0  0  3  0  0  0  0  0  0
  -22.0910   -8.3040   21.0800 O   0  0  0  0  0  0  0  0  0  0  0  0
  -21.8800   -7.5310   22.1930 C   0  0  0  0  0  0  0  0  0  0  0  0
  -21.5030   -8.0940   23.4330 C   0  0  0  0  0  3  0  0  0  0  0  0
  -21.2260   -7.2550   24.5310 C   0  0  0  0  0  3  0  0  0  0  0  0
  -21.3170   -5.8580   24.3930 C   0  0  0  0  0  0  0  0  0  0  0  0
  -21.6900   -5.2950   23.1600 C   0  0  0  0  0  3  0  0  0  0  0  0
  -21.9660   -6.1290   22.0620 C   0  0  0  0  0  0  0  0  0  0  0  0
  -22.3020   -5.5810   20.8710 F   0  0  0  0  0  0  0  0  0  0  0  0
  -21.0430   -5.0540   25.4460 F   0  0  0  0  0  0  0  0  0  0  0  0
  -24.8640  -14.4410   21.3620 C   0  0  0  0  0  0  0  0  0  0  0  0
  -24.0840  -13.8410   22.2540 N   0  0  0  0  0  0  0  0  0  0  0  0
  -24.6530  -15.6000   21.0060 O   0  0  0  0  0  0  0  0  0  0  0  0
  -24.2670  -12.8990   22.5620 H   0  0  0  0  0  0  0  0  0  0  0  0
  -23.2900  -14.3360   22.6360 H   0  0  0  0  0  0  0  0  0  0  0  0
  -27.7400  -15.4980   20.3820 N   0  0  0  0  0  0  0  0  0  0  0  0
  -27.1750  -16.2960   20.6500 H   0  0  0  0  0  0  0  0  0  0  0  0
  -28.6330  -15.7550   19.9810 H   0  0  0  0  0  0  0  0  0  0  0  0
  -34.9120  -17.9520   18.7170 C   0  0  0  0  0  1  0  0  0  0  0  0
  -33.7560  -16.9880   18.3900 C   0  0  0  0  0  2  0  0  0  0  0  0
  1  4  1  0
  2  4  2  0
  3  6  2  0
  3  5  1  0
  4 56  1  0
  5  1  2  0
  6  2  1  0
  7  9  2  0
  8  7  1  0
  8  6  1  0
 10  8  1  0
 12 11  2  0
 12  7  1  0
 13 14  1  0
 13 12  1  0
 15 17  1  0
 15 11  1  0
 16 27  2  0
 17 22  1  0
 18 28  1  0
 18 26  1  0
 19 25  1  0
 19 21  1  0
 20 26  1  0
 21 20  1  0
 22 21  2  0
 23 24  1  0
 23 17  2  0
 24 19  2  0
 25 18  1  0
 26 16  1  0
 28 30  2  0
 29 28  1  0
 31 29  1  0
 32 37  1  0
 33 29  1  0
 34 33  1  0
 35 36  1  0
 35 34  1  0
 36 32  1  0
 37 33  1  0
 37 38  2  0
 39 38  1  0
 40 39  2  0
 41 32  2  0
 41 40  1  0
 42 16  1  0
 42 43  1  0
 42 52  1  0
 43 46  1  0
 44 43  1  0
 44 48  1  0
 45 44  2  0
 48 47  1  0
 48 50  1  0
 50 51  1  0
 50 49  1  0
 52 53  1  1
 52 55  1  0
 54 52  1  0
 56 57  1  0
 57 59  1  0
 58 57  1  0
 60 57  1  0
 61 70  2  0
 61  5  1  0
 62 68  1  0
 62 70  1  0
 63 68  1  0
 64 65  1  0
 64 63  1  0
 66 65  1  0
 66 75  1  0
 66 67  1  0
 68 67  1  0
 69 62  2  0
 70 71  1  0
 72 73  2  0
 73 92  1  0
 74 77  1  0
 74 73  1  0
 75 76  1  0
 75 72  1  0
 76 74  2  0
 77 78  1  0
 78 79  2  0
 80 83  1  0
 80 79  1  0
 81 80  2  0
 82 81  1  0
 82 77  2  0
 83 84  1  0
 84 85  1  0
 85 86  2  0
 87 86  1  0
 87 91  1  0
 88 87  2  0
 89 84  2  0
 89 88  1  0
 90 89  1  0
 92 93  1  0
 93 95  1  0
 93 96  1  0
 94 92  2  0
 97 72  1  0
 97 98  1  0
 99 97  1  0
101100  1  0
101 61  1  0
M  ISO  4  11 101  15 101  62 100  70 100
M  END
>  <TORSDO>  (30) 
F 23

>  <SCORE>  (30) 
-7.696

>  <name>  (30) 
29

>  <ligand_id>  (30) 
29

>  <original_smiles>  (30) 
[H]OC(C(=O)N([H])c1c([H])c(C([H])(N([H])C(=O)N2C([H])([H])C([H])([H])C([H])([H])C([H])(n3nc(-c4c([H])c([H])c(Oc5c([H])c([H])c(F)c([H])c5F)c([H])c4[H])c(C(=O)N([H])[H])c3N([H])[H])C2([H])[H])C([H])([H])C([H])([H])[H])c([H])c(C([H])([H])[N+]([H])([H])[H])c1[H])=C([H])Oc1c([H])c([H])c2c(c1[H])C([H])([H])N(C(=O)C([H])(N([H])C(=O)C([H])(N([H])C([H])([H])[H])C([H])([H])[H])C(C([H])([H])[H])(C([H])([H])[H])C([H])([H])[H])C([H])(C(=O)N([H])C1([H])c3c([H])c([H])c([H])c([H])c3C([H])([H])C([H])([H])C1([H])[H])C2([H])[H]

>  <smiles>  (30) 
[H]OC(C(=O)N([H])c1c([H])c(C([H])(N([H])C(=O)N2C([H])([H])C([H])([H])C([H])([H])C([H])(n3nc(-c4c([H])c([H])c(Oc5c([H])c([H])c(F)c([H])c5F)c([H])c4[H])c(C(=O)N([H])[H])c3N([H])[H])C2([H])[H])C([H])([H])C([H])([H])[H])c([H])c(C([H])([H])[N+]([H])([H])[H])c1[H])=C([H])Oc1c([H])c([H])c2c(c1[H])C([H])([H])N(C(=O)C([H])(N([H])C(=O)C([H])(N([H])C([H])([H])[H])C([H])([H])[H])C(C([H])([H])[H])(C([H])([H])[H])C([H])([H])[H])C([H])(C(=O)N([H])C1([H])c3c([H])c([H])c([H])c([H])c3C([H])([H])C([H])([H])C1([H])[H])C2([H])[H]

$$$$
30:0:0
     RDKit          3D

 98106  0  0  1  0  0  0  0  0999 V2000
  -30.2700  -18.6150   17.9030 C   0  0  0  0  0  3  0  0  0  0  0  0
  -29.6210  -18.7560   20.5830 C   0  0  0  0  0  3  0  0  0  0  0  0
  -30.0340  -19.8970   18.4550 C   0  0  0  0  0  0  0  0  0  0  0  0
  -29.6210  -20.0230   19.8260 C   0  0  0  0  0  0  0  0  0  0  0  0
  -29.9620  -17.4350   20.0320 C   0  0  0  0  0  0  0  0  0  0  0  0
  -30.2380  -17.4260   18.6470 C   0  0  0  0  0  0  0  0  0  0  0  0
  -30.4400  -16.2600   17.9890 F   0  0  0  0  0  0  0  0  0  0  0  0
  -30.7200  -14.9670   20.5600 C   0  0  0  0  0  0  0  0  0  0  0  0
  -30.6250  -12.6410   19.6530 C   0  0  0  0  0  2  0  0  0  0  0  0
  -29.7360  -12.6600   18.3890 C   0  0  0  0  0  2  0  0  0  0  0  0
  -28.2570  -12.4540   18.7700 C   0  0  0  0  0  2  0  0  0  0  0  0
  -27.8160  -13.3610   19.9490 C   0  0  0  0  0  3  0  0  0  0  0  0
  -28.8320  -13.3400   21.1100 C   0  0  0  0  0  2  0  0  0  0  0  0
  -30.1380  -13.7150   20.5530 N   0  0  0  0  0  0  0  0  0  0  0  0
  -31.9200  -15.0670   20.2780 O   0  0  0  0  0  0  0  0  0  0  0  0
  -29.9190  -16.1030   20.7310 N   0  0  0  0  0  0  0  0  0  0  0  0
  -29.0380  -15.9090   21.1800 H   0  0  0  0  0  0  0  0  0  0  0  0
  -25.4070  -13.9160   20.6230 C   0  0  0  0  0  0  0  0  0  0  0  0
  -24.3400  -13.1280   20.9590 C   0  0  0  0  0  0  0  0  0  0  0  0
  -24.8190  -11.7820   20.9290 C   0  0  0  0  0  0  0  0  0  0  0  0
  -26.4650  -13.0500   20.4020 N   0  0  0  0  0  0  0  0  0  0  0  0
  -26.1170  -11.7600   20.6510 N   0  0  0  0  0  0  0  0  0  0  0  0
  -24.0990  -10.5120   21.0920 C   0  0  0  0  0  0  0  0  0  0  0  0
  -24.4880   -9.5610   22.0610 C   0  0  0  0  0  3  0  0  0  0  0  0
  -23.7710   -8.3550   22.2070 C   0  0  0  0  0  3  0  0  0  0  0  0
  -22.6480   -8.0920   21.3850 C   0  0  0  0  0  0  0  0  0  0  0  0
  -22.2780   -9.0320   20.4080 C   0  0  0  0  0  3  0  0  0  0  0  0
  -22.9980  -10.2290   20.2590 C   0  0  0  0  0  3  0  0  0  0  0  0
  -21.9040   -6.9370   21.4390 O   0  0  0  0  0  0  0  0  0  0  0  0
  -21.7630   -6.2260   22.6060 C   0  0  0  0  0  0  0  0  0  0  0  0
  -21.1580   -6.7870   23.7510 C   0  0  0  0  0  3  0  0  0  0  0  0
  -20.9720   -5.9980   24.9050 C   0  0  0  0  0  3  0  0  0  0  0  0
  -21.3780   -4.6510   24.9120 C   0  0  0  0  0  0  0  0  0  0  0  0
  -21.9750   -4.0900   23.7680 C   0  0  0  0  0  3  0  0  0  0  0  0
  -22.1650   -4.8750   22.6180 C   0  0  0  0  0  0  0  0  0  0  0  0
  -22.7230   -4.3240   21.5130 F   0  0  0  0  0  0  0  0  0  0  0  0
  -21.1920   -3.8920   26.0160 F   0  0  0  0  0  0  0  0  0  0  0  0
  -22.9310  -13.5900   21.1960 C   0  0  0  0  0  0  0  0  0  0  0  0
  -22.1790  -12.8740   22.0250 N   0  0  0  0  0  0  0  0  0  0  0  0
  -22.5030  -14.6230   20.6820 O   0  0  0  0  0  0  0  0  0  0  0  0
  -22.5360  -12.0400   22.4700 H   0  0  0  0  0  0  0  0  0  0  0  0
  -21.2320  -13.1650   22.2190 H   0  0  0  0  0  0  0  0  0  0  0  0
  -25.5610  -15.2900   20.4620 N   0  0  0  0  0  0  0  0  0  0  0  0
  -24.7810  -15.9330   20.5600 H   0  0  0  0  0  0  0  0  0  0  0  0
  -26.4080  -15.7420   20.1440 H   0  0  0  0  0  0  0  0  0  0  0  0
  -30.2910  -21.0730   17.4950 C   0  0  1  0  0  0  0  0  0  0  0  0
  -31.1620  -20.7180   16.5470 F   0  0  0  0  0  0  0  0  0  0  0  0
  -29.1690  -21.4220   16.8680 F   0  0  0  0  0  0  0  0  0  0  0  0
  -30.8310  -22.1390   18.0870 F   0  0  0  0  0  0  0  0  0  0  0  0
  -28.4910  -22.4170   20.0140 C   0  0  0  0  0  0  0  0  0  0  0  0
  -29.3400  -21.3830   20.4240 N   0  0  0  0  0  0  0  0  0  0  0  0
  -27.5480  -22.1440   19.2700 O   0  0  0  0  0  0  0  0  0  0  0  0
  -29.9290  -21.6440   21.2030 H   0  0  0  0  0  0  0  0  0  0  0  0
  -28.1030  -24.9690   19.9610 C   0  0  0  0  0  3  0  0  0  0  0  0
  -28.7160  -23.8410   20.5200 C   0  0  0  0  0  0  0  0  0  0  0  0
  -29.5610  -24.0140   21.5450 O   0  0  0  0  0  0  0  0  0  0  0  0
  -29.6210  -24.9480   21.6980 H   0  0  0  0  0  0  0  0  0  0  0  0
  -28.2410  -26.3720   20.2870 O   0  0  0  0  0  0  0  0  0  0  0  0
  -24.5520  -31.9320   23.2690 C   0  0  0  0  0  0  0  0  0  0  0  0
  -27.1630  -27.3040   20.2090 C   0  0  0  0  0  0  0  0  0  0  0  0
  -23.3590  -30.5350   21.6250 C   0  0  0  0  0  3  0  0  0  0  0  0
  -24.8160  -28.9880   20.1950 C   0  0  0  0  0  0  0  0  0  0  0  0
  -25.9060  -30.8360   21.4570 C   0  0  0  0  0  2  0  0  0  0  0  0
  -25.9890  -29.4510   20.8040 C   0  0  0  0  0  0  0  0  0  0  0  0
  -27.1620  -28.6200   20.8040 C   0  0  0  0  0  3  0  0  0  0  0  0
  -25.9610  -26.9270   19.5680 C   0  0  0  0  0  3  0  0  0  0  0  0
  -24.8100  -27.7350   19.5690 C   0  0  0  0  0  3  0  0  0  0  0  0
  -23.5820  -29.8680   20.2430 C   0  0  0  0  0  2  0  0  0  0  0  0
  -24.6250  -31.1210   22.1720 N   0  0  0  0  0  0  0  0  0  0  0  0
  -23.4640  -32.2060   23.7990 O   0  0  0  0  0  0  0  0  0  0  0  0
  -22.6940  -29.5140   22.5810 C   0  0  0  0  0  0  0  0  0  0  0  0
  -21.3730  -29.3070   22.4320 N   0  0  0  0  0  0  0  0  0  0  0  0
  -23.3690  -28.9090   23.4180 O   0  0  0  0  0  0  0  0  0  0  0  0
  -20.8850  -29.8470   21.7310 H   0  0  0  0  0  0  0  0  0  0  0  0
  -18.0160  -28.0340   22.8790 C   0  0  0  0  0  0  0  0  0  0  0  0
  -20.5610  -28.3610   23.2000 C   0  0  0  0  0  3  0  0  0  0  0  0
  -20.7100  -26.9240   22.6470 C   0  0  0  0  0  2  0  0  0  0  0  0
  -19.6390  -26.5610   21.6130 C   0  0  0  0  0  2  0  0  0  0  0  0
  -18.2400  -26.6800   22.2240 C   0  0  0  0  0  2  0  0  0  0  0  0
  -19.1050  -28.8280   23.3220 C   0  0  0  0  0  0  0  0  0  0  0  0
  -18.8430  -30.0920   23.8950 C   0  0  0  0  0  3  0  0  0  0  0  0
  -17.5230  -30.5620   24.0260 C   0  0  0  0  0  3  0  0  0  0  0  0
  -16.4470  -29.7650   23.5990 C   0  0  0  0  0  3  0  0  0  0  0  0
  -16.6940  -28.5030   23.0310 C   0  0  0  0  0  3  0  0  0  0  0  0
  -25.8280  -32.5710   23.8950 C   0  0  0  0  0  3  0  0  0  0  0  0
  -26.3220  -31.8260   25.1960 C   0  0  1  0  0  0  0  0  0  0  0  0
  -25.2120  -31.6120   26.2500 C   0  0  0  0  0  1  0  0  0  0  0  0
  -26.9090  -30.4380   24.8460 C   0  0  0  0  0  1  0  0  0  0  0  0
  -27.4640  -32.6310   25.8600 C   0  0  0  0  0  1  0  0  0  0  0  0
  -25.5190  -33.9780   24.1940 N   0  0  0  0  0  0  0  0  0  0  0  0
  -25.8740  -35.0170   23.4270 C   0  0  0  0  0  0  0  0  0  0  0  0
  -26.5660  -34.8930   22.4120 O   0  0  0  0  0  0  0  0  0  0  0  0
  -24.9020  -34.1480   24.9740 H   0  0  0  0  0  0  0  0  0  0  0  0
  -24.1930  -36.8370   22.9820 C   0  0  0  0  0  1  0  0  0  0  0  0
  -25.3860  -36.4160   23.8530 C   0  0  0  0  0  3  0  0  0  0  0  0
  -27.4840  -37.2860   24.7900 C   0  0  0  0  0  1  0  0  0  0  0  0
  -26.4390  -37.4530   23.7830 N   0  0  0  0  0  0  0  0  0  0  0  0
  -26.0370  -38.3800   23.8920 H   0  0  0  0  0  0  0  0  0  0  0  0
  1  3  2  0
  1  6  1  0
  3  4  1  0
  4 51  1  0
  4  2  2  0
  5  2  1  0
  5 16  1  0
  6  5  2  0
  7  6  1  0
  8 16  1  0
  9 14  1  0
 10 11  1  0
 10  9  1  0
 12 11  1  0
 12 21  1  0
 12 13  1  0
 14  8  1  0
 14 13  1  0
 15  8  2  0
 16 17  1  0
 18 19  2  0
 19 38  1  0
 20 19  1  0
 20 23  1  0
 21 18  1  0
 21 22  1  0
 22 20  2  0
 23 24  1  0
 24 25  2  0
 26 29  1  0
 26 25  1  0
 27 26  2  0
 28 27  1  0
 28 23  2  0
 29 30  1  0
 30 35  2  0
 30 31  1  0
 31 32  2  0
 32 33  1  0
 33 37  1  0
 34 33  2  0
 35 34  1  0
 36 35  1  0
 38 39  1  0
 39 42  1  0
 39 41  1  0
 40 38  2  0
 43 44  1  0
 43 18  1  0
 45 43  1  0
 46 49  1  1
 46  3  1  0
 47 46  1  0
 48 46  1  0
 50 51  1  0
 50 55  1  0
 51 53  1  0
 52 50  2  0
 54 58  1  0
 54 55  2  0
 55 56  1  0
 56 57  1  0
 59 70  2  0
 60 58  1  0
 60 65  1  0
 61 69  1  0
 61 71  1  0
 62 68  1  0
 62 64  1  0
 63 69  1  0
 64 63  1  0
 65 64  2  0
 66 67  1  0
 66 60  2  0
 67 62  2  0
 68 61  1  0
 69 59  1  0
 71 73  2  0
 72 71  1  0
 74 72  1  0
 75 84  2  0
 75 80  1  0
 76 72  1  0
 76 80  1  0
 77 76  1  0
 78 79  1  0
 78 77  1  0
 79 75  1  0
 80 81  2  0
 81 82  1  0
 83 82  2  0
 84 83  1  0
 85 59  1  0
 85 90  1  0
 85 86  1  0
 86 89  1  1
 86 87  1  0
 88 86  1  0
 90 93  1  0
 91 95  1  0
 91 90  1  0
 92 91  2  0
 95 94  1  0
 97 95  1  0
 97 98  1  0
 97 96  1  0
M  ISO  4   8 100  16 100  54 101  58 101
M  END
>  <TORSDO>  (31) 
F 20

>  <SCORE>  (31) 
-13.953

>  <name>  (31) 
30

>  <ligand_id>  (31) 
30

>  <original_smiles>  (31) 
[H]OC(C(=O)N([H])c1c([H])c(N([H])C(=O)N2C([H])([H])C([H])([H])C([H])([H])C([H])(n3nc(-c4c([H])c([H])c(Oc5c([H])c([H])c(F)c([H])c5F)c([H])c4[H])c(C(=O)N([H])[H])c3N([H])[H])C2([H])[H])c(F)c([H])c1C(F)(F)F)=C([H])Oc1c([H])c([H])c2c(c1[H])C([H])([H])N(C(=O)C([H])(N([H])C(=O)C([H])(N([H])C([H])([H])[H])C([H])([H])[H])C(C([H])([H])[H])(C([H])([H])[H])C([H])([H])[H])C([H])(C(=O)N([H])C1([H])c3c([H])c([H])c([H])c([H])c3C([H])([H])C([H])([H])C1([H])[H])C2([H])[H]

>  <smiles>  (31) 
[H]OC(C(=O)N([H])c1c([H])c(N([H])C(=O)N2C([H])([H])C([H])([H])C([H])([H])C([H])(n3nc(-c4c([H])c([H])c(Oc5c([H])c([H])c(F)c([H])c5F)c([H])c4[H])c(C(=O)N([H])[H])c3N([H])[H])C2([H])[H])c(F)c([H])c1C(F)(F)F)=C([H])Oc1c([H])c([H])c2c(c1[H])C([H])([H])N(C(=O)C([H])(N([H])C(=O)C([H])(N([H])C([H])([H])[H])C([H])([H])[H])C(C([H])([H])[H])(C([H])([H])[H])C([H])([H])[H])C([H])(C(=O)N([H])C1([H])c3c([H])c([H])c([H])c([H])c3C([H])([H])C([H])([H])C1([H])[H])C2([H])[H]

$$$$
31:0:0
     RDKit          3D

 99107  0  0  1  0  0  0  0  0999 V2000
  -28.9650  -20.6300   20.7190 C   0  0  0  0  0  0  0  0  0  0  0  0
  -29.4030  -21.8790   20.4750 N   0  0  0  0  0  0  0  0  0  0  0  0
  -28.1020  -20.4010   21.5690 O   0  0  0  0  0  0  0  0  0  0  0  0
  -30.0810  -21.9980   19.7330 H   0  0  0  0  0  0  0  0  0  0  0  0
  -29.5640  -18.1550   20.4820 C   0  0  0  0  0  3  0  0  0  0  0  0
  -30.7110  -17.3040   18.5150 C   0  0  0  0  0  3  0  0  0  0  0  0
  -29.6040  -19.4830   19.9560 C   0  0  0  0  0  0  0  0  0  0  0  0
  -30.1240  -17.0520   19.7810 C   0  0  0  0  0  0  0  0  0  0  0  0
  -30.7550  -18.6030   17.9820 C   0  0  0  0  0  0  0  0  0  0  0  0
  -30.2060  -19.6870   18.6890 C   0  0  0  0  0  0  0  0  0  0  0  0
  -31.3200  -18.8090   16.7690 F   0  0  0  0  0  0  0  0  0  0  0  0
  -30.2630  -20.9170   18.1220 F   0  0  0  0  0  0  0  0  0  0  0  0
  -30.7600  -14.6340   19.9650 C   0  0  0  0  0  0  0  0  0  0  0  0
  -30.4230  -12.4310   18.9310 C   0  0  0  0  0  2  0  0  0  0  0  0
  -29.4180  -12.6110   17.7730 C   0  0  0  0  0  2  0  0  0  0  0  0
  -27.9710  -12.4730   18.2860 C   0  0  0  0  0  2  0  0  0  0  0  0
  -27.6970  -13.3300   19.5510 C   0  0  0  0  0  3  0  0  0  0  0  0
  -28.8160  -13.1540   20.6030 C   0  0  0  0  0  2  0  0  0  0  0  0
  -30.1020  -13.4430   19.9510 N   0  0  0  0  0  0  0  0  0  0  0  0
  -31.9050  -14.7560   19.5210 O   0  0  0  0  0  0  0  0  0  0  0  0
  -30.0230  -15.7160   20.3170 N   0  0  0  0  0  0  0  0  0  0  0  0
  -29.1900  -15.5130   20.8480 H   0  0  0  0  0  0  0  0  0  0  0  0
  -25.3580  -13.9310   20.4330 C   0  0  0  0  0  0  0  0  0  0  0  0
  -24.3100  -13.1560   20.8520 C   0  0  0  0  0  0  0  0  0  0  0  0
  -24.7570  -11.8030   20.7570 C   0  0  0  0  0  0  0  0  0  0  0  0
  -26.3780  -13.0500   20.1120 N   0  0  0  0  0  0  0  0  0  0  0  0
  -26.0240  -11.7640   20.3640 N   0  0  0  0  0  0  0  0  0  0  0  0
  -24.0350  -10.5420   20.9620 C   0  0  0  0  0  0  0  0  0  0  0  0
  -24.4850   -9.5730   21.8870 C   0  0  0  0  0  3  0  0  0  0  0  0
  -23.7630   -8.3750   22.0790 C   0  0  0  0  0  3  0  0  0  0  0  0
  -22.5750   -8.1380   21.3460 C   0  0  0  0  0  0  0  0  0  0  0  0
  -22.1440   -9.0950   20.4110 C   0  0  0  0  0  3  0  0  0  0  0  0
  -22.8670  -10.2840   20.2170 C   0  0  0  0  0  3  0  0  0  0  0  0
  -21.8230   -6.9930   21.4480 O   0  0  0  0  0  0  0  0  0  0  0  0
  -21.7700   -6.2680   22.6110 C   0  0  0  0  0  0  0  0  0  0  0  0
  -21.2780   -6.8210   23.8130 C   0  0  0  0  0  3  0  0  0  0  0  0
  -21.1770   -6.0190   24.9680 C   0  0  0  0  0  3  0  0  0  0  0  0
  -21.5570   -4.6650   24.9210 C   0  0  0  0  0  0  0  0  0  0  0  0
  -22.0430   -4.1110   23.7230 C   0  0  0  0  0  3  0  0  0  0  0  0
  -22.1460   -4.9100   22.5710 C   0  0  0  0  0  0  0  0  0  0  0  0
  -22.5950   -4.3650   21.4150 F   0  0  0  0  0  0  0  0  0  0  0  0
  -21.4540   -3.8920   26.0280 F   0  0  0  0  0  0  0  0  0  0  0  0
  -22.9370  -13.6360   21.2280 C   0  0  0  0  0  0  0  0  0  0  0  0
  -22.2580  -12.9150   22.1130 N   0  0  0  0  0  0  0  0  0  0  0  0
  -22.4780  -14.6820   20.7710 O   0  0  0  0  0  0  0  0  0  0  0  0
  -22.6430  -12.0680   22.5020 H   0  0  0  0  0  0  0  0  0  0  0  0
  -21.3390  -13.2160   22.4060 H   0  0  0  0  0  0  0  0  0  0  0  0
  -25.5220  -15.3050   20.2800 N   0  0  0  0  0  0  0  0  0  0  0  0
  -24.7680  -15.9600   20.4550 H   0  0  0  0  0  0  0  0  0  0  0  0
  -26.3490  -15.7470   19.8980 H   0  0  0  0  0  0  0  0  0  0  0  0
  -28.9980  -23.1150   21.1840 C   0  0  0  0  0  3  0  0  0  0  0  0
  -29.9180  -23.3640   22.4070 C   0  0  2  0  0  0  0  0  0  0  0  0
  -30.0210  -22.2840   23.1830 F   0  0  0  0  0  0  0  0  0  0  0  0
  -29.4460  -24.3550   23.1640 F   0  0  0  0  0  0  0  0  0  0  0  0
  -31.1410  -23.7000   21.9950 F   0  0  0  0  0  0  0  0  0  0  0  0
  -28.8910  -24.3390   20.2220 C   0  0  0  0  0  0  0  0  0  0  0  0
  -29.1370  -24.2500   19.0110 O   0  0  0  0  0  0  0  0  0  0  0  0
  -28.4470  -25.6990   20.8200 C   0  0  0  0  0  2  0  0  0  0  0  0
  -28.4390  -26.7720   19.8570 O   0  0  0  0  0  0  0  0  0  0  0  0
  -24.5700  -31.7820   23.1450 C   0  0  0  0  0  0  0  0  0  0  0  0
  -27.2810  -27.5140   19.8880 C   0  0  0  0  0  0  0  0  0  0  0  0
  -23.3800  -30.4120   21.4630 C   0  0  0  0  0  3  0  0  0  0  0  0
  -24.8560  -28.9610   19.9700 C   0  0  0  0  0  0  0  0  0  0  0  0
  -25.8930  -30.8390   21.2540 C   0  0  0  0  0  2  0  0  0  0  0  0
  -26.0070  -29.4930   20.5650 C   0  0  0  0  0  0  0  0  0  0  0  0
  -27.2260  -28.7780   20.5190 C   0  0  0  0  0  3  0  0  0  0  0  0
  -26.1170  -26.9960   19.2860 C   0  0  0  0  0  3  0  0  0  0  0  0
  -24.9050  -27.7110   19.3260 C   0  0  0  0  0  3  0  0  0  0  0  0
  -23.5910  -29.7870   20.0590 C   0  0  0  0  0  2  0  0  0  0  0  0
  -24.6330  -31.0240   22.0130 N   0  0  0  0  0  0  0  0  0  0  0  0
  -23.4880  -32.0090   23.7050 O   0  0  0  0  0  0  0  0  0  0  0  0
  -22.7610  -29.3430   22.3930 C   0  0  0  0  0  0  0  0  0  0  0  0
  -21.4420  -29.1260   22.2620 N   0  0  0  0  0  0  0  0  0  0  0  0
  -23.4650  -28.7120   23.1850 O   0  0  0  0  0  0  0  0  0  0  0  0
  -20.9340  -29.6890   21.5950 H   0  0  0  0  0  0  0  0  0  0  0  0
  -18.1080  -27.8080   22.7140 C   0  0  0  0  0  0  0  0  0  0  0  0
  -20.6550  -28.1410   23.0030 C   0  0  0  0  0  3  0  0  0  0  0  0
  -20.8060  -26.7310   22.3860 C   0  0  0  0  0  2  0  0  0  0  0  0
  -19.7180  -26.4020   21.3590 C   0  0  0  0  0  2  0  0  0  0  0  0
  -18.3300  -26.4850   22.0020 C   0  0  0  0  0  2  0  0  0  0  0  0
  -19.2000  -28.5930   23.1700 C   0  0  0  0  0  0  0  0  0  0  0  0
  -18.9390  -29.8330   23.7940 C   0  0  0  0  0  3  0  0  0  0  0  0
  -17.6190  -30.2870   23.9680 C   0  0  0  0  0  3  0  0  0  0  0  0
  -16.5410  -29.4990   23.5290 C   0  0  0  0  0  3  0  0  0  0  0  0
  -16.7860  -28.2620   22.9080 C   0  0  0  0  0  3  0  0  0  0  0  0
  -25.8480  -32.4180   23.7750 C   0  0  0  0  0  3  0  0  0  0  0  0
  -25.5260  -33.8100   24.1190 N   0  0  0  0  0  0  0  0  0  0  0  0
  -25.8520  -34.8730   23.3720 C   0  0  0  0  0  0  0  0  0  0  0  0
  -26.5290  -34.7870   22.3440 O   0  0  0  0  0  0  0  0  0  0  0  0
  -24.9260  -33.9500   24.9190 H   0  0  0  0  0  0  0  0  0  0  0  0
  -24.1180  -36.6590   23.0130 C   0  0  0  0  0  1  0  0  0  0  0  0
  -25.3480  -36.2510   23.8410 C   0  0  0  0  0  3  0  0  0  0  0  0
  -27.4590  -37.1380   24.7280 C   0  0  0  0  0  1  0  0  0  0  0  0
  -26.3740  -37.3140   23.7660 N   0  0  0  0  0  0  0  0  0  0  0  0
  -25.9560  -38.2270   23.9240 H   0  0  0  0  0  0  0  0  0  0  0  0
  -26.3720  -31.6370   25.0420 C   0  0  1  0  0  0  0  0  0  0  0  0
  -25.2810  -31.3740   26.1050 C   0  0  0  0  0  1  0  0  0  0  0  0
  -26.9710  -30.2710   24.6310 C   0  0  0  0  0  1  0  0  0  0  0  0
  -27.5140  -32.4350   25.7150 C   0  0  0  0  0  1  0  0  0  0  0  0
  1  3  2  0
  2  1  1  0
  2 51  1  0
  4  2  1  0
  6  8  1  0
  7  5  1  0
  7  1  1  0
  8 21  1  0
  8  5  2  0
  9  6  2  0
  9 10  1  0
 10  7  2  0
 11  9  1  0
 12 10  1  0
 13 21  1  0
 14 19  1  0
 15 16  1  0
 15 14  1  0
 17 16  1  0
 17 26  1  0
 17 18  1  0
 19 13  1  0
 19 18  1  0
 20 13  2  0
 21 22  1  0
 23 24  2  0
 24 43  1  0
 25 24  1  0
 25 28  1  0
 26 27  1  0
 26 23  1  0
 27 25  2  0
 28 29  1  0
 29 30  2  0
 31 34  1  0
 31 30  1  0
 32 31  2  0
 33 32  1  0
 33 28  2  0
 34 35  1  0
 35 36  1  0
 36 37  2  0
 38 37  1  0
 38 42  1  0
 39 38  2  0
 40 35  2  0
 40 39  1  0
 41 40  1  0
 43 44  1  0
 44 47  1  0
 44 46  1  0
 45 43  2  0
 48 23  1  0
 48 49  1  0
 50 48  1  0
 51 56  1  0
 51 52  1  0
 52 54  1  1
 52 53  1  0
 55 52  1  0
 56 58  1  0
 57 56  2  0
 59 61  1  0
 59 58  1  0
 60 71  2  0
 61 66  1  0
 62 70  1  0
 62 72  1  0
 63 69  1  0
 63 65  1  0
 64 70  1  0
 65 64  1  0
 66 65  2  0
 67 68  1  0
 67 61  2  0
 68 63  2  0
 69 62  1  0
 70 60  1  0
 72 74  2  0
 73 72  1  0
 75 73  1  0
 76 85  2  0
 76 81  1  0
 77 73  1  0
 77 81  1  0
 78 77  1  0
 79 80  1  0
 79 78  1  0
 80 76  1  0
 81 82  2  0
 82 83  1  0
 84 83  2  0
 85 84  1  0
 86 60  1  0
 86 87  1  0
 86 96  1  0
 87 90  1  0
 88 92  1  0
 88 87  1  0
 89 88  2  0
 92 91  1  0
 94 92  1  0
 94 95  1  0
 94 93  1  0
 96 99  1  1
 96 97  1  0
 98 96  1  0
M  ISO  4  13 100  21 100  58 101  59 101
M  END
>  <TORSDO>  (32) 
F 21

>  <SCORE>  (32) 
-13.168

>  <name>  (32) 
31

>  <ligand_id>  (32) 
31

>  <original_smiles>  (32) 
[H]c1c([H])c([H])c2c(c1[H])C([H])([H])C([H])([H])C([H])([H])C2([H])N([H])C(=O)C1([H])N(C(=O)C([H])(N([H])C(=O)C([H])(N([H])C([H])([H])[H])C([H])([H])[H])C(C([H])([H])[H])(C([H])([H])[H])C([H])([H])[H])C([H])([H])c2c([H])c(OC([H])([H])C(=O)C([H])(N([H])C(=O)c3c([H])c(N([H])C(=O)N4C([H])([H])C([H])([H])C([H])([H])C([H])(n5nc(-c6c([H])c([H])c(Oc7c([H])c([H])c(F)c([H])c7F)c([H])c6[H])c(C(=O)N([H])[H])c5N([H])[H])C4([H])[H])c([H])c(F)c3F)C(F)(F)F)c([H])c([H])c2C1([H])[H]

>  <smiles>  (32) 
[H]c1c([H])c([H])c2c(c1[H])C([H])([H])C([H])([H])C([H])([H])C2([H])N([H])C(=O)C1([H])N(C(=O)C([H])(N([H])C(=O)C([H])(N([H])C([H])([H])[H])C([H])([H])[H])C(C([H])([H])[H])(C([H])([H])[H])C([H])([H])[H])C([H])([H])c2c([H])c(OC([H])([H])C(=O)C([H])(N([H])C(=O)c3c([H])c(N([H])C(=O)N4C([H])([H])C([H])([H])C([H])([H])C([H])(n5nc(-c6c([H])c([H])c(Oc7c([H])c([H])c(F)c([H])c7F)c([H])c6[H])c(C(=O)N([H])[H])c5N([H])[H])C4([H])[H])c([H])c(F)c3F)C(F)(F)F)c([H])c([H])c2C1([H])[H]

$$$$
32:0:0
     RDKit          3D

 94102  0  0  1  0  0  0  0  0999 V2000
  -28.7000  -20.5450   20.7460 C   0  0  0  0  0  0  0  0  0  0  0  0
  -28.2640  -22.9440   20.4770 C   0  0  0  0  0  0  0  0  0  0  0  0
  -29.0310  -21.8220   20.4050 N   0  0  0  0  0  0  0  0  0  0  0  0
  -27.5710  -20.2000   21.1120 O   0  0  0  0  0  0  0  0  0  0  0  0
  -27.0960  -22.9460   20.8830 O   0  0  0  0  0  0  0  0  0  0  0  0
  -29.9720  -21.9450   20.0690 H   0  0  0  0  0  0  0  0  0  0  0  0
  -32.1810  -18.9250   20.8070 C   0  0  0  0  0  3  0  0  0  0  0  0
  -31.1520  -19.8850   20.7840 C   0  0  0  0  0  3  0  0  0  0  0  0
  -31.8820  -17.5530   20.7270 C   0  0  0  0  0  3  0  0  0  0  0  0
  -29.7980  -19.4920   20.6680 C   0  0  0  0  0  0  0  0  0  0  0  0
  -30.5440  -17.1150   20.6040 C   0  0  0  0  0  0  0  0  0  0  0  0
  -29.5090  -18.0920   20.5810 C   0  0  0  0  0  0  0  0  0  0  0  0
  -28.2310  -17.6480   20.4710 F   0  0  0  0  0  0  0  0  0  0  0  0
  -30.8930  -14.6740   20.0590 C   0  0  0  0  0  0  0  0  0  0  0  0
  -30.5580  -12.4970   18.9410 C   0  0  0  0  0  2  0  0  0  0  0  0
  -29.5610  -12.6800   17.7780 C   0  0  0  0  0  2  0  0  0  0  0  0
  -28.1090  -12.5350   18.2760 C   0  0  0  0  0  2  0  0  0  0  0  0
  -27.8220  -13.3790   19.5460 C   0  0  0  0  0  3  0  0  0  0  0  0
  -28.9290  -13.1840   20.6070 C   0  0  0  0  0  2  0  0  0  0  0  0
  -30.2200  -13.4930   19.9730 N   0  0  0  0  0  0  0  0  0  0  0  0
  -32.0140  -14.8190   19.5630 O   0  0  0  0  0  0  0  0  0  0  0  0
  -30.1900  -15.7190   20.5550 N   0  0  0  0  0  0  0  0  0  0  0  0
  -29.2350  -15.5140   20.8070 H   0  0  0  0  0  0  0  0  0  0  0  0
  -25.4700  -13.9790   20.3950 C   0  0  0  0  0  0  0  0  0  0  0  0
  -24.4160  -13.2030   20.7940 C   0  0  0  0  0  0  0  0  0  0  0  0
  -24.8660  -11.8500   20.7050 C   0  0  0  0  0  0  0  0  0  0  0  0
  -26.4950  -13.0990   20.0880 N   0  0  0  0  0  0  0  0  0  0  0  0
  -26.1390  -11.8110   20.3330 N   0  0  0  0  0  0  0  0  0  0  0  0
  -24.1410  -10.5870   20.8980 C   0  0  0  0  0  0  0  0  0  0  0  0
  -24.5410   -9.6470   21.8720 C   0  0  0  0  0  3  0  0  0  0  0  0
  -23.8170   -8.4490   22.0500 C   0  0  0  0  0  3  0  0  0  0  0  0
  -22.6780   -8.1820   21.2540 C   0  0  0  0  0  0  0  0  0  0  0  0
  -22.2980   -9.1110   20.2700 C   0  0  0  0  0  3  0  0  0  0  0  0
  -23.0220  -10.3010   20.0890 C   0  0  0  0  0  3  0  0  0  0  0  0
  -21.9290   -7.0340   21.3390 O   0  0  0  0  0  0  0  0  0  0  0  0
  -21.7540   -6.3750   22.5300 C   0  0  0  0  0  0  0  0  0  0  0  0
  -21.1180   -6.9870   23.6320 C   0  0  0  0  0  3  0  0  0  0  0  0
  -20.8960   -6.2510   24.8130 C   0  0  0  0  0  3  0  0  0  0  0  0
  -21.2980   -4.9050   24.8920 C   0  0  0  0  0  0  0  0  0  0  0  0
  -21.9250   -4.2920   23.7930 C   0  0  0  0  0  3  0  0  0  0  0  0
  -22.1490   -5.0250   22.6140 C   0  0  0  0  0  0  0  0  0  0  0  0
  -22.7350   -4.4230   21.5510 F   0  0  0  0  0  0  0  0  0  0  0  0
  -21.0770   -4.1960   26.0230 F   0  0  0  0  0  0  0  0  0  0  0  0
  -23.0370  -13.6800   21.1490 C   0  0  0  0  0  0  0  0  0  0  0  0
  -22.3450  -12.9570   22.0220 N   0  0  0  0  0  0  0  0  0  0  0  0
  -22.5850  -14.7280   20.6900 O   0  0  0  0  0  0  0  0  0  0  0  0
  -22.7240  -12.1080   22.4140 H   0  0  0  0  0  0  0  0  0  0  0  0
  -21.4220  -13.2560   22.3020 H   0  0  0  0  0  0  0  0  0  0  0  0
  -25.6350  -15.3540   20.2490 N   0  0  0  0  0  0  0  0  0  0  0  0
  -24.8860  -16.0100   20.4370 H   0  0  0  0  0  0  0  0  0  0  0  0
  -26.4840  -15.8090   19.9360 H   0  0  0  0  0  0  0  0  0  0  0  0
  -28.8610  -24.3030   20.0080 C   0  0  0  0  0  2  0  0  0  0  0  0
  -28.4370  -25.5330   20.8760 C   0  0  0  0  0  2  0  0  0  0  0  0
  -28.5930  -26.8350   20.2520 O   0  0  0  0  0  0  0  0  0  0  0  0
  -24.6110  -31.9480   23.2510 C   0  0  0  0  0  0  0  0  0  0  0  0
  -27.4360  -27.5900   20.2020 C   0  0  0  0  0  0  0  0  0  0  0  0
  -23.4850  -30.5390   21.5590 C   0  0  0  0  0  3  0  0  0  0  0  0
  -25.0130  -29.0550   20.1540 C   0  0  0  0  0  0  0  0  0  0  0  0
  -26.0060  -30.9590   21.4330 C   0  0  0  0  0  2  0  0  0  0  0  0
  -26.1450  -29.5970   20.7780 C   0  0  0  0  0  0  0  0  0  0  0  0
  -27.3640  -28.8750   20.7930 C   0  0  0  0  0  3  0  0  0  0  0  0
  -26.2910  -27.0690   19.5640 C   0  0  0  0  0  3  0  0  0  0  0  0
  -25.0830  -27.7920   19.5400 C   0  0  0  0  0  3  0  0  0  0  0  0
  -23.7480  -29.8830   20.1780 C   0  0  0  0  0  2  0  0  0  0  0  0
  -24.7170  -31.1630   22.1400 N   0  0  0  0  0  0  0  0  0  0  0  0
  -23.5090  -32.1870   23.7650 O   0  0  0  0  0  0  0  0  0  0  0  0
  -22.8300  -29.4920   22.4890 C   0  0  0  0  0  0  0  0  0  0  0  0
  -21.5080  -29.3070   22.3490 N   0  0  0  0  0  0  0  0  0  0  0  0
  -23.5100  -28.8500   23.2940 O   0  0  0  0  0  0  0  0  0  0  0  0
  -21.0190  -29.8780   21.6730 H   0  0  0  0  0  0  0  0  0  0  0  0
  -18.1230  -28.1470   22.8580 C   0  0  0  0  0  0  0  0  0  0  0  0
  -20.6900  -28.3470   23.0890 C   0  0  0  0  0  3  0  0  0  0  0  0
  -20.7540  -26.9440   22.4400 C   0  0  0  0  0  2  0  0  0  0  0  0
  -19.6270  -26.6920   21.4350 C   0  0  0  0  0  2  0  0  0  0  0  0
  -18.2610  -26.8290   22.1140 C   0  0  0  0  0  2  0  0  0  0  0  0
  -19.2630  -28.8670   23.3020 C   0  0  0  0  0  0  0  0  0  0  0  0
  -19.0800  -30.1020   23.9600 C   0  0  0  0  0  3  0  0  0  0  0  0
  -17.7900  -30.6180   24.1760 C   0  0  0  0  0  3  0  0  0  0  0  0
  -16.6630  -29.8950   23.7480 C   0  0  0  0  0  3  0  0  0  0  0  0
  -16.8300  -28.6610   23.0950 C   0  0  0  0  0  3  0  0  0  0  0  0
  -25.8630  -32.6020   23.9130 C   0  0  0  0  0  3  0  0  0  0  0  0
  -26.3520  -31.8400   25.2070 C   0  0  1  0  0  0  0  0  0  0  0  0
  -25.2260  -31.5760   26.2340 C   0  0  0  0  0  1  0  0  0  0  0  0
  -26.9790  -30.4780   24.8330 C   0  0  0  0  0  1  0  0  0  0  0  0
  -27.4600  -32.6590   25.9100 C   0  0  0  0  0  1  0  0  0  0  0  0
  -25.5210  -33.9950   24.2280 N   0  0  0  0  0  0  0  0  0  0  0  0
  -25.8610  -35.0500   23.4760 C   0  0  0  0  0  0  0  0  0  0  0  0
  -26.5660  -34.9540   22.4680 O   0  0  0  0  0  0  0  0  0  0  0  0
  -24.8970  -34.1410   25.0080 H   0  0  0  0  0  0  0  0  0  0  0  0
  -24.1270  -36.8210   23.0450 C   0  0  0  0  0  1  0  0  0  0  0  0
  -25.3350  -36.4320   23.9120 C   0  0  0  0  0  3  0  0  0  0  0  0
  -27.4110  -37.3500   24.8470 C   0  0  0  0  0  1  0  0  0  0  0  0
  -26.3580  -37.4980   23.8460 N   0  0  0  0  0  0  0  0  0  0  0  0
  -25.9320  -38.4130   23.9650 H   0  0  0  0  0  0  0  0  0  0  0  0
  1  4  2  0
  2  5  2  0
  3  2  1  0
  3  1  1  0
  6  3  1  0
  8  7  1  0
  9  7  2  0
 10  1  1  0
 10  8  2  0
 11  9  1  0
 12 11  2  0
 12 10  1  0
 13 12  1  0
 14 22  1  0
 15 20  1  0
 16 17  1  0
 16 15  1  0
 18 17  1  0
 18 27  1  0
 18 19  1  0
 20 14  1  0
 20 19  1  0
 21 14  2  0
 22 11  1  0
 22 23  1  0
 24 25  2  0
 25 44  1  0
 26 25  1  0
 26 29  1  0
 27 28  1  0
 27 24  1  0
 28 26  2  0
 29 30  1  0
 30 31  2  0
 32 35  1  0
 32 31  1  0
 33 32  2  0
 34 33  1  0
 34 29  2  0
 35 36  1  0
 36 41  2  0
 36 37  1  0
 37 38  2  0
 38 39  1  0
 39 43  1  0
 40 39  2  0
 41 40  1  0
 42 41  1  0
 44 45  1  0
 45 48  1  0
 45 47  1  0
 46 44  2  0
 49 24  1  0
 49 50  1  0
 51 49  1  0
 52  2  1  0
 52 53  1  0
 54 53  1  0
 55 66  2  0
 56 54  1  0
 56 61  1  0
 57 65  1  0
 57 67  1  0
 58 64  1  0
 58 60  1  0
 59 65  1  0
 60 61  2  0
 60 59  1  0
 62 56  2  0
 63 62  1  0
 63 58  2  0
 64 57  1  0
 65 55  1  0
 67 69  2  0
 68 67  1  0
 70 68  1  0
 71 80  2  0
 71 76  1  0
 72 68  1  0
 72 76  1  0
 73 72  1  0
 74 75  1  0
 74 73  1  0
 75 71  1  0
 76 77  2  0
 77 78  1  0
 79 78  2  0
 80 79  1  0
 81 55  1  0
 81 86  1  0
 81 82  1  0
 82 85  1  1
 82 83  1  0
 84 82  1  0
 86 89  1  0
 87 91  1  0
 87 86  1  0
 88 87  2  0
 91 90  1  0
 93 91  1  0
 93 94  1  0
 93 92  1  0
M  ISO  4  14 100  22 100  53 101  54 101
M  END
>  <TORSDO>  (33) 
F 19

>  <SCORE>  (33) 
-13.858

>  <name>  (33) 
32

>  <ligand_id>  (33) 
32

>  <original_smiles>  (33) 
[H]c1c([H])c(C(=O)N([H])C(=O)C([H])([H])C([H])([H])Oc2c([H])c([H])c3c(c2[H])C([H])([H])N(C(=O)C([H])(N([H])C(=O)C([H])(N([H])C([H])([H])[H])C([H])([H])[H])C(C([H])([H])[H])(C([H])([H])[H])C([H])([H])[H])C([H])(C(=O)N([H])C2([H])c4c([H])c([H])c([H])c([H])c4C([H])([H])C([H])([H])C2([H])[H])C3([H])[H])c(F)c(N([H])C(=O)N2C([H])([H])C([H])([H])C([H])([H])C([H])(n3nc(-c4c([H])c([H])c(Oc5c([H])c([H])c(F)c([H])c5F)c([H])c4[H])c(C(=O)N([H])[H])c3N([H])[H])C2([H])[H])c1[H]

>  <smiles>  (33) 
[H]c1c([H])c(C(=O)N([H])C(=O)C([H])([H])C([H])([H])Oc2c([H])c([H])c3c(c2[H])C([H])([H])N(C(=O)C([H])(N([H])C(=O)C([H])(N([H])C([H])([H])[H])C([H])([H])[H])C(C([H])([H])[H])(C([H])([H])[H])C([H])([H])[H])C([H])(C(=O)N([H])C2([H])c4c([H])c([H])c([H])c([H])c4C([H])([H])C([H])([H])C2([H])[H])C3([H])[H])c(F)c(N([H])C(=O)N2C([H])([H])C([H])([H])C([H])([H])C([H])(n3nc(-c4c([H])c([H])c(Oc5c([H])c([H])c(F)c([H])c5F)c([H])c4[H])c(C(=O)N([H])[H])c3N([H])[H])C2([H])[H])c1[H]

$$$$
33:0:0
     RDKit          3D

 96104  0  0  1  0  0  0  0  0999 V2000
  -30.0710  -20.8190   21.4720 C   0  0  0  0  0  0  0  0  0  0  0  0
  -29.3530  -21.7310   20.7840 N   0  0  0  0  0  4  0  0  0  0  0  0
  -30.5530  -21.0510   22.5840 O   0  0  0  0  0  0  0  0  0  0  0  0
  -29.0550  -21.4230   19.8680 H   0  0  0  0  0  0  0  0  0  0  0  0
  -30.7750  -14.5780   20.0900 C   0  0  0  0  0  0  0  0  0  0  0  0
  -30.3990  -12.4410   18.9080 C   0  0  0  0  0  2  0  0  0  0  0  0
  -29.3820  -12.6740   17.7710 C   0  0  0  0  0  2  0  0  0  0  0  0
  -27.9390  -12.5210   18.2880 C   0  0  0  0  0  2  0  0  0  0  0  0
  -27.6860  -13.3280   19.5880 C   0  0  0  0  0  3  0  0  0  0  0  0
  -28.8080  -13.0780   20.6230 C   0  0  0  0  0  2  0  0  0  0  0  0
  -30.0990  -13.3970   19.9890 N   0  0  0  0  0  0  0  0  0  0  0  0
  -31.8370  -14.7800   19.4930 O   0  0  0  0  0  0  0  0  0  0  0  0
  -30.1860  -19.4480   20.8770 C   0  0  0  0  0  0  0  0  0  0  0  0
  -30.3770  -18.9680   19.5960 C   0  0  0  0  0  0  0  0  0  0  0  0
  -30.2920  -16.9570   20.6960 C   0  0  0  0  0  0  0  0  0  0  0  0
  -30.4260  -17.5670   19.5090 N   0  0  0  0  0  0  0  0  0  0  0  0
  -30.1980  -15.5350   20.8510 N   0  0  0  0  0  0  0  0  0  0  0  0
  -30.0940  -18.1070   22.0200 S   0  0  0  0  0  0  0  0  0  0  0  0
  -29.5030  -15.2160   21.5060 H   0  0  0  0  0  0  0  0  0  0  0  0
  -25.3420  -13.9240   20.4710 C   0  0  0  0  0  0  0  0  0  0  0  0
  -24.2950  -13.1450   20.8850 C   0  0  0  0  0  0  0  0  0  0  0  0
  -24.7430  -11.7920   20.7790 C   0  0  0  0  0  0  0  0  0  0  0  0
  -26.3640  -13.0450   20.1430 N   0  0  0  0  0  0  0  0  0  0  0  0
  -26.0090  -11.7560   20.3850 N   0  0  0  0  0  0  0  0  0  0  0  0
  -24.0220  -10.5290   20.9750 C   0  0  0  0  0  0  0  0  0  0  0  0
  -24.4810   -9.5510   21.8840 C   0  0  0  0  0  3  0  0  0  0  0  0
  -23.7620   -8.3510   22.0690 C   0  0  0  0  0  3  0  0  0  0  0  0
  -22.5670   -8.1210   21.3440 C   0  0  0  0  0  0  0  0  0  0  0  0
  -22.1280   -9.0880   20.4230 C   0  0  0  0  0  3  0  0  0  0  0  0
  -22.8490  -10.2790   20.2370 C   0  0  0  0  0  3  0  0  0  0  0  0
  -21.8150   -6.9760   21.4410 O   0  0  0  0  0  0  0  0  0  0  0  0
  -21.7610   -6.2450   22.6010 C   0  0  0  0  0  0  0  0  0  0  0  0
  -21.2890   -6.8010   23.8120 C   0  0  0  0  0  3  0  0  0  0  0  0
  -21.1870   -5.9950   24.9630 C   0  0  0  0  0  3  0  0  0  0  0  0
  -21.5430   -4.6340   24.9050 C   0  0  0  0  0  0  0  0  0  0  0  0
  -22.0060   -4.0780   23.6990 C   0  0  0  0  0  3  0  0  0  0  0  0
  -22.1120   -4.8810   22.5510 C   0  0  0  0  0  0  0  0  0  0  0  0
  -22.5400   -4.3360   21.3860 F   0  0  0  0  0  0  0  0  0  0  0  0
  -21.4360   -3.8570   26.0080 F   0  0  0  0  0  0  0  0  0  0  0  0
  -22.9220  -13.6200   21.2680 C   0  0  0  0  0  0  0  0  0  0  0  0
  -22.2480  -12.8950   22.1550 N   0  0  0  0  0  0  0  0  0  0  0  0
  -22.4590  -14.6660   20.8160 O   0  0  0  0  0  0  0  0  0  0  0  0
  -22.6370  -12.0490   22.5410 H   0  0  0  0  0  0  0  0  0  0  0  0
  -21.3290  -13.1910   22.4510 H   0  0  0  0  0  0  0  0  0  0  0  0
  -25.5080  -15.2970   20.3260 N   0  0  0  0  0  0  0  0  0  0  0  0
  -24.7600  -15.9580   20.5060 H   0  0  0  0  0  0  0  0  0  0  0  0
  -26.3420  -15.7370   19.9560 H   0  0  0  0  0  0  0  0  0  0  0  0
  -30.5080  -19.7190   18.4240 N   0  0  0  0  0  0  0  0  0  0  0  0
  -30.7670  -20.6970   18.4810 H   0  0  0  0  0  0  0  0  0  0  0  0
  -30.8320  -19.2610   17.5790 H   0  0  0  0  0  0  0  0  0  0  0  0
  -28.4410  -23.1180   22.7250 C   0  0  0  0  0  1  0  0  0  0  0  0
  -28.7520  -23.0230   21.2140 C   0  0  0  0  0  0  0  0  0  0  0  0
  -29.3680  -24.3320   20.6320 C   0  0  0  0  0  0  0  0  0  0  0  0
  -30.5660  -24.6170   20.7250 O   0  0  0  0  0  0  0  0  0  0  0  0
  -28.3730  -25.2850   19.9210 C   0  0  0  0  0  2  0  0  0  0  0  0
  -28.5810  -26.7040   20.1510 O   0  0  0  0  0  0  0  0  0  0  0  0
  -24.6990  -31.8090   23.2950 C   0  0  0  0  0  0  0  0  0  0  0  0
  -27.4310  -27.4850   20.0910 C   0  0  0  0  0  0  0  0  0  0  0  0
  -23.5340  -30.4610   21.5810 C   0  0  0  0  0  3  0  0  0  0  0  0
  -25.0270  -29.0040   20.1120 C   0  0  0  0  0  0  0  0  0  0  0  0
  -26.0630  -30.8440   21.4410 C   0  0  0  0  0  2  0  0  0  0  0  0
  -26.1740  -29.5000   20.7450 C   0  0  0  0  0  0  0  0  0  0  0  0
  -27.3780  -28.7500   20.7310 C   0  0  0  0  0  3  0  0  0  0  0  0
  -26.2650  -27.0350   19.4210 C   0  0  0  0  0  3  0  0  0  0  0  0
  -25.0710  -27.7740   19.4440 C   0  0  0  0  0  3  0  0  0  0  0  0
  -23.7740  -29.8470   20.1770 C   0  0  0  0  0  2  0  0  0  0  0  0
  -24.7830  -31.0510   22.1640 N   0  0  0  0  0  0  0  0  0  0  0  0
  -23.6060  -32.0490   23.8260 O   0  0  0  0  0  0  0  0  0  0  0  0
  -22.8810  -29.3930   22.4880 C   0  0  0  0  0  0  0  0  0  0  0  0
  -21.5570  -29.2140   22.3470 N   0  0  0  0  0  0  0  0  0  0  0  0
  -23.5620  -28.7320   23.2770 O   0  0  0  0  0  0  0  0  0  0  0  0
  -21.0700  -29.7980   21.6830 H   0  0  0  0  0  0  0  0  0  0  0  0
  -18.1790  -28.0110   22.7920 C   0  0  0  0  0  0  0  0  0  0  0  0
  -20.7390  -28.2410   23.0700 C   0  0  0  0  0  3  0  0  0  0  0  0
  -20.8320  -26.8420   22.4180 C   0  0  0  0  0  2  0  0  0  0  0  0
  -19.7270  -26.5790   21.3920 C   0  0  0  0  0  2  0  0  0  0  0  0
  -18.3480  -26.6970   22.0460 C   0  0  0  0  0  2  0  0  0  0  0  0
  -19.3030  -28.7430   23.2580 C   0  0  0  0  0  0  0  0  0  0  0  0
  -19.0930  -29.9760   23.9150 C   0  0  0  0  0  3  0  0  0  0  0  0
  -17.7910  -30.4750   24.1110 C   0  0  0  0  0  3  0  0  0  0  0  0
  -16.6820  -29.7380   23.6620 C   0  0  0  0  0  3  0  0  0  0  0  0
  -16.8760  -28.5070   23.0090 C   0  0  0  0  0  3  0  0  0  0  0  0
  -25.9680  -32.4300   23.9570 C   0  0  0  0  0  3  0  0  0  0  0  0
  -26.4670  -31.6270   25.2190 C   0  0  1  0  0  0  0  0  0  0  0  0
  -25.3550  -31.3450   26.2570 C   0  0  0  0  0  1  0  0  0  0  0  0
  -27.0720  -30.2670   24.7970 C   0  0  0  0  0  1  0  0  0  0  0  0
  -27.5990  -32.4100   25.9270 C   0  0  0  0  0  1  0  0  0  0  0  0
  -25.6430  -33.8170   24.3190 N   0  0  0  0  0  0  0  0  0  0  0  0
  -25.9760  -34.8910   23.5900 C   0  0  0  0  0  0  0  0  0  0  0  0
  -26.6610  -34.8190   22.5650 O   0  0  0  0  0  0  0  0  0  0  0  0
  -25.0380  -33.9470   25.1150 H   0  0  0  0  0  0  0  0  0  0  0  0
  -24.2420  -36.6810   23.2540 C   0  0  0  0  0  1  0  0  0  0  0  0
  -25.4700  -36.2630   24.0760 C   0  0  0  0  0  3  0  0  0  0  0  0
  -27.5790  -37.1420   24.9760 C   0  0  0  0  0  1  0  0  0  0  0  0
  -26.4980  -37.3250   24.0110 N   0  0  0  0  0  0  0  0  0  0  0  0
  -26.0820  -38.2380   24.1720 H   0  0  0  0  0  0  0  0  0  0  0  0
  1  3  2  0
  2 52  2  0
  2  1  1  0
  4  2  1  0
  5 17  1  0
  6 11  1  0
  7  8  1  0
  7  6  1  0
  9  8  1  0
  9 23  1  0
  9 10  1  0
 11  5  1  0
 11 10  1  0
 12  5  2  0
 13  1  1  0
 13 18  1  0
 14 13  2  0
 15 17  1  0
 15 18  1  0
 16 14  1  0
 16 15  2  0
 17 19  1  0
 20 21  2  0
 21 40  1  0
 22 21  1  0
 22 25  1  0
 23 24  1  0
 23 20  1  0
 24 22  2  0
 25 26  1  0
 26 27  2  0
 28 31  1  0
 28 27  1  0
 29 28  2  0
 30 29  1  0
 30 25  2  0
 31 32  1  0
 32 33  1  0
 33 34  2  0
 35 34  1  0
 35 39  1  0
 36 35  2  0
 37 32  2  0
 37 36  1  0
 38 37  1  0
 40 41  1  0
 41 44  1  0
 41 43  1  0
 42 40  2  0
 45 20  1  0
 45 46  1  0
 47 45  1  0
 48 49  1  0
 48 14  1  0
 50 48  1  0
 52 51  1  0
 53 54  2  0
 53 52  1  0
 55 56  1  0
 55 53  1  0
 57 68  2  0
 58 56  1  0
 58 63  1  0
 59 67  1  0
 59 69  1  0
 60 66  1  0
 60 62  1  0
 61 67  1  0
 62 61  1  0
 63 62  2  0
 64 65  1  0
 64 58  2  0
 65 60  2  0
 66 59  1  0
 67 57  1  0
 69 71  2  0
 70 69  1  0
 72 70  1  0
 73 82  2  0
 73 78  1  0
 74 70  1  0
 74 78  1  0
 75 74  1  0
 76 77  1  0
 76 75  1  0
 77 73  1  0
 78 79  2  0
 79 80  1  0
 81 80  2  0
 82 81  1  0
 83 57  1  0
 83 88  1  0
 83 84  1  0
 84 87  1  1
 84 85  1  0
 86 84  1  0
 88 91  1  0
 89 93  1  0
 89 88  1  0
 90 89  2  0
 93 92  1  0
 95 93  1  0
 95 96  1  0
 95 94  1  0
M  ISO  4   5 100  17 100  55 101  56 101
M  END
>  <TORSDO>  (34) 
F 20

>  <SCORE>  (34) 
-13.227

>  <name>  (34) 
33

>  <ligand_id>  (34) 
33

>  <original_smiles>  (34) 
[H]c1c([H])c([H])c2c(c1[H])C([H])([H])C([H])([H])C([H])([H])C2([H])N([H])C(=O)C1([H])N(C(=O)C([H])(N([H])C(=O)C([H])(N([H])C([H])([H])[H])C([H])([H])[H])C(C([H])([H])[H])(C([H])([H])[H])C([H])([H])[H])C([H])([H])c2c([H])c(OC([H])([H])C(=O)C([H])(N([H])C(=O)c3sc(N([H])C(=O)N4C([H])([H])C([H])([H])C([H])([H])C([H])(n5nc(-c6c([H])c([H])c(Oc7c([H])c([H])c(F)c([H])c7F)c([H])c6[H])c(C(=O)N([H])[H])c5N([H])[H])C4([H])[H])nc3N([H])[H])C([H])([H])[H])c([H])c([H])c2C1([H])[H]

>  <smiles>  (34) 
[H]c1c([H])c([H])c2c(c1[H])C([H])([H])C([H])([H])C([H])([H])C2([H])N([H])C(=O)C1([H])N(C(=O)C([H])(N([H])C(=O)C([H])(N([H])C([H])([H])[H])C([H])([H])[H])C(C([H])([H])[H])(C([H])([H])[H])C([H])([H])[H])C([H])([H])c2c([H])c(OC([H])([H])C(=O)C([H])(N([H])C(=O)c3sc(N([H])C(=O)N4C([H])([H])C([H])([H])C([H])([H])C([H])(n5nc(-c6c([H])c([H])c(Oc7c([H])c([H])c(F)c([H])c7F)c([H])c6[H])c(C(=O)N([H])[H])c5N([H])[H])C4([H])[H])nc3N([H])[H])C([H])([H])[H])c([H])c([H])c2C1([H])[H]

$$$$
34:0:0
     RDKit          3D

 95103  0  0  1  0  0  0  0  0999 V2000
  -29.0930  -21.9880   19.5660 C   0  0  0  0  0  0  0  0  0  0  0  0
  -29.5320  -20.7220   20.1370 N   0  0  0  0  0  0  0  0  0  0  0  0
  -28.8990  -21.9860   18.3480 O   0  0  0  0  0  0  0  0  0  0  0  0
  -29.4170  -20.6360   21.1380 H   0  0  0  0  0  0  0  0  0  0  0  0
  -31.3570  -17.7030   18.2100 C   0  0  0  0  0  3  0  0  0  0  0  0
  -32.2650  -18.5300   17.5340 C   0  0  0  0  0  3  0  0  0  0  0  0
  -31.4930  -20.3660   18.8660 C   0  0  0  0  0  3  0  0  0  0  0  0
  -30.5710  -18.0910   19.3420 C   0  0  0  0  0  0  0  0  0  0  0  0
  -30.4290  -19.6320   19.4790 C   0  0  0  0  0  0  0  0  0  0  0  0
  -32.4060  -19.8450   17.9390 C   0  0  0  0  0  0  0  0  0  0  0  0
  -33.3800  -20.6270   17.4120 F   0  0  0  0  0  0  0  0  0  0  0  0
  -30.8110  -15.4930   20.1330 C   0  0  0  0  0  0  0  0  0  0  0  0
  -30.7250  -13.0680   19.3820 C   0  0  0  0  0  2  0  0  0  0  0  0
  -29.8360  -12.9110   18.1290 C   0  0  0  0  0  2  0  0  0  0  0  0
  -28.3720  -12.6780   18.5460 C   0  0  0  0  0  2  0  0  0  0  0  0
  -27.9100  -13.6740   19.6440 C   0  0  0  0  0  3  0  0  0  0  0  0
  -28.9350  -13.8190   20.7890 C   0  0  0  0  0  2  0  0  0  0  0  0
  -30.1960  -14.2330   20.1610 N   0  0  0  0  0  0  0  0  0  0  0  0
  -32.0370  -15.4470   19.9960 O   0  0  0  0  0  0  0  0  0  0  0  0
  -30.1110  -16.7670   20.0430 N   0  0  0  0  0  0  0  0  0  0  0  0
  -29.1550  -16.7490   20.3700 H   0  0  0  0  0  0  0  0  0  0  0  0
  -25.5260  -14.2510   20.3680 C   0  0  0  0  0  0  0  0  0  0  0  0
  -24.4630  -13.4770   20.7410 C   0  0  0  0  0  0  0  0  0  0  0  0
  -24.9330  -12.1270   20.7290 C   0  0  0  0  0  0  0  0  0  0  0  0
  -26.5720  -13.3740   20.1420 N   0  0  0  0  0  0  0  0  0  0  0  0
  -26.2280  -12.0920   20.4310 N   0  0  0  0  0  0  0  0  0  0  0  0
  -24.2060  -10.8670   20.9230 C   0  0  0  0  0  0  0  0  0  0  0  0
  -24.5970   -9.9310   21.9040 C   0  0  0  0  0  3  0  0  0  0  0  0
  -23.8730   -8.7340   22.0860 C   0  0  0  0  0  3  0  0  0  0  0  0
  -22.7370   -8.4650   21.2850 C   0  0  0  0  0  0  0  0  0  0  0  0
  -22.3680   -9.3860   20.2870 C   0  0  0  0  0  3  0  0  0  0  0  0
  -23.0950  -10.5740   20.1060 C   0  0  0  0  0  3  0  0  0  0  0  0
  -21.9850   -7.3180   21.3750 O   0  0  0  0  0  0  0  0  0  0  0  0
  -21.8650   -6.6220   22.5520 C   0  0  0  0  0  0  0  0  0  0  0  0
  -21.2950   -7.2050   23.7040 C   0  0  0  0  0  3  0  0  0  0  0  0
  -21.1270   -6.4340   24.8730 C   0  0  0  0  0  3  0  0  0  0  0  0
  -21.5160   -5.0820   24.8880 C   0  0  0  0  0  0  0  0  0  0  0  0
  -22.0750   -4.4980   23.7380 C   0  0  0  0  0  3  0  0  0  0  0  0
  -22.2460   -5.2650   22.5730 C   0  0  0  0  0  0  0  0  0  0  0  0
  -22.7670   -4.6900   21.4610 F   0  0  0  0  0  0  0  0  0  0  0  0
  -21.3460   -4.3390   26.0070 F   0  0  0  0  0  0  0  0  0  0  0  0
  -23.0600  -13.9550   20.9850 C   0  0  0  0  0  0  0  0  0  0  0  0
  -22.3110  -13.2670   21.8400 N   0  0  0  0  0  0  0  0  0  0  0  0
  -22.6360  -14.9770   20.4490 O   0  0  0  0  0  0  0  0  0  0  0  0
  -22.6620  -12.4470   22.3110 H   0  0  0  0  0  0  0  0  0  0  0  0
  -21.3650  -13.5700   22.0270 H   0  0  0  0  0  0  0  0  0  0  0  0
  -25.6870  -15.6190   20.1720 N   0  0  0  0  0  0  0  0  0  0  0  0
  -24.9170  -16.2730   20.2720 H   0  0  0  0  0  0  0  0  0  0  0  0
  -26.5260  -16.0490   19.8050 H   0  0  0  0  0  0  0  0  0  0  0  0
  -29.8680  -23.7130   21.3210 C   0  0  0  0  0  1  0  0  0  0  0  0
  -28.7430  -23.4800   20.2990 C   0  0  2  0  0  0  0  0  0  0  0  0
  -27.1830  -22.2410   22.0650 C   0  0  0  0  0  1  0  0  0  0  0  0
  -27.3740  -23.3740   21.0380 C   0  0  0  0  0  2  0  0  0  0  0  0
  -28.5990  -24.9580   19.4030 C   0  0  0  0  0  2  0  0  0  0  0  0
  -28.5740  -26.4910   19.8400 O   0  0  0  0  0  0  0  0  0  0  0  0
  -24.6460  -31.8920   23.0430 C   0  0  0  0  0  0  0  0  0  0  0  0
  -27.4760  -27.4470   19.7710 C   0  0  0  0  0  0  0  0  0  0  0  0
  -23.5270  -30.5160   21.3310 C   0  0  0  0  0  3  0  0  0  0  0  0
  -25.0560  -29.0980   19.8240 C   0  0  0  0  0  0  0  0  0  0  0  0
  -26.0610  -30.9230   21.1800 C   0  0  0  0  0  2  0  0  0  0  0  0
  -26.2120  -29.5640   20.4650 C   0  0  0  0  0  0  0  0  0  0  0  0
  -27.4130  -28.7510   20.4300 C   0  0  0  0  0  3  0  0  0  0  0  0
  -26.2920  -27.1130   19.0760 C   0  0  0  0  0  3  0  0  0  0  0  0
  -25.1130  -27.8910   19.1100 C   0  0  0  0  0  3  0  0  0  0  0  0
  -23.7830  -29.9270   19.9170 C   0  0  0  0  0  2  0  0  0  0  0  0
  -24.7640  -31.1340   21.9070 N   0  0  0  0  0  0  0  0  0  0  0  0
  -23.5450  -32.0800   23.5890 O   0  0  0  0  0  0  0  0  0  0  0  0
  -22.9140  -29.4220   22.2460 C   0  0  0  0  0  0  0  0  0  0  0  0
  -21.5930  -29.2020   22.1410 N   0  0  0  0  0  0  0  0  0  0  0  0
  -23.6300  -28.7810   23.0170 O   0  0  0  0  0  0  0  0  0  0  0  0
  -21.0650  -29.7830   21.5080 H   0  0  0  0  0  0  0  0  0  0  0  0
  -18.2710  -27.8590   22.6880 C   0  0  0  0  0  0  0  0  0  0  0  0
  -20.8320  -28.1810   22.8660 C   0  0  0  0  0  3  0  0  0  0  0  0
  -20.9460  -26.8020   22.1720 C   0  0  0  0  0  2  0  0  0  0  0  0
  -19.8090  -26.5280   21.1840 C   0  0  0  0  0  2  0  0  0  0  0  0
  -18.4560  -26.5730   21.8960 C   0  0  0  0  0  2  0  0  0  0  0  0
  -19.3860  -28.6200   23.1310 C   0  0  0  0  0  0  0  0  0  0  0  0
  -19.1550  -29.8230   23.8360 C   0  0  0  0  0  3  0  0  0  0  0  0
  -17.8440  -30.2610   24.1010 C   0  0  0  0  0  3  0  0  0  0  0  0
  -16.7460  -29.4980   23.6670 C   0  0  0  0  0  3  0  0  0  0  0  0
  -16.9600  -28.2970   22.9670 C   0  0  0  0  0  3  0  0  0  0  0  0
  -25.8830  -32.5740   23.7010 C   0  0  0  0  0  3  0  0  0  0  0  0
  -26.4140  -31.7970   24.9680 C   0  0  1  0  0  0  0  0  0  0  0  0
  -25.3200  -31.4860   26.0160 C   0  0  0  0  0  1  0  0  0  0  0  0
  -27.0620  -30.4550   24.5560 C   0  0  0  0  0  1  0  0  0  0  0  0
  -27.5170  -32.6230   25.6670 C   0  0  0  0  0  1  0  0  0  0  0  0
  -25.4960  -33.9480   24.0630 N   0  0  0  0  0  0  0  0  0  0  0  0
  -25.8060  -35.0440   23.3570 C   0  0  0  0  0  0  0  0  0  0  0  0
  -26.5090  -35.0040   22.3450 O   0  0  0  0  0  0  0  0  0  0  0  0
  -24.8730  -34.0460   24.8500 H   0  0  0  0  0  0  0  0  0  0  0  0
  -24.0270  -36.7950   23.0030 C   0  0  0  0  0  1  0  0  0  0  0  0
  -25.2460  -36.3940   23.8500 C   0  0  0  0  0  3  0  0  0  0  0  0
  -27.3000  -37.3360   24.8190 C   0  0  0  0  0  1  0  0  0  0  0  0
  -26.2410  -37.4910   23.8250 N   0  0  0  0  0  0  0  0  0  0  0  0
  -25.7880  -38.3870   23.9770 H   0  0  0  0  0  0  0  0  0  0  0  0
  1  2  1  0
  1 51  1  0
  2  4  1  0
  3  1  2  0
  5  8  1  0
  6 10  1  0
  6  5  2  0
  7  9  1  0
  8  9  2  0
  8 20  1  0
  9  2  1  0
 10  7  2  0
 11 10  1  0
 12 18  1  0
 13 18  1  0
 14 15  1  0
 14 13  1  0
 16 15  1  0
 16 25  1  0
 16 17  1  0
 18 17  1  0
 19 12  2  0
 20 12  1  0
 20 21  1  0
 22 23  2  0
 23 42  1  0
 24 23  1  0
 24 27  1  0
 25 22  1  0
 25 26  1  0
 26 24  2  0
 27 28  1  0
 28 29  2  0
 30 33  1  0
 30 29  1  0
 31 30  2  0
 32 31  1  0
 32 27  2  0
 33 34  1  0
 34 39  2  0
 34 35  1  0
 35 36  2  0
 36 37  1  0
 37 41  1  0
 38 37  2  0
 39 38  1  0
 40 39  1  0
 42 43  1  0
 43 46  1  0
 43 45  1  0
 44 42  2  0
 47 48  1  0
 47 22  1  0
 49 47  1  0
 51 53  1  0
 51 50  1  1
 53 52  1  0
 54 55  1  0
 54 51  1  0
 56 67  2  0
 57 55  1  0
 57 62  1  0
 58 66  1  0
 58 68  1  0
 59 65  1  0
 59 61  1  0
 60 66  1  0
 61 60  1  0
 62 61  2  0
 63 64  1  0
 63 57  2  0
 64 59  2  0
 65 58  1  0
 66 56  1  0
 68 70  2  0
 69 68  1  0
 71 69  1  0
 72 81  2  0
 72 77  1  0
 73 69  1  0
 73 77  1  0
 74 73  1  0
 75 76  1  0
 75 74  1  0
 76 72  1  0
 77 78  2  0
 78 79  1  0
 80 79  2  0
 81 80  1  0
 82 56  1  0
 82 87  1  0
 82 83  1  0
 83 86  1  1
 83 84  1  0
 85 83  1  0
 87 90  1  0
 88 92  1  0
 88 87  1  0
 89 88  2  0
 92 91  1  0
 94 92  1  0
 94 95  1  0
 94 93  1  0
M  ISO  4  12 100  20 100  54 101  55 101
M  END
>  <TORSDO>  (35) 
F 20

>  <SCORE>  (35) 
-13.476

>  <name>  (35) 
34

>  <ligand_id>  (35) 
34

>  <original_smiles>  (35) 
[H]c1c([H])c([H])c2c(c1[H])C([H])([H])C([H])([H])C([H])([H])C2([H])N([H])C(=O)C1([H])N(C(=O)C([H])(N([H])C(=O)C([H])(N([H])C([H])([H])[H])C([H])([H])[H])C(C([H])([H])[H])(C([H])([H])[H])C([H])([H])[H])C([H])([H])c2c([H])c(OC([H])([H])C(C(=O)N([H])c3c([H])c(F)c([H])c([H])c3N([H])C(=O)N3C([H])([H])C([H])([H])C([H])([H])C([H])(n4nc(-c5c([H])c([H])c(Oc6c([H])c([H])c(F)c([H])c6F)c([H])c5[H])c(C(=O)N([H])[H])c4N([H])[H])C3([H])[H])(C([H])([H])[H])C([H])([H])C([H])([H])[H])c([H])c([H])c2C1([H])[H]

>  <smiles>  (35) 
[H]c1c([H])c([H])c2c(c1[H])C([H])([H])C([H])([H])C([H])([H])C2([H])N([H])C(=O)C1([H])N(C(=O)C([H])(N([H])C(=O)C([H])(N([H])C([H])([H])[H])C([H])([H])[H])C(C([H])([H])[H])(C([H])([H])[H])C([H])([H])[H])C([H])([H])c2c([H])c(OC([H])([H])C(C(=O)N([H])c3c([H])c(F)c([H])c([H])c3N([H])C(=O)N3C([H])([H])C([H])([H])C([H])([H])C([H])(n4nc(-c5c([H])c([H])c(Oc6c([H])c([H])c(F)c([H])c6F)c([H])c5[H])c(C(=O)N([H])[H])c4N([H])[H])C3([H])[H])(C([H])([H])[H])C([H])([H])C([H])([H])[H])c([H])c([H])c2C1([H])[H]

$$$$
35:0:0
     RDKit          3D

 96104  0  0  1  0  0  0  0  0999 V2000
  -29.4910  -20.7340   21.2230 C   0  0  0  0  0  0  0  0  0  0  0  0
  -29.4640  -21.9370   20.6070 N   0  0  0  0  0  0  0  0  0  0  0  0
  -29.4630  -20.6350   22.4510 O   0  0  0  0  0  0  0  0  0  0  0  0
  -29.4380  -21.9230   19.5930 H   0  0  0  0  0  0  0  0  0  0  0  0
  -29.7850  -18.1970   20.9460 C   0  0  0  0  0  3  0  0  0  0  0  0
  -29.9260  -17.1590   18.7480 C   0  0  0  0  0  3  0  0  0  0  0  0
  -29.6240  -19.4900   20.3540 C   0  0  0  0  0  0  0  0  0  0  0  0
  -29.9450  -17.0230   20.1570 C   0  0  0  0  0  0  0  0  0  0  0  0
  -29.7450  -18.4150   18.1490 C   0  0  0  0  0  0  0  0  0  0  0  0
  -29.5880  -19.5700   18.9370 C   0  0  0  0  0  0  0  0  0  0  0  0
  -29.7070  -18.5130   16.7980 F   0  0  0  0  0  0  0  0  0  0  0  0
  -29.3950  -20.7480   18.2950 F   0  0  0  0  0  0  0  0  0  0  0  0
  -30.7140  -14.6620   20.2240 C   0  0  0  0  0  0  0  0  0  0  0  0
  -30.3930  -12.4770   19.1270 C   0  0  0  0  0  2  0  0  0  0  0  0
  -29.4190  -12.6790   17.9460 C   0  0  0  0  0  2  0  0  0  0  0  0
  -27.9620  -12.5290   18.4210 C   0  0  0  0  0  2  0  0  0  0  0  0
  -27.6560  -13.3650   19.6950 C   0  0  0  0  0  3  0  0  0  0  0  0
  -28.7480  -13.1730   20.7740 C   0  0  0  0  0  2  0  0  0  0  0  0
  -30.0540  -13.4680   20.1650 N   0  0  0  0  0  0  0  0  0  0  0  0
  -31.8200  -14.8300   19.7030 O   0  0  0  0  0  0  0  0  0  0  0  0
  -30.0340  -15.7120   20.7480 N   0  0  0  0  0  0  0  0  0  0  0  0
  -29.3080  -15.4790   21.4090 H   0  0  0  0  0  0  0  0  0  0  0  0
  -25.2890  -13.9560   20.5080 C   0  0  0  0  0  0  0  0  0  0  0  0
  -24.2330  -13.1770   20.9000 C   0  0  0  0  0  0  0  0  0  0  0  0
  -24.6900  -11.8260   20.8240 C   0  0  0  0  0  0  0  0  0  0  0  0
  -26.3220  -13.0790   20.2180 N   0  0  0  0  0  0  0  0  0  0  0  0
  -25.9680  -11.7920   20.4660 N   0  0  0  0  0  0  0  0  0  0  0  0
  -23.9690  -10.5610   21.0200 C   0  0  0  0  0  0  0  0  0  0  0  0
  -24.4220   -9.5850   21.9340 C   0  0  0  0  0  3  0  0  0  0  0  0
  -23.6990   -8.3840   22.1160 C   0  0  0  0  0  3  0  0  0  0  0  0
  -22.5110   -8.1510   21.3830 C   0  0  0  0  0  0  0  0  0  0  0  0
  -22.0770   -9.1170   20.4580 C   0  0  0  0  0  3  0  0  0  0  0  0
  -22.7990  -10.3090   20.2750 C   0  0  0  0  0  3  0  0  0  0  0  0
  -21.7640   -7.0030   21.4730 O   0  0  0  0  0  0  0  0  0  0  0  0
  -21.7260   -6.2570   22.6250 C   0  0  0  0  0  0  0  0  0  0  0  0
  -21.2750   -6.7990   23.8490 C   0  0  0  0  0  3  0  0  0  0  0  0
  -21.1870   -5.9790   24.9920 C   0  0  0  0  0  3  0  0  0  0  0  0
  -21.5400   -4.6190   24.9100 C   0  0  0  0  0  0  0  0  0  0  0  0
  -21.9820   -4.0760   23.6920 C   0  0  0  0  0  3  0  0  0  0  0  0
  -22.0740   -4.8930   22.5520 C   0  0  0  0  0  0  0  0  0  0  0  0
  -22.4810   -4.3620   21.3730 F   0  0  0  0  0  0  0  0  0  0  0  0
  -21.4480   -3.8270   26.0060 F   0  0  0  0  0  0  0  0  0  0  0  0
  -22.8480  -13.6510   21.2330 C   0  0  0  0  0  0  0  0  0  0  0  0
  -22.1500  -12.9400   22.1090 N   0  0  0  0  0  0  0  0  0  0  0  0
  -22.3950  -14.6890   20.7510 O   0  0  0  0  0  0  0  0  0  0  0  0
  -22.5300  -12.1030   22.5280 H   0  0  0  0  0  0  0  0  0  0  0  0
  -21.2200  -13.2390   22.3690 H   0  0  0  0  0  0  0  0  0  0  0  0
  -25.4490  -15.3300   20.3560 N   0  0  0  0  0  0  0  0  0  0  0  0
  -24.6870  -15.9790   20.5090 H   0  0  0  0  0  0  0  0  0  0  0  0
  -26.2910  -15.7800   20.0220 H   0  0  0  0  0  0  0  0  0  0  0  0
  -30.9540  -23.6720   21.5140 C   0  0  0  0  0  1  0  0  0  0  0  0
  -29.4920  -23.2820   21.2170 C   0  0  0  0  0  3  0  0  0  0  0  0
  -28.7660  -24.3500   20.3420 C   0  0  0  0  0  0  0  0  0  0  0  0
  -28.5120  -24.1540   19.1480 O   0  0  0  0  0  0  0  0  0  0  0  0
  -28.3620  -25.6880   21.0080 C   0  0  0  0  0  2  0  0  0  0  0  0
  -28.3480  -26.7990   20.0800 O   0  0  0  0  0  0  0  0  0  0  0  0
  -24.5820  -31.9510   23.2830 C   0  0  0  0  0  0  0  0  0  0  0  0
  -27.1980  -27.5600   20.1130 C   0  0  0  0  0  0  0  0  0  0  0  0
  -23.3600  -30.5850   21.6180 C   0  0  0  0  0  3  0  0  0  0  0  0
  -24.8070  -29.0720   20.1570 C   0  0  0  0  0  0  0  0  0  0  0  0
  -25.8860  -30.9490   21.4070 C   0  0  0  0  0  2  0  0  0  0  0  0
  -25.9700  -29.5880   20.7430 C   0  0  0  0  0  0  0  0  0  0  0  0
  -27.1740  -28.8420   20.7140 C   0  0  0  0  0  3  0  0  0  0  0  0
  -26.0200  -27.0600   19.5220 C   0  0  0  0  0  3  0  0  0  0  0  0
  -24.8260  -27.8080   19.5420 C   0  0  0  0  0  3  0  0  0  0  0  0
  -23.5620  -29.9290   20.2260 C   0  0  0  0  0  2  0  0  0  0  0  0
  -24.6270  -31.1750   22.1620 N   0  0  0  0  0  0  0  0  0  0  0  0
  -23.5050  -32.2140   23.8380 O   0  0  0  0  0  0  0  0  0  0  0  0
  -22.7130  -29.5480   22.5650 C   0  0  0  0  0  0  0  0  0  0  0  0
  -21.3960  -29.3390   22.4180 N   0  0  0  0  0  0  0  0  0  0  0  0
  -23.3970  -28.9330   23.3890 O   0  0  0  0  0  0  0  0  0  0  0  0
  -20.9040  -29.8810   21.7230 H   0  0  0  0  0  0  0  0  0  0  0  0
  -18.0480  -28.0470   22.8340 C   0  0  0  0  0  0  0  0  0  0  0  0
  -20.5880  -28.3820   23.1740 C   0  0  0  0  0  3  0  0  0  0  0  0
  -20.7470  -26.9520   22.6100 C   0  0  0  0  0  2  0  0  0  0  0  0
  -19.6830  -26.5920   21.5680 C   0  0  0  0  0  2  0  0  0  0  0  0
  -18.2810  -26.6990   22.1720 C   0  0  0  0  0  2  0  0  0  0  0  0
  -19.1310  -28.8440   23.2910 C   0  0  0  0  0  0  0  0  0  0  0  0
  -18.8580  -30.1030   23.8680 C   0  0  0  0  0  3  0  0  0  0  0  0
  -17.5350  -30.5670   23.9950 C   0  0  0  0  0  3  0  0  0  0  0  0
  -16.4660  -29.7670   23.5540 C   0  0  0  0  0  3  0  0  0  0  0  0
  -16.7230  -28.5110   22.9780 C   0  0  0  0  0  3  0  0  0  0  0  0
  -25.8750  -32.5680   23.9040 C   0  0  0  0  0  3  0  0  0  0  0  0
  -26.3750  -31.8010   25.1910 C   0  0  1  0  0  0  0  0  0  0  0  0
  -25.2730  -31.5920   26.2530 C   0  0  0  0  0  1  0  0  0  0  0  0
  -26.9370  -30.4080   24.8160 C   0  0  0  0  0  1  0  0  0  0  0  0
  -27.5290  -32.5850   25.8560 C   0  0  0  0  0  1  0  0  0  0  0  0
  -25.5850  -33.9740   24.2160 N   0  0  0  0  0  0  0  0  0  0  0  0
  -25.9530  -35.0120   23.4520 C   0  0  0  0  0  0  0  0  0  0  0  0
  -26.6390  -34.8850   22.4340 O   0  0  0  0  0  0  0  0  0  0  0  0
  -24.9810  -34.1470   25.0040 H   0  0  0  0  0  0  0  0  0  0  0  0
  -24.2780  -36.8420   23.0340 C   0  0  0  0  0  1  0  0  0  0  0  0
  -25.4830  -36.4120   23.8870 C   0  0  0  0  0  3  0  0  0  0  0  0
  -27.6050  -37.2570   24.7900 C   0  0  0  0  0  1  0  0  0  0  0  0
  -26.5420  -37.4410   23.8050 N   0  0  0  0  0  0  0  0  0  0  0  0
  -26.1490  -38.3700   23.9310 H   0  0  0  0  0  0  0  0  0  0  0  0
  1  3  2  0
  2 52  1  0
  2  1  1  0
  4  2  1  0
  6  8  1  0
  7  5  1  0
  7  1  1  0
  8 21  1  0
  8  5  2  0
  9  6  2  0
  9 10  1  0
 10  7  2  0
 11  9  1  0
 12 10  1  0
 13 21  1  0
 14 19  1  0
 15 16  1  0
 15 14  1  0
 17 16  1  0
 17 26  1  0
 17 18  1  0
 19 13  1  0
 19 18  1  0
 20 13  2  0
 21 22  1  0
 23 24  2  0
 24 43  1  0
 25 24  1  0
 25 28  1  0
 26 27  1  0
 26 23  1  0
 27 25  2  0
 28 29  1  0
 29 30  2  0
 31 34  1  0
 31 30  1  0
 32 31  2  0
 33 32  1  0
 33 28  2  0
 34 35  1  0
 35 36  1  0
 36 37  2  0
 38 37  1  0
 38 42  1  0
 39 38  2  0
 40 35  2  0
 40 39  1  0
 41 40  1  0
 43 44  1  0
 44 47  1  0
 44 46  1  0
 45 43  2  0
 48 23  1  0
 48 49  1  0
 50 48  1  0
 52 51  1  0
 53 55  1  0
 53 52  1  0
 54 53  2  0
 56 58  1  0
 56 55  1  0
 57 68  2  0
 58 63  1  0
 59 67  1  0
 59 69  1  0
 60 66  1  0
 60 62  1  0
 61 67  1  0
 62 61  1  0
 63 62  2  0
 64 65  1  0
 64 58  2  0
 65 60  2  0
 66 59  1  0
 67 57  1  0
 69 71  2  0
 70 69  1  0
 72 70  1  0
 73 82  2  0
 73 78  1  0
 74 70  1  0
 74 78  1  0
 75 74  1  0
 76 77  1  0
 76 75  1  0
 77 73  1  0
 78 79  2  0
 79 80  1  0
 81 80  2  0
 82 81  1  0
 83 57  1  0
 83 88  1  0
 83 84  1  0
 84 87  1  1
 84 85  1  0
 86 84  1  0
 88 91  1  0
 89 93  1  0
 89 88  1  0
 90 89  2  0
 93 92  1  0
 95 93  1  0
 95 96  1  0
 95 94  1  0
M  ISO  4  13 100  21 100  55 101  56 101
M  END
>  <TORSDO>  (36) 
F 20

>  <SCORE>  (36) 
-13.666

>  <name>  (36) 
35

>  <ligand_id>  (36) 
35

>  <original_smiles>  (36) 
[H]c1c([H])c([H])c2c(c1[H])C([H])([H])C([H])([H])C([H])([H])C2([H])N([H])C(=O)C1([H])N(C(=O)C([H])(N([H])C(=O)C([H])(N([H])C([H])([H])[H])C([H])([H])[H])C(C([H])([H])[H])(C([H])([H])[H])C([H])([H])[H])C([H])([H])c2c([H])c(OC([H])([H])C(=O)C([H])(N([H])C(=O)c3c([H])c(N([H])C(=O)N4C([H])([H])C([H])([H])C([H])([H])C([H])(n5nc(-c6c([H])c([H])c(Oc7c([H])c([H])c(F)c([H])c7F)c([H])c6[H])c(C(=O)N([H])[H])c5N([H])[H])C4([H])[H])c([H])c(F)c3F)C([H])([H])[H])c([H])c([H])c2C1([H])[H]

>  <smiles>  (36) 
[H]c1c([H])c([H])c2c(c1[H])C([H])([H])C([H])([H])C([H])([H])C2([H])N([H])C(=O)C1([H])N(C(=O)C([H])(N([H])C(=O)C([H])(N([H])C([H])([H])[H])C([H])([H])[H])C(C([H])([H])[H])(C([H])([H])[H])C([H])([H])[H])C([H])([H])c2c([H])c(OC([H])([H])C(=O)C([H])(N([H])C(=O)c3c([H])c(N([H])C(=O)N4C([H])([H])C([H])([H])C([H])([H])C([H])(n5nc(-c6c([H])c([H])c(Oc7c([H])c([H])c(F)c([H])c7F)c([H])c6[H])c(C(=O)N([H])[H])c5N([H])[H])C4([H])[H])c([H])c(F)c3F)C([H])([H])[H])c([H])c([H])c2C1([H])[H]

$$$$
36:0:0
     RDKit          3D

 94102  0  0  1  0  0  0  0  0999 V2000
  -28.4600  -20.2320   21.0550 C   0  0  0  0  0  3  0  0  0  0  0  0
  -28.4130  -18.9380   21.6030 C   0  0  0  0  0  3  0  0  0  0  0  0
  -29.8850  -18.0870   19.8370 C   0  0  0  0  0  0  0  0  0  0  0  0
  -29.2220  -20.4870   19.8970 C   0  0  0  0  0  0  0  0  0  0  0  0
  -29.9250  -19.4060   19.2970 C   0  0  0  0  0  0  0  0  0  0  0  0
  -29.1210  -17.8720   21.0160 C   0  0  0  0  0  0  0  0  0  0  0  0
  -30.6670  -19.6590   18.1900 F   0  0  0  0  0  0  0  0  0  0  0  0
  -29.0420  -16.3370   21.8100 Cl  0  0  0  0  0  0  0  0  0  0  0  0
  -29.2970  -21.7810   19.3300 N   0  0  0  0  0  0  0  0  0  0  0  0
  -29.9920  -21.9230   18.5990 H   0  0  0  0  0  0  0  0  0  0  0  0
  -28.9230  -22.9730   20.1150 C   0  0  0  0  0  2  0  0  0  0  0  0
  -29.0650  -24.3300   19.3820 C   0  0  0  0  0  0  0  0  0  0  0  0
  -29.4130  -24.3820   18.1970 O   0  0  0  0  0  0  0  0  0  0  0  0
  -28.7660  -25.6040   20.2080 C   0  0  0  0  0  2  0  0  0  0  0  0
  -28.7450  -26.8110   19.4190 O   0  0  0  0  0  0  0  0  0  0  0  0
  -24.7600  -31.5210   22.9950 C   0  0  0  0  0  0  0  0  0  0  0  0
  -27.5550  -27.4970   19.5060 C   0  0  0  0  0  0  0  0  0  0  0  0
  -23.5810  -30.1640   21.2960 C   0  0  0  0  0  3  0  0  0  0  0  0
  -25.0730  -28.8340   19.7090 C   0  0  0  0  0  0  0  0  0  0  0  0
  -26.0690  -30.7050   21.0360 C   0  0  0  0  0  2  0  0  0  0  0  0
  -26.2190  -29.3940   20.2920 C   0  0  0  0  0  0  0  0  0  0  0  0
  -27.4650  -28.7330   20.1850 C   0  0  0  0  0  3  0  0  0  0  0  0
  -26.3960  -26.9510   18.9170 C   0  0  0  0  0  3  0  0  0  0  0  0
  -25.1570  -27.6120   19.0190 C   0  0  0  0  0  3  0  0  0  0  0  0
  -23.7780  -29.6000   19.8630 C   0  0  0  0  0  2  0  0  0  0  0  0
  -24.8230  -30.8080   21.8340 N   0  0  0  0  0  0  0  0  0  0  0  0
  -23.6850  -31.6800   23.5910 O   0  0  0  0  0  0  0  0  0  0  0  0
  -23.0360  -29.0350   22.2000 C   0  0  0  0  0  0  0  0  0  0  0  0
  -21.7310  -28.7410   22.0690 N   0  0  0  0  0  0  0  0  0  0  0  0
  -23.7810  -28.4290   22.9740 O   0  0  0  0  0  0  0  0  0  0  0  0
  -21.1870  -29.2880   21.4170 H   0  0  0  0  0  0  0  0  0  0  0  0
  -18.4960  -27.1830   22.4720 C   0  0  0  0  0  0  0  0  0  0  0  0
  -21.0100  -27.6900   22.7870 C   0  0  0  0  0  3  0  0  0  0  0  0
  -21.2650  -26.3050   22.1500 C   0  0  0  0  0  2  0  0  0  0  0  0
  -20.2110  -25.9160   21.1080 C   0  0  0  0  0  2  0  0  0  0  0  0
  -18.8160  -25.8900   21.7400 C   0  0  0  0  0  2  0  0  0  0  0  0
  -19.5260  -28.0360   22.9490 C   0  0  0  0  0  0  0  0  0  0  0  0
  -19.1730  -29.2440   23.5900 C   0  0  0  0  0  3  0  0  0  0  0  0
  -17.8220  -29.6010   23.7590 C   0  0  0  0  0  3  0  0  0  0  0  0
  -16.8070  -28.7460   23.2990 C   0  0  0  0  0  3  0  0  0  0  0  0
  -17.1440  -27.5380   22.6620 C   0  0  0  0  0  3  0  0  0  0  0  0
  -26.0260  -32.1900   23.6150 C   0  0  0  0  0  3  0  0  0  0  0  0
  -25.6420  -33.5340   24.0640 N   0  0  0  0  0  0  0  0  0  0  0  0
  -25.8810  -34.6620   23.3810 C   0  0  0  0  0  0  0  0  0  0  0  0
  -26.5200  -34.6820   22.3260 O   0  0  0  0  0  0  0  0  0  0  0  0
  -25.0680  -33.5870   24.8930 H   0  0  0  0  0  0  0  0  0  0  0  0
  -24.0320  -36.3560   23.2160 C   0  0  0  0  0  1  0  0  0  0  0  0
  -25.3210  -35.9740   23.9600 C   0  0  0  0  0  3  0  0  0  0  0  0
  -27.4220  -36.9270   24.8000 C   0  0  0  0  0  1  0  0  0  0  0  0
  -26.2790  -37.1010   23.9080 N   0  0  0  0  0  0  0  0  0  0  0  0
  -25.8190  -37.9750   24.1490 H   0  0  0  0  0  0  0  0  0  0  0  0
  -26.6490  -31.3600   24.8040 C   0  0  1  0  0  0  0  0  0  0  0  0
  -25.6160  -30.9370   25.8750 C   0  0  0  0  0  1  0  0  0  0  0  0
  -27.3310  -30.0770   24.2740 C   0  0  0  0  0  1  0  0  0  0  0  0
  -27.7520  -32.1900   25.5030 C   0  0  0  0  0  1  0  0  0  0  0  0
  -30.7420  -16.9810   19.1790 C   0  0  0  0  0  2  0  0  0  0  0  0
  -31.1170  -14.5110   19.0200 C   0  0  0  0  0  0  0  0  0  0  0  0
  -30.8550  -12.1670   18.3050 C   0  0  0  0  0  2  0  0  0  0  0  0
  -29.7370  -12.0970   17.2440 C   0  0  0  0  0  2  0  0  0  0  0  0
  -28.3560  -11.9450   17.9140 C   0  0  0  0  0  2  0  0  0  0  0  0
  -28.1310  -12.9670   19.0600 C   0  0  0  0  0  3  0  0  0  0  0  0
  -29.3480  -13.0120   20.0120 C   0  0  0  0  0  2  0  0  0  0  0  0
  -30.5440  -13.2920   19.2020 N   0  0  0  0  0  0  0  0  0  0  0  0
  -32.1470  -14.6720   18.3600 O   0  0  0  0  0  0  0  0  0  0  0  0
  -30.4080  -15.5690   19.4580 N   0  0  0  0  0  0  0  0  0  0  0  0
  -29.5760  -15.3850   19.9980 H   0  0  0  0  0  0  0  0  0  0  0  0
  -25.9620  -13.5900   20.2970 C   0  0  0  0  0  0  0  0  0  0  0  0
  -24.9480  -12.8260   20.8070 C   0  0  0  0  0  0  0  0  0  0  0  0
  -25.3150  -11.4670   20.5590 C   0  0  0  0  0  0  0  0  0  0  0  0
  -26.8880  -12.6980   19.7790 N   0  0  0  0  0  0  0  0  0  0  0  0
  -26.5130  -11.4100   19.9910 N   0  0  0  0  0  0  0  0  0  0  0  0
  -24.5700  -10.2210   20.7800 C   0  0  0  0  0  0  0  0  0  0  0  0
  -25.0360   -9.2300   21.6730 C   0  0  0  0  0  3  0  0  0  0  0  0
  -24.2930   -8.0470   21.8810 C   0  0  0  0  0  3  0  0  0  0  0  0
  -23.0710   -7.8470   21.1940 C   0  0  0  0  0  0  0  0  0  0  0  0
  -22.6260   -8.8250   20.2890 C   0  0  0  0  0  3  0  0  0  0  0  0
  -23.3680  -10.0000   20.0790 C   0  0  0  0  0  3  0  0  0  0  0  0
  -22.2960   -6.7190   21.3150 O   0  0  0  0  0  0  0  0  0  0  0  0
  -22.1620   -6.0620   22.5110 C   0  0  0  0  0  0  0  0  0  0  0  0
  -21.6650   -6.7070   23.6640 C   0  0  0  0  0  3  0  0  0  0  0  0
  -21.4780   -5.9760   24.8540 C   0  0  0  0  0  3  0  0  0  0  0  0
  -21.7780   -4.6020   24.8930 C   0  0  0  0  0  0  0  0  0  0  0  0
  -22.2680   -3.9560   23.7440 C   0  0  0  0  0  3  0  0  0  0  0  0
  -22.4570   -4.6850   22.5550 C   0  0  0  0  0  0  0  0  0  0  0  0
  -22.9090   -4.0530   21.4450 F   0  0  0  0  0  0  0  0  0  0  0  0
  -21.5910   -3.8970   26.0330 F   0  0  0  0  0  0  0  0  0  0  0  0
  -23.6630  -13.3250   21.4030 C   0  0  0  0  0  0  0  0  0  0  0  0
  -23.1050  -12.5900   22.3590 N   0  0  0  0  0  0  0  0  0  0  0  0
  -23.1710  -14.3980   21.0580 O   0  0  0  0  0  0  0  0  0  0  0  0
  -23.5180  -11.7180   22.6570 H   0  0  0  0  0  0  0  0  0  0  0  0
  -22.2520  -12.9030   22.8000 H   0  0  0  0  0  0  0  0  0  0  0  0
  -26.1660  -14.9650   20.2110 N   0  0  0  0  0  0  0  0  0  0  0  0
  -25.4810  -15.6360   20.5390 H   0  0  0  0  0  0  0  0  0  0  0  0
  -26.9580  -15.4000   19.7560 H   0  0  0  0  0  0  0  0  0  0  0  0
  1  2  1  0
  3  6  1  0
  4  1  2  0
  5  3  2  0
  5  4  1  0
  6  2  2  0
  6  8  1  0
  7  5  1  0
  9  4  1  0
  9 11  1  0
 10  9  1  0
 12 11  1  0
 12 14  1  0
 13 12  2  0
 15 17  1  0
 15 14  1  0
 16 27  2  0
 17 22  1  0
 18 26  1  0
 18 28  1  0
 19 25  1  0
 19 21  1  0
 20 26  1  0
 21 20  1  0
 22 21  2  0
 23 24  1  0
 23 17  2  0
 24 19  2  0
 25 18  1  0
 26 16  1  0
 28 30  2  0
 29 28  1  0
 31 29  1  0
 32 41  2  0
 32 37  1  0
 33 29  1  0
 33 37  1  0
 34 33  1  0
 35 36  1  0
 35 34  1  0
 36 32  1  0
 37 38  2  0
 38 39  1  0
 40 39  2  0
 41 40  1  0
 42 16  1  0
 42 43  1  0
 42 52  1  0
 43 46  1  0
 44 48  1  0
 44 43  1  0
 45 44  2  0
 48 47  1  0
 50 48  1  0
 50 51  1  0
 50 49  1  0
 52 55  1  1
 52 53  1  0
 54 52  1  0
 56 65  1  0
 56  3  1  0
 57 63  1  0
 57 65  1  0
 58 63  1  0
 59 60  1  0
 59 58  1  0
 61 60  1  0
 61 70  1  0
 61 62  1  0
 63 62  1  0
 64 57  2  0
 65 66  1  0
 67 68  2  0
 68 87  1  0
 69 72  1  0
 69 68  1  0
 70 71  1  0
 70 67  1  0
 71 69  2  0
 72 73  1  0
 73 74  2  0
 75 78  1  0
 75 74  1  0
 76 75  2  0
 77 76  1  0
 77 72  2  0
 78 79  1  0
 79 84  2  0
 79 80  1  0
 80 81  2  0
 81 82  1  0
 82 86  1  0
 83 82  2  0
 84 83  1  0
 85 84  1  0
 87 88  1  0
 88 90  1  0
 88 91  1  0
 89 87  2  0
 92 67  1  0
 92 93  1  0
 94 92  1  0
M  ISO  4  14 101  15 101  57 100  65 100
M  END
>  <TORSDO>  (37) 
F 21

>  <SCORE>  (37) 
-7.849

>  <name>  (37) 
36

>  <ligand_id>  (37) 
36

>  <original_smiles>  (37) 
[H]c1c([H])c([H])c2c(c1[H])C([H])([H])C([H])([H])C([H])([H])C2([H])N([H])C(=O)C1([H])N(C(=O)C([H])(N([H])C(=O)C([H])(N([H])C([H])([H])[H])C([H])([H])[H])C(C([H])([H])[H])(C([H])([H])[H])C([H])([H])[H])C([H])([H])c2c([H])c(OC([H])([H])C(=O)C([H])([H])N([H])c3c([H])c([H])c(Cl)c(C([H])([H])N([H])C(=O)N4C([H])([H])C([H])([H])C([H])([H])C([H])(n5nc(-c6c([H])c([H])c(Oc7c([H])c([H])c(F)c([H])c7F)c([H])c6[H])c(C(=O)N([H])[H])c5N([H])[H])C4([H])[H])c3F)c([H])c([H])c2C1([H])[H]

>  <smiles>  (37) 
[H]c1c([H])c([H])c2c(c1[H])C([H])([H])C([H])([H])C([H])([H])C2([H])N([H])C(=O)C1([H])N(C(=O)C([H])(N([H])C(=O)C([H])(N([H])C([H])([H])[H])C([H])([H])[H])C(C([H])([H])[H])(C([H])([H])[H])C([H])([H])[H])C([H])([H])c2c([H])c(OC([H])([H])C(=O)C([H])([H])N([H])c3c([H])c([H])c(Cl)c(C([H])([H])N([H])C(=O)N4C([H])([H])C([H])([H])C([H])([H])C([H])(n5nc(-c6c([H])c([H])c(Oc7c([H])c([H])c(F)c([H])c7F)c([H])c6[H])c(C(=O)N([H])[H])c5N([H])[H])C4([H])[H])c3F)c([H])c([H])c2C1([H])[H]

$$$$
37:0:0
     RDKit          3D

 94102  0  0  1  0  0  0  0  0999 V2000
  -29.1450  -21.8920   20.3000 C   0  0  0  0  0  0  0  0  0  0  0  0
  -28.8430  -20.5830   20.5150 N   0  0  0  0  0  0  0  0  0  0  0  0
  -30.2380  -22.3040   19.8950 O   0  0  0  0  0  0  0  0  0  0  0  0
  -27.9660  -20.4390   20.9980 H   0  0  0  0  0  0  0  0  0  0  0  0
  -30.2290  -19.4730   18.7960 C   0  0  0  0  0  3  0  0  0  0  0  0
  -30.7690  -18.3110   18.2230 C   0  0  0  0  0  3  0  0  0  0  0  0
  -29.3990  -18.1400   20.6630 C   0  0  0  0  0  3  0  0  0  0  0  0
  -29.5160  -19.4100   20.0150 C   0  0  0  0  0  0  0  0  0  0  0  0
  -29.9820  -16.9550   20.1130 C   0  0  0  0  0  0  0  0  0  0  0  0
  -30.6280  -17.0630   18.8510 C   0  0  0  0  0  0  0  0  0  0  0  0
  -31.0720  -15.9720   18.1830 F   0  0  0  0  0  0  0  0  0  0  0  0
  -30.6390  -14.5890   20.6520 C   0  0  0  0  0  0  0  0  0  0  0  0
  -30.4520  -12.3530   19.6480 C   0  0  0  0  0  2  0  0  0  0  0  0
  -29.5710  -12.4840   18.3870 C   0  0  0  0  0  2  0  0  0  0  0  0
  -28.0790  -12.3400   18.7470 C   0  0  0  0  0  2  0  0  0  0  0  0
  -27.6630  -13.2300   19.9480 C   0  0  0  0  0  3  0  0  0  0  0  0
  -28.6630  -13.0930   21.1190 C   0  0  0  0  0  2  0  0  0  0  0  0
  -30.0070  -13.3840   20.5990 N   0  0  0  0  0  0  0  0  0  0  0  0
  -31.8460  -14.7060   20.4190 O   0  0  0  0  0  0  0  0  0  0  0  0
  -29.8320  -15.6730   20.7740 N   0  0  0  0  0  0  0  0  0  0  0  0
  -28.9220  -15.4910   21.1680 H   0  0  0  0  0  0  0  0  0  0  0  0
  -25.2340  -13.8380   20.5310 C   0  0  0  0  0  0  0  0  0  0  0  0
  -24.1530  -13.0680   20.8650 C   0  0  0  0  0  0  0  0  0  0  0  0
  -24.6210  -11.7190   20.8900 C   0  0  0  0  0  0  0  0  0  0  0  0
  -26.2920  -12.9570   20.3710 N   0  0  0  0  0  0  0  0  0  0  0  0
  -25.9260  -11.6790   20.6490 N   0  0  0  0  0  0  0  0  0  0  0  0
  -23.8930  -10.4570   21.0740 C   0  0  0  0  0  0  0  0  0  0  0  0
  -24.2960   -9.5060   22.0360 C   0  0  0  0  0  3  0  0  0  0  0  0
  -23.5700   -8.3070   22.2050 C   0  0  0  0  0  3  0  0  0  0  0  0
  -22.4270   -8.0530   21.4110 C   0  0  0  0  0  0  0  0  0  0  0  0
  -22.0430   -8.9930   20.4400 C   0  0  0  0  0  3  0  0  0  0  0  0
  -22.7700  -10.1830   20.2690 C   0  0  0  0  0  3  0  0  0  0  0  0
  -21.6750   -6.9050   21.4890 O   0  0  0  0  0  0  0  0  0  0  0  0
  -21.5980   -6.1700   22.6440 C   0  0  0  0  0  0  0  0  0  0  0  0
  -21.1360   -6.7320   23.8550 C   0  0  0  0  0  3  0  0  0  0  0  0
  -21.0060   -5.9240   25.0020 C   0  0  0  0  0  3  0  0  0  0  0  0
  -21.3300   -4.5550   24.9400 C   0  0  0  0  0  0  0  0  0  0  0  0
  -21.7860   -3.9930   23.7340 C   0  0  0  0  0  3  0  0  0  0  0  0
  -21.9160   -4.7980   22.5890 C   0  0  0  0  0  0  0  0  0  0  0  0
  -22.3370   -4.2480   21.4250 F   0  0  0  0  0  0  0  0  0  0  0  0
  -21.1980   -3.7760   26.0390 F   0  0  0  0  0  0  0  0  0  0  0  0
  -22.7410  -13.5430   21.0570 C   0  0  0  0  0  0  0  0  0  0  0  0
  -21.9740  -12.8620   21.9000 N   0  0  0  0  0  0  0  0  0  0  0  0
  -22.3250  -14.5540   20.4920 O   0  0  0  0  0  0  0  0  0  0  0  0
  -22.3210  -12.0460   22.3810 H   0  0  0  0  0  0  0  0  0  0  0  0
  -21.0240  -13.1660   22.0690 H   0  0  0  0  0  0  0  0  0  0  0  0
  -25.4030  -15.2040   20.3290 N   0  0  0  0  0  0  0  0  0  0  0  0
  -24.6280  -15.8590   20.3800 H   0  0  0  0  0  0  0  0  0  0  0  0
  -26.2620  -15.6340   20.0090 H   0  0  0  0  0  0  0  0  0  0  0  0
  -27.9780  -22.8770   20.6570 C   0  0  0  0  0  0  0  0  0  0  0  0
  -26.8060  -22.4840   20.7000 O   0  0  0  0  0  0  0  0  0  0  0  0
  -28.2970  -24.3560   20.9970 C   0  0  0  0  0  2  0  0  0  0  0  0
  -28.5000  -25.3180   19.7920 C   0  0  0  0  0  2  0  0  0  0  0  0
  -28.4450  -26.7230   20.1580 O   0  0  0  0  0  0  0  0  0  0  0  0
  -24.6040  -31.8960   23.2460 C   0  0  0  0  0  0  0  0  0  0  0  0
  -27.2510  -27.4330   20.1530 C   0  0  0  0  0  0  0  0  0  0  0  0
  -23.4000  -30.4940   21.6040 C   0  0  0  0  0  3  0  0  0  0  0  0
  -24.8530  -28.9630   20.1750 C   0  0  0  0  0  0  0  0  0  0  0  0
  -25.9280  -30.8530   21.4050 C   0  0  0  0  0  2  0  0  0  0  0  0
  -26.0150  -29.4800   20.7590 C   0  0  0  0  0  0  0  0  0  0  0  0
  -27.2130  -28.7250   20.7410 C   0  0  0  0  0  3  0  0  0  0  0  0
  -26.0600  -26.9340   19.5750 C   0  0  0  0  0  3  0  0  0  0  0  0
  -24.8730  -27.6900   19.5820 C   0  0  0  0  0  3  0  0  0  0  0  0
  -23.6100  -29.8220   20.2220 C   0  0  0  0  0  2  0  0  0  0  0  0
  -24.6630  -31.0970   22.1420 N   0  0  0  0  0  0  0  0  0  0  0  0
  -23.5210  -32.1640   23.7870 O   0  0  0  0  0  0  0  0  0  0  0  0
  -22.7530  -29.4680   22.5630 C   0  0  0  0  0  0  0  0  0  0  0  0
  -21.4290  -29.2830   22.4390 N   0  0  0  0  0  0  0  0  0  0  0  0
  -23.4410  -28.8420   23.3750 O   0  0  0  0  0  0  0  0  0  0  0  0
  -20.9350  -29.8400   21.7560 H   0  0  0  0  0  0  0  0  0  0  0  0
  -18.0590  -28.0790   22.9430 C   0  0  0  0  0  0  0  0  0  0  0  0
  -20.6170  -28.3400   23.2090 C   0  0  0  0  0  3  0  0  0  0  0  0
  -20.7200  -26.9120   22.6270 C   0  0  0  0  0  2  0  0  0  0  0  0
  -19.6160  -26.5900   21.6140 C   0  0  0  0  0  2  0  0  0  0  0  0
  -18.2360  -26.7320   22.2630 C   0  0  0  0  0  2  0  0  0  0  0  0
  -19.1780  -28.8410   23.3730 C   0  0  0  0  0  0  0  0  0  0  0  0
  -18.9600  -30.1020   23.9700 C   0  0  0  0  0  3  0  0  0  0  0  0
  -17.6550  -30.6000   24.1410 C   0  0  0  0  0  3  0  0  0  0  0  0
  -16.5500  -29.8350   23.7270 C   0  0  0  0  0  3  0  0  0  0  0  0
  -16.7530  -28.5760   23.1350 C   0  0  0  0  0  3  0  0  0  0  0  0
  -25.8870  -32.5320   23.8650 C   0  0  0  0  0  3  0  0  0  0  0  0
  -26.4060  -31.7640   25.1420 C   0  0  1  0  0  0  0  0  0  0  0  0
  -25.3150  -31.5280   26.2120 C   0  0  0  0  0  1  0  0  0  0  0  0
  -26.9910  -30.3860   24.7510 C   0  0  0  0  0  1  0  0  0  0  0  0
  -27.5570  -32.5620   25.8000 C   0  0  0  0  0  1  0  0  0  0  0  0
  -25.5760  -33.9300   24.1910 N   0  0  0  0  0  0  0  0  0  0  0  0
  -25.9060  -34.9810   23.4270 C   0  0  0  0  0  0  0  0  0  0  0  0
  -26.5770  -34.8750   22.3960 O   0  0  0  0  0  0  0  0  0  0  0  0
  -24.9810  -34.0860   24.9910 H   0  0  0  0  0  0  0  0  0  0  0  0
  -24.1770  -36.7700   23.0600 C   0  0  0  0  0  1  0  0  0  0  0  0
  -25.4150  -36.3690   23.8780 C   0  0  0  0  0  3  0  0  0  0  0  0
  -27.5450  -37.2590   24.7160 C   0  0  0  0  0  1  0  0  0  0  0  0
  -26.4470  -37.4230   23.7670 N   0  0  0  0  0  0  0  0  0  0  0  0
  -26.0390  -38.3430   23.9100 H   0  0  0  0  0  0  0  0  0  0  0  0
  1  2  1  0
  1 50  1  0
  2  4  1  0
  3  1  2  0
  5  8  1  0
  6  5  2  0
  6 10  1  0
  8  2  1  0
  8  7  2  0
  9  7  1  0
  9 20  1  0
 10  9  2  0
 11 10  1  0
 12 20  1  0
 13 18  1  0
 14 15  1  0
 14 13  1  0
 16 15  1  0
 16 25  1  0
 16 17  1  0
 18 12  1  0
 18 17  1  0
 19 12  2  0
 20 21  1  0
 22 23  2  0
 23 24  1  0
 23 42  1  0
 24 27  1  0
 25 22  1  0
 25 26  1  0
 26 24  2  0
 27 28  1  0
 28 29  2  0
 30 33  1  0
 30 29  1  0
 31 30  2  0
 32 31  1  0
 32 27  2  0
 33 34  1  0
 34 35  1  0
 35 36  2  0
 37 36  1  0
 37 41  1  0
 38 37  2  0
 39 34  2  0
 39 38  1  0
 40 39  1  0
 42 43  1  0
 43 46  1  0
 43 45  1  0
 44 42  2  0
 47 48  1  0
 47 22  1  0
 49 47  1  0
 50 51  2  0
 50 52  1  0
 53 54  1  0
 53 52  1  0
 55 66  2  0
 56 54  1  0
 56 61  1  0
 57 65  1  0
 57 67  1  0
 58 64  1  0
 58 60  1  0
 59 65  1  0
 60 59  1  0
 61 60  2  0
 62 63  1  0
 62 56  2  0
 63 58  2  0
 64 57  1  0
 65 55  1  0
 67 69  2  0
 68 67  1  0
 70 68  1  0
 71 80  2  0
 71 76  1  0
 72 68  1  0
 72 76  1  0
 73 72  1  0
 74 75  1  0
 74 73  1  0
 75 71  1  0
 76 77  2  0
 77 78  1  0
 79 78  2  0
 80 79  1  0
 81 55  1  0
 81 86  1  0
 81 82  1  0
 82 85  1  1
 82 83  1  0
 84 82  1  0
 86 89  1  0
 87 91  1  0
 87 86  1  0
 88 87  2  0
 91 90  1  0
 93 91  1  0
 93 94  1  0
 93 92  1  0
M  ISO  4  12 100  20 100  53 101  54 101
M  END
>  <TORSDO>  (38) 
F 20

>  <SCORE>  (38) 
-13.854

>  <name>  (38) 
37

>  <ligand_id>  (38) 
37

>  <original_smiles>  (38) 
[H]c1c([H])c([H])c2c(c1[H])C([H])([H])C([H])([H])C([H])([H])C2([H])N([H])C(=O)C1([H])N(C(=O)C([H])(N([H])C(=O)C([H])(N([H])C([H])([H])[H])C([H])([H])[H])C(C([H])([H])[H])(C([H])([H])[H])C([H])([H])[H])C([H])([H])c2c([H])c(OC([H])([H])C([H])([H])C(=O)C(=O)N([H])c3c([H])c([H])c(F)c(N([H])C(=O)N4C([H])([H])C([H])([H])C([H])([H])C([H])(n5nc(-c6c([H])c([H])c(Oc7c([H])c([H])c(F)c([H])c7F)c([H])c6[H])c(C(=O)N([H])[H])c5N([H])[H])C4([H])[H])c3[H])c([H])c([H])c2C1([H])[H]

>  <smiles>  (38) 
[H]c1c([H])c([H])c2c(c1[H])C([H])([H])C([H])([H])C([H])([H])C2([H])N([H])C(=O)C1([H])N(C(=O)C([H])(N([H])C(=O)C([H])(N([H])C([H])([H])[H])C([H])([H])[H])C(C([H])([H])[H])(C([H])([H])[H])C([H])([H])[H])C([H])([H])c2c([H])c(OC([H])([H])C([H])([H])C(=O)C(=O)N([H])c3c([H])c([H])c(F)c(N([H])C(=O)N4C([H])([H])C([H])([H])C([H])([H])C([H])(n5nc(-c6c([H])c([H])c(Oc7c([H])c([H])c(F)c([H])c7F)c([H])c6[H])c(C(=O)N([H])[H])c5N([H])[H])C4([H])[H])c3[H])c([H])c([H])c2C1([H])[H]

$$$$
38:0:0
     RDKit          3D

 95104  0  0  1  0  0  0  0  0999 V2000
  -27.2250  -23.4060   21.0040 C   0  0  0  0  0  0  0  0  0  0  0  0
  -27.4020  -21.8290   18.5630 C   0  0  0  0  0  2  0  0  0  0  0  0
  -26.1680  -22.7090   18.8850 C   0  0  0  0  0  2  0  0  0  0  0  0
  -28.7230  -22.1120   19.3370 C   0  0  0  0  0  3  0  0  0  0  0  0
  -28.5320  -23.5150   20.2270 C   0  0  0  0  0  3  0  0  0  0  0  0
  -26.1360  -23.1410   20.2790 N   0  0  0  0  0  0  0  0  0  0  0  0
  -27.1750  -23.6320   22.2130 O   0  0  0  0  0  0  0  0  0  0  0  0
  -25.2360  -23.3440   20.6940 H   0  0  0  0  0  0  0  0  0  0  0  0
  -28.9120  -19.9130   20.9620 C   0  0  0  0  0  3  0  0  0  0  0  0
  -29.1660  -18.4920   21.1480 C   0  0  0  0  0  3  0  0  0  0  0  0
  -30.2870  -18.3780   19.0810 C   0  0  0  0  0  3  0  0  0  0  0  0
  -29.2850  -20.6290   19.7840 C   0  0  0  0  0  0  0  0  0  0  0  0
  -29.8420  -17.6260   20.2160 C   0  0  0  0  0  0  0  0  0  0  0  0
  -30.0220  -19.7920   18.8730 C   0  0  0  0  0  0  0  0  0  0  0  0
  -30.4380  -20.3280   17.7000 F   0  0  0  0  0  0  0  0  0  0  0  0
  -30.6910  -15.0290   19.9390 C   0  0  0  0  0  0  0  0  0  0  0  0
  -30.5660  -12.7030   18.9560 C   0  0  0  0  0  2  0  0  0  0  0  0
  -29.5560  -12.7020   17.7850 C   0  0  0  0  0  2  0  0  0  0  0  0
  -28.1110  -12.4970   18.2850 C   0  0  0  0  0  2  0  0  0  0  0  0
  -27.7840  -13.3780   19.5210 C   0  0  0  0  0  3  0  0  0  0  0  0
  -28.9050  -13.3130   20.5820 C   0  0  0  0  0  2  0  0  0  0  0  0
  -30.1480  -13.7490   19.9300 N   0  0  0  0  0  0  0  0  0  0  0  0
  -31.8210  -15.1900   19.4570 O   0  0  0  0  0  0  0  0  0  0  0  0
  -29.9190  -16.1120   20.4150 N   0  0  0  0  0  0  0  0  0  0  0  0
  -29.1830  -15.7650   21.0100 H   0  0  0  0  0  0  0  0  0  0  0  0
  -25.4500  -13.9290   20.4280 C   0  0  0  0  0  0  0  0  0  0  0  0
  -24.4150  -13.1440   20.8400 C   0  0  0  0  0  0  0  0  0  0  0  0
  -24.8710  -11.7930   20.7290 C   0  0  0  0  0  0  0  0  0  0  0  0
  -26.4760  -13.0640   20.0870 N   0  0  0  0  0  0  0  0  0  0  0  0
  -26.1370  -11.7680   20.3260 N   0  0  0  0  0  0  0  0  0  0  0  0
  -24.1540  -10.5250   20.9200 C   0  0  0  0  0  0  0  0  0  0  0  0
  -24.5790   -9.5650   21.8660 C   0  0  0  0  0  3  0  0  0  0  0  0
  -23.8590   -8.3650   22.0420 C   0  0  0  0  0  3  0  0  0  0  0  0
  -22.6960   -8.1140   21.2750 C   0  0  0  0  0  0  0  0  0  0  0  0
  -22.2920   -9.0610   20.3170 C   0  0  0  0  0  3  0  0  0  0  0  0
  -23.0130  -10.2530   20.1390 C   0  0  0  0  0  3  0  0  0  0  0  0
  -21.9490   -6.9660   21.3620 O   0  0  0  0  0  0  0  0  0  0  0  0
  -21.8100   -6.2820   22.5440 C   0  0  0  0  0  0  0  0  0  0  0  0
  -21.2520   -6.8850   23.6900 C   0  0  0  0  0  3  0  0  0  0  0  0
  -21.0660   -6.1290   24.8630 C   0  0  0  0  0  3  0  0  0  0  0  0
  -21.4270   -4.7690   24.8920 C   0  0  0  0  0  0  0  0  0  0  0  0
  -21.9760   -4.1630   23.7470 C   0  0  0  0  0  3  0  0  0  0  0  0
  -22.1670   -4.9180   22.5740 C   0  0  0  0  0  0  0  0  0  0  0  0
  -22.6770   -4.3230   21.4710 F   0  0  0  0  0  0  0  0  0  0  0  0
  -21.2410   -4.0400   26.0150 F   0  0  0  0  0  0  0  0  0  0  0  0
  -23.0380  -13.6090   21.2250 C   0  0  0  0  0  0  0  0  0  0  0  0
  -22.3650  -12.8880   22.1100 N   0  0  0  0  0  0  0  0  0  0  0  0
  -22.5760  -14.6600   20.7750 O   0  0  0  0  0  0  0  0  0  0  0  0
  -22.7500  -12.0420   22.5030 H   0  0  0  0  0  0  0  0  0  0  0  0
  -21.4500  -13.1900   22.4050 H   0  0  0  0  0  0  0  0  0  0  0  0
  -25.6030  -15.3090   20.2890 N   0  0  0  0  0  0  0  0  0  0  0  0
  -24.8350  -15.9530   20.4390 H   0  0  0  0  0  0  0  0  0  0  0  0
  -26.4250  -15.7590   19.9080 H   0  0  0  0  0  0  0  0  0  0  0  0
  -28.4710  -25.0050   19.4680 C   0  0  0  0  0  2  0  0  0  0  0  0
  -28.3140  -26.3990   20.1020 O   0  0  0  0  0  0  0  0  0  0  0  0
  -24.6310  -31.9120   23.1530 C   0  0  0  0  0  0  0  0  0  0  0  0
  -27.2020  -27.2960   20.0170 C   0  0  0  0  0  0  0  0  0  0  0  0
  -23.4010  -30.5360   21.5160 C   0  0  0  0  0  3  0  0  0  0  0  0
  -24.8350  -28.9820   20.0410 C   0  0  0  0  0  0  0  0  0  0  0  0
  -25.9420  -30.8260   21.2960 C   0  0  0  0  0  2  0  0  0  0  0  0
  -26.0140  -29.4420   20.6380 C   0  0  0  0  0  0  0  0  0  0  0  0
  -27.1900  -28.6140   20.6130 C   0  0  0  0  0  3  0  0  0  0  0  0
  -26.0010  -26.9160   19.3760 C   0  0  0  0  0  3  0  0  0  0  0  0
  -24.8440  -27.7350   19.3930 C   0  0  0  0  0  3  0  0  0  0  0  0
  -23.5990  -29.8770   20.1250 C   0  0  0  0  0  2  0  0  0  0  0  0
  -24.6780  -31.1120   22.0450 N   0  0  0  0  0  0  0  0  0  0  0  0
  -23.5550  -32.1860   23.7060 O   0  0  0  0  0  0  0  0  0  0  0  0
  -22.7490  -29.5080   22.4730 C   0  0  0  0  0  0  0  0  0  0  0  0
  -21.4190  -29.3380   22.3810 N   0  0  0  0  0  0  0  0  0  0  0  0
  -23.4450  -28.8730   23.2740 O   0  0  0  0  0  0  0  0  0  0  0  0
  -20.9110  -29.9040   21.7150 H   0  0  0  0  0  0  0  0  0  0  0  0
  -18.0630  -28.0960   22.9240 C   0  0  0  0  0  0  0  0  0  0  0  0
  -20.6210  -28.3910   23.1620 C   0  0  0  0  0  3  0  0  0  0  0  0
  -20.7340  -26.9740   22.5590 C   0  0  0  0  0  2  0  0  0  0  0  0
  -19.6200  -26.6500   21.5490 C   0  0  0  0  0  2  0  0  0  0  0  0
  -18.2500  -26.7530   22.2320 C   0  0  0  0  0  2  0  0  0  0  0  0
  -19.1780  -28.8710   23.3490 C   0  0  0  0  0  0  0  0  0  0  0  0
  -18.9480  -30.1250   23.9580 C   0  0  0  0  0  3  0  0  0  0  0  0
  -17.6380  -30.6040   24.1440 C   0  0  0  0  0  3  0  0  0  0  0  0
  -16.5370  -29.8230   23.7550 C   0  0  0  0  0  3  0  0  0  0  0  0
  -16.7520  -28.5750   23.1430 C   0  0  0  0  0  3  0  0  0  0  0  0
  -25.9170  -32.5490   23.7620 C   0  0  0  0  0  3  0  0  0  0  0  0
  -25.5980  -33.9370   24.1230 N   0  0  0  0  0  0  0  0  0  0  0  0
  -25.9150  -35.0090   23.3840 C   0  0  0  0  0  0  0  0  0  0  0  0
  -26.5720  -34.9290   22.3410 O   0  0  0  0  0  0  0  0  0  0  0  0
  -25.0000  -34.0670   24.9240 H   0  0  0  0  0  0  0  0  0  0  0  0
  -24.1790  -36.8060   23.0800 C   0  0  0  0  0  1  0  0  0  0  0  0
  -25.4270  -36.3860   23.8720 C   0  0  0  0  0  3  0  0  0  0  0  0
  -27.5610  -37.2630   24.7140 C   0  0  0  0  0  1  0  0  0  0  0  0
  -26.4570  -37.4450   23.7770 N   0  0  0  0  0  0  0  0  0  0  0  0
  -26.0470  -38.3610   23.9400 H   0  0  0  0  0  0  0  0  0  0  0  0
  -26.4500  -31.7590   25.0160 C   0  0  1  0  0  0  0  0  0  0  0  0
  -25.3710  -31.4940   26.0940 C   0  0  0  0  0  1  0  0  0  0  0  0
  -27.0340  -30.3920   24.5890 C   0  0  0  0  0  1  0  0  0  0  0  0
  -27.6060  -32.5510   25.6700 C   0  0  0  0  0  1  0  0  0  0  0  0
  1  7  2  0
  2  3  1  0
  2  4  1  0
  3  6  1  0
  4 12  1  0
  4  5  1  0
  5 54  1  0
  5  1  1  0
  6  8  1  0
  6  1  1  0
  9 10  1  0
 11 13  1  0
 12  9  2  0
 13 24  1  0
 13 10  2  0
 14 11  2  0
 14 12  1  0
 15 14  1  0
 16 24  1  0
 17 22  1  0
 18 19  1  0
 18 17  1  0
 20 19  1  0
 20 29  1  0
 20 21  1  0
 22 16  1  0
 22 21  1  0
 23 16  2  0
 24 25  1  0
 26 27  2  0
 27 46  1  0
 28 27  1  0
 28 31  1  0
 29 30  1  0
 29 26  1  0
 30 28  2  0
 31 32  1  0
 32 33  2  0
 34 37  1  0
 34 33  1  0
 35 34  2  0
 36 35  1  0
 36 31  2  0
 37 38  1  0
 38 43  2  0
 38 39  1  0
 39 40  2  0
 40 41  1  0
 41 45  1  0
 42 41  2  0
 43 42  1  0
 44 43  1  0
 46 47  1  0
 47 50  1  0
 47 49  1  0
 48 46  2  0
 51 26  1  0
 51 52  1  0
 53 51  1  0
 54 55  1  0
 56 67  2  0
 57 55  1  0
 57 62  1  0
 58 66  1  0
 58 68  1  0
 59 65  1  0
 59 61  1  0
 60 66  1  0
 61 60  1  0
 62 61  2  0
 63 64  1  0
 63 57  2  0
 64 59  2  0
 65 58  1  0
 66 56  1  0
 68 70  2  0
 69 68  1  0
 71 69  1  0
 72 81  2  0
 72 77  1  0
 73 69  1  0
 73 77  1  0
 74 73  1  0
 75 76  1  0
 75 74  1  0
 76 72  1  0
 77 78  2  0
 78 79  1  0
 80 79  2  0
 81 80  1  0
 82 56  1  0
 82 83  1  0
 82 92  1  0
 83 86  1  0
 84 88  1  0
 84 83  1  0
 85 84  2  0
 88 87  1  0
 90 88  1  0
 90 91  1  0
 90 89  1  0
 92 95  1  1
 92 93  1  0
 94 92  1  0
M  ISO  4  16 100  24 100  54 101  55 101
M  END
>  <TORSDO>  (39) 
F 18

>  <SCORE>  (39) 
-14.111

>  <name>  (39) 
38

>  <ligand_id>  (39) 
38

>  <original_smiles>  (39) 
[H]c1c([H])c([H])c2c(c1[H])C([H])([H])C([H])([H])C([H])([H])C2([H])N([H])C(=O)C1([H])N(C(=O)C([H])(N([H])C(=O)C([H])(N([H])C([H])([H])[H])C([H])([H])[H])C(C([H])([H])[H])(C([H])([H])[H])C([H])([H])[H])C([H])([H])c2c([H])c(OC([H])([H])C3([H])C(=O)N([H])C([H])([H])C([H])([H])C3([H])c3c([H])c([H])c(N([H])C(=O)N4C([H])([H])C([H])([H])C([H])([H])C([H])(n5nc(-c6c([H])c([H])c(Oc7c([H])c([H])c(F)c([H])c7F)c([H])c6[H])c(C(=O)N([H])[H])c5N([H])[H])C4([H])[H])c([H])c3F)c([H])c([H])c2C1([H])[H]

>  <smiles>  (39) 
[H]c1c([H])c([H])c2c(c1[H])C([H])([H])C([H])([H])C([H])([H])C2([H])N([H])C(=O)C1([H])N(C(=O)C([H])(N([H])C(=O)C([H])(N([H])C([H])([H])[H])C([H])([H])[H])C(C([H])([H])[H])(C([H])([H])[H])C([H])([H])[H])C([H])([H])c2c([H])c(OC([H])([H])C3([H])C(=O)N([H])C([H])([H])C([H])([H])C3([H])c3c([H])c([H])c(N([H])C(=O)N4C([H])([H])C([H])([H])C([H])([H])C([H])(n5nc(-c6c([H])c([H])c(Oc7c([H])c([H])c(F)c([H])c7F)c([H])c6[H])c(C(=O)N([H])[H])c5N([H])[H])C4([H])[H])c([H])c3F)c([H])c([H])c2C1([H])[H]

$$$$
39:0:0
     RDKit          3D

 93101  0  0  1  0  0  0  0  0999 V2000
  -29.7330  -21.8000   20.4580 N   0  0  0  0  0  0  0  0  0  0  0  0
  -30.1880  -22.0040   21.3470 H   0  0  0  0  0  0  0  0  0  0  0  0
  -30.0640  -19.3880   20.8000 C   0  0  0  0  0  3  0  0  0  0  0  0
  -29.6420  -17.7880   19.0090 C   0  0  0  0  0  3  0  0  0  0  0  0
  -29.2940  -20.1800   18.6360 C   0  0  0  0  0  3  0  0  0  0  0  0
  -30.0340  -18.0430   20.3420 C   0  0  0  0  0  0  0  0  0  0  0  0
  -29.6940  -20.4740   19.9630 C   0  0  0  0  0  0  0  0  0  0  0  0
  -29.2790  -18.8530   18.1610 C   0  0  0  0  0  0  0  0  0  0  0  0
  -28.9130  -18.6030   16.8800 F   0  0  0  0  0  0  0  0  0  0  0  0
  -30.4670  -16.9080   21.2850 C   0  0  0  0  0  2  0  0  0  0  0  0
  -30.6700  -14.5140   20.4910 C   0  0  0  0  0  0  0  0  0  0  0  0
  -30.3770  -12.3450   19.3500 C   0  0  0  0  0  2  0  0  0  0  0  0
  -29.4280  -12.5210   18.1470 C   0  0  0  0  0  2  0  0  0  0  0  0
  -27.9600  -12.3710   18.5880 C   0  0  0  0  0  2  0  0  0  0  0  0
  -27.6150  -13.2250   19.8370 C   0  0  0  0  0  3  0  0  0  0  0  0
  -28.6750  -13.0320   20.9450 C   0  0  0  0  0  2  0  0  0  0  0  0
  -29.9940  -13.3390   20.3650 N   0  0  0  0  0  0  0  0  0  0  0  0
  -31.8090  -14.6780   20.0480 O   0  0  0  0  0  0  0  0  0  0  0  0
  -29.9670  -15.5480   20.9950 N   0  0  0  0  0  0  0  0  0  0  0  0
  -29.0170  -15.3510   21.2720 H   0  0  0  0  0  0  0  0  0  0  0  0
  -25.2150  -13.8290   20.5440 C   0  0  0  0  0  0  0  0  0  0  0  0
  -24.1480  -13.0540   20.9150 C   0  0  0  0  0  0  0  0  0  0  0  0
  -24.6140  -11.7030   20.8880 C   0  0  0  0  0  0  0  0  0  0  0  0
  -26.2640  -12.9500   20.3190 N   0  0  0  0  0  0  0  0  0  0  0  0
  -25.9050  -11.6670   20.5840 N   0  0  0  0  0  0  0  0  0  0  0  0
  -23.8910  -10.4380   21.0760 C   0  0  0  0  0  0  0  0  0  0  0  0
  -24.3300   -9.4680   22.0020 C   0  0  0  0  0  3  0  0  0  0  0  0
  -23.6080   -8.2670   22.1790 C   0  0  0  0  0  3  0  0  0  0  0  0
  -22.4320   -8.0300   21.4270 C   0  0  0  0  0  0  0  0  0  0  0  0
  -22.0120   -8.9900   20.4900 C   0  0  0  0  0  3  0  0  0  0  0  0
  -22.7350  -10.1800   20.3120 C   0  0  0  0  0  3  0  0  0  0  0  0
  -21.6800   -6.8820   21.5130 O   0  0  0  0  0  0  0  0  0  0  0  0
  -21.6450   -6.1290   22.6600 C   0  0  0  0  0  0  0  0  0  0  0  0
  -21.2250   -6.6710   23.8940 C   0  0  0  0  0  3  0  0  0  0  0  0
  -21.1380   -5.8460   25.0330 C   0  0  0  0  0  3  0  0  0  0  0  0
  -21.4590   -4.4800   24.9380 C   0  0  0  0  0  0  0  0  0  0  0  0
  -21.8710   -3.9350   23.7100 C   0  0  0  0  0  3  0  0  0  0  0  0
  -21.9620   -4.7590   22.5730 C   0  0  0  0  0  0  0  0  0  0  0  0
  -22.3390   -4.2270   21.3850 F   0  0  0  0  0  0  0  0  0  0  0  0
  -21.3670   -3.6830   26.0290 F   0  0  0  0  0  0  0  0  0  0  0  0
  -22.7480  -13.5260   21.1860 C   0  0  0  0  0  0  0  0  0  0  0  0
  -22.0200  -12.8230   22.0460 N   0  0  0  0  0  0  0  0  0  0  0  0
  -22.3100  -14.5520   20.6690 O   0  0  0  0  0  0  0  0  0  0  0  0
  -22.3880  -11.9880   22.4790 H   0  0  0  0  0  0  0  0  0  0  0  0
  -21.0830  -13.1200   22.2730 H   0  0  0  0  0  0  0  0  0  0  0  0
  -25.3800  -15.1970   20.3530 N   0  0  0  0  0  0  0  0  0  0  0  0
  -24.6080  -15.8520   20.4230 H   0  0  0  0  0  0  0  0  0  0  0  0
  -26.2200  -15.6150   19.9730 H   0  0  0  0  0  0  0  0  0  0  0  0
  -29.4490  -22.9480   19.5740 C   0  0  0  0  0  2  0  0  0  0  0  0
  -29.3540  -24.3340   20.2560 C   0  0  0  0  0  0  0  0  0  0  0  0
  -30.0670  -24.6310   21.2200 O   0  0  0  0  0  0  0  0  0  0  0  0
  -28.3000  -25.2990   19.6750 C   0  0  0  0  0  2  0  0  0  0  0  0
  -28.3780  -26.6530   20.1780 O   0  0  0  0  0  0  0  0  0  0  0  0
  -24.5930  -31.8870   23.2360 C   0  0  0  0  0  0  0  0  0  0  0  0
  -27.2110  -27.4080   20.1420 C   0  0  0  0  0  0  0  0  0  0  0  0
  -23.3760  -30.4860   21.6040 C   0  0  0  0  0  3  0  0  0  0  0  0
  -24.8220  -28.9490   20.1680 C   0  0  0  0  0  0  0  0  0  0  0  0
  -25.9060  -30.8280   21.3980 C   0  0  0  0  0  2  0  0  0  0  0  0
  -25.9870  -29.4570   20.7550 C   0  0  0  0  0  0  0  0  0  0  0  0
  -27.1820  -28.6940   20.7410 C   0  0  0  0  0  3  0  0  0  0  0  0
  -26.0210  -26.9360   19.5330 C   0  0  0  0  0  3  0  0  0  0  0  0
  -24.8340  -27.6880   19.5560 C   0  0  0  0  0  3  0  0  0  0  0  0
  -23.5770  -29.8060   20.2250 C   0  0  0  0  0  2  0  0  0  0  0  0
  -24.6430  -31.0810   22.1370 N   0  0  0  0  0  0  0  0  0  0  0  0
  -23.5140  -32.1640   23.7780 O   0  0  0  0  0  0  0  0  0  0  0  0
  -22.7290  -29.4660   22.5670 C   0  0  0  0  0  0  0  0  0  0  0  0
  -21.4030  -29.2840   22.4440 N   0  0  0  0  0  0  0  0  0  0  0  0
  -23.4140  -28.8400   23.3790 O   0  0  0  0  0  0  0  0  0  0  0  0
  -20.9100  -29.8460   21.7640 H   0  0  0  0  0  0  0  0  0  0  0  0
  -18.0250  -28.0950   22.9540 C   0  0  0  0  0  0  0  0  0  0  0  0
  -20.5850  -28.3450   23.2130 C   0  0  0  0  0  3  0  0  0  0  0  0
  -20.6810  -26.9150   22.6340 C   0  0  0  0  0  2  0  0  0  0  0  0
  -19.5730  -26.5980   21.6250 C   0  0  0  0  0  2  0  0  0  0  0  0
  -18.1940  -26.7470   22.2770 C   0  0  0  0  0  2  0  0  0  0  0  0
  -19.1480  -28.8540   23.3790 C   0  0  0  0  0  0  0  0  0  0  0  0
  -18.9390  -30.1200   23.9700 C   0  0  0  0  0  3  0  0  0  0  0  0
  -17.6360  -30.6270   24.1360 C   0  0  0  0  0  3  0  0  0  0  0  0
  -16.5270  -29.8650   23.7300 C   0  0  0  0  0  3  0  0  0  0  0  0
  -16.7220  -28.6000   23.1480 C   0  0  0  0  0  3  0  0  0  0  0  0
  -25.8820  -32.5180   23.8490 C   0  0  0  0  0  3  0  0  0  0  0  0
  -25.5760  -33.9170   24.1800 N   0  0  0  0  0  0  0  0  0  0  0  0
  -25.9110  -34.9670   23.4190 C   0  0  0  0  0  0  0  0  0  0  0  0
  -26.5850  -34.8620   22.3900 O   0  0  0  0  0  0  0  0  0  0  0  0
  -24.9800  -34.0740   24.9800 H   0  0  0  0  0  0  0  0  0  0  0  0
  -24.1960  -36.7660   23.0550 C   0  0  0  0  0  1  0  0  0  0  0  0
  -25.4290  -36.3570   23.8750 C   0  0  0  0  0  3  0  0  0  0  0  0
  -27.5650  -37.2230   24.7200 C   0  0  0  0  0  1  0  0  0  0  0  0
  -26.4680  -37.4030   23.7710 N   0  0  0  0  0  0  0  0  0  0  0  0
  -26.0680  -38.3240   23.9270 H   0  0  0  0  0  0  0  0  0  0  0  0
  -26.4050  -31.7460   25.1220 C   0  0  1  0  0  0  0  0  0  0  0  0
  -25.3180  -31.5070   26.1960 C   0  0  0  0  0  1  0  0  0  0  0  0
  -26.9830  -30.3710   24.7200 C   0  0  0  0  0  1  0  0  0  0  0  0
  -27.5630  -32.5370   25.7760 C   0  0  0  0  0  1  0  0  0  0  0  0
  1  2  1  0
  4  6  2  0
  5  7  1  0
  6  3  1  0
  6 10  1  0
  7  1  1  0
  7  3  2  0
  8  5  2  0
  8  4  1  0
  9  8  1  0
 11 19  1  0
 12 17  1  0
 13 14  1  0
 13 12  1  0
 15 14  1  0
 15 24  1  0
 15 16  1  0
 17 11  1  0
 17 16  1  0
 18 11  2  0
 19 20  1  0
 19 10  1  0
 21 22  2  0
 22 41  1  0
 23 22  1  0
 23 26  1  0
 24 21  1  0
 24 25  1  0
 25 23  2  0
 26 27  1  0
 27 28  2  0
 29 32  1  0
 29 28  1  0
 30 29  2  0
 31 30  1  0
 31 26  2  0
 32 33  1  0
 33 34  1  0
 34 35  2  0
 36 35  1  0
 36 40  1  0
 37 36  2  0
 38 33  2  0
 38 37  1  0
 39 38  1  0
 41 42  1  0
 42 45  1  0
 42 44  1  0
 43 41  2  0
 46 47  1  0
 46 21  1  0
 48 46  1  0
 49 50  1  0
 49  1  1  0
 50 51  2  0
 52 53  1  0
 52 50  1  0
 54 65  2  0
 55 53  1  0
 55 60  1  0
 56 64  1  0
 56 66  1  0
 57 63  1  0
 57 59  1  0
 58 64  1  0
 59 58  1  0
 60 59  2  0
 61 62  1  0
 61 55  2  0
 62 57  2  0
 63 56  1  0
 64 54  1  0
 66 68  2  0
 67 66  1  0
 69 67  1  0
 70 79  2  0
 70 75  1  0
 71 67  1  0
 71 75  1  0
 72 71  1  0
 73 74  1  0
 73 72  1  0
 74 70  1  0
 75 76  2  0
 76 77  1  0
 78 77  2  0
 79 78  1  0
 80 54  1  0
 80 81  1  0
 80 90  1  0
 81 84  1  0
 82 86  1  0
 82 81  1  0
 83 82  2  0
 86 85  1  0
 88 86  1  0
 88 89  1  0
 88 87  1  0
 90 93  1  1
 90 91  1  0
 92 90  1  0
M  ISO  4  11 100  19 100  52 101  53 101
M  END
>  <TORSDO>  (40) 
F 21

>  <SCORE>  (40) 
-13.691

>  <name>  (40) 
39

>  <ligand_id>  (40) 
39

>  <original_smiles>  (40) 
[H]c1c([H])c([H])c2c(c1[H])C([H])([H])C([H])([H])C([H])([H])C2([H])N([H])C(=O)C1([H])N(C(=O)C([H])(N([H])C(=O)C([H])(N([H])C([H])([H])[H])C([H])([H])[H])C(C([H])([H])[H])(C([H])([H])[H])C([H])([H])[H])C([H])([H])c2c([H])c(OC([H])([H])C(=O)C([H])([H])N([H])c3c([H])c(F)c([H])c(C([H])([H])N([H])C(=O)N4C([H])([H])C([H])([H])C([H])([H])C([H])(n5nc(-c6c([H])c([H])c(Oc7c([H])c([H])c(F)c([H])c7F)c([H])c6[H])c(C(=O)N([H])[H])c5N([H])[H])C4([H])[H])c3[H])c([H])c([H])c2C1([H])[H]

>  <smiles>  (40) 
[H]c1c([H])c([H])c2c(c1[H])C([H])([H])C([H])([H])C([H])([H])C2([H])N([H])C(=O)C1([H])N(C(=O)C([H])(N([H])C(=O)C([H])(N([H])C([H])([H])[H])C([H])([H])[H])C(C([H])([H])[H])(C([H])([H])[H])C([H])([H])[H])C([H])([H])c2c([H])c(OC([H])([H])C(=O)C([H])([H])N([H])c3c([H])c(F)c([H])c(C([H])([H])N([H])C(=O)N4C([H])([H])C([H])([H])C([H])([H])C([H])(n5nc(-c6c([H])c([H])c(Oc7c([H])c([H])c(F)c([H])c7F)c([H])c6[H])c(C(=O)N([H])[H])c5N([H])[H])C4([H])[H])c3[H])c([H])c([H])c2C1([H])[H]

$$$$
40:0:0
     RDKit          3D

101110  0  0  1  0  0  0  0  0999 V2000
  -32.2050  -19.0300   19.9530 C   0  0  0  0  0  3  0  0  0  0  0  0
  -31.7150  -17.7200   20.0900 C   0  0  0  0  0  3  0  0  0  0  0  0
  -29.5780  -18.6560   20.7010 C   0  0  0  0  0  3  0  0  0  0  0  0
  -31.4330  -20.1840   20.2160 C   0  0  0  0  0  0  0  0  0  0  0  0
  -30.3950  -17.4400   20.5050 C   0  0  0  0  0  0  0  0  0  0  0  0
  -30.0420  -20.0550   20.5340 C   0  0  0  0  0  0  0  0  0  0  0  0
  -30.6950  -14.7710   20.6910 C   0  0  0  0  0  0  0  0  0  0  0  0
  -30.5420  -12.3820   19.9190 C   0  0  0  0  0  2  0  0  0  0  0  0
  -29.7040  -12.2890   18.6260 C   0  0  0  0  0  2  0  0  0  0  0  0
  -28.2090  -12.1420   18.9650 C   0  0  0  0  0  2  0  0  0  0  0  0
  -27.7390  -13.1540   20.0440 C   0  0  0  0  0  3  0  0  0  0  0  0
  -28.7130  -13.2360   21.2380 C   0  0  0  0  0  2  0  0  0  0  0  0
  -30.0410  -13.5490   20.6950 N   0  0  0  0  0  0  0  0  0  0  0  0
  -31.9130  -14.7480   20.4900 O   0  0  0  0  0  0  0  0  0  0  0  0
  -29.9740  -15.9880   20.6980 N   0  0  0  0  0  0  0  0  0  0  0  0
  -28.9830  -15.8520   20.8240 H   0  0  0  0  0  0  0  0  0  0  0  0
  -25.3330  -13.8040   20.6300 C   0  0  0  0  0  0  0  0  0  0  0  0
  -24.2290  -13.0620   20.9480 C   0  0  0  0  0  0  0  0  0  0  0  0
  -24.6600  -11.6990   20.9660 C   0  0  0  0  0  0  0  0  0  0  0  0
  -26.3660  -12.8970   20.4670 N   0  0  0  0  0  0  0  0  0  0  0  0
  -25.9650  -11.6260   20.7350 N   0  0  0  0  0  0  0  0  0  0  0  0
  -23.8900  -10.4590   21.1310 C   0  0  0  0  0  0  0  0  0  0  0  0
  -24.2590   -9.4810   22.0810 C   0  0  0  0  0  3  0  0  0  0  0  0
  -23.4910   -8.3060   22.2330 C   0  0  0  0  0  3  0  0  0  0  0  0
  -22.3400   -8.1020   21.4370 C   0  0  0  0  0  0  0  0  0  0  0  0
  -21.9920   -9.0670   20.4760 C   0  0  0  0  0  3  0  0  0  0  0  0
  -22.7600  -10.2330   20.3210 C   0  0  0  0  0  3  0  0  0  0  0  0
  -21.5480   -6.9790   21.4980 O   0  0  0  0  0  0  0  0  0  0  0  0
  -21.4670   -6.2180   22.6360 C   0  0  0  0  0  0  0  0  0  0  0  0
  -21.0600   -6.7650   23.8720 C   0  0  0  0  0  3  0  0  0  0  0  0
  -20.9240   -5.9320   25.0010 C   0  0  0  0  0  3  0  0  0  0  0  0
  -21.1850   -4.5530   24.8940 C   0  0  0  0  0  0  0  0  0  0  0  0
  -21.5840   -4.0050   23.6620 C   0  0  0  0  0  3  0  0  0  0  0  0
  -21.7220   -4.8350   22.5360 C   0  0  0  0  0  0  0  0  0  0  0  0
  -22.0860   -4.2980   21.3470 F   0  0  0  0  0  0  0  0  0  0  0  0
  -21.0460   -3.7510   25.9760 F   0  0  0  0  0  0  0  0  0  0  0  0
  -22.8300  -13.5770   21.1250 C   0  0  0  0  0  0  0  0  0  0  0  0
  -22.0370  -12.9220   21.9640 N   0  0  0  0  0  0  0  0  0  0  0  0
  -22.4500  -14.5990   20.5540 O   0  0  0  0  0  0  0  0  0  0  0  0
  -22.3560  -12.0970   22.4500 H   0  0  0  0  0  0  0  0  0  0  0  0
  -21.0970  -13.2530   22.1260 H   0  0  0  0  0  0  0  0  0  0  0  0
  -25.5390  -15.1670   20.4400 N   0  0  0  0  0  0  0  0  0  0  0  0
  -24.7770  -15.8360   20.4870 H   0  0  0  0  0  0  0  0  0  0  0  0
  -26.4070  -15.5800   20.1230 H   0  0  0  0  0  0  0  0  0  0  0  0
  -32.0810  -22.2620   18.8720 C   0  0  0  0  0  2  0  0  0  0  0  0
  -32.6940  -23.6640   18.9930 C   0  0  0  0  0  2  0  0  0  0  0  0
  -33.6830  -21.3940   20.6010 C   0  0  0  0  0  2  0  0  0  0  0  0
  -32.1940  -21.5210   20.2130 C   0  0  0  0  0  3  0  0  0  0  0  0
  -34.1730  -23.6130   19.4320 C   0  0  0  0  0  3  0  0  0  0  0  0
  -34.3500  -22.7830   20.7320 C   0  0  0  0  0  3  0  0  0  0  0  0
  -34.7200  -25.0440   19.5690 C   0  0  0  0  0  1  0  0  0  0  0  0
  -35.8270  -22.6190   21.1300 C   0  0  0  0  0  1  0  0  0  0  0  0
  -29.0890  -22.5840   20.2940 C   0  0  0  0  0  0  0  0  0  0  0  0
  -29.2110  -21.2840   20.8450 N   0  0  0  0  0  0  0  0  0  0  0  0
  -29.5020  -22.8350   19.1630 O   0  0  0  0  0  0  0  0  0  0  0  0
  -28.7220  -21.1920   21.7210 H   0  0  0  0  0  0  0  0  0  0  0  0
  -28.1800  -25.0220   21.0830 C   0  0  0  0  0  3  0  0  0  0  0  0
  -28.3700  -23.6220   21.1470 C   0  0  0  0  0  0  0  0  0  0  0  0
  -27.7330  -23.0830   22.1980 O   0  0  0  0  0  0  0  0  0  0  0  0
  -27.5110  -22.1890   21.9710 H   0  0  0  0  0  0  0  0  0  0  0  0
  -28.5060  -26.1720   20.2850 O   0  0  0  0  0  0  0  0  0  0  0  0
  -24.6690  -31.6910   23.1760 C   0  0  0  0  0  0  0  0  0  0  0  0
  -27.4690  -27.1440   20.1850 C   0  0  0  0  0  0  0  0  0  0  0  0
  -23.5480  -30.2550   21.5150 C   0  0  0  0  0  3  0  0  0  0  0  0
  -25.0780  -28.7510   20.1100 C   0  0  0  0  0  0  0  0  0  0  0  0
  -26.0870  -30.6330   21.3910 C   0  0  0  0  0  2  0  0  0  0  0  0
  -26.2260  -29.2530   20.7390 C   0  0  0  0  0  0  0  0  0  0  0  0
  -27.4290  -28.4630   20.7680 C   0  0  0  0  0  3  0  0  0  0  0  0
  -26.3030  -26.7270   19.5100 C   0  0  0  0  0  3  0  0  0  0  0  0
  -25.1250  -27.4980   19.4780 C   0  0  0  0  0  3  0  0  0  0  0  0
  -23.8140  -29.5910   20.1370 C   0  0  0  0  0  2  0  0  0  0  0  0
  -24.7860  -30.8800   22.0820 N   0  0  0  0  0  0  0  0  0  0  0  0
  -23.5660  -31.9340   23.6870 O   0  0  0  0  0  0  0  0  0  0  0  0
  -22.8950  -29.2200   22.4630 C   0  0  0  0  0  0  0  0  0  0  0  0
  -21.5780  -28.9950   22.3090 N   0  0  0  0  0  0  0  0  0  0  0  0
  -23.5750  -28.6200   23.3000 O   0  0  0  0  0  0  0  0  0  0  0  0
  -21.0840  -29.5300   21.6080 H   0  0  0  0  0  0  0  0  0  0  0  0
  -18.2360  -27.6680   22.7410 C   0  0  0  0  0  0  0  0  0  0  0  0
  -20.7760  -28.0300   23.0670 C   0  0  0  0  0  3  0  0  0  0  0  0
  -20.9470  -26.6010   22.5030 C   0  0  0  0  0  2  0  0  0  0  0  0
  -19.8830  -26.2300   21.4650 C   0  0  0  0  0  2  0  0  0  0  0  0
  -18.4810  -26.3240   22.0770 C   0  0  0  0  0  2  0  0  0  0  0  0
  -19.3150  -28.4750   23.1920 C   0  0  0  0  0  0  0  0  0  0  0  0
  -19.0320  -29.7310   23.7720 C   0  0  0  0  0  3  0  0  0  0  0  0
  -17.7050  -30.1790   23.9090 C   0  0  0  0  0  3  0  0  0  0  0  0
  -16.6410  -29.3680   23.4730 C   0  0  0  0  0  3  0  0  0  0  0  0
  -16.9080  -28.1150   22.8950 C   0  0  0  0  0  3  0  0  0  0  0  0
  -25.9150  -32.3690   23.8220 C   0  0  0  0  0  3  0  0  0  0  0  0
  -26.4360  -31.6140   25.1060 C   0  0  1  0  0  0  0  0  0  0  0  0
  -25.3350  -31.3380   26.1560 C   0  0  0  0  0  1  0  0  0  0  0  0
  -27.0730  -30.2570   24.7270 C   0  0  0  0  0  1  0  0  0  0  0  0
  -27.5470  -32.4470   25.7880 C   0  0  0  0  0  1  0  0  0  0  0  0
  -25.5470  -33.7540   24.1540 N   0  0  0  0  0  0  0  0  0  0  0  0
  -25.8410  -34.8240   23.4020 C   0  0  0  0  0  0  0  0  0  0  0  0
  -26.5190  -34.7520   22.3740 O   0  0  0  0  0  0  0  0  0  0  0  0
  -24.9440  -33.8830   24.9530 H   0  0  0  0  0  0  0  0  0  0  0  0
  -24.0390  -36.5450   23.0570 C   0  0  0  0  0  1  0  0  0  0  0  0
  -25.2980  -36.1900   23.8640 C   0  0  0  0  0  3  0  0  0  0  0  0
  -27.3980  -37.1610   24.6870 C   0  0  0  0  0  1  0  0  0  0  0  0
  -26.2850  -37.2870   23.7500 N   0  0  0  0  0  0  0  0  0  0  0  0
  -25.8410  -38.1890   23.9020 H   0  0  0  0  0  0  0  0  0  0  0  0
  1  2  2  0
  1  4  1  0
  2  5  1  0
  4  6  2  0
  5 15  1  0
  5  3  2  0
  6  3  1  0
  6 54  1  0
  7 13  1  0
  7 15  1  0
  8 13  1  0
  9 10  1  0
  9  8  1  0
 11 10  1  0
 11 20  1  0
 11 12  1  0
 13 12  1  0
 14  7  2  0
 15 16  1  0
 17 18  2  0
 18 19  1  0
 18 37  1  0
 19 22  1  0
 20 17  1  0
 20 21  1  0
 21 19  2  0
 22 23  1  0
 23 24  2  0
 25 28  1  0
 25 24  1  0
 26 25  2  0
 27 26  1  0
 27 22  2  0
 28 29  1  0
 29 30  1  0
 30 31  2  0
 32 31  1  0
 32 36  1  0
 33 32  2  0
 34 29  2  0
 34 33  1  0
 35 34  1  0
 37 38  1  0
 38 41  1  0
 38 40  1  0
 39 37  2  0
 42 43  1  0
 42 17  1  0
 44 42  1  0
 45 46  1  0
 45 48  1  0
 46 49  1  0
 47 50  1  0
 48  4  1  0
 48 47  1  0
 49 51  1  0
 49 50  1  0
 50 52  1  0
 53 54  1  0
 53 58  1  0
 54 56  1  0
 55 53  2  0
 57 58  2  0
 58 59  1  0
 60 59  1  0
 61 57  1  0
 62 73  2  0
 63 61  1  0
 63 68  1  0
 64 72  1  0
 64 74  1  0
 65 71  1  0
 65 67  1  0
 66 72  1  0
 67 68  2  0
 67 66  1  0
 69 63  2  0
 70 69  1  0
 70 65  2  0
 71 64  1  0
 72 62  1  0
 74 76  2  0
 75 74  1  0
 77 75  1  0
 78 87  2  0
 78 83  1  0
 79 75  1  0
 79 83  1  0
 80 79  1  0
 81 82  1  0
 81 80  1  0
 82 78  1  0
 83 84  2  0
 84 85  1  0
 86 85  2  0
 87 86  1  0
 88 62  1  0
 88 93  1  0
 88 89  1  0
 89 92  1  1
 89 90  1  0
 91 89  1  0
 93 96  1  0
 94 98  1  0
 94 93  1  0
 95 94  2  0
 98 97  1  0
100 98  1  0
100101  1  0
100 99  1  0
M  ISO  4   7 100  15 100  57 101  61 101
M  END
>  <TORSDO>  (41) 
F 20

>  <SCORE>  (41) 
-13.549

>  <name>  (41) 
40

>  <ligand_id>  (41) 
40

>  <original_smiles>  (41) 
[H]OC(C(=O)N([H])c1c([H])c(N([H])C(=O)N2C([H])([H])C([H])([H])C([H])([H])C([H])(n3nc(-c4c([H])c([H])c(Oc5c([H])c([H])c(F)c([H])c5F)c([H])c4[H])c(C(=O)N([H])[H])c3N([H])[H])C2([H])[H])c([H])c([H])c1C1([H])C([H])([H])C([H])([H])C([H])(C([H])([H])[H])C([H])(C([H])([H])[H])C1([H])[H])=C([H])Oc1c([H])c([H])c2c(c1[H])C([H])([H])N(C(=O)C([H])(N([H])C(=O)C([H])(N([H])C([H])([H])[H])C([H])([H])[H])C(C([H])([H])[H])(C([H])([H])[H])C([H])([H])[H])C([H])(C(=O)N([H])C1([H])c3c([H])c([H])c([H])c([H])c3C([H])([H])C([H])([H])C1([H])[H])C2([H])[H]

>  <smiles>  (41) 
[H]OC(C(=O)N([H])c1c([H])c(N([H])C(=O)N2C([H])([H])C([H])([H])C([H])([H])C([H])(n3nc(-c4c([H])c([H])c(Oc5c([H])c([H])c(F)c([H])c5F)c([H])c4[H])c(C(=O)N([H])[H])c3N([H])[H])C2([H])[H])c([H])c([H])c1C1([H])C([H])([H])C([H])([H])C([H])(C([H])([H])[H])C([H])(C([H])([H])[H])C1([H])[H])=C([H])Oc1c([H])c([H])c2c(c1[H])C([H])([H])N(C(=O)C([H])(N([H])C(=O)C([H])(N([H])C([H])([H])[H])C([H])([H])[H])C(C([H])([H])[H])(C([H])([H])[H])C([H])([H])[H])C([H])(C(=O)N([H])C1([H])c3c([H])c([H])c([H])c([H])c3C([H])([H])C([H])([H])C1([H])[H])C2([H])[H]

$$$$
41:0:0
     RDKit          3D

 95103  0  0  1  0  0  0  0  0999 V2000
  -29.1250  -20.5460   20.9250 N   0  0  0  0  0  0  0  0  0  0  0  0
  -28.1660  -20.4500   20.5990 H   0  0  0  0  0  0  0  0  0  0  0  0
  -31.6830  -17.1640   21.2900 C   0  0  0  0  0  3  0  0  0  0  0  0
  -31.2930  -19.5620   21.5070 C   0  0  0  0  0  3  0  0  0  0  0  0
  -29.4910  -18.0990   20.7320 C   0  0  0  0  0  0  0  0  0  0  0  0
  -30.3610  -16.9680   20.8240 C   0  0  0  0  0  0  0  0  0  0  0  0
  -29.9640  -19.4120   21.0470 C   0  0  0  0  0  0  0  0  0  0  0  0
  -32.1390  -18.4480   21.6350 C   0  0  0  0  0  0  0  0  0  0  0  0
  -33.4010  -18.6130   22.1010 F   0  0  0  0  0  0  0  0  0  0  0  0
  -30.4920  -14.7110   19.7420 C   0  0  0  0  0  0  0  0  0  0  0  0
  -30.0750  -12.6300   18.4690 C   0  0  0  0  0  2  0  0  0  0  0  0
  -28.9970  -12.8760   17.3950 C   0  0  0  0  0  2  0  0  0  0  0  0
  -27.5840  -12.6830   17.9800 C   0  0  0  0  0  2  0  0  0  0  0  0
  -27.3840  -13.4450   19.3190 C   0  0  0  0  0  3  0  0  0  0  0  0
  -28.5590  -13.1800   20.2850 C   0  0  0  0  0  2  0  0  0  0  0  0
  -29.8070  -13.5450   19.5920 N   0  0  0  0  0  0  0  0  0  0  0  0
  -31.5290  -14.9560   19.1140 O   0  0  0  0  0  0  0  0  0  0  0  0
  -29.9020  -15.6380   20.5280 N   0  0  0  0  0  0  0  0  0  0  0  0
  -28.9870  -15.3880   20.8720 H   0  0  0  0  0  0  0  0  0  0  0  0
  -25.0610  -13.9730   20.2910 C   0  0  0  0  0  0  0  0  0  0  0  0
  -24.0580  -13.1680   20.7600 C   0  0  0  0  0  0  0  0  0  0  0  0
  -24.5410  -11.8300   20.6400 C   0  0  0  0  0  0  0  0  0  0  0  0
  -26.0960  -13.1240   19.9300 N   0  0  0  0  0  0  0  0  0  0  0  0
  -25.7910  -11.8270   20.1930 N   0  0  0  0  0  0  0  0  0  0  0  0
  -23.8660  -10.5470   20.8710 C   0  0  0  0  0  0  0  0  0  0  0  0
  -24.3760   -9.5980   21.7840 C   0  0  0  0  0  3  0  0  0  0  0  0
  -23.6980   -8.3800   22.0020 C   0  0  0  0  0  3  0  0  0  0  0  0
  -22.4960   -8.1010   21.3080 C   0  0  0  0  0  0  0  0  0  0  0  0
  -22.0050   -9.0400   20.3830 C   0  0  0  0  0  3  0  0  0  0  0  0
  -22.6840  -10.2500   20.1630 C   0  0  0  0  0  3  0  0  0  0  0  0
  -21.7840   -6.9340   21.4370 O   0  0  0  0  0  0  0  0  0  0  0  0
  -21.7520   -6.2380   22.6180 C   0  0  0  0  0  0  0  0  0  0  0  0
  -21.3000   -6.8260   23.8200 C   0  0  0  0  0  3  0  0  0  0  0  0
  -21.2200   -6.0540   24.9950 C   0  0  0  0  0  3  0  0  0  0  0  0
  -21.5800   -4.6920   24.9700 C   0  0  0  0  0  0  0  0  0  0  0  0
  -22.0230   -4.1030   23.7740 C   0  0  0  0  0  3  0  0  0  0  0  0
  -22.1060   -4.8730   22.6010 C   0  0  0  0  0  0  0  0  0  0  0  0
  -22.5150   -4.2960   21.4460 F   0  0  0  0  0  0  0  0  0  0  0  0
  -21.4950   -3.9480   26.0970 F   0  0  0  0  0  0  0  0  0  0  0  0
  -22.6910  -13.6080   21.1980 C   0  0  0  0  0  0  0  0  0  0  0  0
  -22.0820  -12.8810   22.1290 N   0  0  0  0  0  0  0  0  0  0  0  0
  -22.1730  -14.6310   20.7500 O   0  0  0  0  0  0  0  0  0  0  0  0
  -22.5150  -12.0540   22.5120 H   0  0  0  0  0  0  0  0  0  0  0  0
  -21.1690  -13.1560   22.4630 H   0  0  0  0  0  0  0  0  0  0  0  0
  -25.1690  -15.3470   20.1200 N   0  0  0  0  0  0  0  0  0  0  0  0
  -24.3960  -15.9740   20.3100 H   0  0  0  0  0  0  0  0  0  0  0  0
  -25.9530  -15.8070   19.6780 H   0  0  0  0  0  0  0  0  0  0  0  0
  -27.1210  -17.6790   21.5110 C   0  0  0  0  0  1  0  0  0  0  0  0
  -28.0380  -17.9060   20.3030 C   0  0  0  0  0  2  0  0  0  0  0  0
  -29.6320  -21.9320   20.9700 C   0  0  0  0  0  2  0  0  0  0  0  0
  -28.6160  -22.9740   20.4500 C   0  0  0  0  0  0  0  0  0  0  0  0
  -27.5100  -22.5980   20.0450 O   0  0  0  0  0  0  0  0  0  0  0  0
  -29.0110  -24.4760   20.4530 C   0  0  0  0  0  2  0  0  0  0  0  0
  -27.9550  -25.3940   19.7770 C   0  0  0  0  0  2  0  0  0  0  0  0
  -28.1330  -26.8250   19.9390 O   0  0  0  0  0  0  0  0  0  0  0  0
  -24.4090  -31.9620   23.1960 C   0  0  0  0  0  0  0  0  0  0  0  0
  -26.9720  -27.5900   19.9310 C   0  0  0  0  0  0  0  0  0  0  0  0
  -23.1510  -30.5690   21.5890 C   0  0  0  0  0  3  0  0  0  0  0  0
  -24.5600  -29.0820   20.0700 C   0  0  0  0  0  0  0  0  0  0  0  0
  -25.6630  -30.9670   21.2820 C   0  0  0  0  0  2  0  0  0  0  0  0
  -25.7390  -29.6090   20.6110 C   0  0  0  0  0  0  0  0  0  0  0  0
  -26.9480  -28.8710   20.5360 C   0  0  0  0  0  3  0  0  0  0  0  0
  -25.7730  -27.1050   19.3540 C   0  0  0  0  0  3  0  0  0  0  0  0
  -24.5730  -27.8310   19.4370 C   0  0  0  0  0  3  0  0  0  0  0  0
  -23.3040  -29.9140   20.1910 C   0  0  0  0  0  2  0  0  0  0  0  0
  -24.4280  -31.1800   22.0800 N   0  0  0  0  0  0  0  0  0  0  0  0
  -23.3500  -32.2090   23.7880 O   0  0  0  0  0  0  0  0  0  0  0  0
  -22.5580  -29.5230   22.5610 C   0  0  0  0  0  0  0  0  0  0  0  0
  -21.2400  -29.2840   22.4570 N   0  0  0  0  0  0  0  0  0  0  0  0
  -23.2800  -28.9260   23.3660 O   0  0  0  0  0  0  0  0  0  0  0  0
  -20.7150  -29.8170   21.7780 H   0  0  0  0  0  0  0  0  0  0  0  0
  -17.9370  -27.9120   22.9770 C   0  0  0  0  0  0  0  0  0  0  0  0
  -20.4760  -28.3130   23.2400 C   0  0  0  0  0  3  0  0  0  0  0  0
  -20.6570  -26.8820   22.6830 C   0  0  0  0  0  2  0  0  0  0  0  0
  -19.5720  -26.4860   21.6760 C   0  0  0  0  0  2  0  0  0  0  0  0
  -18.1850  -26.5660   22.3200 C   0  0  0  0  0  2  0  0  0  0  0  0
  -19.0120  -28.7400   23.3940 C   0  0  0  0  0  0  0  0  0  0  0  0
  -18.7260  -29.9990   23.9660 C   0  0  0  0  0  3  0  0  0  0  0  0
  -17.3970  -30.4310   24.1260 C   0  0  0  0  0  3  0  0  0  0  0  0
  -16.3360  -29.6000   23.7280 C   0  0  0  0  0  3  0  0  0  0  0  0
  -16.6060  -28.3440   23.1580 C   0  0  0  0  0  3  0  0  0  0  0  0
  -25.7130  -32.6050   23.7650 C   0  0  0  0  0  3  0  0  0  0  0  0
  -25.4080  -34.0050   24.0900 N   0  0  0  0  0  0  0  0  0  0  0  0
  -25.6900  -35.0480   23.2970 C   0  0  0  0  0  0  0  0  0  0  0  0
  -26.3040  -34.9330   22.2330 O   0  0  0  0  0  0  0  0  0  0  0  0
  -24.8590  -34.1690   24.9210 H   0  0  0  0  0  0  0  0  0  0  0  0
  -23.9150  -36.8070   23.0230 C   0  0  0  0  0  1  0  0  0  0  0  0
  -25.2150  -36.4380   23.7560 C   0  0  0  0  0  3  0  0  0  0  0  0
  -27.3870  -37.3710   24.4220 C   0  0  0  0  0  1  0  0  0  0  0  0
  -26.2230  -37.5020   23.5500 N   0  0  0  0  0  0  0  0  0  0  0  0
  -25.8130  -38.4200   23.7050 H   0  0  0  0  0  0  0  0  0  0  0  0
  -26.2770  -31.8490   25.0300 C   0  0  1  0  0  0  0  0  0  0  0  0
  -25.2200  -31.6080   26.1340 C   0  0  0  0  0  1  0  0  0  0  0  0
  -26.8600  -30.4720   24.6320 C   0  0  0  0  0  1  0  0  0  0  0  0
  -27.4390  -32.6600   25.6510 C   0  0  0  0  0  1  0  0  0  0  0  0
  1 50  1  0
  1  7  1  0
  2  1  1  0
  3  8  1  0
  4  8  2  0
  5  6  1  0
  5  7  2  0
  6  3  2  0
  7  4  1  0
  8  9  1  0
 10 18  1  0
 11 16  1  0
 12 13  1  0
 12 11  1  0
 14 13  1  0
 14 23  1  0
 14 15  1  0
 16 10  1  0
 16 15  1  0
 17 10  2  0
 18  6  1  0
 18 19  1  0
 20 21  2  0
 21 40  1  0
 22 21  1  0
 22 25  1  0
 23 24  1  0
 23 20  1  0
 24 22  2  0
 25 26  1  0
 26 27  2  0
 28 31  1  0
 28 27  1  0
 29 28  2  0
 30 29  1  0
 30 25  2  0
 31 32  1  0
 32 33  1  0
 33 34  2  0
 35 34  1  0
 35 39  1  0
 36 35  2  0
 37 32  2  0
 37 36  1  0
 38 37  1  0
 40 41  1  0
 41 44  1  0
 41 43  1  0
 42 40  2  0
 45 20  1  0
 45 46  1  0
 47 45  1  0
 49  5  1  0
 49 48  1  0
 51 53  1  0
 51 50  1  0
 52 51  2  0
 54 55  1  0
 54 53  1  0
 56 67  2  0
 57 55  1  0
 57 62  1  0
 58 66  1  0
 58 68  1  0
 59 65  1  0
 59 61  1  0
 60 66  1  0
 61 60  1  0
 62 61  2  0
 63 64  1  0
 63 57  2  0
 64 59  2  0
 65 58  1  0
 66 56  1  0
 68 70  2  0
 69 68  1  0
 71 69  1  0
 72 81  2  0
 72 77  1  0
 73 69  1  0
 73 77  1  0
 74 73  1  0
 75 76  1  0
 75 74  1  0
 76 72  1  0
 77 78  2  0
 78 79  1  0
 80 79  2  0
 81 80  1  0
 82 56  1  0
 82 83  1  0
 82 92  1  0
 83 86  1  0
 84 88  1  0
 84 83  1  0
 85 84  2  0
 88 87  1  0
 90 91  1  0
 90 88  1  0
 90 89  1  0
 92 95  1  1
 92 93  1  0
 94 92  1  0
M  ISO  4  10 100  18 100  54 101  55 101
M  END
>  <TORSDO>  (42) 
F 22

>  <SCORE>  (42) 
-9.425

>  <name>  (42) 
41

>  <ligand_id>  (42) 
41

>  <original_smiles>  (42) 
[H]c1c([H])c([H])c2c(c1[H])C([H])([H])C([H])([H])C([H])([H])C2([H])N([H])C(=O)C1([H])N(C(=O)C([H])(N([H])C(=O)C([H])(N([H])C([H])([H])[H])C([H])([H])[H])C(C([H])([H])[H])(C([H])([H])[H])C([H])([H])[H])C([H])([H])c2c([H])c(OC([H])([H])C([H])([H])C(=O)C([H])([H])N([H])c3c([H])c(F)c([H])c(N([H])C(=O)N4C([H])([H])C([H])([H])C([H])([H])C([H])(n5nc(-c6c([H])c([H])c(Oc7c([H])c([H])c(F)c([H])c7F)c([H])c6[H])c(C(=O)N([H])[H])c5N([H])[H])C4([H])[H])c3C([H])([H])C([H])([H])[H])c([H])c([H])c2C1([H])[H]

>  <smiles>  (42) 
[H]c1c([H])c([H])c2c(c1[H])C([H])([H])C([H])([H])C([H])([H])C2([H])N([H])C(=O)C1([H])N(C(=O)C([H])(N([H])C(=O)C([H])(N([H])C([H])([H])[H])C([H])([H])[H])C(C([H])([H])[H])(C([H])([H])[H])C([H])([H])[H])C([H])([H])c2c([H])c(OC([H])([H])C([H])([H])C(=O)C([H])([H])N([H])c3c([H])c(F)c([H])c(N([H])C(=O)N4C([H])([H])C([H])([H])C([H])([H])C([H])(n5nc(-c6c([H])c([H])c(Oc7c([H])c([H])c(F)c([H])c7F)c([H])c6[H])c(C(=O)N([H])[H])c5N([H])[H])C4([H])[H])c3C([H])([H])C([H])([H])[H])c([H])c([H])c2C1([H])[H]

$$$$
42:0:0
     RDKit          3D

 95103  0  0  1  0  0  0  0  0999 V2000
  -29.1000  -22.6950   20.3540 C   0  0  0  0  0  0  0  0  0  0  0  0
  -28.9070  -21.3100   20.5770 N   0  0  0  0  0  0  0  0  0  0  0  0
  -30.0290  -23.1020   19.6560 O   0  0  0  0  0  0  0  0  0  0  0  0
  -27.9840  -21.0870   20.9240 H   0  0  0  0  0  0  0  0  0  0  0  0
  -31.1780  -20.2840   20.2670 C   0  0  0  0  0  3  0  0  0  0  0  0
  -31.6330  -17.8640   20.2810 C   0  0  0  0  0  3  0  0  0  0  0  0
  -29.7890  -20.0930   20.4310 C   0  0  0  0  0  0  0  0  0  0  0  0
  -30.2670  -17.5180   20.4350 C   0  0  0  0  0  0  0  0  0  0  0  0
  -32.0730  -19.1980   20.1960 C   0  0  0  0  0  0  0  0  0  0  0  0
  -29.3610  -18.6810   20.5190 C   0  0  0  0  0  0  0  0  0  0  0  0
  -33.3970  -19.4460   20.0580 F   0  0  0  0  0  0  0  0  0  0  0  0
  -28.0420  -18.4340   20.6950 F   0  0  0  0  0  0  0  0  0  0  0  0
  -30.5810  -14.8590   20.2950 C   0  0  0  0  0  0  0  0  0  0  0  0
  -30.3490  -12.5680   19.2890 C   0  0  0  0  0  2  0  0  0  0  0  0
  -29.3970  -12.6120   18.0720 C   0  0  0  0  0  2  0  0  0  0  0  0
  -27.9390  -12.4190   18.5270 C   0  0  0  0  0  2  0  0  0  0  0  0
  -27.5730  -13.3100   19.7440 C   0  0  0  0  0  3  0  0  0  0  0  0
  -28.6490  -13.2680   20.8490 C   0  0  0  0  0  2  0  0  0  0  0  0
  -29.9260  -13.6400   20.2280 N   0  0  0  0  0  0  0  0  0  0  0  0
  -31.7700  -14.8760   19.9680 O   0  0  0  0  0  0  0  0  0  0  0  0
  -29.8660  -16.0540   20.5150 N   0  0  0  0  0  0  0  0  0  0  0  0
  -28.8880  -15.9070   20.7130 H   0  0  0  0  0  0  0  0  0  0  0  0
  -25.1980  -13.8770   20.5200 C   0  0  0  0  0  0  0  0  0  0  0  0
  -24.1420  -13.0950   20.8980 C   0  0  0  0  0  0  0  0  0  0  0  0
  -24.6110  -11.7460   20.8500 C   0  0  0  0  0  0  0  0  0  0  0  0
  -26.2420  -13.0050   20.2580 N   0  0  0  0  0  0  0  0  0  0  0  0
  -25.8970  -11.7180   20.5230 N   0  0  0  0  0  0  0  0  0  0  0  0
  -23.8900  -10.4800   21.0400 C   0  0  0  0  0  0  0  0  0  0  0  0
  -24.3320   -9.5100   21.9670 C   0  0  0  0  0  3  0  0  0  0  0  0
  -23.6100   -8.3100   22.1440 C   0  0  0  0  0  3  0  0  0  0  0  0
  -22.4330   -8.0700   21.3950 C   0  0  0  0  0  0  0  0  0  0  0  0
  -22.0120   -9.0290   20.4580 C   0  0  0  0  0  3  0  0  0  0  0  0
  -22.7330  -10.2210   20.2780 C   0  0  0  0  0  3  0  0  0  0  0  0
  -21.6830   -6.9230   21.4840 O   0  0  0  0  0  0  0  0  0  0  0  0
  -21.6420   -6.1760   22.6340 C   0  0  0  0  0  0  0  0  0  0  0  0
  -21.2030   -6.7210   23.8600 C   0  0  0  0  0  3  0  0  0  0  0  0
  -21.1100   -5.9010   25.0030 C   0  0  0  0  0  3  0  0  0  0  0  0
  -21.4460   -4.5360   24.9190 C   0  0  0  0  0  0  0  0  0  0  0  0
  -21.8770   -3.9900   23.6970 C   0  0  0  0  0  3  0  0  0  0  0  0
  -21.9710   -4.8070   22.5570 C   0  0  0  0  0  0  0  0  0  0  0  0
  -22.3680   -4.2720   21.3770 F   0  0  0  0  0  0  0  0  0  0  0  0
  -21.3490   -3.7450   26.0130 F   0  0  0  0  0  0  0  0  0  0  0  0
  -22.7470  -13.5660   21.1900 C   0  0  0  0  0  0  0  0  0  0  0  0
  -22.0310  -12.8590   22.0580 N   0  0  0  0  0  0  0  0  0  0  0  0
  -22.3000  -14.5940   20.6840 O   0  0  0  0  0  0  0  0  0  0  0  0
  -22.4060  -12.0260   22.4880 H   0  0  0  0  0  0  0  0  0  0  0  0
  -21.0960  -13.1550   22.2960 H   0  0  0  0  0  0  0  0  0  0  0  0
  -25.3530  -15.2500   20.3490 N   0  0  0  0  0  0  0  0  0  0  0  0
  -24.5810  -15.8960   20.4750 H   0  0  0  0  0  0  0  0  0  0  0  0
  -26.1870  -15.6990   19.9940 H   0  0  0  0  0  0  0  0  0  0  0  0
  -27.8130  -25.0190   20.9470 C   0  0  0  0  0  3  0  0  0  0  0  0
  -28.0990  -23.6360   21.0080 C   0  0  0  0  0  0  0  0  0  0  0  0
  -27.3220  -23.0040   21.9040 O   0  0  0  0  0  0  0  0  0  0  0  0
  -27.7830  -22.2190   22.1680 H   0  0  0  0  0  0  0  0  0  0  0  0
  -28.2250  -26.2360   20.3000 O   0  0  0  0  0  0  0  0  0  0  0  0
  -24.6100  -31.8760   23.2480 C   0  0  0  0  0  0  0  0  0  0  0  0
  -27.2160  -27.2420   20.2130 C   0  0  0  0  0  0  0  0  0  0  0  0
  -23.4160  -30.4770   21.6070 C   0  0  0  0  0  3  0  0  0  0  0  0
  -24.8740  -28.9240   20.1780 C   0  0  0  0  0  0  0  0  0  0  0  0
  -25.9640  -30.7740   21.4390 C   0  0  0  0  0  2  0  0  0  0  0  0
  -26.0480  -29.3890   20.7890 C   0  0  0  0  0  0  0  0  0  0  0  0
  -27.2250  -28.5600   20.7990 C   0  0  0  0  0  3  0  0  0  0  0  0
  -26.0260  -26.8670   19.5530 C   0  0  0  0  0  3  0  0  0  0  0  0
  -24.8720  -27.6720   19.5450 C   0  0  0  0  0  3  0  0  0  0  0  0
  -23.6390  -29.8040   20.2270 C   0  0  0  0  0  2  0  0  0  0  0  0
  -24.6820  -31.0630   22.1530 N   0  0  0  0  0  0  0  0  0  0  0  0
  -23.5230  -32.1550   23.7780 O   0  0  0  0  0  0  0  0  0  0  0  0
  -22.7450  -29.4630   22.5660 C   0  0  0  0  0  0  0  0  0  0  0  0
  -21.4190  -29.2840   22.4370 N   0  0  0  0  0  0  0  0  0  0  0  0
  -23.4200  -28.8400   23.3910 O   0  0  0  0  0  0  0  0  0  0  0  0
  -20.9300  -29.8360   21.7450 H   0  0  0  0  0  0  0  0  0  0  0  0
  -18.0420  -28.0720   22.9310 C   0  0  0  0  0  0  0  0  0  0  0  0
  -20.5990  -28.3440   23.2080 C   0  0  0  0  0  3  0  0  0  0  0  0
  -20.7090  -26.9110   22.6380 C   0  0  0  0  0  2  0  0  0  0  0  0
  -19.6120  -26.5810   21.6200 C   0  0  0  0  0  2  0  0  0  0  0  0
  -18.2270  -26.7220   22.2580 C   0  0  0  0  0  2  0  0  0  0  0  0
  -19.1560  -28.8400   23.3630 C   0  0  0  0  0  0  0  0  0  0  0  0
  -18.9270  -30.1040   23.9520 C   0  0  0  0  0  3  0  0  0  0  0  0
  -17.6200  -30.5980   24.1130 C   0  0  0  0  0  3  0  0  0  0  0  0
  -16.5210  -29.8260   23.6960 C   0  0  0  0  0  3  0  0  0  0  0  0
  -16.7320  -28.5650   23.1110 C   0  0  0  0  0  3  0  0  0  0  0  0
  -25.8880  -32.5140   23.8740 C   0  0  0  0  0  3  0  0  0  0  0  0
  -26.3940  -31.7530   25.1610 C   0  0  1  0  0  0  0  0  0  0  0  0
  -25.2930  -31.5270   26.2240 C   0  0  0  0  0  1  0  0  0  0  0  0
  -26.9770  -30.3700   24.7880 C   0  0  0  0  0  1  0  0  0  0  0  0
  -27.5420  -32.5510   25.8240 C   0  0  0  0  0  1  0  0  0  0  0  0
  -25.5760  -33.9150   24.1950 N   0  0  0  0  0  0  0  0  0  0  0  0
  -25.9100  -34.9650   23.4330 C   0  0  0  0  0  0  0  0  0  0  0  0
  -26.5820  -34.8560   22.4040 O   0  0  0  0  0  0  0  0  0  0  0  0
  -24.9800  -34.0730   24.9950 H   0  0  0  0  0  0  0  0  0  0  0  0
  -24.1890  -36.7630   23.0650 C   0  0  0  0  0  1  0  0  0  0  0  0
  -25.4240  -36.3560   23.8840 C   0  0  0  0  0  3  0  0  0  0  0  0
  -27.5560  -37.2410   24.7250 C   0  0  0  0  0  1  0  0  0  0  0  0
  -26.4610  -37.4070   23.7740 N   0  0  0  0  0  0  0  0  0  0  0  0
  -26.0560  -38.3290   23.9130 H   0  0  0  0  0  0  0  0  0  0  0  0
  1  2  1  0
  1 52  1  0
  2  4  1  0
  3  1  2  0
  5  7  1  0
  6  8  2  0
  7 10  2  0
  7  2  1  0
  8 21  1  0
  8 10  1  0
  9  5  2  0
  9  6  1  0
 10 12  1  0
 11  9  1  0
 13 21  1  0
 14 19  1  0
 15 16  1  0
 15 14  1  0
 17 16  1  0
 17 26  1  0
 17 18  1  0
 19 13  1  0
 19 18  1  0
 20 13  2  0
 21 22  1  0
 23 24  2  0
 24 43  1  0
 25 24  1  0
 25 28  1  0
 26 23  1  0
 26 27  1  0
 27 25  2  0
 28 29  1  0
 29 30  2  0
 31 34  1  0
 31 30  1  0
 32 31  2  0
 33 32  1  0
 33 28  2  0
 34 35  1  0
 35 36  1  0
 36 37  2  0
 38 37  1  0
 38 42  1  0
 39 38  2  0
 40 35  2  0
 40 39  1  0
 41 40  1  0
 43 44  1  0
 44 47  1  0
 44 46  1  0
 45 43  2  0
 48 49  1  0
 48 23  1  0
 50 48  1  0
 51 52  2  0
 52 53  1  0
 53 54  1  0
 55 51  1  0
 56 67  2  0
 57 55  1  0
 57 62  1  0
 58 66  1  0
 58 68  1  0
 59 65  1  0
 59 61  1  0
 60 66  1  0
 61 62  2  0
 61 60  1  0
 63 57  2  0
 64 63  1  0
 64 59  2  0
 65 58  1  0
 66 56  1  0
 68 70  2  0
 69 68  1  0
 71 69  1  0
 72 81  2  0
 72 77  1  0
 73 69  1  0
 73 77  1  0
 74 73  1  0
 75 76  1  0
 75 74  1  0
 76 72  1  0
 77 78  2  0
 78 79  1  0
 80 79  2  0
 81 80  1  0
 82 56  1  0
 82 87  1  0
 82 83  1  0
 83 86  1  1
 83 84  1  0
 85 83  1  0
 87 90  1  0
 88 92  1  0
 88 87  1  0
 89 88  2  0
 92 91  1  0
 94 92  1  0
 94 95  1  0
 94 93  1  0
M  ISO  4  13 100  21 100  51 101  55 101
M  END
>  <TORSDO>  (43) 
F 19

>  <SCORE>  (43) 
-14.964

>  <name>  (43) 
42

>  <ligand_id>  (43) 
42

>  <original_smiles>  (43) 
[H]OC(C(=O)N([H])c1c([H])c(F)c([H])c(N([H])C(=O)N2C([H])([H])C([H])([H])C([H])([H])C([H])(n3nc(-c4c([H])c([H])c(Oc5c([H])c([H])c(F)c([H])c5F)c([H])c4[H])c(C(=O)N([H])[H])c3N([H])[H])C2([H])[H])c1F)=C([H])Oc1c([H])c([H])c2c(c1[H])C([H])([H])N(C(=O)C([H])(N([H])C(=O)C([H])(N([H])C([H])([H])[H])C([H])([H])[H])C(C([H])([H])[H])(C([H])([H])[H])C([H])([H])[H])C([H])(C(=O)N([H])C1([H])c3c([H])c([H])c([H])c([H])c3C([H])([H])C([H])([H])C1([H])[H])C2([H])[H]

>  <smiles>  (43) 
[H]OC(C(=O)N([H])c1c([H])c(F)c([H])c(N([H])C(=O)N2C([H])([H])C([H])([H])C([H])([H])C([H])(n3nc(-c4c([H])c([H])c(Oc5c([H])c([H])c(F)c([H])c5F)c([H])c4[H])c(C(=O)N([H])[H])c3N([H])[H])C2([H])[H])c1F)=C([H])Oc1c([H])c([H])c2c(c1[H])C([H])([H])N(C(=O)C([H])(N([H])C(=O)C([H])(N([H])C([H])([H])[H])C([H])([H])[H])C(C([H])([H])[H])(C([H])([H])[H])C([H])([H])[H])C([H])(C(=O)N([H])C1([H])c3c([H])c([H])c([H])c([H])c3C([H])([H])C([H])([H])C1([H])[H])C2([H])[H]

$$$$
43:0:0
     RDKit          3D

 95104  0  0  1  0  0  0  0  0999 V2000
  -29.5740  -23.1740   21.5920 C   0  0  0  0  0  3  0  0  0  0  0  0
  -29.4810  -21.9270   19.1060 C   0  0  0  0  0  2  0  0  0  0  0  0
  -29.0750  -21.1660   20.3980 C   0  0  0  0  0  3  0  0  0  0  0  0
  -29.3780  -24.1120   20.3790 C   0  0  0  0  0  3  0  0  0  0  0  0
  -29.5170  -21.8880   21.5960 N   0  0  0  0  0  0  0  0  0  0  0  0
  -28.9690  -23.3280   19.1700 N   0  0  0  0  0  4  0  0  0  0  0  0
  -27.9630  -23.2670   19.1540 H   0  0  0  0  0  0  0  0  0  0  0  0
  -29.2510  -23.8250   18.3400 H   0  0  0  0  0  0  0  0  0  0  0  0
  -30.7890  -19.1790   20.3830 C   0  0  0  0  0  3  0  0  0  0  0  0
  -31.0940  -17.7890   20.4600 C   0  0  0  0  0  3  0  0  0  0  0  0
  -28.7380  -17.3060   20.7150 C   0  0  0  0  0  3  0  0  0  0  0  0
  -29.4520  -19.6550   20.4630 C   0  0  0  0  0  0  0  0  0  0  0  0
  -30.0650  -16.8260   20.6310 C   0  0  0  0  0  0  0  0  0  0  0  0
  -28.4330  -18.6840   20.6270 C   0  0  0  0  0  0  0  0  0  0  0  0
  -27.1330  -19.0610   20.7100 F   0  0  0  0  0  0  0  0  0  0  0  0
  -30.9410  -14.4960   20.0300 C   0  0  0  0  0  0  0  0  0  0  0  0
  -30.6220  -12.3410   18.8420 C   0  0  0  0  0  2  0  0  0  0  0  0
  -29.5660  -12.5570   17.7350 C   0  0  0  0  0  2  0  0  0  0  0  0
  -28.1340  -12.4040   18.2850 C   0  0  0  0  0  2  0  0  0  0  0  0
  -27.9100  -13.2020   19.5970 C   0  0  0  0  0  3  0  0  0  0  0  0
  -29.0550  -12.9220   20.5960 C   0  0  0  0  0  2  0  0  0  0  0  0
  -30.3260  -13.2810   19.9380 N   0  0  0  0  0  0  0  0  0  0  0  0
  -32.0010  -14.7520   19.4460 O   0  0  0  0  0  0  0  0  0  0  0  0
  -30.2460  -15.4010   20.7590 N   0  0  0  0  0  0  0  0  0  0  0  0
  -29.5070  -14.9470   21.2710 H   0  0  0  0  0  0  0  0  0  0  0  0
  -25.6160  -13.8180   20.5920 C   0  0  0  0  0  0  0  0  0  0  0  0
  -24.5600  -13.0470   21.0000 C   0  0  0  0  0  0  0  0  0  0  0  0
  -24.9640  -11.6900   20.8040 C   0  0  0  0  0  0  0  0  0  0  0  0
  -26.5990  -12.9290   20.1800 N   0  0  0  0  0  0  0  0  0  0  0  0
  -26.2140  -11.6410   20.3630 N   0  0  0  0  0  0  0  0  0  0  0  0
  -24.2120  -10.4390   20.9580 C   0  0  0  0  0  0  0  0  0  0  0  0
  -24.6420   -9.4250   21.8430 C   0  0  0  0  0  3  0  0  0  0  0  0
  -23.8940   -8.2360   21.9870 C   0  0  0  0  0  3  0  0  0  0  0  0
  -22.7020   -8.0540   21.2450 C   0  0  0  0  0  0  0  0  0  0  0  0
  -22.2910   -9.0570   20.3490 C   0  0  0  0  0  3  0  0  0  0  0  0
  -23.0390  -10.2370   20.2030 C   0  0  0  0  0  3  0  0  0  0  0  0
  -21.9260   -6.9210   21.3000 O   0  0  0  0  0  0  0  0  0  0  0  0
  -21.8020   -6.1890   22.4520 C   0  0  0  0  0  0  0  0  0  0  0  0
  -21.3230   -6.7610   23.6510 C   0  0  0  0  0  3  0  0  0  0  0  0
  -21.1440   -5.9570   24.7940 C   0  0  0  0  0  3  0  0  0  0  0  0
  -21.4350   -4.5810   24.7390 C   0  0  0  0  0  0  0  0  0  0  0  0
  -21.9080   -4.0080   23.5450 C   0  0  0  0  0  3  0  0  0  0  0  0
  -22.0890   -4.8100   22.4050 C   0  0  0  0  0  0  0  0  0  0  0  0
  -22.5240   -4.2480   21.2510 F   0  0  0  0  0  0  0  0  0  0  0  0
  -21.2560   -3.8060   25.8350 F   0  0  0  0  0  0  0  0  0  0  0  0
  -23.2160  -13.5390   21.4550 C   0  0  0  0  0  0  0  0  0  0  0  0
  -22.5590  -12.7960   22.3380 N   0  0  0  0  0  0  0  0  0  0  0  0
  -22.7620  -14.6130   21.0630 O   0  0  0  0  0  0  0  0  0  0  0  0
  -22.9410  -11.9260   22.6760 H   0  0  0  0  0  0  0  0  0  0  0  0
  -21.6610  -13.1050   22.6830 H   0  0  0  0  0  0  0  0  0  0  0  0
  -25.8170  -15.1930   20.5160 N   0  0  0  0  0  0  0  0  0  0  0  0
  -25.0870  -15.8570   20.7510 H   0  0  0  0  0  0  0  0  0  0  0  0
  -26.6290  -15.6280   20.0990 H   0  0  0  0  0  0  0  0  0  0  0  0
  -28.4020  -25.3040   20.7060 C   0  0  0  0  0  2  0  0  0  0  0  0
  -28.5010  -26.4900   19.8710 O   0  0  0  0  0  0  0  0  0  0  0  0
  -24.7040  -31.6890   23.0210 C   0  0  0  0  0  0  0  0  0  0  0  0
  -27.3690  -27.2880   19.8710 C   0  0  0  0  0  0  0  0  0  0  0  0
  -23.5160  -30.3310   21.3310 C   0  0  0  0  0  3  0  0  0  0  0  0
  -24.9860  -28.8250   19.8830 C   0  0  0  0  0  0  0  0  0  0  0  0
  -26.0480  -30.6830   21.1730 C   0  0  0  0  0  2  0  0  0  0  0  0
  -26.1410  -29.3260   20.4980 C   0  0  0  0  0  0  0  0  0  0  0  0
  -27.3400  -28.5680   20.4850 C   0  0  0  0  0  3  0  0  0  0  0  0
  -26.1980  -26.8150   19.2410 C   0  0  0  0  0  3  0  0  0  0  0  0
  -25.0110  -27.5720   19.2500 C   0  0  0  0  0  3  0  0  0  0  0  0
  -23.7430  -29.6870   19.9370 C   0  0  0  0  0  2  0  0  0  0  0  0
  -24.7740  -30.9150   21.9010 N   0  0  0  0  0  0  0  0  0  0  0  0
  -23.6160  -31.9490   23.5550 O   0  0  0  0  0  0  0  0  0  0  0  0
  -22.8500  -29.2880   22.2570 C   0  0  0  0  0  0  0  0  0  0  0  0
  -21.5220  -29.1330   22.1310 N   0  0  0  0  0  0  0  0  0  0  0  0
  -23.5260  -28.6220   23.0460 O   0  0  0  0  0  0  0  0  0  0  0  0
  -21.0380  -29.7220   21.4680 H   0  0  0  0  0  0  0  0  0  0  0  0
  -18.1210  -28.0340   22.6660 C   0  0  0  0  0  0  0  0  0  0  0  0
  -20.6930  -28.1800   22.8710 C   0  0  0  0  0  3  0  0  0  0  0  0
  -20.7230  -26.7840   22.2090 C   0  0  0  0  0  2  0  0  0  0  0  0
  -19.5800  -26.5640   21.2130 C   0  0  0  0  0  2  0  0  0  0  0  0
  -18.2250  -26.7210   21.9090 C   0  0  0  0  0  2  0  0  0  0  0  0
  -19.2800  -28.7260   23.1050 C   0  0  0  0  0  0  0  0  0  0  0  0
  -19.1290  -29.9590   23.7750 C   0  0  0  0  0  3  0  0  0  0  0  0
  -17.8500  -30.4980   24.0110 C   0  0  0  0  0  3  0  0  0  0  0  0
  -16.7050  -29.8010   23.5880 C   0  0  0  0  0  3  0  0  0  0  0  0
  -16.8420  -28.5700   22.9230 C   0  0  0  0  0  3  0  0  0  0  0  0
  -25.9820  -32.3020   23.6720 C   0  0  0  0  0  3  0  0  0  0  0  0
  -25.6590  -33.6780   24.0710 N   0  0  0  0  0  0  0  0  0  0  0  0
  -25.9900  -34.7700   23.3690 C   0  0  0  0  0  0  0  0  0  0  0  0
  -26.6700  -34.7260   22.3400 O   0  0  0  0  0  0  0  0  0  0  0  0
  -25.0540  -33.7870   24.8720 H   0  0  0  0  0  0  0  0  0  0  0  0
  -24.2590  -36.5730   23.0810 C   0  0  0  0  0  1  0  0  0  0  0  0
  -25.4870  -36.1300   23.8930 C   0  0  0  0  0  3  0  0  0  0  0  0
  -27.5990  -36.9790   24.8130 C   0  0  0  0  0  1  0  0  0  0  0  0
  -26.5160  -37.1910   23.8570 N   0  0  0  0  0  0  0  0  0  0  0  0
  -26.1020  -38.1010   24.0420 H   0  0  0  0  0  0  0  0  0  0  0  0
  -26.5100  -31.4730   24.9070 C   0  0  1  0  0  0  0  0  0  0  0  0
  -25.4220  -31.1710   25.9640 C   0  0  0  0  0  1  0  0  0  0  0  0
  -27.1080  -30.1240   24.4440 C   0  0  0  0  0  1  0  0  0  0  0  0
  -27.6540  -32.2460   25.6060 C   0  0  0  0  0  1  0  0  0  0  0  0
  1  5  2  0
  2  6  1  0
  2  3  1  0
  3 12  1  0
  3  5  1  0
  4 54  1  0
  4  1  1  0
  6  4  1  0
  7  6  1  0
  8  6  1  0
  9 10  2  0
  9 12  1  0
 10 13  1  0
 12 14  2  0
 13 11  2  0
 13 24  1  0
 14 15  1  0
 14 11  1  0
 16 24  1  0
 17 22  1  0
 18 19  1  0
 18 17  1  0
 20 19  1  0
 20 29  1  0
 20 21  1  0
 22 16  1  0
 22 21  1  0
 23 16  2  0
 24 25  1  0
 26 27  2  0
 27 46  1  0
 28 31  1  0
 28 27  1  0
 29 30  1  0
 29 26  1  0
 30 28  2  0
 31 32  1  0
 32 33  2  0
 34 37  1  0
 34 33  1  0
 35 34  2  0
 36 35  1  0
 36 31  2  0
 37 38  1  0
 38 39  1  0
 39 40  2  0
 41 40  1  0
 41 45  1  0
 42 41  2  0
 43 38  2  0
 43 42  1  0
 44 43  1  0
 46 47  1  0
 47 49  1  0
 47 50  1  0
 48 46  2  0
 51 26  1  0
 51 52  1  0
 53 51  1  0
 55 57  1  0
 55 54  1  0
 56 67  2  0
 57 62  1  0
 58 66  1  0
 58 68  1  0
 59 65  1  0
 59 61  1  0
 60 66  1  0
 61 60  1  0
 62 61  2  0
 63 64  1  0
 63 57  2  0
 64 59  2  0
 65 58  1  0
 66 56  1  0
 68 70  2  0
 69 68  1  0
 71 69  1  0
 72 81  2  0
 72 77  1  0
 73 69  1  0
 73 77  1  0
 74 73  1  0
 75 76  1  0
 75 74  1  0
 76 72  1  0
 77 78  2  0
 78 79  1  0
 80 79  2  0
 81 80  1  0
 82 56  1  0
 82 83  1  0
 82 92  1  0
 83 86  1  0
 84 88  1  0
 84 83  1  0
 85 84  2  0
 88 87  1  0
 90 88  1  0
 90 91  1  0
 90 89  1  0
 92 95  1  1
 92 93  1  0
 94 92  1  0
M  ISO  4  16 100  24 100  54 101  55 101
M  END
>  <TORSDO>  (44) 
F 18

>  <SCORE>  (44) 
-13.716

>  <name>  (44) 
43

>  <ligand_id>  (44) 
43

>  <original_smiles>  (44) 
[H]C1=NC([H])(c2c([H])c([H])c(N([H])C(=O)N3C([H])([H])C([H])([H])C([H])([H])C([H])(n4nc(-c5c([H])c([H])c(Oc6c([H])c([H])c(F)c([H])c6F)c([H])c5[H])c(C(=O)N([H])[H])c4N([H])[H])C3([H])[H])c([H])c2F)C([H])([H])[N+]([H])([H])C1([H])C([H])([H])Oc1c([H])c([H])c2c(c1[H])C([H])([H])N(C(=O)C([H])(N([H])C(=O)C([H])(N([H])C([H])([H])[H])C([H])([H])[H])C(C([H])([H])[H])(C([H])([H])[H])C([H])([H])[H])C([H])(C(=O)N([H])C1([H])c3c([H])c([H])c([H])c([H])c3C([H])([H])C([H])([H])C1([H])[H])C2([H])[H]

>  <smiles>  (44) 
[H]C1=NC([H])(c2c([H])c([H])c(N([H])C(=O)N3C([H])([H])C([H])([H])C([H])([H])C([H])(n4nc(-c5c([H])c([H])c(Oc6c([H])c([H])c(F)c([H])c6F)c([H])c5[H])c(C(=O)N([H])[H])c4N([H])[H])C3([H])[H])c([H])c2F)C([H])([H])[N+]([H])([H])C1([H])C([H])([H])Oc1c([H])c([H])c2c(c1[H])C([H])([H])N(C(=O)C([H])(N([H])C(=O)C([H])(N([H])C([H])([H])[H])C([H])([H])[H])C(C([H])([H])[H])(C([H])([H])[H])C([H])([H])[H])C([H])(C(=O)N([H])C1([H])c3c([H])c([H])c([H])c([H])c3C([H])([H])C([H])([H])C1([H])[H])C2([H])[H]

$$$$
44:0:0
     RDKit          3D

100108  0  0  1  0  0  0  0  0999 V2000
  -30.5770  -21.2480   20.9720 C   0  0  0  0  0  0  0  0  0  0  0  0
  -29.8090  -22.0840   20.2400 N   0  0  0  0  0  0  0  0  0  0  0  0
  -31.4890  -21.7980   21.7770 N   0  0  0  0  0  4  0  0  0  0  0  0
  -29.0650  -21.6720   19.6900 H   0  0  0  0  0  0  0  0  0  0  0  0
  -32.1550  -21.1960   22.2390 H   0  0  0  0  0  0  0  0  0  0  0  0
  -31.6060  -22.7940   21.8440 H   0  0  0  0  0  0  0  0  0  0  0  0
  -29.2010  -19.1440   20.7700 C   0  0  0  0  0  3  0  0  0  0  0  0
  -31.4990  -17.5370   21.0140 C   0  0  0  0  0  3  0  0  0  0  0  0
  -30.4610  -19.7710   20.9110 C   0  0  0  0  0  0  0  0  0  0  0  0
  -30.2380  -16.9120   20.8760 C   0  0  0  0  0  0  0  0  0  0  0  0
  -29.0950  -17.7340   20.7580 C   0  0  0  0  0  0  0  0  0  0  0  0
  -31.6100  -18.9450   21.0290 C   0  0  0  0  0  0  0  0  0  0  0  0
  -27.8770  -17.1550   20.6310 F   0  0  0  0  0  0  0  0  0  0  0  0
  -32.8400  -19.4940   21.1810 F   0  0  0  0  0  0  0  0  0  0  0  0
  -30.7360  -14.5240   20.2750 C   0  0  0  0  0  0  0  0  0  0  0  0
  -30.4100  -12.4070   19.0480 C   0  0  0  0  0  2  0  0  0  0  0  0
  -29.4290  -12.6590   17.8830 C   0  0  0  0  0  2  0  0  0  0  0  0
  -27.9670  -12.5080   18.3530 C   0  0  0  0  0  2  0  0  0  0  0  0
  -27.6730  -13.2940   19.6590 C   0  0  0  0  0  3  0  0  0  0  0  0
  -28.7600  -13.0190   20.7220 C   0  0  0  0  0  2  0  0  0  0  0  0
  -30.0690  -13.3470   20.1280 N   0  0  0  0  0  0  0  0  0  0  0  0
  -31.8440  -14.7270   19.7720 O   0  0  0  0  0  0  0  0  0  0  0  0
  -30.0330  -15.4950   20.8900 N   0  0  0  0  0  0  0  0  0  0  0  0
  -29.1180  -15.2100   21.2060 H   0  0  0  0  0  0  0  0  0  0  0  0
  -25.2910  -13.8820   20.4390 C   0  0  0  0  0  0  0  0  0  0  0  0
  -24.2350  -13.1000   20.8200 C   0  0  0  0  0  0  0  0  0  0  0  0
  -24.6980  -11.7510   20.7540 C   0  0  0  0  0  0  0  0  0  0  0  0
  -26.3330  -13.0090   20.1670 N   0  0  0  0  0  0  0  0  0  0  0  0
  -25.9800  -11.7210   20.4130 N   0  0  0  0  0  0  0  0  0  0  0  0
  -23.9820  -10.4840   20.9420 C   0  0  0  0  0  0  0  0  0  0  0  0
  -24.4120   -9.5240   21.8840 C   0  0  0  0  0  3  0  0  0  0  0  0
  -23.6960   -8.3200   22.0580 C   0  0  0  0  0  3  0  0  0  0  0  0
  -22.5340   -8.0690   21.2900 C   0  0  0  0  0  0  0  0  0  0  0  0
  -22.1230   -9.0170   20.3370 C   0  0  0  0  0  3  0  0  0  0  0  0
  -22.8410  -10.2120   20.1610 C   0  0  0  0  0  3  0  0  0  0  0  0
  -21.7900   -6.9170   21.3720 O   0  0  0  0  0  0  0  0  0  0  0  0
  -21.6940   -6.2040   22.5400 C   0  0  0  0  0  0  0  0  0  0  0  0
  -21.1740   -6.7750   23.7220 C   0  0  0  0  0  3  0  0  0  0  0  0
  -21.0290   -5.9870   24.8810 C   0  0  0  0  0  3  0  0  0  0  0  0
  -21.3930   -4.6270   24.8590 C   0  0  0  0  0  0  0  0  0  0  0  0
  -21.9070   -4.0550   23.6810 C   0  0  0  0  0  3  0  0  0  0  0  0
  -22.0540   -4.8410   22.5240 C   0  0  0  0  0  0  0  0  0  0  0  0
  -22.5290   -4.2790   21.3870 F   0  0  0  0  0  0  0  0  0  0  0  0
  -21.2470   -3.8670   25.9690 F   0  0  0  0  0  0  0  0  0  0  0  0
  -22.8450  -13.5690   21.1390 C   0  0  0  0  0  0  0  0  0  0  0  0
  -22.1410  -12.8530   22.0100 N   0  0  0  0  0  0  0  0  0  0  0  0
  -22.3900  -14.6030   20.6530 O   0  0  0  0  0  0  0  0  0  0  0  0
  -22.5210  -12.0150   22.4250 H   0  0  0  0  0  0  0  0  0  0  0  0
  -21.2090  -13.1470   22.2660 H   0  0  0  0  0  0  0  0  0  0  0  0
  -25.4470  -15.2560   20.2870 N   0  0  0  0  0  0  0  0  0  0  0  0
  -24.6870  -15.9050   20.4590 H   0  0  0  0  0  0  0  0  0  0  0  0
  -26.3110  -15.7250   20.0440 H   0  0  0  0  0  0  0  0  0  0  0  0
  -29.9340  -23.5690   20.1240 C   0  0  0  0  0  3  0  0  0  0  0  0
  -29.7730  -23.3500   17.5370 C   0  0  0  0  0  1  0  0  0  0  0  0
  -32.0300  -23.5710   18.6510 C   0  0  0  0  0  1  0  0  0  0  0  0
  -30.5400  -23.9410   18.7400 C   0  0  0  0  0  3  0  0  0  0  0  0
  -28.5830  -24.2910   20.3600 C   0  0  0  0  0  0  0  0  0  0  0  0
  -27.5040  -23.7680   20.0650 O   0  0  0  0  0  0  0  0  0  0  0  0
  -28.6190  -25.6900   21.0130 C   0  0  0  0  0  2  0  0  0  0  0  0
  -28.5230  -26.7470   20.0460 O   0  0  0  0  0  0  0  0  0  0  0  0
  -24.5860  -31.8180   23.1700 C   0  0  0  0  0  0  0  0  0  0  0  0
  -27.3490  -27.4620   20.0810 C   0  0  0  0  0  0  0  0  0  0  0  0
  -23.4320  -30.4280   21.4800 C   0  0  0  0  0  3  0  0  0  0  0  0
  -24.9350  -28.9280   20.0670 C   0  0  0  0  0  0  0  0  0  0  0  0
  -25.9550  -30.8240   21.3400 C   0  0  0  0  0  2  0  0  0  0  0  0
  -26.0730  -29.4620   20.6850 C   0  0  0  0  0  0  0  0  0  0  0  0
  -27.2860  -28.7360   20.6900 C   0  0  0  0  0  3  0  0  0  0  0  0
  -26.1980  -26.9370   19.4610 C   0  0  0  0  0  3  0  0  0  0  0  0
  -24.9910  -27.6630   19.4530 C   0  0  0  0  0  3  0  0  0  0  0  0
  -23.6800  -29.7700   20.0960 C   0  0  0  0  0  2  0  0  0  0  0  0
  -24.6750  -31.0370   22.0560 N   0  0  0  0  0  0  0  0  0  0  0  0
  -23.4920  -32.0680   23.6930 O   0  0  0  0  0  0  0  0  0  0  0  0
  -22.7740  -29.3850   22.4110 C   0  0  0  0  0  0  0  0  0  0  0  0
  -21.4510  -29.2030   22.2650 N   0  0  0  0  0  0  0  0  0  0  0  0
  -23.4510  -28.7430   23.2200 O   0  0  0  0  0  0  0  0  0  0  0  0
  -20.9680  -29.7740   21.5860 H   0  0  0  0  0  0  0  0  0  0  0  0
  -18.0680  -28.0200   22.7250 C   0  0  0  0  0  0  0  0  0  0  0  0
  -20.6280  -28.2460   23.0040 C   0  0  0  0  0  3  0  0  0  0  0  0
  -20.7180  -26.8350   22.3790 C   0  0  0  0  0  2  0  0  0  0  0  0
  -19.6130  -26.5570   21.3550 C   0  0  0  0  0  2  0  0  0  0  0  0
  -18.2320  -26.6930   22.0050 C   0  0  0  0  0  2  0  0  0  0  0  0
  -19.1940  -28.7570   23.1800 C   0  0  0  0  0  0  0  0  0  0  0  0
  -18.9860  -30.0020   23.8130 C   0  0  0  0  0  3  0  0  0  0  0  0
  -17.6860  -30.5100   23.9950 C   0  0  0  0  0  3  0  0  0  0  0  0
  -16.5750  -29.7690   23.5560 C   0  0  0  0  0  3  0  0  0  0  0  0
  -16.7670  -28.5260   22.9280 C   0  0  0  0  0  3  0  0  0  0  0  0
  -25.8520  -32.4540   23.8270 C   0  0  0  0  0  3  0  0  0  0  0  0
  -25.5270  -33.8470   24.1580 N   0  0  0  0  0  0  0  0  0  0  0  0
  -25.8690  -34.9050   23.4110 C   0  0  0  0  0  0  0  0  0  0  0  0
  -26.5630  -34.8120   22.3950 O   0  0  0  0  0  0  0  0  0  0  0  0
  -24.9120  -33.9950   24.9450 H   0  0  0  0  0  0  0  0  0  0  0  0
  -24.1400  -36.6890   23.0210 C   0  0  0  0  0  1  0  0  0  0  0  0
  -25.3610  -36.2880   23.8630 C   0  0  0  0  0  3  0  0  0  0  0  0
  -27.4630  -37.1820   24.7630 C   0  0  0  0  0  1  0  0  0  0  0  0
  -26.3900  -37.3470   23.7850 N   0  0  0  0  0  0  0  0  0  0  0  0
  -25.9750  -38.2640   23.9240 H   0  0  0  0  0  0  0  0  0  0  0  0
  -26.3450  -31.6750   25.1090 C   0  0  1  0  0  0  0  0  0  0  0  0
  -25.2290  -31.4160   26.1470 C   0  0  0  0  0  1  0  0  0  0  0  0
  -26.9520  -30.3080   24.7160 C   0  0  0  0  0  1  0  0  0  0  0  0
  -27.4720  -32.4730   25.8060 C   0  0  0  0  0  1  0  0  0  0  0  0
  1  3  2  0
  2  1  1  0
  3  6  1  0
  3  5  1  0
  4  2  1  0
  7  9  1  0
  8 12  1  0
  9  1  1  0
  9 12  2  0
 10 23  1  0
 10  8  2  0
 11  7  2  0
 11 10  1  0
 12 14  1  0
 13 11  1  0
 15 23  1  0
 16 21  1  0
 17 18  1  0
 17 16  1  0
 19 18  1  0
 19 28  1  0
 19 20  1  0
 21 15  1  0
 21 20  1  0
 22 15  2  0
 23 24  1  0
 25 26  2  0
 26 45  1  0
 27 26  1  0
 27 30  1  0
 28 29  1  0
 28 25  1  0
 29 27  2  0
 30 31  1  0
 31 32  2  0
 33 36  1  0
 33 32  1  0
 34 33  2  0
 35 34  1  0
 35 30  2  0
 36 37  1  0
 37 38  1  0
 38 39  2  0
 40 39  1  0
 40 44  1  0
 41 40  2  0
 42 37  2  0
 42 41  1  0
 43 42  1  0
 45 46  1  0
 46 49  1  0
 46 48  1  0
 47 45  2  0
 50 25  1  0
 50 51  1  0
 52 50  1  0
 53 56  1  0
 53  2  1  0
 53 57  1  0
 54 56  1  0
 55 56  1  0
 57 59  1  0
 58 57  2  0
 60 62  1  0
 60 59  1  0
 61 72  2  0
 62 67  1  0
 63 71  1  0
 63 73  1  0
 64 70  1  0
 64 66  1  0
 65 71  1  0
 66 67  2  0
 66 65  1  0
 68 62  2  0
 69 68  1  0
 69 64  2  0
 70 63  1  0
 71 61  1  0
 73 75  2  0
 74 73  1  0
 76 74  1  0
 77 86  2  0
 77 82  1  0
 78 74  1  0
 78 82  1  0
 79 78  1  0
 80 81  1  0
 80 79  1  0
 81 77  1  0
 82 83  2  0
 83 84  1  0
 85 84  2  0
 86 85  1  0
 87 61  1  0
 87 88  1  0
 87 97  1  0
 88 91  1  0
 89 93  1  0
 89 88  1  0
 90 89  2  0
 93 92  1  0
 95 93  1  0
 95 96  1  0
 95 94  1  0
 97100  1  1
 97 98  1  0
 99 97  1  0
M  ISO  4  15 100  23 100  59 101  60 101
M  END
>  <TORSDO>  (45) 
F 21

>  <SCORE>  (45) 
-14.000

>  <name>  (45) 
44

>  <ligand_id>  (45) 
44

>  <original_smiles>  (45) 
[H]c1c([H])c([H])c2c(c1[H])C([H])([H])C([H])([H])C([H])([H])C2([H])N([H])C(=O)C1([H])N(C(=O)C([H])(N([H])C(=O)C([H])(N([H])C([H])([H])[H])C([H])([H])[H])C(C([H])([H])[H])(C([H])([H])[H])C([H])([H])[H])C([H])([H])c2c([H])c(OC([H])([H])C(=O)C([H])(N([H])C(c3c([H])c(F)c(N([H])C(=O)N4C([H])([H])C([H])([H])C([H])([H])C([H])(n5nc(-c6c([H])c([H])c(Oc7c([H])c([H])c(F)c([H])c7F)c([H])c6[H])c(C(=O)N([H])[H])c5N([H])[H])C4([H])[H])c([H])c3F)=[N+]([H])[H])C([H])(C([H])([H])[H])C([H])([H])[H])c([H])c([H])c2C1([H])[H]

>  <smiles>  (45) 
[H]c1c([H])c([H])c2c(c1[H])C([H])([H])C([H])([H])C([H])([H])C2([H])N([H])C(=O)C1([H])N(C(=O)C([H])(N([H])C(=O)C([H])(N([H])C([H])([H])[H])C([H])([H])[H])C(C([H])([H])[H])(C([H])([H])[H])C([H])([H])[H])C([H])([H])c2c([H])c(OC([H])([H])C(=O)C([H])(N([H])C(c3c([H])c(F)c(N([H])C(=O)N4C([H])([H])C([H])([H])C([H])([H])C([H])(n5nc(-c6c([H])c([H])c(Oc7c([H])c([H])c(F)c([H])c7F)c([H])c6[H])c(C(=O)N([H])[H])c5N([H])[H])C4([H])[H])c([H])c3F)=[N+]([H])[H])C([H])(C([H])([H])[H])C([H])([H])[H])c([H])c([H])c2C1([H])[H]

$$$$
45:0:0
     RDKit          3D

 96104  0  0  1  0  0  0  0  0999 V2000
  -29.7160  -21.7380   20.2900 C   0  0  0  0  0  0  0  0  0  0  0  0
  -29.3590  -20.5610   20.8630 N   0  0  0  0  0  0  0  0  0  0  0  0
  -30.7000  -21.8540   19.5510 O   0  0  0  0  0  0  0  0  0  0  0  0
  -28.4390  -20.5620   21.2860 H   0  0  0  0  0  0  0  0  0  0  0  0
  -31.7760  -17.0850   21.4550 C   0  0  0  0  0  3  0  0  0  0  0  0
  -32.2890  -18.3670   21.7170 C   0  0  0  0  0  3  0  0  0  0  0  0
  -29.6490  -18.0800   20.7960 C   0  0  0  0  0  3  0  0  0  0  0  0
  -30.4540  -16.9170   20.9820 C   0  0  0  0  0  0  0  0  0  0  0  0
  -30.1730  -19.3870   21.0270 C   0  0  0  0  0  0  0  0  0  0  0  0
  -31.4980  -19.5100   21.5120 C   0  0  0  0  0  0  0  0  0  0  0  0
  -32.0130  -20.7220   21.8330 F   0  0  0  0  0  0  0  0  0  0  0  0
  -30.5800  -14.5540   20.1690 C   0  0  0  0  0  0  0  0  0  0  0  0
  -30.1950  -12.4280   18.9710 C   0  0  0  0  0  2  0  0  0  0  0  0
  -29.1950  -12.6620   17.8200 C   0  0  0  0  0  2  0  0  0  0  0  0
  -27.7470  -12.5080   18.3230 C   0  0  0  0  0  2  0  0  0  0  0  0
  -27.4750  -13.3120   19.6240 C   0  0  0  0  0  3  0  0  0  0  0  0
  -28.5880  -13.0790   20.6710 C   0  0  0  0  0  2  0  0  0  0  0  0
  -29.8760  -13.3950   20.0360 N   0  0  0  0  0  0  0  0  0  0  0  0
  -31.6900  -14.7020   19.6500 O   0  0  0  0  0  0  0  0  0  0  0  0
  -29.9310  -15.5970   20.7420 N   0  0  0  0  0  0  0  0  0  0  0  0
  -28.9620  -15.4370   20.9710 H   0  0  0  0  0  0  0  0  0  0  0  0
  -25.1160  -13.8910   20.4680 C   0  0  0  0  0  0  0  0  0  0  0  0
  -24.0690  -13.1070   20.8710 C   0  0  0  0  0  0  0  0  0  0  0  0
  -24.5300  -11.7580   20.7850 C   0  0  0  0  0  0  0  0  0  0  0  0
  -26.1490  -13.0190   20.1650 N   0  0  0  0  0  0  0  0  0  0  0  0
  -25.8040  -11.7300   20.4140 N   0  0  0  0  0  0  0  0  0  0  0  0
  -23.8170  -10.4890   20.9810 C   0  0  0  0  0  0  0  0  0  0  0  0
  -24.2580   -9.5290   21.9180 C   0  0  0  0  0  3  0  0  0  0  0  0
  -23.5450   -8.3250   22.1000 C   0  0  0  0  0  3  0  0  0  0  0  0
  -22.3740   -8.0730   21.3450 C   0  0  0  0  0  0  0  0  0  0  0  0
  -21.9520   -9.0220   20.3980 C   0  0  0  0  0  3  0  0  0  0  0  0
  -22.6670  -10.2170   20.2140 C   0  0  0  0  0  3  0  0  0  0  0  0
  -21.6310   -6.9210   21.4370 O   0  0  0  0  0  0  0  0  0  0  0  0
  -21.5600   -6.2010   22.6030 C   0  0  0  0  0  0  0  0  0  0  0  0
  -21.0750   -6.7700   23.8010 C   0  0  0  0  0  3  0  0  0  0  0  0
  -20.9540   -5.9750   24.9580 C   0  0  0  0  0  3  0  0  0  0  0  0
  -21.3050   -4.6140   24.9190 C   0  0  0  0  0  0  0  0  0  0  0  0
  -21.7830   -4.0440   23.7250 C   0  0  0  0  0  3  0  0  0  0  0  0
  -21.9070   -4.8350   22.5690 C   0  0  0  0  0  0  0  0  0  0  0  0
  -22.3470   -4.2770   21.4160 F   0  0  0  0  0  0  0  0  0  0  0  0
  -21.1820   -3.8480   26.0280 F   0  0  0  0  0  0  0  0  0  0  0  0
  -22.6860  -13.5740   21.2230 C   0  0  0  0  0  0  0  0  0  0  0  0
  -21.9980  -12.8490   22.0970 N   0  0  0  0  0  0  0  0  0  0  0  0
  -22.2250  -14.6150   20.7570 O   0  0  0  0  0  0  0  0  0  0  0  0
  -22.3840  -12.0060   22.4960 H   0  0  0  0  0  0  0  0  0  0  0  0
  -21.0720  -13.1420   22.3750 H   0  0  0  0  0  0  0  0  0  0  0  0
  -25.2690  -15.2660   20.3130 N   0  0  0  0  0  0  0  0  0  0  0  0
  -24.5050  -15.9140   20.4690 H   0  0  0  0  0  0  0  0  0  0  0  0
  -26.0940  -15.7140   19.9350 H   0  0  0  0  0  0  0  0  0  0  0  0
  -28.6970  -22.9140   20.5960 C   0  0  0  0  0  0  0  0  0  0  0  0
  -27.6400  -22.6230   21.1750 O   0  0  0  0  0  0  0  0  0  0  0  0
  -28.1170  -25.3400   20.5120 C   0  0  0  0  0  3  0  0  0  0  0  0
  -28.9890  -24.3480   20.2060 C   0  0  0  0  0  0  0  0  0  0  0  0
  -30.1160  -24.6500   19.5460 O   0  0  0  0  0  0  0  0  0  0  0  0
  -30.1020  -25.5880   19.3970 H   0  0  0  0  0  0  0  0  0  0  0  0
  -28.2860  -26.6750   20.1700 O   0  0  0  0  0  0  0  0  0  0  0  0
  -24.5310  -31.9450   23.2150 C   0  0  0  0  0  0  0  0  0  0  0  0
  -27.1460  -27.4600   20.1540 C   0  0  0  0  0  0  0  0  0  0  0  0
  -23.3110  -30.5250   21.6000 C   0  0  0  0  0  3  0  0  0  0  0  0
  -24.7550  -28.9800   20.1690 C   0  0  0  0  0  0  0  0  0  0  0  0
  -25.8370  -30.8820   21.3740 C   0  0  0  0  0  2  0  0  0  0  0  0
  -25.9190  -29.5050   20.7450 C   0  0  0  0  0  0  0  0  0  0  0  0
  -27.1200  -28.7520   20.7350 C   0  0  0  0  0  3  0  0  0  0  0  0
  -25.9650  -26.9650   19.5560 C   0  0  0  0  0  3  0  0  0  0  0  0
  -24.7730  -27.7100   19.5710 C   0  0  0  0  0  3  0  0  0  0  0  0
  -23.5090  -29.8370   20.2230 C   0  0  0  0  0  2  0  0  0  0  0  0
  -24.5780  -31.1330   22.1210 N   0  0  0  0  0  0  0  0  0  0  0  0
  -23.4540  -32.2190   23.7650 O   0  0  0  0  0  0  0  0  0  0  0  0
  -22.6730  -29.5100   22.5760 C   0  0  0  0  0  0  0  0  0  0  0  0
  -21.3500  -29.3130   22.4550 N   0  0  0  0  0  0  0  0  0  0  0  0
  -23.3650  -28.9030   23.3980 O   0  0  0  0  0  0  0  0  0  0  0  0
  -20.8520  -29.8540   21.7620 H   0  0  0  0  0  0  0  0  0  0  0  0
  -17.9890  -28.0890   22.9780 C   0  0  0  0  0  0  0  0  0  0  0  0
  -20.5450  -28.3770   23.2410 C   0  0  0  0  0  3  0  0  0  0  0  0
  -20.6620  -26.9400   22.6830 C   0  0  0  0  0  2  0  0  0  0  0  0
  -19.5610  -26.5910   21.6770 C   0  0  0  0  0  2  0  0  0  0  0  0
  -18.1780  -26.7320   22.3220 C   0  0  0  0  0  2  0  0  0  0  0  0
  -19.1020  -28.8680   23.3960 C   0  0  0  0  0  0  0  0  0  0  0  0
  -18.8710  -30.1380   23.9680 C   0  0  0  0  0  3  0  0  0  0  0  0
  -17.5620  -30.6290   24.1280 C   0  0  0  0  0  3  0  0  0  0  0  0
  -16.4650  -29.8470   23.7290 C   0  0  0  0  0  3  0  0  0  0  0  0
  -16.6790  -28.5790   23.1590 C   0  0  0  0  0  3  0  0  0  0  0  0
  -25.8220  -32.5840   23.8150 C   0  0  0  0  0  3  0  0  0  0  0  0
  -26.3670  -31.8160   25.0800 C   0  0  1  0  0  0  0  0  0  0  0  0
  -25.2940  -31.5610   26.1640 C   0  0  0  0  0  1  0  0  0  0  0  0
  -26.9600  -30.4460   24.6720 C   0  0  0  0  0  1  0  0  0  0  0  0
  -27.5200  -32.6210   25.7270 C   0  0  0  0  0  1  0  0  0  0  0  0
  -25.5080  -33.9800   24.1520 N   0  0  0  0  0  0  0  0  0  0  0  0
  -25.8360  -35.0360   23.3950 C   0  0  0  0  0  0  0  0  0  0  0  0
  -26.5060  -34.9390   22.3630 O   0  0  0  0  0  0  0  0  0  0  0  0
  -24.9130  -34.1290   24.9530 H   0  0  0  0  0  0  0  0  0  0  0  0
  -24.1150  -36.8340   23.0280 C   0  0  0  0  0  1  0  0  0  0  0  0
  -25.3420  -36.4210   23.8570 C   0  0  0  0  0  3  0  0  0  0  0  0
  -27.4620  -37.2960   24.7330 C   0  0  0  0  0  1  0  0  0  0  0  0
  -26.3770  -37.4730   23.7710 N   0  0  0  0  0  0  0  0  0  0  0  0
  -25.9700  -38.3930   23.9190 H   0  0  0  0  0  0  0  0  0  0  0  0
  1 50  1  0
  1  2  1  0
  2  9  1  0
  2  4  1  0
  3  1  2  0
  5  6  1  0
  7  8  1  0
  7  9  2  0
  8  5  2  0
  9 10  1  0
 10  6  2  0
 10 11  1  0
 12 20  1  0
 13 18  1  0
 14 15  1  0
 14 13  1  0
 16 15  1  0
 16 25  1  0
 16 17  1  0
 18 12  1  0
 18 17  1  0
 19 12  2  0
 20 21  1  0
 20  8  1  0
 22 23  2  0
 23 42  1  0
 24 23  1  0
 24 27  1  0
 25 26  1  0
 25 22  1  0
 26 24  2  0
 27 28  1  0
 28 29  2  0
 30 33  1  0
 30 29  1  0
 31 30  2  0
 32 31  1  0
 32 27  2  0
 33 34  1  0
 34 35  1  0
 35 36  2  0
 37 36  1  0
 37 41  1  0
 38 37  2  0
 39 34  2  0
 39 38  1  0
 40 39  1  0
 42 43  1  0
 43 46  1  0
 43 45  1  0
 44 42  2  0
 47 22  1  0
 47 48  1  0
 49 47  1  0
 50 51  2  0
 53 52  2  0
 53 50  1  0
 54 53  1  0
 55 54  1  0
 56 52  1  0
 57 68  2  0
 58 56  1  0
 58 63  1  0
 59 67  1  0
 59 69  1  0
 60 66  1  0
 60 62  1  0
 61 67  1  0
 62 61  1  0
 63 62  2  0
 64 65  1  0
 64 58  2  0
 65 60  2  0
 66 59  1  0
 67 57  1  0
 69 71  2  0
 70 69  1  0
 72 70  1  0
 73 82  2  0
 73 78  1  0
 74 70  1  0
 74 78  1  0
 75 74  1  0
 76 77  1  0
 76 75  1  0
 77 73  1  0
 78 79  2  0
 79 80  1  0
 81 80  2  0
 82 81  1  0
 83 57  1  0
 83 88  1  0
 83 84  1  0
 84 87  1  1
 84 85  1  0
 86 84  1  0
 88 91  1  0
 89 93  1  0
 89 88  1  0
 90 89  2  0
 93 92  1  0
 95 93  1  0
 95 96  1  0
 95 94  1  0
M  ISO  4  12 100  20 100  52 101  56 101
M  END
>  <TORSDO>  (46) 
F 20

>  <SCORE>  (46) 
-13.778

>  <name>  (46) 
45

>  <ligand_id>  (46) 
45

>  <original_smiles>  (46) 
[H]OC(C(=O)C(=O)N([H])c1c([H])c(N([H])C(=O)N2C([H])([H])C([H])([H])C([H])([H])C([H])(n3nc(-c4c([H])c([H])c(Oc5c([H])c([H])c(F)c([H])c5F)c([H])c4[H])c(C(=O)N([H])[H])c3N([H])[H])C2([H])[H])c([H])c([H])c1F)=C([H])Oc1c([H])c([H])c2c(c1[H])C([H])([H])N(C(=O)C([H])(N([H])C(=O)C([H])(N([H])C([H])([H])[H])C([H])([H])[H])C(C([H])([H])[H])(C([H])([H])[H])C([H])([H])[H])C([H])(C(=O)N([H])C1([H])c3c([H])c([H])c([H])c([H])c3C([H])([H])C([H])([H])C1([H])[H])C2([H])[H]

>  <smiles>  (46) 
[H]OC(C(=O)C(=O)N([H])c1c([H])c(N([H])C(=O)N2C([H])([H])C([H])([H])C([H])([H])C([H])(n3nc(-c4c([H])c([H])c(Oc5c([H])c([H])c(F)c([H])c5F)c([H])c4[H])c(C(=O)N([H])[H])c3N([H])[H])C2([H])[H])c([H])c([H])c1F)=C([H])Oc1c([H])c([H])c2c(c1[H])C([H])([H])N(C(=O)C([H])(N([H])C(=O)C([H])(N([H])C([H])([H])[H])C([H])([H])[H])C(C([H])([H])[H])(C([H])([H])[H])C([H])([H])[H])C([H])(C(=O)N([H])C1([H])c3c([H])c([H])c([H])c([H])c3C([H])([H])C([H])([H])C1([H])[H])C2([H])[H]

$$$$
46:0:0
     RDKit          3D

 98106  0  0  1  0  0  0  0  0999 V2000
  -28.9980  -19.4350   19.9650 C   0  0  0  0  0  3  0  0  0  0  0  0
  -30.7560  -21.0870   19.6360 C   0  0  0  0  0  3  0  0  0  0  0  0
  -29.9280  -18.3340   19.8410 C   0  0  0  0  0  0  0  0  0  0  0  0
  -31.2660  -18.6910   19.4580 C   0  0  0  0  0  0  0  0  0  0  0  0
  -29.3920  -20.8160   19.8560 C   0  0  0  0  0  0  0  0  0  0  0  0
  -31.6680  -20.0460   19.4300 C   0  0  0  0  0  0  0  0  0  0  0  0
  -32.9480  -20.3680   19.1160 F   0  0  0  0  0  0  0  0  0  0  0  0
  -30.6750  -14.7600   20.3060 C   0  0  0  0  0  0  0  0  0  0  0  0
  -30.3720  -12.4950   19.3360 C   0  0  0  0  0  2  0  0  0  0  0  0
  -29.4440  -12.4890   18.1080 C   0  0  0  0  0  2  0  0  0  0  0  0
  -27.9780  -12.3260   18.5510 C   0  0  0  0  0  2  0  0  0  0  0  0
  -27.5930  -13.2840   19.7120 C   0  0  0  0  0  3  0  0  0  0  0  0
  -28.6490  -13.3080   20.8340 C   0  0  0  0  0  2  0  0  0  0  0  0
  -29.9370  -13.6090   20.2100 N   0  0  0  0  0  0  0  0  0  0  0  0
  -31.8520  -14.7360   19.9660 O   0  0  0  0  0  0  0  0  0  0  0  0
  -29.4440  -16.8620   19.9510 C   0  0  0  0  0  0  0  0  0  0  0  0
  -30.1500  -15.9650   20.7060 N   0  0  0  0  0  0  0  0  0  0  0  0
  -28.3770  -16.5580   19.4140 O   0  0  0  0  0  0  0  0  0  0  0  0
  -30.8600  -16.4880   21.1890 H   0  0  0  0  0  0  0  0  0  0  0  0
  -25.2480  -13.8990   20.5270 C   0  0  0  0  0  0  0  0  0  0  0  0
  -24.1800  -13.1290   20.9040 C   0  0  0  0  0  0  0  0  0  0  0  0
  -24.6240  -11.7730   20.8350 C   0  0  0  0  0  0  0  0  0  0  0  0
  -26.2630  -13.0050   20.2350 N   0  0  0  0  0  0  0  0  0  0  0  0
  -25.9030  -11.7240   20.4870 N   0  0  0  0  0  0  0  0  0  0  0  0
  -23.8900  -10.5170   21.0200 C   0  0  0  0  0  0  0  0  0  0  0  0
  -24.3150   -9.5410   21.9490 C   0  0  0  0  0  3  0  0  0  0  0  0
  -23.5780   -8.3500   22.1220 C   0  0  0  0  0  3  0  0  0  0  0  0
  -22.4050   -8.1250   21.3640 C   0  0  0  0  0  0  0  0  0  0  0  0
  -22.0030   -9.0880   20.4210 C   0  0  0  0  0  3  0  0  0  0  0  0
  -22.7400  -10.2710   20.2460 C   0  0  0  0  0  3  0  0  0  0  0  0
  -21.6390   -6.9860   21.4460 O   0  0  0  0  0  0  0  0  0  0  0  0
  -21.5680   -6.2510   22.6020 C   0  0  0  0  0  0  0  0  0  0  0  0
  -21.0540   -6.7950   23.8010 C   0  0  0  0  0  3  0  0  0  0  0  0
  -20.9320   -5.9830   24.9470 C   0  0  0  0  0  3  0  0  0  0  0  0
  -21.3150   -4.6280   24.8930 C   0  0  0  0  0  0  0  0  0  0  0  0
  -21.8200   -4.0860   23.6990 C   0  0  0  0  0  3  0  0  0  0  0  0
  -21.9440   -4.8940   22.5570 C   0  0  0  0  0  0  0  0  0  0  0  0
  -22.4120   -4.3600   21.4030 F   0  0  0  0  0  0  0  0  0  0  0  0
  -21.1890   -3.8450   25.9900 F   0  0  0  0  0  0  0  0  0  0  0  0
  -22.7980  -13.6210   21.2210 C   0  0  0  0  0  0  0  0  0  0  0  0
  -22.0860  -12.9140   22.0910 N   0  0  0  0  0  0  0  0  0  0  0  0
  -22.3610  -14.6610   20.7310 O   0  0  0  0  0  0  0  0  0  0  0  0
  -22.4540  -12.0720   22.5050 H   0  0  0  0  0  0  0  0  0  0  0  0
  -21.1590  -13.2220   22.3460 H   0  0  0  0  0  0  0  0  0  0  0  0
  -25.4460  -15.2700   20.3900 N   0  0  0  0  0  0  0  0  0  0  0  0
  -24.7480  -15.9600   20.6400 H   0  0  0  0  0  0  0  0  0  0  0  0
  -26.3320  -15.6840   20.1110 H   0  0  0  0  0  0  0  0  0  0  0  0
  -28.6640  -23.2670   19.9520 C   0  0  0  0  0  0  0  0  0  0  0  0
  -28.4480  -21.9200   19.7780 N   0  0  0  0  0  0  0  0  0  0  0  0
  -29.3670  -23.6990   20.8660 O   0  0  0  0  0  0  0  0  0  0  0  0
  -27.6340  -21.7340   19.2060 H   0  0  0  0  0  0  0  0  0  0  0  0
  -27.7250  -25.4640   18.9670 C   0  0  0  0  0  3  0  0  0  0  0  0
  -27.9710  -24.1080   18.9410 C   0  0  0  0  0  0  0  0  0  0  0  0
  -27.5450  -23.4620   17.8380 O   0  0  0  0  0  0  0  0  0  0  0  0
  -27.1140  -24.0900   17.2740 H   0  0  0  0  0  0  0  0  0  0  0  0
  -27.8670  -26.4740   19.9320 O   0  0  0  0  0  0  0  0  0  0  0  0
  -24.5440  -32.0210   23.2760 C   0  0  0  0  0  0  0  0  0  0  0  0
  -26.8050  -27.3930   20.0220 C   0  0  0  0  0  0  0  0  0  0  0  0
  -23.2060  -30.6690   21.7180 C   0  0  0  0  0  3  0  0  0  0  0  0
  -24.5100  -29.0900   20.2060 C   0  0  0  0  0  0  0  0  0  0  0  0
  -25.7420  -30.9030   21.3780 C   0  0  0  0  0  2  0  0  0  0  0  0
  -25.7370  -29.5260   20.7210 C   0  0  0  0  0  0  0  0  0  0  0  0
  -26.8930  -28.6900   20.6200 C   0  0  0  0  0  3  0  0  0  0  0  0
  -25.5320  -27.0040   19.5320 C   0  0  0  0  0  3  0  0  0  0  0  0
  -24.4070  -27.8290   19.6110 C   0  0  0  0  0  3  0  0  0  0  0  0
  -23.3150  -30.0120   20.3230 C   0  0  0  0  0  2  0  0  0  0  0  0
  -24.5220  -31.2100   22.1790 N   0  0  0  0  0  0  0  0  0  0  0  0
  -23.5010  -32.3290   23.8680 O   0  0  0  0  0  0  0  0  0  0  0  0
  -22.5650  -29.6620   22.7020 C   0  0  0  0  0  0  0  0  0  0  0  0
  -21.2510  -29.4240   22.5540 N   0  0  0  0  0  0  0  0  0  0  0  0
  -23.2480  -29.0990   23.5630 O   0  0  0  0  0  0  0  0  0  0  0  0
  -20.7600  -29.9370   21.8360 H   0  0  0  0  0  0  0  0  0  0  0  0
  -17.9350  -28.0300   22.9670 C   0  0  0  0  0  0  0  0  0  0  0  0
  -20.4490  -28.4920   23.3470 C   0  0  0  0  0  3  0  0  0  0  0  0
  -20.6810  -27.0320   22.8930 C   0  0  0  0  0  2  0  0  0  0  0  0
  -19.6630  -26.5550   21.8510 C   0  0  0  0  0  2  0  0  0  0  0  0
  -18.2410  -26.6500   22.4090 C   0  0  0  0  0  2  0  0  0  0  0  0
  -18.9720  -28.9010   23.3920 C   0  0  0  0  0  0  0  0  0  0  0  0
  -18.6330  -30.1850   23.8690 C   0  0  0  0  0  3  0  0  0  0  0  0
  -17.2880  -30.6000   23.9320 C   0  0  0  0  0  3  0  0  0  0  0  0
  -16.2650  -29.7280   23.5210 C   0  0  0  0  0  3  0  0  0  0  0  0
  -16.5890  -28.4470   23.0430 C   0  0  0  0  0  3  0  0  0  0  0  0
  -25.8780  -32.6160   23.8260 C   0  0  0  0  0  3  0  0  0  0  0  0
  -26.4410  -31.8240   25.0720 C   0  0  1  0  0  0  0  0  0  0  0  0
  -25.3880  -31.5810   26.1770 C   0  0  0  0  0  1  0  0  0  0  0  0
  -26.9770  -30.4400   24.6400 C   0  0  0  0  0  1  0  0  0  0  0  0
  -27.6280  -32.5980   25.6940 C   0  0  0  0  0  1  0  0  0  0  0  0
  -25.6230  -34.0200   24.1760 N   0  0  0  0  0  0  0  0  0  0  0  0
  -25.9060  -35.0680   23.3890 C   0  0  0  0  0  0  0  0  0  0  0  0
  -26.4810  -34.9510   22.3050 O   0  0  0  0  0  0  0  0  0  0  0  0
  -25.1070  -34.1880   25.0270 H   0  0  0  0  0  0  0  0  0  0  0  0
  -24.1810  -36.8850   23.1930 C   0  0  0  0  0  1  0  0  0  0  0  0
  -25.4870  -36.4650   23.8860 C   0  0  0  0  0  3  0  0  0  0  0  0
  -27.6950  -37.3170   24.5260 C   0  0  0  0  0  1  0  0  0  0  0  0
  -26.5230  -37.4980   23.6750 N   0  0  0  0  0  0  0  0  0  0  0  0
  -26.1480  -38.4290   23.8440 H   0  0  0  0  0  0  0  0  0  0  0  0
  -33.5100  -17.4690   19.7680 C   0  0  0  0  0  1  0  0  0  0  0  0
  -32.2790  -17.7060   18.8840 C   0  0  0  0  0  2  0  0  0  0  0  0
  2  5  2  0
  3 16  1  0
  3  1  2  0
  4  3  1  0
  5  1  1  0
  6  4  2  0
  6  2  1  0
  7  6  1  0
  8 17  1  0
  9 14  1  0
 10 11  1  0
 10  9  1  0
 12 11  1  0
 12 23  1  0
 12 13  1  0
 14  8  1  0
 14 13  1  0
 15  8  2  0
 16 17  1  0
 17 19  1  0
 18 16  2  0
 20 21  2  0
 21 40  1  0
 22 21  1  0
 22 25  1  0
 23 24  1  0
 23 20  1  0
 24 22  2  0
 25 26  1  0
 26 27  2  0
 28 31  1  0
 28 27  1  0
 29 28  2  0
 30 29  1  0
 30 25  2  0
 31 32  1  0
 32 33  1  0
 33 34  2  0
 35 34  1  0
 35 39  1  0
 36 35  2  0
 37 32  2  0
 37 36  1  0
 38 37  1  0
 40 41  1  0
 41 44  1  0
 41 43  1  0
 42 40  2  0
 45 20  1  0
 45 46  1  0
 47 45  1  0
 48 50  2  0
 49  5  1  0
 49 48  1  0
 51 49  1  0
 52 56  1  0
 53 52  2  0
 53 48  1  0
 54 53  1  0
 55 54  1  0
 56 58  1  0
 57 68  2  0
 58 63  1  0
 59 67  1  0
 59 69  1  0
 60 66  1  0
 60 62  1  0
 61 67  1  0
 62 61  1  0
 63 62  2  0
 64 65  1  0
 64 58  2  0
 65 60  2  0
 66 59  1  0
 67 57  1  0
 69 71  2  0
 70 69  1  0
 72 70  1  0
 73 82  2  0
 73 78  1  0
 74 70  1  0
 74 78  1  0
 75 74  1  0
 76 77  1  0
 76 75  1  0
 77 73  1  0
 78 79  2  0
 79 80  1  0
 81 80  2  0
 82 81  1  0
 83 57  1  0
 83 88  1  0
 83 84  1  0
 84 87  1  1
 84 85  1  0
 86 84  1  0
 88 91  1  0
 89 93  1  0
 89 88  1  0
 90 89  2  0
 93 92  1  0
 95 96  1  0
 95 93  1  0
 95 94  1  0
 98  4  1  0
 98 97  1  0
M  ISO  4   8 100  17 100  52 101  56 101
M  END
>  <TORSDO>  (47) 
F 20

>  <SCORE>  (47) 
-14.129

>  <name>  (47) 
46

>  <ligand_id>  (47) 
46

>  <original_smiles>  (47) 
[H]OC(C(=O)N([H])c1c([H])c(F)c(C([H])([H])C([H])([H])[H])c(C(=O)N([H])C(=O)N2C([H])([H])C([H])([H])C([H])([H])C([H])(n3nc(-c4c([H])c([H])c(Oc5c([H])c([H])c(F)c([H])c5F)c([H])c4[H])c(C(=O)N([H])[H])c3N([H])[H])C2([H])[H])c1[H])=C([H])Oc1c([H])c([H])c2c(c1[H])C([H])([H])N(C(=O)C([H])(N([H])C(=O)C([H])(N([H])C([H])([H])[H])C([H])([H])[H])C(C([H])([H])[H])(C([H])([H])[H])C([H])([H])[H])C([H])(C(=O)N([H])C1([H])c3c([H])c([H])c([H])c([H])c3C([H])([H])C([H])([H])C1([H])[H])C2([H])[H]

>  <smiles>  (47) 
[H]OC(C(=O)N([H])c1c([H])c(F)c(C([H])([H])C([H])([H])[H])c(C(=O)N([H])C(=O)N2C([H])([H])C([H])([H])C([H])([H])C([H])(n3nc(-c4c([H])c([H])c(Oc5c([H])c([H])c(F)c([H])c5F)c([H])c4[H])c(C(=O)N([H])[H])c3N([H])[H])C2([H])[H])c1[H])=C([H])Oc1c([H])c([H])c2c(c1[H])C([H])([H])N(C(=O)C([H])(N([H])C(=O)C([H])(N([H])C([H])([H])[H])C([H])([H])[H])C(C([H])([H])[H])(C([H])([H])[H])C([H])([H])[H])C([H])(C(=O)N([H])C1([H])c3c([H])c([H])c([H])c([H])c3C([H])([H])C([H])([H])C1([H])[H])C2([H])[H]

$$$$
47:0:0
     RDKit          3D

100108  0  0  1  0  0  0  0  0999 V2000
  -32.4940  -21.0670   20.9020 C   0  0  0  0  0  3  0  0  0  0  0  0
  -34.8970  -20.4490   21.5710 C   0  0  0  0  0  1  0  0  0  0  0  0
  -33.7750  -21.4950   21.6450 C   0  0  0  0  0  2  0  0  0  0  0  0
  -31.5020  -22.2490   20.8570 C   0  0  0  0  0  0  0  0  0  0  0  0
  -30.7340  -22.5140   21.7890 O   0  0  0  0  0  0  0  0  0  0  0  0
  -31.4990  -23.0900   19.5720 C   0  0  0  0  0  2  0  0  0  0  0  0
  -29.9880  -25.0660   19.6490 C   0  0  0  0  0  0  0  0  0  0  0  0
  -30.2160  -23.7750   19.3950 N   0  0  0  0  0  0  0  0  0  0  0  0
  -30.8910  -25.8430   19.9730 O   0  0  0  0  0  0  0  0  0  0  0  0
  -29.4200  -23.1970   19.1610 H   0  0  0  0  0  0  0  0  0  0  0  0
  -28.5370  -25.5450   19.5300 C   0  0  0  0  0  2  0  0  0  0  0  0
  -28.4250  -26.8130   20.1650 O   0  0  0  0  0  0  0  0  0  0  0  0
  -24.5770  -31.8840   23.2550 C   0  0  0  0  0  0  0  0  0  0  0  0
  -27.2120  -27.4620   20.1610 C   0  0  0  0  0  0  0  0  0  0  0  0
  -23.3600  -30.4830   21.6170 C   0  0  0  0  0  3  0  0  0  0  0  0
  -24.8040  -28.9390   20.1920 C   0  0  0  0  0  0  0  0  0  0  0  0
  -25.8820  -30.8420   21.4090 C   0  0  0  0  0  2  0  0  0  0  0  0
  -25.9600  -29.4710   20.7750 C   0  0  0  0  0  0  0  0  0  0  0  0
  -27.1620  -28.7360   20.7610 C   0  0  0  0  0  3  0  0  0  0  0  0
  -26.0350  -26.9280   19.5840 C   0  0  0  0  0  3  0  0  0  0  0  0
  -24.8340  -27.6630   19.5990 C   0  0  0  0  0  3  0  0  0  0  0  0
  -23.5610  -29.7960   20.2390 C   0  0  0  0  0  2  0  0  0  0  0  0
  -24.6250  -31.0840   22.1530 N   0  0  0  0  0  0  0  0  0  0  0  0
  -23.5000  -32.1600   23.7990 O   0  0  0  0  0  0  0  0  0  0  0  0
  -22.7110  -29.4660   22.5810 C   0  0  0  0  0  0  0  0  0  0  0  0
  -21.3870  -29.2810   22.4500 N   0  0  0  0  0  0  0  0  0  0  0  0
  -23.3930  -28.8440   23.4000 O   0  0  0  0  0  0  0  0  0  0  0  0
  -20.8980  -29.8360   21.7620 H   0  0  0  0  0  0  0  0  0  0  0  0
  -18.0160  -28.0780   22.9290 C   0  0  0  0  0  0  0  0  0  0  0  0
  -20.5700  -28.3470   23.2210 C   0  0  0  0  0  3  0  0  0  0  0  0
  -20.6820  -26.9120   22.6560 C   0  0  0  0  0  2  0  0  0  0  0  0
  -19.5910  -26.5770   21.6360 C   0  0  0  0  0  2  0  0  0  0  0  0
  -18.2020  -26.7230   22.2670 C   0  0  0  0  0  2  0  0  0  0  0  0
  -19.1280  -28.8470   23.3630 C   0  0  0  0  0  0  0  0  0  0  0  0
  -18.9000  -30.1160   23.9390 C   0  0  0  0  0  3  0  0  0  0  0  0
  -17.5940  -30.6160   24.0880 C   0  0  0  0  0  3  0  0  0  0  0  0
  -16.4950  -29.8430   23.6710 C   0  0  0  0  0  3  0  0  0  0  0  0
  -16.7080  -28.5760   23.0980 C   0  0  0  0  0  3  0  0  0  0  0  0
  -25.8700  -32.5090   23.8700 C   0  0  0  0  0  3  0  0  0  0  0  0
  -25.5700  -33.9090   24.1980 N   0  0  0  0  0  0  0  0  0  0  0  0
  -25.9080  -34.9570   23.4340 C   0  0  0  0  0  0  0  0  0  0  0  0
  -26.5750  -34.8480   22.4030 O   0  0  0  0  0  0  0  0  0  0  0  0
  -24.9750  -34.0690   24.9980 H   0  0  0  0  0  0  0  0  0  0  0  0
  -24.1840  -36.7540   23.0760 C   0  0  0  0  0  1  0  0  0  0  0  0
  -25.4250  -36.3480   23.8880 C   0  0  0  0  0  3  0  0  0  0  0  0
  -27.5670  -37.2230   24.7100 C   0  0  0  0  0  1  0  0  0  0  0  0
  -26.4600  -37.3980   23.7730 N   0  0  0  0  0  0  0  0  0  0  0  0
  -26.0580  -38.3180   23.9310 H   0  0  0  0  0  0  0  0  0  0  0  0
  -26.3900  -31.7360   25.1450 C   0  0  1  0  0  0  0  0  0  0  0  0
  -25.3020  -31.5030   26.2180 C   0  0  0  0  0  1  0  0  0  0  0  0
  -26.9650  -30.3560   24.7480 C   0  0  0  0  0  1  0  0  0  0  0  0
  -27.5470  -32.5260   25.8010 C   0  0  0  0  0  1  0  0  0  0  0  0
  -31.9160  -19.8700   21.5200 N   0  0  0  0  0  0  0  0  0  0  0  0
  -32.3240  -19.5280   22.3830 H   0  0  0  0  0  0  0  0  0  0  0  0
  -30.4200  -19.3730   19.6130 C   0  0  0  0  0  3  0  0  0  0  0  0
  -29.5760  -18.4690   18.9450 C   0  0  0  0  0  3  0  0  0  0  0  0
  -31.0790  -18.9950   20.8080 C   0  0  0  0  0  0  0  0  0  0  0  0
  -30.0660  -16.7680   20.6230 C   0  0  0  0  0  0  0  0  0  0  0  0
  -29.3950  -17.1710   19.4490 C   0  0  0  0  0  0  0  0  0  0  0  0
  -30.8940  -17.6840   21.3090 C   0  0  0  0  0  0  0  0  0  0  0  0
  -28.5950  -16.3040   18.7850 F   0  0  0  0  0  0  0  0  0  0  0  0
  -31.5300  -17.3030   22.4470 F   0  0  0  0  0  0  0  0  0  0  0  0
  -30.6090  -14.4490   20.4910 C   0  0  0  0  0  0  0  0  0  0  0  0
  -30.2850  -12.3380   19.2790 C   0  0  0  0  0  2  0  0  0  0  0  0
  -29.3370  -12.6000   18.0900 C   0  0  0  0  0  2  0  0  0  0  0  0
  -27.8670  -12.4500   18.5250 C   0  0  0  0  0  2  0  0  0  0  0  0
  -27.5400  -13.2470   19.8150 C   0  0  0  0  0  3  0  0  0  0  0  0
  -28.5990  -12.9840   20.9110 C   0  0  0  0  0  2  0  0  0  0  0  0
  -29.9290  -13.2820   20.3460 N   0  0  0  0  0  0  0  0  0  0  0  0
  -31.7270  -14.6510   20.0090 O   0  0  0  0  0  0  0  0  0  0  0  0
  -29.9230  -15.4350   21.0770 N   0  0  0  0  0  0  0  0  0  0  0  0
  -29.0120  -15.1740   21.4170 H   0  0  0  0  0  0  0  0  0  0  0  0
  -25.1350  -13.8470   20.5100 C   0  0  0  0  0  0  0  0  0  0  0  0
  -24.0720  -13.0690   20.8810 C   0  0  0  0  0  0  0  0  0  0  0  0
  -24.5430  -11.7200   20.8560 C   0  0  0  0  0  0  0  0  0  0  0  0
  -26.1870  -12.9710   20.2880 N   0  0  0  0  0  0  0  0  0  0  0  0
  -25.8330  -11.6870   20.5500 N   0  0  0  0  0  0  0  0  0  0  0  0
  -23.8260  -10.4540   21.0490 C   0  0  0  0  0  0  0  0  0  0  0  0
  -24.2730   -9.4880   21.9770 C   0  0  0  0  0  3  0  0  0  0  0  0
  -23.5590   -8.2840   22.1580 C   0  0  0  0  0  3  0  0  0  0  0  0
  -22.3830   -8.0380   21.4090 C   0  0  0  0  0  0  0  0  0  0  0  0
  -21.9560   -8.9930   20.4700 C   0  0  0  0  0  3  0  0  0  0  0  0
  -22.6710  -10.1890   20.2880 C   0  0  0  0  0  3  0  0  0  0  0  0
  -21.6380   -6.8880   21.4980 O   0  0  0  0  0  0  0  0  0  0  0  0
  -21.6150   -6.1320   22.6430 C   0  0  0  0  0  0  0  0  0  0  0  0
  -21.2200   -6.6760   23.8850 C   0  0  0  0  0  3  0  0  0  0  0  0
  -21.1440   -5.8480   25.0230 C   0  0  0  0  0  3  0  0  0  0  0  0
  -21.4520   -4.4790   24.9200 C   0  0  0  0  0  0  0  0  0  0  0  0
  -21.8420   -3.9350   23.6830 C   0  0  0  0  0  3  0  0  0  0  0  0
  -21.9200   -4.7610   22.5480 C   0  0  0  0  0  0  0  0  0  0  0  0
  -22.2750   -4.2270   21.3530 F   0  0  0  0  0  0  0  0  0  0  0  0
  -21.3720   -3.6810   26.0120 F   0  0  0  0  0  0  0  0  0  0  0  0
  -22.6710  -13.5380   21.1490 C   0  0  0  0  0  0  0  0  0  0  0  0
  -21.9460  -12.8360   22.0140 N   0  0  0  0  0  0  0  0  0  0  0  0
  -22.2260  -14.5590   20.6290 O   0  0  0  0  0  0  0  0  0  0  0  0
  -22.3180  -12.0090   22.4580 H   0  0  0  0  0  0  0  0  0  0  0  0
  -21.0060  -13.1320   22.2370 H   0  0  0  0  0  0  0  0  0  0  0  0
  -25.2920  -15.2170   20.3260 N   0  0  0  0  0  0  0  0  0  0  0  0
  -24.5170  -15.8660   20.4190 H   0  0  0  0  0  0  0  0  0  0  0  0
  -26.1320  -15.6540   19.9650 H   0  0  0  0  0  0  0  0  0  0  0  0
  1 53  1  0
  1  3  1  0
  2  3  1  0
  4  1  1  0
  4  5  2  0
  6  4  1  0
  7  9  2  0
  8  6  1  0
  8  7  1  0
 10  8  1  0
 11  7  1  0
 11 12  1  0
 13 24  2  0
 14 12  1  0
 14 19  1  0
 15 23  1  0
 15 25  1  0
 16 22  1  0
 16 18  1  0
 17 23  1  0
 18 17  1  0
 19 18  2  0
 20 21  1  0
 20 14  2  0
 21 16  2  0
 22 15  1  0
 23 13  1  0
 25 27  2  0
 26 25  1  0
 28 26  1  0
 29 38  2  0
 29 34  1  0
 30 26  1  0
 30 34  1  0
 31 30  1  0
 32 33  1  0
 32 31  1  0
 33 29  1  0
 34 35  2  0
 35 36  1  0
 37 36  2  0
 38 37  1  0
 39 13  1  0
 39 40  1  0
 39 49  1  0
 40 43  1  0
 41 45  1  0
 41 40  1  0
 42 41  2  0
 45 44  1  0
 47 45  1  0
 47 48  1  0
 47 46  1  0
 49 52  1  1
 49 50  1  0
 51 49  1  0
 53 54  1  0
 55 57  1  0
 56 59  1  0
 56 55  2  0
 57 60  2  0
 57 53  1  0
 58 71  1  0
 58 60  1  0
 59 58  2  0
 60 62  1  0
 61 59  1  0
 63 71  1  0
 64 69  1  0
 65 66  1  0
 65 64  1  0
 67 66  1  0
 67 76  1  0
 67 68  1  0
 69 63  1  0
 69 68  1  0
 70 63  2  0
 71 72  1  0
 73 74  2  0
 74 93  1  0
 75 74  1  0
 75 78  1  0
 76 73  1  0
 76 77  1  0
 77 75  2  0
 78 79  1  0
 79 80  2  0
 81 84  1  0
 81 80  1  0
 82 81  2  0
 83 82  1  0
 83 78  2  0
 84 85  1  0
 85 86  1  0
 86 87  2  0
 88 87  1  0
 88 92  1  0
 89 88  2  0
 90 85  2  0
 90 89  1  0
 91 90  1  0
 93 94  1  0
 94 97  1  0
 94 96  1  0
 95 93  2  0
 98 99  1  0
 98 73  1  0
100 98  1  0
M  ISO  4  11 101  12 101  63 100  71 100
M  END
>  <TORSDO>  (48) 
F 23

>  <SCORE>  (48) 
-13.007

>  <name>  (48) 
47

>  <ligand_id>  (48) 
47

>  <original_smiles>  (48) 
[H]c1c([H])c([H])c2c(c1[H])C([H])([H])C([H])([H])C([H])([H])C2([H])N([H])C(=O)C1([H])N(C(=O)C([H])(N([H])C(=O)C([H])(N([H])C([H])([H])[H])C([H])([H])[H])C(C([H])([H])[H])(C([H])([H])[H])C([H])([H])[H])C([H])([H])c2c([H])c(OC([H])([H])C(=O)N([H])C([H])([H])C(=O)C([H])(N([H])c3c([H])c([H])c(F)c(N([H])C(=O)N4C([H])([H])C([H])([H])C([H])([H])C([H])(n5nc(-c6c([H])c([H])c(Oc7c([H])c([H])c(F)c([H])c7F)c([H])c6[H])c(C(=O)N([H])[H])c5N([H])[H])C4([H])[H])c3F)C([H])([H])C([H])([H])[H])c([H])c([H])c2C1([H])[H]

>  <smiles>  (48) 
[H]c1c([H])c([H])c2c(c1[H])C([H])([H])C([H])([H])C([H])([H])C2([H])N([H])C(=O)C1([H])N(C(=O)C([H])(N([H])C(=O)C([H])(N([H])C([H])([H])[H])C([H])([H])[H])C(C([H])([H])[H])(C([H])([H])[H])C([H])([H])[H])C([H])([H])c2c([H])c(OC([H])([H])C(=O)N([H])C([H])([H])C(=O)C([H])(N([H])c3c([H])c([H])c(F)c(N([H])C(=O)N4C([H])([H])C([H])([H])C([H])([H])C([H])(n5nc(-c6c([H])c([H])c(Oc7c([H])c([H])c(F)c([H])c7F)c([H])c6[H])c(C(=O)N([H])[H])c5N([H])[H])C4([H])[H])c3F)C([H])([H])C([H])([H])[H])c([H])c([H])c2C1([H])[H]

$$$$
48:0:0
     RDKit          3D

 94102  0  0  1  0  0  0  0  0999 V2000
  -28.6310  -22.5870   20.4790 C   0  0  0  0  0  0  0  0  0  0  0  0
  -29.5530  -21.6280   20.1140 N   0  0  0  0  0  0  0  0  0  0  0  0
  -27.5760  -22.2810   21.0390 O   0  0  0  0  0  0  0  0  0  0  0  0
  -30.3690  -22.0200   19.6640 H   0  0  0  0  0  0  0  0  0  0  0  0
  -30.8960  -18.0620   19.8410 C   0  0  0  0  0  3  0  0  0  0  0  0
  -28.7380  -18.0140   20.8290 C   0  0  0  0  0  3  0  0  0  0  0  0
  -29.8570  -17.2580   20.3840 C   0  0  0  0  0  0  0  0  0  0  0  0
  -30.7620  -19.4900   19.7710 C   0  0  0  0  0  0  0  0  0  0  0  0
  -29.5910  -20.1580   20.2400 C   0  0  0  0  0  0  0  0  0  0  0  0
  -28.6040  -19.3760   20.7650 N   0  0  0  0  0  0  0  0  0  0  0  0
  -31.7720  -20.2250   19.2420 F   0  0  0  0  0  0  0  0  0  0  0  0
  -30.6310  -14.7560   20.0380 C   0  0  0  0  0  0  0  0  0  0  0  0
  -30.4090  -12.5280   18.9340 C   0  0  0  0  0  2  0  0  0  0  0  0
  -29.3940  -12.6610   17.7740 C   0  0  0  0  0  2  0  0  0  0  0  0
  -27.9490  -12.4730   18.2790 C   0  0  0  0  0  2  0  0  0  0  0  0
  -27.6510  -13.3030   19.5560 C   0  0  0  0  0  3  0  0  0  0  0  0
  -28.7710  -13.1320   20.6070 C   0  0  0  0  0  2  0  0  0  0  0  0
  -30.0400  -13.5160   19.9700 N   0  0  0  0  0  0  0  0  0  0  0  0
  -31.7610  -14.9490   19.5790 O   0  0  0  0  0  0  0  0  0  0  0  0
  -29.8310  -15.7800   20.4980 N   0  0  0  0  0  0  0  0  0  0  0  0
  -28.9820  -15.4210   20.9060 H   0  0  0  0  0  0  0  0  0  0  0  0
  -25.3010  -13.8760   20.4210 C   0  0  0  0  0  0  0  0  0  0  0  0
  -24.2570  -13.0890   20.8290 C   0  0  0  0  0  0  0  0  0  0  0  0
  -24.7190  -11.7410   20.7340 C   0  0  0  0  0  0  0  0  0  0  0  0
  -26.3320  -13.0040   20.1050 N   0  0  0  0  0  0  0  0  0  0  0  0
  -25.9900  -11.7130   20.3530 N   0  0  0  0  0  0  0  0  0  0  0  0
  -24.0050  -10.4720   20.9280 C   0  0  0  0  0  0  0  0  0  0  0  0
  -24.4410   -9.5160   21.8720 C   0  0  0  0  0  3  0  0  0  0  0  0
  -23.7270   -8.3120   22.0540 C   0  0  0  0  0  3  0  0  0  0  0  0
  -22.5630   -8.0550   21.2910 C   0  0  0  0  0  0  0  0  0  0  0  0
  -22.1470   -9.0000   20.3360 C   0  0  0  0  0  3  0  0  0  0  0  0
  -22.8620  -10.1950   20.1530 C   0  0  0  0  0  3  0  0  0  0  0  0
  -21.8220   -6.9020   21.3800 O   0  0  0  0  0  0  0  0  0  0  0  0
  -21.7060   -6.2100   22.5600 C   0  0  0  0  0  0  0  0  0  0  0  0
  -21.1680   -6.8050   23.7220 C   0  0  0  0  0  3  0  0  0  0  0  0
  -21.0020   -6.0380   24.8920 C   0  0  0  0  0  3  0  0  0  0  0  0
  -21.3640   -4.6780   24.9010 C   0  0  0  0  0  0  0  0  0  0  0  0
  -21.8960   -4.0830   23.7430 C   0  0  0  0  0  3  0  0  0  0  0  0
  -22.0630   -4.8470   22.5760 C   0  0  0  0  0  0  0  0  0  0  0  0
  -22.5560   -4.2640   21.4570 F   0  0  0  0  0  0  0  0  0  0  0  0
  -21.1980   -3.9400   26.0240 F   0  0  0  0  0  0  0  0  0  0  0  0
  -22.8760  -13.5550   21.1890 C   0  0  0  0  0  0  0  0  0  0  0  0
  -22.1960  -12.8320   22.0720 N   0  0  0  0  0  0  0  0  0  0  0  0
  -22.4110  -14.5960   20.7240 O   0  0  0  0  0  0  0  0  0  0  0  0
  -22.5870  -11.9900   22.4700 H   0  0  0  0  0  0  0  0  0  0  0  0
  -21.2720  -13.1250   22.3550 H   0  0  0  0  0  0  0  0  0  0  0  0
  -25.4530  -15.2510   20.2700 N   0  0  0  0  0  0  0  0  0  0  0  0
  -24.6820  -15.8910   20.4170 H   0  0  0  0  0  0  0  0  0  0  0  0
  -26.2540  -15.6910   19.8360 H   0  0  0  0  0  0  0  0  0  0  0  0
  -28.1410  -25.0790   20.4340 C   0  0  0  0  0  3  0  0  0  0  0  0
  -28.9840  -24.0180   20.1540 C   0  0  0  0  0  0  0  0  0  0  0  0
  -30.1650  -24.2670   19.5700 O   0  0  0  0  0  0  0  0  0  0  0  0
  -30.2150  -25.2070   19.4440 H   0  0  0  0  0  0  0  0  0  0  0  0
  -28.3540  -26.4630   20.1840 O   0  0  0  0  0  0  0  0  0  0  0  0
  -24.6180  -31.8860   23.2330 C   0  0  0  0  0  0  0  0  0  0  0  0
  -27.2480  -27.3340   20.1670 C   0  0  0  0  0  0  0  0  0  0  0  0
  -23.4200  -30.4880   21.5900 C   0  0  0  0  0  3  0  0  0  0  0  0
  -24.8780  -28.9460   20.1570 C   0  0  0  0  0  0  0  0  0  0  0  0
  -25.9590  -30.8130   21.4090 C   0  0  0  0  0  2  0  0  0  0  0  0
  -26.0450  -29.4350   20.7590 C   0  0  0  0  0  0  0  0  0  0  0  0
  -27.2330  -28.6400   20.7570 C   0  0  0  0  0  3  0  0  0  0  0  0
  -26.0610  -26.9090   19.5310 C   0  0  0  0  0  3  0  0  0  0  0  0
  -24.8880  -27.6880   19.5340 C   0  0  0  0  0  3  0  0  0  0  0  0
  -23.6370  -29.8170   20.2070 C   0  0  0  0  0  2  0  0  0  0  0  0
  -24.6840  -31.0800   22.1340 N   0  0  0  0  0  0  0  0  0  0  0  0
  -23.5340  -32.1580   23.7700 O   0  0  0  0  0  0  0  0  0  0  0  0
  -22.7600  -29.4660   22.5470 C   0  0  0  0  0  0  0  0  0  0  0  0
  -21.4340  -29.2870   22.4230 N   0  0  0  0  0  0  0  0  0  0  0  0
  -23.4420  -28.8380   23.3630 O   0  0  0  0  0  0  0  0  0  0  0  0
  -20.9430  -29.8450   21.7380 H   0  0  0  0  0  0  0  0  0  0  0  0
  -18.0580  -28.0920   22.9350 C   0  0  0  0  0  0  0  0  0  0  0  0
  -20.6190  -28.3450   23.1910 C   0  0  0  0  0  3  0  0  0  0  0  0
  -20.7150  -26.9170   22.6040 C   0  0  0  0  0  2  0  0  0  0  0  0
  -19.6060  -26.6040   21.5940 C   0  0  0  0  0  2  0  0  0  0  0  0
  -18.2280  -26.7470   22.2480 C   0  0  0  0  0  2  0  0  0  0  0  0
  -19.1810  -28.8490   23.3640 C   0  0  0  0  0  0  0  0  0  0  0  0
  -18.9670  -30.1070   23.9670 C   0  0  0  0  0  3  0  0  0  0  0  0
  -17.6640  -30.6090   24.1450 C   0  0  0  0  0  3  0  0  0  0  0  0
  -16.5560  -29.8490   23.7320 C   0  0  0  0  0  3  0  0  0  0  0  0
  -16.7540  -28.5910   23.1330 C   0  0  0  0  0  3  0  0  0  0  0  0
  -25.8990  -32.5230   23.8570 C   0  0  0  0  0  3  0  0  0  0  0  0
  -26.4130  -31.7540   25.1370 C   0  0  1  0  0  0  0  0  0  0  0  0
  -25.3160  -31.5150   26.2010 C   0  0  0  0  0  1  0  0  0  0  0  0
  -27.0020  -30.3780   24.7500 C   0  0  0  0  0  1  0  0  0  0  0  0
  -27.5580  -32.5530   25.8020 C   0  0  0  0  0  1  0  0  0  0  0  0
  -25.5850  -33.9210   24.1860 N   0  0  0  0  0  0  0  0  0  0  0  0
  -25.9150  -34.9730   23.4250 C   0  0  0  0  0  0  0  0  0  0  0  0
  -26.5820  -34.8700   22.3930 O   0  0  0  0  0  0  0  0  0  0  0  0
  -24.9920  -34.0750   24.9880 H   0  0  0  0  0  0  0  0  0  0  0  0
  -24.1860  -36.7660   23.0700 C   0  0  0  0  0  1  0  0  0  0  0  0
  -25.4260  -36.3620   23.8830 C   0  0  0  0  0  3  0  0  0  0  0  0
  -27.5560  -37.2510   24.7190 C   0  0  0  0  0  1  0  0  0  0  0  0
  -26.4590  -37.4150   23.7700 N   0  0  0  0  0  0  0  0  0  0  0  0
  -26.0510  -38.3360   23.9130 H   0  0  0  0  0  0  0  0  0  0  0  0
  1  3  2  0
  2  9  1  0
  2  1  1  0
  4  2  1  0
  5  7  1  0
  7 20  1  0
  7  6  2  0
  8  5  2  0
  8  9  1  0
  9 10  2  0
 10  6  1  0
 11  8  1  0
 12 20  1  0
 13 18  1  0
 14 15  1  0
 14 13  1  0
 16 15  1  0
 16 25  1  0
 16 17  1  0
 18 12  1  0
 18 17  1  0
 19 12  2  0
 20 21  1  0
 22 23  2  0
 23 42  1  0
 24 23  1  0
 24 27  1  0
 25 26  1  0
 25 22  1  0
 26 24  2  0
 27 28  1  0
 28 29  2  0
 30 33  1  0
 30 29  1  0
 31 30  2  0
 32 31  1  0
 32 27  2  0
 33 34  1  0
 34 39  2  0
 34 35  1  0
 35 36  2  0
 36 37  1  0
 37 41  1  0
 38 37  2  0
 39 38  1  0
 40 39  1  0
 42 43  1  0
 43 46  1  0
 43 45  1  0
 44 42  2  0
 47 48  1  0
 47 22  1  0
 49 47  1  0
 51 50  2  0
 51  1  1  0
 52 51  1  0
 53 52  1  0
 54 50  1  0
 55 66  2  0
 56 54  1  0
 56 61  1  0
 57 65  1  0
 57 67  1  0
 58 64  1  0
 58 60  1  0
 59 65  1  0
 60 59  1  0
 61 60  2  0
 62 63  1  0
 62 56  2  0
 63 58  2  0
 64 57  1  0
 65 55  1  0
 67 69  2  0
 68 67  1  0
 70 68  1  0
 71 80  2  0
 71 76  1  0
 72 68  1  0
 72 76  1  0
 73 72  1  0
 74 75  1  0
 74 73  1  0
 75 71  1  0
 76 77  2  0
 77 78  1  0
 79 78  2  0
 80 79  1  0
 81 55  1  0
 81 86  1  0
 81 82  1  0
 82 85  1  1
 82 83  1  0
 84 82  1  0
 86 89  1  0
 87 91  1  0
 87 86  1  0
 88 87  2  0
 91 90  1  0
 93 91  1  0
 93 94  1  0
 93 92  1  0
M  ISO  4  12 100  20 100  50 101  54 101
M  END
>  <TORSDO>  (49) 
F 19

>  <SCORE>  (49) 
-14.276

>  <name>  (49) 
48

>  <ligand_id>  (49) 
48

>  <original_smiles>  (49) 
[H]OC(C(=O)N([H])c1nc([H])c(N([H])C(=O)N2C([H])([H])C([H])([H])C([H])([H])C([H])(n3nc(-c4c([H])c([H])c(Oc5c([H])c([H])c(F)c([H])c5F)c([H])c4[H])c(C(=O)N([H])[H])c3N([H])[H])C2([H])[H])c([H])c1F)=C([H])Oc1c([H])c([H])c2c(c1[H])C([H])([H])N(C(=O)C([H])(N([H])C(=O)C([H])(N([H])C([H])([H])[H])C([H])([H])[H])C(C([H])([H])[H])(C([H])([H])[H])C([H])([H])[H])C([H])(C(=O)N([H])C1([H])c3c([H])c([H])c([H])c([H])c3C([H])([H])C([H])([H])C1([H])[H])C2([H])[H]

>  <smiles>  (49) 
[H]OC(C(=O)N([H])c1nc([H])c(N([H])C(=O)N2C([H])([H])C([H])([H])C([H])([H])C([H])(n3nc(-c4c([H])c([H])c(Oc5c([H])c([H])c(F)c([H])c5F)c([H])c4[H])c(C(=O)N([H])[H])c3N([H])[H])C2([H])[H])c([H])c1F)=C([H])Oc1c([H])c([H])c2c(c1[H])C([H])([H])N(C(=O)C([H])(N([H])C(=O)C([H])(N([H])C([H])([H])[H])C([H])([H])[H])C(C([H])([H])[H])(C([H])([H])[H])C([H])([H])[H])C([H])(C(=O)N([H])C1([H])c3c([H])c([H])c([H])c([H])c3C([H])([H])C([H])([H])C1([H])[H])C2([H])[H]

$$$$
49:0:0
     RDKit          3D

 98107  0  0  1  0  0  0  0  0999 V2000
  -30.7820  -14.4900   20.4260 C   0  0  0  0  0  0  0  0  0  0  0  0
  -30.4970  -12.3080   19.3000 C   0  0  0  0  0  2  0  0  0  0  0  0
  -29.5720  -12.5210   18.0830 C   0  0  0  0  0  2  0  0  0  0  0  0
  -28.0930  -12.3900   18.4960 C   0  0  0  0  0  2  0  0  0  0  0  0
  -27.7500  -13.2390   19.7500 C   0  0  0  0  0  3  0  0  0  0  0  0
  -28.7880  -13.0100   20.8720 C   0  0  0  0  0  2  0  0  0  0  0  0
  -30.1230  -13.3020   20.3210 N   0  0  0  0  0  0  0  0  0  0  0  0
  -31.9120  -14.6520   19.9510 O   0  0  0  0  0  0  0  0  0  0  0  0
  -30.9850  -18.9050   20.0260 C   0  0  0  0  0  0  0  0  0  0  0  0
  -29.9730  -19.3980   20.8350 C   0  0  0  0  0  0  0  0  0  0  0  0
  -30.1880  -16.9060   20.8280 C   0  0  0  0  0  0  0  0  0  0  0  0
  -31.0690  -17.5020   20.0200 N   0  0  0  0  0  0  0  0  0  0  0  0
  -30.0730  -15.4890   21.0000 N   0  0  0  0  0  0  0  0  0  0  0  0
  -29.1360  -18.0720   21.6320 S   0  0  0  0  0  0  0  0  0  0  0  0
  -29.2420  -15.1880   21.4830 H   0  0  0  0  0  0  0  0  0  0  0  0
  -33.2060  -22.0120   17.8300 C   0  0  0  0  0  2  0  0  0  0  0  0
  -33.8350  -21.4190   19.1030 C   0  0  0  0  0  2  0  0  0  0  0  0
  -32.4470  -20.9400   17.0310 C   0  0  0  0  0  2  0  0  0  0  0  0
  -32.7760  -20.7300   19.9800 C   0  0  0  0  0  2  0  0  0  0  0  0
  -31.3860  -20.2440   17.9000 C   0  0  0  0  0  2  0  0  0  0  0  0
  -31.9960  -19.6580   19.1880 C   0  0  0  0  0  3  0  0  0  0  0  0
  -25.3500  -13.8860   20.4170 C   0  0  0  0  0  0  0  0  0  0  0  0
  -24.2700  -13.1310   20.7860 C   0  0  0  0  0  0  0  0  0  0  0  0
  -24.7170  -11.7730   20.7790 C   0  0  0  0  0  0  0  0  0  0  0  0
  -26.3880  -12.9890   20.2130 N   0  0  0  0  0  0  0  0  0  0  0  0
  -26.0100  -11.7140   20.4870 N   0  0  0  0  0  0  0  0  0  0  0  0
  -23.9750  -10.5220   20.9790 C   0  0  0  0  0  0  0  0  0  0  0  0
  -24.3770   -9.5720   21.9420 C   0  0  0  0  0  3  0  0  0  0  0  0
  -23.6370   -8.3840   22.1300 C   0  0  0  0  0  3  0  0  0  0  0  0
  -22.4800   -8.1390   21.3520 C   0  0  0  0  0  0  0  0  0  0  0  0
  -22.0980   -9.0770   20.3770 C   0  0  0  0  0  3  0  0  0  0  0  0
  -22.8380  -10.2570   20.1890 C   0  0  0  0  0  3  0  0  0  0  0  0
  -21.7150   -7.0020   21.4470 O   0  0  0  0  0  0  0  0  0  0  0  0
  -21.6200   -6.2940   22.6160 C   0  0  0  0  0  0  0  0  0  0  0  0
  -21.1410   -6.8820   23.8080 C   0  0  0  0  0  3  0  0  0  0  0  0
  -20.9950   -6.0990   24.9700 C   0  0  0  0  0  3  0  0  0  0  0  0
  -21.3160   -4.7280   24.9420 C   0  0  0  0  0  0  0  0  0  0  0  0
  -21.7870   -4.1400   23.7560 C   0  0  0  0  0  3  0  0  0  0  0  0
  -21.9350   -4.9210   22.5960 C   0  0  0  0  0  0  0  0  0  0  0  0
  -22.3690   -4.3430   21.4500 F   0  0  0  0  0  0  0  0  0  0  0  0
  -21.1680   -3.9740   26.0570 F   0  0  0  0  0  0  0  0  0  0  0  0
  -22.8750  -13.6260   21.0360 C   0  0  0  0  0  0  0  0  0  0  0  0
  -22.1340  -12.9550   21.9120 N   0  0  0  0  0  0  0  0  0  0  0  0
  -22.4490  -14.6430   20.4910 O   0  0  0  0  0  0  0  0  0  0  0  0
  -22.4870  -12.1310   22.3740 H   0  0  0  0  0  0  0  0  0  0  0  0
  -21.1960  -13.2680   22.1220 H   0  0  0  0  0  0  0  0  0  0  0  0
  -25.5330  -15.2520   20.2210 N   0  0  0  0  0  0  0  0  0  0  0  0
  -24.7710  -15.9170   20.3090 H   0  0  0  0  0  0  0  0  0  0  0  0
  -26.3920  -15.6780   19.8940 H   0  0  0  0  0  0  0  0  0  0  0  0
  -28.9070  -21.5500   20.4040 C   0  0  0  0  0  0  0  0  0  0  0  0
  -29.6700  -20.7000   21.1220 N   0  0  0  0  0  0  0  0  0  0  0  0
  -28.3020  -21.2480   19.3710 O   0  0  0  0  0  0  0  0  0  0  0  0
  -30.0210  -21.0830   21.9900 H   0  0  0  0  0  0  0  0  0  0  0  0
  -28.8490  -22.9830   21.0320 C   0  0  0  0  0  0  0  0  0  0  0  0
  -29.0780  -23.1600   22.2350 O   0  0  0  0  0  0  0  0  0  0  0  0
  -28.5130  -24.1710   20.1000 C   0  0  0  0  0  2  0  0  0  0  0  0
  -28.4060  -25.5460   20.8180 C   0  0  0  0  0  2  0  0  0  0  0  0
  -28.3870  -26.6710   19.9170 O   0  0  0  0  0  0  0  0  0  0  0  0
  -24.4430  -31.6940   23.0720 C   0  0  0  0  0  0  0  0  0  0  0  0
  -27.2160  -27.3930   19.9200 C   0  0  0  0  0  0  0  0  0  0  0  0
  -23.2840  -30.3060   21.3830 C   0  0  0  0  0  3  0  0  0  0  0  0
  -24.7860  -28.8380   19.9340 C   0  0  0  0  0  0  0  0  0  0  0  0
  -25.8010  -30.7340   21.2130 C   0  0  0  0  0  2  0  0  0  0  0  0
  -25.9260  -29.3810   20.5420 C   0  0  0  0  0  0  0  0  0  0  0  0
  -27.1460  -28.6660   20.5320 C   0  0  0  0  0  3  0  0  0  0  0  0
  -26.0660  -26.8630   19.3030 C   0  0  0  0  0  3  0  0  0  0  0  0
  -24.8510  -27.5770   19.3130 C   0  0  0  0  0  3  0  0  0  0  0  0
  -23.5210  -29.6650   19.9890 C   0  0  0  0  0  2  0  0  0  0  0  0
  -24.5270  -30.9240   21.9500 N   0  0  0  0  0  0  0  0  0  0  0  0
  -23.3510  -31.9260   23.6100 O   0  0  0  0  0  0  0  0  0  0  0  0
  -22.6480  -29.2460   22.3110 C   0  0  0  0  0  0  0  0  0  0  0  0
  -21.3200  -29.0760   22.2070 N   0  0  0  0  0  0  0  0  0  0  0  0
  -23.3470  -28.5780   23.0780 O   0  0  0  0  0  0  0  0  0  0  0  0
  -20.8160  -29.6630   21.5570 H   0  0  0  0  0  0  0  0  0  0  0  0
  -17.9480  -27.9080   22.7660 C   0  0  0  0  0  0  0  0  0  0  0  0
  -20.5170  -28.1080   22.9540 C   0  0  0  0  0  3  0  0  0  0  0  0
  -20.5730  -26.7120   22.2930 C   0  0  0  0  0  2  0  0  0  0  0  0
  -19.4290  -26.4670   21.3050 C   0  0  0  0  0  2  0  0  0  0  0  0
  -18.0740  -26.5980   22.0080 C   0  0  0  0  0  2  0  0  0  0  0  0
  -19.0950  -28.6250   23.1970 C   0  0  0  0  0  0  0  0  0  0  0  0
  -18.9230  -29.8560   23.8660 C   0  0  0  0  0  3  0  0  0  0  0  0
  -17.6340  -30.3710   24.1060 C   0  0  0  0  0  3  0  0  0  0  0  0
  -16.5020  -29.6490   23.6920 C   0  0  0  0  0  3  0  0  0  0  0  0
  -16.6590  -28.4190   23.0290 C   0  0  0  0  0  3  0  0  0  0  0  0
  -25.7080  -32.3390   23.7160 C   0  0  0  0  0  3  0  0  0  0  0  0
  -26.2480  -31.5370   24.9640 C   0  0  1  0  0  0  0  0  0  0  0  0
  -25.1640  -31.2310   26.0230 C   0  0  0  0  0  1  0  0  0  0  0  0
  -26.8670  -30.1900   24.5220 C   0  0  0  0  0  1  0  0  0  0  0  0
  -27.3790  -32.3360   25.6510 C   0  0  0  0  0  1  0  0  0  0  0  0
  -25.3600  -33.7140   24.0940 N   0  0  0  0  0  0  0  0  0  0  0  0
  -25.6630  -34.8010   23.3710 C   0  0  0  0  0  0  0  0  0  0  0  0
  -26.3380  -34.7500   22.3380 O   0  0  0  0  0  0  0  0  0  0  0  0
  -24.7620  -33.8260   24.9000 H   0  0  0  0  0  0  0  0  0  0  0  0
  -23.8950  -36.5580   23.0570 C   0  0  0  0  0  1  0  0  0  0  0  0
  -25.1360  -36.1580   23.8720 C   0  0  0  0  0  3  0  0  0  0  0  0
  -27.2330  -37.0680   24.7670 C   0  0  0  0  0  1  0  0  0  0  0  0
  -26.1420  -37.2390   23.8100 N   0  0  0  0  0  0  0  0  0  0  0  0
  -25.7110  -38.1440   23.9800 H   0  0  0  0  0  0  0  0  0  0  0  0
  1 13  1  0
  2  7  1  0
  3  4  1  0
  3  2  1  0
  5  4  1  0
  5 25  1  0
  5  6  1  0
  7  1  1  0
  7  6  1  0
  8  1  2  0
  9 10  2  0
 10 51  1  0
 10 14  1  0
 11 13  1  0
 11 14  1  0
 12  9  1  0
 12 11  2  0
 13 15  1  0
 16 17  1  0
 17 19  1  0
 18 16  1  0
 18 20  1  0
 20 21  1  0
 21 19  1  0
 21  9  1  0
 22 23  2  0
 23 42  1  0
 24 23  1  0
 24 27  1  0
 25 22  1  0
 25 26  1  0
 26 24  2  0
 27 28  1  0
 28 29  2  0
 30 33  1  0
 30 29  1  0
 31 30  2  0
 32 31  1  0
 32 27  2  0
 33 34  1  0
 34 35  1  0
 35 36  2  0
 37 36  1  0
 37 41  1  0
 38 37  2  0
 39 34  2  0
 39 38  1  0
 40 39  1  0
 42 43  1  0
 43 46  1  0
 43 45  1  0
 44 42  2  0
 47 48  1  0
 47 22  1  0
 49 47  1  0
 50 54  1  0
 50 51  1  0
 51 53  1  0
 52 50  2  0
 54 55  2  0
 56 57  1  0
 56 54  1  0
 58 60  1  0
 58 57  1  0
 59 70  2  0
 60 65  1  0
 61 69  1  0
 61 71  1  0
 62 68  1  0
 62 64  1  0
 63 69  1  0
 64 63  1  0
 65 64  2  0
 66 67  1  0
 66 60  2  0
 67 62  2  0
 68 61  1  0
 69 59  1  0
 71 73  2  0
 72 71  1  0
 74 72  1  0
 75 84  2  0
 75 80  1  0
 76 72  1  0
 76 80  1  0
 77 76  1  0
 78 79  1  0
 78 77  1  0
 79 75  1  0
 80 81  2  0
 81 82  1  0
 83 82  2  0
 84 83  1  0
 85 59  1  0
 85 90  1  0
 85 86  1  0
 86 89  1  1
 86 87  1  0
 88 86  1  0
 90 93  1  0
 91 95  1  0
 91 90  1  0
 92 91  2  0
 95 94  1  0
 97 95  1  0
 97 98  1  0
 97 96  1  0
M  ISO  4   1 100  13 100  57 101  58 101
M  END
>  <TORSDO>  (50) 
F 20

>  <SCORE>  (50) 
-12.956

>  <name>  (50) 
49

>  <ligand_id>  (50) 
49

>  <original_smiles>  (50) 
[H]c1c([H])c([H])c2c(c1[H])C([H])([H])C([H])([H])C([H])([H])C2([H])N([H])C(=O)C1([H])N(C(=O)C([H])(N([H])C(=O)C([H])(N([H])C([H])([H])[H])C([H])([H])[H])C(C([H])([H])[H])(C([H])([H])[H])C([H])([H])[H])C([H])([H])c2c([H])c(OC([H])([H])C([H])([H])C(=O)C(=O)N([H])c3sc(N([H])C(=O)N4C([H])([H])C([H])([H])C([H])([H])C([H])(n5nc(-c6c([H])c([H])c(Oc7c([H])c([H])c(F)c([H])c7F)c([H])c6[H])c(C(=O)N([H])[H])c5N([H])[H])C4([H])[H])nc3C3([H])C([H])([H])C([H])([H])C([H])([H])C([H])([H])C3([H])[H])c([H])c([H])c2C1([H])[H]

>  <smiles>  (50) 
[H]c1c([H])c([H])c2c(c1[H])C([H])([H])C([H])([H])C([H])([H])C2([H])N([H])C(=O)C1([H])N(C(=O)C([H])(N([H])C(=O)C([H])(N([H])C([H])([H])[H])C([H])([H])[H])C(C([H])([H])[H])(C([H])([H])[H])C([H])([H])[H])C([H])([H])c2c([H])c(OC([H])([H])C([H])([H])C(=O)C(=O)N([H])c3sc(N([H])C(=O)N4C([H])([H])C([H])([H])C([H])([H])C([H])(n5nc(-c6c([H])c([H])c(Oc7c([H])c([H])c(F)c([H])c7F)c([H])c6[H])c(C(=O)N([H])[H])c5N([H])[H])C4([H])[H])nc3C3([H])C([H])([H])C([H])([H])C([H])([H])C([H])([H])C3([H])[H])c([H])c([H])c2C1([H])[H]

$$$$
50:0:0
     RDKit          3D

 98106  0  0  1  0  0  0  0  0999 V2000
  -31.8470  -20.6820   19.6600 C   0  0  0  0  0  1  0  0  0  0  0  0
  -30.9300  -20.6340   20.8980 C   0  0  0  0  0  3  0  0  0  0  0  0
  -30.8310  -16.5320   22.5720 C   0  0  0  0  0  3  0  0  0  0  0  0
  -30.8880  -17.6570   23.4100 C   0  0  0  0  0  3  0  0  0  0  0  0
  -30.7350  -18.0080   20.6350 C   0  0  0  0  0  3  0  0  0  0  0  0
  -30.8110  -19.1780   21.4740 C   0  0  0  0  0  0  0  0  0  0  0  0
  -30.7690  -16.6830   21.1760 C   0  0  0  0  0  0  0  0  0  0  0  0
  -30.8860  -18.9640   22.8800 C   0  0  0  0  0  0  0  0  0  0  0  0
  -31.3240  -14.4160   20.1500 C   0  0  0  0  0  0  0  0  0  0  0  0
  -30.9380  -12.2680   18.9580 C   0  0  0  0  0  2  0  0  0  0  0  0
  -29.9710  -12.5320   17.7810 C   0  0  0  0  0  2  0  0  0  0  0  0
  -28.4990  -12.4750   18.2440 C   0  0  0  0  0  2  0  0  0  0  0  0
  -28.2440  -13.3120   19.5270 C   0  0  0  0  0  3  0  0  0  0  0  0
  -29.3070  -12.9880   20.6020 C   0  0  0  0  0  2  0  0  0  0  0  0
  -30.6260  -13.2510   20.0080 N   0  0  0  0  0  0  0  0  0  0  0  0
  -32.4970  -14.5380   19.7830 O   0  0  0  0  0  0  0  0  0  0  0  0
  -30.5270  -15.4860   20.4150 N   0  0  0  0  0  0  0  0  0  0  0  0
  -29.5660  -15.1840   20.4620 H   0  0  0  0  0  0  0  0  0  0  0  0
  -25.9110  -14.0920   20.2790 C   0  0  0  0  0  0  0  0  0  0  0  0
  -24.7980  -13.3990   20.6710 C   0  0  0  0  0  0  0  0  0  0  0  0
  -25.1630  -12.0180   20.6410 C   0  0  0  0  0  0  0  0  0  0  0  0
  -26.8860  -13.1370   20.0330 N   0  0  0  0  0  0  0  0  0  0  0  0
  -26.4410  -11.8860   20.3110 N   0  0  0  0  0  0  0  0  0  0  0  0
  -24.3550  -10.8110   20.8510 C   0  0  0  0  0  0  0  0  0  0  0  0
  -24.7210   -9.8350   21.8030 C   0  0  0  0  0  3  0  0  0  0  0  0
  -23.9190   -8.6910   22.0000 C   0  0  0  0  0  3  0  0  0  0  0  0
  -22.7370   -8.5150   21.2430 C   0  0  0  0  0  0  0  0  0  0  0  0
  -22.3900   -9.4770   20.2780 C   0  0  0  0  0  3  0  0  0  0  0  0
  -23.1930  -10.6130   20.0800 C   0  0  0  0  0  3  0  0  0  0  0  0
  -21.9110   -7.4220   21.3450 O   0  0  0  0  0  0  0  0  0  0  0  0
  -21.7800   -6.7280   22.5220 C   0  0  0  0  0  0  0  0  0  0  0  0
  -21.3620   -7.3560   23.7150 C   0  0  0  0  0  3  0  0  0  0  0  0
  -21.1750   -6.5910   24.8830 C   0  0  0  0  0  3  0  0  0  0  0  0
  -21.3950   -5.2010   24.8590 C   0  0  0  0  0  0  0  0  0  0  0  0
  -21.8070   -4.5740   23.6690 C   0  0  0  0  0  3  0  0  0  0  0  0
  -21.9950   -5.3350   22.5040 C   0  0  0  0  0  0  0  0  0  0  0  0
  -22.3720   -4.7230   21.3550 F   0  0  0  0  0  0  0  0  0  0  0  0
  -21.2070   -4.4640   25.9790 F   0  0  0  0  0  0  0  0  0  0  0  0
  -23.4420  -13.9750   20.9610 C   0  0  0  0  0  0  0  0  0  0  0  0
  -22.6880  -13.3460   21.8550 N   0  0  0  0  0  0  0  0  0  0  0  0
  -23.0610  -15.0170   20.4280 O   0  0  0  0  0  0  0  0  0  0  0  0
  -23.0080  -12.5000   22.3060 H   0  0  0  0  0  0  0  0  0  0  0  0
  -21.7780  -13.7150   22.0920 H   0  0  0  0  0  0  0  0  0  0  0  0
  -26.1690  -15.4480   20.0940 N   0  0  0  0  0  0  0  0  0  0  0  0
  -25.4480  -16.1490   20.2240 H   0  0  0  0  0  0  0  0  0  0  0  0
  -27.0320  -15.8330   19.7340 H   0  0  0  0  0  0  0  0  0  0  0  0
  -30.9720  -20.0160   23.7940 N   0  0  0  0  0  0  0  0  0  0  0  0
  -31.0780  -19.7380   24.7660 H   0  0  0  0  0  0  0  0  0  0  0  0
  -31.6240  -20.7620   23.5880 H   0  0  0  0  0  0  0  0  0  0  0  0
  -29.6530  -21.3810   20.6150 N   0  0  0  0  0  4  0  0  0  0  0  0
  -28.8870  -20.7360   20.5250 H   0  0  0  0  0  0  0  0  0  0  0  0
  -29.7660  -21.8240   19.7140 H   0  0  0  0  0  0  0  0  0  0  0  0
  -27.9070  -22.2470   22.1770 C   0  0  0  0  0  1  0  0  0  0  0  0
  -29.2490  -22.5440   21.4820 C   0  0  0  0  0  3  0  0  0  0  0  0
  -29.1230  -23.8420   20.5900 C   0  0  0  0  0  0  0  0  0  0  0  0
  -29.4120  -23.8160   19.3880 O   0  0  0  0  0  0  0  0  0  0  0  0
  -28.6390  -25.1830   21.2470 C   0  0  0  0  0  2  0  0  0  0  0  0
  -28.6960  -26.3550   20.3730 O   0  0  0  0  0  0  0  0  0  0  0  0
  -24.7320  -31.5950   23.2450 C   0  0  0  0  0  0  0  0  0  0  0  0
  -27.5420  -27.1270   20.3270 C   0  0  0  0  0  0  0  0  0  0  0  0
  -23.6050  -30.1660   21.5680 C   0  0  0  0  0  3  0  0  0  0  0  0
  -25.1350  -28.6330   20.2080 C   0  0  0  0  0  0  0  0  0  0  0  0
  -26.1310  -30.5570   21.4500 C   0  0  0  0  0  2  0  0  0  0  0  0
  -26.2640  -29.1730   20.8370 C   0  0  0  0  0  0  0  0  0  0  0  0
  -27.4750  -28.4290   20.8860 C   0  0  0  0  0  3  0  0  0  0  0  0
  -26.3980  -26.6170   19.6770 C   0  0  0  0  0  3  0  0  0  0  0  0
  -25.2020  -27.3610   19.6140 C   0  0  0  0  0  3  0  0  0  0  0  0
  -23.8770  -29.4770   20.2030 C   0  0  0  0  0  2  0  0  0  0  0  0
  -24.8410  -30.7870   22.1500 N   0  0  0  0  0  0  0  0  0  0  0  0
  -23.6280  -31.8530   23.7430 O   0  0  0  0  0  0  0  0  0  0  0  0
  -22.9270  -29.1460   22.5120 C   0  0  0  0  0  0  0  0  0  0  0  0
  -21.6090  -28.9560   22.3450 N   0  0  0  0  0  0  0  0  0  0  0  0
  -23.5880  -28.5270   23.3510 O   0  0  0  0  0  0  0  0  0  0  0  0
  -21.1340  -29.5190   21.6540 H   0  0  0  0  0  0  0  0  0  0  0  0
  -18.2290  -27.7230   22.7230 C   0  0  0  0  0  0  0  0  0  0  0  0
  -20.7740  -28.0080   23.0850 C   0  0  0  0  0  3  0  0  0  0  0  0
  -20.9100  -26.5760   22.5170 C   0  0  0  0  0  2  0  0  0  0  0  0
  -19.8490  -26.2370   21.4670 C   0  0  0  0  0  2  0  0  0  0  0  0
  -18.4420  -26.3730   22.0570 C   0  0  0  0  0  2  0  0  0  0  0  0
  -19.3240  -28.4980   23.1900 C   0  0  0  0  0  0  0  0  0  0  0  0
  -19.0720  -29.7630   23.7660 C   0  0  0  0  0  3  0  0  0  0  0  0
  -17.7570  -30.2510   23.8840 C   0  0  0  0  0  3  0  0  0  0  0  0
  -16.6770  -29.4710   23.4340 C   0  0  0  0  0  3  0  0  0  0  0  0
  -16.9130  -28.2100   22.8580 C   0  0  0  0  0  3  0  0  0  0  0  0
  -25.9850  -32.2470   23.9100 C   0  0  0  0  0  3  0  0  0  0  0  0
  -25.6480  -33.6380   24.2390 N   0  0  0  0  0  0  0  0  0  0  0  0
  -25.9780  -34.6970   23.4890 C   0  0  0  0  0  0  0  0  0  0  0  0
  -26.6740  -34.6080   22.4720 O   0  0  0  0  0  0  0  0  0  0  0  0
  -25.0520  -33.7840   25.0400 H   0  0  0  0  0  0  0  0  0  0  0  0
  -24.2240  -36.4530   23.0970 C   0  0  0  0  0  1  0  0  0  0  0  0
  -25.4550  -36.0750   23.9360 C   0  0  0  0  0  3  0  0  0  0  0  0
  -27.5550  -36.9970   24.8120 C   0  0  0  0  0  1  0  0  0  0  0  0
  -26.4680  -37.1480   23.8470 N   0  0  0  0  0  0  0  0  0  0  0  0
  -26.0420  -38.0590   23.9930 H   0  0  0  0  0  0  0  0  0  0  0  0
  -26.4750  -31.4790   25.1990 C   0  0  1  0  0  0  0  0  0  0  0  0
  -25.3540  -31.2230   26.2340 C   0  0  0  0  0  1  0  0  0  0  0  0
  -27.0930  -30.1170   24.8100 C   0  0  0  0  0  1  0  0  0  0  0  0
  -27.5930  -32.2880   25.8990 C   0  0  0  0  0  1  0  0  0  0  0  0
  2  1  1  0
  2  6  1  0
  3  4  1  0
  5  7  1  0
  5  6  2  0
  6  8  1  0
  7  3  2  0
  8  4  2  0
  8 47  1  0
  9 17  1  0
 10 15  1  0
 11 12  1  0
 11 10  1  0
 13 12  1  0
 13 22  1  0
 13 14  1  0
 15  9  1  0
 15 14  1  0
 16  9  2  0
 17 18  1  0
 17  7  1  0
 19 20  2  0
 20 39  1  0
 21 20  1  0
 21 24  1  0
 22 19  1  0
 22 23  1  0
 23 21  2  0
 24 25  1  0
 25 26  2  0
 27 30  1  0
 27 26  1  0
 28 27  2  0
 29 28  1  0
 29 24  2  0
 30 31  1  0
 31 32  1  0
 32 33  2  0
 34 33  1  0
 34 38  1  0
 35 34  2  0
 36 31  2  0
 36 35  1  0
 37 36  1  0
 39 40  1  0
 40 43  1  0
 40 42  1  0
 41 39  2  0
 44 45  1  0
 44 19  1  0
 46 44  1  0
 47 48  1  0
 49 47  1  0
 50  2  1  0
 50 54  1  0
 51 50  1  0
 52 50  1  0
 54 53  1  0
 55 57  1  0
 55 54  1  0
 56 55  2  0
 58 57  1  0
 59 70  2  0
 60 58  1  0
 60 65  1  0
 61 69  1  0
 61 71  1  0
 62 64  1  0
 63 69  1  0
 64 65  2  0
 64 63  1  0
 66 60  2  0
 67 66  1  0
 67 62  2  0
 68 62  1  0
 68 61  1  0
 69 59  1  0
 71 73  2  0
 72 71  1  0
 74 72  1  0
 75 84  2  0
 75 80  1  0
 76 72  1  0
 76 80  1  0
 77 76  1  0
 78 79  1  0
 78 77  1  0
 79 75  1  0
 80 81  2  0
 81 82  1  0
 83 82  2  0
 84 83  1  0
 85 59  1  0
 85 86  1  0
 85 95  1  0
 86 89  1  0
 87 91  1  0
 87 86  1  0
 88 87  2  0
 91 90  1  0
 93 91  1  0
 93 94  1  0
 93 92  1  0
 95 98  1  1
 95 96  1  0
 97 95  1  0
M  ISO  4   9 100  17 100  57 101  58 101
M  END
>  <TORSDO>  (51) 
F 22

>  <SCORE>  (51) 
-11.906

>  <name>  (51) 
50

>  <ligand_id>  (51) 
50

>  <original_smiles>  (51) 
[H]c1c([H])c([H])c2c(c1[H])C([H])([H])C([H])([H])C([H])([H])C2([H])N([H])C(=O)C1([H])N(C(=O)C([H])(N([H])C(=O)C([H])(N([H])C([H])([H])[H])C([H])([H])[H])C(C([H])([H])[H])(C([H])([H])[H])C([H])([H])[H])C([H])([H])c2c([H])c(OC([H])([H])C(=O)C([H])(C([H])([H])[H])[N+]([H])([H])C([H])(c3c([H])c(N([H])C(=O)N4C([H])([H])C([H])([H])C([H])([H])C([H])(n5nc(-c6c([H])c([H])c(Oc7c([H])c([H])c(F)c([H])c7F)c([H])c6[H])c(C(=O)N([H])[H])c5N([H])[H])C4([H])[H])c([H])c([H])c3N([H])[H])C([H])([H])[H])c([H])c([H])c2C1([H])[H]

>  <smiles>  (51) 
[H]c1c([H])c([H])c2c(c1[H])C([H])([H])C([H])([H])C([H])([H])C2([H])N([H])C(=O)C1([H])N(C(=O)C([H])(N([H])C(=O)C([H])(N([H])C([H])([H])[H])C([H])([H])[H])C(C([H])([H])[H])(C([H])([H])[H])C([H])([H])[H])C([H])([H])c2c([H])c(OC([H])([H])C(=O)C([H])(C([H])([H])[H])[N+]([H])([H])C([H])(c3c([H])c(N([H])C(=O)N4C([H])([H])C([H])([H])C([H])([H])C([H])(n5nc(-c6c([H])c([H])c(Oc7c([H])c([H])c(F)c([H])c7F)c([H])c6[H])c(C(=O)N([H])[H])c5N([H])[H])C4([H])[H])c([H])c([H])c3N([H])[H])C([H])([H])[H])c([H])c([H])c2C1([H])[H]

$$$$
51:0:0
     RDKit          3D

 95103  0  0  1  0  0  0  0  0999 V2000
  -28.5110  -21.6230   20.2150 N   0  0  0  0  0  4  0  0  0  0  0  0
  -27.8310  -21.1820   20.8100 H   0  0  0  0  0  0  0  0  0  0  0  0
  -27.9960  -22.0310   19.4460 H   0  0  0  0  0  0  0  0  0  0  0  0
  -28.9200  -22.7800   22.3930 C   0  0  0  0  0  1  0  0  0  0  0  0
  -29.0880  -22.8460   20.8610 C   0  0  0  0  0  3  0  0  0  0  0  0
  -28.3690  -24.1040   20.2460 C   0  0  0  0  0  0  0  0  0  0  0  0
  -27.7220  -24.0070   19.1960 O   0  0  0  0  0  0  0  0  0  0  0  0
  -28.4700  -25.4870   20.9720 C   0  0  0  0  0  2  0  0  0  0  0  0
  -28.3980  -26.6530   20.1030 O   0  0  0  0  0  0  0  0  0  0  0  0
  -24.6260  -31.8840   23.2620 C   0  0  0  0  0  0  0  0  0  0  0  0
  -27.2430  -27.4140   20.1650 C   0  0  0  0  0  0  0  0  0  0  0  0
  -23.4110  -30.4900   21.6220 C   0  0  0  0  0  3  0  0  0  0  0  0
  -24.8560  -28.9490   20.1860 C   0  0  0  0  0  0  0  0  0  0  0  0
  -25.9380  -30.8390   21.4110 C   0  0  0  0  0  2  0  0  0  0  0  0
  -26.0210  -29.4650   20.7690 C   0  0  0  0  0  0  0  0  0  0  0  0
  -27.2200  -28.7080   20.7500 C   0  0  0  0  0  3  0  0  0  0  0  0
  -26.0610  -26.9220   19.5760 C   0  0  0  0  0  3  0  0  0  0  0  0
  -24.8720  -27.6790   19.5850 C   0  0  0  0  0  3  0  0  0  0  0  0
  -23.6130  -29.8120   20.2400 C   0  0  0  0  0  2  0  0  0  0  0  0
  -24.6780  -31.0870   22.1560 N   0  0  0  0  0  0  0  0  0  0  0  0
  -23.5470  -32.1560   23.8090 O   0  0  0  0  0  0  0  0  0  0  0  0
  -22.7610  -29.4680   22.5830 C   0  0  0  0  0  0  0  0  0  0  0  0
  -21.4360  -29.2850   22.4590 N   0  0  0  0  0  0  0  0  0  0  0  0
  -23.4470  -28.8410   23.3950 O   0  0  0  0  0  0  0  0  0  0  0  0
  -20.9440  -29.8440   21.7760 H   0  0  0  0  0  0  0  0  0  0  0  0
  -18.0650  -28.0780   22.9560 C   0  0  0  0  0  0  0  0  0  0  0  0
  -20.6220  -28.3430   23.2270 C   0  0  0  0  0  3  0  0  0  0  0  0
  -20.7290  -26.9140   22.6470 C   0  0  0  0  0  2  0  0  0  0  0  0
  -19.6270  -26.5900   21.6330 C   0  0  0  0  0  2  0  0  0  0  0  0
  -18.2450  -26.7290   22.2780 C   0  0  0  0  0  2  0  0  0  0  0  0
  -19.1820  -28.8430   23.3870 C   0  0  0  0  0  0  0  0  0  0  0  0
  -18.9610  -30.1050   23.9800 C   0  0  0  0  0  3  0  0  0  0  0  0
  -17.6550  -30.6030   24.1460 C   0  0  0  0  0  3  0  0  0  0  0  0
  -16.5520  -29.8350   23.7330 C   0  0  0  0  0  3  0  0  0  0  0  0
  -16.7580  -28.5740   23.1440 C   0  0  0  0  0  3  0  0  0  0  0  0
  -25.9150  -32.5120   23.8780 C   0  0  0  0  0  3  0  0  0  0  0  0
  -25.6130  -33.9110   24.2080 N   0  0  0  0  0  0  0  0  0  0  0  0
  -25.9410  -34.9620   23.4430 C   0  0  0  0  0  0  0  0  0  0  0  0
  -26.6020  -34.8530   22.4060 O   0  0  0  0  0  0  0  0  0  0  0  0
  -25.0240  -34.0690   25.0130 H   0  0  0  0  0  0  0  0  0  0  0  0
  -24.2120  -36.7560   23.1000 C   0  0  0  0  0  1  0  0  0  0  0  0
  -25.4610  -36.3520   23.9010 C   0  0  0  0  0  3  0  0  0  0  0  0
  -27.6050  -37.2360   24.7070 C   0  0  0  0  0  1  0  0  0  0  0  0
  -26.4940  -37.4030   23.7730 N   0  0  0  0  0  0  0  0  0  0  0  0
  -26.0920  -38.3250   23.9210 H   0  0  0  0  0  0  0  0  0  0  0  0
  -26.4360  -31.7380   25.1510 C   0  0  1  0  0  0  0  0  0  0  0  0
  -25.3470  -31.5020   26.2240 C   0  0  0  0  0  1  0  0  0  0  0  0
  -27.0130  -30.3600   24.7540 C   0  0  0  0  0  1  0  0  0  0  0  0
  -27.5920  -32.5290   25.8080 C   0  0  0  0  0  1  0  0  0  0  0  0
  -29.4180  -20.6030   19.5950 C   0  0  0  0  0  2  0  0  0  0  0  0
  -31.5250  -18.6140   22.1440 C   0  0  0  0  0  3  0  0  0  0  0  0
  -30.9190  -19.6770   21.4420 C   0  0  0  0  0  3  0  0  0  0  0  0
  -31.1770  -17.2770   21.8650 C   0  0  0  0  0  3  0  0  0  0  0  0
  -29.9360  -19.4240   20.4610 C   0  0  0  0  0  0  0  0  0  0  0  0
  -30.2010  -16.9810   20.8890 C   0  0  0  0  0  0  0  0  0  0  0  0
  -29.5670  -18.0640   20.2080 C   0  0  0  0  0  0  0  0  0  0  0  0
  -28.6230  -17.7860   19.2760 F   0  0  0  0  0  0  0  0  0  0  0  0
  -30.5880  -14.5650   20.2900 C   0  0  0  0  0  0  0  0  0  0  0  0
  -30.3080  -12.3900   19.1370 C   0  0  0  0  0  2  0  0  0  0  0  0
  -29.3330  -12.5740   17.9550 C   0  0  0  0  0  2  0  0  0  0  0  0
  -27.8710  -12.4180   18.4200 C   0  0  0  0  0  2  0  0  0  0  0  0
  -27.5530  -13.2500   19.6920 C   0  0  0  0  0  3  0  0  0  0  0  0
  -28.6380  -13.0420   20.7730 C   0  0  0  0  0  2  0  0  0  0  0  0
  -29.9370  -13.3730   20.1660 N   0  0  0  0  0  0  0  0  0  0  0  0
  -31.7440  -14.7260   19.8890 O   0  0  0  0  0  0  0  0  0  0  0  0
  -29.8110  -15.6140   20.6590 N   0  0  0  0  0  0  0  0  0  0  0  0
  -28.8240  -15.4210   20.7290 H   0  0  0  0  0  0  0  0  0  0  0  0
  -25.1730  -13.8460   20.4570 C   0  0  0  0  0  0  0  0  0  0  0  0
  -24.1150  -13.0690   20.8480 C   0  0  0  0  0  0  0  0  0  0  0  0
  -24.5810  -11.7180   20.8050 C   0  0  0  0  0  0  0  0  0  0  0  0
  -26.2150  -12.9680   20.2020 N   0  0  0  0  0  0  0  0  0  0  0  0
  -25.8650  -11.6840   20.4700 N   0  0  0  0  0  0  0  0  0  0  0  0
  -23.8630  -10.4540   21.0070 C   0  0  0  0  0  0  0  0  0  0  0  0
  -24.3170   -9.4860   21.9290 C   0  0  0  0  0  3  0  0  0  0  0  0
  -23.6000   -8.2850   22.1180 C   0  0  0  0  0  3  0  0  0  0  0  0
  -22.4140   -8.0440   21.3850 C   0  0  0  0  0  0  0  0  0  0  0  0
  -21.9790   -9.0010   20.4500 C   0  0  0  0  0  3  0  0  0  0  0  0
  -22.6980  -10.1940   20.2590 C   0  0  0  0  0  3  0  0  0  0  0  0
  -21.6660   -6.8960   21.4830 O   0  0  0  0  0  0  0  0  0  0  0  0
  -21.6440   -6.1480   22.6330 C   0  0  0  0  0  0  0  0  0  0  0  0
  -21.2380   -6.6940   23.8710 C   0  0  0  0  0  3  0  0  0  0  0  0
  -21.1650   -5.8710   25.0130 C   0  0  0  0  0  3  0  0  0  0  0  0
  -21.4870   -4.5050   24.9190 C   0  0  0  0  0  0  0  0  0  0  0  0
  -21.8880   -3.9590   23.6870 C   0  0  0  0  0  3  0  0  0  0  0  0
  -21.9630   -4.7780   22.5460 C   0  0  0  0  0  0  0  0  0  0  0  0
  -22.3280   -4.2410   21.3570 F   0  0  0  0  0  0  0  0  0  0  0  0
  -21.4100   -3.7130   26.0140 F   0  0  0  0  0  0  0  0  0  0  0  0
  -22.7230  -13.5410   21.1490 C   0  0  0  0  0  0  0  0  0  0  0  0
  -22.0130  -12.8370   22.0240 N   0  0  0  0  0  0  0  0  0  0  0  0
  -22.2720  -14.5680   20.6440 O   0  0  0  0  0  0  0  0  0  0  0  0
  -22.3890  -12.0040   22.4520 H   0  0  0  0  0  0  0  0  0  0  0  0
  -21.0790  -13.1340   22.2690 H   0  0  0  0  0  0  0  0  0  0  0  0
  -25.3280  -15.2170   20.2770 N   0  0  0  0  0  0  0  0  0  0  0  0
  -24.5540  -15.8620   20.3940 H   0  0  0  0  0  0  0  0  0  0  0  0
  -26.1530  -15.6600   19.8900 H   0  0  0  0  0  0  0  0  0  0  0  0
  1  2  1  0
  1  5  1  0
  3  1  1  0
  5  4  1  0
  6  5  1  0
  6  8  1  0
  7  6  2  0
  9 11  1  0
  9  8  1  0
 10 21  2  0
 11 16  1  0
 12 20  1  0
 12 22  1  0
 13 19  1  0
 13 15  1  0
 14 20  1  0
 15 14  1  0
 16 15  2  0
 17 18  1  0
 17 11  2  0
 18 13  2  0
 19 12  1  0
 20 10  1  0
 22 24  2  0
 23 22  1  0
 25 23  1  0
 26 35  2  0
 26 31  1  0
 27 23  1  0
 27 31  1  0
 28 27  1  0
 29 30  1  0
 29 28  1  0
 30 26  1  0
 31 32  2  0
 32 33  1  0
 34 33  2  0
 35 34  1  0
 36 10  1  0
 36 37  1  0
 36 46  1  0
 37 40  1  0
 38 42  1  0
 38 37  1  0
 39 38  2  0
 42 41  1  0
 44 42  1  0
 44 45  1  0
 44 43  1  0
 46 49  1  1
 46 47  1  0
 48 46  1  0
 50  1  1  0
 50 54  1  0
 52 51  2  0
 53 51  1  0
 54 52  1  0
 55 53  2  0
 56 54  2  0
 56 55  1  0
 57 56  1  0
 58 66  1  0
 59 64  1  0
 60 61  1  0
 60 59  1  0
 62 61  1  0
 62 71  1  0
 62 63  1  0
 64 58  1  0
 64 63  1  0
 65 58  2  0
 66 67  1  0
 66 55  1  0
 68 69  2  0
 69 88  1  0
 70 69  1  0
 70 73  1  0
 71 68  1  0
 71 72  1  0
 72 70  2  0
 73 74  1  0
 74 75  2  0
 76 79  1  0
 76 75  1  0
 77 76  2  0
 78 77  1  0
 78 73  2  0
 79 80  1  0
 80 81  1  0
 81 82  2  0
 83 82  1  0
 83 87  1  0
 84 83  2  0
 85 80  2  0
 85 84  1  0
 86 85  1  0
 88 89  1  0
 89 92  1  0
 89 91  1  0
 90 88  2  0
 93 94  1  0
 93 68  1  0
 95 93  1  0
M  ISO  4   8 101   9 101  58 100  66 100
M  END
>  <TORSDO>  (52) 
F 21

>  <SCORE>  (52) 
-13.632

>  <name>  (52) 
51

>  <ligand_id>  (52) 
51

>  <original_smiles>  (52) 
[H]c1c([H])c([H])c2c(c1[H])C([H])([H])C([H])([H])C([H])([H])C2([H])N([H])C(=O)C1([H])N(C(=O)C([H])(N([H])C(=O)C([H])(N([H])C([H])([H])[H])C([H])([H])[H])C(C([H])([H])[H])(C([H])([H])[H])C([H])([H])[H])C([H])([H])c2c([H])c(OC([H])([H])C(=O)C([H])(C([H])([H])[H])[N+]([H])([H])C([H])([H])c3c([H])c([H])c([H])c(N([H])C(=O)N4C([H])([H])C([H])([H])C([H])([H])C([H])(n5nc(-c6c([H])c([H])c(Oc7c([H])c([H])c(F)c([H])c7F)c([H])c6[H])c(C(=O)N([H])[H])c5N([H])[H])C4([H])[H])c3F)c([H])c([H])c2C1([H])[H]

>  <smiles>  (52) 
[H]c1c([H])c([H])c2c(c1[H])C([H])([H])C([H])([H])C([H])([H])C2([H])N([H])C(=O)C1([H])N(C(=O)C([H])(N([H])C(=O)C([H])(N([H])C([H])([H])[H])C([H])([H])[H])C(C([H])([H])[H])(C([H])([H])[H])C([H])([H])[H])C([H])([H])c2c([H])c(OC([H])([H])C(=O)C([H])(C([H])([H])[H])[N+]([H])([H])C([H])([H])c3c([H])c([H])c([H])c(N([H])C(=O)N4C([H])([H])C([H])([H])C([H])([H])C([H])(n5nc(-c6c([H])c([H])c(Oc7c([H])c([H])c(F)c([H])c7F)c([H])c6[H])c(C(=O)N([H])[H])c5N([H])[H])C4([H])[H])c3F)c([H])c([H])c2C1([H])[H]

$$$$
52:0:0
     RDKit          3D

 97105  0  0  1  0  0  0  0  0999 V2000
  -30.2450  -21.7330   21.4430 C   0  0  0  0  0  0  0  0  0  0  0  0
  -30.0100  -20.4070   21.3760 N   0  0  0  0  0  0  0  0  0  0  0  0
  -31.2950  -22.2490   21.0560 O   0  0  0  0  0  0  0  0  0  0  0  0
  -29.0630  -20.1340   21.6010 H   0  0  0  0  0  0  0  0  0  0  0  0
  -30.4040  -18.0350   20.9320 C   0  0  0  0  0  3  0  0  0  0  0  0
  -32.2780  -19.5900   20.7600 C   0  0  0  0  0  3  0  0  0  0  0  0
  -32.6210  -17.2180   20.3270 C   0  0  0  0  0  3  0  0  0  0  0  0
  -30.9030  -19.3590   21.0040 C   0  0  0  0  0  0  0  0  0  0  0  0
  -31.2490  -16.9600   20.5650 C   0  0  0  0  0  0  0  0  0  0  0  0
  -33.1300  -18.5250   20.4220 C   0  0  0  0  0  0  0  0  0  0  0  0
  -34.4450  -18.7570   20.1920 F   0  0  0  0  0  0  0  0  0  0  0  0
  -31.2360  -14.6090   19.7910 C   0  0  0  0  0  0  0  0  0  0  0  0
  -30.9130  -12.2940   19.0030 C   0  0  0  0  0  2  0  0  0  0  0  0
  -29.9180  -12.2580   17.8280 C   0  0  0  0  0  2  0  0  0  0  0  0
  -28.4710  -12.1540   18.3450 C   0  0  0  0  0  2  0  0  0  0  0  0
  -28.1560  -13.1970   19.4500 C   0  0  0  0  0  3  0  0  0  0  0  0
  -29.2610  -13.2140   20.5310 C   0  0  0  0  0  2  0  0  0  0  0  0
  -30.5560  -13.4340   19.8640 N   0  0  0  0  0  0  0  0  0  0  0  0
  -32.2520  -14.7430   19.1000 O   0  0  0  0  0  0  0  0  0  0  0  0
  -30.7100  -15.6410   20.4750 N   0  0  0  0  0  0  0  0  0  0  0  0
  -29.8070  -15.4770   20.8950 H   0  0  0  0  0  0  0  0  0  0  0  0
  -25.8640  -13.8950   20.3930 C   0  0  0  0  0  0  0  0  0  0  0  0
  -24.7880  -13.1620   20.8170 C   0  0  0  0  0  0  0  0  0  0  0  0
  -25.1650  -11.7910   20.6780 C   0  0  0  0  0  0  0  0  0  0  0  0
  -26.8340  -12.9720   20.0290 N   0  0  0  0  0  0  0  0  0  0  0  0
  -26.4180  -11.6990   20.2540 N   0  0  0  0  0  0  0  0  0  0  0  0
  -24.3840  -10.5610   20.8690 C   0  0  0  0  0  0  0  0  0  0  0  0
  -24.7500   -9.5970   21.8330 C   0  0  0  0  0  3  0  0  0  0  0  0
  -23.9740   -8.4310   22.0120 C   0  0  0  0  0  3  0  0  0  0  0  0
  -22.8160   -8.2230   21.2230 C   0  0  0  0  0  0  0  0  0  0  0  0
  -22.4690   -9.1750   20.2500 C   0  0  0  0  0  3  0  0  0  0  0  0
  -23.2460  -10.3310   20.0700 C   0  0  0  0  0  3  0  0  0  0  0  0
  -22.0170   -7.1090   21.3090 O   0  0  0  0  0  0  0  0  0  0  0  0
  -21.7900   -6.4750   22.5040 C   0  0  0  0  0  0  0  0  0  0  0  0
  -21.2050   -7.1410   23.6020 C   0  0  0  0  0  3  0  0  0  0  0  0
  -20.9270   -6.4330   24.7880 C   0  0  0  0  0  3  0  0  0  0  0  0
  -21.2240   -5.0590   24.8750 C   0  0  0  0  0  0  0  0  0  0  0  0
  -21.8020   -4.3930   23.7800 C   0  0  0  0  0  3  0  0  0  0  0  0
  -22.0820   -5.0980   22.5970 C   0  0  0  0  0  0  0  0  0  0  0  0
  -22.6190   -4.4470   21.5380 F   0  0  0  0  0  0  0  0  0  0  0  0
  -20.9500   -4.3760   26.0110 F   0  0  0  0  0  0  0  0  0  0  0  0
  -23.4500  -13.6990   21.2370 C   0  0  0  0  0  0  0  0  0  0  0  0
  -22.7680  -13.0060   22.1420 N   0  0  0  0  0  0  0  0  0  0  0  0
  -23.0240  -14.7660   20.7970 O   0  0  0  0  0  0  0  0  0  0  0  0
  -23.1280  -12.1420   22.5190 H   0  0  0  0  0  0  0  0  0  0  0  0
  -21.8720  -13.3460   22.4630 H   0  0  0  0  0  0  0  0  0  0  0  0
  -26.0930  -15.2610   20.2690 N   0  0  0  0  0  0  0  0  0  0  0  0
  -25.3760  -15.9490   20.4710 H   0  0  0  0  0  0  0  0  0  0  0  0
  -26.9350  -15.6690   19.8820 H   0  0  0  0  0  0  0  0  0  0  0  0
  -27.8960  -21.8110   22.4620 C   0  0  0  0  0  1  0  0  0  0  0  0
  -29.6410  -23.3820   23.2580 C   0  0  0  0  0  1  0  0  0  0  0  0
  -29.1200  -22.6460   21.9990 C   0  0  1  0  0  0  0  0  0  0  0  0
  -28.6170  -23.5790   20.8430 C   0  0  0  0  0  2  0  0  0  0  0  0
  -29.2840  -24.9420   20.5600 C   0  0  0  0  0  0  0  0  0  0  0  0
  -30.3020  -25.3390   21.1330 O   0  0  0  0  0  0  0  0  0  0  0  0
  -28.6280  -25.7700   19.4480 C   0  0  0  0  0  2  0  0  0  0  0  0
  -28.6180  -27.1690   19.7800 O   0  0  0  0  0  0  0  0  0  0  0  0
  -24.7170  -31.8750   23.4090 C   0  0  0  0  0  0  0  0  0  0  0  0
  -27.4060  -27.8280   19.8520 C   0  0  0  0  0  0  0  0  0  0  0  0
  -23.5100  -30.6000   21.6680 C   0  0  0  0  0  3  0  0  0  0  0  0
  -24.9680  -29.2550   20.0700 C   0  0  0  0  0  0  0  0  0  0  0  0
  -26.0200  -31.0480   21.4540 C   0  0  0  0  0  2  0  0  0  0  0  0
  -26.1250  -29.7480   20.6830 C   0  0  0  0  0  0  0  0  0  0  0  0
  -27.3420  -29.0400   20.5770 C   0  0  0  0  0  3  0  0  0  0  0  0
  -26.2270  -27.3590   19.2210 C   0  0  0  0  0  3  0  0  0  0  0  0
  -25.0140  -28.0580   19.3390 C   0  0  0  0  0  3  0  0  0  0  0  0
  -23.7020  -30.0650   20.2250 C   0  0  0  0  0  2  0  0  0  0  0  0
  -24.7680  -31.1860   22.2350 N   0  0  0  0  0  0  0  0  0  0  0  0
  -23.6430  -32.0600   23.9980 O   0  0  0  0  0  0  0  0  0  0  0  0
  -22.9140  -29.4700   22.5380 C   0  0  0  0  0  0  0  0  0  0  0  0
  -21.6180  -29.1790   22.3380 N   0  0  0  0  0  0  0  0  0  0  0  0
  -23.6170  -28.8600   23.3490 O   0  0  0  0  0  0  0  0  0  0  0  0
  -21.1080  -29.7290   21.6600 H   0  0  0  0  0  0  0  0  0  0  0  0
  -18.3740  -27.6020   22.5320 C   0  0  0  0  0  0  0  0  0  0  0  0
  -20.8580  -28.1310   23.0170 C   0  0  0  0  0  3  0  0  0  0  0  0
  -21.1650  -26.7400   22.4150 C   0  0  0  0  0  2  0  0  0  0  0  0
  -20.1890  -26.3330   21.3080 C   0  0  0  0  0  2  0  0  0  0  0  0
  -18.7540  -26.3040   21.8420 C   0  0  0  0  0  2  0  0  0  0  0  0
  -19.3620  -28.4670   23.0700 C   0  0  0  0  0  0  0  0  0  0  0  0
  -18.9580  -29.6810   23.6700 C   0  0  0  0  0  3  0  0  0  0  0  0
  -17.5960  -30.0300   23.7400 C   0  0  0  0  0  3  0  0  0  0  0  0
  -16.6200  -29.1610   23.2210 C   0  0  0  0  0  3  0  0  0  0  0  0
  -17.0090  -27.9500   22.6220 C   0  0  0  0  0  3  0  0  0  0  0  0
  -26.0000  -32.4830   24.0560 C   0  0  0  0  0  3  0  0  0  0  0  0
  -25.6940  -33.8710   24.4250 N   0  0  0  0  0  0  0  0  0  0  0  0
  -26.0390  -34.9440   23.7000 C   0  0  0  0  0  0  0  0  0  0  0  0
  -26.7210  -34.8690   22.6750 O   0  0  0  0  0  0  0  0  0  0  0  0
  -25.0920  -34.0060   25.2250 H   0  0  0  0  0  0  0  0  0  0  0  0
  -24.3280  -36.7570   23.3670 C   0  0  0  0  0  1  0  0  0  0  0  0
  -25.5490  -36.3200   24.1920 C   0  0  0  0  0  3  0  0  0  0  0  0
  -27.6670  -37.1670   25.1000 C   0  0  0  0  0  1  0  0  0  0  0  0
  -26.5900  -37.3690   24.1350 N   0  0  0  0  0  0  0  0  0  0  0  0
  -26.1840  -38.2870   24.2990 H   0  0  0  0  0  0  0  0  0  0  0  0
  -26.5110  -31.6730   25.3110 C   0  0  1  0  0  0  0  0  0  0  0  0
  -25.4010  -31.3620   26.3420 C   0  0  0  0  0  1  0  0  0  0  0  0
  -27.1390  -30.3290   24.8740 C   0  0  0  0  0  1  0  0  0  0  0  0
  -27.6230  -32.4680   26.0320 C   0  0  0  0  0  1  0  0  0  0  0  0
  1 52  1  0
  2  1  1  0
  2  4  1  0
  3  1  2  0
  5  8  1  0
  6  8  2  0
  7 10  2  0
  7  9  1  0
  8  2  1  0
  9  5  2  0
 10  6  1  0
 11 10  1  0
 12 18  1  0
 12 20  1  0
 13 18  1  0
 14 15  1  0
 14 13  1  0
 16 15  1  0
 16 25  1  0
 16 17  1  0
 18 17  1  0
 19 12  2  0
 20  9  1  0
 20 21  1  0
 22 23  2  0
 23 42  1  0
 24 23  1  0
 24 27  1  0
 25 26  1  0
 25 22  1  0
 26 24  2  0
 27 28  1  0
 28 29  2  0
 30 33  1  0
 30 29  1  0
 31 30  2  0
 32 31  1  0
 32 27  2  0
 33 34  1  0
 34 39  2  0
 34 35  1  0
 35 36  2  0
 36 37  1  0
 37 41  1  0
 38 37  2  0
 39 38  1  0
 40 39  1  0
 42 43  1  0
 43 46  1  0
 43 45  1  0
 44 42  2  0
 47 22  1  0
 47 48  1  0
 49 47  1  0
 52 50  1  1
 52 51  1  0
 53 52  1  0
 54 53  1  0
 54 55  2  0
 56 57  1  0
 56 54  1  0
 57 59  1  0
 58 69  2  0
 59 64  1  0
 60 68  1  0
 60 70  1  0
 61 67  1  0
 61 63  1  0
 62 68  1  0
 63 62  1  0
 64 63  2  0
 65 66  1  0
 65 59  2  0
 66 61  2  0
 67 60  1  0
 68 58  1  0
 70 72  2  0
 71 70  1  0
 73 71  1  0
 74 83  2  0
 74 79  1  0
 75 71  1  0
 75 79  1  0
 76 75  1  0
 77 78  1  0
 77 76  1  0
 78 74  1  0
 79 80  2  0
 80 81  1  0
 82 81  2  0
 83 82  1  0
 84 58  1  0
 84 85  1  0
 84 94  1  0
 85 88  1  0
 86 90  1  0
 86 85  1  0
 87 86  2  0
 90 89  1  0
 92 90  1  0
 92 93  1  0
 92 91  1  0
 94 97  1  1
 94 95  1  0
 96 94  1  0
M  ISO  4  12 100  20 100  56 101  57 101
M  END
>  <TORSDO>  (53) 
F 21

>  <SCORE>  (53) 
-11.816

>  <name>  (53) 
52

>  <ligand_id>  (53) 
52

>  <original_smiles>  (53) 
[H]c1c([H])c([H])c2c(c1[H])C([H])([H])C([H])([H])C([H])([H])C2([H])N([H])C(=O)C1([H])N(C(=O)C([H])(N([H])C(=O)C([H])(N([H])C([H])([H])[H])C([H])([H])[H])C(C([H])([H])[H])(C([H])([H])[H])C([H])([H])[H])C([H])([H])c2c([H])c(OC([H])([H])C(=O)C([H])([H])C(C(=O)N([H])c3c([H])c(F)c([H])c(N([H])C(=O)N4C([H])([H])C([H])([H])C([H])([H])C([H])(n5nc(-c6c([H])c([H])c(Oc7c([H])c([H])c(F)c([H])c7F)c([H])c6[H])c(C(=O)N([H])[H])c5N([H])[H])C4([H])[H])c3[H])(C([H])([H])[H])C([H])([H])[H])c([H])c([H])c2C1([H])[H]

>  <smiles>  (53) 
[H]c1c([H])c([H])c2c(c1[H])C([H])([H])C([H])([H])C([H])([H])C2([H])N([H])C(=O)C1([H])N(C(=O)C([H])(N([H])C(=O)C([H])(N([H])C([H])([H])[H])C([H])([H])[H])C(C([H])([H])[H])(C([H])([H])[H])C([H])([H])[H])C([H])([H])c2c([H])c(OC([H])([H])C(=O)C([H])([H])C(C(=O)N([H])c3c([H])c(F)c([H])c(N([H])C(=O)N4C([H])([H])C([H])([H])C([H])([H])C([H])(n5nc(-c6c([H])c([H])c(Oc7c([H])c([H])c(F)c([H])c7F)c([H])c6[H])c(C(=O)N([H])[H])c5N([H])[H])C4([H])[H])c3[H])(C([H])([H])[H])C([H])([H])[H])c([H])c([H])c2C1([H])[H]

$$$$
53:0:0
     RDKit          3D

 95103  0  0  1  0  0  0  0  0999 V2000
  -29.3270  -18.5030   20.4740 C   0  0  0  0  0  3  0  0  0  0  0  0
  -31.5060  -17.6260   21.0410 C   0  0  0  0  0  3  0  0  0  0  0  0
  -31.0520  -20.0490   21.2450 C   0  0  0  0  0  0  0  0  0  0  0  0
  -30.1930  -17.3350   20.6250 C   0  0  0  0  0  0  0  0  0  0  0  0
  -29.7270  -19.8920   20.7330 C   0  0  0  0  0  0  0  0  0  0  0  0
  -31.9190  -18.9330   21.3500 C   0  0  0  0  0  0  0  0  0  0  0  0
  -33.1800  -19.0870   21.8240 F   0  0  0  0  0  0  0  0  0  0  0  0
  -30.5570  -14.7510   20.2370 C   0  0  0  0  0  0  0  0  0  0  0  0
  -30.3140  -12.4900   19.1810 C   0  0  0  0  0  2  0  0  0  0  0  0
  -29.3540  -12.5840   17.9730 C   0  0  0  0  0  2  0  0  0  0  0  0
  -27.8890  -12.4200   18.4260 C   0  0  0  0  0  2  0  0  0  0  0  0
  -27.5520  -13.2740   19.6790 C   0  0  0  0  0  3  0  0  0  0  0  0
  -28.6370  -13.1630   20.7710 C   0  0  0  0  0  2  0  0  0  0  0  0
  -29.9140  -13.5340   20.1520 N   0  0  0  0  0  0  0  0  0  0  0  0
  -31.7430  -14.8260   19.8990 O   0  0  0  0  0  0  0  0  0  0  0  0
  -29.7950  -15.9030   20.4460 N   0  0  0  0  0  0  0  0  0  0  0  0
  -28.8030  -15.7260   20.4940 H   0  0  0  0  0  0  0  0  0  0  0  0
  -25.1800  -13.8450   20.4650 C   0  0  0  0  0  0  0  0  0  0  0  0
  -24.1290  -13.0630   20.8540 C   0  0  0  0  0  0  0  0  0  0  0  0
  -24.6010  -11.7150   20.8090 C   0  0  0  0  0  0  0  0  0  0  0  0
  -26.2230  -12.9730   20.2010 N   0  0  0  0  0  0  0  0  0  0  0  0
  -25.8840  -11.6870   20.4720 N   0  0  0  0  0  0  0  0  0  0  0  0
  -23.8890  -10.4460   21.0070 C   0  0  0  0  0  0  0  0  0  0  0  0
  -24.3360   -9.4830   21.9380 C   0  0  0  0  0  3  0  0  0  0  0  0
  -23.6210   -8.2810   22.1240 C   0  0  0  0  0  3  0  0  0  0  0  0
  -22.4440   -8.0310   21.3790 C   0  0  0  0  0  0  0  0  0  0  0  0
  -22.0190   -8.9820   20.4330 C   0  0  0  0  0  3  0  0  0  0  0  0
  -22.7350  -10.1750   20.2450 C   0  0  0  0  0  3  0  0  0  0  0  0
  -21.7010   -6.8810   21.4720 O   0  0  0  0  0  0  0  0  0  0  0  0
  -21.6560   -6.1470   22.6320 C   0  0  0  0  0  0  0  0  0  0  0  0
  -21.2040   -6.7040   23.8480 C   0  0  0  0  0  3  0  0  0  0  0  0
  -21.1050   -5.8950   24.9990 C   0  0  0  0  0  3  0  0  0  0  0  0
  -21.4490   -4.5310   24.9330 C   0  0  0  0  0  0  0  0  0  0  0  0
  -21.8950   -3.9750   23.7220 C   0  0  0  0  0  3  0  0  0  0  0  0
  -21.9940   -4.7810   22.5730 C   0  0  0  0  0  0  0  0  0  0  0  0
  -22.4020   -4.2340   21.4020 F   0  0  0  0  0  0  0  0  0  0  0  0
  -21.3490   -3.7520   26.0360 F   0  0  0  0  0  0  0  0  0  0  0  0
  -22.7340  -13.5290   21.1500 C   0  0  0  0  0  0  0  0  0  0  0  0
  -22.0250  -12.8190   22.0180 N   0  0  0  0  0  0  0  0  0  0  0  0
  -22.2830  -14.5570   20.6450 O   0  0  0  0  0  0  0  0  0  0  0  0
  -22.4050  -11.9890   22.4490 H   0  0  0  0  0  0  0  0  0  0  0  0
  -21.0860  -13.1090   22.2510 H   0  0  0  0  0  0  0  0  0  0  0  0
  -25.3380  -15.2180   20.2910 N   0  0  0  0  0  0  0  0  0  0  0  0
  -24.5790  -15.8760   20.4340 H   0  0  0  0  0  0  0  0  0  0  0  0
  -26.1660  -15.6560   19.9100 H   0  0  0  0  0  0  0  0  0  0  0  0
  -31.6030  -21.3390   21.7510 C   0  0  0  0  0  0  0  0  0  0  0  0
  -30.9620  -21.9030   23.0140 C   0  0  0  0  0  1  0  0  0  0  0  0
  -32.5470  -21.9420   21.2330 O   0  0  0  0  0  0  0  0  0  0  0  0
  -28.8240  -21.0320   20.5690 N   0  0  0  0  0  0  0  0  0  0  0  0
  -27.8360  -20.8030   20.5120 H   0  0  0  0  0  0  0  0  0  0  0  0
  -29.1350  -22.4060   19.9660 C   0  0  0  0  0  2  0  0  0  0  0  0
  -28.5260  -23.7790   20.5510 C   0  0  0  0  0  0  0  0  0  0  0  0
  -28.1610  -23.8210   21.7300 O   0  0  0  0  0  0  0  0  0  0  0  0
  -28.4300  -25.0980   19.6380 C   0  0  0  0  0  2  0  0  0  0  0  0
  -28.2820  -26.4460   20.2860 O   0  0  0  0  0  0  0  0  0  0  0  0
  -24.5290  -31.8850   23.2250 C   0  0  0  0  0  0  0  0  0  0  0  0
  -27.1470  -27.2830   20.1820 C   0  0  0  0  0  0  0  0  0  0  0  0
  -23.3230  -30.4840   21.5860 C   0  0  0  0  0  3  0  0  0  0  0  0
  -24.7730  -28.9150   20.1610 C   0  0  0  0  0  0  0  0  0  0  0  0
  -25.8690  -30.7830   21.4120 C   0  0  0  0  0  2  0  0  0  0  0  0
  -25.9430  -29.4040   20.7540 C   0  0  0  0  0  0  0  0  0  0  0  0
  -27.1260  -28.5990   20.7510 C   0  0  0  0  0  3  0  0  0  0  0  0
  -25.9500  -26.8480   19.5720 C   0  0  0  0  0  3  0  0  0  0  0  0
  -24.7830  -27.6410   19.5610 C   0  0  0  0  0  3  0  0  0  0  0  0
  -23.5360  -29.7950   20.2100 C   0  0  0  0  0  2  0  0  0  0  0  0
  -24.5930  -31.0720   22.1280 N   0  0  0  0  0  0  0  0  0  0  0  0
  -23.4480  -32.1660   23.7590 O   0  0  0  0  0  0  0  0  0  0  0  0
  -22.6520  -29.4780   22.5520 C   0  0  0  0  0  0  0  0  0  0  0  0
  -21.3250  -29.3060   22.4260 N   0  0  0  0  0  0  0  0  0  0  0  0
  -23.3300  -28.8500   23.3710 O   0  0  0  0  0  0  0  0  0  0  0  0
  -20.8380  -29.8620   21.7340 H   0  0  0  0  0  0  0  0  0  0  0  0
  -17.9420  -28.1360   22.9390 C   0  0  0  0  0  0  0  0  0  0  0  0
  -20.5030  -28.3710   23.1970 C   0  0  0  0  0  3  0  0  0  0  0  0
  -20.5920  -26.9400   22.6170 C   0  0  0  0  0  2  0  0  0  0  0  0
  -19.4810  -26.6320   21.6080 C   0  0  0  0  0  2  0  0  0  0  0  0
  -18.1020  -26.7890   22.2570 C   0  0  0  0  0  2  0  0  0  0  0  0
  -19.0690  -28.8870   23.3670 C   0  0  0  0  0  0  0  0  0  0  0  0
  -18.8640  -30.1500   23.9600 C   0  0  0  0  0  3  0  0  0  0  0  0
  -17.5650  -30.6610   24.1350 C   0  0  0  0  0  3  0  0  0  0  0  0
  -16.4510  -29.9050   23.7290 C   0  0  0  0  0  3  0  0  0  0  0  0
  -16.6410  -28.6460   23.1340 C   0  0  0  0  0  3  0  0  0  0  0  0
  -25.8120  -32.5150   23.8500 C   0  0  0  0  0  3  0  0  0  0  0  0
  -25.5110  -33.9170   24.1620 N   0  0  0  0  0  0  0  0  0  0  0  0
  -25.8550  -34.9640   23.4000 C   0  0  0  0  0  0  0  0  0  0  0  0
  -26.5290  -34.8460   22.3720 O   0  0  0  0  0  0  0  0  0  0  0  0
  -24.9080  -34.0810   24.9560 H   0  0  0  0  0  0  0  0  0  0  0  0
  -24.1470  -36.7690   23.0230 C   0  0  0  0  0  1  0  0  0  0  0  0
  -25.3770  -36.3590   23.8460 C   0  0  0  0  0  3  0  0  0  0  0  0
  -27.5090  -37.2320   24.6940 C   0  0  0  0  0  1  0  0  0  0  0  0
  -26.4200  -37.4010   23.7360 N   0  0  0  0  0  0  0  0  0  0  0  0
  -26.0230  -38.3270   23.8690 H   0  0  0  0  0  0  0  0  0  0  0  0
  -26.3110  -31.7570   25.1410 C   0  0  1  0  0  0  0  0  0  0  0  0
  -25.2070  -31.5460   26.2030 C   0  0  0  0  0  1  0  0  0  0  0  0
  -26.8850  -30.3680   24.7770 C   0  0  0  0  0  1  0  0  0  0  0  0
  -27.4610  -32.5540   25.7990 C   0  0  0  0  0  1  0  0  0  0  0  0
  1  4  2  0
  1  5  1  0
  2  6  2  0
  3  6  1  0
  3 46  1  0
  4  2  1  0
  5  3  2  0
  6  7  1  0
  8 16  1  0
  9 14  1  0
 10 11  1  0
 10  9  1  0
 12 11  1  0
 12 21  1  0
 12 13  1  0
 14  8  1  0
 14 13  1  0
 15  8  2  0
 16 17  1  0
 16  4  1  0
 18 19  2  0
 19 38  1  0
 20 19  1  0
 20 23  1  0
 21 18  1  0
 21 22  1  0
 22 20  2  0
 23 24  1  0
 24 25  2  0
 26 29  1  0
 26 25  1  0
 27 26  2  0
 28 27  1  0
 28 23  2  0
 29 30  1  0
 30 31  1  0
 31 32  2  0
 33 32  1  0
 33 37  1  0
 34 33  2  0
 35 30  2  0
 35 34  1  0
 36 35  1  0
 38 39  1  0
 39 42  1  0
 39 41  1  0
 40 38  2  0
 43 44  1  0
 43 18  1  0
 45 43  1  0
 46 47  1  0
 48 46  2  0
 49  5  1  0
 50 49  1  0
 51 52  1  0
 51 49  1  0
 52 53  2  0
 54 55  1  0
 54 52  1  0
 56 67  2  0
 57 55  1  0
 57 62  1  0
 58 66  1  0
 58 68  1  0
 59 65  1  0
 59 61  1  0
 60 66  1  0
 61 60  1  0
 62 61  2  0
 63 57  2  0
 64 63  1  0
 64 59  2  0
 65 58  1  0
 66 56  1  0
 68 70  2  0
 69 68  1  0
 71 69  1  0
 72 81  2  0
 72 77  1  0
 73 69  1  0
 73 77  1  0
 74 73  1  0
 75 76  1  0
 75 74  1  0
 76 72  1  0
 77 78  2  0
 78 79  1  0
 80 79  2  0
 81 80  1  0
 82 56  1  0
 82 83  1  0
 82 92  1  0
 83 86  1  0
 84 88  1  0
 84 83  1  0
 85 84  2  0
 88 87  1  0
 90 88  1  0
 90 91  1  0
 90 89  1  0
 92 95  1  1
 92 93  1  0
 94 92  1  0
M  ISO  4   8 100  16 100  54 101  55 101
M  END
>  <TORSDO>  (54) 
F 21

>  <SCORE>  (54) 
-13.896

>  <name>  (54) 
53

>  <ligand_id>  (54) 
53

>  <original_smiles>  (54) 
[H]c1c([H])c([H])c2c(c1[H])C([H])([H])C([H])([H])C([H])([H])C2([H])N([H])C(=O)C1([H])N(C(=O)C([H])(N([H])C(=O)C([H])(N([H])C([H])([H])[H])C([H])([H])[H])C(C([H])([H])[H])(C([H])([H])[H])C([H])([H])[H])C([H])([H])c2c([H])c(OC([H])([H])C(=O)C([H])([H])N([H])c3c([H])c(N([H])C(=O)N4C([H])([H])C([H])([H])C([H])([H])C([H])(n5nc(-c6c([H])c([H])c(Oc7c([H])c([H])c(F)c([H])c7F)c([H])c6[H])c(C(=O)N([H])[H])c5N([H])[H])C4([H])[H])c([H])c(F)c3C(=O)C([H])([H])[H])c([H])c([H])c2C1([H])[H]

>  <smiles>  (54) 
[H]c1c([H])c([H])c2c(c1[H])C([H])([H])C([H])([H])C([H])([H])C2([H])N([H])C(=O)C1([H])N(C(=O)C([H])(N([H])C(=O)C([H])(N([H])C([H])([H])[H])C([H])([H])[H])C(C([H])([H])[H])(C([H])([H])[H])C([H])([H])[H])C([H])([H])c2c([H])c(OC([H])([H])C(=O)C([H])([H])N([H])c3c([H])c(N([H])C(=O)N4C([H])([H])C([H])([H])C([H])([H])C([H])(n5nc(-c6c([H])c([H])c(Oc7c([H])c([H])c(F)c([H])c7F)c([H])c6[H])c(C(=O)N([H])[H])c5N([H])[H])C4([H])[H])c([H])c(F)c3C(=O)C([H])([H])[H])c([H])c([H])c2C1([H])[H]

$$$$
54:0:0
     RDKit          3D

 91 99  0  0  1  0  0  0  0  0999 V2000
  -29.4440  -22.0420   19.3040 C   0  0  2  0  0  0  0  0  0  0  0  0
  -28.5630  -21.9880   18.3110 F   0  0  0  0  0  0  0  0  0  0  0  0
  -30.5870  -22.4340   18.7410 F   0  0  0  0  0  0  0  0  0  0  0  0
  -30.8650  -15.1830   19.7770 C   0  0  0  0  0  0  0  0  0  0  0  0
  -30.7080  -12.8300   18.8200 C   0  0  0  0  0  2  0  0  0  0  0  0
  -29.6580  -12.7750   17.6790 C   0  0  0  0  0  2  0  0  0  0  0  0
  -28.2400  -12.5550   18.2390 C   0  0  0  0  0  2  0  0  0  0  0  0
  -27.9440  -13.4700   19.4530 C   0  0  0  0  0  3  0  0  0  0  0  0
  -29.0960  -13.4620   20.4800 C   0  0  0  0  0  2  0  0  0  0  0  0
  -30.3090  -13.9020   19.7750 N   0  0  0  0  0  0  0  0  0  0  0  0
  -32.0030  -15.3040   19.3070 O   0  0  0  0  0  0  0  0  0  0  0  0
  -29.1430  -19.9060   21.0110 C   0  0  0  0  0  0  0  0  0  0  0  0
  -29.6390  -20.5070   19.8640 C   0  0  0  0  0  0  0  0  0  0  0  0
  -30.0220  -17.8190   20.1830 C   0  0  0  0  0  0  0  0  0  0  0  0
  -28.3420  -20.6420   22.0430 C   0  0  0  0  0  1  0  0  0  0  0  0
  -29.3530  -18.4840   21.1590 N   0  0  0  0  0  0  0  0  0  0  0  0
  -30.0690  -16.2820   20.2040 N   0  0  0  0  0  0  0  0  0  0  0  0
  -30.4620  -19.1240   18.9670 S   0  0  0  0  0  0  0  0  0  0  0  0
  -29.2490  -15.9210   20.6640 H   0  0  0  0  0  0  0  0  0  0  0  0
  -25.6660  -14.0440   20.4560 C   0  0  0  0  0  0  0  0  0  0  0  0
  -24.6250  -13.2690   20.8830 C   0  0  0  0  0  0  0  0  0  0  0  0
  -25.0520  -11.9140   20.7300 C   0  0  0  0  0  0  0  0  0  0  0  0
  -26.6580  -13.1650   20.0630 N   0  0  0  0  0  0  0  0  0  0  0  0
  -26.3030  -11.8740   20.2870 N   0  0  0  0  0  0  0  0  0  0  0  0
  -24.3190  -10.6550   20.9120 C   0  0  0  0  0  0  0  0  0  0  0  0
  -24.7440   -9.6810   21.8400 C   0  0  0  0  0  3  0  0  0  0  0  0
  -24.0090   -8.4870   22.0140 C   0  0  0  0  0  3  0  0  0  0  0  0
  -22.8360   -8.2580   21.2540 C   0  0  0  0  0  0  0  0  0  0  0  0
  -22.4300   -9.2230   20.3140 C   0  0  0  0  0  3  0  0  0  0  0  0
  -23.1670  -10.4080   20.1400 C   0  0  0  0  0  3  0  0  0  0  0  0
  -22.0730   -7.1180   21.3360 O   0  0  0  0  0  0  0  0  0  0  0  0
  -21.9100   -6.4470   22.5210 C   0  0  0  0  0  0  0  0  0  0  0  0
  -21.3320   -7.0640   23.6540 C   0  0  0  0  0  3  0  0  0  0  0  0
  -21.1170   -6.3170   24.8280 C   0  0  0  0  0  3  0  0  0  0  0  0
  -21.4710   -4.9540   24.8720 C   0  0  0  0  0  0  0  0  0  0  0  0
  -22.0440   -4.3380   23.7450 C   0  0  0  0  0  3  0  0  0  0  0  0
  -22.2580   -5.0810   22.5730 C   0  0  0  0  0  0  0  0  0  0  0  0
  -22.7890   -4.4800   21.4810 F   0  0  0  0  0  0  0  0  0  0  0  0
  -21.2600   -4.2330   25.9990 F   0  0  0  0  0  0  0  0  0  0  0  0
  -23.2740  -13.7520   21.3250 C   0  0  0  0  0  0  0  0  0  0  0  0
  -22.6300  -13.0280   22.2320 N   0  0  0  0  0  0  0  0  0  0  0  0
  -22.8060  -14.8100   20.9020 O   0  0  0  0  0  0  0  0  0  0  0  0
  -23.0270  -12.1720   22.5880 H   0  0  0  0  0  0  0  0  0  0  0  0
  -21.7340  -13.3390   22.5800 H   0  0  0  0  0  0  0  0  0  0  0  0
  -25.8520  -15.4210   20.3440 N   0  0  0  0  0  0  0  0  0  0  0  0
  -25.1210  -16.0930   20.5410 H   0  0  0  0  0  0  0  0  0  0  0  0
  -26.6740  -15.8420   19.9350 H   0  0  0  0  0  0  0  0  0  0  0  0
  -28.9580  -23.4340   20.1310 C   0  0  0  0  0  3  0  0  0  0  0  0
  -29.9050  -23.7230   21.0240 F   0  0  0  0  0  0  0  0  0  0  0  0
  -28.4670  -24.8770   19.3960 C   0  0  0  0  0  2  0  0  0  0  0  0
  -28.4790  -26.3490   19.9300 O   0  0  0  0  0  0  0  0  0  0  0  0
  -24.7340  -31.8610   23.0610 C   0  0  0  0  0  0  0  0  0  0  0  0
  -27.3900  -27.2970   19.8620 C   0  0  0  0  0  0  0  0  0  0  0  0
  -23.5450  -30.4700   21.4110 C   0  0  0  0  0  3  0  0  0  0  0  0
  -25.0120  -28.9790   19.9170 C   0  0  0  0  0  0  0  0  0  0  0  0
  -26.0900  -30.8100   21.2180 C   0  0  0  0  0  2  0  0  0  0  0  0
  -26.1860  -29.4370   20.5260 C   0  0  0  0  0  0  0  0  0  0  0  0
  -27.3690  -28.6090   20.4890 C   0  0  0  0  0  3  0  0  0  0  0  0
  -26.1920  -26.9570   19.1920 C   0  0  0  0  0  3  0  0  0  0  0  0
  -25.0270  -27.7540   19.2380 C   0  0  0  0  0  3  0  0  0  0  0  0
  -23.7630  -29.8390   20.0100 C   0  0  0  0  0  2  0  0  0  0  0  0
  -24.8070  -31.0710   21.9480 N   0  0  0  0  0  0  0  0  0  0  0  0
  -23.6530  -32.1000   23.6190 O   0  0  0  0  0  0  0  0  0  0  0  0
  -22.9160  -29.4170   22.3570 C   0  0  0  0  0  0  0  0  0  0  0  0
  -21.5870  -29.2240   22.2660 N   0  0  0  0  0  0  0  0  0  0  0  0
  -23.6270  -28.7740   23.1350 O   0  0  0  0  0  0  0  0  0  0  0  0
  -21.0630  -29.7960   21.6180 H   0  0  0  0  0  0  0  0  0  0  0  0
  -18.2390  -27.9750   22.8620 C   0  0  0  0  0  0  0  0  0  0  0  0
  -20.8050  -28.2490   23.0320 C   0  0  0  0  0  3  0  0  0  0  0  0
  -20.8920  -26.8400   22.4000 C   0  0  0  0  0  2  0  0  0  0  0  0
  -19.7530  -26.5520   21.4180 C   0  0  0  0  0  2  0  0  0  0  0  0
  -18.3970  -26.6570   22.1240 C   0  0  0  0  0  2  0  0  0  0  0  0
  -19.3680  -28.7320   23.2730 C   0  0  0  0  0  0  0  0  0  0  0  0
  -19.1630  -29.9670   23.9240 C   0  0  0  0  0  3  0  0  0  0  0  0
  -17.8620  -30.4530   24.1610 C   0  0  0  0  0  3  0  0  0  0  0  0
  -16.7470  -29.6940   23.7620 C   0  0  0  0  0  3  0  0  0  0  0  0
  -16.9390  -28.4570   23.1180 C   0  0  0  0  0  3  0  0  0  0  0  0
  -26.0070  -32.5160   23.6780 C   0  0  0  0  0  3  0  0  0  0  0  0
  -25.6580  -33.8890   24.0740 N   0  0  0  0  0  0  0  0  0  0  0  0
  -25.9130  -34.9830   23.3460 C   0  0  0  0  0  0  0  0  0  0  0  0
  -26.5400  -34.9460   22.2840 O   0  0  0  0  0  0  0  0  0  0  0  0
  -25.0910  -33.9870   24.9040 H   0  0  0  0  0  0  0  0  0  0  0  0
  -24.0990  -36.7140   23.1470 C   0  0  0  0  0  1  0  0  0  0  0  0
  -25.3930  -36.3320   23.8820 C   0  0  0  0  0  3  0  0  0  0  0  0
  -27.5230  -37.2810   24.6510 C   0  0  0  0  0  1  0  0  0  0  0  0
  -26.3750  -37.4320   23.7610 N   0  0  0  0  0  0  0  0  0  0  0  0
  -25.9370  -38.3280   23.9560 H   0  0  0  0  0  0  0  0  0  0  0  0
  -26.5780  -31.7180   24.9130 C   0  0  1  0  0  0  0  0  0  0  0  0
  -25.5180  -31.4030   25.9940 C   0  0  0  0  0  1  0  0  0  0  0  0
  -27.2050  -30.3770   24.4670 C   0  0  0  0  0  1  0  0  0  0  0  0
  -27.7100  -32.5320   25.5790 C   0  0  0  0  0  1  0  0  0  0  0  0
  1 13  1  0
  1 48  1  0
  1  2  1  6
  3  1  1  0
  4 17  1  0
  5 10  1  0
  6  7  1  0
  6  5  1  0
  8  7  1  0
  8 23  1  0
  8  9  1  0
 10  4  1  0
 10  9  1  0
 11  4  2  0
 12 16  1  0
 12 15  1  0
 13 12  2  0
 14 17  1  0
 14 16  2  0
 17 19  1  0
 18 13  1  0
 18 14  1  0
 20 21  2  0
 21 40  1  0
 22 21  1  0
 22 25  1  0
 23 24  1  0
 23 20  1  0
 24 22  2  0
 25 26  1  0
 26 27  2  0
 28 31  1  0
 28 27  1  0
 29 28  2  0
 30 29  1  0
 30 25  2  0
 31 32  1  0
 32 37  2  0
 32 33  1  0
 33 34  2  0
 34 35  1  0
 35 39  1  0
 36 35  2  0
 37 36  1  0
 38 37  1  0
 40 41  1  0
 41 44  1  0
 41 43  1  0
 42 40  2  0
 45 20  1  0
 45 46  1  0
 47 45  1  0
 48 49  1  0
 50 51  1  0
 50 48  1  0
 52 63  2  0
 53 51  1  0
 53 58  1  0
 54 62  1  0
 54 64  1  0
 55 61  1  0
 55 57  1  0
 56 62  1  0
 57 56  1  0
 58 57  2  0
 59 60  1  0
 59 53  2  0
 60 55  2  0
 61 54  1  0
 62 52  1  0
 64 66  2  0
 65 64  1  0
 67 65  1  0
 68 77  2  0
 68 73  1  0
 69 65  1  0
 69 73  1  0
 70 69  1  0
 71 72  1  0
 71 70  1  0
 72 68  1  0
 73 74  2  0
 74 75  1  0
 76 75  2  0
 77 76  1  0
 78 52  1  0
 78 79  1  0
 78 88  1  0
 79 82  1  0
 80 84  1  0
 80 79  1  0
 81 80  2  0
 84 83  1  0
 86 84  1  0
 86 87  1  0
 86 85  1  0
 88 91  1  1
 88 89  1  0
 90 88  1  0
M  ISO  4   4 100  17 100  50 101  51 101
M  END
>  <TORSDO>  (55) 
F 18

>  <SCORE>  (55) 
-12.197

>  <name>  (55) 
54

>  <ligand_id>  (55) 
54

>  <original_smiles>  (55) 
[H]c1c([H])c([H])c2c(c1[H])C([H])([H])C([H])([H])C([H])([H])C2([H])N([H])C(=O)C1([H])N(C(=O)C([H])(N([H])C(=O)C([H])(N([H])C([H])([H])[H])C([H])([H])[H])C(C([H])([H])[H])(C([H])([H])[H])C([H])([H])[H])C([H])([H])c2c([H])c(OC([H])([H])C([H])(F)C(F)(F)c3sc(N([H])C(=O)N4C([H])([H])C([H])([H])C([H])([H])C([H])(n5nc(-c6c([H])c([H])c(Oc7c([H])c([H])c(F)c([H])c7F)c([H])c6[H])c(C(=O)N([H])[H])c5N([H])[H])C4([H])[H])nc3C([H])([H])[H])c([H])c([H])c2C1([H])[H]

>  <smiles>  (55) 
[H]c1c([H])c([H])c2c(c1[H])C([H])([H])C([H])([H])C([H])([H])C2([H])N([H])C(=O)C1([H])N(C(=O)C([H])(N([H])C(=O)C([H])(N([H])C([H])([H])[H])C([H])([H])[H])C(C([H])([H])[H])(C([H])([H])[H])C([H])([H])[H])C([H])([H])c2c([H])c(OC([H])([H])C([H])(F)C(F)(F)c3sc(N([H])C(=O)N4C([H])([H])C([H])([H])C([H])([H])C([H])(n5nc(-c6c([H])c([H])c(Oc7c([H])c([H])c(F)c([H])c7F)c([H])c6[H])c(C(=O)N([H])[H])c5N([H])[H])C4([H])[H])nc3C([H])([H])[H])c([H])c([H])c2C1([H])[H]

$$$$
55:0:0
     RDKit          3D

 94102  0  0  1  0  0  0  0  0999 V2000
  -28.9670  -22.7450   20.3760 C   0  0  0  0  0  0  0  0  0  0  0  0
  -29.8350  -23.0660   19.5600 O   0  0  0  0  0  0  0  0  0  0  0  0
  -27.9400  -25.1960   21.0890 C   0  0  0  0  0  3  0  0  0  0  0  0
  -28.1730  -23.8150   21.1730 C   0  0  0  0  0  0  0  0  0  0  0  0
  -27.5660  -23.2480   22.2260 O   0  0  0  0  0  0  0  0  0  0  0  0
  -27.1150  -23.9320   22.7030 H   0  0  0  0  0  0  0  0  0  0  0  0
  -28.2620  -26.3190   20.2720 O   0  0  0  0  0  0  0  0  0  0  0  0
  -24.6150  -31.8900   23.2270 C   0  0  0  0  0  0  0  0  0  0  0  0
  -27.2360  -27.2920   20.1860 C   0  0  0  0  0  0  0  0  0  0  0  0
  -23.4190  -30.4860   21.5890 C   0  0  0  0  0  3  0  0  0  0  0  0
  -24.8810  -28.9380   20.1570 C   0  0  0  0  0  0  0  0  0  0  0  0
  -25.9620  -30.7980   21.4140 C   0  0  0  0  0  2  0  0  0  0  0  0
  -26.0510  -29.4170   20.7640 C   0  0  0  0  0  0  0  0  0  0  0  0
  -27.2350  -28.6060   20.7700 C   0  0  0  0  0  3  0  0  0  0  0  0
  -26.0480  -26.8870   19.5440 C   0  0  0  0  0  3  0  0  0  0  0  0
  -24.8860  -27.6820   19.5350 C   0  0  0  0  0  3  0  0  0  0  0  0
  -23.6390  -29.8100   20.2090 C   0  0  0  0  0  2  0  0  0  0  0  0
  -24.6840  -31.0760   22.1330 N   0  0  0  0  0  0  0  0  0  0  0  0
  -23.5290  -32.1680   23.7590 O   0  0  0  0  0  0  0  0  0  0  0  0
  -22.7550  -29.4700   22.5510 C   0  0  0  0  0  0  0  0  0  0  0  0
  -21.4290  -29.2880   22.4210 N   0  0  0  0  0  0  0  0  0  0  0  0
  -23.4340  -28.8490   23.3730 O   0  0  0  0  0  0  0  0  0  0  0  0
  -20.9410  -29.8370   21.7280 H   0  0  0  0  0  0  0  0  0  0  0  0
  -18.0560  -28.0780   22.9220 C   0  0  0  0  0  0  0  0  0  0  0  0
  -20.6120  -28.3490   23.1920 C   0  0  0  0  0  3  0  0  0  0  0  0
  -20.7200  -26.9170   22.6170 C   0  0  0  0  0  2  0  0  0  0  0  0
  -19.6190  -26.5890   21.6030 C   0  0  0  0  0  2  0  0  0  0  0  0
  -18.2370  -26.7300   22.2470 C   0  0  0  0  0  2  0  0  0  0  0  0
  -19.1710  -28.8460   23.3520 C   0  0  0  0  0  0  0  0  0  0  0  0
  -18.9470  -30.1080   23.9430 C   0  0  0  0  0  3  0  0  0  0  0  0
  -17.6390  -30.6020   24.1100 C   0  0  0  0  0  3  0  0  0  0  0  0
  -16.5390  -29.8340   23.6950 C   0  0  0  0  0  3  0  0  0  0  0  0
  -16.7470  -28.5730   23.1080 C   0  0  0  0  0  3  0  0  0  0  0  0
  -25.8940  -32.5280   23.8510 C   0  0  0  0  0  3  0  0  0  0  0  0
  -26.4020  -31.7680   25.1370 C   0  0  1  0  0  0  0  0  0  0  0  0
  -25.3010  -31.5410   26.2000 C   0  0  0  0  0  1  0  0  0  0  0  0
  -26.9870  -30.3850   24.7650 C   0  0  0  0  0  1  0  0  0  0  0  0
  -27.5480  -32.5680   25.8010 C   0  0  0  0  0  1  0  0  0  0  0  0
  -25.5820  -33.9290   24.1710 N   0  0  0  0  0  0  0  0  0  0  0  0
  -25.9110  -34.9780   23.4060 C   0  0  0  0  0  0  0  0  0  0  0  0
  -26.5800  -34.8690   22.3750 O   0  0  0  0  0  0  0  0  0  0  0  0
  -24.9880  -34.0870   24.9720 H   0  0  0  0  0  0  0  0  0  0  0  0
  -24.1830  -36.7690   23.0390 C   0  0  0  0  0  1  0  0  0  0  0  0
  -25.4230  -36.3690   23.8550 C   0  0  0  0  0  3  0  0  0  0  0  0
  -27.5550  -37.2590   24.6880 C   0  0  0  0  0  1  0  0  0  0  0  0
  -26.4550  -37.4220   23.7400 N   0  0  0  0  0  0  0  0  0  0  0  0
  -26.0480  -38.3420   23.8830 H   0  0  0  0  0  0  0  0  0  0  0  0
  -28.6300  -21.1610   20.5620 C   0  0  0  0  0  2  0  0  0  0  0  0
  -31.0580  -20.2110   20.7190 C   0  0  0  0  0  3  0  0  0  0  0  0
  -31.6140  -17.8100   20.7450 C   0  0  0  0  0  3  0  0  0  0  0  0
  -29.6810  -19.9460   20.5790 C   0  0  0  0  0  0  0  0  0  0  0  0
  -30.2590  -17.4220   20.6080 C   0  0  0  0  0  0  0  0  0  0  0  0
  -29.3080  -18.5290   20.5320 C   0  0  0  0  0  0  0  0  0  0  0  0
  -32.0030  -19.1670   20.7990 C   0  0  0  0  0  0  0  0  0  0  0  0
  -27.9930  -18.2220   20.4200 F   0  0  0  0  0  0  0  0  0  0  0  0
  -33.6750  -19.5590   20.9840 Cl  0  0  0  0  0  0  0  0  0  0  0  0
  -30.6200  -14.8150   20.3270 C   0  0  0  0  0  0  0  0  0  0  0  0
  -30.3960  -12.5500   19.2810 C   0  0  0  0  0  2  0  0  0  0  0  0
  -29.4430  -12.6280   18.0680 C   0  0  0  0  0  2  0  0  0  0  0  0
  -27.9810  -12.4410   18.5160 C   0  0  0  0  0  2  0  0  0  0  0  0
  -27.6190  -13.3080   19.7500 C   0  0  0  0  0  3  0  0  0  0  0  0
  -28.6940  -13.2230   20.8570 C   0  0  0  0  0  2  0  0  0  0  0  0
  -29.9760  -13.5960   20.2460 N   0  0  0  0  0  0  0  0  0  0  0  0
  -31.7990  -14.8800   19.9680 O   0  0  0  0  0  0  0  0  0  0  0  0
  -29.8820  -15.9680   20.5950 N   0  0  0  0  0  0  0  0  0  0  0  0
  -28.9050  -15.7960   20.7770 H   0  0  0  0  0  0  0  0  0  0  0  0
  -25.2340  -13.8700   20.5040 C   0  0  0  0  0  0  0  0  0  0  0  0
  -24.1780  -13.0840   20.8770 C   0  0  0  0  0  0  0  0  0  0  0  0
  -24.6520  -11.7370   20.8350 C   0  0  0  0  0  0  0  0  0  0  0  0
  -26.2840  -13.0020   20.2520 N   0  0  0  0  0  0  0  0  0  0  0  0
  -25.9410  -11.7130   20.5140 N   0  0  0  0  0  0  0  0  0  0  0  0
  -23.9370  -10.4680   21.0240 C   0  0  0  0  0  0  0  0  0  0  0  0
  -24.3760   -9.5050   21.9590 C   0  0  0  0  0  3  0  0  0  0  0  0
  -23.6610   -8.3020   22.1380 C   0  0  0  0  0  3  0  0  0  0  0  0
  -22.4920   -8.0520   21.3800 C   0  0  0  0  0  0  0  0  0  0  0  0
  -22.0700   -9.0040   20.4350 C   0  0  0  0  0  3  0  0  0  0  0  0
  -22.7870  -10.1990   20.2550 C   0  0  0  0  0  3  0  0  0  0  0  0
  -21.7480   -6.9000   21.4680 O   0  0  0  0  0  0  0  0  0  0  0  0
  -21.6970   -6.1620   22.6230 C   0  0  0  0  0  0  0  0  0  0  0  0
  -21.2380   -6.7120   23.8390 C   0  0  0  0  0  3  0  0  0  0  0  0
  -21.1360   -5.9000   24.9860 C   0  0  0  0  0  3  0  0  0  0  0  0
  -21.4820   -4.5370   24.9170 C   0  0  0  0  0  0  0  0  0  0  0  0
  -21.9350   -3.9860   23.7060 C   0  0  0  0  0  3  0  0  0  0  0  0
  -22.0380   -4.7950   22.5610 C   0  0  0  0  0  0  0  0  0  0  0  0
  -22.4540   -4.2550   21.3910 F   0  0  0  0  0  0  0  0  0  0  0  0
  -21.3780   -3.7540   26.0160 F   0  0  0  0  0  0  0  0  0  0  0  0
  -22.7800  -13.5480   21.1640 C   0  0  0  0  0  0  0  0  0  0  0  0
  -22.0640  -12.8390   22.0280 N   0  0  0  0  0  0  0  0  0  0  0  0
  -22.3300  -14.5760   20.6560 O   0  0  0  0  0  0  0  0  0  0  0  0
  -22.4430  -12.0090   22.4610 H   0  0  0  0  0  0  0  0  0  0  0  0
  -21.1250  -13.1290   22.2630 H   0  0  0  0  0  0  0  0  0  0  0  0
  -25.3840  -15.2440   20.3340 N   0  0  0  0  0  0  0  0  0  0  0  0
  -24.6120  -15.8880   20.4690 H   0  0  0  0  0  0  0  0  0  0  0  0
  -26.2230  -15.6980   19.9940 H   0  0  0  0  0  0  0  0  0  0  0  0
  1 48  1  0
  1  4  1  0
  2  1  2  0
  3  4  2  0
  4  5  1  0
  5  6  1  0
  7  3  1  0
  8 19  2  0
  9  7  1  0
  9 14  1  0
 10 18  1  0
 10 20  1  0
 11 17  1  0
 11 13  1  0
 12 18  1  0
 13 14  2  0
 13 12  1  0
 15  9  2  0
 16 15  1  0
 16 11  2  0
 17 10  1  0
 18  8  1  0
 20 22  2  0
 21 20  1  0
 23 21  1  0
 24 33  2  0
 24 29  1  0
 25 21  1  0
 25 29  1  0
 26 25  1  0
 27 28  1  0
 27 26  1  0
 28 24  1  0
 29 30  2  0
 30 31  1  0
 32 31  2  0
 33 32  1  0
 34  8  1  0
 34 39  1  0
 34 35  1  0
 35 38  1  1
 35 36  1  0
 37 35  1  0
 39 42  1  0
 40 44  1  0
 40 39  1  0
 41 40  2  0
 44 43  1  0
 46 44  1  0
 46 47  1  0
 46 45  1  0
 48 51  1  0
 49 54  1  0
 50 54  2  0
 51 49  2  0
 52 50  1  0
 53 51  1  0
 53 52  2  0
 54 56  1  0
 55 53  1  0
 57 65  1  0
 58 63  1  0
 59 60  1  0
 59 58  1  0
 61 60  1  0
 61 70  1  0
 61 62  1  0
 63 57  1  0
 63 62  1  0
 64 57  2  0
 65 52  1  0
 65 66  1  0
 67 68  2  0
 68 87  1  0
 69 68  1  0
 69 72  1  0
 70 67  1  0
 70 71  1  0
 71 69  2  0
 72 73  1  0
 73 74  2  0
 75 78  1  0
 75 74  1  0
 76 75  2  0
 77 76  1  0
 77 72  2  0
 78 79  1  0
 79 80  1  0
 80 81  2  0
 82 81  1  0
 82 86  1  0
 83 82  2  0
 84 79  2  0
 84 83  1  0
 85 84  1  0
 87 88  1  0
 88 91  1  0
 88 90  1  0
 89 87  2  0
 92 93  1  0
 92 67  1  0
 94 92  1  0
M  ISO  4   3 101   7 101  57 100  65 100
M  END
>  <TORSDO>  (56) 
F 20

>  <SCORE>  (56) 
-14.647

>  <name>  (56) 
55

>  <ligand_id>  (56) 
55

>  <original_smiles>  (56) 
[H]OC(C(=O)C([H])([H])c1c([H])c(Cl)c([H])c(N([H])C(=O)N2C([H])([H])C([H])([H])C([H])([H])C([H])(n3nc(-c4c([H])c([H])c(Oc5c([H])c([H])c(F)c([H])c5F)c([H])c4[H])c(C(=O)N([H])[H])c3N([H])[H])C2([H])[H])c1F)=C([H])Oc1c([H])c([H])c2c(c1[H])C([H])([H])N(C(=O)C([H])(N([H])C(=O)C([H])(N([H])C([H])([H])[H])C([H])([H])[H])C(C([H])([H])[H])(C([H])([H])[H])C([H])([H])[H])C([H])(C(=O)N([H])C1([H])c3c([H])c([H])c([H])c([H])c3C([H])([H])C([H])([H])C1([H])[H])C2([H])[H]

>  <smiles>  (56) 
[H]OC(C(=O)C([H])([H])c1c([H])c(Cl)c([H])c(N([H])C(=O)N2C([H])([H])C([H])([H])C([H])([H])C([H])(n3nc(-c4c([H])c([H])c(Oc5c([H])c([H])c(F)c([H])c5F)c([H])c4[H])c(C(=O)N([H])[H])c3N([H])[H])C2([H])[H])c1F)=C([H])Oc1c([H])c([H])c2c(c1[H])C([H])([H])N(C(=O)C([H])(N([H])C(=O)C([H])(N([H])C([H])([H])[H])C([H])([H])[H])C(C([H])([H])[H])(C([H])([H])[H])C([H])([H])[H])C([H])(C(=O)N([H])C1([H])c3c([H])c([H])c([H])c([H])c3C([H])([H])C([H])([H])C1([H])[H])C2([H])[H]

$$$$
56:0:0
     RDKit          3D

 97100  0  0  1  0  0  0  0  0999 V2000
  -23.1830  -25.9270   23.8560 C   0  0  0  0  0  1  0  0  0  0  0  0
  -21.3750  -26.8760   25.1170 C   0  0  0  0  0  1  0  0  0  0  0  0
  -22.1790  -29.1630   22.0640 C   0  0  0  0  0 15  0  0  0  0  0  0
  -24.4470  -26.4640   22.1040 C   0  0  0  0  0  1  0  0  0  0  0  0
  -20.7620  -29.1030   23.8230 C   0  0  0  0  0  1  0  0  0  0  0  0
  -19.4350  -29.9600   23.7470 C   0  0  0  0  0  1  0  0  0  0  0  0
  -23.7920  -28.1150   21.8330 N   0  0  0  0  0  0  0  0  0  0  0  0
  -24.0340  -28.2920   22.7960 H   0  0  0  0  0  0  0  0  0  0  0  0
  -32.4370  -23.4730   17.5720 C   0  0  0  0  0  0  0  0  0  0  0  0
  -34.6700  -23.0460   15.6210 C   0  0  0  0  0  2  0  0  0  0  0  0
  -34.9270  -23.7800   14.2160 C   0  0  0  0  0  2  0  0  0  0  0  0
  -33.9070  -23.3650   13.1530 C   0  0  0  0  0  2  0  0  0  0  0  0
  -32.6040  -23.0970   13.9100 C   0  0  0  0  0  3  0  0  0  0  0  0
  -32.6800  -22.1460   15.1190 C   0  0  0  0  0  2  0  0  0  0  0  0
  -33.1510  -22.9970   16.2280 N   0  0  0  0  0  0  0  0  0  0  0  0
  -33.5960  -23.4860   18.1580 O   0  0  0  0  0  0  0  0  0  0  0  0
  -27.9310  -24.7550   18.2270 C   0  0  0  0  0  3  0  0  0  0  0  0
  -26.5470  -25.1590   18.4260 C   0  0  0  0  0  3  0  0  0  0  0  0
  -28.9990  -24.6250   19.1750 C   0  0  0  0  0  3  0  0  0  0  0  0
  -26.2320  -25.6540   20.8190 C   0  0  0  0  0  3  0  0  0  0  0  0
  -25.8030  -25.5380   19.5450 N   0  0  0  0  0  0  0  0  0  0  0  0
  -27.8960  -25.1570   20.4960 N   0  0  0  0  0  0  0  0  0  0  0  0
  -30.7450  -23.9680   18.1450 N   0  0  0  0  0  2  0  0  0  0  0  0
  -30.3360  -23.7670   17.2440 H   0  0  0  0  0  0  0  0  0  0  0  0
  -30.1790  -22.8570   13.5520 C   0  0  0  0  0  0  0  0  0  0  0  0
  -29.4360  -22.4160   12.5060 C   0  0  0  0  0  0  0  0  0  0  0  0
  -30.3660  -22.0230   11.4920 C   0  0  0  0  0  0  0  0  0  0  0  0
  -31.4810  -22.7350   13.1290 N   0  0  0  0  0  0  0  0  0  0  0  0
  -31.6150  -22.1570   11.9170 N   0  0  0  0  0  0  0  0  0  0  0  0
  -30.1330  -21.5960   10.1150 C   0  0  0  0  0  0  0  0  0  0  0  0
  -30.6670  -20.3900    9.6140 C   0  0  0  0  0  3  0  0  0  0  0  0
  -30.4030  -19.9960    8.2850 C   0  0  0  0  0  3  0  0  0  0  0  0
  -29.6000  -20.8110    7.4520 C   0  0  0  0  0  0  0  0  0  0  0  0
  -29.0970  -22.0250    7.9510 C   0  0  0  0  0  3  0  0  0  0  0  0
  -29.3630  -22.4180    9.2710 C   0  0  0  0  0  3  0  0  0  0  0  0
  -29.3080  -20.5220    6.1420 O   0  0  0  0  0  0  0  0  0  0  0  0
  -29.2600  -19.2300    5.6880 C   0  0  0  0  0  0  0  0  0  0  0  0
  -28.4260  -18.2590    6.2840 C   0  0  0  0  0  3  0  0  0  0  0  0
  -28.3560  -16.9620    5.7370 C   0  0  0  0  0  3  0  0  0  0  0  0
  -29.1110  -16.6370    4.5950 C   0  0  0  0  0  0  0  0  0  0  0  0
  -29.9390  -17.6050    3.9980 C   0  0  0  0  0  3  0  0  0  0  0  0
  -30.0110  -18.8980    4.5420 C   0  0  0  0  0  0  0  0  0  0  0  0
  -30.7930  -19.8340    3.9520 F   0  0  0  0  0  0  0  0  0  0  0  0
  -29.0380  -15.3940    4.0650 F   0  0  0  0  0  0  0  0  0  0  0  0
  -27.9460  -22.4750   12.4240 C   0  0  0  0  0  0  0  0  0  0  0  0
  -27.3400  -21.5490   11.6940 N   0  0  0  0  0  0  0  0  0  0  0  0
  -27.3120  -23.3170   13.0580 O   0  0  0  0  0  0  0  0  0  0  0  0
  -27.8690  -20.8490   11.1950 H   0  0  0  0  0  0  0  0  0  0  0  0
  -26.3320  -21.5390   11.6350 H   0  0  0  0  0  0  0  0  0  0  0  0
  -29.8680  -23.3830   14.8100 N   0  0  0  0  0  0  0  0  0  0  0  0
  -28.9030  -23.6740   14.9200 H   0  0  0  0  0  0  0  0  0  0  0  0
  -30.5110  -24.0710   15.1800 H   0  0  0  0  0  0  0  0  0  0  0  0
  -24.9230  -28.8730   21.1710 C   0  0  0  0  0  2  0  0  0  0  0  0
  -26.4590  -28.5510   21.5440 C   0  0  0  0  0  0  0  0  0  0  0  0
  -27.2790  -28.6960   20.6360 O   0  0  0  0  0  0  0  0  0  0  0  0
  -27.0470  -28.1310   22.9740 C   0  0  0  0  0  2  0  0  0  0  0  0
  -27.6940  -29.1820   23.8280 O   0  0  0  0  0  0  0  0  0  0  0  0
  -22.7050  -27.5900   28.4660 C   0  0  0  0  0  0  0  0  0  0  0  0
  -26.6810  -29.7590   24.5180 C   0  0  0  0  0  0  0  0  0  0  0  0
  -22.4290  -28.4590   26.1750 C   0  0  0  0  0  3  0  0  0  0  0  0
  -24.0330  -30.0120   25.2110 C   0  0  0  0  0  0  0  0  0  0  0  0
  -24.3950  -29.1830   27.5430 C   0  0  0  0  0  2  0  0  0  0  0  0
  -24.9460  -29.5670   26.1790 C   0  0  0  0  0  0  0  0  0  0  0  0
  -26.2950  -29.3760   25.8200 C   0  0  0  0  0  3  0  0  0  0  0  0
  -25.8090  -30.4820   23.7030 C   0  0  0  0  0  3  0  0  0  0  0  0
  -24.4480  -30.4830   23.9720 C   0  0  0  0  0  3  0  0  0  0  0  0
  -22.5950  -29.8770   25.5530 C   0  0  0  0  0  2  0  0  0  0  0  0
  -23.1330  -28.4180   27.4720 N   0  0  0  0  0  0  0  0  0  0  0  0
  -21.6030  -27.0190   28.4280 O   0  0  0  0  0  0  0  0  0  0  0  0
  -23.0650  -27.3200   25.2230 C   0  0  2  0  0  0  0  0  0  0  0  0
  -22.9940  -27.0970   23.7810 N   0  0  0  0  0  0  0  0  0  0  0  0
  -23.5750  -26.3970   25.8010 O   0  0  0  0  0  1  0  0  0  0  0  0
  -23.0110  -28.0580   23.4930 H   0  0  0  0  0  0  0  0  0  0  0  0
  -18.4410  -26.3120   21.8430 C   0  0  0  0  0  0  0  0  0  0  0  0
  -21.3880  -26.2300   22.2950 C   0  0  0  0  0  2  0  0  0  0  0  0
  -21.3210  -26.5100   20.8710 C   0  0  0  0  0  2  0  0  0  0  0  0
  -20.1760  -27.4430   20.5280 C   0  0  0  0  0  2  0  0  0  0  0  0
  -18.8720  -26.6880   20.4830 C   0  0  0  0  0  2  0  0  0  0  0  0
  -19.5000  -26.0710   22.7950 C   0  0  0  0  0  0  0  0  0  0  0  0
  -18.7550  -25.9880   24.1110 C   0  0  0  0  0  3  0  0  0  0  0  0
  -17.3230  -26.0820   24.3550 C   0  0  0  0  0  3  0  0  0  0  0  0
  -16.4200  -26.2340   23.2970 C   0  0  0  0  0  3  0  0  0  0  0  0
  -17.0150  -26.3480   22.0400 C   0  0  0  0  0  3  0  0  0  0  0  0
  -23.6200  -27.3190   29.6910 C   0  0  0  0  0  3  0  0  0  0  0  0
  -24.4610  -25.9900   29.5500 C   0  0  1  0  0  0  0  0  0  0  0  0
  -23.6150  -24.7540   29.1660 C   0  0  0  0  0  1  0  0  0  0  0  0
  -25.5950  -26.1390   28.5080 C   0  0  0  0  0  1  0  0  0  0  0  0
  -25.1770  -25.6880   30.8840 C   0  0  0  0  0  1  0  0  0  0  0  0
  -22.7640  -27.2740   30.8790 N   0  0  0  0  0  0  0  0  0  0  0  0
  -22.6210  -28.2860   31.7440 C   0  0  0  0  0  0  0  0  0  0  0  0
  -23.2470  -29.3450   31.6440 O   0  0  0  0  0  0  0  0  0  0  0  0
  -22.1740  -26.4630   30.9880 H   0  0  0  0  0  0  0  0  0  0  0  0
  -20.3070  -28.8030   32.5840 C   0  0  0  0  0  1  0  0  0  0  0  0
  -21.6300  -28.0910   32.9060 C   0  0  0  0  0  3  0  0  0  0  0  0
  -23.2670  -27.7690   34.7090 C   0  0  0  0  0  1  0  0  0  0  0  0
  -22.1500  -28.5670   34.2070 N   0  0  0  0  0  0  0  0  0  0  0  0
  -21.4150  -28.5670   34.9100 H   0  0  0  0  0  0  0  0  0  0  0  0
  6  5  1  0
  7  4  1  0
  7  8  1  0
  9 23  1  0
  9 16  2  0
 10 15  1  0
 11 10  1  0
 12 13  1  0
 12 11  1  0
 13 28  1  0
 13 14  1  0
 14 15  1  0
 15  9  1  0
 17 18  2  0
 17 19  1  0
 18 21  1  0
 19 22  2  0
 21 20  2  0
 22 20  1  0
 24 23  1  0
 25 50  1  0
 26 25  2  0
 27 29  2  0
 27 26  1  0
 28 25  1  0
 29 28  1  0
 30 27  1  0
 31 30  1  0
 32 31  2  0
 33 34  2  0
 33 32  1  0
 34 35  1  0
 35 30  2  0
 36 33  1  0
 37 36  1  0
 37 38  1  0
 39 38  2  0
 40 39  1  0
 41 42  1  0
 41 40  2  0
 42 37  2  0
 43 42  1  0
 44 40  1  0
 45 26  1  0
 45 47  2  0
 46 45  1  0
 48 46  1  0
 49 46  1  0
 50 51  1  0
 50 52  1  0
 53 54  1  0
 53  7  1  0
 54 56  1  0
 55 54  2  0
 56 57  1  0
 57 59  1  0
 59 64  1  0
 60 70  1  0
 60 68  1  0
 61 67  1  0
 61 63  1  0
 63 62  1  0
 64 63  2  0
 65 66  1  0
 65 59  2  0
 66 61  2  0
 67 60  1  0
 68 62  1  0
 68 58  1  0
 69 58  2  0
 70  2  1  1
 70 72  1  0
 71  1  1  0
 71 70  1  0
 73 71  1  0
 74 83  2  0
 74 79  1  0
 75 79  1  0
 76 75  1  0
 77 76  1  0
 78 77  1  0
 78 74  1  0
 79 80  2  0
 80 81  1  0
 82 81  2  0
 83 82  1  0
 84 58  1  0
 84 89  1  0
 85 84  1  0
 85 88  1  1
 86 85  1  0
 87 85  1  0
 89 92  1  0
 89 90  1  0
 90 94  1  0
 91 90  2  0
 94 93  1  0
 94 96  1  0
 96 95  1  0
 96 97  1  0
M  ISO  4   9 100  23 100  56 101  57 101
M  END
>  <TORSDO>  (57) 
F 19

>  <SCORE>  (57) 
16.368

>  <name>  (57) 
56

>  <ligand_id>  (57) 
56

>  <original_smiles>  (57) 
[H]c1nc(C2([H])C([H])([H])C([H])([H])C([H])(C([H])([H])[H])C([H])([H])[N+]2([H])C([H])([H])C(=O)C([H])([H])Oc2c([H])c([H])c3c(c2[H])C([H])([H])N(C(=O)C([H])(N([H])C(=O)C([H])(N([H])C([H])([H])[H])C([H])([H])[H])C(C([H])([H])[H])(C([H])([H])[H])C([H])([H])[H])C([H])(C(=O)N([H])C2([H])c4c([H])c([H])c([H])c([H])c4C([H])([H])C([H])([H])C2([H])[H])C3([H])[H])nc(N([H])C(=O)N2C([H])([H])C([H])([H])C([H])([H])C([H])(n3nc(-c4c([H])c([H])c(Oc5c([H])c([H])c(F)c([H])c5F)c([H])c4[H])c(C(=O)N([H])[H])c3N([H])[H])C2([H])[H])c1[H]

>  <smiles>  (57) 
[H]c1nc(C2([H])C([H])([H])C([H])([H])C([H])(C([H])([H])[H])C([H])([H])[N+]2([H])C([H])([H])C(=O)C([H])([H])Oc2c([H])c([H])c3c(c2[H])C([H])([H])N(C(=O)C([H])(N([H])C(=O)C([H])(N([H])C([H])([H])[H])C([H])([H])[H])C(C([H])([H])[H])(C([H])([H])[H])C([H])([H])[H])C([H])(C(=O)N([H])C2([H])c4c([H])c([H])c([H])c([H])c4C([H])([H])C([H])([H])C2([H])[H])C3([H])[H])nc(N([H])C(=O)N2C([H])([H])C([H])([H])C([H])([H])C([H])(n3nc(-c4c([H])c([H])c(Oc5c([H])c([H])c(F)c([H])c5F)c([H])c4[H])c(C(=O)N([H])[H])c3N([H])[H])C2([H])[H])c1[H]

$$$$
57:0:0
     RDKit          3D

 98106  0  0  1  0  0  0  0  0999 V2000
  -29.2580  -20.6520   20.8890 C   0  0  0  0  0  0  0  0  0  0  0  0
  -29.5460  -21.9550   20.6250 N   0  0  0  0  0  0  0  0  0  0  0  0
  -28.0760  -20.3950   21.4530 N   0  0  0  0  0  4  0  0  0  0  0  0
  -30.3580  -22.1500   20.0490 H   0  0  0  0  0  0  0  0  0  0  0  0
  -27.7980  -19.4310   21.5740 H   0  0  0  0  0  0  0  0  0  0  0  0
  -27.4200  -21.1280   21.6580 H   0  0  0  0  0  0  0  0  0  0  0  0
  -31.6000  -19.8570   20.6460 C   0  0  0  0  0  3  0  0  0  0  0  0
  -32.1720  -17.4890   20.5000 C   0  0  0  0  0  3  0  0  0  0  0  0
  -30.2240  -19.5450   20.6750 C   0  0  0  0  0  0  0  0  0  0  0  0
  -30.8010  -17.1310   20.5110 C   0  0  0  0  0  0  0  0  0  0  0  0
  -32.5640  -18.8390   20.5600 C   0  0  0  0  0  0  0  0  0  0  0  0
  -29.8340  -18.1700   20.6040 C   0  0  0  0  0  0  0  0  0  0  0  0
  -33.8800  -19.1610   20.5560 F   0  0  0  0  0  0  0  0  0  0  0  0
  -28.5230  -17.8220   20.6630 F   0  0  0  0  0  0  0  0  0  0  0  0
  -31.0000  -14.6930   19.9570 C   0  0  0  0  0  0  0  0  0  0  0  0
  -30.6370  -12.4740   18.9380 C   0  0  0  0  0  2  0  0  0  0  0  0
  -29.6360  -12.6050   17.7730 C   0  0  0  0  0  2  0  0  0  0  0  0
  -28.1890  -12.4730   18.2870 C   0  0  0  0  0  2  0  0  0  0  0  0
  -27.9070  -13.3740   19.5200 C   0  0  0  0  0  3  0  0  0  0  0  0
  -29.0230  -13.2410   20.5820 C   0  0  0  0  0  2  0  0  0  0  0  0
  -30.3100  -13.5190   19.9250 N   0  0  0  0  0  0  0  0  0  0  0  0
  -32.0940  -14.8170   19.4030 O   0  0  0  0  0  0  0  0  0  0  0  0
  -30.3580  -15.7590   20.4860 N   0  0  0  0  0  0  0  0  0  0  0  0
  -29.4100  -15.5960   20.7880 H   0  0  0  0  0  0  0  0  0  0  0  0
  -25.5800  -14.0000   20.4210 C   0  0  0  0  0  0  0  0  0  0  0  0
  -24.5220  -13.2360   20.8340 C   0  0  0  0  0  0  0  0  0  0  0  0
  -24.9480  -11.8770   20.7200 C   0  0  0  0  0  0  0  0  0  0  0  0
  -26.5860  -13.1080   20.0850 N   0  0  0  0  0  0  0  0  0  0  0  0
  -26.2130  -11.8240   20.3220 N   0  0  0  0  0  0  0  0  0  0  0  0
  -24.2050  -10.6240   20.9140 C   0  0  0  0  0  0  0  0  0  0  0  0
  -24.6100   -9.6660   21.8690 C   0  0  0  0  0  3  0  0  0  0  0  0
  -23.8700   -8.4780   22.0490 C   0  0  0  0  0  3  0  0  0  0  0  0
  -22.7100   -8.2400   21.2750 C   0  0  0  0  0  0  0  0  0  0  0  0
  -22.3240   -9.1870   20.3100 C   0  0  0  0  0  3  0  0  0  0  0  0
  -23.0660  -10.3660   20.1270 C   0  0  0  0  0  3  0  0  0  0  0  0
  -21.9430   -7.1030   21.3630 O   0  0  0  0  0  0  0  0  0  0  0  0
  -21.7880   -6.4310   22.5480 C   0  0  0  0  0  0  0  0  0  0  0  0
  -21.2100   -7.0440   23.6820 C   0  0  0  0  0  3  0  0  0  0  0  0
  -21.0050   -6.2950   24.8590 C   0  0  0  0  0  3  0  0  0  0  0  0
  -21.3650   -4.9360   24.9000 C   0  0  0  0  0  0  0  0  0  0  0  0
  -21.9350   -4.3220   23.7700 C   0  0  0  0  0  3  0  0  0  0  0  0
  -22.1420   -5.0680   22.5970 C   0  0  0  0  0  0  0  0  0  0  0  0
  -22.6710   -4.4660   21.5040 F   0  0  0  0  0  0  0  0  0  0  0  0
  -21.1610   -4.2140   26.0280 F   0  0  0  0  0  0  0  0  0  0  0  0
  -23.1590  -13.7330   21.2220 C   0  0  0  0  0  0  0  0  0  0  0  0
  -22.4750  -13.0190   22.1080 N   0  0  0  0  0  0  0  0  0  0  0  0
  -22.7120  -14.7890   20.7740 O   0  0  0  0  0  0  0  0  0  0  0  0
  -22.8500  -12.1630   22.4910 H   0  0  0  0  0  0  0  0  0  0  0  0
  -21.5630  -13.3320   22.4080 H   0  0  0  0  0  0  0  0  0  0  0  0
  -25.7650  -15.3730   20.2850 N   0  0  0  0  0  0  0  0  0  0  0  0
  -25.0230  -16.0370   20.4770 H   0  0  0  0  0  0  0  0  0  0  0  0
  -26.6050  -15.8130   19.9330 H   0  0  0  0  0  0  0  0  0  0  0  0
  -29.0910  -23.4620   22.5710 C   0  0  0  0  0  1  0  0  0  0  0  0
  -28.7930  -23.1660   21.0800 C   0  0  0  0  0  3  0  0  0  0  0  0
  -29.0700  -24.4330   20.2140 C   0  0  0  0  0  0  0  0  0  0  0  0
  -29.8250  -24.4130   19.2380 O   0  0  0  0  0  0  0  0  0  0  0  0
  -28.3550  -25.7360   20.6580 C   0  0  0  0  0  2  0  0  0  0  0  0
  -28.4540  -26.8390   19.7290 O   0  0  0  0  0  0  0  0  0  0  0  0
  -24.6390  -31.8250   23.1170 C   0  0  0  0  0  0  0  0  0  0  0  0
  -27.3130  -27.6110   19.7510 C   0  0  0  0  0  0  0  0  0  0  0  0
  -23.4290  -30.4800   21.4300 C   0  0  0  0  0  3  0  0  0  0  0  0
  -24.8880  -29.0600   19.8900 C   0  0  0  0  0  0  0  0  0  0  0  0
  -25.9420  -30.9130   21.1930 C   0  0  0  0  0  2  0  0  0  0  0  0
  -26.0480  -29.5810   20.4790 C   0  0  0  0  0  0  0  0  0  0  0  0
  -27.2680  -28.8650   20.4050 C   0  0  0  0  0  3  0  0  0  0  0  0
  -26.1400  -27.1110   19.1480 C   0  0  0  0  0  3  0  0  0  0  0  0
  -24.9300  -27.8250   19.2200 C   0  0  0  0  0  3  0  0  0  0  0  0
  -23.6230  -29.8800   20.0130 C   0  0  0  0  0  2  0  0  0  0  0  0
  -24.6900  -31.0850   21.9730 N   0  0  0  0  0  0  0  0  0  0  0  0
  -23.5650  -32.0400   23.6950 O   0  0  0  0  0  0  0  0  0  0  0  0
  -22.8260  -29.3930   22.3490 C   0  0  0  0  0  0  0  0  0  0  0  0
  -21.5030  -29.1860   22.2450 N   0  0  0  0  0  0  0  0  0  0  0  0
  -23.5440  -28.7420   23.1140 O   0  0  0  0  0  0  0  0  0  0  0  0
  -20.9830  -29.7670   21.6010 H   0  0  0  0  0  0  0  0  0  0  0  0
  -18.1690  -27.8890   22.7590 C   0  0  0  0  0  0  0  0  0  0  0  0
  -20.7270  -28.1900   22.9830 C   0  0  0  0  0  3  0  0  0  0  0  0
  -20.8460  -26.7950   22.3270 C   0  0  0  0  0  2  0  0  0  0  0  0
  -19.7250  -26.5030   21.3230 C   0  0  0  0  0  2  0  0  0  0  0  0
  -18.3580  -26.5820   22.0070 C   0  0  0  0  0  2  0  0  0  0  0  0
  -19.2820  -28.6510   23.2030 C   0  0  0  0  0  0  0  0  0  0  0  0
  -19.0510  -29.8770   23.8670 C   0  0  0  0  0  3  0  0  0  0  0  0
  -17.7410  -30.3380   24.0910 C   0  0  0  0  0  3  0  0  0  0  0  0
  -16.6430  -29.5720   23.6630 C   0  0  0  0  0  3  0  0  0  0  0  0
  -16.8580  -28.3490   23.0030 C   0  0  0  0  0  3  0  0  0  0  0  0
  -25.9240  -32.4550   23.7400 C   0  0  0  0  0  3  0  0  0  0  0  0
  -26.4660  -31.6550   24.9880 C   0  0  1  0  0  0  0  0  0  0  0  0
  -25.3900  -31.3700   26.0600 C   0  0  0  0  0  1  0  0  0  0  0  0
  -27.0640  -30.2980   24.5460 C   0  0  0  0  0  1  0  0  0  0  0  0
  -27.6140  -32.4470   25.6590 C   0  0  0  0  0  1  0  0  0  0  0  0
  -25.6020  -33.8400   24.1100 N   0  0  0  0  0  0  0  0  0  0  0  0
  -25.9230  -34.9150   23.3790 C   0  0  0  0  0  0  0  0  0  0  0  0
  -26.5930  -34.8460   22.3440 O   0  0  0  0  0  0  0  0  0  0  0  0
  -25.0080  -33.9670   24.9160 H   0  0  0  0  0  0  0  0  0  0  0  0
  -24.1840  -36.7050   23.0660 C   0  0  0  0  0  1  0  0  0  0  0  0
  -25.4230  -36.2860   23.8740 C   0  0  0  0  0  3  0  0  0  0  0  0
  -27.5400  -37.1650   24.7540 C   0  0  0  0  0  1  0  0  0  0  0  0
  -26.4480  -37.3490   23.8000 N   0  0  0  0  0  0  0  0  0  0  0  0
  -26.0330  -38.2620   23.9660 H   0  0  0  0  0  0  0  0  0  0  0  0
  1  3  2  0
  2  1  1  0
  2 54  1  0
  3  5  1  0
  3  6  1  0
  4  2  1  0
  7  9  1  0
  8 10  2  0
  8 11  1  0
  9  1  1  0
 10 12  1  0
 11  7  2  0
 12 14  1  0
 12  9  2  0
 13 11  1  0
 15 23  1  0
 16 21  1  0
 17 18  1  0
 17 16  1  0
 19 18  1  0
 19 28  1  0
 19 20  1  0
 21 15  1  0
 21 20  1  0
 22 15  2  0
 23 10  1  0
 23 24  1  0
 25 26  2  0
 26 45  1  0
 27 26  1  0
 27 30  1  0
 28 29  1  0
 28 25  1  0
 29 27  2  0
 30 31  1  0
 31 32  2  0
 33 36  1  0
 33 32  1  0
 34 33  2  0
 35 34  1  0
 35 30  2  0
 36 37  1  0
 37 42  2  0
 37 38  1  0
 38 39  2  0
 39 40  1  0
 40 44  1  0
 41 40  2  0
 42 41  1  0
 43 42  1  0
 45 46  1  0
 46 49  1  0
 46 48  1  0
 47 45  2  0
 50 25  1  0
 50 51  1  0
 52 50  1  0
 54 53  1  0
 55 57  1  0
 55 54  1  0
 56 55  2  0
 58 60  1  0
 58 57  1  0
 59 70  2  0
 60 65  1  0
 61 69  1  0
 61 71  1  0
 62 68  1  0
 62 64  1  0
 63 69  1  0
 64 63  1  0
 65 64  2  0
 66 67  1  0
 66 60  2  0
 67 62  2  0
 68 61  1  0
 69 59  1  0
 71 73  2  0
 72 71  1  0
 74 72  1  0
 75 84  2  0
 75 80  1  0
 76 72  1  0
 76 80  1  0
 77 76  1  0
 78 79  1  0
 78 77  1  0
 79 75  1  0
 80 81  2  0
 81 82  1  0
 83 82  2  0
 84 83  1  0
 85 59  1  0
 85 90  1  0
 85 86  1  0
 86 89  1  1
 86 87  1  0
 88 86  1  0
 90 93  1  0
 91 95  1  0
 91 90  1  0
 92 91  2  0
 95 94  1  0
 97 95  1  0
 97 98  1  0
 97 96  1  0
M  ISO  4  15 100  23 100  57 101  58 101
M  END
>  <TORSDO>  (58) 
F 20

>  <SCORE>  (58) 
-13.530

>  <name>  (58) 
57

>  <ligand_id>  (58) 
57

>  <original_smiles>  (58) 
[H]c1c([H])c([H])c2c(c1[H])C([H])([H])C([H])([H])C([H])([H])C2([H])N([H])C(=O)C1([H])N(C(=O)C([H])(N([H])C(=O)C([H])(N([H])C([H])([H])[H])C([H])([H])[H])C(C([H])([H])[H])(C([H])([H])[H])C([H])([H])[H])C([H])([H])c2c([H])c(OC([H])([H])C(=O)C([H])(N([H])C(c3c([H])c(F)c([H])c(N([H])C(=O)N4C([H])([H])C([H])([H])C([H])([H])C([H])(n5nc(-c6c([H])c([H])c(Oc7c([H])c([H])c(F)c([H])c7F)c([H])c6[H])c(C(=O)N([H])[H])c5N([H])[H])C4([H])[H])c3F)=[N+]([H])[H])C([H])([H])[H])c([H])c([H])c2C1([H])[H]

>  <smiles>  (58) 
[H]c1c([H])c([H])c2c(c1[H])C([H])([H])C([H])([H])C([H])([H])C2([H])N([H])C(=O)C1([H])N(C(=O)C([H])(N([H])C(=O)C([H])(N([H])C([H])([H])[H])C([H])([H])[H])C(C([H])([H])[H])(C([H])([H])[H])C([H])([H])[H])C([H])([H])c2c([H])c(OC([H])([H])C(=O)C([H])(N([H])C(c3c([H])c(F)c([H])c(N([H])C(=O)N4C([H])([H])C([H])([H])C([H])([H])C([H])(n5nc(-c6c([H])c([H])c(Oc7c([H])c([H])c(F)c([H])c7F)c([H])c6[H])c(C(=O)N([H])[H])c5N([H])[H])C4([H])[H])c3F)=[N+]([H])[H])C([H])([H])[H])c([H])c([H])c2C1([H])[H]

$$$$
58:0:0
     RDKit          3D

 94102  0  0  1  0  0  0  0  0999 V2000
  -29.2180  -22.4140   20.0720 C   0  0  0  0  0  0  0  0  0  0  0  0
  -28.8480  -21.0940   20.3350 N   0  0  0  0  0  0  0  0  0  0  0  0
  -30.2780  -22.6460   19.4860 O   0  0  0  0  0  0  0  0  0  0  0  0
  -28.0780  -21.0050   20.9830 H   0  0  0  0  0  0  0  0  0  0  0  0
  -30.3570  -17.3470   18.6200 C   0  0  0  0  0  3  0  0  0  0  0  0
  -30.3310  -18.5520   17.8990 C   0  0  0  0  0  3  0  0  0  0  0  0
  -29.3710  -18.5200   20.5090 C   0  0  0  0  0  3  0  0  0  0  0  0
  -29.8650  -17.2640   19.9410 C   0  0  0  0  0  0  0  0  0  0  0  0
  -29.3750  -19.8010   19.7970 C   0  0  0  0  0  0  0  0  0  0  0  0
  -29.8340  -19.7450   18.4540 C   0  0  0  0  0  0  0  0  0  0  0  0
  -29.7500  -20.8190   17.6360 F   0  0  0  0  0  0  0  0  0  0  0  0
  -30.5460  -14.7720   20.2950 C   0  0  0  0  0  0  0  0  0  0  0  0
  -30.3320  -12.4910   19.3120 C   0  0  0  0  0  2  0  0  0  0  0  0
  -29.3900  -12.5850   18.0920 C   0  0  0  0  0  2  0  0  0  0  0  0
  -27.9210  -12.4220   18.5280 C   0  0  0  0  0  2  0  0  0  0  0  0
  -27.5630  -13.3020   19.7550 C   0  0  0  0  0  3  0  0  0  0  0  0
  -28.6280  -13.2000   20.8700 C   0  0  0  0  0  2  0  0  0  0  0  0
  -29.9230  -13.5450   20.2730 N   0  0  0  0  0  0  0  0  0  0  0  0
  -31.7220  -14.8610   19.9280 O   0  0  0  0  0  0  0  0  0  0  0  0
  -29.7950  -15.9130   20.5690 N   0  0  0  0  0  0  0  0  0  0  0  0
  -28.9560  -15.7360   21.0990 H   0  0  0  0  0  0  0  0  0  0  0  0
  -25.1800  -13.8940   20.4980 C   0  0  0  0  0  0  0  0  0  0  0  0
  -24.1160  -13.1210   20.8750 C   0  0  0  0  0  0  0  0  0  0  0  0
  -24.5760  -11.7690   20.8410 C   0  0  0  0  0  0  0  0  0  0  0  0
  -26.2210  -13.0130   20.2550 N   0  0  0  0  0  0  0  0  0  0  0  0
  -25.8660  -11.7300   20.5220 N   0  0  0  0  0  0  0  0  0  0  0  0
  -23.8490  -10.5080   21.0350 C   0  0  0  0  0  0  0  0  0  0  0  0
  -24.2850   -9.5380   21.9640 C   0  0  0  0  0  3  0  0  0  0  0  0
  -23.5570   -8.3430   22.1480 C   0  0  0  0  0  3  0  0  0  0  0  0
  -22.3790   -8.1060   21.4000 C   0  0  0  0  0  0  0  0  0  0  0  0
  -21.9620   -9.0640   20.4580 C   0  0  0  0  0  3  0  0  0  0  0  0
  -22.6910  -10.2510   20.2740 C   0  0  0  0  0  3  0  0  0  0  0  0
  -21.6240   -6.9630   21.4920 O   0  0  0  0  0  0  0  0  0  0  0  0
  -21.5780   -6.2200   22.6440 C   0  0  0  0  0  0  0  0  0  0  0  0
  -21.1500   -6.7750   23.8700 C   0  0  0  0  0  3  0  0  0  0  0  0
  -21.0520   -5.9580   25.0150 C   0  0  0  0  0  3  0  0  0  0  0  0
  -21.3720   -4.5900   24.9350 C   0  0  0  0  0  0  0  0  0  0  0  0
  -21.7930   -4.0350   23.7140 C   0  0  0  0  0  3  0  0  0  0  0  0
  -21.8920   -4.8480   22.5710 C   0  0  0  0  0  0  0  0  0  0  0  0
  -22.2780   -4.3040   21.3920 F   0  0  0  0  0  0  0  0  0  0  0  0
  -21.2700   -3.8040   26.0330 F   0  0  0  0  0  0  0  0  0  0  0  0
  -22.7220  -13.6010   21.1560 C   0  0  0  0  0  0  0  0  0  0  0  0
  -21.9960  -12.9040   22.0230 N   0  0  0  0  0  0  0  0  0  0  0  0
  -22.2830  -14.6280   20.6390 O   0  0  0  0  0  0  0  0  0  0  0  0
  -22.3640  -12.0740   22.4640 H   0  0  0  0  0  0  0  0  0  0  0  0
  -21.0600  -13.2060   22.2520 H   0  0  0  0  0  0  0  0  0  0  0  0
  -25.3440  -15.2650   20.3210 N   0  0  0  0  0  0  0  0  0  0  0  0
  -24.5790  -15.9190   20.4390 H   0  0  0  0  0  0  0  0  0  0  0  0
  -26.1880  -15.7030   19.9740 H   0  0  0  0  0  0  0  0  0  0  0  0
  -28.9720  -24.0180   22.0070 C   0  0  0  0  0  1  0  0  0  0  0  0
  -26.9100  -23.3400   20.7520 C   0  0  0  0  0  1  0  0  0  0  0  0
  -28.4010  -23.7060   20.6090 C   0  0  2  0  0  0  0  0  0  0  0  0
  -28.5010  -25.0770   19.7220 C   0  0  0  0  0  2  0  0  0  0  0  0
  -28.3690  -26.4690   20.2860 O   0  0  0  0  0  0  0  0  0  0  0  0
  -24.5850  -31.8820   23.2350 C   0  0  0  0  0  0  0  0  0  0  0  0
  -27.2300  -27.3000   20.1920 C   0  0  0  0  0  0  0  0  0  0  0  0
  -23.3950  -30.4810   21.5860 C   0  0  0  0  0  3  0  0  0  0  0  0
  -24.8570  -28.9280   20.1630 C   0  0  0  0  0  0  0  0  0  0  0  0
  -25.9360  -30.7990   21.4160 C   0  0  0  0  0  2  0  0  0  0  0  0
  -26.0220  -29.4170   20.7680 C   0  0  0  0  0  0  0  0  0  0  0  0
  -27.2040  -28.6130   20.7730 C   0  0  0  0  0  3  0  0  0  0  0  0
  -26.0400  -26.8690   19.5670 C   0  0  0  0  0  3  0  0  0  0  0  0
  -24.8720  -27.6620   19.5520 C   0  0  0  0  0  3  0  0  0  0  0  0
  -23.6190  -29.8030   20.2060 C   0  0  0  0  0  2  0  0  0  0  0  0
  -24.6570  -31.0730   22.1350 N   0  0  0  0  0  0  0  0  0  0  0  0
  -23.4980  -32.1550   23.7650 O   0  0  0  0  0  0  0  0  0  0  0  0
  -22.7290  -29.4650   22.5450 C   0  0  0  0  0  0  0  0  0  0  0  0
  -21.4030  -29.2880   22.4150 N   0  0  0  0  0  0  0  0  0  0  0  0
  -23.4040  -28.8380   23.3630 O   0  0  0  0  0  0  0  0  0  0  0  0
  -20.9160  -29.8440   21.7260 H   0  0  0  0  0  0  0  0  0  0  0  0
  -18.0210  -28.0990   22.9160 C   0  0  0  0  0  0  0  0  0  0  0  0
  -20.5820  -28.3480   23.1810 C   0  0  0  0  0  3  0  0  0  0  0  0
  -20.6780  -26.9210   22.5930 C   0  0  0  0  0  2  0  0  0  0  0  0
  -19.5720  -26.6100   21.5790 C   0  0  0  0  0  2  0  0  0  0  0  0
  -18.1930  -26.7540   22.2290 C   0  0  0  0  0  2  0  0  0  0  0  0
  -19.1450  -28.8530   23.3490 C   0  0  0  0  0  0  0  0  0  0  0  0
  -18.9310  -30.1120   23.9530 C   0  0  0  0  0  3  0  0  0  0  0  0
  -17.6300  -30.6160   24.1270 C   0  0  0  0  0  3  0  0  0  0  0  0
  -16.5210  -29.8590   23.7100 C   0  0  0  0  0  3  0  0  0  0  0  0
  -16.7180  -28.6010   23.1110 C   0  0  0  0  0  3  0  0  0  0  0  0
  -25.8610  -32.5190   23.8650 C   0  0  0  0  0  3  0  0  0  0  0  0
  -26.3660  -31.7540   25.1500 C   0  0  1  0  0  0  0  0  0  0  0  0
  -25.2640  -31.5220   26.2110 C   0  0  0  0  0  1  0  0  0  0  0  0
  -26.9510  -30.3750   24.7710 C   0  0  0  0  0  1  0  0  0  0  0  0
  -27.5110  -32.5510   25.8190 C   0  0  0  0  0  1  0  0  0  0  0  0
  -25.5460  -33.9180   24.1900 N   0  0  0  0  0  0  0  0  0  0  0  0
  -25.8800  -34.9720   23.4320 C   0  0  0  0  0  0  0  0  0  0  0  0
  -26.5520  -34.8670   22.4020 O   0  0  0  0  0  0  0  0  0  0  0  0
  -24.9480  -34.0730   24.9890 H   0  0  0  0  0  0  0  0  0  0  0  0
  -24.1480  -36.7610   23.0720 C   0  0  0  0  0  1  0  0  0  0  0  0
  -25.3890  -36.3610   23.8850 C   0  0  0  0  0  3  0  0  0  0  0  0
  -27.5200  -37.2550   24.7160 C   0  0  0  0  0  1  0  0  0  0  0  0
  -26.4210  -37.4150   23.7670 N   0  0  0  0  0  0  0  0  0  0  0  0
  -26.0130  -38.3360   23.9050 H   0  0  0  0  0  0  0  0  0  0  0  0
  1  2  1  0
  1 52  1  0
  2  4  1  0
  3  1  2  0
  5  8  1  0
  6 10  1  0
  6  5  2  0
  8  7  2  0
  8 20  1  0
  9  2  1  0
  9  7  1  0
 10  9  2  0
 11 10  1  0
 12 20  1  0
 13 18  1  0
 14 15  1  0
 14 13  1  0
 16 15  1  0
 16 25  1  0
 16 17  1  0
 18 12  1  0
 18 17  1  0
 19 12  2  0
 20 21  1  0
 22 23  2  0
 23 42  1  0
 24 23  1  0
 24 27  1  0
 25 22  1  0
 25 26  1  0
 26 24  2  0
 27 28  1  0
 28 29  2  0
 30 33  1  0
 30 29  1  0
 31 30  2  0
 32 31  1  0
 32 27  2  0
 33 34  1  0
 34 35  1  0
 35 36  2  0
 37 36  1  0
 37 41  1  0
 38 37  2  0
 39 34  2  0
 39 38  1  0
 40 39  1  0
 42 43  1  0
 43 46  1  0
 43 45  1  0
 44 42  2  0
 47 48  1  0
 47 22  1  0
 49 47  1  0
 52 51  1  1
 52 50  1  0
 53 54  1  0
 53 52  1  0
 55 66  2  0
 56 54  1  0
 56 61  1  0
 57 65  1  0
 57 67  1  0
 58 64  1  0
 58 60  1  0
 59 65  1  0
 60 61  2  0
 60 59  1  0
 62 56  2  0
 63 62  1  0
 63 58  2  0
 64 57  1  0
 65 55  1  0
 67 69  2  0
 68 67  1  0
 70 68  1  0
 71 80  2  0
 71 76  1  0
 72 68  1  0
 72 76  1  0
 73 72  1  0
 74 75  1  0
 74 73  1  0
 75 71  1  0
 76 77  2  0
 77 78  1  0
 79 78  2  0
 80 79  1  0
 81 55  1  0
 81 86  1  0
 81 82  1  0
 82 85  1  1
 82 83  1  0
 84 82  1  0
 86 89  1  0
 87 91  1  0
 87 86  1  0
 88 87  2  0
 91 90  1  0
 93 91  1  0
 93 94  1  0
 93 92  1  0
M  ISO  4  12 100  20 100  53 101  54 101
M  END
>  <TORSDO>  (59) 
F 19

>  <SCORE>  (59) 
-14.460

>  <name>  (59) 
58

>  <ligand_id>  (59) 
58

>  <original_smiles>  (59) 
[H]c1c([H])c([H])c2c(c1[H])C([H])([H])C([H])([H])C([H])([H])C2([H])N([H])C(=O)C1([H])N(C(=O)C([H])(N([H])C(=O)C([H])(N([H])C([H])([H])[H])C([H])([H])[H])C(C([H])([H])[H])(C([H])([H])[H])C([H])([H])[H])C([H])([H])c2c([H])c(OC([H])([H])C(C(=O)N([H])c3c([H])c(N([H])C(=O)N4C([H])([H])C([H])([H])C([H])([H])C([H])(n5nc(-c6c([H])c([H])c(Oc7c([H])c([H])c(F)c([H])c7F)c([H])c6[H])c(C(=O)N([H])[H])c5N([H])[H])C4([H])[H])c([H])c([H])c3F)(C([H])([H])[H])C([H])([H])[H])c([H])c([H])c2C1([H])[H]

>  <smiles>  (59) 
[H]c1c([H])c([H])c2c(c1[H])C([H])([H])C([H])([H])C([H])([H])C2([H])N([H])C(=O)C1([H])N(C(=O)C([H])(N([H])C(=O)C([H])(N([H])C([H])([H])[H])C([H])([H])[H])C(C([H])([H])[H])(C([H])([H])[H])C([H])([H])[H])C([H])([H])c2c([H])c(OC([H])([H])C(C(=O)N([H])c3c([H])c(N([H])C(=O)N4C([H])([H])C([H])([H])C([H])([H])C([H])(n5nc(-c6c([H])c([H])c(Oc7c([H])c([H])c(F)c([H])c7F)c([H])c6[H])c(C(=O)N([H])[H])c5N([H])[H])C4([H])[H])c([H])c([H])c3F)(C([H])([H])[H])C([H])([H])[H])c([H])c([H])c2C1([H])[H]

$$$$
59:0:0
     RDKit          3D

 92100  0  0  1  0  0  0  0  0999 V2000
  -28.6810  -23.7620   20.0000 C   0  0  0  0  0  0  0  0  0  0  0  0
  -28.8900  -22.5490   20.6590 N   0  0  0  0  0  0  0  0  0  0  0  0
  -28.7790  -23.8330   18.7720 O   0  0  0  0  0  0  0  0  0  0  0  0
  -28.8790  -22.6480   21.6640 H   0  0  0  0  0  0  0  0  0  0  0  0
  -28.7350  -20.6180   18.9780 C   0  0  0  0  0  3  0  0  0  0  0  0
  -29.6890  -20.0110   20.9050 C   0  0  0  0  0  0  0  0  0  0  0  0
  -29.0970  -21.1450   20.1860 C   0  0  0  0  0  0  0  0  0  0  0  0
  -29.6330  -18.8620   20.0920 C   0  0  0  0  0  0  0  0  0  0  0  0
  -29.0600  -19.2740   18.9100 O   0  0  0  0  0  0  0  0  0  0  0  0
  -30.2370  -17.4800   20.0690 C   0  0  0  0  0  3  0  0  0  0  0  0
  -29.8050  -16.1650   20.2490 C   0  0  0  0  0  3  0  0  0  0  0  0
  -30.6400  -14.9150   19.9990 C   0  0  0  0  0  0  0  0  0  0  0  0
  -30.3890  -12.6610   18.9370 C   0  0  0  0  0  2  0  0  0  0  0  0
  -29.3740  -12.7730   17.7760 C   0  0  0  0  0  2  0  0  0  0  0  0
  -27.9360  -12.5680   18.2880 C   0  0  0  0  0  2  0  0  0  0  0  0
  -27.6340  -13.4040   19.5590 C   0  0  0  0  0  3  0  0  0  0  0  0
  -28.7640  -13.2900   20.6040 C   0  0  0  0  0  2  0  0  0  0  0  0
  -30.0190  -13.6790   19.9510 N   0  0  0  0  0  0  0  0  0  0  0  0
  -31.8180  -14.9850   19.6350 O   0  0  0  0  0  0  0  0  0  0  0  0
  -25.3010  -13.9470   20.4710 C   0  0  0  0  0  0  0  0  0  0  0  0
  -24.2660  -13.1520   20.8810 C   0  0  0  0  0  0  0  0  0  0  0  0
  -24.7330  -11.8070   20.7690 C   0  0  0  0  0  0  0  0  0  0  0  0
  -26.3300  -13.0850   20.1300 N   0  0  0  0  0  0  0  0  0  0  0  0
  -26.0000  -11.7900   20.3740 N   0  0  0  0  0  0  0  0  0  0  0  0
  -24.0270  -10.5320   20.9580 C   0  0  0  0  0  0  0  0  0  0  0  0
  -24.4890   -9.5590   21.8710 C   0  0  0  0  0  3  0  0  0  0  0  0
  -23.7800   -8.3510   22.0480 C   0  0  0  0  0  3  0  0  0  0  0  0
  -22.5950   -8.1080   21.3140 C   0  0  0  0  0  0  0  0  0  0  0  0
  -22.1530   -9.0700   20.3900 C   0  0  0  0  0  3  0  0  0  0  0  0
  -22.8620  -10.2700   20.2110 C   0  0  0  0  0  3  0  0  0  0  0  0
  -21.8570   -6.9530   21.4020 O   0  0  0  0  0  0  0  0  0  0  0  0
  -21.7890   -6.2280   22.5650 C   0  0  0  0  0  0  0  0  0  0  0  0
  -21.3040   -6.7900   23.7660 C   0  0  0  0  0  3  0  0  0  0  0  0
  -21.1860   -5.9900   24.9200 C   0  0  0  0  0  3  0  0  0  0  0  0
  -21.5450   -4.6300   24.8750 C   0  0  0  0  0  0  0  0  0  0  0  0
  -22.0240   -4.0670   23.6790 C   0  0  0  0  0  3  0  0  0  0  0  0
  -22.1430   -4.8640   22.5270 C   0  0  0  0  0  0  0  0  0  0  0  0
  -22.5860   -4.3130   21.3710 F   0  0  0  0  0  0  0  0  0  0  0  0
  -21.4250   -3.8600   25.9810 F   0  0  0  0  0  0  0  0  0  0  0  0
  -22.8870  -13.6090   21.2580 C   0  0  0  0  0  0  0  0  0  0  0  0
  -22.2200  -12.8770   22.1440 N   0  0  0  0  0  0  0  0  0  0  0  0
  -22.4120  -14.6490   20.8050 O   0  0  0  0  0  0  0  0  0  0  0  0
  -22.6190  -12.0360   22.5320 H   0  0  0  0  0  0  0  0  0  0  0  0
  -21.2980  -13.1640   22.4390 H   0  0  0  0  0  0  0  0  0  0  0  0
  -25.4460  -15.3240   20.3360 N   0  0  0  0  0  0  0  0  0  0  0  0
  -24.6820  -15.9660   20.5200 H   0  0  0  0  0  0  0  0  0  0  0  0
  -26.2650  -15.7830   19.9570 H   0  0  0  0  0  0  0  0  0  0  0  0
  -31.6240  -20.8320   22.3060 C   0  0  0  0  0  1  0  0  0  0  0  0
  -30.2920  -20.0720   22.2850 C   0  0  0  0  0  2  0  0  0  0  0  0
  -29.0290  -25.1880   22.1510 C   0  0  0  0  0  1  0  0  0  0  0  0
  -28.2780  -25.1060   20.8130 C   0  0  0  0  0  3  0  0  0  0  0  0
  -28.4520  -26.4630   20.1640 O   0  0  0  0  0  0  0  0  0  0  0  0
  -24.6900  -31.9200   23.2140 C   0  0  0  0  0  0  0  0  0  0  0  0
  -27.3540  -27.3560   20.1620 C   0  0  0  0  0  0  0  0  0  0  0  0
  -23.5080  -30.5130   21.5680 C   0  0  0  0  0  3  0  0  0  0  0  0
  -24.9820  -28.9780   20.1400 C   0  0  0  0  0  0  0  0  0  0  0  0
  -26.0480  -30.8520   21.3930 C   0  0  0  0  0  2  0  0  0  0  0  0
  -26.1480  -29.4710   20.7420 C   0  0  0  0  0  0  0  0  0  0  0  0
  -27.3400  -28.6740   20.7370 C   0  0  0  0  0  3  0  0  0  0  0  0
  -26.1660  -26.9320   19.5310 C   0  0  0  0  0  3  0  0  0  0  0  0
  -24.9960  -27.7180   19.5220 C   0  0  0  0  0  3  0  0  0  0  0  0
  -23.7360  -29.8440   20.1870 C   0  0  0  0  0  2  0  0  0  0  0  0
  -24.7680  -31.1140   22.1140 N   0  0  0  0  0  0  0  0  0  0  0  0
  -23.6010  -32.1830   23.7480 O   0  0  0  0  0  0  0  0  0  0  0  0
  -22.8530  -29.4870   22.5250 C   0  0  0  0  0  0  0  0  0  0  0  0
  -21.5310  -29.2900   22.3900 N   0  0  0  0  0  0  0  0  0  0  0  0
  -23.5360  -28.8730   23.3480 O   0  0  0  0  0  0  0  0  0  0  0  0
  -21.0380  -29.8380   21.6990 H   0  0  0  0  0  0  0  0  0  0  0  0
  -18.1740  -28.0180   22.8560 C   0  0  0  0  0  0  0  0  0  0  0  0
  -20.7230  -28.3370   23.1550 C   0  0  0  0  0  3  0  0  0  0  0  0
  -20.8630  -26.9060   22.5880 C   0  0  0  0  0  2  0  0  0  0  0  0
  -19.7820  -26.5530   21.5620 C   0  0  0  0  0  2  0  0  0  0  0  0
  -18.3890  -26.6700   22.1900 C   0  0  0  0  0  2  0  0  0  0  0  0
  -19.2700  -28.8070   23.2960 C   0  0  0  0  0  0  0  0  0  0  0  0
  -19.0150  -30.0670   23.8810 C   0  0  0  0  0  3  0  0  0  0  0  0
  -17.6970  -30.5390   24.0300 C   0  0  0  0  0  3  0  0  0  0  0  0
  -16.6160  -29.7480   23.6060 C   0  0  0  0  0  3  0  0  0  0  0  0
  -16.8550  -28.4880   23.0260 C   0  0  0  0  0  3  0  0  0  0  0  0
  -25.9610  -32.5690   23.8430 C   0  0  0  0  0  3  0  0  0  0  0  0
  -26.4850  -31.8000   25.1180 C   0  0  1  0  0  0  0  0  0  0  0  0
  -25.3930  -31.5440   26.1830 C   0  0  0  0  0  1  0  0  0  0  0  0
  -27.0870  -30.4320   24.7240 C   0  0  0  0  0  1  0  0  0  0  0  0
  -27.6230  -32.6080   25.7850 C   0  0  0  0  0  1  0  0  0  0  0  0
  -25.6310  -33.9620   24.1810 N   0  0  0  0  0  0  0  0  0  0  0  0
  -25.9400  -35.0240   23.4250 C   0  0  0  0  0  0  0  0  0  0  0  0
  -26.6010  -34.9360   22.3880 O   0  0  0  0  0  0  0  0  0  0  0  0
  -25.0400  -34.1020   24.9860 H   0  0  0  0  0  0  0  0  0  0  0  0
  -24.1780  -36.7910   23.1010 C   0  0  0  0  0  1  0  0  0  0  0  0
  -25.4370  -36.4030   23.8940 C   0  0  0  0  0  3  0  0  0  0  0  0
  -27.5640  -37.3230   24.7040 C   0  0  0  0  0  1  0  0  0  0  0  0
  -26.4500  -37.4740   23.7720 N   0  0  0  0  0  0  0  0  0  0  0  0
  -26.0310  -38.3870   23.9240 H   0  0  0  0  0  0  0  0  0  0  0  0
  1  2  1  0
  1 51  1  0
  2  4  1  0
  3  1  2  0
  5  7  2  0
  6 49  1  0
  7  2  1  0
  7  6  1  0
  8  6  2  0
  9  5  1  0
  9  8  1  0
 10  8  1  0
 10 11  2  0
 12 11  1  0
 13 18  1  0
 14 15  1  0
 14 13  1  0
 16 15  1  0
 16 23  1  0
 16 17  1  0
 18 12  1  0
 18 17  1  0
 19 12  2  0
 20 21  2  0
 21 40  1  0
 22 21  1  0
 22 25  1  0
 23 24  1  0
 23 20  1  0
 24 22  2  0
 25 26  1  0
 26 27  2  0
 28 31  1  0
 28 27  1  0
 29 28  2  0
 30 29  1  0
 30 25  2  0
 31 32  1  0
 32 33  1  0
 33 34  2  0
 35 34  1  0
 35 39  1  0
 36 35  2  0
 37 32  2  0
 37 36  1  0
 38 37  1  0
 40 41  1  0
 41 44  1  0
 41 43  1  0
 42 40  2  0
 45 20  1  0
 45 46  1  0
 47 45  1  0
 49 48  1  0
 51 50  1  0
 52 51  1  0
 53 64  2  0
 54 52  1  0
 54 59  1  0
 55 63  1  0
 55 65  1  0
 56 62  1  0
 56 58  1  0
 57 63  1  0
 58 57  1  0
 59 58  2  0
 60 54  2  0
 61 60  1  0
 61 56  2  0
 62 55  1  0
 63 53  1  0
 65 67  2  0
 66 65  1  0
 68 66  1  0
 69 78  2  0
 69 74  1  0
 70 66  1  0
 70 74  1  0
 71 70  1  0
 72 73  1  0
 72 71  1  0
 73 69  1  0
 74 75  2  0
 75 76  1  0
 77 76  2  0
 78 77  1  0
 79 53  1  0
 79 84  1  0
 79 80  1  0
 80 83  1  1
 80 81  1  0
 82 80  1  0
 84 87  1  0
 85 89  1  0
 85 84  1  0
 86 85  2  0
 89 88  1  0
 91 89  1  0
 91 92  1  0
 91 90  1  0
M  ISO  4  11 100  12 100  51 101  52 101
M  END
>  <TORSDO>  (60) 
F 20

>  <SCORE>  (60) 
-13.711

>  <name>  (60) 
59

>  <ligand_id>  (60) 
59

>  <original_smiles>  (60) 
[H]C(C(=O)N1C([H])([H])C([H])([H])C([H])([H])C([H])(n2nc(-c3c([H])c([H])c(Oc4c([H])c([H])c(F)c([H])c4F)c([H])c3[H])c(C(=O)N([H])[H])c2N([H])[H])C1([H])[H])=C([H])c1oc([H])c(N([H])C(=O)C([H])(Oc2c([H])c([H])c3c(c2[H])C([H])([H])N(C(=O)C([H])(N([H])C(=O)C([H])(N([H])C([H])([H])[H])C([H])([H])[H])C(C([H])([H])[H])(C([H])([H])[H])C([H])([H])[H])C([H])(C(=O)N([H])C2([H])c4c([H])c([H])c([H])c([H])c4C([H])([H])C([H])([H])C2([H])[H])C3([H])[H])C([H])([H])[H])c1C([H])([H])C([H])([H])[H]

>  <smiles>  (60) 
[H]C(C(=O)N1C([H])([H])C([H])([H])C([H])([H])C([H])(n2nc(-c3c([H])c([H])c(Oc4c([H])c([H])c(F)c([H])c4F)c([H])c3[H])c(C(=O)N([H])[H])c2N([H])[H])C1([H])[H])=C([H])c1oc([H])c(N([H])C(=O)C([H])(Oc2c([H])c([H])c3c(c2[H])C([H])([H])N(C(=O)C([H])(N([H])C(=O)C([H])(N([H])C([H])([H])[H])C([H])([H])[H])C(C([H])([H])[H])(C([H])([H])[H])C([H])([H])[H])C([H])(C(=O)N([H])C2([H])c4c([H])c([H])c([H])c([H])c4C([H])([H])C([H])([H])C2([H])[H])C3([H])[H])C([H])([H])[H])c1C([H])([H])C([H])([H])[H]

$$$$
60:0:0
     RDKit          3D

 91 99  0  0  1  0  0  0  0  0999 V2000
  -28.9360  -21.5950   20.6860 N   0  0  0  0  0  0  0  0  0  0  0  0
  -29.0920  -21.8940   21.6460 H   0  0  0  0  0  0  0  0  0  0  0  0
  -29.2210  -18.2830   19.2450 C   0  0  0  0  0  3  0  0  0  0  0  0
  -28.8370  -19.6550   19.1040 C   0  0  0  0  0  3  0  0  0  0  0  0
  -29.7570  -18.1230   20.4980 C   0  0  0  0  0  0  0  0  0  0  0  0
  -29.1450  -20.2510   20.2960 C   0  0  0  0  0  0  0  0  0  0  0  0
  -29.7000  -19.3380   21.1600 O   0  0  0  0  0  0  0  0  0  0  0  0
  -30.4050  -16.9550   21.2400 C   0  0  0  0  0  2  0  0  0  0  0  0
  -30.6340  -14.5630   20.3890 C   0  0  0  0  0  0  0  0  0  0  0  0
  -30.3570  -12.3870   19.2390 C   0  0  0  0  0  2  0  0  0  0  0  0
  -29.3980  -12.5670   18.0430 C   0  0  0  0  0  2  0  0  0  0  0  0
  -27.9320  -12.4080   18.4910 C   0  0  0  0  0  2  0  0  0  0  0  0
  -27.5990  -13.2500   19.7510 C   0  0  0  0  0  3  0  0  0  0  0  0
  -28.6660  -13.0480   20.8480 C   0  0  0  0  0  2  0  0  0  0  0  0
  -29.9750  -13.3760   20.2620 N   0  0  0  0  0  0  0  0  0  0  0  0
  -31.7720  -14.7340   19.9410 O   0  0  0  0  0  0  0  0  0  0  0  0
  -29.9210  -15.5890   20.9150 N   0  0  0  0  0  0  0  0  0  0  0  0
  -28.9810  -15.3710   21.2060 H   0  0  0  0  0  0  0  0  0  0  0  0
  -25.2120  -13.8560   20.4870 C   0  0  0  0  0  0  0  0  0  0  0  0
  -24.1480  -13.0830   20.8690 C   0  0  0  0  0  0  0  0  0  0  0  0
  -24.6100  -11.7320   20.8350 C   0  0  0  0  0  0  0  0  0  0  0  0
  -26.2530  -12.9750   20.2450 N   0  0  0  0  0  0  0  0  0  0  0  0
  -25.8970  -11.6920   20.5150 N   0  0  0  0  0  0  0  0  0  0  0  0
  -23.8880  -10.4680   21.0330 C   0  0  0  0  0  0  0  0  0  0  0  0
  -24.3350   -9.4980   21.9580 C   0  0  0  0  0  3  0  0  0  0  0  0
  -23.6130   -8.3000   22.1440 C   0  0  0  0  0  3  0  0  0  0  0  0
  -22.4310   -8.0620   21.4050 C   0  0  0  0  0  0  0  0  0  0  0  0
  -22.0010   -9.0200   20.4690 C   0  0  0  0  0  3  0  0  0  0  0  0
  -22.7230  -10.2100   20.2820 C   0  0  0  0  0  3  0  0  0  0  0  0
  -21.6790   -6.9160   21.4990 O   0  0  0  0  0  0  0  0  0  0  0  0
  -21.6520   -6.1650   22.6470 C   0  0  0  0  0  0  0  0  0  0  0  0
  -21.2450   -6.7100   23.8840 C   0  0  0  0  0  3  0  0  0  0  0  0
  -21.1660   -5.8870   25.0240 C   0  0  0  0  0  3  0  0  0  0  0  0
  -21.4840   -4.5190   24.9280 C   0  0  0  0  0  0  0  0  0  0  0  0
  -21.8840   -3.9730   23.6970 C   0  0  0  0  0  3  0  0  0  0  0  0
  -21.9650   -4.7940   22.5580 C   0  0  0  0  0  0  0  0  0  0  0  0
  -22.3310   -4.2580   21.3690 F   0  0  0  0  0  0  0  0  0  0  0  0
  -21.4010   -3.7250   26.0220 F   0  0  0  0  0  0  0  0  0  0  0  0
  -22.7530  -13.5590   21.1540 C   0  0  0  0  0  0  0  0  0  0  0  0
  -22.0310  -12.8620   22.0250 N   0  0  0  0  0  0  0  0  0  0  0  0
  -22.3100  -14.5840   20.6370 O   0  0  0  0  0  0  0  0  0  0  0  0
  -22.4020  -12.0330   22.4640 H   0  0  0  0  0  0  0  0  0  0  0  0
  -21.0960  -13.1630   22.2560 H   0  0  0  0  0  0  0  0  0  0  0  0
  -25.3750  -15.2260   20.3060 N   0  0  0  0  0  0  0  0  0  0  0  0
  -24.6120  -15.8820   20.4170 H   0  0  0  0  0  0  0  0  0  0  0  0
  -26.2160  -15.6560   19.9390 H   0  0  0  0  0  0  0  0  0  0  0  0
  -28.7160  -22.7120   19.7320 C   0  0  0  0  0  2  0  0  0  0  0  0
  -28.5130  -24.1210   20.3860 C   0  0  0  0  0  0  0  0  0  0  0  0
  -28.3440  -24.2100   21.6070 O   0  0  0  0  0  0  0  0  0  0  0  0
  -28.5590  -25.3980   19.4840 C   0  0  0  0  0  2  0  0  0  0  0  0
  -28.4140  -26.6620   20.2050 O   0  0  0  0  0  0  0  0  0  0  0  0
  -24.5760  -31.8910   23.2470 C   0  0  0  0  0  0  0  0  0  0  0  0
  -27.2320  -27.3950   20.1770 C   0  0  0  0  0  0  0  0  0  0  0  0
  -23.3790  -30.4820   21.6050 C   0  0  0  0  0  3  0  0  0  0  0  0
  -24.8370  -28.9350   20.1910 C   0  0  0  0  0  0  0  0  0  0  0  0
  -25.9110  -30.8300   21.4180 C   0  0  0  0  0  2  0  0  0  0  0  0
  -25.9980  -29.4530   20.7750 C   0  0  0  0  0  0  0  0  0  0  0  0
  -27.1950  -28.6920   20.7600 C   0  0  0  0  0  3  0  0  0  0  0  0
  -26.0390  -26.8990   19.6030 C   0  0  0  0  0  3  0  0  0  0  0  0
  -24.8540  -27.6580   19.6040 C   0  0  0  0  0  3  0  0  0  0  0  0
  -23.5930  -29.7970   20.2300 C   0  0  0  0  0  2  0  0  0  0  0  0
  -24.6410  -31.0830   22.1480 N   0  0  0  0  0  0  0  0  0  0  0  0
  -23.4910  -32.1630   23.7800 O   0  0  0  0  0  0  0  0  0  0  0  0
  -22.7210  -29.4660   22.5680 C   0  0  0  0  0  0  0  0  0  0  0  0
  -21.3980  -29.2820   22.4370 N   0  0  0  0  0  0  0  0  0  0  0  0
  -23.4020  -28.8420   23.3880 O   0  0  0  0  0  0  0  0  0  0  0  0
  -20.9080  -29.8350   21.7470 H   0  0  0  0  0  0  0  0  0  0  0  0
  -18.0210  -28.0900   22.9360 C   0  0  0  0  0  0  0  0  0  0  0  0
  -20.5790  -28.3450   23.2100 C   0  0  0  0  0  3  0  0  0  0  0  0
  -20.6810  -26.9140   22.6320 C   0  0  0  0  0  2  0  0  0  0  0  0
  -19.5790  -26.5950   21.6170 C   0  0  0  0  0  2  0  0  0  0  0  0
  -18.1960  -26.7410   22.2600 C   0  0  0  0  0  2  0  0  0  0  0  0
  -19.1410  -28.8490   23.3670 C   0  0  0  0  0  0  0  0  0  0  0  0
  -18.9240  -30.1110   23.9600 C   0  0  0  0  0  3  0  0  0  0  0  0
  -17.6200  -30.6160   24.1260 C   0  0  0  0  0  3  0  0  0  0  0  0
  -16.5140  -29.8530   23.7130 C   0  0  0  0  0  3  0  0  0  0  0  0
  -16.7160  -28.5910   23.1240 C   0  0  0  0  0  3  0  0  0  0  0  0
  -25.8570  -32.5260   23.8720 C   0  0  0  0  0  3  0  0  0  0  0  0
  -25.5470  -33.9260   24.1860 N   0  0  0  0  0  0  0  0  0  0  0  0
  -25.8890  -34.9720   23.4220 C   0  0  0  0  0  0  0  0  0  0  0  0
  -26.5680  -34.8580   22.3970 O   0  0  0  0  0  0  0  0  0  0  0  0
  -24.9470  -34.0900   24.9820 H   0  0  0  0  0  0  0  0  0  0  0  0
  -24.1680  -36.7650   23.0370 C   0  0  0  0  0  1  0  0  0  0  0  0
  -25.4000  -36.3650   23.8630 C   0  0  0  0  0  3  0  0  0  0  0  0
  -27.5270  -37.2520   24.7110 C   0  0  0  0  0  1  0  0  0  0  0  0
  -26.4360  -37.4150   23.7530 N   0  0  0  0  0  0  0  0  0  0  0  0
  -26.0310  -38.3380   23.8910 H   0  0  0  0  0  0  0  0  0  0  0  0
  -26.3640  -31.7660   25.1590 C   0  0  1  0  0  0  0  0  0  0  0  0
  -25.2620  -31.5450   26.2210 C   0  0  0  0  0  1  0  0  0  0  0  0
  -26.9470  -30.3840   24.7840 C   0  0  0  0  0  1  0  0  0  0  0  0
  -27.5120  -32.5660   25.8200 C   0  0  0  0  0  1  0  0  0  0  0  0
  1  2  1  0
  3  5  2  0
  4  3  1  0
  4  6  2  0
  5  7  1  0
  5  8  1  0
  6  1  1  0
  6  7  1  0
  9 17  1  0
 10 15  1  0
 11 12  1  0
 11 10  1  0
 13 12  1  0
 13 22  1  0
 13 14  1  0
 15  9  1  0
 15 14  1  0
 16  9  2  0
 17 18  1  0
 17  8  1  0
 19 20  2  0
 20 39  1  0
 21 20  1  0
 21 24  1  0
 22 19  1  0
 22 23  1  0
 23 21  2  0
 24 25  1  0
 25 26  2  0
 27 30  1  0
 27 26  1  0
 28 27  2  0
 29 28  1  0
 29 24  2  0
 30 31  1  0
 31 32  1  0
 32 33  2  0
 34 33  1  0
 34 38  1  0
 35 34  2  0
 36 31  2  0
 36 35  1  0
 37 36  1  0
 39 40  1  0
 40 43  1  0
 40 42  1  0
 41 39  2  0
 44 45  1  0
 44 19  1  0
 46 44  1  0
 47 48  1  0
 47  1  1  0
 48 49  2  0
 50 51  1  0
 50 48  1  0
 52 63  2  0
 53 51  1  0
 53 58  1  0
 54 62  1  0
 54 64  1  0
 55 61  1  0
 55 57  1  0
 56 62  1  0
 57 56  1  0
 58 57  2  0
 59 60  1  0
 59 53  2  0
 60 55  2  0
 61 54  1  0
 62 52  1  0
 64 66  2  0
 65 64  1  0
 67 65  1  0
 68 77  2  0
 68 73  1  0
 69 65  1  0
 69 73  1  0
 70 69  1  0
 71 72  1  0
 71 70  1  0
 72 68  1  0
 73 74  2  0
 74 75  1  0
 76 75  2  0
 77 76  1  0
 78 52  1  0
 78 79  1  0
 78 88  1  0
 79 82  1  0
 80 84  1  0
 80 79  1  0
 81 80  2  0
 84 83  1  0
 86 84  1  0
 86 87  1  0
 86 85  1  0
 88 91  1  1
 88 89  1  0
 90 88  1  0
M  ISO  4   9 100  17 100  50 101  51 101
M  END
>  <TORSDO>  (61) 
F 21

>  <SCORE>  (61) 
-13.563

>  <name>  (61) 
60

>  <ligand_id>  (61) 
60

>  <original_smiles>  (61) 
[H]c1c(N([H])C([H])([H])C(=O)C([H])([H])Oc2c([H])c([H])c3c(c2[H])C([H])([H])N(C(=O)C([H])(N([H])C(=O)C([H])(N([H])C([H])([H])[H])C([H])([H])[H])C(C([H])([H])[H])(C([H])([H])[H])C([H])([H])[H])C([H])(C(=O)N([H])C2([H])c4c([H])c([H])c([H])c([H])c4C([H])([H])C([H])([H])C2([H])[H])C3([H])[H])oc(C([H])([H])N([H])C(=O)N2C([H])([H])C([H])([H])C([H])([H])C([H])(n3nc(-c4c([H])c([H])c(Oc5c([H])c([H])c(F)c([H])c5F)c([H])c4[H])c(C(=O)N([H])[H])c3N([H])[H])C2([H])[H])c1[H]

>  <smiles>  (61) 
[H]c1c(N([H])C([H])([H])C(=O)C([H])([H])Oc2c([H])c([H])c3c(c2[H])C([H])([H])N(C(=O)C([H])(N([H])C(=O)C([H])(N([H])C([H])([H])[H])C([H])([H])[H])C(C([H])([H])[H])(C([H])([H])[H])C([H])([H])[H])C([H])(C(=O)N([H])C2([H])c4c([H])c([H])c([H])c([H])c4C([H])([H])C([H])([H])C2([H])[H])C3([H])[H])oc(C([H])([H])N([H])C(=O)N2C([H])([H])C([H])([H])C([H])([H])C([H])(n3nc(-c4c([H])c([H])c(Oc5c([H])c([H])c(F)c([H])c5F)c([H])c4[H])c(C(=O)N([H])[H])c3N([H])[H])C2([H])[H])c1[H]

$$$$
61:0:0
     RDKit          3D

 93101  0  0  1  0  0  0  0  0999 V2000
  -28.1830  -22.1840   19.5260 C   0  0  0  0  0  3  0  0  0  0  0  0
  -28.3430  -20.8060   19.2940 C   0  0  0  0  0  0  0  0  0  0  0  0
  -28.7090  -23.3530   20.4020 C   0  0  0  0  0  0  0  0  0  0  0  0
  -29.6170  -23.2270   21.2300 O   0  0  0  0  0  0  0  0  0  0  0  0
  -27.9910  -24.7890   20.1810 C   0  0  0  0  0  2  0  0  0  0  0  0
  -28.4080  -26.1040   20.8280 O   0  0  0  0  0  0  0  0  0  0  0  0
  -25.1330  -31.7270   24.1830 C   0  0  0  0  0  0  0  0  0  0  0  0
  -27.4520  -27.1670   20.8000 C   0  0  0  0  0  0  0  0  0  0  0  0
  -23.9000  -30.5990   22.3740 C   0  0  0  0  0  3  0  0  0  0  0  0
  -25.2770  -29.0650   20.8580 C   0  0  0  0  0  0  0  0  0  0  0  0
  -26.4700  -30.6700   22.3330 C   0  0  0  0  0  2  0  0  0  0  0  0
  -26.4570  -29.3510   21.5560 C   0  0  0  0  0  0  0  0  0  0  0  0
  -27.5480  -28.4100   21.5270 C   0  0  0  0  0  3  0  0  0  0  0  0
  -26.2620  -26.9920   20.0540 C   0  0  0  0  0  3  0  0  0  0  0  0
  -25.1880  -27.8950   20.0980 C   0  0  0  0  0  3  0  0  0  0  0  0
  -24.1250  -30.0480   20.9430 C   0  0  0  0  0  2  0  0  0  0  0  0
  -25.1870  -31.0110   23.0210 N   0  0  0  0  0  0  0  0  0  0  0  0
  -24.0510  -32.0560   24.6900 O   0  0  0  0  0  0  0  0  0  0  0  0
  -23.0990  -29.5620   23.2020 C   0  0  0  0  0  0  0  0  0  0  0  0
  -21.7650  -29.5330   23.0210 N   0  0  0  0  0  0  0  0  0  0  0  0
  -23.6770  -28.7920   23.9740 O   0  0  0  0  0  0  0  0  0  0  0  0
  -21.3560  -30.2040   22.3870 H   0  0  0  0  0  0  0  0  0  0  0  0
  -18.2760  -28.5980   23.2680 C   0  0  0  0  0  0  0  0  0  0  0  0
  -20.8310  -28.6050   23.6600 C   0  0  0  0  0  3  0  0  0  0  0  0
  -20.8410  -27.2290   22.9560 C   0  0  0  0  0  2  0  0  0  0  0  0
  -19.7670  -27.0970   21.8740 C   0  0  0  0  0  2  0  0  0  0  0  0
  -18.3720  -27.3090   22.4700 C   0  0  0  0  0  2  0  0  0  0  0  0
  -19.4330  -29.2150   23.8110 C   0  0  0  0  0  0  0  0  0  0  0  0
  -19.2930  -30.4320   24.5130 C   0  0  0  0  0  3  0  0  0  0  0  0
  -18.0300  -31.0340   24.6680 C   0  0  0  0  0  3  0  0  0  0  0  0
  -16.8860  -30.4130   24.1360 C   0  0  0  0  0  3  0  0  0  0  0  0
  -17.0090  -29.1930   23.4450 C   0  0  0  0  0  3  0  0  0  0  0  0
  -26.4290  -32.1880   24.9180 C   0  0  0  0  0  3  0  0  0  0  0  0
  -26.2070  -33.5620   25.3960 N   0  0  0  0  0  0  0  0  0  0  0  0
  -26.6270  -34.6670   24.7660 C   0  0  0  0  0  0  0  0  0  0  0  0
  -27.3110  -34.6310   23.7380 O   0  0  0  0  0  0  0  0  0  0  0  0
  -25.6100  -33.6670   26.2030 H   0  0  0  0  0  0  0  0  0  0  0  0
  -25.0280  -36.6020   24.6010 C   0  0  0  0  0  1  0  0  0  0  0  0
  -26.2290  -36.0280   25.3710 C   0  0  0  0  0  3  0  0  0  0  0  0
  -28.4150  -36.6640   26.2950 C   0  0  0  0  0  1  0  0  0  0  0  0
  -27.3320  -37.0140   25.3760 N   0  0  0  0  0  0  0  0  0  0  0  0
  -26.9900  -37.9370   25.6300 H   0  0  0  0  0  0  0  0  0  0  0  0
  -26.8310  -31.2430   26.1170 C   0  0  1  0  0  0  0  0  0  0  0  0
  -25.6790  -30.9790   27.1170 C   0  0  0  0  0  1  0  0  0  0  0  0
  -27.3210  -29.8730   25.5950 C   0  0  0  0  0  1  0  0  0  0  0  0
  -28.0130  -31.8640   26.8990 C   0  0  0  0  0  1  0  0  0  0  0  0
  -27.5790  -20.2900   18.3160 O   0  0  0  0  0  0  0  0  0  0  0  0
  -27.0570  -20.9910   17.9490 H   0  0  0  0  0  0  0  0  0  0  0  0
  -29.2050  -19.5530   19.8020 C   0  0  0  0  0  2  0  0  0  0  0  0
  -26.6530  -17.5750   21.8520 C   0  0  0  0  0  3  0  0  0  0  0  0
  -27.1120  -16.2600   21.8880 C   0  0  0  0  0  3  0  0  0  0  0  0
  -27.3530  -18.5170   21.0910 C   0  0  0  0  0  3  0  0  0  0  0  0
  -28.1790  -15.8790   21.0630 C   0  0  0  0  0  3  0  0  0  0  0  0
  -28.4690  -18.1930   20.2700 C   0  0  0  0  0  0  0  0  0  0  0  0
  -28.8050  -16.7330   20.1300 C   0  0  0  0  0  0  0  0  0  0  0  0
  -30.0760  -14.7080   18.7980 C   0  0  0  0  0  0  0  0  0  0  0  0
  -29.3750  -12.6480   17.5300 C   0  0  0  0  0  2  0  0  0  0  0  0
  -28.2240  -12.8900   16.5330 C   0  0  0  0  0  2  0  0  0  0  0  0
  -26.8580  -12.7210   17.2190 C   0  0  0  0  0  2  0  0  0  0  0  0
  -26.8010  -13.4430   18.5890 C   0  0  0  0  0  3  0  0  0  0  0  0
  -28.0430  -13.1120   19.4310 C   0  0  0  0  0  2  0  0  0  0  0  0
  -29.2150  -13.6060   18.6770 N   0  0  0  0  0  0  0  0  0  0  0  0
  -31.1440  -14.5560   18.1880 O   0  0  0  0  0  0  0  0  0  0  0  0
  -31.0410  -16.9120   19.1870 C   0  0  0  0  0  1  0  0  0  0  0  0
  -29.8610  -16.0340   19.3400 N   0  0  0  0  0  0  0  0  0  0  0  0
  -24.5640  -14.0350   19.6790 C   0  0  0  0  0  0  0  0  0  0  0  0
  -23.5890  -13.2700   20.2520 C   0  0  0  0  0  0  0  0  0  0  0  0
  -24.0580  -11.9200   20.1890 C   0  0  0  0  0  0  0  0  0  0  0  0
  -25.5670  -13.1560   19.3070 N   0  0  0  0  0  0  0  0  0  0  0  0
  -25.2790  -11.8800   19.6700 N   0  0  0  0  0  0  0  0  0  0  0  0
  -23.3840  -10.6630   20.5330 C   0  0  0  0  0  0  0  0  0  0  0  0
  -23.9460   -9.7490   21.4520 C   0  0  0  0  0  3  0  0  0  0  0  0
  -23.2670   -8.5550   21.7780 C   0  0  0  0  0  3  0  0  0  0  0  0
  -22.0140   -8.2660   21.1880 C   0  0  0  0  0  0  0  0  0  0  0  0
  -21.4710   -9.1670   20.2540 C   0  0  0  0  0  3  0  0  0  0  0  0
  -22.1500  -10.3520   19.9270 C   0  0  0  0  0  3  0  0  0  0  0  0
  -21.2940   -7.1220   21.4280 O   0  0  0  0  0  0  0  0  0  0  0  0
  -21.4610   -6.3930   22.5790 C   0  0  0  0  0  0  0  0  0  0  0  0
  -21.3580   -6.9870   23.8570 C   0  0  0  0  0  3  0  0  0  0  0  0
  -21.4700   -6.1900   25.0140 C   0  0  0  0  0  3  0  0  0  0  0  0
  -21.6730   -4.8020   24.8970 C   0  0  0  0  0  0  0  0  0  0  0  0
  -21.7700   -4.2080   23.6250 C   0  0  0  0  0  3  0  0  0  0  0  0
  -21.6620   -5.0030   22.4710 C   0  0  0  0  0  0  0  0  0  0  0  0
  -21.7360   -4.4230   21.2480 F   0  0  0  0  0  0  0  0  0  0  0  0
  -21.7710   -4.0340   26.0080 F   0  0  0  0  0  0  0  0  0  0  0  0
  -22.2530  -13.7480   20.7380 C   0  0  0  0  0  0  0  0  0  0  0  0
  -21.6810  -13.0730   21.7290 N   0  0  0  0  0  0  0  0  0  0  0  0
  -21.7280  -14.7580   20.2690 O   0  0  0  0  0  0  0  0  0  0  0  0
  -22.1170  -12.2530   22.1240 H   0  0  0  0  0  0  0  0  0  0  0  0
  -20.7930  -13.3800   22.1030 H   0  0  0  0  0  0  0  0  0  0  0  0
  -24.6720  -15.3970   19.4210 N   0  0  0  0  0  0  0  0  0  0  0  0
  -23.9560  -16.0610   19.6890 H   0  0  0  0  0  0  0  0  0  0  0  0
  -25.5260  -15.8440   19.1110 H   0  0  0  0  0  0  0  0  0  0  0  0
  1  3  1  0
  2  1  2  0
  2 49  1  0
  3  4  2  0
  5  3  1  0
  5  6  1  0
  7 18  2  0
  8  6  1  0
  8 13  1  0
  9 17  1  0
  9 19  1  0
 10 16  1  0
 10 12  1  0
 11 17  1  0
 12 11  1  0
 13 12  2  0
 14 15  1  0
 14  8  2  0
 15 10  2  0
 16  9  1  0
 17  7  1  0
 19 21  2  0
 20 19  1  0
 22 20  1  0
 23 32  2  0
 23 28  1  0
 24 20  1  0
 24 28  1  0
 25 24  1  0
 26 27  1  0
 26 25  1  0
 27 23  1  0
 28 29  2  0
 29 30  1  0
 31 30  2  0
 32 31  1  0
 33  7  1  0
 33 34  1  0
 33 43  1  0
 34 37  1  0
 35 39  1  0
 35 34  1  0
 36 35  2  0
 39 38  1  0
 39 41  1  0
 41 42  1  0
 41 40  1  0
 43 46  1  1
 43 44  1  0
 45 43  1  0
 47  2  1  0
 48 47  1  0
 49 54  1  0
 50 51  1  0
 52 50  2  0
 53 51  2  0
 54 52  1  0
 55 54  2  0
 55 53  1  0
 56 65  1  0
 57 62  1  0
 58 59  1  0
 58 57  1  0
 60 59  1  0
 60 69  1  0
 60 61  1  0
 62 56  1  0
 62 61  1  0
 63 56  2  0
 64 65  1  0
 65 55  1  0
 66 67  2  0
 67 86  1  0
 68 67  1  0
 68 71  1  0
 69 70  1  0
 69 66  1  0
 70 68  2  0
 71 72  1  0
 72 73  2  0
 74 77  1  0
 74 73  1  0
 75 74  2  0
 76 75  1  0
 76 71  2  0
 77 78  1  0
 78 79  1  0
 79 80  2  0
 81 80  1  0
 81 85  1  0
 82 81  2  0
 83 78  2  0
 83 82  1  0
 84 83  1  0
 86 87  1  0
 87 90  1  0
 87 89  1  0
 88 86  2  0
 91 66  1  0
 91 92  1  0
 93 91  1  0
M  ISO  4   5 101   6 101  56 100  65 100
M  END
>  <TORSDO>  (62) 
F 21

>  <SCORE>  (62) 
6.237

>  <name>  (62) 
61

>  <ligand_id>  (62) 
61

>  <original_smiles>  (62) 
[H]OC(=C([H])C(=O)C([H])([H])Oc1c([H])c([H])c2c(c1[H])C([H])([H])N(C(=O)C([H])(N([H])C(=O)C([H])(N([H])C([H])([H])[H])C([H])([H])[H])C(C([H])([H])[H])(C([H])([H])[H])C([H])([H])[H])C([H])(C(=O)N([H])C1([H])c3c([H])c([H])c([H])c([H])c3C([H])([H])C([H])([H])C1([H])[H])C2([H])[H])C([H])([H])c1c([H])c([H])c([H])c([H])c1N(C(=O)N1C([H])([H])C([H])([H])C([H])([H])C([H])(n2nc(-c3c([H])c([H])c(Oc4c([H])c([H])c(F)c([H])c4F)c([H])c3[H])c(C(=O)N([H])[H])c2N([H])[H])C1([H])[H])C([H])([H])[H]

>  <smiles>  (62) 
[H]OC(=C([H])C(=O)C([H])([H])Oc1c([H])c([H])c2c(c1[H])C([H])([H])N(C(=O)C([H])(N([H])C(=O)C([H])(N([H])C([H])([H])[H])C([H])([H])[H])C(C([H])([H])[H])(C([H])([H])[H])C([H])([H])[H])C([H])(C(=O)N([H])C1([H])c3c([H])c([H])c([H])c([H])c3C([H])([H])C([H])([H])C1([H])[H])C2([H])[H])C([H])([H])c1c([H])c([H])c([H])c([H])c1N(C(=O)N1C([H])([H])C([H])([H])C([H])([H])C([H])(n2nc(-c3c([H])c([H])c(Oc4c([H])c([H])c(F)c([H])c4F)c([H])c3[H])c(C(=O)N([H])[H])c2N([H])[H])C1([H])[H])C([H])([H])[H]

$$$$
62:0:0
     RDKit          3D

 94102  0  0  1  0  0  0  0  0999 V2000
  -31.4710  -17.6690   21.2400 C   0  0  0  0  0  3  0  0  0  0  0  0
  -31.8840  -19.0030   21.4050 C   0  0  0  0  0  3  0  0  0  0  0  0
  -29.3280  -18.4860   20.4070 C   0  0  0  0  0  0  0  0  0  0  0  0
  -30.1950  -17.3480   20.7270 C   0  0  0  0  0  0  0  0  0  0  0  0
  -29.7420  -19.8860   20.5720 C   0  0  0  0  0  0  0  0  0  0  0  0
  -31.0520  -20.0870   21.0740 C   0  0  0  0  0  0  0  0  0  0  0  0
  -31.5570  -21.3370   21.2130 F   0  0  0  0  0  0  0  0  0  0  0  0
  -30.5930  -14.7720   20.4120 C   0  0  0  0  0  0  0  0  0  0  0  0
  -30.3750  -12.5140   19.3660 C   0  0  0  0  0  2  0  0  0  0  0  0
  -29.4330  -12.6050   18.1460 C   0  0  0  0  0  2  0  0  0  0  0  0
  -27.9640  -12.4320   18.5800 C   0  0  0  0  0  2  0  0  0  0  0  0
  -27.5960  -13.3090   19.8070 C   0  0  0  0  0  3  0  0  0  0  0  0
  -28.6580  -13.2090   20.9230 C   0  0  0  0  0  2  0  0  0  0  0  0
  -29.9520  -13.5580   20.3260 N   0  0  0  0  0  0  0  0  0  0  0  0
  -31.7850  -14.8520   20.0950 O   0  0  0  0  0  0  0  0  0  0  0  0
  -29.8200  -15.9110   20.6100 N   0  0  0  0  0  0  0  0  0  0  0  0
  -28.8330  -15.7190   20.6670 H   0  0  0  0  0  0  0  0  0  0  0  0
  -25.2070  -13.8960   20.5330 C   0  0  0  0  0  0  0  0  0  0  0  0
  -24.1440  -13.1200   20.9070 C   0  0  0  0  0  0  0  0  0  0  0  0
  -24.6110  -11.7690   20.8800 C   0  0  0  0  0  0  0  0  0  0  0  0
  -26.2530  -13.0180   20.2990 N   0  0  0  0  0  0  0  0  0  0  0  0
  -25.9010  -11.7350   20.5710 N   0  0  0  0  0  0  0  0  0  0  0  0
  -23.8870  -10.5060   21.0700 C   0  0  0  0  0  0  0  0  0  0  0  0
  -24.3310   -9.5330   21.9930 C   0  0  0  0  0  3  0  0  0  0  0  0
  -23.6060   -8.3340   22.1720 C   0  0  0  0  0  3  0  0  0  0  0  0
  -22.4250   -8.1010   21.4290 C   0  0  0  0  0  0  0  0  0  0  0  0
  -22.0010   -9.0630   20.4960 C   0  0  0  0  0  3  0  0  0  0  0  0
  -22.7250  -10.2520   20.3140 C   0  0  0  0  0  3  0  0  0  0  0  0
  -21.6710   -6.9550   21.5190 O   0  0  0  0  0  0  0  0  0  0  0  0
  -21.6460   -6.1980   22.6630 C   0  0  0  0  0  0  0  0  0  0  0  0
  -21.2610   -6.7410   23.9080 C   0  0  0  0  0  3  0  0  0  0  0  0
  -21.1830   -5.9100   25.0430 C   0  0  0  0  0  3  0  0  0  0  0  0
  -21.4800   -4.5380   24.9350 C   0  0  0  0  0  0  0  0  0  0  0  0
  -21.8580   -3.9950   23.6950 C   0  0  0  0  0  3  0  0  0  0  0  0
  -21.9380   -4.8220   22.5610 C   0  0  0  0  0  0  0  0  0  0  0  0
  -22.2820   -4.2890   21.3640 F   0  0  0  0  0  0  0  0  0  0  0  0
  -21.3970   -3.7390   26.0250 F   0  0  0  0  0  0  0  0  0  0  0  0
  -22.7450  -13.5940   21.1740 C   0  0  0  0  0  0  0  0  0  0  0  0
  -22.0170  -12.8980   22.0400 N   0  0  0  0  0  0  0  0  0  0  0  0
  -22.3070  -14.6170   20.6510 O   0  0  0  0  0  0  0  0  0  0  0  0
  -22.3840  -12.0710   22.4850 H   0  0  0  0  0  0  0  0  0  0  0  0
  -21.0790  -13.1990   22.2630 H   0  0  0  0  0  0  0  0  0  0  0  0
  -25.3640  -15.2650   20.3460 N   0  0  0  0  0  0  0  0  0  0  0  0
  -24.5810  -15.9050   20.4330 H   0  0  0  0  0  0  0  0  0  0  0  0
  -26.1780  -15.6920   19.9280 H   0  0  0  0  0  0  0  0  0  0  0  0
  -27.9230  -17.7910   18.3990 C   0  0  0  0  0  1  0  0  0  0  0  0
  -27.9290  -18.1860   19.8830 C   0  0  0  0  0  2  0  0  0  0  0  0
  -28.9480  -21.0490   20.2000 N   0  0  0  0  0  0  0  0  0  0  0  0
  -28.1280  -20.8550   19.6350 H   0  0  0  0  0  0  0  0  0  0  0  0
  -28.8770  -22.3850   20.9360 C   0  0  0  0  0  2  0  0  0  0  0  0
  -28.7250  -23.7790   20.1520 C   0  0  0  0  0  0  0  0  0  0  0  0
  -29.0530  -23.8440   18.9620 O   0  0  0  0  0  0  0  0  0  0  0  0
  -28.1320  -25.0710   20.8920 C   0  0  0  0  0  2  0  0  0  0  0  0
  -28.3720  -26.4400   20.3210 O   0  0  0  0  0  0  0  0  0  0  0  0
  -24.6200  -31.9270   23.2600 C   0  0  0  0  0  0  0  0  0  0  0  0
  -27.2760  -27.3230   20.2860 C   0  0  0  0  0  0  0  0  0  0  0  0
  -23.4410  -30.5080   21.6200 C   0  0  0  0  0  3  0  0  0  0  0  0
  -24.9130  -28.9450   20.2260 C   0  0  0  0  0  0  0  0  0  0  0  0
  -25.9820  -30.8300   21.4610 C   0  0  0  0  0  2  0  0  0  0  0  0
  -26.0760  -29.4420   20.8300 C   0  0  0  0  0  0  0  0  0  0  0  0
  -27.2650  -28.6450   20.8450 C   0  0  0  0  0  3  0  0  0  0  0  0
  -26.0930  -26.8870   19.6550 C   0  0  0  0  0  3  0  0  0  0  0  0
  -24.9250  -27.6750   19.6270 C   0  0  0  0  0  3  0  0  0  0  0  0
  -23.6730  -29.8180   20.2490 C   0  0  0  0  0  2  0  0  0  0  0  0
  -24.7000  -31.1070   22.1700 N   0  0  0  0  0  0  0  0  0  0  0  0
  -23.5290  -32.2050   23.7800 O   0  0  0  0  0  0  0  0  0  0  0  0
  -22.7710  -29.4980   22.5850 C   0  0  0  0  0  0  0  0  0  0  0  0
  -21.4460  -29.3180   22.4490 N   0  0  0  0  0  0  0  0  0  0  0  0
  -23.4440  -28.8810   23.4130 O   0  0  0  0  0  0  0  0  0  0  0  0
  -20.9610  -29.8690   21.7550 H   0  0  0  0  0  0  0  0  0  0  0  0
  -18.0660  -28.1210   22.9380 C   0  0  0  0  0  0  0  0  0  0  0  0
  -20.6230  -28.3850   23.2220 C   0  0  0  0  0  3  0  0  0  0  0  0
  -20.7290  -26.9490   22.6590 C   0  0  0  0  0  2  0  0  0  0  0  0
  -19.6350  -26.6180   21.6390 C   0  0  0  0  0  2  0  0  0  0  0  0
  -18.2490  -26.7670   22.2720 C   0  0  0  0  0  2  0  0  0  0  0  0
  -19.1820  -28.8880   23.3690 C   0  0  0  0  0  0  0  0  0  0  0  0
  -18.9570  -30.1540   23.9510 C   0  0  0  0  0  3  0  0  0  0  0  0
  -17.6500  -30.6540   24.1050 C   0  0  0  0  0  3  0  0  0  0  0  0
  -16.5500  -29.8840   23.6900 C   0  0  0  0  0  3  0  0  0  0  0  0
  -16.7590  -28.6190   23.1110 C   0  0  0  0  0  3  0  0  0  0  0  0
  -25.8930  -32.5720   23.8900 C   0  0  0  0  0  3  0  0  0  0  0  0
  -25.5720  -33.9730   24.2050 N   0  0  0  0  0  0  0  0  0  0  0  0
  -25.9070  -35.0220   23.4430 C   0  0  0  0  0  0  0  0  0  0  0  0
  -26.5880  -34.9140   22.4190 O   0  0  0  0  0  0  0  0  0  0  0  0
  -24.9700  -34.1300   25.0010 H   0  0  0  0  0  0  0  0  0  0  0  0
  -24.1750  -36.8050   23.0580 C   0  0  0  0  0  1  0  0  0  0  0  0
  -25.4100  -36.4120   23.8850 C   0  0  0  0  0  3  0  0  0  0  0  0
  -27.5350  -37.3100   24.7290 C   0  0  0  0  0  1  0  0  0  0  0  0
  -26.4390  -37.4690   23.7760 N   0  0  0  0  0  0  0  0  0  0  0  0
  -26.0280  -38.3880   23.9150 H   0  0  0  0  0  0  0  0  0  0  0  0
  -26.3990  -31.8170   25.1800 C   0  0  1  0  0  0  0  0  0  0  0  0
  -25.2960  -31.5870   26.2390 C   0  0  0  0  0  1  0  0  0  0  0  0
  -26.9910  -30.4370   24.8090 C   0  0  0  0  0  1  0  0  0  0  0  0
  -27.5400  -32.6220   25.8440 C   0  0  0  0  0  1  0  0  0  0  0  0
  1  2  1  0
  3  5  2  0
  3  4  1  0
  4  1  2  0
  5  6  1  0
  6  7  1  0
  6  2  2  0
  8 16  1  0
  9 14  1  0
 10 11  1  0
 10  9  1  0
 12 11  1  0
 12 21  1  0
 12 13  1  0
 14  8  1  0
 14 13  1  0
 15  8  2  0
 16 17  1  0
 16  4  1  0
 18 19  2  0
 19 38  1  0
 20 19  1  0
 20 23  1  0
 21 18  1  0
 21 22  1  0
 22 20  2  0
 23 24  1  0
 24 25  2  0
 26 29  1  0
 26 25  1  0
 27 26  2  0
 28 27  1  0
 28 23  2  0
 29 30  1  0
 30 31  1  0
 31 32  2  0
 33 32  1  0
 33 37  1  0
 34 33  2  0
 35 30  2  0
 35 34  1  0
 36 35  1  0
 38 39  1  0
 39 42  1  0
 39 41  1  0
 40 38  2  0
 43 44  1  0
 43 18  1  0
 45 43  1  0
 46 47  1  0
 47  3  1  0
 48  5  1  0
 48 50  1  0
 49 48  1  0
 51 53  1  0
 51 50  1  0
 52 51  2  0
 54 53  1  0
 55 66  2  0
 56 54  1  0
 56 61  1  0
 57 65  1  0
 57 67  1  0
 58 64  1  0
 58 60  1  0
 59 65  1  0
 60 61  2  0
 60 59  1  0
 62 56  2  0
 63 62  1  0
 63 58  2  0
 64 57  1  0
 65 55  1  0
 67 69  2  0
 68 67  1  0
 70 68  1  0
 71 80  2  0
 71 76  1  0
 72 68  1  0
 72 76  1  0
 73 72  1  0
 74 75  1  0
 74 73  1  0
 75 71  1  0
 76 77  2  0
 77 78  1  0
 79 78  2  0
 80 79  1  0
 81 55  1  0
 81 82  1  0
 81 91  1  0
 82 85  1  0
 83 87  1  0
 83 82  1  0
 84 83  2  0
 87 86  1  0
 89 87  1  0
 89 90  1  0
 89 88  1  0
 91 94  1  1
 91 92  1  0
 93 91  1  0
M  ISO  4   8 100  16 100  53 101  54 101
M  END
>  <TORSDO>  (63) 
F 21

>  <SCORE>  (63) 
-14.091

>  <name>  (63) 
62

>  <ligand_id>  (63) 
62

>  <original_smiles>  (63) 
[H]c1c([H])c([H])c2c(c1[H])C([H])([H])C([H])([H])C([H])([H])C2([H])N([H])C(=O)C1([H])N(C(=O)C([H])(N([H])C(=O)C([H])(N([H])C([H])([H])[H])C([H])([H])[H])C(C([H])([H])[H])(C([H])([H])[H])C([H])([H])[H])C([H])([H])c2c([H])c(OC([H])([H])C(=O)C([H])([H])N([H])c3c(F)c([H])c([H])c(N([H])C(=O)N4C([H])([H])C([H])([H])C([H])([H])C([H])(n5nc(-c6c([H])c([H])c(Oc7c([H])c([H])c(F)c([H])c7F)c([H])c6[H])c(C(=O)N([H])[H])c5N([H])[H])C4([H])[H])c3C([H])([H])C([H])([H])[H])c([H])c([H])c2C1([H])[H]

>  <smiles>  (63) 
[H]c1c([H])c([H])c2c(c1[H])C([H])([H])C([H])([H])C([H])([H])C2([H])N([H])C(=O)C1([H])N(C(=O)C([H])(N([H])C(=O)C([H])(N([H])C([H])([H])[H])C([H])([H])[H])C(C([H])([H])[H])(C([H])([H])[H])C([H])([H])[H])C([H])([H])c2c([H])c(OC([H])([H])C(=O)C([H])([H])N([H])c3c(F)c([H])c([H])c(N([H])C(=O)N4C([H])([H])C([H])([H])C([H])([H])C([H])(n5nc(-c6c([H])c([H])c(Oc7c([H])c([H])c(F)c([H])c7F)c([H])c6[H])c(C(=O)N([H])[H])c5N([H])[H])C4([H])[H])c3C([H])([H])C([H])([H])[H])c([H])c([H])c2C1([H])[H]

$$$$
63:0:0
     RDKit          3D

 94102  0  0  1  0  0  0  0  0999 V2000
  -29.8900  -18.1930   20.1870 C   0  0  0  0  0  0  0  0  0  0  0  0
  -29.8000  -18.0400   18.8160 C   0  0  0  0  0  0  0  0  0  0  0  0
  -29.3320  -20.3640   19.5540 C   0  0  0  0  0  0  0  0  0  0  0  0
  -28.8130  -22.6830   20.5450 C   0  0  0  0  0  0  0  0  0  0  0  0
  -29.6060  -19.5330   20.5880 N   0  0  0  0  0  0  0  0  0  0  0  0
  -29.1180  -21.7870   19.5760 N   0  0  0  0  0  0  0  0  0  0  0  0
  -28.6190  -22.4010   21.7330 O   0  0  0  0  0  0  0  0  0  0  0  0
  -29.3700  -19.5330   18.0120 S   0  0  0  0  0  0  0  0  0  0  0  0
  -29.1800  -22.2320   18.6700 H   0  0  0  0  0  0  0  0  0  0  0  0
  -28.7240  -24.1670   19.9800 C   0  0  0  0  0  0  0  0  0  0  0  0
  -29.1430  -24.4400   18.8440 O   0  0  0  0  0  0  0  0  0  0  0  0
  -28.0810  -25.2790   20.8640 C   0  0  0  0  0  2  0  0  0  0  0  0
  -28.2630  -26.6430   20.3590 O   0  0  0  0  0  0  0  0  0  0  0  0
  -24.5060  -31.9860   23.3250 C   0  0  0  0  0  0  0  0  0  0  0  0
  -27.1290  -27.4430   20.3330 C   0  0  0  0  0  0  0  0  0  0  0  0
  -23.3050  -30.5770   21.6870 C   0  0  0  0  0  3  0  0  0  0  0  0
  -24.7600  -29.0090   20.2910 C   0  0  0  0  0  0  0  0  0  0  0  0
  -25.8410  -30.9020   21.5110 C   0  0  0  0  0  2  0  0  0  0  0  0
  -25.9210  -29.5200   20.8850 C   0  0  0  0  0  0  0  0  0  0  0  0
  -27.1110  -28.7470   20.8960 C   0  0  0  0  0  3  0  0  0  0  0  0
  -25.9500  -26.9620   19.7220 C   0  0  0  0  0  3  0  0  0  0  0  0
  -24.7720  -27.7320   19.7020 C   0  0  0  0  0  3  0  0  0  0  0  0
  -23.5240  -29.8830   20.3160 C   0  0  0  0  0  2  0  0  0  0  0  0
  -24.5690  -31.1730   22.2330 N   0  0  0  0  0  0  0  0  0  0  0  0
  -23.4220  -32.2740   23.8510 O   0  0  0  0  0  0  0  0  0  0  0  0
  -22.6340  -29.5730   22.6540 C   0  0  0  0  0  0  0  0  0  0  0  0
  -21.3110  -29.3870   22.5050 N   0  0  0  0  0  0  0  0  0  0  0  0
  -23.3020  -28.9630   23.4930 O   0  0  0  0  0  0  0  0  0  0  0  0
  -20.8340  -29.9330   21.8020 H   0  0  0  0  0  0  0  0  0  0  0  0
  -17.9320  -28.1850   22.9510 C   0  0  0  0  0  0  0  0  0  0  0  0
  -20.4810  -28.4610   23.2750 C   0  0  0  0  0  3  0  0  0  0  0  0
  -20.6030  -27.0180   22.7290 C   0  0  0  0  0  2  0  0  0  0  0  0
  -19.5240  -26.6720   21.6960 C   0  0  0  0  0  2  0  0  0  0  0  0
  -18.1280  -26.8240   22.3070 C   0  0  0  0  0  2  0  0  0  0  0  0
  -19.0370  -28.9610   23.3910 C   0  0  0  0  0  0  0  0  0  0  0  0
  -18.7990  -30.2340   23.9520 C   0  0  0  0  0  3  0  0  0  0  0  0
  -17.4880  -30.7320   24.0790 C   0  0  0  0  0  3  0  0  0  0  0  0
  -16.3970  -29.9540   23.6540 C   0  0  0  0  0  3  0  0  0  0  0  0
  -16.6190  -28.6820   23.0950 C   0  0  0  0  0  3  0  0  0  0  0  0
  -25.7900  -32.6150   23.9510 C   0  0  0  0  0  3  0  0  0  0  0  0
  -26.2740  -31.8710   25.2560 C   0  0  1  0  0  0  0  0  0  0  0  0
  -25.1610  -31.6730   26.3100 C   0  0  0  0  0  1  0  0  0  0  0  0
  -26.8490  -30.4770   24.9080 C   0  0  0  0  0  1  0  0  0  0  0  0
  -27.4230  -32.6670   25.9190 C   0  0  0  0  0  1  0  0  0  0  0  0
  -25.4980  -34.0270   24.2390 N   0  0  0  0  0  0  0  0  0  0  0  0
  -25.8660  -35.0530   23.4620 C   0  0  0  0  0  0  0  0  0  0  0  0
  -26.5580  -34.9120   22.4490 O   0  0  0  0  0  0  0  0  0  0  0  0
  -24.8880  -34.2100   25.0220 H   0  0  0  0  0  0  0  0  0  0  0  0
  -24.1850  -36.8700   23.0140 C   0  0  0  0  0  1  0  0  0  0  0  0
  -25.3920  -36.4610   23.8730 C   0  0  0  0  0  3  0  0  0  0  0  0
  -27.5160  -37.3250   24.7490 C   0  0  0  0  0  1  0  0  0  0  0  0
  -26.4480  -37.4910   23.7680 N   0  0  0  0  0  0  0  0  0  0  0  0
  -26.0540  -38.4210   23.8800 H   0  0  0  0  0  0  0  0  0  0  0  0
  -31.5840  -16.6730   17.6700 C   0  0  0  0  0  1  0  0  0  0  0  0
  -30.0900  -16.8390   17.9730 C   0  0  0  0  0  2  0  0  0  0  0  0
  -30.3420  -17.1450   21.2220 C   0  0  0  0  0  2  0  0  0  0  0  0
  -30.6970  -14.6710   20.6500 C   0  0  0  0  0  0  0  0  0  0  0  0
  -30.4660  -12.5010   19.4810 C   0  0  0  0  0  2  0  0  0  0  0  0
  -29.5510  -12.6860   18.2530 C   0  0  0  0  0  2  0  0  0  0  0  0
  -28.0690  -12.5220   18.6480 C   0  0  0  0  0  2  0  0  0  0  0  0
  -27.6870  -13.3450   19.9070 C   0  0  0  0  0  3  0  0  0  0  0  0
  -28.7200  -13.1500   21.0380 C   0  0  0  0  0  2  0  0  0  0  0  0
  -30.0450  -13.4830   20.4940 N   0  0  0  0  0  0  0  0  0  0  0  0
  -31.8690  -14.8260   20.3000 O   0  0  0  0  0  0  0  0  0  0  0  0
  -29.9310  -15.7240   21.0330 N   0  0  0  0  0  0  0  0  0  0  0  0
  -28.9670  -15.5170   21.2420 H   0  0  0  0  0  0  0  0  0  0  0  0
  -25.2670  -13.9220   20.5640 C   0  0  0  0  0  0  0  0  0  0  0  0
  -24.2000  -13.1380   20.9080 C   0  0  0  0  0  0  0  0  0  0  0  0
  -24.6780  -11.7910   20.8920 C   0  0  0  0  0  0  0  0  0  0  0  0
  -26.3270  -13.0520   20.3570 N   0  0  0  0  0  0  0  0  0  0  0  0
  -25.9750  -11.7660   20.6130 N   0  0  0  0  0  0  0  0  0  0  0  0
  -23.9610  -10.5220   21.0650 C   0  0  0  0  0  0  0  0  0  0  0  0
  -24.3740   -9.5650   22.0180 C   0  0  0  0  0  3  0  0  0  0  0  0
  -23.6570   -8.3590   22.1780 C   0  0  0  0  0  3  0  0  0  0  0  0
  -22.5120   -8.1030   21.3860 C   0  0  0  0  0  0  0  0  0  0  0  0
  -22.1200   -9.0490   20.4240 C   0  0  0  0  0  3  0  0  0  0  0  0
  -22.8360  -10.2440   20.2600 C   0  0  0  0  0  3  0  0  0  0  0  0
  -21.7690   -6.9480   21.4550 O   0  0  0  0  0  0  0  0  0  0  0  0
  -21.6800   -6.2170   22.6120 C   0  0  0  0  0  0  0  0  0  0  0  0
  -21.1800   -6.7760   23.8090 C   0  0  0  0  0  3  0  0  0  0  0  0
  -21.0380   -5.9710   24.9570 C   0  0  0  0  0  3  0  0  0  0  0  0
  -21.3890   -4.6070   24.9070 C   0  0  0  0  0  0  0  0  0  0  0  0
  -21.8840   -4.0480   23.7160 C   0  0  0  0  0  3  0  0  0  0  0  0
  -22.0250   -4.8520   22.5700 C   0  0  0  0  0  0  0  0  0  0  0  0
  -22.4820   -4.3040   21.4180 F   0  0  0  0  0  0  0  0  0  0  0  0
  -21.2480   -3.8310   26.0080 F   0  0  0  0  0  0  0  0  0  0  0  0
  -22.7900  -13.5990   21.1430 C   0  0  0  0  0  0  0  0  0  0  0  0
  -22.0480  -12.8990   21.9940 N   0  0  0  0  0  0  0  0  0  0  0  0
  -22.3530  -14.6160   20.6060 O   0  0  0  0  0  0  0  0  0  0  0  0
  -22.4130  -12.0780   22.4540 H   0  0  0  0  0  0  0  0  0  0  0  0
  -21.1000  -13.1880   22.1890 H   0  0  0  0  0  0  0  0  0  0  0  0
  -25.4210  -15.2950   20.3870 N   0  0  0  0  0  0  0  0  0  0  0  0
  -24.6390  -15.9340   20.4630 H   0  0  0  0  0  0  0  0  0  0  0  0
  -26.2630  -15.7430   20.0510 H   0  0  0  0  0  0  0  0  0  0  0  0
  1  5  1  0
  1 56  1  0
  2  1  2  0
  3  6  1  0
  3  5  2  0
  4  7  2  0
  6  4  1  0
  8  2  1  0
  8  3  1  0
  9  6  1  0
 10  4  1  0
 10 12  1  0
 11 10  2  0
 13 12  1  0
 14 25  2  0
 15 13  1  0
 15 20  1  0
 16 24  1  0
 16 26  1  0
 17 23  1  0
 17 19  1  0
 18 24  1  0
 19 20  2  0
 19 18  1  0
 21 15  2  0
 22 21  1  0
 22 17  2  0
 23 16  1  0
 24 14  1  0
 26 28  2  0
 27 26  1  0
 29 27  1  0
 30 39  2  0
 30 35  1  0
 31 27  1  0
 31 35  1  0
 32 31  1  0
 33 34  1  0
 33 32  1  0
 34 30  1  0
 35 36  2  0
 36 37  1  0
 38 37  2  0
 39 38  1  0
 40 14  1  0
 40 45  1  0
 40 41  1  0
 41 44  1  1
 41 42  1  0
 43 41  1  0
 45 48  1  0
 46 50  1  0
 46 45  1  0
 47 46  2  0
 50 49  1  0
 52 50  1  0
 52 53  1  0
 52 51  1  0
 54 55  1  0
 55  2  1  0
 57 65  1  0
 58 63  1  0
 59 60  1  0
 59 58  1  0
 61 60  1  0
 61 70  1  0
 61 62  1  0
 63 57  1  0
 63 62  1  0
 64 57  2  0
 65 56  1  0
 65 66  1  0
 67 68  2  0
 68 87  1  0
 69 68  1  0
 69 72  1  0
 70 67  1  0
 70 71  1  0
 71 69  2  0
 72 73  1  0
 73 74  2  0
 75 78  1  0
 75 74  1  0
 76 75  2  0
 77 76  1  0
 77 72  2  0
 78 79  1  0
 79 80  1  0
 80 81  2  0
 82 81  1  0
 82 86  1  0
 83 82  2  0
 84 79  2  0
 84 83  1  0
 85 84  1  0
 87 88  1  0
 88 91  1  0
 88 90  1  0
 89 87  2  0
 92 93  1  0
 92 67  1  0
 94 92  1  0
M  ISO  4  12 101  13 101  57 100  65 100
M  END
>  <TORSDO>  (64) 
F 20

>  <SCORE>  (64) 
-13.510

>  <name>  (64) 
63

>  <ligand_id>  (64) 
63

>  <original_smiles>  (64) 
[H]c1c([H])c([H])c2c(c1[H])C([H])([H])C([H])([H])C([H])([H])C2([H])N([H])C(=O)C1([H])N(C(=O)C([H])(N([H])C(=O)C([H])(N([H])C([H])([H])[H])C([H])([H])[H])C(C([H])([H])[H])(C([H])([H])[H])C([H])([H])[H])C([H])([H])c2c([H])c(OC([H])([H])C(=O)C(=O)N([H])c3nc(C([H])([H])N([H])C(=O)N4C([H])([H])C([H])([H])C([H])([H])C([H])(n5nc(-c6c([H])c([H])c(Oc7c([H])c([H])c(F)c([H])c7F)c([H])c6[H])c(C(=O)N([H])[H])c5N([H])[H])C4([H])[H])c(C([H])([H])C([H])([H])[H])s3)c([H])c([H])c2C1([H])[H]

>  <smiles>  (64) 
[H]c1c([H])c([H])c2c(c1[H])C([H])([H])C([H])([H])C([H])([H])C2([H])N([H])C(=O)C1([H])N(C(=O)C([H])(N([H])C(=O)C([H])(N([H])C([H])([H])[H])C([H])([H])[H])C(C([H])([H])[H])(C([H])([H])[H])C([H])([H])[H])C([H])([H])c2c([H])c(OC([H])([H])C(=O)C(=O)N([H])c3nc(C([H])([H])N([H])C(=O)N4C([H])([H])C([H])([H])C([H])([H])C([H])(n5nc(-c6c([H])c([H])c(Oc7c([H])c([H])c(F)c([H])c7F)c([H])c6[H])c(C(=O)N([H])[H])c5N([H])[H])C4([H])[H])c(C([H])([H])C([H])([H])[H])s3)c([H])c([H])c2C1([H])[H]

$$$$
64:0:0
     RDKit          3D

102111  0  0  1  0  0  0  0  0999 V2000
  -30.1690  -23.4860   21.9570 C   0  0  0  0  0  0  0  0  0  0  0  0
  -31.5740  -22.9790   22.2890 C   0  0  0  0  0  2  0  0  0  0  0  0
  -31.6000  -21.4620   22.5430 C   0  0  0  0  0  2  0  0  0  0  0  0
  -31.5750  -20.6220   21.2440 C   0  0  0  0  0  2  0  0  0  0  0  0
  -30.2640  -20.5950   20.3930 C   0  0  0  0  0  3  0  0  0  0  0  0
  -29.5770  -23.0720   20.5920 C   0  0  0  0  0  3  0  0  0  0  0  0
  -29.2080  -21.6130   20.7220 N   0  0  0  0  0  4  0  0  0  0  0  0
  -29.5520  -24.1370   22.8010 O   0  0  0  0  0  0  0  0  0  0  0  0
  -28.8440  -21.4230   21.6400 H   0  0  0  0  0  0  0  0  0  0  0  0
  -28.4770  -21.3940   20.0610 H   0  0  0  0  0  0  0  0  0  0  0  0
  -30.6010  -14.5430   20.4140 C   0  0  0  0  0  0  0  0  0  0  0  0
  -30.3360  -12.3380   19.3220 C   0  0  0  0  0  2  0  0  0  0  0  0
  -29.4030  -12.5100   18.1080 C   0  0  0  0  0  2  0  0  0  0  0  0
  -27.9250  -12.3640   18.5190 C   0  0  0  0  0  2  0  0  0  0  0  0
  -27.5700  -13.1970   19.7800 C   0  0  0  0  0  3  0  0  0  0  0  0
  -28.6280  -13.0290   20.8960 C   0  0  0  0  0  2  0  0  0  0  0  0
  -29.9510  -13.3410   20.3330 N   0  0  0  0  0  0  0  0  0  0  0  0
  -31.7400  -14.6980   19.9620 O   0  0  0  0  0  0  0  0  0  0  0  0
  -28.8440  -16.8260   19.0980 C   0  0  0  0  0  3  0  0  0  0  0  0
  -28.4670  -18.0380   18.5240 C   0  0  0  0  0  0  0  0  0  0  0  0
  -29.6480  -16.8480   20.2520 C   0  0  0  0  0  0  0  0  0  0  0  0
  -29.6850  -19.1890   20.0590 C   0  0  0  0  0  0  0  0  0  0  0  0
  -28.8640  -19.2100   19.0150 N   0  0  0  0  0  0  0  0  0  0  0  0
  -30.0440  -18.0690   20.7320 N   0  0  0  0  0  0  0  0  0  0  0  0
  -29.8880  -15.5870   20.9110 N   0  0  0  0  0  0  0  0  0  0  0  0
  -29.0960  -15.2650   21.4410 H   0  0  0  0  0  0  0  0  0  0  0  0
  -25.1650  -13.7970   20.4570 C   0  0  0  0  0  0  0  0  0  0  0  0
  -24.0980  -13.0230   20.8210 C   0  0  0  0  0  0  0  0  0  0  0  0
  -24.5650  -11.6720   20.8080 C   0  0  0  0  0  0  0  0  0  0  0  0
  -26.2170  -12.9210   20.2500 N   0  0  0  0  0  0  0  0  0  0  0  0
  -25.8610  -11.6390   20.5200 N   0  0  0  0  0  0  0  0  0  0  0  0
  -23.8440  -10.4090   21.0010 C   0  0  0  0  0  0  0  0  0  0  0  0
  -24.2760   -9.4560   21.9490 C   0  0  0  0  0  3  0  0  0  0  0  0
  -23.5560   -8.2560   22.1340 C   0  0  0  0  0  3  0  0  0  0  0  0
  -22.3920   -8.0010   21.3690 C   0  0  0  0  0  0  0  0  0  0  0  0
  -21.9790   -8.9460   20.4150 C   0  0  0  0  0  3  0  0  0  0  0  0
  -22.6980  -10.1370   20.2280 C   0  0  0  0  0  3  0  0  0  0  0  0
  -21.6450   -6.8510   21.4620 O   0  0  0  0  0  0  0  0  0  0  0  0
  -21.5990   -6.1120   22.6170 C   0  0  0  0  0  0  0  0  0  0  0  0
  -21.1640   -6.6670   23.8400 C   0  0  0  0  0  3  0  0  0  0  0  0
  -21.0670   -5.8560   24.9870 C   0  0  0  0  0  3  0  0  0  0  0  0
  -21.3960   -4.4890   24.9150 C   0  0  0  0  0  0  0  0  0  0  0  0
  -21.8200   -3.9310   23.6960 C   0  0  0  0  0  3  0  0  0  0  0  0
  -21.9190   -4.7400   22.5500 C   0  0  0  0  0  0  0  0  0  0  0  0
  -22.3100   -4.1930   21.3730 F   0  0  0  0  0  0  0  0  0  0  0  0
  -21.2950   -3.7060   26.0140 F   0  0  0  0  0  0  0  0  0  0  0  0
  -22.6930  -13.4940   21.0710 C   0  0  0  0  0  0  0  0  0  0  0  0
  -21.9590  -12.8020   21.9320 N   0  0  0  0  0  0  0  0  0  0  0  0
  -22.2530  -14.5090   20.5310 O   0  0  0  0  0  0  0  0  0  0  0  0
  -22.3200  -11.9760   22.3900 H   0  0  0  0  0  0  0  0  0  0  0  0
  -21.0170  -13.1000   22.1410 H   0  0  0  0  0  0  0  0  0  0  0  0
  -25.3260  -15.1690   20.2620 N   0  0  0  0  0  0  0  0  0  0  0  0
  -24.5600  -15.8230   20.3610 H   0  0  0  0  0  0  0  0  0  0  0  0
  -26.1740  -15.6060   19.9290 H   0  0  0  0  0  0  0  0  0  0  0  0
  -27.6510  -18.0900   17.4080 N   0  0  0  0  0  0  0  0  0  0  0  0
  -27.2840  -17.2560   16.9660 H   0  0  0  0  0  0  0  0  0  0  0  0
  -27.4170  -18.9670   16.9610 H   0  0  0  0  0  0  0  0  0  0  0  0
  -28.4140  -24.0730   20.1410 C   0  0  0  0  0  2  0  0  0  0  0  0
  -30.3370  -25.7090   19.4770 C   0  0  0  0  0  1  0  0  0  0  0  0
  -28.4060  -25.5230   17.9820 C   0  0  0  0  0  1  0  0  0  0  0  0
  -28.8090  -25.4700   19.4730 C   0  0  1  0  0  0  0  0  0  0  0  0
  -28.4040  -26.6700   20.1960 O   0  0  0  0  0  0  0  0  0  0  0  0
  -24.5890  -31.8650   23.2070 C   0  0  0  0  0  0  0  0  0  0  0  0
  -27.1940  -27.3590   20.1320 C   0  0  0  0  0  0  0  0  0  0  0  0
  -23.3610  -30.4650   21.5760 C   0  0  0  0  0  3  0  0  0  0  0  0
  -24.7990  -28.9040   20.1490 C   0  0  0  0  0  0  0  0  0  0  0  0
  -25.8940  -30.8020   21.3580 C   0  0  0  0  0  2  0  0  0  0  0  0
  -25.9680  -29.4260   20.7160 C   0  0  0  0  0  0  0  0  0  0  0  0
  -27.1590  -28.6620   20.6980 C   0  0  0  0  0  3  0  0  0  0  0  0
  -25.9900  -26.8400   19.6050 C   0  0  0  0  0  3  0  0  0  0  0  0
  -24.8080  -27.6110   19.5970 C   0  0  0  0  0  3  0  0  0  0  0  0
  -23.5600  -29.7730   20.1990 C   0  0  0  0  0  2  0  0  0  0  0  0
  -24.6320  -31.0640   22.1020 N   0  0  0  0  0  0  0  0  0  0  0  0
  -23.5120  -32.1450   23.7530 O   0  0  0  0  0  0  0  0  0  0  0  0
  -22.7120  -29.4530   22.5490 C   0  0  0  0  0  0  0  0  0  0  0  0
  -21.3850  -29.2710   22.4330 N   0  0  0  0  0  0  0  0  0  0  0  0
  -23.3990  -28.8330   23.3650 O   0  0  0  0  0  0  0  0  0  0  0  0
  -20.8920  -29.8190   21.7440 H   0  0  0  0  0  0  0  0  0  0  0  0
  -18.0110  -28.0830   22.9500 C   0  0  0  0  0  0  0  0  0  0  0  0
  -20.5720  -28.3390   23.2150 C   0  0  0  0  0  3  0  0  0  0  0  0
  -20.6700  -26.9050   22.6420 C   0  0  0  0  0  2  0  0  0  0  0  0
  -19.5630  -26.5790   21.6350 C   0  0  0  0  0  2  0  0  0  0  0  0
  -18.1820  -26.7280   22.2820 C   0  0  0  0  0  2  0  0  0  0  0  0
  -19.1320  -28.8450   23.3740 C   0  0  0  0  0  0  0  0  0  0  0  0
  -18.9150  -30.1120   23.9580 C   0  0  0  0  0  3  0  0  0  0  0  0
  -17.6110  -30.6130   24.1300 C   0  0  0  0  0  3  0  0  0  0  0  0
  -16.5050  -29.8460   23.7280 C   0  0  0  0  0  3  0  0  0  0  0  0
  -16.7050  -28.5840   23.1400 C   0  0  0  0  0  3  0  0  0  0  0  0
  -25.8820  -32.4920   23.8140 C   0  0  0  0  0  3  0  0  0  0  0  0
  -26.4110  -31.7190   25.0840 C   0  0  1  0  0  0  0  0  0  0  0  0
  -25.3320  -31.4860   26.1670 C   0  0  0  0  0  1  0  0  0  0  0  0
  -26.9860  -30.3380   24.6890 C   0  0  0  0  0  1  0  0  0  0  0  0
  -27.5690  -32.5120   25.7400 C   0  0  0  0  0  1  0  0  0  0  0  0
  -25.5850  -33.8900   24.1500 N   0  0  0  0  0  0  0  0  0  0  0  0
  -25.9130  -34.9410   23.3850 C   0  0  0  0  0  0  0  0  0  0  0  0
  -26.5700  -34.8330   22.3470 O   0  0  0  0  0  0  0  0  0  0  0  0
  -25.0080  -34.0470   24.9630 H   0  0  0  0  0  0  0  0  0  0  0  0
  -24.1950  -36.7450   23.0450 C   0  0  0  0  0  1  0  0  0  0  0  0
  -25.4370  -36.3300   23.8480 C   0  0  0  0  0  3  0  0  0  0  0  0
  -27.5760  -37.2060   24.6780 C   0  0  0  0  0  1  0  0  0  0  0  0
  -26.4720  -37.3810   23.7370 N   0  0  0  0  0  0  0  0  0  0  0  0
  -26.0690  -38.3010   23.8840 H   0  0  0  0  0  0  0  0  0  0  0  0
  1  2  1  0
  1  8  2  0
  2  3  1  0
  4  3  1  0
  5 22  1  0
  5  7  1  0
  5  4  1  0
  6 58  1  0
  6  7  1  0
  6  1  1  0
  7  9  1  0
 10  7  1  0
 11 25  1  0
 12 17  1  0
 13 14  1  0
 13 12  1  0
 15 14  1  0
 15 30  1  0
 15 16  1  0
 17 11  1  0
 17 16  1  0
 18 11  2  0
 19 21  1  0
 20 23  1  0
 20 19  2  0
 21 24  2  0
 21 25  1  0
 22 24  1  0
 23 22  2  0
 25 26  1  0
 27 28  2  0
 28 47  1  0
 29 28  1  0
 29 32  1  0
 30 27  1  0
 30 31  1  0
 31 29  2  0
 32 33  1  0
 33 34  2  0
 35 38  1  0
 35 34  1  0
 36 35  2  0
 37 36  1  0
 37 32  2  0
 38 39  1  0
 39 40  1  0
 40 41  2  0
 42 41  1  0
 42 46  1  0
 43 42  2  0
 44 39  2  0
 44 43  1  0
 45 44  1  0
 47 48  1  0
 48 51  1  0
 48 50  1  0
 49 47  2  0
 52 53  1  0
 52 27  1  0
 54 52  1  0
 55 20  1  0
 56 55  1  0
 57 55  1  0
 61 60  1  6
 61 59  1  0
 61 58  1  0
 61 62  1  0
 63 74  2  0
 64 62  1  0
 64 69  1  0
 65 73  1  0
 65 75  1  0
 66 72  1  0
 66 68  1  0
 67 73  1  0
 68 67  1  0
 69 68  2  0
 70 64  2  0
 71 70  1  0
 71 66  2  0
 72 65  1  0
 73 63  1  0
 75 77  2  0
 76 75  1  0
 78 76  1  0
 79 88  2  0
 79 84  1  0
 80 76  1  0
 80 84  1  0
 81 80  1  0
 82 83  1  0
 82 81  1  0
 83 79  1  0
 84 85  2  0
 85 86  1  0
 87 86  2  0
 88 87  1  0
 89 63  1  0
 89 94  1  0
 89 90  1  0
 90 93  1  1
 90 91  1  0
 92 90  1  0
 94 97  1  0
 95 99  1  0
 95 94  1  0
 96 95  2  0
 99 98  1  0
101 99  1  0
101102  1  0
101100  1  0
M  ISO  4  11 100  25 100  61 101  62 101
M  END
>  <TORSDO>  (65) 
F 19

>  <SCORE>  (65) 
-13.766

>  <name>  (65) 
64

>  <ligand_id>  (65) 
64

>  <original_smiles>  (65) 
[H]c1c(N([H])[H])nc(C2([H])C([H])([H])C([H])([H])C([H])([H])C(=O)C([H])(C([H])([H])C(Oc3c([H])c([H])c4c(c3[H])C([H])([H])N(C(=O)C([H])(N([H])C(=O)C([H])(N([H])C([H])([H])[H])C([H])([H])[H])C(C([H])([H])[H])(C([H])([H])[H])C([H])([H])[H])C([H])(C(=O)N([H])C3([H])c5c([H])c([H])c([H])c([H])c5C([H])([H])C([H])([H])C3([H])[H])C4([H])[H])(C([H])([H])[H])C([H])([H])[H])[N+]2([H])[H])nc1N([H])C(=O)N1C([H])([H])C([H])([H])C([H])([H])C([H])(n2nc(-c3c([H])c([H])c(Oc4c([H])c([H])c(F)c([H])c4F)c([H])c3[H])c(C(=O)N([H])[H])c2N([H])[H])C1([H])[H]

>  <smiles>  (65) 
[H]c1c(N([H])[H])nc(C2([H])C([H])([H])C([H])([H])C([H])([H])C(=O)C([H])(C([H])([H])C(Oc3c([H])c([H])c4c(c3[H])C([H])([H])N(C(=O)C([H])(N([H])C(=O)C([H])(N([H])C([H])([H])[H])C([H])([H])[H])C(C([H])([H])[H])(C([H])([H])[H])C([H])([H])[H])C([H])(C(=O)N([H])C3([H])c5c([H])c([H])c([H])c([H])c5C([H])([H])C([H])([H])C3([H])[H])C4([H])[H])(C([H])([H])[H])C([H])([H])[H])[N+]2([H])[H])nc1N([H])C(=O)N1C([H])([H])C([H])([H])C([H])([H])C([H])(n2nc(-c3c([H])c([H])c(Oc4c([H])c([H])c(F)c([H])c4F)c([H])c3[H])c(C(=O)N([H])[H])c2N([H])[H])C1([H])[H]

$$$$
65:0:0
     RDKit          3D

 97105  0  0  1  0  0  0  0  0999 V2000
  -28.2650  -20.5380   21.1000 C   0  0  0  0  0  2  0  0  0  0  0  0
  -32.0560  -20.8730   21.2010 C   0  0  0  0  0  3  0  0  0  0  0  0
  -32.5040  -19.5440   21.1480 C   0  0  0  0  0  3  0  0  0  0  0  0
  -30.6810  -21.1370   21.1920 C   0  0  0  0  0  3  0  0  0  0  0  0
  -31.5980  -18.4590   21.0950 C   0  0  0  0  0  0  0  0  0  0  0  0
  -29.7370  -20.0950   21.0820 C   0  0  0  0  0  0  0  0  0  0  0  0
  -30.1900  -18.7350   21.0500 C   0  0  0  0  0  0  0  0  0  0  0  0
  -29.1900  -17.5750   21.0310 C   0  0  0  0  0  3  0  0  0  0  0  0
  -29.4760  -16.6840   21.9800 F   0  0  0  0  0  0  0  0  0  0  0  0
  -29.1730  -16.9800   19.8410 F   0  0  0  0  0  0  0  0  0  0  0  0
  -32.2210  -17.0470   21.2200 C   0  0  0  0  0  2  0  0  0  0  0  0
  -32.0340  -14.9580   19.8100 C   0  0  0  0  0  0  0  0  0  0  0  0
  -31.5750  -12.7460   18.8110 C   0  0  0  0  0  2  0  0  0  0  0  0
  -30.6100  -12.8820   17.6200 C   0  0  0  0  0  2  0  0  0  0  0  0
  -29.1410  -12.8690   18.0860 C   0  0  0  0  0  2  0  0  0  0  0  0
  -28.8790  -13.8430   19.2620 C   0  0  0  0  0  3  0  0  0  0  0  0
  -29.9410  -13.6570   20.3620 C   0  0  0  0  0  2  0  0  0  0  0  0
  -31.2720  -13.8350   19.7470 N   0  0  0  0  0  0  0  0  0  0  0  0
  -33.1100  -15.0830   19.2150 O   0  0  0  0  0  0  0  0  0  0  0  0
  -31.5230  -15.9180   20.5960 N   0  0  0  0  0  0  0  0  0  0  0  0
  -30.5800  -15.7460   20.9030 H   0  0  0  0  0  0  0  0  0  0  0  0
  -26.5790  -14.6890   20.0330 C   0  0  0  0  0  0  0  0  0  0  0  0
  -25.4540  -14.0330   20.4610 C   0  0  0  0  0  0  0  0  0  0  0  0
  -25.7700  -12.6420   20.4190 C   0  0  0  0  0  0  0  0  0  0  0  0
  -27.5200  -13.7060   19.7810 N   0  0  0  0  0  0  0  0  0  0  0  0
  -27.0350  -12.4680   20.0540 N   0  0  0  0  0  0  0  0  0  0  0  0
  -24.9220  -11.4630   20.6470 C   0  0  0  0  0  0  0  0  0  0  0  0
  -25.2460  -10.5000   21.6270 C   0  0  0  0  0  3  0  0  0  0  0  0
  -24.4080   -9.3830   21.8370 C   0  0  0  0  0  3  0  0  0  0  0  0
  -23.2320   -9.2250   21.0660 C   0  0  0  0  0  0  0  0  0  0  0  0
  -22.9250  -10.1760   20.0780 C   0  0  0  0  0  3  0  0  0  0  0  0
  -23.7630  -11.2840   19.8670 C   0  0  0  0  0  3  0  0  0  0  0  0
  -22.3700   -8.1620   21.1830 O   0  0  0  0  0  0  0  0  0  0  0  0
  -22.1630   -7.5330   22.3850 C   0  0  0  0  0  0  0  0  0  0  0  0
  -21.7210   -8.2370   23.5250 C   0  0  0  0  0  3  0  0  0  0  0  0
  -21.4540   -7.5430   24.7210 C   0  0  0  0  0  3  0  0  0  0  0  0
  -21.6140   -6.1450   24.7770 C   0  0  0  0  0  0  0  0  0  0  0  0
  -22.0500   -5.4410   23.6400 C   0  0  0  0  0  3  0  0  0  0  0  0
  -22.3190   -6.1340   22.4460 C   0  0  0  0  0  0  0  0  0  0  0  0
  -22.7190   -5.4490   21.3470 F   0  0  0  0  0  0  0  0  0  0  0  0
  -21.3490   -5.4760   25.9220 F   0  0  0  0  0  0  0  0  0  0  0  0
  -24.1310  -14.6620   20.7940 C   0  0  0  0  0  0  0  0  0  0  0  0
  -23.3870  -14.0680   21.7210 N   0  0  0  0  0  0  0  0  0  0  0  0
  -23.7670  -15.7140   20.2700 O   0  0  0  0  0  0  0  0  0  0  0  0
  -23.6970  -13.2210   22.1710 H   0  0  0  0  0  0  0  0  0  0  0  0
  -22.4960  -14.4690   21.9870 H   0  0  0  0  0  0  0  0  0  0  0  0
  -26.8750  -16.0310   19.8270 N   0  0  0  0  0  0  0  0  0  0  0  0
  -26.2010  -16.7710   19.9810 H   0  0  0  0  0  0  0  0  0  0  0  0
  -27.7640  -16.3680   19.4790 H   0  0  0  0  0  0  0  0  0  0  0  0
  -27.4470  -22.3110   19.6310 C   0  0  0  0  0  0  0  0  0  0  0  0
  -26.8900  -20.0210   19.0510 C   0  0  0  0  0  1  0  0  0  0  0  0
  -27.6970  -20.9940   19.8110 N   0  0  0  0  0  0  0  0  0  0  0  0
  -26.2950  -22.7490   19.5450 O   0  0  0  0  0  0  0  0  0  0  0  0
  -28.6200  -23.2650   19.3710 C   0  0  0  0  0  2  0  0  0  0  0  0
  -28.5450  -24.6040   20.1390 C   0  0  0  0  0  2  0  0  0  0  0  0
  -29.1930  -25.7630   19.3550 C   0  0  0  0  0  2  0  0  0  0  0  0
  -28.9870  -27.0420   19.9640 O   0  0  0  0  0  0  0  0  0  0  0  0
  -24.6090  -31.6220   23.1780 C   0  0  0  0  0  0  0  0  0  0  0  0
  -27.7330  -27.6200   19.9380 C   0  0  0  0  0  0  0  0  0  0  0  0
  -23.5770  -30.2180   21.4190 C   0  0  0  0  0  3  0  0  0  0  0  0
  -25.2010  -28.8950   19.9680 C   0  0  0  0  0  0  0  0  0  0  0  0
  -26.0650  -30.8060   21.3270 C   0  0  0  0  0  2  0  0  0  0  0  0
  -26.2890  -29.4820   20.6240 C   0  0  0  0  0  0  0  0  0  0  0  0
  -27.5530  -28.8490   20.6120 C   0  0  0  0  0  3  0  0  0  0  0  0
  -26.6230  -27.0460   19.2730 C   0  0  0  0  0  3  0  0  0  0  0  0
  -25.3630  -27.6740   19.2940 C   0  0  0  0  0  3  0  0  0  0  0  0
  -23.8890  -29.6420   20.0130 C   0  0  0  0  0  2  0  0  0  0  0  0
  -24.7670  -30.8980   22.0340 N   0  0  0  0  0  0  0  0  0  0  0  0
  -23.4970  -31.7670   23.7000 O   0  0  0  0  0  0  0  0  0  0  0  0
  -23.0050  -29.0870   22.2980 C   0  0  0  0  0  0  0  0  0  0  0  0
  -21.7190  -28.7620   22.0840 N   0  0  0  0  0  0  0  0  0  0  0  0
  -23.7110  -28.5100   23.1280 O   0  0  0  0  0  0  0  0  0  0  0  0
  -21.2070  -29.2960   21.3950 H   0  0  0  0  0  0  0  0  0  0  0  0
  -18.5020  -27.1450   22.2830 C   0  0  0  0  0  0  0  0  0  0  0  0
  -20.9770  -27.7080   22.7680 C   0  0  0  0  0  3  0  0  0  0  0  0
  -21.3000  -26.3150   22.1730 C   0  0  0  0  0  2  0  0  0  0  0  0
  -20.3410  -25.9040   21.0540 C   0  0  0  0  0  2  0  0  0  0  0  0
  -18.9000  -25.8580   21.5760 C   0  0  0  0  0  2  0  0  0  0  0  0
  -19.4770  -28.0220   22.8270 C   0  0  0  0  0  0  0  0  0  0  0  0
  -19.0530  -29.2290   23.4300 C   0  0  0  0  0  3  0  0  0  0  0  0
  -17.6870  -29.5560   23.5030 C   0  0  0  0  0  3  0  0  0  0  0  0
  -16.7260  -28.6640   22.9910 C   0  0  0  0  0  3  0  0  0  0  0  0
  -17.1340  -27.4610   22.3910 C   0  0  0  0  0  3  0  0  0  0  0  0
  -25.8200  -32.3230   23.8740 C   0  0  0  0  0  3  0  0  0  0  0  0
  -25.4120  -33.7000   24.1870 N   0  0  0  0  0  0  0  0  0  0  0  0
  -25.7180  -34.7710   23.4420 C   0  0  0  0  0  0  0  0  0  0  0  0
  -26.4450  -34.7080   22.4480 O   0  0  0  0  0  0  0  0  0  0  0  0
  -24.7750  -33.8220   24.9600 H   0  0  0  0  0  0  0  0  0  0  0  0
  -23.8940  -36.4470   23.0010 C   0  0  0  0  0  1  0  0  0  0  0  0
  -25.1210  -36.1260   23.8670 C   0  0  0  0  0  3  0  0  0  0  0  0
  -27.1530  -37.1540   24.7870 C   0  0  0  0  0  1  0  0  0  0  0  0
  -26.0850  -37.2450   23.7950 N   0  0  0  0  0  0  0  0  0  0  0  0
  -25.6130  -38.1370   23.9140 H   0  0  0  0  0  0  0  0  0  0  0  0
  -26.3080  -31.5770   25.1780 C   0  0  1  0  0  0  0  0  0  0  0  0
  -25.1710  -31.2620   26.1770 C   0  0  0  0  0  1  0  0  0  0  0  0
  -27.0060  -30.2450   24.8150 C   0  0  0  0  0  1  0  0  0  0  0  0
  -27.3630  -32.4400   25.9130 C   0  0  0  0  0  1  0  0  0  0  0  0
  3  2  2  0
  4  2  1  0
  5  3  1  0
  5 11  1  0
  6  1  1  0
  6  4  2  0
  7  6  1  0
  7  5  2  0
  8  7  1  0
  8  9  1  0
 10  8  1  0
 12 20  1  0
 13 18  1  0
 14 15  1  0
 14 13  1  0
 16 15  1  0
 16 25  1  0
 16 17  1  0
 18 12  1  0
 18 17  1  0
 19 12  2  0
 20 21  1  0
 20 11  1  0
 22 23  2  0
 23 42  1  0
 24 23  1  0
 24 27  1  0
 25 22  1  0
 25 26  1  0
 26 24  2  0
 27 28  1  0
 28 29  2  0
 30 33  1  0
 30 29  1  0
 31 30  2  0
 32 31  1  0
 32 27  2  0
 33 34  1  0
 34 39  2  0
 34 35  1  0
 35 36  2  0
 36 37  1  0
 37 41  1  0
 38 37  2  0
 39 38  1  0
 40 39  1  0
 42 43  1  0
 43 46  1  0
 43 45  1  0
 44 42  2  0
 47 48  1  0
 47 22  1  0
 49 47  1  0
 50 52  1  0
 51 52  1  0
 52  1  1  0
 53 50  2  0
 54 50  1  0
 54 55  1  0
 56 57  1  0
 56 55  1  0
 58 69  2  0
 59 57  1  0
 59 64  1  0
 60 68  1  0
 60 70  1  0
 61 67  1  0
 61 63  1  0
 62 68  1  0
 63 62  1  0
 64 63  2  0
 65 66  1  0
 65 59  2  0
 66 61  2  0
 67 60  1  0
 68 58  1  0
 70 72  2  0
 71 70  1  0
 73 71  1  0
 74 83  2  0
 74 79  1  0
 75 71  1  0
 75 79  1  0
 76 75  1  0
 77 78  1  0
 77 76  1  0
 78 74  1  0
 79 80  2  0
 80 81  1  0
 82 81  2  0
 83 82  1  0
 84 58  1  0
 84 85  1  0
 84 94  1  0
 85 88  1  0
 86 90  1  0
 86 85  1  0
 87 86  2  0
 90 89  1  0
 92 90  1  0
 92 93  1  0
 92 91  1  0
 94 97  1  1
 94 95  1  0
 96 94  1  0
M  ISO  4  12 100  20 100  56 101  57 101
M  END
>  <TORSDO>  (66) 
F 23

>  <SCORE>  (66) 
-9.833

>  <name>  (66) 
65

>  <ligand_id>  (66) 
65

>  <original_smiles>  (66) 
[H]c1c([H])c(C([H])([H])N([H])C(=O)N2C([H])([H])C([H])([H])C([H])([H])C([H])(n3nc(-c4c([H])c([H])c(Oc5c([H])c([H])c(F)c([H])c5F)c([H])c4[H])c(C(=O)N([H])[H])c3N([H])[H])C2([H])[H])c(C([H])(F)F)c(C([H])([H])N(C(=O)C([H])([H])C([H])([H])C([H])([H])Oc2c([H])c([H])c3c(c2[H])C([H])([H])N(C(=O)C([H])(N([H])C(=O)C([H])(N([H])C([H])([H])[H])C([H])([H])[H])C(C([H])([H])[H])(C([H])([H])[H])C([H])([H])[H])C([H])(C(=O)N([H])C2([H])c4c([H])c([H])c([H])c([H])c4C([H])([H])C([H])([H])C2([H])[H])C3([H])[H])C([H])([H])[H])c1[H]

>  <smiles>  (66) 
[H]c1c([H])c(C([H])([H])N([H])C(=O)N2C([H])([H])C([H])([H])C([H])([H])C([H])(n3nc(-c4c([H])c([H])c(Oc5c([H])c([H])c(F)c([H])c5F)c([H])c4[H])c(C(=O)N([H])[H])c3N([H])[H])C2([H])[H])c(C([H])(F)F)c(C([H])([H])N(C(=O)C([H])([H])C([H])([H])C([H])([H])Oc2c([H])c([H])c3c(c2[H])C([H])([H])N(C(=O)C([H])(N([H])C(=O)C([H])(N([H])C([H])([H])[H])C([H])([H])[H])C(C([H])([H])[H])(C([H])([H])[H])C([H])([H])[H])C([H])(C(=O)N([H])C2([H])c4c([H])c([H])c([H])c([H])c4C([H])([H])C([H])([H])C2([H])[H])C3([H])[H])C([H])([H])[H])c1[H]

$$$$
66:0:0
     RDKit          3D

 98106  0  0  1  0  0  0  0  0999 V2000
  -30.3990  -20.8050   19.3940 N   0  0  0  0  0  0  0  0  0  0  0  0
  -30.0870  -20.9470   18.4400 H   0  0  0  0  0  0  0  0  0  0  0  0
  -30.7820  -17.7580   21.5650 C   0  0  0  0  0  3  0  0  0  0  0  0
  -29.6310  -18.5170   19.0980 C   0  0  0  0  0  0  0  0  0  0  0  0
  -30.1720  -16.7820   20.7520 C   0  0  0  0  0  0  0  0  0  0  0  0
  -30.2900  -19.4930   19.8920 C   0  0  0  0  0  0  0  0  0  0  0  0
  -30.8480  -19.1020   21.1390 C   0  0  0  0  0  0  0  0  0  0  0  0
  -29.5790  -17.1720   19.5300 C   0  0  0  0  0  0  0  0  0  0  0  0
  -31.4790  -20.0080   21.9240 F   0  0  0  0  0  0  0  0  0  0  0  0
  -28.9510  -16.2430   18.7670 F   0  0  0  0  0  0  0  0  0  0  0  0
  -30.7750  -14.4530   20.4930 C   0  0  0  0  0  0  0  0  0  0  0  0
  -30.4690  -12.3290   19.2930 C   0  0  0  0  0  2  0  0  0  0  0  0
  -29.5300  -12.5780   18.0960 C   0  0  0  0  0  2  0  0  0  0  0  0
  -28.0540  -12.4310   18.5200 C   0  0  0  0  0  2  0  0  0  0  0  0
  -27.7200  -13.2340   19.8050 C   0  0  0  0  0  3  0  0  0  0  0  0
  -28.7720  -12.9750   20.9080 C   0  0  0  0  0  2  0  0  0  0  0  0
  -30.1040  -13.2790   20.3530 N   0  0  0  0  0  0  0  0  0  0  0  0
  -31.8780  -14.6690   19.9830 O   0  0  0  0  0  0  0  0  0  0  0  0
  -30.1210  -15.4200   21.1560 N   0  0  0  0  0  0  0  0  0  0  0  0
  -29.2720  -15.1240   21.6130 H   0  0  0  0  0  0  0  0  0  0  0  0
  -25.3110  -13.8250   20.4970 C   0  0  0  0  0  0  0  0  0  0  0  0
  -24.2460  -13.0450   20.8610 C   0  0  0  0  0  0  0  0  0  0  0  0
  -24.7170  -11.6960   20.8320 C   0  0  0  0  0  0  0  0  0  0  0  0
  -26.3640  -12.9510   20.2730 N   0  0  0  0  0  0  0  0  0  0  0  0
  -26.0080  -11.6650   20.5290 N   0  0  0  0  0  0  0  0  0  0  0  0
  -23.9990  -10.4280   21.0200 C   0  0  0  0  0  0  0  0  0  0  0  0
  -24.4230   -9.4750   21.9730 C   0  0  0  0  0  3  0  0  0  0  0  0
  -23.7070   -8.2710   22.1470 C   0  0  0  0  0  3  0  0  0  0  0  0
  -22.5540   -8.0130   21.3700 C   0  0  0  0  0  0  0  0  0  0  0  0
  -22.1500   -8.9550   20.4080 C   0  0  0  0  0  3  0  0  0  0  0  0
  -22.8660  -10.1500   20.2300 C   0  0  0  0  0  3  0  0  0  0  0  0
  -21.8110   -6.8590   21.4530 O   0  0  0  0  0  0  0  0  0  0  0  0
  -21.7330   -6.1350   22.6140 C   0  0  0  0  0  0  0  0  0  0  0  0
  -21.2300   -6.6930   23.8100 C   0  0  0  0  0  3  0  0  0  0  0  0
  -21.1030   -5.8920   24.9620 C   0  0  0  0  0  3  0  0  0  0  0  0
  -21.4700   -4.5330   24.9210 C   0  0  0  0  0  0  0  0  0  0  0  0
  -21.9670   -3.9750   23.7300 C   0  0  0  0  0  3  0  0  0  0  0  0
  -22.0950   -4.7720   22.5800 C   0  0  0  0  0  0  0  0  0  0  0  0
  -22.5550   -4.2230   21.4290 F   0  0  0  0  0  0  0  0  0  0  0  0
  -21.3420   -3.7620   26.0250 F   0  0  0  0  0  0  0  0  0  0  0  0
  -22.8440  -13.5110   21.1300 C   0  0  0  0  0  0  0  0  0  0  0  0
  -22.1140  -12.8000   21.9840 N   0  0  0  0  0  0  0  0  0  0  0  0
  -22.4030  -14.5390   20.6180 O   0  0  0  0  0  0  0  0  0  0  0  0
  -22.4810  -11.9680   22.4200 H   0  0  0  0  0  0  0  0  0  0  0  0
  -21.1730  -13.0950   22.2040 H   0  0  0  0  0  0  0  0  0  0  0  0
  -25.4700  -15.1960   20.3190 N   0  0  0  0  0  0  0  0  0  0  0  0
  -24.7060  -15.8540   20.4210 H   0  0  0  0  0  0  0  0  0  0  0  0
  -26.3220  -15.6270   19.9810 H   0  0  0  0  0  0  0  0  0  0  0  0
  -29.9140  -18.8000   16.5790 C   0  0  0  0  0  1  0  0  0  0  0  0
  -28.9590  -18.8830   17.7770 C   0  0  0  0  0  2  0  0  0  0  0  0
  -30.2550  -21.9910   20.2450 C   0  0  0  0  0  2  0  0  0  0  0  0
  -29.6670  -23.1670   19.4280 C   0  0  2  0  0  0  0  0  0  0  0  0
  -28.4920  -22.7560   18.9410 F   0  0  0  0  0  0  0  0  0  0  0  0
  -30.4750  -23.4160   18.3950 F   0  0  0  0  0  0  0  0  0  0  0  0
  -29.4620  -24.4750   20.2200 C   0  0  0  0  0  0  0  0  0  0  0  0
  -30.2030  -24.8070   21.1530 O   0  0  0  0  0  0  0  0  0  0  0  0
  -28.2860  -25.3510   19.7650 C   0  0  0  0  0  2  0  0  0  0  0  0
  -28.3650  -26.7040   20.2410 O   0  0  0  0  0  0  0  0  0  0  0  0
  -24.5500  -31.9110   23.2470 C   0  0  0  0  0  0  0  0  0  0  0  0
  -27.1910  -27.4360   20.2000 C   0  0  0  0  0  0  0  0  0  0  0  0
  -23.3480  -30.5100   21.6040 C   0  0  0  0  0  3  0  0  0  0  0  0
  -24.8030  -28.9620   20.1960 C   0  0  0  0  0  0  0  0  0  0  0  0
  -25.8790  -30.8500   21.4250 C   0  0  0  0  0  2  0  0  0  0  0  0
  -25.9600  -29.4760   20.7920 C   0  0  0  0  0  0  0  0  0  0  0  0
  -27.1550  -28.7190   20.7950 C   0  0  0  0  0  3  0  0  0  0  0  0
  -26.0080  -26.9450   19.5920 C   0  0  0  0  0  3  0  0  0  0  0  0
  -24.8210  -27.6960   19.5960 C   0  0  0  0  0  3  0  0  0  0  0  0
  -23.5630  -29.8270   20.2290 C   0  0  0  0  0  2  0  0  0  0  0  0
  -24.6110  -31.1050   22.1510 N   0  0  0  0  0  0  0  0  0  0  0  0
  -23.4660  -32.1930   23.7770 O   0  0  0  0  0  0  0  0  0  0  0  0
  -22.6860  -29.4930   22.5630 C   0  0  0  0  0  0  0  0  0  0  0  0
  -21.3640  -29.3080   22.4170 N   0  0  0  0  0  0  0  0  0  0  0  0
  -23.3580  -28.8750   23.3920 O   0  0  0  0  0  0  0  0  0  0  0  0
  -20.8830  -29.8580   21.7190 H   0  0  0  0  0  0  0  0  0  0  0  0
  -17.9790  -28.1350   22.8910 C   0  0  0  0  0  0  0  0  0  0  0  0
  -20.5360  -28.3770   23.1830 C   0  0  0  0  0  3  0  0  0  0  0  0
  -20.6350  -26.9440   22.6120 C   0  0  0  0  0  2  0  0  0  0  0  0
  -19.5400  -26.6240   21.5890 C   0  0  0  0  0  2  0  0  0  0  0  0
  -18.1540  -26.7810   22.2220 C   0  0  0  0  0  2  0  0  0  0  0  0
  -19.0980  -28.8900   23.3280 C   0  0  0  0  0  0  0  0  0  0  0  0
  -18.8840  -30.1580   23.9110 C   0  0  0  0  0  3  0  0  0  0  0  0
  -17.5810  -30.6680   24.0630 C   0  0  0  0  0  3  0  0  0  0  0  0
  -16.4750  -29.9080   23.6440 C   0  0  0  0  0  3  0  0  0  0  0  0
  -16.6750  -28.6430   23.0630 C   0  0  0  0  0  3  0  0  0  0  0  0
  -25.8350  -32.5380   23.8730 C   0  0  0  0  0  3  0  0  0  0  0  0
  -25.5350  -33.9410   24.1820 N   0  0  0  0  0  0  0  0  0  0  0  0
  -25.8910  -34.9820   23.4170 C   0  0  0  0  0  0  0  0  0  0  0  0
  -26.5790  -34.8610   22.3990 O   0  0  0  0  0  0  0  0  0  0  0  0
  -24.9260  -34.1110   24.9700 H   0  0  0  0  0  0  0  0  0  0  0  0
  -24.2030  -36.7970   22.9900 C   0  0  0  0  0  1  0  0  0  0  0  0
  -25.4080  -36.3800   23.8500 C   0  0  0  0  0  3  0  0  0  0  0  0
  -27.5200  -37.2410   24.7560 C   0  0  0  0  0  1  0  0  0  0  0  0
  -26.4590  -37.4160   23.7680 N   0  0  0  0  0  0  0  0  0  0  0  0
  -26.0600  -38.3430   23.8910 H   0  0  0  0  0  0  0  0  0  0  0  0
  -26.3340  -31.7750   25.1610 C   0  0  1  0  0  0  0  0  0  0  0  0
  -25.2280  -31.5520   26.2180 C   0  0  0  0  0  1  0  0  0  0  0  0
  -26.9140  -30.3910   24.7850 C   0  0  0  0  0  1  0  0  0  0  0  0
  -27.4820  -32.5700   25.8280 C   0  0  0  0  0  1  0  0  0  0  0  0
  1  6  1  0
  1 51  1  0
  2  1  1  0
  4  8  2  0
  4  6  1  0
  5 19  1  0
  5  3  2  0
  6  7  2  0
  7  3  1  0
  7  9  1  0
  8  5  1  0
 10  8  1  0
 11 19  1  0
 12 17  1  0
 13 14  1  0
 13 12  1  0
 15 14  1  0
 15 24  1  0
 15 16  1  0
 17 11  1  0
 17 16  1  0
 18 11  2  0
 19 20  1  0
 21 22  2  0
 22 41  1  0
 23 22  1  0
 23 26  1  0
 24 21  1  0
 24 25  1  0
 25 23  2  0
 26 27  1  0
 27 28  2  0
 29 32  1  0
 29 28  1  0
 30 29  2  0
 31 30  1  0
 31 26  2  0
 32 33  1  0
 33 34  1  0
 34 35  2  0
 36 35  1  0
 36 40  1  0
 37 36  2  0
 38 33  2  0
 38 37  1  0
 39 38  1  0
 41 42  1  0
 42 45  1  0
 42 44  1  0
 43 41  2  0
 46 47  1  0
 46 21  1  0
 48 46  1  0
 49 50  1  0
 50  4  1  0
 52 55  1  0
 52 51  1  0
 52 53  1  6
 54 52  1  0
 55 56  2  0
 57 55  1  0
 57 58  1  0
 59 70  2  0
 60 58  1  0
 60 65  1  0
 61 69  1  0
 61 71  1  0
 62 68  1  0
 62 64  1  0
 63 69  1  0
 64 65  2  0
 64 63  1  0
 66 67  1  0
 66 60  2  0
 67 62  2  0
 68 61  1  0
 69 59  1  0
 71 73  2  0
 72 71  1  0
 74 72  1  0
 75 84  2  0
 75 80  1  0
 76 72  1  0
 76 80  1  0
 77 76  1  0
 78 79  1  0
 78 77  1  0
 79 75  1  0
 80 81  2  0
 81 82  1  0
 83 82  2  0
 84 83  1  0
 85 59  1  0
 85 86  1  0
 85 95  1  0
 86 89  1  0
 87 91  1  0
 87 86  1  0
 88 87  2  0
 91 90  1  0
 93 91  1  0
 93 94  1  0
 93 92  1  0
 95 98  1  1
 95 96  1  0
 97 95  1  0
M  ISO  4  11 100  19 100  57 101  58 101
M  END
>  <TORSDO>  (67) 
F 22

>  <SCORE>  (67) 
-13.662

>  <name>  (67) 
66

>  <ligand_id>  (67) 
66

>  <original_smiles>  (67) 
[H]c1c([H])c([H])c2c(c1[H])C([H])([H])C([H])([H])C([H])([H])C2([H])N([H])C(=O)C1([H])N(C(=O)C([H])(N([H])C(=O)C([H])(N([H])C([H])([H])[H])C([H])([H])[H])C(C([H])([H])[H])(C([H])([H])[H])C([H])([H])[H])C([H])([H])c2c([H])c(OC([H])([H])C(=O)C(F)(F)C([H])([H])N([H])c3c(F)c([H])c(N([H])C(=O)N4C([H])([H])C([H])([H])C([H])([H])C([H])(n5nc(-c6c([H])c([H])c(Oc7c([H])c([H])c(F)c([H])c7F)c([H])c6[H])c(C(=O)N([H])[H])c5N([H])[H])C4([H])[H])c(F)c3C([H])([H])C([H])([H])[H])c([H])c([H])c2C1([H])[H]

>  <smiles>  (67) 
[H]c1c([H])c([H])c2c(c1[H])C([H])([H])C([H])([H])C([H])([H])C2([H])N([H])C(=O)C1([H])N(C(=O)C([H])(N([H])C(=O)C([H])(N([H])C([H])([H])[H])C([H])([H])[H])C(C([H])([H])[H])(C([H])([H])[H])C([H])([H])[H])C([H])([H])c2c([H])c(OC([H])([H])C(=O)C(F)(F)C([H])([H])N([H])c3c(F)c([H])c(N([H])C(=O)N4C([H])([H])C([H])([H])C([H])([H])C([H])(n5nc(-c6c([H])c([H])c(Oc7c([H])c([H])c(F)c([H])c7F)c([H])c6[H])c(C(=O)N([H])[H])c5N([H])[H])C4([H])[H])c(F)c3C([H])([H])C([H])([H])[H])c([H])c([H])c2C1([H])[H]

$$$$
67:0:0
     RDKit          3D

 99107  0  0  1  0  0  0  0  0999 V2000
  -27.9650  -20.5010   21.8720 C   0  0  0  0  0  1  0  0  0  0  0  0
  -29.0010  -20.6710   20.7470 C   0  0  0  0  0  3  0  0  0  0  0  0
  -30.9180  -14.7570   20.0620 C   0  0  0  0  0  0  0  0  0  0  0  0
  -30.5760  -12.5800   18.9420 C   0  0  0  0  0  2  0  0  0  0  0  0
  -29.5770  -12.7480   17.7790 C   0  0  0  0  0  2  0  0  0  0  0  0
  -28.1300  -12.5850   18.2800 C   0  0  0  0  0  2  0  0  0  0  0  0
  -27.8340  -13.4340   19.5450 C   0  0  0  0  0  3  0  0  0  0  0  0
  -28.9460  -13.2650   20.6070 C   0  0  0  0  0  2  0  0  0  0  0  0
  -30.2350  -13.5800   19.9700 N   0  0  0  0  0  0  0  0  0  0  0  0
  -32.0190  -14.8990   19.5220 O   0  0  0  0  0  0  0  0  0  0  0  0
  -29.7040  -18.1860   20.7160 C   0  0  0  0  0  3  0  0  0  0  0  0
  -30.0740  -19.5600   20.8080 C   0  0  0  0  0  0  0  0  0  0  0  0
  -31.4510  -19.8490   20.9400 C   0  0  0  0  0  0  0  0  0  0  0  0
  -30.6860  -17.1580   20.7490 C   0  0  0  0  0  0  0  0  0  0  0  0
  -32.3540  -18.7740   20.9970 C   0  0  0  0  0  0  0  0  0  0  0  0
  -31.9920  -17.4830   20.9160 N   0  0  0  0  0  0  0  0  0  0  0  0
  -30.2500  -15.7960   20.6220 N   0  0  0  0  0  0  0  0  0  0  0  0
  -31.9200  -21.1230   21.0020 F   0  0  0  0  0  0  0  0  0  0  0  0
  -29.3070  -15.6000   20.9110 H   0  0  0  0  0  0  0  0  0  0  0  0
  -25.4820  -14.0090   20.4110 C   0  0  0  0  0  0  0  0  0  0  0  0
  -24.4370  -13.2210   20.8140 C   0  0  0  0  0  0  0  0  0  0  0  0
  -24.8960  -11.8720   20.7090 C   0  0  0  0  0  0  0  0  0  0  0  0
  -26.5120  -13.1380   20.0910 N   0  0  0  0  0  0  0  0  0  0  0  0
  -26.1670  -11.8460   20.3270 N   0  0  0  0  0  0  0  0  0  0  0  0
  -24.1820  -10.6020   20.8930 C   0  0  0  0  0  0  0  0  0  0  0  0
  -24.5710   -9.6720   21.8830 C   0  0  0  0  0  3  0  0  0  0  0  0
  -23.8570   -8.4670   22.0530 C   0  0  0  0  0  3  0  0  0  0  0  0
  -22.7390   -8.1820   21.2330 C   0  0  0  0  0  0  0  0  0  0  0  0
  -22.3700   -9.1000   20.2340 C   0  0  0  0  0  3  0  0  0  0  0  0
  -23.0860  -10.2970   20.0620 C   0  0  0  0  0  3  0  0  0  0  0  0
  -22.0020   -7.0250   21.3090 O   0  0  0  0  0  0  0  0  0  0  0  0
  -21.7670   -6.3990   22.5070 C   0  0  0  0  0  0  0  0  0  0  0  0
  -21.1140   -7.0520   23.5750 C   0  0  0  0  0  3  0  0  0  0  0  0
  -20.8320   -6.3490   24.7630 C   0  0  0  0  0  3  0  0  0  0  0  0
  -21.1920   -4.9940   24.8830 C   0  0  0  0  0  0  0  0  0  0  0  0
  -21.8380   -4.3400   23.8180 C   0  0  0  0  0  3  0  0  0  0  0  0
  -22.1220   -5.0410   22.6320 C   0  0  0  0  0  0  0  0  0  0  0  0
  -22.7250   -4.4010   21.6020 F   0  0  0  0  0  0  0  0  0  0  0  0
  -20.9140   -4.3160   26.0210 F   0  0  0  0  0  0  0  0  0  0  0  0
  -23.0570  -13.6850   21.1810 C   0  0  0  0  0  0  0  0  0  0  0  0
  -22.3790  -12.9580   22.0630 N   0  0  0  0  0  0  0  0  0  0  0  0
  -22.5890  -14.7260   20.7210 O   0  0  0  0  0  0  0  0  0  0  0  0
  -22.7710  -12.1140   22.4560 H   0  0  0  0  0  0  0  0  0  0  0  0
  -21.4560  -13.2500   22.3510 H   0  0  0  0  0  0  0  0  0  0  0  0
  -25.6360  -15.3850   20.2720 N   0  0  0  0  0  0  0  0  0  0  0  0
  -24.8710  -16.0310   20.4350 H   0  0  0  0  0  0  0  0  0  0  0  0
  -26.4510  -15.8320   19.8740 H   0  0  0  0  0  0  0  0  0  0  0  0
  -33.7120  -19.0110   21.1410 N   0  0  0  0  0  0  0  0  0  0  0  0
  -34.0210  -19.9580   20.9550 H   0  0  0  0  0  0  0  0  0  0  0  0
  -34.3490  -18.2930   20.8230 H   0  0  0  0  0  0  0  0  0  0  0  0
  -29.5380  -22.0660   20.7580 N   0  0  0  0  0  4  0  0  0  0  0  0
  -30.5500  -22.0000   20.7430 H   0  0  0  0  0  0  0  0  0  0  0  0
  -29.2990  -22.4910   21.6400 H   0  0  0  0  0  0  0  0  0  0  0  0
  -29.8380  -22.7440   18.3700 C   0  0  0  0  0  1  0  0  0  0  0  0
  -29.0580  -22.9780   19.6800 C   0  0  0  0  0  3  0  0  0  0  0  0
  -29.1830  -24.4650   20.1400 C   0  0  0  0  0  0  0  0  0  0  0  0
  -29.8730  -24.8150   21.1030 O   0  0  0  0  0  0  0  0  0  0  0  0
  -28.3730  -25.4990   19.3200 C   0  0  0  0  0  2  0  0  0  0  0  0
  -28.3970  -26.8520   19.8510 O   0  0  0  0  0  0  0  0  0  0  0  0
  -24.5430  -31.8680   23.1730 C   0  0  0  0  0  0  0  0  0  0  0  0
  -27.2140  -27.5840   19.8540 C   0  0  0  0  0  0  0  0  0  0  0  0
  -23.3330  -30.4980   21.5120 C   0  0  0  0  0  3  0  0  0  0  0  0
  -24.7870  -29.0630   19.9880 C   0  0  0  0  0  0  0  0  0  0  0  0
  -25.8490  -30.9200   21.2710 C   0  0  0  0  0  2  0  0  0  0  0  0
  -25.9500  -29.5770   20.5730 C   0  0  0  0  0  0  0  0  0  0  0  0
  -27.1620  -28.8410   20.5110 C   0  0  0  0  0  3  0  0  0  0  0  0
  -26.0260  -27.1170   19.2350 C   0  0  0  0  0  3  0  0  0  0  0  0
  -24.8220  -27.8330   19.3180 C   0  0  0  0  0  3  0  0  0  0  0  0
  -23.5240  -29.8850   20.1020 C   0  0  0  0  0  2  0  0  0  0  0  0
  -24.5940  -31.1090   22.0420 N   0  0  0  0  0  0  0  0  0  0  0  0
  -23.4690  -32.0920   23.7480 O   0  0  0  0  0  0  0  0  0  0  0  0
  -22.7370  -29.4180   22.4470 C   0  0  0  0  0  0  0  0  0  0  0  0
  -21.4270  -29.1590   22.3050 N   0  0  0  0  0  0  0  0  0  0  0  0
  -23.4510  -28.8220   23.2570 O   0  0  0  0  0  0  0  0  0  0  0  0
  -20.9110  -29.6980   21.6240 H   0  0  0  0  0  0  0  0  0  0  0  0
  -18.1370  -27.7180   22.7130 C   0  0  0  0  0  0  0  0  0  0  0  0
  -20.6610  -28.1610   23.0520 C   0  0  0  0  0  3  0  0  0  0  0  0
  -20.8830  -26.7430   22.4770 C   0  0  0  0  0  2  0  0  0  0  0  0
  -19.8330  -26.3450   21.4340 C   0  0  0  0  0  2  0  0  0  0  0  0
  -18.4280  -26.3860   22.0420 C   0  0  0  0  0  2  0  0  0  0  0  0
  -19.1860  -28.5580   23.1740 C   0  0  0  0  0  0  0  0  0  0  0  0
  -18.8600  -29.8010   23.7590 C   0  0  0  0  0  3  0  0  0  0  0  0
  -17.5190  -30.2050   23.8910 C   0  0  0  0  0  3  0  0  0  0  0  0
  -16.4840  -29.3630   23.4490 C   0  0  0  0  0  3  0  0  0  0  0  0
  -16.7930  -28.1220   22.8650 C   0  0  0  0  0  3  0  0  0  0  0  0
  -25.8260  -32.5140   23.7800 C   0  0  0  0  0  3  0  0  0  0  0  0
  -25.4970  -33.9010   24.1330 N   0  0  0  0  0  0  0  0  0  0  0  0
  -25.8100  -34.9700   23.3890 C   0  0  0  0  0  0  0  0  0  0  0  0
  -26.4790  -34.8930   22.3540 O   0  0  0  0  0  0  0  0  0  0  0  0
  -24.8990  -34.0330   24.9360 H   0  0  0  0  0  0  0  0  0  0  0  0
  -24.0590  -36.7450   23.0600 C   0  0  0  0  0  1  0  0  0  0  0  0
  -25.3030  -36.3430   23.8690 C   0  0  0  0  0  3  0  0  0  0  0  0
  -27.4200  -37.2430   24.7270 C   0  0  0  0  0  1  0  0  0  0  0  0
  -26.3210  -37.4120   23.7800 N   0  0  0  0  0  0  0  0  0  0  0  0
  -25.9020  -38.3240   23.9400 H   0  0  0  0  0  0  0  0  0  0  0  0
  -26.3780  -31.7340   25.0370 C   0  0  1  0  0  0  0  0  0  0  0  0
  -25.3060  -31.4550   26.1170 C   0  0  0  0  0  1  0  0  0  0  0  0
  -26.9860  -30.3760   24.6150 C   0  0  0  0  0  1  0  0  0  0  0  0
  -27.5230  -32.5420   25.6930 C   0  0  0  0  0  1  0  0  0  0  0  0
  2 51  1  0
  2 12  1  0
  2  1  1  0
  3 17  1  0
  4  9  1  0
  5  6  1  0
  5  4  1  0
  7  6  1  0
  7 23  1  0
  7  8  1  0
  9  3  1  0
  9  8  1  0
 10  3  2  0
 11 14  2  0
 11 12  1  0
 12 13  2  0
 13 15  1  0
 13 18  1  0
 14 16  1  0
 15 48  1  0
 16 15  2  0
 17 14  1  0
 17 19  1  0
 20 21  2  0
 21 40  1  0
 22 21  1  0
 22 25  1  0
 23 24  1  0
 23 20  1  0
 24 22  2  0
 25 26  1  0
 26 27  2  0
 28 31  1  0
 28 27  1  0
 29 28  2  0
 30 29  1  0
 30 25  2  0
 31 32  1  0
 32 37  2  0
 32 33  1  0
 33 34  2  0
 34 35  1  0
 35 39  1  0
 36 35  2  0
 37 36  1  0
 38 37  1  0
 40 41  1  0
 41 44  1  0
 41 43  1  0
 42 40  2  0
 45 20  1  0
 45 46  1  0
 47 45  1  0
 49 48  1  0
 50 48  1  0
 51 53  1  0
 52 51  1  0
 55 54  1  0
 55 56  1  0
 55 51  1  0
 56 57  2  0
 58 59  1  0
 58 56  1  0
 59 61  1  0
 60 71  2  0
 61 66  1  0
 62 70  1  0
 62 72  1  0
 63 69  1  0
 63 65  1  0
 64 70  1  0
 65 64  1  0
 66 65  2  0
 67 68  1  0
 67 61  2  0
 68 63  2  0
 69 62  1  0
 70 60  1  0
 72 74  2  0
 73 72  1  0
 75 73  1  0
 76 85  2  0
 76 81  1  0
 77 73  1  0
 77 81  1  0
 78 77  1  0
 79 80  1  0
 79 78  1  0
 80 76  1  0
 81 82  2  0
 82 83  1  0
 84 83  2  0
 85 84  1  0
 86 60  1  0
 86 87  1  0
 86 96  1  0
 87 90  1  0
 88 92  1  0
 88 87  1  0
 89 88  2  0
 92 91  1  0
 94 92  1  0
 94 95  1  0
 94 93  1  0
 96 99  1  1
 96 97  1  0
 98 96  1  0
M  ISO  4   3 100  17 100  58 101  59 101
M  END
>  <TORSDO>  (68) 
F 21

>  <SCORE>  (68) 
-11.906

>  <name>  (68) 
67

>  <ligand_id>  (68) 
67

>  <original_smiles>  (68) 
[H]c1c([H])c([H])c2c(c1[H])C([H])([H])C([H])([H])C([H])([H])C2([H])N([H])C(=O)C1([H])N(C(=O)C([H])(N([H])C(=O)C([H])(N([H])C([H])([H])[H])C([H])([H])[H])C(C([H])([H])[H])(C([H])([H])[H])C([H])([H])[H])C([H])([H])c2c([H])c(OC([H])([H])C(=O)C([H])(C([H])([H])[H])[N+]([H])([H])C([H])(c3c([H])c(N([H])C(=O)N4C([H])([H])C([H])([H])C([H])([H])C([H])(n5nc(-c6c([H])c([H])c(Oc7c([H])c([H])c(F)c([H])c7F)c([H])c6[H])c(C(=O)N([H])[H])c5N([H])[H])C4([H])[H])nc(N([H])[H])c3F)C([H])([H])[H])c([H])c([H])c2C1([H])[H]

>  <smiles>  (68) 
[H]c1c([H])c([H])c2c(c1[H])C([H])([H])C([H])([H])C([H])([H])C2([H])N([H])C(=O)C1([H])N(C(=O)C([H])(N([H])C(=O)C([H])(N([H])C([H])([H])[H])C([H])([H])[H])C(C([H])([H])[H])(C([H])([H])[H])C([H])([H])[H])C([H])([H])c2c([H])c(OC([H])([H])C(=O)C([H])(C([H])([H])[H])[N+]([H])([H])C([H])(c3c([H])c(N([H])C(=O)N4C([H])([H])C([H])([H])C([H])([H])C([H])(n5nc(-c6c([H])c([H])c(Oc7c([H])c([H])c(F)c([H])c7F)c([H])c6[H])c(C(=O)N([H])[H])c5N([H])[H])C4([H])[H])nc(N([H])[H])c3F)C([H])([H])[H])c([H])c([H])c2C1([H])[H]

$$$$
68:0:0
     RDKit          3D

 96104  0  0  1  0  0  0  0  0999 V2000
  -28.4180  -19.7170   20.5560 C   0  0  0  0  0  3  0  0  0  0  0  0
  -28.5330  -17.2700   20.6660 C   0  0  0  0  0  3  0  0  0  0  0  0
  -30.5680  -18.6010   20.8230 C   0  0  0  0  0  0  0  0  0  0  0  0
  -29.8190  -19.8510   20.6800 C   0  0  0  0  0  0  0  0  0  0  0  0
  -29.9420  -17.2760   20.7300 C   0  0  0  0  0  0  0  0  0  0  0  0
  -27.7880  -18.4610   20.5850 C   0  0  0  0  0  0  0  0  0  0  0  0
  -32.0540  -18.7210   21.1130 C   0  0  0  0  0  1  0  0  0  0  0  0
  -26.4380  -18.3960   20.4950 F   0  0  0  0  0  0  0  0  0  0  0  0
  -31.1580  -15.0310   21.3530 C   0  0  0  0  0  0  0  0  0  0  0  0
  -31.2230  -12.5600   20.9490 C   0  0  0  0  0  2  0  0  0  0  0  0
  -30.5600  -12.1530   19.6130 C   0  0  0  0  0  2  0  0  0  0  0  0
  -29.0240  -12.0540   19.7410 C   0  0  0  0  0  2  0  0  0  0  0  0
  -28.3810  -13.1920   20.5790 C   0  0  0  0  0  3  0  0  0  0  0  0
  -29.1870  -13.4860   21.8590 C   0  0  0  0  0  2  0  0  0  0  0  0
  -30.5590  -13.7860   21.4370 N   0  0  0  0  0  0  0  0  0  0  0  0
  -32.3740  -15.1180   21.5320 O   0  0  0  0  0  0  0  0  0  0  0  0
  -30.5950  -15.9570   20.4650 N   0  0  0  0  0  0  0  0  0  0  0  0
  -25.9120  -13.8350   20.8520 C   0  0  0  0  0  0  0  0  0  0  0  0
  -24.7870  -13.0880   21.0670 C   0  0  0  0  0  0  0  0  0  0  0  0
  -25.2260  -11.7330   21.1690 C   0  0  0  0  0  0  0  0  0  0  0  0
  -26.9680  -12.9370   20.8490 N   0  0  0  0  0  0  0  0  0  0  0  0
  -26.5510  -11.6710   21.1030 N   0  0  0  0  0  0  0  0  0  0  0  0
  -24.4600  -10.4840   21.2630 C   0  0  0  0  0  0  0  0  0  0  0  0
  -24.7340   -9.5280   22.2650 C   0  0  0  0  0  3  0  0  0  0  0  0
  -23.9710   -8.3450   22.3480 C   0  0  0  0  0  3  0  0  0  0  0  0
  -22.9200   -8.1100   21.4290 C   0  0  0  0  0  0  0  0  0  0  0  0
  -22.6690   -9.0530   20.4160 C   0  0  0  0  0  3  0  0  0  0  0  0
  -23.4330  -10.2290   20.3300 C   0  0  0  0  0  3  0  0  0  0  0  0
  -22.1420   -6.9780   21.4200 O   0  0  0  0  0  0  0  0  0  0  0  0
  -21.7720   -6.3480   22.5810 C   0  0  0  0  0  0  0  0  0  0  0  0
  -21.0950   -7.0300   23.6150 C   0  0  0  0  0  3  0  0  0  0  0  0
  -20.6720   -6.3290   24.7620 C   0  0  0  0  0  3  0  0  0  0  0  0
  -20.9170   -4.9470   24.8730 C   0  0  0  0  0  0  0  0  0  0  0  0
  -21.5830   -4.2650   23.8400 C   0  0  0  0  0  3  0  0  0  0  0  0
  -22.0070   -4.9630   22.6960 C   0  0  0  0  0  0  0  0  0  0  0  0
  -22.6320   -4.2970   21.6950 F   0  0  0  0  0  0  0  0  0  0  0  0
  -20.5030   -4.2710   25.9720 F   0  0  0  0  0  0  0  0  0  0  0  0
  -23.3720  -13.5890   21.0650 C   0  0  0  0  0  0  0  0  0  0  0  0
  -22.4990  -12.9630   21.8460 N   0  0  0  0  0  0  0  0  0  0  0  0
  -23.0410  -14.5720   20.4020 O   0  0  0  0  0  0  0  0  0  0  0  0
  -22.7720  -12.1730   22.4090 H   0  0  0  0  0  0  0  0  0  0  0  0
  -21.5420  -13.2820   21.8780 H   0  0  0  0  0  0  0  0  0  0  0  0
  -26.1250  -15.1910   20.6280 N   0  0  0  0  0  0  0  0  0  0  0  0
  -25.3620  -15.8530   20.5410 H   0  0  0  0  0  0  0  0  0  0  0  0
  -27.0050  -15.5670   20.3000 H   0  0  0  0  0  0  0  0  0  0  0  0
  -30.8140  -15.5440   19.0480 C   0  0  0  0  0  2  0  0  0  0  0  0
  -31.8870  -15.8760   16.7880 C   0  0  0  0  0  1  0  0  0  0  0  0
  -31.1880  -16.5690   17.9630 C   0  0  0  0  0  3  0  0  0  0  0  0
  -30.1040  -17.1770   17.4790 F   0  0  0  0  0  0  0  0  0  0  0  0
  -30.3950  -21.1870   20.6760 N   0  0  0  0  0  0  0  0  0  0  0  0
  -31.4080  -21.2680   20.7070 H   0  0  0  0  0  0  0  0  0  0  0  0
  -29.6730  -22.4340   20.1800 C   0  0  0  0  0  2  0  0  0  0  0  0
  -30.2510  -23.9150   20.4120 C   0  0  0  0  0  0  0  0  0  0  0  0
  -31.3040  -24.0700   21.0400 O   0  0  0  0  0  0  0  0  0  0  0  0
  -29.4440  -25.1710   19.8310 C   0  0  0  0  0  2  0  0  0  0  0  0
  -29.7160  -26.5670   20.3190 O   0  0  0  0  0  0  0  0  0  0  0  0
  -25.7000  -31.4230   23.9120 C   0  0  0  0  0  0  0  0  0  0  0  0
  -28.6160  -27.4620   20.3130 C   0  0  0  0  0  0  0  0  0  0  0  0
  -24.6430  -30.3180   21.9720 C   0  0  0  0  0  3  0  0  0  0  0  0
  -26.2280  -29.0620   20.4030 C   0  0  0  0  0  0  0  0  0  0  0  0
  -27.1830  -30.6860   22.0290 C   0  0  0  0  0  2  0  0  0  0  0  0
  -27.3420  -29.4370   21.1640 C   0  0  0  0  0  0  0  0  0  0  0  0
  -28.5380  -28.6520   21.1130 C   0  0  0  0  0  3  0  0  0  0  0  0
  -27.4830  -27.1730   19.5170 C   0  0  0  0  0  3  0  0  0  0  0  0
  -26.3070  -27.9420   19.5620 C   0  0  0  0  0  3  0  0  0  0  0  0
  -24.9700  -29.9000   20.5130 C   0  0  0  0  0  2  0  0  0  0  0  0
  -25.8570  -30.8150   22.6970 N   0  0  0  0  0  0  0  0  0  0  0  0
  -24.5750  -31.5900   24.4080 O   0  0  0  0  0  0  0  0  0  0  0  0
  -23.9380  -29.1420   22.6930 C   0  0  0  0  0  0  0  0  0  0  0  0
  -22.6430  -28.9400   22.3980 N   0  0  0  0  0  0  0  0  0  0  0  0
  -24.5610  -28.4230   23.4790 O   0  0  0  0  0  0  0  0  0  0  0  0
  -22.1990  -29.5750   21.7500 H   0  0  0  0  0  0  0  0  0  0  0  0
  -19.2870  -27.5860   22.3810 C   0  0  0  0  0  0  0  0  0  0  0  0
  -21.7990  -27.8680   22.9290 C   0  0  0  0  0  3  0  0  0  0  0  0
  -22.0120  -26.5530   22.1450 C   0  0  0  0  0  2  0  0  0  0  0  0
  -21.0200  -26.3710   20.9920 C   0  0  0  0  0  2  0  0  0  0  0  0
  -19.5800  -26.3720   21.5170 C   0  0  0  0  0  2  0  0  0  0  0  0
  -20.3300  -28.2980   23.0320 C   0  0  0  0  0  0  0  0  0  0  0  0
  -20.0060  -29.4390   23.7960 C   0  0  0  0  0  3  0  0  0  0  0  0
  -18.6710  -29.8710   23.9170 C   0  0  0  0  0  3  0  0  0  0  0  0
  -17.6410  -29.1540   23.2850 C   0  0  0  0  0  3  0  0  0  0  0  0
  -17.9490  -28.0130   22.5220 C   0  0  0  0  0  3  0  0  0  0  0  0
  -26.9230  -31.9520   24.7220 C   0  0  0  0  0  3  0  0  0  0  0  0
  -26.6410  -33.3440   25.1000 N   0  0  0  0  0  0  0  0  0  0  0  0
  -27.1300  -34.4200   24.4690 C   0  0  0  0  0  0  0  0  0  0  0  0
  -27.9360  -34.3380   23.5380 O   0  0  0  0  0  0  0  0  0  0  0  0
  -25.9510  -33.4840   25.8240 H   0  0  0  0  0  0  0  0  0  0  0  0
  -25.6040  -36.3540   23.9660 C   0  0  0  0  0  1  0  0  0  0  0  0
  -26.6530  -35.8040   24.9470 C   0  0  0  0  0  3  0  0  0  0  0  0
  -28.6490  -36.4750   26.2090 C   0  0  0  0  0  1  0  0  0  0  0  0
  -27.7490  -36.7860   25.1020 N   0  0  0  0  0  0  0  0  0  0  0  0
  -27.3770  -37.7200   25.2490 H   0  0  0  0  0  0  0  0  0  0  0  0
  -27.2420  -31.0840   26.0010 C   0  0  1  0  0  0  0  0  0  0  0  0
  -26.0100  -30.8210   26.8970 C   0  0  0  0  0  1  0  0  0  0  0  0
  -27.8290  -29.7120   25.5980 C   0  0  0  0  0  1  0  0  0  0  0  0
  -28.3170  -31.7900   26.8590 C   0  0  0  0  0  1  0  0  0  0  0  0
  1  6  2  0
  1  4  1  0
  2  5  2  0
  3  7  1  0
  4  3  2  0
  5  3  1  0
  6  2  1  0
  8  6  1  0
  9 15  1  0
  9 16  2  0
 10 15  1  0
 11 12  1  0
 11 10  1  0
 13 12  1  0
 13 21  1  0
 13 14  1  0
 15 14  1  0
 17  5  1  0
 17  9  1  0
 18 19  2  0
 19 20  1  0
 20 23  1  0
 21 18  1  0
 21 22  1  0
 22 20  2  0
 23 24  1  0
 24 25  2  0
 26 25  1  0
 27 26  2  0
 28 27  1  0
 28 23  2  0
 29 26  1  0
 29 30  1  0
 30 35  2  0
 30 31  1  0
 31 32  2  0
 32 33  1  0
 33 37  1  0
 34 33  2  0
 35 34  1  0
 36 35  1  0
 38 19  1  0
 38 39  1  0
 39 42  1  0
 39 41  1  0
 40 38  2  0
 43 18  1  0
 44 43  1  0
 45 43  1  0
 46 17  1  0
 48 47  1  0
 48 46  1  0
 49 48  1  0
 50  4  1  0
 50 51  1  0
 52 53  1  0
 52 50  1  0
 53 54  2  0
 55 56  1  0
 55 53  1  0
 57 68  2  0
 58 56  1  0
 58 63  1  0
 59 69  1  0
 59 67  1  0
 60 66  1  0
 60 62  1  0
 61 67  1  0
 62 61  1  0
 63 62  2  0
 64 65  1  0
 64 58  2  0
 65 60  2  0
 66 59  1  0
 67 57  1  0
 69 71  2  0
 70 69  1  0
 72 70  1  0
 73 82  2  0
 73 78  1  0
 74 70  1  0
 74 78  1  0
 75 74  1  0
 76 77  1  0
 76 75  1  0
 77 73  1  0
 78 79  2  0
 79 80  1  0
 81 80  2  0
 82 81  1  0
 83 57  1  0
 83 84  1  0
 83 93  1  0
 84 87  1  0
 85 89  1  0
 85 84  1  0
 86 85  2  0
 89 88  1  0
 89 91  1  0
 91 92  1  0
 91 90  1  0
 93 96  1  1
 93 94  1  0
 95 93  1  0
M  ISO  4   9 100  17 100  55 101  56 101
M  END
>  <TORSDO>  (69) 
F 22

>  <SCORE>  (69) 
-8.715

>  <name>  (69) 
68

>  <ligand_id>  (69) 
68

>  <original_smiles>  (69) 
[H]c1c([H])c([H])c2c(c1[H])C([H])([H])C([H])([H])C([H])([H])C2([H])N([H])C(=O)C1([H])N(C(=O)C([H])(N([H])C(=O)C([H])(N([H])C([H])([H])[H])C([H])([H])[H])C(C([H])([H])[H])(C([H])([H])[H])C([H])([H])[H])C([H])([H])c2c([H])c(OC([H])([H])C(=O)C([H])([H])N([H])c3c([H])c(F)c([H])c(N(C(=O)N4C([H])([H])C([H])([H])C([H])([H])C([H])(n5nc(-c6c([H])c([H])c(Oc7c([H])c([H])c(F)c([H])c7F)c([H])c6[H])c(C(=O)N([H])[H])c5N([H])[H])C4([H])[H])C([H])([H])C([H])(F)C([H])([H])[H])c3C([H])([H])[H])c([H])c([H])c2C1([H])[H]

>  <smiles>  (69) 
[H]c1c([H])c([H])c2c(c1[H])C([H])([H])C([H])([H])C([H])([H])C2([H])N([H])C(=O)C1([H])N(C(=O)C([H])(N([H])C(=O)C([H])(N([H])C([H])([H])[H])C([H])([H])[H])C(C([H])([H])[H])(C([H])([H])[H])C([H])([H])[H])C([H])([H])c2c([H])c(OC([H])([H])C(=O)C([H])([H])N([H])c3c([H])c(F)c([H])c(N(C(=O)N4C([H])([H])C([H])([H])C([H])([H])C([H])(n5nc(-c6c([H])c([H])c(Oc7c([H])c([H])c(F)c([H])c7F)c([H])c6[H])c(C(=O)N([H])[H])c5N([H])[H])C4([H])[H])C([H])([H])C([H])(F)C([H])([H])[H])c3C([H])([H])[H])c([H])c([H])c2C1([H])[H]

$$$$
69:0:0
     RDKit          3D

 96104  0  0  1  0  0  0  0  0999 V2000
  -29.8620  -20.3730   20.2020 N   0  0  0  0  0  0  0  0  0  0  0  0
  -29.6540  -20.1180   19.2430 H   0  0  0  0  0  0  0  0  0  0  0  0
  -30.7590  -14.5770   20.1070 C   0  0  0  0  0  0  0  0  0  0  0  0
  -30.4380  -12.4240   18.9120 C   0  0  0  0  0  2  0  0  0  0  0  0
  -29.4200  -12.6540   17.7740 C   0  0  0  0  0  2  0  0  0  0  0  0
  -27.9720  -12.5010   18.2840 C   0  0  0  0  0  2  0  0  0  0  0  0
  -27.7090  -13.2990   19.5890 C   0  0  0  0  0  3  0  0  0  0  0  0
  -28.8290  -13.0440   20.6230 C   0  0  0  0  0  2  0  0  0  0  0  0
  -30.1120  -13.3810   19.9830 N   0  0  0  0  0  0  0  0  0  0  0  0
  -31.8900  -14.7680   19.6480 O   0  0  0  0  0  0  0  0  0  0  0  0
  -30.9910  -18.1380   23.0250 C   0  0  0  0  0  3  0  0  0  0  0  0
  -30.7780  -16.9040   22.3910 C   0  0  0  0  0  3  0  0  0  0  0  0
  -30.7130  -19.3430   22.3470 C   0  0  0  0  0  0  0  0  0  0  0  0
  -30.3130  -16.8750   21.0670 C   0  0  0  0  0  0  0  0  0  0  0  0
  -30.2060  -19.2630   21.0170 C   0  0  0  0  0  0  0  0  0  0  0  0
  -30.0240  -18.0460   20.4180 N   0  0  0  0  0  0  0  0  0  0  0  0
  -29.9680  -15.5880   20.5490 N   0  0  0  0  0  0  0  0  0  0  0  0
  -29.0190  -15.3060   20.7270 H   0  0  0  0  0  0  0  0  0  0  0  0
  -25.3660  -13.8980   20.4630 C   0  0  0  0  0  0  0  0  0  0  0  0
  -24.3150  -13.1230   20.8710 C   0  0  0  0  0  0  0  0  0  0  0  0
  -24.7620  -11.7700   20.7730 C   0  0  0  0  0  0  0  0  0  0  0  0
  -26.3860  -13.0170   20.1390 N   0  0  0  0  0  0  0  0  0  0  0  0
  -26.0310  -11.7300   20.3850 N   0  0  0  0  0  0  0  0  0  0  0  0
  -24.0390  -10.5070   20.9690 C   0  0  0  0  0  0  0  0  0  0  0  0
  -24.4850   -9.5370   21.8920 C   0  0  0  0  0  3  0  0  0  0  0  0
  -23.7620   -8.3380   22.0770 C   0  0  0  0  0  3  0  0  0  0  0  0
  -22.5790   -8.1030   21.3380 C   0  0  0  0  0  0  0  0  0  0  0  0
  -22.1520   -9.0620   20.4020 C   0  0  0  0  0  3  0  0  0  0  0  0
  -22.8760  -10.2520   20.2150 C   0  0  0  0  0  3  0  0  0  0  0  0
  -21.8260   -6.9570   21.4320 O   0  0  0  0  0  0  0  0  0  0  0  0
  -21.7490   -6.2400   22.5990 C   0  0  0  0  0  0  0  0  0  0  0  0
  -21.2710   -6.8160   23.7960 C   0  0  0  0  0  3  0  0  0  0  0  0
  -21.1420   -6.0240   24.9550 C   0  0  0  0  0  3  0  0  0  0  0  0
  -21.4810   -4.6580   24.9160 C   0  0  0  0  0  0  0  0  0  0  0  0
  -21.9540   -4.0820   23.7230 C   0  0  0  0  0  3  0  0  0  0  0  0
  -22.0840   -4.8710   22.5680 C   0  0  0  0  0  0  0  0  0  0  0  0
  -22.5200   -4.3070   21.4140 F   0  0  0  0  0  0  0  0  0  0  0  0
  -21.3510   -3.8960   26.0260 F   0  0  0  0  0  0  0  0  0  0  0  0
  -22.9410  -13.6030   21.2410 C   0  0  0  0  0  0  0  0  0  0  0  0
  -22.2630  -12.8880   22.1340 N   0  0  0  0  0  0  0  0  0  0  0  0
  -22.4790  -14.6430   20.7750 O   0  0  0  0  0  0  0  0  0  0  0  0
  -22.6550  -12.0480   22.5340 H   0  0  0  0  0  0  0  0  0  0  0  0
  -21.3420  -13.1870   22.4230 H   0  0  0  0  0  0  0  0  0  0  0  0
  -25.5280  -15.2730   20.3160 N   0  0  0  0  0  0  0  0  0  0  0  0
  -24.7640  -15.9190   20.4840 H   0  0  0  0  0  0  0  0  0  0  0  0
  -26.3400  -15.7210   19.9120 H   0  0  0  0  0  0  0  0  0  0  0  0
  -31.0710  -20.5860   23.0790 C   0  0  0  0  0  0  0  0  0  0  0  0
  -30.4360  -20.7630   24.4540 C   0  0  0  0  0  1  0  0  0  0  0  0
  -31.8170  -21.4600   22.6330 O   0  0  0  0  0  0  0  0  0  0  0  0
  -29.1040  -21.5620   20.6840 C   0  0  0  0  0  2  0  0  0  0  0  0
  -29.2270  -22.8500   19.7890 C   0  0  0  0  0  3  0  0  0  0  0  0
  -30.5180  -23.0300   19.4950 F   0  0  0  0  0  0  0  0  0  0  0  0
  -28.6680  -24.1710   20.4120 C   0  0  0  0  0  0  0  0  0  0  0  0
  -28.2610  -24.2060   21.5790 O   0  0  0  0  0  0  0  0  0  0  0  0
  -28.6490  -25.4490   19.5220 C   0  0  0  0  0  2  0  0  0  0  0  0
  -28.4600  -26.6880   20.2690 O   0  0  0  0  0  0  0  0  0  0  0  0
  -24.6100  -31.9270   23.2330 C   0  0  0  0  0  0  0  0  0  0  0  0
  -27.2710  -27.4100   20.2220 C   0  0  0  0  0  0  0  0  0  0  0  0
  -23.4150  -30.5060   21.5990 C   0  0  0  0  0  3  0  0  0  0  0  0
  -24.8760  -28.9450   20.2020 C   0  0  0  0  0  0  0  0  0  0  0  0
  -25.9430  -30.8530   21.4140 C   0  0  0  0  0  2  0  0  0  0  0  0
  -26.0310  -29.4690   20.7930 C   0  0  0  0  0  0  0  0  0  0  0  0
  -27.2250  -28.7050   20.8030 C   0  0  0  0  0  3  0  0  0  0  0  0
  -26.0870  -26.9080   19.6350 C   0  0  0  0  0  3  0  0  0  0  0  0
  -24.8990  -27.6650   19.6230 C   0  0  0  0  0  3  0  0  0  0  0  0
  -23.6340  -29.8080   20.2290 C   0  0  0  0  0  2  0  0  0  0  0  0
  -24.6740  -31.1140   22.1400 N   0  0  0  0  0  0  0  0  0  0  0  0
  -23.5240  -32.2060   23.7640 O   0  0  0  0  0  0  0  0  0  0  0  0
  -22.7540  -29.4990   22.5710 C   0  0  0  0  0  0  0  0  0  0  0  0
  -21.4360  -29.2920   22.4170 N   0  0  0  0  0  0  0  0  0  0  0  0
  -23.4280  -28.9060   23.4160 O   0  0  0  0  0  0  0  0  0  0  0  0
  -20.9510  -29.8300   21.7120 H   0  0  0  0  0  0  0  0  0  0  0  0
  -18.0800  -28.0170   22.8420 C   0  0  0  0  0  0  0  0  0  0  0  0
  -20.6190  -28.3560   23.1900 C   0  0  0  0  0  3  0  0  0  0  0  0
  -20.7770  -26.9100   22.6670 C   0  0  0  0  0  2  0  0  0  0  0  0
  -19.7210  -26.5240   21.6260 C   0  0  0  0  0  2  0  0  0  0  0  0
  -18.3150  -26.6520   22.2180 C   0  0  0  0  0  2  0  0  0  0  0  0
  -19.1630  -28.8230   23.2860 C   0  0  0  0  0  0  0  0  0  0  0  0
  -18.8910  -30.0970   23.8290 C   0  0  0  0  0  3  0  0  0  0  0  0
  -17.5690  -30.5710   23.9290 C   0  0  0  0  0  3  0  0  0  0  0  0
  -16.5010  -29.7640   23.5020 C   0  0  0  0  0  3  0  0  0  0  0  0
  -16.7550  -28.4880   22.9670 C   0  0  0  0  0  3  0  0  0  0  0  0
  -25.8900  -32.5660   23.8550 C   0  0  0  0  0  3  0  0  0  0  0  0
  -25.5740  -33.9640   24.1810 N   0  0  0  0  0  0  0  0  0  0  0  0
  -25.9090  -35.0160   23.4240 C   0  0  0  0  0  0  0  0  0  0  0  0
  -26.5870  -34.9130   22.3970 O   0  0  0  0  0  0  0  0  0  0  0  0
  -24.9720  -34.1180   24.9770 H   0  0  0  0  0  0  0  0  0  0  0  0
  -24.1840  -36.8050   23.0450 C   0  0  0  0  0  1  0  0  0  0  0  0
  -25.4130  -36.4030   23.8750 C   0  0  0  0  0  3  0  0  0  0  0  0
  -27.5350  -37.2930   24.7340 C   0  0  0  0  0  1  0  0  0  0  0  0
  -26.4460  -37.4580   23.7750 N   0  0  0  0  0  0  0  0  0  0  0  0
  -26.0370  -38.3780   23.9130 H   0  0  0  0  0  0  0  0  0  0  0  0
  -26.4100  -31.8000   25.1330 C   0  0  1  0  0  0  0  0  0  0  0  0
  -25.3170  -31.5510   26.1980 C   0  0  0  0  0  1  0  0  0  0  0  0
  -27.0110  -30.4300   24.7380 C   0  0  0  0  0  1  0  0  0  0  0  0
  -27.5520  -32.6050   25.7990 C   0  0  0  0  0  1  0  0  0  0  0  0
  1 50  1  0
  1 15  1  0
  2  1  1  0
  3 17  1  0
  4  9  1  0
  5  6  1  0
  5  4  1  0
  7  6  1  0
  7 22  1  0
  7  8  1  0
  9  3  1  0
  9  8  1  0
 10  3  2  0
 12 11  1  0
 13 11  2  0
 13 47  1  0
 14 12  2  0
 15 13  1  0
 16 15  2  0
 16 14  1  0
 17 18  1  0
 17 14  1  0
 19 20  2  0
 20 39  1  0
 21 20  1  0
 21 24  1  0
 22 23  1  0
 22 19  1  0
 23 21  2  0
 24 25  1  0
 25 26  2  0
 27 30  1  0
 27 26  1  0
 28 27  2  0
 29 28  1  0
 29 24  2  0
 30 31  1  0
 31 32  1  0
 32 33  2  0
 34 33  1  0
 34 38  1  0
 35 34  2  0
 36 31  2  0
 36 35  1  0
 37 36  1  0
 39 40  1  0
 40 43  1  0
 40 42  1  0
 41 39  2  0
 44 19  1  0
 44 45  1  0
 46 44  1  0
 47 48  1  0
 49 47  2  0
 51 52  1  0
 51 53  1  0
 51 50  1  0
 53 54  2  0
 55 56  1  0
 55 53  1  0
 57 68  2  0
 58 56  1  0
 58 63  1  0
 59 67  1  0
 59 69  1  0
 60 66  1  0
 60 62  1  0
 61 67  1  0
 62 63  2  0
 62 61  1  0
 64 58  2  0
 65 64  1  0
 65 60  2  0
 66 59  1  0
 67 57  1  0
 69 71  2  0
 70 69  1  0
 72 70  1  0
 73 82  2  0
 73 78  1  0
 74 70  1  0
 74 78  1  0
 75 74  1  0
 76 77  1  0
 76 75  1  0
 77 73  1  0
 78 79  2  0
 79 80  1  0
 81 80  2  0
 82 81  1  0
 83 57  1  0
 83 84  1  0
 83 93  1  0
 84 87  1  0
 85 89  1  0
 85 84  1  0
 86 85  2  0
 89 88  1  0
 91 89  1  0
 91 92  1  0
 91 90  1  0
 93 96  1  1
 93 94  1  0
 95 93  1  0
M  ISO  4   3 100  17 100  55 101  56 101
M  END
>  <TORSDO>  (70) 
F 21

>  <SCORE>  (70) 
-13.384

>  <name>  (70) 
69

>  <ligand_id>  (70) 
69

>  <original_smiles>  (70) 
[H]c1c(N([H])C(=O)N2C([H])([H])C([H])([H])C([H])([H])C([H])(n3nc(-c4c([H])c([H])c(Oc5c([H])c([H])c(F)c([H])c5F)c([H])c4[H])c(C(=O)N([H])[H])c3N([H])[H])C2([H])[H])nc(N([H])C([H])([H])C([H])(F)C(=O)C([H])([H])Oc2c([H])c([H])c3c(c2[H])C([H])([H])N(C(=O)C([H])(N([H])C(=O)C([H])(N([H])C([H])([H])[H])C([H])([H])[H])C(C([H])([H])[H])(C([H])([H])[H])C([H])([H])[H])C([H])(C(=O)N([H])C2([H])c4c([H])c([H])c([H])c([H])c4C([H])([H])C([H])([H])C2([H])[H])C3([H])[H])c(C(=O)C([H])([H])[H])c1[H]

>  <smiles>  (70) 
[H]c1c(N([H])C(=O)N2C([H])([H])C([H])([H])C([H])([H])C([H])(n3nc(-c4c([H])c([H])c(Oc5c([H])c([H])c(F)c([H])c5F)c([H])c4[H])c(C(=O)N([H])[H])c3N([H])[H])C2([H])[H])nc(N([H])C([H])([H])C([H])(F)C(=O)C([H])([H])Oc2c([H])c([H])c3c(c2[H])C([H])([H])N(C(=O)C([H])(N([H])C(=O)C([H])(N([H])C([H])([H])[H])C([H])([H])[H])C(C([H])([H])[H])(C([H])([H])[H])C([H])([H])[H])C([H])(C(=O)N([H])C2([H])c4c([H])c([H])c([H])c([H])c4C([H])([H])C([H])([H])C2([H])[H])C3([H])[H])c(C(=O)C([H])([H])[H])c1[H]

$$$$
70:0:0
     RDKit          3D

 95103  0  0  1  0  0  0  0  0999 V2000
  -29.1960  -19.1270   20.4660 C   0  0  0  0  0  3  0  0  0  0  0  0
  -31.2580  -18.2390   19.5820 C   0  0  0  0  0  3  0  0  0  0  0  0
  -29.5080  -20.5760   20.1440 C   0  0  0  0  0  0  0  0  0  0  0  0
  -30.0390  -17.8990   20.1970 C   0  0  0  0  0  0  0  0  0  0  0  0
  -30.7650  -20.6830   19.4710 C   0  0  0  0  0  0  0  0  0  0  0  0
  -31.5980  -19.5610   19.2300 C   0  0  0  0  0  0  0  0  0  0  0  0
  -32.7840  -19.7650   18.6020 F   0  0  0  0  0  0  0  0  0  0  0  0
  -30.5140  -15.1480   20.2400 C   0  0  0  0  0  0  0  0  0  0  0  0
  -30.3870  -12.7800   19.2950 C   0  0  0  0  0  2  0  0  0  0  0  0
  -29.4310  -12.7140   18.0810 C   0  0  0  0  0  2  0  0  0  0  0  0
  -27.9840  -12.4730   18.5480 C   0  0  0  0  0  2  0  0  0  0  0  0
  -27.5910  -13.3860   19.7390 C   0  0  0  0  0  3  0  0  0  0  0  0
  -28.6730  -13.4300   20.8390 C   0  0  0  0  0  2  0  0  0  0  0  0
  -29.9150  -13.8790   20.1990 N   0  0  0  0  0  0  0  0  0  0  0  0
  -31.7130  -15.1650   19.9400 O   0  0  0  0  0  0  0  0  0  0  0  0
  -29.7640  -16.3730   20.4430 N   0  0  0  0  0  0  0  0  0  0  0  0
  -28.8230  -16.1810   20.7490 H   0  0  0  0  0  0  0  0  0  0  0  0
  -25.2320  -13.9290   20.5540 C   0  0  0  0  0  0  0  0  0  0  0  0
  -24.1820  -13.1410   20.9360 C   0  0  0  0  0  0  0  0  0  0  0  0
  -24.6530  -11.7930   20.8670 C   0  0  0  0  0  0  0  0  0  0  0  0
  -26.2720  -13.0630   20.2680 N   0  0  0  0  0  0  0  0  0  0  0  0
  -25.9360  -11.7710   20.5220 N   0  0  0  0  0  0  0  0  0  0  0  0
  -23.9360  -10.5240   21.0480 C   0  0  0  0  0  0  0  0  0  0  0  0
  -24.3760   -9.5520   21.9720 C   0  0  0  0  0  3  0  0  0  0  0  0
  -23.6560   -8.3490   22.1440 C   0  0  0  0  0  3  0  0  0  0  0  0
  -22.4820   -8.1100   21.3910 C   0  0  0  0  0  0  0  0  0  0  0  0
  -22.0610   -9.0720   20.4550 C   0  0  0  0  0  3  0  0  0  0  0  0
  -22.7820  -10.2650   20.2820 C   0  0  0  0  0  3  0  0  0  0  0  0
  -21.7340   -6.9610   21.4730 O   0  0  0  0  0  0  0  0  0  0  0  0
  -21.6670   -6.2270   22.6300 C   0  0  0  0  0  0  0  0  0  0  0  0
  -21.1780   -6.7760   23.8350 C   0  0  0  0  0  3  0  0  0  0  0  0
  -21.0610   -5.9650   24.9810 C   0  0  0  0  0  3  0  0  0  0  0  0
  -21.4240   -4.6070   24.9240 C   0  0  0  0  0  0  0  0  0  0  0  0
  -21.9050   -4.0550   23.7230 C   0  0  0  0  0  3  0  0  0  0  0  0
  -22.0240   -4.8630   22.5790 C   0  0  0  0  0  0  0  0  0  0  0  0
  -22.4680   -4.3230   21.4190 F   0  0  0  0  0  0  0  0  0  0  0  0
  -21.3050   -3.8260   26.0230 F   0  0  0  0  0  0  0  0  0  0  0  0
  -22.7900  -13.6060   21.2480 C   0  0  0  0  0  0  0  0  0  0  0  0
  -22.0850  -12.8900   22.1160 N   0  0  0  0  0  0  0  0  0  0  0  0
  -22.3370  -14.6400   20.7590 O   0  0  0  0  0  0  0  0  0  0  0  0
  -22.4650  -12.0540   22.5350 H   0  0  0  0  0  0  0  0  0  0  0  0
  -21.1510  -13.1830   22.3680 H   0  0  0  0  0  0  0  0  0  0  0  0
  -25.3820  -15.3040   20.3990 N   0  0  0  0  0  0  0  0  0  0  0  0
  -24.6060  -15.9460   20.5360 H   0  0  0  0  0  0  0  0  0  0  0  0
  -26.2040  -15.7560   20.0200 H   0  0  0  0  0  0  0  0  0  0  0  0
  -31.2530  -21.8750   18.9380 N   0  0  0  0  0  0  0  0  0  0  0  0
  -31.0230  -22.7300   19.4450 H   0  0  0  0  0  0  0  0  0  0  0  0
  -32.2320  -21.8440   18.6660 H   0  0  0  0  0  0  0  0  0  0  0  0
  -28.5560  -21.9200   20.4120 C   0  0  0  0  0  0  0  0  0  0  0  0
  -27.3790  -21.6450   20.6670 O   0  0  0  0  0  0  0  0  0  0  0  0
  -27.9950  -24.6620   20.3150 C   0  0  0  0  0  3  0  0  0  0  0  0
  -28.8880  -23.5400   20.4040 C   0  0  0  0  0  0  0  0  0  0  0  0
  -30.1770  -23.8660   20.5510 O   0  0  0  0  0  0  0  0  0  0  0  0
  -30.2170  -24.8150   20.5670 H   0  0  0  0  0  0  0  0  0  0  0  0
  -28.2320  -26.1360   20.3210 O   0  0  0  0  0  0  0  0  0  0  0  0
  -24.6320  -31.9490   23.2620 C   0  0  0  0  0  0  0  0  0  0  0  0
  -27.1910  -27.1580   20.2690 C   0  0  0  0  0  0  0  0  0  0  0  0
  -23.4330  -30.5500   21.6270 C   0  0  0  0  0  3  0  0  0  0  0  0
  -24.8800  -28.9550   20.2130 C   0  0  0  0  0  0  0  0  0  0  0  0
  -25.9920  -30.7860   21.4760 C   0  0  0  0  0  2  0  0  0  0  0  0
  -26.0590  -29.3840   20.8340 C   0  0  0  0  0  0  0  0  0  0  0  0
  -27.2130  -28.5010   20.8480 C   0  0  0  0  0  3  0  0  0  0  0  0
  -25.9910  -26.8550   19.5890 C   0  0  0  0  0  3  0  0  0  0  0  0
  -24.8620  -27.7070   19.5740 C   0  0  0  0  0  3  0  0  0  0  0  0
  -23.6590  -29.8640   20.2520 C   0  0  0  0  0  2  0  0  0  0  0  0
  -24.7070  -31.1200   22.1750 N   0  0  0  0  0  0  0  0  0  0  0  0
  -23.5450  -32.2420   23.7840 O   0  0  0  0  0  0  0  0  0  0  0  0
  -22.7450  -29.5530   22.5930 C   0  0  0  0  0  0  0  0  0  0  0  0
  -21.4160  -29.3840   22.4610 N   0  0  0  0  0  0  0  0  0  0  0  0
  -23.4090  -28.9330   23.4270 O   0  0  0  0  0  0  0  0  0  0  0  0
  -20.9360  -29.9340   21.7630 H   0  0  0  0  0  0  0  0  0  0  0  0
  -18.0300  -28.1950   22.9650 C   0  0  0  0  0  0  0  0  0  0  0  0
  -20.5900  -28.4530   23.2350 C   0  0  0  0  0  3  0  0  0  0  0  0
  -20.6870  -27.0170   22.6670 C   0  0  0  0  0  2  0  0  0  0  0  0
  -19.5870  -26.6930   21.6520 C   0  0  0  0  0  2  0  0  0  0  0  0
  -18.2040  -26.8440   22.2930 C   0  0  0  0  0  2  0  0  0  0  0  0
  -19.1500  -28.9580   23.3930 C   0  0  0  0  0  0  0  0  0  0  0  0
  -18.9310  -30.2210   23.9840 C   0  0  0  0  0  3  0  0  0  0  0  0
  -17.6260  -30.7240   24.1490 C   0  0  0  0  0  3  0  0  0  0  0  0
  -16.5210  -29.9590   23.7350 C   0  0  0  0  0  3  0  0  0  0  0  0
  -16.7230  -28.6970   23.1490 C   0  0  0  0  0  3  0  0  0  0  0  0
  -25.9100  -32.5860   23.8900 C   0  0  0  0  0  3  0  0  0  0  0  0
  -26.4110  -31.8240   25.1790 C   0  0  1  0  0  0  0  0  0  0  0  0
  -25.3070  -31.5970   26.2390 C   0  0  0  0  0  1  0  0  0  0  0  0
  -26.9960  -30.4420   24.8090 C   0  0  0  0  0  1  0  0  0  0  0  0
  -27.5570  -32.6220   25.8450 C   0  0  0  0  0  1  0  0  0  0  0  0
  -25.5990  -33.9880   24.2150 N   0  0  0  0  0  0  0  0  0  0  0  0
  -25.9190  -35.0410   23.4500 C   0  0  0  0  0  0  0  0  0  0  0  0
  -26.5720  -34.9340   22.4090 O   0  0  0  0  0  0  0  0  0  0  0  0
  -25.0150  -34.1440   25.0240 H   0  0  0  0  0  0  0  0  0  0  0  0
  -24.1810  -36.8350   23.1300 C   0  0  0  0  0  1  0  0  0  0  0  0
  -25.4420  -36.4320   23.9130 C   0  0  0  0  0  3  0  0  0  0  0  0
  -27.5880  -37.3320   24.6960 C   0  0  0  0  0  1  0  0  0  0  0  0
  -26.4700  -37.4860   23.7690 N   0  0  0  0  0  0  0  0  0  0  0  0
  -26.0640  -38.4070   23.9130 H   0  0  0  0  0  0  0  0  0  0  0  0
  2  4  2  0
  3 49  1  0
  3  1  2  0
  4 16  1  0
  4  1  1  0
  5  3  1  0
  6  5  2  0
  6  2  1  0
  7  6  1  0
  8 16  1  0
  9 14  1  0
 10 11  1  0
 10  9  1  0
 12 11  1  0
 12 21  1  0
 12 13  1  0
 14  8  1  0
 14 13  1  0
 15  8  2  0
 16 17  1  0
 18 19  2  0
 19 38  1  0
 20 19  1  0
 20 23  1  0
 21 22  1  0
 21 18  1  0
 22 20  2  0
 23 24  1  0
 24 25  2  0
 26 29  1  0
 26 25  1  0
 27 26  2  0
 28 27  1  0
 28 23  2  0
 29 30  1  0
 30 31  1  0
 31 32  2  0
 33 32  1  0
 33 37  1  0
 34 33  2  0
 35 30  2  0
 35 34  1  0
 36 35  1  0
 38 39  1  0
 39 42  1  0
 39 41  1  0
 40 38  2  0
 43 44  1  0
 43 18  1  0
 45 43  1  0
 46 47  1  0
 46  5  1  0
 48 46  1  0
 49 50  2  0
 51 55  1  0
 51 52  2  0
 52 49  1  0
 52 53  1  0
 53 54  1  0
 56 67  2  0
 57 55  1  0
 57 62  1  0
 58 66  1  0
 58 68  1  0
 59 65  1  0
 59 61  1  0
 60 66  1  0
 61 62  2  0
 61 60  1  0
 63 57  2  0
 64 63  1  0
 64 59  2  0
 65 58  1  0
 66 56  1  0
 68 70  2  0
 69 68  1  0
 71 69  1  0
 72 81  2  0
 72 77  1  0
 73 69  1  0
 73 77  1  0
 74 73  1  0
 75 76  1  0
 75 74  1  0
 76 72  1  0
 77 78  2  0
 78 79  1  0
 80 79  2  0
 81 80  1  0
 82 56  1  0
 82 87  1  0
 82 83  1  0
 83 86  1  1
 83 84  1  0
 85 83  1  0
 87 90  1  0
 88 92  1  0
 88 87  1  0
 89 88  2  0
 92 91  1  0
 94 95  1  0
 94 92  1  0
 94 93  1  0
M  ISO  4   8 100  16 100  51 101  55 101
M  END
>  <TORSDO>  (71) 
F 20

>  <SCORE>  (71) 
-14.197

>  <name>  (71) 
70

>  <ligand_id>  (71) 
70

>  <original_smiles>  (71) 
[H]OC(C(=O)c1c([H])c(N([H])C(=O)N2C([H])([H])C([H])([H])C([H])([H])C([H])(n3nc(-c4c([H])c([H])c(Oc5c([H])c([H])c(F)c([H])c5F)c([H])c4[H])c(C(=O)N([H])[H])c3N([H])[H])C2([H])[H])c([H])c(F)c1N([H])[H])=C([H])Oc1c([H])c([H])c2c(c1[H])C([H])([H])N(C(=O)C([H])(N([H])C(=O)C([H])(N([H])C([H])([H])[H])C([H])([H])[H])C(C([H])([H])[H])(C([H])([H])[H])C([H])([H])[H])C([H])(C(=O)N([H])C1([H])c3c([H])c([H])c([H])c([H])c3C([H])([H])C([H])([H])C1([H])[H])C2([H])[H]

>  <smiles>  (71) 
[H]OC(C(=O)c1c([H])c(N([H])C(=O)N2C([H])([H])C([H])([H])C([H])([H])C([H])(n3nc(-c4c([H])c([H])c(Oc5c([H])c([H])c(F)c([H])c5F)c([H])c4[H])c(C(=O)N([H])[H])c3N([H])[H])C2([H])[H])c([H])c(F)c1N([H])[H])=C([H])Oc1c([H])c([H])c2c(c1[H])C([H])([H])N(C(=O)C([H])(N([H])C(=O)C([H])(N([H])C([H])([H])[H])C([H])([H])[H])C(C([H])([H])[H])(C([H])([H])[H])C([H])([H])[H])C([H])(C(=O)N([H])C1([H])c3c([H])c([H])c([H])c([H])c3C([H])([H])C([H])([H])C1([H])[H])C2([H])[H]

$$$$
71:0:0
     RDKit          3D

 91 99  0  0  1  0  0  0  0  0999 V2000
  -29.1840  -23.0220   20.3860 C   0  0  0  0  0  3  0  0  0  0  0  0
  -29.5530  -21.9010   19.8790 N   0  0  0  0  0  0  0  0  0  0  0  0
  -30.9240  -19.9060   22.7720 C   0  0  0  0  0  3  0  0  0  0  0  0
  -31.3010  -18.7210   22.1160 C   0  0  0  0  0  3  0  0  0  0  0  0
  -30.3440  -20.9690   22.0530 C   0  0  0  0  0  3  0  0  0  0  0  0
  -31.0880  -18.5780   20.7280 C   0  0  0  0  0  0  0  0  0  0  0  0
  -30.1440  -20.8730   20.6520 C   0  0  0  0  0  0  0  0  0  0  0  0
  -30.5150  -19.6610   20.0080 C   0  0  0  0  0  0  0  0  0  0  0  0
  -30.3230  -19.5370   18.6720 F   0  0  0  0  0  0  0  0  0  0  0  0
  -31.4880  -17.2860   19.9970 C   0  0  0  0  0  2  0  0  0  0  0  0
  -31.2420  -15.9560   20.7680 C   0  0  0  0  0  2  0  0  0  0  0  0
  -31.8390  -14.7050   20.0750 C   0  0  0  0  0  0  0  0  0  0  0  0
  -31.3990  -12.5230   18.9970 C   0  0  0  0  0  2  0  0  0  0  0  0
  -30.4420  -12.7330   17.8050 C   0  0  0  0  0  2  0  0  0  0  0  0
  -28.9720  -12.7060   18.2680 C   0  0  0  0  0  2  0  0  0  0  0  0
  -28.7170  -13.6160   19.5000 C   0  0  0  0  0  3  0  0  0  0  0  0
  -29.7780  -13.3650   20.5950 C   0  0  0  0  0  2  0  0  0  0  0  0
  -31.1050  -13.5620   19.9940 N   0  0  0  0  0  0  0  0  0  0  0  0
  -32.9430  -14.8090   19.5320 O   0  0  0  0  0  0  0  0  0  0  0  0
  -26.3960  -14.4200   20.2770 C   0  0  0  0  0  0  0  0  0  0  0  0
  -25.2760  -13.7360   20.6680 C   0  0  0  0  0  0  0  0  0  0  0  0
  -25.6210  -12.3510   20.6130 C   0  0  0  0  0  0  0  0  0  0  0  0
  -27.3580  -13.4550   20.0120 N   0  0  0  0  0  0  0  0  0  0  0  0
  -26.8930  -12.2060   20.2700 N   0  0  0  0  0  0  0  0  0  0  0  0
  -24.7960  -11.1530   20.8130 C   0  0  0  0  0  0  0  0  0  0  0  0
  -25.1080  -10.1990   21.8080 C   0  0  0  0  0  3  0  0  0  0  0  0
  -24.2890   -9.0640   21.9930 C   0  0  0  0  0  3  0  0  0  0  0  0
  -23.1440   -8.8750   21.1840 C   0  0  0  0  0  0  0  0  0  0  0  0
  -22.8510   -9.8160   20.1810 C   0  0  0  0  0  3  0  0  0  0  0  0
  -23.6690  -10.9420   19.9940 C   0  0  0  0  0  3  0  0  0  0  0  0
  -22.3050   -7.7910   21.2740 O   0  0  0  0  0  0  0  0  0  0  0  0
  -22.0560   -7.1720   22.4740 C   0  0  0  0  0  0  0  0  0  0  0  0
  -21.5310   -7.8770   23.5790 C   0  0  0  0  0  3  0  0  0  0  0  0
  -21.2240   -7.1900   24.7700 C   0  0  0  0  0  3  0  0  0  0  0  0
  -21.4300   -5.7990   24.8550 C   0  0  0  0  0  0  0  0  0  0  0  0
  -21.9470   -5.0950   23.7540 C   0  0  0  0  0  3  0  0  0  0  0  0
  -22.2560   -5.7800   22.5650 C   0  0  0  0  0  0  0  0  0  0  0  0
  -22.7340   -5.0940   21.4990 F   0  0  0  0  0  0  0  0  0  0  0  0
  -21.1280   -5.1380   25.9960 F   0  0  0  0  0  0  0  0  0  0  0  0
  -23.9320  -14.3270   20.9840 C   0  0  0  0  0  0  0  0  0  0  0  0
  -23.1890  -13.7080   21.8950 N   0  0  0  0  0  0  0  0  0  0  0  0
  -23.5530  -15.3720   20.4570 O   0  0  0  0  0  0  0  0  0  0  0  0
  -23.5090  -12.8610   22.3410 H   0  0  0  0  0  0  0  0  0  0  0  0
  -22.2890  -14.0870   22.1510 H   0  0  0  0  0  0  0  0  0  0  0  0
  -26.6730  -15.7730   20.1050 N   0  0  0  0  0  0  0  0  0  0  0  0
  -25.9710  -16.4930   20.2450 H   0  0  0  0  0  0  0  0  0  0  0  0
  -27.5560  -16.1420   19.7750 H   0  0  0  0  0  0  0  0  0  0  0  0
  -28.5080  -24.1800   19.6670 C   0  0  0  0  0  0  0  0  0  0  0  0
  -28.1980  -24.1390   18.4680 O   0  0  0  0  0  0  0  0  0  0  0  0
  -28.2120  -25.4280   20.5230 C   0  0  0  0  0  2  0  0  0  0  0  0
  -28.2160  -26.6430   19.7500 O   0  0  0  0  0  0  0  0  0  0  0  0
  -24.5040  -31.7290   23.0770 C   0  0  0  0  0  0  0  0  0  0  0  0
  -27.0490  -27.3670   19.8190 C   0  0  0  0  0  0  0  0  0  0  0  0
  -23.2420  -30.3550   21.4520 C   0  0  0  0  0  3  0  0  0  0  0  0
  -24.6480  -28.8500   19.9460 C   0  0  0  0  0  0  0  0  0  0  0  0
  -25.7550  -30.7330   21.1650 C   0  0  0  0  0  2  0  0  0  0  0  0
  -25.8240  -29.3750   20.4970 C   0  0  0  0  0  0  0  0  0  0  0  0
  -27.0310  -28.6420   20.4250 C   0  0  0  0  0  3  0  0  0  0  0  0
  -25.8590  -26.8490   19.2670 C   0  0  0  0  0  3  0  0  0  0  0  0
  -24.6600  -27.5860   19.3280 C   0  0  0  0  0  3  0  0  0  0  0  0
  -23.4020  -29.7000   20.0530 C   0  0  0  0  0  2  0  0  0  0  0  0
  -24.5210  -30.9520   21.9560 N   0  0  0  0  0  0  0  0  0  0  0  0
  -23.4430  -31.9850   23.6630 O   0  0  0  0  0  0  0  0  0  0  0  0
  -22.6300  -29.3130   22.4160 C   0  0  0  0  0  0  0  0  0  0  0  0
  -21.3090  -29.1000   22.3060 N   0  0  0  0  0  0  0  0  0  0  0  0
  -23.3410  -28.6990   23.2180 O   0  0  0  0  0  0  0  0  0  0  0  0
  -20.7960  -29.6480   21.6300 H   0  0  0  0  0  0  0  0  0  0  0  0
  -17.9820  -27.7790   22.7970 C   0  0  0  0  0  0  0  0  0  0  0  0
  -20.5260  -28.1380   23.0810 C   0  0  0  0  0  3  0  0  0  0  0  0
  -20.6870  -26.7070   22.5170 C   0  0  0  0  0  2  0  0  0  0  0  0
  -19.6040  -26.3330   21.5000 C   0  0  0  0  0  2  0  0  0  0  0  0
  -18.2140  -26.4310   22.1350 C   0  0  0  0  0  2  0  0  0  0  0  0
  -19.0680  -28.5870   23.2260 C   0  0  0  0  0  0  0  0  0  0  0  0
  -18.7980  -29.8470   23.8040 C   0  0  0  0  0  3  0  0  0  0  0  0
  -17.4740  -30.3000   23.9560 C   0  0  0  0  0  3  0  0  0  0  0  0
  -16.4030  -29.4890   23.5440 C   0  0  0  0  0  3  0  0  0  0  0  0
  -16.6570  -28.2310   22.9700 C   0  0  0  0  0  3  0  0  0  0  0  0
  -25.8100  -32.3510   23.6620 C   0  0  0  0  0  3  0  0  0  0  0  0
  -25.5030  -33.7300   24.0610 N   0  0  0  0  0  0  0  0  0  0  0  0
  -25.8020  -34.8170   23.3360 C   0  0  0  0  0  0  0  0  0  0  0  0
  -26.4380  -34.7630   22.2800 O   0  0  0  0  0  0  0  0  0  0  0  0
  -24.9330  -33.8460   24.8880 H   0  0  0  0  0  0  0  0  0  0  0  0
  -24.0460  -36.6030   23.1170 C   0  0  0  0  0  1  0  0  0  0  0  0
  -25.3190  -36.1790   23.8680 C   0  0  0  0  0  3  0  0  0  0  0  0
  -27.4740  -37.0490   24.6600 C   0  0  0  0  0  1  0  0  0  0  0  0
  -26.3390  -37.2470   23.7630 N   0  0  0  0  0  0  0  0  0  0  0  0
  -25.9290  -38.1560   23.9640 H   0  0  0  0  0  0  0  0  0  0  0  0
  -26.4000  -31.5350   24.8780 C   0  0  1  0  0  0  0  0  0  0  0  0
  -25.3600  -31.2200   25.9780 C   0  0  0  0  0  1  0  0  0  0  0  0
  -26.9950  -30.1910   24.3940 C   0  0  0  0  0  1  0  0  0  0  0  0
  -27.5600  -32.3250   25.5260 C   0  0  0  0  0  1  0  0  0  0  0  0
  2  1  2  0
  2  7  1  0
  4  3  1  0
  5  3  2  0
  6  4  2  0
  7  5  1  0
  8  7  2  0
  8  6  1  0
  9  8  1  0
 10  6  1  0
 10 11  1  0
 12 11  1  0
 13 18  1  0
 14 15  1  0
 14 13  1  0
 16 15  1  0
 16 23  1  0
 16 17  1  0
 18 12  1  0
 18 17  1  0
 19 12  2  0
 20 21  2  0
 21 40  1  0
 22 21  1  0
 22 25  1  0
 23 24  1  0
 23 20  1  0
 24 22  2  0
 25 26  1  0
 26 27  2  0
 28 31  1  0
 28 27  1  0
 29 28  2  0
 30 29  1  0
 30 25  2  0
 31 32  1  0
 32 37  2  0
 32 33  1  0
 33 34  2  0
 34 35  1  0
 35 39  1  0
 36 35  2  0
 37 36  1  0
 38 37  1  0
 40 41  1  0
 41 44  1  0
 41 43  1  0
 42 40  2  0
 45 46  1  0
 45 20  1  0
 47 45  1  0
 48  1  1  0
 48 50  1  0
 49 48  2  0
 51 53  1  0
 51 50  1  0
 52 63  2  0
 53 58  1  0
 54 62  1  0
 54 64  1  0
 55 61  1  0
 55 57  1  0
 56 62  1  0
 57 56  1  0
 58 57  2  0
 59 60  1  0
 59 53  2  0
 60 55  2  0
 61 54  1  0
 62 52  1  0
 64 66  2  0
 65 64  1  0
 67 65  1  0
 68 77  2  0
 68 73  1  0
 69 65  1  0
 69 73  1  0
 70 69  1  0
 71 72  1  0
 71 70  1  0
 72 68  1  0
 73 74  2  0
 74 75  1  0
 76 75  2  0
 77 76  1  0
 78 52  1  0
 78 79  1  0
 78 88  1  0
 79 82  1  0
 80 84  1  0
 80 79  1  0
 81 80  2  0
 84 83  1  0
 86 84  1  0
 86 87  1  0
 86 85  1  0
 88 91  1  1
 88 89  1  0
 90 88  1  0
M  ISO  4  11 100  12 100  50 101  51 101
M  END
>  <TORSDO>  (72) 
F 21

>  <SCORE>  (72) 
-11.911

>  <name>  (72) 
71

>  <ligand_id>  (72) 
71

>  <original_smiles>  (72) 
[H]C(=Nc1c([H])c([H])c([H])c(C([H])([H])C([H])([H])C(=O)N2C([H])([H])C([H])([H])C([H])([H])C([H])(n3nc(-c4c([H])c([H])c(Oc5c([H])c([H])c(F)c([H])c5F)c([H])c4[H])c(C(=O)N([H])[H])c3N([H])[H])C2([H])[H])c1F)C(=O)C([H])([H])Oc1c([H])c([H])c2c(c1[H])C([H])([H])N(C(=O)C([H])(N([H])C(=O)C([H])(N([H])C([H])([H])[H])C([H])([H])[H])C(C([H])([H])[H])(C([H])([H])[H])C([H])([H])[H])C([H])(C(=O)N([H])C1([H])c3c([H])c([H])c([H])c([H])c3C([H])([H])C([H])([H])C1([H])[H])C2([H])[H]

>  <smiles>  (72) 
[H]C(=Nc1c([H])c([H])c([H])c(C([H])([H])C([H])([H])C(=O)N2C([H])([H])C([H])([H])C([H])([H])C([H])(n3nc(-c4c([H])c([H])c(Oc5c([H])c([H])c(F)c([H])c5F)c([H])c4[H])c(C(=O)N([H])[H])c3N([H])[H])C2([H])[H])c1F)C(=O)C([H])([H])Oc1c([H])c([H])c2c(c1[H])C([H])([H])N(C(=O)C([H])(N([H])C(=O)C([H])(N([H])C([H])([H])[H])C([H])([H])[H])C(C([H])([H])[H])(C([H])([H])[H])C([H])([H])[H])C([H])(C(=O)N([H])C1([H])c3c([H])c([H])c([H])c([H])c3C([H])([H])C([H])([H])C1([H])[H])C2([H])[H]

$$$$
72:0:0
     RDKit          3D

 96104  0  0  1  0  0  0  0  0999 V2000
  -29.9170  -18.2590   21.2070 C   0  0  0  0  0  3  0  0  0  0  0  0
  -29.3620  -17.1960   19.1000 C   0  0  0  0  0  3  0  0  0  0  0  0
  -29.5480  -19.5360   20.6870 C   0  0  0  0  0  0  0  0  0  0  0  0
  -29.1100  -19.6250   19.3280 C   0  0  0  0  0  0  0  0  0  0  0  0
  -29.8430  -17.0830   20.4220 C   0  0  0  0  0  0  0  0  0  0  0  0
  -28.9680  -18.4400   18.5610 C   0  0  0  0  0  0  0  0  0  0  0  0
  -28.8200  -20.9680   18.6470 C   0  0  0  0  0  1  0  0  0  0  0  0
  -30.8200  -14.8230   20.3120 C   0  0  0  0  0  0  0  0  0  0  0  0
  -30.4690  -12.8140   18.9310 C   0  0  0  0  0  2  0  0  0  0  0  0
  -29.5160  -13.1950   17.7760 C   0  0  0  0  0  2  0  0  0  0  0  0
  -28.0420  -13.0520   18.2130 C   0  0  0  0  0  2  0  0  0  0  0  0
  -27.7490  -13.7240   19.5840 C   0  0  0  0  0  3  0  0  0  0  0  0
  -28.8140  -13.3240   20.6300 C   0  0  0  0  0  2  0  0  0  0  0  0
  -30.1400  -13.6660   20.0860 N   0  0  0  0  0  0  0  0  0  0  0  0
  -31.9400  -15.0450   19.8420 O   0  0  0  0  0  0  0  0  0  0  0  0
  -30.1320  -15.7870   20.9650 N   0  0  0  0  0  0  0  0  0  0  0  0
  -29.3850  -15.4140   21.5350 H   0  0  0  0  0  0  0  0  0  0  0  0
  -25.3330  -14.3070   20.2530 C   0  0  0  0  0  0  0  0  0  0  0  0
  -24.2740  -13.5260   20.6300 C   0  0  0  0  0  0  0  0  0  0  0  0
  -24.7570  -12.1820   20.6310 C   0  0  0  0  0  0  0  0  0  0  0  0
  -26.3940  -13.4380   20.0510 N   0  0  0  0  0  0  0  0  0  0  0  0
  -26.0500  -12.1550   20.3320 N   0  0  0  0  0  0  0  0  0  0  0  0
  -24.0490  -10.9120   20.8410 C   0  0  0  0  0  0  0  0  0  0  0  0
  -24.4610   -9.9910   21.8310 C   0  0  0  0  0  3  0  0  0  0  0  0
  -23.7550   -8.7850   22.0240 C   0  0  0  0  0  3  0  0  0  0  0  0
  -22.6240   -8.4900   21.2270 C   0  0  0  0  0  0  0  0  0  0  0  0
  -22.2330   -9.3990   20.2270 C   0  0  0  0  0  3  0  0  0  0  0  0
  -22.9400  -10.5960   20.0320 C   0  0  0  0  0  3  0  0  0  0  0  0
  -21.8930   -7.3310   21.3260 O   0  0  0  0  0  0  0  0  0  0  0  0
  -21.7830   -6.6480   22.5110 C   0  0  0  0  0  0  0  0  0  0  0  0
  -21.2710   -7.2590   23.6760 C   0  0  0  0  0  3  0  0  0  0  0  0
  -21.1110   -6.5030   24.8550 C   0  0  0  0  0  3  0  0  0  0  0  0
  -21.4510   -5.1370   24.8680 C   0  0  0  0  0  0  0  0  0  0  0  0
  -21.9510   -4.5260   23.7050 C   0  0  0  0  0  3  0  0  0  0  0  0
  -22.1140   -5.2800   22.5300 C   0  0  0  0  0  0  0  0  0  0  0  0
  -22.5800   -4.6810   21.4060 F   0  0  0  0  0  0  0  0  0  0  0  0
  -21.2900   -4.4070   25.9970 F   0  0  0  0  0  0  0  0  0  0  0  0
  -22.8650  -13.9860   20.8820 C   0  0  0  0  0  0  0  0  0  0  0  0
  -22.1420  -13.3010   21.7630 N   0  0  0  0  0  0  0  0  0  0  0  0
  -22.4110  -14.9870   20.3310 O   0  0  0  0  0  0  0  0  0  0  0  0
  -22.5180  -12.4940   22.2360 H   0  0  0  0  0  0  0  0  0  0  0  0
  -21.1980  -13.5920   21.9720 H   0  0  0  0  0  0  0  0  0  0  0  0
  -25.4790  -15.6760   20.0490 N   0  0  0  0  0  0  0  0  0  0  0  0
  -24.7010  -16.3220   20.1330 H   0  0  0  0  0  0  0  0  0  0  0  0
  -26.3290  -16.1200   19.7290 H   0  0  0  0  0  0  0  0  0  0  0  0
  -27.8030  -17.3440   16.6700 C   0  0  0  0  0  1  0  0  0  0  0  0
  -28.4380  -18.5170   17.2600 N   0  0  0  0  0  0  0  0  0  0  0  0
  -28.0600  -19.4190   16.9810 H   0  0  0  0  0  0  0  0  0  0  0  0
  -29.7440  -20.7270   21.5860 C   0  0  0  0  0  0  0  0  0  0  0  0
  -30.7420  -20.8210   22.3070 O   0  0  0  0  0  0  0  0  0  0  0  0
  -28.6400  -21.8070   21.7050 C   0  0  0  0  0  2  0  0  0  0  0  0
  -29.1730  -23.2400   22.0320 C   0  0  0  0  0  2  0  0  0  0  0  0
  -28.7020  -24.3860   21.1130 C   0  0  0  0  0  0  0  0  0  0  0  0
  -28.2940  -24.1650   19.9690 O   0  0  0  0  0  0  0  0  0  0  0  0
  -28.7790  -25.8200   21.6910 C   0  0  0  0  0  2  0  0  0  0  0  0
  -28.7860  -26.8530   20.6830 O   0  0  0  0  0  0  0  0  0  0  0  0
  -24.6570  -32.0220   23.3590 C   0  0  0  0  0  0  0  0  0  0  0  0
  -27.6150  -27.5720   20.5990 C   0  0  0  0  0  0  0  0  0  0  0  0
  -23.5920  -30.5140   21.7130 C   0  0  0  0  0  3  0  0  0  0  0  0
  -25.1760  -28.9860   20.4210 C   0  0  0  0  0  0  0  0  0  0  0  0
  -26.1080  -30.9670   21.6270 C   0  0  0  0  0  2  0  0  0  0  0  0
  -26.2810  -29.5760   21.0470 C   0  0  0  0  0  0  0  0  0  0  0  0
  -27.5070  -28.8760   21.1350 C   0  0  0  0  0  3  0  0  0  0  0  0
  -26.5000  -26.9970   19.9600 C   0  0  0  0  0  3  0  0  0  0  0  0
  -25.2800  -27.6960   19.8710 C   0  0  0  0  0  3  0  0  0  0  0  0
  -23.8980  -29.7950   20.3730 C   0  0  0  0  0  2  0  0  0  0  0  0
  -24.8000  -31.1860   22.2920 N   0  0  0  0  0  0  0  0  0  0  0  0
  -23.5390  -32.2660   23.8360 O   0  0  0  0  0  0  0  0  0  0  0  0
  -22.9340  -29.5000   22.6770 C   0  0  0  0  0  0  0  0  0  0  0  0
  -21.6300  -29.2450   22.4820 N   0  0  0  0  0  0  0  0  0  0  0  0
  -23.5960  -28.9430   23.5560 O   0  0  0  0  0  0  0  0  0  0  0  0
  -21.1530  -29.7460   21.7470 H   0  0  0  0  0  0  0  0  0  0  0  0
  -18.2960  -27.8990   22.8310 C   0  0  0  0  0  0  0  0  0  0  0  0
  -20.8160  -28.2990   23.2450 C   0  0  0  0  0  3  0  0  0  0  0  0
  -21.0250  -26.8530   22.7400 C   0  0  0  0  0  2  0  0  0  0  0  0
  -20.0060  -26.4320   21.6760 C   0  0  0  0  0  2  0  0  0  0  0  0
  -18.5800  -26.5330   22.2290 C   0  0  0  0  0  2  0  0  0  0  0  0
  -19.3470  -28.7340   23.2950 C   0  0  0  0  0  0  0  0  0  0  0  0
  -19.0310  -30.0080   23.8140 C   0  0  0  0  0  3  0  0  0  0  0  0
  -17.6960  -30.4510   23.8760 C   0  0  0  0  0  3  0  0  0  0  0  0
  -16.6580  -29.6120   23.4320 C   0  0  0  0  0  3  0  0  0  0  0  0
  -16.9590  -28.3390   22.9170 C   0  0  0  0  0  3  0  0  0  0  0  0
  -25.8840  -32.7270   24.0160 C   0  0  0  0  0  3  0  0  0  0  0  0
  -25.5030  -34.1210   24.2820 N   0  0  0  0  0  0  0  0  0  0  0  0
  -25.8190  -35.1570   23.4940 C   0  0  0  0  0  0  0  0  0  0  0  0
  -26.5340  -35.0450   22.4930 O   0  0  0  0  0  0  0  0  0  0  0  0
  -24.8730  -34.2780   25.0550 H   0  0  0  0  0  0  0  0  0  0  0  0
  -24.0260  -36.8530   23.0080 C   0  0  0  0  0  1  0  0  0  0  0  0
  -25.2520  -36.5370   23.8790 C   0  0  0  0  0  3  0  0  0  0  0  0
  -27.3140  -37.5490   24.7480 C   0  0  0  0  0  1  0  0  0  0  0  0
  -26.2400  -37.6330   23.7620 N   0  0  0  0  0  0  0  0  0  0  0  0
  -25.7870  -38.5370   23.8610 H   0  0  0  0  0  0  0  0  0  0  0  0
  -26.3710  -32.0200   25.3410 C   0  0  1  0  0  0  0  0  0  0  0  0
  -25.2310  -31.7380   26.3460 C   0  0  0  0  0  1  0  0  0  0  0  0
  -27.0650  -30.6760   25.0190 C   0  0  0  0  0  1  0  0  0  0  0  0
  -27.4240  -32.9030   26.0510 C   0  0  0  0  0  1  0  0  0  0  0  0
  2  5  1  0
  3  1  1  0
  3 49  1  0
  4  3  2  0
  5 16  1  0
  5  1  2  0
  6  2  2  0
  6  4  1  0
  7  4  1  0
  8 16  1  0
  9 14  1  0
 10 11  1  0
 10  9  1  0
 12 11  1  0
 12 21  1  0
 12 13  1  0
 14  8  1  0
 14 13  1  0
 15  8  2  0
 16 17  1  0
 18 19  2  0
 19 20  1  0
 19 38  1  0
 20 23  1  0
 21 18  1  0
 21 22  1  0
 22 20  2  0
 23 24  1  0
 24 25  2  0
 26 29  1  0
 26 25  1  0
 27 26  2  0
 28 27  1  0
 28 23  2  0
 29 30  1  0
 30 35  2  0
 30 31  1  0
 31 32  2  0
 32 33  1  0
 33 37  1  0
 34 33  2  0
 35 34  1  0
 36 35  1  0
 38 39  1  0
 39 42  1  0
 39 41  1  0
 40 38  2  0
 43 44  1  0
 43 18  1  0
 45 43  1  0
 46 47  1  0
 47  6  1  0
 48 47  1  0
 49 51  1  0
 49 50  2  0
 51 52  1  0
 53 55  1  0
 53 52  1  0
 54 53  2  0
 56 55  1  0
 57 68  2  0
 58 56  1  0
 58 63  1  0
 59 67  1  0
 59 69  1  0
 60 62  1  0
 61 67  1  0
 62 63  2  0
 62 61  1  0
 64 58  2  0
 65 64  1  0
 65 60  2  0
 66 60  1  0
 66 59  1  0
 67 57  1  0
 69 71  2  0
 70 69  1  0
 72 70  1  0
 73 82  2  0
 73 78  1  0
 74 70  1  0
 74 78  1  0
 75 74  1  0
 76 77  1  0
 76 75  1  0
 77 73  1  0
 78 79  2  0
 79 80  1  0
 81 80  2  0
 82 81  1  0
 83 57  1  0
 83 84  1  0
 83 93  1  0
 84 87  1  0
 85 89  1  0
 85 84  1  0
 86 85  2  0
 89 88  1  0
 91 92  1  0
 91 89  1  0
 91 90  1  0
 93 96  1  1
 93 94  1  0
 95 93  1  0
M  ISO  4   8 100  16 100  55 101  56 101
M  END
>  <TORSDO>  (73) 
F 22

>  <SCORE>  (73) 
-10.407

>  <name>  (73) 
72

>  <ligand_id>  (73) 
72

>  <original_smiles>  (73) 
[H]c1c([H])c([H])c2c(c1[H])C([H])([H])C([H])([H])C([H])([H])C2([H])N([H])C(=O)C1([H])N(C(=O)C([H])(N([H])C(=O)C([H])(N([H])C([H])([H])[H])C([H])([H])[H])C(C([H])([H])[H])(C([H])([H])[H])C([H])([H])[H])C([H])([H])c2c([H])c(OC([H])([H])C(=O)C([H])([H])C([H])([H])C(=O)c3c([H])c(N([H])C(=O)N4C([H])([H])C([H])([H])C([H])([H])C([H])(n5nc(-c6c([H])c([H])c(Oc7c([H])c([H])c(F)c([H])c7F)c([H])c6[H])c(C(=O)N([H])[H])c5N([H])[H])C4([H])[H])c([H])c(N([H])C([H])([H])[H])c3C([H])([H])[H])c([H])c([H])c2C1([H])[H]

>  <smiles>  (73) 
[H]c1c([H])c([H])c2c(c1[H])C([H])([H])C([H])([H])C([H])([H])C2([H])N([H])C(=O)C1([H])N(C(=O)C([H])(N([H])C(=O)C([H])(N([H])C([H])([H])[H])C([H])([H])[H])C(C([H])([H])[H])(C([H])([H])[H])C([H])([H])[H])C([H])([H])c2c([H])c(OC([H])([H])C(=O)C([H])([H])C([H])([H])C(=O)c3c([H])c(N([H])C(=O)N4C([H])([H])C([H])([H])C([H])([H])C([H])(n5nc(-c6c([H])c([H])c(Oc7c([H])c([H])c(F)c([H])c7F)c([H])c6[H])c(C(=O)N([H])[H])c5N([H])[H])C4([H])[H])c([H])c(N([H])C([H])([H])[H])c3C([H])([H])[H])c([H])c([H])c2C1([H])[H]

$$$$
73:0:0
     RDKit          3D

 95103  0  0  1  0  0  0  0  0999 V2000
  -31.1380  -17.8850   20.6330 C   0  0  0  0  0  3  0  0  0  0  0  0
  -28.7430  -17.9440   20.5890 C   0  0  0  0  0  3  0  0  0  0  0  0
  -31.1870  -19.3200   20.5910 C   0  0  0  0  0  0  0  0  0  0  0  0
  -29.9220  -17.1580   20.6320 C   0  0  0  0  0  0  0  0  0  0  0  0
  -29.9820  -20.1060   20.5310 C   0  0  0  0  0  0  0  0  0  0  0  0
  -28.7640  -19.3670   20.5300 C   0  0  0  0  0  0  0  0  0  0  0  0
  -27.5760  -20.0180   20.4830 F   0  0  0  0  0  0  0  0  0  0  0  0
  -30.6010  -14.6670   20.2990 C   0  0  0  0  0  0  0  0  0  0  0  0
  -30.3660  -12.4620   19.1760 C   0  0  0  0  0  2  0  0  0  0  0  0
  -29.4010  -12.6200   17.9800 C   0  0  0  0  0  2  0  0  0  0  0  0
  -27.9330  -12.4590   18.4280 C   0  0  0  0  0  2  0  0  0  0  0  0
  -27.6000  -13.2940   19.6930 C   0  0  0  0  0  3  0  0  0  0  0  0
  -28.6750  -13.1030   20.7870 C   0  0  0  0  0  2  0  0  0  0  0  0
  -29.9780  -13.4510   20.2000 N   0  0  0  0  0  0  0  0  0  0  0  0
  -31.7530  -14.8360   19.8860 O   0  0  0  0  0  0  0  0  0  0  0  0
  -29.8040  -15.7010   20.7130 N   0  0  0  0  0  0  0  0  0  0  0  0
  -28.8940  -15.3720   20.9990 H   0  0  0  0  0  0  0  0  0  0  0  0
  -25.2100  -13.8910   20.4280 C   0  0  0  0  0  0  0  0  0  0  0  0
  -24.1500  -13.1170   20.8120 C   0  0  0  0  0  0  0  0  0  0  0  0
  -24.6150  -11.7670   20.7830 C   0  0  0  0  0  0  0  0  0  0  0  0
  -26.2550  -13.0120   20.1890 N   0  0  0  0  0  0  0  0  0  0  0  0
  -25.9030  -11.7300   20.4620 N   0  0  0  0  0  0  0  0  0  0  0  0
  -23.8940  -10.5030   20.9840 C   0  0  0  0  0  0  0  0  0  0  0  0
  -24.3340   -9.5430   21.9220 C   0  0  0  0  0  3  0  0  0  0  0  0
  -23.6120   -8.3440   22.1090 C   0  0  0  0  0  3  0  0  0  0  0  0
  -22.4390   -8.0960   21.3590 C   0  0  0  0  0  0  0  0  0  0  0  0
  -22.0180   -9.0450   20.4100 C   0  0  0  0  0  3  0  0  0  0  0  0
  -22.7390  -10.2360   20.2200 C   0  0  0  0  0  3  0  0  0  0  0  0
  -21.6890   -6.9490   21.4570 O   0  0  0  0  0  0  0  0  0  0  0  0
  -21.6380   -6.2190   22.6180 C   0  0  0  0  0  0  0  0  0  0  0  0
  -21.1750   -6.7780   23.8290 C   0  0  0  0  0  3  0  0  0  0  0  0
  -21.0710   -5.9730   24.9800 C   0  0  0  0  0  3  0  0  0  0  0  0
  -21.4220   -4.6100   24.9230 C   0  0  0  0  0  0  0  0  0  0  0  0
  -21.8780   -4.0510   23.7160 C   0  0  0  0  0  3  0  0  0  0  0  0
  -21.9830   -4.8540   22.5670 C   0  0  0  0  0  0  0  0  0  0  0  0
  -22.4010   -4.3040   21.4010 F   0  0  0  0  0  0  0  0  0  0  0  0
  -21.3160   -3.8360   26.0270 F   0  0  0  0  0  0  0  0  0  0  0  0
  -22.7530  -13.5910   21.0960 C   0  0  0  0  0  0  0  0  0  0  0  0
  -22.0360  -12.8980   21.9740 N   0  0  0  0  0  0  0  0  0  0  0  0
  -22.3060  -14.6110   20.5730 O   0  0  0  0  0  0  0  0  0  0  0  0
  -22.4100  -12.0730   22.4180 H   0  0  0  0  0  0  0  0  0  0  0  0
  -21.0990  -13.1990   22.2050 H   0  0  0  0  0  0  0  0  0  0  0  0
  -25.3690  -15.2620   20.2380 N   0  0  0  0  0  0  0  0  0  0  0  0
  -24.5900  -15.9050   20.3270 H   0  0  0  0  0  0  0  0  0  0  0  0
  -26.1850  -15.6860   19.8190 H   0  0  0  0  0  0  0  0  0  0  0  0
  -32.5310  -19.9660   20.6170 C   0  0  0  0  0  3  0  0  0  0  0  0
  -33.6460  -19.3710   20.7280 N   0  0  0  0  0  0  0  0  0  0  0  0
  -33.5390  -18.3670   20.8060 H   0  0  0  0  0  0  0  0  0  0  0  0
  -30.0180  -21.5510   20.4890 N   0  0  0  0  0  0  0  0  0  0  0  0
  -30.9180  -22.0180   20.5150 H   0  0  0  0  0  0  0  0  0  0  0  0
  -28.8740  -22.5050   20.3350 C   0  0  0  0  0  2  0  0  0  0  0  0
  -29.2270  -24.0460   20.3520 C   0  0  0  0  0  0  0  0  0  0  0  0
  -30.3700  -24.4130   20.6500 O   0  0  0  0  0  0  0  0  0  0  0  0
  -28.1130  -25.0870   19.9670 C   0  0  0  0  0  2  0  0  0  0  0  0
  -28.3770  -26.5210   20.2250 O   0  0  0  0  0  0  0  0  0  0  0  0
  -24.6310  -31.8720   23.2870 C   0  0  0  0  0  0  0  0  0  0  0  0
  -27.2600  -27.3710   20.1750 C   0  0  0  0  0  0  0  0  0  0  0  0
  -23.4340  -30.4980   21.6220 C   0  0  0  0  0  3  0  0  0  0  0  0
  -24.8900  -28.9730   20.1810 C   0  0  0  0  0  0  0  0  0  0  0  0
  -25.9740  -30.8230   21.4540 C   0  0  0  0  0  2  0  0  0  0  0  0
  -26.0570  -29.4560   20.7860 C   0  0  0  0  0  0  0  0  0  0  0  0
  -27.2450  -28.6670   20.7740 C   0  0  0  0  0  3  0  0  0  0  0  0
  -26.0650  -26.9430   19.5440 C   0  0  0  0  0  3  0  0  0  0  0  0
  -24.8950  -27.7210   19.5530 C   0  0  0  0  0  3  0  0  0  0  0  0
  -23.6530  -29.8440   20.2340 C   0  0  0  0  0  2  0  0  0  0  0  0
  -24.6990  -31.0800   22.1780 N   0  0  0  0  0  0  0  0  0  0  0  0
  -23.5460  -32.1440   23.8200 O   0  0  0  0  0  0  0  0  0  0  0  0
  -22.7690  -29.4660   22.5640 C   0  0  0  0  0  0  0  0  0  0  0  0
  -21.4440  -29.2870   22.4230 N   0  0  0  0  0  0  0  0  0  0  0  0
  -23.4420  -28.8310   23.3800 O   0  0  0  0  0  0  0  0  0  0  0  0
  -20.9610  -29.8530   21.7410 H   0  0  0  0  0  0  0  0  0  0  0  0
  -18.0630  -28.0910   22.8890 C   0  0  0  0  0  0  0  0  0  0  0  0
  -20.6190  -28.3400   23.1760 C   0  0  0  0  0  3  0  0  0  0  0  0
  -20.7210  -26.9160   22.5800 C   0  0  0  0  0  2  0  0  0  0  0  0
  -19.6240  -26.6110   21.5560 C   0  0  0  0  0  2  0  0  0  0  0  0
  -18.2390  -26.7510   22.1950 C   0  0  0  0  0  2  0  0  0  0  0  0
  -19.1810  -28.8450   23.3350 C   0  0  0  0  0  0  0  0  0  0  0  0
  -18.9620  -30.0990   23.9420 C   0  0  0  0  0  3  0  0  0  0  0  0
  -17.6580  -30.6010   24.1100 C   0  0  0  0  0  3  0  0  0  0  0  0
  -16.5540  -29.8450   23.6800 C   0  0  0  0  0  3  0  0  0  0  0  0
  -16.7570  -28.5920   23.0740 C   0  0  0  0  0  3  0  0  0  0  0  0
  -25.9130  -32.4940   23.9230 C   0  0  0  0  0  3  0  0  0  0  0  0
  -25.6130  -33.8960   24.2440 N   0  0  0  0  0  0  0  0  0  0  0  0
  -25.9340  -34.9410   23.4700 C   0  0  0  0  0  0  0  0  0  0  0  0
  -26.5850  -34.8270   22.4270 O   0  0  0  0  0  0  0  0  0  0  0  0
  -25.0310  -34.0590   25.0530 H   0  0  0  0  0  0  0  0  0  0  0  0
  -24.1870  -36.7240   23.1490 C   0  0  0  0  0  1  0  0  0  0  0  0
  -25.4570  -36.3340   23.9230 C   0  0  0  0  0  3  0  0  0  0  0  0
  -27.6140  -37.2410   24.6700 C   0  0  0  0  0  1  0  0  0  0  0  0
  -26.4800  -37.3910   23.7610 N   0  0  0  0  0  0  0  0  0  0  0  0
  -26.0730  -38.3100   23.9120 H   0  0  0  0  0  0  0  0  0  0  0  0
  -26.4040  -31.7220   25.2090 C   0  0  1  0  0  0  0  0  0  0  0  0
  -25.2940  -31.5000   26.2620 C   0  0  0  0  0  1  0  0  0  0  0  0
  -26.9800  -30.3380   24.8300 C   0  0  0  0  0  1  0  0  0  0  0  0
  -27.5500  -32.5100   25.8850 C   0  0  0  0  0  1  0  0  0  0  0  0
  2  4  2  0
  3 46  1  0
  3  1  2  0
  4  1  1  0
  4 16  1  0
  5  3  1  0
  6  5  2  0
  6  2  1  0
  7  6  1  0
  8 16  1  0
  9 14  1  0
 10 11  1  0
 10  9  1  0
 12 11  1  0
 12 21  1  0
 12 13  1  0
 14  8  1  0
 14 13  1  0
 15  8  2  0
 16 17  1  0
 18 19  2  0
 19 38  1  0
 20 19  1  0
 20 23  1  0
 21 18  1  0
 21 22  1  0
 22 20  2  0
 23 24  1  0
 24 25  2  0
 26 29  1  0
 26 25  1  0
 27 26  2  0
 28 27  1  0
 28 23  2  0
 29 30  1  0
 30 31  1  0
 31 32  2  0
 33 32  1  0
 33 37  1  0
 34 33  2  0
 35 30  2  0
 35 34  1  0
 36 35  1  0
 38 39  1  0
 39 42  1  0
 39 41  1  0
 40 38  2  0
 43 44  1  0
 43 18  1  0
 45 43  1  0
 46 47  2  0
 47 48  1  0
 49 50  1  0
 49  5  1  0
 51 52  1  0
 51 49  1  0
 52 53  2  0
 54 55  1  0
 54 52  1  0
 56 67  2  0
 57 55  1  0
 57 62  1  0
 58 66  1  0
 58 68  1  0
 59 65  1  0
 59 61  1  0
 60 66  1  0
 61 60  1  0
 62 61  2  0
 63 64  1  0
 63 57  2  0
 64 59  2  0
 65 58  1  0
 66 56  1  0
 68 70  2  0
 69 68  1  0
 71 69  1  0
 72 81  2  0
 72 77  1  0
 73 69  1  0
 73 77  1  0
 74 73  1  0
 75 76  1  0
 75 74  1  0
 76 72  1  0
 77 78  2  0
 78 79  1  0
 80 79  2  0
 81 80  1  0
 82 56  1  0
 82 83  1  0
 82 92  1  0
 83 86  1  0
 84 88  1  0
 84 83  1  0
 85 84  2  0
 88 87  1  0
 90 91  1  0
 90 88  1  0
 90 89  1  0
 92 95  1  1
 92 93  1  0
 94 92  1  0
M  ISO  4   8 100  16 100  54 101  55 101
M  END
>  <TORSDO>  (74) 
F 21

>  <SCORE>  (74) 
-13.743

>  <name>  (74) 
73

>  <ligand_id>  (74) 
73

>  <original_smiles>  (74) 
[H]N=C([H])c1c([H])c(N([H])C(=O)N2C([H])([H])C([H])([H])C([H])([H])C([H])(n3nc(-c4c([H])c([H])c(Oc5c([H])c([H])c(F)c([H])c5F)c([H])c4[H])c(C(=O)N([H])[H])c3N([H])[H])C2([H])[H])c([H])c(F)c1N([H])C([H])([H])C(=O)C([H])([H])Oc1c([H])c([H])c2c(c1[H])C([H])([H])N(C(=O)C([H])(N([H])C(=O)C([H])(N([H])C([H])([H])[H])C([H])([H])[H])C(C([H])([H])[H])(C([H])([H])[H])C([H])([H])[H])C([H])(C(=O)N([H])C1([H])c3c([H])c([H])c([H])c([H])c3C([H])([H])C([H])([H])C1([H])[H])C2([H])[H]

>  <smiles>  (74) 
[H]N=C([H])c1c([H])c(N([H])C(=O)N2C([H])([H])C([H])([H])C([H])([H])C([H])(n3nc(-c4c([H])c([H])c(Oc5c([H])c([H])c(F)c([H])c5F)c([H])c4[H])c(C(=O)N([H])[H])c3N([H])[H])C2([H])[H])c([H])c(F)c1N([H])C([H])([H])C(=O)C([H])([H])Oc1c([H])c([H])c2c(c1[H])C([H])([H])N(C(=O)C([H])(N([H])C(=O)C([H])(N([H])C([H])([H])[H])C([H])([H])[H])C(C([H])([H])[H])(C([H])([H])[H])C([H])([H])[H])C([H])(C(=O)N([H])C1([H])c3c([H])c([H])c([H])c([H])c3C([H])([H])C([H])([H])C1([H])[H])C2([H])[H]

$$$$
74:0:0
     RDKit          3D

 96104  0  0  1  0  0  0  0  0999 V2000
  -29.7220  -19.9060   20.8620 C   0  0  0  0  0  3  0  0  0  0  0  0
  -31.5180  -18.6690   19.2200 C   0  0  0  0  0  3  0  0  0  0  0  0
  -30.0870  -18.5700   21.1500 C   0  0  0  0  0  0  0  0  0  0  0  0
  -31.0360  -17.9300   20.3190 C   0  0  0  0  0  0  0  0  0  0  0  0
  -30.3020  -20.5980   19.7710 C   0  0  0  0  0  0  0  0  0  0  0  0
  -29.5650  -22.9760   20.2610 C   0  0  0  0  0  0  0  0  0  0  0  0
  -31.1600  -19.9460   18.9530 N   0  0  0  0  0  0  0  0  0  0  0  0
  -30.0100  -21.9670   19.4810 N   0  0  0  0  0  0  0  0  0  0  0  0
  -29.2160  -22.8340   21.4360 O   0  0  0  0  0  0  0  0  0  0  0  0
  -30.2820  -22.2880   18.5630 H   0  0  0  0  0  0  0  0  0  0  0  0
  -28.9800  -25.3490   20.1230 C   0  0  0  0  0  3  0  0  0  0  0  0
  -29.5490  -24.2640   19.5500 C   0  0  0  0  0  0  0  0  0  0  0  0
  -30.0960  -24.3710   18.3270 O   0  0  0  0  0  0  0  0  0  0  0  0
  -29.9820  -25.2740   18.0570 H   0  0  0  0  0  0  0  0  0  0  0  0
  -28.9210  -26.5980   19.5340 O   0  0  0  0  0  0  0  0  0  0  0  0
  -24.7900  -31.2270   23.0700 C   0  0  0  0  0  0  0  0  0  0  0  0
  -27.7100  -27.2500   19.6240 C   0  0  0  0  0  0  0  0  0  0  0  0
  -23.6560  -29.8180   21.3850 C   0  0  0  0  0  3  0  0  0  0  0  0
  -25.1890  -28.5180   19.8140 C   0  0  0  0  0  0  0  0  0  0  0  0
  -26.1280  -30.4300   21.1230 C   0  0  0  0  0  2  0  0  0  0  0  0
  -26.3170  -29.1150   20.3930 C   0  0  0  0  0  0  0  0  0  0  0  0
  -27.5830  -28.4880   20.2950 C   0  0  0  0  0  3  0  0  0  0  0  0
  -26.5650  -26.6700   19.0370 C   0  0  0  0  0  3  0  0  0  0  0  0
  -25.3070  -27.2940   19.1330 C   0  0  0  0  0  3  0  0  0  0  0  0
  -23.8720  -29.2470   19.9590 C   0  0  0  0  0  2  0  0  0  0  0  0
  -24.8770  -30.5050   21.9170 N   0  0  0  0  0  0  0  0  0  0  0  0
  -23.7110  -31.3620   23.6640 O   0  0  0  0  0  0  0  0  0  0  0  0
  -23.1430  -28.6820   22.3000 C   0  0  0  0  0  0  0  0  0  0  0  0
  -21.8860  -28.2620   22.0850 N   0  0  0  0  0  0  0  0  0  0  0  0
  -23.8750  -28.1840   23.1580 O   0  0  0  0  0  0  0  0  0  0  0  0
  -21.3480  -28.7270   21.3670 H   0  0  0  0  0  0  0  0  0  0  0  0
  -18.8420  -26.3180   22.2100 C   0  0  0  0  0  0  0  0  0  0  0  0
  -21.2070  -27.1800   22.7980 C   0  0  0  0  0  3  0  0  0  0  0  0
  -21.7160  -25.7980   22.3290 C   0  0  0  0  0  2  0  0  0  0  0  0
  -20.8730  -25.1950   21.2010 C   0  0  0  0  0  2  0  0  0  0  0  0
  -19.4180  -25.0290   21.6490 C   0  0  0  0  0  2  0  0  0  0  0  0
  -19.6830  -27.3340   22.7350 C   0  0  0  0  0  0  0  0  0  0  0  0
  -19.0990  -28.5280   23.2130 C   0  0  0  0  0  3  0  0  0  0  0  0
  -17.7040  -28.7120   23.1740 C   0  0  0  0  0  3  0  0  0  0  0  0
  -16.8750  -27.6970   22.6690 C   0  0  0  0  0  3  0  0  0  0  0  0
  -17.4440  -26.5020   22.1920 C   0  0  0  0  0  3  0  0  0  0  0  0
  -26.0360  -31.9410   23.6840 C   0  0  0  0  0  3  0  0  0  0  0  0
  -26.6580  -31.1630   24.9070 C   0  0  1  0  0  0  0  0  0  0  0  0
  -25.6230  -30.7770   25.9890 C   0  0  0  0  0  1  0  0  0  0  0  0
  -27.3510  -29.8640   24.4320 C   0  0  0  0  0  1  0  0  0  0  0  0
  -27.7520  -32.0280   25.5770 C   0  0  0  0  0  1  0  0  0  0  0  0
  -25.6200  -33.2920   24.0840 N   0  0  0  0  0  0  0  0  0  0  0  0
  -25.9240  -34.4110   23.4130 C   0  0  0  0  0  0  0  0  0  0  0  0
  -26.6540  -34.4170   22.4180 O   0  0  0  0  0  0  0  0  0  0  0  0
  -24.9750  -33.3550   24.8580 H   0  0  0  0  0  0  0  0  0  0  0  0
  -24.1180  -36.1230   23.0560 C   0  0  0  0  0  1  0  0  0  0  0  0
  -25.3230  -35.7320   23.9270 C   0  0  0  0  0  3  0  0  0  0  0  0
  -27.3350  -36.6730   24.9730 C   0  0  0  0  0  1  0  0  0  0  0  0
  -26.2950  -36.8460   23.9630 N   0  0  0  0  0  0  0  0  0  0  0  0
  -25.8240  -37.7300   24.1390 H   0  0  0  0  0  0  0  0  0  0  0  0
  -30.5210  -17.7770   23.5140 C   0  0  0  0  0  1  0  0  0  0  0  0
  -29.4960  -17.8970   22.3800 C   0  0  0  0  0  2  0  0  0  0  0  0
  -31.6680  -16.5590   20.6370 C   0  0  0  0  0  2  0  0  0  0  0  0
  -31.3990  -14.3160   19.5430 C   0  0  0  0  0  0  0  0  0  0  0  0
  -30.8610  -12.1260   18.5310 C   0  0  0  0  0  2  0  0  0  0  0  0
  -29.8230  -12.2990   17.4050 C   0  0  0  0  0  2  0  0  0  0  0  0
  -28.3920  -12.2650   17.9740 C   0  0  0  0  0  2  0  0  0  0  0  0
  -28.2130  -13.2040   19.1980 C   0  0  0  0  0  3  0  0  0  0  0  0
  -29.3510  -12.9980   20.2220 C   0  0  0  0  0  2  0  0  0  0  0  0
  -30.6320  -13.1910   19.5210 N   0  0  0  0  0  0  0  0  0  0  0  0
  -32.4490  -14.4200   18.9030 O   0  0  0  0  0  0  0  0  0  0  0  0
  -30.9200  -15.3440   20.2680 N   0  0  0  0  0  0  0  0  0  0  0  0
  -30.0430  -15.1800   20.7380 H   0  0  0  0  0  0  0  0  0  0  0  0
  -25.9660  -14.0010   20.1670 C   0  0  0  0  0  0  0  0  0  0  0  0
  -24.8750  -13.3160   20.6320 C   0  0  0  0  0  0  0  0  0  0  0  0
  -25.2060  -11.9300   20.5270 C   0  0  0  0  0  0  0  0  0  0  0  0
  -26.8970  -13.0370   19.8110 N   0  0  0  0  0  0  0  0  0  0  0  0
  -26.4480  -11.7850   20.0850 N   0  0  0  0  0  0  0  0  0  0  0  0
  -24.3900  -10.7320   20.7690 C   0  0  0  0  0  0  0  0  0  0  0  0
  -24.7960   -9.7370   21.6860 C   0  0  0  0  0  3  0  0  0  0  0  0
  -23.9860   -8.6030   21.9150 C   0  0  0  0  0  3  0  0  0  0  0  0
  -22.7570   -8.4580   21.2280 C   0  0  0  0  0  0  0  0  0  0  0  0
  -22.3700   -9.4410   20.3010 C   0  0  0  0  0  3  0  0  0  0  0  0
  -23.1800  -10.5660   20.0690 C   0  0  0  0  0  3  0  0  0  0  0  0
  -21.9190   -7.3780   21.3680 O   0  0  0  0  0  0  0  0  0  0  0  0
  -21.8330   -6.6810   22.5470 C   0  0  0  0  0  0  0  0  0  0  0  0
  -21.4380   -7.3020   23.7520 C   0  0  0  0  0  3  0  0  0  0  0  0
  -21.2960   -6.5340   24.9260 C   0  0  0  0  0  3  0  0  0  0  0  0
  -21.5380   -5.1470   24.8940 C   0  0  0  0  0  0  0  0  0  0  0  0
  -21.9250   -4.5270   23.6930 C   0  0  0  0  0  3  0  0  0  0  0  0
  -22.0690   -5.2920   22.5220 C   0  0  0  0  0  0  0  0  0  0  0  0
  -22.4220   -4.6860   21.3630 F   0  0  0  0  0  0  0  0  0  0  0  0
  -21.3930   -4.4080   26.0180 F   0  0  0  0  0  0  0  0  0  0  0  0
  -23.5630  -13.9080   21.0580 C   0  0  0  0  0  0  0  0  0  0  0  0
  -22.8740  -13.2610   21.9920 N   0  0  0  0  0  0  0  0  0  0  0  0
  -23.1630  -14.9770   20.5980 O   0  0  0  0  0  0  0  0  0  0  0  0
  -23.2110  -12.3950   22.3840 H   0  0  0  0  0  0  0  0  0  0  0  0
  -21.9960  -13.6380   22.3210 H   0  0  0  0  0  0  0  0  0  0  0  0
  -26.2370  -15.3550   19.9980 N   0  0  0  0  0  0  0  0  0  0  0  0
  -25.5470  -16.0720   20.1930 H   0  0  0  0  0  0  0  0  0  0  0  0
  -27.0820  -15.7230   19.5800 H   0  0  0  0  0  0  0  0  0  0  0  0
  1  3  1  0
  2  4  1  0
  3 57  1  0
  4 58  1  0
  4  3  2  0
  5  1  2  0
  6  9  2  0
  7  2  2  0
  7  5  1  0
  8  5  1  0
  8  6  1  0
 10  8  1  0
 12 11  2  0
 12  6  1  0
 13 12  1  0
 14 13  1  0
 15 17  1  0
 15 11  1  0
 16 27  2  0
 17 22  1  0
 18 26  1  0
 18 28  1  0
 19 25  1  0
 19 21  1  0
 20 26  1  0
 21 20  1  0
 22 21  2  0
 23 24  1  0
 23 17  2  0
 24 19  2  0
 25 18  1  0
 26 16  1  0
 28 30  2  0
 29 28  1  0
 31 29  1  0
 32 37  1  0
 33 29  1  0
 34 33  1  0
 35 36  1  0
 35 34  1  0
 36 32  1  0
 37 33  1  0
 37 38  2  0
 39 38  1  0
 40 39  2  0
 41 32  2  0
 41 40  1  0
 42 16  1  0
 42 47  1  0
 42 43  1  0
 43 46  1  1
 43 44  1  0
 45 43  1  0
 47 50  1  0
 48 52  1  0
 48 47  1  0
 49 48  2  0
 52 51  1  0
 52 54  1  0
 54 55  1  0
 54 53  1  0
 57 56  1  0
 59 67  1  0
 60 65  1  0
 61 62  1  0
 61 60  1  0
 63 62  1  0
 63 72  1  0
 63 64  1  0
 65 59  1  0
 65 64  1  0
 66 59  2  0
 67 58  1  0
 67 68  1  0
 69 70  2  0
 70 89  1  0
 71 70  1  0
 71 74  1  0
 72 73  1  0
 72 69  1  0
 73 71  2  0
 74 75  1  0
 75 76  2  0
 77 80  1  0
 77 76  1  0
 78 77  2  0
 79 78  1  0
 79 74  2  0
 80 81  1  0
 81 82  1  0
 82 83  2  0
 84 83  1  0
 84 88  1  0
 85 84  2  0
 86 81  2  0
 86 85  1  0
 87 86  1  0
 89 90  1  0
 90 93  1  0
 90 92  1  0
 91 89  2  0
 94 69  1  0
 94 95  1  0
 96 94  1  0
M  ISO  4  11 101  15 101  59 100  67 100
M  END
>  <TORSDO>  (75) 
F 20

>  <SCORE>  (75) 
-9.722

>  <name>  (75) 
74

>  <ligand_id>  (75) 
74

>  <original_smiles>  (75) 
[H]OC(C(=O)N([H])c1nc([H])c(C([H])([H])N([H])C(=O)N2C([H])([H])C([H])([H])C([H])([H])C([H])(n3nc(-c4c([H])c([H])c(Oc5c([H])c([H])c(F)c([H])c5F)c([H])c4[H])c(C(=O)N([H])[H])c3N([H])[H])C2([H])[H])c(C([H])([H])C([H])([H])[H])c1[H])=C([H])Oc1c([H])c([H])c2c(c1[H])C([H])([H])N(C(=O)C([H])(N([H])C(=O)C([H])(N([H])C([H])([H])[H])C([H])([H])[H])C(C([H])([H])[H])(C([H])([H])[H])C([H])([H])[H])C([H])(C(=O)N([H])C1([H])c3c([H])c([H])c([H])c([H])c3C([H])([H])C([H])([H])C1([H])[H])C2([H])[H]

>  <smiles>  (75) 
[H]OC(C(=O)N([H])c1nc([H])c(C([H])([H])N([H])C(=O)N2C([H])([H])C([H])([H])C([H])([H])C([H])(n3nc(-c4c([H])c([H])c(Oc5c([H])c([H])c(F)c([H])c5F)c([H])c4[H])c(C(=O)N([H])[H])c3N([H])[H])C2([H])[H])c(C([H])([H])C([H])([H])[H])c1[H])=C([H])Oc1c([H])c([H])c2c(c1[H])C([H])([H])N(C(=O)C([H])(N([H])C(=O)C([H])(N([H])C([H])([H])[H])C([H])([H])[H])C(C([H])([H])[H])(C([H])([H])[H])C([H])([H])[H])C([H])(C(=O)N([H])C1([H])c3c([H])c([H])c([H])c([H])c3C([H])([H])C([H])([H])C1([H])[H])C2([H])[H]

$$$$
75:0:0
     RDKit          3D

 95103  0  0  1  0  0  0  0  0999 V2000
  -27.9470  -22.9320   20.2160 C   0  0  0  0  0  0  0  0  0  0  0  0
  -28.5420  -21.7730   20.5910 N   0  0  0  0  0  0  0  0  0  0  0  0
  -26.7940  -22.9250   19.7750 O   0  0  0  0  0  0  0  0  0  0  0  0
  -27.9040  -20.9930   20.6660 H   0  0  0  0  0  0  0  0  0  0  0  0
  -28.6620  -24.2920   20.5460 C   0  0  0  0  0  0  0  0  0  0  0  0
  -29.2000  -24.4950   21.6420 O   0  0  0  0  0  0  0  0  0  0  0  0
  -28.6040  -25.4160   19.4840 C   0  0  0  0  0  2  0  0  0  0  0  0
  -28.4720  -26.7290   20.0840 O   0  0  0  0  0  0  0  0  0  0  0  0
  -24.6270  -31.8610   23.1950 C   0  0  0  0  0  0  0  0  0  0  0  0
  -27.2660  -27.4160   20.0810 C   0  0  0  0  0  0  0  0  0  0  0  0
  -23.4150  -30.4700   21.5470 C   0  0  0  0  0  3  0  0  0  0  0  0
  -24.8630  -28.9370   20.1090 C   0  0  0  0  0  0  0  0  0  0  0  0
  -25.9440  -30.8230   21.3480 C   0  0  0  0  0  2  0  0  0  0  0  0
  -26.0220  -29.4510   20.7010 C   0  0  0  0  0  0  0  0  0  0  0  0
  -27.2210  -28.7000   20.6820 C   0  0  0  0  0  3  0  0  0  0  0  0
  -26.0760  -26.9130   19.4990 C   0  0  0  0  0  3  0  0  0  0  0  0
  -24.8870  -27.6680   19.5070 C   0  0  0  0  0  3  0  0  0  0  0  0
  -23.6190  -29.7960   20.1640 C   0  0  0  0  0  2  0  0  0  0  0  0
  -24.6800  -31.0680   22.0870 N   0  0  0  0  0  0  0  0  0  0  0  0
  -23.5480  -32.1290   23.7420 O   0  0  0  0  0  0  0  0  0  0  0  0
  -22.7680  -29.4440   22.5050 C   0  0  0  0  0  0  0  0  0  0  0  0
  -21.4400  -29.2710   22.3890 N   0  0  0  0  0  0  0  0  0  0  0  0
  -23.4550  -28.8070   23.3070 O   0  0  0  0  0  0  0  0  0  0  0  0
  -20.9440  -29.8290   21.7090 H   0  0  0  0  0  0  0  0  0  0  0  0
  -18.0630  -28.1000   22.9200 C   0  0  0  0  0  0  0  0  0  0  0  0
  -20.6270  -28.3320   23.1610 C   0  0  0  0  0  3  0  0  0  0  0  0
  -20.7110  -26.9070   22.5680 C   0  0  0  0  0  2  0  0  0  0  0  0
  -19.5930  -26.6070   21.5650 C   0  0  0  0  0  2  0  0  0  0  0  0
  -18.2180  -26.7570   22.2240 C   0  0  0  0  0  2  0  0  0  0  0  0
  -19.1950  -28.8460   23.3450 C   0  0  0  0  0  0  0  0  0  0  0  0
  -18.9950  -30.1040   23.9530 C   0  0  0  0  0  3  0  0  0  0  0  0
  -17.6990  -30.6170   24.1400 C   0  0  0  0  0  3  0  0  0  0  0  0
  -16.5810  -29.8680   23.7300 C   0  0  0  0  0  3  0  0  0  0  0  0
  -16.7650  -28.6110   23.1250 C   0  0  0  0  0  3  0  0  0  0  0  0
  -25.9170  -32.4860   23.8160 C   0  0  0  0  0  3  0  0  0  0  0  0
  -26.4580  -31.6900   25.0670 C   0  0  1  0  0  0  0  0  0  0  0  0
  -25.3820  -31.4260   26.1440 C   0  0  0  0  0  1  0  0  0  0  0  0
  -27.0430  -30.3230   24.6400 C   0  0  0  0  0  1  0  0  0  0  0  0
  -27.6110  -32.4780   25.7320 C   0  0  0  0  0  1  0  0  0  0  0  0
  -25.6080  -33.8760   24.1780 N   0  0  0  0  0  0  0  0  0  0  0  0
  -25.9200  -34.9430   23.4310 C   0  0  0  0  0  0  0  0  0  0  0  0
  -26.5740  -34.8620   22.3880 O   0  0  0  0  0  0  0  0  0  0  0  0
  -25.0270  -34.0160   24.9930 H   0  0  0  0  0  0  0  0  0  0  0  0
  -24.1690  -36.7220   23.1360 C   0  0  0  0  0  1  0  0  0  0  0  0
  -25.4270  -36.3170   23.9190 C   0  0  0  0  0  3  0  0  0  0  0  0
  -27.5670  -37.2050   24.7300 C   0  0  0  0  0  1  0  0  0  0  0  0
  -26.4470  -37.3820   23.8080 N   0  0  0  0  0  0  0  0  0  0  0  0
  -26.0330  -38.2950   23.9760 H   0  0  0  0  0  0  0  0  0  0  0  0
  -30.9300  -21.8160   21.3910 C   0  0  0  0  0  1  0  0  0  0  0  0
  -29.9150  -21.2740   20.3680 C   0  0  0  0  0  3  0  0  0  0  0  0
  -30.9000  -17.6100   19.6060 C   0  0  0  0  0  3  0  0  0  0  0  0
  -29.2450  -17.7350   21.3460 C   0  0  0  0  0  3  0  0  0  0  0  0
  -30.0830  -16.9300   20.5440 C   0  0  0  0  0  0  0  0  0  0  0  0
  -30.8430  -19.0200   19.5240 C   0  0  0  0  0  0  0  0  0  0  0  0
  -29.9620  -19.7280   20.3730 C   0  0  0  0  0  0  0  0  0  0  0  0
  -29.1750  -19.0890   21.2740 N   0  0  0  0  0  0  0  0  0  0  0  0
  -31.6370  -19.6810   18.6480 F   0  0  0  0  0  0  0  0  0  0  0  0
  -30.7120  -14.5180   20.0730 C   0  0  0  0  0  0  0  0  0  0  0  0
  -30.3830  -12.3660   18.9140 C   0  0  0  0  0  2  0  0  0  0  0  0
  -29.3730  -12.5850   17.7690 C   0  0  0  0  0  2  0  0  0  0  0  0
  -27.9260  -12.4310   18.2790 C   0  0  0  0  0  2  0  0  0  0  0  0
  -27.6590  -13.2420   19.5750 C   0  0  0  0  0  3  0  0  0  0  0  0
  -28.7760  -12.9960   20.6140 C   0  0  0  0  0  2  0  0  0  0  0  0
  -30.0650  -13.3250   19.9840 N   0  0  0  0  0  0  0  0  0  0  0  0
  -31.8050  -14.7290   19.5400 O   0  0  0  0  0  0  0  0  0  0  0  0
  -30.0200  -15.4950   20.7030 N   0  0  0  0  0  0  0  0  0  0  0  0
  -29.2310  -15.1540   21.2340 H   0  0  0  0  0  0  0  0  0  0  0  0
  -25.3090  -13.8320   20.4360 C   0  0  0  0  0  0  0  0  0  0  0  0
  -24.2650  -13.0530   20.8520 C   0  0  0  0  0  0  0  0  0  0  0  0
  -24.7210  -11.7010   20.7660 C   0  0  0  0  0  0  0  0  0  0  0  0
  -26.3370  -12.9560   20.1240 N   0  0  0  0  0  0  0  0  0  0  0  0
  -25.9910  -11.6690   20.3810 N   0  0  0  0  0  0  0  0  0  0  0  0
  -24.0070  -10.4340   20.9720 C   0  0  0  0  0  0  0  0  0  0  0  0
  -24.4610   -9.4740   21.9020 C   0  0  0  0  0  3  0  0  0  0  0  0
  -23.7490   -8.2710   22.0960 C   0  0  0  0  0  3  0  0  0  0  0  0
  -22.5660   -8.0220   21.3600 C   0  0  0  0  0  0  0  0  0  0  0  0
  -22.1310   -8.9690   20.4170 C   0  0  0  0  0  3  0  0  0  0  0  0
  -22.8460  -10.1630   20.2220 C   0  0  0  0  0  3  0  0  0  0  0  0
  -21.8210   -6.8720   21.4650 O   0  0  0  0  0  0  0  0  0  0  0  0
  -21.7530   -6.1640   22.6380 C   0  0  0  0  0  0  0  0  0  0  0  0
  -21.2980   -6.7510   23.8390 C   0  0  0  0  0  3  0  0  0  0  0  0
  -21.1750   -5.9680   25.0040 C   0  0  0  0  0  3  0  0  0  0  0  0
  -21.4960   -4.5970   24.9670 C   0  0  0  0  0  0  0  0  0  0  0  0
  -21.9420   -4.0090   23.7700 C   0  0  0  0  0  3  0  0  0  0  0  0
  -22.0660   -4.7900   22.6080 C   0  0  0  0  0  0  0  0  0  0  0  0
  -22.4770   -4.2140   21.4530 F   0  0  0  0  0  0  0  0  0  0  0  0
  -21.3710   -3.8410   26.0820 F   0  0  0  0  0  0  0  0  0  0  0  0
  -22.8840  -13.5220   21.2120 C   0  0  0  0  0  0  0  0  0  0  0  0
  -22.2050  -12.8090   22.1040 N   0  0  0  0  0  0  0  0  0  0  0  0
  -22.4150  -14.5550   20.7360 O   0  0  0  0  0  0  0  0  0  0  0  0
  -22.5950  -11.9730   22.5130 H   0  0  0  0  0  0  0  0  0  0  0  0
  -21.2790  -13.1040   22.3820 H   0  0  0  0  0  0  0  0  0  0  0  0
  -25.4650  -15.2070   20.2800 N   0  0  0  0  0  0  0  0  0  0  0  0
  -24.7100  -15.8600   20.4540 H   0  0  0  0  0  0  0  0  0  0  0  0
  -26.2910  -15.6480   19.8970 H   0  0  0  0  0  0  0  0  0  0  0  0
  1  5  1  0
  1  2  1  0
  2  4  1  0
  3  1  2  0
  5  6  2  0
  7  8  1  0
  7  5  1  0
  9 20  2  0
 10  8  1  0
 10 15  1  0
 11 19  1  0
 11 21  1  0
 12 18  1  0
 12 14  1  0
 13 19  1  0
 14 13  1  0
 15 14  2  0
 16 17  1  0
 16 10  2  0
 17 12  2  0
 18 11  1  0
 19  9  1  0
 21 23  2  0
 22 21  1  0
 24 22  1  0
 25 34  2  0
 25 30  1  0
 26 22  1  0
 26 30  1  0
 27 26  1  0
 28 29  1  0
 28 27  1  0
 29 25  1  0
 30 31  2  0
 31 32  1  0
 33 32  2  0
 34 33  1  0
 35  9  1  0
 35 40  1  0
 35 36  1  0
 36 39  1  1
 36 37  1  0
 38 36  1  0
 40 43  1  0
 41 45  1  0
 41 40  1  0
 42 41  2  0
 45 44  1  0
 47 45  1  0
 47 48  1  0
 47 46  1  0
 50 55  1  0
 50  2  1  0
 50 49  1  0
 51 53  1  0
 53 66  1  0
 53 52  2  0
 54 51  2  0
 54 55  1  0
 55 56  2  0
 56 52  1  0
 57 54  1  0
 58 66  1  0
 59 64  1  0
 60 61  1  0
 60 59  1  0
 62 61  1  0
 62 71  1  0
 62 63  1  0
 64 58  1  0
 64 63  1  0
 65 58  2  0
 66 67  1  0
 68 69  2  0
 69 88  1  0
 70 69  1  0
 70 73  1  0
 71 72  1  0
 71 68  1  0
 72 70  2  0
 73 74  1  0
 74 75  2  0
 76 79  1  0
 76 75  1  0
 77 76  2  0
 78 77  1  0
 78 73  2  0
 79 80  1  0
 80 81  1  0
 81 82  2  0
 83 82  1  0
 83 87  1  0
 84 83  2  0
 85 80  2  0
 85 84  1  0
 86 85  1  0
 88 89  1  0
 89 92  1  0
 89 91  1  0
 90 88  2  0
 93 68  1  0
 93 94  1  0
 95 93  1  0
M  ISO  4   7 101   8 101  58 100  66 100
M  END
>  <TORSDO>  (76) 
F 20

>  <SCORE>  (76) 
-13.373

>  <name>  (76) 
75

>  <ligand_id>  (76) 
75

>  <original_smiles>  (76) 
[H]c1nc(C([H])(N([H])C(=O)C(=O)C([H])([H])Oc2c([H])c([H])c3c(c2[H])C([H])([H])N(C(=O)C([H])(N([H])C(=O)C([H])(N([H])C([H])([H])[H])C([H])([H])[H])C(C([H])([H])[H])(C([H])([H])[H])C([H])([H])[H])C([H])(C(=O)N([H])C2([H])c4c([H])c([H])c([H])c([H])c4C([H])([H])C([H])([H])C2([H])[H])C3([H])[H])C([H])([H])[H])c(F)c([H])c1N([H])C(=O)N1C([H])([H])C([H])([H])C([H])([H])C([H])(n2nc(-c3c([H])c([H])c(Oc4c([H])c([H])c(F)c([H])c4F)c([H])c3[H])c(C(=O)N([H])[H])c2N([H])[H])C1([H])[H]

>  <smiles>  (76) 
[H]c1nc(C([H])(N([H])C(=O)C(=O)C([H])([H])Oc2c([H])c([H])c3c(c2[H])C([H])([H])N(C(=O)C([H])(N([H])C(=O)C([H])(N([H])C([H])([H])[H])C([H])([H])[H])C(C([H])([H])[H])(C([H])([H])[H])C([H])([H])[H])C([H])(C(=O)N([H])C2([H])c4c([H])c([H])c([H])c([H])c4C([H])([H])C([H])([H])C2([H])[H])C3([H])[H])C([H])([H])[H])c(F)c([H])c1N([H])C(=O)N1C([H])([H])C([H])([H])C([H])([H])C([H])(n2nc(-c3c([H])c([H])c(Oc4c([H])c([H])c(F)c([H])c4F)c([H])c3[H])c(C(=O)N([H])[H])c2N([H])[H])C1([H])[H]

$$$$
76:0:0
     RDKit          3D

 96105  0  0  1  0  0  0  0  0999 V2000
  -30.9540  -23.3770   21.8020 C   0  0  0  0  0  2  0  0  0  0  0  0
  -30.6260  -21.8690   21.8440 C   0  0  0  0  0  2  0  0  0  0  0  0
  -29.3450  -21.8690   19.6230 C   0  0  0  0  0  2  0  0  0  0  0  0
  -29.7870  -24.2730   21.3310 C   0  0  0  0  0  2  0  0  0  0  0  0
  -29.7530  -23.2140   18.9620 C   0  0  0  0  0  2  0  0  0  0  0  0
  -30.4770  -21.2160   20.4570 C   0  0  0  0  0  3  0  0  0  0  0  0
  -29.6970  -24.5330   19.8060 C   0  0  2  0  0  0  0  0  0  0  0  0
  -29.2580  -17.7700   21.2060 C   0  0  0  0  0  3  0  0  0  0  0  0
  -30.3880  -19.6790   20.5330 C   0  0  0  0  0  0  0  0  0  0  0  0
  -30.2660  -16.9290   20.6570 C   0  0  0  0  0  0  0  0  0  0  0  0
  -31.4080  -18.8540   19.9880 C   0  0  0  0  0  0  0  0  0  0  0  0
  -29.3080  -19.1280   21.1500 N   0  0  0  0  0  0  0  0  0  0  0  0
  -31.3410  -17.5020   20.0520 N   0  0  0  0  0  0  0  0  0  0  0  0
  -32.4880  -19.4050   19.3850 F   0  0  0  0  0  0  0  0  0  0  0  0
  -30.7100  -14.5200   20.1100 C   0  0  0  0  0  0  0  0  0  0  0  0
  -30.3310  -12.3980   18.9130 C   0  0  0  0  0  2  0  0  0  0  0  0
  -29.3200  -12.6460   17.7740 C   0  0  0  0  0  2  0  0  0  0  0  0
  -27.8750  -12.4920   18.2880 C   0  0  0  0  0  2  0  0  0  0  0  0
  -27.6160  -13.2880   19.5950 C   0  0  0  0  0  3  0  0  0  0  0  0
  -28.7350  -13.0310   20.6300 C   0  0  0  0  0  2  0  0  0  0  0  0
  -30.0260  -13.3480   19.9970 N   0  0  0  0  0  0  0  0  0  0  0  0
  -31.8090  -14.6890   19.5720 O   0  0  0  0  0  0  0  0  0  0  0  0
  -30.0580  -15.5140   20.7500 N   0  0  0  0  0  0  0  0  0  0  0  0
  -29.2130  -15.2300   21.2210 H   0  0  0  0  0  0  0  0  0  0  0  0
  -25.2620  -13.8700   20.4590 C   0  0  0  0  0  0  0  0  0  0  0  0
  -24.2180  -13.0860   20.8700 C   0  0  0  0  0  0  0  0  0  0  0  0
  -24.6770  -11.7360   20.7750 C   0  0  0  0  0  0  0  0  0  0  0  0
  -26.2920  -12.9970   20.1440 N   0  0  0  0  0  0  0  0  0  0  0  0
  -25.9470  -11.7070   20.3900 N   0  0  0  0  0  0  0  0  0  0  0  0
  -23.9640  -10.4670   20.9720 C   0  0  0  0  0  0  0  0  0  0  0  0
  -24.4150   -9.5030   21.8990 C   0  0  0  0  0  3  0  0  0  0  0  0
  -23.7030   -8.2980   22.0850 C   0  0  0  0  0  3  0  0  0  0  0  0
  -22.5240   -8.0510   21.3430 C   0  0  0  0  0  0  0  0  0  0  0  0
  -22.0910   -9.0040   20.4040 C   0  0  0  0  0  3  0  0  0  0  0  0
  -22.8050  -10.1990   20.2170 C   0  0  0  0  0  3  0  0  0  0  0  0
  -21.7810   -6.8980   21.4370 O   0  0  0  0  0  0  0  0  0  0  0  0
  -21.7000   -6.1880   22.6070 C   0  0  0  0  0  0  0  0  0  0  0  0
  -21.1930   -6.7620   23.7940 C   0  0  0  0  0  3  0  0  0  0  0  0
  -21.0620   -5.9760   24.9560 C   0  0  0  0  0  3  0  0  0  0  0  0
  -21.4270   -4.6170   24.9330 C   0  0  0  0  0  0  0  0  0  0  0  0
  -21.9270   -4.0430   23.7510 C   0  0  0  0  0  3  0  0  0  0  0  0
  -22.0600   -4.8250   22.5920 C   0  0  0  0  0  0  0  0  0  0  0  0
  -22.5220   -4.2620   21.4500 F   0  0  0  0  0  0  0  0  0  0  0  0
  -21.2950   -3.8600   26.0470 F   0  0  0  0  0  0  0  0  0  0  0  0
  -22.8380  -13.5520   21.2370 C   0  0  0  0  0  0  0  0  0  0  0  0
  -22.1630  -12.8300   22.1240 N   0  0  0  0  0  0  0  0  0  0  0  0
  -22.3710  -14.5910   20.7730 O   0  0  0  0  0  0  0  0  0  0  0  0
  -22.5540  -11.9890   22.5200 H   0  0  0  0  0  0  0  0  0  0  0  0
  -21.2400  -13.1260   22.4100 H   0  0  0  0  0  0  0  0  0  0  0  0
  -25.4150  -15.2450   20.3070 N   0  0  0  0  0  0  0  0  0  0  0  0
  -24.6490  -15.8910   20.4600 H   0  0  0  0  0  0  0  0  0  0  0  0
  -26.2290  -15.6880   19.9000 H   0  0  0  0  0  0  0  0  0  0  0  0
  -30.9920  -25.8210   18.1690 C   0  0  0  0  0  1  0  0  0  0  0  0
  -30.8640  -25.3080   19.4950 O   0  0  0  0  0  0  0  0  0  0  0  0
  -28.4090  -25.3600   19.4900 C   0  0  0  0  0  2  0  0  0  0  0  0
  -28.4250  -26.7010   20.0200 O   0  0  0  0  0  0  0  0  0  0  0  0
  -24.5470  -31.8290   23.1060 C   0  0  0  0  0  0  0  0  0  0  0  0
  -27.2450  -27.4270   19.9900 C   0  0  0  0  0  0  0  0  0  0  0  0
  -23.3660  -30.4430   21.4350 C   0  0  0  0  0  3  0  0  0  0  0  0
  -24.8400  -28.9350   20.0040 C   0  0  0  0  0  0  0  0  0  0  0  0
  -25.8940  -30.8130   21.2700 C   0  0  0  0  0  2  0  0  0  0  0  0
  -25.9920  -29.4500   20.6110 C   0  0  0  0  0  0  0  0  0  0  0  0
  -27.1940  -28.7020   20.6030 C   0  0  0  0  0  3  0  0  0  0  0  0
  -26.0670  -26.9360   19.3740 C   0  0  0  0  0  3  0  0  0  0  0  0
  -24.8740  -27.6770   19.3840 C   0  0  0  0  0  3  0  0  0  0  0  0
  -23.5910  -29.7860   20.0490 C   0  0  0  0  0  2  0  0  0  0  0  0
  -24.6200  -31.0430   21.9950 N   0  0  0  0  0  0  0  0  0  0  0  0
  -23.4600  -32.0880   23.6400 O   0  0  0  0  0  0  0  0  0  0  0  0
  -22.7110  -29.4030   22.3750 C   0  0  0  0  0  0  0  0  0  0  0  0
  -21.3840  -29.2380   22.2560 N   0  0  0  0  0  0  0  0  0  0  0  0
  -23.3950  -28.7490   23.1680 O   0  0  0  0  0  0  0  0  0  0  0  0
  -20.8940  -29.8160   21.5870 H   0  0  0  0  0  0  0  0  0  0  0  0
  -17.9970  -28.0990   22.7830 C   0  0  0  0  0  0  0  0  0  0  0  0
  -20.5640  -28.2910   23.0100 C   0  0  0  0  0  3  0  0  0  0  0  0
  -20.6230  -26.8800   22.3820 C   0  0  0  0  0  2  0  0  0  0  0  0
  -19.4940  -26.6190   21.3790 C   0  0  0  0  0  2  0  0  0  0  0  0
  -18.1280  -26.7730   22.0550 C   0  0  0  0  0  2  0  0  0  0  0  0
  -19.1400  -28.8200   23.2170 C   0  0  0  0  0  0  0  0  0  0  0  0
  -18.9630  -30.0670   23.8550 C   0  0  0  0  0  3  0  0  0  0  0  0
  -17.6730  -30.5900   24.0670 C   0  0  0  0  0  3  0  0  0  0  0  0
  -16.5450  -29.8650   23.6510 C   0  0  0  0  0  3  0  0  0  0  0  0
  -16.7060  -28.6210   23.0140 C   0  0  0  0  0  3  0  0  0  0  0  0
  -25.8240  -32.4590   23.7450 C   0  0  0  0  0  3  0  0  0  0  0  0
  -26.3490  -31.6610   25.0010 C   0  0  1  0  0  0  0  0  0  0  0  0
  -25.2580  -31.3830   26.0610 C   0  0  0  0  0  1  0  0  0  0  0  0
  -26.9500  -30.3030   24.5720 C   0  0  0  0  0  1  0  0  0  0  0  0
  -27.4890  -32.4530   25.6850 C   0  0  0  0  0  1  0  0  0  0  0  0
  -25.4970  -33.8450   24.1100 N   0  0  0  0  0  0  0  0  0  0  0  0
  -25.8080  -34.9180   23.3700 C   0  0  0  0  0  0  0  0  0  0  0  0
  -26.4710  -34.8480   22.3330 O   0  0  0  0  0  0  0  0  0  0  0  0
  -24.9100  -33.9730   24.9200 H   0  0  0  0  0  0  0  0  0  0  0  0
  -24.0540  -36.6930   23.0610 C   0  0  0  0  0  1  0  0  0  0  0  0
  -25.3020  -36.2880   23.8620 C   0  0  0  0  0  3  0  0  0  0  0  0
  -27.4220  -37.1860   24.7140 C   0  0  0  0  0  1  0  0  0  0  0  0
  -26.3190  -37.3580   23.7730 N   0  0  0  0  0  0  0  0  0  0  0  0
  -25.8990  -38.2680   23.9400 H   0  0  0  0  0  0  0  0  0  0  0  0
  1  2  1  0
  3  6  1  0
  4  1  1  0
  5  3  1  0
  5  7  1  0
  6  9  1  0
  6  2  1  0
  7 55  1  1
  7  4  1  0
  9 12  2  0
 10 23  1  0
 10  8  2  0
 11 13  2  0
 11  9  1  0
 12  8  1  0
 13 10  1  0
 14 11  1  0
 15 23  1  0
 16 21  1  0
 17 18  1  0
 17 16  1  0
 19 18  1  0
 19 28  1  0
 19 20  1  0
 21 15  1  0
 21 20  1  0
 22 15  2  0
 23 24  1  0
 25 26  2  0
 26 45  1  0
 27 26  1  0
 27 30  1  0
 28 29  1  0
 28 25  1  0
 29 27  2  0
 30 31  1  0
 31 32  2  0
 33 36  1  0
 33 32  1  0
 34 33  2  0
 35 34  1  0
 35 30  2  0
 36 37  1  0
 37 38  1  0
 38 39  2  0
 40 39  1  0
 40 44  1  0
 41 40  2  0
 42 37  2  0
 42 41  1  0
 43 42  1  0
 45 46  1  0
 46 49  1  0
 46 48  1  0
 47 45  2  0
 50 25  1  0
 50 51  1  0
 52 50  1  0
 53 54  1  0
 54  7  1  0
 55 56  1  0
 57 68  2  0
 58 56  1  0
 58 63  1  0
 59 67  1  0
 59 69  1  0
 60 66  1  0
 60 62  1  0
 61 67  1  0
 62 61  1  0
 63 62  2  0
 64 65  1  0
 64 58  2  0
 65 60  2  0
 66 59  1  0
 67 57  1  0
 69 71  2  0
 70 69  1  0
 72 70  1  0
 73 82  2  0
 73 78  1  0
 74 70  1  0
 74 78  1  0
 75 74  1  0
 76 77  1  0
 76 75  1  0
 77 73  1  0
 78 79  2  0
 79 80  1  0
 81 80  2  0
 82 81  1  0
 83 57  1  0
 83 88  1  0
 83 84  1  0
 84 87  1  1
 84 85  1  0
 86 84  1  0
 88 91  1  0
 89 93  1  0
 89 88  1  0
 90 89  2  0
 93 92  1  0
 95 93  1  0
 95 96  1  0
 95 94  1  0
M  ISO  4  15 100  23 100  55 101  56 101
M  END
>  <TORSDO>  (77) 
F 19

>  <SCORE>  (77) 
-13.812

>  <name>  (77) 
76

>  <ligand_id>  (77) 
76

>  <original_smiles>  (77) 
[H]c1nc(C2([H])C([H])([H])C([H])([H])C([H])([H])C(OC([H])([H])[H])(C([H])([H])Oc3c([H])c([H])c4c(c3[H])C([H])([H])N(C(=O)C([H])(N([H])C(=O)C([H])(N([H])C([H])([H])[H])C([H])([H])[H])C(C([H])([H])[H])(C([H])([H])[H])C([H])([H])[H])C([H])(C(=O)N([H])C3([H])c5c([H])c([H])c([H])c([H])c5C([H])([H])C([H])([H])C3([H])[H])C4([H])[H])C([H])([H])C2([H])[H])c(F)nc1N([H])C(=O)N1C([H])([H])C([H])([H])C([H])([H])C([H])(n2nc(-c3c([H])c([H])c(Oc4c([H])c([H])c(F)c([H])c4F)c([H])c3[H])c(C(=O)N([H])[H])c2N([H])[H])C1([H])[H]

>  <smiles>  (77) 
[H]c1nc(C2([H])C([H])([H])C([H])([H])C([H])([H])C(OC([H])([H])[H])(C([H])([H])Oc3c([H])c([H])c4c(c3[H])C([H])([H])N(C(=O)C([H])(N([H])C(=O)C([H])(N([H])C([H])([H])[H])C([H])([H])[H])C(C([H])([H])[H])(C([H])([H])[H])C([H])([H])[H])C([H])(C(=O)N([H])C3([H])c5c([H])c([H])c([H])c([H])c5C([H])([H])C([H])([H])C3([H])[H])C4([H])[H])C([H])([H])C2([H])[H])c(F)nc1N([H])C(=O)N1C([H])([H])C([H])([H])C([H])([H])C([H])(n2nc(-c3c([H])c([H])c(Oc4c([H])c([H])c(F)c([H])c4F)c([H])c3[H])c(C(=O)N([H])[H])c2N([H])[H])C1([H])[H]

$$$$
77:0:0
     RDKit          3D

 94102  0  0  1  0  0  0  0  0999 V2000
  -28.6810  -21.7250   20.5830 C   0  0  0  0  0  0  0  0  0  0  0  0
  -27.7040  -21.6340   21.3370 O   0  0  0  0  0  0  0  0  0  0  0  0
  -30.5660  -15.1520   20.2610 C   0  0  0  0  0  0  0  0  0  0  0  0
  -30.4850  -12.7850   19.3060 C   0  0  0  0  0  2  0  0  0  0  0  0
  -29.5480  -12.7280   18.0770 C   0  0  0  0  0  2  0  0  0  0  0  0
  -28.0910  -12.4920   18.5190 C   0  0  0  0  0  2  0  0  0  0  0  0
  -27.6790  -13.3950   19.7120 C   0  0  0  0  0  3  0  0  0  0  0  0
  -28.7430  -13.4230   20.8280 C   0  0  0  0  0  2  0  0  0  0  0  0
  -29.9950  -13.8750   20.2050 N   0  0  0  0  0  0  0  0  0  0  0  0
  -31.7750  -15.2150   19.9950 O   0  0  0  0  0  0  0  0  0  0  0  0
  -29.5440  -20.3650   20.3740 C   0  0  0  0  0  0  0  0  0  0  0  0
  -30.9390  -20.2530   20.3910 C   0  0  0  0  0  0  0  0  0  0  0  0
  -29.9930  -17.8590   20.3470 C   0  0  0  0  0  0  0  0  0  0  0  0
  -29.0750  -18.9350   20.4020 N   0  0  0  0  0  0  0  0  0  0  0  0
  -29.7530  -16.3290   20.4020 N   0  0  0  0  0  0  0  0  0  0  0  0
  -31.5840  -18.5920   20.2570 S   0  0  0  0  0  0  0  0  0  0  0  0
  -28.7890  -16.0920   20.5600 H   0  0  0  0  0  0  0  0  0  0  0  0
  -25.2960  -13.9360   20.4610 C   0  0  0  0  0  0  0  0  0  0  0  0
  -24.2460  -13.1450   20.8320 C   0  0  0  0  0  0  0  0  0  0  0  0
  -24.7280  -11.8000   20.7980 C   0  0  0  0  0  0  0  0  0  0  0  0
  -26.3500  -13.0720   20.2170 N   0  0  0  0  0  0  0  0  0  0  0  0
  -26.0180  -11.7820   20.4840 N   0  0  0  0  0  0  0  0  0  0  0  0
  -24.0180  -10.5280   20.9840 C   0  0  0  0  0  0  0  0  0  0  0  0
  -24.4390   -9.5760   21.9400 C   0  0  0  0  0  3  0  0  0  0  0  0
  -23.7220   -8.3720   22.1140 C   0  0  0  0  0  3  0  0  0  0  0  0
  -22.5710   -8.1120   21.3330 C   0  0  0  0  0  0  0  0  0  0  0  0
  -22.1700   -9.0520   20.3690 C   0  0  0  0  0  3  0  0  0  0  0  0
  -22.8880  -10.2470   20.1920 C   0  0  0  0  0  3  0  0  0  0  0  0
  -21.8300   -6.9570   21.4150 O   0  0  0  0  0  0  0  0  0  0  0  0
  -21.7420   -6.2390   22.5800 C   0  0  0  0  0  0  0  0  0  0  0  0
  -21.2110   -6.8000   23.7630 C   0  0  0  0  0  3  0  0  0  0  0  0
  -21.0740   -6.0070   24.9190 C   0  0  0  0  0  3  0  0  0  0  0  0
  -21.4590   -4.6530   24.8940 C   0  0  0  0  0  0  0  0  0  0  0  0
  -21.9840   -4.0920   23.7180 C   0  0  0  0  0  3  0  0  0  0  0  0
  -22.1220   -4.8820   22.5630 C   0  0  0  0  0  0  0  0  0  0  0  0
  -22.6070   -4.3310   21.4250 F   0  0  0  0  0  0  0  0  0  0  0  0
  -21.3220   -3.8880   26.0020 F   0  0  0  0  0  0  0  0  0  0  0  0
  -22.8420  -13.6040   21.1040 C   0  0  0  0  0  0  0  0  0  0  0  0
  -22.1220  -12.8950   21.9660 N   0  0  0  0  0  0  0  0  0  0  0  0
  -22.3930  -14.6280   20.5880 O   0  0  0  0  0  0  0  0  0  0  0  0
  -22.4960  -12.0680   22.4060 H   0  0  0  0  0  0  0  0  0  0  0  0
  -21.1800  -13.1870   22.1880 H   0  0  0  0  0  0  0  0  0  0  0  0
  -25.4370  -15.3100   20.2820 N   0  0  0  0  0  0  0  0  0  0  0  0
  -24.6450  -15.9390   20.3700 H   0  0  0  0  0  0  0  0  0  0  0  0
  -26.2590  -15.7640   19.9090 H   0  0  0  0  0  0  0  0  0  0  0  0
  -31.9250  -21.2250   20.5310 N   0  0  0  0  0  0  0  0  0  0  0  0
  -31.7970  -22.1690   20.1780 H   0  0  0  0  0  0  0  0  0  0  0  0
  -32.9050  -20.9550   20.4970 H   0  0  0  0  0  0  0  0  0  0  0  0
  -28.7720  -23.2770   19.8780 C   0  0  2  0  0  0  0  0  0  0  0  0
  -28.0530  -23.1960   18.7530 F   0  0  0  0  0  0  0  0  0  0  0  0
  -30.5990  -23.2040   18.0100 C   0  0  0  0  0  1  0  0  0  0  0  0
  -30.1900  -23.6910   19.4190 C   0  0  0  0  0  2  0  0  0  0  0  0
  -28.0650  -24.6850   20.5640 C   0  0  0  0  0  2  0  0  0  0  0  0
  -28.2640  -26.2110   20.1910 O   0  0  0  0  0  0  0  0  0  0  0  0
  -24.6100  -31.9200   23.2150 C   0  0  0  0  0  0  0  0  0  0  0  0
  -27.2010  -27.1960   20.1820 C   0  0  0  0  0  0  0  0  0  0  0  0
  -23.4150  -30.5170   21.5770 C   0  0  0  0  0  3  0  0  0  0  0  0
  -24.8700  -28.9480   20.1490 C   0  0  0  0  0  0  0  0  0  0  0  0
  -25.9680  -30.7940   21.4050 C   0  0  0  0  0  2  0  0  0  0  0  0
  -26.0500  -29.3980   20.7550 C   0  0  0  0  0  0  0  0  0  0  0  0
  -27.2190  -28.5410   20.7460 C   0  0  0  0  0  3  0  0  0  0  0  0
  -25.9950  -26.8540   19.5360 C   0  0  0  0  0  3  0  0  0  0  0  0
  -24.8580  -27.6950   19.5200 C   0  0  0  0  0  3  0  0  0  0  0  0
  -23.6390  -29.8410   20.1980 C   0  0  0  0  0  2  0  0  0  0  0  0
  -24.6840  -31.1000   22.1210 N   0  0  0  0  0  0  0  0  0  0  0  0
  -23.5240  -32.1960   23.7470 O   0  0  0  0  0  0  0  0  0  0  0  0
  -22.7460  -29.5060   22.5410 C   0  0  0  0  0  0  0  0  0  0  0  0
  -21.4180  -29.3240   22.4190 N   0  0  0  0  0  0  0  0  0  0  0  0
  -23.4240  -28.8860   23.3640 O   0  0  0  0  0  0  0  0  0  0  0  0
  -20.9250  -29.8740   21.7290 H   0  0  0  0  0  0  0  0  0  0  0  0
  -18.0460  -28.1090   22.9530 C   0  0  0  0  0  0  0  0  0  0  0  0
  -20.6080  -28.3810   23.1940 C   0  0  0  0  0  3  0  0  0  0  0  0
  -20.7080  -26.9510   22.6120 C   0  0  0  0  0  2  0  0  0  0  0  0
  -19.5980  -26.6310   21.6060 C   0  0  0  0  0  2  0  0  0  0  0  0
  -18.2220  -26.7650   22.2650 C   0  0  0  0  0  2  0  0  0  0  0  0
  -19.1660  -28.8750   23.3750 C   0  0  0  0  0  0  0  0  0  0  0  0
  -18.9450  -30.1310   23.9800 C   0  0  0  0  0  3  0  0  0  0  0  0
  -17.6390  -30.6220   24.1640 C   0  0  0  0  0  3  0  0  0  0  0  0
  -16.5350  -29.8540   23.7550 C   0  0  0  0  0  3  0  0  0  0  0  0
  -16.7390  -28.5980   23.1570 C   0  0  0  0  0  3  0  0  0  0  0  0
  -25.8850  -32.5670   23.8380 C   0  0  0  0  0  3  0  0  0  0  0  0
  -26.3960  -31.8130   25.1280 C   0  0  1  0  0  0  0  0  0  0  0  0
  -25.2960  -31.5800   26.1890 C   0  0  0  0  0  1  0  0  0  0  0  0
  -26.9870  -30.4330   24.7600 C   0  0  0  0  0  1  0  0  0  0  0  0
  -27.5420  -32.6170   25.7860 C   0  0  0  0  0  1  0  0  0  0  0  0
  -25.5690  -33.9700   24.1570 N   0  0  0  0  0  0  0  0  0  0  0  0
  -25.8950  -35.0190   23.3910 C   0  0  0  0  0  0  0  0  0  0  0  0
  -26.5590  -34.9090   22.3560 O   0  0  0  0  0  0  0  0  0  0  0  0
  -24.9780  -34.1300   24.9600 H   0  0  0  0  0  0  0  0  0  0  0  0
  -24.1690  -36.8130   23.0240 C   0  0  0  0  0  1  0  0  0  0  0  0
  -25.4090  -36.4110   23.8400 C   0  0  0  0  0  3  0  0  0  0  0  0
  -27.5370  -37.3040   24.6770 C   0  0  0  0  0  1  0  0  0  0  0  0
  -26.4430  -37.4630   23.7220 N   0  0  0  0  0  0  0  0  0  0  0  0
  -26.0370  -38.3850   23.8590 H   0  0  0  0  0  0  0  0  0  0  0  0
  1  2  2  0
  3 15  1  0
  4  9  1  0
  5  6  1  0
  5  4  1  0
  7  6  1  0
  7 21  1  0
  7  8  1  0
  9  3  1  0
  9  8  1  0
 10  3  2  0
 11 12  2  0
 11 14  1  0
 11  1  1  0
 12 46  1  0
 13 15  1  0
 13 14  2  0
 15 17  1  0
 16 13  1  0
 16 12  1  0
 18 19  2  0
 19 38  1  0
 20 19  1  0
 20 23  1  0
 21 18  1  0
 21 22  1  0
 22 20  2  0
 23 24  1  0
 24 25  2  0
 26 29  1  0
 26 25  1  0
 27 26  2  0
 28 27  1  0
 28 23  2  0
 29 30  1  0
 30 31  1  0
 31 32  2  0
 33 32  1  0
 33 37  1  0
 34 33  2  0
 35 30  2  0
 35 34  1  0
 36 35  1  0
 38 39  1  0
 39 42  1  0
 39 41  1  0
 40 38  2  0
 43 44  1  0
 43 18  1  0
 45 43  1  0
 47 46  1  0
 48 46  1  0
 49 50  1  6
 49 53  1  0
 49  1  1  0
 51 52  1  0
 52 49  1  0
 54 53  1  0
 55 66  2  0
 56 54  1  0
 56 61  1  0
 57 65  1  0
 57 67  1  0
 58 64  1  0
 58 60  1  0
 59 65  1  0
 60 59  1  0
 61 60  2  0
 62 56  2  0
 63 62  1  0
 63 58  2  0
 64 57  1  0
 65 55  1  0
 67 69  2  0
 68 67  1  0
 70 68  1  0
 71 80  2  0
 71 76  1  0
 72 68  1  0
 72 76  1  0
 73 72  1  0
 74 75  1  0
 74 73  1  0
 75 71  1  0
 76 77  2  0
 77 78  1  0
 79 78  2  0
 80 79  1  0
 81 55  1  0
 81 86  1  0
 81 82  1  0
 82 85  1  1
 82 83  1  0
 84 82  1  0
 86 89  1  0
 87 91  1  0
 87 86  1  0
 88 87  2  0
 91 90  1  0
 93 91  1  0
 93 94  1  0
 93 92  1  0
M  ISO  4   3 100  15 100  53 101  54 101
M  END
>  <TORSDO>  (78) 
F 20

>  <SCORE>  (78) 
-15.188

>  <name>  (78) 
77

>  <ligand_id>  (78) 
77

>  <original_smiles>  (78) 
[H]c1c([H])c([H])c2c(c1[H])C([H])([H])C([H])([H])C([H])([H])C2([H])N([H])C(=O)C1([H])N(C(=O)C([H])(N([H])C(=O)C([H])(N([H])C([H])([H])[H])C([H])([H])[H])C(C([H])([H])[H])(C([H])([H])[H])C([H])([H])[H])C([H])([H])c2c([H])c(OC([H])([H])C(F)(C(=O)c3nc(N([H])C(=O)N4C([H])([H])C([H])([H])C([H])([H])C([H])(n5nc(-c6c([H])c([H])c(Oc7c([H])c([H])c(F)c([H])c7F)c([H])c6[H])c(C(=O)N([H])[H])c5N([H])[H])C4([H])[H])sc3N([H])[H])C([H])([H])C([H])([H])[H])c([H])c([H])c2C1([H])[H]

>  <smiles>  (78) 
[H]c1c([H])c([H])c2c(c1[H])C([H])([H])C([H])([H])C([H])([H])C2([H])N([H])C(=O)C1([H])N(C(=O)C([H])(N([H])C(=O)C([H])(N([H])C([H])([H])[H])C([H])([H])[H])C(C([H])([H])[H])(C([H])([H])[H])C([H])([H])[H])C([H])([H])c2c([H])c(OC([H])([H])C(F)(C(=O)c3nc(N([H])C(=O)N4C([H])([H])C([H])([H])C([H])([H])C([H])(n5nc(-c6c([H])c([H])c(Oc7c([H])c([H])c(F)c([H])c7F)c([H])c6[H])c(C(=O)N([H])[H])c5N([H])[H])C4([H])[H])sc3N([H])[H])C([H])([H])C([H])([H])[H])c([H])c([H])c2C1([H])[H]

$$$$
78:0:0
     RDKit          3D

 95103  0  0  1  0  0  0  0  0999 V2000
  -29.5760  -20.4690   21.5150 N   0  0  0  0  0  0  0  0  0  0  0  0
  -28.9360  -20.3710   22.3010 H   0  0  0  0  0  0  0  0  0  0  0  0
  -29.7670  -18.0460   21.1890 C   0  0  0  0  0  3  0  0  0  0  0  0
  -30.2050  -18.3950   18.4410 C   0  0  0  0  0  3  0  0  0  0  0  0
  -30.0040  -16.9050   20.3740 C   0  0  0  0  0  0  0  0  0  0  0  0
  -29.7830  -19.3640   20.6540 C   0  0  0  0  0  0  0  0  0  0  0  0
  -30.2090  -17.1020   18.9840 C   0  0  0  0  0  0  0  0  0  0  0  0
  -29.9910  -19.5180   19.2580 C   0  0  0  0  0  0  0  0  0  0  0  0
  -30.3640  -16.0530   18.1420 F   0  0  0  0  0  0  0  0  0  0  0  0
  -29.9530  -20.7390   18.6730 F   0  0  0  0  0  0  0  0  0  0  0  0
  -30.7010  -14.5310   20.5160 C   0  0  0  0  0  0  0  0  0  0  0  0
  -30.4460  -12.3640   19.3950 C   0  0  0  0  0  2  0  0  0  0  0  0
  -29.5190  -12.5360   18.1730 C   0  0  0  0  0  2  0  0  0  0  0  0
  -28.0370  -12.4080   18.5750 C   0  0  0  0  0  2  0  0  0  0  0  0
  -27.6750  -13.2620   19.8210 C   0  0  0  0  0  3  0  0  0  0  0  0
  -28.7050  -13.0560   20.9550 C   0  0  0  0  0  2  0  0  0  0  0  0
  -30.0430  -13.3470   20.4110 N   0  0  0  0  0  0  0  0  0  0  0  0
  -31.8660  -14.6860   20.1280 O   0  0  0  0  0  0  0  0  0  0  0  0
  -29.9540  -15.5770   20.9260 N   0  0  0  0  0  0  0  0  0  0  0  0
  -29.1020  -15.3370   21.4120 H   0  0  0  0  0  0  0  0  0  0  0  0
  -25.2610  -13.8820   20.4690 C   0  0  0  0  0  0  0  0  0  0  0  0
  -24.1820  -13.1180   20.8250 C   0  0  0  0  0  0  0  0  0  0  0  0
  -24.6430  -11.7650   20.8290 C   0  0  0  0  0  0  0  0  0  0  0  0
  -26.3100  -12.9970   20.2730 N   0  0  0  0  0  0  0  0  0  0  0  0
  -25.9400  -11.7190   20.5480 N   0  0  0  0  0  0  0  0  0  0  0  0
  -23.9130  -10.5050   21.0260 C   0  0  0  0  0  0  0  0  0  0  0  0
  -24.3410   -9.5420   21.9660 C   0  0  0  0  0  3  0  0  0  0  0  0
  -23.6130   -8.3470   22.1490 C   0  0  0  0  0  3  0  0  0  0  0  0
  -22.4410   -8.1090   21.3910 C   0  0  0  0  0  0  0  0  0  0  0  0
  -22.0310   -9.0590   20.4390 C   0  0  0  0  0  3  0  0  0  0  0  0
  -22.7630  -10.2450   20.2540 C   0  0  0  0  0  3  0  0  0  0  0  0
  -21.6840   -6.9670   21.4840 O   0  0  0  0  0  0  0  0  0  0  0  0
  -21.6410   -6.2220   22.6360 C   0  0  0  0  0  0  0  0  0  0  0  0
  -21.2370   -6.7790   23.8690 C   0  0  0  0  0  3  0  0  0  0  0  0
  -21.1400   -5.9640   25.0130 C   0  0  0  0  0  3  0  0  0  0  0  0
  -21.4370   -4.5910   24.9260 C   0  0  0  0  0  0  0  0  0  0  0  0
  -21.8360   -4.0320   23.6990 C   0  0  0  0  0  3  0  0  0  0  0  0
  -21.9350   -4.8460   22.5560 C   0  0  0  0  0  0  0  0  0  0  0  0
  -22.2990   -4.3000   21.3720 F   0  0  0  0  0  0  0  0  0  0  0  0
  -21.3390   -3.8050   26.0240 F   0  0  0  0  0  0  0  0  0  0  0  0
  -22.7800  -13.6020   21.0600 C   0  0  0  0  0  0  0  0  0  0  0  0
  -22.0330  -12.9270   21.9260 N   0  0  0  0  0  0  0  0  0  0  0  0
  -22.3530  -14.6170   20.5120 O   0  0  0  0  0  0  0  0  0  0  0  0
  -22.3870  -12.1140   22.4060 H   0  0  0  0  0  0  0  0  0  0  0  0
  -21.0910  -13.2340   22.1220 H   0  0  0  0  0  0  0  0  0  0  0  0
  -25.4300  -15.2500   20.2770 N   0  0  0  0  0  0  0  0  0  0  0  0
  -24.6650  -15.9080   20.3820 H   0  0  0  0  0  0  0  0  0  0  0  0
  -26.2890  -15.6810   19.9610 H   0  0  0  0  0  0  0  0  0  0  0  0
  -30.0620  -21.8430   21.2310 C   0  0  0  0  0  2  0  0  0  0  0  0
  -28.9540  -22.8670   20.8920 C   0  0  0  0  0  0  0  0  0  0  0  0
  -27.7850  -22.4790   20.7550 O   0  0  0  0  0  0  0  0  0  0  0  0
  -29.3030  -24.3900   20.7590 C   0  0  0  0  0  0  0  0  0  0  0  0
  -30.3840  -24.8580   21.1420 O   0  0  0  0  0  0  0  0  0  0  0  0
  -28.1900  -25.2670   20.1510 C   0  0  0  0  0  2  0  0  0  0  0  0
  -28.3970  -26.6920   20.2530 O   0  0  0  0  0  0  0  0  0  0  0  0
  -24.5920  -31.9020   23.2650 C   0  0  0  0  0  0  0  0  0  0  0  0
  -27.2350  -27.4500   20.1940 C   0  0  0  0  0  0  0  0  0  0  0  0
  -23.3840  -30.5040   21.6220 C   0  0  0  0  0  3  0  0  0  0  0  0
  -24.8410  -28.9760   20.1920 C   0  0  0  0  0  0  0  0  0  0  0  0
  -25.9140  -30.8630   21.4250 C   0  0  0  0  0  2  0  0  0  0  0  0
  -26.0030  -29.4960   20.7750 C   0  0  0  0  0  0  0  0  0  0  0  0
  -27.2020  -28.7430   20.7710 C   0  0  0  0  0  3  0  0  0  0  0  0
  -26.0510  -26.9550   19.5950 C   0  0  0  0  0  3  0  0  0  0  0  0
  -24.8610  -27.7050   19.5970 C   0  0  0  0  0  3  0  0  0  0  0  0
  -23.5950  -29.8330   20.2390 C   0  0  0  0  0  2  0  0  0  0  0  0
  -24.6480  -31.1020   22.1630 N   0  0  0  0  0  0  0  0  0  0  0  0
  -23.5110  -32.1740   23.8060 O   0  0  0  0  0  0  0  0  0  0  0  0
  -22.7320  -29.4800   22.5780 C   0  0  0  0  0  0  0  0  0  0  0  0
  -21.4080  -29.3030   22.4540 N   0  0  0  0  0  0  0  0  0  0  0  0
  -23.4140  -28.8520   23.3920 O   0  0  0  0  0  0  0  0  0  0  0  0
  -20.9180  -29.8590   21.7670 H   0  0  0  0  0  0  0  0  0  0  0  0
  -18.0280  -28.1210   22.9520 C   0  0  0  0  0  0  0  0  0  0  0  0
  -20.5870  -28.3680   23.2250 C   0  0  0  0  0  3  0  0  0  0  0  0
  -20.6850  -26.9370   22.6460 C   0  0  0  0  0  2  0  0  0  0  0  0
  -19.5810  -26.6200   21.6330 C   0  0  0  0  0  2  0  0  0  0  0  0
  -18.2000  -26.7710   22.2770 C   0  0  0  0  0  2  0  0  0  0  0  0
  -19.1500  -28.8780   23.3830 C   0  0  0  0  0  0  0  0  0  0  0  0
  -18.9380  -30.1420   23.9740 C   0  0  0  0  0  3  0  0  0  0  0  0
  -17.6360  -30.6500   24.1420 C   0  0  0  0  0  3  0  0  0  0  0  0
  -16.5280  -29.8900   23.7300 C   0  0  0  0  0  3  0  0  0  0  0  0
  -16.7250  -28.6290   23.1380 C   0  0  0  0  0  3  0  0  0  0  0  0
  -25.8790  -32.5320   23.8830 C   0  0  0  0  0  3  0  0  0  0  0  0
  -25.5750  -33.9320   24.2070 N   0  0  0  0  0  0  0  0  0  0  0  0
  -25.9130  -34.9800   23.4450 C   0  0  0  0  0  0  0  0  0  0  0  0
  -26.5830  -34.8710   22.4140 O   0  0  0  0  0  0  0  0  0  0  0  0
  -24.9820  -34.0910   25.0100 H   0  0  0  0  0  0  0  0  0  0  0  0
  -24.1900  -36.7740   23.0840 C   0  0  0  0  0  1  0  0  0  0  0  0
  -25.4300  -36.3710   23.8980 C   0  0  0  0  0  3  0  0  0  0  0  0
  -27.5670  -37.2470   24.7270 C   0  0  0  0  0  1  0  0  0  0  0  0
  -26.4660  -37.4210   23.7830 N   0  0  0  0  0  0  0  0  0  0  0  0
  -26.0630  -38.3410   23.9370 H   0  0  0  0  0  0  0  0  0  0  0  0
  -26.3960  -31.7600   25.1570 C   0  0  1  0  0  0  0  0  0  0  0  0
  -25.3050  -31.5300   26.2280 C   0  0  0  0  0  1  0  0  0  0  0  0
  -26.9710  -30.3810   24.7630 C   0  0  0  0  0  1  0  0  0  0  0  0
  -27.5480  -32.5520   25.8150 C   0  0  0  0  0  1  0  0  0  0  0  0
  1  2  1  0
  4  7  2  0
  4  8  1  0
  5 19  1  0
  5  3  2  0
  6  3  1  0
  6  1  1  0
  7  5  1  0
  8  6  2  0
  9  7  1  0
 10  8  1  0
 11 19  1  0
 12 17  1  0
 13 14  1  0
 13 12  1  0
 15 14  1  0
 15 24  1  0
 15 16  1  0
 17 11  1  0
 17 16  1  0
 18 11  2  0
 19 20  1  0
 21 22  2  0
 22 23  1  0
 22 41  1  0
 23 26  1  0
 24 21  1  0
 24 25  1  0
 25 23  2  0
 26 27  1  0
 27 28  2  0
 29 32  1  0
 29 28  1  0
 30 29  2  0
 31 30  1  0
 31 26  2  0
 32 33  1  0
 33 34  1  0
 34 35  2  0
 36 35  1  0
 36 40  1  0
 37 36  2  0
 38 33  2  0
 38 37  1  0
 39 38  1  0
 41 42  1  0
 42 45  1  0
 42 44  1  0
 43 41  2  0
 46 47  1  0
 46 21  1  0
 48 46  1  0
 49  1  1  0
 50 49  1  0
 51 50  2  0
 52 50  1  0
 52 53  2  0
 54 55  1  0
 54 52  1  0
 56 67  2  0
 57 55  1  0
 57 62  1  0
 58 66  1  0
 58 68  1  0
 59 65  1  0
 59 61  1  0
 60 66  1  0
 61 60  1  0
 62 61  2  0
 63 64  1  0
 63 57  2  0
 64 59  2  0
 65 58  1  0
 66 56  1  0
 68 70  2  0
 69 68  1  0
 71 69  1  0
 72 81  2  0
 72 77  1  0
 73 69  1  0
 73 77  1  0
 74 73  1  0
 75 76  1  0
 75 74  1  0
 76 72  1  0
 77 78  2  0
 78 79  1  0
 80 79  2  0
 81 80  1  0
 82 56  1  0
 82 83  1  0
 82 92  1  0
 83 86  1  0
 84 88  1  0
 84 83  1  0
 85 84  2  0
 88 87  1  0
 90 88  1  0
 90 91  1  0
 90 89  1  0
 92 95  1  1
 92 93  1  0
 94 92  1  0
M  ISO  4  11 100  19 100  54 101  55 101
M  END
>  <TORSDO>  (79) 
F 21

>  <SCORE>  (79) 
-13.649

>  <name>  (79) 
78

>  <ligand_id>  (79) 
78

>  <original_smiles>  (79) 
[H]c1c([H])c([H])c2c(c1[H])C([H])([H])C([H])([H])C([H])([H])C2([H])N([H])C(=O)C1([H])N(C(=O)C([H])(N([H])C(=O)C([H])(N([H])C([H])([H])[H])C([H])([H])[H])C(C([H])([H])[H])(C([H])([H])[H])C([H])([H])[H])C([H])([H])c2c([H])c(OC([H])([H])C(=O)C(=O)C([H])([H])N([H])c3c([H])c(N([H])C(=O)N4C([H])([H])C([H])([H])C([H])([H])C([H])(n5nc(-c6c([H])c([H])c(Oc7c([H])c([H])c(F)c([H])c7F)c([H])c6[H])c(C(=O)N([H])[H])c5N([H])[H])C4([H])[H])c(F)c([H])c3F)c([H])c([H])c2C1([H])[H]

>  <smiles>  (79) 
[H]c1c([H])c([H])c2c(c1[H])C([H])([H])C([H])([H])C([H])([H])C2([H])N([H])C(=O)C1([H])N(C(=O)C([H])(N([H])C(=O)C([H])(N([H])C([H])([H])[H])C([H])([H])[H])C(C([H])([H])[H])(C([H])([H])[H])C([H])([H])[H])C([H])([H])c2c([H])c(OC([H])([H])C(=O)C(=O)C([H])([H])N([H])c3c([H])c(N([H])C(=O)N4C([H])([H])C([H])([H])C([H])([H])C([H])(n5nc(-c6c([H])c([H])c(Oc7c([H])c([H])c(F)c([H])c7F)c([H])c6[H])c(C(=O)N([H])[H])c5N([H])[H])C4([H])[H])c(F)c([H])c3F)c([H])c([H])c2C1([H])[H]

$$$$
79:0:0
     RDKit          3D

 95103  0  0  1  0  0  0  0  0999 V2000
  -28.8630  -22.4590   19.7860 C   0  0  0  0  0  0  0  0  0  0  0  0
  -29.3120  -21.3630   20.5340 N   0  0  0  0  0  0  0  0  0  0  0  0
  -28.4910  -22.2710   18.6280 O   0  0  0  0  0  0  0  0  0  0  0  0
  -29.2920  -21.4980   21.5350 H   0  0  0  0  0  0  0  0  0  0  0  0
  -31.8530  -18.9780   18.9640 C   0  0  0  0  0  3  0  0  0  0  0  0
  -31.4110  -17.6920   19.3120 C   0  0  0  0  0  3  0  0  0  0  0  0
  -29.5540  -18.7100   20.4890 C   0  0  0  0  0  3  0  0  0  0  0  0
  -31.1820  -20.1520   19.3640 C   0  0  0  0  0  0  0  0  0  0  0  0
  -30.2740  -17.4760   20.1230 C   0  0  0  0  0  0  0  0  0  0  0  0
  -29.9610  -20.0760   20.0980 C   0  0  0  0  0  0  0  0  0  0  0  0
  -30.6220  -14.8480   20.3230 C   0  0  0  0  0  0  0  0  0  0  0  0
  -30.3850  -12.5560   19.3450 C   0  0  0  0  0  2  0  0  0  0  0  0
  -29.4500  -12.6030   18.1180 C   0  0  0  0  0  2  0  0  0  0  0  0
  -27.9840  -12.4230   18.5540 C   0  0  0  0  0  2  0  0  0  0  0  0
  -27.6070  -13.3250   19.7590 C   0  0  0  0  0  3  0  0  0  0  0  0
  -28.6680  -13.2820   20.8800 C   0  0  0  0  0  2  0  0  0  0  0  0
  -29.9580  -13.6350   20.2730 N   0  0  0  0  0  0  0  0  0  0  0  0
  -31.8270  -14.8490   20.0590 O   0  0  0  0  0  0  0  0  0  0  0  0
  -29.9060  -16.0510   20.4750 N   0  0  0  0  0  0  0  0  0  0  0  0
  -28.9570  -15.9180   20.7910 H   0  0  0  0  0  0  0  0  0  0  0  0
  -25.2230  -13.9060   20.4980 C   0  0  0  0  0  0  0  0  0  0  0  0
  -24.1600  -13.1320   20.8680 C   0  0  0  0  0  0  0  0  0  0  0  0
  -24.6250  -11.7810   20.8390 C   0  0  0  0  0  0  0  0  0  0  0  0
  -26.2680  -13.0300   20.2590 N   0  0  0  0  0  0  0  0  0  0  0  0
  -25.9170  -11.7450   20.5300 N   0  0  0  0  0  0  0  0  0  0  0  0
  -23.8990  -10.5180   21.0280 C   0  0  0  0  0  0  0  0  0  0  0  0
  -24.3290   -9.5520   21.9640 C   0  0  0  0  0  3  0  0  0  0  0  0
  -23.6020   -8.3540   22.1410 C   0  0  0  0  0  3  0  0  0  0  0  0
  -22.4320   -8.1140   21.3810 C   0  0  0  0  0  0  0  0  0  0  0  0
  -22.0210   -9.0690   20.4370 C   0  0  0  0  0  3  0  0  0  0  0  0
  -22.7470  -10.2590   20.2570 C   0  0  0  0  0  3  0  0  0  0  0  0
  -21.6760   -6.9700   21.4700 O   0  0  0  0  0  0  0  0  0  0  0  0
  -21.6200   -6.2310   22.6240 C   0  0  0  0  0  0  0  0  0  0  0  0
  -21.1820   -6.7890   23.8450 C   0  0  0  0  0  3  0  0  0  0  0  0
  -21.0740   -5.9770   24.9920 C   0  0  0  0  0  3  0  0  0  0  0  0
  -21.3910   -4.6070   24.9170 C   0  0  0  0  0  0  0  0  0  0  0  0
  -21.8220   -4.0490   23.7010 C   0  0  0  0  0  3  0  0  0  0  0  0
  -21.9320   -4.8590   22.5570 C   0  0  0  0  0  0  0  0  0  0  0  0
  -22.3260   -4.3110   21.3820 F   0  0  0  0  0  0  0  0  0  0  0  0
  -21.2800   -3.8250   26.0170 F   0  0  0  0  0  0  0  0  0  0  0  0
  -22.7610  -13.6060   21.1370 C   0  0  0  0  0  0  0  0  0  0  0  0
  -22.0330  -12.9080   22.0000 N   0  0  0  0  0  0  0  0  0  0  0  0
  -22.3260  -14.6330   20.6170 O   0  0  0  0  0  0  0  0  0  0  0  0
  -22.3980  -12.0770   22.4420 H   0  0  0  0  0  0  0  0  0  0  0  0
  -21.0940  -13.2080   22.2220 H   0  0  0  0  0  0  0  0  0  0  0  0
  -25.3870  -15.2760   20.3150 N   0  0  0  0  0  0  0  0  0  0  0  0
  -24.6200  -15.9330   20.4160 H   0  0  0  0  0  0  0  0  0  0  0  0
  -26.2280  -15.7070   19.9530 H   0  0  0  0  0  0  0  0  0  0  0  0
  -31.8420  -21.8160   17.5390 C   0  0  0  0  0  1  0  0  0  0  0  0
  -31.9030  -21.4610   19.0310 C   0  0  0  0  0  2  0  0  0  0  0  0
  -28.2590  -24.9770   19.8110 C   0  0  0  0  0  3  0  0  0  0  0  0
  -28.8370  -23.8540   20.4120 C   0  0  0  0  0  0  0  0  0  0  0  0
  -29.4700  -24.0150   21.5850 O   0  0  0  0  0  0  0  0  0  0  0  0
  -30.0160  -23.2520   21.7200 H   0  0  0  0  0  0  0  0  0  0  0  0
  -28.2900  -26.3560   20.2300 O   0  0  0  0  0  0  0  0  0  0  0  0
  -24.5960  -31.8750   23.2260 C   0  0  0  0  0  0  0  0  0  0  0  0
  -27.1850  -27.2510   20.1490 C   0  0  0  0  0  0  0  0  0  0  0  0
  -23.3860  -30.4800   21.5950 C   0  0  0  0  0  3  0  0  0  0  0  0
  -24.8250  -28.9190   20.1530 C   0  0  0  0  0  0  0  0  0  0  0  0
  -25.9300  -30.7750   21.3990 C   0  0  0  0  0  2  0  0  0  0  0  0
  -26.0020  -29.3900   20.7470 C   0  0  0  0  0  0  0  0  0  0  0  0
  -27.1790  -28.5690   20.7350 C   0  0  0  0  0  3  0  0  0  0  0  0
  -25.9790  -26.8550   19.5250 C   0  0  0  0  0  3  0  0  0  0  0  0
  -24.8200  -27.6600   19.5340 C   0  0  0  0  0  3  0  0  0  0  0  0
  -23.5900  -29.8020   20.2140 C   0  0  0  0  0  2  0  0  0  0  0  0
  -24.6580  -31.0620   22.1290 N   0  0  0  0  0  0  0  0  0  0  0  0
  -23.5150  -32.1540   23.7670 O   0  0  0  0  0  0  0  0  0  0  0  0
  -22.7230  -29.4650   22.5600 C   0  0  0  0  0  0  0  0  0  0  0  0
  -21.3950  -29.2870   22.4400 N   0  0  0  0  0  0  0  0  0  0  0  0
  -23.4040  -28.8400   23.3770 O   0  0  0  0  0  0  0  0  0  0  0  0
  -20.9030  -29.8470   21.7580 H   0  0  0  0  0  0  0  0  0  0  0  0
  -18.0260  -28.0660   22.9460 C   0  0  0  0  0  0  0  0  0  0  0  0
  -20.5820  -28.3470   23.2150 C   0  0  0  0  0  3  0  0  0  0  0  0
  -20.6940  -26.9120   22.6510 C   0  0  0  0  0  2  0  0  0  0  0  0
  -19.5960  -26.5750   21.6380 C   0  0  0  0  0  2  0  0  0  0  0  0
  -18.2120  -26.7130   22.2790 C   0  0  0  0  0  2  0  0  0  0  0  0
  -19.1380  -28.8390   23.3720 C   0  0  0  0  0  0  0  0  0  0  0  0
  -18.9100  -30.1020   23.9580 C   0  0  0  0  0  3  0  0  0  0  0  0
  -17.6010  -30.5950   24.1210 C   0  0  0  0  0  3  0  0  0  0  0  0
  -16.5020  -29.8190   23.7110 C   0  0  0  0  0  3  0  0  0  0  0  0
  -16.7150  -28.5560   23.1290 C   0  0  0  0  0  3  0  0  0  0  0  0
  -25.8790  -32.5100   23.8430 C   0  0  0  0  0  3  0  0  0  0  0  0
  -26.4040  -31.7410   25.1180 C   0  0  1  0  0  0  0  0  0  0  0  0
  -25.3170  -31.5070   26.1920 C   0  0  0  0  0  1  0  0  0  0  0  0
  -26.9850  -30.3620   24.7260 C   0  0  0  0  0  1  0  0  0  0  0  0
  -27.5580  -32.5350   25.7720 C   0  0  0  0  0  1  0  0  0  0  0  0
  -25.5680  -33.9080   24.1780 N   0  0  0  0  0  0  0  0  0  0  0  0
  -25.8930  -34.9660   23.4220 C   0  0  0  0  0  0  0  0  0  0  0  0
  -26.5510  -34.8670   22.3840 O   0  0  0  0  0  0  0  0  0  0  0  0
  -24.9830  -34.0590   24.9870 H   0  0  0  0  0  0  0  0  0  0  0  0
  -24.1550  -36.7590   23.0990 C   0  0  0  0  0  1  0  0  0  0  0  0
  -25.4070  -36.3530   23.8920 C   0  0  0  0  0  3  0  0  0  0  0  0
  -27.5500  -37.2410   24.6990 C   0  0  0  0  0  1  0  0  0  0  0  0
  -26.4360  -37.4090   23.7690 N   0  0  0  0  0  0  0  0  0  0  0  0
  -26.0300  -38.3290   23.9230 H   0  0  0  0  0  0  0  0  0  0  0  0
  1 52  1  0
  1  2  1  0
  2  4  1  0
  3  1  2  0
  5  6  2  0
  5  8  1  0
  6  9  1  0
  8 10  2  0
  9 19  1  0
  9  7  2  0
 10  7  1  0
 10  2  1  0
 11 19  1  0
 12 17  1  0
 13 14  1  0
 13 12  1  0
 15 14  1  0
 15 24  1  0
 15 16  1  0
 17 11  1  0
 17 16  1  0
 18 11  2  0
 19 20  1  0
 21 22  2  0
 22 41  1  0
 23 22  1  0
 23 26  1  0
 24 21  1  0
 24 25  1  0
 25 23  2  0
 26 27  1  0
 27 28  2  0
 29 32  1  0
 29 28  1  0
 30 29  2  0
 31 30  1  0
 31 26  2  0
 32 33  1  0
 33 34  1  0
 34 35  2  0
 36 35  1  0
 36 40  1  0
 37 36  2  0
 38 33  2  0
 38 37  1  0
 39 38  1  0
 41 42  1  0
 42 45  1  0
 42 44  1  0
 43 41  2  0
 46 47  1  0
 46 21  1  0
 48 46  1  0
 49 50  1  0
 50  8  1  0
 51 55  1  0
 51 52  2  0
 52 53  1  0
 53 54  1  0
 56 67  2  0
 57 55  1  0
 57 62  1  0
 58 66  1  0
 58 68  1  0
 59 65  1  0
 59 61  1  0
 60 66  1  0
 61 60  1  0
 62 61  2  0
 63 64  1  0
 63 57  2  0
 64 59  2  0
 65 58  1  0
 66 56  1  0
 68 70  2  0
 69 68  1  0
 71 69  1  0
 72 81  2  0
 72 77  1  0
 73 69  1  0
 73 77  1  0
 74 73  1  0
 75 76  1  0
 75 74  1  0
 76 72  1  0
 77 78  2  0
 78 79  1  0
 80 79  2  0
 81 80  1  0
 82 56  1  0
 82 87  1  0
 82 83  1  0
 83 86  1  1
 83 84  1  0
 85 83  1  0
 87 90  1  0
 88 92  1  0
 88 87  1  0
 89 88  2  0
 92 91  1  0
 94 92  1  0
 94 95  1  0
 94 93  1  0
M  ISO  4  11 100  19 100  51 101  55 101
M  END
>  <TORSDO>  (80) 
F 20

>  <SCORE>  (80) 
-14.119

>  <name>  (80) 
79

>  <ligand_id>  (80) 
79

>  <original_smiles>  (80) 
[H]OC(C(=O)N([H])c1c([H])c(N([H])C(=O)N2C([H])([H])C([H])([H])C([H])([H])C([H])(n3nc(-c4c([H])c([H])c(Oc5c([H])c([H])c(F)c([H])c5F)c([H])c4[H])c(C(=O)N([H])[H])c3N([H])[H])C2([H])[H])c([H])c([H])c1C([H])([H])C([H])([H])[H])=C([H])Oc1c([H])c([H])c2c(c1[H])C([H])([H])N(C(=O)C([H])(N([H])C(=O)C([H])(N([H])C([H])([H])[H])C([H])([H])[H])C(C([H])([H])[H])(C([H])([H])[H])C([H])([H])[H])C([H])(C(=O)N([H])C1([H])c3c([H])c([H])c([H])c([H])c3C([H])([H])C([H])([H])C1([H])[H])C2([H])[H]

>  <smiles>  (80) 
[H]OC(C(=O)N([H])c1c([H])c(N([H])C(=O)N2C([H])([H])C([H])([H])C([H])([H])C([H])(n3nc(-c4c([H])c([H])c(Oc5c([H])c([H])c(F)c([H])c5F)c([H])c4[H])c(C(=O)N([H])[H])c3N([H])[H])C2([H])[H])c([H])c([H])c1C([H])([H])C([H])([H])[H])=C([H])Oc1c([H])c([H])c2c(c1[H])C([H])([H])N(C(=O)C([H])(N([H])C(=O)C([H])(N([H])C([H])([H])[H])C([H])([H])[H])C(C([H])([H])[H])(C([H])([H])[H])C([H])([H])[H])C([H])(C(=O)N([H])C1([H])c3c([H])c([H])c([H])c([H])c3C([H])([H])C([H])([H])C1([H])[H])C2([H])[H]

$$$$
80:0:0
     RDKit          3D

 95103  0  0  1  0  0  0  0  0999 V2000
  -29.0860  -20.9590   20.9290 C   0  0  0  0  0  0  0  0  0  0  0  0
  -30.1190  -20.3550   21.5330 N   0  0  0  0  0  0  0  0  0  0  0  0
  -28.3610  -20.4190   20.0900 O   0  0  0  0  0  0  0  0  0  0  0  0
  -30.6610  -20.9410   22.1540 H   0  0  0  0  0  0  0  0  0  0  0  0
  -32.0080  -16.5870   21.0230 C   0  0  0  0  0  3  0  0  0  0  0  0
  -32.7120  -17.7120   21.4850 C   0  0  0  0  0  3  0  0  0  0  0  0
  -29.9590  -17.9180   20.8970 C   0  0  0  0  0  3  0  0  0  0  0  0
  -30.6300  -16.6830   20.7210 C   0  0  0  0  0  0  0  0  0  0  0  0
  -30.6780  -19.0610   21.3360 C   0  0  0  0  0  0  0  0  0  0  0  0
  -32.0490  -18.9410   21.6390 C   0  0  0  0  0  0  0  0  0  0  0  0
  -32.7350  -20.0230   22.0840 F   0  0  0  0  0  0  0  0  0  0  0  0
  -30.3130  -14.6930   19.3160 C   0  0  0  0  0  0  0  0  0  0  0  0
  -29.8430  -12.5880   18.1140 C   0  0  0  0  0  2  0  0  0  0  0  0
  -28.6680  -12.7540   17.1340 C   0  0  0  0  0  2  0  0  0  0  0  0
  -27.3260  -12.5100   17.8490 C   0  0  0  0  0  2  0  0  0  0  0  0
  -27.2010  -13.3070   19.1740 C   0  0  0  0  0  3  0  0  0  0  0  0
  -28.4660  -13.1310   20.0440 C   0  0  0  0  0  2  0  0  0  0  0  0
  -29.6350  -13.5180   19.2360 N   0  0  0  0  0  0  0  0  0  0  0  0
  -31.2100  -15.0030   18.5250 O   0  0  0  0  0  0  0  0  0  0  0  0
  -29.9180  -15.5330   20.2860 N   0  0  0  0  0  0  0  0  0  0  0  0
  -29.0700  -15.2960   20.7770 H   0  0  0  0  0  0  0  0  0  0  0  0
  -24.9800  -13.7560   20.3960 C   0  0  0  0  0  0  0  0  0  0  0  0
  -24.0440  -12.9120   20.9300 C   0  0  0  0  0  0  0  0  0  0  0  0
  -24.5410  -11.5900   20.7220 C   0  0  0  0  0  0  0  0  0  0  0  0
  -25.9890  -12.9420   19.9030 N   0  0  0  0  0  0  0  0  0  0  0  0
  -25.7370  -11.6310   20.1520 N   0  0  0  0  0  0  0  0  0  0  0  0
  -23.9210  -10.2830   20.9810 C   0  0  0  0  0  0  0  0  0  0  0  0
  -24.4310   -9.4040   21.9610 C   0  0  0  0  0  3  0  0  0  0  0  0
  -23.8070   -8.1620   22.2030 C   0  0  0  0  0  3  0  0  0  0  0  0
  -22.6580   -7.7890   21.4660 C   0  0  0  0  0  0  0  0  0  0  0  0
  -22.1670   -8.6580   20.4770 C   0  0  0  0  0  3  0  0  0  0  0  0
  -22.7930   -9.8920   20.2320 C   0  0  0  0  0  3  0  0  0  0  0  0
  -22.0010   -6.5920   21.6160 O   0  0  0  0  0  0  0  0  0  0  0  0
  -21.8410   -6.0070   22.8470 C   0  0  0  0  0  0  0  0  0  0  0  0
  -21.1420   -6.6490   23.8920 C   0  0  0  0  0  3  0  0  0  0  0  0
  -20.9420   -5.9830   25.1180 C   0  0  0  0  0  3  0  0  0  0  0  0
  -21.4320   -4.6760   25.2980 C   0  0  0  0  0  0  0  0  0  0  0  0
  -22.1240   -4.0330   24.2560 C   0  0  0  0  0  3  0  0  0  0  0  0
  -22.3250   -4.6960   23.0330 C   0  0  0  0  0  0  0  0  0  0  0  0
  -22.9740   -4.0650   22.0250 F   0  0  0  0  0  0  0  0  0  0  0  0
  -21.2330   -4.0320   26.4720 F   0  0  0  0  0  0  0  0  0  0  0  0
  -22.7170  -13.3030   21.5150 C   0  0  0  0  0  0  0  0  0  0  0  0
  -22.2330  -12.5470   22.4940 N   0  0  0  0  0  0  0  0  0  0  0  0
  -22.1250  -14.3130   21.1390 O   0  0  0  0  0  0  0  0  0  0  0  0
  -22.7290  -11.7300   22.8180 H   0  0  0  0  0  0  0  0  0  0  0  0
  -21.3530  -12.7890   22.9290 H   0  0  0  0  0  0  0  0  0  0  0  0
  -25.0520  -15.1410   20.2710 N   0  0  0  0  0  0  0  0  0  0  0  0
  -24.3010  -15.7530   20.5730 H   0  0  0  0  0  0  0  0  0  0  0  0
  -25.8020  -15.6360   19.8060 H   0  0  0  0  0  0  0  0  0  0  0  0
  -28.8350  -22.4130   21.3480 C   0  0  0  0  0  2  0  0  0  0  0  0
  -28.3160  -23.3030   20.1960 C   0  0  0  0  0  2  0  0  0  0  0  0
  -28.5220  -24.8070   20.4160 C   0  0  0  0  0  0  0  0  0  0  0  0
  -29.0170  -25.2500   21.4590 O   0  0  0  0  0  0  0  0  0  0  0  0
  -28.0750  -25.7300   19.2740 C   0  0  0  0  0  2  0  0  0  0  0  0
  -28.0960  -27.1070   19.6860 O   0  0  0  0  0  0  0  0  0  0  0  0
  -24.6450  -32.0300   23.4710 C   0  0  0  0  0  0  0  0  0  0  0  0
  -26.9130  -27.8030   19.8320 C   0  0  0  0  0  0  0  0  0  0  0  0
  -23.2680  -30.7750   21.8450 C   0  0  0  0  0  3  0  0  0  0  0  0
  -24.5540  -29.3340   20.1840 C   0  0  0  0  0  0  0  0  0  0  0  0
  -25.7720  -31.1130   21.4470 C   0  0  0  0  0  2  0  0  0  0  0  0
  -25.7700  -29.7940   20.7030 C   0  0  0  0  0  0  0  0  0  0  0  0
  -26.9470  -29.0330   20.5290 C   0  0  0  0  0  3  0  0  0  0  0  0
  -25.6740  -27.3650   19.3010 C   0  0  0  0  0  3  0  0  0  0  0  0
  -24.5010  -28.1190   19.4850 C   0  0  0  0  0  3  0  0  0  0  0  0
  -23.3370  -30.2030   20.4060 C   0  0  0  0  0  2  0  0  0  0  0  0
  -24.5860  -31.3150   22.3120 N   0  0  0  0  0  0  0  0  0  0  0  0
  -23.6230  -32.2740   24.1270 O   0  0  0  0  0  0  0  0  0  0  0  0
  -22.6870  -29.6900   22.7800 C   0  0  0  0  0  0  0  0  0  0  0  0
  -21.3920  -29.3810   22.6040 N   0  0  0  0  0  0  0  0  0  0  0  0
  -23.3980  -29.1290   23.6170 O   0  0  0  0  0  0  0  0  0  0  0  0
  -20.8750  -29.8920   21.9020 H   0  0  0  0  0  0  0  0  0  0  0  0
  -18.1890  -27.7270   22.8370 C   0  0  0  0  0  0  0  0  0  0  0  0
  -20.6420  -28.3660   23.3420 C   0  0  0  0  0  3  0  0  0  0  0  0
  -21.0050  -26.9430   22.8570 C   0  0  0  0  0  2  0  0  0  0  0  0
  -20.0710  -26.4230   21.7610 C   0  0  0  0  0  2  0  0  0  0  0  0
  -18.6230  -26.3910   22.2590 C   0  0  0  0  0  2  0  0  0  0  0  0
  -19.1380  -28.6600   23.3320 C   0  0  0  0  0  0  0  0  0  0  0  0
  -18.6830  -29.9030   23.8270 C   0  0  0  0  0  3  0  0  0  0  0  0
  -17.3110  -30.2150   23.8340 C   0  0  0  0  0  3  0  0  0  0  0  0
  -16.3740  -29.2810   23.3590 C   0  0  0  0  0  3  0  0  0  0  0  0
  -16.8130  -28.0390   22.8670 C   0  0  0  0  0  3  0  0  0  0  0  0
  -25.9950  -32.5930   24.0160 C   0  0  0  0  0  3  0  0  0  0  0  0
  -25.7680  -33.9930   24.3960 N   0  0  0  0  0  0  0  0  0  0  0  0
  -26.0810  -35.0480   23.6320 C   0  0  0  0  0  0  0  0  0  0  0  0
  -26.6660  -34.9420   22.5500 O   0  0  0  0  0  0  0  0  0  0  0  0
  -25.2430  -34.1520   25.2440 H   0  0  0  0  0  0  0  0  0  0  0  0
  -24.4020  -36.9090   23.4430 C   0  0  0  0  0  1  0  0  0  0  0  0
  -25.6830  -36.4430   24.1510 C   0  0  0  0  0  3  0  0  0  0  0  0
  -27.9000  -37.2370   24.8430 C   0  0  0  0  0  1  0  0  0  0  0  0
  -26.7440  -37.4590   23.9800 N   0  0  0  0  0  0  0  0  0  0  0  0
  -26.3830  -38.3900   24.1680 H   0  0  0  0  0  0  0  0  0  0  0  0
  -26.5660  -31.7680   25.2350 C   0  0  1  0  0  0  0  0  0  0  0  0
  -25.5180  -31.4800   26.3360 C   0  0  0  0  0  1  0  0  0  0  0  0
  -27.1340  -30.4110   24.7570 C   0  0  0  0  0  1  0  0  0  0  0  0
  -27.7410  -32.5370   25.8830 C   0  0  0  0  0  1  0  0  0  0  0  0
  1 50  1  0
  1  2  1  0
  2  4  1  0
  3  1  2  0
  5  6  1  0
  6 10  2  0
  7  9  2  0
  8  7  1  0
  8  5  2  0
  9  2  1  0
  9 10  1  0
 10 11  1  0
 12 20  1  0
 13 18  1  0
 14 15  1  0
 14 13  1  0
 16 15  1  0
 16 25  1  0
 16 17  1  0
 18 12  1  0
 18 17  1  0
 19 12  2  0
 20  8  1  0
 20 21  1  0
 22 23  2  0
 23 42  1  0
 24 23  1  0
 24 27  1  0
 25 26  1  0
 25 22  1  0
 26 24  2  0
 27 28  1  0
 28 29  2  0
 30 33  1  0
 30 29  1  0
 31 30  2  0
 32 31  1  0
 32 27  2  0
 33 34  1  0
 34 39  2  0
 34 35  1  0
 35 36  2  0
 36 37  1  0
 37 41  1  0
 38 37  2  0
 39 38  1  0
 40 39  1  0
 42 43  1  0
 43 45  1  0
 43 46  1  0
 44 42  2  0
 47 22  1  0
 47 48  1  0
 49 47  1  0
 51 52  1  0
 51 50  1  0
 52 53  2  0
 54 55  1  0
 54 52  1  0
 55 57  1  0
 56 67  2  0
 57 62  1  0
 58 66  1  0
 58 68  1  0
 59 65  1  0
 59 61  1  0
 60 66  1  0
 61 60  1  0
 62 61  2  0
 63 64  1  0
 63 57  2  0
 64 59  2  0
 65 58  1  0
 66 56  1  0
 68 70  2  0
 69 68  1  0
 71 69  1  0
 72 81  2  0
 72 77  1  0
 73 69  1  0
 74 73  1  0
 75 76  1  0
 75 74  1  0
 76 72  1  0
 77 73  1  0
 77 78  2  0
 78 79  1  0
 80 79  2  0
 81 80  1  0
 82 56  1  0
 82 83  1  0
 82 92  1  0
 83 86  1  0
 84 88  1  0
 84 83  1  0
 85 84  2  0
 88 87  1  0
 90 88  1  0
 90 91  1  0
 90 89  1  0
 92 95  1  1
 92 93  1  0
 94 92  1  0
M  ISO  4  12 100  20 100  54 101  55 101
M  END
>  <TORSDO>  (81) 
F 21

>  <SCORE>  (81) 
-10.340

>  <name>  (81) 
80

>  <ligand_id>  (81) 
80

>  <original_smiles>  (81) 
[H]c1c([H])c([H])c2c(c1[H])C([H])([H])C([H])([H])C([H])([H])C2([H])N([H])C(=O)C1([H])N(C(=O)C([H])(N([H])C(=O)C([H])(N([H])C([H])([H])[H])C([H])([H])[H])C(C([H])([H])[H])(C([H])([H])[H])C([H])([H])[H])C([H])([H])c2c([H])c(OC([H])([H])C(=O)C([H])([H])C([H])([H])C(=O)N([H])c3c([H])c(N([H])C(=O)N4C([H])([H])C([H])([H])C([H])([H])C([H])(n5nc(-c6c([H])c([H])c(Oc7c([H])c([H])c(F)c([H])c7F)c([H])c6[H])c(C(=O)N([H])[H])c5N([H])[H])C4([H])[H])c([H])c([H])c3F)c([H])c([H])c2C1([H])[H]

>  <smiles>  (81) 
[H]c1c([H])c([H])c2c(c1[H])C([H])([H])C([H])([H])C([H])([H])C2([H])N([H])C(=O)C1([H])N(C(=O)C([H])(N([H])C(=O)C([H])(N([H])C([H])([H])[H])C([H])([H])[H])C(C([H])([H])[H])(C([H])([H])[H])C([H])([H])[H])C([H])([H])c2c([H])c(OC([H])([H])C(=O)C([H])([H])C([H])([H])C(=O)N([H])c3c([H])c(N([H])C(=O)N4C([H])([H])C([H])([H])C([H])([H])C([H])(n5nc(-c6c([H])c([H])c(Oc7c([H])c([H])c(F)c([H])c7F)c([H])c6[H])c(C(=O)N([H])[H])c5N([H])[H])C4([H])[H])c([H])c([H])c3F)c([H])c([H])c2C1([H])[H]

$$$$
81:0:0
     RDKit          3D

 97105  0  0  1  0  0  0  0  0999 V2000
  -29.1040  -23.2130   18.9710 C   0  0  0  0  0  0  0  0  0  0  0  0
  -29.6740  -22.1230   19.5290 N   0  0  0  0  0  0  0  0  0  0  0  0
  -28.7480  -23.2230   17.7900 O   0  0  0  0  0  0  0  0  0  0  0  0
  -29.9210  -22.1960   20.5070 H   0  0  0  0  0  0  0  0  0  0  0  0
  -28.5000  -25.5400   19.4000 C   0  0  0  0  0  3  0  0  0  0  0  0
  -28.9960  -24.3700   19.8700 C   0  0  0  0  0  0  0  0  0  0  0  0
  -29.3910  -24.2720   21.1490 O   0  0  0  0  0  0  0  0  0  0  0  0
  -29.2400  -25.1210   21.5440 H   0  0  0  0  0  0  0  0  0  0  0  0
  -28.3780  -26.6840   20.1610 O   0  0  0  0  0  0  0  0  0  0  0  0
  -24.5850  -31.8760   23.2310 C   0  0  0  0  0  0  0  0  0  0  0  0
  -27.2060  -27.4230   20.1210 C   0  0  0  0  0  0  0  0  0  0  0  0
  -23.3680  -30.4780   21.5950 C   0  0  0  0  0  3  0  0  0  0  0  0
  -24.8100  -28.9400   20.1570 C   0  0  0  0  0  0  0  0  0  0  0  0
  -25.8940  -30.8310   21.3820 C   0  0  0  0  0  2  0  0  0  0  0  0
  -25.9740  -29.4610   20.7370 C   0  0  0  0  0  0  0  0  0  0  0  0
  -27.1730  -28.7080   20.7160 C   0  0  0  0  0  3  0  0  0  0  0  0
  -26.0140  -26.9160   19.5500 C   0  0  0  0  0  3  0  0  0  0  0  0
  -24.8250  -27.6680   19.5630 C   0  0  0  0  0  3  0  0  0  0  0  0
  -23.5670  -29.8010   20.2130 C   0  0  0  0  0  2  0  0  0  0  0  0
  -24.6350  -31.0760   22.1280 N   0  0  0  0  0  0  0  0  0  0  0  0
  -23.5080  -32.1490   23.7760 O   0  0  0  0  0  0  0  0  0  0  0  0
  -22.7190  -29.4570   22.5570 C   0  0  0  0  0  0  0  0  0  0  0  0
  -21.3940  -29.2780   22.4370 N   0  0  0  0  0  0  0  0  0  0  0  0
  -23.4060  -28.8270   23.3660 O   0  0  0  0  0  0  0  0  0  0  0  0
  -20.9010  -29.8380   21.7550 H   0  0  0  0  0  0  0  0  0  0  0  0
  -18.0190  -28.0920   22.9500 C   0  0  0  0  0  0  0  0  0  0  0  0
  -20.5780  -28.3430   23.2120 C   0  0  0  0  0  3  0  0  0  0  0  0
  -20.6750  -26.9110   22.6330 C   0  0  0  0  0  2  0  0  0  0  0  0
  -19.5680  -26.5930   21.6230 C   0  0  0  0  0  2  0  0  0  0  0  0
  -18.1890  -26.7420   22.2730 C   0  0  0  0  0  2  0  0  0  0  0  0
  -19.1420  -28.8500   23.3760 C   0  0  0  0  0  0  0  0  0  0  0  0
  -18.9290  -30.1150   23.9670 C   0  0  0  0  0  3  0  0  0  0  0  0
  -17.6270  -30.6200   24.1370 C   0  0  0  0  0  3  0  0  0  0  0  0
  -16.5180  -29.8580   23.7290 C   0  0  0  0  0  3  0  0  0  0  0  0
  -16.7160  -28.5960   23.1410 C   0  0  0  0  0  3  0  0  0  0  0  0
  -25.8750  -32.5030   23.8430 C   0  0  0  0  0  3  0  0  0  0  0  0
  -26.4020  -31.7280   25.1130 C   0  0  1  0  0  0  0  0  0  0  0  0
  -25.3180  -31.4890   26.1890 C   0  0  0  0  0  1  0  0  0  0  0  0
  -26.9790  -30.3510   24.7100 C   0  0  0  0  0  1  0  0  0  0  0  0
  -27.5600  -32.5190   25.7670 C   0  0  0  0  0  1  0  0  0  0  0  0
  -25.5720  -33.9010   24.1770 N   0  0  0  0  0  0  0  0  0  0  0  0
  -25.9050  -34.9540   23.4180 C   0  0  0  0  0  0  0  0  0  0  0  0
  -26.5720  -34.8500   22.3850 O   0  0  0  0  0  0  0  0  0  0  0  0
  -24.9780  -34.0560   24.9790 H   0  0  0  0  0  0  0  0  0  0  0  0
  -24.1820  -36.7520   23.0670 C   0  0  0  0  0  1  0  0  0  0  0  0
  -25.4210  -36.3430   23.8790 C   0  0  0  0  0  3  0  0  0  0  0  0
  -27.5590  -37.2170   24.7130 C   0  0  0  0  0  1  0  0  0  0  0  0
  -26.4580  -37.3920   23.7700 N   0  0  0  0  0  0  0  0  0  0  0  0
  -26.0540  -38.3130   23.9200 H   0  0  0  0  0  0  0  0  0  0  0  0
  -31.4930  -21.1860   18.1490 C   0  0  0  0  0  1  0  0  0  0  0  0
  -30.1080  -20.9300   18.7760 C   0  0  0  0  0  3  0  0  0  0  0  0
  -31.1660  -18.9970   20.1430 C   0  0  0  0  0  3  0  0  0  0  0  0
  -31.1370  -17.6660   20.6260 C   0  0  0  0  0  3  0  0  0  0  0  0
  -30.0320  -19.5760   19.5160 C   0  0  0  0  0  0  0  0  0  0  0  0
  -29.9630  -16.8850   20.5080 C   0  0  0  0  0  0  0  0  0  0  0  0
  -28.8430  -18.8120   19.4640 C   0  0  0  0  0  0  0  0  0  0  0  0
  -28.8110  -17.4880   19.9610 C   0  0  0  0  0  0  0  0  0  0  0  0
  -27.7280  -19.3290   18.8910 F   0  0  0  0  0  0  0  0  0  0  0  0
  -27.6670  -16.7700   19.8650 F   0  0  0  0  0  0  0  0  0  0  0  0
  -30.6240  -14.4990   20.4640 C   0  0  0  0  0  0  0  0  0  0  0  0
  -30.3360  -12.3280   19.3320 C   0  0  0  0  0  2  0  0  0  0  0  0
  -29.3950  -12.5350   18.1260 C   0  0  0  0  0  2  0  0  0  0  0  0
  -27.9180  -12.4050   18.5520 C   0  0  0  0  0  2  0  0  0  0  0  0
  -27.5820  -13.2420   19.8160 C   0  0  0  0  0  3  0  0  0  0  0  0
  -28.6360  -13.0150   20.9240 C   0  0  0  0  0  2  0  0  0  0  0  0
  -29.9640  -13.3120   20.3590 N   0  0  0  0  0  0  0  0  0  0  0  0
  -31.7670  -14.6660   20.0300 O   0  0  0  0  0  0  0  0  0  0  0  0
  -29.8840  -15.5210   20.9370 N   0  0  0  0  0  0  0  0  0  0  0  0
  -28.9670  -15.2310   21.2410 H   0  0  0  0  0  0  0  0  0  0  0  0
  -25.1830  -13.8650   20.5130 C   0  0  0  0  0  0  0  0  0  0  0  0
  -24.1100  -13.1010   20.8800 C   0  0  0  0  0  0  0  0  0  0  0  0
  -24.5650  -11.7470   20.8580 C   0  0  0  0  0  0  0  0  0  0  0  0
  -26.2260  -12.9780   20.2910 N   0  0  0  0  0  0  0  0  0  0  0  0
  -25.8560  -11.6990   20.5570 N   0  0  0  0  0  0  0  0  0  0  0  0
  -23.8310  -10.4900   21.0510 C   0  0  0  0  0  0  0  0  0  0  0  0
  -24.2640   -9.5190   21.9800 C   0  0  0  0  0  3  0  0  0  0  0  0
  -23.5310   -8.3250   22.1600 C   0  0  0  0  0  3  0  0  0  0  0  0
  -22.3530   -8.0960   21.4120 C   0  0  0  0  0  0  0  0  0  0  0  0
  -21.9400   -9.0580   20.4730 C   0  0  0  0  0  3  0  0  0  0  0  0
  -22.6730  -10.2420   20.2900 C   0  0  0  0  0  3  0  0  0  0  0  0
  -21.5910   -6.9560   21.5020 O   0  0  0  0  0  0  0  0  0  0  0  0
  -21.5570   -6.2040   22.6490 C   0  0  0  0  0  0  0  0  0  0  0  0
  -21.1570   -6.7520   23.8870 C   0  0  0  0  0  3  0  0  0  0  0  0
  -21.0660   -5.9270   25.0260 C   0  0  0  0  0  3  0  0  0  0  0  0
  -21.3650   -4.5550   24.9280 C   0  0  0  0  0  0  0  0  0  0  0  0
  -21.7570   -4.0060   23.6950 C   0  0  0  0  0  3  0  0  0  0  0  0
  -21.8490   -4.8290   22.5570 C   0  0  0  0  0  0  0  0  0  0  0  0
  -22.2070   -4.2900   21.3670 F   0  0  0  0  0  0  0  0  0  0  0  0
  -21.2710   -3.7600   26.0200 F   0  0  0  0  0  0  0  0  0  0  0  0
  -22.7150  -13.5880   21.1460 C   0  0  0  0  0  0  0  0  0  0  0  0
  -21.9790  -12.8980   22.0110 N   0  0  0  0  0  0  0  0  0  0  0  0
  -22.2840  -14.6130   20.6200 O   0  0  0  0  0  0  0  0  0  0  0  0
  -22.3400  -12.0670   22.4560 H   0  0  0  0  0  0  0  0  0  0  0  0
  -21.0430  -13.2070   22.2310 H   0  0  0  0  0  0  0  0  0  0  0  0
  -25.3490  -15.2330   20.3320 N   0  0  0  0  0  0  0  0  0  0  0  0
  -24.5830  -15.8880   20.4380 H   0  0  0  0  0  0  0  0  0  0  0  0
  -26.2090  -15.6820   20.0350 H   0  0  0  0  0  0  0  0  0  0  0  0
  1  2  1  0
  1  6  1  0
  2  4  1  0
  3  1  2  0
  5  6  2  0
  5  9  1  0
  6  7  1  0
  7  8  1  0
 10 21  2  0
 11  9  1  0
 11 16  1  0
 12 20  1  0
 12 22  1  0
 13 19  1  0
 13 15  1  0
 14 20  1  0
 15 14  1  0
 16 15  2  0
 17 18  1  0
 17 11  2  0
 18 13  2  0
 19 12  1  0
 20 10  1  0
 22 24  2  0
 23 22  1  0
 25 23  1  0
 26 35  2  0
 26 31  1  0
 27 23  1  0
 27 31  1  0
 28 27  1  0
 29 30  1  0
 29 28  1  0
 30 26  1  0
 31 32  2  0
 32 33  1  0
 34 33  2  0
 35 34  1  0
 36 10  1  0
 36 41  1  0
 36 37  1  0
 37 40  1  1
 37 38  1  0
 39 37  1  0
 41 44  1  0
 42 46  1  0
 42 41  1  0
 43 42  2  0
 46 45  1  0
 48 46  1  0
 48 49  1  0
 48 47  1  0
 51 50  1  0
 51 54  1  0
 51  2  1  0
 52 53  1  0
 54 52  2  0
 55 53  2  0
 55 68  1  0
 56 54  1  0
 56 57  2  0
 57 55  1  0
 58 56  1  0
 59 57  1  0
 60 68  1  0
 61 66  1  0
 62 63  1  0
 62 61  1  0
 64 63  1  0
 64 73  1  0
 64 65  1  0
 66 60  1  0
 66 65  1  0
 67 60  2  0
 68 69  1  0
 70 71  2  0
 71 90  1  0
 72 71  1  0
 72 75  1  0
 73 70  1  0
 73 74  1  0
 74 72  2  0
 75 76  1  0
 76 77  2  0
 78 81  1  0
 78 77  1  0
 79 78  2  0
 80 79  1  0
 80 75  2  0
 81 82  1  0
 82 83  1  0
 83 84  2  0
 85 84  1  0
 85 89  1  0
 86 85  2  0
 87 82  2  0
 87 86  1  0
 88 87  1  0
 90 91  1  0
 91 94  1  0
 91 93  1  0
 92 90  2  0
 95 96  1  0
 95 70  1  0
 97 95  1  0
M  ISO  4   5 101   9 101  60 100  68 100
M  END
>  <TORSDO>  (82) 
F 20

>  <SCORE>  (82) 
-14.388

>  <name>  (82) 
81

>  <ligand_id>  (82) 
81

>  <original_smiles>  (82) 
[H]OC(C(=O)N([H])C([H])(c1c([H])c([H])c(N([H])C(=O)N2C([H])([H])C([H])([H])C([H])([H])C([H])(n3nc(-c4c([H])c([H])c(Oc5c([H])c([H])c(F)c([H])c5F)c([H])c4[H])c(C(=O)N([H])[H])c3N([H])[H])C2([H])[H])c(F)c1F)C([H])([H])[H])=C([H])Oc1c([H])c([H])c2c(c1[H])C([H])([H])N(C(=O)C([H])(N([H])C(=O)C([H])(N([H])C([H])([H])[H])C([H])([H])[H])C(C([H])([H])[H])(C([H])([H])[H])C([H])([H])[H])C([H])(C(=O)N([H])C1([H])c3c([H])c([H])c([H])c([H])c3C([H])([H])C([H])([H])C1([H])[H])C2([H])[H]

>  <smiles>  (82) 
[H]OC(C(=O)N([H])C([H])(c1c([H])c([H])c(N([H])C(=O)N2C([H])([H])C([H])([H])C([H])([H])C([H])(n3nc(-c4c([H])c([H])c(Oc5c([H])c([H])c(F)c([H])c5F)c([H])c4[H])c(C(=O)N([H])[H])c3N([H])[H])C2([H])[H])c(F)c1F)C([H])([H])[H])=C([H])Oc1c([H])c([H])c2c(c1[H])C([H])([H])N(C(=O)C([H])(N([H])C(=O)C([H])(N([H])C([H])([H])[H])C([H])([H])[H])C(C([H])([H])[H])(C([H])([H])[H])C([H])([H])[H])C([H])(C(=O)N([H])C1([H])c3c([H])c([H])c([H])c([H])c3C([H])([H])C([H])([H])C1([H])[H])C2([H])[H]

$$$$
82:0:0
     RDKit          3D

 97105  0  0  1  0  0  0  0  0999 V2000
  -29.1560  -21.7960   20.5780 C   0  0  0  0  0  0  0  0  0  0  0  0
  -29.3710  -20.6650   19.8550 N   0  0  0  0  0  0  0  0  0  0  0  0
  -29.7050  -21.9950   21.6650 O   0  0  0  0  0  0  0  0  0  0  0  0
  -28.7350  -20.5230   19.0810 H   0  0  0  0  0  0  0  0  0  0  0  0
  -32.0570  -17.3910   20.5210 C   0  0  0  0  0  3  0  0  0  0  0  0
  -29.8270  -18.2600   20.1360 C   0  0  0  0  0  3  0  0  0  0  0  0
  -31.7430  -19.8050   20.1710 C   0  0  0  0  0  0  0  0  0  0  0  0
  -32.5900  -18.6920   20.4400 C   0  0  0  0  0  0  0  0  0  0  0  0
  -30.6860  -17.1400   20.3120 C   0  0  0  0  0  0  0  0  0  0  0  0
  -30.3250  -19.6000   20.0870 C   0  0  0  0  0  0  0  0  0  0  0  0
  -34.1020  -18.8290   20.5910 C   0  0  0  0  0  1  0  0  0  0  0  0
  -30.8910  -14.6800   19.9130 C   0  0  0  0  0  0  0  0  0  0  0  0
  -30.5720  -12.4280   18.9540 C   0  0  0  0  0  2  0  0  0  0  0  0
  -29.5720  -12.5100   17.7840 C   0  0  0  0  0  2  0  0  0  0  0  0
  -28.1270  -12.3640   18.3010 C   0  0  0  0  0  2  0  0  0  0  0  0
  -27.8270  -13.2900   19.5100 C   0  0  0  0  0  3  0  0  0  0  0  0
  -28.9430  -13.2110   20.5770 C   0  0  0  0  0  2  0  0  0  0  0  0
  -30.2200  -13.4940   19.9080 N   0  0  0  0  0  0  0  0  0  0  0  0
  -32.0130  -14.7860   19.4120 O   0  0  0  0  0  0  0  0  0  0  0  0
  -30.1970  -15.7820   20.3030 N   0  0  0  0  0  0  0  0  0  0  0  0
  -29.2230  -15.6380   20.5200 H   0  0  0  0  0  0  0  0  0  0  0  0
  -25.5010  -13.9020   20.4190 C   0  0  0  0  0  0  0  0  0  0  0  0
  -24.4500  -13.1330   20.8380 C   0  0  0  0  0  0  0  0  0  0  0  0
  -24.8830  -11.7750   20.7240 C   0  0  0  0  0  0  0  0  0  0  0  0
  -26.5100  -13.0150   20.0800 N   0  0  0  0  0  0  0  0  0  0  0  0
  -26.1480  -11.7300   20.3220 N   0  0  0  0  0  0  0  0  0  0  0  0
  -24.1500  -10.5190   20.9190 C   0  0  0  0  0  0  0  0  0  0  0  0
  -24.5780   -9.5520   21.8570 C   0  0  0  0  0  3  0  0  0  0  0  0
  -23.8440   -8.3590   22.0390 C   0  0  0  0  0  3  0  0  0  0  0  0
  -22.6710   -8.1240   21.2830 C   0  0  0  0  0  0  0  0  0  0  0  0
  -22.2640   -9.0790   20.3350 C   0  0  0  0  0  3  0  0  0  0  0  0
  -22.9970  -10.2640   20.1500 C   0  0  0  0  0  3  0  0  0  0  0  0
  -21.9100   -6.9840   21.3760 O   0  0  0  0  0  0  0  0  0  0  0  0
  -21.7930   -6.2900   22.5530 C   0  0  0  0  0  0  0  0  0  0  0  0
  -21.2640   -6.8840   23.7190 C   0  0  0  0  0  3  0  0  0  0  0  0
  -21.0970   -6.1150   24.8880 C   0  0  0  0  0  3  0  0  0  0  0  0
  -21.4470   -4.7520   24.8910 C   0  0  0  0  0  0  0  0  0  0  0  0
  -21.9700   -4.1570   23.7300 C   0  0  0  0  0  3  0  0  0  0  0  0
  -22.1390   -4.9240   22.5630 C   0  0  0  0  0  0  0  0  0  0  0  0
  -22.6220   -4.3400   21.4400 F   0  0  0  0  0  0  0  0  0  0  0  0
  -21.2800   -4.0110   26.0110 F   0  0  0  0  0  0  0  0  0  0  0  0
  -23.0840  -13.6200   21.2280 C   0  0  0  0  0  0  0  0  0  0  0  0
  -22.4060  -12.8990   22.1140 N   0  0  0  0  0  0  0  0  0  0  0  0
  -22.6300  -14.6730   20.7810 O   0  0  0  0  0  0  0  0  0  0  0  0
  -22.7880  -12.0470   22.4950 H   0  0  0  0  0  0  0  0  0  0  0  0
  -21.4930  -13.2050   22.4170 H   0  0  0  0  0  0  0  0  0  0  0  0
  -25.6770  -15.2760   20.2780 N   0  0  0  0  0  0  0  0  0  0  0  0
  -24.9280  -15.9360   20.4560 H   0  0  0  0  0  0  0  0  0  0  0  0
  -26.4990  -15.7110   19.8780 H   0  0  0  0  0  0  0  0  0  0  0  0
  -32.3790  -21.1470   19.9520 C   0  0  0  0  0  0  0  0  0  0  0  0
  -32.2070  -21.7610   18.5680 C   0  0  0  0  0  1  0  0  0  0  0  0
  -33.0720  -21.7330   20.7900 O   0  0  0  0  0  0  0  0  0  0  0  0
  -28.1410  -22.8310   20.0350 C   0  0  0  0  0  2  0  0  0  0  0  0
  -28.7000  -24.2740   19.8920 C   0  0  0  0  0  0  0  0  0  0  0  0
  -29.6350  -24.5190   19.1210 O   0  0  0  0  0  0  0  0  0  0  0  0
  -28.0240  -25.4050   20.7050 C   0  0  0  0  0  2  0  0  0  0  0  0
  -28.2320  -26.7280   20.1410 O   0  0  0  0  0  0  0  0  0  0  0  0
  -24.6770  -31.9730   23.4500 C   0  0  0  0  0  0  0  0  0  0  0  0
  -27.1140  -27.5430   20.1700 C   0  0  0  0  0  0  0  0  0  0  0  0
  -23.3940  -30.6590   21.7950 C   0  0  0  0  0  3  0  0  0  0  0  0
  -24.7730  -29.1360   20.2790 C   0  0  0  0  0  0  0  0  0  0  0  0
  -25.9260  -30.9540   21.5470 C   0  0  0  0  0  2  0  0  0  0  0  0
  -25.9610  -29.6020   20.8570 C   0  0  0  0  0  0  0  0  0  0  0  0
  -27.1400  -28.8160   20.7940 C   0  0  0  0  0  3  0  0  0  0  0  0
  -25.9120  -27.1070   19.5710 C   0  0  0  0  0  3  0  0  0  0  0  0
  -24.7440  -27.8910   19.6300 C   0  0  0  0  0  3  0  0  0  0  0  0
  -23.5540  -30.0250   20.3880 C   0  0  0  0  0  2  0  0  0  0  0  0
  -24.6850  -31.2080   22.3220 N   0  0  0  0  0  0  0  0  0  0  0  0
  -23.6150  -32.2560   24.0240 O   0  0  0  0  0  0  0  0  0  0  0  0
  -22.7390  -29.6220   22.7360 C   0  0  0  0  0  0  0  0  0  0  0  0
  -21.4190  -29.4250   22.5840 N   0  0  0  0  0  0  0  0  0  0  0  0
  -23.4150  -29.0010   23.5610 O   0  0  0  0  0  0  0  0  0  0  0  0
  -20.9350  -29.9780   21.8910 H   0  0  0  0  0  0  0  0  0  0  0  0
  -18.0660  -28.1300   22.9590 C   0  0  0  0  0  0  0  0  0  0  0  0
  -20.6000  -28.4730   23.3340 C   0  0  0  0  0  3  0  0  0  0  0  0
  -20.7710  -27.0380   22.7830 C   0  0  0  0  0  2  0  0  0  0  0  0
  -19.7230  -26.6670   21.7290 C   0  0  0  0  0  2  0  0  0  0  0  0
  -18.3110  -26.7770   22.3120 C   0  0  0  0  0  2  0  0  0  0  0  0
  -19.1410  -28.9330   23.4250 C   0  0  0  0  0  0  0  0  0  0  0  0
  -18.8580  -30.1970   23.9870 C   0  0  0  0  0  3  0  0  0  0  0  0
  -17.5340  -30.6600   24.0880 C   0  0  0  0  0  3  0  0  0  0  0  0
  -16.4720  -29.8560   23.6410 C   0  0  0  0  0  3  0  0  0  0  0  0
  -16.7390  -28.5930   23.0830 C   0  0  0  0  0  3  0  0  0  0  0  0
  -25.9930  -32.5510   24.0580 C   0  0  0  0  0  3  0  0  0  0  0  0
  -25.7260  -33.9410   24.4500 N   0  0  0  0  0  0  0  0  0  0  0  0
  -26.0750  -35.0150   23.7290 C   0  0  0  0  0  0  0  0  0  0  0  0
  -26.7270  -34.9370   22.6840 O   0  0  0  0  0  0  0  0  0  0  0  0
  -25.1490  -34.0780   25.2670 H   0  0  0  0  0  0  0  0  0  0  0  0
  -24.3960  -36.8690   23.4650 C   0  0  0  0  0  1  0  0  0  0  0  0
  -25.6300  -36.3960   24.2500 C   0  0  0  0  0  3  0  0  0  0  0  0
  -27.7920  -37.1820   25.1070 C   0  0  0  0  0  1  0  0  0  0  0  0
  -26.6920  -37.4220   24.1760 N   0  0  0  0  0  0  0  0  0  0  0  0
  -26.3130  -38.3450   24.3680 H   0  0  0  0  0  0  0  0  0  0  0  0
  -26.5300  -31.7180   25.2840 C   0  0  1  0  0  0  0  0  0  0  0  0
  -25.4570  -31.4290   26.3580 C   0  0  0  0  0  1  0  0  0  0  0  0
  -27.1000  -30.3600   24.8110 C   0  0  0  0  0  1  0  0  0  0  0  0
  -27.6960  -32.4750   25.9620 C   0  0  0  0  0  1  0  0  0  0  0  0
  1  3  2  0
  2 10  1  0
  2  1  1  0
  4  2  1  0
  6  9  1  0
  7  8  2  0
  8  5  1  0
  8 11  1  0
  9  5  2  0
 10  6  2  0
 10  7  1  0
 12 20  1  0
 13 18  1  0
 14 15  1  0
 14 13  1  0
 16 15  1  0
 16 25  1  0
 16 17  1  0
 18 12  1  0
 18 17  1  0
 19 12  2  0
 20  9  1  0
 20 21  1  0
 22 23  2  0
 23 42  1  0
 24 23  1  0
 24 27  1  0
 25 26  1  0
 25 22  1  0
 26 24  2  0
 27 28  1  0
 28 29  2  0
 30 33  1  0
 30 29  1  0
 31 30  2  0
 32 31  1  0
 32 27  2  0
 33 34  1  0
 34 39  2  0
 34 35  1  0
 35 36  2  0
 36 37  1  0
 37 41  1  0
 38 37  2  0
 39 38  1  0
 40 39  1  0
 42 43  1  0
 43 46  1  0
 43 45  1  0
 44 42  2  0
 47 22  1  0
 47 48  1  0
 49 47  1  0
 50  7  1  0
 50 52  2  0
 51 50  1  0
 53  1  1  0
 54 53  1  0
 54 56  1  0
 55 54  2  0
 57 59  1  0
 57 56  1  0
 58 69  2  0
 59 64  1  0
 60 68  1  0
 60 70  1  0
 61 67  1  0
 61 63  1  0
 62 68  1  0
 63 62  1  0
 64 63  2  0
 65 66  1  0
 65 59  2  0
 66 61  2  0
 67 60  1  0
 68 58  1  0
 70 72  2  0
 71 70  1  0
 73 71  1  0
 74 83  2  0
 74 79  1  0
 75 71  1  0
 75 79  1  0
 76 75  1  0
 77 78  1  0
 77 76  1  0
 78 74  1  0
 79 80  2  0
 80 81  1  0
 82 81  2  0
 83 82  1  0
 84 58  1  0
 84 85  1  0
 84 94  1  0
 85 88  1  0
 86 90  1  0
 86 85  1  0
 87 86  2  0
 90 89  1  0
 92 90  1  0
 92 93  1  0
 92 91  1  0
 94 97  1  1
 94 95  1  0
 96 94  1  0
M  ISO  4  12 100  20 100  56 101  57 101
M  END
>  <TORSDO>  (83) 
F 21

>  <SCORE>  (83) 
-13.317

>  <name>  (83) 
82

>  <ligand_id>  (83) 
82

>  <original_smiles>  (83) 
[H]c1c([H])c([H])c2c(c1[H])C([H])([H])C([H])([H])C([H])([H])C2([H])N([H])C(=O)C1([H])N(C(=O)C([H])(N([H])C(=O)C([H])(N([H])C([H])([H])[H])C([H])([H])[H])C(C([H])([H])[H])(C([H])([H])[H])C([H])([H])[H])C([H])([H])c2c([H])c(OC([H])([H])C(=O)C([H])([H])C(=O)N([H])c3c([H])c(N([H])C(=O)N4C([H])([H])C([H])([H])C([H])([H])C([H])(n5nc(-c6c([H])c([H])c(Oc7c([H])c([H])c(F)c([H])c7F)c([H])c6[H])c(C(=O)N([H])[H])c5N([H])[H])C4([H])[H])c([H])c(C([H])([H])[H])c3C(=O)C([H])([H])[H])c([H])c([H])c2C1([H])[H]

>  <smiles>  (83) 
[H]c1c([H])c([H])c2c(c1[H])C([H])([H])C([H])([H])C([H])([H])C2([H])N([H])C(=O)C1([H])N(C(=O)C([H])(N([H])C(=O)C([H])(N([H])C([H])([H])[H])C([H])([H])[H])C(C([H])([H])[H])(C([H])([H])[H])C([H])([H])[H])C([H])([H])c2c([H])c(OC([H])([H])C(=O)C([H])([H])C(=O)N([H])c3c([H])c(N([H])C(=O)N4C([H])([H])C([H])([H])C([H])([H])C([H])(n5nc(-c6c([H])c([H])c(Oc7c([H])c([H])c(F)c([H])c7F)c([H])c6[H])c(C(=O)N([H])[H])c5N([H])[H])C4([H])[H])c([H])c(C([H])([H])[H])c3C(=O)C([H])([H])[H])c([H])c([H])c2C1([H])[H]

$$$$
83:0:0
     RDKit          3D

 96104  0  0  1  0  0  0  0  0999 V2000
  -29.2010  -22.6450   20.0350 C   0  0  0  0  0  0  0  0  0  0  0  0
  -29.0380  -21.2530   20.2390 N   0  0  0  0  0  0  0  0  0  0  0  0
  -30.1630  -23.1000   19.4180 O   0  0  0  0  0  0  0  0  0  0  0  0
  -28.1040  -21.0160   20.5490 H   0  0  0  0  0  0  0  0  0  0  0  0
  -32.1480  -19.1710   19.4860 C   0  0  0  0  0  3  0  0  0  0  0  0
  -31.2480  -20.2340   19.6580 C   0  0  0  0  0  3  0  0  0  0  0  0
  -31.7700  -17.8350   19.6920 C   0  0  0  0  0  3  0  0  0  0  0  0
  -29.5310  -18.6020   20.2990 C   0  0  0  0  0  0  0  0  0  0  0  0
  -29.9100  -20.0240   20.0580 C   0  0  0  0  0  0  0  0  0  0  0  0
  -30.4670  -17.4560   20.0990 C   0  0  0  0  0  0  0  0  0  0  0  0
  -30.9230  -14.8060   19.9010 C   0  0  0  0  0  0  0  0  0  0  0  0
  -30.6350  -12.5770   18.7890 C   0  0  0  0  0  2  0  0  0  0  0  0
  -29.6010  -12.7020   17.6500 C   0  0  0  0  0  2  0  0  0  0  0  0
  -28.1740  -12.4840   18.1920 C   0  0  0  0  0  2  0  0  0  0  0  0
  -27.9000  -13.2880   19.4920 C   0  0  0  0  0  3  0  0  0  0  0  0
  -29.0540  -13.1660   20.5090 C   0  0  0  0  0  2  0  0  0  0  0  0
  -30.2830  -13.5820   19.8240 N   0  0  0  0  0  0  0  0  0  0  0  0
  -32.0900  -14.8630   19.5070 O   0  0  0  0  0  0  0  0  0  0  0  0
  -30.1930  -15.9630   20.2380 N   0  0  0  0  0  0  0  0  0  0  0  0
  -29.2720  -15.7310   20.5770 H   0  0  0  0  0  0  0  0  0  0  0  0
  -25.5700  -13.7850   20.4330 C   0  0  0  0  0  0  0  0  0  0  0  0
  -24.5590  -12.9740   20.8700 C   0  0  0  0  0  0  0  0  0  0  0  0
  -25.0480  -11.6370   20.7510 C   0  0  0  0  0  0  0  0  0  0  0  0
  -26.6100  -12.9420   20.0820 N   0  0  0  0  0  0  0  0  0  0  0  0
  -26.3090  -11.6420   20.3350 N   0  0  0  0  0  0  0  0  0  0  0  0
  -24.3650  -10.3510   20.9510 C   0  0  0  0  0  0  0  0  0  0  0  0
  -24.8120   -9.4170   21.9110 C   0  0  0  0  0  3  0  0  0  0  0  0
  -24.1260   -8.1990   22.0980 C   0  0  0  0  0  3  0  0  0  0  0  0
  -22.9770   -7.9040   21.3250 C   0  0  0  0  0  0  0  0  0  0  0  0
  -22.5510   -8.8260   20.3530 C   0  0  0  0  0  3  0  0  0  0  0  0
  -23.2390  -10.0370   20.1650 C   0  0  0  0  0  3  0  0  0  0  0  0
  -22.2620   -6.7340   21.4210 O   0  0  0  0  0  0  0  0  0  0  0  0
  -22.1240   -6.0710   22.6140 C   0  0  0  0  0  0  0  0  0  0  0  0
  -21.5610   -6.6920   23.7510 C   0  0  0  0  0  3  0  0  0  0  0  0
  -21.3740   -5.9540   24.9370 C   0  0  0  0  0  3  0  0  0  0  0  0
  -21.7380   -4.5940   24.9840 C   0  0  0  0  0  0  0  0  0  0  0  0
  -22.2930   -3.9730   23.8520 C   0  0  0  0  0  3  0  0  0  0  0  0
  -22.4820   -4.7100   22.6690 C   0  0  0  0  0  0  0  0  0  0  0  0
  -22.9980   -4.1010   21.5740 F   0  0  0  0  0  0  0  0  0  0  0  0
  -21.5510   -3.8810   26.1190 F   0  0  0  0  0  0  0  0  0  0  0  0
  -23.1790  -13.4080   21.2670 C   0  0  0  0  0  0  0  0  0  0  0  0
  -22.5500  -12.6870   22.1890 N   0  0  0  0  0  0  0  0  0  0  0  0
  -22.6670  -14.4230   20.7950 O   0  0  0  0  0  0  0  0  0  0  0  0
  -22.9780  -11.8680   22.5930 H   0  0  0  0  0  0  0  0  0  0  0  0
  -21.6290  -12.9620   22.4970 H   0  0  0  0  0  0  0  0  0  0  0  0
  -25.6780  -15.1630   20.2730 N   0  0  0  0  0  0  0  0  0  0  0  0
  -24.8700  -15.7610   20.4020 H   0  0  0  0  0  0  0  0  0  0  0  0
  -26.3980  -15.5940   19.7090 H   0  0  0  0  0  0  0  0  0  0  0  0
  -28.1160  -18.3500   20.7450 C   0  0  0  0  0  0  0  0  0  0  0  0
  -27.7610  -16.9860   21.3300 C   0  0  0  0  0  1  0  0  0  0  0  0
  -27.2300  -19.2090   20.7210 O   0  0  0  0  0  0  0  0  0  0  0  0
  -27.8060  -24.9160   20.5430 C   0  0  0  0  0  3  0  0  0  0  0  0
  -28.1210  -23.5420   20.6180 C   0  0  0  0  0  0  0  0  0  0  0  0
  -27.2850  -22.8810   21.4380 O   0  0  0  0  0  0  0  0  0  0  0  0
  -27.7390  -22.1060   21.7380 H   0  0  0  0  0  0  0  0  0  0  0  0
  -28.2440  -26.1410   19.9360 O   0  0  0  0  0  0  0  0  0  0  0  0
  -24.6950  -31.7620   22.9810 C   0  0  0  0  0  0  0  0  0  0  0  0
  -27.2490  -27.1570   19.8650 C   0  0  0  0  0  0  0  0  0  0  0  0
  -23.4880  -30.4110   21.3070 C   0  0  0  0  0  3  0  0  0  0  0  0
  -24.9310  -28.8650   19.8570 C   0  0  0  0  0  0  0  0  0  0  0  0
  -26.0410  -30.6780   21.1550 C   0  0  0  0  0  2  0  0  0  0  0  0
  -26.1090  -29.3050   20.4790 C   0  0  0  0  0  0  0  0  0  0  0  0
  -27.2740  -28.4630   20.4760 C   0  0  0  0  0  3  0  0  0  0  0  0
  -26.0570  -26.8050   19.2000 C   0  0  0  0  0  3  0  0  0  0  0  0
  -24.9110  -27.6250   19.2050 C   0  0  0  0  0  3  0  0  0  0  0  0
  -23.7070  -29.7620   19.9160 C   0  0  0  0  0  2  0  0  0  0  0  0
  -24.7600  -30.9700   21.8700 N   0  0  0  0  0  0  0  0  0  0  0  0
  -23.6100  -32.0440   23.5110 O   0  0  0  0  0  0  0  0  0  0  0  0
  -22.8020  -29.3850   22.2450 C   0  0  0  0  0  0  0  0  0  0  0  0
  -21.4670  -29.2550   22.1370 N   0  0  0  0  0  0  0  0  0  0  0  0
  -23.4710  -28.7130   23.0340 O   0  0  0  0  0  0  0  0  0  0  0  0
  -20.9850  -29.8480   21.4740 H   0  0  0  0  0  0  0  0  0  0  0  0
  -18.0590  -28.1690   22.6860 C   0  0  0  0  0  0  0  0  0  0  0  0
  -20.6320  -28.3190   22.8910 C   0  0  0  0  0  3  0  0  0  0  0  0
  -20.6590  -26.9080   22.2550 C   0  0  0  0  0  2  0  0  0  0  0  0
  -19.5180  -26.6740   21.2600 C   0  0  0  0  0  2  0  0  0  0  0  0
  -18.1620  -26.8450   21.9490 C   0  0  0  0  0  2  0  0  0  0  0  0
  -19.2170  -28.8690   23.1150 C   0  0  0  0  0  0  0  0  0  0  0  0
  -19.0640  -30.1130   23.7640 C   0  0  0  0  0  3  0  0  0  0  0  0
  -17.7840  -30.6540   23.9910 C   0  0  0  0  0  3  0  0  0  0  0  0
  -16.6400  -29.9510   23.5750 C   0  0  0  0  0  3  0  0  0  0  0  0
  -16.7780  -28.7090   22.9290 C   0  0  0  0  0  3  0  0  0  0  0  0
  -25.9780  -32.3710   23.6230 C   0  0  0  0  0  3  0  0  0  0  0  0
  -26.5040  -31.5450   24.8600 C   0  0  1  0  0  0  0  0  0  0  0  0
  -25.4180  -31.2600   25.9240 C   0  0  0  0  0  1  0  0  0  0  0  0
  -27.0860  -30.1850   24.4060 C   0  0  0  0  0  1  0  0  0  0  0  0
  -27.6590  -32.3100   25.5480 C   0  0  0  0  0  1  0  0  0  0  0  0
  -25.6660  -33.7510   24.0220 N   0  0  0  0  0  0  0  0  0  0  0  0
  -25.9810  -34.8410   23.3110 C   0  0  0  0  0  0  0  0  0  0  0  0
  -26.6340  -34.7900   22.2650 O   0  0  0  0  0  0  0  0  0  0  0  0
  -25.0820  -33.8610   24.8380 H   0  0  0  0  0  0  0  0  0  0  0  0
  -24.2390  -36.6430   23.0720 C   0  0  0  0  0  1  0  0  0  0  0  0
  -25.4950  -36.2050   23.8430 C   0  0  0  0  0  3  0  0  0  0  0  0
  -27.6380  -37.0620   24.6860 C   0  0  0  0  0  1  0  0  0  0  0  0
  -26.5220  -37.2670   23.7660 N   0  0  0  0  0  0  0  0  0  0  0  0
  -26.1140  -38.1780   23.9600 H   0  0  0  0  0  0  0  0  0  0  0  0
  1  2  1  0
  1 53  1  0
  2  4  1  0
  3  1  2  0
  5  6  2  0
  5  7  1  0
  6  9  1  0
  7 10  2  0
  8 49  1  0
  9  2  1  0
  9  8  2  0
 10 19  1  0
 10  8  1  0
 11 19  1  0
 12 17  1  0
 13 14  1  0
 13 12  1  0
 15 14  1  0
 15 24  1  0
 15 16  1  0
 17 11  1  0
 17 16  1  0
 18 11  2  0
 19 20  1  0
 21 22  2  0
 22 41  1  0
 23 22  1  0
 23 26  1  0
 24 25  1  0
 24 21  1  0
 25 23  2  0
 26 27  1  0
 27 28  2  0
 29 32  1  0
 29 28  1  0
 30 29  2  0
 31 30  1  0
 31 26  2  0
 32 33  1  0
 33 38  2  0
 33 34  1  0
 34 35  2  0
 35 36  1  0
 36 40  1  0
 37 36  2  0
 38 37  1  0
 39 38  1  0
 41 42  1  0
 42 45  1  0
 42 44  1  0
 43 41  2  0
 46 47  1  0
 46 21  1  0
 48 46  1  0
 49 50  1  0
 51 49  2  0
 52 53  2  0
 53 54  1  0
 54 55  1  0
 56 52  1  0
 57 68  2  0
 58 56  1  0
 58 63  1  0
 59 67  1  0
 59 69  1  0
 60 66  1  0
 60 62  1  0
 61 67  1  0
 62 61  1  0
 63 62  2  0
 64 65  1  0
 64 58  2  0
 65 60  2  0
 66 59  1  0
 67 57  1  0
 69 71  2  0
 70 69  1  0
 72 70  1  0
 73 82  2  0
 73 78  1  0
 74 70  1  0
 74 78  1  0
 75 74  1  0
 76 77  1  0
 76 75  1  0
 77 73  1  0
 78 79  2  0
 79 80  1  0
 81 80  2  0
 82 81  1  0
 83 57  1  0
 83 88  1  0
 83 84  1  0
 84 87  1  1
 84 85  1  0
 86 84  1  0
 88 91  1  0
 89 93  1  0
 89 88  1  0
 90 89  2  0
 93 92  1  0
 95 93  1  0
 95 96  1  0
 95 94  1  0
M  ISO  4  11 100  19 100  52 101  56 101
M  END
>  <TORSDO>  (84) 
F 20

>  <SCORE>  (84) 
-11.218

>  <name>  (84) 
83

>  <ligand_id>  (84) 
83

>  <original_smiles>  (84) 
[H]OC(C(=O)N([H])c1c([H])c([H])c([H])c(N([H])C(=O)N2C([H])([H])C([H])([H])C([H])([H])C([H])(n3nc(-c4c([H])c([H])c(Oc5c([H])c([H])c(F)c([H])c5F)c([H])c4[H])c(C(=O)N([H])[H])c3N([H])[H])C2([H])[H])c1C(=O)C([H])([H])[H])=C([H])Oc1c([H])c([H])c2c(c1[H])C([H])([H])N(C(=O)C([H])(N([H])C(=O)C([H])(N([H])C([H])([H])[H])C([H])([H])[H])C(C([H])([H])[H])(C([H])([H])[H])C([H])([H])[H])C([H])(C(=O)N([H])C1([H])c3c([H])c([H])c([H])c([H])c3C([H])([H])C([H])([H])C1([H])[H])C2([H])[H]

>  <smiles>  (84) 
[H]OC(C(=O)N([H])c1c([H])c([H])c([H])c(N([H])C(=O)N2C([H])([H])C([H])([H])C([H])([H])C([H])(n3nc(-c4c([H])c([H])c(Oc5c([H])c([H])c(F)c([H])c5F)c([H])c4[H])c(C(=O)N([H])[H])c3N([H])[H])C2([H])[H])c1C(=O)C([H])([H])[H])=C([H])Oc1c([H])c([H])c2c(c1[H])C([H])([H])N(C(=O)C([H])(N([H])C(=O)C([H])(N([H])C([H])([H])[H])C([H])([H])[H])C(C([H])([H])[H])(C([H])([H])[H])C([H])([H])[H])C([H])(C(=O)N([H])C1([H])c3c([H])c([H])c([H])c([H])c3C([H])([H])C([H])([H])C1([H])[H])C2([H])[H]

$$$$
84:0:0
     RDKit          3D

 96104  0  0  1  0  0  0  0  0999 V2000
  -29.6490  -20.4350   19.5240 C   0  0  0  0  0  0  0  0  0  0  0  0
  -30.3230  -20.7620   18.5420 O   0  0  0  0  0  0  0  0  0  0  0  0
  -30.3930  -18.0390   19.7020 C   0  0  0  0  0  3  0  0  0  0  0  0
  -30.9260  -16.9710   21.8220 C   0  0  0  0  0  3  0  0  0  0  0  0
  -30.0350  -19.2480   20.3610 C   0  0  0  0  0  0  0  0  0  0  0  0
  -30.8410  -16.9010   20.4170 C   0  0  0  0  0  0  0  0  0  0  0  0
  -30.5890  -18.1680   22.4890 C   0  0  0  0  0  0  0  0  0  0  0  0
  -30.1590  -19.3060   21.7700 C   0  0  0  0  0  0  0  0  0  0  0  0
  -30.6830  -18.2210   23.8410 F   0  0  0  0  0  0  0  0  0  0  0  0
  -29.9040  -20.4540   22.4420 F   0  0  0  0  0  0  0  0  0  0  0  0
  -31.8100  -14.6170   20.0380 C   0  0  0  0  0  0  0  0  0  0  0  0
  -31.3410  -12.4560   18.9720 C   0  0  0  0  0  2  0  0  0  0  0  0
  -30.3820  -12.7240   17.7890 C   0  0  0  0  0  2  0  0  0  0  0  0
  -28.9110  -12.7300   18.2530 C   0  0  0  0  0  2  0  0  0  0  0  0
  -28.6760  -13.6020   19.5170 C   0  0  0  0  0  3  0  0  0  0  0  0
  -29.7450  -13.3140   20.5970 C   0  0  0  0  0  2  0  0  0  0  0  0
  -31.0700  -13.4810   19.9830 N   0  0  0  0  0  0  0  0  0  0  0  0
  -33.0150  -14.6440   19.7740 O   0  0  0  0  0  0  0  0  0  0  0  0
  -31.0850  -15.7000   19.6880 N   0  0  0  0  0  0  0  0  0  0  0  0
  -31.2350  -15.8910   18.7100 H   0  0  0  0  0  0  0  0  0  0  0  0
  -26.3920  -14.4300   20.3420 C   0  0  0  0  0  0  0  0  0  0  0  0
  -25.2540  -13.7610   20.7000 C   0  0  0  0  0  0  0  0  0  0  0  0
  -25.5670  -12.3700   20.6020 C   0  0  0  0  0  0  0  0  0  0  0  0
  -27.3250  -13.4500   20.0410 N   0  0  0  0  0  0  0  0  0  0  0  0
  -26.8370  -12.2060   20.2560 N   0  0  0  0  0  0  0  0  0  0  0  0
  -24.7210  -11.1850   20.7640 C   0  0  0  0  0  0  0  0  0  0  0  0
  -25.0390  -10.1780   21.7030 C   0  0  0  0  0  3  0  0  0  0  0  0
  -24.2020   -9.0530   21.8530 C   0  0  0  0  0  3  0  0  0  0  0  0
  -23.0330   -8.9270   21.0670 C   0  0  0  0  0  0  0  0  0  0  0  0
  -22.7350   -9.9220   20.1170 C   0  0  0  0  0  3  0  0  0  0  0  0
  -23.5690  -11.0410   19.9650 C   0  0  0  0  0  3  0  0  0  0  0  0
  -22.1720   -7.8560   21.1280 O   0  0  0  0  0  0  0  0  0  0  0  0
  -21.9700   -7.1580   22.2910 C   0  0  0  0  0  0  0  0  0  0  0  0
  -21.5240   -7.7880   23.4730 C   0  0  0  0  0  3  0  0  0  0  0  0
  -21.2640   -7.0180   24.6270 C   0  0  0  0  0  3  0  0  0  0  0  0
  -21.4430   -5.6240   24.5960 C   0  0  0  0  0  0  0  0  0  0  0  0
  -21.8790   -4.9940   23.4170 C   0  0  0  0  0  3  0  0  0  0  0  0
  -22.1390   -5.7590   22.2670 C   0  0  0  0  0  0  0  0  0  0  0  0
  -22.5380   -5.1450   21.1270 F   0  0  0  0  0  0  0  0  0  0  0  0
  -21.1870   -4.8850   25.7010 F   0  0  0  0  0  0  0  0  0  0  0  0
  -23.9240  -14.3700   21.0340 C   0  0  0  0  0  0  0  0  0  0  0  0
  -23.1750  -13.7400   21.9350 N   0  0  0  0  0  0  0  0  0  0  0  0
  -23.5630  -15.4350   20.5350 O   0  0  0  0  0  0  0  0  0  0  0  0
  -23.4870  -12.8750   22.3530 H   0  0  0  0  0  0  0  0  0  0  0  0
  -22.2920  -14.1370   22.2190 H   0  0  0  0  0  0  0  0  0  0  0  0
  -26.7160  -15.7770   20.2290 N   0  0  0  0  0  0  0  0  0  0  0  0
  -26.0590  -16.5290   20.4020 H   0  0  0  0  0  0  0  0  0  0  0  0
  -27.6580  -16.0960   20.0380 H   0  0  0  0  0  0  0  0  0  0  0  0
  -28.3570  -21.2540   19.8050 C   0  0  0  0  0  3  0  0  0  0  0  0
  -27.3150  -20.4830   20.4040 O   0  0  0  0  0  0  0  0  0  0  0  0
  -27.1190  -19.7560   19.8210 H   0  0  0  0  0  0  0  0  0  0  0  0
  -28.6080  -22.5840   20.5790 C   0  0  0  0  0  2  0  0  0  0  0  0
  -28.2210  -23.8900   19.8410 C   0  0  0  0  0  0  0  0  0  0  0  0
  -28.0110  -23.9050   18.6220 O   0  0  0  0  0  0  0  0  0  0  0  0
  -28.1610  -25.1870   20.6800 C   0  0  0  0  0  2  0  0  0  0  0  0
  -28.2160  -26.3960   19.8930 O   0  0  0  0  0  0  0  0  0  0  0  0
  -24.5350  -31.6440   23.0260 C   0  0  0  0  0  0  0  0  0  0  0  0
  -27.0700  -27.1590   19.9170 C   0  0  0  0  0  0  0  0  0  0  0  0
  -23.2880  -30.2610   21.3960 C   0  0  0  0  0  3  0  0  0  0  0  0
  -24.7020  -28.7030   19.9510 C   0  0  0  0  0  0  0  0  0  0  0  0
  -25.8200  -30.5820   21.1730 C   0  0  0  0  0  2  0  0  0  0  0  0
  -25.8750  -29.2130   20.5240 C   0  0  0  0  0  0  0  0  0  0  0  0
  -27.0680  -28.4510   20.4930 C   0  0  0  0  0  3  0  0  0  0  0  0
  -25.8820  -26.6620   19.3430 C   0  0  0  0  0  3  0  0  0  0  0  0
  -24.7030  -27.4320   19.3480 C   0  0  0  0  0  3  0  0  0  0  0  0
  -23.4710  -29.5800   20.0130 C   0  0  0  0  0  2  0  0  0  0  0  0
  -24.5660  -30.8450   21.9210 N   0  0  0  0  0  0  0  0  0  0  0  0
  -23.4640  -31.9340   23.5790 O   0  0  0  0  0  0  0  0  0  0  0  0
  -22.6330  -29.2510   22.3670 C   0  0  0  0  0  0  0  0  0  0  0  0
  -21.3030  -29.1000   22.2650 N   0  0  0  0  0  0  0  0  0  0  0  0
  -23.3200  -28.6070   23.1630 O   0  0  0  0  0  0  0  0  0  0  0  0
  -20.8130  -29.6770   21.5940 H   0  0  0  0  0  0  0  0  0  0  0  0
  -17.9100  -27.9850   22.8220 C   0  0  0  0  0  0  0  0  0  0  0  0
  -20.4780  -28.1770   23.0440 C   0  0  0  0  0  3  0  0  0  0  0  0
  -20.5320  -26.7490   22.4540 C   0  0  0  0  0  2  0  0  0  0  0  0
  -19.4000  -26.4620   21.4600 C   0  0  0  0  0  2  0  0  0  0  0  0
  -18.0370  -26.6360   22.1350 C   0  0  0  0  0  2  0  0  0  0  0  0
  -19.0550  -28.7160   23.2340 C   0  0  0  0  0  0  0  0  0  0  0  0
  -18.8810  -29.9810   23.8370 C   0  0  0  0  0  3  0  0  0  0  0  0
  -17.5930  -30.5130   24.0340 C   0  0  0  0  0  3  0  0  0  0  0  0
  -16.4620  -29.7790   23.6380 C   0  0  0  0  0  3  0  0  0  0  0  0
  -16.6200  -28.5180   23.0380 C   0  0  0  0  0  3  0  0  0  0  0  0
  -25.8370  -32.2550   23.6340 C   0  0  0  0  0  3  0  0  0  0  0  0
  -25.5300  -33.6330   24.0390 N   0  0  0  0  0  0  0  0  0  0  0  0
  -25.8440  -34.7230   23.3270 C   0  0  0  0  0  0  0  0  0  0  0  0
  -26.4930  -34.6760   22.2790 O   0  0  0  0  0  0  0  0  0  0  0  0
  -24.9530  -33.7450   24.8580 H   0  0  0  0  0  0  0  0  0  0  0  0
  -24.0970  -36.5210   23.1070 C   0  0  0  0  0  1  0  0  0  0  0  0
  -25.3620  -36.0860   23.8640 C   0  0  0  0  0  3  0  0  0  0  0  0
  -27.5140  -36.9410   24.6790 C   0  0  0  0  0  1  0  0  0  0  0  0
  -26.3850  -37.1490   23.7750 N   0  0  0  0  0  0  0  0  0  0  0  0
  -25.9800  -38.0580   23.9800 H   0  0  0  0  0  0  0  0  0  0  0  0
  -26.4060  -31.4290   24.8530 C   0  0  1  0  0  0  0  0  0  0  0  0
  -25.3570  -31.1230   25.9480 C   0  0  0  0  0  1  0  0  0  0  0  0
  -26.9890  -30.0790   24.3710 C   0  0  0  0  0  1  0  0  0  0  0  0
  -27.5680  -32.2070   25.5150 C   0  0  0  0  0  1  0  0  0  0  0  0
  1 49  1  0
  1  5  1  0
  2  1  2  0
  3  5  2  0
  3  6  1  0
  4  7  1  0
  5  8  1  0
  6  4  2  0
  7  9  1  0
  8 10  1  0
  8  7  2  0
 12 17  1  0
 13 14  1  0
 13 12  1  0
 15 14  1  0
 15 24  1  0
 15 16  1  0
 17 11  1  0
 17 16  1  0
 18 11  2  0
 19 11  1  0
 19  6  1  0
 20 19  1  0
 21 22  2  0
 22 41  1  0
 23 22  1  0
 23 26  1  0
 24 25  1  0
 24 21  1  0
 25 23  2  0
 26 27  1  0
 27 28  2  0
 29 32  1  0
 29 28  1  0
 30 29  2  0
 31 30  1  0
 31 26  2  0
 32 33  1  0
 33 34  1  0
 34 35  2  0
 36 35  1  0
 36 40  1  0
 37 36  2  0
 38 33  2  0
 38 37  1  0
 39 38  1  0
 41 42  1  0
 42 45  1  0
 42 44  1  0
 43 41  2  0
 46 21  1  0
 46 47  1  0
 48 46  1  0
 49 50  1  0
 49 52  1  0
 51 50  1  0
 53 52  1  0
 53 55  1  0
 54 53  2  0
 56 58  1  0
 56 55  1  0
 57 68  2  0
 58 63  1  0
 59 67  1  0
 59 69  1  0
 60 66  1  0
 60 62  1  0
 61 67  1  0
 62 61  1  0
 63 62  2  0
 64 65  1  0
 64 58  2  0
 65 60  2  0
 66 59  1  0
 67 57  1  0
 69 71  2  0
 70 69  1  0
 72 70  1  0
 73 82  2  0
 73 78  1  0
 74 70  1  0
 74 78  1  0
 75 74  1  0
 76 77  1  0
 76 75  1  0
 77 73  1  0
 78 79  2  0
 79 80  1  0
 81 80  2  0
 82 81  1  0
 83 57  1  0
 83 84  1  0
 83 93  1  0
 84 87  1  0
 85 89  1  0
 85 84  1  0
 86 85  2  0
 89 88  1  0
 91 89  1  0
 91 92  1  0
 91 90  1  0
 93 96  1  1
 93 94  1  0
 95 93  1  0
M  ISO  4  11 100  19 100  55 101  56 101
M  END
>  <TORSDO>  (85) 
F 22

>  <SCORE>  (85) 
-11.478

>  <name>  (85) 
84

>  <ligand_id>  (85) 
84

>  <original_smiles>  (85) 
[H]OC([H])(C(=O)c1c([H])c(N([H])C(=O)N2C([H])([H])C([H])([H])C([H])([H])C([H])(n3nc(-c4c([H])c([H])c(Oc5c([H])c([H])c(F)c([H])c5F)c([H])c4[H])c(C(=O)N([H])[H])c3N([H])[H])C2([H])[H])c([H])c(F)c1F)C([H])([H])C(=O)C([H])([H])Oc1c([H])c([H])c2c(c1[H])C([H])([H])N(C(=O)C([H])(N([H])C(=O)C([H])(N([H])C([H])([H])[H])C([H])([H])[H])C(C([H])([H])[H])(C([H])([H])[H])C([H])([H])[H])C([H])(C(=O)N([H])C1([H])c3c([H])c([H])c([H])c([H])c3C([H])([H])C([H])([H])C1([H])[H])C2([H])[H]

>  <smiles>  (85) 
[H]OC([H])(C(=O)c1c([H])c(N([H])C(=O)N2C([H])([H])C([H])([H])C([H])([H])C([H])(n3nc(-c4c([H])c([H])c(Oc5c([H])c([H])c(F)c([H])c5F)c([H])c4[H])c(C(=O)N([H])[H])c3N([H])[H])C2([H])[H])c([H])c(F)c1F)C([H])([H])C(=O)C([H])([H])Oc1c([H])c([H])c2c(c1[H])C([H])([H])N(C(=O)C([H])(N([H])C(=O)C([H])(N([H])C([H])([H])[H])C([H])([H])[H])C(C([H])([H])[H])(C([H])([H])[H])C([H])([H])[H])C([H])(C(=O)N([H])C1([H])c3c([H])c([H])c([H])c([H])c3C([H])([H])C([H])([H])C1([H])[H])C2([H])[H]

$$$$
85:0:0
     RDKit          3D

 95103  0  0  1  0  0  0  0  0999 V2000
  -29.8220  -21.5640   20.9110 N   0  0  0  0  0  0  0  0  0  0  0  0
  -30.5390  -21.9440   21.5230 H   0  0  0  0  0  0  0  0  0  0  0  0
  -30.9190  -17.9390   21.2400 C   0  0  0  0  0  3  0  0  0  0  0  0
  -28.7460  -17.9580   20.2010 C   0  0  0  0  0  3  0  0  0  0  0  0
  -29.8360  -17.1970   20.6990 C   0  0  0  0  0  0  0  0  0  0  0  0
  -29.7920  -20.1280   20.8000 C   0  0  0  0  0  0  0  0  0  0  0  0
  -30.8950  -19.3760   21.3100 C   0  0  0  0  0  0  0  0  0  0  0  0
  -28.7250  -19.3820   20.2290 C   0  0  0  0  0  0  0  0  0  0  0  0
  -27.6430  -20.0230   19.7190 F   0  0  0  0  0  0  0  0  0  0  0  0
  -30.5730  -14.7240   20.4290 C   0  0  0  0  0  0  0  0  0  0  0  0
  -30.3960  -12.4880   19.3530 C   0  0  0  0  0  2  0  0  0  0  0  0
  -29.4460  -12.6240   18.1440 C   0  0  0  0  0  2  0  0  0  0  0  0
  -27.9720  -12.4540   18.5740 C   0  0  0  0  0  2  0  0  0  0  0  0
  -27.6120  -13.3020   19.8230 C   0  0  0  0  0  3  0  0  0  0  0  0
  -28.6760  -13.1330   20.9310 C   0  0  0  0  0  2  0  0  0  0  0  0
  -29.9820  -13.4890   20.3540 N   0  0  0  0  0  0  0  0  0  0  0  0
  -31.7250  -14.9200   20.0340 O   0  0  0  0  0  0  0  0  0  0  0  0
  -29.7270  -15.7430   20.7790 N   0  0  0  0  0  0  0  0  0  0  0  0
  -28.8020  -15.4020   20.9890 H   0  0  0  0  0  0  0  0  0  0  0  0
  -25.2200  -13.8930   20.5570 C   0  0  0  0  0  0  0  0  0  0  0  0
  -24.1550  -13.1160   20.9240 C   0  0  0  0  0  0  0  0  0  0  0  0
  -24.6160  -11.7650   20.8730 C   0  0  0  0  0  0  0  0  0  0  0  0
  -26.2640  -13.0150   20.3060 N   0  0  0  0  0  0  0  0  0  0  0  0
  -25.9050  -11.7310   20.5570 N   0  0  0  0  0  0  0  0  0  0  0  0
  -23.8900  -10.5020   21.0540 C   0  0  0  0  0  0  0  0  0  0  0  0
  -24.3130   -9.5330   21.9910 C   0  0  0  0  0  3  0  0  0  0  0  0
  -23.5880   -8.3340   22.1590 C   0  0  0  0  0  3  0  0  0  0  0  0
  -22.4250   -8.0940   21.3900 C   0  0  0  0  0  0  0  0  0  0  0  0
  -22.0200   -9.0510   20.4420 C   0  0  0  0  0  3  0  0  0  0  0  0
  -22.7460  -10.2410   20.2720 C   0  0  0  0  0  3  0  0  0  0  0  0
  -21.6730   -6.9480   21.4660 O   0  0  0  0  0  0  0  0  0  0  0  0
  -21.5890   -6.2170   22.6250 C   0  0  0  0  0  0  0  0  0  0  0  0
  -21.0900   -6.7740   23.8220 C   0  0  0  0  0  3  0  0  0  0  0  0
  -20.9570   -5.9690   24.9720 C   0  0  0  0  0  3  0  0  0  0  0  0
  -21.3110   -4.6070   24.9240 C   0  0  0  0  0  0  0  0  0  0  0  0
  -21.8020   -4.0490   23.7310 C   0  0  0  0  0  3  0  0  0  0  0  0
  -21.9370   -4.8510   22.5840 C   0  0  0  0  0  0  0  0  0  0  0  0
  -22.3920   -4.3040   21.4310 F   0  0  0  0  0  0  0  0  0  0  0  0
  -21.1760   -3.8320   26.0250 F   0  0  0  0  0  0  0  0  0  0  0  0
  -22.7590  -13.5910   21.2070 C   0  0  0  0  0  0  0  0  0  0  0  0
  -22.0310  -12.8850   22.0660 N   0  0  0  0  0  0  0  0  0  0  0  0
  -22.3200  -14.6220   20.7010 O   0  0  0  0  0  0  0  0  0  0  0  0
  -22.3930  -12.0500   22.5010 H   0  0  0  0  0  0  0  0  0  0  0  0
  -21.0950  -13.1900   22.2950 H   0  0  0  0  0  0  0  0  0  0  0  0
  -25.3820  -15.2650   20.3930 N   0  0  0  0  0  0  0  0  0  0  0  0
  -24.6100  -15.9140   20.4990 H   0  0  0  0  0  0  0  0  0  0  0  0
  -26.2170  -15.7010   20.0250 H   0  0  0  0  0  0  0  0  0  0  0  0
  -33.1030  -19.4560   22.3040 C   0  0  0  0  0  1  0  0  0  0  0  0
  -31.9120  -20.1160   21.8870 O   0  0  0  0  0  0  0  0  0  0  0  0
  -28.8490  -22.5570   20.3640 C   0  0  0  0  0  2  0  0  0  0  0  0
  -29.1740  -24.0900   20.6680 C   0  0  0  0  0  3  0  0  0  0  0  0
  -29.3380  -24.1630   22.0780 O   0  0  0  0  0  0  0  0  0  0  0  0
  -28.5810  -23.7440   22.4730 H   0  0  0  0  0  0  0  0  0  0  0  0
  -28.0520  -25.1280   20.2200 C   0  0  0  0  0  2  0  0  0  0  0  0
  -28.2780  -26.5890   20.2880 O   0  0  0  0  0  0  0  0  0  0  0  0
  -24.5150  -31.9500   23.2490 C   0  0  0  0  0  0  0  0  0  0  0  0
  -27.1490  -27.4190   20.2080 C   0  0  0  0  0  0  0  0  0  0  0  0
  -23.3110  -30.5440   21.6100 C   0  0  0  0  0  3  0  0  0  0  0  0
  -24.7680  -29.0030   20.1820 C   0  0  0  0  0  0  0  0  0  0  0  0
  -25.8450  -30.8830   21.4190 C   0  0  0  0  0  2  0  0  0  0  0  0
  -25.9320  -29.5060   20.7750 C   0  0  0  0  0  0  0  0  0  0  0  0
  -27.1240  -28.7270   20.7760 C   0  0  0  0  0  3  0  0  0  0  0  0
  -25.9630  -26.9670   19.5810 C   0  0  0  0  0  3  0  0  0  0  0  0
  -24.7870  -27.7390   19.5710 C   0  0  0  0  0  3  0  0  0  0  0  0
  -23.5220  -29.8600   20.2330 C   0  0  0  0  0  2  0  0  0  0  0  0
  -24.5760  -31.1440   22.1490 N   0  0  0  0  0  0  0  0  0  0  0  0
  -23.4330  -32.2240   23.7870 O   0  0  0  0  0  0  0  0  0  0  0  0
  -22.6530  -29.5310   22.5770 C   0  0  0  0  0  0  0  0  0  0  0  0
  -21.3260  -29.3550   22.4540 N   0  0  0  0  0  0  0  0  0  0  0  0
  -23.3350  -28.9070   23.3940 O   0  0  0  0  0  0  0  0  0  0  0  0
  -20.8380  -29.9080   21.7630 H   0  0  0  0  0  0  0  0  0  0  0  0
  -17.9450  -28.1660   22.9640 C   0  0  0  0  0  0  0  0  0  0  0  0
  -20.5050  -28.4200   23.2250 C   0  0  0  0  0  3  0  0  0  0  0  0
  -20.6010  -26.9890   22.6470 C   0  0  0  0  0  2  0  0  0  0  0  0
  -19.4950  -26.6700   21.6360 C   0  0  0  0  0  2  0  0  0  0  0  0
  -18.1160  -26.8180   22.2840 C   0  0  0  0  0  2  0  0  0  0  0  0
  -19.0680  -28.9250   23.3900 C   0  0  0  0  0  0  0  0  0  0  0  0
  -18.8540  -30.1880   23.9830 C   0  0  0  0  0  3  0  0  0  0  0  0
  -17.5520  -30.6940   24.1550 C   0  0  0  0  0  3  0  0  0  0  0  0
  -16.4440  -29.9310   23.7490 C   0  0  0  0  0  3  0  0  0  0  0  0
  -16.6420  -28.6700   23.1590 C   0  0  0  0  0  3  0  0  0  0  0  0
  -25.7990  -32.5840   23.8690 C   0  0  0  0  0  3  0  0  0  0  0  0
  -25.4950  -33.9870   24.1840 N   0  0  0  0  0  0  0  0  0  0  0  0
  -25.8260  -35.0310   23.4140 C   0  0  0  0  0  0  0  0  0  0  0  0
  -26.4910  -34.9150   22.3810 O   0  0  0  0  0  0  0  0  0  0  0  0
  -24.9070  -34.1500   24.9880 H   0  0  0  0  0  0  0  0  0  0  0  0
  -24.1030  -36.8240   23.0450 C   0  0  0  0  0  1  0  0  0  0  0  0
  -25.3440  -36.4260   23.8580 C   0  0  0  0  0  3  0  0  0  0  0  0
  -27.4810  -37.3160   24.6750 C   0  0  0  0  0  1  0  0  0  0  0  0
  -26.3780  -37.4750   23.7300 N   0  0  0  0  0  0  0  0  0  0  0  0
  -25.9730  -38.3980   23.8620 H   0  0  0  0  0  0  0  0  0  0  0  0
  -26.3080  -31.8240   25.1570 C   0  0  1  0  0  0  0  0  0  0  0  0
  -25.2080  -31.5990   26.2210 C   0  0  0  0  0  1  0  0  0  0  0  0
  -26.8890  -30.4410   24.7840 C   0  0  0  0  0  1  0  0  0  0  0  0
  -27.4570  -32.6210   25.8150 C   0  0  0  0  0  1  0  0  0  0  0  0
  1  2  1  0
  3  7  1  0
  4  8  2  0
  4  5  1  0
  5 18  1  0
  5  3  2  0
  6  1  1  0
  6  7  2  0
  7 49  1  0
  8  6  1  0
  9  8  1  0
 10 18  1  0
 11 16  1  0
 12 13  1  0
 12 11  1  0
 14 13  1  0
 14 23  1  0
 14 15  1  0
 16 10  1  0
 16 15  1  0
 17 10  2  0
 18 19  1  0
 20 21  2  0
 21 40  1  0
 22 21  1  0
 22 25  1  0
 23 20  1  0
 23 24  1  0
 24 22  2  0
 25 26  1  0
 26 27  2  0
 28 31  1  0
 28 27  1  0
 29 28  2  0
 30 29  1  0
 30 25  2  0
 31 32  1  0
 32 33  1  0
 33 34  2  0
 35 34  1  0
 35 39  1  0
 36 35  2  0
 37 32  2  0
 37 36  1  0
 38 37  1  0
 40 41  1  0
 41 44  1  0
 41 43  1  0
 42 40  2  0
 45 46  1  0
 45 20  1  0
 47 45  1  0
 49 48  1  0
 50 51  1  0
 50  1  1  0
 51 54  1  0
 51 52  1  0
 52 53  1  0
 54 55  1  0
 56 67  2  0
 57 55  1  0
 57 62  1  0
 58 66  1  0
 58 68  1  0
 59 65  1  0
 59 61  1  0
 60 66  1  0
 61 62  2  0
 61 60  1  0
 63 57  2  0
 64 63  1  0
 64 59  2  0
 65 58  1  0
 66 56  1  0
 68 70  2  0
 69 68  1  0
 71 69  1  0
 72 81  2  0
 72 77  1  0
 73 69  1  0
 73 77  1  0
 74 73  1  0
 75 76  1  0
 75 74  1  0
 76 72  1  0
 77 78  2  0
 78 79  1  0
 80 79  2  0
 81 80  1  0
 82 56  1  0
 82 83  1  0
 82 92  1  0
 83 86  1  0
 84 88  1  0
 84 83  1  0
 85 84  2  0
 88 87  1  0
 90 88  1  0
 90 91  1  0
 90 89  1  0
 92 95  1  1
 92 93  1  0
 94 92  1  0
M  ISO  4  10 100  18 100  54 101  55 101
M  END
>  <TORSDO>  (86) 
F 22

>  <SCORE>  (86) 
-13.619

>  <name>  (86) 
85

>  <ligand_id>  (86) 
85

>  <original_smiles>  (86) 
[H]OC([H])(C([H])([H])Oc1c([H])c([H])c2c(c1[H])C([H])([H])N(C(=O)C([H])(N([H])C(=O)C([H])(N([H])C([H])([H])[H])C([H])([H])[H])C(C([H])([H])[H])(C([H])([H])[H])C([H])([H])[H])C([H])(C(=O)N([H])C1([H])c3c([H])c([H])c([H])c([H])c3C([H])([H])C([H])([H])C1([H])[H])C2([H])[H])C([H])([H])N([H])c1c(F)c([H])c(N([H])C(=O)N2C([H])([H])C([H])([H])C([H])([H])C([H])(n3nc(-c4c([H])c([H])c(Oc5c([H])c([H])c(F)c([H])c5F)c([H])c4[H])c(C(=O)N([H])[H])c3N([H])[H])C2([H])[H])c([H])c1OC([H])([H])[H]

>  <smiles>  (86) 
[H]OC([H])(C([H])([H])Oc1c([H])c([H])c2c(c1[H])C([H])([H])N(C(=O)C([H])(N([H])C(=O)C([H])(N([H])C([H])([H])[H])C([H])([H])[H])C(C([H])([H])[H])(C([H])([H])[H])C([H])([H])[H])C([H])(C(=O)N([H])C1([H])c3c([H])c([H])c([H])c([H])c3C([H])([H])C([H])([H])C1([H])[H])C2([H])[H])C([H])([H])N([H])c1c(F)c([H])c(N([H])C(=O)N2C([H])([H])C([H])([H])C([H])([H])C([H])(n3nc(-c4c([H])c([H])c(Oc5c([H])c([H])c(F)c([H])c5F)c([H])c4[H])c(C(=O)N([H])[H])c3N([H])[H])C2([H])[H])c([H])c1OC([H])([H])[H]

$$$$
86:0:0
     RDKit          3D

100108  0  0  1  0  0  0  0  0999 V2000
  -29.5990  -20.7910   20.4650 C   0  0  0  0  0  0  0  0  0  0  0  0
  -28.8660  -21.7580   19.8650 N   0  0  0  0  0  0  0  0  0  0  0  0
  -30.4850  -21.1370   21.3990 N   0  0  0  0  0  4  0  0  0  0  0  0
  -27.9240  -21.4820   19.6150 H   0  0  0  0  0  0  0  0  0  0  0  0
  -31.0860  -20.4350   21.7990 H   0  0  0  0  0  0  0  0  0  0  0  0
  -30.5070  -22.0690   21.7780 H   0  0  0  0  0  0  0  0  0  0  0  0
  -29.7550  -18.2210   20.7650 C   0  0  0  0  0  3  0  0  0  0  0  0
  -29.4260  -19.2520   18.5720 C   0  0  0  0  0  3  0  0  0  0  0  0
  -29.7210  -16.8490   18.7410 C   0  0  0  0  0  3  0  0  0  0  0  0
  -29.5590  -19.3920   19.9690 C   0  0  0  0  0  0  0  0  0  0  0  0
  -29.8550  -16.9320   20.1480 C   0  0  0  0  0  0  0  0  0  0  0  0
  -29.5090  -17.9950   17.9600 C   0  0  0  0  0  0  0  0  0  0  0  0
  -29.3920  -17.8960   16.6160 F   0  0  0  0  0  0  0  0  0  0  0  0
  -30.7620  -14.6610   20.4660 C   0  0  0  0  0  0  0  0  0  0  0  0
  -30.4940  -12.5070   19.3050 C   0  0  0  0  0  2  0  0  0  0  0  0
  -29.5520  -12.7200   18.0990 C   0  0  0  0  0  2  0  0  0  0  0  0
  -28.0790  -12.5710   18.5260 C   0  0  0  0  0  2  0  0  0  0  0  0
  -27.7350  -13.3840   19.8030 C   0  0  0  0  0  3  0  0  0  0  0  0
  -28.7900  -13.1530   20.9100 C   0  0  0  0  0  2  0  0  0  0  0  0
  -30.1130  -13.4690   20.3530 N   0  0  0  0  0  0  0  0  0  0  0  0
  -31.8990  -14.8400   20.0150 O   0  0  0  0  0  0  0  0  0  0  0  0
  -30.0250  -15.7120   20.9000 N   0  0  0  0  0  0  0  0  0  0  0  0
  -29.2510  -15.4700   21.5040 H   0  0  0  0  0  0  0  0  0  0  0  0
  -25.3340  -13.9750   20.5150 C   0  0  0  0  0  0  0  0  0  0  0  0
  -24.2670  -13.1950   20.8740 C   0  0  0  0  0  0  0  0  0  0  0  0
  -24.7330  -11.8450   20.8280 C   0  0  0  0  0  0  0  0  0  0  0  0
  -26.3810  -13.1000   20.2730 N   0  0  0  0  0  0  0  0  0  0  0  0
  -26.0240  -11.8140   20.5220 N   0  0  0  0  0  0  0  0  0  0  0  0
  -24.0120  -10.5780   21.0070 C   0  0  0  0  0  0  0  0  0  0  0  0
  -24.4100   -9.6300   21.9750 C   0  0  0  0  0  3  0  0  0  0  0  0
  -23.6900   -8.4280   22.1380 C   0  0  0  0  0  3  0  0  0  0  0  0
  -22.5590   -8.1630   21.3290 C   0  0  0  0  0  0  0  0  0  0  0  0
  -22.1810   -9.1010   20.3510 C   0  0  0  0  0  3  0  0  0  0  0  0
  -22.9020  -10.2940   20.1870 C   0  0  0  0  0  3  0  0  0  0  0  0
  -21.8130   -7.0110   21.4000 O   0  0  0  0  0  0  0  0  0  0  0  0
  -21.6710   -6.3170   22.5740 C   0  0  0  0  0  0  0  0  0  0  0  0
  -21.0920   -6.9030   23.7220 C   0  0  0  0  0  3  0  0  0  0  0  0
  -20.9010   -6.1320   24.8850 C   0  0  0  0  0  3  0  0  0  0  0  0
  -21.2790   -4.7760   24.9000 C   0  0  0  0  0  0  0  0  0  0  0  0
  -21.8510   -4.1900   23.7590 C   0  0  0  0  0  3  0  0  0  0  0  0
  -22.0440   -4.9580   22.5980 C   0  0  0  0  0  0  0  0  0  0  0  0
  -22.5770   -4.3850   21.4920 F   0  0  0  0  0  0  0  0  0  0  0  0
  -21.0870   -4.0320   26.0150 F   0  0  0  0  0  0  0  0  0  0  0  0
  -22.8690  -13.6670   21.1500 C   0  0  0  0  0  0  0  0  0  0  0  0
  -22.1390  -12.9600   22.0080 N   0  0  0  0  0  0  0  0  0  0  0  0
  -22.4310  -14.6970   20.6410 O   0  0  0  0  0  0  0  0  0  0  0  0
  -22.5030  -12.1270   22.4460 H   0  0  0  0  0  0  0  0  0  0  0  0
  -21.2010  -13.2620   22.2310 H   0  0  0  0  0  0  0  0  0  0  0  0
  -25.4940  -15.3480   20.3550 N   0  0  0  0  0  0  0  0  0  0  0  0
  -24.7220  -15.9960   20.4740 H   0  0  0  0  0  0  0  0  0  0  0  0
  -26.3370  -15.7940   20.0220 H   0  0  0  0  0  0  0  0  0  0  0  0
  -29.3200  -23.1070   19.3780 C   0  0  0  0  0  3  0  0  0  0  0  0
  -28.7090  -24.3470   20.1170 C   0  0  0  0  0  0  0  0  0  0  0  0
  -28.0650  -24.2350   21.1620 O   0  0  0  0  0  0  0  0  0  0  0  0
  -28.9530  -25.7480   19.4760 C   0  0  0  0  0  2  0  0  0  0  0  0
  -28.6910  -26.8710   20.3440 O   0  0  0  0  0  0  0  0  0  0  0  0
  -24.6690  -31.9670   23.2650 C   0  0  0  0  0  0  0  0  0  0  0  0
  -27.4940  -27.5610   20.2620 C   0  0  0  0  0  0  0  0  0  0  0  0
  -23.5390  -30.5240   21.6030 C   0  0  0  0  0  3  0  0  0  0  0  0
  -25.0620  -29.0200   20.2140 C   0  0  0  0  0  0  0  0  0  0  0  0
  -26.0600  -30.9450   21.4620 C   0  0  0  0  0  2  0  0  0  0  0  0
  -26.1930  -29.5710   20.8280 C   0  0  0  0  0  0  0  0  0  0  0  0
  -27.4060  -28.8470   20.8520 C   0  0  0  0  0  3  0  0  0  0  0  0
  -26.3380  -27.0250   19.6470 C   0  0  0  0  0  3  0  0  0  0  0  0
  -25.1310  -27.7490   19.6210 C   0  0  0  0  0  3  0  0  0  0  0  0
  -23.7970  -29.8480   20.2290 C   0  0  0  0  0  2  0  0  0  0  0  0
  -24.7720  -31.1620   22.1670 N   0  0  0  0  0  0  0  0  0  0  0  0
  -23.5690  -32.2130   23.7760 O   0  0  0  0  0  0  0  0  0  0  0  0
  -22.8930  -29.4900   22.5530 C   0  0  0  0  0  0  0  0  0  0  0  0
  -21.5750  -29.2830   22.4090 N   0  0  0  0  0  0  0  0  0  0  0  0
  -23.5770  -28.8770   23.3780 O   0  0  0  0  0  0  0  0  0  0  0  0
  -21.0840  -29.8340   21.7200 H   0  0  0  0  0  0  0  0  0  0  0  0
  -18.2060  -28.0710   22.9030 C   0  0  0  0  0  0  0  0  0  0  0  0
  -20.7650  -28.3260   23.1640 C   0  0  0  0  0  3  0  0  0  0  0  0
  -20.8640  -26.9070   22.5560 C   0  0  0  0  0  2  0  0  0  0  0  0
  -19.7560  -26.6050   21.5430 C   0  0  0  0  0  2  0  0  0  0  0  0
  -18.3800  -26.7350   22.2010 C   0  0  0  0  0  2  0  0  0  0  0  0
  -19.3270  -28.8250   23.3430 C   0  0  0  0  0  0  0  0  0  0  0  0
  -19.1090  -30.0760   23.9590 C   0  0  0  0  0  3  0  0  0  0  0  0
  -17.8040  -30.5720   24.1430 C   0  0  0  0  0  3  0  0  0  0  0  0
  -16.6980  -29.8130   23.7200 C   0  0  0  0  0  3  0  0  0  0  0  0
  -16.9000  -28.5640   23.1070 C   0  0  0  0  0  3  0  0  0  0  0  0
  -25.9230  -32.6320   23.9120 C   0  0  0  0  0  3  0  0  0  0  0  0
  -25.5740  -34.0260   24.2190 N   0  0  0  0  0  0  0  0  0  0  0  0
  -25.9130  -35.0790   23.4630 C   0  0  0  0  0  0  0  0  0  0  0  0
  -26.6220  -34.9810   22.4580 O   0  0  0  0  0  0  0  0  0  0  0  0
  -24.9470  -34.1750   24.9970 H   0  0  0  0  0  0  0  0  0  0  0  0
  -24.1700  -36.8370   23.0220 C   0  0  0  0  0  1  0  0  0  0  0  0
  -25.3800  -36.4590   23.8900 C   0  0  0  0  0  3  0  0  0  0  0  0
  -27.4580  -37.3910   24.8140 C   0  0  0  0  0  1  0  0  0  0  0  0
  -26.3990  -37.5300   23.8180 N   0  0  0  0  0  0  0  0  0  0  0  0
  -25.9690  -38.4440   23.9390 H   0  0  0  0  0  0  0  0  0  0  0  0
  -26.4310  -31.8850   25.2070 C   0  0  1  0  0  0  0  0  0  0  0  0
  -25.3120  -31.5920   26.2340 C   0  0  0  0  0  1  0  0  0  0  0  0
  -27.0940  -30.5380   24.8340 C   0  0  0  0  0  1  0  0  0  0  0  0
  -27.5130  -32.7350   25.9130 C   0  0  0  0  0  1  0  0  0  0  0  0
  -29.0420  -23.2010   17.8440 C   0  0  0  0  0  2  0  0  0  0  0  0
  -30.1690  -23.8230   17.0060 C   0  0  0  0  0  0  0  0  0  0  0  0
  -29.8420  -24.2280   15.5760 C   0  0  0  0  0  1  0  0  0  0  0  0
  -31.2980  -24.0040   17.4650 O   0  0  0  0  0  0  0  0  0  0  0  0
  1  3  2  0
  2  1  1  0
  3  6  1  0
  3  5  1  0
  4  2  1  0
  8 10  1  0
  9 11  2  0
 10  1  1  0
 10  7  2  0
 11  7  1  0
 11 22  1  0
 12  8  2  0
 12  9  1  0
 13 12  1  0
 14 22  1  0
 15 20  1  0
 16 17  1  0
 16 15  1  0
 18 17  1  0
 18 27  1  0
 18 19  1  0
 20 14  1  0
 20 19  1  0
 21 14  2  0
 22 23  1  0
 24 25  2  0
 25 44  1  0
 26 25  1  0
 26 29  1  0
 27 24  1  0
 27 28  1  0
 28 26  2  0
 29 30  1  0
 30 31  2  0
 32 35  1  0
 32 31  1  0
 33 32  2  0
 34 33  1  0
 34 29  2  0
 35 36  1  0
 36 41  2  0
 36 37  1  0
 37 38  2  0
 38 39  1  0
 39 43  1  0
 40 39  2  0
 41 40  1  0
 42 41  1  0
 44 45  1  0
 45 48  1  0
 45 47  1  0
 46 44  2  0
 49 50  1  0
 49 24  1  0
 51 49  1  0
 52 97  1  0
 52  2  1  0
 52 53  1  0
 53 54  2  0
 55 53  1  0
 55 56  1  0
 57 68  2  0
 58 56  1  0
 58 63  1  0
 59 67  1  0
 59 69  1  0
 60 66  1  0
 60 62  1  0
 61 67  1  0
 62 63  2  0
 62 61  1  0
 64 58  2  0
 65 64  1  0
 65 60  2  0
 66 59  1  0
 67 57  1  0
 69 71  2  0
 70 69  1  0
 72 70  1  0
 73 82  2  0
 73 78  1  0
 74 70  1  0
 74 78  1  0
 75 74  1  0
 76 77  1  0
 76 75  1  0
 77 73  1  0
 78 79  2  0
 79 80  1  0
 81 80  2  0
 82 81  1  0
 83 57  1  0
 83 84  1  0
 83 93  1  0
 84 87  1  0
 85 89  1  0
 85 84  1  0
 86 85  2  0
 89 88  1  0
 91 89  1  0
 91 92  1  0
 91 90  1  0
 93 96  1  1
 93 94  1  0
 95 93  1  0
 98100  2  0
 98 97  1  0
 99 98  1  0
M  ISO  4  14 100  22 100  55 101  56 101
M  END
>  <TORSDO>  (87) 
F 22

>  <SCORE>  (87) 
-13.082

>  <name>  (87) 
86

>  <ligand_id>  (87) 
86

>  <original_smiles>  (87) 
[H]c1c([H])c([H])c2c(c1[H])C([H])([H])C([H])([H])C([H])([H])C2([H])N([H])C(=O)C1([H])N(C(=O)C([H])(N([H])C(=O)C([H])(N([H])C([H])([H])[H])C([H])([H])[H])C(C([H])([H])[H])(C([H])([H])[H])C([H])([H])[H])C([H])([H])c2c([H])c(OC([H])([H])C(=O)C([H])(N([H])C(c3c([H])c(F)c([H])c(N([H])C(=O)N4C([H])([H])C([H])([H])C([H])([H])C([H])(n5nc(-c6c([H])c([H])c(Oc7c([H])c([H])c(F)c([H])c7F)c([H])c6[H])c(C(=O)N([H])[H])c5N([H])[H])C4([H])[H])c3[H])=[N+]([H])[H])C([H])([H])C(=O)C([H])([H])[H])c([H])c([H])c2C1([H])[H]

>  <smiles>  (87) 
[H]c1c([H])c([H])c2c(c1[H])C([H])([H])C([H])([H])C([H])([H])C2([H])N([H])C(=O)C1([H])N(C(=O)C([H])(N([H])C(=O)C([H])(N([H])C([H])([H])[H])C([H])([H])[H])C(C([H])([H])[H])(C([H])([H])[H])C([H])([H])[H])C([H])([H])c2c([H])c(OC([H])([H])C(=O)C([H])(N([H])C(c3c([H])c(F)c([H])c(N([H])C(=O)N4C([H])([H])C([H])([H])C([H])([H])C([H])(n5nc(-c6c([H])c([H])c(Oc7c([H])c([H])c(F)c([H])c7F)c([H])c6[H])c(C(=O)N([H])[H])c5N([H])[H])C4([H])[H])c3[H])=[N+]([H])[H])C([H])([H])C(=O)C([H])([H])[H])c([H])c([H])c2C1([H])[H]

$$$$
87:0:0
     RDKit          3D

 98106  0  0  1  0  0  0  0  0999 V2000
  -30.8270  -18.9420   18.1520 C   0  0  0  0  0  2  0  0  0  0  0  0
  -30.9270  -19.3840   20.9070 C   0  0  0  0  0  0  0  0  0  0  0  0
  -30.6530  -20.5050   20.0390 C   0  0  0  0  0  0  0  0  0  0  0  0
  -30.5900  -20.2390   18.6400 C   0  0  0  0  0  0  0  0  0  0  0  0
  -31.1820  -18.0860   20.3360 C   0  0  0  0  0  0  0  0  0  0  0  0
  -31.1210  -17.9360   18.9970 N   0  0  0  0  0  0  0  0  0  0  0  0
  -30.3100  -21.2130   17.7380 F   0  0  0  0  0  0  0  0  0  0  0  0
  -31.3280  -17.0180   18.5970 H   0  0  0  0  0  0  0  0  0  0  0  0
  -30.9600  -19.5150   22.4350 C   0  0  1  0  0  0  0  0  0  0  0  0
  -30.5360  -20.6850   22.9120 F   0  0  0  0  0  0  0  0  0  0  0  0
  -30.1750  -18.5760   22.9680 F   0  0  0  0  0  0  0  0  0  0  0  0
  -32.2070  -19.3350   22.8740 F   0  0  0  0  0  0  0  0  0  0  0  0
  -30.4700  -21.8360   20.5310 N   0  0  0  0  0  0  0  0  0  0  0  0
  -30.5120  -22.0060   21.5310 H   0  0  0  0  0  0  0  0  0  0  0  0
  -30.1910  -23.0290   19.7030 C   0  0  0  0  0  2  0  0  0  0  0  0
  -29.8310  -24.3220   20.4840 C   0  0  0  0  0  0  0  0  0  0  0  0
  -29.7660  -24.3120   21.7180 O   0  0  0  0  0  0  0  0  0  0  0  0
  -29.5740  -25.6100   19.6550 C   0  0  0  0  0  2  0  0  0  0  0  0
  -29.2310  -26.7660   20.4610 O   0  0  0  0  0  0  0  0  0  0  0  0
  -24.8060  -31.5930   23.2910 C   0  0  0  0  0  0  0  0  0  0  0  0
  -27.9930  -27.3860   20.3550 C   0  0  0  0  0  0  0  0  0  0  0  0
  -23.8290  -30.1340   21.5480 C   0  0  0  0  0  3  0  0  0  0  0  0
  -25.4920  -28.7350   20.2120 C   0  0  0  0  0  0  0  0  0  0  0  0
  -26.3310  -30.6750   21.5440 C   0  0  0  0  0  2  0  0  0  0  0  0
  -26.5630  -29.3220   20.8940 C   0  0  0  0  0  0  0  0  0  0  0  0
  -27.8090  -28.6520   20.9680 C   0  0  0  0  0  3  0  0  0  0  0  0
  -26.8900  -26.8120   19.6770 C   0  0  0  0  0  3  0  0  0  0  0  0
  -25.6530  -27.4800   19.6040 C   0  0  0  0  0  3  0  0  0  0  0  0
  -24.1870  -29.5000   20.1770 C   0  0  0  0  0  2  0  0  0  0  0  0
  -25.0020  -30.8170   22.1870 N   0  0  0  0  0  0  0  0  0  0  0  0
  -23.6710  -31.7740   23.7550 O   0  0  0  0  0  0  0  0  0  0  0  0
  -23.1910  -29.0490   22.4470 C   0  0  0  0  0  0  0  0  0  0  0  0
  -21.8920  -28.7830   22.2370 N   0  0  0  0  0  0  0  0  0  0  0  0
  -23.8670  -28.4510   23.2890 O   0  0  0  0  0  0  0  0  0  0  0  0
  -21.4060  -29.3230   21.5340 H   0  0  0  0  0  0  0  0  0  0  0  0
  -18.5830  -27.3590   22.5040 C   0  0  0  0  0  0  0  0  0  0  0  0
  -21.0970  -27.7760   22.9380 C   0  0  0  0  0  3  0  0  0  0  0  0
  -21.3290  -26.3690   22.3430 C   0  0  0  0  0  2  0  0  0  0  0  0
  -20.3140  -25.9990   21.2550 C   0  0  0  0  0  2  0  0  0  0  0  0
  -18.8900  -26.0400   21.8150 C   0  0  0  0  0  2  0  0  0  0  0  0
  -19.6210  -28.1820   23.0180 C   0  0  0  0  0  0  0  0  0  0  0  0
  -19.2850  -29.4150   23.6150 C   0  0  0  0  0  3  0  0  0  0  0  0
  -17.9420  -29.8290   23.7090 C   0  0  0  0  0  3  0  0  0  0  0  0
  -16.9180  -29.0020   23.2150 C   0  0  0  0  0  3  0  0  0  0  0  0
  -17.2390  -27.7700   22.6180 C   0  0  0  0  0  3  0  0  0  0  0  0
  -25.9940  -32.3080   24.0070 C   0  0  0  0  0  3  0  0  0  0  0  0
  -25.5890  -33.6970   24.2550 N   0  0  0  0  0  0  0  0  0  0  0  0
  -25.9370  -34.7390   23.4880 C   0  0  0  0  0  0  0  0  0  0  0  0
  -26.7040  -34.6360   22.5250 O   0  0  0  0  0  0  0  0  0  0  0  0
  -24.9150  -33.8490   24.9900 H   0  0  0  0  0  0  0  0  0  0  0  0
  -24.1550  -36.4210   22.9180 C   0  0  0  0  0  1  0  0  0  0  0  0
  -25.3410  -36.1150   23.8450 C   0  0  0  0  0  3  0  0  0  0  0  0
  -27.3460  -37.1490   24.8150 C   0  0  0  0  0  1  0  0  0  0  0  0
  -26.3230  -37.2180   23.7750 N   0  0  0  0  0  0  0  0  0  0  0  0
  -25.8570  -38.1170   23.8510 H   0  0  0  0  0  0  0  0  0  0  0  0
  -26.4270  -31.6030   25.3510 C   0  0  1  0  0  0  0  0  0  0  0  0
  -25.2540  -31.3430   26.3270 C   0  0  0  0  0  1  0  0  0  0  0  0
  -27.1050  -30.2430   25.0610 C   0  0  0  0  0  1  0  0  0  0  0  0
  -27.4770  -32.4700   26.0850 C   0  0  0  0  0  1  0  0  0  0  0  0
  -31.6440  -16.8340   21.1210 C   0  0  0  0  0  2  0  0  0  0  0  0
  -31.6590  -14.4860   20.1730 C   0  0  0  0  0  0  0  0  0  0  0  0
  -31.2270  -12.3050   19.0940 C   0  0  0  0  0  2  0  0  0  0  0  0
  -30.2620  -12.4980   17.9070 C   0  0  0  0  0  2  0  0  0  0  0  0
  -28.7940  -12.4580   18.3760 C   0  0  0  0  0  2  0  0  0  0  0  0
  -28.5320  -13.3650   19.6080 C   0  0  0  0  0  3  0  0  0  0  0  0
  -29.5990  -13.1280   20.7000 C   0  0  0  0  0  2  0  0  0  0  0  0
  -30.9220  -13.3450   20.0900 N   0  0  0  0  0  0  0  0  0  0  0  0
  -32.7700  -14.6130   19.6550 O   0  0  0  0  0  0  0  0  0  0  0  0
  -31.0440  -15.5370   20.7500 N   0  0  0  0  0  0  0  0  0  0  0  0
  -30.1160  -15.3570   21.1020 H   0  0  0  0  0  0  0  0  0  0  0  0
  -26.2270  -14.1500   20.4440 C   0  0  0  0  0  0  0  0  0  0  0  0
  -25.1050  -13.4580   20.8130 C   0  0  0  0  0  0  0  0  0  0  0  0
  -25.4340  -12.0740   20.6910 C   0  0  0  0  0  0  0  0  0  0  0  0
  -27.1760  -13.1900   20.1250 N   0  0  0  0  0  0  0  0  0  0  0  0
  -26.7040  -11.9330   20.3320 N   0  0  0  0  0  0  0  0  0  0  0  0
  -24.5990  -10.8750   20.8420 C   0  0  0  0  0  0  0  0  0  0  0  0
  -24.9610   -9.8310   21.7210 C   0  0  0  0  0  3  0  0  0  0  0  0
  -24.1330   -8.6960   21.8620 C   0  0  0  0  0  3  0  0  0  0  0  0
  -22.9300   -8.5980   21.1230 C   0  0  0  0  0  0  0  0  0  0  0  0
  -22.5880   -9.6310   20.2320 C   0  0  0  0  0  3  0  0  0  0  0  0
  -23.4150  -10.7570   20.0890 C   0  0  0  0  0  3  0  0  0  0  0  0
  -22.0770   -7.5230   21.1760 O   0  0  0  0  0  0  0  0  0  0  0  0
  -21.9380   -6.7700   22.3150 C   0  0  0  0  0  0  0  0  0  0  0  0
  -21.5230   -7.3400   23.5380 C   0  0  0  0  0  3  0  0  0  0  0  0
  -21.3250   -6.5190   24.6660 C   0  0  0  0  0  3  0  0  0  0  0  0
  -21.5320   -5.1300   24.5720 C   0  0  0  0  0  0  0  0  0  0  0  0
  -21.9390   -4.5600   23.3520 C   0  0  0  0  0  3  0  0  0  0  0  0
  -22.1380   -5.3780   22.2260 C   0  0  0  0  0  0  0  0  0  0  0  0
  -22.5100   -4.8200   21.0490 F   0  0  0  0  0  0  0  0  0  0  0  0
  -21.3350   -4.3400   25.6520 F   0  0  0  0  0  0  0  0  0  0  0  0
  -23.7690  -14.0460   21.1670 C   0  0  0  0  0  0  0  0  0  0  0  0
  -23.0160  -13.3780   22.0360 N   0  0  0  0  0  0  0  0  0  0  0  0
  -23.4040  -15.1290   20.7100 O   0  0  0  0  0  0  0  0  0  0  0  0
  -23.3240  -12.5010   22.4270 H   0  0  0  0  0  0  0  0  0  0  0  0
  -22.1200  -13.7510   22.3150 H   0  0  0  0  0  0  0  0  0  0  0  0
  -26.5140  -15.5060   20.3320 N   0  0  0  0  0  0  0  0  0  0  0  0
  -25.8100  -16.2190   20.4920 H   0  0  0  0  0  0  0  0  0  0  0  0
  -27.3820  -15.8820   19.9710 H   0  0  0  0  0  0  0  0  0  0  0  0
  1  4  1  0
  1  6  1  0
  2  9  1  0
  3 13  1  0
  3  2  1  0
  4  3  2  0
  5  2  2  0
  5 60  1  0
  6  5  1  0
  7  4  1  0
  8  6  1  0
  9 12  1  1
  9 10  1  0
  9 11  1  0
 13 14  1  0
 15 16  1  0
 15 13  1  0
 16 17  2  0
 18 19  1  0
 18 16  1  0
 20 31  2  0
 21 19  1  0
 21 26  1  0
 22 30  1  0
 22 32  1  0
 23 25  1  0
 24 30  1  0
 25 26  2  0
 25 24  1  0
 27 21  2  0
 28 27  1  0
 28 23  2  0
 29 23  1  0
 29 22  1  0
 30 20  1  0
 32 34  2  0
 33 32  1  0
 35 33  1  0
 36 45  2  0
 36 41  1  0
 37 33  1  0
 37 41  1  0
 38 37  1  0
 39 40  1  0
 39 38  1  0
 40 36  1  0
 41 42  2  0
 42 43  1  0
 44 43  2  0
 45 44  1  0
 46 20  1  0
 46 47  1  0
 46 56  1  0
 47 50  1  0
 48 52  1  0
 48 47  1  0
 49 48  2  0
 52 51  1  0
 54 52  1  0
 54 55  1  0
 54 53  1  0
 56 59  1  1
 56 57  1  0
 58 56  1  0
 61 69  1  0
 62 67  1  0
 63 64  1  0
 63 62  1  0
 65 64  1  0
 65 74  1  0
 65 66  1  0
 67 61  1  0
 67 66  1  0
 68 61  2  0
 69 70  1  0
 69 60  1  0
 71 72  2  0
 72 91  1  0
 73 72  1  0
 73 76  1  0
 74 75  1  0
 74 71  1  0
 75 73  2  0
 76 77  1  0
 77 78  2  0
 79 82  1  0
 79 78  1  0
 80 79  2  0
 81 80  1  0
 81 76  2  0
 82 83  1  0
 83 84  1  0
 84 85  2  0
 86 85  1  0
 86 90  1  0
 87 86  2  0
 88 83  2  0
 88 87  1  0
 89 88  1  0
 91 92  1  0
 92 95  1  0
 92 94  1  0
 93 91  2  0
 96 71  1  0
 96 97  1  0
 98 96  1  0
M  ISO  4  18 101  19 101  61 100  69 100
M  END
>  <TORSDO>  (88) 
F 22

>  <SCORE>  (88) 
-11.438

>  <name>  (88) 
87

>  <ligand_id>  (88) 
87

>  <original_smiles>  (88) 
[H]c1c([H])c([H])c2c(c1[H])C([H])([H])C([H])([H])C([H])([H])C2([H])N([H])C(=O)C1([H])N(C(=O)C([H])(N([H])C(=O)C([H])(N([H])C([H])([H])[H])C([H])([H])[H])C(C([H])([H])[H])(C([H])([H])[H])C([H])([H])[H])C([H])([H])c2c([H])c(OC([H])([H])C(=O)C([H])([H])N([H])c3c(F)c([H])[n+]([H])c(C([H])([H])N([H])C(=O)N4C([H])([H])C([H])([H])C([H])([H])C([H])(n5nc(-c6c([H])c([H])c(Oc7c([H])c([H])c(F)c([H])c7F)c([H])c6[H])c(C(=O)N([H])[H])c5N([H])[H])C4([H])[H])c3C(F)(F)F)c([H])c([H])c2C1([H])[H]

>  <smiles>  (88) 
[H]c1c([H])c([H])c2c(c1[H])C([H])([H])C([H])([H])C([H])([H])C2([H])N([H])C(=O)C1([H])N(C(=O)C([H])(N([H])C(=O)C([H])(N([H])C([H])([H])[H])C([H])([H])[H])C(C([H])([H])[H])(C([H])([H])[H])C([H])([H])[H])C([H])([H])c2c([H])c(OC([H])([H])C(=O)C([H])([H])N([H])c3c(F)c([H])[n+]([H])c(C([H])([H])N([H])C(=O)N4C([H])([H])C([H])([H])C([H])([H])C([H])(n5nc(-c6c([H])c([H])c(Oc7c([H])c([H])c(F)c([H])c7F)c([H])c6[H])c(C(=O)N([H])[H])c5N([H])[H])C4([H])[H])c3C(F)(F)F)c([H])c([H])c2C1([H])[H]

$$$$
88:0:0
     RDKit          3D

100108  0  0  1  0  0  0  0  0999 V2000
  -29.1250  -20.6970   20.8340 C   0  0  0  0  0  0  0  0  0  0  0  0
  -29.4060  -21.9430   20.3670 N   0  0  0  0  0  0  0  0  0  0  0  0
  -28.0720  -20.5580   21.6420 N   0  0  0  0  0  4  0  0  0  0  0  0
  -30.0150  -22.0100   19.5610 H   0  0  0  0  0  0  0  0  0  0  0  0
  -27.8190  -19.6310   21.9520 H   0  0  0  0  0  0  0  0  0  0  0  0
  -27.4660  -21.3290   21.8600 H   0  0  0  0  0  0  0  0  0  0  0  0
  -31.4090  -19.7960   20.5420 C   0  0  0  0  0  3  0  0  0  0  0  0
  -31.8900  -17.4110   20.4650 C   0  0  0  0  0  3  0  0  0  0  0  0
  -30.0230  -19.5380   20.5990 C   0  0  0  0  0  0  0  0  0  0  0  0
  -30.5060  -17.1000   20.4850 C   0  0  0  0  0  0  0  0  0  0  0  0
  -32.3330  -18.7430   20.4770 C   0  0  0  0  0  0  0  0  0  0  0  0
  -29.5780  -18.1790   20.5660 C   0  0  0  0  0  0  0  0  0  0  0  0
  -33.6600  -19.0160   20.4510 F   0  0  0  0  0  0  0  0  0  0  0  0
  -28.2560  -17.8890   20.6540 F   0  0  0  0  0  0  0  0  0  0  0  0
  -30.6500  -14.6630   19.9290 C   0  0  0  0  0  0  0  0  0  0  0  0
  -30.3000  -12.4330   18.9320 C   0  0  0  0  0  2  0  0  0  0  0  0
  -29.2810  -12.5390   17.7800 C   0  0  0  0  0  2  0  0  0  0  0  0
  -27.8480  -12.3780   18.3210 C   0  0  0  0  0  2  0  0  0  0  0  0
  -27.5660  -13.2790   19.5530 C   0  0  0  0  0  3  0  0  0  0  0  0
  -28.7040  -13.1860   20.5980 C   0  0  0  0  0  2  0  0  0  0  0  0
  -29.9710  -13.4810   19.9140 N   0  0  0  0  0  0  0  0  0  0  0  0
  -31.7290  -14.7900   19.3440 O   0  0  0  0  0  0  0  0  0  0  0  0
  -30.0290  -15.7350   20.4740 N   0  0  0  0  0  0  0  0  0  0  0  0
  -29.0880  -15.5880   20.8010 H   0  0  0  0  0  0  0  0  0  0  0  0
  -25.2490  -13.8570   20.5070 C   0  0  0  0  0  0  0  0  0  0  0  0
  -24.2100  -13.0720   20.9290 C   0  0  0  0  0  0  0  0  0  0  0  0
  -24.6540  -11.7220   20.7900 C   0  0  0  0  0  0  0  0  0  0  0  0
  -26.2610  -12.9850   20.1400 N   0  0  0  0  0  0  0  0  0  0  0  0
  -25.9110  -11.6910   20.3670 N   0  0  0  0  0  0  0  0  0  0  0  0
  -23.9340  -10.4560   20.9790 C   0  0  0  0  0  0  0  0  0  0  0  0
  -24.3910   -9.4750   21.8870 C   0  0  0  0  0  3  0  0  0  0  0  0
  -23.6720   -8.2730   22.0660 C   0  0  0  0  0  3  0  0  0  0  0  0
  -22.4790   -8.0440   21.3380 C   0  0  0  0  0  0  0  0  0  0  0  0
  -22.0400   -9.0150   20.4210 C   0  0  0  0  0  3  0  0  0  0  0  0
  -22.7610  -10.2080   20.2400 C   0  0  0  0  0  3  0  0  0  0  0  0
  -21.7290   -6.8960   21.4280 O   0  0  0  0  0  0  0  0  0  0  0  0
  -21.6530   -6.1760   22.5930 C   0  0  0  0  0  0  0  0  0  0  0  0
  -21.1540   -6.7400   23.7870 C   0  0  0  0  0  3  0  0  0  0  0  0
  -21.0280   -5.9450   24.9440 C   0  0  0  0  0  3  0  0  0  0  0  0
  -21.3890   -4.5850   24.9060 C   0  0  0  0  0  0  0  0  0  0  0  0
  -21.8810   -4.0200   23.7160 C   0  0  0  0  0  3  0  0  0  0  0  0
  -22.0090   -4.8130   22.5620 C   0  0  0  0  0  0  0  0  0  0  0  0
  -22.4630   -4.2570   21.4140 F   0  0  0  0  0  0  0  0  0  0  0  0
  -21.2620   -3.8190   26.0150 F   0  0  0  0  0  0  0  0  0  0  0  0
  -22.8480  -13.5440   21.3510 C   0  0  0  0  0  0  0  0  0  0  0  0
  -22.1930  -12.8050   22.2400 N   0  0  0  0  0  0  0  0  0  0  0  0
  -22.3770  -14.5980   20.9280 O   0  0  0  0  0  0  0  0  0  0  0  0
  -22.5880  -11.9500   22.6020 H   0  0  0  0  0  0  0  0  0  0  0  0
  -21.2830  -13.1010   22.5650 H   0  0  0  0  0  0  0  0  0  0  0  0
  -25.4110  -15.2350   20.3850 N   0  0  0  0  0  0  0  0  0  0  0  0
  -24.6650  -15.8860   20.6020 H   0  0  0  0  0  0  0  0  0  0  0  0
  -26.2370  -15.6900   20.0160 H   0  0  0  0  0  0  0  0  0  0  0  0
  -28.9410  -23.2540   20.9250 C   0  0  0  0  0  3  0  0  0  0  0  0
  -31.3670  -24.1720   21.1200 C   0  0  0  0  0  1  0  0  0  0  0  0
  -30.3550  -22.9130   23.0600 C   0  0  0  0  0  1  0  0  0  0  0  0
  -30.0540  -23.8260   21.8560 C   0  0  0  0  0  3  0  0  0  0  0  0
  -28.5360  -24.3020   19.8430 C   0  0  0  0  0  0  0  0  0  0  0  0
  -28.8370  -24.1800   18.6510 O   0  0  0  0  0  0  0  0  0  0  0  0
  -27.7220  -25.5220   20.3470 C   0  0  0  0  0  2  0  0  0  0  0  0
  -27.8920  -26.7310   19.5670 O   0  0  0  0  0  0  0  0  0  0  0  0
  -24.4600  -31.8880   23.1230 C   0  0  0  0  0  0  0  0  0  0  0  0
  -26.7880  -27.5540   19.6470 C   0  0  0  0  0  0  0  0  0  0  0  0
  -23.1190  -30.6000   21.4940 C   0  0  0  0  0  3  0  0  0  0  0  0
  -24.4420  -29.1220   19.8900 C   0  0  0  0  0  0  0  0  0  0  0  0
  -25.6340  -30.9200   21.1470 C   0  0  0  0  0  2  0  0  0  0  0  0
  -25.6520  -29.5850   20.4280 C   0  0  0  0  0  0  0  0  0  0  0  0
  -26.8320  -28.8100   20.3010 C   0  0  0  0  0  3  0  0  0  0  0  0
  -25.5650  -27.1190   19.0920 C   0  0  0  0  0  3  0  0  0  0  0  0
  -24.3960  -27.8890   19.2150 C   0  0  0  0  0  3  0  0  0  0  0  0
  -23.2230  -29.9970   20.0680 C   0  0  0  0  0  2  0  0  0  0  0  0
  -24.4270  -31.1460   21.9800 N   0  0  0  0  0  0  0  0  0  0  0  0
  -23.4220  -32.1510   23.7480 O   0  0  0  0  0  0  0  0  0  0  0  0
  -22.5080  -29.5400   22.4380 C   0  0  0  0  0  0  0  0  0  0  0  0
  -21.1830  -29.3410   22.3400 N   0  0  0  0  0  0  0  0  0  0  0  0
  -23.2220  -28.9010   23.2160 O   0  0  0  0  0  0  0  0  0  0  0  0
  -20.6670  -29.9140   21.6870 H   0  0  0  0  0  0  0  0  0  0  0  0
  -17.8510  -28.0290   22.8370 C   0  0  0  0  0  0  0  0  0  0  0  0
  -20.4010  -28.3680   23.1020 C   0  0  0  0  0  3  0  0  0  0  0  0
  -20.5460  -26.9480   22.5090 C   0  0  0  0  0  2  0  0  0  0  0  0
  -19.4510  -26.6010   21.4950 C   0  0  0  0  0  2  0  0  0  0  0  0
  -18.0680  -26.6930   22.1460 C   0  0  0  0  0  2  0  0  0  0  0  0
  -18.9470  -28.8220   23.2720 C   0  0  0  0  0  0  0  0  0  0  0  0
  -18.6900  -30.0700   23.8770 C   0  0  0  0  0  3  0  0  0  0  0  0
  -17.3710  -30.5290   24.0520 C   0  0  0  0  0  3  0  0  0  0  0  0
  -16.2900  -29.7330   23.6330 C   0  0  0  0  0  3  0  0  0  0  0  0
  -16.5310  -28.4840   23.0330 C   0  0  0  0  0  3  0  0  0  0  0  0
  -25.7970  -32.4600   23.6890 C   0  0  0  0  0  3  0  0  0  0  0  0
  -25.5500  -33.8520   24.0870 N   0  0  0  0  0  0  0  0  0  0  0  0
  -25.8880  -34.9230   23.3550 C   0  0  0  0  0  0  0  0  0  0  0  0
  -26.5150  -34.8390   22.2950 O   0  0  0  0  0  0  0  0  0  0  0  0
  -24.9900  -33.9940   24.9140 H   0  0  0  0  0  0  0  0  0  0  0  0
  -24.2200  -36.7900   23.1250 C   0  0  0  0  0  1  0  0  0  0  0  0
  -25.4650  -36.3060   23.8840 C   0  0  0  0  0  3  0  0  0  0  0  0
  -27.6490  -37.0790   24.6980 C   0  0  0  0  0  1  0  0  0  0  0  0
  -26.5340  -37.3250   23.7880 N   0  0  0  0  0  0  0  0  0  0  0  0
  -26.1660  -38.2520   23.9830 H   0  0  0  0  0  0  0  0  0  0  0  0
  -26.3670  -31.6260   24.9000 C   0  0  1  0  0  0  0  0  0  0  0  0
  -25.3330  -31.3720   26.0220 C   0  0  0  0  0  1  0  0  0  0  0  0
  -26.8880  -30.2510   24.4190 C   0  0  0  0  0  1  0  0  0  0  0  0
  -27.5770  -32.3630   25.5210 C   0  0  0  0  0  1  0  0  0  0  0  0
  1  3  2  0
  2  1  1  0
  2 53  1  0
  3  6  1  0
  3  5  1  0
  4  2  1  0
  7  9  1  0
  8 11  1  0
  8 10  2  0
  9  1  1  0
 10 12  1  0
 11  7  2  0
 12  9  2  0
 12 14  1  0
 13 11  1  0
 15 23  1  0
 16 21  1  0
 17 18  1  0
 17 16  1  0
 19 18  1  0
 19 28  1  0
 19 20  1  0
 21 15  1  0
 21 20  1  0
 22 15  2  0
 23 10  1  0
 23 24  1  0
 25 26  2  0
 26 45  1  0
 27 26  1  0
 27 30  1  0
 28 29  1  0
 28 25  1  0
 29 27  2  0
 30 31  1  0
 31 32  2  0
 33 36  1  0
 33 32  1  0
 34 33  2  0
 35 34  1  0
 35 30  2  0
 36 37  1  0
 37 38  1  0
 38 39  2  0
 40 39  1  0
 40 44  1  0
 41 40  2  0
 42 37  2  0
 42 41  1  0
 43 42  1  0
 45 46  1  0
 46 49  1  0
 46 48  1  0
 47 45  2  0
 50 25  1  0
 50 51  1  0
 52 50  1  0
 53 57  1  0
 53 56  1  0
 54 56  1  0
 56 55  1  0
 57 59  1  0
 58 57  2  0
 60 62  1  0
 60 59  1  0
 61 72  2  0
 62 67  1  0
 63 71  1  0
 63 73  1  0
 64 70  1  0
 64 66  1  0
 65 71  1  0
 66 65  1  0
 67 66  2  0
 68 69  1  0
 68 62  2  0
 69 64  2  0
 70 63  1  0
 71 61  1  0
 73 75  2  0
 74 73  1  0
 76 74  1  0
 77 86  2  0
 77 82  1  0
 78 74  1  0
 78 82  1  0
 79 78  1  0
 80 81  1  0
 80 79  1  0
 81 77  1  0
 82 83  2  0
 83 84  1  0
 85 84  2  0
 86 85  1  0
 87 61  1  0
 87 88  1  0
 87 97  1  0
 88 91  1  0
 89 93  1  0
 89 88  1  0
 90 89  2  0
 93 92  1  0
 95 93  1  0
 95 96  1  0
 95 94  1  0
 97100  1  1
 97 98  1  0
 99 97  1  0
M  ISO  4  15 100  23 100  59 101  60 101
M  END
>  <TORSDO>  (89) 
F 21

>  <SCORE>  (89) 
-13.190

>  <name>  (89) 
88

>  <ligand_id>  (89) 
88

>  <original_smiles>  (89) 
[H]c1c([H])c([H])c2c(c1[H])C([H])([H])C([H])([H])C([H])([H])C2([H])N([H])C(=O)C1([H])N(C(=O)C([H])(N([H])C(=O)C([H])(N([H])C([H])([H])[H])C([H])([H])[H])C(C([H])([H])[H])(C([H])([H])[H])C([H])([H])[H])C([H])([H])c2c([H])c(OC([H])([H])C(=O)C([H])(N([H])C(c3c([H])c(F)c([H])c(N([H])C(=O)N4C([H])([H])C([H])([H])C([H])([H])C([H])(n5nc(-c6c([H])c([H])c(Oc7c([H])c([H])c(F)c([H])c7F)c([H])c6[H])c(C(=O)N([H])[H])c5N([H])[H])C4([H])[H])c3F)=[N+]([H])[H])C([H])(C([H])([H])[H])C([H])([H])[H])c([H])c([H])c2C1([H])[H]

>  <smiles>  (89) 
[H]c1c([H])c([H])c2c(c1[H])C([H])([H])C([H])([H])C([H])([H])C2([H])N([H])C(=O)C1([H])N(C(=O)C([H])(N([H])C(=O)C([H])(N([H])C([H])([H])[H])C([H])([H])[H])C(C([H])([H])[H])(C([H])([H])[H])C([H])([H])[H])C([H])([H])c2c([H])c(OC([H])([H])C(=O)C([H])(N([H])C(c3c([H])c(F)c([H])c(N([H])C(=O)N4C([H])([H])C([H])([H])C([H])([H])C([H])(n5nc(-c6c([H])c([H])c(Oc7c([H])c([H])c(F)c([H])c7F)c([H])c6[H])c(C(=O)N([H])[H])c5N([H])[H])C4([H])[H])c3F)=[N+]([H])[H])C([H])(C([H])([H])[H])C([H])([H])[H])c([H])c([H])c2C1([H])[H]

$$$$
89:0:0
     RDKit          3D

 98106  0  0  1  0  0  0  0  0999 V2000
  -30.5280  -21.0150   21.5680 N   0  0  0  0  0  0  0  0  0  0  0  0
  -31.4610  -21.2220   21.2190 H   0  0  0  0  0  0  0  0  0  0  0  0
  -29.2540  -17.5100   22.1290 C   0  0  0  0  0  3  0  0  0  0  0  0
  -31.1870  -17.4930   20.6610 C   0  0  0  0  0  3  0  0  0  0  0  0
  -29.3120  -18.9240   22.2420 C   0  0  0  0  0  0  0  0  0  0  0  0
  -30.1810  -16.7800   21.3520 C   0  0  0  0  0  0  0  0  0  0  0  0
  -30.3300  -19.6220   21.5260 C   0  0  0  0  0  0  0  0  0  0  0  0
  -31.2570  -18.8930   20.7520 C   0  0  0  0  0  0  0  0  0  0  0  0
  -32.2380  -19.5570   20.0910 F   0  0  0  0  0  0  0  0  0  0  0  0
  -30.7040  -14.4260   20.6060 C   0  0  0  0  0  0  0  0  0  0  0  0
  -30.4240  -12.2890   19.4100 C   0  0  0  0  0  2  0  0  0  0  0  0
  -29.4910  -12.5030   18.2010 C   0  0  0  0  0  2  0  0  0  0  0  0
  -28.0130  -12.3620   18.6160 C   0  0  0  0  0  2  0  0  0  0  0  0
  -27.6650  -13.1950   19.8780 C   0  0  0  0  0  3  0  0  0  0  0  0
  -28.7030  -12.9410   20.9940 C   0  0  0  0  0  2  0  0  0  0  0  0
  -30.0400  -13.2500   20.4540 N   0  0  0  0  0  0  0  0  0  0  0  0
  -31.8070  -14.6380   20.0930 O   0  0  0  0  0  0  0  0  0  0  0  0
  -30.0290  -15.3580   21.3070 N   0  0  0  0  0  0  0  0  0  0  0  0
  -29.1990  -14.9950   21.7500 H   0  0  0  0  0  0  0  0  0  0  0  0
  -25.2620  -13.8150   20.5670 C   0  0  0  0  0  0  0  0  0  0  0  0
  -24.1860  -13.0440   20.9160 C   0  0  0  0  0  0  0  0  0  0  0  0
  -24.6390  -11.6900   20.8740 C   0  0  0  0  0  0  0  0  0  0  0  0
  -26.3040  -12.9290   20.3360 N   0  0  0  0  0  0  0  0  0  0  0  0
  -25.9300  -11.6460   20.5750 N   0  0  0  0  0  0  0  0  0  0  0  0
  -23.9060  -10.4290   21.0410 C   0  0  0  0  0  0  0  0  0  0  0  0
  -24.3610   -9.4210   21.9190 C   0  0  0  0  0  3  0  0  0  0  0  0
  -23.6290   -8.2240   22.0760 C   0  0  0  0  0  3  0  0  0  0  0  0
  -22.4270   -8.0280   21.3540 C   0  0  0  0  0  0  0  0  0  0  0  0
  -21.9900   -9.0250   20.4650 C   0  0  0  0  0  3  0  0  0  0  0  0
  -22.7230  -10.2130   20.3060 C   0  0  0  0  0  3  0  0  0  0  0  0
  -21.6640   -6.8880   21.4240 O   0  0  0  0  0  0  0  0  0  0  0  0
  -21.6850   -6.0740   22.5280 C   0  0  0  0  0  0  0  0  0  0  0  0
  -21.4010   -6.5640   23.8220 C   0  0  0  0  0  3  0  0  0  0  0  0
  -21.3660   -5.6790   24.9180 C   0  0  0  0  0  3  0  0  0  0  0  0
  -21.6040   -4.3060   24.7230 C   0  0  0  0  0  0  0  0  0  0  0  0
  -21.8820   -3.8150   23.4350 C   0  0  0  0  0  3  0  0  0  0  0  0
  -21.9190   -4.6960   22.3400 C   0  0  0  0  0  0  0  0  0  0  0  0
  -22.1660   -4.2150   21.0980 F   0  0  0  0  0  0  0  0  0  0  0  0
  -21.5630   -3.4540   25.7740 F   0  0  0  0  0  0  0  0  0  0  0  0
  -22.7890  -13.5250   21.1830 C   0  0  0  0  0  0  0  0  0  0  0  0
  -22.0520  -12.8250   22.0390 N   0  0  0  0  0  0  0  0  0  0  0  0
  -22.3580  -14.5560   20.6680 O   0  0  0  0  0  0  0  0  0  0  0  0
  -22.4120  -11.9910   22.4770 H   0  0  0  0  0  0  0  0  0  0  0  0
  -21.1130  -13.1280   22.2580 H   0  0  0  0  0  0  0  0  0  0  0  0
  -25.4380  -15.1850   20.4060 N   0  0  0  0  0  0  0  0  0  0  0  0
  -24.6740  -15.8440   20.5100 H   0  0  0  0  0  0  0  0  0  0  0  0
  -26.2910  -15.6170   20.0730 H   0  0  0  0  0  0  0  0  0  0  0  0
  -28.3520  -19.6260   23.1370 C   0  0  0  0  0  3  0  0  0  0  0  0
  -27.3810  -19.0950   23.7580 N   0  0  0  0  0  0  0  0  0  0  0  0
  -27.3050  -18.1000   23.5800 H   0  0  0  0  0  0  0  0  0  0  0  0
  -29.5330  -21.8560   20.8920 C   0  0  0  0  0  2  0  0  0  0  0  0
  -29.6050  -23.3300   21.3740 C   0  0  0  0  0  3  0  0  0  0  0  0
  -29.8130  -23.4070   23.7460 C   0  0  0  0  0  1  0  0  0  0  0  0
  -28.9360  -23.4530   22.6280 O   0  0  0  0  0  0  0  0  0  0  0  0
  -29.0320  -24.3640   20.3790 C   0  0  0  0  0  0  0  0  0  0  0  0
  -29.1290  -24.2170   19.1540 O   0  0  0  0  0  0  0  0  0  0  0  0
  -28.3420  -25.5990   20.9790 C   0  0  0  0  0  2  0  0  0  0  0  0
  -28.3850  -26.7130   20.0810 O   0  0  0  0  0  0  0  0  0  0  0  0
  -24.6120  -31.8690   23.2100 C   0  0  0  0  0  0  0  0  0  0  0  0
  -27.2330  -27.4560   20.0950 C   0  0  0  0  0  0  0  0  0  0  0  0
  -23.4010  -30.4940   21.5490 C   0  0  0  0  0  3  0  0  0  0  0  0
  -24.8470  -28.9590   20.1150 C   0  0  0  0  0  0  0  0  0  0  0  0
  -25.9280  -30.8410   21.3600 C   0  0  0  0  0  2  0  0  0  0  0  0
  -26.0070  -29.4770   20.7080 C   0  0  0  0  0  0  0  0  0  0  0  0
  -27.2070  -28.7350   20.6910 C   0  0  0  0  0  3  0  0  0  0  0  0
  -26.0610  -26.9430   19.5000 C   0  0  0  0  0  3  0  0  0  0  0  0
  -24.8680  -27.6910   19.5060 C   0  0  0  0  0  3  0  0  0  0  0  0
  -23.6080  -29.8230   20.1640 C   0  0  0  0  0  2  0  0  0  0  0  0
  -24.6650  -31.0810   22.0980 N   0  0  0  0  0  0  0  0  0  0  0  0
  -23.5310  -32.1420   23.7510 O   0  0  0  0  0  0  0  0  0  0  0  0
  -22.7380  -29.4680   22.4970 C   0  0  0  0  0  0  0  0  0  0  0  0
  -21.4120  -29.3040   22.3720 N   0  0  0  0  0  0  0  0  0  0  0  0
  -23.4160  -28.8220   23.3000 O   0  0  0  0  0  0  0  0  0  0  0  0
  -20.9260  -29.8740   21.6940 H   0  0  0  0  0  0  0  0  0  0  0  0
  -18.0270  -28.1400   22.8510 C   0  0  0  0  0  0  0  0  0  0  0  0
  -20.5870  -28.3670   23.1320 C   0  0  0  0  0  3  0  0  0  0  0  0
  -20.6770  -26.9410   22.5410 C   0  0  0  0  0  2  0  0  0  0  0  0
  -19.5750  -26.6420   21.5210 C   0  0  0  0  0  2  0  0  0  0  0  0
  -18.1920  -26.7960   22.1620 C   0  0  0  0  0  2  0  0  0  0  0  0
  -19.1530  -28.8860   23.2920 C   0  0  0  0  0  0  0  0  0  0  0  0
  -18.9450  -30.1470   23.8930 C   0  0  0  0  0  3  0  0  0  0  0  0
  -17.6460  -30.6610   24.0580 C   0  0  0  0  0  3  0  0  0  0  0  0
  -16.5350  -29.9110   23.6340 C   0  0  0  0  0  3  0  0  0  0  0  0
  -16.7270  -28.6540   23.0350 C   0  0  0  0  0  3  0  0  0  0  0  0
  -25.9010  -32.4820   23.8400 C   0  0  0  0  0  3  0  0  0  0  0  0
  -25.5860  -33.8620   24.2330 N   0  0  0  0  0  0  0  0  0  0  0  0
  -25.9020  -34.9480   23.5130 C   0  0  0  0  0  0  0  0  0  0  0  0
  -26.5590  -34.8930   22.4700 O   0  0  0  0  0  0  0  0  0  0  0  0
  -25.0020  -33.9780   25.0480 H   0  0  0  0  0  0  0  0  0  0  0  0
  -24.1480  -36.7310   23.2640 C   0  0  0  0  0  1  0  0  0  0  0  0
  -25.4100  -36.3110   24.0340 C   0  0  0  0  0  3  0  0  0  0  0  0
  -27.5580  -37.1820   24.8470 C   0  0  0  0  0  1  0  0  0  0  0  0
  -26.4290  -37.3790   23.9420 N   0  0  0  0  0  0  0  0  0  0  0  0
  -26.0180  -38.2860   24.1420 H   0  0  0  0  0  0  0  0  0  0  0  0
  -26.4460  -31.6610   25.0720 C   0  0  1  0  0  0  0  0  0  0  0  0
  -25.3730  -31.3720   26.1480 C   0  0  0  0  0  1  0  0  0  0  0  0
  -27.0270  -30.3040   24.6080 C   0  0  0  0  0  1  0  0  0  0  0  0
  -27.6030  -32.4330   25.7480 C   0  0  0  0  0  1  0  0  0  0  0  0
  2  1  1  0
  3  5  1  0
  4  8  2  0
  4  6  1  0
  5 48  1  0
  6  3  2  0
  7  1  1  0
  7  5  2  0
  8  7  1  0
  9  8  1  0
 10 18  1  0
 11 16  1  0
 12 13  1  0
 12 11  1  0
 14 13  1  0
 14 23  1  0
 14 15  1  0
 16 10  1  0
 16 15  1  0
 17 10  2  0
 18  6  1  0
 18 19  1  0
 20 21  2  0
 21 40  1  0
 22 21  1  0
 22 25  1  0
 23 20  1  0
 23 24  1  0
 24 22  2  0
 25 26  1  0
 26 27  2  0
 28 31  1  0
 28 27  1  0
 29 28  2  0
 30 29  1  0
 30 25  2  0
 31 32  1  0
 32 33  1  0
 33 34  2  0
 35 34  1  0
 35 39  1  0
 36 35  2  0
 37 32  2  0
 37 36  1  0
 38 37  1  0
 40 41  1  0
 41 44  1  0
 41 43  1  0
 42 40  2  0
 45 46  1  0
 45 20  1  0
 47 45  1  0
 48 49  2  0
 50 49  1  0
 51  1  1  0
 52 51  1  0
 52 54  1  0
 54 53  1  0
 55 57  1  0
 55 52  1  0
 56 55  2  0
 58 60  1  0
 58 57  1  0
 59 70  2  0
 60 65  1  0
 61 69  1  0
 61 71  1  0
 62 68  1  0
 62 64  1  0
 63 69  1  0
 64 63  1  0
 65 64  2  0
 66 67  1  0
 66 60  2  0
 67 62  2  0
 68 61  1  0
 69 59  1  0
 71 73  2  0
 72 71  1  0
 74 72  1  0
 75 84  2  0
 75 80  1  0
 76 72  1  0
 76 80  1  0
 77 76  1  0
 78 79  1  0
 78 77  1  0
 79 75  1  0
 80 81  2  0
 81 82  1  0
 83 82  2  0
 84 83  1  0
 85 59  1  0
 85 86  1  0
 85 95  1  0
 86 89  1  0
 87 91  1  0
 87 86  1  0
 88 87  2  0
 91 90  1  0
 93 91  1  0
 93 94  1  0
 93 92  1  0
 95 98  1  1
 95 96  1  0
 97 95  1  0
M  ISO  4  10 100  18 100  57 101  58 101
M  END
>  <TORSDO>  (90) 
F 23

>  <SCORE>  (90) 
4.758

>  <name>  (90) 
89

>  <ligand_id>  (90) 
89

>  <original_smiles>  (90) 
[H]N=C([H])c1c([H])c(N([H])C(=O)N2C([H])([H])C([H])([H])C([H])([H])C([H])(n3nc(-c4c([H])c([H])c(Oc5c([H])c([H])c(F)c([H])c5F)c([H])c4[H])c(C(=O)N([H])[H])c3N([H])[H])C2([H])[H])c([H])c(F)c1N([H])C([H])([H])C([H])(OC([H])([H])[H])C(=O)C([H])([H])Oc1c([H])c([H])c2c(c1[H])C([H])([H])N(C(=O)C([H])(N([H])C(=O)C([H])(N([H])C([H])([H])[H])C([H])([H])[H])C(C([H])([H])[H])(C([H])([H])[H])C([H])([H])[H])C([H])(C(=O)N([H])C1([H])c3c([H])c([H])c([H])c([H])c3C([H])([H])C([H])([H])C1([H])[H])C2([H])[H]

>  <smiles>  (90) 
[H]N=C([H])c1c([H])c(N([H])C(=O)N2C([H])([H])C([H])([H])C([H])([H])C([H])(n3nc(-c4c([H])c([H])c(Oc5c([H])c([H])c(F)c([H])c5F)c([H])c4[H])c(C(=O)N([H])[H])c3N([H])[H])C2([H])[H])c([H])c(F)c1N([H])C([H])([H])C([H])(OC([H])([H])[H])C(=O)C([H])([H])Oc1c([H])c([H])c2c(c1[H])C([H])([H])N(C(=O)C([H])(N([H])C(=O)C([H])(N([H])C([H])([H])[H])C([H])([H])[H])C(C([H])([H])[H])(C([H])([H])[H])C([H])([H])[H])C([H])(C(=O)N([H])C1([H])c3c([H])c([H])c([H])c([H])c3C([H])([H])C([H])([H])C1([H])[H])C2([H])[H]

$$$$
90:0:0
     RDKit          3D

 97105  0  0  1  0  0  0  0  0999 V2000
  -28.5370  -22.8440   20.6220 C   0  0  0  0  0  0  0  0  0  0  0  0
  -29.2140  -21.8320   20.0140 N   0  0  0  0  0  0  0  0  0  0  0  0
  -27.5880  -22.6120   21.3770 O   0  0  0  0  0  0  0  0  0  0  0  0
  -30.0640  -22.0640   19.5270 H   0  0  0  0  0  0  0  0  0  0  0  0
  -28.3180  -17.6310   19.9930 C   0  0  0  0  0  3  0  0  0  0  0  0
  -27.5710  -19.9510   19.8100 C   0  0  0  0  0  3  0  0  0  0  0  0
  -29.6600  -18.0470   20.1500 C   0  0  0  0  0  0  0  0  0  0  0  0
  -28.8910  -20.4200   20.0070 C   0  0  0  0  0  0  0  0  0  0  0  0
  -27.2890  -18.5730   19.8110 C   0  0  0  0  0  0  0  0  0  0  0  0
  -29.9300  -19.4570   20.1450 C   0  0  0  0  0  0  0  0  0  0  0  0
  -26.0140  -18.1510   19.6420 F   0  0  0  0  0  0  0  0  0  0  0  0
  -31.1960  -19.9220   20.2740 F   0  0  0  0  0  0  0  0  0  0  0  0
  -31.1760  -14.6070   20.5470 C   0  0  0  0  0  0  0  0  0  0  0  0
  -31.0340  -12.2020   19.9940 C   0  0  0  0  0  2  0  0  0  0  0  0
  -30.2110  -12.0390   18.7000 C   0  0  0  0  0  2  0  0  0  0  0  0
  -28.7080  -11.9370   19.0260 C   0  0  0  0  0  2  0  0  0  0  0  0
  -28.2270  -13.0500   19.9970 C   0  0  0  0  0  3  0  0  0  0  0  0
  -29.1800  -13.1990   21.2040 C   0  0  0  0  0  2  0  0  0  0  0  0
  -30.5350  -13.4090   20.6760 N   0  0  0  0  0  0  0  0  0  0  0  0
  -32.3740  -14.6500   20.2520 O   0  0  0  0  0  0  0  0  0  0  0  0
  -30.7540  -17.0130   20.3780 C   0  0  0  0  0  0  0  0  0  0  0  0
  -30.3820  -15.7110   20.5460 N   0  0  0  0  0  0  0  0  0  0  0  0
  -31.9310  -17.3910   20.3910 O   0  0  0  0  0  0  0  0  0  0  0  0
  -29.3950  -15.5400   20.6210 H   0  0  0  0  0  0  0  0  0  0  0  0
  -25.8300  -13.7630   20.5890 C   0  0  0  0  0  0  0  0  0  0  0  0
  -24.7130  -13.0400   20.9150 C   0  0  0  0  0  0  0  0  0  0  0  0
  -25.1170  -11.6700   20.9180 C   0  0  0  0  0  0  0  0  0  0  0  0
  -26.8450  -12.8350   20.4170 N   0  0  0  0  0  0  0  0  0  0  0  0
  -26.4180  -11.5720   20.6750 N   0  0  0  0  0  0  0  0  0  0  0  0
  -24.3300  -10.4410   21.0820 C   0  0  0  0  0  0  0  0  0  0  0  0
  -24.6680   -9.4700   22.0490 C   0  0  0  0  0  3  0  0  0  0  0  0
  -23.8840   -8.3060   22.1990 C   0  0  0  0  0  3  0  0  0  0  0  0
  -22.7460   -8.1060   21.3820 C   0  0  0  0  0  0  0  0  0  0  0  0
  -22.4260   -9.0660   20.4050 C   0  0  0  0  0  3  0  0  0  0  0  0
  -23.2110  -10.2210   20.2530 C   0  0  0  0  0  3  0  0  0  0  0  0
  -21.9400   -6.9950   21.4400 O   0  0  0  0  0  0  0  0  0  0  0  0
  -21.7720   -6.2880   22.6030 C   0  0  0  0  0  0  0  0  0  0  0  0
  -21.2930   -6.8960   23.7830 C   0  0  0  0  0  3  0  0  0  0  0  0
  -21.0710   -6.1190   24.9360 C   0  0  0  0  0  3  0  0  0  0  0  0
  -21.3170   -4.7320   24.9100 C   0  0  0  0  0  0  0  0  0  0  0  0
  -21.7890   -4.1230   23.7330 C   0  0  0  0  0  3  0  0  0  0  0  0
  -22.0130   -4.8990   22.5830 C   0  0  0  0  0  0  0  0  0  0  0  0
  -22.4480   -4.3030   21.4460 F   0  0  0  0  0  0  0  0  0  0  0  0
  -21.0950   -3.9830   26.0150 F   0  0  0  0  0  0  0  0  0  0  0  0
  -23.3270  -13.5800   21.1130 C   0  0  0  0  0  0  0  0  0  0  0  0
  -22.5330  -12.9320   21.9590 N   0  0  0  0  0  0  0  0  0  0  0  0
  -22.9560  -14.6110   20.5550 O   0  0  0  0  0  0  0  0  0  0  0  0
  -22.8460  -12.0980   22.4330 H   0  0  0  0  0  0  0  0  0  0  0  0
  -21.6000  -13.2770   22.1360 H   0  0  0  0  0  0  0  0  0  0  0  0
  -26.0640  -15.1220   20.4020 N   0  0  0  0  0  0  0  0  0  0  0  0
  -25.3170  -15.8040   20.4550 H   0  0  0  0  0  0  0  0  0  0  0  0
  -26.9210  -15.5050   20.0280 H   0  0  0  0  0  0  0  0  0  0  0  0
  -28.2590  -25.2720   20.7670 C   0  0  0  0  0  3  0  0  0  0  0  0
  -29.0100  -24.2210   20.3410 C   0  0  0  0  0  0  0  0  0  0  0  0
  -30.1550  -24.4440   19.6750 O   0  0  0  0  0  0  0  0  0  0  0  0
  -30.6140  -23.6200   19.5980 H   0  0  0  0  0  0  0  0  0  0  0  0
  -28.5320  -26.6190   20.5650 O   0  0  0  0  0  0  0  0  0  0  0  0
  -24.6710  -31.9350   23.3980 C   0  0  0  0  0  0  0  0  0  0  0  0
  -27.4180  -27.4360   20.4760 C   0  0  0  0  0  0  0  0  0  0  0  0
  -23.5310  -30.5190   21.7230 C   0  0  0  0  0  3  0  0  0  0  0  0
  -25.0390  -28.9700   20.3670 C   0  0  0  0  0  0  0  0  0  0  0  0
  -26.0650  -30.8690   21.6250 C   0  0  0  0  0  2  0  0  0  0  0  0
  -26.1760  -29.4900   20.9990 C   0  0  0  0  0  0  0  0  0  0  0  0
  -27.3740  -28.7310   21.0510 C   0  0  0  0  0  3  0  0  0  0  0  0
  -26.2690  -26.9470   19.8210 C   0  0  0  0  0  3  0  0  0  0  0  0
  -25.0820  -27.7000   19.7700 C   0  0  0  0  0  3  0  0  0  0  0  0
  -23.7940  -29.8300   20.3580 C   0  0  0  0  0  2  0  0  0  0  0  0
  -24.7710  -31.1240   22.3060 N   0  0  0  0  0  0  0  0  0  0  0  0
  -23.5690  -32.2130   23.8930 O   0  0  0  0  0  0  0  0  0  0  0  0
  -22.8390  -29.5060   22.6660 C   0  0  0  0  0  0  0  0  0  0  0  0
  -21.5160  -29.3360   22.5010 N   0  0  0  0  0  0  0  0  0  0  0  0
  -23.4920  -28.8780   23.5040 O   0  0  0  0  0  0  0  0  0  0  0  0
  -21.0520  -29.8890   21.7950 H   0  0  0  0  0  0  0  0  0  0  0  0
  -18.1120  -28.2000   22.9320 C   0  0  0  0  0  0  0  0  0  0  0  0
  -20.6700  -28.4090   23.2520 C   0  0  0  0  0  3  0  0  0  0  0  0
  -20.7560  -26.9790   22.6710 C   0  0  0  0  0  2  0  0  0  0  0  0
  -19.6670  -26.6840   21.6340 C   0  0  0  0  0  2  0  0  0  0  0  0
  -18.2770  -26.8510   22.2530 C   0  0  0  0  0  2  0  0  0  0  0  0
  -19.2380  -28.9390   23.3870 C   0  0  0  0  0  0  0  0  0  0  0  0
  -19.0310  -30.2040   23.9790 C   0  0  0  0  0  3  0  0  0  0  0  0
  -17.7330  -30.7290   24.1240 C   0  0  0  0  0  3  0  0  0  0  0  0
  -16.6220  -29.9870   23.6860 C   0  0  0  0  0  3  0  0  0  0  0  0
  -16.8130  -28.7250   23.0950 C   0  0  0  0  0  3  0  0  0  0  0  0
  -25.9310  -32.5720   24.0600 C   0  0  0  0  0  3  0  0  0  0  0  0
  -26.3790  -31.8370   25.3830 C   0  0  1  0  0  0  0  0  0  0  0  0
  -25.2290  -31.6240   26.3950 C   0  0  0  0  0  1  0  0  0  0  0  0
  -26.9840  -30.4510   25.0600 C   0  0  0  0  0  1  0  0  0  0  0  0
  -27.4890  -32.6520   26.0860 C   0  0  0  0  0  1  0  0  0  0  0  0
  -25.6250  -33.9840   24.3280 N   0  0  0  0  0  0  0  0  0  0  0  0
  -25.9840  -35.0040   23.5370 C   0  0  0  0  0  0  0  0  0  0  0  0
  -26.6790  -34.8550   22.5280 O   0  0  0  0  0  0  0  0  0  0  0  0
  -25.0100  -34.1730   25.1060 H   0  0  0  0  0  0  0  0  0  0  0  0
  -24.2650  -36.7840   23.0840 C   0  0  0  0  0  1  0  0  0  0  0  0
  -25.4960  -36.4120   23.9260 C   0  0  0  0  0  3  0  0  0  0  0  0
  -27.6270  -37.3250   24.7370 C   0  0  0  0  0  1  0  0  0  0  0  0
  -26.5330  -37.4560   23.7780 N   0  0  0  0  0  0  0  0  0  0  0  0
  -26.1280  -38.3830   23.8830 H   0  0  0  0  0  0  0  0  0  0  0  0
  1  3  2  0
  2  1  1  0
  4  2  1  0
  5  7  1  0
  6  9  1  0
  6  8  2  0
  7 21  1  0
  8  2  1  0
  8 10  1  0
  9  5  2  0
 10  7  2  0
 10 12  1  0
 11  9  1  0
 13 19  1  0
 14 19  1  0
 15 16  1  0
 15 14  1  0
 17 16  1  0
 17 28  1  0
 17 18  1  0
 19 18  1  0
 20 13  2  0
 21 23  2  0
 21 22  1  0
 22 13  1  0
 22 24  1  0
 25 26  2  0
 26 27  1  0
 26 45  1  0
 27 30  1  0
 28 25  1  0
 28 29  1  0
 29 27  2  0
 30 31  1  0
 31 32  2  0
 33 36  1  0
 33 32  1  0
 34 33  2  0
 35 34  1  0
 35 30  2  0
 36 37  1  0
 37 38  1  0
 38 39  2  0
 40 39  1  0
 40 44  1  0
 41 40  2  0
 42 37  2  0
 42 41  1  0
 43 42  1  0
 45 46  1  0
 46 49  1  0
 46 48  1  0
 47 45  2  0
 50 51  1  0
 50 25  1  0
 52 50  1  0
 54  1  1  0
 54 53  2  0
 55 54  1  0
 56 55  1  0
 57 53  1  0
 58 69  2  0
 59 57  1  0
 59 64  1  0
 60 68  1  0
 60 70  1  0
 61 63  1  0
 62 68  1  0
 63 64  2  0
 63 62  1  0
 65 59  2  0
 66 65  1  0
 66 61  2  0
 67 61  1  0
 67 60  1  0
 68 58  1  0
 70 72  2  0
 71 70  1  0
 73 71  1  0
 74 83  2  0
 74 79  1  0
 75 71  1  0
 75 79  1  0
 76 75  1  0
 77 78  1  0
 77 76  1  0
 78 74  1  0
 79 80  2  0
 80 81  1  0
 82 81  2  0
 83 82  1  0
 84 58  1  0
 84 89  1  0
 84 85  1  0
 85 88  1  1
 85 86  1  0
 87 85  1  0
 89 92  1  0
 90 94  1  0
 90 89  1  0
 91 90  2  0
 94 93  1  0
 96 97  1  0
 96 94  1  0
 96 95  1  0
M  ISO  4  13 100  22 100  53 101  57 101
M  END
>  <TORSDO>  (91) 
F 19

>  <SCORE>  (91) 
-14.167

>  <name>  (91) 
90

>  <ligand_id>  (91) 
90

>  <original_smiles>  (91) 
[H]OC(C(=O)N([H])c1c([H])c(F)c([H])c(C(=O)N([H])C(=O)N2C([H])([H])C([H])([H])C([H])([H])C([H])(n3nc(-c4c([H])c([H])c(Oc5c([H])c([H])c(F)c([H])c5F)c([H])c4[H])c(C(=O)N([H])[H])c3N([H])[H])C2([H])[H])c1F)=C([H])Oc1c([H])c([H])c2c(c1[H])C([H])([H])N(C(=O)C([H])(N([H])C(=O)C([H])(N([H])C([H])([H])[H])C([H])([H])[H])C(C([H])([H])[H])(C([H])([H])[H])C([H])([H])[H])C([H])(C(=O)N([H])C1([H])c3c([H])c([H])c([H])c([H])c3C([H])([H])C([H])([H])C1([H])[H])C2([H])[H]

>  <smiles>  (91) 
[H]OC(C(=O)N([H])c1c([H])c(F)c([H])c(C(=O)N([H])C(=O)N2C([H])([H])C([H])([H])C([H])([H])C([H])(n3nc(-c4c([H])c([H])c(Oc5c([H])c([H])c(F)c([H])c5F)c([H])c4[H])c(C(=O)N([H])[H])c3N([H])[H])C2([H])[H])c1F)=C([H])Oc1c([H])c([H])c2c(c1[H])C([H])([H])N(C(=O)C([H])(N([H])C(=O)C([H])(N([H])C([H])([H])[H])C([H])([H])[H])C(C([H])([H])[H])(C([H])([H])[H])C([H])([H])[H])C([H])(C(=O)N([H])C1([H])c3c([H])c([H])c([H])c([H])c3C([H])([H])C([H])([H])C1([H])[H])C2([H])[H]

$$$$
91:0:0
     RDKit          3D

 93101  0  0  1  0  0  0  0  0999 V2000
  -28.5460  -22.7920   20.9030 C   0  0  0  0  0  0  0  0  0  0  0  0
  -29.4740  -21.7840   21.0580 N   0  0  0  0  0  0  0  0  0  0  0  0
  -27.3510  -22.5210   20.7580 O   0  0  0  0  0  0  0  0  0  0  0  0
  -30.4210  -22.0760   21.2390 H   0  0  0  0  0  0  0  0  0  0  0  0
  -28.5940  -18.3530   20.3310 C   0  0  0  0  0  3  0  0  0  0  0  0
  -28.2090  -19.7230   20.4860 C   0  0  0  0  0  3  0  0  0  0  0  0
  -29.9100  -18.2330   20.6890 C   0  0  0  0  0  0  0  0  0  0  0  0
  -29.3260  -20.4100   20.8860 C   0  0  0  0  0  0  0  0  0  0  0  0
  -30.3670  -19.5030   21.0410 O   0  0  0  0  0  0  0  0  0  0  0  0
  -30.8960  -17.0500   20.7310 C   0  0  0  0  0  2  0  0  0  0  0  0
  -30.9310  -14.5800   20.0730 C   0  0  0  0  0  0  0  0  0  0  0  0
  -30.6230  -12.3070   19.1070 C   0  0  0  0  0  2  0  0  0  0  0  0
  -29.6580  -12.3500   17.9040 C   0  0  0  0  0  2  0  0  0  0  0  0
  -28.2010  -12.2200   18.3810 C   0  0  0  0  0  2  0  0  0  0  0  0
  -27.8680  -13.1850   19.5530 C   0  0  0  0  0  3  0  0  0  0  0  0
  -28.9410  -13.1220   20.6630 C   0  0  0  0  0  2  0  0  0  0  0  0
  -30.2500  -13.3910   20.0450 N   0  0  0  0  0  0  0  0  0  0  0  0
  -32.0230  -14.6990   19.5110 O   0  0  0  0  0  0  0  0  0  0  0  0
  -30.3360  -15.6560   20.6610 N   0  0  0  0  0  0  0  0  0  0  0  0
  -29.4480  -15.4930   21.1130 H   0  0  0  0  0  0  0  0  0  0  0  0
  -25.5190  -13.8560   20.3560 C   0  0  0  0  0  0  0  0  0  0  0  0
  -24.4450  -13.1170   20.7700 C   0  0  0  0  0  0  0  0  0  0  0  0
  -24.8610  -11.7530   20.7180 C   0  0  0  0  0  0  0  0  0  0  0  0
  -26.5270  -12.9450   20.0830 N   0  0  0  0  0  0  0  0  0  0  0  0
  -26.1370  -11.6730   20.3550 N   0  0  0  0  0  0  0  0  0  0  0  0
  -24.1000  -10.5160   20.9360 C   0  0  0  0  0  0  0  0  0  0  0  0
  -24.4910   -9.5680   21.9080 C   0  0  0  0  0  3  0  0  0  0  0  0
  -23.7290   -8.3970   22.1120 C   0  0  0  0  0  3  0  0  0  0  0  0
  -22.5640   -8.1660   21.3460 C   0  0  0  0  0  0  0  0  0  0  0  0
  -22.1910   -9.1020   20.3650 C   0  0  0  0  0  3  0  0  0  0  0  0
  -22.9530  -10.2630   20.1580 C   0  0  0  0  0  3  0  0  0  0  0  0
  -21.7810   -7.0420   21.4540 O   0  0  0  0  0  0  0  0  0  0  0  0
  -21.6350   -6.3770   22.6460 C   0  0  0  0  0  0  0  0  0  0  0  0
  -21.1290   -7.0180   23.7980 C   0  0  0  0  0  3  0  0  0  0  0  0
  -20.9250   -6.2830   24.9820 C   0  0  0  0  0  3  0  0  0  0  0  0
  -21.2220   -4.9080   25.0180 C   0  0  0  0  0  0  0  0  0  0  0  0
  -21.7230   -4.2650   23.8720 C   0  0  0  0  0  3  0  0  0  0  0  0
  -21.9240   -4.9980   22.6890 C   0  0  0  0  0  0  0  0  0  0  0  0
  -22.3860   -4.3680   21.5810 F   0  0  0  0  0  0  0  0  0  0  0  0
  -21.0210   -4.2010   26.1540 F   0  0  0  0  0  0  0  0  0  0  0  0
  -23.0770  -13.6420   21.1000 C   0  0  0  0  0  0  0  0  0  0  0  0
  -22.3640  -12.9760   22.0030 N   0  0  0  0  0  0  0  0  0  0  0  0
  -22.6540  -14.6800   20.5950 O   0  0  0  0  0  0  0  0  0  0  0  0
  -22.7210  -12.1390   22.4390 H   0  0  0  0  0  0  0  0  0  0  0  0
  -21.4460  -13.3110   22.2600 H   0  0  0  0  0  0  0  0  0  0  0  0
  -25.7130  -15.2200   20.1650 N   0  0  0  0  0  0  0  0  0  0  0  0
  -24.9360  -15.8690   20.2250 H   0  0  0  0  0  0  0  0  0  0  0  0
  -26.5350  -15.6230   19.7350 H   0  0  0  0  0  0  0  0  0  0  0  0
  -28.1700  -25.2270   20.5300 C   0  0  0  0  0  3  0  0  0  0  0  0
  -29.0280  -24.2180   20.9020 C   0  0  0  0  0  0  0  0  0  0  0  0
  -30.2780  -24.5320   21.2700 O   0  0  0  0  0  0  0  0  0  0  0  0
  -30.5850  -23.8630   21.8660 H   0  0  0  0  0  0  0  0  0  0  0  0
  -28.4250  -26.6110   20.4130 O   0  0  0  0  0  0  0  0  0  0  0  0
  -24.6270  -31.9380   23.3450 C   0  0  0  0  0  0  0  0  0  0  0  0
  -27.3230  -27.4700   20.2960 C   0  0  0  0  0  0  0  0  0  0  0  0
  -23.4550  -30.5410   21.6750 C   0  0  0  0  0  3  0  0  0  0  0  0
  -24.9410  -29.0370   20.2390 C   0  0  0  0  0  0  0  0  0  0  0  0
  -25.9840  -30.9100   21.5180 C   0  0  0  0  0  2  0  0  0  0  0  0
  -26.0900  -29.5400   20.8640 C   0  0  0  0  0  0  0  0  0  0  0  0
  -27.2840  -28.7630   20.8960 C   0  0  0  0  0  3  0  0  0  0  0  0
  -26.1730  -27.0460   19.5900 C   0  0  0  0  0  3  0  0  0  0  0  0
  -24.9840  -27.7970   19.5840 C   0  0  0  0  0  3  0  0  0  0  0  0
  -23.6920  -29.8870   20.2860 C   0  0  0  0  0  2  0  0  0  0  0  0
  -24.7060  -31.1460   22.2380 N   0  0  0  0  0  0  0  0  0  0  0  0
  -23.5380  -32.1940   23.8760 O   0  0  0  0  0  0  0  0  0  0  0  0
  -22.7980  -29.5070   22.6210 C   0  0  0  0  0  0  0  0  0  0  0  0
  -21.4750  -29.3090   22.4760 N   0  0  0  0  0  0  0  0  0  0  0  0
  -23.4730  -28.8820   23.4430 O   0  0  0  0  0  0  0  0  0  0  0  0
  -20.9880  -29.8590   21.7810 H   0  0  0  0  0  0  0  0  0  0  0  0
  -18.1150  -28.0630   22.9310 C   0  0  0  0  0  0  0  0  0  0  0  0
  -20.6650  -28.3510   23.2310 C   0  0  0  0  0  3  0  0  0  0  0  0
  -20.7920  -26.9260   22.6460 C   0  0  0  0  0  2  0  0  0  0  0  0
  -19.7070  -26.5980   21.6150 C   0  0  0  0  0  2  0  0  0  0  0  0
  -18.3150  -26.7230   22.2410 C   0  0  0  0  0  2  0  0  0  0  0  0
  -19.2170  -28.8340   23.3810 C   0  0  0  0  0  0  0  0  0  0  0  0
  -18.9730  -30.0870   23.9850 C   0  0  0  0  0  3  0  0  0  0  0  0
  -17.6580  -30.5670   24.1430 C   0  0  0  0  0  3  0  0  0  0  0  0
  -16.5710  -29.7920   23.7050 C   0  0  0  0  0  3  0  0  0  0  0  0
  -16.8000  -28.5420   23.1050 C   0  0  0  0  0  3  0  0  0  0  0  0
  -25.8980  -32.5800   23.9820 C   0  0  0  0  0  3  0  0  0  0  0  0
  -26.3900  -31.8300   25.2810 C   0  0  1  0  0  0  0  0  0  0  0  0
  -25.2740  -31.6030   26.3270 C   0  0  0  0  0  1  0  0  0  0  0  0
  -26.9870  -30.4490   24.9220 C   0  0  0  0  0  1  0  0  0  0  0  0
  -27.5210  -32.6420   25.9590 C   0  0  0  0  0  1  0  0  0  0  0  0
  -25.5860  -33.9840   24.2790 N   0  0  0  0  0  0  0  0  0  0  0  0
  -25.9230  -35.0200   23.4990 C   0  0  0  0  0  0  0  0  0  0  0  0
  -26.5930  -34.8960   22.4720 O   0  0  0  0  0  0  0  0  0  0  0  0
  -24.9940  -34.1550   25.0770 H   0  0  0  0  0  0  0  0  0  0  0  0
  -24.1870  -36.8010   23.1060 C   0  0  0  0  0  1  0  0  0  0  0  0
  -25.4310  -36.4170   23.9250 C   0  0  0  0  0  3  0  0  0  0  0  0
  -27.5620  -37.3310   24.7340 C   0  0  0  0  0  1  0  0  0  0  0  0
  -26.4610  -37.4700   23.7850 N   0  0  0  0  0  0  0  0  0  0  0  0
  -26.0520  -38.3920   23.9080 H   0  0  0  0  0  0  0  0  0  0  0  0
  1  2  1  0
  2  4  1  0
  3  1  2  0
  5  6  1  0
  5  7  2  0
  6  8  2  0
  7 10  1  0
  7  9  1  0
  8  9  1  0
  8  2  1  0
 11 19  1  0
 12 17  1  0
 13 14  1  0
 13 12  1  0
 15 14  1  0
 15 24  1  0
 15 16  1  0
 17 11  1  0
 17 16  1  0
 18 11  2  0
 19 10  1  0
 19 20  1  0
 21 22  2  0
 22 41  1  0
 23 22  1  0
 23 26  1  0
 24 25  1  0
 24 21  1  0
 25 23  2  0
 26 27  1  0
 27 28  2  0
 29 32  1  0
 29 28  1  0
 30 29  2  0
 31 30  1  0
 31 26  2  0
 32 33  1  0
 33 38  2  0
 33 34  1  0
 34 35  2  0
 35 36  1  0
 36 40  1  0
 37 36  2  0
 38 37  1  0
 39 38  1  0
 41 42  1  0
 42 45  1  0
 42 44  1  0
 43 41  2  0
 46 47  1  0
 46 21  1  0
 48 46  1  0
 49 50  2  0
 50  1  1  0
 50 51  1  0
 51 52  1  0
 53 49  1  0
 54 65  2  0
 55 53  1  0
 55 60  1  0
 56 64  1  0
 56 66  1  0
 57 63  1  0
 57 59  1  0
 58 64  1  0
 59 60  2  0
 59 58  1  0
 61 55  2  0
 62 61  1  0
 62 57  2  0
 63 56  1  0
 64 54  1  0
 66 68  2  0
 67 66  1  0
 69 67  1  0
 70 79  2  0
 70 75  1  0
 71 67  1  0
 71 75  1  0
 72 71  1  0
 73 74  1  0
 73 72  1  0
 74 70  1  0
 75 76  2  0
 76 77  1  0
 78 77  2  0
 79 78  1  0
 80 54  1  0
 80 85  1  0
 80 81  1  0
 81 84  1  1
 81 82  1  0
 83 81  1  0
 85 88  1  0
 86 90  1  0
 86 85  1  0
 87 86  2  0
 90 89  1  0
 92 93  1  0
 92 90  1  0
 92 91  1  0
M  ISO  4  11 100  19 100  49 101  53 101
M  END
>  <TORSDO>  (92) 
F 20

>  <SCORE>  (92) 
-13.992

>  <name>  (92) 
91

>  <ligand_id>  (92) 
91

>  <original_smiles>  (92) 
[H]OC(C(=O)N([H])c1oc(C([H])([H])N([H])C(=O)N2C([H])([H])C([H])([H])C([H])([H])C([H])(n3nc(-c4c([H])c([H])c(Oc5c([H])c([H])c(F)c([H])c5F)c([H])c4[H])c(C(=O)N([H])[H])c3N([H])[H])C2([H])[H])c([H])c1[H])=C([H])Oc1c([H])c([H])c2c(c1[H])C([H])([H])N(C(=O)C([H])(N([H])C(=O)C([H])(N([H])C([H])([H])[H])C([H])([H])[H])C(C([H])([H])[H])(C([H])([H])[H])C([H])([H])[H])C([H])(C(=O)N([H])C1([H])c3c([H])c([H])c([H])c([H])c3C([H])([H])C([H])([H])C1([H])[H])C2([H])[H]

>  <smiles>  (92) 
[H]OC(C(=O)N([H])c1oc(C([H])([H])N([H])C(=O)N2C([H])([H])C([H])([H])C([H])([H])C([H])(n3nc(-c4c([H])c([H])c(Oc5c([H])c([H])c(F)c([H])c5F)c([H])c4[H])c(C(=O)N([H])[H])c3N([H])[H])C2([H])[H])c([H])c1[H])=C([H])Oc1c([H])c([H])c2c(c1[H])C([H])([H])N(C(=O)C([H])(N([H])C(=O)C([H])(N([H])C([H])([H])[H])C([H])([H])[H])C(C([H])([H])[H])(C([H])([H])[H])C([H])([H])[H])C([H])(C(=O)N([H])C1([H])c3c([H])c([H])c([H])c([H])c3C([H])([H])C([H])([H])C1([H])[H])C2([H])[H]

$$$$
92:0:0
     RDKit          3D

 94102  0  0  1  0  0  0  0  0999 V2000
  -28.3300  -22.8140   20.1780 C   0  0  0  0  0  0  0  0  0  0  0  0
  -29.1650  -21.7600   20.2780 N   0  0  0  0  0  0  0  0  0  0  0  0
  -27.1060  -22.6600   20.2070 O   0  0  0  0  0  0  0  0  0  0  0  0
  -30.1600  -21.9280   20.2150 H   0  0  0  0  0  0  0  0  0  0  0  0
  -28.7180  -20.3570   20.4010 C   0  0  0  0  0  2  0  0  0  0  0  0
  -32.0980  -18.6520   21.1850 C   0  0  0  0  0  3  0  0  0  0  0  0
  -31.1310  -19.6480   20.9480 C   0  0  0  0  0  3  0  0  0  0  0  0
  -31.7490  -17.2880   21.1360 C   0  0  0  0  0  3  0  0  0  0  0  0
  -29.7940  -19.2900   20.6610 C   0  0  0  0  0  0  0  0  0  0  0  0
  -30.4190  -16.9010   20.8480 C   0  0  0  0  0  0  0  0  0  0  0  0
  -29.4470  -17.9100   20.6310 C   0  0  0  0  0  0  0  0  0  0  0  0
  -28.1660  -17.5430   20.3780 F   0  0  0  0  0  0  0  0  0  0  0  0
  -30.6780  -14.4940   20.2450 C   0  0  0  0  0  0  0  0  0  0  0  0
  -30.3160  -12.3470   19.0810 C   0  0  0  0  0  2  0  0  0  0  0  0
  -29.3450  -12.5680   17.9050 C   0  0  0  0  0  2  0  0  0  0  0  0
  -27.8860  -12.4250   18.3760 C   0  0  0  0  0  2  0  0  0  0  0  0
  -27.5840  -13.2540   19.6510 C   0  0  0  0  0  3  0  0  0  0  0  0
  -28.6710  -13.0330   20.7300 C   0  0  0  0  0  2  0  0  0  0  0  0
  -29.9800  -13.3300   20.1240 N   0  0  0  0  0  0  0  0  0  0  0  0
  -31.7950  -14.6460   19.7410 O   0  0  0  0  0  0  0  0  0  0  0  0
  -30.0190  -15.5230   20.8160 N   0  0  0  0  0  0  0  0  0  0  0  0
  -29.0580  -15.3420   21.0610 H   0  0  0  0  0  0  0  0  0  0  0  0
  -25.2060  -13.8580   20.4260 C   0  0  0  0  0  0  0  0  0  0  0  0
  -24.1480  -13.0830   20.8180 C   0  0  0  0  0  0  0  0  0  0  0  0
  -24.6080  -11.7320   20.7710 C   0  0  0  0  0  0  0  0  0  0  0  0
  -26.2450  -12.9770   20.1650 N   0  0  0  0  0  0  0  0  0  0  0  0
  -25.8900  -11.6940   20.4300 N   0  0  0  0  0  0  0  0  0  0  0  0
  -23.8870  -10.4680   20.9760 C   0  0  0  0  0  0  0  0  0  0  0  0
  -24.3330   -9.5060   21.9070 C   0  0  0  0  0  3  0  0  0  0  0  0
  -23.6120   -8.3070   22.0990 C   0  0  0  0  0  3  0  0  0  0  0  0
  -22.4310   -8.0640   21.3580 C   0  0  0  0  0  0  0  0  0  0  0  0
  -22.0040   -9.0160   20.4160 C   0  0  0  0  0  3  0  0  0  0  0  0
  -22.7260  -10.2060   20.2230 C   0  0  0  0  0  3  0  0  0  0  0  0
  -21.6800   -6.9170   21.4610 O   0  0  0  0  0  0  0  0  0  0  0  0
  -21.6410   -6.1830   22.6180 C   0  0  0  0  0  0  0  0  0  0  0  0
  -21.2180   -6.7440   23.8440 C   0  0  0  0  0  3  0  0  0  0  0  0
  -21.1270   -5.9350   24.9940 C   0  0  0  0  0  3  0  0  0  0  0  0
  -21.4490   -4.5650   24.9210 C   0  0  0  0  0  0  0  0  0  0  0  0
  -21.8630   -4.0040   23.6990 C   0  0  0  0  0  3  0  0  0  0  0  0
  -21.9560   -4.8100   22.5520 C   0  0  0  0  0  0  0  0  0  0  0  0
  -22.3370   -4.2590   21.3740 F   0  0  0  0  0  0  0  0  0  0  0  0
  -21.3530   -3.7860   26.0220 F   0  0  0  0  0  0  0  0  0  0  0  0
  -22.7570  -13.5590   21.1280 C   0  0  0  0  0  0  0  0  0  0  0  0
  -22.0510  -12.8550   22.0070 N   0  0  0  0  0  0  0  0  0  0  0  0
  -22.3080  -14.5890   20.6290 O   0  0  0  0  0  0  0  0  0  0  0  0
  -22.4250  -12.0200   22.4300 H   0  0  0  0  0  0  0  0  0  0  0  0
  -21.1210  -13.1560   22.2570 H   0  0  0  0  0  0  0  0  0  0  0  0
  -25.3670  -15.2300   20.2510 N   0  0  0  0  0  0  0  0  0  0  0  0
  -24.6060  -15.8840   20.3970 H   0  0  0  0  0  0  0  0  0  0  0  0
  -26.2190  -15.6810   19.9400 H   0  0  0  0  0  0  0  0  0  0  0  0
  -28.9140  -24.2360   19.9780 C   0  0  0  0  0  2  0  0  0  0  0  0
  -28.6720  -25.4510   22.2340 C   0  0  0  0  0  1  0  0  0  0  0  0
  -28.1850  -25.3620   20.7800 C   0  0  0  0  0  3  0  0  0  0  0  0
  -28.3460  -26.6740   20.1890 O   0  0  0  0  0  0  0  0  0  0  0  0
  -24.5790  -31.9070   23.2450 C   0  0  0  0  0  0  0  0  0  0  0  0
  -27.2020  -27.4500   20.1640 C   0  0  0  0  0  0  0  0  0  0  0  0
  -23.3660  -30.5070   21.6090 C   0  0  0  0  0  3  0  0  0  0  0  0
  -24.8120  -28.9710   20.1720 C   0  0  0  0  0  0  0  0  0  0  0  0
  -25.8940  -30.8610   21.4020 C   0  0  0  0  0  2  0  0  0  0  0  0
  -25.9760  -29.4910   20.7570 C   0  0  0  0  0  0  0  0  0  0  0  0
  -27.1770  -28.7410   20.7450 C   0  0  0  0  0  3  0  0  0  0  0  0
  -26.0270  -26.9580   19.5560 C   0  0  0  0  0  3  0  0  0  0  0  0
  -24.8350  -27.7050   19.5650 C   0  0  0  0  0  3  0  0  0  0  0  0
  -23.5680  -29.8280   20.2280 C   0  0  0  0  0  2  0  0  0  0  0  0
  -24.6320  -31.1060   22.1440 N   0  0  0  0  0  0  0  0  0  0  0  0
  -23.5010  -32.1830   23.7890 O   0  0  0  0  0  0  0  0  0  0  0  0
  -22.7170  -29.4860   22.5700 C   0  0  0  0  0  0  0  0  0  0  0  0
  -21.3920  -29.3090   22.4480 N   0  0  0  0  0  0  0  0  0  0  0  0
  -23.4040  -28.8580   23.3800 O   0  0  0  0  0  0  0  0  0  0  0  0
  -20.9000  -29.8700   21.7680 H   0  0  0  0  0  0  0  0  0  0  0  0
  -18.0150  -28.1230   22.9550 C   0  0  0  0  0  0  0  0  0  0  0  0
  -20.5740  -28.3730   23.2200 C   0  0  0  0  0  3  0  0  0  0  0  0
  -20.6700  -26.9420   22.6420 C   0  0  0  0  0  2  0  0  0  0  0  0
  -19.5650  -26.6230   21.6310 C   0  0  0  0  0  2  0  0  0  0  0  0
  -18.1860  -26.7720   22.2790 C   0  0  0  0  0  2  0  0  0  0  0  0
  -19.1360  -28.8810   23.3820 C   0  0  0  0  0  0  0  0  0  0  0  0
  -18.9240  -30.1450   23.9740 C   0  0  0  0  0  3  0  0  0  0  0  0
  -17.6220  -30.6530   24.1420 C   0  0  0  0  0  3  0  0  0  0  0  0
  -16.5140  -29.8900   23.7340 C   0  0  0  0  0  3  0  0  0  0  0  0
  -16.7110  -28.6270   23.1460 C   0  0  0  0  0  3  0  0  0  0  0  0
  -25.8690  -32.5360   23.8600 C   0  0  0  0  0  3  0  0  0  0  0  0
  -26.3910  -31.7640   25.1330 C   0  0  1  0  0  0  0  0  0  0  0  0
  -25.3040  -31.5260   26.2060 C   0  0  0  0  0  1  0  0  0  0  0  0
  -26.9730  -30.3860   24.7390 C   0  0  0  0  0  1  0  0  0  0  0  0
  -27.5460  -32.5580   25.7920 C   0  0  0  0  0  1  0  0  0  0  0  0
  -25.5650  -33.9340   24.1880 N   0  0  0  0  0  0  0  0  0  0  0  0
  -25.9000  -34.9860   23.4270 C   0  0  0  0  0  0  0  0  0  0  0  0
  -26.5690  -34.8790   22.3960 O   0  0  0  0  0  0  0  0  0  0  0  0
  -24.9710  -34.0910   24.9890 H   0  0  0  0  0  0  0  0  0  0  0  0
  -24.1800  -36.7840   23.0660 C   0  0  0  0  0  1  0  0  0  0  0  0
  -25.4160  -36.3750   23.8810 C   0  0  0  0  0  3  0  0  0  0  0  0
  -27.5530  -37.2510   24.7190 C   0  0  0  0  0  1  0  0  0  0  0  0
  -26.4540  -37.4230   23.7730 N   0  0  0  0  0  0  0  0  0  0  0  0
  -26.0520  -38.3440   23.9210 H   0  0  0  0  0  0  0  0  0  0  0  0
  1  3  2  0
  1  2  1  0
  2  5  1  0
  4  2  1  0
  5  9  1  0
  7  6  2  0
  8  6  1  0
  9  7  1  0
 10  8  2  0
 11  9  2  0
 11 10  1  0
 12 11  1  0
 13 21  1  0
 14 19  1  0
 15 16  1  0
 15 14  1  0
 17 16  1  0
 17 26  1  0
 17 18  1  0
 19 13  1  0
 19 18  1  0
 20 13  2  0
 21 10  1  0
 21 22  1  0
 23 24  2  0
 24 43  1  0
 25 24  1  0
 25 28  1  0
 26 23  1  0
 26 27  1  0
 27 25  2  0
 28 29  1  0
 29 30  2  0
 31 34  1  0
 31 30  1  0
 32 31  2  0
 33 32  1  0
 33 28  2  0
 34 35  1  0
 35 36  1  0
 36 37  2  0
 38 37  1  0
 38 42  1  0
 39 38  2  0
 40 35  2  0
 40 39  1  0
 41 40  1  0
 43 44  1  0
 44 47  1  0
 44 46  1  0
 45 43  2  0
 48 49  1  0
 48 23  1  0
 50 48  1  0
 51  1  1  0
 51 53  1  0
 53 52  1  0
 54 53  1  0
 55 66  2  0
 56 54  1  0
 56 61  1  0
 57 65  1  0
 57 67  1  0
 58 64  1  0
 58 60  1  0
 59 65  1  0
 60 59  1  0
 61 60  2  0
 62 63  1  0
 62 56  2  0
 63 58  2  0
 64 57  1  0
 65 55  1  0
 67 69  2  0
 68 67  1  0
 70 68  1  0
 71 80  2  0
 71 76  1  0
 72 68  1  0
 72 76  1  0
 73 72  1  0
 74 75  1  0
 74 73  1  0
 75 71  1  0
 76 77  2  0
 77 78  1  0
 79 78  2  0
 80 79  1  0
 81 55  1  0
 81 86  1  0
 81 82  1  0
 82 85  1  1
 82 83  1  0
 84 82  1  0
 86 89  1  0
 87 91  1  0
 87 86  1  0
 88 87  2  0
 91 90  1  0
 93 91  1  0
 93 94  1  0
 93 92  1  0
M  ISO  4  13 100  21 100  53 101  54 101
M  END
>  <TORSDO>  (93) 
F 20

>  <SCORE>  (93) 
-14.252

>  <name>  (93) 
92

>  <ligand_id>  (93) 
92

>  <original_smiles>  (93) 
[H]c1c([H])c(N([H])C(=O)N2C([H])([H])C([H])([H])C([H])([H])C([H])(n3nc(-c4c([H])c([H])c(Oc5c([H])c([H])c(F)c([H])c5F)c([H])c4[H])c(C(=O)N([H])[H])c3N([H])[H])C2([H])[H])c(F)c(C([H])([H])N([H])C(=O)C([H])([H])C([H])(Oc2c([H])c([H])c3c(c2[H])C([H])([H])N(C(=O)C([H])(N([H])C(=O)C([H])(N([H])C([H])([H])[H])C([H])([H])[H])C(C([H])([H])[H])(C([H])([H])[H])C([H])([H])[H])C([H])(C(=O)N([H])C2([H])c4c([H])c([H])c([H])c([H])c4C([H])([H])C([H])([H])C2([H])[H])C3([H])[H])C([H])([H])[H])c1[H]

>  <smiles>  (93) 
[H]c1c([H])c(N([H])C(=O)N2C([H])([H])C([H])([H])C([H])([H])C([H])(n3nc(-c4c([H])c([H])c(Oc5c([H])c([H])c(F)c([H])c5F)c([H])c4[H])c(C(=O)N([H])[H])c3N([H])[H])C2([H])[H])c(F)c(C([H])([H])N([H])C(=O)C([H])([H])C([H])(Oc2c([H])c([H])c3c(c2[H])C([H])([H])N(C(=O)C([H])(N([H])C(=O)C([H])(N([H])C([H])([H])[H])C([H])([H])[H])C(C([H])([H])[H])(C([H])([H])[H])C([H])([H])[H])C([H])(C(=O)N([H])C2([H])c4c([H])c([H])c([H])c([H])c4C([H])([H])C([H])([H])C2([H])[H])C3([H])[H])C([H])([H])[H])c1[H]

$$$$
93:0:0
     RDKit          3D

 96104  0  0  1  0  0  0  0  0999 V2000
  -28.4150  -18.1600   19.7470 C   0  0  0  0  0  3  0  0  0  0  0  0
  -28.1220  -19.4700   19.2510 C   0  0  0  0  0  0  0  0  0  0  0  0
  -29.4090  -18.2550   20.6800 C   0  0  0  0  0  0  0  0  0  0  0  0
  -28.9610  -20.3190   19.9440 C   0  0  0  0  0  0  0  0  0  0  0  0
  -29.7380  -19.5990   20.8310 O   0  0  0  0  0  0  0  0  0  0  0  0
  -27.1390  -19.7930   18.1790 C   0  0  0  0  0  0  0  0  0  0  0  0
  -26.5550  -18.8820   17.5780 O   0  0  0  0  0  0  0  0  0  0  0  0
  -26.7420  -21.2470   17.8530 C   0  0  0  0  0  0  0  0  0  0  0  0
  -25.2790  -21.6220   18.0700 C   0  0  0  0  0  1  0  0  0  0  0  0
  -27.5500  -22.0630   17.3920 O   0  0  0  0  0  0  0  0  0  0  0  0
  -29.2280  -21.6880   19.6720 N   0  0  0  0  0  0  0  0  0  0  0  0
  -28.9130  -22.0280   18.7640 H   0  0  0  0  0  0  0  0  0  0  0  0
  -29.0720  -22.7790   20.6670 C   0  0  0  0  0  2  0  0  0  0  0  0
  -28.9810  -24.2200   20.0450 C   0  0  0  0  0  0  0  0  0  0  0  0
  -29.1680  -24.3800   18.8320 O   0  0  0  0  0  0  0  0  0  0  0  0
  -28.6160  -25.4320   20.9640 C   0  0  0  0  0  2  0  0  0  0  0  0
  -28.7420  -26.7600   20.3510 O   0  0  0  0  0  0  0  0  0  0  0  0
  -24.6270  -31.8660   23.2930 C   0  0  0  0  0  0  0  0  0  0  0  0
  -27.5820  -27.5200   20.3010 C   0  0  0  0  0  0  0  0  0  0  0  0
  -23.5680  -30.4510   21.5660 C   0  0  0  0  0  3  0  0  0  0  0  0
  -25.1530  -28.9870   20.1980 C   0  0  0  0  0  0  0  0  0  0  0  0
  -26.0920  -30.8910   21.5140 C   0  0  0  0  0  2  0  0  0  0  0  0
  -26.2630  -29.5310   20.8550 C   0  0  0  0  0  0  0  0  0  0  0  0
  -27.4860  -28.8080   20.8970 C   0  0  0  0  0  3  0  0  0  0  0  0
  -26.4530  -27.0070   19.6300 C   0  0  0  0  0  3  0  0  0  0  0  0
  -25.2460  -27.7290   19.5780 C   0  0  0  0  0  3  0  0  0  0  0  0
  -23.8800  -29.8060   20.1900 C   0  0  0  0  0  2  0  0  0  0  0  0
  -24.7780  -31.0850   22.1830 N   0  0  0  0  0  0  0  0  0  0  0  0
  -23.5080  -32.0880   23.7760 O   0  0  0  0  0  0  0  0  0  0  0  0
  -22.9010  -29.3910   22.4730 C   0  0  0  0  0  0  0  0  0  0  0  0
  -21.5930  -29.1640   22.2710 N   0  0  0  0  0  0  0  0  0  0  0  0
  -23.5620  -28.7770   23.3160 O   0  0  0  0  0  0  0  0  0  0  0  0
  -21.1210  -29.7180   21.5710 H   0  0  0  0  0  0  0  0  0  0  0  0
  -18.2330  -27.8630   22.6000 C   0  0  0  0  0  0  0  0  0  0  0  0
  -20.7710  -28.1810   22.9790 C   0  0  0  0  0  3  0  0  0  0  0  0
  -20.9350  -26.7690   22.3680 C   0  0  0  0  0  2  0  0  0  0  0  0
  -19.8800  -26.4490   21.3030 C   0  0  0  0  0  2  0  0  0  0  0  0
  -18.4730  -26.5370   21.8990 C   0  0  0  0  0  2  0  0  0  0  0  0
  -19.3130  -28.6420   23.0940 C   0  0  0  0  0  0  0  0  0  0  0  0
  -19.0380  -29.8810   23.7100 C   0  0  0  0  0  3  0  0  0  0  0  0
  -17.7140  -30.3440   23.8390 C   0  0  0  0  0  3  0  0  0  0  0  0
  -16.6490  -29.5620   23.3600 C   0  0  0  0  0  3  0  0  0  0  0  0
  -16.9080  -28.3240   22.7470 C   0  0  0  0  0  3  0  0  0  0  0  0
  -25.8500  -32.5360   23.9920 C   0  0  0  0  0  3  0  0  0  0  0  0
  -25.5000  -33.9390   24.2500 N   0  0  0  0  0  0  0  0  0  0  0  0
  -25.9000  -34.9740   23.4970 C   0  0  0  0  0  0  0  0  0  0  0  0
  -26.6680  -34.8450   22.5400 O   0  0  0  0  0  0  0  0  0  0  0  0
  -24.8260  -34.1090   24.9820 H   0  0  0  0  0  0  0  0  0  0  0  0
  -24.2140  -36.7460   22.9100 C   0  0  0  0  0  1  0  0  0  0  0  0
  -25.3610  -36.3700   23.8620 C   0  0  0  0  0  3  0  0  0  0  0  0
  -27.3830  -37.2960   24.9040 C   0  0  0  0  0  1  0  0  0  0  0  0
  -26.3970  -37.4270   23.8340 N   0  0  0  0  0  0  0  0  0  0  0  0
  -25.9740  -38.3480   23.9030 H   0  0  0  0  0  0  0  0  0  0  0  0
  -26.2710  -31.8130   25.3290 C   0  0  1  0  0  0  0  0  0  0  0  0
  -25.1010  -31.5870   26.3140 C   0  0  0  0  0  1  0  0  0  0  0  0
  -26.9060  -30.4370   25.0280 C   0  0  0  0  0  1  0  0  0  0  0  0
  -27.3540  -32.6470   26.0560 C   0  0  0  0  0  1  0  0  0  0  0  0
  -30.1770  -17.2080   21.4910 C   0  0  0  0  0  2  0  0  0  0  0  0
  -30.5430  -14.7800   20.7510 C   0  0  0  0  0  0  0  0  0  0  0  0
  -30.2820  -12.7290   19.3830 C   0  0  0  0  0  2  0  0  0  0  0  0
  -29.3250  -13.0350   18.2090 C   0  0  0  0  0  2  0  0  0  0  0  0
  -27.8590  -12.8240   18.6360 C   0  0  0  0  0  2  0  0  0  0  0  0
  -27.5210  -13.5290   19.9760 C   0  0  0  0  0  3  0  0  0  0  0  0
  -28.5850  -13.2180   21.0520 C   0  0  0  0  0  2  0  0  0  0  0  0
  -29.8950  -13.6030   20.5060 N   0  0  0  0  0  0  0  0  0  0  0  0
  -31.6940  -14.9850   20.3610 O   0  0  0  0  0  0  0  0  0  0  0  0
  -29.7880  -15.7820   21.2760 N   0  0  0  0  0  0  0  0  0  0  0  0
  -28.8510  -15.5290   21.5500 H   0  0  0  0  0  0  0  0  0  0  0  0
  -25.0910  -14.0360   20.6340 C   0  0  0  0  0  0  0  0  0  0  0  0
  -24.0460  -13.2210   20.9760 C   0  0  0  0  0  0  0  0  0  0  0  0
  -24.5600  -11.8890   20.9550 C   0  0  0  0  0  0  0  0  0  0  0  0
  -26.1730  -13.1970   20.4260 N   0  0  0  0  0  0  0  0  0  0  0  0
  -25.8570  -11.9020   20.6780 N   0  0  0  0  0  0  0  0  0  0  0  0
  -23.8780  -10.6000   21.1260 C   0  0  0  0  0  0  0  0  0  0  0  0
  -24.3160   -9.6540   22.0800 C   0  0  0  0  0  3  0  0  0  0  0  0
  -23.6340   -8.4290   22.2390 C   0  0  0  0  0  3  0  0  0  0  0  0
  -22.5000   -8.1400   21.4440 C   0  0  0  0  0  0  0  0  0  0  0  0
  -22.0800   -9.0750   20.4830 C   0  0  0  0  0  3  0  0  0  0  0  0
  -22.7630  -10.2920   20.3220 C   0  0  0  0  0  3  0  0  0  0  0  0
  -21.7880   -6.9660   21.5140 O   0  0  0  0  0  0  0  0  0  0  0  0
  -21.7380   -6.2230   22.6660 C   0  0  0  0  0  0  0  0  0  0  0  0
  -21.2390   -6.7530   23.8740 C   0  0  0  0  0  3  0  0  0  0  0  0
  -21.1400   -5.9340   25.0160 C   0  0  0  0  0  3  0  0  0  0  0  0
  -21.5300   -4.5840   24.9500 C   0  0  0  0  0  0  0  0  0  0  0  0
  -22.0240   -4.0510   23.7470 C   0  0  0  0  0  3  0  0  0  0  0  0
  -22.1250   -4.8690   22.6070 C   0  0  0  0  0  0  0  0  0  0  0  0
  -22.5810   -4.3460   21.4430 F   0  0  0  0  0  0  0  0  0  0  0  0
  -21.4270   -3.7930   26.0440 F   0  0  0  0  0  0  0  0  0  0  0  0
  -22.6250  -13.6420   21.2090 C   0  0  0  0  0  0  0  0  0  0  0  0
  -21.9020  -12.9200   22.0570 N   0  0  0  0  0  0  0  0  0  0  0  0
  -22.1590  -14.6470   20.6720 O   0  0  0  0  0  0  0  0  0  0  0  0
  -22.2860  -12.1030   22.5110 H   0  0  0  0  0  0  0  0  0  0  0  0
  -20.9510  -13.1890   22.2610 H   0  0  0  0  0  0  0  0  0  0  0  0
  -25.2060  -15.4110   20.4610 N   0  0  0  0  0  0  0  0  0  0  0  0
  -24.4140  -16.0360   20.5540 H   0  0  0  0  0  0  0  0  0  0  0  0
  -26.0370  -15.8690   20.1150 H   0  0  0  0  0  0  0  0  0  0  0  0
  1  3  2  0
  2  1  1  0
  2  4  2  0
  3  5  1  0
  3 58  1  0
  4  5  1  0
  6  2  1  0
  7  6  2  0
  8  9  1  0
  8  6  1  0
 10  8  2  0
 11  4  1  0
 11 13  1  0
 12 11  1  0
 14 13  1  0
 14 16  1  0
 15 14  2  0
 17 16  1  0
 18 29  2  0
 19 17  1  0
 19 24  1  0
 20 28  1  0
 20 30  1  0
 21 23  1  0
 22 28  1  0
 23 24  2  0
 23 22  1  0
 25 19  2  0
 26 25  1  0
 26 21  2  0
 27 21  1  0
 27 20  1  0
 28 18  1  0
 30 32  2  0
 31 30  1  0
 33 31  1  0
 34 43  2  0
 34 39  1  0
 35 31  1  0
 35 39  1  0
 36 35  1  0
 37 38  1  0
 37 36  1  0
 38 34  1  0
 39 40  2  0
 40 41  1  0
 42 41  2  0
 43 42  1  0
 44 18  1  0
 44 45  1  0
 44 54  1  0
 45 48  1  0
 46 50  1  0
 46 45  1  0
 47 46  2  0
 50 49  1  0
 52 50  1  0
 52 53  1  0
 52 51  1  0
 54 57  1  1
 54 55  1  0
 56 54  1  0
 59 67  1  0
 60 65  1  0
 61 62  1  0
 61 60  1  0
 63 62  1  0
 63 72  1  0
 63 64  1  0
 65 59  1  0
 65 64  1  0
 66 59  2  0
 67 58  1  0
 67 68  1  0
 69 70  2  0
 70 89  1  0
 71 70  1  0
 71 74  1  0
 72 69  1  0
 72 73  1  0
 73 71  2  0
 74 75  1  0
 75 76  2  0
 77 80  1  0
 77 76  1  0
 78 77  2  0
 79 78  1  0
 79 74  2  0
 80 81  1  0
 81 82  1  0
 82 83  2  0
 84 83  1  0
 84 88  1  0
 85 84  2  0
 86 81  2  0
 86 85  1  0
 87 86  1  0
 89 90  1  0
 90 93  1  0
 90 92  1  0
 91 89  2  0
 94 95  1  0
 94 69  1  0
 96 94  1  0
M  ISO  4  16 101  17 101  59 100  67 100
M  END
>  <TORSDO>  (94) 
F 23

>  <SCORE>  (94) 
-12.722

>  <name>  (94) 
93

>  <ligand_id>  (94) 
93

>  <original_smiles>  (94) 
[H]c1c([H])c([H])c2c(c1[H])C([H])([H])C([H])([H])C([H])([H])C2([H])N([H])C(=O)C1([H])N(C(=O)C([H])(N([H])C(=O)C([H])(N([H])C([H])([H])[H])C([H])([H])[H])C(C([H])([H])[H])(C([H])([H])[H])C([H])([H])[H])C([H])([H])c2c([H])c(OC([H])([H])C(=O)C([H])([H])N([H])c3oc(C([H])([H])N([H])C(=O)N4C([H])([H])C([H])([H])C([H])([H])C([H])(n5nc(-c6c([H])c([H])c(Oc7c([H])c([H])c(F)c([H])c7F)c([H])c6[H])c(C(=O)N([H])[H])c5N([H])[H])C4([H])[H])c([H])c3C(=O)C(=O)C([H])([H])[H])c([H])c([H])c2C1([H])[H]

>  <smiles>  (94) 
[H]c1c([H])c([H])c2c(c1[H])C([H])([H])C([H])([H])C([H])([H])C2([H])N([H])C(=O)C1([H])N(C(=O)C([H])(N([H])C(=O)C([H])(N([H])C([H])([H])[H])C([H])([H])[H])C(C([H])([H])[H])(C([H])([H])[H])C([H])([H])[H])C([H])([H])c2c([H])c(OC([H])([H])C(=O)C([H])([H])N([H])c3oc(C([H])([H])N([H])C(=O)N4C([H])([H])C([H])([H])C([H])([H])C([H])(n5nc(-c6c([H])c([H])c(Oc7c([H])c([H])c(F)c([H])c7F)c([H])c6[H])c(C(=O)N([H])[H])c5N([H])[H])C4([H])[H])c([H])c3C(=O)C(=O)C([H])([H])[H])c([H])c([H])c2C1([H])[H]

$$$$
94:0:0
     RDKit          3D

 93101  0  0  1  0  0  0  0  0999 V2000
  -27.7620  -22.1460   19.6000 C   0  0  0  0  0  3  0  0  0  0  0  0
  -29.1320  -23.9670   20.2790 C   0  0  0  0  0  0  0  0  0  0  0  0
  -28.9410  -22.6000   20.0840 N   0  0  0  0  0  0  0  0  0  0  0  0
  -27.6290  -21.1400   18.8940 O   0  0  0  0  0  0  0  0  0  0  0  0
  -30.2040  -24.3900   20.7280 O   0  0  0  0  0  0  0  0  0  0  0  0
  -30.1090  -21.6430   20.2370 C   0  0  0  0  0  2  0  0  0  0  0  0
  -29.0440  -19.3500   21.0290 C   0  0  0  0  0  3  0  0  0  0  0  0
  -29.0620  -17.9280   21.1170 C   0  0  0  0  0  3  0  0  0  0  0  0
  -30.9950  -17.8460   19.6900 C   0  0  0  0  0  3  0  0  0  0  0  0
  -30.0060  -20.0650   20.2660 C   0  0  0  0  0  0  0  0  0  0  0  0
  -30.0380  -17.1320   20.4590 C   0  0  0  0  0  0  0  0  0  0  0  0
  -30.9810  -19.2680   19.6020 C   0  0  0  0  0  0  0  0  0  0  0  0
  -31.9480  -19.8710   18.8700 F   0  0  0  0  0  0  0  0  0  0  0  0
  -30.7340  -14.6630   20.0670 C   0  0  0  0  0  0  0  0  0  0  0  0
  -30.4740  -12.4440   18.9790 C   0  0  0  0  0  2  0  0  0  0  0  0
  -29.4700  -12.6120   17.8150 C   0  0  0  0  0  2  0  0  0  0  0  0
  -28.0190  -12.4360   18.3140 C   0  0  0  0  0  2  0  0  0  0  0  0
  -27.7270  -13.2750   19.5850 C   0  0  0  0  0  3  0  0  0  0  0  0
  -28.8400  -13.0880   20.6430 C   0  0  0  0  0  2  0  0  0  0  0  0
  -30.1230  -13.4380   20.0120 N   0  0  0  0  0  0  0  0  0  0  0  0
  -31.8490  -14.8450   19.5690 O   0  0  0  0  0  0  0  0  0  0  0  0
  -29.9800  -15.6770   20.5920 N   0  0  0  0  0  0  0  0  0  0  0  0
  -29.1550  -15.3360   21.0660 H   0  0  0  0  0  0  0  0  0  0  0  0
  -25.3780  -13.8660   20.4520 C   0  0  0  0  0  0  0  0  0  0  0  0
  -24.3300  -13.0890   20.8630 C   0  0  0  0  0  0  0  0  0  0  0  0
  -24.7820  -11.7370   20.7650 C   0  0  0  0  0  0  0  0  0  0  0  0
  -26.4020  -12.9890   20.1320 N   0  0  0  0  0  0  0  0  0  0  0  0
  -26.0510  -11.7010   20.3790 N   0  0  0  0  0  0  0  0  0  0  0  0
  -24.0590  -10.4740   20.9640 C   0  0  0  0  0  0  0  0  0  0  0  0
  -24.4990   -9.5130   21.9000 C   0  0  0  0  0  3  0  0  0  0  0  0
  -23.7790   -8.3130   22.0840 C   0  0  0  0  0  3  0  0  0  0  0  0
  -22.6050   -8.0650   21.3320 C   0  0  0  0  0  0  0  0  0  0  0  0
  -22.1850   -9.0180   20.3880 C   0  0  0  0  0  3  0  0  0  0  0  0
  -22.9050  -10.2090   20.2010 C   0  0  0  0  0  3  0  0  0  0  0  0
  -21.8540   -6.9180   21.4270 O   0  0  0  0  0  0  0  0  0  0  0  0
  -21.7470   -6.2220   22.6050 C   0  0  0  0  0  0  0  0  0  0  0  0
  -21.2370   -6.8170   23.7790 C   0  0  0  0  0  3  0  0  0  0  0  0
  -21.0780   -6.0460   24.9470 C   0  0  0  0  0  3  0  0  0  0  0  0
  -21.4220   -4.6800   24.9440 C   0  0  0  0  0  0  0  0  0  0  0  0
  -21.9230   -4.0840   23.7730 C   0  0  0  0  0  3  0  0  0  0  0  0
  -22.0840   -4.8530   22.6060 C   0  0  0  0  0  0  0  0  0  0  0  0
  -22.5490   -4.2670   21.4760 F   0  0  0  0  0  0  0  0  0  0  0  0
  -21.2640   -3.9390   26.0630 F   0  0  0  0  0  0  0  0  0  0  0  0
  -22.9550  -13.5660   21.2310 C   0  0  0  0  0  0  0  0  0  0  0  0
  -22.2770  -12.8540   22.1260 N   0  0  0  0  0  0  0  0  0  0  0  0
  -22.4930  -14.6040   20.7580 O   0  0  0  0  0  0  0  0  0  0  0  0
  -22.6700  -12.0190   22.5350 H   0  0  0  0  0  0  0  0  0  0  0  0
  -21.3560  -13.1540   22.4090 H   0  0  0  0  0  0  0  0  0  0  0  0
  -25.5420  -15.2400   20.3080 N   0  0  0  0  0  0  0  0  0  0  0  0
  -24.7810  -15.8910   20.4710 H   0  0  0  0  0  0  0  0  0  0  0  0
  -26.3710  -15.6900   19.9440 H   0  0  0  0  0  0  0  0  0  0  0  0
  -28.0310  -25.0470   19.9140 C   0  0  0  0  0  2  0  0  0  0  0  0
  -28.3320  -26.4840   20.1540 O   0  0  0  0  0  0  0  0  0  0  0  0
  -24.6170  -31.8360   23.2440 C   0  0  0  0  0  0  0  0  0  0  0  0
  -27.2340  -27.3590   20.0920 C   0  0  0  0  0  0  0  0  0  0  0  0
  -23.4170  -30.4760   21.5730 C   0  0  0  0  0  3  0  0  0  0  0  0
  -24.8710  -28.9720   20.1080 C   0  0  0  0  0  0  0  0  0  0  0  0
  -25.9550  -30.8050   21.3970 C   0  0  0  0  0  2  0  0  0  0  0  0
  -26.0400  -29.4440   20.7210 C   0  0  0  0  0  0  0  0  0  0  0  0
  -27.2250  -28.6500   20.7070 C   0  0  0  0  0  3  0  0  0  0  0  0
  -26.0430  -26.9550   19.4380 C   0  0  0  0  0  3  0  0  0  0  0  0
  -24.8750  -27.7310   19.4590 C   0  0  0  0  0  3  0  0  0  0  0  0
  -23.6310  -29.8370   20.1780 C   0  0  0  0  0  2  0  0  0  0  0  0
  -24.6830  -31.0540   22.1290 N   0  0  0  0  0  0  0  0  0  0  0  0
  -23.5330  -32.0990   23.7840 O   0  0  0  0  0  0  0  0  0  0  0  0
  -22.7580  -29.4320   22.5070 C   0  0  0  0  0  0  0  0  0  0  0  0
  -21.4320  -29.2550   22.3750 N   0  0  0  0  0  0  0  0  0  0  0  0
  -23.4380  -28.7870   23.3080 O   0  0  0  0  0  0  0  0  0  0  0  0
  -20.9440  -29.8270   21.7000 H   0  0  0  0  0  0  0  0  0  0  0  0
  -18.0520  -28.0610   22.8560 C   0  0  0  0  0  0  0  0  0  0  0  0
  -20.6130  -28.3010   23.1250 C   0  0  0  0  0  3  0  0  0  0  0  0
  -20.7060  -26.8860   22.5090 C   0  0  0  0  0  2  0  0  0  0  0  0
  -19.5990  -26.5950   21.4900 C   0  0  0  0  0  2  0  0  0  0  0  0
  -18.2210  -26.7290   22.1440 C   0  0  0  0  0  2  0  0  0  0  0  0
  -19.1760  -28.8060   23.3020 C   0  0  0  0  0  0  0  0  0  0  0  0
  -18.9650  -30.0540   23.9270 C   0  0  0  0  0  3  0  0  0  0  0  0
  -17.6640  -30.5560   24.1130 C   0  0  0  0  0  3  0  0  0  0  0  0
  -16.5540  -29.8070   23.6860 C   0  0  0  0  0  3  0  0  0  0  0  0
  -16.7500  -28.5620   23.0610 C   0  0  0  0  0  3  0  0  0  0  0  0
  -25.8990  -32.4570   23.8820 C   0  0  0  0  0  3  0  0  0  0  0  0
  -26.3980  -31.6710   25.1560 C   0  0  1  0  0  0  0  0  0  0  0  0
  -25.2920  -31.4310   26.2110 C   0  0  0  0  0  1  0  0  0  0  0  0
  -26.9750  -30.2940   24.7580 C   0  0  0  0  0  1  0  0  0  0  0  0
  -27.5460  -32.4520   25.8360 C   0  0  0  0  0  1  0  0  0  0  0  0
  -25.5920  -33.8530   24.2210 N   0  0  0  0  0  0  0  0  0  0  0  0
  -25.9020  -34.9080   23.4570 C   0  0  0  0  0  0  0  0  0  0  0  0
  -26.5460  -34.8090   22.4080 O   0  0  0  0  0  0  0  0  0  0  0  0
  -25.0130  -34.0010   25.0360 H   0  0  0  0  0  0  0  0  0  0  0  0
  -24.1430  -36.6860   23.1740 C   0  0  0  0  0  1  0  0  0  0  0  0
  -25.4230  -36.2950   23.9290 C   0  0  0  0  0  3  0  0  0  0  0  0
  -27.5820  -37.2080   24.6640 C   0  0  0  0  0  1  0  0  0  0  0  0
  -26.4390  -37.3570   23.7660 N   0  0  0  0  0  0  0  0  0  0  0  0
  -26.0290  -38.2750   23.9220 H   0  0  0  0  0  0  0  0  0  0  0  0
  1  3  1  0
  2  5  2  0
  3  6  1  0
  3  2  1  0
  4  1  2  0
  6 10  1  0
  7  8  1  0
  9 11  1  0
 10  7  2  0
 11 22  1  0
 11  8  2  0
 12  9  2  0
 12 10  1  0
 13 12  1  0
 14 22  1  0
 15 20  1  0
 16 17  1  0
 16 15  1  0
 18 17  1  0
 18 27  1  0
 18 19  1  0
 20 14  1  0
 20 19  1  0
 21 14  2  0
 22 23  1  0
 24 25  2  0
 25 44  1  0
 26 25  1  0
 26 29  1  0
 27 28  1  0
 27 24  1  0
 28 26  2  0
 29 30  1  0
 30 31  2  0
 32 35  1  0
 32 31  1  0
 33 32  2  0
 34 33  1  0
 34 29  2  0
 35 36  1  0
 36 41  2  0
 36 37  1  0
 37 38  2  0
 39 38  1  0
 39 43  1  0
 40 39  2  0
 41 40  1  0
 42 41  1  0
 44 45  1  0
 45 48  1  0
 45 47  1  0
 46 44  2  0
 49 24  1  0
 49 50  1  0
 51 49  1  0
 52 53  1  0
 52  2  1  0
 54 65  2  0
 55 53  1  0
 55 60  1  0
 56 64  1  0
 56 66  1  0
 57 63  1  0
 57 59  1  0
 58 64  1  0
 59 58  1  0
 60 59  2  0
 61 62  1  0
 61 55  2  0
 62 57  2  0
 63 56  1  0
 64 54  1  0
 66 68  2  0
 67 66  1  0
 69 67  1  0
 70 79  2  0
 70 75  1  0
 71 67  1  0
 71 75  1  0
 72 71  1  0
 73 74  1  0
 73 72  1  0
 74 70  1  0
 75 76  2  0
 76 77  1  0
 78 77  2  0
 79 78  1  0
 80 54  1  0
 80 85  1  0
 80 81  1  0
 81 84  1  1
 81 82  1  0
 83 81  1  0
 85 88  1  0
 86 90  1  0
 86 85  1  0
 87 86  2  0
 90 89  1  0
 92 93  1  0
 92 90  1  0
 92 91  1  0
M  ISO  4  14 100  22 100  52 101  53 101
M  END
>  <TORSDO>  (95) 
F 19

>  <SCORE>  (95) 
-13.813

>  <name>  (95) 
94

>  <ligand_id>  (95) 
94

>  <original_smiles>  (95) 
[H]C(=O)N(C(=O)C([H])([H])Oc1c([H])c([H])c2c(c1[H])C([H])([H])N(C(=O)C([H])(N([H])C(=O)C([H])(N([H])C([H])([H])[H])C([H])([H])[H])C(C([H])([H])[H])(C([H])([H])[H])C([H])([H])[H])C([H])(C(=O)N([H])C1([H])c3c([H])c([H])c([H])c([H])c3C([H])([H])C([H])([H])C1([H])[H])C2([H])[H])C([H])([H])c1c([H])c([H])c(N([H])C(=O)N2C([H])([H])C([H])([H])C([H])([H])C([H])(n3nc(-c4c([H])c([H])c(Oc5c([H])c([H])c(F)c([H])c5F)c([H])c4[H])c(C(=O)N([H])[H])c3N([H])[H])C2([H])[H])c([H])c1F

>  <smiles>  (95) 
[H]C(=O)N(C(=O)C([H])([H])Oc1c([H])c([H])c2c(c1[H])C([H])([H])N(C(=O)C([H])(N([H])C(=O)C([H])(N([H])C([H])([H])[H])C([H])([H])[H])C(C([H])([H])[H])(C([H])([H])[H])C([H])([H])[H])C([H])(C(=O)N([H])C1([H])c3c([H])c([H])c([H])c([H])c3C([H])([H])C([H])([H])C1([H])[H])C2([H])[H])C([H])([H])c1c([H])c([H])c(N([H])C(=O)N2C([H])([H])C([H])([H])C([H])([H])C([H])(n3nc(-c4c([H])c([H])c(Oc5c([H])c([H])c(F)c([H])c5F)c([H])c4[H])c(C(=O)N([H])[H])c3N([H])[H])C2([H])[H])c([H])c1F

$$$$
95:0:0
     RDKit          3D

 94102  0  0  1  0  0  0  0  0999 V2000
  -30.7020  -14.5800   20.4610 C   0  0  0  0  0  0  0  0  0  0  0  0
  -30.4570  -12.3830   19.3430 C   0  0  0  0  0  2  0  0  0  0  0  0
  -29.5360  -12.5440   18.1150 C   0  0  0  0  0  2  0  0  0  0  0  0
  -28.0540  -12.3980   18.5150 C   0  0  0  0  0  2  0  0  0  0  0  0
  -27.6850  -13.2600   19.7530 C   0  0  0  0  0  3  0  0  0  0  0  0
  -28.7150  -13.0670   20.8860 C   0  0  0  0  0  2  0  0  0  0  0  0
  -30.0500  -13.3840   20.3470 N   0  0  0  0  0  0  0  0  0  0  0  0
  -31.8460  -14.7270   20.0180 O   0  0  0  0  0  0  0  0  0  0  0  0
  -29.0560  -19.2570   21.0070 C   0  0  0  0  0  3  0  0  0  0  0  0
  -29.0000  -17.8450   21.1440 C   0  0  0  0  0  3  0  0  0  0  0  0
  -30.2500  -19.8640   20.5630 C   0  0  0  0  0  0  0  0  0  0  0  0
  -31.3430  -18.9920   20.3130 C   0  0  0  0  0  0  0  0  0  0  0  0
  -30.1240  -17.0350   20.8460 C   0  0  0  0  0  0  0  0  0  0  0  0
  -31.2710  -17.6370   20.4570 N   0  0  0  0  0  0  0  0  0  0  0  0
  -29.9620  -15.6060   20.9710 N   0  0  0  0  0  0  0  0  0  0  0  0
  -29.0780  -15.3130   21.3520 H   0  0  0  0  0  0  0  0  0  0  0  0
  -25.2800  -13.8820   20.4260 C   0  0  0  0  0  0  0  0  0  0  0  0
  -24.2020  -13.1180   20.7850 C   0  0  0  0  0  0  0  0  0  0  0  0
  -24.6560  -11.7630   20.7680 C   0  0  0  0  0  0  0  0  0  0  0  0
  -26.3220  -12.9930   20.2110 N   0  0  0  0  0  0  0  0  0  0  0  0
  -25.9490  -11.7140   20.4750 N   0  0  0  0  0  0  0  0  0  0  0  0
  -23.9210  -10.5050   20.9570 C   0  0  0  0  0  0  0  0  0  0  0  0
  -24.3410   -9.5420   21.9000 C   0  0  0  0  0  3  0  0  0  0  0  0
  -23.6120   -8.3460   22.0750 C   0  0  0  0  0  3  0  0  0  0  0  0
  -22.4480   -8.1060   21.3070 C   0  0  0  0  0  0  0  0  0  0  0  0
  -22.0460   -9.0590   20.3560 C   0  0  0  0  0  3  0  0  0  0  0  0
  -22.7760  -10.2460   20.1780 C   0  0  0  0  0  3  0  0  0  0  0  0
  -21.6930   -6.9600   21.3900 O   0  0  0  0  0  0  0  0  0  0  0  0
  -21.6270   -6.2240   22.5460 C   0  0  0  0  0  0  0  0  0  0  0  0
  -21.1740   -6.7820   23.7600 C   0  0  0  0  0  3  0  0  0  0  0  0
  -21.0530   -5.9720   24.9060 C   0  0  0  0  0  3  0  0  0  0  0  0
  -21.3770   -4.6030   24.8390 C   0  0  0  0  0  0  0  0  0  0  0  0
  -21.8250   -4.0450   23.6290 C   0  0  0  0  0  3  0  0  0  0  0  0
  -21.9470   -4.8540   22.4870 C   0  0  0  0  0  0  0  0  0  0  0  0
  -22.3580   -4.3060   21.3170 F   0  0  0  0  0  0  0  0  0  0  0  0
  -21.2560   -3.8220   25.9370 F   0  0  0  0  0  0  0  0  0  0  0  0
  -22.8020  -13.6050   21.0300 C   0  0  0  0  0  0  0  0  0  0  0  0
  -22.0560  -12.9250   21.8940 N   0  0  0  0  0  0  0  0  0  0  0  0
  -22.3760  -14.6240   20.4880 O   0  0  0  0  0  0  0  0  0  0  0  0
  -22.4090  -12.1050   22.3630 H   0  0  0  0  0  0  0  0  0  0  0  0
  -21.1150  -13.2380   22.0920 H   0  0  0  0  0  0  0  0  0  0  0  0
  -25.4560  -15.2500   20.2410 N   0  0  0  0  0  0  0  0  0  0  0  0
  -24.6920  -15.9090   20.3320 H   0  0  0  0  0  0  0  0  0  0  0  0
  -26.2940  -15.6670   19.8560 H   0  0  0  0  0  0  0  0  0  0  0  0
  -32.7060  -19.5070   19.8570 C   0  0  0  0  0  3  0  0  0  0  0  0
  -33.0890  -18.9040   18.7280 F   0  0  0  0  0  0  0  0  0  0  0  0
  -33.6200  -19.2860   20.8030 F   0  0  0  0  0  0  0  0  0  0  0  0
  -30.4090  -21.6290   20.2230 S   0  0  0  0  0  0  0  0  0  0  0  0
  -29.2200  -22.8540   20.9490 C   0  0  0  0  0  2  0  0  0  0  0  0
  -29.2170  -24.2260   18.7930 C   0  0  0  0  0  1  0  0  0  0  0  0
  -30.7730  -24.8670   20.6720 C   0  0  0  0  0  1  0  0  0  0  0  0
  -29.3810  -24.2980   20.3230 C   0  0  2  0  0  0  0  0  0  0  0  0
  -28.2980  -25.3000   20.8260 C   0  0  0  0  0  2  0  0  0  0  0  0
  -28.4690  -26.6330   20.2580 O   0  0  0  0  0  0  0  0  0  0  0  0
  -24.6150  -31.8570   23.1680 C   0  0  0  0  0  0  0  0  0  0  0  0
  -27.3300  -27.4090   20.1690 C   0  0  0  0  0  0  0  0  0  0  0  0
  -23.4590  -30.4560   21.4920 C   0  0  0  0  0  3  0  0  0  0  0  0
  -24.9520  -28.9400   20.0870 C   0  0  0  0  0  0  0  0  0  0  0  0
  -25.9900  -30.8220   21.3640 C   0  0  0  0  0  2  0  0  0  0  0  0
  -26.0940  -29.4580   20.7110 C   0  0  0  0  0  0  0  0  0  0  0  0
  -27.2900  -28.7020   20.7440 C   0  0  0  0  0  3  0  0  0  0  0  0
  -26.1800  -26.9200   19.5150 C   0  0  0  0  0  3  0  0  0  0  0  0
  -24.9920  -27.6740   19.4790 C   0  0  0  0  0  3  0  0  0  0  0  0
  -23.7080  -29.7980   20.1090 C   0  0  0  0  0  2  0  0  0  0  0  0
  -24.7040  -31.0620   22.0640 N   0  0  0  0  0  0  0  0  0  0  0  0
  -23.5210  -32.1150   23.6880 O   0  0  0  0  0  0  0  0  0  0  0  0
  -22.7960  -29.4200   22.4310 C   0  0  0  0  0  0  0  0  0  0  0  0
  -21.4690  -29.2500   22.3000 N   0  0  0  0  0  0  0  0  0  0  0  0
  -23.4730  -28.7740   23.2360 O   0  0  0  0  0  0  0  0  0  0  0  0
  -20.9830  -29.8180   21.6200 H   0  0  0  0  0  0  0  0  0  0  0  0
  -18.0800  -28.1050   22.8110 C   0  0  0  0  0  0  0  0  0  0  0  0
  -20.6460  -28.3070   23.0580 C   0  0  0  0  0  3  0  0  0  0  0  0
  -20.7120  -26.8900   22.4410 C   0  0  0  0  0  2  0  0  0  0  0  0
  -19.5940  -26.6220   21.4280 C   0  0  0  0  0  2  0  0  0  0  0  0
  -18.2210  -26.7750   22.0910 C   0  0  0  0  0  2  0  0  0  0  0  0
  -19.2180  -28.8330   23.2500 C   0  0  0  0  0  0  0  0  0  0  0  0
  -19.0310  -30.0820   23.8810 C   0  0  0  0  0  3  0  0  0  0  0  0
  -17.7380  -30.6000   24.0800 C   0  0  0  0  0  3  0  0  0  0  0  0
  -16.6130  -29.8690   23.6580 C   0  0  0  0  0  3  0  0  0  0  0  0
  -16.7860  -28.6240   23.0280 C   0  0  0  0  0  3  0  0  0  0  0  0
  -25.8830  -32.4990   23.8160 C   0  0  0  0  0  3  0  0  0  0  0  0
  -26.3950  -31.7190   25.0880 C   0  0  1  0  0  0  0  0  0  0  0  0
  -25.2930  -31.4620   26.1430 C   0  0  0  0  0  1  0  0  0  0  0  0
  -26.9960  -30.3500   24.6920 C   0  0  0  0  0  1  0  0  0  0  0  0
  -27.5270  -32.5210   25.7710 C   0  0  0  0  0  1  0  0  0  0  0  0
  -25.5490  -33.8870   24.1600 N   0  0  0  0  0  0  0  0  0  0  0  0
  -25.8600  -34.9530   23.4110 C   0  0  0  0  0  0  0  0  0  0  0  0
  -26.5280  -34.8730   22.3760 O   0  0  0  0  0  0  0  0  0  0  0  0
  -24.9540  -34.0230   24.9640 H   0  0  0  0  0  0  0  0  0  0  0  0
  -24.0980  -36.7180   23.0810 C   0  0  0  0  0  1  0  0  0  0  0  0
  -25.3480  -36.3270   23.8850 C   0  0  0  0  0  3  0  0  0  0  0  0
  -27.4670  -37.2420   24.7220 C   0  0  0  0  0  1  0  0  0  0  0  0
  -26.3590  -37.4010   23.7850 N   0  0  0  0  0  0  0  0  0  0  0  0
  -25.9350  -38.3100   23.9490 H   0  0  0  0  0  0  0  0  0  0  0  0
  1 15  1  0
  2  7  1  0
  3  4  1  0
  3  2  1  0
  5  4  1  0
  5 20  1  0
  5  6  1  0
  7  1  1  0
  7  6  1  0
  8  1  2  0
  9 10  1  0
 11  9  2  0
 12 14  2  0
 12 11  1  0
 13 15  1  0
 13 10  2  0
 14 13  1  0
 15 16  1  0
 17 18  2  0
 18 37  1  0
 19 18  1  0
 19 22  1  0
 20 17  1  0
 20 21  1  0
 21 19  2  0
 22 23  1  0
 23 24  2  0
 25 28  1  0
 25 24  1  0
 26 25  2  0
 27 26  1  0
 27 22  2  0
 28 29  1  0
 29 30  1  0
 30 31  2  0
 32 31  1  0
 32 36  1  0
 33 32  2  0
 34 29  2  0
 34 33  1  0
 35 34  1  0
 37 38  1  0
 38 41  1  0
 38 40  1  0
 39 37  2  0
 42 43  1  0
 42 17  1  0
 44 42  1  0
 45 12  1  0
 45 47  1  0
 46 45  1  0
 48 11  1  0
 48 49  1  0
 52 50  1  6
 52 51  1  0
 52 53  1  0
 52 49  1  0
 54 53  1  0
 55 66  2  0
 56 54  1  0
 56 61  1  0
 57 65  1  0
 57 67  1  0
 58 64  1  0
 58 60  1  0
 59 65  1  0
 60 61  2  0
 60 59  1  0
 62 56  2  0
 63 62  1  0
 63 58  2  0
 64 57  1  0
 65 55  1  0
 67 69  2  0
 68 67  1  0
 70 68  1  0
 71 80  2  0
 71 76  1  0
 72 68  1  0
 72 76  1  0
 73 72  1  0
 74 75  1  0
 74 73  1  0
 75 71  1  0
 76 77  2  0
 77 78  1  0
 79 78  2  0
 80 79  1  0
 81 55  1  0
 81 86  1  0
 81 82  1  0
 82 85  1  1
 82 83  1  0
 84 82  1  0
 86 89  1  0
 87 91  1  0
 87 86  1  0
 88 87  2  0
 91 90  1  0
 93 91  1  0
 93 94  1  0
 93 92  1  0
M  ISO  4   1 100  15 100  53 101  54 101
M  END
>  <TORSDO>  (96) 
F 20

>  <SCORE>  (96) 
-13.655

>  <name>  (96) 
95

>  <ligand_id>  (96) 
95

>  <original_smiles>  (96) 
[H]c1c(N([H])C(=O)N2C([H])([H])C([H])([H])C([H])([H])C([H])(n3nc(-c4c([H])c([H])c(Oc5c([H])c([H])c(F)c([H])c5F)c([H])c4[H])c(C(=O)N([H])[H])c3N([H])[H])C2([H])[H])nc(C([H])(F)F)c(SC([H])([H])C(C([H])([H])[H])(C([H])([H])[H])C([H])([H])Oc2c([H])c([H])c3c(c2[H])C([H])([H])N(C(=O)C([H])(N([H])C(=O)C([H])(N([H])C([H])([H])[H])C([H])([H])[H])C(C([H])([H])[H])(C([H])([H])[H])C([H])([H])[H])C([H])(C(=O)N([H])C2([H])c4c([H])c([H])c([H])c([H])c4C([H])([H])C([H])([H])C2([H])[H])C3([H])[H])c1[H]

>  <smiles>  (96) 
[H]c1c(N([H])C(=O)N2C([H])([H])C([H])([H])C([H])([H])C([H])(n3nc(-c4c([H])c([H])c(Oc5c([H])c([H])c(F)c([H])c5F)c([H])c4[H])c(C(=O)N([H])[H])c3N([H])[H])C2([H])[H])nc(C([H])(F)F)c(SC([H])([H])C(C([H])([H])[H])(C([H])([H])[H])C([H])([H])Oc2c([H])c([H])c3c(c2[H])C([H])([H])N(C(=O)C([H])(N([H])C(=O)C([H])(N([H])C([H])([H])[H])C([H])([H])[H])C(C([H])([H])[H])(C([H])([H])[H])C([H])([H])[H])C([H])(C(=O)N([H])C2([H])c4c([H])c([H])c([H])c([H])c4C([H])([H])C([H])([H])C2([H])[H])C3([H])[H])c1[H]

$$$$
96:0:0
     RDKit          3D

 97105  0  0  1  0  0  0  0  0999 V2000
  -28.8500  -21.4680   23.4090 C   0  0  0  0  0  1  0  0  0  0  0  0
  -29.8580  -21.4210   22.3490 N   0  0  0  0  0  0  0  0  0  0  0  0
  -31.0090  -20.6620   22.8730 C   0  0  0  0  0  2  0  0  0  0  0  0
  -32.8550  -17.8010   20.1630 C   0  0  0  0  0  3  0  0  0  0  0  0
  -33.3850  -19.0900   20.3140 C   0  0  0  0  0  3  0  0  0  0  0  0
  -31.0770  -18.3270   21.7510 C   0  0  0  0  0  0  0  0  0  0  0  0
  -31.6200  -19.6420   21.9060 C   0  0  0  0  0  0  0  0  0  0  0  0
  -31.7370  -17.3710   20.9240 C   0  0  0  0  0  0  0  0  0  0  0  0
  -32.7980  -19.9920   21.2100 C   0  0  0  0  0  0  0  0  0  0  0  0
  -29.8090  -17.9280   22.5020 C   0  0  0  0  0  1  0  0  0  0  0  0
  -33.3900  -21.1950   21.4020 F   0  0  0  0  0  0  0  0  0  0  0  0
  -31.8830  -14.9140   20.3960 C   0  0  0  0  0  0  0  0  0  0  0  0
  -31.4820  -12.7370   19.3210 C   0  0  0  0  0  2  0  0  0  0  0  0
  -30.5960  -12.9460   18.0780 C   0  0  0  0  0  2  0  0  0  0  0  0
  -29.1060  -12.8870   18.4640 C   0  0  0  0  0  2  0  0  0  0  0  0
  -28.7660  -13.7820   19.6870 C   0  0  0  0  0  3  0  0  0  0  0  0
  -29.7790  -13.5770   20.8360 C   0  0  0  0  0  2  0  0  0  0  0  0
  -31.1310  -13.7840   20.2940 N   0  0  0  0  0  0  0  0  0  0  0  0
  -33.0380  -14.9550   19.9680 O   0  0  0  0  0  0  0  0  0  0  0  0
  -31.2550  -16.0140   20.8680 N   0  0  0  0  0  0  0  0  0  0  0  0
  -30.3360  -15.8500   21.2450 H   0  0  0  0  0  0  0  0  0  0  0  0
  -26.3930  -14.5040   20.3690 C   0  0  0  0  0  0  0  0  0  0  0  0
  -25.2750  -13.7850   20.6950 C   0  0  0  0  0  0  0  0  0  0  0  0
  -25.6590  -12.4100   20.6330 C   0  0  0  0  0  0  0  0  0  0  0  0
  -27.3910  -13.5710   20.1330 N   0  0  0  0  0  0  0  0  0  0  0  0
  -26.9510  -12.3040   20.3500 N   0  0  0  0  0  0  0  0  0  0  0  0
  -24.8570  -11.1870   20.7720 C   0  0  0  0  0  0  0  0  0  0  0  0
  -25.1520  -10.2170   21.7560 C   0  0  0  0  0  3  0  0  0  0  0  0
  -24.3550   -9.0590   21.8820 C   0  0  0  0  0  3  0  0  0  0  0  0
  -23.2470   -8.8620   21.0220 C   0  0  0  0  0  0  0  0  0  0  0  0
  -22.9720   -9.8200   20.0300 C   0  0  0  0  0  3  0  0  0  0  0  0
  -23.7690  -10.9690   19.9020 C   0  0  0  0  0  3  0  0  0  0  0  0
  -22.4330   -7.7560   21.0550 O   0  0  0  0  0  0  0  0  0  0  0  0
  -22.1080   -7.1360   22.2350 C   0  0  0  0  0  0  0  0  0  0  0  0
  -21.4690   -7.8240   23.2880 C   0  0  0  0  0  3  0  0  0  0  0  0
  -21.0910   -7.1310   24.4560 C   0  0  0  0  0  3  0  0  0  0  0  0
  -21.3430   -5.7510   24.5680 C   0  0  0  0  0  0  0  0  0  0  0  0
  -21.9750   -5.0620   23.5180 C   0  0  0  0  0  3  0  0  0  0  0  0
  -22.3540   -5.7520   22.3530 C   0  0  0  0  0  0  0  0  0  0  0  0
  -22.9430   -5.0800   21.3360 F   0  0  0  0  0  0  0  0  0  0  0  0
  -20.9720   -5.0830   25.6860 F   0  0  0  0  0  0  0  0  0  0  0  0
  -23.9020  -14.3340   20.9540 C   0  0  0  0  0  0  0  0  0  0  0  0
  -23.1310  -13.6790   21.8150 N   0  0  0  0  0  0  0  0  0  0  0  0
  -23.5230  -15.3800   20.4280 O   0  0  0  0  0  0  0  0  0  0  0  0
  -23.4510  -12.8330   22.2620 H   0  0  0  0  0  0  0  0  0  0  0  0
  -22.2090  -14.0290   22.0310 H   0  0  0  0  0  0  0  0  0  0  0  0
  -26.6410  -15.8670   20.2340 N   0  0  0  0  0  0  0  0  0  0  0  0
  -25.9100  -16.5610   20.3420 H   0  0  0  0  0  0  0  0  0  0  0  0
  -27.5180  -16.2640   19.9210 H   0  0  0  0  0  0  0  0  0  0  0  0
  -30.2610  -22.8020   21.9880 C   0  0  0  0  0  2  0  0  0  0  0  0
  -29.2940  -23.5660   21.0370 C   0  0  2  0  0  0  0  0  0  0  0  0
  -28.0890  -23.7080   21.5900 F   0  0  0  0  0  0  0  0  0  0  0  0
  -29.1580  -22.8420   19.9240 F   0  0  0  0  0  0  0  0  0  0  0  0
  -29.7950  -24.9790   20.6560 C   0  0  0  0  0  0  0  0  0  0  0  0
  -30.8150  -25.4780   21.1460 O   0  0  0  0  0  0  0  0  0  0  0  0
  -28.9360  -25.7410   19.6370 C   0  0  0  0  0  2  0  0  0  0  0  0
  -28.9430  -27.1650   19.8690 O   0  0  0  0  0  0  0  0  0  0  0  0
  -24.7760  -31.8010   23.3060 C   0  0  0  0  0  0  0  0  0  0  0  0
  -27.7180  -27.8070   19.8890 C   0  0  0  0  0  0  0  0  0  0  0  0
  -23.6640  -30.4270   21.5790 C   0  0  0  0  0  3  0  0  0  0  0  0
  -25.2120  -29.1250   20.0300 C   0  0  0  0  0  0  0  0  0  0  0  0
  -26.1510  -30.9980   21.3880 C   0  0  0  0  0  2  0  0  0  0  0  0
  -26.3350  -29.6880   20.6490 C   0  0  0  0  0  0  0  0  0  0  0  0
  -27.5880  -29.0340   20.5800 C   0  0  0  0  0  3  0  0  0  0  0  0
  -26.5750  -27.2780   19.2390 C   0  0  0  0  0  3  0  0  0  0  0  0
  -25.3280  -27.9200   19.3230 C   0  0  0  0  0  3  0  0  0  0  0  0
  -23.9050  -29.8730   20.1510 C   0  0  0  0  0  2  0  0  0  0  0  0
  -24.8830  -31.0870   22.1500 N   0  0  0  0  0  0  0  0  0  0  0  0
  -23.6850  -31.9450   23.8730 O   0  0  0  0  0  0  0  0  0  0  0  0
  -23.1140  -29.2860   22.4660 C   0  0  0  0  0  0  0  0  0  0  0  0
  -21.8200  -28.9690   22.2990 N   0  0  0  0  0  0  0  0  0  0  0  0
  -23.8480  -28.6930   23.2610 O   0  0  0  0  0  0  0  0  0  0  0  0
  -21.2830  -29.5070   21.6340 H   0  0  0  0  0  0  0  0  0  0  0  0
  -18.5990  -27.3610   22.6150 C   0  0  0  0  0  0  0  0  0  0  0  0
  -21.0960  -27.9080   23.0000 C   0  0  0  0  0  3  0  0  0  0  0  0
  -21.3900  -26.5260   22.3730 C   0  0  0  0  0  2  0  0  0  0  0  0
  -20.3710  -26.1180   21.3030 C   0  0  0  0  0  2  0  0  0  0  0  0
  -18.9600  -26.0720   21.8970 C   0  0  0  0  0  2  0  0  0  0  0  0
  -19.6020  -28.2300   23.1190 C   0  0  0  0  0  0  0  0  0  0  0  0
  -19.2130  -29.4330   23.7480 C   0  0  0  0  0  3  0  0  0  0  0  0
  -17.8530  -29.7700   23.8790 C   0  0  0  0  0  3  0  0  0  0  0  0
  -16.8640  -28.8970   23.3930 C   0  0  0  0  0  3  0  0  0  0  0  0
  -17.2370  -27.6950   22.7670 C   0  0  0  0  0  3  0  0  0  0  0  0
  -26.0170  -32.4890   23.9560 C   0  0  0  0  0  3  0  0  0  0  0  0
  -25.6420  -33.8750   24.2640 N   0  0  0  0  0  0  0  0  0  0  0  0
  -25.9700  -34.9350   23.5140 C   0  0  0  0  0  0  0  0  0  0  0  0
  -26.6900  -34.8520   22.5160 O   0  0  0  0  0  0  0  0  0  0  0  0
  -25.0050  -34.0110   25.0360 H   0  0  0  0  0  0  0  0  0  0  0  0
  -24.1980  -36.6610   23.0620 C   0  0  0  0  0  1  0  0  0  0  0  0
  -25.4080  -36.3060   23.9390 C   0  0  0  0  0  3  0  0  0  0  0  0
  -27.4610  -37.2690   24.8780 C   0  0  0  0  0  1  0  0  0  0  0  0
  -26.4060  -37.3950   23.8770 N   0  0  0  0  0  0  0  0  0  0  0  0
  -25.9590  -38.3000   23.9990 H   0  0  0  0  0  0  0  0  0  0  0  0
  -26.5310  -31.7470   25.2520 C   0  0  1  0  0  0  0  0  0  0  0  0
  -25.4170  -31.4560   26.2840 C   0  0  0  0  0  1  0  0  0  0  0  0
  -27.1970  -30.4020   24.8820 C   0  0  0  0  0  1  0  0  0  0  0  0
  -27.6170  -32.6030   25.9480 C   0  0  0  0  0  1  0  0  0  0  0  0
  2  3  1  0
  2  1  1  0
  4  5  2  0
  4  8  1  0
  5  9  1  0
  6  7  1  0
  6 10  1  0
  7  3  1  0
  8  6  2  0
  9 11  1  0
  9  7  2  0
 12 20  1  0
 13 18  1  0
 14 15  1  0
 14 13  1  0
 16 15  1  0
 16 25  1  0
 16 17  1  0
 18 12  1  0
 18 17  1  0
 19 12  2  0
 20  8  1  0
 20 21  1  0
 22 23  2  0
 23 42  1  0
 24 23  1  0
 24 27  1  0
 25 26  1  0
 25 22  1  0
 26 24  2  0
 27 28  1  0
 28 29  2  0
 30 33  1  0
 30 29  1  0
 31 30  2  0
 32 31  1  0
 32 27  2  0
 33 34  1  0
 34 39  2  0
 34 35  1  0
 35 36  2  0
 36 37  1  0
 37 41  1  0
 38 37  2  0
 39 38  1  0
 40 39  1  0
 42 43  1  0
 43 46  1  0
 43 45  1  0
 44 42  2  0
 47 48  1  0
 47 22  1  0
 49 47  1  0
 50  2  1  0
 51 52  1  1
 51 50  1  0
 53 51  1  0
 54 51  1  0
 54 55  2  0
 56 57  1  0
 56 54  1  0
 57 59  1  0
 58 69  2  0
 59 64  1  0
 60 68  1  0
 60 70  1  0
 61 67  1  0
 61 63  1  0
 62 68  1  0
 63 62  1  0
 64 63  2  0
 65 66  1  0
 65 59  2  0
 66 61  2  0
 67 60  1  0
 68 58  1  0
 70 72  2  0
 71 70  1  0
 73 71  1  0
 74 83  2  0
 74 79  1  0
 75 71  1  0
 75 79  1  0
 76 75  1  0
 77 78  1  0
 77 76  1  0
 78 74  1  0
 79 80  2  0
 80 81  1  0
 82 81  2  0
 83 82  1  0
 84 58  1  0
 84 85  1  0
 84 94  1  0
 85 88  1  0
 86 90  1  0
 86 85  1  0
 87 86  2  0
 90 89  1  0
 92 90  1  0
 92 93  1  0
 92 91  1  0
 94 97  1  1
 94 95  1  0
 96 94  1  0
M  ISO  4  12 100  20 100  56 101  57 101
M  END
>  <TORSDO>  (97) 
F 22

>  <SCORE>  (97) 
-9.493

>  <name>  (97) 
96

>  <ligand_id>  (97) 
96

>  <original_smiles>  (97) 
[H]c1c([H])c([H])c2c(c1[H])C([H])([H])C([H])([H])C([H])([H])C2([H])N([H])C(=O)C1([H])N(C(=O)C([H])(N([H])C(=O)C([H])(N([H])C([H])([H])[H])C([H])([H])[H])C(C([H])([H])[H])(C([H])([H])[H])C([H])([H])[H])C([H])([H])c2c([H])c(OC([H])([H])C(=O)C(F)(F)C([H])([H])N(C([H])([H])[H])C([H])([H])c3c(F)c([H])c([H])c(N([H])C(=O)N4C([H])([H])C([H])([H])C([H])([H])C([H])(n5nc(-c6c([H])c([H])c(Oc7c([H])c([H])c(F)c([H])c7F)c([H])c6[H])c(C(=O)N([H])[H])c5N([H])[H])C4([H])[H])c3C([H])([H])[H])c([H])c([H])c2C1([H])[H]

>  <smiles>  (97) 
[H]c1c([H])c([H])c2c(c1[H])C([H])([H])C([H])([H])C([H])([H])C2([H])N([H])C(=O)C1([H])N(C(=O)C([H])(N([H])C(=O)C([H])(N([H])C([H])([H])[H])C([H])([H])[H])C(C([H])([H])[H])(C([H])([H])[H])C([H])([H])[H])C([H])([H])c2c([H])c(OC([H])([H])C(=O)C(F)(F)C([H])([H])N(C([H])([H])[H])C([H])([H])c3c(F)c([H])c([H])c(N([H])C(=O)N4C([H])([H])C([H])([H])C([H])([H])C([H])(n5nc(-c6c([H])c([H])c(Oc7c([H])c([H])c(F)c([H])c7F)c([H])c6[H])c(C(=O)N([H])[H])c5N([H])[H])C4([H])[H])c3C([H])([H])[H])c([H])c([H])c2C1([H])[H]

$$$$
97:0:0
     RDKit          3D

 96104  0  0  1  0  0  0  0  0999 V2000
  -28.7700  -22.7950   19.9890 C   0  0  0  0  0  0  0  0  0  0  0  0
  -28.6740  -21.7540   20.8450 N   0  0  0  0  0  0  0  0  0  0  0  0
  -28.9620  -22.6340   18.7830 O   0  0  0  0  0  0  0  0  0  0  0  0
  -28.5010  -22.0250   21.8030 H   0  0  0  0  0  0  0  0  0  0  0  0
  -28.4260  -20.3320   20.5140 C   0  0  0  0  0  2  0  0  0  0  0  0
  -30.8900  -19.7430   20.9320 C   0  0  0  0  0  3  0  0  0  0  0  0
  -31.6350  -17.4190   21.1110 C   0  0  0  0  0  3  0  0  0  0  0  0
  -29.5550  -19.3160   20.7530 C   0  0  0  0  0  0  0  0  0  0  0  0
  -30.3100  -16.9540   20.9280 C   0  0  0  0  0  0  0  0  0  0  0  0
  -31.9200  -18.8000   21.1060 C   0  0  0  0  0  0  0  0  0  0  0  0
  -29.2770  -17.9170   20.7700 C   0  0  0  0  0  0  0  0  0  0  0  0
  -33.1960  -19.2240   21.2690 F   0  0  0  0  0  0  0  0  0  0  0  0
  -28.0010  -17.4860   20.6140 F   0  0  0  0  0  0  0  0  0  0  0  0
  -30.6880  -14.5100   20.4610 C   0  0  0  0  0  0  0  0  0  0  0  0
  -30.4000  -12.3330   19.3270 C   0  0  0  0  0  2  0  0  0  0  0  0
  -29.4680  -12.5170   18.1130 C   0  0  0  0  0  2  0  0  0  0  0  0
  -27.9900  -12.3800   18.5340 C   0  0  0  0  0  2  0  0  0  0  0  0
  -27.6410  -13.2290   19.7850 C   0  0  0  0  0  3  0  0  0  0  0  0
  -28.6890  -13.0300   20.9050 C   0  0  0  0  0  2  0  0  0  0  0  0
  -30.0150  -13.3310   20.3400 N   0  0  0  0  0  0  0  0  0  0  0  0
  -31.8320  -14.6530   20.0230 O   0  0  0  0  0  0  0  0  0  0  0  0
  -29.9660  -15.5540   20.9260 N   0  0  0  0  0  0  0  0  0  0  0  0
  -28.9970  -15.3490   21.1220 H   0  0  0  0  0  0  0  0  0  0  0  0
  -25.2370  -13.8390   20.4730 C   0  0  0  0  0  0  0  0  0  0  0  0
  -24.1660  -13.0680   20.8360 C   0  0  0  0  0  0  0  0  0  0  0  0
  -24.6280  -11.7160   20.8190 C   0  0  0  0  0  0  0  0  0  0  0  0
  -26.2850  -12.9560   20.2590 N   0  0  0  0  0  0  0  0  0  0  0  0
  -25.9210  -11.6750   20.5240 N   0  0  0  0  0  0  0  0  0  0  0  0
  -23.9000  -10.4550   21.0120 C   0  0  0  0  0  0  0  0  0  0  0  0
  -24.3240   -9.4970   21.9590 C   0  0  0  0  0  3  0  0  0  0  0  0
  -23.5990   -8.2980   22.1380 C   0  0  0  0  0  3  0  0  0  0  0  0
  -22.4350   -8.0510   21.3720 C   0  0  0  0  0  0  0  0  0  0  0  0
  -22.0310   -8.9990   20.4140 C   0  0  0  0  0  3  0  0  0  0  0  0
  -22.7560  -10.1880   20.2340 C   0  0  0  0  0  3  0  0  0  0  0  0
  -21.6830   -6.9050   21.4610 O   0  0  0  0  0  0  0  0  0  0  0  0
  -21.6190   -6.1730   22.6200 C   0  0  0  0  0  0  0  0  0  0  0  0
  -21.1670   -6.7360   23.8340 C   0  0  0  0  0  3  0  0  0  0  0  0
  -21.0520   -5.9300   24.9830 C   0  0  0  0  0  3  0  0  0  0  0  0
  -21.3780   -4.5610   24.9210 C   0  0  0  0  0  0  0  0  0  0  0  0
  -21.8220   -3.9990   23.7120 C   0  0  0  0  0  3  0  0  0  0  0  0
  -21.9390   -4.8010   22.5640 C   0  0  0  0  0  0  0  0  0  0  0  0
  -22.3470   -4.2490   21.3960 F   0  0  0  0  0  0  0  0  0  0  0  0
  -21.2590   -3.7850   26.0230 F   0  0  0  0  0  0  0  0  0  0  0  0
  -22.7650  -13.5460   21.0920 C   0  0  0  0  0  0  0  0  0  0  0  0
  -22.0290  -12.8560   21.9560 N   0  0  0  0  0  0  0  0  0  0  0  0
  -22.3320  -14.5670   20.5610 O   0  0  0  0  0  0  0  0  0  0  0  0
  -22.3910  -12.0310   22.4110 H   0  0  0  0  0  0  0  0  0  0  0  0
  -21.0890  -13.1590   22.1680 H   0  0  0  0  0  0  0  0  0  0  0  0
  -25.4030  -15.2080   20.2900 N   0  0  0  0  0  0  0  0  0  0  0  0
  -24.6410  -15.8640   20.4140 H   0  0  0  0  0  0  0  0  0  0  0  0
  -26.2660  -15.6600   20.0130 H   0  0  0  0  0  0  0  0  0  0  0  0
  -28.5240  -24.2170   20.5870 C   0  0  0  0  0  3  0  0  0  0  0  0
  -27.2670  -24.1920   21.2510 O   0  0  0  0  0  0  0  0  0  0  0  0
  -26.6140  -24.0130   20.5830 H   0  0  0  0  0  0  0  0  0  0  0  0
  -28.5210  -25.3870   19.5450 C   0  0  0  0  0  2  0  0  0  0  0  0
  -28.4150  -26.7100   20.1370 O   0  0  0  0  0  0  0  0  0  0  0  0
  -24.5780  -31.8780   23.2440 C   0  0  0  0  0  0  0  0  0  0  0  0
  -27.2160  -27.4140   20.1420 C   0  0  0  0  0  0  0  0  0  0  0  0
  -23.3690  -30.4840   21.5960 C   0  0  0  0  0  3  0  0  0  0  0  0
  -24.8200  -28.9440   20.1730 C   0  0  0  0  0  0  0  0  0  0  0  0
  -25.8960  -30.8350   21.3960 C   0  0  0  0  0  2  0  0  0  0  0  0
  -25.9820  -29.4590   20.7610 C   0  0  0  0  0  0  0  0  0  0  0  0
  -27.1780  -28.6980   20.7440 C   0  0  0  0  0  3  0  0  0  0  0  0
  -26.0230  -26.9160   19.5630 C   0  0  0  0  0  3  0  0  0  0  0  0
  -24.8360  -27.6730   19.5780 C   0  0  0  0  0  3  0  0  0  0  0  0
  -23.5790  -29.8100   20.2160 C   0  0  0  0  0  2  0  0  0  0  0  0
  -24.6340  -31.0780   22.1400 N   0  0  0  0  0  0  0  0  0  0  0  0
  -23.4980  -32.1450   23.7880 O   0  0  0  0  0  0  0  0  0  0  0  0
  -22.7180  -29.4580   22.5500 C   0  0  0  0  0  0  0  0  0  0  0  0
  -21.3930  -29.2800   22.4240 N   0  0  0  0  0  0  0  0  0  0  0  0
  -23.4010  -28.8300   23.3640 O   0  0  0  0  0  0  0  0  0  0  0  0
  -20.9030  -29.8440   21.7440 H   0  0  0  0  0  0  0  0  0  0  0  0
  -18.0180  -28.0860   22.9190 C   0  0  0  0  0  0  0  0  0  0  0  0
  -20.5760  -28.3390   23.1910 C   0  0  0  0  0  3  0  0  0  0  0  0
  -20.6740  -26.9090   22.6090 C   0  0  0  0  0  2  0  0  0  0  0  0
  -19.5720  -26.5930   21.5920 C   0  0  0  0  0  2  0  0  0  0  0  0
  -18.1910  -26.7380   22.2380 C   0  0  0  0  0  2  0  0  0  0  0  0
  -19.1380  -28.8440   23.3530 C   0  0  0  0  0  0  0  0  0  0  0  0
  -18.9230  -30.1050   23.9490 C   0  0  0  0  0  3  0  0  0  0  0  0
  -17.6190  -30.6100   24.1120 C   0  0  0  0  0  3  0  0  0  0  0  0
  -16.5130  -29.8500   23.6940 C   0  0  0  0  0  3  0  0  0  0  0  0
  -16.7140  -28.5880   23.1050 C   0  0  0  0  0  3  0  0  0  0  0  0
  -25.8650  -32.5080   23.8630 C   0  0  0  0  0  3  0  0  0  0  0  0
  -25.5600  -33.9070   24.1890 N   0  0  0  0  0  0  0  0  0  0  0  0
  -25.9020  -34.9550   23.4300 C   0  0  0  0  0  0  0  0  0  0  0  0
  -26.5770  -34.8460   22.4020 O   0  0  0  0  0  0  0  0  0  0  0  0
  -24.9610  -34.0650   24.9860 H   0  0  0  0  0  0  0  0  0  0  0  0
  -24.1860  -36.7560   23.0530 C   0  0  0  0  0  1  0  0  0  0  0  0
  -25.4180  -36.3470   23.8780 C   0  0  0  0  0  3  0  0  0  0  0  0
  -27.5490  -37.2230   24.7280 C   0  0  0  0  0  1  0  0  0  0  0  0
  -26.4570  -37.3960   23.7730 N   0  0  0  0  0  0  0  0  0  0  0  0
  -26.0530  -38.3190   23.9160 H   0  0  0  0  0  0  0  0  0  0  0  0
  -26.3800  -31.7370   25.1400 C   0  0  1  0  0  0  0  0  0  0  0  0
  -25.2870  -31.4990   26.2090 C   0  0  0  0  0  1  0  0  0  0  0  0
  -26.9560  -30.3580   24.7410 C   0  0  0  0  0  1  0  0  0  0  0  0
  -27.5320  -32.5270   25.8020 C   0  0  0  0  0  1  0  0  0  0  0  0
  1 52  1  0
  1  2  1  0
  2  4  1  0
  3  1  2  0
  5  8  1  0
  5  2  1  0
  6 10  1  0
  8 11  1  0
  8  6  2  0
  9  7  1  0
 10  7  2  0
 10 12  1  0
 11  9  2  0
 13 11  1  0
 14 22  1  0
 15 20  1  0
 16 17  1  0
 16 15  1  0
 18 17  1  0
 18 27  1  0
 18 19  1  0
 20 14  1  0
 20 19  1  0
 21 14  2  0
 22  9  1  0
 22 23  1  0
 24 25  2  0
 25 44  1  0
 26 25  1  0
 26 29  1  0
 27 24  1  0
 27 28  1  0
 28 26  2  0
 29 30  1  0
 30 31  2  0
 32 35  1  0
 32 31  1  0
 33 32  2  0
 34 33  1  0
 34 29  2  0
 35 36  1  0
 36 37  1  0
 37 38  2  0
 39 38  1  0
 39 43  1  0
 40 39  2  0
 41 36  2  0
 41 40  1  0
 42 41  1  0
 44 45  1  0
 45 48  1  0
 45 47  1  0
 46 44  2  0
 49 50  1  0
 49 24  1  0
 51 49  1  0
 52 55  1  0
 52 53  1  0
 54 53  1  0
 55 56  1  0
 56 58  1  0
 57 68  2  0
 58 63  1  0
 59 67  1  0
 59 69  1  0
 60 66  1  0
 60 62  1  0
 61 67  1  0
 62 61  1  0
 63 62  2  0
 64 65  1  0
 64 58  2  0
 65 60  2  0
 66 59  1  0
 67 57  1  0
 69 71  2  0
 70 69  1  0
 72 70  1  0
 73 82  2  0
 73 78  1  0
 74 70  1  0
 74 78  1  0
 75 74  1  0
 76 77  1  0
 76 75  1  0
 77 73  1  0
 78 79  2  0
 79 80  1  0
 81 80  2  0
 82 81  1  0
 83 57  1  0
 83 84  1  0
 83 93  1  0
 84 87  1  0
 85 89  1  0
 85 84  1  0
 86 85  2  0
 89 88  1  0
 91 89  1  0
 91 92  1  0
 91 90  1  0
 93 96  1  1
 93 94  1  0
 95 93  1  0
M  ISO  4  14 100  22 100  55 101  56 101
M  END
>  <TORSDO>  (98) 
F 21

>  <SCORE>  (98) 
-14.180

>  <name>  (98) 
97

>  <ligand_id>  (98) 
97

>  <original_smiles>  (98) 
[H]OC([H])(C(=O)N([H])C([H])([H])c1c([H])c(F)c([H])c(N([H])C(=O)N2C([H])([H])C([H])([H])C([H])([H])C([H])(n3nc(-c4c([H])c([H])c(Oc5c([H])c([H])c(F)c([H])c5F)c([H])c4[H])c(C(=O)N([H])[H])c3N([H])[H])C2([H])[H])c1F)C([H])([H])Oc1c([H])c([H])c2c(c1[H])C([H])([H])N(C(=O)C([H])(N([H])C(=O)C([H])(N([H])C([H])([H])[H])C([H])([H])[H])C(C([H])([H])[H])(C([H])([H])[H])C([H])([H])[H])C([H])(C(=O)N([H])C1([H])c3c([H])c([H])c([H])c([H])c3C([H])([H])C([H])([H])C1([H])[H])C2([H])[H]

>  <smiles>  (98) 
[H]OC([H])(C(=O)N([H])C([H])([H])c1c([H])c(F)c([H])c(N([H])C(=O)N2C([H])([H])C([H])([H])C([H])([H])C([H])(n3nc(-c4c([H])c([H])c(Oc5c([H])c([H])c(F)c([H])c5F)c([H])c4[H])c(C(=O)N([H])[H])c3N([H])[H])C2([H])[H])c1F)C([H])([H])Oc1c([H])c([H])c2c(c1[H])C([H])([H])N(C(=O)C([H])(N([H])C(=O)C([H])(N([H])C([H])([H])[H])C([H])([H])[H])C(C([H])([H])[H])(C([H])([H])[H])C([H])([H])[H])C([H])(C(=O)N([H])C1([H])c3c([H])c([H])c([H])c([H])c3C([H])([H])C([H])([H])C1([H])[H])C2([H])[H]

$$$$
