0:0:0
     RDKit          3D

 97105  0  0  1  0  0  0  0  0999 V2000
  -30.4380  -22.7820   21.1280 N   0  0  0  0  0  4  0  0  0  0  0  0
  -31.3240  -22.4630   21.4960 H   0  0  0  0  0  0  0  0  0  0  0  0
  -29.8050  -22.8600   21.9110 H   0  0  0  0  0  0  0  0  0  0  0  0
  -31.3870  -25.1080   21.3210 C   0  0  0  0  0  1  0  0  0  0  0  0
  -30.6360  -24.0860   20.4400 C   0  0  0  0  0  3  0  0  0  0  0  0
  -29.2940  -24.6450   19.8920 C   0  0  0  0  0  0  0  0  0  0  0  0
  -28.8580  -24.2870   18.7940 O   0  0  0  0  0  0  0  0  0  0  0  0
  -28.4650  -25.6310   20.7290 C   0  0  0  0  0  2  0  0  0  0  0  0
  -28.4020  -26.8830   20.0420 O   0  0  0  0  0  0  0  0  0  0  0  0
  -24.5400  -31.9210   23.2500 C   0  0  0  0  0  0  0  0  0  0  0  0
  -27.2050  -27.5520   20.1160 C   0  0  0  0  0  0  0  0  0  0  0  0
  -23.3320  -30.5260   21.5990 C   0  0  0  0  0  3  0  0  0  0  0  0
  -24.7890  -29.0050   20.1600 C   0  0  0  0  0  0  0  0  0  0  0  0
  -25.8470  -30.9180   21.3790 C   0  0  0  0  0  2  0  0  0  0  0  0
  -25.9420  -29.5470   20.7410 C   0  0  0  0  0  0  0  0  0  0  0  0
  -27.1540  -28.8270   20.7130 C   0  0  0  0  0  3  0  0  0  0  0  0
  -26.0380  -27.0100   19.5370 C   0  0  0  0  0  3  0  0  0  0  0  0
  -24.8290  -27.7340   19.5570 C   0  0  0  0  0  3  0  0  0  0  0  0
  -23.5390  -29.8530   20.2130 C   0  0  0  0  0  2  0  0  0  0  0  0
  -24.5920  -31.1380   22.1360 N   0  0  0  0  0  0  0  0  0  0  0  0
  -23.4620  -32.1750   23.8060 O   0  0  0  0  0  0  0  0  0  0  0  0
  -22.6960  -29.4940   22.5570 C   0  0  0  0  0  0  0  0  0  0  0  0
  -21.3690  -29.3070   22.4380 N   0  0  0  0  0  0  0  0  0  0  0  0
  -23.3860  -28.8630   23.3620 O   0  0  0  0  0  0  0  0  0  0  0  0
  -20.8710  -29.8720   21.7650 H   0  0  0  0  0  0  0  0  0  0  0  0
  -18.0080  -28.0830   22.9410 C   0  0  0  0  0  0  0  0  0  0  0  0
  -20.5650  -28.3540   23.2010 C   0  0  0  0  0  3  0  0  0  0  0  0
  -20.6730  -26.9300   22.6050 C   0  0  0  0  0  2  0  0  0  0  0  0
  -19.5660  -26.6130   21.5950 C   0  0  0  0  0  2  0  0  0  0  0  0
  -18.1880  -26.7430   22.2490 C   0  0  0  0  0  2  0  0  0  0  0  0
  -19.1240  -28.8450   23.3750 C   0  0  0  0  0  0  0  0  0  0  0  0
  -18.9020  -30.1020   23.9810 C   0  0  0  0  0  3  0  0  0  0  0  0
  -17.5960  -30.5940   24.1600 C   0  0  0  0  0  3  0  0  0  0  0  0
  -16.4940  -29.8290   23.7420 C   0  0  0  0  0  3  0  0  0  0  0  0
  -16.7000  -28.5760   23.1380 C   0  0  0  0  0  3  0  0  0  0  0  0
  -25.8280  -32.5530   23.8700 C   0  0  0  0  0  3  0  0  0  0  0  0
  -25.5280  -33.9570   24.1790 N   0  0  0  0  0  0  0  0  0  0  0  0
  -25.8920  -34.9960   23.4140 C   0  0  0  0  0  0  0  0  0  0  0  0
  -26.5830  -34.8720   22.3990 O   0  0  0  0  0  0  0  0  0  0  0  0
  -24.9190  -34.1250   24.9660 H   0  0  0  0  0  0  0  0  0  0  0  0
  -24.2110  -36.8160   22.9710 C   0  0  0  0  0  1  0  0  0  0  0  0
  -25.4090  -36.3960   23.8390 C   0  0  0  0  0  3  0  0  0  0  0  0
  -27.5180  -37.2530   24.7600 C   0  0  0  0  0  1  0  0  0  0  0  0
  -26.4650  -37.4310   23.7630 N   0  0  0  0  0  0  0  0  0  0  0  0
  -26.0700  -38.3600   23.8840 H   0  0  0  0  0  0  0  0  0  0  0  0
  -26.3350  -31.7940   25.1580 C   0  0  1  0  0  0  0  0  0  0  0  0
  -25.2370  -31.5720   26.2230 C   0  0  0  0  0  1  0  0  0  0  0  0
  -26.9140  -30.4110   24.7790 C   0  0  0  0  0  1  0  0  0  0  0  0
  -27.4860  -32.5890   25.8160 C   0  0  0  0  0  1  0  0  0  0  0  0
  -30.0180  -21.6640   20.2510 C   0  0  0  0  0  2  0  0  0  0  0  0
  -30.5800  -20.3460   20.8260 C   0  0  0  0  0  0  0  0  0  0  0  0
  -31.7020  -20.3760   21.3480 O   0  0  0  0  0  0  0  0  0  0  0  0
  -30.8440  -14.5340   20.2030 C   0  0  0  0  0  0  0  0  0  0  0  0
  -30.4980  -12.4030   19.0030 C   0  0  0  0  0  2  0  0  0  0  0  0
  -29.4960  -12.6070   17.8470 C   0  0  0  0  0  2  0  0  0  0  0  0
  -28.0440  -12.4590   18.3430 C   0  0  0  0  0  2  0  0  0  0  0  0
  -27.7630  -13.3050   19.6110 C   0  0  0  0  0  3  0  0  0  0  0  0
  -28.8570  -13.0530   20.6730 C   0  0  0  0  0  2  0  0  0  0  0  0
  -30.1720  -13.3570   20.0740 N   0  0  0  0  0  0  0  0  0  0  0  0
  -31.8670  -14.8030   19.5600 O   0  0  0  0  0  0  0  0  0  0  0  0
  -30.4520  -17.8180   20.8770 C   0  0  0  0  0  3  0  0  0  0  0  0
  -27.7770  -17.8050   20.3040 C   0  0  0  0  0  3  0  0  0  0  0  0
  -29.8060  -19.0700   20.6700 C   0  0  0  0  0  0  0  0  0  0  0  0
  -28.4160  -19.0460   20.4050 C   0  0  0  0  0  0  0  0  0  0  0  0
  -29.7200  -16.6120   20.7750 C   0  0  0  0  0  0  0  0  0  0  0  0
  -28.4000  -16.6240   20.4900 N   0  0  0  0  0  0  0  0  0  0  0  0
  -30.3250  -15.3770   21.1080 N   0  0  0  0  0  0  0  0  0  0  0  0
  -27.6690  -20.1660   20.2810 F   0  0  0  0  0  0  0  0  0  0  0  0
  -29.7220  -14.8420   21.7150 H   0  0  0  0  0  0  0  0  0  0  0  0
  -25.4100  -13.9530   20.4390 C   0  0  0  0  0  0  0  0  0  0  0  0
  -24.3410  -13.1990   20.8390 C   0  0  0  0  0  0  0  0  0  0  0  0
  -24.7750  -11.8400   20.7680 C   0  0  0  0  0  0  0  0  0  0  0  0
  -26.4260  -13.0560   20.1440 N   0  0  0  0  0  0  0  0  0  0  0  0
  -26.0480  -11.7790   20.3990 N   0  0  0  0  0  0  0  0  0  0  0  0
  -24.0340  -10.5910   20.9750 C   0  0  0  0  0  0  0  0  0  0  0  0
  -24.4780   -9.6150   21.8940 C   0  0  0  0  0  3  0  0  0  0  0  0
  -23.7410   -8.4260   22.0850 C   0  0  0  0  0  3  0  0  0  0  0  0
  -22.5460   -8.2090   21.3590 C   0  0  0  0  0  0  0  0  0  0  0  0
  -22.1200   -9.1760   20.4310 C   0  0  0  0  0  3  0  0  0  0  0  0
  -22.8570  -10.3560   20.2370 C   0  0  0  0  0  3  0  0  0  0  0  0
  -21.7750   -7.0770   21.4640 O   0  0  0  0  0  0  0  0  0  0  0  0
  -21.7260   -6.3460   22.6240 C   0  0  0  0  0  0  0  0  0  0  0  0
  -21.2890   -6.9100   23.8430 C   0  0  0  0  0  3  0  0  0  0  0  0
  -21.1860   -6.1050   24.9950 C   0  0  0  0  0  3  0  0  0  0  0  0
  -21.5110   -4.7370   24.9310 C   0  0  0  0  0  0  0  0  0  0  0  0
  -21.9410   -4.1720   23.7180 C   0  0  0  0  0  3  0  0  0  0  0  0
  -22.0470   -4.9740   22.5670 C   0  0  0  0  0  0  0  0  0  0  0  0
  -22.4420   -4.4200   21.3960 F   0  0  0  0  0  0  0  0  0  0  0  0
  -21.4060   -3.9620   26.0350 F   0  0  0  0  0  0  0  0  0  0  0  0
  -22.9680  -13.7000   21.1850 C   0  0  0  0  0  0  0  0  0  0  0  0
  -22.2770  -13.0190   22.0930 N   0  0  0  0  0  0  0  0  0  0  0  0
  -22.5170  -14.7320   20.6870 O   0  0  0  0  0  0  0  0  0  0  0  0
  -22.6520  -12.1840   22.5140 H   0  0  0  0  0  0  0  0  0  0  0  0
  -21.3570  -13.3350   22.3640 H   0  0  0  0  0  0  0  0  0  0  0  0
  -25.6080  -15.3190   20.2970 N   0  0  0  0  0  0  0  0  0  0  0  0
  -24.9190  -16.0040   20.5840 H   0  0  0  0  0  0  0  0  0  0  0  0
  -26.5510  -15.6950   20.2200 H   0  0  0  0  0  0  0  0  0  0  0  0
  1  2  1  0
  1  3  1  0
  5  1  1  0
  5  4  1  0
  6  5  1  0
  6  8  1  0
  7  6  2  0
  9 11  1  0
  9  8  1  0
 10 21  2  0
 11 16  1  0
 12 20  1  0
 12 22  1  0
 13 19  1  0
 13 15  1  0
 14 20  1  0
 15 14  1  0
 16 15  2  0
 17 18  1  0
 17 11  2  0
 18 13  2  0
 19 12  1  0
 20 10  1  0
 22 24  2  0
 23 22  1  0
 25 23  1  0
 26 35  2  0
 26 31  1  0
 27 23  1  0
 27 31  1  0
 28 27  1  0
 29 30  1  0
 29 28  1  0
 30 26  1  0
 31 32  2  0
 32 33  1  0
 34 33  2  0
 35 34  1  0
 36 10  1  0
 36 37  1  0
 36 46  1  0
 37 40  1  0
 38 42  1  0
 38 37  1  0
 39 38  2  0
 42 41  1  0
 44 42  1  0
 44 45  1  0
 44 43  1  0
 46 49  1  1
 46 47  1  0
 48 46  1  0
 50 51  1  0
 50  1  1  0
 51 52  2  0
 53 67  1  0
 54 59  1  0
 55 56  1  0
 55 54  1  0
 57 56  1  0
 57 73  1  0
 57 58  1  0
 59 53  1  0
 59 58  1  0
 60 53  2  0
 62 64  2  0
 62 66  1  0
 63 51  1  0
 63 61  2  0
 64 63  1  0
 65 61  1  0
 65 67  1  0
 66 65  2  0
 67 69  1  0
 68 64  1  0
 70 71  2  0
 71 90  1  0
 72 71  1  0
 72 75  1  0
 73 74  1  0
 73 70  1  0
 74 72  2  0
 75 76  1  0
 76 77  2  0
 78 81  1  0
 78 77  1  0
 79 78  2  0
 80 79  1  0
 80 75  2  0
 81 82  1  0
 82 83  1  0
 83 84  2  0
 85 84  1  0
 85 89  1  0
 86 85  2  0
 87 82  2  0
 87 86  1  0
 88 87  1  0
 90 91  1  0
 91 94  1  0
 91 93  1  0
 92 90  2  0
 95 70  1  0
 95 96  1  0
 97 95  1  0
M  ISO  4   8 101   9 101  53 100  67 100
M  END
>  <TORSDO>  (1) 
F 21

>  <SCORE>  (1) 
-13.622

>  <name>  (1) 
0

>  <ligand_id>  (1) 
0

>  <original_smiles>  (1) 
[H]c1nc(N([H])C(=O)N2C([H])([H])C([H])([H])C([H])([H])C([H])(n3nc(-c4c([H])c([H])c(Oc5c([H])c([H])c(F)c([H])c5F)c([H])c4[H])c(C(=O)N([H])[H])c3N([H])[H])C2([H])[H])c([H])c(C(=O)C([H])([H])[N+]([H])([H])C([H])(C(=O)C([H])([H])Oc2c([H])c([H])c3c(c2[H])C([H])([H])N(C(=O)C([H])(N([H])C(=O)C([H])(N([H])C([H])([H])[H])C([H])([H])[H])C(C([H])([H])[H])(C([H])([H])[H])C([H])([H])[H])C([H])(C(=O)N([H])C2([H])c4c([H])c([H])c([H])c([H])c4C([H])([H])C([H])([H])C2([H])[H])C3([H])[H])C([H])([H])[H])c1F

>  <smiles>  (1) 
[H]c1nc(N([H])C(=O)N2C([H])([H])C([H])([H])C([H])([H])C([H])(n3nc(-c4c([H])c([H])c(Oc5c([H])c([H])c(F)c([H])c5F)c([H])c4[H])c(C(=O)N([H])[H])c3N([H])[H])C2([H])[H])c([H])c(C(=O)C([H])([H])[N+]([H])([H])C([H])(C(=O)C([H])([H])Oc2c([H])c([H])c3c(c2[H])C([H])([H])N(C(=O)C([H])(N([H])C(=O)C([H])(N([H])C([H])([H])[H])C([H])([H])[H])C(C([H])([H])[H])(C([H])([H])[H])C([H])([H])[H])C([H])(C(=O)N([H])C2([H])c4c([H])c([H])c([H])c([H])c4C([H])([H])C([H])([H])C2([H])[H])C3([H])[H])C([H])([H])[H])c1F

$$$$
1:0:0
     RDKit          3D

 94102  0  0  1  0  0  0  0  0999 V2000
  -29.2160  -17.6660   19.1940 C   0  0  0  0  0  3  0  0  0  0  0  0
  -29.0040  -20.0430   18.6490 C   0  0  0  0  0  3  0  0  0  0  0  0
  -29.8880  -17.9870   20.3950 C   0  0  0  0  0  0  0  0  0  0  0  0
  -29.6560  -20.4030   19.8510 C   0  0  0  0  0  0  0  0  0  0  0  0
  -28.7820  -18.6900   18.3300 C   0  0  0  0  0  0  0  0  0  0  0  0
  -30.0990  -19.3590   20.7110 C   0  0  0  0  0  0  0  0  0  0  0  0
  -28.1440  -18.3650   17.1810 F   0  0  0  0  0  0  0  0  0  0  0  0
  -30.7370  -19.6840   21.8630 F   0  0  0  0  0  0  0  0  0  0  0  0
  -29.8770  -21.7600   20.2070 N   0  0  0  0  0  0  0  0  0  0  0  0
  -30.2700  -21.9750   21.1210 H   0  0  0  0  0  0  0  0  0  0  0  0
  -29.2420  -22.8610   19.4600 C   0  0  0  0  0  2  0  0  0  0  0  0
  -29.3300  -24.2700   20.1010 C   0  0  0  0  0  0  0  0  0  0  0  0
  -30.2170  -24.5560   20.9130 O   0  0  0  0  0  0  0  0  0  0  0  0
  -28.2260  -25.2640   19.6760 C   0  0  0  0  0  2  0  0  0  0  0  0
  -28.3620  -26.6170   20.1830 O   0  0  0  0  0  0  0  0  0  0  0  0
  -24.5850  -31.8840   23.2340 C   0  0  0  0  0  0  0  0  0  0  0  0
  -27.2050  -27.3900   20.1570 C   0  0  0  0  0  0  0  0  0  0  0  0
  -23.3740  -30.4850   21.5980 C   0  0  0  0  0  3  0  0  0  0  0  0
  -24.8220  -28.9430   20.1750 C   0  0  0  0  0  0  0  0  0  0  0  0
  -25.9090  -30.8200   21.4060 C   0  0  0  0  0  2  0  0  0  0  0  0
  -25.9870  -29.4470   20.7650 C   0  0  0  0  0  0  0  0  0  0  0  0
  -27.1810  -28.6780   20.7580 C   0  0  0  0  0  3  0  0  0  0  0  0
  -26.0110  -26.9240   19.5510 C   0  0  0  0  0  3  0  0  0  0  0  0
  -24.8300  -27.6810   19.5690 C   0  0  0  0  0  3  0  0  0  0  0  0
  -23.5810  -29.8050   20.2210 C   0  0  0  0  0  2  0  0  0  0  0  0
  -24.6410  -31.0780   22.1360 N   0  0  0  0  0  0  0  0  0  0  0  0
  -23.5030  -32.1650   23.7690 O   0  0  0  0  0  0  0  0  0  0  0  0
  -22.7160  -29.4670   22.5580 C   0  0  0  0  0  0  0  0  0  0  0  0
  -21.3900  -29.2920   22.4300 N   0  0  0  0  0  0  0  0  0  0  0  0
  -23.3960  -28.8380   23.3730 O   0  0  0  0  0  0  0  0  0  0  0  0
  -20.9040  -29.8520   21.7440 H   0  0  0  0  0  0  0  0  0  0  0  0
  -18.0100  -28.1140   22.9280 C   0  0  0  0  0  0  0  0  0  0  0  0
  -20.5680  -28.3590   23.2010 C   0  0  0  0  0  3  0  0  0  0  0  0
  -20.6650  -26.9270   22.6280 C   0  0  0  0  0  2  0  0  0  0  0  0
  -19.5630  -26.6060   21.6140 C   0  0  0  0  0  2  0  0  0  0  0  0
  -18.1800  -26.7620   22.2550 C   0  0  0  0  0  2  0  0  0  0  0  0
  -19.1330  -28.8710   23.3560 C   0  0  0  0  0  0  0  0  0  0  0  0
  -18.9220  -30.1390   23.9430 C   0  0  0  0  0  3  0  0  0  0  0  0
  -17.6200  -30.6490   24.1030 C   0  0  0  0  0  3  0  0  0  0  0  0
  -16.5120  -29.8890   23.6930 C   0  0  0  0  0  3  0  0  0  0  0  0
  -16.7080  -28.6220   23.1130 C   0  0  0  0  0  3  0  0  0  0  0  0
  -25.8710  -32.5130   23.8510 C   0  0  0  0  0  3  0  0  0  0  0  0
  -25.5620  -33.9080   24.1900 N   0  0  0  0  0  0  0  0  0  0  0  0
  -25.8790  -34.9650   23.4290 C   0  0  0  0  0  0  0  0  0  0  0  0
  -26.5320  -34.8670   22.3860 O   0  0  0  0  0  0  0  0  0  0  0  0
  -24.9770  -34.0560   24.9990 H   0  0  0  0  0  0  0  0  0  0  0  0
  -24.1310  -36.7480   23.1110 C   0  0  0  0  0  1  0  0  0  0  0  0
  -25.3910  -36.3490   23.8970 C   0  0  0  0  0  3  0  0  0  0  0  0
  -27.5380  -37.2470   24.6830 C   0  0  0  0  0  1  0  0  0  0  0  0
  -26.4130  -37.4100   23.7650 N   0  0  0  0  0  0  0  0  0  0  0  0
  -26.0030  -38.3260   23.9250 H   0  0  0  0  0  0  0  0  0  0  0  0
  -26.3990  -31.7370   25.1200 C   0  0  1  0  0  0  0  0  0  0  0  0
  -25.3130  -31.4890   26.1920 C   0  0  0  0  0  1  0  0  0  0  0  0
  -26.9870  -30.3630   24.7180 C   0  0  0  0  0  1  0  0  0  0  0  0
  -27.5490  -32.5330   25.7810 C   0  0  0  0  0  1  0  0  0  0  0  0
  -30.4030  -16.8860   21.3410 C   0  0  0  0  0  2  0  0  0  0  0  0
  -30.6580  -14.4930   20.5480 C   0  0  0  0  0  0  0  0  0  0  0  0
  -30.3740  -12.3320   19.3820 C   0  0  0  0  0  2  0  0  0  0  0  0
  -29.4350  -12.5340   18.1750 C   0  0  0  0  0  2  0  0  0  0  0  0
  -27.9610  -12.3890   18.6030 C   0  0  0  0  0  2  0  0  0  0  0  0
  -27.6170  -13.2250   19.8650 C   0  0  0  0  0  3  0  0  0  0  0  0
  -28.6670  -13.0030   20.9750 C   0  0  0  0  0  2  0  0  0  0  0  0
  -29.9910  -13.3130   20.4100 N   0  0  0  0  0  0  0  0  0  0  0  0
  -31.7900  -14.6780   20.0910 O   0  0  0  0  0  0  0  0  0  0  0  0
  -29.9500  -15.5010   21.0950 N   0  0  0  0  0  0  0  0  0  0  0  0
  -29.0240  -15.2670   21.4220 H   0  0  0  0  0  0  0  0  0  0  0  0
  -25.2140  -13.8330   20.5550 C   0  0  0  0  0  0  0  0  0  0  0  0
  -24.1440  -13.0610   20.9200 C   0  0  0  0  0  0  0  0  0  0  0  0
  -24.6070  -11.7100   20.9000 C   0  0  0  0  0  0  0  0  0  0  0  0
  -26.2610  -12.9510   20.3350 N   0  0  0  0  0  0  0  0  0  0  0  0
  -25.8990  -11.6690   20.5990 N   0  0  0  0  0  0  0  0  0  0  0  0
  -23.8810  -10.4470   21.0880 C   0  0  0  0  0  0  0  0  0  0  0  0
  -24.3230   -9.4710   22.0070 C   0  0  0  0  0  3  0  0  0  0  0  0
  -23.5970   -8.2740   22.1850 C   0  0  0  0  0  3  0  0  0  0  0  0
  -22.4130   -8.0450   21.4420 C   0  0  0  0  0  0  0  0  0  0  0  0
  -21.9910   -9.0100   20.5130 C   0  0  0  0  0  3  0  0  0  0  0  0
  -22.7180  -10.1980   20.3330 C   0  0  0  0  0  3  0  0  0  0  0  0
  -21.6580   -6.9010   21.5310 O   0  0  0  0  0  0  0  0  0  0  0  0
  -21.6390   -6.1370   22.6710 C   0  0  0  0  0  0  0  0  0  0  0  0
  -21.2640   -6.6740   23.9220 C   0  0  0  0  0  3  0  0  0  0  0  0
  -21.1900   -5.8370   25.0540 C   0  0  0  0  0  3  0  0  0  0  0  0
  -21.4810   -4.4650   24.9350 C   0  0  0  0  0  0  0  0  0  0  0  0
  -21.8480   -3.9270   23.6900 C   0  0  0  0  0  3  0  0  0  0  0  0
  -21.9230   -4.7610   22.5600 C   0  0  0  0  0  0  0  0  0  0  0  0
  -22.2590   -4.2350   21.3580 F   0  0  0  0  0  0  0  0  0  0  0  0
  -21.4030   -3.6590   26.0200 F   0  0  0  0  0  0  0  0  0  0  0  0
  -22.7450  -13.5380   21.1820 C   0  0  0  0  0  0  0  0  0  0  0  0
  -22.0120  -12.8440   22.0460 N   0  0  0  0  0  0  0  0  0  0  0  0
  -22.3090  -14.5620   20.6560 O   0  0  0  0  0  0  0  0  0  0  0  0
  -22.3720  -12.0140   22.4920 H   0  0  0  0  0  0  0  0  0  0  0  0
  -21.0750  -13.1480   22.2660 H   0  0  0  0  0  0  0  0  0  0  0  0
  -25.3800  -15.2020   20.3730 N   0  0  0  0  0  0  0  0  0  0  0  0
  -24.6100  -15.8550   20.4670 H   0  0  0  0  0  0  0  0  0  0  0  0
  -26.2320  -15.6420   20.0480 H   0  0  0  0  0  0  0  0  0  0  0  0
  1  3  1  0
  2  4  2  0
  3  6  2  0
  3 56  1  0
  4  9  1  0
  4  6  1  0
  5  2  1  0
  5  1  2  0
  6  8  1  0
  7  5  1  0
  9 10  1  0
 11 12  1  0
 11  9  1  0
 12 13  2  0
 14 12  1  0
 14 15  1  0
 16 27  2  0
 17 15  1  0
 17 22  1  0
 18 26  1  0
 18 28  1  0
 19 25  1  0
 19 21  1  0
 20 26  1  0
 21 20  1  0
 22 21  2  0
 23 24  1  0
 23 17  2  0
 24 19  2  0
 25 18  1  0
 26 16  1  0
 28 30  2  0
 29 28  1  0
 31 29  1  0
 32 41  2  0
 32 37  1  0
 33 29  1  0
 33 37  1  0
 34 33  1  0
 35 36  1  0
 35 34  1  0
 36 32  1  0
 37 38  2  0
 38 39  1  0
 40 39  2  0
 41 40  1  0
 42 16  1  0
 42 43  1  0
 42 52  1  0
 43 46  1  0
 44 48  1  0
 44 43  1  0
 45 44  2  0
 48 47  1  0
 50 48  1  0
 50 51  1  0
 50 49  1  0
 52 55  1  1
 52 53  1  0
 54 52  1  0
 57 65  1  0
 58 63  1  0
 59 60  1  0
 59 58  1  0
 61 60  1  0
 61 70  1  0
 61 62  1  0
 63 57  1  0
 63 62  1  0
 64 57  2  0
 65 56  1  0
 65 66  1  0
 67 68  2  0
 68 87  1  0
 69 68  1  0
 69 72  1  0
 70 67  1  0
 70 71  1  0
 71 69  2  0
 72 73  1  0
 73 74  2  0
 75 78  1  0
 75 74  1  0
 76 75  2  0
 77 76  1  0
 77 72  2  0
 78 79  1  0
 79 80  1  0
 80 81  2  0
 82 81  1  0
 82 86  1  0
 83 82  2  0
 84 79  2  0
 84 83  1  0
 85 84  1  0
 87 88  1  0
 88 91  1  0
 88 90  1  0
 89 87  2  0
 92 93  1  0
 92 67  1  0
 94 92  1  0
M  ISO  4  14 101  15 101  57 100  65 100
M  END
>  <TORSDO>  (2) 
F 21

>  <SCORE>  (2) 
-13.943

>  <name>  (2) 
1

>  <ligand_id>  (2) 
1

>  <original_smiles>  (2) 
[H]c1c([H])c([H])c2c(c1[H])C([H])([H])C([H])([H])C([H])([H])C2([H])N([H])C(=O)C1([H])N(C(=O)C([H])(N([H])C(=O)C([H])(N([H])C([H])([H])[H])C([H])([H])[H])C(C([H])([H])[H])(C([H])([H])[H])C([H])([H])[H])C([H])([H])c2c([H])c(OC([H])([H])C(=O)C([H])([H])N([H])c3c([H])c(F)c([H])c(C([H])([H])N([H])C(=O)N4C([H])([H])C([H])([H])C([H])([H])C([H])(n5nc(-c6c([H])c([H])c(Oc7c([H])c([H])c(F)c([H])c7F)c([H])c6[H])c(C(=O)N([H])[H])c5N([H])[H])C4([H])[H])c3F)c([H])c([H])c2C1([H])[H]

>  <smiles>  (2) 
[H]c1c([H])c([H])c2c(c1[H])C([H])([H])C([H])([H])C([H])([H])C2([H])N([H])C(=O)C1([H])N(C(=O)C([H])(N([H])C(=O)C([H])(N([H])C([H])([H])[H])C([H])([H])[H])C(C([H])([H])[H])(C([H])([H])[H])C([H])([H])[H])C([H])([H])c2c([H])c(OC([H])([H])C(=O)C([H])([H])N([H])c3c([H])c(F)c([H])c(C([H])([H])N([H])C(=O)N4C([H])([H])C([H])([H])C([H])([H])C([H])(n5nc(-c6c([H])c([H])c(Oc7c([H])c([H])c(F)c([H])c7F)c([H])c6[H])c(C(=O)N([H])[H])c5N([H])[H])C4([H])[H])c3F)c([H])c([H])c2C1([H])[H]

$$$$
2:0:0
     RDKit          3D

 97105  0  0  1  0  0  0  0  0999 V2000
  -28.6140  -21.2420   19.9990 C   0  0  0  0  0  0  0  0  0  0  0  0
  -28.7260  -20.0680   20.6390 N   0  0  0  0  0  0  0  0  0  0  0  0
  -29.5400  -21.7680   19.3780 O   0  0  0  0  0  0  0  0  0  0  0  0
  -27.8820  -19.6840   21.0430 H   0  0  0  0  0  0  0  0  0  0  0  0
  -32.0840  -17.4910   20.7890 C   0  0  0  0  0  3  0  0  0  0  0  0
  -29.7160  -17.8790   20.4120 C   0  0  0  0  0  3  0  0  0  0  0  0
  -32.2730  -18.8520   21.1220 C   0  0  0  0  0  0  0  0  0  0  0  0
  -31.1630  -19.7490   21.0740 C   0  0  0  0  0  0  0  0  0  0  0  0
  -30.8100  -16.9960   20.4500 C   0  0  0  0  0  0  0  0  0  0  0  0
  -29.8870  -19.2530   20.6790 C   0  0  0  0  0  0  0  0  0  0  0  0
  -31.2950  -21.2070   21.5210 C   0  0  0  0  0  1  0  0  0  0  0  0
  -31.2910  -14.6270   19.7740 C   0  0  0  0  0  0  0  0  0  0  0  0
  -31.0300  -12.3020   18.9540 C   0  0  0  0  0  2  0  0  0  0  0  0
  -30.0310  -12.2740   17.7770 C   0  0  0  0  0  2  0  0  0  0  0  0
  -28.5660  -12.2230   18.2690 C   0  0  0  0  0  2  0  0  0  0  0  0
  -28.2720  -13.2580   19.3890 C   0  0  0  0  0  3  0  0  0  0  0  0
  -29.3620  -13.1720   20.4800 C   0  0  0  0  0  2  0  0  0  0  0  0
  -30.6640  -13.4220   19.8280 N   0  0  0  0  0  0  0  0  0  0  0  0
  -32.3610  -14.8180   19.1810 O   0  0  0  0  0  0  0  0  0  0  0  0
  -30.5660  -15.6070   20.3390 N   0  0  0  0  0  0  0  0  0  0  0  0
  -29.6570  -15.3020   20.6550 H   0  0  0  0  0  0  0  0  0  0  0  0
  -25.9840  -14.0470   20.2750 C   0  0  0  0  0  0  0  0  0  0  0  0
  -24.8790  -13.3550   20.6980 C   0  0  0  0  0  0  0  0  0  0  0  0
  -25.2170  -11.9710   20.5880 C   0  0  0  0  0  0  0  0  0  0  0  0
  -26.9300  -13.0890   19.9420 N   0  0  0  0  0  0  0  0  0  0  0  0
  -26.4730  -11.8340   20.1820 N   0  0  0  0  0  0  0  0  0  0  0  0
  -24.4010  -10.7700   20.7910 C   0  0  0  0  0  0  0  0  0  0  0  0
  -24.7510   -9.7910   21.7480 C   0  0  0  0  0  3  0  0  0  0  0  0
  -23.9420   -8.6510   21.9360 C   0  0  0  0  0  3  0  0  0  0  0  0
  -22.7650   -8.4820   21.1700 C   0  0  0  0  0  0  0  0  0  0  0  0
  -22.4320   -9.4480   20.2040 C   0  0  0  0  0  3  0  0  0  0  0  0
  -23.2420  -10.5810   20.0130 C   0  0  0  0  0  3  0  0  0  0  0  0
  -21.9340   -7.3910   21.2650 O   0  0  0  0  0  0  0  0  0  0  0  0
  -21.7350   -6.7400   22.4560 C   0  0  0  0  0  0  0  0  0  0  0  0
  -21.2140   -7.4020   23.5890 C   0  0  0  0  0  3  0  0  0  0  0  0
  -20.9590   -6.6810   24.7720 C   0  0  0  0  0  3  0  0  0  0  0  0
  -21.2150   -5.2980   24.8220 C   0  0  0  0  0  0  0  0  0  0  0  0
  -21.7280   -4.6350   23.6950 C   0  0  0  0  0  3  0  0  0  0  0  0
  -21.9850   -5.3540   22.5140 C   0  0  0  0  0  0  0  0  0  0  0  0
  -22.4600   -4.7050   21.4230 F   0  0  0  0  0  0  0  0  0  0  0  0
  -20.9620   -4.6030   25.9550 F   0  0  0  0  0  0  0  0  0  0  0  0
  -23.5540  -13.9380   21.0930 C   0  0  0  0  0  0  0  0  0  0  0  0
  -22.8370  -13.2820   22.0000 N   0  0  0  0  0  0  0  0  0  0  0  0
  -23.1670  -15.0120   20.6330 O   0  0  0  0  0  0  0  0  0  0  0  0
  -23.1600  -12.4140   22.3990 H   0  0  0  0  0  0  0  0  0  0  0  0
  -21.9480  -13.6580   22.3000 H   0  0  0  0  0  0  0  0  0  0  0  0
  -26.2550  -15.4050   20.1270 N   0  0  0  0  0  0  0  0  0  0  0  0
  -25.5580  -16.1170   20.3170 H   0  0  0  0  0  0  0  0  0  0  0  0
  -27.1050  -15.7840   19.7260 H   0  0  0  0  0  0  0  0  0  0  0  0
  -34.3030  -20.3590   21.2000 C   0  0  0  0  0  2  0  0  0  0  0  0
  -33.6470  -19.2290   21.5120 C   0  0  0  0  0  3  0  0  0  0  0  0
  -27.2580  -21.9470   20.0700 C   0  0  0  0  0  2  0  0  0  0  0  0
  -27.3720  -23.2940   20.8190 C   0  0  0  0  0  2  0  0  0  0  0  0
  -27.7640  -24.4920   19.9520 C   0  0  0  0  0  0  0  0  0  0  0  0
  -27.7890  -24.4400   18.7190 O   0  0  0  0  0  0  0  0  0  0  0  0
  -28.1220  -25.7690   20.7170 C   0  0  0  0  0  2  0  0  0  0  0  0
  -28.0740  -26.9160   19.8730 O   0  0  0  0  0  0  0  0  0  0  0  0
  -24.5280  -31.9940   23.3500 C   0  0  0  0  0  0  0  0  0  0  0  0
  -26.9180  -27.6420   19.9900 C   0  0  0  0  0  0  0  0  0  0  0  0
  -23.2040  -30.6830   21.7180 C   0  0  0  0  0  3  0  0  0  0  0  0
  -24.5540  -29.1650   20.1770 C   0  0  0  0  0  0  0  0  0  0  0  0
  -25.7200  -31.0010   21.4090 C   0  0  0  0  0  2  0  0  0  0  0  0
  -25.7460  -29.6520   20.7260 C   0  0  0  0  0  0  0  0  0  0  0  0
  -26.9320  -28.8940   20.6370 C   0  0  0  0  0  3  0  0  0  0  0  0
  -25.7120  -27.1570   19.4400 C   0  0  0  0  0  3  0  0  0  0  0  0
  -24.5300  -27.9140   19.5320 C   0  0  0  0  0  3  0  0  0  0  0  0
  -23.3310  -30.0470   20.3070 C   0  0  0  0  0  2  0  0  0  0  0  0
  -24.5050  -31.2360   22.2180 N   0  0  0  0  0  0  0  0  0  0  0  0
  -23.4840  -32.2730   23.9520 O   0  0  0  0  0  0  0  0  0  0  0  0
  -22.5780  -29.6390   22.6700 C   0  0  0  0  0  0  0  0  0  0  0  0
  -21.2590  -29.4310   22.5410 N   0  0  0  0  0  0  0  0  0  0  0  0
  -23.2770  -29.0230   23.4790 O   0  0  0  0  0  0  0  0  0  0  0  0
  -20.7580  -29.9830   21.8600 H   0  0  0  0  0  0  0  0  0  0  0  0
  -17.9240  -28.1120   22.9590 C   0  0  0  0  0  0  0  0  0  0  0  0
  -20.4600  -28.4730   23.3020 C   0  0  0  0  0  3  0  0  0  0  0  0
  -20.6370  -27.0370   22.7540 C   0  0  0  0  0  2  0  0  0  0  0  0
  -19.5790  -26.6580   21.7140 C   0  0  0  0  0  2  0  0  0  0  0  0
  -18.1740  -26.7610   22.3120 C   0  0  0  0  0  2  0  0  0  0  0  0
  -18.9990  -28.9220   23.4090 C   0  0  0  0  0  0  0  0  0  0  0  0
  -18.7180  -30.1890   23.9670 C   0  0  0  0  0  3  0  0  0  0  0  0
  -17.3910  -30.6430   24.0840 C   0  0  0  0  0  3  0  0  0  0  0  0
  -16.3290  -29.8310   23.6540 C   0  0  0  0  0  3  0  0  0  0  0  0
  -16.5960  -28.5700   23.0920 C   0  0  0  0  0  3  0  0  0  0  0  0
  -25.8620  -32.5650   23.9270 C   0  0  0  0  0  3  0  0  0  0  0  0
  -25.6170  -33.9620   24.3060 N   0  0  0  0  0  0  0  0  0  0  0  0
  -25.9480  -35.0200   23.5550 C   0  0  0  0  0  0  0  0  0  0  0  0
  -26.5670  -34.9220   22.4910 O   0  0  0  0  0  0  0  0  0  0  0  0
  -25.0690  -34.1140   25.1410 H   0  0  0  0  0  0  0  0  0  0  0  0
  -24.2550  -36.8650   23.3290 C   0  0  0  0  0  1  0  0  0  0  0  0
  -25.5240  -36.4100   24.0670 C   0  0  0  0  0  3  0  0  0  0  0  0
  -27.7200  -37.2180   24.8070 C   0  0  0  0  0  1  0  0  0  0  0  0
  -26.5770  -37.4360   23.9240 N   0  0  0  0  0  0  0  0  0  0  0  0
  -26.2060  -38.3620   24.1150 H   0  0  0  0  0  0  0  0  0  0  0  0
  -26.4150  -31.7360   25.1510 C   0  0  1  0  0  0  0  0  0  0  0  0
  -25.3600  -31.4850   26.2520 C   0  0  0  0  0  1  0  0  0  0  0  0
  -26.9540  -30.3620   24.6850 C   0  0  0  0  0  1  0  0  0  0  0  0
  -27.6040  -32.4860   25.7970 C   0  0  0  0  0  1  0  0  0  0  0  0
  1 52  1  0
  1  2  1  0
  2 10  1  0
  2  4  1  0
  3  1  2  0
  5  7  1  0
  6  9  1  0
  6 10  2  0
  7 51  1  0
  8  7  2  0
  8 11  1  0
  9  5  2  0
 10  8  1  0
 12 18  1  0
 12 20  1  0
 13 18  1  0
 14 15  1  0
 14 13  1  0
 16 15  1  0
 16 25  1  0
 16 17  1  0
 18 17  1  0
 19 12  2  0
 20  9  1  0
 20 21  1  0
 22 23  2  0
 23 42  1  0
 24 23  1  0
 24 27  1  0
 25 26  1  0
 25 22  1  0
 26 24  2  0
 27 28  1  0
 28 29  2  0
 30 33  1  0
 30 29  1  0
 31 30  2  0
 32 31  1  0
 32 27  2  0
 33 34  1  0
 34 39  2  0
 34 35  1  0
 35 36  2  0
 36 37  1  0
 37 41  1  0
 38 37  2  0
 39 38  1  0
 40 39  1  0
 42 43  1  0
 43 46  1  0
 43 45  1  0
 44 42  2  0
 47 22  1  0
 47 48  1  0
 49 47  1  0
 50 51  2  0
 52 53  1  0
 54 56  1  0
 54 53  1  0
 55 54  2  0
 57 59  1  0
 57 56  1  0
 58 69  2  0
 59 64  1  0
 60 68  1  0
 60 70  1  0
 61 67  1  0
 61 63  1  0
 62 68  1  0
 63 62  1  0
 64 63  2  0
 65 66  1  0
 65 59  2  0
 66 61  2  0
 67 60  1  0
 68 58  1  0
 70 72  2  0
 71 70  1  0
 73 71  1  0
 74 83  2  0
 74 79  1  0
 75 71  1  0
 75 79  1  0
 76 75  1  0
 77 78  1  0
 77 76  1  0
 78 74  1  0
 79 80  2  0
 80 81  1  0
 82 81  2  0
 83 82  1  0
 84 58  1  0
 84 85  1  0
 84 94  1  0
 85 88  1  0
 86 90  1  0
 86 85  1  0
 87 86  2  0
 90 89  1  0
 92 90  1  0
 92 93  1  0
 92 91  1  0
 94 97  1  1
 94 95  1  0
 96 94  1  0
M  ISO  4  12 100  20 100  56 101  57 101
M  END
>  <TORSDO>  (3) 
F 22

>  <SCORE>  (3) 
-12.784

>  <name>  (3) 
2

>  <ligand_id>  (3) 
2

>  <original_smiles>  (3) 
[H]C([H])=C([H])c1c([H])c(N([H])C(=O)N2C([H])([H])C([H])([H])C([H])([H])C([H])(n3nc(-c4c([H])c([H])c(Oc5c([H])c([H])c(F)c([H])c5F)c([H])c4[H])c(C(=O)N([H])[H])c3N([H])[H])C2([H])[H])c([H])c(N([H])C(=O)C([H])([H])C([H])([H])C(=O)C([H])([H])Oc2c([H])c([H])c3c(c2[H])C([H])([H])N(C(=O)C([H])(N([H])C(=O)C([H])(N([H])C([H])([H])[H])C([H])([H])[H])C(C([H])([H])[H])(C([H])([H])[H])C([H])([H])[H])C([H])(C(=O)N([H])C2([H])c4c([H])c([H])c([H])c([H])c4C([H])([H])C([H])([H])C2([H])[H])C3([H])[H])c1C([H])([H])[H]

>  <smiles>  (3) 
[H]C([H])=C([H])c1c([H])c(N([H])C(=O)N2C([H])([H])C([H])([H])C([H])([H])C([H])(n3nc(-c4c([H])c([H])c(Oc5c([H])c([H])c(F)c([H])c5F)c([H])c4[H])c(C(=O)N([H])[H])c3N([H])[H])C2([H])[H])c([H])c(N([H])C(=O)C([H])([H])C([H])([H])C(=O)C([H])([H])Oc2c([H])c([H])c3c(c2[H])C([H])([H])N(C(=O)C([H])(N([H])C(=O)C([H])(N([H])C([H])([H])[H])C([H])([H])[H])C(C([H])([H])[H])(C([H])([H])[H])C([H])([H])[H])C([H])(C(=O)N([H])C2([H])c4c([H])c([H])c([H])c([H])c4C([H])([H])C([H])([H])C2([H])[H])C3([H])[H])c1C([H])([H])[H]

$$$$
3:0:0
     RDKit          3D

 96104  0  0  1  0  0  0  0  0999 V2000
  -28.9280  -23.1670   18.9820 C   0  0  0  0  0  0  0  0  0  0  0  0
  -29.4140  -22.0300   19.5100 N   0  0  0  0  0  0  0  0  0  0  0  0
  -28.5710  -23.2230   17.8020 O   0  0  0  0  0  0  0  0  0  0  0  0
  -29.7050  -22.0390   20.4780 H   0  0  0  0  0  0  0  0  0  0  0  0
  -28.4740  -25.4980   19.4310 C   0  0  0  0  0  3  0  0  0  0  0  0
  -28.9030  -24.3070   19.8990 C   0  0  0  0  0  0  0  0  0  0  0  0
  -29.3040  -24.1710   21.1730 O   0  0  0  0  0  0  0  0  0  0  0  0
  -29.2570  -25.0320   21.5670 H   0  0  0  0  0  0  0  0  0  0  0  0
  -28.3680  -26.6320   20.1960 O   0  0  0  0  0  0  0  0  0  0  0  0
  -24.5330  -31.7980   23.2200 C   0  0  0  0  0  0  0  0  0  0  0  0
  -27.1920  -27.3580   20.1490 C   0  0  0  0  0  0  0  0  0  0  0  0
  -23.3360  -30.4060   21.5630 C   0  0  0  0  0  3  0  0  0  0  0  0
  -24.7960  -28.8700   20.1450 C   0  0  0  0  0  0  0  0  0  0  0  0
  -25.8640  -30.7580   21.3860 C   0  0  0  0  0  2  0  0  0  0  0  0
  -25.9500  -29.3890   20.7430 C   0  0  0  0  0  0  0  0  0  0  0  0
  -27.1500  -28.6390   20.7460 C   0  0  0  0  0  3  0  0  0  0  0  0
  -26.0070  -26.8480   19.5620 C   0  0  0  0  0  3  0  0  0  0  0  0
  -24.8190  -27.5980   19.5530 C   0  0  0  0  0  3  0  0  0  0  0  0
  -23.5550  -29.7310   20.1830 C   0  0  0  0  0  2  0  0  0  0  0  0
  -24.5970  -31.0010   22.1150 N   0  0  0  0  0  0  0  0  0  0  0  0
  -23.4480  -32.0700   23.7520 O   0  0  0  0  0  0  0  0  0  0  0  0
  -22.6770  -29.3800   22.5130 C   0  0  0  0  0  0  0  0  0  0  0  0
  -21.3570  -29.1880   22.3630 N   0  0  0  0  0  0  0  0  0  0  0  0
  -23.3500  -28.7620   23.3420 O   0  0  0  0  0  0  0  0  0  0  0  0
  -20.8750  -29.7380   21.6660 H   0  0  0  0  0  0  0  0  0  0  0  0
  -17.9860  -27.9570   22.7840 C   0  0  0  0  0  0  0  0  0  0  0  0
  -20.5320  -28.2470   23.1210 C   0  0  0  0  0  3  0  0  0  0  0  0
  -20.6660  -26.8120   22.5610 C   0  0  0  0  0  2  0  0  0  0  0  0
  -19.5940  -26.4670   21.5220 C   0  0  0  0  0  2  0  0  0  0  0  0
  -18.1960  -26.6040   22.1280 C   0  0  0  0  0  2  0  0  0  0  0  0
  -19.0830  -28.7360   23.2360 C   0  0  0  0  0  0  0  0  0  0  0  0
  -18.8350  -30.0040   23.8060 C   0  0  0  0  0  3  0  0  0  0  0  0
  -17.5220  -30.4920   23.9320 C   0  0  0  0  0  3  0  0  0  0  0  0
  -16.4370  -29.7110   23.4980 C   0  0  0  0  0  3  0  0  0  0  0  0
  -16.6700  -28.4450   22.9300 C   0  0  0  0  0  3  0  0  0  0  0  0
  -25.8160  -32.4230   23.8510 C   0  0  0  0  0  3  0  0  0  0  0  0
  -26.3240  -31.6440   25.1270 C   0  0  1  0  0  0  0  0  0  0  0  0
  -25.2240  -31.4050   26.1870 C   0  0  0  0  0  1  0  0  0  0  0  0
  -26.9060  -30.2680   24.7300 C   0  0  0  0  0  1  0  0  0  0  0  0
  -27.4720  -32.4330   25.7990 C   0  0  0  0  0  1  0  0  0  0  0  0
  -25.5080  -33.8200   24.1830 N   0  0  0  0  0  0  0  0  0  0  0  0
  -25.8400  -34.8720   23.4230 C   0  0  0  0  0  0  0  0  0  0  0  0
  -26.5090  -34.7690   22.3900 O   0  0  0  0  0  0  0  0  0  0  0  0
  -24.9120  -33.9740   24.9830 H   0  0  0  0  0  0  0  0  0  0  0  0
  -24.1090  -36.6620   23.0710 C   0  0  0  0  0  1  0  0  0  0  0  0
  -25.3520  -36.2600   23.8810 C   0  0  0  0  0  3  0  0  0  0  0  0
  -27.4890  -37.1480   24.7020 C   0  0  0  0  0  1  0  0  0  0  0  0
  -26.3840  -37.3140   23.7620 N   0  0  0  0  0  0  0  0  0  0  0  0
  -25.9770  -38.2350   23.9060 H   0  0  0  0  0  0  0  0  0  0  0  0
  -29.7720  -20.9010   18.6460 C   0  0  0  0  0  2  0  0  0  0  0  0
  -29.3150  -19.0670   20.4160 C   0  0  0  0  0  3  0  0  0  0  0  0
  -30.9590  -17.2890   18.9880 C   0  0  0  0  0  3  0  0  0  0  0  0
  -29.9980  -19.5230   19.2640 C   0  0  0  0  0  0  0  0  0  0  0  0
  -30.2410  -16.8070   20.1100 C   0  0  0  0  0  0  0  0  0  0  0  0
  -29.4310  -17.7160   20.8290 C   0  0  0  0  0  0  0  0  0  0  0  0
  -30.8340  -18.6240   18.5670 C   0  0  0  0  0  0  0  0  0  0  0  0
  -28.7240  -17.2760   21.9010 F   0  0  0  0  0  0  0  0  0  0  0  0
  -31.5000  -19.0250   17.4560 F   0  0  0  0  0  0  0  0  0  0  0  0
  -30.8590  -14.4040   19.9120 C   0  0  0  0  0  0  0  0  0  0  0  0
  -30.4020  -12.3060   18.7170 C   0  0  0  0  0  2  0  0  0  0  0  0
  -29.3760  -12.6120   17.6040 C   0  0  0  0  0  2  0  0  0  0  0  0
  -27.9390  -12.4880   18.1450 C   0  0  0  0  0  2  0  0  0  0  0  0
  -27.7290  -13.2660   19.4710 C   0  0  0  0  0  3  0  0  0  0  0  0
  -28.8630  -12.9680   20.4790 C   0  0  0  0  0  2  0  0  0  0  0  0
  -30.1480  -13.2500   19.8190 N   0  0  0  0  0  0  0  0  0  0  0  0
  -31.9660  -14.5470   19.3830 O   0  0  0  0  0  0  0  0  0  0  0  0
  -30.2220  -15.4300   20.5040 N   0  0  0  0  0  0  0  0  0  0  0  0
  -29.4460  -15.1730   21.0940 H   0  0  0  0  0  0  0  0  0  0  0  0
  -25.4050  -13.8850   20.3830 C   0  0  0  0  0  0  0  0  0  0  0  0
  -24.3570  -13.1160   20.8120 C   0  0  0  0  0  0  0  0  0  0  0  0
  -24.7920  -11.7600   20.7080 C   0  0  0  0  0  0  0  0  0  0  0  0
  -26.4140  -12.9970   20.0460 N   0  0  0  0  0  0  0  0  0  0  0  0
  -26.0520  -11.7120   20.2950 N   0  0  0  0  0  0  0  0  0  0  0  0
  -24.0630  -10.5030   20.9200 C   0  0  0  0  0  0  0  0  0  0  0  0
  -24.5260   -9.5270   21.8310 C   0  0  0  0  0  3  0  0  0  0  0  0
  -23.7990   -8.3340   22.0320 C   0  0  0  0  0  3  0  0  0  0  0  0
  -22.5920   -8.1130   21.3270 C   0  0  0  0  0  0  0  0  0  0  0  0
  -22.1510   -9.0750   20.4010 C   0  0  0  0  0  3  0  0  0  0  0  0
  -22.8770  -10.2590   20.1970 C   0  0  0  0  0  3  0  0  0  0  0  0
  -21.8340   -6.9720   21.4380 O   0  0  0  0  0  0  0  0  0  0  0  0
  -21.7790   -6.2540   22.6060 C   0  0  0  0  0  0  0  0  0  0  0  0
  -21.3620   -6.8390   23.8220 C   0  0  0  0  0  3  0  0  0  0  0  0
  -21.2580   -6.0490   24.9830 C   0  0  0  0  0  3  0  0  0  0  0  0
  -21.5580   -4.6740   24.9270 C   0  0  0  0  0  0  0  0  0  0  0  0
  -21.9690   -4.0890   23.7160 C   0  0  0  0  0  3  0  0  0  0  0  0
  -22.0750   -4.8770   22.5570 C   0  0  0  0  0  0  0  0  0  0  0  0
  -22.4500   -4.3040   21.3880 F   0  0  0  0  0  0  0  0  0  0  0  0
  -21.4480   -3.9110   26.0390 F   0  0  0  0  0  0  0  0  0  0  0  0
  -22.9950  -13.6050   21.2090 C   0  0  0  0  0  0  0  0  0  0  0  0
  -22.3320  -12.8990   22.1210 N   0  0  0  0  0  0  0  0  0  0  0  0
  -22.5290  -14.6460   20.7470 O   0  0  0  0  0  0  0  0  0  0  0  0
  -22.7210  -12.0530   22.5100 H   0  0  0  0  0  0  0  0  0  0  0  0
  -21.4230  -13.2100   22.4300 H   0  0  0  0  0  0  0  0  0  0  0  0
  -25.5830  -15.2570   20.2380 N   0  0  0  0  0  0  0  0  0  0  0  0
  -24.8550  -15.9270   20.4630 H   0  0  0  0  0  0  0  0  0  0  0  0
  -26.4410  -15.6940   19.9320 H   0  0  0  0  0  0  0  0  0  0  0  0
  1  2  1  0
  1  6  1  0
  2  4  1  0
  3  1  2  0
  5  6  2  0
  5  9  1  0
  6  7  1  0
  7  8  1  0
 10 21  2  0
 11  9  1  0
 11 16  1  0
 12 20  1  0
 12 22  1  0
 13 19  1  0
 13 15  1  0
 14 20  1  0
 15 16  2  0
 15 14  1  0
 17 11  2  0
 18 17  1  0
 18 13  2  0
 19 12  1  0
 20 10  1  0
 22 24  2  0
 23 22  1  0
 25 23  1  0
 26 35  2  0
 26 31  1  0
 27 23  1  0
 27 31  1  0
 28 27  1  0
 29 30  1  0
 29 28  1  0
 30 26  1  0
 31 32  2  0
 32 33  1  0
 34 33  2  0
 35 34  1  0
 36 10  1  0
 36 41  1  0
 36 37  1  0
 37 40  1  1
 37 38  1  0
 39 37  1  0
 41 44  1  0
 42 46  1  0
 42 41  1  0
 43 42  2  0
 46 45  1  0
 48 46  1  0
 48 49  1  0
 48 47  1  0
 50 53  1  0
 50  2  1  0
 51 55  1  0
 52 54  1  0
 53 51  2  0
 54 67  1  0
 54 55  2  0
 55 57  1  0
 56 52  2  0
 56 53  1  0
 58 56  1  0
 59 67  1  0
 60 65  1  0
 61 62  1  0
 61 60  1  0
 63 62  1  0
 63 72  1  0
 63 64  1  0
 65 59  1  0
 65 64  1  0
 66 59  2  0
 67 68  1  0
 69 70  2  0
 70 89  1  0
 71 70  1  0
 71 74  1  0
 72 73  1  0
 72 69  1  0
 73 71  2  0
 74 75  1  0
 75 76  2  0
 77 80  1  0
 77 76  1  0
 78 77  2  0
 79 78  1  0
 79 74  2  0
 80 81  1  0
 81 82  1  0
 82 83  2  0
 84 83  1  0
 84 88  1  0
 85 84  2  0
 86 81  2  0
 86 85  1  0
 87 86  1  0
 89 90  1  0
 90 93  1  0
 90 92  1  0
 91 89  2  0
 94 69  1  0
 94 95  1  0
 96 94  1  0
M  ISO  4   5 101   9 101  59 100  67 100
M  END
>  <TORSDO>  (4) 
F 20

>  <SCORE>  (4) 
-13.338

>  <name>  (4) 
3

>  <ligand_id>  (4) 
3

>  <original_smiles>  (4) 
[H]OC(C(=O)N([H])C([H])([H])c1c([H])c(F)c(N([H])C(=O)N2C([H])([H])C([H])([H])C([H])([H])C([H])(n3nc(-c4c([H])c([H])c(Oc5c([H])c([H])c(F)c([H])c5F)c([H])c4[H])c(C(=O)N([H])[H])c3N([H])[H])C2([H])[H])c([H])c1F)=C([H])Oc1c([H])c([H])c2c(c1[H])C([H])([H])N(C(=O)C([H])(N([H])C(=O)C([H])(N([H])C([H])([H])[H])C([H])([H])[H])C(C([H])([H])[H])(C([H])([H])[H])C([H])([H])[H])C([H])(C(=O)N([H])C1([H])c3c([H])c([H])c([H])c([H])c3C([H])([H])C([H])([H])C1([H])[H])C2([H])[H]

>  <smiles>  (4) 
[H]OC(C(=O)N([H])C([H])([H])c1c([H])c(F)c(N([H])C(=O)N2C([H])([H])C([H])([H])C([H])([H])C([H])(n3nc(-c4c([H])c([H])c(Oc5c([H])c([H])c(F)c([H])c5F)c([H])c4[H])c(C(=O)N([H])[H])c3N([H])[H])C2([H])[H])c([H])c1F)=C([H])Oc1c([H])c([H])c2c(c1[H])C([H])([H])N(C(=O)C([H])(N([H])C(=O)C([H])(N([H])C([H])([H])[H])C([H])([H])[H])C(C([H])([H])[H])(C([H])([H])[H])C([H])([H])[H])C([H])(C(=O)N([H])C1([H])c3c([H])c([H])c([H])c([H])c3C([H])([H])C([H])([H])C1([H])[H])C2([H])[H]

$$$$
4:0:0
     RDKit          3D

 98106  0  0  1  0  0  0  0  0999 V2000
  -31.1490  -20.2070   19.4790 C   0  0  0  0  0  3  0  0  0  0  0  0
  -31.6490  -17.8030   19.5020 C   0  0  0  0  0  3  0  0  0  0  0  0
  -29.4320  -18.5940   20.1390 C   0  0  0  0  0  0  0  0  0  0  0  0
  -29.8170  -20.0130   19.9030 C   0  0  0  0  0  0  0  0  0  0  0  0
  -30.3520  -17.4440   19.9430 C   0  0  0  0  0  0  0  0  0  0  0  0
  -32.0370  -19.1380   19.2830 C   0  0  0  0  0  0  0  0  0  0  0  0
  -33.3010  -19.3960   18.8720 F   0  0  0  0  0  0  0  0  0  0  0  0
  -30.7370  -14.7840   19.8110 C   0  0  0  0  0  0  0  0  0  0  0  0
  -30.4090  -12.5410   18.7370 C   0  0  0  0  0  2  0  0  0  0  0  0
  -29.3550  -12.6480   17.6130 C   0  0  0  0  0  2  0  0  0  0  0  0
  -27.9390  -12.4460   18.1820 C   0  0  0  0  0  2  0  0  0  0  0  0
  -27.6870  -13.2810   19.4660 C   0  0  0  0  0  3  0  0  0  0  0  0
  -28.8560  -13.1760   20.4700 C   0  0  0  0  0  2  0  0  0  0  0  0
  -30.0780  -13.5680   19.7580 N   0  0  0  0  0  0  0  0  0  0  0  0
  -31.9010  -14.8170   19.4060 O   0  0  0  0  0  0  0  0  0  0  0  0
  -30.0350  -15.9640   20.1290 N   0  0  0  0  0  0  0  0  0  0  0  0
  -29.1160  -15.7810   20.5040 H   0  0  0  0  0  0  0  0  0  0  0  0
  -25.4010  -13.8230   20.4910 C   0  0  0  0  0  0  0  0  0  0  0  0
  -24.3710  -13.0290   20.9140 C   0  0  0  0  0  0  0  0  0  0  0  0
  -24.8120  -11.6820   20.7380 C   0  0  0  0  0  0  0  0  0  0  0  0
  -26.4030  -12.9590   20.0810 N   0  0  0  0  0  0  0  0  0  0  0  0
  -26.0630  -11.6600   20.2930 N   0  0  0  0  0  0  0  0  0  0  0  0
  -24.0920  -10.4120   20.9120 C   0  0  0  0  0  0  0  0  0  0  0  0
  -24.5520   -9.4160   21.7990 C   0  0  0  0  0  3  0  0  0  0  0  0
  -23.8300   -8.2140   21.9630 C   0  0  0  0  0  3  0  0  0  0  0  0
  -22.6320   -8.0000   21.2410 C   0  0  0  0  0  0  0  0  0  0  0  0
  -22.1910   -8.9860   20.3410 C   0  0  0  0  0  3  0  0  0  0  0  0
  -22.9140  -10.1800   20.1730 C   0  0  0  0  0  3  0  0  0  0  0  0
  -21.8790   -6.8540   21.3160 O   0  0  0  0  0  0  0  0  0  0  0  0
  -21.7980   -6.1220   22.4740 C   0  0  0  0  0  0  0  0  0  0  0  0
  -21.3100   -6.6800   23.6750 C   0  0  0  0  0  3  0  0  0  0  0  0
  -21.1770   -5.8730   24.8240 C   0  0  0  0  0  3  0  0  0  0  0  0
  -21.5220   -4.5100   24.7710 C   0  0  0  0  0  0  0  0  0  0  0  0
  -22.0030   -3.9510   23.5740 C   0  0  0  0  0  3  0  0  0  0  0  0
  -22.1370   -4.7540   22.4270 C   0  0  0  0  0  0  0  0  0  0  0  0
  -22.5810   -4.2060   21.2710 F   0  0  0  0  0  0  0  0  0  0  0  0
  -21.3880   -3.7320   25.8710 F   0  0  0  0  0  0  0  0  0  0  0  0
  -23.0160  -13.4940   21.3620 C   0  0  0  0  0  0  0  0  0  0  0  0
  -22.3890  -12.7630   22.2780 N   0  0  0  0  0  0  0  0  0  0  0  0
  -22.5260  -14.5380   20.9360 O   0  0  0  0  0  0  0  0  0  0  0  0
  -22.8000  -11.9190   22.6450 H   0  0  0  0  0  0  0  0  0  0  0  0
  -21.4830  -13.0560   22.6170 H   0  0  0  0  0  0  0  0  0  0  0  0
  -25.5590  -15.2010   20.3970 N   0  0  0  0  0  0  0  0  0  0  0  0
  -24.8150  -15.8410   20.6540 H   0  0  0  0  0  0  0  0  0  0  0  0
  -26.3680  -15.6800   20.0240 H   0  0  0  0  0  0  0  0  0  0  0  0
  -28.0020  -18.2670   20.5830 C   0  0  1  0  0  0  0  0  0  0  0  0
  -27.3510  -19.3150   21.0910 F   0  0  0  0  0  0  0  0  0  0  0  0
  -27.3180  -17.8190   19.5310 F   0  0  0  0  0  0  0  0  0  0  0  0
  -28.0040  -17.3110   21.5140 F   0  0  0  0  0  0  0  0  0  0  0  0
  -29.0930  -22.6250   19.8050 C   0  0  0  0  0  0  0  0  0  0  0  0
  -28.9710  -21.2530   20.1160 N   0  0  0  0  0  0  0  0  0  0  0  0
  -29.9830  -23.0470   19.0680 O   0  0  0  0  0  0  0  0  0  0  0  0
  -28.1230  -21.0920   20.6500 H   0  0  0  0  0  0  0  0  0  0  0  0
  -27.7130  -24.8980   20.3360 C   0  0  0  0  0  3  0  0  0  0  0  0
  -28.0400  -23.5270   20.4240 C   0  0  0  0  0  0  0  0  0  0  0  0
  -27.2280  -22.8510   21.2590 O   0  0  0  0  0  0  0  0  0  0  0  0
  -26.6050  -23.4670   21.6200 H   0  0  0  0  0  0  0  0  0  0  0  0
  -28.1210  -26.1120   19.6850 O   0  0  0  0  0  0  0  0  0  0  0  0
  -24.7220  -31.6810   22.9990 C   0  0  0  0  0  0  0  0  0  0  0  0
  -27.1400  -27.1460   19.6730 C   0  0  0  0  0  0  0  0  0  0  0  0
  -23.4620  -30.4130   21.3000 C   0  0  0  0  0  3  0  0  0  0  0  0
  -24.8530  -28.8970   19.7670 C   0  0  0  0  0  0  0  0  0  0  0  0
  -26.0160  -30.6390   21.1140 C   0  0  0  0  0  2  0  0  0  0  0  0
  -26.0480  -29.2900   20.3870 C   0  0  0  0  0  0  0  0  0  0  0  0
  -27.1980  -28.4280   20.3320 C   0  0  0  0  0  3  0  0  0  0  0  0
  -25.9310  -26.8420   19.0140 C   0  0  0  0  0  3  0  0  0  0  0  0
  -24.8020  -27.6820   19.0670 C   0  0  0  0  0  3  0  0  0  0  0  0
  -23.6460  -29.8120   19.8820 C   0  0  0  0  0  2  0  0  0  0  0  0
  -24.7540  -30.9270   21.8610 N   0  0  0  0  0  0  0  0  0  0  0  0
  -23.6520  -31.9640   23.5590 O   0  0  0  0  0  0  0  0  0  0  0  0
  -22.7720  -29.3680   22.2110 C   0  0  0  0  0  0  0  0  0  0  0  0
  -21.4340  -29.2690   22.1210 N   0  0  0  0  0  0  0  0  0  0  0  0
  -23.4400  -28.6530   22.9620 O   0  0  0  0  0  0  0  0  0  0  0  0
  -20.9540  -29.8960   21.4910 H   0  0  0  0  0  0  0  0  0  0  0  0
  -18.0090  -28.2510   22.7130 C   0  0  0  0  0  0  0  0  0  0  0  0
  -20.5910  -28.3230   22.8560 C   0  0  0  0  0  3  0  0  0  0  0  0
  -20.5640  -26.9420   22.1580 C   0  0  0  0  0  2  0  0  0  0  0  0
  -19.3920  -26.7820   21.1840 C   0  0  0  0  0  2  0  0  0  0  0  0
  -18.0580  -26.9580   21.9150 C   0  0  0  0  0  2  0  0  0  0  0  0
  -19.1990  -28.9000   23.1400 C   0  0  0  0  0  0  0  0  0  0  0  0
  -19.0970  -30.1150   23.8510 C   0  0  0  0  0  3  0  0  0  0  0  0
  -17.8390  -30.6800   24.1350 C   0  0  0  0  0  3  0  0  0  0  0  0
  -16.6660  -30.0270   23.7210 C   0  0  0  0  0  3  0  0  0  0  0  0
  -16.7520  -28.8130   23.0160 C   0  0  0  0  0  3  0  0  0  0  0  0
  -26.0280  -32.2420   23.6410 C   0  0  0  0  0  3  0  0  0  0  0  0
  -26.5510  -31.3680   24.8480 C   0  0  1  0  0  0  0  0  0  0  0  0
  -25.4760  -31.0870   25.9250 C   0  0  0  0  0  1  0  0  0  0  0  0
  -27.0820  -30.0050   24.3500 C   0  0  0  0  0  1  0  0  0  0  0  0
  -27.7390  -32.0810   25.5340 C   0  0  0  0  0  1  0  0  0  0  0  0
  -25.7510  -33.6170   24.0840 N   0  0  0  0  0  0  0  0  0  0  0  0
  -26.0740  -34.7200   23.3940 C   0  0  0  0  0  0  0  0  0  0  0  0
  -26.7040  -34.6840   22.3330 O   0  0  0  0  0  0  0  0  0  0  0  0
  -25.1890  -33.7200   24.9160 H   0  0  0  0  0  0  0  0  0  0  0  0
  -24.3660  -36.5610   23.2420 C   0  0  0  0  0  1  0  0  0  0  0  0
  -25.6300  -36.0780   23.9720 C   0  0  0  0  0  3  0  0  0  0  0  0
  -27.8040  -36.8740   24.7900 C   0  0  0  0  0  1  0  0  0  0  0  0
  -26.6750  -37.1220   23.8950 N   0  0  0  0  0  0  0  0  0  0  0  0
  -26.2890  -38.0350   24.1180 H   0  0  0  0  0  0  0  0  0  0  0  0
  1  4  1  0
  2  5  2  0
  3 46  1  0
  4 51  1  0
  4  3  2  0
  5 16  1  0
  5  3  1  0
  6  1  2  0
  6  2  1  0
  7  6  1  0
  8 16  1  0
  9 14  1  0
 10 11  1  0
 10  9  1  0
 12 11  1  0
 12 21  1  0
 12 13  1  0
 14  8  1  0
 14 13  1  0
 15  8  2  0
 16 17  1  0
 18 19  2  0
 19 38  1  0
 20 23  1  0
 20 19  1  0
 21 22  1  0
 21 18  1  0
 22 20  2  0
 23 24  1  0
 24 25  2  0
 26 29  1  0
 26 25  1  0
 27 26  2  0
 28 27  1  0
 28 23  2  0
 29 30  1  0
 30 31  1  0
 31 32  2  0
 33 32  1  0
 33 37  1  0
 34 33  2  0
 35 30  2  0
 35 34  1  0
 36 35  1  0
 38 39  1  0
 39 42  1  0
 39 41  1  0
 40 38  2  0
 43 18  1  0
 43 44  1  0
 45 43  1  0
 46 47  1  1
 46 49  1  0
 48 46  1  0
 50 51  1  0
 50 55  1  0
 51 53  1  0
 52 50  2  0
 54 55  2  0
 55 56  1  0
 56 57  1  0
 58 54  1  0
 59 70  2  0
 60 58  1  0
 60 65  1  0
 61 69  1  0
 61 71  1  0
 62 68  1  0
 62 64  1  0
 63 69  1  0
 64 63  1  0
 65 64  2  0
 66 67  1  0
 66 60  2  0
 67 62  2  0
 68 61  1  0
 69 59  1  0
 71 73  2  0
 72 71  1  0
 74 72  1  0
 75 84  2  0
 75 80  1  0
 76 72  1  0
 76 80  1  0
 77 76  1  0
 78 79  1  0
 78 77  1  0
 79 75  1  0
 80 81  2  0
 81 82  1  0
 83 82  2  0
 84 83  1  0
 85 59  1  0
 85 90  1  0
 85 86  1  0
 86 89  1  1
 86 87  1  0
 88 86  1  0
 90 93  1  0
 91 95  1  0
 91 90  1  0
 92 91  2  0
 95 94  1  0
 97 95  1  0
 97 98  1  0
 97 96  1  0
M  ISO  4   8 100  16 100  54 101  58 101
M  END
>  <TORSDO>  (5) 
F 20

>  <SCORE>  (5) 
-12.376

>  <name>  (5) 
4

>  <ligand_id>  (5) 
4

>  <original_smiles>  (5) 
[H]OC(C(=O)N([H])c1c([H])c(F)c([H])c(N([H])C(=O)N2C([H])([H])C([H])([H])C([H])([H])C([H])(n3nc(-c4c([H])c([H])c(Oc5c([H])c([H])c(F)c([H])c5F)c([H])c4[H])c(C(=O)N([H])[H])c3N([H])[H])C2([H])[H])c1C(F)(F)F)=C([H])Oc1c([H])c([H])c2c(c1[H])C([H])([H])N(C(=O)C([H])(N([H])C(=O)C([H])(N([H])C([H])([H])[H])C([H])([H])[H])C(C([H])([H])[H])(C([H])([H])[H])C([H])([H])[H])C([H])(C(=O)N([H])C1([H])c3c([H])c([H])c([H])c([H])c3C([H])([H])C([H])([H])C1([H])[H])C2([H])[H]

>  <smiles>  (5) 
[H]OC(C(=O)N([H])c1c([H])c(F)c([H])c(N([H])C(=O)N2C([H])([H])C([H])([H])C([H])([H])C([H])(n3nc(-c4c([H])c([H])c(Oc5c([H])c([H])c(F)c([H])c5F)c([H])c4[H])c(C(=O)N([H])[H])c3N([H])[H])C2([H])[H])c1C(F)(F)F)=C([H])Oc1c([H])c([H])c2c(c1[H])C([H])([H])N(C(=O)C([H])(N([H])C(=O)C([H])(N([H])C([H])([H])[H])C([H])([H])[H])C(C([H])([H])[H])(C([H])([H])[H])C([H])([H])[H])C([H])(C(=O)N([H])C1([H])c3c([H])c([H])c([H])c([H])c3C([H])([H])C([H])([H])C1([H])[H])C2([H])[H]

$$$$
5:0:0
     RDKit          3D

 91 99  0  0  1  0  0  0  0  0999 V2000
  -29.5940  -23.1000   20.6020 C   0  0  0  0  0  3  0  0  0  0  0  0
  -30.5950  -22.3790   20.9410 N   0  0  0  0  0  0  0  0  0  0  0  0
  -30.6330  -18.7830   19.9070 C   0  0  0  0  0  3  0  0  0  0  0  0
  -30.6750  -20.2980   22.1910 C   0  0  0  0  0  3  0  0  0  0  0  0
  -30.4790  -20.1800   19.7810 C   0  0  0  0  0  0  0  0  0  0  0  0
  -30.5330  -20.9750   20.9560 C   0  0  0  0  0  0  0  0  0  0  0  0
  -30.8480  -18.2190   21.1780 C   0  0  0  0  0  0  0  0  0  0  0  0
  -30.3410  -20.7930   18.3970 C   0  0  0  0  0  1  0  0  0  0  0  0
  -30.8240  -18.9590   22.3060 N   0  0  0  0  0  0  0  0  0  0  0  0
  -31.2930  -16.7680   21.3150 C   0  0  0  0  0  2  0  0  0  0  0  0
  -30.2220  -15.6880   20.9890 C   0  0  0  0  0  2  0  0  0  0  0  0
  -30.7940  -14.4490   20.2600 C   0  0  0  0  0  0  0  0  0  0  0  0
  -30.3750  -12.3250   19.0740 C   0  0  0  0  0  2  0  0  0  0  0  0
  -29.4120  -12.5900   17.8990 C   0  0  0  0  0  2  0  0  0  0  0  0
  -27.9480  -12.4780   18.3680 C   0  0  0  0  0  2  0  0  0  0  0  0
  -27.6690  -13.2990   19.6560 C   0  0  0  0  0  3  0  0  0  0  0  0
  -28.7510  -13.0400   20.7290 C   0  0  0  0  0  2  0  0  0  0  0  0
  -30.0680  -13.3030   20.1310 N   0  0  0  0  0  0  0  0  0  0  0  0
  -31.8810  -14.5740   19.6910 O   0  0  0  0  0  0  0  0  0  0  0  0
  -25.3010  -13.9390   20.4360 C   0  0  0  0  0  0  0  0  0  0  0  0
  -24.2320  -13.1800   20.8310 C   0  0  0  0  0  0  0  0  0  0  0  0
  -24.6700  -11.8220   20.7790 C   0  0  0  0  0  0  0  0  0  0  0  0
  -26.3250  -13.0430   20.1700 N   0  0  0  0  0  0  0  0  0  0  0  0
  -25.9500  -11.7640   20.4330 N   0  0  0  0  0  0  0  0  0  0  0  0
  -23.9300  -10.5710   20.9830 C   0  0  0  0  0  0  0  0  0  0  0  0
  -24.3710   -9.5910   21.9010 C   0  0  0  0  0  3  0  0  0  0  0  0
  -23.6310   -8.4050   22.0920 C   0  0  0  0  0  3  0  0  0  0  0  0
  -22.4350   -8.1890   21.3670 C   0  0  0  0  0  0  0  0  0  0  0  0
  -22.0130   -9.1560   20.4380 C   0  0  0  0  0  3  0  0  0  0  0  0
  -22.7530  -10.3340   20.2440 C   0  0  0  0  0  3  0  0  0  0  0  0
  -21.6660   -7.0540   21.4680 O   0  0  0  0  0  0  0  0  0  0  0  0
  -21.6290   -6.3100   22.6200 C   0  0  0  0  0  0  0  0  0  0  0  0
  -21.2450   -6.8700   23.8580 C   0  0  0  0  0  3  0  0  0  0  0  0
  -21.1550   -6.0540   25.0030 C   0  0  0  0  0  3  0  0  0  0  0  0
  -21.4380   -4.6780   24.9110 C   0  0  0  0  0  0  0  0  0  0  0  0
  -21.8160   -4.1170   23.6780 C   0  0  0  0  0  3  0  0  0  0  0  0
  -21.9080   -4.9300   22.5350 C   0  0  0  0  0  0  0  0  0  0  0  0
  -22.2520   -4.3810   21.3450 F   0  0  0  0  0  0  0  0  0  0  0  0
  -21.3440   -3.8900   26.0080 F   0  0  0  0  0  0  0  0  0  0  0  0
  -22.8510  -13.6780   21.1490 C   0  0  0  0  0  0  0  0  0  0  0  0
  -22.1400  -12.9890   22.0340 N   0  0  0  0  0  0  0  0  0  0  0  0
  -22.4140  -14.7120   20.6470 O   0  0  0  0  0  0  0  0  0  0  0  0
  -22.5070  -12.1510   22.4600 H   0  0  0  0  0  0  0  0  0  0  0  0
  -21.2150  -13.3040   22.2910 H   0  0  0  0  0  0  0  0  0  0  0  0
  -25.4830  -15.3080   20.2620 N   0  0  0  0  0  0  0  0  0  0  0  0
  -24.7330  -15.9760   20.3990 H   0  0  0  0  0  0  0  0  0  0  0  0
  -26.3400  -15.7350   19.9330 H   0  0  0  0  0  0  0  0  0  0  0  0
  -29.5870  -24.6210   20.5540 C   0  0  0  0  0  0  0  0  0  0  0  0
  -30.5730  -25.2990   20.8790 O   0  0  0  0  0  0  0  0  0  0  0  0
  -28.2910  -25.2990   20.0820 C   0  0  0  0  0  2  0  0  0  0  0  0
  -28.3890  -26.7300   20.2030 O   0  0  0  0  0  0  0  0  0  0  0  0
  -24.5660  -31.8920   23.2510 C   0  0  0  0  0  0  0  0  0  0  0  0
  -27.2080  -27.4420   20.1800 C   0  0  0  0  0  0  0  0  0  0  0  0
  -23.3580  -30.4870   21.6120 C   0  0  0  0  0  3  0  0  0  0  0  0
  -24.8100  -28.9480   20.1880 C   0  0  0  0  0  0  0  0  0  0  0  0
  -25.8840  -30.8450   21.4130 C   0  0  0  0  0  2  0  0  0  0  0  0
  -25.9680  -29.4740   20.7740 C   0  0  0  0  0  0  0  0  0  0  0  0
  -27.1700  -28.7300   20.7620 C   0  0  0  0  0  3  0  0  0  0  0  0
  -26.0290  -26.9300   19.5860 C   0  0  0  0  0  3  0  0  0  0  0  0
  -24.8350  -27.6750   19.5920 C   0  0  0  0  0  3  0  0  0  0  0  0
  -23.5670  -29.8060   20.2330 C   0  0  0  0  0  2  0  0  0  0  0  0
  -24.6210  -31.0880   22.1510 N   0  0  0  0  0  0  0  0  0  0  0  0
  -23.4850  -32.1680   23.7900 O   0  0  0  0  0  0  0  0  0  0  0  0
  -22.7070  -29.4670   22.5730 C   0  0  0  0  0  0  0  0  0  0  0  0
  -21.3840  -29.2780   22.4360 N   0  0  0  0  0  0  0  0  0  0  0  0
  -23.3880  -28.8500   23.3950 O   0  0  0  0  0  0  0  0  0  0  0  0
  -20.8980  -29.8330   21.7470 H   0  0  0  0  0  0  0  0  0  0  0  0
  -18.0140  -28.0620   22.9050 C   0  0  0  0  0  0  0  0  0  0  0  0
  -20.5670  -28.3410   23.2040 C   0  0  0  0  0  3  0  0  0  0  0  0
  -20.6870  -26.9070   22.6420 C   0  0  0  0  0  2  0  0  0  0  0  0
  -19.5980  -26.5660   21.6180 C   0  0  0  0  0  2  0  0  0  0  0  0
  -18.2080  -26.7080   22.2440 C   0  0  0  0  0  2  0  0  0  0  0  0
  -19.1230  -28.8360   23.3400 C   0  0  0  0  0  0  0  0  0  0  0  0
  -18.8900  -30.1030   23.9170 C   0  0  0  0  0  3  0  0  0  0  0  0
  -17.5800  -30.5980   24.0620 C   0  0  0  0  0  3  0  0  0  0  0  0
  -16.4860  -29.8220   23.6420 C   0  0  0  0  0  3  0  0  0  0  0  0
  -16.7040  -28.5560   23.0700 C   0  0  0  0  0  3  0  0  0  0  0  0
  -25.8530  -32.5210   23.8700 C   0  0  0  0  0  3  0  0  0  0  0  0
  -25.5450  -33.9190   24.2000 N   0  0  0  0  0  0  0  0  0  0  0  0
  -25.8680  -34.9700   23.4360 C   0  0  0  0  0  0  0  0  0  0  0  0
  -26.5290  -34.8670   22.3990 O   0  0  0  0  0  0  0  0  0  0  0  0
  -24.9590  -34.0740   25.0080 H   0  0  0  0  0  0  0  0  0  0  0  0
  -24.1280  -36.7540   23.0980 C   0  0  0  0  0  1  0  0  0  0  0  0
  -25.3810  -36.3580   23.8950 C   0  0  0  0  0  3  0  0  0  0  0  0
  -27.5240  -37.2540   24.6920 C   0  0  0  0  0  1  0  0  0  0  0  0
  -26.4080  -37.4140   23.7630 N   0  0  0  0  0  0  0  0  0  0  0  0
  -26.0020  -38.3330   23.9150 H   0  0  0  0  0  0  0  0  0  0  0  0
  -26.3750  -31.7480   25.1430 C   0  0  1  0  0  0  0  0  0  0  0  0
  -25.2850  -31.5060   26.2140 C   0  0  0  0  0  1  0  0  0  0  0  0
  -26.9580  -30.3730   24.7430 C   0  0  0  0  0  1  0  0  0  0  0  0
  -27.5240  -32.5420   25.8040 C   0  0  0  0  0  1  0  0  0  0  0  0
  1  2  2  0
  2  6  1  0
  3  7  1  0
  4  9  1  0
  5  3  2  0
  5  6  1  0
  6  4  2  0
  7 10  1  0
  7  9  2  0
  8  5  1  0
 11 10  1  0
 12 11  1  0
 13 18  1  0
 14 15  1  0
 14 13  1  0
 16 15  1  0
 16 23  1  0
 16 17  1  0
 18 12  1  0
 18 17  1  0
 19 12  2  0
 20 21  2  0
 21 40  1  0
 22 21  1  0
 22 25  1  0
 23 24  1  0
 23 20  1  0
 24 22  2  0
 25 26  1  0
 26 27  2  0
 28 31  1  0
 28 27  1  0
 29 28  2  0
 30 29  1  0
 30 25  2  0
 31 32  1  0
 32 33  1  0
 33 34  2  0
 35 34  1  0
 35 39  1  0
 36 35  2  0
 37 32  2  0
 37 36  1  0
 38 37  1  0
 40 41  1  0
 41 44  1  0
 41 43  1  0
 42 40  2  0
 45 46  1  0
 45 20  1  0
 47 45  1  0
 48  1  1  0
 48 49  2  0
 50 51  1  0
 50 48  1  0
 52 63  2  0
 53 51  1  0
 53 58  1  0
 54 62  1  0
 54 64  1  0
 55 61  1  0
 55 57  1  0
 56 62  1  0
 57 56  1  0
 58 57  2  0
 59 60  1  0
 59 53  2  0
 60 55  2  0
 61 54  1  0
 62 52  1  0
 64 66  2  0
 65 64  1  0
 67 65  1  0
 68 77  2  0
 68 73  1  0
 69 65  1  0
 69 73  1  0
 70 69  1  0
 71 72  1  0
 71 70  1  0
 72 68  1  0
 73 74  2  0
 74 75  1  0
 76 75  2  0
 77 76  1  0
 78 52  1  0
 78 79  1  0
 78 88  1  0
 79 82  1  0
 80 84  1  0
 80 79  1  0
 81 80  2  0
 84 83  1  0
 86 84  1  0
 86 87  1  0
 86 85  1  0
 88 91  1  1
 88 89  1  0
 90 88  1  0
M  ISO  4  11 100  12 100  50 101  51 101
M  END
>  <TORSDO>  (6) 
F 21

>  <SCORE>  (6) 
-13.568

>  <name>  (6) 
5

>  <ligand_id>  (6) 
5

>  <original_smiles>  (6) 
[H]C(=Nc1c([H])nc(C([H])([H])C([H])([H])C(=O)N2C([H])([H])C([H])([H])C([H])([H])C([H])(n3nc(-c4c([H])c([H])c(Oc5c([H])c([H])c(F)c([H])c5F)c([H])c4[H])c(C(=O)N([H])[H])c3N([H])[H])C2([H])[H])c([H])c1C([H])([H])[H])C(=O)C([H])([H])Oc1c([H])c([H])c2c(c1[H])C([H])([H])N(C(=O)C([H])(N([H])C(=O)C([H])(N([H])C([H])([H])[H])C([H])([H])[H])C(C([H])([H])[H])(C([H])([H])[H])C([H])([H])[H])C([H])(C(=O)N([H])C1([H])c3c([H])c([H])c([H])c([H])c3C([H])([H])C([H])([H])C1([H])[H])C2([H])[H]

>  <smiles>  (6) 
[H]C(=Nc1c([H])nc(C([H])([H])C([H])([H])C(=O)N2C([H])([H])C([H])([H])C([H])([H])C([H])(n3nc(-c4c([H])c([H])c(Oc5c([H])c([H])c(F)c([H])c5F)c([H])c4[H])c(C(=O)N([H])[H])c3N([H])[H])C2([H])[H])c([H])c1C([H])([H])[H])C(=O)C([H])([H])Oc1c([H])c([H])c2c(c1[H])C([H])([H])N(C(=O)C([H])(N([H])C(=O)C([H])(N([H])C([H])([H])[H])C([H])([H])[H])C(C([H])([H])[H])(C([H])([H])[H])C([H])([H])[H])C([H])(C(=O)N([H])C1([H])c3c([H])c([H])c([H])c([H])c3C([H])([H])C([H])([H])C1([H])[H])C2([H])[H]

$$$$
6:0:0
     RDKit          3D

 94102  0  0  1  0  0  0  0  0999 V2000
  -31.0360  -19.4990   19.7840 C   0  0  0  0  0  3  0  0  0  0  0  0
  -28.9060  -18.2020   20.7740 C   0  0  0  0  0  3  0  0  0  0  0  0
  -31.0790  -18.0730   19.8220 C   0  0  0  0  0  0  0  0  0  0  0  0
  -29.9780  -17.3390   20.3670 C   0  0  0  0  0  0  0  0  0  0  0  0
  -29.9450  -20.2770   20.2450 C   0  0  0  0  0  0  0  0  0  0  0  0
  -29.7840  -23.0200   20.2860 C   0  0  0  0  0  0  0  0  0  0  0  0
  -32.3380  -17.4380   19.2630 C   0  0  0  0  0  1  0  0  0  0  0  0
  -28.8760  -19.5840   20.7250 N   0  0  0  0  0  0  0  0  0  0  0  0
  -30.2550  -21.7160   20.2520 N   0  0  0  0  0  0  0  0  0  0  0  0
  -30.6770  -23.8690   20.3140 O   0  0  0  0  0  0  0  0  0  0  0  0
  -31.2560  -21.8150   20.1870 H   0  0  0  0  0  0  0  0  0  0  0  0
  -30.5810  -14.7250   20.2680 C   0  0  0  0  0  0  0  0  0  0  0  0
  -30.3330  -12.4660   19.2420 C   0  0  0  0  0  2  0  0  0  0  0  0
  -29.3940  -12.5870   18.0220 C   0  0  0  0  0  2  0  0  0  0  0  0
  -27.9250  -12.4210   18.4550 C   0  0  0  0  0  2  0  0  0  0  0  0
  -27.5680  -13.2940   19.6910 C   0  0  0  0  0  3  0  0  0  0  0  0
  -28.6330  -13.1770   20.8040 C   0  0  0  0  0  2  0  0  0  0  0  0
  -29.9330  -13.5130   20.2100 N   0  0  0  0  0  0  0  0  0  0  0  0
  -31.7670  -14.7790   19.9490 O   0  0  0  0  0  0  0  0  0  0  0  0
  -29.8160  -15.8550   20.5200 N   0  0  0  0  0  0  0  0  0  0  0  0
  -28.8970  -15.5890   20.8390 H   0  0  0  0  0  0  0  0  0  0  0  0
  -25.1810  -13.8930   20.4150 C   0  0  0  0  0  0  0  0  0  0  0  0
  -24.1160  -13.1240   20.7990 C   0  0  0  0  0  0  0  0  0  0  0  0
  -24.5780  -11.7730   20.7810 C   0  0  0  0  0  0  0  0  0  0  0  0
  -26.2250  -13.0110   20.1860 N   0  0  0  0  0  0  0  0  0  0  0  0
  -25.8690  -11.7320   20.4700 N   0  0  0  0  0  0  0  0  0  0  0  0
  -23.8520  -10.5120   20.9860 C   0  0  0  0  0  0  0  0  0  0  0  0
  -24.2900   -9.5510   21.9250 C   0  0  0  0  0  3  0  0  0  0  0  0
  -23.5620   -8.3560   22.1170 C   0  0  0  0  0  3  0  0  0  0  0  0
  -22.3850   -8.1120   21.3700 C   0  0  0  0  0  0  0  0  0  0  0  0
  -21.9670   -9.0630   20.4220 C   0  0  0  0  0  3  0  0  0  0  0  0
  -22.6940  -10.2490   20.2270 C   0  0  0  0  0  3  0  0  0  0  0  0
  -21.6300   -6.9690   21.4710 O   0  0  0  0  0  0  0  0  0  0  0  0
  -21.5910   -6.2320   22.6270 C   0  0  0  0  0  0  0  0  0  0  0  0
  -21.1830   -6.7930   23.8560 C   0  0  0  0  0  3  0  0  0  0  0  0
  -21.0900   -5.9820   25.0040 C   0  0  0  0  0  3  0  0  0  0  0  0
  -21.3960   -4.6100   24.9250 C   0  0  0  0  0  0  0  0  0  0  0  0
  -21.7970   -4.0480   23.7000 C   0  0  0  0  0  3  0  0  0  0  0  0
  -21.8910   -4.8570   22.5540 C   0  0  0  0  0  0  0  0  0  0  0  0
  -22.2580   -4.3050   21.3720 F   0  0  0  0  0  0  0  0  0  0  0  0
  -21.3010   -3.8290   26.0260 F   0  0  0  0  0  0  0  0  0  0  0  0
  -22.7190  -13.6060   21.0660 C   0  0  0  0  0  0  0  0  0  0  0  0
  -21.9910  -12.9190   21.9400 N   0  0  0  0  0  0  0  0  0  0  0  0
  -22.2820  -14.6260   20.5360 O   0  0  0  0  0  0  0  0  0  0  0  0
  -22.3580  -12.0940   22.3900 H   0  0  0  0  0  0  0  0  0  0  0  0
  -21.0540  -13.2250   22.1610 H   0  0  0  0  0  0  0  0  0  0  0  0
  -25.3450  -15.2600   20.2180 N   0  0  0  0  0  0  0  0  0  0  0  0
  -24.5660  -15.9070   20.2780 H   0  0  0  0  0  0  0  0  0  0  0  0
  -26.1770  -15.6840   19.8270 H   0  0  0  0  0  0  0  0  0  0  0  0
  -27.4220  -22.6920   21.0990 C   0  0  0  0  0  1  0  0  0  0  0  0
  -27.8130  -23.6350   18.8070 C   0  0  0  0  0  1  0  0  0  0  0  0
  -28.3190  -23.6270   20.2610 C   0  0  2  0  0  0  0  0  0  0  0  0
  -28.1690  -25.1370   20.8790 C   0  0  0  0  0  2  0  0  0  0  0  0
  -28.3480  -26.4350   20.1600 O   0  0  0  0  0  0  0  0  0  0  0  0
  -24.6210  -31.8650   23.2000 C   0  0  0  0  0  0  0  0  0  0  0  0
  -27.2520  -27.3160   20.1430 C   0  0  0  0  0  0  0  0  0  0  0  0
  -23.4280  -30.4700   21.5500 C   0  0  0  0  0  3  0  0  0  0  0  0
  -24.8900  -28.9300   20.1180 C   0  0  0  0  0  0  0  0  0  0  0  0
  -25.9680  -30.7960   21.3730 C   0  0  0  0  0  2  0  0  0  0  0  0
  -26.0560  -29.4190   20.7230 C   0  0  0  0  0  0  0  0  0  0  0  0
  -27.2450  -28.6250   20.7200 C   0  0  0  0  0  3  0  0  0  0  0  0
  -26.0650  -26.8810   19.5190 C   0  0  0  0  0  3  0  0  0  0  0  0
  -24.8980  -27.6690   19.5020 C   0  0  0  0  0  3  0  0  0  0  0  0
  -23.6490  -29.8010   20.1670 C   0  0  0  0  0  2  0  0  0  0  0  0
  -24.6910  -31.0610   22.0980 N   0  0  0  0  0  0  0  0  0  0  0  0
  -23.5340  -32.1350   23.7320 O   0  0  0  0  0  0  0  0  0  0  0  0
  -22.7660  -29.4450   22.5030 C   0  0  0  0  0  0  0  0  0  0  0  0
  -21.4380  -29.2750   22.3830 N   0  0  0  0  0  0  0  0  0  0  0  0
  -23.4470  -28.8080   23.3110 O   0  0  0  0  0  0  0  0  0  0  0  0
  -20.9480  -29.8410   21.7050 H   0  0  0  0  0  0  0  0  0  0  0  0
  -18.0560  -28.0960   22.8980 C   0  0  0  0  0  0  0  0  0  0  0  0
  -20.6190  -28.3330   23.1490 C   0  0  0  0  0  3  0  0  0  0  0  0
  -20.7050  -26.9080   22.5540 C   0  0  0  0  0  2  0  0  0  0  0  0
  -19.5920  -26.6070   21.5470 C   0  0  0  0  0  2  0  0  0  0  0  0
  -18.2160  -26.7540   22.2030 C   0  0  0  0  0  2  0  0  0  0  0  0
  -19.1840  -28.8440   23.3270 C   0  0  0  0  0  0  0  0  0  0  0  0
  -18.9770  -30.1020   23.9360 C   0  0  0  0  0  3  0  0  0  0  0  0
  -17.6770  -30.6090   24.1200 C   0  0  0  0  0  3  0  0  0  0  0  0
  -16.5640  -29.8560   23.7060 C   0  0  0  0  0  3  0  0  0  0  0  0
  -16.7540  -28.6020   23.1000 C   0  0  0  0  0  3  0  0  0  0  0  0
  -25.8980  -32.5000   23.8310 C   0  0  0  0  0  3  0  0  0  0  0  0
  -25.5810  -33.8960   24.1670 N   0  0  0  0  0  0  0  0  0  0  0  0
  -25.9140  -34.9550   23.4170 C   0  0  0  0  0  0  0  0  0  0  0  0
  -26.5880  -34.8600   22.3870 O   0  0  0  0  0  0  0  0  0  0  0  0
  -24.9860  -34.0460   24.9700 H   0  0  0  0  0  0  0  0  0  0  0  0
  -24.1810  -36.7440   23.0710 C   0  0  0  0  0  1  0  0  0  0  0  0
  -25.4210  -36.3400   23.8820 C   0  0  0  0  0  3  0  0  0  0  0  0
  -27.5530  -37.2240   24.7220 C   0  0  0  0  0  1  0  0  0  0  0  0
  -26.4520  -37.3960   23.7770 N   0  0  0  0  0  0  0  0  0  0  0  0
  -26.0440  -38.3140   23.9310 H   0  0  0  0  0  0  0  0  0  0  0  0
  -26.4120  -31.7250   25.1060 C   0  0  1  0  0  0  0  0  0  0  0  0
  -25.3160  -31.4800   26.1700 C   0  0  0  0  0  1  0  0  0  0  0  0
  -26.9980  -30.3510   24.7090 C   0  0  0  0  0  1  0  0  0  0  0  0
  -27.5590  -32.5190   25.7740 C   0  0  0  0  0  1  0  0  0  0  0  0
  1  3  2  0
  1  5  1  0
  3  4  1  0
  4 20  1  0
  4  2  2  0
  5  9  1  0
  5  8  2  0
  6 10  2  0
  7  3  1  0
  8  2  1  0
  9  6  1  0
 11  9  1  0
 12 20  1  0
 13 18  1  0
 14 15  1  0
 14 13  1  0
 16 15  1  0
 16 25  1  0
 16 17  1  0
 18 12  1  0
 18 17  1  0
 19 12  2  0
 20 21  1  0
 22 23  2  0
 23 42  1  0
 24 23  1  0
 24 27  1  0
 25 22  1  0
 25 26  1  0
 26 24  2  0
 27 28  1  0
 28 29  2  0
 30 33  1  0
 30 29  1  0
 31 30  2  0
 32 31  1  0
 32 27  2  0
 33 34  1  0
 34 35  1  0
 35 36  2  0
 37 36  1  0
 37 41  1  0
 38 37  2  0
 39 34  2  0
 39 38  1  0
 40 39  1  0
 42 43  1  0
 43 46  1  0
 43 45  1  0
 44 42  2  0
 47 48  1  0
 47 22  1  0
 49 47  1  0
 52 51  1  6
 52  6  1  0
 52 53  1  0
 52 50  1  0
 54 53  1  0
 55 66  2  0
 56 54  1  0
 56 61  1  0
 57 65  1  0
 57 67  1  0
 58 64  1  0
 58 60  1  0
 59 65  1  0
 60 59  1  0
 61 60  2  0
 62 56  2  0
 63 62  1  0
 63 58  2  0
 64 57  1  0
 65 55  1  0
 67 69  2  0
 68 67  1  0
 70 68  1  0
 71 80  2  0
 71 76  1  0
 72 68  1  0
 72 76  1  0
 73 72  1  0
 74 75  1  0
 74 73  1  0
 75 71  1  0
 76 77  2  0
 77 78  1  0
 79 78  2  0
 80 79  1  0
 81 55  1  0
 81 82  1  0
 81 91  1  0
 82 85  1  0
 83 87  1  0
 83 82  1  0
 84 83  2  0
 87 86  1  0
 89 87  1  0
 89 90  1  0
 89 88  1  0
 91 94  1  1
 91 92  1  0
 93 91  1  0
M  ISO  4  12 100  20 100  53 101  54 101
M  END
>  <TORSDO>  (7) 
F 18

>  <SCORE>  (7) 
-14.774

>  <name>  (7) 
6

>  <ligand_id>  (7) 
6

>  <original_smiles>  (7) 
[H]c1nc(N([H])C(=O)C(C([H])([H])[H])(C([H])([H])[H])C([H])([H])Oc2c([H])c([H])c3c(c2[H])C([H])([H])N(C(=O)C([H])(N([H])C(=O)C([H])(N([H])C([H])([H])[H])C([H])([H])[H])C(C([H])([H])[H])(C([H])([H])[H])C([H])([H])[H])C([H])(C(=O)N([H])C2([H])c4c([H])c([H])c([H])c([H])c4C([H])([H])C([H])([H])C2([H])[H])C3([H])[H])c([H])c(C([H])([H])[H])c1N([H])C(=O)N1C([H])([H])C([H])([H])C([H])([H])C([H])(n2nc(-c3c([H])c([H])c(Oc4c([H])c([H])c(F)c([H])c4F)c([H])c3[H])c(C(=O)N([H])[H])c2N([H])[H])C1([H])[H]

>  <smiles>  (7) 
[H]c1nc(N([H])C(=O)C(C([H])([H])[H])(C([H])([H])[H])C([H])([H])Oc2c([H])c([H])c3c(c2[H])C([H])([H])N(C(=O)C([H])(N([H])C(=O)C([H])(N([H])C([H])([H])[H])C([H])([H])[H])C(C([H])([H])[H])(C([H])([H])[H])C([H])([H])[H])C([H])(C(=O)N([H])C2([H])c4c([H])c([H])c([H])c([H])c4C([H])([H])C([H])([H])C2([H])[H])C3([H])[H])c([H])c(C([H])([H])[H])c1N([H])C(=O)N1C([H])([H])C([H])([H])C([H])([H])C([H])(n2nc(-c3c([H])c([H])c(Oc4c([H])c([H])c(F)c([H])c4F)c([H])c3[H])c(C(=O)N([H])[H])c2N([H])[H])C1([H])[H]

$$$$
7:0:0
     RDKit          3D

 95103  0  0  1  0  0  0  0  0999 V2000
  -28.6620  -22.7680   21.2100 C   0  0  0  0  0  0  0  0  0  0  0  0
  -29.6000  -21.7990   21.1680 N   0  0  0  0  0  0  0  0  0  0  0  0
  -27.5190  -22.5720   21.6360 O   0  0  0  0  0  0  0  0  0  0  0  0
  -30.5010  -22.0570   20.7900 H   0  0  0  0  0  0  0  0  0  0  0  0
  -29.1160  -24.1870   20.6930 C   0  0  0  0  0  0  0  0  0  0  0  0
  -30.2950  -24.4640   20.4360 O   0  0  0  0  0  0  0  0  0  0  0  0
  -27.9630  -25.2020   20.5080 C   0  0  0  0  0  2  0  0  0  0  0  0
  -28.3310  -26.5710   20.1700 O   0  0  0  0  0  0  0  0  0  0  0  0
  -24.6180  -31.8680   23.2110 C   0  0  0  0  0  0  0  0  0  0  0  0
  -27.2210  -27.4020   20.1000 C   0  0  0  0  0  0  0  0  0  0  0  0
  -23.4080  -30.4950   21.5530 C   0  0  0  0  0  3  0  0  0  0  0  0
  -24.8530  -28.9700   20.1100 C   0  0  0  0  0  0  0  0  0  0  0  0
  -25.9430  -30.8240   21.3720 C   0  0  0  0  0  2  0  0  0  0  0  0
  -26.0190  -29.4610   20.7120 C   0  0  0  0  0  0  0  0  0  0  0  0
  -27.2090  -28.6870   20.7010 C   0  0  0  0  0  3  0  0  0  0  0  0
  -26.0380  -26.9560   19.4600 C   0  0  0  0  0  3  0  0  0  0  0  0
  -24.8610  -27.7200   19.4760 C   0  0  0  0  0  3  0  0  0  0  0  0
  -23.6170  -29.8380   20.1650 C   0  0  0  0  0  2  0  0  0  0  0  0
  -24.6750  -31.0760   22.1030 N   0  0  0  0  0  0  0  0  0  0  0  0
  -23.5360  -32.1450   23.7480 O   0  0  0  0  0  0  0  0  0  0  0  0
  -22.7450  -29.4650   22.4980 C   0  0  0  0  0  0  0  0  0  0  0  0
  -21.4170  -29.3040   22.3730 N   0  0  0  0  0  0  0  0  0  0  0  0
  -23.4220  -28.8180   23.3020 O   0  0  0  0  0  0  0  0  0  0  0  0
  -20.9350  -29.8770   21.6950 H   0  0  0  0  0  0  0  0  0  0  0  0
  -18.0280  -28.1380   22.8500 C   0  0  0  0  0  0  0  0  0  0  0  0
  -20.5880  -28.3670   23.1310 C   0  0  0  0  0  3  0  0  0  0  0  0
  -20.6770  -26.9410   22.5420 C   0  0  0  0  0  2  0  0  0  0  0  0
  -19.5740  -26.6390   21.5230 C   0  0  0  0  0  2  0  0  0  0  0  0
  -18.1920  -26.7930   22.1630 C   0  0  0  0  0  2  0  0  0  0  0  0
  -19.1530  -28.8850   23.2900 C   0  0  0  0  0  0  0  0  0  0  0  0
  -18.9450  -30.1450   23.8910 C   0  0  0  0  0  3  0  0  0  0  0  0
  -17.6450  -30.6590   24.0570 C   0  0  0  0  0  3  0  0  0  0  0  0
  -16.5340  -29.9090   23.6320 C   0  0  0  0  0  3  0  0  0  0  0  0
  -16.7270  -28.6510   23.0350 C   0  0  0  0  0  3  0  0  0  0  0  0
  -25.9060  -32.4830   23.8410 C   0  0  0  0  0  3  0  0  0  0  0  0
  -26.4470  -31.6610   25.0740 C   0  0  1  0  0  0  0  0  0  0  0  0
  -25.3710  -31.3740   26.1480 C   0  0  0  0  0  1  0  0  0  0  0  0
  -27.0300  -30.3040   24.6150 C   0  0  0  0  0  1  0  0  0  0  0  0
  -27.6050  -32.4330   25.7490 C   0  0  0  0  0  1  0  0  0  0  0  0
  -25.5910  -33.8620   24.2330 N   0  0  0  0  0  0  0  0  0  0  0  0
  -25.9040  -34.9480   23.5130 C   0  0  0  0  0  0  0  0  0  0  0  0
  -26.5600  -34.8930   22.4700 O   0  0  0  0  0  0  0  0  0  0  0  0
  -25.0060  -33.9790   25.0480 H   0  0  0  0  0  0  0  0  0  0  0  0
  -24.1490  -36.7310   23.2640 C   0  0  0  0  0  1  0  0  0  0  0  0
  -25.4110  -36.3120   24.0340 C   0  0  0  0  0  3  0  0  0  0  0  0
  -27.5580  -37.1810   24.8460 C   0  0  0  0  0  1  0  0  0  0  0  0
  -26.4300  -37.3800   23.9410 N   0  0  0  0  0  0  0  0  0  0  0  0
  -26.0190  -38.2880   24.1400 H   0  0  0  0  0  0  0  0  0  0  0  0
  -29.4290  -20.4090   21.6560 C   0  0  0  0  0  2  0  0  0  0  0  0
  -30.6870  -14.5160   20.5300 C   0  0  0  0  0  0  0  0  0  0  0  0
  -30.4220  -12.3230   19.4360 C   0  0  0  0  0  2  0  0  0  0  0  0
  -29.5000  -12.5140   18.2120 C   0  0  0  0  0  2  0  0  0  0  0  0
  -28.0190  -12.3760   18.6160 C   0  0  0  0  0  2  0  0  0  0  0  0
  -27.6590  -13.2170   19.8700 C   0  0  0  0  0  3  0  0  0  0  0  0
  -28.7000  -13.0250   20.9980 C   0  0  0  0  0  2  0  0  0  0  0  0
  -30.0320  -13.3210   20.4490 N   0  0  0  0  0  0  0  0  0  0  0  0
  -31.8340  -14.6660   20.0960 O   0  0  0  0  0  0  0  0  0  0  0  0
  -30.0660  -17.0530   19.0310 C   0  0  0  0  0  3  0  0  0  0  0  0
  -29.9740  -18.3300   18.4550 C   0  0  0  0  0  0  0  0  0  0  0  0
  -29.7670  -19.4510   19.2730 C   0  0  0  0  0  0  0  0  0  0  0  0
  -29.6650  -19.2460   20.6670 C   0  0  0  0  0  0  0  0  0  0  0  0
  -29.9560  -16.8990   20.4300 C   0  0  0  0  0  0  0  0  0  0  0  0
  -29.7440  -17.9940   21.2180 N   0  0  0  0  0  0  0  0  0  0  0  0
  -29.9610  -15.5700   20.9750 N   0  0  0  0  0  0  0  0  0  0  0  0
  -30.0730  -18.4720   17.1100 F   0  0  0  0  0  0  0  0  0  0  0  0
  -29.6610  -20.6790   18.7080 F   0  0  0  0  0  0  0  0  0  0  0  0
  -29.1620  -15.3410   21.5440 H   0  0  0  0  0  0  0  0  0  0  0  0
  -25.2560  -13.8180   20.5670 C   0  0  0  0  0  0  0  0  0  0  0  0
  -24.1820  -13.0450   20.9160 C   0  0  0  0  0  0  0  0  0  0  0  0
  -24.6390  -11.6920   20.8710 C   0  0  0  0  0  0  0  0  0  0  0  0
  -26.3000  -12.9370   20.3330 N   0  0  0  0  0  0  0  0  0  0  0  0
  -25.9320  -11.6520   20.5730 N   0  0  0  0  0  0  0  0  0  0  0  0
  -23.9060  -10.4300   21.0380 C   0  0  0  0  0  0  0  0  0  0  0  0
  -24.3610   -9.4220   21.9170 C   0  0  0  0  0  3  0  0  0  0  0  0
  -23.6290   -8.2260   22.0750 C   0  0  0  0  0  3  0  0  0  0  0  0
  -22.4270   -8.0290   21.3550 C   0  0  0  0  0  0  0  0  0  0  0  0
  -21.9890   -9.0260   20.4650 C   0  0  0  0  0  3  0  0  0  0  0  0
  -22.7220  -10.2140   20.3050 C   0  0  0  0  0  3  0  0  0  0  0  0
  -21.6650   -6.8870   21.4240 O   0  0  0  0  0  0  0  0  0  0  0  0
  -21.6860   -6.0730   22.5270 C   0  0  0  0  0  0  0  0  0  0  0  0
  -21.4010   -6.5630   23.8200 C   0  0  0  0  0  3  0  0  0  0  0  0
  -21.3660   -5.6790   24.9170 C   0  0  0  0  0  3  0  0  0  0  0  0
  -21.6040   -4.3050   24.7220 C   0  0  0  0  0  0  0  0  0  0  0  0
  -21.8820   -3.8140   23.4340 C   0  0  0  0  0  3  0  0  0  0  0  0
  -21.9190   -4.6960   22.3400 C   0  0  0  0  0  0  0  0  0  0  0  0
  -22.1660   -4.2150   21.0980 F   0  0  0  0  0  0  0  0  0  0  0  0
  -21.5640   -3.4530   25.7730 F   0  0  0  0  0  0  0  0  0  0  0  0
  -22.7840  -13.5250   21.1830 C   0  0  0  0  0  0  0  0  0  0  0  0
  -22.0470  -12.8260   22.0390 N   0  0  0  0  0  0  0  0  0  0  0  0
  -22.3520  -14.5560   20.6680 O   0  0  0  0  0  0  0  0  0  0  0  0
  -22.4080  -11.9940   22.4820 H   0  0  0  0  0  0  0  0  0  0  0  0
  -21.1090  -13.1300   22.2590 H   0  0  0  0  0  0  0  0  0  0  0  0
  -25.4270  -15.1900   20.4050 N   0  0  0  0  0  0  0  0  0  0  0  0
  -24.6540  -15.8400   20.4950 H   0  0  0  0  0  0  0  0  0  0  0  0
  -26.2730  -15.6270   20.0650 H   0  0  0  0  0  0  0  0  0  0  0  0
  1  3  2  0
  2  1  1  0
  2 49  1  0
  4  2  1  0
  5  1  1  0
  6  5  2  0
  7  5  1  0
  8  7  1  0
  9 20  2  0
 10  8  1  0
 10 15  1  0
 11 19  1  0
 11 21  1  0
 12 18  1  0
 12 14  1  0
 13 19  1  0
 14 13  1  0
 15 14  2  0
 16 17  1  0
 16 10  2  0
 17 12  2  0
 18 11  1  0
 19  9  1  0
 21 23  2  0
 22 21  1  0
 24 22  1  0
 25 34  2  0
 25 30  1  0
 26 22  1  0
 26 30  1  0
 27 26  1  0
 28 29  1  0
 28 27  1  0
 29 25  1  0
 30 31  2  0
 31 32  1  0
 33 32  2  0
 34 33  1  0
 35  9  1  0
 35 40  1  0
 35 36  1  0
 36 39  1  1
 36 37  1  0
 38 36  1  0
 40 43  1  0
 41 45  1  0
 41 40  1  0
 42 41  2  0
 45 44  1  0
 47 45  1  0
 47 48  1  0
 47 46  1  0
 50 64  1  0
 51 56  1  0
 52 53  1  0
 52 51  1  0
 54 53  1  0
 54 71  1  0
 54 55  1  0
 56 50  1  0
 56 55  1  0
 57 50  2  0
 58 62  1  0
 59 58  2  0
 59 60  1  0
 60 61  2  0
 61 63  1  0
 61 49  1  0
 62 64  1  0
 62 63  2  0
 64 67  1  0
 65 59  1  0
 66 60  1  0
 68 69  2  0
 69 88  1  0
 70 69  1  0
 70 73  1  0
 71 68  1  0
 71 72  1  0
 72 70  2  0
 73 74  1  0
 74 75  2  0
 76 79  1  0
 76 75  1  0
 77 76  2  0
 78 77  1  0
 78 73  2  0
 79 80  1  0
 80 81  1  0
 81 82  2  0
 83 82  1  0
 83 87  1  0
 84 83  2  0
 85 80  2  0
 85 84  1  0
 86 85  1  0
 88 89  1  0
 89 92  1  0
 89 91  1  0
 90 88  2  0
 93 94  1  0
 93 68  1  0
 95 93  1  0
M  ISO  4   7 101   8 101  50 100  64 100
M  END
>  <TORSDO>  (8) 
F 19

>  <SCORE>  (8) 
-14.203

>  <name>  (8) 
7

>  <ligand_id>  (8) 
7

>  <original_smiles>  (8) 
[H]c1c([H])c([H])c2c(c1[H])C([H])([H])C([H])([H])C([H])([H])C2([H])N([H])C(=O)C1([H])N(C(=O)C([H])(N([H])C(=O)C([H])(N([H])C([H])([H])[H])C([H])([H])[H])C(C([H])([H])[H])(C([H])([H])[H])C([H])([H])[H])C([H])([H])c2c([H])c(OC([H])([H])C(=O)C(=O)N([H])C([H])([H])c3nc(N([H])C(=O)N4C([H])([H])C([H])([H])C([H])([H])C([H])(n5nc(-c6c([H])c([H])c(Oc7c([H])c([H])c(F)c([H])c7F)c([H])c6[H])c(C(=O)N([H])[H])c5N([H])[H])C4([H])[H])c([H])c(F)c3F)c([H])c([H])c2C1([H])[H]

>  <smiles>  (8) 
[H]c1c([H])c([H])c2c(c1[H])C([H])([H])C([H])([H])C([H])([H])C2([H])N([H])C(=O)C1([H])N(C(=O)C([H])(N([H])C(=O)C([H])(N([H])C([H])([H])[H])C([H])([H])[H])C(C([H])([H])[H])(C([H])([H])[H])C([H])([H])[H])C([H])([H])c2c([H])c(OC([H])([H])C(=O)C(=O)N([H])C([H])([H])c3nc(N([H])C(=O)N4C([H])([H])C([H])([H])C([H])([H])C([H])(n5nc(-c6c([H])c([H])c(Oc7c([H])c([H])c(F)c([H])c7F)c([H])c6[H])c(C(=O)N([H])[H])c5N([H])[H])C4([H])[H])c([H])c(F)c3F)c([H])c([H])c2C1([H])[H]

$$$$
8:0:0
     RDKit          3D

 94102  0  0  1  0  0  0  0  0999 V2000
  -28.3710  -20.8040   20.8940 C   0  0  0  0  0  0  0  0  0  0  0  0
  -29.5090  -20.1210   21.0540 N   0  0  0  0  0  0  0  0  0  0  0  0
  -27.3740  -20.5900   21.5860 O   0  0  0  0  0  0  0  0  0  0  0  0
  -29.7150  -20.0580   22.0410 H   0  0  0  0  0  0  0  0  0  0  0  0
  -30.1980  -17.2530   19.1000 C   0  0  0  0  0  3  0  0  0  0  0  0
  -29.9210  -18.6490   19.1440 C   0  0  0  0  0  0  0  0  0  0  0  0
  -30.2030  -16.8160   20.4000 C   0  0  0  0  0  0  0  0  0  0  0  0
  -29.7380  -18.9180   20.4800 C   0  0  0  0  0  0  0  0  0  0  0  0
  -29.8700  -19.5630   17.9480 C   0  0  0  0  0  1  0  0  0  0  0  0
  -29.9070  -17.8160   21.2650 O   0  0  0  0  0  0  0  0  0  0  0  0
  -31.0130  -14.5770   20.1410 C   0  0  0  0  0  0  0  0  0  0  0  0
  -30.6700  -12.4310   18.9990 C   0  0  0  0  0  2  0  0  0  0  0  0
  -29.7050  -12.6730   17.8190 C   0  0  0  0  0  2  0  0  0  0  0  0
  -28.2390  -12.5470   18.2770 C   0  0  0  0  0  2  0  0  0  0  0  0
  -27.9430  -13.3850   19.5490 C   0  0  0  0  0  3  0  0  0  0  0  0
  -29.0140  -13.1260   20.6360 C   0  0  0  0  0  2  0  0  0  0  0  0
  -30.3410  -13.3990   20.0540 N   0  0  0  0  0  0  0  0  0  0  0  0
  -32.0890  -14.7930   19.5730 O   0  0  0  0  0  0  0  0  0  0  0  0
  -30.3740  -15.5400   20.8240 N   0  0  0  0  0  0  0  0  0  0  0  0
  -29.7040  -15.2220   21.5060 H   0  0  0  0  0  0  0  0  0  0  0  0
  -25.5700  -14.0260   20.3170 C   0  0  0  0  0  0  0  0  0  0  0  0
  -24.4990  -13.2660   20.7060 C   0  0  0  0  0  0  0  0  0  0  0  0
  -24.9380  -11.9080   20.6470 C   0  0  0  0  0  0  0  0  0  0  0  0
  -26.5950  -13.1310   20.0530 N   0  0  0  0  0  0  0  0  0  0  0  0
  -26.2190  -11.8520   20.3090 N   0  0  0  0  0  0  0  0  0  0  0  0
  -24.2010  -10.6540   20.8420 C   0  0  0  0  0  0  0  0  0  0  0  0
  -24.5890   -9.7130   21.8200 C   0  0  0  0  0  3  0  0  0  0  0  0
  -23.8520   -8.5220   22.0000 C   0  0  0  0  0  3  0  0  0  0  0  0
  -22.7120   -8.2650   21.2010 C   0  0  0  0  0  0  0  0  0  0  0  0
  -22.3450   -9.1950   20.2120 C   0  0  0  0  0  3  0  0  0  0  0  0
  -23.0830  -10.3770   20.0300 C   0  0  0  0  0  3  0  0  0  0  0  0
  -21.9500   -7.1250   21.2890 O   0  0  0  0  0  0  0  0  0  0  0  0
  -21.7810   -6.4620   22.4780 C   0  0  0  0  0  0  0  0  0  0  0  0
  -21.1900   -7.0840   23.6000 C   0  0  0  0  0  3  0  0  0  0  0  0
  -20.9720   -6.3450   24.7810 C   0  0  0  0  0  3  0  0  0  0  0  0
  -21.3320   -4.9850   24.8370 C   0  0  0  0  0  0  0  0  0  0  0  0
  -21.9130   -4.3630   23.7180 C   0  0  0  0  0  3  0  0  0  0  0  0
  -22.1340   -5.0990   22.5420 C   0  0  0  0  0  0  0  0  0  0  0  0
  -22.6750   -4.4890   21.4590 F   0  0  0  0  0  0  0  0  0  0  0  0
  -21.1140   -4.2720   25.9670 F   0  0  0  0  0  0  0  0  0  0  0  0
  -23.1170  -13.7590   21.0200 C   0  0  0  0  0  0  0  0  0  0  0  0
  -22.4040  -13.0660   21.9010 N   0  0  0  0  0  0  0  0  0  0  0  0
  -22.6780  -14.7940   20.5200 O   0  0  0  0  0  0  0  0  0  0  0  0
  -22.7750  -12.2310   22.3310 H   0  0  0  0  0  0  0  0  0  0  0  0
  -21.4750  -13.3730   22.1530 H   0  0  0  0  0  0  0  0  0  0  0  0
  -25.7520  -15.3970   20.1520 N   0  0  0  0  0  0  0  0  0  0  0  0
  -24.9990  -16.0620   20.2870 H   0  0  0  0  0  0  0  0  0  0  0  0
  -26.6070  -15.8280   19.8230 H   0  0  0  0  0  0  0  0  0  0  0  0
  -28.3930  -21.9990   19.9490 C   0  0  0  0  0  2  0  0  0  0  0  0
  -28.7690  -23.2800   20.7130 C   0  0  0  0  0  2  0  0  0  0  0  0
  -28.6650  -24.5420   19.8620 C   0  0  0  0  0  0  0  0  0  0  0  0
  -28.6140  -24.4930   18.6280 O   0  0  0  0  0  0  0  0  0  0  0  0
  -28.6390  -25.8690   20.6260 C   0  0  0  0  0  2  0  0  0  0  0  0
  -28.5340  -26.9740   19.7320 O   0  0  0  0  0  0  0  0  0  0  0  0
  -24.5090  -31.7590   23.0900 C   0  0  0  0  0  0  0  0  0  0  0  0
  -27.3270  -27.6160   19.7940 C   0  0  0  0  0  0  0  0  0  0  0  0
  -23.3490  -30.3780   21.3930 C   0  0  0  0  0  3  0  0  0  0  0  0
  -24.8570  -28.9690   19.8930 C   0  0  0  0  0  0  0  0  0  0  0  0
  -25.8470  -30.8660   21.1920 C   0  0  0  0  0  2  0  0  0  0  0  0
  -25.9910  -29.5310   20.4960 C   0  0  0  0  0  0  0  0  0  0  0  0
  -27.2300  -28.8600   20.4460 C   0  0  0  0  0  3  0  0  0  0  0  0
  -26.1840  -27.0530   19.1890 C   0  0  0  0  0  3  0  0  0  0  0  0
  -24.9490  -27.7270   19.2360 C   0  0  0  0  0  3  0  0  0  0  0  0
  -23.5720  -29.7600   19.9860 C   0  0  0  0  0  2  0  0  0  0  0  0
  -24.5860  -31.0130   21.9530 N   0  0  0  0  0  0  0  0  0  0  0  0
  -23.4220  -31.9590   23.6510 O   0  0  0  0  0  0  0  0  0  0  0  0
  -22.7510  -29.2890   22.3130 C   0  0  0  0  0  0  0  0  0  0  0  0
  -21.4350  -29.0610   22.1880 N   0  0  0  0  0  0  0  0  0  0  0  0
  -23.4680  -28.6540   23.0910 O   0  0  0  0  0  0  0  0  0  0  0  0
  -20.9150  -29.6320   21.5350 H   0  0  0  0  0  0  0  0  0  0  0  0
  -18.1150  -27.7250   22.6630 C   0  0  0  0  0  0  0  0  0  0  0  0
  -20.6630  -28.0550   22.9180 C   0  0  0  0  0  3  0  0  0  0  0  0
  -20.8060  -26.6590   22.2660 C   0  0  0  0  0  2  0  0  0  0  0  0
  -19.7020  -26.3540   21.2480 C   0  0  0  0  0  2  0  0  0  0  0  0
  -18.3260  -26.4190   21.9170 C   0  0  0  0  0  2  0  0  0  0  0  0
  -19.2120  -28.5010   23.1190 C   0  0  0  0  0  0  0  0  0  0  0  0
  -18.9600  -29.7260   23.7730 C   0  0  0  0  0  3  0  0  0  0  0  0
  -17.6410  -30.1760   23.9760 C   0  0  0  0  0  3  0  0  0  0  0  0
  -16.5580  -29.3940   23.5380 C   0  0  0  0  0  3  0  0  0  0  0  0
  -16.7960  -28.1710   22.8870 C   0  0  0  0  0  3  0  0  0  0  0  0
  -25.7740  -32.4130   23.7280 C   0  0  0  0  0  3  0  0  0  0  0  0
  -25.4190  -33.7890   24.1020 N   0  0  0  0  0  0  0  0  0  0  0  0
  -25.7230  -34.8740   23.3770 C   0  0  0  0  0  0  0  0  0  0  0  0
  -26.4020  -34.8260   22.3490 O   0  0  0  0  0  0  0  0  0  0  0  0
  -24.8140  -33.8980   24.9020 H   0  0  0  0  0  0  0  0  0  0  0  0
  -23.9460  -36.6240   23.0560 C   0  0  0  0  0  1  0  0  0  0  0  0
  -25.1860  -36.2300   23.8740 C   0  0  0  0  0  3  0  0  0  0  0  0
  -27.2740  -37.1540   24.7760 C   0  0  0  0  0  1  0  0  0  0  0  0
  -26.1870  -37.3170   23.8140 N   0  0  0  0  0  0  0  0  0  0  0  0
  -25.7510  -38.2210   23.9780 H   0  0  0  0  0  0  0  0  0  0  0  0
  -26.3230  -31.6190   24.9760 C   0  0  1  0  0  0  0  0  0  0  0  0
  -25.2440  -31.3000   26.0370 C   0  0  0  0  0  1  0  0  0  0  0  0
  -26.9570  -30.2810   24.5300 C   0  0  0  0  0  1  0  0  0  0  0  0
  -27.4440  -32.4320   25.6640 C   0  0  0  0  0  1  0  0  0  0  0  0
  1  2  1  0
  1  3  2  0
  2  4  1  0
  5  6  1  0
  5  7  2  0
  6  8  2  0
  7 19  1  0
  7 10  1  0
  8  2  1  0
  8 10  1  0
  9  6  1  0
 11 19  1  0
 12 17  1  0
 13 14  1  0
 13 12  1  0
 15 14  1  0
 15 24  1  0
 15 16  1  0
 17 11  1  0
 17 16  1  0
 18 11  2  0
 19 20  1  0
 21 22  2  0
 22 41  1  0
 23 22  1  0
 23 26  1  0
 24 25  1  0
 24 21  1  0
 25 23  2  0
 26 27  1  0
 27 28  2  0
 29 32  1  0
 29 28  1  0
 30 29  2  0
 31 30  1  0
 31 26  2  0
 32 33  1  0
 33 38  2  0
 33 34  1  0
 34 35  2  0
 35 36  1  0
 36 40  1  0
 37 36  2  0
 38 37  1  0
 39 38  1  0
 41 42  1  0
 42 45  1  0
 42 44  1  0
 43 41  2  0
 46 47  1  0
 46 21  1  0
 48 46  1  0
 49 50  1  0
 49  1  1  0
 51 53  1  0
 51 50  1  0
 52 51  2  0
 54 56  1  0
 54 53  1  0
 55 66  2  0
 56 61  1  0
 57 65  1  0
 57 67  1  0
 58 64  1  0
 58 60  1  0
 59 65  1  0
 60 59  1  0
 61 60  2  0
 62 63  1  0
 62 56  2  0
 63 58  2  0
 64 57  1  0
 65 55  1  0
 67 69  2  0
 68 67  1  0
 70 68  1  0
 71 80  2  0
 71 76  1  0
 72 68  1  0
 72 76  1  0
 73 72  1  0
 74 75  1  0
 74 73  1  0
 75 71  1  0
 76 77  2  0
 77 78  1  0
 79 78  2  0
 80 79  1  0
 81 55  1  0
 81 82  1  0
 81 91  1  0
 82 85  1  0
 83 87  1  0
 83 82  1  0
 84 83  2  0
 87 86  1  0
 89 87  1  0
 89 90  1  0
 89 88  1  0
 91 94  1  1
 91 92  1  0
 93 91  1  0
M  ISO  4  11 100  19 100  53 101  54 101
M  END
>  <TORSDO>  (9) 
F 21

>  <SCORE>  (9) 
-12.128

>  <name>  (9) 
8

>  <ligand_id>  (9) 
8

>  <original_smiles>  (9) 
[H]c1c([H])c([H])c2c(c1[H])C([H])([H])C([H])([H])C([H])([H])C2([H])N([H])C(=O)C1([H])N(C(=O)C([H])(N([H])C(=O)C([H])(N([H])C([H])([H])[H])C([H])([H])[H])C(C([H])([H])[H])(C([H])([H])[H])C([H])([H])[H])C([H])([H])c2c([H])c(OC([H])([H])C(=O)C([H])([H])C([H])([H])C(=O)N([H])c3oc(N([H])C(=O)N4C([H])([H])C([H])([H])C([H])([H])C([H])(n5nc(-c6c([H])c([H])c(Oc7c([H])c([H])c(F)c([H])c7F)c([H])c6[H])c(C(=O)N([H])[H])c5N([H])[H])C4([H])[H])c([H])c3C([H])([H])[H])c([H])c([H])c2C1([H])[H]

>  <smiles>  (9) 
[H]c1c([H])c([H])c2c(c1[H])C([H])([H])C([H])([H])C([H])([H])C2([H])N([H])C(=O)C1([H])N(C(=O)C([H])(N([H])C(=O)C([H])(N([H])C([H])([H])[H])C([H])([H])[H])C(C([H])([H])[H])(C([H])([H])[H])C([H])([H])[H])C([H])([H])c2c([H])c(OC([H])([H])C(=O)C([H])([H])C([H])([H])C(=O)N([H])c3oc(N([H])C(=O)N4C([H])([H])C([H])([H])C([H])([H])C([H])(n5nc(-c6c([H])c([H])c(Oc7c([H])c([H])c(F)c([H])c7F)c([H])c6[H])c(C(=O)N([H])[H])c5N([H])[H])C4([H])[H])c([H])c3C([H])([H])[H])c([H])c([H])c2C1([H])[H]

$$$$
9:0:0
     RDKit          3D

 95103  0  0  1  0  0  0  0  0999 V2000
  -28.9240  -22.9090   19.9700 C   0  0  0  0  0  0  0  0  0  0  0  0
  -29.5150  -21.9830   20.7550 N   0  0  0  0  0  0  0  0  0  0  0  0
  -27.9800  -22.6220   19.2320 O   0  0  0  0  0  0  0  0  0  0  0  0
  -30.2940  -22.2920   21.3210 H   0  0  0  0  0  0  0  0  0  0  0  0
  -28.8880  -20.7050   21.1430 C   0  0  0  0  0  2  0  0  0  0  0  0
  -30.8130  -14.6110   20.1030 C   0  0  0  0  0  0  0  0  0  0  0  0
  -30.5200  -12.4480   18.9350 C   0  0  0  0  0  2  0  0  0  0  0  0
  -29.4990  -12.6390   17.7910 C   0  0  0  0  0  2  0  0  0  0  0  0
  -28.0500  -12.4810   18.2980 C   0  0  0  0  0  2  0  0  0  0  0  0
  -27.7710  -13.3010   19.5870 C   0  0  0  0  0  3  0  0  0  0  0  0
  -28.8930  -13.0550   20.6250 C   0  0  0  0  0  2  0  0  0  0  0  0
  -30.1820  -13.4060   19.9990 N   0  0  0  0  0  0  0  0  0  0  0  0
  -31.9020  -14.8440   19.5660 O   0  0  0  0  0  0  0  0  0  0  0  0
  -30.9630  -19.1070   20.6790 C   0  0  0  0  0  0  0  0  0  0  0  0
  -29.6270  -19.4040   20.8800 C   0  0  0  0  0  0  0  0  0  0  0  0
  -30.1300  -16.9730   20.6980 C   0  0  0  0  0  0  0  0  0  0  0  0
  -32.1040  -20.0760   20.6160 C   0  0  0  0  0  1  0  0  0  0  0  0
  -31.2320  -17.7230   20.5750 N   0  0  0  0  0  0  0  0  0  0  0  0
  -30.0760  -15.5480   20.7300 N   0  0  0  0  0  0  0  0  0  0  0  0
  -28.6780  -17.9320   20.9310 S   0  0  0  0  0  0  0  0  0  0  0  0
  -29.2040  -15.1780   21.0740 H   0  0  0  0  0  0  0  0  0  0  0  0
  -25.4190  -13.8830   20.4680 C   0  0  0  0  0  0  0  0  0  0  0  0
  -24.3730  -13.0960   20.8710 C   0  0  0  0  0  0  0  0  0  0  0  0
  -24.8280  -11.7470   20.7560 C   0  0  0  0  0  0  0  0  0  0  0  0
  -26.4460  -13.0110   20.1370 N   0  0  0  0  0  0  0  0  0  0  0  0
  -26.0980  -11.7190   20.3690 N   0  0  0  0  0  0  0  0  0  0  0  0
  -24.1090  -10.4790   20.9400 C   0  0  0  0  0  0  0  0  0  0  0  0
  -24.5360   -9.5210   21.8880 C   0  0  0  0  0  3  0  0  0  0  0  0
  -23.8210   -8.3170   22.0610 C   0  0  0  0  0  3  0  0  0  0  0  0
  -22.6640   -8.0620   21.2860 C   0  0  0  0  0  0  0  0  0  0  0  0
  -22.2570   -9.0070   20.3280 C   0  0  0  0  0  3  0  0  0  0  0  0
  -22.9730  -10.2030   20.1540 C   0  0  0  0  0  3  0  0  0  0  0  0
  -21.9210   -6.9100   21.3690 O   0  0  0  0  0  0  0  0  0  0  0  0
  -21.7750   -6.2290   22.5510 C   0  0  0  0  0  0  0  0  0  0  0  0
  -21.2100   -6.8340   23.6950 C   0  0  0  0  0  3  0  0  0  0  0  0
  -21.0170   -6.0760   24.8680 C   0  0  0  0  0  3  0  0  0  0  0  0
  -21.3780   -4.7170   24.8970 C   0  0  0  0  0  0  0  0  0  0  0  0
  -21.9360   -4.1110   23.7570 C   0  0  0  0  0  3  0  0  0  0  0  0
  -22.1320   -4.8660   22.5870 C   0  0  0  0  0  0  0  0  0  0  0  0
  -22.6510   -4.2740   21.4840 F   0  0  0  0  0  0  0  0  0  0  0  0
  -21.1860   -3.9870   26.0190 F   0  0  0  0  0  0  0  0  0  0  0  0
  -22.9960  -13.5620   21.2450 C   0  0  0  0  0  0  0  0  0  0  0  0
  -22.3260  -12.8360   22.1350 N   0  0  0  0  0  0  0  0  0  0  0  0
  -22.5250  -14.6030   20.7880 O   0  0  0  0  0  0  0  0  0  0  0  0
  -22.7190  -11.9930   22.5260 H   0  0  0  0  0  0  0  0  0  0  0  0
  -21.4030  -13.1270   22.4270 H   0  0  0  0  0  0  0  0  0  0  0  0
  -25.5710  -15.2600   20.3370 N   0  0  0  0  0  0  0  0  0  0  0  0
  -24.8030  -15.8970   20.5200 H   0  0  0  0  0  0  0  0  0  0  0  0
  -26.3790  -15.7230   19.9420 H   0  0  0  0  0  0  0  0  0  0  0  0
  -29.3930  -24.3820   20.0510 C   0  0  0  0  0  2  0  0  0  0  0  0
  -28.2160  -25.3480   20.4000 C   0  0  0  0  0  3  0  0  0  0  0  0
  -27.9230  -25.2990   21.9110 C   0  0  0  0  0  0  0  0  0  0  0  0
  -26.5880  -24.7100   22.3500 C   0  0  0  0  0  1  0  0  0  0  0  0
  -28.7380  -25.7070   22.7450 O   0  0  0  0  0  0  0  0  0  0  0  0
  -28.4310  -26.7340   20.0050 O   0  0  0  0  0  0  0  0  0  0  0  0
  -24.6290  -31.8780   23.1780 C   0  0  0  0  0  0  0  0  0  0  0  0
  -27.2850  -27.5170   19.9740 C   0  0  0  0  0  0  0  0  0  0  0  0
  -23.4320  -30.5220   21.4940 C   0  0  0  0  0  3  0  0  0  0  0  0
  -24.8920  -29.0380   20.0220 C   0  0  0  0  0  0  0  0  0  0  0  0
  -25.9620  -30.8890   21.3120 C   0  0  0  0  0  2  0  0  0  0  0  0
  -26.0510  -29.5380   20.6290 C   0  0  0  0  0  0  0  0  0  0  0  0
  -27.2510  -28.7860   20.6000 C   0  0  0  0  0  3  0  0  0  0  0  0
  -26.1100  -27.0500   19.3380 C   0  0  0  0  0  3  0  0  0  0  0  0
  -24.9180  -27.7950   19.3700 C   0  0  0  0  0  3  0  0  0  0  0  0
  -23.6460  -29.8920   20.0940 C   0  0  0  0  0  2  0  0  0  0  0  0
  -24.6940  -31.1090   22.0530 N   0  0  0  0  0  0  0  0  0  0  0  0
  -23.5460  -32.1310   23.7200 O   0  0  0  0  0  0  0  0  0  0  0  0
  -22.7790  -29.4680   22.4190 C   0  0  0  0  0  0  0  0  0  0  0  0
  -21.4560  -29.2810   22.2770 N   0  0  0  0  0  0  0  0  0  0  0  0
  -23.4590  -28.8260   23.2240 O   0  0  0  0  0  0  0  0  0  0  0  0
  -20.9670  -29.8570   21.6050 H   0  0  0  0  0  0  0  0  0  0  0  0
  -18.0810  -28.0650   22.7230 C   0  0  0  0  0  0  0  0  0  0  0  0
  -20.6370  -28.3160   23.0120 C   0  0  0  0  0  3  0  0  0  0  0  0
  -20.7450  -26.9050   22.3890 C   0  0  0  0  0  2  0  0  0  0  0  0
  -19.6480  -26.6150   21.3610 C   0  0  0  0  0  2  0  0  0  0  0  0
  -18.2630  -26.7390   22.0040 C   0  0  0  0  0  2  0  0  0  0  0  0
  -19.1960  -28.8140   23.1800 C   0  0  0  0  0  0  0  0  0  0  0  0
  -18.9740  -30.0590   23.8090 C   0  0  0  0  0  3  0  0  0  0  0  0
  -17.6670  -30.5550   23.9810 C   0  0  0  0  0  3  0  0  0  0  0  0
  -16.5660  -29.8020   23.5400 C   0  0  0  0  0  3  0  0  0  0  0  0
  -16.7730  -28.5590   22.9170 C   0  0  0  0  0  3  0  0  0  0  0  0
  -25.9110  -32.4930   23.8230 C   0  0  0  0  0  3  0  0  0  0  0  0
  -26.4100  -31.7000   25.0930 C   0  0  1  0  0  0  0  0  0  0  0  0
  -25.3040  -31.4480   26.1450 C   0  0  0  0  0  1  0  0  0  0  0  0
  -26.9910  -30.3270   24.6830 C   0  0  0  0  0  1  0  0  0  0  0  0
  -27.5590  -32.4800   25.7780 C   0  0  0  0  0  1  0  0  0  0  0  0
  -25.6070  -33.8880   24.1640 N   0  0  0  0  0  0  0  0  0  0  0  0
  -25.9470  -34.9460   23.4130 C   0  0  0  0  0  0  0  0  0  0  0  0
  -26.6190  -34.8470   22.3830 O   0  0  0  0  0  0  0  0  0  0  0  0
  -25.0110  -34.0420   24.9650 H   0  0  0  0  0  0  0  0  0  0  0  0
  -24.2290  -36.7480   23.0680 C   0  0  0  0  0  1  0  0  0  0  0  0
  -25.4670  -36.3340   23.8790 C   0  0  0  0  0  3  0  0  0  0  0  0
  -27.5990  -37.2020   24.7300 C   0  0  0  0  0  1  0  0  0  0  0  0
  -26.5070  -37.3810   23.7770 N   0  0  0  0  0  0  0  0  0  0  0  0
  -26.1060  -38.3050   23.9240 H   0  0  0  0  0  0  0  0  0  0  0  0
  1 50  1  0
  1  2  1  0
  2  5  1  0
  2  4  1  0
  3  1  2  0
  6 19  1  0
  7 12  1  0
  8  9  1  0
  8  7  1  0
 10  9  1  0
 10 25  1  0
 10 11  1  0
 12  6  1  0
 12 11  1  0
 13  6  2  0
 14 15  2  0
 15 20  1  0
 15  5  1  0
 16 19  1  0
 16 20  1  0
 17 14  1  0
 18 14  1  0
 18 16  2  0
 19 21  1  0
 22 23  2  0
 23 42  1  0
 24 23  1  0
 24 27  1  0
 25 26  1  0
 25 22  1  0
 26 24  2  0
 27 28  1  0
 28 29  2  0
 30 33  1  0
 30 29  1  0
 31 30  2  0
 32 31  1  0
 32 27  2  0
 33 34  1  0
 34 39  2  0
 34 35  1  0
 35 36  2  0
 36 37  1  0
 37 41  1  0
 38 37  2  0
 39 38  1  0
 40 39  1  0
 42 43  1  0
 43 46  1  0
 43 45  1  0
 44 42  2  0
 47 22  1  0
 47 48  1  0
 49 47  1  0
 51 50  1  0
 51 52  1  0
 52 53  1  0
 52 54  2  0
 55 51  1  0
 56 67  2  0
 57 55  1  0
 57 62  1  0
 58 66  1  0
 58 68  1  0
 59 65  1  0
 59 61  1  0
 60 66  1  0
 61 60  1  0
 62 61  2  0
 63 64  1  0
 63 57  2  0
 64 59  2  0
 65 58  1  0
 66 56  1  0
 68 70  2  0
 69 68  1  0
 71 69  1  0
 72 81  2  0
 72 77  1  0
 73 69  1  0
 73 77  1  0
 74 73  1  0
 75 76  1  0
 75 74  1  0
 76 72  1  0
 77 78  2  0
 78 79  1  0
 80 79  2  0
 81 80  1  0
 82 56  1  0
 82 87  1  0
 82 83  1  0
 83 86  1  1
 83 84  1  0
 85 83  1  0
 87 90  1  0
 88 92  1  0
 88 87  1  0
 89 88  2  0
 92 91  1  0
 94 92  1  0
 94 95  1  0
 94 93  1  0
M  ISO  4   6 100  19 100  51 101  55 101
M  END
>  <TORSDO>  (10) 
F 20

>  <SCORE>  (10) 
-13.311

>  <name>  (10) 
9

>  <ligand_id>  (10) 
9

>  <original_smiles>  (10) 
[H]c1c([H])c([H])c2c(c1[H])C([H])([H])C([H])([H])C([H])([H])C2([H])N([H])C(=O)C1([H])N(C(=O)C([H])(N([H])C(=O)C([H])(N([H])C([H])([H])[H])C([H])([H])[H])C(C([H])([H])[H])(C([H])([H])[H])C([H])([H])[H])C([H])([H])c2c([H])c(OC([H])(C(=O)C([H])([H])[H])C([H])([H])C(=O)N([H])C([H])([H])c3sc(N([H])C(=O)N4C([H])([H])C([H])([H])C([H])([H])C([H])(n5nc(-c6c([H])c([H])c(Oc7c([H])c([H])c(F)c([H])c7F)c([H])c6[H])c(C(=O)N([H])[H])c5N([H])[H])C4([H])[H])nc3C([H])([H])[H])c([H])c([H])c2C1([H])[H]

>  <smiles>  (10) 
[H]c1c([H])c([H])c2c(c1[H])C([H])([H])C([H])([H])C([H])([H])C2([H])N([H])C(=O)C1([H])N(C(=O)C([H])(N([H])C(=O)C([H])(N([H])C([H])([H])[H])C([H])([H])[H])C(C([H])([H])[H])(C([H])([H])[H])C([H])([H])[H])C([H])([H])c2c([H])c(OC([H])(C(=O)C([H])([H])[H])C([H])([H])C(=O)N([H])C([H])([H])c3sc(N([H])C(=O)N4C([H])([H])C([H])([H])C([H])([H])C([H])(n5nc(-c6c([H])c([H])c(Oc7c([H])c([H])c(F)c([H])c7F)c([H])c6[H])c(C(=O)N([H])[H])c5N([H])[H])C4([H])[H])nc3C([H])([H])[H])c([H])c([H])c2C1([H])[H]

$$$$
10:0:0
     RDKit          3D

 96104  0  0  1  0  0  0  0  0999 V2000
  -29.2850  -22.7510   19.6970 C   0  0  0  0  0  0  0  0  0  0  0  0
  -30.3870  -21.9700   19.8340 N   0  0  0  0  0  0  0  0  0  0  0  0
  -28.2120  -22.2640   19.3360 O   0  0  0  0  0  0  0  0  0  0  0  0
  -31.2210  -22.4720   20.1140 H   0  0  0  0  0  0  0  0  0  0  0  0
  -28.5110  -25.1080   19.6640 C   0  0  0  0  0  3  0  0  0  0  0  0
  -29.4880  -24.2030   19.9710 C   0  0  0  0  0  0  0  0  0  0  0  0
  -30.6440  -24.6140   20.5160 O   0  0  0  0  0  0  0  0  0  0  0  0
  -30.5880  -25.5570   20.6080 H   0  0  0  0  0  0  0  0  0  0  0  0
  -28.5490  -26.5040   19.8500 O   0  0  0  0  0  0  0  0  0  0  0  0
  -24.7200  -31.7530   22.9890 C   0  0  0  0  0  0  0  0  0  0  0  0
  -27.3780  -27.2820   19.8420 C   0  0  0  0  0  0  0  0  0  0  0  0
  -23.5140  -30.3480   21.3530 C   0  0  0  0  0  3  0  0  0  0  0  0
  -24.9720  -28.8350   19.9000 C   0  0  0  0  0  0  0  0  0  0  0  0
  -26.0440  -30.7080   21.1410 C   0  0  0  0  0  2  0  0  0  0  0  0
  -26.1360  -29.3380   20.4890 C   0  0  0  0  0  0  0  0  0  0  0  0
  -27.3360  -28.5680   20.4670 C   0  0  0  0  0  3  0  0  0  0  0  0
  -26.1830  -26.8390   19.2180 C   0  0  0  0  0  3  0  0  0  0  0  0
  -24.9950  -27.5870   19.2640 C   0  0  0  0  0  3  0  0  0  0  0  0
  -23.7230  -29.6880   19.9650 C   0  0  0  0  0  2  0  0  0  0  0  0
  -24.7780  -30.9530   21.8840 N   0  0  0  0  0  0  0  0  0  0  0  0
  -23.6400  -32.0090   23.5400 O   0  0  0  0  0  0  0  0  0  0  0  0
  -22.8830  -29.3100   22.3110 C   0  0  0  0  0  0  0  0  0  0  0  0
  -21.5570  -29.1200   22.2080 N   0  0  0  0  0  0  0  0  0  0  0  0
  -23.5850  -28.6800   23.1060 O   0  0  0  0  0  0  0  0  0  0  0  0
  -21.0500  -29.6830   21.5390 H   0  0  0  0  0  0  0  0  0  0  0  0
  -18.1990  -27.8910   22.7580 C   0  0  0  0  0  0  0  0  0  0  0  0
  -20.7610  -28.1660   22.9810 C   0  0  0  0  0  3  0  0  0  0  0  0
  -20.8610  -26.7430   22.3870 C   0  0  0  0  0  2  0  0  0  0  0  0
  -19.7420  -26.4240   21.3900 C   0  0  0  0  0  2  0  0  0  0  0  0
  -18.3730  -26.5510   22.0630 C   0  0  0  0  0  2  0  0  0  0  0  0
  -19.3220  -28.6560   23.1750 C   0  0  0  0  0  0  0  0  0  0  0  0
  -19.1080  -29.9110   23.7860 C   0  0  0  0  0  3  0  0  0  0  0  0
  -17.8040  -30.4020   23.9820 C   0  0  0  0  0  3  0  0  0  0  0  0
  -16.6970  -29.6350   23.5810 C   0  0  0  0  0  3  0  0  0  0  0  0
  -16.8950  -28.3810   22.9770 C   0  0  0  0  0  3  0  0  0  0  0  0
  -26.0050  -32.3950   23.5970 C   0  0  0  0  0  3  0  0  0  0  0  0
  -26.6010  -31.5700   24.8040 C   0  0  1  0  0  0  0  0  0  0  0  0
  -25.5610  -31.2170   25.8930 C   0  0  0  0  0  1  0  0  0  0  0  0
  -27.2290  -30.2460   24.3070 C   0  0  0  0  0  1  0  0  0  0  0  0
  -27.7370  -32.3760   25.4770 C   0  0  0  0  0  1  0  0  0  0  0  0
  -25.6580  -33.7580   24.0220 N   0  0  0  0  0  0  0  0  0  0  0  0
  -25.9370  -34.8640   23.3210 C   0  0  0  0  0  0  0  0  0  0  0  0
  -26.5850  -34.8480   22.2720 O   0  0  0  0  0  0  0  0  0  0  0  0
  -25.0780  -33.8460   24.8440 H   0  0  0  0  0  0  0  0  0  0  0  0
  -24.1420  -36.6140   23.1110 C   0  0  0  0  0  1  0  0  0  0  0  0
  -25.4120  -36.2040   23.8720 C   0  0  0  0  0  3  0  0  0  0  0  0
  -27.5330  -37.1090   24.7130 C   0  0  0  0  0  1  0  0  0  0  0  0
  -26.4040  -37.2980   23.8050 N   0  0  0  0  0  0  0  0  0  0  0  0
  -25.9700  -38.1910   24.0210 H   0  0  0  0  0  0  0  0  0  0  0  0
  -30.5790  -20.5500   19.3840 C   0  0  0  0  0  2  0  0  0  0  0  0
  -30.6740  -19.7450   21.8140 C   0  0  0  0  0  3  0  0  0  0  0  0
  -30.7490  -18.7360   22.7880 C   0  0  0  0  0  3  0  0  0  0  0  0
  -30.7250  -19.4180   20.4410 C   0  0  0  0  0  0  0  0  0  0  0  0
  -30.9550  -16.9920   21.0570 C   0  0  0  0  0  0  0  0  0  0  0  0
  -30.8870  -17.3860   22.4170 C   0  0  0  0  0  0  0  0  0  0  0  0
  -30.8680  -18.0290   20.0670 C   0  0  0  0  0  0  0  0  0  0  0  0
  -30.9400  -16.4480   23.3960 F   0  0  0  0  0  0  0  0  0  0  0  0
  -30.8780  -17.7030   18.7520 F   0  0  0  0  0  0  0  0  0  0  0  0
  -31.6330  -14.6570   20.0700 C   0  0  0  0  0  0  0  0  0  0  0  0
  -31.2410  -12.5060   18.8560 C   0  0  0  0  0  2  0  0  0  0  0  0
  -30.2480  -12.7550   17.6950 C   0  0  0  0  0  2  0  0  0  0  0  0
  -28.7840  -12.7020   18.1760 C   0  0  0  0  0  2  0  0  0  0  0  0
  -28.5580  -13.5250   19.4720 C   0  0  0  0  0  3  0  0  0  0  0  0
  -29.6340  -13.1800   20.5230 C   0  0  0  0  0  2  0  0  0  0  0  0
  -30.9500  -13.4750   19.9300 N   0  0  0  0  0  0  0  0  0  0  0  0
  -32.7130  -14.8620   19.5030 O   0  0  0  0  0  0  0  0  0  0  0  0
  -31.0100  -15.5490   20.8850 N   0  0  0  0  0  0  0  0  0  0  0  0
  -30.2920  -15.0950   21.4290 H   0  0  0  0  0  0  0  0  0  0  0  0
  -26.2570  -14.3060   20.3230 C   0  0  0  0  0  0  0  0  0  0  0  0
  -25.1390  -13.6120   20.7020 C   0  0  0  0  0  0  0  0  0  0  0  0
  -25.4770  -12.2280   20.5920 C   0  0  0  0  0  0  0  0  0  0  0  0
  -27.2070  -13.3470   19.9990 N   0  0  0  0  0  0  0  0  0  0  0  0
  -26.7440  -12.0900   20.2200 N   0  0  0  0  0  0  0  0  0  0  0  0
  -24.6510  -11.0250   20.7730 C   0  0  0  0  0  0  0  0  0  0  0  0
  -24.9930  -10.0280   21.7120 C   0  0  0  0  0  3  0  0  0  0  0  0
  -24.1740   -8.8900   21.8790 C   0  0  0  0  0  3  0  0  0  0  0  0
  -22.9980   -8.7420   21.1040 C   0  0  0  0  0  0  0  0  0  0  0  0
  -22.6740   -9.7280   20.1570 C   0  0  0  0  0  3  0  0  0  0  0  0
  -23.4920  -10.8570   19.9890 C   0  0  0  0  0  3  0  0  0  0  0  0
  -22.1580   -7.6560   21.1720 O   0  0  0  0  0  0  0  0  0  0  0  0
  -21.9620   -6.9730   22.3460 C   0  0  0  0  0  0  0  0  0  0  0  0
  -21.5180   -7.6230   23.5160 C   0  0  0  0  0  3  0  0  0  0  0  0
  -21.2650   -6.8750   24.6840 C   0  0  0  0  0  3  0  0  0  0  0  0
  -21.4400   -5.4770   24.6760 C   0  0  0  0  0  0  0  0  0  0  0  0
  -21.8790   -4.8270   23.5090 C   0  0  0  0  0  3  0  0  0  0  0  0
  -22.1370   -5.5740   22.3450 C   0  0  0  0  0  0  0  0  0  0  0  0
  -22.5410   -4.9410   21.2160 F   0  0  0  0  0  0  0  0  0  0  0  0
  -21.1880   -4.7580   25.7940 F   0  0  0  0  0  0  0  0  0  0  0  0
  -23.8010  -14.1940   21.0660 C   0  0  0  0  0  0  0  0  0  0  0  0
  -23.0810  -13.5570   21.9840 N   0  0  0  0  0  0  0  0  0  0  0  0
  -23.4100  -15.2510   20.5720 O   0  0  0  0  0  0  0  0  0  0  0  0
  -23.4060  -12.6990   22.4060 H   0  0  0  0  0  0  0  0  0  0  0  0
  -22.1860  -13.9300   22.2730 H   0  0  0  0  0  0  0  0  0  0  0  0
  -26.5410  -15.6650   20.2150 N   0  0  0  0  0  0  0  0  0  0  0  0
  -25.8640  -16.3780   20.4680 H   0  0  0  0  0  0  0  0  0  0  0  0
  -27.4320  -16.0480   19.9290 H   0  0  0  0  0  0  0  0  0  0  0  0
  1  2  1  0
  1  6  1  0
  2  4  1  0
  3  1  2  0
  5  9  1  0
  5  6  2  0
  6  7  1  0
  7  8  1  0
 10 21  2  0
 11  9  1  0
 11 16  1  0
 12 20  1  0
 12 22  1  0
 13 19  1  0
 13 15  1  0
 14 20  1  0
 15 14  1  0
 16 15  2  0
 17 18  1  0
 17 11  2  0
 18 13  2  0
 19 12  1  0
 20 10  1  0
 22 24  2  0
 23 22  1  0
 25 23  1  0
 26 35  2  0
 26 31  1  0
 27 23  1  0
 27 31  1  0
 28 27  1  0
 29 30  1  0
 29 28  1  0
 30 26  1  0
 31 32  2  0
 32 33  1  0
 34 33  2  0
 35 34  1  0
 36 10  1  0
 36 41  1  0
 36 37  1  0
 37 40  1  1
 37 38  1  0
 39 37  1  0
 41 44  1  0
 42 46  1  0
 42 41  1  0
 43 42  2  0
 46 45  1  0
 48 46  1  0
 48 49  1  0
 48 47  1  0
 50  2  1  0
 50 53  1  0
 51 52  1  0
 53 51  2  0
 54 55  1  0
 55 52  2  0
 55 57  1  0
 56 53  1  0
 56 54  2  0
 58 56  1  0
 59 67  1  0
 60 65  1  0
 61 62  1  0
 61 60  1  0
 63 62  1  0
 63 72  1  0
 63 64  1  0
 65 59  1  0
 65 64  1  0
 66 59  2  0
 67 54  1  0
 67 68  1  0
 69 70  2  0
 70 89  1  0
 71 70  1  0
 71 74  1  0
 72 73  1  0
 72 69  1  0
 73 71  2  0
 74 75  1  0
 75 76  2  0
 77 80  1  0
 77 76  1  0
 78 77  2  0
 79 78  1  0
 79 74  2  0
 80 81  1  0
 81 82  1  0
 82 83  2  0
 84 83  1  0
 84 88  1  0
 85 84  2  0
 86 81  2  0
 86 85  1  0
 87 86  1  0
 89 90  1  0
 90 93  1  0
 90 92  1  0
 91 89  2  0
 94 69  1  0
 94 95  1  0
 96 94  1  0
M  ISO  4   5 101   9 101  59 100  67 100
M  END
>  <TORSDO>  (11) 
F 20

>  <SCORE>  (11) 
-12.253

>  <name>  (11) 
10

>  <ligand_id>  (11) 
10

>  <original_smiles>  (11) 
[H]OC(C(=O)N([H])C([H])([H])c1c([H])c([H])c(F)c(N([H])C(=O)N2C([H])([H])C([H])([H])C([H])([H])C([H])(n3nc(-c4c([H])c([H])c(Oc5c([H])c([H])c(F)c([H])c5F)c([H])c4[H])c(C(=O)N([H])[H])c3N([H])[H])C2([H])[H])c1F)=C([H])Oc1c([H])c([H])c2c(c1[H])C([H])([H])N(C(=O)C([H])(N([H])C(=O)C([H])(N([H])C([H])([H])[H])C([H])([H])[H])C(C([H])([H])[H])(C([H])([H])[H])C([H])([H])[H])C([H])(C(=O)N([H])C1([H])c3c([H])c([H])c([H])c([H])c3C([H])([H])C([H])([H])C1([H])[H])C2([H])[H]

>  <smiles>  (11) 
[H]OC(C(=O)N([H])C([H])([H])c1c([H])c([H])c(F)c(N([H])C(=O)N2C([H])([H])C([H])([H])C([H])([H])C([H])(n3nc(-c4c([H])c([H])c(Oc5c([H])c([H])c(F)c([H])c5F)c([H])c4[H])c(C(=O)N([H])[H])c3N([H])[H])C2([H])[H])c1F)=C([H])Oc1c([H])c([H])c2c(c1[H])C([H])([H])N(C(=O)C([H])(N([H])C(=O)C([H])(N([H])C([H])([H])[H])C([H])([H])[H])C(C([H])([H])[H])(C([H])([H])[H])C([H])([H])[H])C([H])(C(=O)N([H])C1([H])c3c([H])c([H])c([H])c([H])c3C([H])([H])C([H])([H])C1([H])[H])C2([H])[H]

$$$$
11:0:0
     RDKit          3D

 94102  0  0  1  0  0  0  0  0999 V2000
  -29.3220  -21.0260   20.2410 N   0  0  0  0  0  0  0  0  0  0  0  0
  -29.1660  -20.9590   19.2390 H   0  0  0  0  0  0  0  0  0  0  0  0
  -29.8430  -18.5220   20.1930 C   0  0  0  0  0  3  0  0  0  0  0  0
  -30.8660  -17.3570   22.0600 C   0  0  0  0  0  3  0  0  0  0  0  0
  -30.3230  -19.7690   22.2320 C   0  0  0  0  0  0  0  0  0  0  0  0
  -30.3740  -17.2820   20.7480 C   0  0  0  0  0  0  0  0  0  0  0  0
  -29.8150  -19.8080   20.8890 C   0  0  0  0  0  0  0  0  0  0  0  0
  -30.8310  -18.5620   22.7830 C   0  0  0  0  0  0  0  0  0  0  0  0
  -30.3660  -20.9890   23.1440 C   0  0  0  0  0  1  0  0  0  0  0  0
  -31.2980  -18.5380   24.0550 F   0  0  0  0  0  0  0  0  0  0  0  0
  -31.0720  -14.8100   20.1780 C   0  0  0  0  0  0  0  0  0  0  0  0
  -30.8310  -12.5120   19.2090 C   0  0  0  0  0  2  0  0  0  0  0  0
  -29.8850  -12.5690   17.9870 C   0  0  0  0  0  2  0  0  0  0  0  0
  -28.4080  -12.4630   18.4260 C   0  0  0  0  0  2  0  0  0  0  0  0
  -28.0680  -13.4110   19.6080 C   0  0  0  0  0  3  0  0  0  0  0  0
  -29.1230  -13.3110   20.7300 C   0  0  0  0  0  2  0  0  0  0  0  0
  -30.4280  -13.6000   20.1220 N   0  0  0  0  0  0  0  0  0  0  0  0
  -32.2800  -14.8910   19.9250 O   0  0  0  0  0  0  0  0  0  0  0  0
  -30.2540  -15.9270   20.1610 N   0  0  0  0  0  0  0  0  0  0  0  0
  -29.2960  -15.6580   19.9920 H   0  0  0  0  0  0  0  0  0  0  0  0
  -25.7310  -14.1410   20.3780 C   0  0  0  0  0  0  0  0  0  0  0  0
  -24.6260  -13.4280   20.7590 C   0  0  0  0  0  0  0  0  0  0  0  0
  -25.0110  -12.0530   20.7170 C   0  0  0  0  0  0  0  0  0  0  0  0
  -26.7160  -13.2010   20.1140 N   0  0  0  0  0  0  0  0  0  0  0  0
  -26.2920  -11.9420   20.3860 N   0  0  0  0  0  0  0  0  0  0  0  0
  -24.2180  -10.8330   20.9120 C   0  0  0  0  0  0  0  0  0  0  0  0
  -24.6010   -9.8430   21.8430 C   0  0  0  0  0  3  0  0  0  0  0  0
  -23.8100   -8.6890   22.0250 C   0  0  0  0  0  3  0  0  0  0  0  0
  -22.6240   -8.5160   21.2730 C   0  0  0  0  0  0  0  0  0  0  0  0
  -22.2580   -9.4950   20.3320 C   0  0  0  0  0  3  0  0  0  0  0  0
  -23.0490  -10.6410   20.1480 C   0  0  0  0  0  3  0  0  0  0  0  0
  -21.8090   -7.4140   21.3630 O   0  0  0  0  0  0  0  0  0  0  0  0
  -21.7120   -6.6810   22.5190 C   0  0  0  0  0  0  0  0  0  0  0  0
  -21.3210   -7.2690   23.7420 C   0  0  0  0  0  3  0  0  0  0  0  0
  -21.1670   -6.4660   24.8900 C   0  0  0  0  0  3  0  0  0  0  0  0
  -21.3940   -5.0790   24.8160 C   0  0  0  0  0  0  0  0  0  0  0  0
  -21.7810   -4.4920   23.5990 C   0  0  0  0  0  3  0  0  0  0  0  0
  -21.9360   -5.2910   22.4520 C   0  0  0  0  0  0  0  0  0  0  0  0
  -22.2850   -4.7180   21.2760 F   0  0  0  0  0  0  0  0  0  0  0  0
  -21.2390   -4.3070   25.9180 F   0  0  0  0  0  0  0  0  0  0  0  0
  -23.2630  -13.9850   21.0470 C   0  0  0  0  0  0  0  0  0  0  0  0
  -22.5120  -13.3420   21.9340 N   0  0  0  0  0  0  0  0  0  0  0  0
  -22.8730  -15.0260   20.5220 O   0  0  0  0  0  0  0  0  0  0  0  0
  -22.8400  -12.5000   22.3860 H   0  0  0  0  0  0  0  0  0  0  0  0
  -21.5970  -13.7010   22.1640 H   0  0  0  0  0  0  0  0  0  0  0  0
  -25.9710  -15.5030   20.2130 N   0  0  0  0  0  0  0  0  0  0  0  0
  -25.2470  -16.1970   20.3620 H   0  0  0  0  0  0  0  0  0  0  0  0
  -26.8360  -15.9050   19.8760 H   0  0  0  0  0  0  0  0  0  0  0  0
  -28.8670  -22.3510   20.8480 C   0  0  0  0  0  2  0  0  0  0  0  0
  -27.8440  -23.4770   18.7590 C   0  0  0  0  0  1  0  0  0  0  0  0
  -30.1770  -24.0580   19.4630 C   0  0  0  0  0  1  0  0  0  0  0  0
  -28.7670  -23.7150   19.9680 C   0  0  2  0  0  0  0  0  0  0  0  0
  -28.2160  -25.0050   20.7870 C   0  0  0  0  0  2  0  0  0  0  0  0
  -28.4370  -26.4300   20.3650 O   0  0  0  0  0  0  0  0  0  0  0  0
  -24.6100  -31.8790   23.2700 C   0  0  0  0  0  0  0  0  0  0  0  0
  -27.3290  -27.2980   20.3200 C   0  0  0  0  0  0  0  0  0  0  0  0
  -23.4620  -30.4620   21.6100 C   0  0  0  0  0  3  0  0  0  0  0  0
  -24.9600  -28.9090   20.2300 C   0  0  0  0  0  0  0  0  0  0  0  0
  -26.0050  -30.7920   21.4880 C   0  0  0  0  0  2  0  0  0  0  0  0
  -26.1110  -29.4060   20.8540 C   0  0  0  0  0  0  0  0  0  0  0  0
  -27.3040  -28.6170   20.8790 C   0  0  0  0  0  3  0  0  0  0  0  0
  -26.1550  -26.8560   19.6710 C   0  0  0  0  0  3  0  0  0  0  0  0
  -24.9870  -27.6420   19.6260 C   0  0  0  0  0  3  0  0  0  0  0  0
  -23.7170  -29.7780   20.2410 C   0  0  0  0  0  2  0  0  0  0  0  0
  -24.7120  -31.0630   22.1790 N   0  0  0  0  0  0  0  0  0  0  0  0
  -23.5100  -32.1520   23.7720 O   0  0  0  0  0  0  0  0  0  0  0  0
  -22.7830  -29.4440   22.5590 C   0  0  0  0  0  0  0  0  0  0  0  0
  -21.4650  -29.2440   22.3870 N   0  0  0  0  0  0  0  0  0  0  0  0
  -23.4420  -28.8400   23.4090 O   0  0  0  0  0  0  0  0  0  0  0  0
  -20.9930  -29.7840   21.6740 H   0  0  0  0  0  0  0  0  0  0  0  0
  -18.0990  -27.9730   22.7670 C   0  0  0  0  0  0  0  0  0  0  0  0
  -20.6360  -28.3030   23.1420 C   0  0  0  0  0  3  0  0  0  0  0  0
  -20.7980  -26.8630   22.6020 C   0  0  0  0  0  2  0  0  0  0  0  0
  -19.7480  -26.4920   21.5490 C   0  0  0  0  0  2  0  0  0  0  0  0
  -18.3370  -26.6150   22.1290 C   0  0  0  0  0  2  0  0  0  0  0  0
  -19.1780  -28.7720   23.2280 C   0  0  0  0  0  0  0  0  0  0  0  0
  -18.9000  -30.0420   23.7810 C   0  0  0  0  0  3  0  0  0  0  0  0
  -17.5760  -30.5100   23.8810 C   0  0  0  0  0  3  0  0  0  0  0  0
  -16.5130  -29.7080   23.4320 C   0  0  0  0  0  3  0  0  0  0  0  0
  -16.7740  -28.4420   22.8810 C   0  0  0  0  0  3  0  0  0  0  0  0
  -25.8690  -32.5280   23.9220 C   0  0  0  0  0  3  0  0  0  0  0  0
  -26.3470  -31.7780   25.2250 C   0  0  1  0  0  0  0  0  0  0  0  0
  -25.2200  -31.5490   26.2600 C   0  0  0  0  0  1  0  0  0  0  0  0
  -26.9480  -30.3970   24.8710 C   0  0  0  0  0  1  0  0  0  0  0  0
  -27.4760  -32.5840   25.9090 C   0  0  0  0  0  1  0  0  0  0  0  0
  -25.5420  -33.9300   24.2240 N   0  0  0  0  0  0  0  0  0  0  0  0
  -25.8870  -34.9740   23.4580 C   0  0  0  0  0  0  0  0  0  0  0  0
  -26.5830  -34.8570   22.4450 O   0  0  0  0  0  0  0  0  0  0  0  0
  -24.9270  -34.0960   25.0070 H   0  0  0  0  0  0  0  0  0  0  0  0
  -24.1520  -36.7470   23.0380 C   0  0  0  0  0  1  0  0  0  0  0  0
  -25.3800  -36.3670   23.8810 C   0  0  0  0  0  3  0  0  0  0  0  0
  -27.4920  -37.2770   24.7380 C   0  0  0  0  0  1  0  0  0  0  0  0
  -26.4070  -37.4250   23.7720 N   0  0  0  0  0  0  0  0  0  0  0  0
  -25.9920  -38.3450   23.8950 H   0  0  0  0  0  0  0  0  0  0  0  0
  1 49  1  0
  1  7  1  0
  2  1  1  0
  3  6  2  0
  3  7  1  0
  4  8  2  0
  5  8  1  0
  5  9  1  0
  6  4  1  0
  7  5  2  0
  8 10  1  0
 12 17  1  0
 13 14  1  0
 13 12  1  0
 15 14  1  0
 15 24  1  0
 15 16  1  0
 17 11  1  0
 17 16  1  0
 18 11  2  0
 19 11  1  0
 19  6  1  0
 20 19  1  0
 21 22  2  0
 22 41  1  0
 23 22  1  0
 23 26  1  0
 24 21  1  0
 24 25  1  0
 25 23  2  0
 26 27  1  0
 27 28  2  0
 29 32  1  0
 29 28  1  0
 30 29  2  0
 31 30  1  0
 31 26  2  0
 32 33  1  0
 33 34  1  0
 34 35  2  0
 36 35  1  0
 36 40  1  0
 37 36  2  0
 38 33  2  0
 38 37  1  0
 39 38  1  0
 41 42  1  0
 42 45  1  0
 42 44  1  0
 43 41  2  0
 46 47  1  0
 46 21  1  0
 48 46  1  0
 52 50  1  6
 51 52  1  0
 52 53  1  0
 52 49  1  0
 54 53  1  0
 55 66  2  0
 56 54  1  0
 56 61  1  0
 57 65  1  0
 57 67  1  0
 58 64  1  0
 58 60  1  0
 59 65  1  0
 60 61  2  0
 60 59  1  0
 62 56  2  0
 63 62  1  0
 63 58  2  0
 64 57  1  0
 65 55  1  0
 67 69  2  0
 68 67  1  0
 70 68  1  0
 71 80  2  0
 71 76  1  0
 72 68  1  0
 72 76  1  0
 73 72  1  0
 74 75  1  0
 74 73  1  0
 75 71  1  0
 76 77  2  0
 77 78  1  0
 79 78  2  0
 80 79  1  0
 81 55  1  0
 81 86  1  0
 81 82  1  0
 82 85  1  1
 82 83  1  0
 84 82  1  0
 86 89  1  0
 87 91  1  0
 87 86  1  0
 88 87  2  0
 91 90  1  0
 93 91  1  0
 93 94  1  0
 93 92  1  0
M  ISO  4  11 100  19 100  53 101  54 101
M  END
>  <TORSDO>  (12) 
F 20

>  <SCORE>  (12) 
-13.144

>  <name>  (12) 
11

>  <ligand_id>  (12) 
11

>  <original_smiles>  (12) 
[H]c1c([H])c([H])c2c(c1[H])C([H])([H])C([H])([H])C([H])([H])C2([H])N([H])C(=O)C1([H])N(C(=O)C([H])(N([H])C(=O)C([H])(N([H])C([H])([H])[H])C([H])([H])[H])C(C([H])([H])[H])(C([H])([H])[H])C([H])([H])[H])C([H])([H])c2c([H])c(OC([H])([H])C(C([H])([H])[H])(C([H])([H])[H])C([H])([H])N([H])c3c([H])c(N([H])C(=O)N4C([H])([H])C([H])([H])C([H])([H])C([H])(n5nc(-c6c([H])c([H])c(Oc7c([H])c([H])c(F)c([H])c7F)c([H])c6[H])c(C(=O)N([H])[H])c5N([H])[H])C4([H])[H])c([H])c(F)c3C([H])([H])[H])c([H])c([H])c2C1([H])[H]

>  <smiles>  (12) 
[H]c1c([H])c([H])c2c(c1[H])C([H])([H])C([H])([H])C([H])([H])C2([H])N([H])C(=O)C1([H])N(C(=O)C([H])(N([H])C(=O)C([H])(N([H])C([H])([H])[H])C([H])([H])[H])C(C([H])([H])[H])(C([H])([H])[H])C([H])([H])[H])C([H])([H])c2c([H])c(OC([H])([H])C(C([H])([H])[H])(C([H])([H])[H])C([H])([H])N([H])c3c([H])c(N([H])C(=O)N4C([H])([H])C([H])([H])C([H])([H])C([H])(n5nc(-c6c([H])c([H])c(Oc7c([H])c([H])c(F)c([H])c7F)c([H])c6[H])c(C(=O)N([H])[H])c5N([H])[H])C4([H])[H])c([H])c(F)c3C([H])([H])[H])c([H])c([H])c2C1([H])[H]

$$$$
12:0:0
     RDKit          3D

 98106  0  0  1  0  0  0  0  0999 V2000
  -31.5520  -17.9540   20.8770 C   0  0  0  0  0  3  0  0  0  0  0  0
  -29.2430  -18.6360   20.5930 C   0  0  0  0  0  3  0  0  0  0  0  0
  -31.9420  -19.3150   20.8430 C   0  0  0  0  0  0  0  0  0  0  0  0
  -30.2080  -17.5480   20.7270 C   0  0  0  0  0  0  0  0  0  0  0  0
  -29.5980  -20.0520   20.5670 C   0  0  0  0  0  0  0  0  0  0  0  0
  -30.9810  -20.3420   20.6900 C   0  0  0  0  0  0  0  0  0  0  0  0
  -31.4120  -21.6250   20.6080 F   0  0  0  0  0  0  0  0  0  0  0  0
  -30.6690  -14.9580   20.6080 C   0  0  0  0  0  0  0  0  0  0  0  0
  -30.5720  -12.6190   19.7230 C   0  0  0  0  0  2  0  0  0  0  0  0
  -29.6980  -12.5870   18.4490 C   0  0  0  0  0  2  0  0  0  0  0  0
  -28.2150  -12.3950   18.8160 C   0  0  0  0  0  2  0  0  0  0  0  0
  -27.7540  -13.3370   19.9600 C   0  0  0  0  0  3  0  0  0  0  0  0
  -28.7570  -13.3610   21.1350 C   0  0  0  0  0  2  0  0  0  0  0  0
  -30.0680  -13.7180   20.5800 N   0  0  0  0  0  0  0  0  0  0  0  0
  -31.8630  -15.0480   20.3070 O   0  0  0  0  0  0  0  0  0  0  0  0
  -29.8700  -16.0930   20.7520 N   0  0  0  0  0  0  0  0  0  0  0  0
  -28.8890  -15.8820   20.8480 H   0  0  0  0  0  0  0  0  0  0  0  0
  -25.3350  -13.8960   20.5990 C   0  0  0  0  0  0  0  0  0  0  0  0
  -24.2680  -13.1090   20.9350 C   0  0  0  0  0  0  0  0  0  0  0  0
  -24.7490  -11.7640   20.9240 C   0  0  0  0  0  0  0  0  0  0  0  0
  -26.3980  -13.0300   20.4040 N   0  0  0  0  0  0  0  0  0  0  0  0
  -26.0510  -11.7430   20.6620 N   0  0  0  0  0  0  0  0  0  0  0  0
  -24.0320  -10.4930   21.0930 C   0  0  0  0  0  0  0  0  0  0  0  0
  -24.4280   -9.5400   22.0570 C   0  0  0  0  0  3  0  0  0  0  0  0
  -23.7070   -8.3370   22.2110 C   0  0  0  0  0  3  0  0  0  0  0  0
  -22.5780   -8.0760   21.3980 C   0  0  0  0  0  0  0  0  0  0  0  0
  -22.2030   -9.0180   20.4230 C   0  0  0  0  0  3  0  0  0  0  0  0
  -22.9240  -10.2120   20.2680 C   0  0  0  0  0  3  0  0  0  0  0  0
  -21.8340   -6.9230   21.4590 O   0  0  0  0  0  0  0  0  0  0  0  0
  -21.7110   -6.2060   22.6220 C   0  0  0  0  0  0  0  0  0  0  0  0
  -21.1560   -6.7720   23.7900 C   0  0  0  0  0  3  0  0  0  0  0  0
  -20.9830   -5.9820   24.9430 C   0  0  0  0  0  3  0  0  0  0  0  0
  -21.3550   -4.6240   24.9280 C   0  0  0  0  0  0  0  0  0  0  0  0
  -21.9030   -4.0560   23.7640 C   0  0  0  0  0  3  0  0  0  0  0  0
  -22.0770   -4.8450   22.6120 C   0  0  0  0  0  0  0  0  0  0  0  0
  -22.5850   -4.2880   21.4880 F   0  0  0  0  0  0  0  0  0  0  0  0
  -21.1820   -3.8600   26.0320 F   0  0  0  0  0  0  0  0  0  0  0  0
  -22.8560  -13.5700   21.1520 C   0  0  0  0  0  0  0  0  0  0  0  0
  -22.1040  -12.8730   21.9950 N   0  0  0  0  0  0  0  0  0  0  0  0
  -22.4260  -14.5880   20.6090 O   0  0  0  0  0  0  0  0  0  0  0  0
  -22.4650  -12.0500   22.4560 H   0  0  0  0  0  0  0  0  0  0  0  0
  -21.1550  -13.1680   22.1820 H   0  0  0  0  0  0  0  0  0  0  0  0
  -25.4810  -15.2690   20.4230 N   0  0  0  0  0  0  0  0  0  0  0  0
  -24.6890  -15.8990   20.4890 H   0  0  0  0  0  0  0  0  0  0  0  0
  -26.3130  -15.7200   20.0650 H   0  0  0  0  0  0  0  0  0  0  0  0
  -34.0750  -19.2770   22.2660 C   0  0  0  0  0  1  0  0  0  0  0  0
  -33.4270  -19.6760   20.9240 C   0  0  0  0  0  3  0  0  0  0  0  0
  -34.1510  -19.1140   19.7710 N   0  0  0  0  0  4  0  0  0  0  0  0
  -34.1300  -18.1100   19.7780 H   0  0  0  0  0  0  0  0  0  0  0  0
  -35.1070  -19.4170   19.7710 H   0  0  0  0  0  0  0  0  0  0  0  0
  -33.7320  -19.4330   18.9150 H   0  0  0  0  0  0  0  0  0  0  0  0
  -28.6510  -21.1370   20.3530 N   0  0  0  0  0  0  0  0  0  0  0  0
  -27.7170  -20.8440   20.0770 H   0  0  0  0  0  0  0  0  0  0  0  0
  -28.6790  -22.5310   20.9790 C   0  0  0  0  0  2  0  0  0  0  0  0
  -28.3970  -23.8650   20.1270 C   0  0  0  0  0  0  0  0  0  0  0  0
  -28.5650  -23.8480   18.9040 O   0  0  0  0  0  0  0  0  0  0  0  0
  -27.8850  -25.2050   20.8460 C   0  0  0  0  0  2  0  0  0  0  0  0
  -28.1040  -26.5390   20.1920 O   0  0  0  0  0  0  0  0  0  0  0  0
  -24.5080  -32.0280   23.3060 C   0  0  0  0  0  0  0  0  0  0  0  0
  -27.0220  -27.4390   20.1960 C   0  0  0  0  0  0  0  0  0  0  0  0
  -23.2680  -30.6540   21.6730 C   0  0  0  0  0  3  0  0  0  0  0  0
  -24.6830  -29.0940   20.2180 C   0  0  0  0  0  0  0  0  0  0  0  0
  -25.8080  -30.9460   21.4520 C   0  0  0  0  0  2  0  0  0  0  0  0
  -25.8670  -29.5650   20.7990 C   0  0  0  0  0  0  0  0  0  0  0  0
  -27.0440  -28.7530   20.7710 C   0  0  0  0  0  3  0  0  0  0  0  0
  -25.8190  -27.0290   19.5870 C   0  0  0  0  0  3  0  0  0  0  0  0
  -24.6620  -27.8330   19.6000 C   0  0  0  0  0  3  0  0  0  0  0  0
  -23.4570  -29.9850   20.2860 C   0  0  0  0  0  2  0  0  0  0  0  0
  -24.5490  -31.2270   22.2020 N   0  0  0  0  0  0  0  0  0  0  0  0
  -23.4340  -32.3110   23.8570 O   0  0  0  0  0  0  0  0  0  0  0  0
  -22.6050  -29.6390   22.6350 C   0  0  0  0  0  0  0  0  0  0  0  0
  -21.2810  -29.4490   22.4990 N   0  0  0  0  0  0  0  0  0  0  0  0
  -23.2820  -29.0250   23.4630 O   0  0  0  0  0  0  0  0  0  0  0  0
  -20.7920  -29.9980   21.8050 H   0  0  0  0  0  0  0  0  0  0  0  0
  -17.9200  -28.1890   22.9490 C   0  0  0  0  0  0  0  0  0  0  0  0
  -20.4660  -28.5090   23.2690 C   0  0  0  0  0  3  0  0  0  0  0  0
  -20.6100  -27.0680   22.7230 C   0  0  0  0  0  2  0  0  0  0  0  0
  -19.5380  -26.7030   21.6910 C   0  0  0  0  0  2  0  0  0  0  0  0
  -18.1390  -26.8320   22.3010 C   0  0  0  0  0  2  0  0  0  0  0  0
  -19.0120  -28.9830   23.3880 C   0  0  0  0  0  0  0  0  0  0  0  0
  -18.7530  -30.2510   23.9510 C   0  0  0  0  0  3  0  0  0  0  0  0
  -17.4350  -30.7280   24.0780 C   0  0  0  0  0  3  0  0  0  0  0  0
  -16.3560  -29.9320   23.6550 C   0  0  0  0  0  3  0  0  0  0  0  0
  -16.5990  -28.6640   23.0980 C   0  0  0  0  0  3  0  0  0  0  0  0
  -25.8030  -32.6440   23.9160 C   0  0  0  0  0  3  0  0  0  0  0  0
  -25.5230  -34.0530   24.2280 N   0  0  0  0  0  0  0  0  0  0  0  0
  -25.8760  -35.0890   23.4550 C   0  0  0  0  0  0  0  0  0  0  0  0
  -26.5430  -34.9580   22.4250 O   0  0  0  0  0  0  0  0  0  0  0  0
  -24.9310  -34.2300   25.0250 H   0  0  0  0  0  0  0  0  0  0  0  0
  -24.1920  -36.9190   23.0730 C   0  0  0  0  0  1  0  0  0  0  0  0
  -25.4190  -36.4940   23.8950 C   0  0  0  0  0  3  0  0  0  0  0  0
  -27.5690  -37.3390   24.7280 C   0  0  0  0  0  1  0  0  0  0  0  0
  -26.4760  -37.5220   23.7770 N   0  0  0  0  0  0  0  0  0  0  0  0
  -26.0890  -38.4520   23.9160 H   0  0  0  0  0  0  0  0  0  0  0  0
  -26.3070  -31.8800   25.2030 C   0  0  1  0  0  0  0  0  0  0  0  0
  -25.2100  -31.6780   26.2760 C   0  0  0  0  0  1  0  0  0  0  0  0
  -26.8600  -30.4870   24.8290 C   0  0  0  0  0  1  0  0  0  0  0  0
  -27.4740  -32.6590   25.8540 C   0  0  0  0  0  1  0  0  0  0  0  0
  2  4  1  0
  3  1  1  0
  3 47  1  0
  4 16  1  0
  4  1  2  0
  5  2  2  0
  5  6  1  0
  6  3  2  0
  7  6  1  0
  8 16  1  0
  9 14  1  0
 10 11  1  0
 10  9  1  0
 12 11  1  0
 12 21  1  0
 12 13  1  0
 14  8  1  0
 14 13  1  0
 15  8  2  0
 16 17  1  0
 18 19  2  0
 19 38  1  0
 20 19  1  0
 20 23  1  0
 21 18  1  0
 21 22  1  0
 22 20  2  0
 23 24  1  0
 24 25  2  0
 26 29  1  0
 26 25  1  0
 27 26  2  0
 28 27  1  0
 28 23  2  0
 29 30  1  0
 30 31  1  0
 31 32  2  0
 33 32  1  0
 33 37  1  0
 34 33  2  0
 35 30  2  0
 35 34  1  0
 36 35  1  0
 38 39  1  0
 39 42  1  0
 39 41  1  0
 40 38  2  0
 43 44  1  0
 43 18  1  0
 45 43  1  0
 47 46  1  0
 48 50  1  0
 48 49  1  0
 48 47  1  0
 51 48  1  0
 52  5  1  0
 52 54  1  0
 53 52  1  0
 55 57  1  0
 55 54  1  0
 56 55  2  0
 58 60  1  0
 58 57  1  0
 59 70  2  0
 60 65  1  0
 61 69  1  0
 61 71  1  0
 62 68  1  0
 62 64  1  0
 63 69  1  0
 64 63  1  0
 65 64  2  0
 66 67  1  0
 66 60  2  0
 67 62  2  0
 68 61  1  0
 69 59  1  0
 71 73  2  0
 72 71  1  0
 74 72  1  0
 75 84  2  0
 75 80  1  0
 76 72  1  0
 76 80  1  0
 77 76  1  0
 78 79  1  0
 78 77  1  0
 79 75  1  0
 80 81  2  0
 81 82  1  0
 83 82  2  0
 84 83  1  0
 85 59  1  0
 85 86  1  0
 85 95  1  0
 86 89  1  0
 87 91  1  0
 87 86  1  0
 88 87  2  0
 91 90  1  0
 93 91  1  0
 93 94  1  0
 93 92  1  0
 95 98  1  1
 95 96  1  0
 97 95  1  0
M  ISO  4   8 100  16 100  57 101  58 101
M  END
>  <TORSDO>  (13) 
F 22

>  <SCORE>  (13) 
-13.060

>  <name>  (13) 
12

>  <ligand_id>  (13) 
12

>  <original_smiles>  (13) 
[H]c1c([H])c([H])c2c(c1[H])C([H])([H])C([H])([H])C([H])([H])C2([H])N([H])C(=O)C1([H])N(C(=O)C([H])(N([H])C(=O)C([H])(N([H])C([H])([H])[H])C([H])([H])[H])C(C([H])([H])[H])(C([H])([H])[H])C([H])([H])[H])C([H])([H])c2c([H])c(OC([H])([H])C(=O)C([H])([H])N([H])c3c([H])c(N([H])C(=O)N4C([H])([H])C([H])([H])C([H])([H])C([H])(n5nc(-c6c([H])c([H])c(Oc7c([H])c([H])c(F)c([H])c7F)c([H])c6[H])c(C(=O)N([H])[H])c5N([H])[H])C4([H])[H])c([H])c(C([H])(C([H])([H])[H])[N+]([H])([H])[H])c3F)c([H])c([H])c2C1([H])[H]

>  <smiles>  (13) 
[H]c1c([H])c([H])c2c(c1[H])C([H])([H])C([H])([H])C([H])([H])C2([H])N([H])C(=O)C1([H])N(C(=O)C([H])(N([H])C(=O)C([H])(N([H])C([H])([H])[H])C([H])([H])[H])C(C([H])([H])[H])(C([H])([H])[H])C([H])([H])[H])C([H])([H])c2c([H])c(OC([H])([H])C(=O)C([H])([H])N([H])c3c([H])c(N([H])C(=O)N4C([H])([H])C([H])([H])C([H])([H])C([H])(n5nc(-c6c([H])c([H])c(Oc7c([H])c([H])c(F)c([H])c7F)c([H])c6[H])c(C(=O)N([H])[H])c5N([H])[H])C4([H])[H])c([H])c(C([H])(C([H])([H])[H])[N+]([H])([H])[H])c3F)c([H])c([H])c2C1([H])[H]

$$$$
13:0:0
     RDKit          3D

 96104  0  0  1  0  0  0  0  0999 V2000
  -28.7870  -22.8960   19.7190 C   0  0  0  0  0  0  0  0  0  0  0  0
  -29.2090  -21.8450   20.4630 N   0  0  0  0  0  0  0  0  0  0  0  0
  -28.3850  -22.7470   18.5610 O   0  0  0  0  0  0  0  0  0  0  0  0
  -29.6230  -22.1020   21.3510 H   0  0  0  0  0  0  0  0  0  0  0  0
  -27.1340  -18.8210   19.7940 C   0  0  0  0  0  3  0  0  0  0  0  0
  -28.0420  -17.7640   19.9600 C   0  0  0  0  0  3  0  0  0  0  0  0
  -27.5700  -20.1460   19.9210 C   0  0  0  0  0  3  0  0  0  0  0  0
  -29.4090  -17.9930   20.2410 C   0  0  0  0  0  0  0  0  0  0  0  0
  -29.8500  -19.3610   20.4030 C   0  0  0  0  0  0  0  0  0  0  0  0
  -28.9140  -20.4470   20.2340 C   0  0  0  0  0  0  0  0  0  0  0  0
  -31.2660  -19.6400   20.8050 C   0  0  0  0  0  0  0  0  0  0  0  0
  -32.0330  -20.6870   20.0060 C   0  0  0  0  0  1  0  0  0  0  0  0
  -31.8470  -19.0460   21.7180 O   0  0  0  0  0  0  0  0  0  0  0  0
  -30.2980  -16.7630   20.2610 C   0  0  0  0  0  3  0  0  0  0  0  0
  -29.9280  -15.5690   20.5970 N   0  0  0  0  0  0  0  0  0  0  0  0
  -30.7830  -14.4840   20.3280 C   0  0  0  0  0  0  0  0  0  0  0  0
  -30.5920  -12.1710   19.4630 C   0  0  0  0  0  2  0  0  0  0  0  0
  -29.6830  -12.2060   18.2160 C   0  0  0  0  0  2  0  0  0  0  0  0
  -28.1990  -12.0760   18.6160 C   0  0  0  0  0  2  0  0  0  0  0  0
  -27.8020  -13.0420   19.7640 C   0  0  0  0  0  3  0  0  0  0  0  0
  -28.8310  -12.9890   20.9140 C   0  0  0  0  0  2  0  0  0  0  0  0
  -30.1630  -13.2660   20.3530 N   0  0  0  0  0  0  0  0  0  0  0  0
  -31.9440  -14.5840   19.9210 O   0  0  0  0  0  0  0  0  0  0  0  0
  -25.4080  -13.6830   20.4560 C   0  0  0  0  0  0  0  0  0  0  0  0
  -24.3280  -12.9300   20.8290 C   0  0  0  0  0  0  0  0  0  0  0  0
  -24.7680  -11.5710   20.8080 C   0  0  0  0  0  0  0  0  0  0  0  0
  -26.4420  -12.7860   20.2380 N   0  0  0  0  0  0  0  0  0  0  0  0
  -26.0600  -11.5110   20.5070 N   0  0  0  0  0  0  0  0  0  0  0  0
  -24.0210  -10.3230   21.0020 C   0  0  0  0  0  0  0  0  0  0  0  0
  -24.4280   -9.3590   21.9510 C   0  0  0  0  0  3  0  0  0  0  0  0
  -23.6840   -8.1740   22.1330 C   0  0  0  0  0  3  0  0  0  0  0  0
  -22.5180   -7.9440   21.3640 C   0  0  0  0  0  0  0  0  0  0  0  0
  -22.1290   -8.8960   20.4070 C   0  0  0  0  0  3  0  0  0  0  0  0
  -22.8750  -10.0740   20.2230 C   0  0  0  0  0  3  0  0  0  0  0  0
  -21.7470   -6.8100   21.4530 O   0  0  0  0  0  0  0  0  0  0  0  0
  -21.6580   -6.0910   22.6180 C   0  0  0  0  0  0  0  0  0  0  0  0
  -21.1930   -6.6700   23.8190 C   0  0  0  0  0  3  0  0  0  0  0  0
  -21.0520   -5.8760   24.9750 C   0  0  0  0  0  3  0  0  0  0  0  0
  -21.3640   -4.5050   24.9300 C   0  0  0  0  0  0  0  0  0  0  0  0
  -21.8210   -3.9250   23.7340 C   0  0  0  0  0  3  0  0  0  0  0  0
  -21.9640   -4.7160   22.5810 C   0  0  0  0  0  0  0  0  0  0  0  0
  -22.3850   -4.1470   21.4240 F   0  0  0  0  0  0  0  0  0  0  0  0
  -21.2200   -3.7410   26.0380 F   0  0  0  0  0  0  0  0  0  0  0  0
  -22.9360  -13.4320   21.0900 C   0  0  0  0  0  0  0  0  0  0  0  0
  -22.1970  -12.7580   21.9630 N   0  0  0  0  0  0  0  0  0  0  0  0
  -22.5140  -14.4570   20.5550 O   0  0  0  0  0  0  0  0  0  0  0  0
  -22.5510  -11.9290   22.4170 H   0  0  0  0  0  0  0  0  0  0  0  0
  -21.2630  -13.0760   22.1820 H   0  0  0  0  0  0  0  0  0  0  0  0
  -25.5880  -15.0460   20.2580 N   0  0  0  0  0  0  0  0  0  0  0  0
  -24.8240  -15.7100   20.3360 H   0  0  0  0  0  0  0  0  0  0  0  0
  -26.4350  -15.4510   19.8820 H   0  0  0  0  0  0  0  0  0  0  0  0
  -28.5010  -25.3370   19.7610 C   0  0  0  0  0  3  0  0  0  0  0  0
  -28.8710  -24.2000   20.4050 C   0  0  0  0  0  0  0  0  0  0  0  0
  -29.2860  -24.2610   21.6810 O   0  0  0  0  0  0  0  0  0  0  0  0
  -29.2460  -25.1730   21.9370 H   0  0  0  0  0  0  0  0  0  0  0  0
  -28.4830  -26.6030   20.3290 O   0  0  0  0  0  0  0  0  0  0  0  0
  -24.6560  -31.8600   23.3150 C   0  0  0  0  0  0  0  0  0  0  0  0
  -27.3190  -27.3650   20.2780 C   0  0  0  0  0  0  0  0  0  0  0  0
  -23.4700  -30.4660   21.6560 C   0  0  0  0  0  3  0  0  0  0  0  0
  -24.9370  -28.9200   20.2530 C   0  0  0  0  0  0  0  0  0  0  0  0
  -26.0050  -30.7990   21.5020 C   0  0  0  0  0  2  0  0  0  0  0  0
  -26.0920  -29.4250   20.8610 C   0  0  0  0  0  0  0  0  0  0  0  0
  -27.2840  -28.6550   20.8710 C   0  0  0  0  0  3  0  0  0  0  0  0
  -26.1340  -26.8870   19.6680 C   0  0  0  0  0  3  0  0  0  0  0  0
  -24.9540  -27.6520   19.6540 C   0  0  0  0  0  3  0  0  0  0  0  0
  -23.6980  -29.7880   20.2800 C   0  0  0  0  0  2  0  0  0  0  0  0
  -24.7290  -31.0560   22.2160 N   0  0  0  0  0  0  0  0  0  0  0  0
  -23.5660  -32.1400   23.8350 O   0  0  0  0  0  0  0  0  0  0  0  0
  -22.7930  -29.4480   22.6030 C   0  0  0  0  0  0  0  0  0  0  0  0
  -21.4710  -29.2690   22.4490 N   0  0  0  0  0  0  0  0  0  0  0  0
  -23.4570  -28.8210   23.4340 O   0  0  0  0  0  0  0  0  0  0  0  0
  -20.9970  -29.8270   21.7530 H   0  0  0  0  0  0  0  0  0  0  0  0
  -18.0820  -28.0900   22.8840 C   0  0  0  0  0  0  0  0  0  0  0  0
  -20.6360  -28.3350   23.2030 C   0  0  0  0  0  3  0  0  0  0  0  0
  -20.7420  -26.9040   22.6290 C   0  0  0  0  0  2  0  0  0  0  0  0
  -19.6580  -26.5870   21.5940 C   0  0  0  0  0  2  0  0  0  0  0  0
  -18.2640  -26.7400   22.2120 C   0  0  0  0  0  2  0  0  0  0  0  0
  -19.1960  -28.8470   23.3350 C   0  0  0  0  0  0  0  0  0  0  0  0
  -18.9740  -30.1110   23.9220 C   0  0  0  0  0  3  0  0  0  0  0  0
  -17.6700  -30.6210   24.0610 C   0  0  0  0  0  3  0  0  0  0  0  0
  -16.5690  -29.8620   23.6280 C   0  0  0  0  0  3  0  0  0  0  0  0
  -16.7760  -28.5970   23.0460 C   0  0  0  0  0  3  0  0  0  0  0  0
  -25.9330  -32.4840   23.9570 C   0  0  0  0  0  3  0  0  0  0  0  0
  -25.6370  -33.8940   24.2490 N   0  0  0  0  0  0  0  0  0  0  0  0
  -26.0020  -34.9230   23.4720 C   0  0  0  0  0  0  0  0  0  0  0  0
  -26.6910  -34.7860   22.4580 O   0  0  0  0  0  0  0  0  0  0  0  0
  -25.0270  -34.0760   25.0310 H   0  0  0  0  0  0  0  0  0  0  0  0
  -24.3040  -36.7270   23.0420 C   0  0  0  0  0  1  0  0  0  0  0  0
  -25.5250  -36.3280   23.8860 C   0  0  0  0  0  3  0  0  0  0  0  0
  -27.6540  -37.2080   24.7340 C   0  0  0  0  0  1  0  0  0  0  0  0
  -26.5740  -37.3640   23.7650 N   0  0  0  0  0  0  0  0  0  0  0  0
  -26.1770  -38.2930   23.8800 H   0  0  0  0  0  0  0  0  0  0  0  0
  -26.4040  -31.7310   25.2610 C   0  0  1  0  0  0  0  0  0  0  0  0
  -25.2780  -31.5250   26.3020 C   0  0  0  0  0  1  0  0  0  0  0  0
  -26.9800  -30.3390   24.9100 C   0  0  0  0  0  1  0  0  0  0  0  0
  -27.5450  -32.5230   25.9410 C   0  0  0  0  0  1  0  0  0  0  0  0
  1 53  1  0
  1  2  1  0
  2  4  1  0
  3  1  2  0
  5  7  2  0
  5  6  1  0
  6  8  2  0
  7 10  1  0
  8 14  1  0
  8  9  1  0
  9 11  1  0
 10  9  2  0
 10  2  1  0
 11 13  2  0
 12 11  1  0
 14 15  2  0
 16 22  1  0
 16 15  1  0
 17 22  1  0
 18 19  1  0
 18 17  1  0
 20 19  1  0
 20 27  1  0
 20 21  1  0
 22 21  1  0
 23 16  2  0
 24 25  2  0
 25 44  1  0
 26 25  1  0
 26 29  1  0
 27 24  1  0
 27 28  1  0
 28 26  2  0
 29 30  1  0
 30 31  2  0
 32 35  1  0
 32 31  1  0
 33 32  2  0
 34 33  1  0
 34 29  2  0
 35 36  1  0
 36 37  1  0
 37 38  2  0
 39 38  1  0
 39 43  1  0
 40 39  2  0
 41 36  2  0
 41 40  1  0
 42 41  1  0
 44 45  1  0
 45 48  1  0
 45 47  1  0
 46 44  2  0
 49 50  1  0
 49 24  1  0
 51 49  1  0
 52 56  1  0
 52 53  2  0
 53 54  1  0
 54 55  1  0
 57 68  2  0
 58 56  1  0
 58 63  1  0
 59 67  1  0
 59 69  1  0
 60 66  1  0
 60 62  1  0
 61 67  1  0
 62 63  2  0
 62 61  1  0
 64 58  2  0
 65 64  1  0
 65 60  2  0
 66 59  1  0
 67 57  1  0
 69 71  2  0
 70 69  1  0
 72 70  1  0
 73 82  2  0
 73 78  1  0
 74 70  1  0
 74 78  1  0
 75 74  1  0
 76 77  1  0
 76 75  1  0
 77 73  1  0
 78 79  2  0
 79 80  1  0
 81 80  2  0
 82 81  1  0
 83 57  1  0
 83 84  1  0
 83 93  1  0
 84 87  1  0
 85 89  1  0
 85 84  1  0
 86 85  2  0
 89 88  1  0
 91 92  1  0
 91 89  1  0
 91 90  1  0
 93 96  1  1
 93 94  1  0
 95 93  1  0
M  ISO  4  15 100  16 100  52 101  56 101
M  END
>  <TORSDO>  (14) 
F 21

>  <SCORE>  (14) 
-13.657

>  <name>  (14) 
13

>  <ligand_id>  (14) 
13

>  <original_smiles>  (14) 
[H]OC(C(=O)N([H])c1c([H])c([H])c([H])c(C([H])=NC(=O)N2C([H])([H])C([H])([H])C([H])([H])C([H])(n3nc(-c4c([H])c([H])c(Oc5c([H])c([H])c(F)c([H])c5F)c([H])c4[H])c(C(=O)N([H])[H])c3N([H])[H])C2([H])[H])c1C(=O)C([H])([H])[H])=C([H])Oc1c([H])c([H])c2c(c1[H])C([H])([H])N(C(=O)C([H])(N([H])C(=O)C([H])(N([H])C([H])([H])[H])C([H])([H])[H])C(C([H])([H])[H])(C([H])([H])[H])C([H])([H])[H])C([H])(C(=O)N([H])C1([H])c3c([H])c([H])c([H])c([H])c3C([H])([H])C([H])([H])C1([H])[H])C2([H])[H]

>  <smiles>  (14) 
[H]OC(C(=O)N([H])c1c([H])c([H])c([H])c(C([H])=NC(=O)N2C([H])([H])C([H])([H])C([H])([H])C([H])(n3nc(-c4c([H])c([H])c(Oc5c([H])c([H])c(F)c([H])c5F)c([H])c4[H])c(C(=O)N([H])[H])c3N([H])[H])C2([H])[H])c1C(=O)C([H])([H])[H])=C([H])Oc1c([H])c([H])c2c(c1[H])C([H])([H])N(C(=O)C([H])(N([H])C(=O)C([H])(N([H])C([H])([H])[H])C([H])([H])[H])C(C([H])([H])[H])(C([H])([H])[H])C([H])([H])[H])C([H])(C(=O)N([H])C1([H])c3c([H])c([H])c([H])c([H])c3C([H])([H])C([H])([H])C1([H])[H])C2([H])[H]

$$$$
14:0:0
     RDKit          3D

 96104  0  0  1  0  0  0  0  0999 V2000
  -28.7440  -22.5830   20.8290 C   0  0  0  0  0  0  0  0  0  0  0  0
  -29.0640  -21.4030   20.1430 N   0  0  0  0  0  0  0  0  0  0  0  0
  -28.5410  -22.5240   22.0430 O   0  0  0  0  0  0  0  0  0  0  0  0
  -29.0150  -21.5000   19.1370 H   0  0  0  0  0  0  0  0  0  0  0  0
  -30.6910  -20.2190   21.5960 C   0  0  0  0  0  3  0  0  0  0  0  0
  -31.1260  -17.7980   21.6110 C   0  0  0  0  0  3  0  0  0  0  0  0
  -29.3540  -18.7280   20.2070 C   0  0  0  0  0  0  0  0  0  0  0  0
  -29.6480  -20.1060   20.6500 C   0  0  0  0  0  0  0  0  0  0  0  0
  -30.0910  -17.5390   20.6860 C   0  0  0  0  0  0  0  0  0  0  0  0
  -31.4130  -19.1020   22.0600 C   0  0  0  0  0  0  0  0  0  0  0  0
  -32.4090  -19.2850   22.9590 F   0  0  0  0  0  0  0  0  0  0  0  0
  -30.6110  -14.9540   20.2940 C   0  0  0  0  0  0  0  0  0  0  0  0
  -30.4580  -12.6520   19.2970 C   0  0  0  0  0  2  0  0  0  0  0  0
  -29.4960  -12.6600   18.0870 C   0  0  0  0  0  2  0  0  0  0  0  0
  -28.0390  -12.4550   18.5470 C   0  0  0  0  0  2  0  0  0  0  0  0
  -27.6610  -13.3600   19.7510 C   0  0  0  0  0  3  0  0  0  0  0  0
  -28.7390  -13.3290   20.8530 C   0  0  0  0  0  2  0  0  0  0  0  0
  -30.0060  -13.7160   20.2240 N   0  0  0  0  0  0  0  0  0  0  0  0
  -31.8130  -15.0480   20.0250 O   0  0  0  0  0  0  0  0  0  0  0  0
  -29.7970  -16.0950   20.3770 N   0  0  0  0  0  0  0  0  0  0  0  0
  -28.8170  -15.8810   20.2780 H   0  0  0  0  0  0  0  0  0  0  0  0
  -25.2920  -13.9260   20.5470 C   0  0  0  0  0  0  0  0  0  0  0  0
  -24.2370  -13.1410   20.9250 C   0  0  0  0  0  0  0  0  0  0  0  0
  -24.7060  -11.7920   20.8600 C   0  0  0  0  0  0  0  0  0  0  0  0
  -26.3330  -13.0550   20.2700 N   0  0  0  0  0  0  0  0  0  0  0  0
  -25.9890  -11.7660   20.5230 N   0  0  0  0  0  0  0  0  0  0  0  0
  -23.9870  -10.5250   21.0400 C   0  0  0  0  0  0  0  0  0  0  0  0
  -24.4150   -9.5580   21.9770 C   0  0  0  0  0  3  0  0  0  0  0  0
  -23.6940   -8.3560   22.1440 C   0  0  0  0  0  3  0  0  0  0  0  0
  -22.5330   -8.1110   21.3740 C   0  0  0  0  0  0  0  0  0  0  0  0
  -22.1240   -9.0660   20.4270 C   0  0  0  0  0  3  0  0  0  0  0  0
  -22.8450  -10.2600   20.2580 C   0  0  0  0  0  3  0  0  0  0  0  0
  -21.7850   -6.9600   21.4520 O   0  0  0  0  0  0  0  0  0  0  0  0
  -21.7000   -6.2340   22.6130 C   0  0  0  0  0  0  0  0  0  0  0  0
  -21.1790   -6.7890   23.8020 C   0  0  0  0  0  3  0  0  0  0  0  0
  -21.0450   -5.9860   24.9520 C   0  0  0  0  0  3  0  0  0  0  0  0
  -21.4200   -4.6300   24.9140 C   0  0  0  0  0  0  0  0  0  0  0  0
  -21.9340   -4.0750   23.7290 C   0  0  0  0  0  3  0  0  0  0  0  0
  -22.0700   -4.8740   22.5800 C   0  0  0  0  0  0  0  0  0  0  0  0
  -22.5450   -4.3290   21.4350 F   0  0  0  0  0  0  0  0  0  0  0  0
  -21.2840   -3.8570   26.0170 F   0  0  0  0  0  0  0  0  0  0  0  0
  -22.8450  -13.6090   21.2330 C   0  0  0  0  0  0  0  0  0  0  0  0
  -22.1290  -12.8840   22.0840 N   0  0  0  0  0  0  0  0  0  0  0  0
  -22.4010  -14.6520   20.7530 O   0  0  0  0  0  0  0  0  0  0  0  0
  -22.5020  -12.0400   22.4930 H   0  0  0  0  0  0  0  0  0  0  0  0
  -21.1950  -13.1780   22.3330 H   0  0  0  0  0  0  0  0  0  0  0  0
  -25.4450  -15.3000   20.3910 N   0  0  0  0  0  0  0  0  0  0  0  0
  -24.6710  -15.9410   20.5190 H   0  0  0  0  0  0  0  0  0  0  0  0
  -26.2680  -15.7470   20.0110 H   0  0  0  0  0  0  0  0  0  0  0  0
  -28.7390  -18.3190   17.7770 C   0  0  0  0  0  1  0  0  0  0  0  0
  -28.2260  -18.5200   19.2080 C   0  0  0  0  0  2  0  0  0  0  0  0
  -28.2270  -25.1160   20.6490 C   0  0  0  0  0  3  0  0  0  0  0  0
  -28.6520  -23.9100   20.0760 C   0  0  0  0  0  0  0  0  0  0  0  0
  -29.0490  -23.9220   18.7970 O   0  0  0  0  0  0  0  0  0  0  0  0
  -28.9540  -24.8150   18.4870 H   0  0  0  0  0  0  0  0  0  0  0  0
  -28.2650  -26.4490   20.1100 O   0  0  0  0  0  0  0  0  0  0  0  0
  -24.5610  -31.9430   23.2420 C   0  0  0  0  0  0  0  0  0  0  0  0
  -27.1600  -27.3350   20.1770 C   0  0  0  0  0  0  0  0  0  0  0  0
  -23.3510  -30.5340   21.6150 C   0  0  0  0  0  3  0  0  0  0  0  0
  -24.7960  -28.9790   20.1790 C   0  0  0  0  0  0  0  0  0  0  0  0
  -25.8910  -30.8520   21.4090 C   0  0  0  0  0  2  0  0  0  0  0  0
  -25.9730  -29.4650   20.7660 C   0  0  0  0  0  0  0  0  0  0  0  0
  -27.1600  -28.6560   20.7480 C   0  0  0  0  0  3  0  0  0  0  0  0
  -25.9590  -26.9170   19.5700 C   0  0  0  0  0  3  0  0  0  0  0  0
  -24.7940  -27.7140   19.5700 C   0  0  0  0  0  3  0  0  0  0  0  0
  -23.5570  -29.8540   20.2360 C   0  0  0  0  0  2  0  0  0  0  0  0
  -24.6210  -31.1300   22.1440 N   0  0  0  0  0  0  0  0  0  0  0  0
  -23.4800  -32.2130   23.7880 O   0  0  0  0  0  0  0  0  0  0  0  0
  -22.7000  -29.5180   22.5860 C   0  0  0  0  0  0  0  0  0  0  0  0
  -21.3770  -29.3170   22.4610 N   0  0  0  0  0  0  0  0  0  0  0  0
  -23.3880  -28.9090   23.4100 O   0  0  0  0  0  0  0  0  0  0  0  0
  -20.8790  -29.8630   21.7710 H   0  0  0  0  0  0  0  0  0  0  0  0
  -18.0220  -28.0580   22.9740 C   0  0  0  0  0  0  0  0  0  0  0  0
  -20.5760  -28.3700   23.2390 C   0  0  0  0  0  3  0  0  0  0  0  0
  -20.7040  -26.9360   22.6760 C   0  0  0  0  0  2  0  0  0  0  0  0
  -19.6080  -26.5840   21.6630 C   0  0  0  0  0  2  0  0  0  0  0  0
  -18.2240  -26.7090   22.3060 C   0  0  0  0  0  2  0  0  0  0  0  0
  -19.1270  -28.8450   23.3980 C   0  0  0  0  0  0  0  0  0  0  0  0
  -18.8830  -30.1070   23.9810 C   0  0  0  0  0  3  0  0  0  0  0  0
  -17.5690  -30.5840   24.1440 C   0  0  0  0  0  3  0  0  0  0  0  0
  -16.4790  -29.7950   23.7380 C   0  0  0  0  0  3  0  0  0  0  0  0
  -16.7070  -28.5330   23.1580 C   0  0  0  0  0  3  0  0  0  0  0  0
  -25.8430  -32.5880   23.8520 C   0  0  0  0  0  3  0  0  0  0  0  0
  -26.3660  -31.8350   25.1370 C   0  0  1  0  0  0  0  0  0  0  0  0
  -25.2750  -31.6040   26.2090 C   0  0  0  0  0  1  0  0  0  0  0  0
  -26.9570  -30.4560   24.7630 C   0  0  0  0  0  1  0  0  0  0  0  0
  -27.5130  -32.6430   25.7870 C   0  0  0  0  0  1  0  0  0  0  0  0
  -25.5320  -33.9890   24.1670 N   0  0  0  0  0  0  0  0  0  0  0  0
  -25.8760  -35.0390   23.4080 C   0  0  0  0  0  0  0  0  0  0  0  0
  -26.5590  -34.9270   22.3860 O   0  0  0  0  0  0  0  0  0  0  0  0
  -24.9310  -34.1500   24.9630 H   0  0  0  0  0  0  0  0  0  0  0  0
  -24.1820  -36.8520   22.9970 C   0  0  0  0  0  1  0  0  0  0  0  0
  -25.3880  -36.4310   23.8530 C   0  0  0  0  0  3  0  0  0  0  0  0
  -27.4970  -37.2930   24.7690 C   0  0  0  0  0  1  0  0  0  0  0  0
  -26.4350  -37.4730   23.7840 N   0  0  0  0  0  0  0  0  0  0  0  0
  -26.0320  -38.3970   23.9180 H   0  0  0  0  0  0  0  0  0  0  0  0
  1  3  2  0
  2  8  1  0
  2  1  1  0
  4  2  1  0
  5 10  1  0
  6 10  2  0
  7  8  1  0
  7  9  2  0
  8  5  2  0
  9  6  1  0
 10 11  1  0
 12 20  1  0
 13 18  1  0
 14 15  1  0
 14 13  1  0
 16 15  1  0
 16 25  1  0
 16 17  1  0
 18 12  1  0
 18 17  1  0
 19 12  2  0
 20  9  1  0
 21 20  1  0
 22 23  2  0
 23 42  1  0
 24 23  1  0
 24 27  1  0
 25 26  1  0
 25 22  1  0
 26 24  2  0
 27 28  1  0
 28 29  2  0
 30 33  1  0
 30 29  1  0
 31 30  2  0
 32 31  1  0
 32 27  2  0
 33 34  1  0
 34 35  1  0
 35 36  2  0
 37 36  1  0
 37 41  1  0
 38 37  2  0
 39 34  2  0
 39 38  1  0
 40 39  1  0
 42 43  1  0
 43 46  1  0
 43 45  1  0
 44 42  2  0
 47 48  1  0
 47 22  1  0
 49 47  1  0
 50 51  1  0
 51  7  1  0
 53 52  2  0
 53  1  1  0
 54 53  1  0
 55 54  1  0
 56 58  1  0
 56 52  1  0
 57 68  2  0
 58 63  1  0
 59 67  1  0
 59 69  1  0
 60 66  1  0
 60 62  1  0
 61 67  1  0
 62 61  1  0
 63 62  2  0
 64 58  2  0
 65 64  1  0
 65 60  2  0
 66 59  1  0
 67 57  1  0
 69 71  2  0
 70 69  1  0
 72 70  1  0
 73 82  2  0
 73 78  1  0
 74 70  1  0
 74 78  1  0
 75 74  1  0
 76 77  1  0
 76 75  1  0
 77 73  1  0
 78 79  2  0
 79 80  1  0
 81 80  2  0
 82 81  1  0
 83 57  1  0
 83 88  1  0
 83 84  1  0
 84 87  1  1
 84 85  1  0
 86 84  1  0
 88 91  1  0
 89 93  1  0
 89 88  1  0
 90 89  2  0
 93 92  1  0
 95 93  1  0
 95 96  1  0
 95 94  1  0
M  ISO  4  12 100  20 100  52 101  56 101
M  END
>  <TORSDO>  (15) 
F 20

>  <SCORE>  (15) 
-14.509

>  <name>  (15) 
14

>  <ligand_id>  (15) 
14

>  <original_smiles>  (15) 
[H]OC(C(=O)N([H])c1c([H])c(F)c([H])c(N([H])C(=O)N2C([H])([H])C([H])([H])C([H])([H])C([H])(n3nc(-c4c([H])c([H])c(Oc5c([H])c([H])c(F)c([H])c5F)c([H])c4[H])c(C(=O)N([H])[H])c3N([H])[H])C2([H])[H])c1C([H])([H])C([H])([H])[H])=C([H])Oc1c([H])c([H])c2c(c1[H])C([H])([H])N(C(=O)C([H])(N([H])C(=O)C([H])(N([H])C([H])([H])[H])C([H])([H])[H])C(C([H])([H])[H])(C([H])([H])[H])C([H])([H])[H])C([H])(C(=O)N([H])C1([H])c3c([H])c([H])c([H])c([H])c3C([H])([H])C([H])([H])C1([H])[H])C2([H])[H]

>  <smiles>  (15) 
[H]OC(C(=O)N([H])c1c([H])c(F)c([H])c(N([H])C(=O)N2C([H])([H])C([H])([H])C([H])([H])C([H])(n3nc(-c4c([H])c([H])c(Oc5c([H])c([H])c(F)c([H])c5F)c([H])c4[H])c(C(=O)N([H])[H])c3N([H])[H])C2([H])[H])c1C([H])([H])C([H])([H])[H])=C([H])Oc1c([H])c([H])c2c(c1[H])C([H])([H])N(C(=O)C([H])(N([H])C(=O)C([H])(N([H])C([H])([H])[H])C([H])([H])[H])C(C([H])([H])[H])(C([H])([H])[H])C([H])([H])[H])C([H])(C(=O)N([H])C1([H])c3c([H])c([H])c([H])c([H])c3C([H])([H])C([H])([H])C1([H])[H])C2([H])[H]

$$$$
15:0:0
     RDKit          3D

 95103  0  0  1  0  0  0  0  0999 V2000
  -30.4550  -20.4970   20.9400 C   0  0  0  0  0  3  0  0  0  0  0  0
  -30.8500  -19.1120   20.9280 C   0  0  0  0  0  0  0  0  0  0  0  0
  -29.9560  -18.3210   20.2300 C   0  0  0  0  0  0  0  0  0  0  0  0
  -29.3110  -20.7810   20.2180 C   0  0  0  0  0  0  0  0  0  0  0  0
  -28.6300  -19.2820   19.6060 S   0  0  0  0  0  0  0  0  0  0  0  0
  -30.6130  -14.6860   20.0120 C   0  0  0  0  0  0  0  0  0  0  0  0
  -30.2370  -12.5010   18.9780 C   0  0  0  0  0  2  0  0  0  0  0  0
  -29.2440  -12.6870   17.8130 C   0  0  0  0  0  2  0  0  0  0  0  0
  -27.7990  -12.5170   18.3190 C   0  0  0  0  0  2  0  0  0  0  0  0
  -27.5060  -13.3630   19.5890 C   0  0  0  0  0  3  0  0  0  0  0  0
  -28.6280  -13.2270   20.6470 C   0  0  0  0  0  2  0  0  0  0  0  0
  -29.9140  -13.5130   19.9990 N   0  0  0  0  0  0  0  0  0  0  0  0
  -31.7640  -14.7400   19.5770 O   0  0  0  0  0  0  0  0  0  0  0  0
  -30.1400  -16.9800   19.6110 C   0  0  0  0  0  0  0  0  0  0  0  0
  -29.9380  -15.8260   20.3040 N   0  0  0  0  0  0  0  0  0  0  0  0
  -30.5130  -16.9950   18.4330 O   0  0  0  0  0  0  0  0  0  0  0  0
  -29.2610  -15.8170   21.0470 H   0  0  0  0  0  0  0  0  0  0  0  0
  -25.1480  -13.9000   20.4630 C   0  0  0  0  0  0  0  0  0  0  0  0
  -24.1160  -13.0950   20.8660 C   0  0  0  0  0  0  0  0  0  0  0  0
  -24.5960  -11.7540   20.7640 C   0  0  0  0  0  0  0  0  0  0  0  0
  -26.1900  -13.0460   20.1420 N   0  0  0  0  0  0  0  0  0  0  0  0
  -25.8680  -11.7500   20.3880 N   0  0  0  0  0  0  0  0  0  0  0  0
  -23.9000  -10.4730   20.9560 C   0  0  0  0  0  0  0  0  0  0  0  0
  -24.3400   -9.5260   21.9060 C   0  0  0  0  0  3  0  0  0  0  0  0
  -23.6420   -8.3100   22.0820 C   0  0  0  0  0  3  0  0  0  0  0  0
  -22.4910   -8.0350   21.3080 C   0  0  0  0  0  0  0  0  0  0  0  0
  -22.0710   -8.9700   20.3470 C   0  0  0  0  0  3  0  0  0  0  0  0
  -22.7670  -10.1770   20.1700 C   0  0  0  0  0  3  0  0  0  0  0  0
  -21.7660   -6.8710   21.3910 O   0  0  0  0  0  0  0  0  0  0  0  0
  -21.6460   -6.1820   22.5710 C   0  0  0  0  0  0  0  0  0  0  0  0
  -21.0540   -6.7600   23.7150 C   0  0  0  0  0  3  0  0  0  0  0  0
  -20.8880   -5.9930   24.8860 C   0  0  0  0  0  3  0  0  0  0  0  0
  -21.3020   -4.6490   24.9130 C   0  0  0  0  0  0  0  0  0  0  0  0
  -21.8860   -4.0690   23.7740 C   0  0  0  0  0  3  0  0  0  0  0  0
  -22.0540   -4.8330   22.6040 C   0  0  0  0  0  0  0  0  0  0  0  0
  -22.5970   -4.2630   21.5010 F   0  0  0  0  0  0  0  0  0  0  0  0
  -21.1370   -3.9110   26.0350 F   0  0  0  0  0  0  0  0  0  0  0  0
  -22.7300  -13.5380   21.2300 C   0  0  0  0  0  0  0  0  0  0  0  0
  -22.0570  -12.7920   22.0990 N   0  0  0  0  0  0  0  0  0  0  0  0
  -22.2510  -14.5800   20.7820 O   0  0  0  0  0  0  0  0  0  0  0  0
  -22.4580  -11.9440   22.4740 H   0  0  0  0  0  0  0  0  0  0  0  0
  -21.1310  -13.0690   22.3950 H   0  0  0  0  0  0  0  0  0  0  0  0
  -25.2850  -15.2770   20.3210 N   0  0  0  0  0  0  0  0  0  0  0  0
  -24.5180  -15.9200   20.4850 H   0  0  0  0  0  0  0  0  0  0  0  0
  -26.1090  -15.7310   19.9440 H   0  0  0  0  0  0  0  0  0  0  0  0
  -29.2690  -23.2050   19.8410 C   0  0  0  0  0  0  0  0  0  0  0  0
  -28.7050  -21.9770   19.9360 N   0  0  0  0  0  0  0  0  0  0  0  0
  -30.4740  -23.3950   20.0240 O   0  0  0  0  0  0  0  0  0  0  0  0
  -27.7270  -21.9300   19.6900 H   0  0  0  0  0  0  0  0  0  0  0  0
  -28.3790  -24.4120   19.4430 C   0  0  0  0  0  2  0  0  0  0  0  0
  -28.3020  -25.5320   20.5250 C   0  0  0  0  0  2  0  0  0  0  0  0
  -28.3210  -26.8860   20.0210 O   0  0  0  0  0  0  0  0  0  0  0  0
  -24.5260  -31.9790   23.2810 C   0  0  0  0  0  0  0  0  0  0  0  0
  -27.1420  -27.6040   20.0750 C   0  0  0  0  0  0  0  0  0  0  0  0
  -23.3000  -30.6250   21.6140 C   0  0  0  0  0  3  0  0  0  0  0  0
  -24.7420  -29.1130   20.1470 C   0  0  0  0  0  0  0  0  0  0  0  0
  -25.8260  -30.9820   21.4020 C   0  0  0  0  0  2  0  0  0  0  0  0
  -25.9060  -29.6250   20.7310 C   0  0  0  0  0  0  0  0  0  0  0  0
  -27.1090  -28.8800   20.6880 C   0  0  0  0  0  3  0  0  0  0  0  0
  -25.9560  -27.1010   19.4970 C   0  0  0  0  0  3  0  0  0  0  0  0
  -24.7620  -27.8480   19.5350 C   0  0  0  0  0  3  0  0  0  0  0  0
  -23.4970  -29.9740   20.2200 C   0  0  0  0  0  2  0  0  0  0  0  0
  -24.5690  -31.2090   22.1570 N   0  0  0  0  0  0  0  0  0  0  0  0
  -23.4490  -32.2390   23.8390 O   0  0  0  0  0  0  0  0  0  0  0  0
  -22.6540  -29.5850   22.5590 C   0  0  0  0  0  0  0  0  0  0  0  0
  -21.3410  -29.3570   22.3910 N   0  0  0  0  0  0  0  0  0  0  0  0
  -23.3330  -28.9810   23.3960 O   0  0  0  0  0  0  0  0  0  0  0  0
  -20.8570  -29.8940   21.6860 H   0  0  0  0  0  0  0  0  0  0  0  0
  -17.9990  -28.0290   22.7610 C   0  0  0  0  0  0  0  0  0  0  0  0
  -20.5310  -28.3940   23.1380 C   0  0  0  0  0  3  0  0  0  0  0  0
  -20.7170  -26.9650   22.5820 C   0  0  0  0  0  2  0  0  0  0  0  0
  -19.6720  -26.5860   21.5280 C   0  0  0  0  0  2  0  0  0  0  0  0
  -18.2570  -26.6820   22.1090 C   0  0  0  0  0  2  0  0  0  0  0  0
  -19.0680  -28.8390   23.2310 C   0  0  0  0  0  0  0  0  0  0  0  0
  -18.7750  -30.0970   23.8000 C   0  0  0  0  0  3  0  0  0  0  0  0
  -17.4470  -30.5510   23.9040 C   0  0  0  0  0  3  0  0  0  0  0  0
  -16.3920  -29.7360   23.4550 C   0  0  0  0  0  3  0  0  0  0  0  0
  -16.6680  -28.4780   22.8910 C   0  0  0  0  0  3  0  0  0  0  0  0
  -25.8160  -32.5950   23.9040 C   0  0  0  0  0  3  0  0  0  0  0  0
  -26.3160  -31.8210   25.1860 C   0  0  1  0  0  0  0  0  0  0  0  0
  -25.2040  -31.5560   26.2300 C   0  0  0  0  0  1  0  0  0  0  0  0
  -26.9260  -30.4550   24.7930 C   0  0  0  0  0  1  0  0  0  0  0  0
  -27.4490  -32.6190   25.8730 C   0  0  0  0  0  1  0  0  0  0  0  0
  -25.5280  -33.9990   24.2230 N   0  0  0  0  0  0  0  0  0  0  0  0
  -25.8860  -35.0390   23.4580 C   0  0  0  0  0  0  0  0  0  0  0  0
  -26.5650  -34.9160   22.4350 O   0  0  0  0  0  0  0  0  0  0  0  0
  -24.9310  -34.1760   25.0180 H   0  0  0  0  0  0  0  0  0  0  0  0
  -24.1860  -36.8540   23.0820 C   0  0  0  0  0  1  0  0  0  0  0  0
  -25.4150  -36.4370   23.9040 C   0  0  0  0  0  3  0  0  0  0  0  0
  -27.5540  -37.3000   24.7410 C   0  0  0  0  0  1  0  0  0  0  0  0
  -26.4630  -37.4750   23.7860 N   0  0  0  0  0  0  0  0  0  0  0  0
  -26.0680  -38.4020   23.9240 H   0  0  0  0  0  0  0  0  0  0  0  0
  -32.0890  -18.5830   21.5220 C   0  0  0  0  0  0  0  0  0  0  0  0
  -33.2710  -19.5460   21.6660 C   0  0  0  0  0  1  0  0  0  0  0  0
  -32.2580  -17.4130   21.8730 O   0  0  0  0  0  0  0  0  0  0  0  0
  2  1  1  0
  2 93  1  0
  3  2  2  0
  4  1  2  0
  5  4  1  0
  5  3  1  0
  6 15  1  0
  7 12  1  0
  8  9  1  0
  8  7  1  0
 10  9  1  0
 10 21  1  0
 10 11  1  0
 12  6  1  0
 12 11  1  0
 13  6  2  0
 14  3  1  0
 14 15  1  0
 15 17  1  0
 16 14  2  0
 18 19  2  0
 19 38  1  0
 20 19  1  0
 20 23  1  0
 21 22  1  0
 21 18  1  0
 22 20  2  0
 23 24  1  0
 24 25  2  0
 26 29  1  0
 26 25  1  0
 27 26  2  0
 28 27  1  0
 28 23  2  0
 29 30  1  0
 30 35  2  0
 30 31  1  0
 31 32  2  0
 32 33  1  0
 33 37  1  0
 34 33  2  0
 35 34  1  0
 36 35  1  0
 38 39  1  0
 39 42  1  0
 39 41  1  0
 40 38  2  0
 43 18  1  0
 43 44  1  0
 45 43  1  0
 46 47  1  0
 46 48  2  0
 47  4  1  0
 49 47  1  0
 50 46  1  0
 50 51  1  0
 52 54  1  0
 52 51  1  0
 53 64  2  0
 54 59  1  0
 55 63  1  0
 55 65  1  0
 56 62  1  0
 56 58  1  0
 57 63  1  0
 58 57  1  0
 59 58  2  0
 60 61  1  0
 60 54  2  0
 61 56  2  0
 62 55  1  0
 63 53  1  0
 65 67  2  0
 66 65  1  0
 68 66  1  0
 69 78  2  0
 69 74  1  0
 70 66  1  0
 70 74  1  0
 71 70  1  0
 72 73  1  0
 72 71  1  0
 73 69  1  0
 74 75  2  0
 75 76  1  0
 77 76  2  0
 78 77  1  0
 79 53  1  0
 79 84  1  0
 79 80  1  0
 80 83  1  1
 80 81  1  0
 82 80  1  0
 84 87  1  0
 85 89  1  0
 85 84  1  0
 86 85  2  0
 89 88  1  0
 91 89  1  0
 91 92  1  0
 91 90  1  0
 93 94  1  0
 93 95  2  0
M  ISO  4   6 100  15 100  51 101  52 101
M  END
>  <TORSDO>  (16) 
F 20

>  <SCORE>  (16) 
-13.467

>  <name>  (16) 
15

>  <ligand_id>  (16) 
15

>  <original_smiles>  (16) 
[H]c1c([H])c([H])c2c(c1[H])C([H])([H])C([H])([H])C([H])([H])C2([H])N([H])C(=O)C1([H])N(C(=O)C([H])(N([H])C(=O)C([H])(N([H])C([H])([H])[H])C([H])([H])[H])C(C([H])([H])[H])(C([H])([H])[H])C([H])([H])[H])C([H])([H])c2c([H])c(OC([H])([H])C([H])([H])C(=O)N([H])c3sc(C(=O)N([H])C(=O)N4C([H])([H])C([H])([H])C([H])([H])C([H])(n5nc(-c6c([H])c([H])c(Oc7c([H])c([H])c(F)c([H])c7F)c([H])c6[H])c(C(=O)N([H])[H])c5N([H])[H])C4([H])[H])c(C(=O)C([H])([H])[H])c3[H])c([H])c([H])c2C1([H])[H]

>  <smiles>  (16) 
[H]c1c([H])c([H])c2c(c1[H])C([H])([H])C([H])([H])C([H])([H])C2([H])N([H])C(=O)C1([H])N(C(=O)C([H])(N([H])C(=O)C([H])(N([H])C([H])([H])[H])C([H])([H])[H])C(C([H])([H])[H])(C([H])([H])[H])C([H])([H])[H])C([H])([H])c2c([H])c(OC([H])([H])C([H])([H])C(=O)N([H])c3sc(C(=O)N([H])C(=O)N4C([H])([H])C([H])([H])C([H])([H])C([H])(n5nc(-c6c([H])c([H])c(Oc7c([H])c([H])c(F)c([H])c7F)c([H])c6[H])c(C(=O)N([H])[H])c5N([H])[H])C4([H])[H])c(C(=O)C([H])([H])[H])c3[H])c([H])c([H])c2C1([H])[H]

$$$$
16:0:0
     RDKit          3D

 93 93  0  0  1  0  0  0  0  0999 V2000
  -24.9140  -17.8500   19.3410 C   0  0  0  0  0  2  0  0  0  0  0  0
  -24.9950  -16.1710   19.8000 N   0  0  0  0  0  2  0  0  0  0  0  0
  -23.7430  -18.0690   19.0140 O   0  0  0  0  0  1  0  0  0  0  0  0
  -25.9880  -16.0690   20.0430 H   0  0  0  0  0  0  0  0  0  0  0  0
  -26.0570  -19.8850   19.0480 C   0  0  0  0  0  2  0  0  0  0  0  0
  -27.2520  -19.5940   18.9250 O   0  0  0  0  0  0  0  0  0  0  0  0
  -25.9700  -22.0410   18.8760 C   0  0  0  0  0 15  0  0  0  0  0  0
  -26.9420  -23.8570   18.8710 O   0  0  0  0  0  1  0  0  0  0  0  0
  -24.8130  -30.8490   22.5170 C   0  0  0  0  0  0  0  0  0  0  0  0
  -26.5930  -25.4920   18.9880 C   0  0  0  0  0  0  0  0  0  0  0  0
  -23.5500  -29.5260   20.9160 C   0  0  0  0  0  3  0  0  0  0  0  0
  -24.8200  -28.0080   19.2140 C   0  0  0  0  0  0  0  0  0  0  0  0
  -26.1210  -29.5260   20.6490 C   0  0  0  0  0  2  0  0  0  0  0  0
  -26.0490  -28.1080   19.8590 C   0  0  0  0  0  0  0  0  0  0  0  0
  -26.9460  -26.8620   19.7220 C   0  0  0  0  0  3  0  0  0  0  0  0
  -25.5120  -25.8410   18.1870 C   0  0  0  0  0  3  0  0  0  0  0  0
  -24.6420  -26.9450   18.3310 C   0  0  0  0  0  3  0  0  0  0  0  0
  -23.6840  -29.0080   19.4600 C   0  0  0  0  0  2  0  0  0  0  0  0
  -24.8710  -30.0220   21.4050 N   0  0  0  0  0  0  0  0  0  0  0  0
  -23.7420  -31.0830   23.1110 O   0  0  0  0  0  0  0  0  0  0  0  0
  -22.9650  -28.4330   21.8530 C   0  0  0  0  0  0  0  0  0  0  0  0
  -21.6530  -28.1450   21.7590 N   0  0  0  0  0  0  0  0  0  0  0  0
  -23.7020  -27.8580   22.6580 O   0  0  0  0  0  0  0  0  0  0  0  0
  -21.0950  -28.6690   21.0980 H   0  0  0  0  0  0  0  0  0  0  0  0
  -18.4690  -26.4570   22.2230 C   0  0  0  0  0  0  0  0  0  0  0  0
  -20.9570  -27.1020   22.5250 C   0  0  0  0  0  3  0  0  0  0  0  0
  -21.2770  -25.6970   21.9650 C   0  0  0  0  0  2  0  0  0  0  0  0
  -20.2550  -25.2130   20.9310 C   0  0  0  0  0  2  0  0  0  0  0  0
  -18.8570  -25.1510   21.5500 C   0  0  0  0  0  2  0  0  0  0  0  0
  -19.4540  -27.3810   22.6660 C   0  0  0  0  0  0  0  0  0  0  0  0
  -19.0370  -28.5910   23.2610 C   0  0  0  0  0  3  0  0  0  0  0  0
  -17.6680  -28.8860   23.4120 C   0  0  0  0  0  3  0  0  0  0  0  0
  -16.6980  -27.9640   22.9810 C   0  0  0  0  0  3  0  0  0  0  0  0
  -17.0990  -26.7510   22.3930 C   0  0  0  0  0  3  0  0  0  0  0  0
  -26.0690  -31.5580   23.1070 C   0  0  0  0  0  3  0  0  0  0  0  0
  -26.7890  -30.7020   24.2220 C   0  0  1  0  0  0  0  0  0  0  0  0
  -25.8460  -30.2200   25.3520 C   0  0  0  0  0  1  0  0  0  0  0  0
  -27.4600  -29.4490   23.6240 C   0  0  0  0  0  1  0  0  0  0  0  0
  -27.9240  -31.5330   24.8690 C   0  0  0  0  0  1  0  0  0  0  0  0
  -25.6460  -32.8530   23.6930 N   0  0  0  0  0  0  0  0  0  0  0  0
  -25.8500  -34.0650   23.1560 C   0  0  0  0  0  0  0  0  0  0  0  0
  -26.4660  -34.2220   22.1000 O   0  0  0  0  0  0  0  0  0  0  0  0
  -25.0820  -32.7970   24.5280 H   0  0  0  0  0  0  0  0  0  0  0  0
  -23.9750  -35.7550   23.2510 C   0  0  0  0  0  1  0  0  0  0  0  0
  -25.2900  -35.2980   23.9030 C   0  0  0  0  0  3  0  0  0  0  0  0
  -27.3900  -36.2010   24.8080 C   0  0  0  0  0  1  0  0  0  0  0  0
  -26.2300  -36.4420   23.9540 N   0  0  0  0  0  0  0  0  0  0  0  0
  -25.7610  -37.2800   24.2860 H   0  0  0  0  0  0  0  0  0  0  0  0
  -23.8570  -13.7870   18.6800 C   0  0  0  0  0  1  0  0  0  0  0  0
  -24.2510  -14.2430   20.0910 C   0  0  0  0  0  1  0  0  0  0  0  0
  -30.4570  -12.9100   20.9890 C   0  0  0  0  0  0  0  0  0  0  0  0
  -31.3610  -12.2380   18.5530 C   0  0  0  0  0  2  0  0  0  0  0  0
  -30.2910  -12.2120   17.3190 C   0  0  0  0  0  2  0  0  0  0  0  0
  -28.7680  -12.4850   17.7000 C   0  0  0  0  0  2  0  0  0  0  0  0
  -28.8650  -13.1410   19.0540 C   0  0  0  0  0  3  0  0  0  0  0  0
  -29.5330  -11.8060   19.6370 C   0  0  0  0  0  2  0  0  0  0  0  0
  -30.7680  -12.1260   19.9330 N   0  0  0  0  0  0  0  0  0  0  0  0
  -31.1710  -13.9650   20.7120 O   0  0  0  0  0  0  0  0  0  0  0  0
  -24.5740  -12.3010   21.2490 C   0  0  0  0  0  1  0  0  0  0  0  0
  -27.6900  -11.3610   22.1000 C   0  0  0  0  0  2  0  0  0  0  0  0
  -25.1890  -11.1870   20.1080 N   0  0  0  0  0  2  0  0  0  0  0  0
  -27.1410  -10.5790   20.6750 N   0  0  0  0  0  1  0  0  0  0  0  0
  -29.2250  -12.3870   21.9830 N   0  0  0  0  0  0  0  0  0  0  0  0
  -26.1020  -12.1620   22.7420 O   0  0  0  0  0 15  0  0  0  0  0  0
  -29.2230  -13.0330   22.7610 H   0  0  0  0  0  0  0  0  0  0  0  0
  -27.3040  -14.4530   20.9080 C   0  0  0  0  0  0  0  0  0  0  0  0
  -26.2140  -13.9530   21.4650 C   0  0  0  0  0  0  0  0  0  0  0  0
  -26.3730  -12.8770   20.4330 C   0  0  0  0  0  2  0  0  0  0  0  0
  -27.7790  -13.6090   19.8650 N   0  0  0  0  0  0  0  0  0  0  0  0
  -26.8780  -13.1170   19.3350 N   0  0  0  0  0  2  0  0  0  0  0  0
  -24.5600  -10.3790   20.8700 C   0  0  0  0  0  0  0  0  0  0  0  0
  -24.8630   -9.2530   21.7820 C   0  0  0  0  0  3  0  0  0  0  0  0
  -24.0690   -8.1120   22.0050 C   0  0  0  0  0  3  0  0  0  0  0  0
  -22.8310   -8.0010   21.3640 C   0  0  0  0  0  0  0  0  0  0  0  0
  -22.4230   -9.0380   20.5380 C   0  0  0  0  0  3  0  0  0  0  0  0
  -23.2290  -10.1560   20.3340 C   0  0  0  0  0  3  0  0  0  0  0  0
  -21.9890   -6.9250   21.4450 O   0  0  0  0  0  0  0  0  0  0  0  0
  -21.8520   -6.2070   22.5970 C   0  0  0  0  0  0  0  0  0  0  0  0
  -21.3890   -6.7940   23.7960 C   0  0  0  0  0  3  0  0  0  0  0  0
  -21.1770   -5.9860   24.9310 C   0  0  0  0  0  3  0  0  0  0  0  0
  -21.4180   -4.6020   24.8640 C   0  0  0  0  0  0  0  0  0  0  0  0
  -21.8820   -4.0200   23.6720 C   0  0  0  0  0  3  0  0  0  0  0  0
  -22.0950   -4.8220   22.5390 C   0  0  0  0  0  0  0  0  0  0  0  0
  -22.5170   -4.2600   21.3800 F   0  0  0  0  0  0  0  0  0  0  0  0
  -21.2030   -3.8240   25.9500 F   0  0  0  0  0  0  0  0  0  0  0  0
  -24.9100  -14.3290   22.5170 C   0  0  0  0  0  0  0  0  0  0  0  0
  -24.1330  -13.4600   23.2470 N   0  0  0  0  0  0  0  0  0  0  0  0
  -24.1780  -15.2870   22.3560 O   0  0  0  0  0  0  0  0  0  0  0  0
  -24.4640  -12.5040   23.3410 H   0  0  0  0  0  0  0  0  0  0  0  0
  -23.3010  -13.7730   23.7270 H   0  0  0  0  0  0  0  0  0  0  0  0
  -27.8580  -15.6170   21.1670 N   0  0  0  0  0  0  0  0  0  0  0  0
  -27.7790  -16.0150   22.0990 H   0  0  0  0  0  0  0  0  0  0  0  0
  -28.7600  -15.8270   20.7530 H   0  0  0  0  0  0  0  0  0  0  0  0
  1  2  1  0
  2  4  1  0
  3  1  1  0
  6  5  2  0
  8 10  1  0
  9 20  2  0
 10 15  1  0
 11 19  1  0
 11 21  1  0
 12 18  1  0
 12 14  1  0
 13 19  1  0
 14 13  1  0
 15 14  2  0
 16 17  1  0
 16 10  2  0
 17 12  2  0
 18 11  1  0
 19  9  1  0
 21 23  2  0
 22 21  1  0
 24 22  1  0
 25 34  2  0
 25 30  1  0
 26 22  1  0
 26 30  1  0
 27 26  1  0
 28 29  1  0
 28 27  1  0
 29 25  1  0
 30 31  2  0
 31 32  1  0
 33 32  2  0
 34 33  1  0
 35  9  1  0
 35 40  1  0
 35 36  1  0
 36 39  1  1
 36 37  1  0
 38 36  1  0
 40 43  1  0
 41 40  1  0
 41 45  1  0
 42 41  2  0
 45 44  1  0
 45 47  1  0
 47 48  1  0
 47 46  1  0
 49 50  1  0
 51 63  1  0
 52 57  1  0
 53 54  1  0
 53 52  1  0
 55 54  1  0
 55 56  1  0
 55 69  1  0
 56 57  1  0
 57 51  1  0
 58 51  2  0
 61 71  1  0
 61 59  1  0
 62 60  1  0
 63 60  1  0
 63 65  1  0
 66 91  1  0
 66 67  2  0
 67 86  1  0
 68 67  1  0
 69 66  1  0
 70 69  1  0
 70 68  1  0
 71 72  1  0
 72 73  2  0
 74 77  1  0
 74 73  1  0
 75 74  2  0
 76 75  1  0
 76 71  2  0
 77 78  1  0
 78 79  1  0
 79 80  2  0
 81 80  1  0
 81 85  1  0
 82 81  2  0
 83 78  2  0
 83 82  1  0
 84 83  1  0
 86 87  1  0
 87 89  1  0
 87 90  1  0
 88 86  2  0
 91 92  1  0
 93 91  1  0
M  ISO  4   7 101   8 101  51 100  63 100
M  END
>  <TORSDO>  (17) 
F 19

>  <SCORE>  (17) 
-0.605

>  <name>  (17) 
16

>  <ligand_id>  (17) 
16

>  <original_smiles>  (17) 
[H]c1c([H])c([H])c2c(c1[H])C([H])([H])C([H])([H])C([H])([H])C2([H])N([H])C(=O)C1([H])N(C(=O)C([H])(N([H])C(=O)C([H])(N([H])C([H])([H])[H])C([H])([H])[H])C(C([H])([H])[H])(C([H])([H])[H])C([H])([H])[H])C([H])([H])c2c([H])c(OC([H])([H])C(=O)C(=O)N([H])C([H])(c3nnc(N([H])C(=O)N4C([H])([H])C([H])([H])C([H])([H])C([H])(n5nc(-c6c([H])c([H])c(Oc7c([H])c([H])c(F)c([H])c7F)c([H])c6[H])c(C(=O)N([H])[H])c5N([H])[H])C4([H])[H])o3)C([H])([H])[H])c([H])c([H])c2C1([H])[H]

>  <smiles>  (17) 
[H]c1c([H])c([H])c2c(c1[H])C([H])([H])C([H])([H])C([H])([H])C2([H])N([H])C(=O)C1([H])N(C(=O)C([H])(N([H])C(=O)C([H])(N([H])C([H])([H])[H])C([H])([H])[H])C(C([H])([H])[H])(C([H])([H])[H])C([H])([H])[H])C([H])([H])c2c([H])c(OC([H])([H])C(=O)C(=O)N([H])C([H])(c3nnc(N([H])C(=O)N4C([H])([H])C([H])([H])C([H])([H])C([H])(n5nc(-c6c([H])c([H])c(Oc7c([H])c([H])c(F)c([H])c7F)c([H])c6[H])c(C(=O)N([H])[H])c5N([H])[H])C4([H])[H])o3)C([H])([H])[H])c([H])c([H])c2C1([H])[H]

$$$$
17:0:0
     RDKit          3D

 93101  0  0  1  0  0  0  0  0999 V2000
  -29.4270  -21.1400   20.6570 N   0  0  0  0  0  0  0  0  0  0  0  0
  -29.3790  -21.1570   21.6700 H   0  0  0  0  0  0  0  0  0  0  0  0
  -29.7210  -18.5790   20.7820 C   0  0  0  0  0  3  0  0  0  0  0  0
  -30.2560  -18.5110   18.0580 C   0  0  0  0  0  3  0  0  0  0  0  0
  -30.0250  -17.2860   20.1770 C   0  0  0  0  0  0  0  0  0  0  0  0
  -29.6900  -19.8430   20.0510 C   0  0  0  0  0  0  0  0  0  0  0  0
  -30.2650  -17.3050   18.7820 C   0  0  0  0  0  0  0  0  0  0  0  0
  -29.9900  -19.7500   18.6680 C   0  0  0  0  0  0  0  0  0  0  0  0
  -30.4600  -16.1530   18.0950 F   0  0  0  0  0  0  0  0  0  0  0  0
  -30.0550  -20.8580   17.8910 F   0  0  0  0  0  0  0  0  0  0  0  0
  -30.7470  -14.8360   20.6250 C   0  0  0  0  0  0  0  0  0  0  0  0
  -30.6070  -12.5370   19.6780 C   0  0  0  0  0  2  0  0  0  0  0  0
  -29.7420  -12.5990   18.3990 C   0  0  0  0  0  2  0  0  0  0  0  0
  -28.2520  -12.4290   18.7440 C   0  0  0  0  0  2  0  0  0  0  0  0
  -27.8060  -13.3190   19.9350 C   0  0  0  0  0  3  0  0  0  0  0  0
  -28.8040  -13.2590   21.1120 C   0  0  0  0  0  2  0  0  0  0  0  0
  -30.1330  -13.6030   20.5910 N   0  0  0  0  0  0  0  0  0  0  0  0
  -31.9380  -14.9380   20.3190 O   0  0  0  0  0  0  0  0  0  0  0  0
  -29.9830  -15.9680   20.8670 N   0  0  0  0  0  0  0  0  0  0  0  0
  -29.1390  -15.7930   21.3870 H   0  0  0  0  0  0  0  0  0  0  0  0
  -25.3700  -13.8770   20.5120 C   0  0  0  0  0  0  0  0  0  0  0  0
  -24.3000  -13.0920   20.8470 C   0  0  0  0  0  0  0  0  0  0  0  0
  -24.7890  -11.7500   20.8820 C   0  0  0  0  0  0  0  0  0  0  0  0
  -26.4420  -13.0140   20.3580 N   0  0  0  0  0  0  0  0  0  0  0  0
  -26.0950  -11.7320   20.6430 N   0  0  0  0  0  0  0  0  0  0  0  0
  -24.0790  -10.4790   21.0710 C   0  0  0  0  0  0  0  0  0  0  0  0
  -24.4750   -9.5480   22.0570 C   0  0  0  0  0  3  0  0  0  0  0  0
  -23.7610   -8.3430   22.2320 C   0  0  0  0  0  3  0  0  0  0  0  0
  -22.6360   -8.0600   21.4200 C   0  0  0  0  0  0  0  0  0  0  0  0
  -22.2600   -8.9790   20.4250 C   0  0  0  0  0  3  0  0  0  0  0  0
  -22.9740  -10.1750   20.2490 C   0  0  0  0  0  3  0  0  0  0  0  0
  -21.8980   -6.9030   21.5020 O   0  0  0  0  0  0  0  0  0  0  0  0
  -21.7930   -6.1970   22.6740 C   0  0  0  0  0  0  0  0  0  0  0  0
  -21.2670   -6.7780   23.8480 C   0  0  0  0  0  3  0  0  0  0  0  0
  -21.1100   -5.9970   25.0100 C   0  0  0  0  0  3  0  0  0  0  0  0
  -21.4710   -4.6350   24.9980 C   0  0  0  0  0  0  0  0  0  0  0  0
  -21.9890   -4.0550   23.8280 C   0  0  0  0  0  3  0  0  0  0  0  0
  -22.1470   -4.8330   22.6680 C   0  0  0  0  0  0  0  0  0  0  0  0
  -22.6270   -4.2640   21.5370 F   0  0  0  0  0  0  0  0  0  0  0  0
  -21.3140   -3.8820   26.1120 F   0  0  0  0  0  0  0  0  0  0  0  0
  -22.8820  -13.5490   21.0280 C   0  0  0  0  0  0  0  0  0  0  0  0
  -22.1200  -12.8630   21.8730 N   0  0  0  0  0  0  0  0  0  0  0  0
  -22.4550  -14.5500   20.4580 O   0  0  0  0  0  0  0  0  0  0  0  0
  -22.4790  -12.0550   22.3610 H   0  0  0  0  0  0  0  0  0  0  0  0
  -21.1670  -13.1510   22.0360 H   0  0  0  0  0  0  0  0  0  0  0  0
  -25.5180  -15.2450   20.3010 N   0  0  0  0  0  0  0  0  0  0  0  0
  -24.7320  -15.8850   20.3440 H   0  0  0  0  0  0  0  0  0  0  0  0
  -26.3730  -15.6850   19.9900 H   0  0  0  0  0  0  0  0  0  0  0  0
  -28.7030  -22.3140   20.0020 C   0  0  0  0  0  2  0  0  0  0  0  0
  -29.0020  -23.8350   20.4150 C   0  0  0  0  0  0  0  0  0  0  0  0
  -29.9750  -24.1010   21.1270 O   0  0  0  0  0  0  0  0  0  0  0  0
  -28.0260  -24.9900   19.8990 C   0  0  0  0  0  2  0  0  0  0  0  0
  -28.3050  -26.4370   20.2060 O   0  0  0  0  0  0  0  0  0  0  0  0
  -24.6010  -31.9110   23.2310 C   0  0  0  0  0  0  0  0  0  0  0  0
  -27.2100  -27.3350   20.1460 C   0  0  0  0  0  0  0  0  0  0  0  0
  -23.3970  -30.5110   21.5960 C   0  0  0  0  0  3  0  0  0  0  0  0
  -24.8460  -28.9730   20.1540 C   0  0  0  0  0  0  0  0  0  0  0  0
  -25.9380  -30.8280   21.4050 C   0  0  0  0  0  2  0  0  0  0  0  0
  -26.0200  -29.4500   20.7520 C   0  0  0  0  0  0  0  0  0  0  0  0
  -27.2040  -28.6420   20.7420 C   0  0  0  0  0  3  0  0  0  0  0  0
  -26.0100  -26.9360   19.5070 C   0  0  0  0  0  3  0  0  0  0  0  0
  -24.8470  -27.7240   19.5220 C   0  0  0  0  0  3  0  0  0  0  0  0
  -23.6080  -29.8450   20.2130 C   0  0  0  0  0  2  0  0  0  0  0  0
  -24.6650  -31.1020   22.1340 N   0  0  0  0  0  0  0  0  0  0  0  0
  -23.5190  -32.1830   23.7710 O   0  0  0  0  0  0  0  0  0  0  0  0
  -22.7430  -29.4880   22.5580 C   0  0  0  0  0  0  0  0  0  0  0  0
  -21.4180  -29.3010   22.4360 N   0  0  0  0  0  0  0  0  0  0  0  0
  -23.4280  -28.8660   23.3750 O   0  0  0  0  0  0  0  0  0  0  0  0
  -20.9220  -29.8550   21.7520 H   0  0  0  0  0  0  0  0  0  0  0  0
  -18.0520  -28.0750   22.9530 C   0  0  0  0  0  0  0  0  0  0  0  0
  -20.6100  -28.3570   23.2110 C   0  0  0  0  0  3  0  0  0  0  0  0
  -20.7190  -26.9250   22.6370 C   0  0  0  0  0  2  0  0  0  0  0  0
  -19.6160  -26.5920   21.6280 C   0  0  0  0  0  2  0  0  0  0  0  0
  -18.2370  -26.7260   22.2770 C   0  0  0  0  0  2  0  0  0  0  0  0
  -19.1650  -28.8460   23.3770 C   0  0  0  0  0  0  0  0  0  0  0  0
  -18.9390  -30.1070   23.9720 C   0  0  0  0  0  3  0  0  0  0  0  0
  -17.6300  -30.5960   24.1450 C   0  0  0  0  0  3  0  0  0  0  0  0
  -16.5310  -29.8220   23.7350 C   0  0  0  0  0  3  0  0  0  0  0  0
  -16.7430  -28.5630   23.1440 C   0  0  0  0  0  3  0  0  0  0  0  0
  -25.8820  -32.5520   23.8470 C   0  0  0  0  0  3  0  0  0  0  0  0
  -26.4050  -31.7880   25.1250 C   0  0  1  0  0  0  0  0  0  0  0  0
  -25.3150  -31.5520   26.1990 C   0  0  0  0  0  1  0  0  0  0  0  0
  -26.9900  -30.4090   24.7410 C   0  0  0  0  0  1  0  0  0  0  0  0
  -27.5560  -32.5880   25.7800 C   0  0  0  0  0  1  0  0  0  0  0  0
  -25.5670  -33.9500   24.1760 N   0  0  0  0  0  0  0  0  0  0  0  0
  -25.9050  -35.0050   23.4220 C   0  0  0  0  0  0  0  0  0  0  0  0
  -26.5860  -34.9030   22.3980 O   0  0  0  0  0  0  0  0  0  0  0  0
  -24.9640  -34.1030   24.9710 H   0  0  0  0  0  0  0  0  0  0  0  0
  -24.1970  -36.8120   23.0330 C   0  0  0  0  0  1  0  0  0  0  0  0
  -25.4130  -36.3940   23.8760 C   0  0  0  0  0  3  0  0  0  0  0  0
  -27.5260  -37.2630   24.7760 C   0  0  0  0  0  1  0  0  0  0  0  0
  -26.4540  -37.4410   23.8010 N   0  0  0  0  0  0  0  0  0  0  0  0
  -26.0480  -38.3630   23.9400 H   0  0  0  0  0  0  0  0  0  0  0  0
  1  2  1  0
  4  8  2  0
  4  7  1  0
  5  3  1  0
  5 19  1  0
  6  1  1  0
  6  3  2  0
  7  5  2  0
  8  6  1  0
  9  7  1  0
 10  8  1  0
 11 19  1  0
 12 17  1  0
 13 14  1  0
 13 12  1  0
 15 14  1  0
 15 24  1  0
 15 16  1  0
 17 11  1  0
 17 16  1  0
 18 11  2  0
 19 20  1  0
 21 22  2  0
 22 23  1  0
 22 41  1  0
 23 26  1  0
 24 21  1  0
 24 25  1  0
 25 23  2  0
 26 27  1  0
 27 28  2  0
 29 32  1  0
 29 28  1  0
 30 29  2  0
 31 30  1  0
 31 26  2  0
 32 33  1  0
 33 34  1  0
 34 35  2  0
 36 35  1  0
 36 40  1  0
 37 36  2  0
 38 33  2  0
 38 37  1  0
 39 38  1  0
 41 42  1  0
 42 45  1  0
 42 44  1  0
 43 41  2  0
 46 47  1  0
 46 21  1  0
 48 46  1  0
 49 50  1  0
 49  1  1  0
 50 51  2  0
 52 53  1  0
 52 50  1  0
 54 65  2  0
 55 53  1  0
 55 60  1  0
 56 64  1  0
 56 66  1  0
 57 63  1  0
 57 59  1  0
 58 64  1  0
 59 58  1  0
 60 59  2  0
 61 62  1  0
 61 55  2  0
 62 57  2  0
 63 56  1  0
 64 54  1  0
 66 68  2  0
 67 66  1  0
 69 67  1  0
 70 79  2  0
 70 75  1  0
 71 67  1  0
 71 75  1  0
 72 71  1  0
 73 74  1  0
 73 72  1  0
 74 70  1  0
 75 76  2  0
 76 77  1  0
 78 77  2  0
 79 78  1  0
 80 54  1  0
 80 85  1  0
 80 81  1  0
 81 84  1  1
 81 82  1  0
 83 81  1  0
 85 88  1  0
 86 90  1  0
 86 85  1  0
 87 86  2  0
 90 89  1  0
 92 90  1  0
 92 93  1  0
 92 91  1  0
M  ISO  4  11 100  19 100  52 101  53 101
M  END
>  <TORSDO>  (18) 
F 20

>  <SCORE>  (18) 
-13.604

>  <name>  (18) 
17

>  <ligand_id>  (18) 
17

>  <original_smiles>  (18) 
[H]c1c([H])c([H])c2c(c1[H])C([H])([H])C([H])([H])C([H])([H])C2([H])N([H])C(=O)C1([H])N(C(=O)C([H])(N([H])C(=O)C([H])(N([H])C([H])([H])[H])C([H])([H])[H])C(C([H])([H])[H])(C([H])([H])[H])C([H])([H])[H])C([H])([H])c2c([H])c(OC([H])([H])C(=O)C([H])([H])N([H])c3c([H])c(N([H])C(=O)N4C([H])([H])C([H])([H])C([H])([H])C([H])(n5nc(-c6c([H])c([H])c(Oc7c([H])c([H])c(F)c([H])c7F)c([H])c6[H])c(C(=O)N([H])[H])c5N([H])[H])C4([H])[H])c(F)c([H])c3F)c([H])c([H])c2C1([H])[H]

>  <smiles>  (18) 
[H]c1c([H])c([H])c2c(c1[H])C([H])([H])C([H])([H])C([H])([H])C2([H])N([H])C(=O)C1([H])N(C(=O)C([H])(N([H])C(=O)C([H])(N([H])C([H])([H])[H])C([H])([H])[H])C(C([H])([H])[H])(C([H])([H])[H])C([H])([H])[H])C([H])([H])c2c([H])c(OC([H])([H])C(=O)C([H])([H])N([H])c3c([H])c(N([H])C(=O)N4C([H])([H])C([H])([H])C([H])([H])C([H])(n5nc(-c6c([H])c([H])c(Oc7c([H])c([H])c(F)c([H])c7F)c([H])c6[H])c(C(=O)N([H])[H])c5N([H])[H])C4([H])[H])c(F)c([H])c3F)c([H])c([H])c2C1([H])[H]

$$$$
18:0:0
     RDKit          3D

 97106  0  0  1  0  0  0  0  0999 V2000
  -28.8050  -22.4220   19.7030 C   0  0  0  0  0  0  0  0  0  0  0  0
  -28.7620  -21.2220   20.4310 N   0  0  0  0  0  0  0  0  0  0  0  0
  -29.1660  -22.3790   18.5280 O   0  0  0  0  0  0  0  0  0  0  0  0
  -28.0100  -21.1870   21.1030 H   0  0  0  0  0  0  0  0  0  0  0  0
  -31.4560  -17.7690   20.8770 C   0  0  0  0  0  3  0  0  0  0  0  0
  -29.2430  -18.5990   20.3710 C   0  0  0  0  0  3  0  0  0  0  0  0
  -31.9130  -19.0920   20.9960 C   0  0  0  0  0  0  0  0  0  0  0  0
  -31.0520  -20.2100   20.7800 C   0  0  0  0  0  0  0  0  0  0  0  0
  -30.1250  -17.4360   20.5600 C   0  0  0  0  0  0  0  0  0  0  0  0
  -29.6720  -20.0120   20.4500 C   0  0  0  0  0  0  0  0  0  0  0  0
  -33.3760  -19.2570   21.4040 C   0  0  0  0  0  2  0  0  0  0  0  0
  -31.6090  -21.6180   21.0410 C   0  0  0  0  0  2  0  0  0  0  0  0
  -33.6850  -20.6130   22.0390 C   0  0  0  0  0  2  0  0  0  0  0  0
  -33.1390  -21.7100   21.1380 C   0  0  0  0  0  2  0  0  0  0  0  0
  -30.5350  -14.8130   20.3410 C   0  0  0  0  0  0  0  0  0  0  0  0
  -30.3630  -12.5160   19.3540 C   0  0  0  0  0  2  0  0  0  0  0  0
  -29.4100  -12.5540   18.1390 C   0  0  0  0  0  2  0  0  0  0  0  0
  -27.9490  -12.3600   18.5880 C   0  0  0  0  0  2  0  0  0  0  0  0
  -27.5780  -13.2510   19.8040 C   0  0  0  0  0  3  0  0  0  0  0  0
  -28.6490  -13.1910   20.9140 C   0  0  0  0  0  2  0  0  0  0  0  0
  -29.9210  -13.5770   20.2950 N   0  0  0  0  0  0  0  0  0  0  0  0
  -31.7190  -14.8860   19.9910 O   0  0  0  0  0  0  0  0  0  0  0  0
  -29.7580  -15.9710   20.5420 N   0  0  0  0  0  0  0  0  0  0  0  0
  -28.7850  -15.7730   20.7180 H   0  0  0  0  0  0  0  0  0  0  0  0
  -25.2030  -13.8360   20.5720 C   0  0  0  0  0  0  0  0  0  0  0  0
  -24.1420  -13.0600   20.9530 C   0  0  0  0  0  0  0  0  0  0  0  0
  -24.6030  -11.7090   20.9000 C   0  0  0  0  0  0  0  0  0  0  0  0
  -26.2420  -12.9570   20.3120 N   0  0  0  0  0  0  0  0  0  0  0  0
  -25.8880  -11.6700   20.5700 N   0  0  0  0  0  0  0  0  0  0  0  0
  -23.8750  -10.4460   21.0880 C   0  0  0  0  0  0  0  0  0  0  0  0
  -24.3250   -9.4640   21.9970 C   0  0  0  0  0  3  0  0  0  0  0  0
  -23.6010   -8.2660   22.1740 C   0  0  0  0  0  3  0  0  0  0  0  0
  -22.4110   -8.0410   21.4420 C   0  0  0  0  0  0  0  0  0  0  0  0
  -21.9800   -9.0110   20.5210 C   0  0  0  0  0  3  0  0  0  0  0  0
  -22.7050  -10.2010   20.3420 C   0  0  0  0  0  3  0  0  0  0  0  0
  -21.6540   -6.8980   21.5300 O   0  0  0  0  0  0  0  0  0  0  0  0
  -21.6350   -6.1370   22.6710 C   0  0  0  0  0  0  0  0  0  0  0  0
  -21.2340   -6.6690   23.9160 C   0  0  0  0  0  3  0  0  0  0  0  0
  -21.1600   -5.8350   25.0490 C   0  0  0  0  0  3  0  0  0  0  0  0
  -21.4750   -4.4660   24.9380 C   0  0  0  0  0  0  0  0  0  0  0  0
  -21.8660   -3.9330   23.6960 C   0  0  0  0  0  3  0  0  0  0  0  0
  -21.9430   -4.7660   22.5680 C   0  0  0  0  0  0  0  0  0  0  0  0
  -22.3010   -4.2410   21.3710 F   0  0  0  0  0  0  0  0  0  0  0  0
  -21.3960   -3.6620   26.0220 F   0  0  0  0  0  0  0  0  0  0  0  0
  -22.7510  -13.5350   21.2530 C   0  0  0  0  0  0  0  0  0  0  0  0
  -22.0420  -12.8350   22.1280 N   0  0  0  0  0  0  0  0  0  0  0  0
  -22.3060  -14.5660   20.7480 O   0  0  0  0  0  0  0  0  0  0  0  0
  -22.4220  -12.0040   22.5580 H   0  0  0  0  0  0  0  0  0  0  0  0
  -21.1090  -13.1300   22.3760 H   0  0  0  0  0  0  0  0  0  0  0  0
  -25.3680  -15.2080   20.4000 N   0  0  0  0  0  0  0  0  0  0  0  0
  -24.5900  -15.8550   20.4740 H   0  0  0  0  0  0  0  0  0  0  0  0
  -26.1970  -15.6320   20.0040 H   0  0  0  0  0  0  0  0  0  0  0  0
  -28.2850  -24.9730   19.7060 C   0  0  0  0  0  3  0  0  0  0  0  0
  -28.4420  -23.7520   20.3780 C   0  0  0  0  0  0  0  0  0  0  0  0
  -28.3640  -23.7680   21.7190 O   0  0  0  0  0  0  0  0  0  0  0  0
  -28.8130  -23.0010   22.0360 H   0  0  0  0  0  0  0  0  0  0  0  0
  -28.2300  -26.3030   20.2530 O   0  0  0  0  0  0  0  0  0  0  0  0
  -24.6490  -31.8810   23.2450 C   0  0  0  0  0  0  0  0  0  0  0  0
  -27.1490  -27.2170   20.1530 C   0  0  0  0  0  0  0  0  0  0  0  0
  -23.4140  -30.4990   21.6160 C   0  0  0  0  0  3  0  0  0  0  0  0
  -24.8260  -28.9220   20.1630 C   0  0  0  0  0  0  0  0  0  0  0  0
  -25.9580  -30.7600   21.4090 C   0  0  0  0  0  2  0  0  0  0  0  0
  -26.0110  -29.3750   20.7570 C   0  0  0  0  0  0  0  0  0  0  0  0
  -27.1690  -28.5310   20.7460 C   0  0  0  0  0  3  0  0  0  0  0  0
  -25.9390  -26.8290   19.5400 C   0  0  0  0  0  3  0  0  0  0  0  0
  -24.7980  -27.6610   19.5430 C   0  0  0  0  0  3  0  0  0  0  0  0
  -23.6070  -29.8250   20.2310 C   0  0  0  0  0  2  0  0  0  0  0  0
  -24.6950  -31.0650   22.1480 N   0  0  0  0  0  0  0  0  0  0  0  0
  -23.5720  -32.1730   23.7850 O   0  0  0  0  0  0  0  0  0  0  0  0
  -22.7460  -29.4920   22.5830 C   0  0  0  0  0  0  0  0  0  0  0  0
  -21.4190  -29.3170   22.4560 N   0  0  0  0  0  0  0  0  0  0  0  0
  -23.4220  -28.8700   23.4080 O   0  0  0  0  0  0  0  0  0  0  0  0
  -20.9350  -29.8700   21.7640 H   0  0  0  0  0  0  0  0  0  0  0  0
  -18.0400  -28.1160   22.9490 C   0  0  0  0  0  0  0  0  0  0  0  0
  -20.5960  -28.3860   23.2310 C   0  0  0  0  0  3  0  0  0  0  0  0
  -20.7040  -26.9520   22.6670 C   0  0  0  0  0  2  0  0  0  0  0  0
  -19.6090  -26.6170   21.6490 C   0  0  0  0  0  2  0  0  0  0  0  0
  -18.2220  -26.7640   22.2800 C   0  0  0  0  0  2  0  0  0  0  0  0
  -19.1540  -28.8850   23.3790 C   0  0  0  0  0  0  0  0  0  0  0  0
  -18.9250  -30.1510   23.9620 C   0  0  0  0  0  3  0  0  0  0  0  0
  -17.6180  -30.6460   24.1210 C   0  0  0  0  0  3  0  0  0  0  0  0
  -16.5200  -29.8740   23.7080 C   0  0  0  0  0  3  0  0  0  0  0  0
  -16.7300  -28.6100   23.1280 C   0  0  0  0  0  3  0  0  0  0  0  0
  -25.9410  -32.5030   23.8600 C   0  0  0  0  0  3  0  0  0  0  0  0
  -26.4620  -31.7230   25.1270 C   0  0  1  0  0  0  0  0  0  0  0  0
  -25.3800  -31.4980   26.2100 C   0  0  0  0  0  1  0  0  0  0  0  0
  -27.0240  -30.3410   24.7220 C   0  0  0  0  0  1  0  0  0  0  0  0
  -27.6300  -32.5020   25.7760 C   0  0  0  0  0  1  0  0  0  0  0  0
  -25.6430  -33.9010   24.2110 N   0  0  0  0  0  0  0  0  0  0  0  0
  -25.9400  -34.9610   23.4440 C   0  0  0  0  0  0  0  0  0  0  0  0
  -26.5700  -34.8650   22.3880 O   0  0  0  0  0  0  0  0  0  0  0  0
  -25.0920  -34.0520   25.0440 H   0  0  0  0  0  0  0  0  0  0  0  0
  -24.1850  -36.7420   23.1890 C   0  0  0  0  0  1  0  0  0  0  0  0
  -25.4680  -36.3460   23.9350 C   0  0  0  0  0  3  0  0  0  0  0  0
  -27.6420  -37.2340   24.6520 C   0  0  0  0  0  1  0  0  0  0  0  0
  -26.4890  -37.4060   23.7730 N   0  0  0  0  0  0  0  0  0  0  0  0
  -26.0840  -38.3230   23.9540 H   0  0  0  0  0  0  0  0  0  0  0  0
  1 54  1  0
  1  2  1  0
  2 10  1  0
  2  4  1  0
  3  1  2  0
  5  7  1  0
  6 10  2  0
  6  9  1  0
  7 11  1  0
  8  7  2  0
  8 12  1  0
  9  5  2  0
 10  8  1  0
 11 13  1  0
 12 14  1  0
 14 13  1  0
 15 23  1  0
 16 21  1  0
 17 18  1  0
 17 16  1  0
 19 18  1  0
 19 28  1  0
 19 20  1  0
 21 15  1  0
 21 20  1  0
 22 15  2  0
 23  9  1  0
 23 24  1  0
 25 26  2  0
 26 45  1  0
 27 26  1  0
 27 30  1  0
 28 29  1  0
 28 25  1  0
 29 27  2  0
 30 31  1  0
 31 32  2  0
 33 36  1  0
 33 32  1  0
 34 33  2  0
 35 34  1  0
 35 30  2  0
 36 37  1  0
 37 38  1  0
 38 39  2  0
 40 39  1  0
 40 44  1  0
 41 40  2  0
 42 37  2  0
 42 41  1  0
 43 42  1  0
 45 46  1  0
 46 49  1  0
 46 48  1  0
 47 45  2  0
 50 51  1  0
 50 25  1  0
 52 50  1  0
 53 57  1  0
 53 54  2  0
 54 55  1  0
 55 56  1  0
 58 69  2  0
 59 57  1  0
 59 64  1  0
 60 68  1  0
 60 70  1  0
 61 67  1  0
 61 63  1  0
 62 68  1  0
 63 62  1  0
 64 63  2  0
 65 66  1  0
 65 59  2  0
 66 61  2  0
 67 60  1  0
 68 58  1  0
 70 72  2  0
 71 70  1  0
 73 71  1  0
 74 83  2  0
 74 79  1  0
 75 71  1  0
 75 79  1  0
 76 75  1  0
 77 78  1  0
 77 76  1  0
 78 74  1  0
 79 80  2  0
 80 81  1  0
 82 81  2  0
 83 82  1  0
 84 58  1  0
 84 89  1  0
 84 85  1  0
 85 88  1  1
 85 86  1  0
 87 85  1  0
 89 92  1  0
 90 94  1  0
 90 89  1  0
 91 90  2  0
 94 93  1  0
 96 94  1  0
 96 97  1  0
 96 95  1  0
M  ISO  4  15 100  23 100  53 101  57 101
M  END
>  <TORSDO>  (19) 
F 19

>  <SCORE>  (19) 
-14.783

>  <name>  (19) 
18

>  <ligand_id>  (19) 
18

>  <original_smiles>  (19) 
[H]OC(C(=O)N([H])c1c([H])c(N([H])C(=O)N2C([H])([H])C([H])([H])C([H])([H])C([H])(n3nc(-c4c([H])c([H])c(Oc5c([H])c([H])c(F)c([H])c5F)c([H])c4[H])c(C(=O)N([H])[H])c3N([H])[H])C2([H])[H])c([H])c2c1C([H])([H])C([H])([H])C([H])([H])C2([H])[H])=C([H])Oc1c([H])c([H])c2c(c1[H])C([H])([H])N(C(=O)C([H])(N([H])C(=O)C([H])(N([H])C([H])([H])[H])C([H])([H])[H])C(C([H])([H])[H])(C([H])([H])[H])C([H])([H])[H])C([H])(C(=O)N([H])C1([H])c3c([H])c([H])c([H])c([H])c3C([H])([H])C([H])([H])C1([H])[H])C2([H])[H]

>  <smiles>  (19) 
[H]OC(C(=O)N([H])c1c([H])c(N([H])C(=O)N2C([H])([H])C([H])([H])C([H])([H])C([H])(n3nc(-c4c([H])c([H])c(Oc5c([H])c([H])c(F)c([H])c5F)c([H])c4[H])c(C(=O)N([H])[H])c3N([H])[H])C2([H])[H])c([H])c2c1C([H])([H])C([H])([H])C([H])([H])C2([H])[H])=C([H])Oc1c([H])c([H])c2c(c1[H])C([H])([H])N(C(=O)C([H])(N([H])C(=O)C([H])(N([H])C([H])([H])[H])C([H])([H])[H])C(C([H])([H])[H])(C([H])([H])[H])C([H])([H])[H])C([H])(C(=O)N([H])C1([H])c3c([H])c([H])c([H])c([H])c3C([H])([H])C([H])([H])C1([H])[H])C2([H])[H]

$$$$
19:0:0
     RDKit          3D

 94102  0  0  1  0  0  0  0  0999 V2000
  -29.6200  -21.8120   20.4770 C   0  0  0  0  0  2  0  0  0  0  0  0
  -29.1230  -23.0370   21.2670 C   0  0  0  0  0  0  0  0  0  0  0  0
  -28.5880  -22.9090   22.3770 O   0  0  0  0  0  0  0  0  0  0  0  0
  -29.3400  -24.4380   20.6240 C   0  0  0  0  0  0  0  0  0  0  0  0
  -30.4770  -24.8650   20.3820 O   0  0  0  0  0  0  0  0  0  0  0  0
  -28.0820  -25.2500   20.2940 C   0  0  0  0  0  2  0  0  0  0  0  0
  -28.3410  -26.6580   20.1110 O   0  0  0  0  0  0  0  0  0  0  0  0
  -24.6220  -31.8710   23.2120 C   0  0  0  0  0  0  0  0  0  0  0  0
  -27.1940  -27.4280   20.0800 C   0  0  0  0  0  0  0  0  0  0  0  0
  -23.3870  -30.4840   21.5830 C   0  0  0  0  0  3  0  0  0  0  0  0
  -24.8110  -28.9560   20.1240 C   0  0  0  0  0  0  0  0  0  0  0  0
  -25.9110  -30.8370   21.3440 C   0  0  0  0  0  2  0  0  0  0  0  0
  -25.9820  -29.4690   20.6970 C   0  0  0  0  0  0  0  0  0  0  0  0
  -27.1800  -28.7130   20.6690 C   0  0  0  0  0  3  0  0  0  0  0  0
  -26.0060  -26.9420   19.4860 C   0  0  0  0  0  3  0  0  0  0  0  0
  -24.8190  -27.6930   19.5140 C   0  0  0  0  0  3  0  0  0  0  0  0
  -23.5730  -29.8200   20.1940 C   0  0  0  0  0  2  0  0  0  0  0  0
  -24.6600  -31.0770   22.1050 N   0  0  0  0  0  0  0  0  0  0  0  0
  -23.5500  -32.1410   23.7710 O   0  0  0  0  0  0  0  0  0  0  0  0
  -22.7480  -29.4550   22.5440 C   0  0  0  0  0  0  0  0  0  0  0  0
  -21.4210  -29.2750   22.4360 N   0  0  0  0  0  0  0  0  0  0  0  0
  -23.4440  -28.8210   23.3430 O   0  0  0  0  0  0  0  0  0  0  0  0
  -20.9170  -29.8440   21.7680 H   0  0  0  0  0  0  0  0  0  0  0  0
  -18.0550  -28.0730   22.9630 C   0  0  0  0  0  0  0  0  0  0  0  0
  -20.6140  -28.3340   23.2130 C   0  0  0  0  0  3  0  0  0  0  0  0
  -20.7130  -26.9020   22.6360 C   0  0  0  0  0  2  0  0  0  0  0  0
  -19.6030  -26.5780   21.6310 C   0  0  0  0  0  2  0  0  0  0  0  0
  -18.2270  -26.7220   22.2870 C   0  0  0  0  0  2  0  0  0  0  0  0
  -19.1760  -28.8350   23.3850 C   0  0  0  0  0  0  0  0  0  0  0  0
  -18.9610  -30.1000   23.9750 C   0  0  0  0  0  3  0  0  0  0  0  0
  -17.6590  -30.6010   24.1480 C   0  0  0  0  0  3  0  0  0  0  0  0
  -16.5520  -29.8350   23.7430 C   0  0  0  0  0  3  0  0  0  0  0  0
  -16.7500  -28.5730   23.1560 C   0  0  0  0  0  3  0  0  0  0  0  0
  -25.9190  -32.4950   23.8150 C   0  0  0  0  0  3  0  0  0  0  0  0
  -25.6150  -33.8890   24.1650 N   0  0  0  0  0  0  0  0  0  0  0  0
  -25.9360  -34.9480   23.4110 C   0  0  0  0  0  0  0  0  0  0  0  0
  -26.5900  -34.8540   22.3690 O   0  0  0  0  0  0  0  0  0  0  0  0
  -25.0340  -34.0350   24.9780 H   0  0  0  0  0  0  0  0  0  0  0  0
  -24.2060  -36.7450   23.0940 C   0  0  0  0  0  1  0  0  0  0  0  0
  -25.4550  -36.3320   23.8880 C   0  0  0  0  0  3  0  0  0  0  0  0
  -27.6040  -37.2040   24.6980 C   0  0  0  0  0  1  0  0  0  0  0  0
  -26.4880  -37.3860   23.7720 N   0  0  0  0  0  0  0  0  0  0  0  0
  -26.0840  -38.3040   23.9370 H   0  0  0  0  0  0  0  0  0  0  0  0
  -26.4620  -31.7080   25.0700 C   0  0  1  0  0  0  0  0  0  0  0  0
  -25.3950  -31.4610   26.1620 C   0  0  0  0  0  1  0  0  0  0  0  0
  -27.0330  -30.3360   24.6460 C   0  0  0  0  0  1  0  0  0  0  0  0
  -27.6290  -32.4920   25.7150 C   0  0  0  0  0  1  0  0  0  0  0  0
  -29.5740  -20.5140   21.1840 N   0  0  0  0  0  0  0  0  0  0  0  0
  -29.3890  -20.5310   22.1870 H   0  0  0  0  0  0  0  0  0  0  0  0
  -30.0840  -19.3380   19.0980 C   0  0  0  0  0  3  0  0  0  0  0  0
  -30.2760  -18.1490   18.3810 C   0  0  0  0  0  3  0  0  0  0  0  0
  -29.8220  -18.0530   21.1540 C   0  0  0  0  0  3  0  0  0  0  0  0
  -29.8300  -19.3120   20.4890 C   0  0  0  0  0  0  0  0  0  0  0  0
  -30.0400  -16.8380   20.4390 C   0  0  0  0  0  0  0  0  0  0  0  0
  -30.2300  -16.9090   19.0340 C   0  0  0  0  0  0  0  0  0  0  0  0
  -30.3210  -15.7910   18.2760 F   0  0  0  0  0  0  0  0  0  0  0  0
  -30.7270  -14.4910   20.7260 C   0  0  0  0  0  0  0  0  0  0  0  0
  -30.4890  -12.2940   19.6470 C   0  0  0  0  0  2  0  0  0  0  0  0
  -29.6120  -12.4520   18.3850 C   0  0  0  0  0  2  0  0  0  0  0  0
  -28.1150  -12.3460   18.7320 C   0  0  0  0  0  2  0  0  0  0  0  0
  -27.7110  -13.2220   19.9480 C   0  0  0  0  0  3  0  0  0  0  0  0
  -28.7040  -13.0350   21.1170 C   0  0  0  0  0  2  0  0  0  0  0  0
  -30.0630  -13.3080   20.6230 N   0  0  0  0  0  0  0  0  0  0  0  0
  -31.8990  -14.6340   20.3580 O   0  0  0  0  0  0  0  0  0  0  0  0
  -29.9880  -15.5580   21.0940 N   0  0  0  0  0  0  0  0  0  0  0  0
  -29.1430  -15.3600   21.6070 H   0  0  0  0  0  0  0  0  0  0  0  0
  -25.2800  -13.8460   20.5300 C   0  0  0  0  0  0  0  0  0  0  0  0
  -24.1930  -13.0830   20.8620 C   0  0  0  0  0  0  0  0  0  0  0  0
  -24.6510  -11.7300   20.8850 C   0  0  0  0  0  0  0  0  0  0  0  0
  -26.3320  -12.9580   20.3650 N   0  0  0  0  0  0  0  0  0  0  0  0
  -25.9550  -11.6830   20.6370 N   0  0  0  0  0  0  0  0  0  0  0  0
  -23.9150  -10.4730   21.0690 C   0  0  0  0  0  0  0  0  0  0  0  0
  -24.3180   -9.5130   22.0240 C   0  0  0  0  0  3  0  0  0  0  0  0
  -23.5820   -8.3210   22.1960 C   0  0  0  0  0  3  0  0  0  0  0  0
  -22.4290   -8.0780   21.4120 C   0  0  0  0  0  0  0  0  0  0  0  0
  -22.0460   -9.0280   20.4470 C   0  0  0  0  0  3  0  0  0  0  0  0
  -22.7830  -10.2100   20.2750 C   0  0  0  0  0  3  0  0  0  0  0  0
  -21.6700   -6.9350   21.4880 O   0  0  0  0  0  0  0  0  0  0  0  0
  -21.6010   -6.1930   22.6410 C   0  0  0  0  0  0  0  0  0  0  0  0
  -21.1760   -6.7520   23.8640 C   0  0  0  0  0  3  0  0  0  0  0  0
  -21.0600   -5.9370   25.0080 C   0  0  0  0  0  3  0  0  0  0  0  0
  -21.3550   -4.5640   24.9280 C   0  0  0  0  0  0  0  0  0  0  0  0
  -21.7720   -4.0040   23.7090 C   0  0  0  0  0  3  0  0  0  0  0  0
  -21.8930   -4.8160   22.5670 C   0  0  0  0  0  0  0  0  0  0  0  0
  -22.2780   -4.2690   21.3910 F   0  0  0  0  0  0  0  0  0  0  0  0
  -21.2310   -3.7790   26.0240 F   0  0  0  0  0  0  0  0  0  0  0  0
  -22.7840  -13.5680   21.0550 C   0  0  0  0  0  0  0  0  0  0  0  0
  -22.0110  -12.8970   21.9010 N   0  0  0  0  0  0  0  0  0  0  0  0
  -22.3770  -14.5800   20.4900 O   0  0  0  0  0  0  0  0  0  0  0  0
  -22.3500  -12.0820   22.3900 H   0  0  0  0  0  0  0  0  0  0  0  0
  -21.0640  -13.2110   22.0660 H   0  0  0  0  0  0  0  0  0  0  0  0
  -25.4570  -15.2120   20.3370 N   0  0  0  0  0  0  0  0  0  0  0  0
  -24.6880  -15.8700   20.4110 H   0  0  0  0  0  0  0  0  0  0  0  0
  -26.3270  -15.6460   20.0600 H   0  0  0  0  0  0  0  0  0  0  0  0
  1 48  1  0
  1  2  1  0
  2  3  2  0
  4  2  1  0
  5  4  2  0
  6  4  1  0
  7  6  1  0
  8 19  2  0
  9  7  1  0
  9 14  1  0
 10 18  1  0
 10 20  1  0
 11 17  1  0
 11 13  1  0
 12 18  1  0
 13 12  1  0
 14 13  2  0
 15 16  1  0
 15  9  2  0
 16 11  2  0
 17 10  1  0
 18  8  1  0
 20 22  2  0
 21 20  1  0
 23 21  1  0
 24 33  2  0
 24 29  1  0
 25 21  1  0
 25 29  1  0
 26 25  1  0
 27 28  1  0
 27 26  1  0
 28 24  1  0
 29 30  2  0
 30 31  1  0
 32 31  2  0
 33 32  1  0
 34  8  1  0
 34 35  1  0
 34 44  1  0
 35 38  1  0
 36 40  1  0
 36 35  1  0
 37 36  2  0
 40 39  1  0
 42 40  1  0
 42 43  1  0
 42 41  1  0
 44 47  1  1
 44 45  1  0
 46 44  1  0
 48 49  1  0
 50 53  1  0
 51 55  1  0
 51 50  2  0
 53 52  2  0
 53 48  1  0
 54 65  1  0
 54 52  1  0
 55 54  2  0
 56 55  1  0
 57 65  1  0
 58 63  1  0
 59 60  1  0
 59 58  1  0
 61 60  1  0
 61 70  1  0
 61 62  1  0
 63 57  1  0
 63 62  1  0
 64 57  2  0
 65 66  1  0
 67 68  2  0
 68 69  1  0
 68 87  1  0
 69 72  1  0
 70 67  1  0
 70 71  1  0
 71 69  2  0
 72 73  1  0
 73 74  2  0
 75 78  1  0
 75 74  1  0
 76 75  2  0
 77 76  1  0
 77 72  2  0
 78 79  1  0
 79 80  1  0
 80 81  2  0
 82 81  1  0
 82 86  1  0
 83 82  2  0
 84 79  2  0
 84 83  1  0
 85 84  1  0
 87 88  1  0
 88 91  1  0
 88 90  1  0
 89 87  2  0
 92 93  1  0
 92 67  1  0
 94 92  1  0
M  ISO  4   6 101   7 101  57 100  65 100
M  END
>  <TORSDO>  (20) 
F 21

>  <SCORE>  (20) 
-13.360

>  <name>  (20) 
19

>  <ligand_id>  (20) 
19

>  <original_smiles>  (20) 
[H]c1c([H])c([H])c2c(c1[H])C([H])([H])C([H])([H])C([H])([H])C2([H])N([H])C(=O)C1([H])N(C(=O)C([H])(N([H])C(=O)C([H])(N([H])C([H])([H])[H])C([H])([H])[H])C(C([H])([H])[H])(C([H])([H])[H])C([H])([H])[H])C([H])([H])c2c([H])c(OC([H])([H])C(=O)C(=O)C([H])([H])N([H])c3c([H])c([H])c(F)c(N([H])C(=O)N4C([H])([H])C([H])([H])C([H])([H])C([H])(n5nc(-c6c([H])c([H])c(Oc7c([H])c([H])c(F)c([H])c7F)c([H])c6[H])c(C(=O)N([H])[H])c5N([H])[H])C4([H])[H])c3[H])c([H])c([H])c2C1([H])[H]

>  <smiles>  (20) 
[H]c1c([H])c([H])c2c(c1[H])C([H])([H])C([H])([H])C([H])([H])C2([H])N([H])C(=O)C1([H])N(C(=O)C([H])(N([H])C(=O)C([H])(N([H])C([H])([H])[H])C([H])([H])[H])C(C([H])([H])[H])(C([H])([H])[H])C([H])([H])[H])C([H])([H])c2c([H])c(OC([H])([H])C(=O)C(=O)C([H])([H])N([H])c3c([H])c([H])c(F)c(N([H])C(=O)N4C([H])([H])C([H])([H])C([H])([H])C([H])(n5nc(-c6c([H])c([H])c(Oc7c([H])c([H])c(F)c([H])c7F)c([H])c6[H])c(C(=O)N([H])[H])c5N([H])[H])C4([H])[H])c3[H])c([H])c([H])c2C1([H])[H]

$$$$
20:0:0
     RDKit          3D

 97105  0  0  1  0  0  0  0  0999 V2000
  -29.5580  -18.3170   20.1600 C   0  0  0  0  0  3  0  0  0  0  0  0
  -30.6870  -17.4630   22.1370 C   0  0  0  0  0  3  0  0  0  0  0  0
  -30.9190  -19.8350   21.5450 C   0  0  0  0  0  0  0  0  0  0  0  0
  -29.9460  -17.2080   20.9720 C   0  0  0  0  0  0  0  0  0  0  0  0
  -29.9990  -19.6490   20.4510 C   0  0  0  0  0  0  0  0  0  0  0  0
  -31.1690  -18.7480   22.4180 C   0  0  0  0  0  0  0  0  0  0  0  0
  -31.8980  -18.9150   23.5480 F   0  0  0  0  0  0  0  0  0  0  0  0
  -30.4010  -14.8280   20.3980 C   0  0  0  0  0  0  0  0  0  0  0  0
  -30.2580  -12.6110   19.3200 C   0  0  0  0  0  2  0  0  0  0  0  0
  -29.3000  -12.7220   18.1140 C   0  0  0  0  0  2  0  0  0  0  0  0
  -27.8380  -12.5170   18.5580 C   0  0  0  0  0  2  0  0  0  0  0  0
  -27.4610  -13.3540   19.8100 C   0  0  0  0  0  3  0  0  0  0  0  0
  -28.5350  -13.2240   20.9130 C   0  0  0  0  0  2  0  0  0  0  0  0
  -29.8240  -13.5980   20.3190 N   0  0  0  0  0  0  0  0  0  0  0  0
  -31.5520  -15.0410   20.0050 O   0  0  0  0  0  0  0  0  0  0  0  0
  -29.5630  -15.8500   20.7160 N   0  0  0  0  0  0  0  0  0  0  0  0
  -28.6030  -15.5950   20.8990 H   0  0  0  0  0  0  0  0  0  0  0  0
  -25.0620  -13.8520   20.5770 C   0  0  0  0  0  0  0  0  0  0  0  0
  -24.0350  -13.0330   20.9480 C   0  0  0  0  0  0  0  0  0  0  0  0
  -24.5490  -11.6990   20.8820 C   0  0  0  0  0  0  0  0  0  0  0  0
  -26.1340  -13.0180   20.3070 N   0  0  0  0  0  0  0  0  0  0  0  0
  -25.8320  -11.7160   20.5510 N   0  0  0  0  0  0  0  0  0  0  0  0
  -23.8800  -10.4050   21.0540 C   0  0  0  0  0  0  0  0  0  0  0  0
  -24.3300   -9.4610   22.0030 C   0  0  0  0  0  3  0  0  0  0  0  0
  -23.6600   -8.2290   22.1620 C   0  0  0  0  0  3  0  0  0  0  0  0
  -22.5240   -7.9320   21.3700 C   0  0  0  0  0  0  0  0  0  0  0  0
  -22.0950   -8.8660   20.4090 C   0  0  0  0  0  3  0  0  0  0  0  0
  -22.7670  -10.0900   20.2500 C   0  0  0  0  0  3  0  0  0  0  0  0
  -21.8250   -6.7530   21.4390 O   0  0  0  0  0  0  0  0  0  0  0  0
  -21.7280   -6.0380   22.6030 C   0  0  0  0  0  0  0  0  0  0  0  0
  -21.1310   -6.5820   23.7610 C   0  0  0  0  0  3  0  0  0  0  0  0
  -20.9900   -5.7910   24.9190 C   0  0  0  0  0  3  0  0  0  0  0  0
  -21.4370   -4.4520   24.9160 C   0  0  0  0  0  0  0  0  0  0  0  0
  -22.0280   -3.9100   23.7610 C   0  0  0  0  0  3  0  0  0  0  0  0
  -22.1710   -4.7010   22.6080 C   0  0  0  0  0  0  0  0  0  0  0  0
  -22.7210   -4.1660   21.4920 F   0  0  0  0  0  0  0  0  0  0  0  0
  -21.2960   -3.6880   26.0270 F   0  0  0  0  0  0  0  0  0  0  0  0
  -22.6230  -13.4430   21.2500 C   0  0  0  0  0  0  0  0  0  0  0  0
  -21.9340  -12.6930   22.1000 N   0  0  0  0  0  0  0  0  0  0  0  0
  -22.1380  -14.4680   20.7690 O   0  0  0  0  0  0  0  0  0  0  0  0
  -22.3360  -11.8620   22.5100 H   0  0  0  0  0  0  0  0  0  0  0  0
  -20.9870  -12.9490   22.3460 H   0  0  0  0  0  0  0  0  0  0  0  0
  -25.1750  -15.2320   20.4220 N   0  0  0  0  0  0  0  0  0  0  0  0
  -24.3860  -15.8570   20.5440 H   0  0  0  0  0  0  0  0  0  0  0  0
  -25.9910  -15.6970   20.0500 H   0  0  0  0  0  0  0  0  0  0  0  0
  -28.9300  -21.8790   20.0330 C   0  0  0  0  0  0  0  0  0  0  0  0
  -29.5300  -20.7360   19.6100 N   0  0  0  0  0  0  0  0  0  0  0  0
  -28.4760  -21.9610   21.1740 O   0  0  0  0  0  0  0  0  0  0  0  0
  -29.5780  -20.5910   18.6110 H   0  0  0  0  0  0  0  0  0  0  0  0
  -28.7860  -23.1010   19.0740 C   0  0  0  0  0  2  0  0  0  0  0  0
  -28.1530  -24.3660   19.7620 C   0  0  0  0  0  2  0  0  0  0  0  0
  -28.1970  -25.6910   18.9500 C   0  0  0  0  0  2  0  0  0  0  0  0
  -28.0480  -26.8690   19.7740 O   0  0  0  0  0  0  0  0  0  0  0  0
  -24.4900  -31.9830   23.2470 C   0  0  0  0  0  0  0  0  0  0  0  0
  -26.8600  -27.5820   19.8460 C   0  0  0  0  0  0  0  0  0  0  0  0
  -23.1620  -30.6690   21.6230 C   0  0  0  0  0  3  0  0  0  0  0  0
  -24.4970  -29.1500   20.0650 C   0  0  0  0  0  0  0  0  0  0  0  0
  -25.6870  -30.9620   21.3130 C   0  0  0  0  0  2  0  0  0  0  0  0
  -25.6980  -29.6170   20.6110 C   0  0  0  0  0  0  0  0  0  0  0  0
  -26.8730  -28.8370   20.5030 C   0  0  0  0  0  3  0  0  0  0  0  0
  -25.6280  -27.1180   19.3250 C   0  0  0  0  0  3  0  0  0  0  0  0
  -24.4560  -27.8980   19.4280 C   0  0  0  0  0  3  0  0  0  0  0  0
  -23.2800  -30.0380   20.2110 C   0  0  0  0  0  2  0  0  0  0  0  0
  -24.4650  -31.2230   22.1150 N   0  0  0  0  0  0  0  0  0  0  0  0
  -23.4490  -32.2590   23.8610 O   0  0  0  0  0  0  0  0  0  0  0  0
  -22.5420  -29.6280   22.5810 C   0  0  0  0  0  0  0  0  0  0  0  0
  -21.2160  -29.4270   22.4750 N   0  0  0  0  0  0  0  0  0  0  0  0
  -23.2460  -29.0060   23.3800 O   0  0  0  0  0  0  0  0  0  0  0  0
  -20.7090  -29.9810   21.7960 H   0  0  0  0  0  0  0  0  0  0  0  0
  -17.8770  -28.1410   22.9580 C   0  0  0  0  0  0  0  0  0  0  0  0
  -20.4230  -28.4680   23.2430 C   0  0  0  0  0  3  0  0  0  0  0  0
  -20.5730  -27.0370   22.6710 C   0  0  0  0  0  2  0  0  0  0  0  0
  -19.4850  -26.6840   21.6510 C   0  0  0  0  0  2  0  0  0  0  0  0
  -18.0950  -26.7930   22.2850 C   0  0  0  0  0  2  0  0  0  0  0  0
  -18.9710  -28.9330   23.3920 C   0  0  0  0  0  0  0  0  0  0  0  0
  -18.7160  -30.1940   23.9750 C   0  0  0  0  0  3  0  0  0  0  0  0
  -17.3960  -30.6620   24.1300 C   0  0  0  0  0  3  0  0  0  0  0  0
  -16.3160  -29.8610   23.7180 C   0  0  0  0  0  3  0  0  0  0  0  0
  -16.5560  -28.6040   23.1340 C   0  0  0  0  0  3  0  0  0  0  0  0
  -25.8250  -32.5580   23.8170 C   0  0  0  0  0  3  0  0  0  0  0  0
  -25.5860  -33.9650   24.1610 N   0  0  0  0  0  0  0  0  0  0  0  0
  -25.9520  -35.0060   23.4010 C   0  0  0  0  0  0  0  0  0  0  0  0
  -26.5960  -34.8820   22.3550 O   0  0  0  0  0  0  0  0  0  0  0  0
  -25.0140  -34.1380   24.9740 H   0  0  0  0  0  0  0  0  0  0  0  0
  -24.3130  -36.8830   23.0800 C   0  0  0  0  0  1  0  0  0  0  0  0
  -25.5390  -36.4110   23.8770 C   0  0  0  0  0  3  0  0  0  0  0  0
  -27.7140  -37.1890   24.7130 C   0  0  0  0  0  1  0  0  0  0  0  0
  -26.6230  -37.4130   23.7670 N   0  0  0  0  0  0  0  0  0  0  0  0
  -26.2630  -38.3500   23.9150 H   0  0  0  0  0  0  0  0  0  0  0  0
  -26.3660  -31.7640   25.0680 C   0  0  1  0  0  0  0  0  0  0  0  0
  -25.3080  -31.5590   26.1790 C   0  0  0  0  0  1  0  0  0  0  0  0
  -26.8870  -30.3690   24.6490 C   0  0  0  0  0  1  0  0  0  0  0  0
  -27.5690  -32.5170   25.6880 C   0  0  0  0  0  1  0  0  0  0  0  0
  -31.7320  -21.1150   21.8310 C   0  0  1  0  0  0  0  0  0  0  0  0
  -31.2090  -21.7950   22.8540 F   0  0  0  0  0  0  0  0  0  0  0  0
  -32.9780  -20.7730   22.1730 F   0  0  0  0  0  0  0  0  0  0  0  0
  -31.8770  -21.9310   20.7860 F   0  0  0  0  0  0  0  0  0  0  0  0
  1  5  2  0
  1  4  1  0
  2  6  1  0
  3 94  1  0
  3  6  2  0
  4  2  2  0
  5  3  1  0
  6  7  1  0
  8 16  1  0
  9 14  1  0
 10 11  1  0
 10  9  1  0
 12 11  1  0
 12 21  1  0
 12 13  1  0
 14  8  1  0
 14 13  1  0
 15  8  2  0
 16 17  1  0
 16  4  1  0
 18 19  2  0
 19 38  1  0
 20 19  1  0
 20 23  1  0
 21 22  1  0
 21 18  1  0
 22 20  2  0
 23 24  1  0
 24 25  2  0
 26 29  1  0
 26 25  1  0
 27 26  2  0
 28 27  1  0
 28 23  2  0
 29 30  1  0
 30 35  2  0
 30 31  1  0
 31 32  2  0
 33 32  1  0
 33 37  1  0
 34 33  2  0
 35 34  1  0
 36 35  1  0
 38 39  1  0
 39 42  1  0
 39 41  1  0
 40 38  2  0
 43 44  1  0
 43 18  1  0
 45 43  1  0
 46 48  2  0
 47 46  1  0
 47  5  1  0
 49 47  1  0
 50 51  1  0
 50 46  1  0
 52 51  1  0
 52 53  1  0
 53 55  1  0
 54 65  2  0
 55 60  1  0
 56 64  1  0
 56 66  1  0
 57 63  1  0
 57 59  1  0
 58 64  1  0
 59 58  1  0
 60 59  2  0
 61 62  1  0
 61 55  2  0
 62 57  2  0
 63 56  1  0
 64 54  1  0
 66 68  2  0
 67 66  1  0
 69 67  1  0
 70 79  2  0
 70 75  1  0
 71 67  1  0
 71 75  1  0
 72 71  1  0
 73 74  1  0
 73 72  1  0
 74 70  1  0
 75 76  2  0
 76 77  1  0
 78 77  2  0
 79 78  1  0
 80 54  1  0
 80 81  1  0
 80 90  1  0
 81 84  1  0
 82 86  1  0
 82 81  1  0
 83 82  2  0
 86 85  1  0
 88 86  1  0
 88 89  1  0
 88 87  1  0
 90 93  1  1
 90 91  1  0
 92 90  1  0
 94 96  1  1
 94 95  1  0
 97 94  1  0
M  ISO  4   8 100  16 100  52 101  53 101
M  END
>  <TORSDO>  (21) 
F 21

>  <SCORE>  (21) 
-13.664

>  <name>  (21) 
20

>  <ligand_id>  (21) 
20

>  <original_smiles>  (21) 
[H]c1c([H])c([H])c2c(c1[H])C([H])([H])C([H])([H])C([H])([H])C2([H])N([H])C(=O)C1([H])N(C(=O)C([H])(N([H])C(=O)C([H])(N([H])C([H])([H])[H])C([H])([H])[H])C(C([H])([H])[H])(C([H])([H])[H])C([H])([H])[H])C([H])([H])c2c([H])c(OC([H])([H])C([H])([H])C([H])([H])C(=O)N([H])c3c([H])c(N([H])C(=O)N4C([H])([H])C([H])([H])C([H])([H])C([H])(n5nc(-c6c([H])c([H])c(Oc7c([H])c([H])c(F)c([H])c7F)c([H])c6[H])c(C(=O)N([H])[H])c5N([H])[H])C4([H])[H])c([H])c(F)c3C(F)(F)F)c([H])c([H])c2C1([H])[H]

>  <smiles>  (21) 
[H]c1c([H])c([H])c2c(c1[H])C([H])([H])C([H])([H])C([H])([H])C2([H])N([H])C(=O)C1([H])N(C(=O)C([H])(N([H])C(=O)C([H])(N([H])C([H])([H])[H])C([H])([H])[H])C(C([H])([H])[H])(C([H])([H])[H])C([H])([H])[H])C([H])([H])c2c([H])c(OC([H])([H])C([H])([H])C([H])([H])C(=O)N([H])c3c([H])c(N([H])C(=O)N4C([H])([H])C([H])([H])C([H])([H])C([H])(n5nc(-c6c([H])c([H])c(Oc7c([H])c([H])c(F)c([H])c7F)c([H])c6[H])c(C(=O)N([H])[H])c5N([H])[H])C4([H])[H])c([H])c(F)c3C(F)(F)F)c([H])c([H])c2C1([H])[H]

$$$$
21:0:0
     RDKit          3D

 98106  0  0  1  0  0  0  0  0999 V2000
  -30.9700  -20.3570   20.6700 C   0  0  0  0  0  3  0  0  0  0  0  0
  -31.4710  -17.9560   20.8990 C   0  0  0  0  0  3  0  0  0  0  0  0
  -29.2060  -18.7020   20.4250 C   0  0  0  0  0  3  0  0  0  0  0  0
  -31.8810  -19.3130   20.9330 C   0  0  0  0  0  0  0  0  0  0  0  0
  -29.5990  -20.1230   20.4450 C   0  0  0  0  0  0  0  0  0  0  0  0
  -30.1390  -17.5720   20.6030 C   0  0  0  0  0  0  0  0  0  0  0  0
  -30.5890  -14.9360   20.4280 C   0  0  0  0  0  0  0  0  0  0  0  0
  -30.4610  -12.6050   19.4910 C   0  0  0  0  0  2  0  0  0  0  0  0
  -29.5340  -12.5780   18.2540 C   0  0  0  0  0  2  0  0  0  0  0  0
  -28.0680  -12.3770   18.6790 C   0  0  0  0  0  2  0  0  0  0  0  0
  -27.6540  -13.3070   19.8500 C   0  0  0  0  0  3  0  0  0  0  0  0
  -28.7020  -13.3060   20.9850 C   0  0  0  0  0  2  0  0  0  0  0  0
  -29.9840  -13.6930   20.3840 N   0  0  0  0  0  0  0  0  0  0  0  0
  -31.7860  -15.0080   20.1300 O   0  0  0  0  0  0  0  0  0  0  0  0
  -29.7990  -16.0970   20.5760 N   0  0  0  0  0  0  0  0  0  0  0  0
  -28.8150  -15.8920   20.6560 H   0  0  0  0  0  0  0  0  0  0  0  0
  -25.2680  -13.8810   20.5810 C   0  0  0  0  0  0  0  0  0  0  0  0
  -24.2030  -13.1030   20.9420 C   0  0  0  0  0  0  0  0  0  0  0  0
  -24.6690  -11.7540   20.9010 C   0  0  0  0  0  0  0  0  0  0  0  0
  -26.3130  -13.0070   20.3380 N   0  0  0  0  0  0  0  0  0  0  0  0
  -25.9610  -11.7200   20.5950 N   0  0  0  0  0  0  0  0  0  0  0  0
  -23.9430  -10.4880   21.0780 C   0  0  0  0  0  0  0  0  0  0  0  0
  -24.3710   -9.5140   22.0050 C   0  0  0  0  0  3  0  0  0  0  0  0
  -23.6450   -8.3140   22.1700 C   0  0  0  0  0  3  0  0  0  0  0  0
  -22.4750   -8.0820   21.4070 C   0  0  0  0  0  0  0  0  0  0  0  0
  -22.0680   -9.0450   20.4680 C   0  0  0  0  0  3  0  0  0  0  0  0
  -22.7940  -10.2370   20.3010 C   0  0  0  0  0  3  0  0  0  0  0  0
  -21.7190   -6.9360   21.4820 O   0  0  0  0  0  0  0  0  0  0  0  0
  -21.6580   -6.1920   22.6320 C   0  0  0  0  0  0  0  0  0  0  0  0
  -21.2010   -6.7380   23.8510 C   0  0  0  0  0  3  0  0  0  0  0  0
  -21.0860   -5.9180   24.9910 C   0  0  0  0  0  3  0  0  0  0  0  0
  -21.4170   -4.5510   24.9130 C   0  0  0  0  0  0  0  0  0  0  0  0
  -21.8660   -4.0050   23.6980 C   0  0  0  0  0  3  0  0  0  0  0  0
  -21.9840   -4.8220   22.5610 C   0  0  0  0  0  0  0  0  0  0  0  0
  -22.3970   -4.2850   21.3880 F   0  0  0  0  0  0  0  0  0  0  0  0
  -21.2990   -3.7610   26.0050 F   0  0  0  0  0  0  0  0  0  0  0  0
  -22.8040  -13.5760   21.2100 C   0  0  0  0  0  0  0  0  0  0  0  0
  -22.0770  -12.8780   22.0750 N   0  0  0  0  0  0  0  0  0  0  0  0
  -22.3670  -14.6020   20.6910 O   0  0  0  0  0  0  0  0  0  0  0  0
  -22.4460  -12.0490   22.5170 H   0  0  0  0  0  0  0  0  0  0  0  0
  -21.1390  -13.1780   22.2980 H   0  0  0  0  0  0  0  0  0  0  0  0
  -25.4300  -15.2540   20.4130 N   0  0  0  0  0  0  0  0  0  0  0  0
  -24.6550  -15.9010   20.5120 H   0  0  0  0  0  0  0  0  0  0  0  0
  -26.2640  -15.6940   20.0460 H   0  0  0  0  0  0  0  0  0  0  0  0
  -28.9480  -22.5910   19.8000 C   0  0  0  0  0  0  0  0  0  0  0  0
  -28.7310  -21.3530   20.4210 N   0  0  0  0  0  0  0  0  0  0  0  0
  -29.5850  -22.6110   18.7430 O   0  0  0  0  0  0  0  0  0  0  0  0
  -27.9330  -21.3250   21.0400 H   0  0  0  0  0  0  0  0  0  0  0  0
  -28.3460  -25.1120   19.7610 C   0  0  0  0  0  3  0  0  0  0  0  0
  -28.4420  -23.8880   20.4330 C   0  0  0  0  0  0  0  0  0  0  0  0
  -28.1680  -23.8610   21.7450 O   0  0  0  0  0  0  0  0  0  0  0  0
  -28.4190  -23.0030   22.0660 H   0  0  0  0  0  0  0  0  0  0  0  0
  -28.2070  -26.4380   20.2980 O   0  0  0  0  0  0  0  0  0  0  0  0
  -24.5910  -31.9520   23.2900 C   0  0  0  0  0  0  0  0  0  0  0  0
  -27.1080  -27.3260   20.1780 C   0  0  0  0  0  0  0  0  0  0  0  0
  -23.3500  -30.5730   21.6590 C   0  0  0  0  0  3  0  0  0  0  0  0
  -24.7640  -29.0000   20.2010 C   0  0  0  0  0  0  0  0  0  0  0  0
  -25.8920  -30.8510   21.4440 C   0  0  0  0  0  2  0  0  0  0  0  0
  -25.9470  -29.4700   20.7830 C   0  0  0  0  0  0  0  0  0  0  0  0
  -27.1160  -28.6420   20.7610 C   0  0  0  0  0  3  0  0  0  0  0  0
  -25.9030  -26.9220   19.5630 C   0  0  0  0  0  3  0  0  0  0  0  0
  -24.7500  -27.7380   19.5790 C   0  0  0  0  0  3  0  0  0  0  0  0
  -23.5390  -29.8940   20.2740 C   0  0  0  0  0  2  0  0  0  0  0  0
  -24.6300  -31.1450   22.1870 N   0  0  0  0  0  0  0  0  0  0  0  0
  -23.5180  -32.2390   23.8410 O   0  0  0  0  0  0  0  0  0  0  0  0
  -22.6850  -29.5660   22.6290 C   0  0  0  0  0  0  0  0  0  0  0  0
  -21.3620  -29.3770   22.4960 N   0  0  0  0  0  0  0  0  0  0  0  0
  -23.3630  -28.9590   23.4630 O   0  0  0  0  0  0  0  0  0  0  0  0
  -20.8720  -29.9190   21.7980 H   0  0  0  0  0  0  0  0  0  0  0  0
  -18.0000  -28.1200   22.9560 C   0  0  0  0  0  0  0  0  0  0  0  0
  -20.5450  -28.4410   23.2720 C   0  0  0  0  0  3  0  0  0  0  0  0
  -20.6880  -27.0000   22.7290 C   0  0  0  0  0  2  0  0  0  0  0  0
  -19.6140  -26.6320   21.6990 C   0  0  0  0  0  2  0  0  0  0  0  0
  -18.2170  -26.7610   22.3110 C   0  0  0  0  0  2  0  0  0  0  0  0
  -19.0930  -28.9150   23.3920 C   0  0  0  0  0  0  0  0  0  0  0  0
  -18.8340  -30.1860   23.9510 C   0  0  0  0  0  3  0  0  0  0  0  0
  -17.5150  -30.6600   24.0830 C   0  0  0  0  0  3  0  0  0  0  0  0
  -16.4370  -29.8620   23.6610 C   0  0  0  0  0  3  0  0  0  0  0  0
  -16.6790  -28.5950   23.1030 C   0  0  0  0  0  3  0  0  0  0  0  0
  -25.8880  -32.5690   23.9000 C   0  0  0  0  0  3  0  0  0  0  0  0
  -25.5990  -33.9700   24.2390 N   0  0  0  0  0  0  0  0  0  0  0  0
  -25.9130  -35.0220   23.4700 C   0  0  0  0  0  0  0  0  0  0  0  0
  -26.5480  -34.9140   22.4170 O   0  0  0  0  0  0  0  0  0  0  0  0
  -25.0360  -34.1290   25.0610 H   0  0  0  0  0  0  0  0  0  0  0  0
  -24.1800  -36.8220   23.1910 C   0  0  0  0  0  1  0  0  0  0  0  0
  -25.4550  -36.4140   23.9450 C   0  0  0  0  0  3  0  0  0  0  0  0
  -27.6260  -37.2960   24.6770 C   0  0  0  0  0  1  0  0  0  0  0  0
  -26.4850  -37.4630   23.7810 N   0  0  0  0  0  0  0  0  0  0  0  0
  -26.0890  -38.3860   23.9340 H   0  0  0  0  0  0  0  0  0  0  0  0
  -26.4090  -31.7900   25.1710 C   0  0  1  0  0  0  0  0  0  0  0  0
  -25.3260  -31.5670   26.2520 C   0  0  0  0  0  1  0  0  0  0  0  0
  -26.9710  -30.4060   24.7730 C   0  0  0  0  0  1  0  0  0  0  0  0
  -27.5770  -32.5710   25.8220 C   0  0  0  0  0  1  0  0  0  0  0  0
  -33.3300  -19.6710   21.2560 C   0  0  0  0  0  2  0  0  0  0  0  0
  -35.0040  -20.3630   22.9120 C   0  0  0  0  0  1  0  0  0  0  0  0
  -32.6710  -20.9740   23.2920 C   0  0  0  0  0  1  0  0  0  0  0  0
  -33.5920  -19.9790   22.6910 N   0  0  1  0  0  4  0  0  0  0  0  0
  -33.4490  -19.1180   23.1950 H   0  0  0  0  0  0  0  0  0  0  0  0
  1  4  1  0
  2  4  2  0
  3  5  1  0
  3  6  2  0
  4 94  1  0
  5  1  2  0
  6  2  1  0
  7 15  1  0
  8 13  1  0
  9 10  1  0
  9  8  1  0
 11 10  1  0
 11 20  1  0
 11 12  1  0
 13  7  1  0
 13 12  1  0
 14  7  2  0
 15  6  1  0
 15 16  1  0
 17 18  2  0
 18 37  1  0
 19 18  1  0
 19 22  1  0
 20 17  1  0
 20 21  1  0
 21 19  2  0
 22 23  1  0
 23 24  2  0
 25 28  1  0
 25 24  1  0
 26 25  2  0
 27 26  1  0
 27 22  2  0
 28 29  1  0
 29 30  1  0
 30 31  2  0
 32 31  1  0
 32 36  1  0
 33 32  2  0
 34 29  2  0
 34 33  1  0
 35 34  1  0
 37 38  1  0
 38 41  1  0
 38 40  1  0
 39 37  2  0
 42 43  1  0
 42 17  1  0
 44 42  1  0
 45 46  1  0
 45 50  1  0
 46  5  1  0
 46 48  1  0
 47 45  2  0
 49 53  1  0
 49 50  2  0
 50 51  1  0
 51 52  1  0
 54 65  2  0
 55 53  1  0
 55 60  1  0
 56 64  1  0
 56 66  1  0
 57 63  1  0
 57 59  1  0
 58 64  1  0
 59 58  1  0
 60 59  2  0
 61 62  1  0
 61 55  2  0
 62 57  2  0
 63 56  1  0
 64 54  1  0
 66 68  2  0
 67 66  1  0
 69 67  1  0
 70 79  2  0
 70 75  1  0
 71 67  1  0
 71 75  1  0
 72 71  1  0
 73 74  1  0
 73 72  1  0
 74 70  1  0
 75 76  2  0
 76 77  1  0
 78 77  2  0
 79 78  1  0
 80 54  1  0
 80 81  1  0
 80 90  1  0
 81 84  1  0
 82 86  1  0
 82 81  1  0
 83 82  2  0
 86 85  1  0
 88 89  1  0
 88 86  1  0
 88 87  1  0
 90 93  1  1
 90 91  1  0
 92 90  1  0
 94 97  1  0
 97 95  1  0
 97 98  1  1
 97 96  1  0
M  ISO  4   7 100  15 100  49 101  53 101
M  END
>  <TORSDO>  (22) 
F 21

>  <SCORE>  (22) 
-14.169

>  <name>  (22) 
21

>  <ligand_id>  (22) 
21

>  <original_smiles>  (22) 
[H]OC(C(=O)N([H])c1c([H])c(N([H])C(=O)N2C([H])([H])C([H])([H])C([H])([H])C([H])(n3nc(-c4c([H])c([H])c(Oc5c([H])c([H])c(F)c([H])c5F)c([H])c4[H])c(C(=O)N([H])[H])c3N([H])[H])C2([H])[H])c([H])c(C([H])([H])[N+]([H])(C([H])([H])[H])C([H])([H])[H])c1[H])=C([H])Oc1c([H])c([H])c2c(c1[H])C([H])([H])N(C(=O)C([H])(N([H])C(=O)C([H])(N([H])C([H])([H])[H])C([H])([H])[H])C(C([H])([H])[H])(C([H])([H])[H])C([H])([H])[H])C([H])(C(=O)N([H])C1([H])c3c([H])c([H])c([H])c([H])c3C([H])([H])C([H])([H])C1([H])[H])C2([H])[H]

>  <smiles>  (22) 
[H]OC(C(=O)N([H])c1c([H])c(N([H])C(=O)N2C([H])([H])C([H])([H])C([H])([H])C([H])(n3nc(-c4c([H])c([H])c(Oc5c([H])c([H])c(F)c([H])c5F)c([H])c4[H])c(C(=O)N([H])[H])c3N([H])[H])C2([H])[H])c([H])c(C([H])([H])[N+]([H])(C([H])([H])[H])C([H])([H])[H])c1[H])=C([H])Oc1c([H])c([H])c2c(c1[H])C([H])([H])N(C(=O)C([H])(N([H])C(=O)C([H])(N([H])C([H])([H])[H])C([H])([H])[H])C(C([H])([H])[H])(C([H])([H])[H])C([H])([H])[H])C([H])(C(=O)N([H])C1([H])c3c([H])c([H])c([H])c([H])c3C([H])([H])C([H])([H])C1([H])[H])C2([H])[H]

$$$$
22:0:0
     RDKit          3D

 96104  0  0  1  0  0  0  0  0999 V2000
  -30.8350  -17.0070   18.8030 C   0  0  0  0  0  3  0  0  0  0  0  0
  -30.2700  -16.9890   20.1130 C   0  0  0  0  0  0  0  0  0  0  0  0
  -31.0280  -19.2850   18.8270 C   0  0  0  0  0  0  0  0  0  0  0  0
  -30.4190  -19.3420   20.1090 C   0  0  0  0  0  0  0  0  0  0  0  0
  -31.2160  -18.1350   18.1640 N   0  0  0  0  0  0  0  0  0  0  0  0
  -30.0210  -18.1930   20.7430 N   0  0  0  0  0  0  0  0  0  0  0  0
  -31.5020  -20.4280   18.1950 N   0  0  0  0  0  0  0  0  0  0  0  0
  -30.3890  -20.5960   20.7640 N   0  0  0  0  0  0  0  0  0  0  0  0
  -31.0080  -21.2860   18.4310 H   0  0  0  0  0  0  0  0  0  0  0  0
  -31.6690  -20.3450   17.2020 H   0  0  0  0  0  0  0  0  0  0  0  0
  -31.0920  -21.1570   20.2880 H   0  0  0  0  0  0  0  0  0  0  0  0
  -30.6700  -14.5490   20.4590 C   0  0  0  0  0  0  0  0  0  0  0  0
  -30.3460  -12.3500   19.4040 C   0  0  0  0  0  2  0  0  0  0  0  0
  -29.4310  -12.5440   18.1780 C   0  0  0  0  0  2  0  0  0  0  0  0
  -27.9500  -12.4210   18.5880 C   0  0  0  0  0  2  0  0  0  0  0  0
  -27.6000  -13.2740   19.8380 C   0  0  0  0  0  3  0  0  0  0  0  0
  -28.6470  -13.1040   20.9630 C   0  0  0  0  0  2  0  0  0  0  0  0
  -29.9730  -13.3770   20.3930 N   0  0  0  0  0  0  0  0  0  0  0  0
  -31.8540  -14.6100   20.1230 O   0  0  0  0  0  0  0  0  0  0  0  0
  -29.9670  -15.6940   20.6900 N   0  0  0  0  0  0  0  0  0  0  0  0
  -29.0740  -15.6000   21.1470 H   0  0  0  0  0  0  0  0  0  0  0  0
  -25.2020  -13.8920   20.5220 C   0  0  0  0  0  0  0  0  0  0  0  0
  -24.1250  -13.1290   20.8830 C   0  0  0  0  0  0  0  0  0  0  0  0
  -24.5790  -11.7730   20.8670 C   0  0  0  0  0  0  0  0  0  0  0  0
  -26.2430  -13.0040   20.3090 N   0  0  0  0  0  0  0  0  0  0  0  0
  -25.8720  -11.7250   20.5760 N   0  0  0  0  0  0  0  0  0  0  0  0
  -23.8410  -10.5170   21.0560 C   0  0  0  0  0  0  0  0  0  0  0  0
  -24.2630   -9.5460   21.9910 C   0  0  0  0  0  3  0  0  0  0  0  0
  -23.5260   -8.3550   22.1680 C   0  0  0  0  0  3  0  0  0  0  0  0
  -22.3530   -8.1260   21.4090 C   0  0  0  0  0  0  0  0  0  0  0  0
  -21.9500   -9.0860   20.4640 C   0  0  0  0  0  3  0  0  0  0  0  0
  -22.6870  -10.2680   20.2860 C   0  0  0  0  0  3  0  0  0  0  0  0
  -21.5870   -6.9880   21.4960 O   0  0  0  0  0  0  0  0  0  0  0  0
  -21.5350   -6.2410   22.6450 C   0  0  0  0  0  0  0  0  0  0  0  0
  -21.1250   -6.7980   23.8770 C   0  0  0  0  0  3  0  0  0  0  0  0
  -21.0200   -5.9780   25.0190 C   0  0  0  0  0  3  0  0  0  0  0  0
  -21.3150   -4.6030   24.9290 C   0  0  0  0  0  0  0  0  0  0  0  0
  -21.7170   -4.0470   23.7020 C   0  0  0  0  0  3  0  0  0  0  0  0
  -21.8240   -4.8650   22.5630 C   0  0  0  0  0  0  0  0  0  0  0  0
  -22.1920   -4.3200   21.3790 F   0  0  0  0  0  0  0  0  0  0  0  0
  -21.2070   -3.8140   26.0230 F   0  0  0  0  0  0  0  0  0  0  0  0
  -22.7280  -13.6160   21.1340 C   0  0  0  0  0  0  0  0  0  0  0  0
  -21.9830  -12.9310   21.9950 N   0  0  0  0  0  0  0  0  0  0  0  0
  -22.3030  -14.6410   20.6010 O   0  0  0  0  0  0  0  0  0  0  0  0
  -22.3380  -12.1030   22.4500 H   0  0  0  0  0  0  0  0  0  0  0  0
  -21.0450  -13.2400   22.2040 H   0  0  0  0  0  0  0  0  0  0  0  0
  -25.3770  -15.2600   20.3360 N   0  0  0  0  0  0  0  0  0  0  0  0
  -24.6110  -15.9190   20.4280 H   0  0  0  0  0  0  0  0  0  0  0  0
  -26.2290  -15.6900   19.9980 H   0  0  0  0  0  0  0  0  0  0  0  0
  -29.1330  -21.3780   20.8190 C   0  0  0  0  0  2  0  0  0  0  0  0
  -29.0820  -22.6730   19.9160 C   0  0  0  0  0  3  0  0  0  0  0  0
  -30.0410  -22.6060   18.9900 F   0  0  0  0  0  0  0  0  0  0  0  0
  -29.0950  -24.0980   20.5630 C   0  0  0  0  0  0  0  0  0  0  0  0
  -29.8030  -24.3710   21.5390 O   0  0  0  0  0  0  0  0  0  0  0  0
  -28.1650  -25.1520   19.9010 C   0  0  0  0  0  2  0  0  0  0  0  0
  -28.3590  -26.5530   20.2810 O   0  0  0  0  0  0  0  0  0  0  0  0
  -24.5950  -31.8910   23.2340 C   0  0  0  0  0  0  0  0  0  0  0  0
  -27.2300  -27.3720   20.1970 C   0  0  0  0  0  0  0  0  0  0  0  0
  -23.3970  -30.4820   21.5980 C   0  0  0  0  0  3  0  0  0  0  0  0
  -24.8540  -28.9450   20.1790 C   0  0  0  0  0  0  0  0  0  0  0  0
  -25.9320  -30.8230   21.4120 C   0  0  0  0  0  2  0  0  0  0  0  0
  -26.0170  -29.4460   20.7770 C   0  0  0  0  0  0  0  0  0  0  0  0
  -27.2080  -28.6680   20.7840 C   0  0  0  0  0  3  0  0  0  0  0  0
  -26.0470  -26.9270   19.5550 C   0  0  0  0  0  3  0  0  0  0  0  0
  -24.8690  -27.6890   19.5600 C   0  0  0  0  0  3  0  0  0  0  0  0
  -23.6130  -29.8080   20.2200 C   0  0  0  0  0  2  0  0  0  0  0  0
  -24.6600  -31.0810   22.1390 N   0  0  0  0  0  0  0  0  0  0  0  0
  -23.5100  -32.1650   23.7660 O   0  0  0  0  0  0  0  0  0  0  0  0
  -22.7420  -29.4610   22.5600 C   0  0  0  0  0  0  0  0  0  0  0  0
  -21.4160  -29.2800   22.4340 N   0  0  0  0  0  0  0  0  0  0  0  0
  -23.4240  -28.8360   23.3770 O   0  0  0  0  0  0  0  0  0  0  0  0
  -20.9270  -29.8420   21.7500 H   0  0  0  0  0  0  0  0  0  0  0  0
  -18.0370  -28.0950   22.9370 C   0  0  0  0  0  0  0  0  0  0  0  0
  -20.5970  -28.3450   23.2050 C   0  0  0  0  0  3  0  0  0  0  0  0
  -20.6920  -26.9130   22.6320 C   0  0  0  0  0  2  0  0  0  0  0  0
  -19.5880  -26.5910   21.6190 C   0  0  0  0  0  2  0  0  0  0  0  0
  -18.2080  -26.7430   22.2650 C   0  0  0  0  0  2  0  0  0  0  0  0
  -19.1590  -28.8530   23.3650 C   0  0  0  0  0  0  0  0  0  0  0  0
  -18.9450  -30.1190   23.9540 C   0  0  0  0  0  3  0  0  0  0  0  0
  -17.6420  -30.6250   24.1190 C   0  0  0  0  0  3  0  0  0  0  0  0
  -16.5350  -29.8640   23.7060 C   0  0  0  0  0  3  0  0  0  0  0  0
  -16.7330  -28.6000   23.1210 C   0  0  0  0  0  3  0  0  0  0  0  0
  -25.8750  -32.5260   23.8570 C   0  0  0  0  0  3  0  0  0  0  0  0
  -26.3930  -31.7550   25.1320 C   0  0  1  0  0  0  0  0  0  0  0  0
  -25.2990  -31.5150   26.1990 C   0  0  0  0  0  1  0  0  0  0  0  0
  -26.9770  -30.3790   24.7380 C   0  0  0  0  0  1  0  0  0  0  0  0
  -27.5390  -32.5540   25.7960 C   0  0  0  0  0  1  0  0  0  0  0  0
  -25.5580  -33.9230   24.1870 N   0  0  0  0  0  0  0  0  0  0  0  0
  -25.8860  -34.9770   23.4280 C   0  0  0  0  0  0  0  0  0  0  0  0
  -26.5580  -34.8760   22.3980 O   0  0  0  0  0  0  0  0  0  0  0  0
  -24.9560  -34.0740   24.9830 H   0  0  0  0  0  0  0  0  0  0  0  0
  -24.1470  -36.7610   23.0730 C   0  0  0  0  0  1  0  0  0  0  0  0
  -25.3910  -36.3630   23.8850 C   0  0  0  0  0  3  0  0  0  0  0  0
  -27.5230  -37.2570   24.7140 C   0  0  0  0  0  1  0  0  0  0  0  0
  -26.4180  -37.4210   23.7720 N   0  0  0  0  0  0  0  0  0  0  0  0
  -26.0080  -38.3390   23.9180 H   0  0  0  0  0  0  0  0  0  0  0  0
  1  2  1  0
  2 20  1  0
  2  6  2  0
  3  4  2  0
  4  6  1  0
  4  8  1  0
  5  1  2  0
  5  3  1  0
  7  9  1  0
  7  3  1  0
  8 50  1  0
 10  7  1  0
 11  8  1  0
 12 20  1  0
 13 18  1  0
 14 15  1  0
 14 13  1  0
 16 15  1  0
 16 25  1  0
 16 17  1  0
 18 12  1  0
 18 17  1  0
 19 12  2  0
 20 21  1  0
 22 23  2  0
 23 42  1  0
 24 23  1  0
 24 27  1  0
 25 22  1  0
 25 26  1  0
 26 24  2  0
 27 28  1  0
 28 29  2  0
 30 33  1  0
 30 29  1  0
 31 30  2  0
 32 31  1  0
 32 27  2  0
 33 34  1  0
 34 35  1  0
 35 36  2  0
 37 36  1  0
 37 41  1  0
 38 37  2  0
 39 34  2  0
 39 38  1  0
 40 39  1  0
 42 43  1  0
 43 46  1  0
 43 45  1  0
 44 42  2  0
 47 48  1  0
 47 22  1  0
 49 47  1  0
 51 52  1  0
 51 53  1  0
 51 50  1  0
 53 54  2  0
 55 56  1  0
 55 53  1  0
 57 68  2  0
 58 56  1  0
 58 63  1  0
 59 67  1  0
 59 69  1  0
 60 66  1  0
 60 62  1  0
 61 67  1  0
 62 63  2  0
 62 61  1  0
 64 65  1  0
 64 58  2  0
 65 60  2  0
 66 59  1  0
 67 57  1  0
 69 71  2  0
 70 69  1  0
 72 70  1  0
 73 82  2  0
 73 78  1  0
 74 70  1  0
 74 78  1  0
 75 74  1  0
 76 77  1  0
 76 75  1  0
 77 73  1  0
 78 79  2  0
 79 80  1  0
 81 80  2  0
 82 81  1  0
 83 57  1  0
 83 88  1  0
 83 84  1  0
 84 87  1  1
 84 85  1  0
 86 84  1  0
 88 91  1  0
 89 93  1  0
 89 88  1  0
 90 89  2  0
 93 92  1  0
 95 93  1  0
 95 96  1  0
 95 94  1  0
M  ISO  4  12 100  20 100  55 101  56 101
M  END
>  <TORSDO>  (23) 
F 20

>  <SCORE>  (23) 
-14.007

>  <name>  (23) 
22

>  <ligand_id>  (23) 
22

>  <original_smiles>  (23) 
[H]c1nc(N([H])[H])c(N([H])C([H])([H])C([H])(F)C(=O)C([H])([H])Oc2c([H])c([H])c3c(c2[H])C([H])([H])N(C(=O)C([H])(N([H])C(=O)C([H])(N([H])C([H])([H])[H])C([H])([H])[H])C(C([H])([H])[H])(C([H])([H])[H])C([H])([H])[H])C([H])(C(=O)N([H])C2([H])c4c([H])c([H])c([H])c([H])c4C([H])([H])C([H])([H])C2([H])[H])C3([H])[H])nc1N([H])C(=O)N1C([H])([H])C([H])([H])C([H])([H])C([H])(n2nc(-c3c([H])c([H])c(Oc4c([H])c([H])c(F)c([H])c4F)c([H])c3[H])c(C(=O)N([H])[H])c2N([H])[H])C1([H])[H]

>  <smiles>  (23) 
[H]c1nc(N([H])[H])c(N([H])C([H])([H])C([H])(F)C(=O)C([H])([H])Oc2c([H])c([H])c3c(c2[H])C([H])([H])N(C(=O)C([H])(N([H])C(=O)C([H])(N([H])C([H])([H])[H])C([H])([H])[H])C(C([H])([H])[H])(C([H])([H])[H])C([H])([H])[H])C([H])(C(=O)N([H])C2([H])c4c([H])c([H])c([H])c([H])c4C([H])([H])C([H])([H])C2([H])[H])C3([H])[H])nc1N([H])C(=O)N1C([H])([H])C([H])([H])C([H])([H])C([H])(n2nc(-c3c([H])c([H])c(Oc4c([H])c([H])c(F)c([H])c4F)c([H])c3[H])c(C(=O)N([H])[H])c2N([H])[H])C1([H])[H]

$$$$
23:0:0
     RDKit          3D

 95103  0  0  1  0  0  0  0  0999 V2000
  -30.0440  -20.4700   20.1250 N   0  0  0  0  0  0  0  0  0  0  0  0
  -29.6760  -20.3480   19.1860 H   0  0  0  0  0  0  0  0  0  0  0  0
  -30.7040  -16.7960   22.1690 C   0  0  0  0  0  3  0  0  0  0  0  0
  -30.9260  -18.0100   22.8370 C   0  0  0  0  0  3  0  0  0  0  0  0
  -30.2370  -16.8000   20.8430 C   0  0  0  0  0  0  0  0  0  0  0  0
  -30.2550  -19.2770   20.8590 C   0  0  0  0  0  0  0  0  0  0  0  0
  -30.6920  -19.2450   22.2090 C   0  0  0  0  0  0  0  0  0  0  0  0
  -29.9950  -18.0460   20.2010 C   0  0  0  0  0  0  0  0  0  0  0  0
  -30.8710  -20.3680   22.9440 F   0  0  0  0  0  0  0  0  0  0  0  0
  -29.4980  -18.0660   18.9360 F   0  0  0  0  0  0  0  0  0  0  0  0
  -30.7490  -14.4960   20.0720 C   0  0  0  0  0  0  0  0  0  0  0  0
  -30.4250  -12.3460   18.9050 C   0  0  0  0  0  2  0  0  0  0  0  0
  -29.4020  -12.5610   17.7670 C   0  0  0  0  0  2  0  0  0  0  0  0
  -27.9630  -12.4040   18.2930 C   0  0  0  0  0  2  0  0  0  0  0  0
  -27.6950  -13.2590   19.5600 C   0  0  0  0  0  3  0  0  0  0  0  0
  -28.8090  -13.0240   20.6070 C   0  0  0  0  0  2  0  0  0  0  0  0
  -30.0930  -13.3110   19.9530 N   0  0  0  0  0  0  0  0  0  0  0  0
  -31.9450  -14.6320   19.7880 O   0  0  0  0  0  0  0  0  0  0  0  0
  -29.9180  -15.5500   20.2200 N   0  0  0  0  0  0  0  0  0  0  0  0
  -28.9330  -15.3620   20.1210 H   0  0  0  0  0  0  0  0  0  0  0  0
  -25.3600  -13.9310   20.4170 C   0  0  0  0  0  0  0  0  0  0  0  0
  -24.2940  -13.1830   20.8300 C   0  0  0  0  0  0  0  0  0  0  0  0
  -24.7200  -11.8200   20.7690 C   0  0  0  0  0  0  0  0  0  0  0  0
  -26.3640  -13.0210   20.1170 N   0  0  0  0  0  0  0  0  0  0  0  0
  -25.9890  -11.7490   20.3880 N   0  0  0  0  0  0  0  0  0  0  0  0
  -23.9800  -10.5730   20.9810 C   0  0  0  0  0  0  0  0  0  0  0  0
  -24.4360   -9.5920   21.8840 C   0  0  0  0  0  3  0  0  0  0  0  0
  -23.6950   -8.4070   22.0830 C   0  0  0  0  0  3  0  0  0  0  0  0
  -22.4860   -8.1980   21.3820 C   0  0  0  0  0  0  0  0  0  0  0  0
  -22.0470   -9.1740   20.4690 C   0  0  0  0  0  3  0  0  0  0  0  0
  -22.7880  -10.3490   20.2670 C   0  0  0  0  0  3  0  0  0  0  0  0
  -21.7120   -7.0710   21.4960 O   0  0  0  0  0  0  0  0  0  0  0  0
  -21.6980   -6.3210   22.6430 C   0  0  0  0  0  0  0  0  0  0  0  0
  -21.3450   -6.8750   23.8940 C   0  0  0  0  0  3  0  0  0  0  0  0
  -21.2820   -6.0540   25.0370 C   0  0  0  0  0  3  0  0  0  0  0  0
  -21.5570   -4.6770   24.9310 C   0  0  0  0  0  0  0  0  0  0  0  0
  -21.9040   -4.1220   23.6860 C   0  0  0  0  0  3  0  0  0  0  0  0
  -21.9710   -4.9410   22.5470 C   0  0  0  0  0  0  0  0  0  0  0  0
  -22.2850   -4.3970   21.3460 F   0  0  0  0  0  0  0  0  0  0  0  0
  -21.4890   -3.8850   26.0260 F   0  0  0  0  0  0  0  0  0  0  0  0
  -22.9220  -13.6850   21.1790 C   0  0  0  0  0  0  0  0  0  0  0  0
  -22.2320  -12.9880   22.0740 N   0  0  0  0  0  0  0  0  0  0  0  0
  -22.4820  -14.7290   20.7000 O   0  0  0  0  0  0  0  0  0  0  0  0
  -22.6090  -12.1290   22.4540 H   0  0  0  0  0  0  0  0  0  0  0  0
  -21.3180  -13.2990   22.3690 H   0  0  0  0  0  0  0  0  0  0  0  0
  -25.5680  -15.2960   20.2520 N   0  0  0  0  0  0  0  0  0  0  0  0
  -24.8480  -15.9920   20.4010 H   0  0  0  0  0  0  0  0  0  0  0  0
  -26.4400  -15.6980   19.9280 H   0  0  0  0  0  0  0  0  0  0  0  0
  -30.3150  -21.8680   20.5350 C   0  0  0  0  0  2  0  0  0  0  0  0
  -29.0990  -22.8120   20.3630 C   0  0  0  0  0  0  0  0  0  0  0  0
  -28.0370  -22.3780   19.8960 O   0  0  0  0  0  0  0  0  0  0  0  0
  -29.2340  -24.3200   20.7770 C   0  0  0  0  0  0  0  0  0  0  0  0
  -30.2710  -24.7780   21.2750 O   0  0  0  0  0  0  0  0  0  0  0  0
  -27.9960  -25.2100   20.5780 C   0  0  0  0  0  2  0  0  0  0  0  0
  -28.3330  -26.5970   20.3290 O   0  0  0  0  0  0  0  0  0  0  0  0
  -24.6060  -31.8930   23.2510 C   0  0  0  0  0  0  0  0  0  0  0  0
  -27.2140  -27.3980   20.2390 C   0  0  0  0  0  0  0  0  0  0  0  0
  -23.4020  -30.4880   21.6140 C   0  0  0  0  0  3  0  0  0  0  0  0
  -24.8500  -28.9470   20.1960 C   0  0  0  0  0  0  0  0  0  0  0  0
  -25.9290  -30.8260   21.4310 C   0  0  0  0  0  2  0  0  0  0  0  0
  -26.0040  -29.4470   20.8090 C   0  0  0  0  0  0  0  0  0  0  0  0
  -27.1900  -28.6740   20.8380 C   0  0  0  0  0  3  0  0  0  0  0  0
  -26.0540  -26.9360   19.5700 C   0  0  0  0  0  3  0  0  0  0  0  0
  -24.8700  -27.6930   19.5720 C   0  0  0  0  0  3  0  0  0  0  0  0
  -23.6140  -29.8180   20.2310 C   0  0  0  0  0  2  0  0  0  0  0  0
  -24.6650  -31.0850   22.1550 N   0  0  0  0  0  0  0  0  0  0  0  0
  -23.5230  -32.1750   23.7750 O   0  0  0  0  0  0  0  0  0  0  0  0
  -22.7440  -29.4710   22.5730 C   0  0  0  0  0  0  0  0  0  0  0  0
  -21.4250  -29.2820   22.4260 N   0  0  0  0  0  0  0  0  0  0  0  0
  -23.4130  -28.8540   23.4080 O   0  0  0  0  0  0  0  0  0  0  0  0
  -20.9360  -29.8410   21.7400 H   0  0  0  0  0  0  0  0  0  0  0  0
  -18.0520  -28.0690   22.8710 C   0  0  0  0  0  0  0  0  0  0  0  0
  -20.6010  -28.3500   23.1990 C   0  0  0  0  0  3  0  0  0  0  0  0
  -20.7280  -26.9090   22.6560 C   0  0  0  0  0  2  0  0  0  0  0  0
  -19.6530  -26.5510   21.6210 C   0  0  0  0  0  2  0  0  0  0  0  0
  -18.2550  -26.7060   22.2300 C   0  0  0  0  0  2  0  0  0  0  0  0
  -19.1570  -28.8460   23.3140 C   0  0  0  0  0  0  0  0  0  0  0  0
  -18.9180  -30.1220   23.8670 C   0  0  0  0  0  3  0  0  0  0  0  0
  -17.6070  -30.6210   23.9870 C   0  0  0  0  0  3  0  0  0  0  0  0
  -16.5150  -29.8400   23.5650 C   0  0  0  0  0  3  0  0  0  0  0  0
  -16.7420  -28.5620   23.0110 C   0  0  0  0  0  3  0  0  0  0  0  0
  -25.8880  -32.5240   23.8720 C   0  0  0  0  0  3  0  0  0  0  0  0
  -25.5760  -33.9220   24.1970 N   0  0  0  0  0  0  0  0  0  0  0  0
  -25.9070  -34.9750   23.4380 C   0  0  0  0  0  0  0  0  0  0  0  0
  -26.5820  -34.8740   22.4090 O   0  0  0  0  0  0  0  0  0  0  0  0
  -24.9740  -34.0830   24.9900 H   0  0  0  0  0  0  0  0  0  0  0  0
  -24.1740  -36.7660   23.0690 C   0  0  0  0  0  1  0  0  0  0  0  0
  -25.4110  -36.3630   23.8860 C   0  0  0  0  0  3  0  0  0  0  0  0
  -27.5380  -37.2540   24.7270 C   0  0  0  0  0  1  0  0  0  0  0  0
  -26.4390  -37.4190   23.7790 N   0  0  0  0  0  0  0  0  0  0  0  0
  -26.0290  -38.3360   23.9320 H   0  0  0  0  0  0  0  0  0  0  0  0
  -26.4070  -31.7550   25.1470 C   0  0  1  0  0  0  0  0  0  0  0  0
  -25.3210  -31.5100   26.2180 C   0  0  0  0  0  1  0  0  0  0  0  0
  -26.9930  -30.3820   24.7480 C   0  0  0  0  0  1  0  0  0  0  0  0
  -27.5490  -32.5520   25.8180 C   0  0  0  0  0  1  0  0  0  0  0  0
  1 49  1  0
  1  6  1  0
  2  1  1  0
  3  4  1  0
  5  3  2  0
  6  7  1  0
  7  4  2  0
  7  9  1  0
  8  5  1  0
  8  6  2  0
 10  8  1  0
 11 19  1  0
 12 17  1  0
 13 14  1  0
 13 12  1  0
 15 14  1  0
 15 24  1  0
 15 16  1  0
 17 11  1  0
 17 16  1  0
 18 11  2  0
 19  5  1  0
 20 19  1  0
 21 22  2  0
 22 41  1  0
 23 22  1  0
 23 26  1  0
 24 25  1  0
 24 21  1  0
 25 23  2  0
 26 27  1  0
 27 28  2  0
 29 32  1  0
 29 28  1  0
 30 29  2  0
 31 30  1  0
 31 26  2  0
 32 33  1  0
 33 34  1  0
 34 35  2  0
 36 35  1  0
 36 40  1  0
 37 36  2  0
 38 33  2  0
 38 37  1  0
 39 38  1  0
 41 42  1  0
 42 45  1  0
 42 44  1  0
 43 41  2  0
 46 47  1  0
 46 21  1  0
 48 46  1  0
 50 49  1  0
 50 52  1  0
 51 50  2  0
 52 53  2  0
 54 52  1  0
 55 54  1  0
 56 67  2  0
 57 55  1  0
 57 62  1  0
 58 66  1  0
 58 68  1  0
 59 65  1  0
 59 61  1  0
 60 66  1  0
 61 62  2  0
 61 60  1  0
 63 64  1  0
 63 57  2  0
 64 59  2  0
 65 58  1  0
 66 56  1  0
 68 70  2  0
 69 68  1  0
 71 69  1  0
 72 81  2  0
 72 77  1  0
 73 69  1  0
 73 77  1  0
 74 73  1  0
 75 76  1  0
 75 74  1  0
 76 72  1  0
 77 78  2  0
 78 79  1  0
 80 79  2  0
 81 80  1  0
 82 56  1  0
 82 83  1  0
 82 92  1  0
 83 86  1  0
 84 88  1  0
 84 83  1  0
 85 84  2  0
 88 87  1  0
 90 88  1  0
 90 91  1  0
 90 89  1  0
 92 95  1  1
 92 93  1  0
 94 92  1  0
M  ISO  4  11 100  19 100  54 101  55 101
M  END
>  <TORSDO>  (24) 
F 21

>  <SCORE>  (24) 
-13.408

>  <name>  (24) 
23

>  <ligand_id>  (24) 
23

>  <original_smiles>  (24) 
[H]c1c([H])c([H])c2c(c1[H])C([H])([H])C([H])([H])C([H])([H])C2([H])N([H])C(=O)C1([H])N(C(=O)C([H])(N([H])C(=O)C([H])(N([H])C([H])([H])[H])C([H])([H])[H])C(C([H])([H])[H])(C([H])([H])[H])C([H])([H])[H])C([H])([H])c2c([H])c(OC([H])([H])C(=O)C(=O)C([H])([H])N([H])c3c(F)c([H])c([H])c(N([H])C(=O)N4C([H])([H])C([H])([H])C([H])([H])C([H])(n5nc(-c6c([H])c([H])c(Oc7c([H])c([H])c(F)c([H])c7F)c([H])c6[H])c(C(=O)N([H])[H])c5N([H])[H])C4([H])[H])c3F)c([H])c([H])c2C1([H])[H]

>  <smiles>  (24) 
[H]c1c([H])c([H])c2c(c1[H])C([H])([H])C([H])([H])C([H])([H])C2([H])N([H])C(=O)C1([H])N(C(=O)C([H])(N([H])C(=O)C([H])(N([H])C([H])([H])[H])C([H])([H])[H])C(C([H])([H])[H])(C([H])([H])[H])C([H])([H])[H])C([H])([H])c2c([H])c(OC([H])([H])C(=O)C(=O)C([H])([H])N([H])c3c(F)c([H])c([H])c(N([H])C(=O)N4C([H])([H])C([H])([H])C([H])([H])C([H])(n5nc(-c6c([H])c([H])c(Oc7c([H])c([H])c(F)c([H])c7F)c([H])c6[H])c(C(=O)N([H])[H])c5N([H])[H])C4([H])[H])c3F)c([H])c([H])c2C1([H])[H]

$$$$
24:0:0
     RDKit          3D

 96104  0  0  1  0  0  0  0  0999 V2000
  -28.8930  -23.3730   20.3030 C   0  0  0  0  0  0  0  0  0  0  0  0
  -29.1300  -22.0750   19.9490 N   0  0  0  0  0  0  0  0  0  0  0  0
  -28.6390  -23.7010   21.4630 O   0  0  0  0  0  0  0  0  0  0  0  0
  -29.3340  -21.9900   18.9620 H   0  0  0  0  0  0  0  0  0  0  0  0
  -28.7720  -25.6530   19.1210 C   0  0  0  0  0  3  0  0  0  0  0  0
  -28.9540  -24.2900   19.1360 C   0  0  0  0  0  0  0  0  0  0  0  0
  -29.2050  -23.7140   17.9460 O   0  0  0  0  0  0  0  0  0  0  0  0
  -29.2160  -24.3980   17.2900 H   0  0  0  0  0  0  0  0  0  0  0  0
  -28.5170  -26.5560   20.1430 O   0  0  0  0  0  0  0  0  0  0  0  0
  -24.7270  -31.8340   23.1690 C   0  0  0  0  0  0  0  0  0  0  0  0
  -27.3970  -27.3820   20.0590 C   0  0  0  0  0  0  0  0  0  0  0  0
  -23.5370  -30.4360   21.5150 C   0  0  0  0  0  3  0  0  0  0  0  0
  -25.0050  -28.9280   20.0670 C   0  0  0  0  0  0  0  0  0  0  0  0
  -26.0630  -30.8090   21.3210 C   0  0  0  0  0  2  0  0  0  0  0  0
  -26.1640  -29.4380   20.6660 C   0  0  0  0  0  0  0  0  0  0  0  0
  -27.3610  -28.6720   20.6630 C   0  0  0  0  0  3  0  0  0  0  0  0
  -26.2140  -26.9110   19.4430 C   0  0  0  0  0  3  0  0  0  0  0  0
  -25.0300  -27.6700   19.4470 C   0  0  0  0  0  3  0  0  0  0  0  0
  -23.7530  -29.7780   20.1280 C   0  0  0  0  0  2  0  0  0  0  0  0
  -24.7940  -31.0410   22.0610 N   0  0  0  0  0  0  0  0  0  0  0  0
  -23.6420  -32.0910   23.7100 O   0  0  0  0  0  0  0  0  0  0  0  0
  -22.8920  -29.4020   22.4680 C   0  0  0  0  0  0  0  0  0  0  0  0
  -21.5680  -29.2070   22.3410 N   0  0  0  0  0  0  0  0  0  0  0  0
  -23.5810  -28.7760   23.2780 O   0  0  0  0  0  0  0  0  0  0  0  0
  -21.0680  -29.7690   21.6660 H   0  0  0  0  0  0  0  0  0  0  0  0
  -18.2100  -27.9600   22.8290 C   0  0  0  0  0  0  0  0  0  0  0  0
  -20.7630  -28.2530   23.1050 C   0  0  0  0  0  3  0  0  0  0  0  0
  -20.8860  -26.8270   22.5210 C   0  0  0  0  0  2  0  0  0  0  0  0
  -19.7900  -26.4960   21.5010 C   0  0  0  0  0  2  0  0  0  0  0  0
  -18.4070  -26.6180   22.1450 C   0  0  0  0  0  2  0  0  0  0  0  0
  -19.3170  -28.7350   23.2660 C   0  0  0  0  0  0  0  0  0  0  0  0
  -19.0800  -29.9910   23.8650 C   0  0  0  0  0  3  0  0  0  0  0  0
  -17.7680  -30.4740   24.0320 C   0  0  0  0  0  3  0  0  0  0  0  0
  -16.6750  -29.6960   23.6110 C   0  0  0  0  0  3  0  0  0  0  0  0
  -16.8970  -28.4410   23.0160 C   0  0  0  0  0  3  0  0  0  0  0  0
  -26.0060  -32.4770   23.7930 C   0  0  0  0  0  3  0  0  0  0  0  0
  -26.5440  -31.6930   25.0530 C   0  0  1  0  0  0  0  0  0  0  0  0
  -25.4600  -31.4190   26.1220 C   0  0  0  0  0  1  0  0  0  0  0  0
  -27.1470  -30.3320   24.6320 C   0  0  0  0  0  1  0  0  0  0  0  0
  -27.6850  -32.4930   25.7240 C   0  0  0  0  0  1  0  0  0  0  0  0
  -25.6800  -33.8650   24.1470 N   0  0  0  0  0  0  0  0  0  0  0  0
  -25.9910  -34.9330   23.3990 C   0  0  0  0  0  0  0  0  0  0  0  0
  -26.6520  -34.8530   22.3600 O   0  0  0  0  0  0  0  0  0  0  0  0
  -25.1000  -34.0020   24.9610 H   0  0  0  0  0  0  0  0  0  0  0  0
  -24.2350  -36.7040   23.0810 C   0  0  0  0  0  1  0  0  0  0  0  0
  -25.4880  -36.3090   23.8790 C   0  0  0  0  0  3  0  0  0  0  0  0
  -27.6110  -37.2180   24.7110 C   0  0  0  0  0  1  0  0  0  0  0  0
  -26.5060  -37.3760   23.7700 N   0  0  0  0  0  0  0  0  0  0  0  0
  -26.0880  -38.2890   23.9220 H   0  0  0  0  0  0  0  0  0  0  0  0
  -27.5620  -20.5130   21.0150 C   0  0  0  0  0  1  0  0  0  0  0  0
  -29.0470  -20.7860   20.7090 C   0  0  0  0  0  3  0  0  0  0  0  0
  -30.9300  -18.6350   18.0800 C   0  0  0  0  0  3  0  0  0  0  0  0
  -30.3460  -19.7190   18.7590 C   0  0  0  0  0  3  0  0  0  0  0  0
  -30.9100  -17.3430   18.6320 C   0  0  0  0  0  3  0  0  0  0  0  0
  -29.7150  -19.5430   20.0130 C   0  0  0  0  0  0  0  0  0  0  0  0
  -30.3160  -17.0960   19.8920 C   0  0  0  0  0  0  0  0  0  0  0  0
  -29.7230  -18.2120   20.5740 C   0  0  0  0  0  0  0  0  0  0  0  0
  -29.1550  -17.9890   21.7850 F   0  0  0  0  0  0  0  0  0  0  0  0
  -30.9600  -14.6450   19.9930 C   0  0  0  0  0  0  0  0  0  0  0  0
  -30.6130  -12.4600   18.8940 C   0  0  0  0  0  2  0  0  0  0  0  0
  -29.6020  -12.6630   17.7450 C   0  0  0  0  0  2  0  0  0  0  0  0
  -28.1590  -12.5120   18.2650 C   0  0  0  0  0  2  0  0  0  0  0  0
  -27.8970  -13.3490   19.5460 C   0  0  0  0  0  3  0  0  0  0  0  0
  -29.0160  -13.1420   20.5900 C   0  0  0  0  0  2  0  0  0  0  0  0
  -30.2990  -13.4510   19.9430 N   0  0  0  0  0  0  0  0  0  0  0  0
  -32.1000  -14.7650   19.5320 O   0  0  0  0  0  0  0  0  0  0  0  0
  -30.2520  -15.7350   20.4130 N   0  0  0  0  0  0  0  0  0  0  0  0
  -29.4530  -15.5370   20.9970 H   0  0  0  0  0  0  0  0  0  0  0  0
  -25.5630  -13.9640   20.4320 C   0  0  0  0  0  0  0  0  0  0  0  0
  -24.5080  -13.1970   20.8450 C   0  0  0  0  0  0  0  0  0  0  0  0
  -24.9440  -11.8410   20.7440 C   0  0  0  0  0  0  0  0  0  0  0  0
  -26.5760  -13.0760   20.1050 N   0  0  0  0  0  0  0  0  0  0  0  0
  -26.2110  -11.7910   20.3530 N   0  0  0  0  0  0  0  0  0  0  0  0
  -24.2100  -10.5850   20.9410 C   0  0  0  0  0  0  0  0  0  0  0  0
  -24.6180   -9.6330   21.9030 C   0  0  0  0  0  3  0  0  0  0  0  0
  -23.8860   -8.4410   22.0870 C   0  0  0  0  0  3  0  0  0  0  0  0
  -22.7300   -8.1910   21.3100 C   0  0  0  0  0  0  0  0  0  0  0  0
  -22.3400   -9.1300   20.3390 C   0  0  0  0  0  3  0  0  0  0  0  0
  -23.0730  -10.3140   20.1530 C   0  0  0  0  0  3  0  0  0  0  0  0
  -21.9700   -7.0500   21.4020 O   0  0  0  0  0  0  0  0  0  0  0  0
  -21.7950   -6.3970   22.5970 C   0  0  0  0  0  0  0  0  0  0  0  0
  -21.2250   -7.0370   23.7190 C   0  0  0  0  0  3  0  0  0  0  0  0
  -20.9970   -6.3080   24.9030 C   0  0  0  0  0  3  0  0  0  0  0  0
  -21.3300   -4.9420   24.9660 C   0  0  0  0  0  0  0  0  0  0  0  0
  -21.8930   -4.3020   23.8480 C   0  0  0  0  0  3  0  0  0  0  0  0
  -22.1210   -5.0270   22.6650 C   0  0  0  0  0  0  0  0  0  0  0  0
  -22.6440   -4.4000   21.5830 F   0  0  0  0  0  0  0  0  0  0  0  0
  -21.1040   -4.2400   26.1010 F   0  0  0  0  0  0  0  0  0  0  0  0
  -23.1410  -13.6870   21.2220 C   0  0  0  0  0  0  0  0  0  0  0  0
  -22.4580  -12.9760   22.1120 N   0  0  0  0  0  0  0  0  0  0  0  0
  -22.6870  -14.7340   20.7620 O   0  0  0  0  0  0  0  0  0  0  0  0
  -22.8370  -12.1260   22.5040 H   0  0  0  0  0  0  0  0  0  0  0  0
  -21.5430  -13.2850   22.4080 H   0  0  0  0  0  0  0  0  0  0  0  0
  -25.7410  -15.3380   20.2860 N   0  0  0  0  0  0  0  0  0  0  0  0
  -24.9950  -16.0000   20.4700 H   0  0  0  0  0  0  0  0  0  0  0  0
  -26.5740  -15.7750   19.9140 H   0  0  0  0  0  0  0  0  0  0  0  0
  1  3  2  0
  2  1  1  0
  2 51  1  0
  4  2  1  0
  5  6  2  0
  5  9  1  0
  6  1  1  0
  7  6  1  0
  8  7  1  0
 10 21  2  0
 11  9  1  0
 11 16  1  0
 12 20  1  0
 12 22  1  0
 13 19  1  0
 13 15  1  0
 14 20  1  0
 15 14  1  0
 16 15  2  0
 17 18  1  0
 17 11  2  0
 18 13  2  0
 19 12  1  0
 20 10  1  0
 22 24  2  0
 23 22  1  0
 25 23  1  0
 26 35  2  0
 26 31  1  0
 27 23  1  0
 27 31  1  0
 28 27  1  0
 29 30  1  0
 29 28  1  0
 30 26  1  0
 31 32  2  0
 32 33  1  0
 34 33  2  0
 35 34  1  0
 36 10  1  0
 36 41  1  0
 36 37  1  0
 37 40  1  1
 37 38  1  0
 39 37  1  0
 41 44  1  0
 42 46  1  0
 42 41  1  0
 43 42  2  0
 46 45  1  0
 48 46  1  0
 48 49  1  0
 48 47  1  0
 51 50  1  0
 52 54  2  0
 52 53  1  0
 53 55  2  0
 54 56  1  0
 55 57  1  0
 55 51  1  0
 56 67  1  0
 56 57  2  0
 57 58  1  0
 59 67  1  0
 60 65  1  0
 61 62  1  0
 61 60  1  0
 63 62  1  0
 63 72  1  0
 63 64  1  0
 65 59  1  0
 65 64  1  0
 66 59  2  0
 67 68  1  0
 69 70  2  0
 70 89  1  0
 71 70  1  0
 71 74  1  0
 72 73  1  0
 72 69  1  0
 73 71  2  0
 74 75  1  0
 75 76  2  0
 77 80  1  0
 77 76  1  0
 78 77  2  0
 79 78  1  0
 79 74  2  0
 80 81  1  0
 81 86  2  0
 81 82  1  0
 82 83  2  0
 83 84  1  0
 84 88  1  0
 85 84  2  0
 86 85  1  0
 87 86  1  0
 89 90  1  0
 90 93  1  0
 90 92  1  0
 91 89  2  0
 94 69  1  0
 94 95  1  0
 96 94  1  0
M  ISO  4   5 101   9 101  59 100  67 100
M  END
>  <TORSDO>  (25) 
F 20

>  <SCORE>  (25) 
-12.735

>  <name>  (25) 
24

>  <ligand_id>  (25) 
24

>  <original_smiles>  (25) 
[H]OC(C(=O)N([H])C([H])(c1c([H])c([H])c([H])c(N([H])C(=O)N2C([H])([H])C([H])([H])C([H])([H])C([H])(n3nc(-c4c([H])c([H])c(Oc5c([H])c([H])c(F)c([H])c5F)c([H])c4[H])c(C(=O)N([H])[H])c3N([H])[H])C2([H])[H])c1F)C([H])([H])[H])=C([H])Oc1c([H])c([H])c2c(c1[H])C([H])([H])N(C(=O)C([H])(N([H])C(=O)C([H])(N([H])C([H])([H])[H])C([H])([H])[H])C(C([H])([H])[H])(C([H])([H])[H])C([H])([H])[H])C([H])(C(=O)N([H])C1([H])c3c([H])c([H])c([H])c([H])c3C([H])([H])C([H])([H])C1([H])[H])C2([H])[H]

>  <smiles>  (25) 
[H]OC(C(=O)N([H])C([H])(c1c([H])c([H])c([H])c(N([H])C(=O)N2C([H])([H])C([H])([H])C([H])([H])C([H])(n3nc(-c4c([H])c([H])c(Oc5c([H])c([H])c(F)c([H])c5F)c([H])c4[H])c(C(=O)N([H])[H])c3N([H])[H])C2([H])[H])c1F)C([H])([H])[H])=C([H])Oc1c([H])c([H])c2c(c1[H])C([H])([H])N(C(=O)C([H])(N([H])C(=O)C([H])(N([H])C([H])([H])[H])C([H])([H])[H])C(C([H])([H])[H])(C([H])([H])[H])C([H])([H])[H])C([H])(C(=O)N([H])C1([H])c3c([H])c([H])c([H])c([H])c3C([H])([H])C([H])([H])C1([H])[H])C2([H])[H]

$$$$
25:0:0
     RDKit          3D

 94102  0  0  1  0  0  0  0  0999 V2000
  -29.0490  -21.8410   20.4030 C   0  0  0  0  0  0  0  0  0  0  0  0
  -28.6580  -20.5480   20.2700 N   0  0  0  0  0  0  0  0  0  0  0  0
  -30.2250  -22.2060   20.5190 O   0  0  0  0  0  0  0  0  0  0  0  0
  -27.6620  -20.3980   20.3660 H   0  0  0  0  0  0  0  0  0  0  0  0
  -30.9100  -17.2100   18.8330 C   0  0  0  0  0  3  0  0  0  0  0  0
  -31.0400  -18.4760   18.2370 C   0  0  0  0  0  3  0  0  0  0  0  0
  -29.3150  -18.1330   20.4230 C   0  0  0  0  0  3  0  0  0  0  0  0
  -30.0530  -17.0050   19.9450 C   0  0  0  0  0  0  0  0  0  0  0  0
  -29.4530  -19.4300   19.8330 C   0  0  0  0  0  0  0  0  0  0  0  0
  -30.3170  -19.5750   18.7210 C   0  0  0  0  0  0  0  0  0  0  0  0
  -30.4280  -20.7530   18.0630 F   0  0  0  0  0  0  0  0  0  0  0  0
  -30.6620  -14.5880   20.3540 C   0  0  0  0  0  0  0  0  0  0  0  0
  -30.4060  -12.3730   19.3260 C   0  0  0  0  0  2  0  0  0  0  0  0
  -29.4580  -12.5180   18.1160 C   0  0  0  0  0  2  0  0  0  0  0  0
  -27.9940  -12.3490   18.5650 C   0  0  0  0  0  2  0  0  0  0  0  0
  -27.6370  -13.2370   19.7870 C   0  0  0  0  0  3  0  0  0  0  0  0
  -28.7010  -13.1010   20.9040 C   0  0  0  0  0  2  0  0  0  0  0  0
  -30.0140  -13.3910   20.3140 N   0  0  0  0  0  0  0  0  0  0  0  0
  -31.8520  -14.6880   20.0470 O   0  0  0  0  0  0  0  0  0  0  0  0
  -29.8790  -15.6860   20.5250 N   0  0  0  0  0  0  0  0  0  0  0  0
  -28.9700  -15.4990   20.9230 H   0  0  0  0  0  0  0  0  0  0  0  0
  -25.2480  -13.8340   20.5190 C   0  0  0  0  0  0  0  0  0  0  0  0
  -24.1850  -13.0580   20.8960 C   0  0  0  0  0  0  0  0  0  0  0  0
  -24.6510  -11.7080   20.8650 C   0  0  0  0  0  0  0  0  0  0  0  0
  -26.2930  -12.9550   20.2820 N   0  0  0  0  0  0  0  0  0  0  0  0
  -25.9410  -11.6730   20.5510 N   0  0  0  0  0  0  0  0  0  0  0  0
  -23.9310  -10.4420   21.0600 C   0  0  0  0  0  0  0  0  0  0  0  0
  -24.3740   -9.4790   21.9930 C   0  0  0  0  0  3  0  0  0  0  0  0
  -23.6580   -8.2770   22.1750 C   0  0  0  0  0  3  0  0  0  0  0  0
  -22.4850   -8.0300   21.4240 C   0  0  0  0  0  0  0  0  0  0  0  0
  -22.0590   -8.9820   20.4810 C   0  0  0  0  0  3  0  0  0  0  0  0
  -22.7770  -10.1770   20.2970 C   0  0  0  0  0  3  0  0  0  0  0  0
  -21.7410   -6.8800   21.5140 O   0  0  0  0  0  0  0  0  0  0  0  0
  -21.6980   -6.1390   22.6670 C   0  0  0  0  0  0  0  0  0  0  0  0
  -21.2580   -6.6880   23.8920 C   0  0  0  0  0  3  0  0  0  0  0  0
  -21.1650   -5.8710   25.0360 C   0  0  0  0  0  3  0  0  0  0  0  0
  -21.5020   -4.5060   24.9570 C   0  0  0  0  0  0  0  0  0  0  0  0
  -21.9360   -3.9570   23.7390 C   0  0  0  0  0  3  0  0  0  0  0  0
  -22.0300   -4.7700   22.5950 C   0  0  0  0  0  0  0  0  0  0  0  0
  -22.4280   -4.2310   21.4180 F   0  0  0  0  0  0  0  0  0  0  0  0
  -21.4050   -3.7200   26.0550 F   0  0  0  0  0  0  0  0  0  0  0  0
  -22.7870  -13.5320   21.1750 C   0  0  0  0  0  0  0  0  0  0  0  0
  -22.0650  -12.8300   22.0420 N   0  0  0  0  0  0  0  0  0  0  0  0
  -22.3440  -14.5580   20.6620 O   0  0  0  0  0  0  0  0  0  0  0  0
  -22.4360  -12.0030   22.4850 H   0  0  0  0  0  0  0  0  0  0  0  0
  -21.1290  -13.1320   22.2730 H   0  0  0  0  0  0  0  0  0  0  0  0
  -25.4110  -15.2040   20.3360 N   0  0  0  0  0  0  0  0  0  0  0  0
  -24.6520  -15.8660   20.4490 H   0  0  0  0  0  0  0  0  0  0  0  0
  -26.2570  -15.6280   19.9780 H   0  0  0  0  0  0  0  0  0  0  0  0
  -27.8590  -22.8610   20.4600 C   0  0  0  0  0  0  0  0  0  0  0  0
  -26.7080  -22.5180   20.1620 O   0  0  0  0  0  0  0  0  0  0  0  0
  -28.1260  -24.3140   20.9310 C   0  0  0  0  0  2  0  0  0  0  0  0
  -28.5200  -25.3320   19.8210 C   0  0  0  0  0  2  0  0  0  0  0  0
  -28.4580  -26.7180   20.2450 O   0  0  0  0  0  0  0  0  0  0  0  0
  -24.5740  -31.9060   23.2450 C   0  0  0  0  0  0  0  0  0  0  0  0
  -27.2680  -27.4320   20.2110 C   0  0  0  0  0  0  0  0  0  0  0  0
  -23.3980  -30.4990   21.5870 C   0  0  0  0  0  3  0  0  0  0  0  0
  -24.8740  -28.9630   20.1840 C   0  0  0  0  0  0  0  0  0  0  0  0
  -25.9290  -30.8540   21.4310 C   0  0  0  0  0  2  0  0  0  0  0  0
  -26.0240  -29.4800   20.7900 C   0  0  0  0  0  0  0  0  0  0  0  0
  -27.2220  -28.7250   20.7940 C   0  0  0  0  0  3  0  0  0  0  0  0
  -26.0900  -26.9320   19.6100 C   0  0  0  0  0  3  0  0  0  0  0  0
  -24.9040  -27.6900   19.5910 C   0  0  0  0  0  3  0  0  0  0  0  0
  -23.6300  -29.8220   20.2100 C   0  0  0  0  0  2  0  0  0  0  0  0
  -24.6520  -31.1020   22.1460 N   0  0  0  0  0  0  0  0  0  0  0  0
  -23.4840  -32.1770   23.7670 O   0  0  0  0  0  0  0  0  0  0  0  0
  -22.7350  -29.4770   22.5380 C   0  0  0  0  0  0  0  0  0  0  0  0
  -21.4100  -29.3030   22.4000 N   0  0  0  0  0  0  0  0  0  0  0  0
  -23.4080  -28.8440   23.3560 O   0  0  0  0  0  0  0  0  0  0  0  0
  -20.9310  -29.8640   21.7090 H   0  0  0  0  0  0  0  0  0  0  0  0
  -18.0210  -28.1470   22.8830 C   0  0  0  0  0  0  0  0  0  0  0  0
  -20.5800  -28.3680   23.1590 C   0  0  0  0  0  3  0  0  0  0  0  0
  -20.6650  -26.9430   22.5680 C   0  0  0  0  0  2  0  0  0  0  0  0
  -19.5600  -26.6460   21.5480 C   0  0  0  0  0  2  0  0  0  0  0  0
  -18.1780  -26.8040   22.1900 C   0  0  0  0  0  2  0  0  0  0  0  0
  -19.1480  -28.8880   23.3230 C   0  0  0  0  0  0  0  0  0  0  0  0
  -18.9470  -30.1470   23.9310 C   0  0  0  0  0  3  0  0  0  0  0  0
  -17.6490  -30.6630   24.1050 C   0  0  0  0  0  3  0  0  0  0  0  0
  -16.5350  -29.9170   23.6810 C   0  0  0  0  0  3  0  0  0  0  0  0
  -16.7210  -28.6620   23.0760 C   0  0  0  0  0  3  0  0  0  0  0  0
  -25.8480  -32.5410   23.8850 C   0  0  0  0  0  3  0  0  0  0  0  0
  -26.3420  -31.7770   25.1740 C   0  0  1  0  0  0  0  0  0  0  0  0
  -25.2300  -31.5480   26.2250 C   0  0  0  0  0  1  0  0  0  0  0  0
  -26.9280  -30.3960   24.8000 C   0  0  0  0  0  1  0  0  0  0  0  0
  -27.4860  -32.5740   25.8460 C   0  0  0  0  0  1  0  0  0  0  0  0
  -25.5340  -33.9420   24.1990 N   0  0  0  0  0  0  0  0  0  0  0  0
  -25.8800  -34.9880   23.4390 C   0  0  0  0  0  0  0  0  0  0  0  0
  -26.5710  -34.8760   22.4220 O   0  0  0  0  0  0  0  0  0  0  0  0
  -24.9250  -34.1030   24.9900 H   0  0  0  0  0  0  0  0  0  0  0  0
  -24.1650  -36.7800   23.0300 C   0  0  0  0  0  1  0  0  0  0  0  0
  -25.3850  -36.3800   23.8750 C   0  0  0  0  0  3  0  0  0  0  0  0
  -27.5000  -37.2640   24.7520 C   0  0  0  0  0  1  0  0  0  0  0  0
  -26.4210  -37.4300   23.7840 N   0  0  0  0  0  0  0  0  0  0  0  0
  -26.0140  -38.3520   23.9160 H   0  0  0  0  0  0  0  0  0  0  0  0
  1 50  1  0
  1  3  2  0
  2  4  1  0
  2  1  1  0
  5  8  1  0
  6 10  1  0
  6  5  2  0
  8  7  2  0
  8 20  1  0
  9  2  1  0
  9  7  1  0
 10  9  2  0
 11 10  1  0
 12 20  1  0
 13 18  1  0
 14 15  1  0
 14 13  1  0
 16 15  1  0
 16 25  1  0
 16 17  1  0
 18 12  1  0
 18 17  1  0
 19 12  2  0
 20 21  1  0
 22 23  2  0
 23 42  1  0
 24 23  1  0
 24 27  1  0
 25 22  1  0
 25 26  1  0
 26 24  2  0
 27 28  1  0
 28 29  2  0
 30 33  1  0
 30 29  1  0
 31 30  2  0
 32 31  1  0
 32 27  2  0
 33 34  1  0
 34 35  1  0
 35 36  2  0
 37 36  1  0
 37 41  1  0
 38 37  2  0
 39 34  2  0
 39 38  1  0
 40 39  1  0
 42 43  1  0
 43 46  1  0
 43 45  1  0
 44 42  2  0
 47 48  1  0
 47 22  1  0
 49 47  1  0
 50 52  1  0
 51 50  2  0
 53 54  1  0
 53 52  1  0
 55 66  2  0
 56 54  1  0
 56 61  1  0
 57 65  1  0
 57 67  1  0
 58 64  1  0
 58 60  1  0
 59 65  1  0
 60 61  2  0
 60 59  1  0
 62 56  2  0
 63 62  1  0
 63 58  2  0
 64 57  1  0
 65 55  1  0
 67 69  2  0
 68 67  1  0
 70 68  1  0
 71 80  2  0
 71 76  1  0
 72 68  1  0
 72 76  1  0
 73 72  1  0
 74 75  1  0
 74 73  1  0
 75 71  1  0
 76 77  2  0
 77 78  1  0
 79 78  2  0
 80 79  1  0
 81 55  1  0
 81 86  1  0
 81 82  1  0
 82 85  1  1
 82 83  1  0
 84 82  1  0
 86 89  1  0
 87 91  1  0
 87 86  1  0
 88 87  2  0
 91 90  1  0
 93 91  1  0
 93 94  1  0
 93 92  1  0
M  ISO  4  12 100  20 100  53 101  54 101
M  END
>  <TORSDO>  (26) 
F 20

>  <SCORE>  (26) 
-14.107

>  <name>  (26) 
25

>  <ligand_id>  (26) 
25

>  <original_smiles>  (26) 
[H]c1c([H])c([H])c2c(c1[H])C([H])([H])C([H])([H])C([H])([H])C2([H])N([H])C(=O)C1([H])N(C(=O)C([H])(N([H])C(=O)C([H])(N([H])C([H])([H])[H])C([H])([H])[H])C(C([H])([H])[H])(C([H])([H])[H])C([H])([H])[H])C([H])([H])c2c([H])c(OC([H])([H])C([H])([H])C(=O)C(=O)N([H])c3c([H])c(N([H])C(=O)N4C([H])([H])C([H])([H])C([H])([H])C([H])(n5nc(-c6c([H])c([H])c(Oc7c([H])c([H])c(F)c([H])c7F)c([H])c6[H])c(C(=O)N([H])[H])c5N([H])[H])C4([H])[H])c([H])c([H])c3F)c([H])c([H])c2C1([H])[H]

>  <smiles>  (26) 
[H]c1c([H])c([H])c2c(c1[H])C([H])([H])C([H])([H])C([H])([H])C2([H])N([H])C(=O)C1([H])N(C(=O)C([H])(N([H])C(=O)C([H])(N([H])C([H])([H])[H])C([H])([H])[H])C(C([H])([H])[H])(C([H])([H])[H])C([H])([H])[H])C([H])([H])c2c([H])c(OC([H])([H])C([H])([H])C(=O)C(=O)N([H])c3c([H])c(N([H])C(=O)N4C([H])([H])C([H])([H])C([H])([H])C([H])(n5nc(-c6c([H])c([H])c(Oc7c([H])c([H])c(F)c([H])c7F)c([H])c6[H])c(C(=O)N([H])[H])c5N([H])[H])C4([H])[H])c([H])c([H])c3F)c([H])c([H])c2C1([H])[H]

$$$$
26:0:0
     RDKit          3D

 97105  0  0  1  0  0  0  0  0999 V2000
  -28.5920  -22.3470   20.1130 C   0  0  0  0  0  0  0  0  0  0  0  0
  -29.4680  -21.3390   20.5250 N   0  0  0  0  0  0  0  0  0  0  0  0
  -27.5540  -22.0200   19.5330 O   0  0  0  0  0  0  0  0  0  0  0  0
  -30.1830  -21.6830   21.1540 H   0  0  0  0  0  0  0  0  0  0  0  0
  -30.5660  -18.5750   18.1050 C   0  0  0  0  0  3  0  0  0  0  0  0
  -29.6050  -18.6820   20.7020 C   0  0  0  0  0  3  0  0  0  0  0  0
  -30.2610  -19.8400   18.6520 C   0  0  0  0  0  0  0  0  0  0  0  0
  -29.7110  -19.9570   19.9680 C   0  0  0  0  0  0  0  0  0  0  0  0
  -29.9730  -17.3610   20.1580 C   0  0  0  0  0  0  0  0  0  0  0  0
  -30.4150  -17.3760   18.8150 C   0  0  0  0  0  0  0  0  0  0  0  0
  -30.6710  -16.2210   18.1540 F   0  0  0  0  0  0  0  0  0  0  0  0
  -30.5930  -14.8500   20.6390 C   0  0  0  0  0  0  0  0  0  0  0  0
  -30.4580  -12.5230   19.7240 C   0  0  0  0  0  2  0  0  0  0  0  0
  -29.5960  -12.5410   18.4420 C   0  0  0  0  0  2  0  0  0  0  0  0
  -28.1060  -12.3680   18.7900 C   0  0  0  0  0  2  0  0  0  0  0  0
  -27.6550  -13.2930   19.9510 C   0  0  0  0  0  3  0  0  0  0  0  0
  -28.6480  -13.2660   21.1340 C   0  0  0  0  0  2  0  0  0  0  0  0
  -29.9730  -13.6130   20.6080 N   0  0  0  0  0  0  0  0  0  0  0  0
  -31.7980  -14.9120   20.3780 O   0  0  0  0  0  0  0  0  0  0  0  0
  -29.8380  -16.0150   20.8210 N   0  0  0  0  0  0  0  0  0  0  0  0
  -28.9560  -15.8660   21.2840 H   0  0  0  0  0  0  0  0  0  0  0  0
  -25.2320  -13.8870   20.5350 C   0  0  0  0  0  0  0  0  0  0  0  0
  -24.1480  -13.1180   20.8630 C   0  0  0  0  0  0  0  0  0  0  0  0
  -24.6150  -11.7680   20.8870 C   0  0  0  0  0  0  0  0  0  0  0  0
  -26.2880  -13.0060   20.3750 N   0  0  0  0  0  0  0  0  0  0  0  0
  -25.9210  -11.7270   20.6500 N   0  0  0  0  0  0  0  0  0  0  0  0
  -23.8800  -10.5080   21.0650 C   0  0  0  0  0  0  0  0  0  0  0  0
  -24.2750   -9.5480   22.0220 C   0  0  0  0  0  3  0  0  0  0  0  0
  -23.5400   -8.3550   22.1870 C   0  0  0  0  0  3  0  0  0  0  0  0
  -22.3930   -8.1120   21.3940 C   0  0  0  0  0  0  0  0  0  0  0  0
  -22.0160   -9.0600   20.4270 C   0  0  0  0  0  3  0  0  0  0  0  0
  -22.7520  -10.2440   20.2600 C   0  0  0  0  0  3  0  0  0  0  0  0
  -21.6330   -6.9700   21.4670 O   0  0  0  0  0  0  0  0  0  0  0  0
  -21.5560   -6.2280   22.6190 C   0  0  0  0  0  0  0  0  0  0  0  0
  -21.1200   -6.7900   23.8380 C   0  0  0  0  0  3  0  0  0  0  0  0
  -20.9890   -5.9760   24.9810 C   0  0  0  0  0  3  0  0  0  0  0  0
  -21.2830   -4.6010   24.9050 C   0  0  0  0  0  0  0  0  0  0  0  0
  -21.7130   -4.0390   23.6900 C   0  0  0  0  0  3  0  0  0  0  0  0
  -21.8460   -4.8500   22.5490 C   0  0  0  0  0  0  0  0  0  0  0  0
  -22.2390   -4.3000   21.3760 F   0  0  0  0  0  0  0  0  0  0  0  0
  -21.1500   -3.8170   26.0000 F   0  0  0  0  0  0  0  0  0  0  0  0
  -22.7390  -13.5990   21.0450 C   0  0  0  0  0  0  0  0  0  0  0  0
  -21.9630  -12.9220   21.8850 N   0  0  0  0  0  0  0  0  0  0  0  0
  -22.3300  -14.6110   20.4770 O   0  0  0  0  0  0  0  0  0  0  0  0
  -22.3060  -12.1050   22.3680 H   0  0  0  0  0  0  0  0  0  0  0  0
  -21.0150  -13.2280   22.0500 H   0  0  0  0  0  0  0  0  0  0  0  0
  -25.4030  -15.2530   20.3390 N   0  0  0  0  0  0  0  0  0  0  0  0
  -24.6300  -15.9080   20.3890 H   0  0  0  0  0  0  0  0  0  0  0  0
  -26.2670  -15.6840   20.0310 H   0  0  0  0  0  0  0  0  0  0  0  0
  -30.5700  -20.9870   17.7540 C   0  0  0  0  0  0  0  0  0  0  0  0
  -32.0470  -21.2270   17.4670 C   0  0  0  0  0  1  0  0  0  0  0  0
  -29.7250  -21.7130   17.2280 O   0  0  0  0  0  0  0  0  0  0  0  0
  -28.0870  -24.8730   20.0550 C   0  0  0  0  0  3  0  0  0  0  0  0
  -28.9250  -23.8100   20.4030 C   0  0  0  0  0  0  0  0  0  0  0  0
  -30.0960  -24.0800   20.9970 O   0  0  0  0  0  0  0  0  0  0  0  0
  -30.1470  -25.0230   21.0880 H   0  0  0  0  0  0  0  0  0  0  0  0
  -28.2680  -26.3060   20.1760 O   0  0  0  0  0  0  0  0  0  0  0  0
  -24.5920  -31.8760   23.1680 C   0  0  0  0  0  0  0  0  0  0  0  0
  -27.1800  -27.2320   20.1120 C   0  0  0  0  0  0  0  0  0  0  0  0
  -23.3840  -30.4710   21.5420 C   0  0  0  0  0  3  0  0  0  0  0  0
  -24.8300  -28.9190   20.1040 C   0  0  0  0  0  0  0  0  0  0  0  0
  -25.9310  -30.7670   21.3530 C   0  0  0  0  0  2  0  0  0  0  0  0
  -26.0060  -29.3800   20.7090 C   0  0  0  0  0  0  0  0  0  0  0  0
  -27.1780  -28.5470   20.7110 C   0  0  0  0  0  3  0  0  0  0  0  0
  -25.9840  -26.8750   19.4430 C   0  0  0  0  0  3  0  0  0  0  0  0
  -24.8280  -27.6760   19.4610 C   0  0  0  0  0  3  0  0  0  0  0  0
  -23.5950  -29.7980   20.1610 C   0  0  0  0  0  2  0  0  0  0  0  0
  -24.6550  -31.0580   22.0760 N   0  0  0  0  0  0  0  0  0  0  0  0
  -23.5100  -32.1540   23.7060 O   0  0  0  0  0  0  0  0  0  0  0  0
  -22.7270  -29.4550   22.5080 C   0  0  0  0  0  0  0  0  0  0  0  0
  -21.3980  -29.2820   22.4010 N   0  0  0  0  0  0  0  0  0  0  0  0
  -23.4140  -28.8250   23.3180 O   0  0  0  0  0  0  0  0  0  0  0  0
  -20.9010  -29.8410   21.7220 H   0  0  0  0  0  0  0  0  0  0  0  0
  -18.0250  -28.0890   22.9490 C   0  0  0  0  0  0  0  0  0  0  0  0
  -20.5870  -28.3450   23.1820 C   0  0  0  0  0  3  0  0  0  0  0  0
  -20.6790  -26.9140   22.6050 C   0  0  0  0  0  2  0  0  0  0  0  0
  -19.5620  -26.5940   21.6060 C   0  0  0  0  0  2  0  0  0  0  0  0
  -18.1900  -26.7400   22.2700 C   0  0  0  0  0  2  0  0  0  0  0  0
  -19.1510  -28.8490   23.3630 C   0  0  0  0  0  0  0  0  0  0  0  0
  -18.9410  -30.1110   23.9620 C   0  0  0  0  0  3  0  0  0  0  0  0
  -17.6400  -30.6130   24.1480 C   0  0  0  0  0  3  0  0  0  0  0  0
  -16.5290  -29.8500   23.7480 C   0  0  0  0  0  3  0  0  0  0  0  0
  -16.7220  -28.5900   23.1550 C   0  0  0  0  0  3  0  0  0  0  0  0
  -25.8740  -32.5180   23.7800 C   0  0  0  0  0  3  0  0  0  0  0  0
  -26.4110  -31.7430   25.0450 C   0  0  1  0  0  0  0  0  0  0  0  0
  -25.3330  -31.4910   26.1250 C   0  0  0  0  0  1  0  0  0  0  0  0
  -26.9990  -30.3710   24.6410 C   0  0  0  0  0  1  0  0  0  0  0  0
  -27.5640  -32.5420   25.6980 C   0  0  0  0  0  1  0  0  0  0  0  0
  -25.5520  -33.9110   24.1270 N   0  0  0  0  0  0  0  0  0  0  0  0
  -25.8720  -34.9770   23.3820 C   0  0  0  0  0  0  0  0  0  0  0  0
  -26.5380  -34.8930   22.3470 O   0  0  0  0  0  0  0  0  0  0  0  0
  -24.9570  -34.0490   24.9310 H   0  0  0  0  0  0  0  0  0  0  0  0
  -24.1330  -36.7670   23.0550 C   0  0  0  0  0  1  0  0  0  0  0  0
  -25.3760  -36.3560   23.8610 C   0  0  0  0  0  3  0  0  0  0  0  0
  -27.5070  -37.2390   24.7050 C   0  0  0  0  0  1  0  0  0  0  0  0
  -26.4030  -37.4170   23.7650 N   0  0  0  0  0  0  0  0  0  0  0  0
  -25.9910  -38.3320   23.9290 H   0  0  0  0  0  0  0  0  0  0  0  0
  1 54  1  0
  1  2  1  0
  2  4  1  0
  3  1  2  0
  5  7  2  0
  5 10  1  0
  7  8  1  0
  8  2  1  0
  8  6  2  0
  9  6  1  0
  9 20  1  0
 10  9  2  0
 11 10  1  0
 12 20  1  0
 13 18  1  0
 14 15  1  0
 14 13  1  0
 16 15  1  0
 16 25  1  0
 16 17  1  0
 18 12  1  0
 18 17  1  0
 19 12  2  0
 20 21  1  0
 22 23  2  0
 23 24  1  0
 23 42  1  0
 24 27  1  0
 25 22  1  0
 25 26  1  0
 26 24  2  0
 27 28  1  0
 28 29  2  0
 30 33  1  0
 30 29  1  0
 31 30  2  0
 32 31  1  0
 32 27  2  0
 33 34  1  0
 34 35  1  0
 35 36  2  0
 37 36  1  0
 37 41  1  0
 38 37  2  0
 39 34  2  0
 39 38  1  0
 40 39  1  0
 42 43  1  0
 43 46  1  0
 43 45  1  0
 44 42  2  0
 47 48  1  0
 47 22  1  0
 49 47  1  0
 50  7  1  0
 51 50  1  0
 52 50  2  0
 53 57  1  0
 53 54  2  0
 54 55  1  0
 55 56  1  0
 58 69  2  0
 59 57  1  0
 59 64  1  0
 60 68  1  0
 60 70  1  0
 61 67  1  0
 61 63  1  0
 62 68  1  0
 63 64  2  0
 63 62  1  0
 65 66  1  0
 65 59  2  0
 66 61  2  0
 67 60  1  0
 68 58  1  0
 70 72  2  0
 71 70  1  0
 73 71  1  0
 74 83  2  0
 74 79  1  0
 75 71  1  0
 75 79  1  0
 76 75  1  0
 77 78  1  0
 77 76  1  0
 78 74  1  0
 79 80  2  0
 80 81  1  0
 82 81  2  0
 83 82  1  0
 84 58  1  0
 84 89  1  0
 84 85  1  0
 85 88  1  1
 85 86  1  0
 87 85  1  0
 89 92  1  0
 90 94  1  0
 90 89  1  0
 91 90  2  0
 94 93  1  0
 96 94  1  0
 96 97  1  0
 96 95  1  0
M  ISO  4  12 100  20 100  53 101  57 101
M  END
>  <TORSDO>  (27) 
F 20

>  <SCORE>  (27) 
-14.033

>  <name>  (27) 
26

>  <ligand_id>  (27) 
26

>  <original_smiles>  (27) 
[H]OC(C(=O)N([H])c1c([H])c(N([H])C(=O)N2C([H])([H])C([H])([H])C([H])([H])C([H])(n3nc(-c4c([H])c([H])c(Oc5c([H])c([H])c(F)c([H])c5F)c([H])c4[H])c(C(=O)N([H])[H])c3N([H])[H])C2([H])[H])c(F)c([H])c1C(=O)C([H])([H])[H])=C([H])Oc1c([H])c([H])c2c(c1[H])C([H])([H])N(C(=O)C([H])(N([H])C(=O)C([H])(N([H])C([H])([H])[H])C([H])([H])[H])C(C([H])([H])[H])(C([H])([H])[H])C([H])([H])[H])C([H])(C(=O)N([H])C1([H])c3c([H])c([H])c([H])c([H])c3C([H])([H])C([H])([H])C1([H])[H])C2([H])[H]

>  <smiles>  (27) 
[H]OC(C(=O)N([H])c1c([H])c(N([H])C(=O)N2C([H])([H])C([H])([H])C([H])([H])C([H])(n3nc(-c4c([H])c([H])c(Oc5c([H])c([H])c(F)c([H])c5F)c([H])c4[H])c(C(=O)N([H])[H])c3N([H])[H])C2([H])[H])c(F)c([H])c1C(=O)C([H])([H])[H])=C([H])Oc1c([H])c([H])c2c(c1[H])C([H])([H])N(C(=O)C([H])(N([H])C(=O)C([H])(N([H])C([H])([H])[H])C([H])([H])[H])C(C([H])([H])[H])(C([H])([H])[H])C([H])([H])[H])C([H])(C(=O)N([H])C1([H])c3c([H])c([H])c([H])c([H])c3C([H])([H])C([H])([H])C1([H])[H])C2([H])[H]

$$$$
27:0:0
     RDKit          3D

 95103  0  0  1  0  0  0  0  0999 V2000
  -28.5840  -20.5880   20.7850 N   0  0  0  0  0  0  0  0  0  0  0  0
  -28.3880  -20.4050   19.8040 H   0  0  0  0  0  0  0  0  0  0  0  0
  -32.1290  -18.8010   22.2810 C   0  0  0  0  0  3  0  0  0  0  0  0
  -31.5390  -19.8630   22.9840 C   0  0  0  0  0  3  0  0  0  0  0  0
  -31.5430  -18.3160   21.0930 C   0  0  0  0  0  0  0  0  0  0  0  0
  -30.3190  -18.8780   20.6300 C   0  0  0  0  0  0  0  0  0  0  0  0
  -29.7440  -19.9870   21.3160 C   0  0  0  0  0  0  0  0  0  0  0  0
  -30.3610  -20.4610   22.5060 C   0  0  0  0  0  0  0  0  0  0  0  0
  -29.6330  -18.3150   19.3840 C   0  0  0  0  0  1  0  0  0  0  0  0
  -29.8350  -21.4930   23.2120 F   0  0  0  0  0  0  0  0  0  0  0  0
  -32.2990  -17.2440   20.3110 C   0  0  0  0  0  2  0  0  0  0  0  0
  -32.0920  -14.8790   19.6090 C   0  0  0  0  0  0  0  0  0  0  0  0
  -31.6640  -12.5370   18.9540 C   0  0  0  0  0  2  0  0  0  0  0  0
  -30.6940  -12.4720   17.7590 C   0  0  0  0  0  2  0  0  0  0  0  0
  -29.2300  -12.5050   18.2390 C   0  0  0  0  0  2  0  0  0  0  0  0
  -28.9590  -13.6420   19.2610 C   0  0  0  0  0  3  0  0  0  0  0  0
  -30.0300  -13.6400   20.3730 C   0  0  0  0  0  2  0  0  0  0  0  0
  -31.3530  -13.7460   19.7320 N   0  0  0  0  0  0  0  0  0  0  0  0
  -33.1330  -14.9320   18.9480 O   0  0  0  0  0  0  0  0  0  0  0  0
  -31.6170  -15.9550   20.2510 N   0  0  0  0  0  0  0  0  0  0  0  0
  -30.7650  -15.8470   20.7840 H   0  0  0  0  0  0  0  0  0  0  0  0
  -26.7230  -14.5670   20.1390 C   0  0  0  0  0  0  0  0  0  0  0  0
  -25.5750  -13.9450   20.5520 C   0  0  0  0  0  0  0  0  0  0  0  0
  -25.8260  -12.5430   20.4420 C   0  0  0  0  0  0  0  0  0  0  0  0
  -27.6090  -13.5520   19.8130 N   0  0  0  0  0  0  0  0  0  0  0  0
  -27.0740  -12.3270   20.0470 N   0  0  0  0  0  0  0  0  0  0  0  0
  -24.9310  -11.3940   20.6360 C   0  0  0  0  0  0  0  0  0  0  0  0
  -25.2330  -10.3720   21.5610 C   0  0  0  0  0  3  0  0  0  0  0  0
  -24.3480   -9.2860   21.7410 C   0  0  0  0  0  3  0  0  0  0  0  0
  -23.1490   -9.2180   20.9940 C   0  0  0  0  0  0  0  0  0  0  0  0
  -22.8650  -10.2270   20.0590 C   0  0  0  0  0  3  0  0  0  0  0  0
  -23.7480  -11.3040   19.8770 C   0  0  0  0  0  3  0  0  0  0  0  0
  -22.2420   -8.1880   21.0840 O   0  0  0  0  0  0  0  0  0  0  0  0
  -22.0260   -7.5190   22.2630 C   0  0  0  0  0  0  0  0  0  0  0  0
  -21.6080   -8.1890   23.4330 C   0  0  0  0  0  3  0  0  0  0  0  0
  -21.3300   -7.4560   24.6030 C   0  0  0  0  0  3  0  0  0  0  0  0
  -21.4610   -6.0540   24.6030 C   0  0  0  0  0  0  0  0  0  0  0  0
  -21.8730   -5.3840   23.4370 C   0  0  0  0  0  3  0  0  0  0  0  0
  -22.1530   -6.1160   22.2700 C   0  0  0  0  0  0  0  0  0  0  0  0
  -22.5280   -5.4640   21.1430 F   0  0  0  0  0  0  0  0  0  0  0  0
  -21.1870   -5.3480   25.7240 F   0  0  0  0  0  0  0  0  0  0  0  0
  -24.2850  -14.6110   20.9360 C   0  0  0  0  0  0  0  0  0  0  0  0
  -23.5300  -14.0050   21.8450 N   0  0  0  0  0  0  0  0  0  0  0  0
  -23.9620  -15.7010   20.4650 O   0  0  0  0  0  0  0  0  0  0  0  0
  -23.8060  -13.1210   22.2470 H   0  0  0  0  0  0  0  0  0  0  0  0
  -22.6650  -14.4330   22.1440 H   0  0  0  0  0  0  0  0  0  0  0  0
  -27.0790  -15.9050   19.9970 N   0  0  0  0  0  0  0  0  0  0  0  0
  -26.4220  -16.6600   20.1670 H   0  0  0  0  0  0  0  0  0  0  0  0
  -27.9660  -16.2270   19.6300 H   0  0  0  0  0  0  0  0  0  0  0  0
  -28.2220  -21.9500   21.1820 C   0  0  0  0  0  2  0  0  0  0  0  0
  -27.8290  -22.8400   19.9940 C   0  0  0  0  0  0  0  0  0  0  0  0
  -27.6960  -22.3630   18.8600 O   0  0  0  0  0  0  0  0  0  0  0  0
  -27.6090  -24.3300   20.2890 C   0  0  0  0  0  2  0  0  0  0  0  0
  -27.9110  -25.2680   19.0960 C   0  0  0  0  0  2  0  0  0  0  0  0
  -27.9680  -26.6450   19.4970 O   0  0  0  0  0  0  0  0  0  0  0  0
  -24.5300  -31.6740   23.1780 C   0  0  0  0  0  0  0  0  0  0  0  0
  -26.8040  -27.3800   19.6130 C   0  0  0  0  0  0  0  0  0  0  0  0
  -23.1760  -30.4560   21.5050 C   0  0  0  0  0  3  0  0  0  0  0  0
  -24.4800  -28.9740   19.8910 C   0  0  0  0  0  0  0  0  0  0  0  0
  -25.7040  -30.7190   21.1990 C   0  0  0  0  0  2  0  0  0  0  0  0
  -25.6910  -29.4010   20.4500 C   0  0  0  0  0  0  0  0  0  0  0  0
  -26.8540  -28.6090   20.3110 C   0  0  0  0  0  3  0  0  0  0  0  0
  -25.5680  -26.9640   19.0610 C   0  0  0  0  0  3  0  0  0  0  0  0
  -24.4130  -27.7540   19.1990 C   0  0  0  0  0  3  0  0  0  0  0  0
  -23.2840  -29.8820   20.0690 C   0  0  0  0  0  2  0  0  0  0  0  0
  -24.4920  -30.9600   22.0190 N   0  0  0  0  0  0  0  0  0  0  0  0
  -23.4920  -31.9490   23.7960 O   0  0  0  0  0  0  0  0  0  0  0  0
  -22.5330  -29.3900   22.4180 C   0  0  0  0  0  0  0  0  0  0  0  0
  -21.2060  -29.2170   22.2930 N   0  0  0  0  0  0  0  0  0  0  0  0
  -23.2210  -28.7230   23.1940 O   0  0  0  0  0  0  0  0  0  0  0  0
  -20.7130  -29.8070   21.6390 H   0  0  0  0  0  0  0  0  0  0  0  0
  -17.8490  -27.9440   22.6790 C   0  0  0  0  0  0  0  0  0  0  0  0
  -20.3930  -28.2460   23.0240 C   0  0  0  0  0  3  0  0  0  0  0  0
  -20.5410  -26.8310   22.4200 C   0  0  0  0  0  2  0  0  0  0  0  0
  -19.4710  -26.5090   21.3700 C   0  0  0  0  0  2  0  0  0  0  0  0
  -18.0700  -26.6130   21.9790 C   0  0  0  0  0  2  0  0  0  0  0  0
  -18.9400  -28.7170   23.1560 C   0  0  0  0  0  0  0  0  0  0  0  0
  -18.6800  -29.9620   23.7680 C   0  0  0  0  0  3  0  0  0  0  0  0
  -17.3610  -30.4350   23.9100 C   0  0  0  0  0  3  0  0  0  0  0  0
  -16.2840  -29.6570   23.4550 C   0  0  0  0  0  3  0  0  0  0  0  0
  -16.5290  -28.4140   22.8430 C   0  0  0  0  0  3  0  0  0  0  0  0
  -25.8750  -32.1980   23.7710 C   0  0  0  0  0  3  0  0  0  0  0  0
  -25.6460  -33.5730   24.2350 N   0  0  0  0  0  0  0  0  0  0  0  0
  -26.0130  -34.6720   23.5640 C   0  0  0  0  0  0  0  0  0  0  0  0
  -26.6520  -34.6320   22.5080 O   0  0  0  0  0  0  0  0  0  0  0  0
  -25.0740  -33.6810   25.0590 H   0  0  0  0  0  0  0  0  0  0  0  0
  -24.3720  -36.5690   23.4200 C   0  0  0  0  0  1  0  0  0  0  0  0
  -25.6090  -36.0320   24.1590 C   0  0  0  0  0  3  0  0  0  0  0  0
  -27.8000  -36.7260   25.0150 C   0  0  0  0  0  1  0  0  0  0  0  0
  -26.6900  -37.0380   24.1190 N   0  0  0  0  0  0  0  0  0  0  0  0
  -26.3360  -37.9580   24.3640 H   0  0  0  0  0  0  0  0  0  0  0  0
  -26.4330  -31.3000   24.9420 C   0  0  1  0  0  0  0  0  0  0  0  0
  -25.3950  -31.0080   26.0500 C   0  0  0  0  0  1  0  0  0  0  0  0
  -26.9370  -29.9430   24.4000 C   0  0  0  0  0  1  0  0  0  0  0  0
  -27.6530  -31.9910   25.5950 C   0  0  0  0  0  1  0  0  0  0  0  0
  1 50  1  0
  1  7  1  0
  2  1  1  0
  3  4  1  0
  5  3  2  0
  6  5  1  0
  6  7  2  0
  7  8  1  0
  8  4  2  0
  8 10  1  0
  9  6  1  0
 11  5  1  0
 12 18  1  0
 12 20  1  0
 13 18  1  0
 14 15  1  0
 14 13  1  0
 16 15  1  0
 16 25  1  0
 16 17  1  0
 18 17  1  0
 19 12  2  0
 20 11  1  0
 20 21  1  0
 22 23  2  0
 23 42  1  0
 24 23  1  0
 24 27  1  0
 25 26  1  0
 25 22  1  0
 26 24  2  0
 27 28  1  0
 28 29  2  0
 30 33  1  0
 30 29  1  0
 31 30  2  0
 32 31  1  0
 32 27  2  0
 33 34  1  0
 34 39  2  0
 34 35  1  0
 35 36  2  0
 37 36  1  0
 37 41  1  0
 38 37  2  0
 39 38  1  0
 40 39  1  0
 42 43  1  0
 43 46  1  0
 43 45  1  0
 44 42  2  0
 47 22  1  0
 47 48  1  0
 49 47  1  0
 51 53  1  0
 51 50  1  0
 52 51  2  0
 54 55  1  0
 54 53  1  0
 55 57  1  0
 56 67  2  0
 57 62  1  0
 58 66  1  0
 58 68  1  0
 59 65  1  0
 59 61  1  0
 60 66  1  0
 61 60  1  0
 62 61  2  0
 63 64  1  0
 63 57  2  0
 64 59  2  0
 65 58  1  0
 66 56  1  0
 68 70  2  0
 69 68  1  0
 71 69  1  0
 72 81  2  0
 72 77  1  0
 73 69  1  0
 73 77  1  0
 74 73  1  0
 75 76  1  0
 75 74  1  0
 76 72  1  0
 77 78  2  0
 78 79  1  0
 80 79  2  0
 81 80  1  0
 82 56  1  0
 82 83  1  0
 82 92  1  0
 83 86  1  0
 84 88  1  0
 84 83  1  0
 85 84  2  0
 88 87  1  0
 90 88  1  0
 90 91  1  0
 90 89  1  0
 92 95  1  1
 92 93  1  0
 94 92  1  0
M  ISO  4  12 100  20 100  54 101  55 101
M  END
>  <TORSDO>  (28) 
F 22

>  <SCORE>  (28) 
-11.119

>  <name>  (28) 
27

>  <ligand_id>  (28) 
27

>  <original_smiles>  (28) 
[H]c1c([H])c([H])c2c(c1[H])C([H])([H])C([H])([H])C([H])([H])C2([H])N([H])C(=O)C1([H])N(C(=O)C([H])(N([H])C(=O)C([H])(N([H])C([H])([H])[H])C([H])([H])[H])C(C([H])([H])[H])(C([H])([H])[H])C([H])([H])[H])C([H])([H])c2c([H])c(OC([H])([H])C([H])([H])C(=O)C([H])([H])N([H])c3c(F)c([H])c([H])c(C([H])([H])N([H])C(=O)N4C([H])([H])C([H])([H])C([H])([H])C([H])(n5nc(-c6c([H])c([H])c(Oc7c([H])c([H])c(F)c([H])c7F)c([H])c6[H])c(C(=O)N([H])[H])c5N([H])[H])C4([H])[H])c3C([H])([H])[H])c([H])c([H])c2C1([H])[H]

>  <smiles>  (28) 
[H]c1c([H])c([H])c2c(c1[H])C([H])([H])C([H])([H])C([H])([H])C2([H])N([H])C(=O)C1([H])N(C(=O)C([H])(N([H])C(=O)C([H])(N([H])C([H])([H])[H])C([H])([H])[H])C(C([H])([H])[H])(C([H])([H])[H])C([H])([H])[H])C([H])([H])c2c([H])c(OC([H])([H])C([H])([H])C(=O)C([H])([H])N([H])c3c(F)c([H])c([H])c(C([H])([H])N([H])C(=O)N4C([H])([H])C([H])([H])C([H])([H])C([H])(n5nc(-c6c([H])c([H])c(Oc7c([H])c([H])c(F)c([H])c7F)c([H])c6[H])c(C(=O)N([H])[H])c5N([H])[H])C4([H])[H])c3C([H])([H])[H])c([H])c([H])c2C1([H])[H]

$$$$
28:0:0
     RDKit          3D

 96104  0  0  1  0  0  0  0  0999 V2000
  -29.3220  -18.7440   20.0080 C   0  0  0  0  0  3  0  0  0  0  0  0
  -28.9350  -21.1500   19.7600 C   0  0  0  0  0  3  0  0  0  0  0  0
  -28.4640  -19.8600   20.0860 C   0  0  0  0  0  0  0  0  0  0  0  0
  -30.6610  -18.8980   19.6000 C   0  0  0  0  0  0  0  0  0  0  0  0
  -30.2720  -21.3710   19.3430 C   0  0  0  0  0  0  0  0  0  0  0  0
  -31.0630  -20.2050   19.2800 N   0  0  0  0  0  0  0  0  0  0  0  0
  -32.0360  -20.3200   18.9760 H   0  0  0  0  0  0  0  0  0  0  0  0
  -30.3740  -24.0160   19.4560 C   0  0  0  0  0  0  0  0  0  0  0  0
  -30.6920  -22.7530   18.9360 N   0  0  0  0  0  0  0  0  0  0  0  0
  -29.8280  -24.1400   20.5620 O   0  0  0  0  0  0  0  0  0  0  0  0
  -31.2540  -22.7900   18.1030 H   0  0  0  0  0  0  0  0  0  0  0  0
  -32.2060  -25.5020   18.3540 C   0  0  0  0  0  1  0  0  0  0  0  0
  -30.7030  -25.3840   18.6590 C   0  0  0  0  0  3  0  0  0  0  0  0
  -30.3540  -26.7070   19.3140 O   0  0  0  0  0  0  0  0  0  0  0  0
  -25.4310  -30.3820   23.1990 C   0  0  0  0  0  0  0  0  0  0  0  0
  -29.0610  -27.2950   19.3540 C   0  0  0  0  0  0  0  0  0  0  0  0
  -24.5980  -29.1420   21.2350 C   0  0  0  0  0  3  0  0  0  0  0  0
  -26.3770  -28.3240   19.5840 C   0  0  0  0  0  0  0  0  0  0  0  0
  -26.9990  -30.0540   21.2650 C   0  0  0  0  0  2  0  0  0  0  0  0
  -27.4040  -28.9080   20.3360 C   0  0  0  0  0  0  0  0  0  0  0  0
  -28.7400  -28.4050   20.2150 C   0  0  0  0  0  3  0  0  0  0  0  0
  -27.9880  -26.7760   18.5950 C   0  0  0  0  0  3  0  0  0  0  0  0
  -26.6730  -27.2720   18.7060 C   0  0  0  0  0  3  0  0  0  0  0  0
  -24.9680  -28.8610   19.7560 C   0  0  0  0  0  2  0  0  0  0  0  0
  -25.6900  -29.8700   21.9590 N   0  0  0  0  0  0  0  0  0  0  0  0
  -24.3120  -30.2770   23.7200 O   0  0  0  0  0  0  0  0  0  0  0  0
  -24.1930  -27.8130   21.9160 C   0  0  0  0  0  0  0  0  0  0  0  0
  -22.9890  -27.3090   21.5970 N   0  0  0  0  0  0  0  0  0  0  0  0
  -24.9650  -27.2470   22.6960 O   0  0  0  0  0  0  0  0  0  0  0  0
  -22.4080  -27.8330   20.9570 H   0  0  0  0  0  0  0  0  0  0  0  0
  -20.1140  -25.1220   21.4060 C   0  0  0  0  0  0  0  0  0  0  0  0
  -22.4280  -26.0490   22.0900 C   0  0  0  0  0  3  0  0  0  0  0  0
  -23.0230  -24.8390   21.3320 C   0  0  0  0  0  2  0  0  0  0  0  0
  -22.1780  -24.4110   20.1270 C   0  0  0  0  0  2  0  0  0  0  0  0
  -20.7630  -24.0310   20.5710 C   0  0  0  0  0  2  0  0  0  0  0  0
  -20.8950  -26.0780   22.1050 C   0  0  0  0  0  0  0  0  0  0  0  0
  -20.2430  -27.0920   22.8390 C   0  0  0  0  0  3  0  0  0  0  0  0
  -18.8370  -27.1570   22.8840 C   0  0  0  0  0  3  0  0  0  0  0  0
  -18.0690  -26.2000   22.2000 C   0  0  0  0  0  3  0  0  0  0  0  0
  -18.7060  -25.1830   21.4660 C   0  0  0  0  0  3  0  0  0  0  0  0
  -26.5240  -31.1420   24.0110 C   0  0  0  0  0  3  0  0  0  0  0  0
  -26.9760  -30.3750   25.3140 C   0  0  1  0  0  0  0  0  0  0  0  0
  -25.8000  -29.9460   26.2230 C   0  0  0  0  0  1  0  0  0  0  0  0
  -27.7780  -29.1030   24.9530 C   0  0  0  0  0  1  0  0  0  0  0  0
  -27.9200  -31.2720   26.1490 C   0  0  0  0  0  1  0  0  0  0  0  0
  -25.9830  -32.4660   24.3530 N   0  0  0  0  0  0  0  0  0  0  0  0
  -26.3240  -33.6110   23.7460 C   0  0  0  0  0  0  0  0  0  0  0  0
  -27.1910  -33.6700   22.8710 O   0  0  0  0  0  0  0  0  0  0  0  0
  -25.2260  -32.4840   25.0200 H   0  0  0  0  0  0  0  0  0  0  0  0
  -24.5030  -35.2430   23.1470 C   0  0  0  0  0  1  0  0  0  0  0  0
  -25.5870  -34.8930   24.1800 C   0  0  0  0  0  3  0  0  0  0  0  0
  -27.3820  -35.9120   25.5120 C   0  0  0  0  0  1  0  0  0  0  0  0
  -26.4850  -36.0530   24.3680 N   0  0  0  0  0  0  0  0  0  0  0  0
  -25.9480  -36.9090   24.4900 H   0  0  0  0  0  0  0  0  0  0  0  0
  -27.1360  -19.6830   20.4810 N   0  0  0  0  0  0  0  0  0  0  0  0
  -26.8990  -18.8240   20.9620 H   0  0  0  0  0  0  0  0  0  0  0  0
  -26.6510  -20.4850   20.8620 H   0  0  0  0  0  0  0  0  0  0  0  0
  -31.6250  -17.6210   19.5600 C   0  0  0  0  0  3  0  0  0  0  0  0
  -31.9120  -15.0450   19.9990 C   0  0  0  0  0  0  0  0  0  0  0  0
  -31.6270  -12.6820   19.2350 C   0  0  0  0  0  2  0  0  0  0  0  0
  -30.7280  -12.6780   17.9780 C   0  0  0  0  0  2  0  0  0  0  0  0
  -29.2410  -12.6190   18.3770 C   0  0  0  0  0  2  0  0  0  0  0  0
  -28.8820  -13.6350   19.4950 C   0  0  0  0  0  3  0  0  0  0  0  0
  -29.9080  -13.6130   20.6500 C   0  0  0  0  0  2  0  0  0  0  0  0
  -31.2300  -13.8480   20.0580 N   0  0  0  0  0  0  0  0  0  0  0  0
  -33.1060  -15.0500   19.6900 O   0  0  0  0  0  0  0  0  0  0  0  0
  -31.1910  -16.2320   20.0520 N   0  0  0  0  0  0  0  0  0  0  0  0
  -30.2140  -16.1350   20.2760 H   0  0  0  0  0  0  0  0  0  0  0  0
  -26.5470  -14.4160   20.2080 C   0  0  0  0  0  0  0  0  0  0  0  0
  -25.4190  -13.7320   20.5700 C   0  0  0  0  0  0  0  0  0  0  0  0
  -25.7690  -12.3470   20.5360 C   0  0  0  0  0  0  0  0  0  0  0  0
  -27.5160  -13.4550   19.9750 N   0  0  0  0  0  0  0  0  0  0  0  0
  -27.0540  -12.2030   20.2370 N   0  0  0  0  0  0  0  0  0  0  0  0
  -24.9370  -11.1500   20.7150 C   0  0  0  0  0  0  0  0  0  0  0  0
  -25.2410  -10.1810   21.6980 C   0  0  0  0  0  3  0  0  0  0  0  0
  -24.4140   -9.0480   21.8650 C   0  0  0  0  0  3  0  0  0  0  0  0
  -23.2710   -8.8770   21.0480 C   0  0  0  0  0  0  0  0  0  0  0  0
  -22.9880   -9.8310   20.0560 C   0  0  0  0  0  3  0  0  0  0  0  0
  -23.8130  -10.9570   19.8880 C   0  0  0  0  0  3  0  0  0  0  0  0
  -22.4270   -7.7950   21.1210 O   0  0  0  0  0  0  0  0  0  0  0  0
  -22.1670   -7.1630   22.3110 C   0  0  0  0  0  0  0  0  0  0  0  0
  -21.5640   -7.8350   23.3960 C   0  0  0  0  0  3  0  0  0  0  0  0
  -21.2510   -7.1290   24.5750 C   0  0  0  0  0  3  0  0  0  0  0  0
  -21.5320   -5.7530   24.6680 C   0  0  0  0  0  0  0  0  0  0  0  0
  -22.1300   -5.0810   23.5870 C   0  0  0  0  0  3  0  0  0  0  0  0
  -22.4430   -5.7840   22.4100 C   0  0  0  0  0  0  0  0  0  0  0  0
  -22.9980   -5.1280   21.3630 F   0  0  0  0  0  0  0  0  0  0  0  0
  -21.2250   -5.0730   25.7970 F   0  0  0  0  0  0  0  0  0  0  0  0
  -24.0650  -14.3230   20.8310 C   0  0  0  0  0  0  0  0  0  0  0  0
  -23.2850  -13.7030   21.7090 N   0  0  0  0  0  0  0  0  0  0  0  0
  -23.7110  -15.3690   20.2910 O   0  0  0  0  0  0  0  0  0  0  0  0
  -23.5850  -12.8560   22.1690 H   0  0  0  0  0  0  0  0  0  0  0  0
  -22.3740  -14.0810   21.9250 H   0  0  0  0  0  0  0  0  0  0  0  0
  -26.8200  -15.7680   20.0320 N   0  0  0  0  0  0  0  0  0  0  0  0
  -26.0880  -16.4660   20.1050 H   0  0  0  0  0  0  0  0  0  0  0  0
  -27.6830  -16.1390   19.6580 H   0  0  0  0  0  0  0  0  0  0  0  0
  1  3  2  0
  2  3  1  0
  3 55  1  0
  4  1  1  0
  5  2  2  0
  6  5  1  0
  6  4  1  0
  7  6  1  0
  8 10  2  0
  9  5  1  0
  9  8  1  0
 11  9  1  0
 13 12  1  0
 13 14  1  0
 13  8  1  0
 14 16  1  0
 15 26  2  0
 16 21  1  0
 17 27  1  0
 17 25  1  0
 18 24  1  0
 18 20  1  0
 19 25  1  0
 20 19  1  0
 21 20  2  0
 22 23  1  0
 22 16  2  0
 23 18  2  0
 24 17  1  0
 25 15  1  0
 27 29  2  0
 28 27  1  0
 30 28  1  0
 31 40  2  0
 31 36  1  0
 32 28  1  0
 32 36  1  0
 33 32  1  0
 34 35  1  0
 34 33  1  0
 35 31  1  0
 36 37  2  0
 37 38  1  0
 39 38  2  0
 40 39  1  0
 41 15  1  0
 41 46  1  0
 41 42  1  0
 42 45  1  1
 42 43  1  0
 44 42  1  0
 46 49  1  0
 47 51  1  0
 47 46  1  0
 48 47  2  0
 51 50  1  0
 51 53  1  0
 53 54  1  0
 53 52  1  0
 55 57  1  0
 55 56  1  0
 58  4  2  0
 58 67  1  0
 59 67  1  0
 59 65  1  0
 60 65  1  0
 61 62  1  0
 61 60  1  0
 63 62  1  0
 63 72  1  0
 63 64  1  0
 65 64  1  0
 66 59  2  0
 67 68  1  0
 69 70  2  0
 70 89  1  0
 71 70  1  0
 71 74  1  0
 72 69  1  0
 72 73  1  0
 73 71  2  0
 74 75  1  0
 75 76  2  0
 77 80  1  0
 77 76  1  0
 78 77  2  0
 79 78  1  0
 79 74  2  0
 80 81  1  0
 81 86  2  0
 81 82  1  0
 82 83  2  0
 83 84  1  0
 84 88  1  0
 85 84  2  0
 86 85  1  0
 87 86  1  0
 89 90  1  0
 90 93  1  0
 90 92  1  0
 91 89  2  0
 94 95  1  0
 94 69  1  0
 96 94  1  0
M  ISO  4  13 101  14 101  59 100  67 100
M  END
>  <TORSDO>  (29) 
F 20

>  <SCORE>  (29) 
-8.579

>  <name>  (29) 
28

>  <ligand_id>  (29) 
28

>  <original_smiles>  (29) 
[H]c1c([H])c([H])c2c(c1[H])C([H])([H])C([H])([H])C([H])([H])C2([H])N([H])C(=O)C1([H])N(C(=O)C([H])(N([H])C(=O)C([H])(N([H])C([H])([H])[H])C([H])([H])[H])C(C([H])([H])[H])(C([H])([H])[H])C([H])([H])[H])C([H])([H])c2c([H])c(OC([H])(C(=O)N([H])c3c([H])c(N([H])[H])c([H])c(C([H])([H])N([H])C(=O)N4C([H])([H])C([H])([H])C([H])([H])C([H])(n5nc(-c6c([H])c([H])c(Oc7c([H])c([H])c(F)c([H])c7F)c([H])c6[H])c(C(=O)N([H])[H])c5N([H])[H])C4([H])[H])[n+]3[H])C([H])([H])[H])c([H])c([H])c2C1([H])[H]

>  <smiles>  (29) 
[H]c1c([H])c([H])c2c(c1[H])C([H])([H])C([H])([H])C([H])([H])C2([H])N([H])C(=O)C1([H])N(C(=O)C([H])(N([H])C(=O)C([H])(N([H])C([H])([H])[H])C([H])([H])[H])C(C([H])([H])[H])(C([H])([H])[H])C([H])([H])[H])C([H])([H])c2c([H])c(OC([H])(C(=O)N([H])c3c([H])c(N([H])[H])c([H])c(C([H])([H])N([H])C(=O)N4C([H])([H])C([H])([H])C([H])([H])C([H])(n5nc(-c6c([H])c([H])c(Oc7c([H])c([H])c(F)c([H])c7F)c([H])c6[H])c(C(=O)N([H])[H])c5N([H])[H])C4([H])[H])[n+]3[H])C([H])([H])[H])c([H])c([H])c2C1([H])[H]

$$$$
29:0:0
     RDKit          3D

 93101  0  0  1  0  0  0  0  0999 V2000
  -28.6810  -22.5390   20.1320 C   0  0  0  0  0  0  0  0  0  0  0  0
  -29.5990  -21.6100   20.5450 N   0  0  0  0  0  0  0  0  0  0  0  0
  -27.6230  -22.2010   19.6010 O   0  0  0  0  0  0  0  0  0  0  0  0
  -30.4140  -22.0260   20.9780 H   0  0  0  0  0  0  0  0  0  0  0  0
  -30.3930  -14.7590   20.2020 C   0  0  0  0  0  0  0  0  0  0  0  0
  -30.1630  -12.5320   19.1090 C   0  0  0  0  0  2  0  0  0  0  0  0
  -29.1910  -12.6710   17.9170 C   0  0  0  0  0  2  0  0  0  0  0  0
  -27.7280  -12.5020   18.3750 C   0  0  0  0  0  2  0  0  0  0  0  0
  -27.3960  -13.3470   19.6330 C   0  0  0  0  0  3  0  0  0  0  0  0
  -28.4790  -13.1790   20.7240 C   0  0  0  0  0  2  0  0  0  0  0  0
  -29.7750  -13.5350   20.1240 N   0  0  0  0  0  0  0  0  0  0  0  0
  -31.5290  -14.9190   19.7430 O   0  0  0  0  0  0  0  0  0  0  0  0
  -30.6770  -19.4490   21.1380 C   0  0  0  0  0  3  0  0  0  0  0  0
  -28.6450  -19.2910   19.9200 C   0  0  0  0  0  3  0  0  0  0  0  0
  -30.7340  -18.0240   21.1860 C   0  0  0  0  0  0  0  0  0  0  0  0
  -29.6110  -20.1410   20.5140 C   0  0  0  0  0  0  0  0  0  0  0  0
  -29.7220  -17.2440   20.5480 C   0  0  0  0  0  0  0  0  0  0  0  0
  -28.7030  -17.9220   19.9450 N   0  0  0  0  0  0  0  0  0  0  0  0
  -29.6310  -15.7920   20.6880 N   0  0  0  0  0  0  0  0  0  0  0  0
  -28.7160  -15.4740   20.9630 H   0  0  0  0  0  0  0  0  0  0  0  0
  -25.0080  -13.9280   20.3840 C   0  0  0  0  0  0  0  0  0  0  0  0
  -23.9560  -13.1470   20.7800 C   0  0  0  0  0  0  0  0  0  0  0  0
  -24.4320  -11.8000   20.7540 C   0  0  0  0  0  0  0  0  0  0  0  0
  -26.0590  -13.0550   20.1420 N   0  0  0  0  0  0  0  0  0  0  0  0
  -25.7170  -11.7710   20.4230 N   0  0  0  0  0  0  0  0  0  0  0  0
  -23.7210  -10.5320   20.9680 C   0  0  0  0  0  0  0  0  0  0  0  0
  -24.1810   -9.5760   21.9020 C   0  0  0  0  0  3  0  0  0  0  0  0
  -23.4710   -8.3740   22.1030 C   0  0  0  0  0  3  0  0  0  0  0  0
  -22.2870   -8.1180   21.3710 C   0  0  0  0  0  0  0  0  0  0  0  0
  -21.8460   -9.0610   20.4270 C   0  0  0  0  0  3  0  0  0  0  0  0
  -22.5570  -10.2560   20.2240 C   0  0  0  0  0  3  0  0  0  0  0  0
  -21.5460   -6.9650   21.4830 O   0  0  0  0  0  0  0  0  0  0  0  0
  -21.5480   -6.2170   22.6320 C   0  0  0  0  0  0  0  0  0  0  0  0
  -21.1560   -6.7590   23.8760 C   0  0  0  0  0  3  0  0  0  0  0  0
  -21.1040   -5.9360   25.0190 C   0  0  0  0  0  3  0  0  0  0  0  0
  -21.4350   -4.5720   24.9190 C   0  0  0  0  0  0  0  0  0  0  0  0
  -21.8210   -4.0280   23.6810 C   0  0  0  0  0  3  0  0  0  0  0  0
  -21.8740   -4.8490   22.5400 C   0  0  0  0  0  0  0  0  0  0  0  0
  -22.2250   -4.3150   21.3460 F   0  0  0  0  0  0  0  0  0  0  0  0
  -21.3780   -3.7790   26.0140 F   0  0  0  0  0  0  0  0  0  0  0  0
  -22.5590  -13.6110   21.0730 C   0  0  0  0  0  0  0  0  0  0  0  0
  -21.8540  -12.9190   21.9610 N   0  0  0  0  0  0  0  0  0  0  0  0
  -22.1010  -14.6270   20.5490 O   0  0  0  0  0  0  0  0  0  0  0  0
  -22.2380  -12.0980   22.4050 H   0  0  0  0  0  0  0  0  0  0  0  0
  -20.9190  -13.2150   22.2020 H   0  0  0  0  0  0  0  0  0  0  0  0
  -25.1540  -15.2980   20.1900 N   0  0  0  0  0  0  0  0  0  0  0  0
  -24.3740  -15.9380   20.2990 H   0  0  0  0  0  0  0  0  0  0  0  0
  -25.9820  -15.7480   19.8220 H   0  0  0  0  0  0  0  0  0  0  0  0
  -31.5820  -17.4000   23.4940 C   0  0  0  0  0  1  0  0  0  0  0  0
  -31.8720  -17.4040   21.9890 C   0  0  0  0  0  2  0  0  0  0  0  0
  -28.9890  -24.0790   20.3440 C   0  0  0  0  0  3  0  0  0  0  0  0
  -27.8770  -25.1360   19.9190 C   0  0  0  0  0  3  0  0  0  0  0  0
  -28.0960  -26.5870   20.1470 O   0  0  0  0  0  0  0  0  0  0  0  0
  -24.4440  -31.9800   23.2520 C   0  0  0  0  0  0  0  0  0  0  0  0
  -26.9760  -27.4350   20.1150 C   0  0  0  0  0  0  0  0  0  0  0  0
  -23.2000  -30.5920   21.6340 C   0  0  0  0  0  3  0  0  0  0  0  0
  -24.6130  -29.0490   20.1670 C   0  0  0  0  0  0  0  0  0  0  0  0
  -25.7350  -30.9080   21.3940 C   0  0  0  0  0  2  0  0  0  0  0  0
  -25.7960  -29.5330   20.7380 C   0  0  0  0  0  0  0  0  0  0  0  0
  -26.9810  -28.7390   20.7010 C   0  0  0  0  0  3  0  0  0  0  0  0
  -25.7670  -27.0080   19.5170 C   0  0  0  0  0  3  0  0  0  0  0  0
  -24.5990  -27.7910   19.5490 C   0  0  0  0  0  3  0  0  0  0  0  0
  -23.3800  -29.9250   20.2460 C   0  0  0  0  0  2  0  0  0  0  0  0
  -24.4800  -31.1760   22.1490 N   0  0  0  0  0  0  0  0  0  0  0  0
  -23.3730  -32.2590   23.8120 O   0  0  0  0  0  0  0  0  0  0  0  0
  -22.5570  -29.5720   22.6030 C   0  0  0  0  0  0  0  0  0  0  0  0
  -21.2350  -29.3710   22.4790 N   0  0  0  0  0  0  0  0  0  0  0  0
  -23.2480  -28.9640   23.4250 O   0  0  0  0  0  0  0  0  0  0  0  0
  -20.7370  -29.9120   21.7860 H   0  0  0  0  0  0  0  0  0  0  0  0
  -17.8810  -28.1100   22.9770 C   0  0  0  0  0  0  0  0  0  0  0  0
  -20.4310  -28.4280   23.2590 C   0  0  0  0  0  3  0  0  0  0  0  0
  -20.5680  -26.9910   22.7080 C   0  0  0  0  0  2  0  0  0  0  0  0
  -19.4790  -26.6280   21.6920 C   0  0  0  0  0  2  0  0  0  0  0  0
  -18.0910  -26.7530   22.3250 C   0  0  0  0  0  2  0  0  0  0  0  0
  -18.9790  -28.9030   23.4010 C   0  0  0  0  0  0  0  0  0  0  0  0
  -18.7300  -30.1700   23.9710 C   0  0  0  0  0  3  0  0  0  0  0  0
  -17.4130  -30.6450   24.1200 C   0  0  0  0  0  3  0  0  0  0  0  0
  -16.3290  -29.8500   23.7110 C   0  0  0  0  0  3  0  0  0  0  0  0
  -16.5630  -28.5840   23.1450 C   0  0  0  0  0  3  0  0  0  0  0  0
  -25.7430  -32.6060   23.8480 C   0  0  0  0  0  3  0  0  0  0  0  0
  -26.2680  -31.8460   25.1270 C   0  0  1  0  0  0  0  0  0  0  0  0
  -25.1850  -31.6280   26.2100 C   0  0  0  0  0  1  0  0  0  0  0  0
  -26.8380  -30.4590   24.7460 C   0  0  0  0  0  1  0  0  0  0  0  0
  -27.4320  -32.6390   25.7670 C   0  0  0  0  0  1  0  0  0  0  0  0
  -25.4540  -34.0120   24.1640 N   0  0  0  0  0  0  0  0  0  0  0  0
  -25.7740  -35.0500   23.3800 C   0  0  0  0  0  0  0  0  0  0  0  0
  -26.4160  -34.9240   22.3330 O   0  0  0  0  0  0  0  0  0  0  0  0
  -24.8800  -34.1840   24.9760 H   0  0  0  0  0  0  0  0  0  0  0  0
  -24.0480  -36.8490   23.0490 C   0  0  0  0  0  1  0  0  0  0  0  0
  -25.3120  -36.4490   23.8280 C   0  0  0  0  0  3  0  0  0  0  0  0
  -27.4730  -37.3350   24.5820 C   0  0  0  0  0  1  0  0  0  0  0  0
  -26.3480  -37.4920   23.6660 N   0  0  0  0  0  0  0  0  0  0  0  0
  -25.9510  -38.4170   23.8050 H   0  0  0  0  0  0  0  0  0  0  0  0
  1 51  1  0
  1  2  1  0
  2  4  1  0
  3  1  2  0
  5 19  1  0
  6 11  1  0
  7  8  1  0
  7  6  1  0
  9  8  1  0
  9 24  1  0
  9 10  1  0
 11  5  1  0
 11 10  1  0
 12  5  2  0
 13 15  1  0
 14 18  2  0
 14 16  1  0
 15 50  1  0
 16  2  1  0
 16 13  2  0
 17 19  1  0
 17 15  2  0
 18 17  1  0
 19 20  1  0
 21 22  2  0
 22 41  1  0
 23 22  1  0
 23 26  1  0
 24 21  1  0
 24 25  1  0
 25 23  2  0
 26 27  1  0
 27 28  2  0
 29 32  1  0
 29 28  1  0
 30 29  2  0
 31 30  1  0
 31 26  2  0
 32 33  1  0
 33 34  1  0
 34 35  2  0
 36 35  1  0
 36 40  1  0
 37 36  2  0
 38 33  2  0
 38 37  1  0
 39 38  1  0
 41 42  1  0
 42 45  1  0
 42 44  1  0
 43 41  2  0
 46 47  1  0
 46 21  1  0
 48 46  1  0
 50 49  1  0
 52 53  1  0
 52 51  2  0
 54 65  2  0
 55 53  1  0
 55 60  1  0
 56 64  1  0
 56 66  1  0
 57 63  1  0
 57 59  1  0
 58 64  1  0
 59 58  1  0
 60 59  2  0
 61 62  1  0
 61 55  2  0
 62 57  2  0
 63 56  1  0
 64 54  1  0
 66 68  2  0
 67 66  1  0
 69 67  1  0
 70 79  2  0
 70 75  1  0
 71 67  1  0
 71 75  1  0
 72 71  1  0
 73 74  1  0
 73 72  1  0
 74 70  1  0
 75 76  2  0
 76 77  1  0
 78 77  2  0
 79 78  1  0
 80 54  1  0
 80 85  1  0
 80 81  1  0
 81 84  1  1
 81 82  1  0
 83 81  1  0
 85 88  1  0
 86 90  1  0
 86 85  1  0
 87 86  2  0
 90 89  1  0
 92 93  1  0
 92 90  1  0
 92 91  1  0
M  ISO  4   5 100  19 100  52 101  53 101
M  END
>  <TORSDO>  (30) 
F 19

>  <SCORE>  (30) 
-12.147

>  <name>  (30) 
29

>  <ligand_id>  (30) 
29

>  <original_smiles>  (30) 
[H]c1nc(N([H])C(=O)N2C([H])([H])C([H])([H])C([H])([H])C([H])(n3nc(-c4c([H])c([H])c(Oc5c([H])c([H])c(F)c([H])c5F)c([H])c4[H])c(C(=O)N([H])[H])c3N([H])[H])C2([H])[H])c(C([H])([H])C([H])([H])[H])c([H])c1N([H])C(=O)C([H])([H])C([H])([H])Oc1c([H])c([H])c2c(c1[H])C([H])([H])N(C(=O)C([H])(N([H])C(=O)C([H])(N([H])C([H])([H])[H])C([H])([H])[H])C(C([H])([H])[H])(C([H])([H])[H])C([H])([H])[H])C([H])(C(=O)N([H])C1([H])c3c([H])c([H])c([H])c([H])c3C([H])([H])C([H])([H])C1([H])[H])C2([H])[H]

>  <smiles>  (30) 
[H]c1nc(N([H])C(=O)N2C([H])([H])C([H])([H])C([H])([H])C([H])(n3nc(-c4c([H])c([H])c(Oc5c([H])c([H])c(F)c([H])c5F)c([H])c4[H])c(C(=O)N([H])[H])c3N([H])[H])C2([H])[H])c(C([H])([H])C([H])([H])[H])c([H])c1N([H])C(=O)C([H])([H])C([H])([H])Oc1c([H])c([H])c2c(c1[H])C([H])([H])N(C(=O)C([H])(N([H])C(=O)C([H])(N([H])C([H])([H])[H])C([H])([H])[H])C(C([H])([H])[H])(C([H])([H])[H])C([H])([H])[H])C([H])(C(=O)N([H])C1([H])c3c([H])c([H])c([H])c([H])c3C([H])([H])C([H])([H])C1([H])[H])C2([H])[H]

$$$$
30:0:0
     RDKit          3D

 94102  0  0  1  0  0  0  0  0999 V2000
  -29.2730  -21.9700   20.2650 C   0  0  0  0  0  2  0  0  0  0  0  0
  -30.0690  -23.2890   20.2430 C   0  0  0  0  0  0  0  0  0  0  0  0
  -31.2260  -23.3050   19.7970 O   0  0  0  0  0  0  0  0  0  0  0  0
  -29.4430  -24.5950   20.8020 C   0  0  0  0  0  0  0  0  0  0  0  0
  -29.8540  -25.0740   21.8680 O   0  0  0  0  0  0  0  0  0  0  0  0
  -28.3400  -25.2910   19.9900 C   0  0  0  0  0  2  0  0  0  0  0  0
  -28.3940  -26.7170   20.1960 O   0  0  0  0  0  0  0  0  0  0  0  0
  -24.5630  -31.8760   23.2350 C   0  0  0  0  0  0  0  0  0  0  0  0
  -27.2120  -27.4290   20.1610 C   0  0  0  0  0  0  0  0  0  0  0  0
  -23.3610  -30.4790   21.5840 C   0  0  0  0  0  3  0  0  0  0  0  0
  -24.8190  -28.9420   20.1630 C   0  0  0  0  0  0  0  0  0  0  0  0
  -25.8890  -30.8330   21.4000 C   0  0  0  0  0  2  0  0  0  0  0  0
  -25.9740  -29.4640   20.7570 C   0  0  0  0  0  0  0  0  0  0  0  0
  -27.1730  -28.7150   20.7510 C   0  0  0  0  0  3  0  0  0  0  0  0
  -26.0370  -26.9260   19.5540 C   0  0  0  0  0  3  0  0  0  0  0  0
  -24.8450  -27.6730   19.5600 C   0  0  0  0  0  3  0  0  0  0  0  0
  -23.5750  -29.8010   20.2040 C   0  0  0  0  0  2  0  0  0  0  0  0
  -24.6220  -31.0780   22.1320 N   0  0  0  0  0  0  0  0  0  0  0  0
  -23.4800  -32.1490   23.7710 O   0  0  0  0  0  0  0  0  0  0  0  0
  -22.7050  -29.4570   22.5410 C   0  0  0  0  0  0  0  0  0  0  0  0
  -21.3800  -29.2760   22.4050 N   0  0  0  0  0  0  0  0  0  0  0  0
  -23.3840  -28.8290   23.3580 O   0  0  0  0  0  0  0  0  0  0  0  0
  -20.8950  -29.8340   21.7160 H   0  0  0  0  0  0  0  0  0  0  0  0
  -18.0020  -28.0880   22.8790 C   0  0  0  0  0  0  0  0  0  0  0  0
  -20.5580  -28.3390   23.1690 C   0  0  0  0  0  3  0  0  0  0  0  0
  -20.6610  -26.9090   22.5910 C   0  0  0  0  0  2  0  0  0  0  0  0
  -19.5650  -26.5910   21.5680 C   0  0  0  0  0  2  0  0  0  0  0  0
  -18.1800  -26.7390   22.2030 C   0  0  0  0  0  2  0  0  0  0  0  0
  -19.1190  -28.8470   23.3180 C   0  0  0  0  0  0  0  0  0  0  0  0
  -18.9000  -30.1110   23.9070 C   0  0  0  0  0  3  0  0  0  0  0  0
  -17.5960  -30.6160   24.0650 C   0  0  0  0  0  3  0  0  0  0  0  0
  -16.4920  -29.8540   23.6430 C   0  0  0  0  0  3  0  0  0  0  0  0
  -16.6960  -28.5920   23.0550 C   0  0  0  0  0  3  0  0  0  0  0  0
  -25.8480  -32.5030   23.8610 C   0  0  0  0  0  3  0  0  0  0  0  0
  -25.5430  -33.9030   24.1840 N   0  0  0  0  0  0  0  0  0  0  0  0
  -25.8870  -34.9510   23.4240 C   0  0  0  0  0  0  0  0  0  0  0  0
  -26.5650  -34.8400   22.3980 O   0  0  0  0  0  0  0  0  0  0  0  0
  -24.9430  -34.0640   24.9800 H   0  0  0  0  0  0  0  0  0  0  0  0
  -24.1730  -36.7500   23.0450 C   0  0  0  0  0  1  0  0  0  0  0  0
  -25.4010  -36.3420   23.8720 C   0  0  0  0  0  3  0  0  0  0  0  0
  -27.5320  -37.2180   24.7240 C   0  0  0  0  0  1  0  0  0  0  0  0
  -26.4410  -37.3900   23.7680 N   0  0  0  0  0  0  0  0  0  0  0  0
  -26.0380  -38.3120   23.9110 H   0  0  0  0  0  0  0  0  0  0  0  0
  -26.3560  -31.7330   25.1410 C   0  0  1  0  0  0  0  0  0  0  0  0
  -25.2580  -31.5040   26.2070 C   0  0  0  0  0  1  0  0  0  0  0  0
  -26.9330  -30.3520   24.7530 C   0  0  0  0  0  1  0  0  0  0  0  0
  -27.5080  -32.5230   25.8060 C   0  0  0  0  0  1  0  0  0  0  0  0
  -29.9740  -20.9350   19.4960 N   0  0  0  0  0  0  0  0  0  0  0  0
  -30.8630  -21.2680   19.1280 H   0  0  0  0  0  0  0  0  0  0  0  0
  -31.2450  -17.5040   19.9460 C   0  0  0  0  0  3  0  0  0  0  0  0
  -29.0060  -17.7280   20.8120 C   0  0  0  0  0  3  0  0  0  0  0  0
  -30.1080  -16.8880   20.5290 C   0  0  0  0  0  0  0  0  0  0  0  0
  -31.1980  -18.8750   19.6270 C   0  0  0  0  0  0  0  0  0  0  0  0
  -30.0330  -19.6040   19.9180 C   0  0  0  0  0  0  0  0  0  0  0  0
  -28.9570  -19.0530   20.5180 N   0  0  0  0  0  0  0  0  0  0  0  0
  -32.2540  -19.4800   19.0280 F   0  0  0  0  0  0  0  0  0  0  0  0
  -30.6790  -14.4680   20.2370 C   0  0  0  0  0  0  0  0  0  0  0  0
  -30.3170  -12.3440   19.0470 C   0  0  0  0  0  2  0  0  0  0  0  0
  -29.3430  -12.6110   17.8820 C   0  0  0  0  0  2  0  0  0  0  0  0
  -27.8810  -12.4790   18.3540 C   0  0  0  0  0  2  0  0  0  0  0  0
  -27.5960  -13.2720   19.6560 C   0  0  0  0  0  3  0  0  0  0  0  0
  -28.6840  -13.0010   20.7220 C   0  0  0  0  0  2  0  0  0  0  0  0
  -29.9950  -13.2980   20.1200 N   0  0  0  0  0  0  0  0  0  0  0  0
  -31.7950  -14.6290   19.7410 O   0  0  0  0  0  0  0  0  0  0  0  0
  -29.9990  -15.4810   20.8090 N   0  0  0  0  0  0  0  0  0  0  0  0
  -29.1410  -15.1930   21.2590 H   0  0  0  0  0  0  0  0  0  0  0  0
  -25.2170  -13.8770   20.4300 C   0  0  0  0  0  0  0  0  0  0  0  0
  -24.1590  -13.1020   20.8270 C   0  0  0  0  0  0  0  0  0  0  0  0
  -24.6200  -11.7510   20.7800 C   0  0  0  0  0  0  0  0  0  0  0  0
  -26.2560  -12.9960   20.1690 N   0  0  0  0  0  0  0  0  0  0  0  0
  -25.9020  -11.7130   20.4360 N   0  0  0  0  0  0  0  0  0  0  0  0
  -23.9010  -10.4870   20.9870 C   0  0  0  0  0  0  0  0  0  0  0  0
  -24.3620   -9.5180   21.9040 C   0  0  0  0  0  3  0  0  0  0  0  0
  -23.6420   -8.3190   22.1000 C   0  0  0  0  0  3  0  0  0  0  0  0
  -22.4500   -8.0810   21.3790 C   0  0  0  0  0  0  0  0  0  0  0  0
  -22.0070   -9.0400   20.4490 C   0  0  0  0  0  3  0  0  0  0  0  0
  -22.7270  -10.2300   20.2520 C   0  0  0  0  0  3  0  0  0  0  0  0
  -21.7000   -6.9340   21.4830 O   0  0  0  0  0  0  0  0  0  0  0  0
  -21.6890   -6.1850   22.6320 C   0  0  0  0  0  0  0  0  0  0  0  0
  -21.3000   -6.7310   23.8750 C   0  0  0  0  0  3  0  0  0  0  0  0
  -21.2350   -5.9080   25.0160 C   0  0  0  0  0  3  0  0  0  0  0  0
  -21.5480   -4.5400   24.9170 C   0  0  0  0  0  0  0  0  0  0  0  0
  -21.9310   -3.9920   23.6800 C   0  0  0  0  0  3  0  0  0  0  0  0
  -21.9970   -4.8130   22.5400 C   0  0  0  0  0  0  0  0  0  0  0  0
  -22.3460   -4.2750   21.3460 F   0  0  0  0  0  0  0  0  0  0  0  0
  -21.4790   -3.7470   26.0130 F   0  0  0  0  0  0  0  0  0  0  0  0
  -22.7690  -13.5770   21.1380 C   0  0  0  0  0  0  0  0  0  0  0  0
  -22.0680  -12.8800   22.0250 N   0  0  0  0  0  0  0  0  0  0  0  0
  -22.3150  -14.6020   20.6320 O   0  0  0  0  0  0  0  0  0  0  0  0
  -22.4480  -12.0510   22.4580 H   0  0  0  0  0  0  0  0  0  0  0  0
  -21.1370  -13.1820   22.2770 H   0  0  0  0  0  0  0  0  0  0  0  0
  -25.3750  -15.2470   20.2500 N   0  0  0  0  0  0  0  0  0  0  0  0
  -24.6080  -15.8990   20.3740 H   0  0  0  0  0  0  0  0  0  0  0  0
  -26.2060  -15.6840   19.8710 H   0  0  0  0  0  0  0  0  0  0  0  0
  2  1  1  0
  2  4  1  0
  3  2  2  0
  4  5  2  0
  6  7  1  0
  6  4  1  0
  8 19  2  0
  9  7  1  0
  9 14  1  0
 10 18  1  0
 10 20  1  0
 11 17  1  0
 11 13  1  0
 12 18  1  0
 13 12  1  0
 14 13  2  0
 15 16  1  0
 15  9  2  0
 16 11  2  0
 17 10  1  0
 18  8  1  0
 20 22  2  0
 21 20  1  0
 23 21  1  0
 24 33  2  0
 24 29  1  0
 25 21  1  0
 25 29  1  0
 26 25  1  0
 27 28  1  0
 27 26  1  0
 28 24  1  0
 29 30  2  0
 30 31  1  0
 32 31  2  0
 33 32  1  0
 34  8  1  0
 34 35  1  0
 34 44  1  0
 35 38  1  0
 36 40  1  0
 36 35  1  0
 37 36  2  0
 40 39  1  0
 42 40  1  0
 42 43  1  0
 42 41  1  0
 44 47  1  1
 44 45  1  0
 46 44  1  0
 48 54  1  0
 48  1  1  0
 49 48  1  0
 50 52  1  0
 52 65  1  0
 52 51  2  0
 53 54  1  0
 53 50  2  0
 54 55  2  0
 55 51  1  0
 56 53  1  0
 57 65  1  0
 58 63  1  0
 59 60  1  0
 59 58  1  0
 61 60  1  0
 61 70  1  0
 61 62  1  0
 63 57  1  0
 63 62  1  0
 64 57  2  0
 65 66  1  0
 67 68  2  0
 68 87  1  0
 69 68  1  0
 69 72  1  0
 70 67  1  0
 70 71  1  0
 71 69  2  0
 72 73  1  0
 73 74  2  0
 75 78  1  0
 75 74  1  0
 76 75  2  0
 77 76  1  0
 77 72  2  0
 78 79  1  0
 79 80  1  0
 80 81  2  0
 82 81  1  0
 82 86  1  0
 83 82  2  0
 84 79  2  0
 84 83  1  0
 85 84  1  0
 87 88  1  0
 88 91  1  0
 88 90  1  0
 89 87  2  0
 92 93  1  0
 92 67  1  0
 94 92  1  0
M  ISO  4   6 101   7 101  57 100  65 100
M  END
>  <TORSDO>  (31) 
F 21

>  <SCORE>  (31) 
-13.598

>  <name>  (31) 
30

>  <ligand_id>  (31) 
30

>  <original_smiles>  (31) 
[H]c1nc(N([H])C([H])([H])C(=O)C(=O)C([H])([H])Oc2c([H])c([H])c3c(c2[H])C([H])([H])N(C(=O)C([H])(N([H])C(=O)C([H])(N([H])C([H])([H])[H])C([H])([H])[H])C(C([H])([H])[H])(C([H])([H])[H])C([H])([H])[H])C([H])(C(=O)N([H])C2([H])c4c([H])c([H])c([H])c([H])c4C([H])([H])C([H])([H])C2([H])[H])C3([H])[H])c(F)c([H])c1N([H])C(=O)N1C([H])([H])C([H])([H])C([H])([H])C([H])(n2nc(-c3c([H])c([H])c(Oc4c([H])c([H])c(F)c([H])c4F)c([H])c3[H])c(C(=O)N([H])[H])c2N([H])[H])C1([H])[H]

>  <smiles>  (31) 
[H]c1nc(N([H])C([H])([H])C(=O)C(=O)C([H])([H])Oc2c([H])c([H])c3c(c2[H])C([H])([H])N(C(=O)C([H])(N([H])C(=O)C([H])(N([H])C([H])([H])[H])C([H])([H])[H])C(C([H])([H])[H])(C([H])([H])[H])C([H])([H])[H])C([H])(C(=O)N([H])C2([H])c4c([H])c([H])c([H])c([H])c4C([H])([H])C([H])([H])C2([H])[H])C3([H])[H])c(F)c([H])c1N([H])C(=O)N1C([H])([H])C([H])([H])C([H])([H])C([H])(n2nc(-c3c([H])c([H])c(Oc4c([H])c([H])c(F)c([H])c4F)c([H])c3[H])c(C(=O)N([H])[H])c2N([H])[H])C1([H])[H]

$$$$
31:0:0
     RDKit          3D

 96104  0  0  1  0  0  0  0  0999 V2000
  -31.1250  -17.7740   19.9240 C   0  0  0  0  0  3  0  0  0  0  0  0
  -28.6890  -19.0080   20.3090 C   0  0  0  0  0  0  0  0  0  0  0  0
  -30.0430  -16.9550   20.3080 C   0  0  0  0  0  0  0  0  0  0  0  0
  -28.8200  -17.6130   20.5110 C   0  0  0  0  0  0  0  0  0  0  0  0
  -29.8310  -19.7710   19.9300 C   0  0  0  0  0  0  0  0  0  0  0  0
  -29.3980  -22.1740   20.5080 C   0  0  0  0  0  0  0  0  0  0  0  0
  -27.3030  -19.6150   20.4830 C   0  0  0  0  0  1  0  0  0  0  0  0
  -30.0860  -21.5210   18.2180 C   0  0  0  0  0  1  0  0  0  0  0  0
  -31.0150  -19.1190   19.7450 N   0  0  0  0  0  0  0  0  0  0  0  0
  -29.7250  -21.1880   19.6020 N   0  0  0  0  0  0  0  0  0  0  0  0
  -29.0810  -21.8860   21.6680 O   0  0  0  0  0  0  0  0  0  0  0  0
  -27.7410  -16.8750   20.8760 F   0  0  0  0  0  0  0  0  0  0  0  0
  -30.7260  -14.5400   19.8420 C   0  0  0  0  0  0  0  0  0  0  0  0
  -30.3850  -12.3470   18.7380 C   0  0  0  0  0  2  0  0  0  0  0  0
  -29.3700  -12.5280   17.5890 C   0  0  0  0  0  2  0  0  0  0  0  0
  -27.9230  -12.4020   18.1070 C   0  0  0  0  0  2  0  0  0  0  0  0
  -27.6680  -13.2630   19.3720 C   0  0  0  0  0  3  0  0  0  0  0  0
  -28.7800  -13.0340   20.4190 C   0  0  0  0  0  2  0  0  0  0  0  0
  -30.0730  -13.3410   19.7790 N   0  0  0  0  0  0  0  0  0  0  0  0
  -31.8080  -14.7410   19.2880 O   0  0  0  0  0  0  0  0  0  0  0  0
  -30.0460  -15.5210   20.4800 N   0  0  0  0  0  0  0  0  0  0  0  0
  -29.2460  -15.1800   20.9930 H   0  0  0  0  0  0  0  0  0  0  0  0
  -25.3310  -13.9240   20.2230 C   0  0  0  0  0  0  0  0  0  0  0  0
  -24.2650  -13.1750   20.6440 C   0  0  0  0  0  0  0  0  0  0  0  0
  -24.6900  -11.8120   20.5760 C   0  0  0  0  0  0  0  0  0  0  0  0
  -26.3390  -13.0190   19.9260 N   0  0  0  0  0  0  0  0  0  0  0  0
  -25.9580  -11.7430   20.1930 N   0  0  0  0  0  0  0  0  0  0  0  0
  -23.9470  -10.5670   20.8000 C   0  0  0  0  0  0  0  0  0  0  0  0
  -24.4140   -9.5790   21.6940 C   0  0  0  0  0  3  0  0  0  0  0  0
  -23.6710   -8.3970   21.9050 C   0  0  0  0  0  3  0  0  0  0  0  0
  -22.4490   -8.1930   21.2220 C   0  0  0  0  0  0  0  0  0  0  0  0
  -22.0010   -9.1700   20.3160 C   0  0  0  0  0  3  0  0  0  0  0  0
  -22.7430  -10.3440   20.1020 C   0  0  0  0  0  3  0  0  0  0  0  0
  -21.6720   -7.0660   21.3450 O   0  0  0  0  0  0  0  0  0  0  0  0
  -21.6880   -6.3060   22.4850 C   0  0  0  0  0  0  0  0  0  0  0  0
  -21.3720   -6.8540   23.7490 C   0  0  0  0  0  3  0  0  0  0  0  0
  -21.3260   -6.0210   24.8850 C   0  0  0  0  0  3  0  0  0  0  0  0
  -21.5870   -4.6430   24.7590 C   0  0  0  0  0  0  0  0  0  0  0  0
  -21.8940   -4.0960   23.5020 C   0  0  0  0  0  3  0  0  0  0  0  0
  -21.9400   -4.9250   22.3680 C   0  0  0  0  0  0  0  0  0  0  0  0
  -22.2150   -4.3880   21.1550 F   0  0  0  0  0  0  0  0  0  0  0  0
  -21.5370   -3.8400   25.8500 F   0  0  0  0  0  0  0  0  0  0  0  0
  -22.8990  -13.6830   21.0070 C   0  0  0  0  0  0  0  0  0  0  0  0
  -22.2130  -12.9970   21.9160 N   0  0  0  0  0  0  0  0  0  0  0  0
  -22.4480  -14.7170   20.5160 O   0  0  0  0  0  0  0  0  0  0  0  0
  -22.5900  -12.1550   22.3240 H   0  0  0  0  0  0  0  0  0  0  0  0
  -21.2990  -13.3150   22.2060 H   0  0  0  0  0  0  0  0  0  0  0  0
  -25.5240  -15.2930   20.0540 N   0  0  0  0  0  0  0  0  0  0  0  0
  -24.8040  -15.9790   20.2460 H   0  0  0  0  0  0  0  0  0  0  0  0
  -26.3950  -15.7130   19.7550 H   0  0  0  0  0  0  0  0  0  0  0  0
  -29.4510  -23.5950   20.0570 C   0  0  0  0  0  3  0  0  0  0  0  0
  -28.9420  -24.6430   20.7730 C   0  0  0  0  0  0  0  0  0  0  0  0
  -28.2840  -24.4840   21.9360 O   0  0  0  0  0  0  0  0  0  0  0  0
  -28.3420  -23.5630   22.1760 H   0  0  0  0  0  0  0  0  0  0  0  0
  -29.0580  -26.1650   20.4750 C   0  0  0  0  0  2  0  0  0  0  0  0
  -28.3740  -26.6390   19.3030 O   0  0  0  0  0  0  0  0  0  0  0  0
  -24.6490  -31.6130   22.9530 C   0  0  0  0  0  0  0  0  0  0  0  0
  -27.2490  -27.4300   19.4690 C   0  0  0  0  0  0  0  0  0  0  0  0
  -23.4120  -30.3250   21.2420 C   0  0  0  0  0  3  0  0  0  0  0  0
  -24.8440  -28.9240   19.6570 C   0  0  0  0  0  0  0  0  0  0  0  0
  -25.9270  -30.7280   21.0000 C   0  0  0  0  0  2  0  0  0  0  0  0
  -26.0140  -29.4060   20.2600 C   0  0  0  0  0  0  0  0  0  0  0  0
  -27.2220  -28.6640   20.1690 C   0  0  0  0  0  3  0  0  0  0  0  0
  -26.0670  -26.9830   18.8480 C   0  0  0  0  0  3  0  0  0  0  0  0
  -24.8650  -27.7130   18.9490 C   0  0  0  0  0  3  0  0  0  0  0  0
  -23.5890  -29.7590   19.8070 C   0  0  0  0  0  2  0  0  0  0  0  0
  -24.6820  -30.9010   21.7910 N   0  0  0  0  0  0  0  0  0  0  0  0
  -23.5800  -31.8230   23.5470 O   0  0  0  0  0  0  0  0  0  0  0  0
  -22.8000  -29.2240   22.1410 C   0  0  0  0  0  0  0  0  0  0  0  0
  -21.4700  -29.0420   22.0520 N   0  0  0  0  0  0  0  0  0  0  0  0
  -23.5180  -28.5370   22.8710 O   0  0  0  0  0  0  0  0  0  0  0  0
  -20.9480  -29.6460   21.4330 H   0  0  0  0  0  0  0  0  0  0  0  0
  -18.1270  -27.7860   22.6080 C   0  0  0  0  0  0  0  0  0  0  0  0
  -20.6940  -28.0340   22.7770 C   0  0  0  0  0  3  0  0  0  0  0  0
  -20.7720  -26.6590   22.0750 C   0  0  0  0  0  2  0  0  0  0  0  0
  -19.6220  -26.4200   21.0910 C   0  0  0  0  0  2  0  0  0  0  0  0
  -18.2710  -26.5050   21.8050 C   0  0  0  0  0  2  0  0  0  0  0  0
  -19.2640  -28.5150   23.0500 C   0  0  0  0  0  0  0  0  0  0  0  0
  -19.0720  -29.7200   23.7620 C   0  0  0  0  0  3  0  0  0  0  0  0
  -17.7750  -30.1980   24.0270 C   0  0  0  0  0  3  0  0  0  0  0  0
  -16.6540  -29.4660   23.6010 C   0  0  0  0  0  3  0  0  0  0  0  0
  -16.8310  -28.2610   22.8980 C   0  0  0  0  0  3  0  0  0  0  0  0
  -25.9450  -32.2150   23.5800 C   0  0  0  0  0  3  0  0  0  0  0  0
  -26.5130  -31.3590   24.7780 C   0  0  1  0  0  0  0  0  0  0  0  0
  -25.4580  -31.0330   25.8610 C   0  0  0  0  0  1  0  0  0  0  0  0
  -27.0930  -30.0200   24.2660 C   0  0  0  0  0  1  0  0  0  0  0  0
  -27.6800  -32.1160   25.4570 C   0  0  0  0  0  1  0  0  0  0  0  0
  -25.6310  -33.5810   24.0170 N   0  0  0  0  0  0  0  0  0  0  0  0
  -25.9330  -34.6900   23.3270 C   0  0  0  0  0  0  0  0  0  0  0  0
  -26.5760  -34.6690   22.2740 O   0  0  0  0  0  0  0  0  0  0  0  0
  -25.0570  -33.6730   24.8420 H   0  0  0  0  0  0  0  0  0  0  0  0
  -24.1700  -36.4750   23.1550 C   0  0  0  0  0  1  0  0  0  0  0  0
  -25.4440  -36.0360   23.8950 C   0  0  0  0  0  3  0  0  0  0  0  0
  -27.5920  -36.8950   24.7160 C   0  0  0  0  0  1  0  0  0  0  0  0
  -26.4580  -37.1100   23.8210 N   0  0  0  0  0  0  0  0  0  0  0  0
  -26.0470  -38.0120   24.0430 H   0  0  0  0  0  0  0  0  0  0  0  0
  1  3  1  0
  2  7  1  0
  2  4  1  0
  3 21  1  0
  3  4  2  0
  4 12  1  0
  5  2  2  0
  6 11  2  0
  8 10  1  0
  9  1  2  0
  9  5  1  0
 10  5  1  0
 10  6  1  0
 13 21  1  0
 14 19  1  0
 15 16  1  0
 15 14  1  0
 17 16  1  0
 17 26  1  0
 17 18  1  0
 19 13  1  0
 19 18  1  0
 20 13  2  0
 21 22  1  0
 23 24  2  0
 24 43  1  0
 25 24  1  0
 25 28  1  0
 26 27  1  0
 26 23  1  0
 27 25  2  0
 28 29  1  0
 29 30  2  0
 31 34  1  0
 31 30  1  0
 32 31  2  0
 33 32  1  0
 33 28  2  0
 34 35  1  0
 35 36  1  0
 36 37  2  0
 38 37  1  0
 38 42  1  0
 39 38  2  0
 40 35  2  0
 40 39  1  0
 41 40  1  0
 43 44  1  0
 44 47  1  0
 44 46  1  0
 45 43  2  0
 48 23  1  0
 48 49  1  0
 50 48  1  0
 51  6  1  0
 51 52  2  0
 52 53  1  0
 53 54  1  0
 55 52  1  0
 56 58  1  0
 56 55  1  0
 57 68  2  0
 58 63  1  0
 59 67  1  0
 59 69  1  0
 60 66  1  0
 60 62  1  0
 61 67  1  0
 62 61  1  0
 63 62  2  0
 64 65  1  0
 64 58  2  0
 65 60  2  0
 66 59  1  0
 67 57  1  0
 69 71  2  0
 70 69  1  0
 72 70  1  0
 73 82  2  0
 73 78  1  0
 74 70  1  0
 74 78  1  0
 75 74  1  0
 76 77  1  0
 76 75  1  0
 77 73  1  0
 78 79  2  0
 79 80  1  0
 81 80  2  0
 82 81  1  0
 83 57  1  0
 83 88  1  0
 83 84  1  0
 84 87  1  1
 84 85  1  0
 86 84  1  0
 88 91  1  0
 89 93  1  0
 89 88  1  0
 90 89  2  0
 93 92  1  0
 95 93  1  0
 95 96  1  0
 95 94  1  0
M  ISO  4  13 100  21 100  55 101  56 101
M  END
>  <TORSDO>  (32) 
F 19

>  <SCORE>  (32) 
-13.031

>  <name>  (32) 
31

>  <ligand_id>  (32) 
31

>  <original_smiles>  (32) 
[H]OC(=C([H])C(=O)N(c1nc([H])c(N([H])C(=O)N2C([H])([H])C([H])([H])C([H])([H])C([H])(n3nc(-c4c([H])c([H])c(Oc5c([H])c([H])c(F)c([H])c5F)c([H])c4[H])c(C(=O)N([H])[H])c3N([H])[H])C2([H])[H])c(F)c1C([H])([H])[H])C([H])([H])[H])C([H])([H])Oc1c([H])c([H])c2c(c1[H])C([H])([H])N(C(=O)C([H])(N([H])C(=O)C([H])(N([H])C([H])([H])[H])C([H])([H])[H])C(C([H])([H])[H])(C([H])([H])[H])C([H])([H])[H])C([H])(C(=O)N([H])C1([H])c3c([H])c([H])c([H])c([H])c3C([H])([H])C([H])([H])C1([H])[H])C2([H])[H]

>  <smiles>  (32) 
[H]OC(=C([H])C(=O)N(c1nc([H])c(N([H])C(=O)N2C([H])([H])C([H])([H])C([H])([H])C([H])(n3nc(-c4c([H])c([H])c(Oc5c([H])c([H])c(F)c([H])c5F)c([H])c4[H])c(C(=O)N([H])[H])c3N([H])[H])C2([H])[H])c(F)c1C([H])([H])[H])C([H])([H])[H])C([H])([H])Oc1c([H])c([H])c2c(c1[H])C([H])([H])N(C(=O)C([H])(N([H])C(=O)C([H])(N([H])C([H])([H])[H])C([H])([H])[H])C(C([H])([H])[H])(C([H])([H])[H])C([H])([H])[H])C([H])(C(=O)N([H])C1([H])c3c([H])c([H])c([H])c([H])c3C([H])([H])C([H])([H])C1([H])[H])C2([H])[H]

$$$$
32:0:0
     RDKit          3D

 96104  0  0  1  0  0  0  0  0999 V2000
  -29.4440  -20.9270   20.4920 C   0  0  2  0  0  0  0  0  0  0  0  0
  -30.0950  -21.5030   21.6140 O   0  0  0  0  0  0  0  0  0  0  0  0
  -29.7170  -22.3610   21.7550 H   0  0  0  0  0  0  0  0  0  0  0  0
  -27.2120  -19.8860   19.6390 C   0  0  0  0  0  1  0  0  0  0  0  0
  -27.9420  -20.6340   20.7810 C   0  0  0  0  0  2  0  0  0  0  0  0
  -30.1950  -19.4990   20.1280 C   0  0  0  0  0  0  0  0  0  0  0  0
  -30.4650  -19.2880   18.9440 O   0  0  0  0  0  0  0  0  0  0  0  0
  -30.9100  -18.1940   23.7000 C   0  0  0  0  0  3  0  0  0  0  0  0
  -30.5790  -18.9270   22.5550 C   0  0  0  0  0  3  0  0  0  0  0  0
  -31.2910  -16.8660   23.5730 C   0  0  0  0  0  3  0  0  0  0  0  0
  -30.5550  -18.4060   21.2270 C   0  0  0  0  0  0  0  0  0  0  0  0
  -30.9220  -16.9600   21.1170 C   0  0  0  0  0  0  0  0  0  0  0  0
  -31.3040  -16.2660   22.3130 C   0  0  0  0  0  0  0  0  0  0  0  0
  -31.6950  -14.9710   22.3140 F   0  0  0  0  0  0  0  0  0  0  0  0
  -31.5040  -14.8520   19.7420 C   0  0  0  0  0  0  0  0  0  0  0  0
  -31.0390  -12.6000   18.7640 C   0  0  0  0  0  2  0  0  0  0  0  0
  -30.0390  -12.7120   17.5930 C   0  0  0  0  0  2  0  0  0  0  0  0
  -28.5900  -12.6450   18.1080 C   0  0  0  0  0  2  0  0  0  0  0  0
  -28.3440  -13.5800   19.3220 C   0  0  0  0  0  3  0  0  0  0  0  0
  -29.4590  -13.4610   20.3810 C   0  0  0  0  0  2  0  0  0  0  0  0
  -30.7410  -13.7050   19.7060 N   0  0  0  0  0  0  0  0  0  0  0  0
  -32.6630  -14.8290   19.3220 O   0  0  0  0  0  0  0  0  0  0  0  0
  -30.9000  -16.0900   19.9250 N   0  0  0  0  0  0  0  0  0  0  0  0
  -30.9490  -16.6280   19.0720 H   0  0  0  0  0  0  0  0  0  0  0  0
  -26.0470  -14.3210   20.1890 C   0  0  0  0  0  0  0  0  0  0  0  0
  -24.9500  -13.6170   20.6060 C   0  0  0  0  0  0  0  0  0  0  0  0
  -25.3170  -12.2370   20.5440 C   0  0  0  0  0  0  0  0  0  0  0  0
  -27.0160  -13.3770   19.8940 N   0  0  0  0  0  0  0  0  0  0  0  0
  -26.5860  -12.1160   20.1680 N   0  0  0  0  0  0  0  0  0  0  0  0
  -24.5130  -11.0250   20.7570 C   0  0  0  0  0  0  0  0  0  0  0  0
  -24.8840  -10.0480   21.7070 C   0  0  0  0  0  3  0  0  0  0  0  0
  -24.0800   -8.9050   21.9100 C   0  0  0  0  0  3  0  0  0  0  0  0
  -22.8920   -8.7310   21.1630 C   0  0  0  0  0  0  0  0  0  0  0  0
  -22.5390   -9.6960   20.2000 C   0  0  0  0  0  3  0  0  0  0  0  0
  -23.3420  -10.8300   19.9970 C   0  0  0  0  0  3  0  0  0  0  0  0
  -22.0650   -7.6390   21.2740 O   0  0  0  0  0  0  0  0  0  0  0  0
  -21.9130   -6.9690   22.4620 C   0  0  0  0  0  0  0  0  0  0  0  0
  -21.4900   -7.6250   23.6390 C   0  0  0  0  0  3  0  0  0  0  0  0
  -21.2780   -6.8870   24.8210 C   0  0  0  0  0  3  0  0  0  0  0  0
  -21.4870   -5.4940   24.8270 C   0  0  0  0  0  0  0  0  0  0  0  0
  -21.9040   -4.8370   23.6560 C   0  0  0  0  0  3  0  0  0  0  0  0
  -22.1120   -5.5740   22.4760 C   0  0  0  0  0  0  0  0  0  0  0  0
  -22.4920   -4.9330   21.3460 F   0  0  0  0  0  0  0  0  0  0  0  0
  -21.2760   -4.7840   25.9590 F   0  0  0  0  0  0  0  0  0  0  0  0
  -23.6050  -14.1870   20.9530 C   0  0  0  0  0  0  0  0  0  0  0  0
  -22.8980  -13.5570   21.8860 N   0  0  0  0  0  0  0  0  0  0  0  0
  -23.1950  -15.2200   20.4290 O   0  0  0  0  0  0  0  0  0  0  0  0
  -23.2420  -12.7190   22.3290 H   0  0  0  0  0  0  0  0  0  0  0  0
  -21.9940  -13.9170   22.1590 H   0  0  0  0  0  0  0  0  0  0  0  0
  -26.2900  -15.6790   20.0080 N   0  0  0  0  0  0  0  0  0  0  0  0
  -25.5680  -16.3760   20.1560 H   0  0  0  0  0  0  0  0  0  0  0  0
  -27.1550  -16.0660   19.6510 H   0  0  0  0  0  0  0  0  0  0  0  0
  -29.4460  -22.2560   19.5310 C   0  0  0  0  0  2  0  0  0  0  0  0
  -29.3640  -23.7920   20.1430 C   0  0  0  0  0  3  0  0  0  0  0  0
  -28.3240  -24.9290   19.6220 C   0  0  0  0  0  3  0  0  0  0  0  0
  -28.4910  -26.3960   19.9530 O   0  0  0  0  0  0  0  0  0  0  0  0
  -24.7400  -31.7130   23.2290 C   0  0  0  0  0  0  0  0  0  0  0  0
  -27.3720  -27.2730   19.9480 C   0  0  0  0  0  0  0  0  0  0  0  0
  -23.5370  -30.3660   21.5480 C   0  0  0  0  0  3  0  0  0  0  0  0
  -24.9890  -28.8880   20.0430 C   0  0  0  0  0  0  0  0  0  0  0  0
  -26.0720  -30.7120   21.3500 C   0  0  0  0  0  2  0  0  0  0  0  0
  -26.1640  -29.3580   20.6450 C   0  0  0  0  0  0  0  0  0  0  0  0
  -27.3580  -28.5650   20.5850 C   0  0  0  0  0  3  0  0  0  0  0  0
  -26.1670  -26.8750   19.3250 C   0  0  0  0  0  3  0  0  0  0  0  0
  -24.9950  -27.6550   19.3750 C   0  0  0  0  0  3  0  0  0  0  0  0
  -23.7450  -29.7500   20.1380 C   0  0  0  0  0  2  0  0  0  0  0  0
  -24.8020  -30.9480   22.0990 N   0  0  0  0  0  0  0  0  0  0  0  0
  -23.6590  -31.9530   23.7870 O   0  0  0  0  0  0  0  0  0  0  0  0
  -22.8960  -29.3030   22.4760 C   0  0  0  0  0  0  0  0  0  0  0  0
  -21.5850  -29.0590   22.3100 N   0  0  0  0  0  0  0  0  0  0  0  0
  -23.5810  -28.7020   23.3070 O   0  0  0  0  0  0  0  0  0  0  0  0
  -21.0880  -29.5990   21.6160 H   0  0  0  0  0  0  0  0  0  0  0  0
  -18.2750  -27.6380   22.6620 C   0  0  0  0  0  0  0  0  0  0  0  0
  -20.7950  -28.0670   23.0440 C   0  0  0  0  0  3  0  0  0  0  0  0
  -21.0180  -26.6460   22.4750 C   0  0  0  0  0  2  0  0  0  0  0  0
  -19.9850  -26.2540   21.4130 C   0  0  0  0  0  2  0  0  0  0  0  0
  -18.5700  -26.3050   21.9950 C   0  0  0  0  0  2  0  0  0  0  0  0
  -19.3190  -28.4720   23.1400 C   0  0  0  0  0  0  0  0  0  0  0  0
  -18.9890  -29.7180   23.7190 C   0  0  0  0  0  3  0  0  0  0  0  0
  -17.6460  -30.1270   23.8280 C   0  0  0  0  0  3  0  0  0  0  0  0
  -16.6170  -29.2890   23.3650 C   0  0  0  0  0  3  0  0  0  0  0  0
  -16.9310  -28.0480   22.7870 C   0  0  0  0  0  3  0  0  0  0  0  0
  -26.0190  -32.3420   23.8640 C   0  0  0  0  0  3  0  0  0  0  0  0
  -25.6840  -33.7110   24.2850 N   0  0  0  0  0  0  0  0  0  0  0  0
  -25.9700  -34.8160   23.5830 C   0  0  0  0  0  0  0  0  0  0  0  0
  -26.6140  -34.7910   22.5310 O   0  0  0  0  0  0  0  0  0  0  0  0
  -25.1180  -33.8050   25.1170 H   0  0  0  0  0  0  0  0  0  0  0  0
  -24.1860  -36.5780   23.3870 C   0  0  0  0  0  1  0  0  0  0  0  0
  -25.4620  -36.1620   24.1370 C   0  0  0  0  0  3  0  0  0  0  0  0
  -27.6000  -37.0520   24.9560 C   0  0  0  0  0  1  0  0  0  0  0  0
  -26.4630  -37.2490   24.0590 N   0  0  0  0  0  0  0  0  0  0  0  0
  -26.0380  -38.1470   24.2750 H   0  0  0  0  0  0  0  0  0  0  0  0
  -26.5790  -31.5120   25.0850 C   0  0  1  0  0  0  0  0  0  0  0  0
  -25.5050  -31.1540   26.1390 C   0  0  0  0  0  1  0  0  0  0  0  0
  -27.2220  -30.1910   24.6030 C   0  0  0  0  0  1  0  0  0  0  0  0
  -27.6940  -32.3140   25.7960 C   0  0  0  0  0  1  0  0  0  0  0  0
  1 53  1  6
  1  5  1  0
  1  2  1  0
  2  3  1  0
  4  5  1  0
  6  1  1  0
  6 11  1  0
  7  6  2  0
  9  8  2  0
 10  8  1  0
 11  9  1  0
 12 11  2  0
 12 13  1  0
 13 14  1  0
 13 10  2  0
 15 23  1  0
 16 21  1  0
 17 18  1  0
 17 16  1  0
 19 18  1  0
 19 28  1  0
 19 20  1  0
 21 15  1  0
 21 20  1  0
 22 15  2  0
 23 12  1  0
 24 23  1  0
 25 26  2  0
 26 45  1  0
 27 26  1  0
 27 30  1  0
 28 29  1  0
 28 25  1  0
 29 27  2  0
 30 31  1  0
 31 32  2  0
 33 36  1  0
 33 32  1  0
 34 33  2  0
 35 34  1  0
 35 30  2  0
 36 37  1  0
 37 42  2  0
 37 38  1  0
 38 39  2  0
 39 40  1  0
 40 44  1  0
 41 40  2  0
 42 41  1  0
 43 42  1  0
 45 46  1  0
 46 49  1  0
 46 48  1  0
 47 45  2  0
 50 51  1  0
 50 25  1  0
 52 50  1  0
 53 54  1  0
 55 56  1  0
 55 54  2  0
 57 68  2  0
 58 56  1  0
 58 63  1  0
 59 67  1  0
 59 69  1  0
 60 66  1  0
 60 62  1  0
 61 67  1  0
 62 61  1  0
 63 62  2  0
 64 65  1  0
 64 58  2  0
 65 60  2  0
 66 59  1  0
 67 57  1  0
 69 71  2  0
 70 69  1  0
 72 70  1  0
 73 82  2  0
 73 78  1  0
 74 70  1  0
 74 78  1  0
 75 74  1  0
 76 77  1  0
 76 75  1  0
 77 73  1  0
 78 79  2  0
 79 80  1  0
 81 80  2  0
 82 81  1  0
 83 57  1  0
 83 84  1  0
 83 93  1  0
 84 87  1  0
 85 89  1  0
 85 84  1  0
 86 85  2  0
 89 88  1  0
 91 89  1  0
 91 92  1  0
 91 90  1  0
 93 96  1  1
 93 94  1  0
 95 93  1  0
M  ISO  4  15 100  23 100  55 101  56 101
M  END
>  <TORSDO>  (33) 
F 23

>  <SCORE>  (33) 
-9.048

>  <name>  (33) 
32

>  <ligand_id>  (33) 
32

>  <original_smiles>  (33) 
[H]OC(C(=O)c1c([H])c([H])c([H])c(F)c1N([H])C(=O)N1C([H])([H])C([H])([H])C([H])([H])C([H])(n2nc(-c3c([H])c([H])c(Oc4c([H])c([H])c(F)c([H])c4F)c([H])c3[H])c(C(=O)N([H])[H])c2N([H])[H])C1([H])[H])(C([H])([H])C([H])([H])[H])C([H])([H])C([H])([H])C([H])([H])Oc1c([H])c([H])c2c(c1[H])C([H])([H])N(C(=O)C([H])(N([H])C(=O)C([H])(N([H])C([H])([H])[H])C([H])([H])[H])C(C([H])([H])[H])(C([H])([H])[H])C([H])([H])[H])C([H])(C(=O)N([H])C1([H])c3c([H])c([H])c([H])c([H])c3C([H])([H])C([H])([H])C1([H])[H])C2([H])[H]

>  <smiles>  (33) 
[H]OC(C(=O)c1c([H])c([H])c([H])c(F)c1N([H])C(=O)N1C([H])([H])C([H])([H])C([H])([H])C([H])(n2nc(-c3c([H])c([H])c(Oc4c([H])c([H])c(F)c([H])c4F)c([H])c3[H])c(C(=O)N([H])[H])c2N([H])[H])C1([H])[H])(C([H])([H])C([H])([H])[H])C([H])([H])C([H])([H])C([H])([H])Oc1c([H])c([H])c2c(c1[H])C([H])([H])N(C(=O)C([H])(N([H])C(=O)C([H])(N([H])C([H])([H])[H])C([H])([H])[H])C(C([H])([H])[H])(C([H])([H])[H])C([H])([H])[H])C([H])(C(=O)N([H])C1([H])c3c([H])c([H])c([H])c([H])c3C([H])([H])C([H])([H])C1([H])[H])C2([H])[H]

$$$$
33:0:0
     RDKit          3D

 95103  0  0  1  0  0  0  0  0999 V2000
  -29.0830  -23.3140   20.3480 C   0  0  0  0  0  0  0  0  0  0  0  0
  -29.5620  -22.0520   20.0840 N   0  0  0  0  0  0  0  0  0  0  0  0
  -29.0520  -23.8010   21.4790 O   0  0  0  0  0  0  0  0  0  0  0  0
  -29.5710  -21.8670   19.0880 H   0  0  0  0  0  0  0  0  0  0  0  0
  -30.4270  -19.6900   20.4040 C   0  0  0  0  0  3  0  0  0  0  0  0
  -29.9810  -21.0680   22.3500 C   0  0  0  0  0  3  0  0  0  0  0  0
  -30.8430  -18.5750   21.2180 C   0  0  0  0  0  0  0  0  0  0  0  0
  -30.8180  -18.7700   22.6300 C   0  0  0  0  0  0  0  0  0  0  0  0
  -30.0010  -20.9540   20.9440 C   0  0  0  0  0  0  0  0  0  0  0  0
  -30.3770  -19.9990   23.1720 C   0  0  0  0  0  0  0  0  0  0  0  0
  -31.3100  -17.7220   23.6210 C   0  0  0  0  0  1  0  0  0  0  0  0
  -30.3360  -20.1660   24.5180 F   0  0  0  0  0  0  0  0  0  0  0  0
  -31.3040  -17.2710   20.5840 C   0  0  0  0  0  3  0  0  0  0  0  0
  -30.9520  -15.9760   20.8760 C   0  0  0  0  0  3  0  0  0  0  0  0
  -31.5990  -14.7950   20.2440 C   0  0  0  0  0  0  0  0  0  0  0  0
  -31.1820  -12.6520   19.0580 C   0  0  0  0  0  2  0  0  0  0  0  0
  -30.2460  -12.9330   17.8620 C   0  0  0  0  0  2  0  0  0  0  0  0
  -28.7690  -12.8590   18.2970 C   0  0  0  0  0  2  0  0  0  0  0  0
  -28.4880  -13.6700   19.5910 C   0  0  0  0  0  3  0  0  0  0  0  0
  -29.5380  -13.3560   20.6780 C   0  0  0  0  0  2  0  0  0  0  0  0
  -30.8680  -13.6390   20.1140 N   0  0  0  0  0  0  0  0  0  0  0  0
  -32.7340  -14.8620   19.7630 O   0  0  0  0  0  0  0  0  0  0  0  0
  -26.1400  -14.3960   20.3420 C   0  0  0  0  0  0  0  0  0  0  0  0
  -25.0280  -13.6810   20.6920 C   0  0  0  0  0  0  0  0  0  0  0  0
  -25.4030  -12.3040   20.6150 C   0  0  0  0  0  0  0  0  0  0  0  0
  -27.1250  -13.4610   20.0720 N   0  0  0  0  0  0  0  0  0  0  0  0
  -26.6860  -12.1940   20.2950 N   0  0  0  0  0  0  0  0  0  0  0  0
  -24.5980  -11.0860   20.7710 C   0  0  0  0  0  0  0  0  0  0  0  0
  -24.9610  -10.0720   21.6860 C   0  0  0  0  0  3  0  0  0  0  0  0
  -24.1610   -8.9190   21.8310 C   0  0  0  0  0  3  0  0  0  0  0  0
  -22.9830   -8.7700   21.0590 C   0  0  0  0  0  0  0  0  0  0  0  0
  -22.6390   -9.7710   20.1330 C   0  0  0  0  0  3  0  0  0  0  0  0
  -23.4400  -10.9160   19.9880 C   0  0  0  0  0  3  0  0  0  0  0  0
  -22.1590   -7.6720   21.1160 O   0  0  0  0  0  0  0  0  0  0  0  0
  -21.9550   -6.9830   22.2840 C   0  0  0  0  0  0  0  0  0  0  0  0
  -21.4860   -7.6200   23.4530 C   0  0  0  0  0  3  0  0  0  0  0  0
  -21.2250   -6.8620   24.6110 C   0  0  0  0  0  3  0  0  0  0  0  0
  -21.4230   -5.4680   24.6010 C   0  0  0  0  0  0  0  0  0  0  0  0
  -21.8850   -4.8310   23.4360 C   0  0  0  0  0  3  0  0  0  0  0  0
  -22.1470   -5.5860   22.2800 C   0  0  0  0  0  0  0  0  0  0  0  0
  -22.5720   -4.9640   21.1540 F   0  0  0  0  0  0  0  0  0  0  0  0
  -21.1640   -4.7380   25.7120 F   0  0  0  0  0  0  0  0  0  0  0  0
  -23.6640  -14.2370   20.9910 C   0  0  0  0  0  0  0  0  0  0  0  0
  -22.9240  -13.5950   21.8880 N   0  0  0  0  0  0  0  0  0  0  0  0
  -23.2680  -15.2750   20.4630 O   0  0  0  0  0  0  0  0  0  0  0  0
  -23.2570  -12.7550   22.3360 H   0  0  0  0  0  0  0  0  0  0  0  0
  -22.0090  -13.9510   22.1300 H   0  0  0  0  0  0  0  0  0  0  0  0
  -26.3930  -15.7580   20.2100 N   0  0  0  0  0  0  0  0  0  0  0  0
  -25.6770  -16.4610   20.3640 H   0  0  0  0  0  0  0  0  0  0  0  0
  -27.2790  -16.1530   19.9210 H   0  0  0  0  0  0  0  0  0  0  0  0
  -28.1930  -25.3260   19.0170 C   0  0  0  0  0  3  0  0  0  0  0  0
  -28.6260  -24.0230   19.1240 C   0  0  0  0  0  0  0  0  0  0  0  0
  -28.6270  -23.3030   17.9870 O   0  0  0  0  0  0  0  0  0  0  0  0
  -28.3220  -23.8680   17.2890 H   0  0  0  0  0  0  0  0  0  0  0  0
  -28.0880  -26.3450   19.9610 O   0  0  0  0  0  0  0  0  0  0  0  0
  -24.5880  -31.7630   23.1340 C   0  0  0  0  0  0  0  0  0  0  0  0
  -26.9940  -27.2160   19.9220 C   0  0  0  0  0  0  0  0  0  0  0  0
  -23.2930  -30.4110   21.5210 C   0  0  0  0  0  3  0  0  0  0  0  0
  -24.6570  -28.8500   20.0240 C   0  0  0  0  0  0  0  0  0  0  0  0
  -25.8280  -30.6840   21.2470 C   0  0  0  0  0  2  0  0  0  0  0  0
  -25.8540  -29.3150   20.5810 C   0  0  0  0  0  0  0  0  0  0  0  0
  -27.0250  -28.5060   20.5280 C   0  0  0  0  0  3  0  0  0  0  0  0
  -25.7710  -26.7880   19.3590 C   0  0  0  0  0  3  0  0  0  0  0  0
  -24.6140  -27.5880   19.4080 C   0  0  0  0  0  3  0  0  0  0  0  0
  -23.4410  -29.7450   20.1270 C   0  0  0  0  0  2  0  0  0  0  0  0
  -24.5900  -30.9670   22.0250 N   0  0  0  0  0  0  0  0  0  0  0  0
  -23.5320  -32.0590   23.7120 O   0  0  0  0  0  0  0  0  0  0  0  0
  -22.6440  -29.3980   22.4940 C   0  0  0  0  0  0  0  0  0  0  0  0
  -21.3170  -29.2170   22.3800 N   0  0  0  0  0  0  0  0  0  0  0  0
  -23.3300  -28.7780   23.3100 O   0  0  0  0  0  0  0  0  0  0  0  0
  -20.8210  -29.7680   21.6940 H   0  0  0  0  0  0  0  0  0  0  0  0
  -17.9520  -27.9910   22.8870 C   0  0  0  0  0  0  0  0  0  0  0  0
  -20.5050  -28.2840   23.1620 C   0  0  0  0  0  3  0  0  0  0  0  0
  -20.6250  -26.8440   22.6140 C   0  0  0  0  0  2  0  0  0  0  0  0
  -19.5320  -26.4910   21.6000 C   0  0  0  0  0  2  0  0  0  0  0  0
  -18.1460  -26.6320   22.2360 C   0  0  0  0  0  2  0  0  0  0  0  0
  -19.0590  -28.7730   23.3070 C   0  0  0  0  0  0  0  0  0  0  0  0
  -18.8260  -30.0450   23.8740 C   0  0  0  0  0  3  0  0  0  0  0  0
  -17.5150  -30.5340   24.0270 C   0  0  0  0  0  3  0  0  0  0  0  0
  -16.4210  -29.7500   23.6240 C   0  0  0  0  0  3  0  0  0  0  0  0
  -16.6400  -28.4800   23.0600 C   0  0  0  0  0  3  0  0  0  0  0  0
  -25.9090  -32.3580   23.7150 C   0  0  0  0  0  3  0  0  0  0  0  0
  -26.4820  -31.5280   24.9290 C   0  0  1  0  0  0  0  0  0  0  0  0
  -25.4450  -31.2480   26.0410 C   0  0  0  0  0  1  0  0  0  0  0  0
  -27.0320  -30.1640   24.4480 C   0  0  0  0  0  1  0  0  0  0  0  0
  -27.6730  -32.2820   25.5640 C   0  0  0  0  0  1  0  0  0  0  0  0
  -25.6330  -33.7440   24.1190 N   0  0  0  0  0  0  0  0  0  0  0  0
  -25.9480  -34.8250   23.3930 C   0  0  0  0  0  0  0  0  0  0  0  0
  -26.5740  -34.7610   22.3320 O   0  0  0  0  0  0  0  0  0  0  0  0
  -25.0800  -33.8700   24.9530 H   0  0  0  0  0  0  0  0  0  0  0  0
  -24.2470  -36.6650   23.1650 C   0  0  0  0  0  1  0  0  0  0  0  0
  -25.4960  -36.1980   23.9300 C   0  0  0  0  0  3  0  0  0  0  0  0
  -27.6580  -37.0040   24.7680 C   0  0  0  0  0  1  0  0  0  0  0  0
  -26.5460  -37.2370   23.8500 N   0  0  0  0  0  0  0  0  0  0  0  0
  -26.1580  -38.1560   24.0450 H   0  0  0  0  0  0  0  0  0  0  0  0
  1  3  2  0
  2  1  1  0
  2  9  1  0
  4  2  1  0
  5  9  2  0
  5  7  1  0
  6 10  2  0
  7  8  2  0
  8 10  1  0
  8 11  1  0
  9  6  1  0
 10 12  1  0
 13 14  2  0
 13  7  1  0
 15 14  1  0
 16 21  1  0
 17 18  1  0
 17 16  1  0
 19 18  1  0
 19 26  1  0
 19 20  1  0
 21 15  1  0
 21 20  1  0
 22 15  2  0
 23 24  2  0
 24 43  1  0
 25 24  1  0
 25 28  1  0
 26 27  1  0
 26 23  1  0
 27 25  2  0
 28 29  1  0
 29 30  2  0
 31 34  1  0
 31 30  1  0
 32 31  2  0
 33 32  1  0
 33 28  2  0
 34 35  1  0
 35 36  1  0
 36 37  2  0
 38 37  1  0
 38 42  1  0
 39 38  2  0
 40 35  2  0
 40 39  1  0
 41 40  1  0
 43 44  1  0
 44 47  1  0
 44 46  1  0
 45 43  2  0
 48 23  1  0
 48 49  1  0
 50 48  1  0
 51 52  2  0
 51 55  1  0
 52  1  1  0
 53 52  1  0
 54 53  1  0
 56 67  2  0
 57 55  1  0
 57 62  1  0
 58 66  1  0
 58 68  1  0
 59 65  1  0
 59 61  1  0
 60 66  1  0
 61 60  1  0
 62 61  2  0
 63 64  1  0
 63 57  2  0
 64 59  2  0
 65 58  1  0
 66 56  1  0
 68 70  2  0
 69 68  1  0
 71 69  1  0
 72 81  2  0
 72 77  1  0
 73 69  1  0
 73 77  1  0
 74 73  1  0
 75 76  1  0
 75 74  1  0
 76 72  1  0
 77 78  2  0
 78 79  1  0
 80 79  2  0
 81 80  1  0
 82 56  1  0
 82 87  1  0
 82 83  1  0
 83 86  1  1
 83 84  1  0
 85 83  1  0
 87 90  1  0
 88 92  1  0
 88 87  1  0
 89 88  2  0
 92 91  1  0
 94 92  1  0
 94 95  1  0
 94 93  1  0
M  ISO  4  14 100  15 100  51 101  55 101
M  END
>  <TORSDO>  (34) 
F 20

>  <SCORE>  (34) 
-11.585

>  <name>  (34) 
33

>  <ligand_id>  (34) 
33

>  <original_smiles>  (34) 
[H]OC(C(=O)N([H])c1c([H])c(F)c(C([H])([H])[H])c(C([H])=C([H])C(=O)N2C([H])([H])C([H])([H])C([H])([H])C([H])(n3nc(-c4c([H])c([H])c(Oc5c([H])c([H])c(F)c([H])c5F)c([H])c4[H])c(C(=O)N([H])[H])c3N([H])[H])C2([H])[H])c1[H])=C([H])Oc1c([H])c([H])c2c(c1[H])C([H])([H])N(C(=O)C([H])(N([H])C(=O)C([H])(N([H])C([H])([H])[H])C([H])([H])[H])C(C([H])([H])[H])(C([H])([H])[H])C([H])([H])[H])C([H])(C(=O)N([H])C1([H])c3c([H])c([H])c([H])c([H])c3C([H])([H])C([H])([H])C1([H])[H])C2([H])[H]

>  <smiles>  (34) 
[H]OC(C(=O)N([H])c1c([H])c(F)c(C([H])([H])[H])c(C([H])=C([H])C(=O)N2C([H])([H])C([H])([H])C([H])([H])C([H])(n3nc(-c4c([H])c([H])c(Oc5c([H])c([H])c(F)c([H])c5F)c([H])c4[H])c(C(=O)N([H])[H])c3N([H])[H])C2([H])[H])c1[H])=C([H])Oc1c([H])c([H])c2c(c1[H])C([H])([H])N(C(=O)C([H])(N([H])C(=O)C([H])(N([H])C([H])([H])[H])C([H])([H])[H])C(C([H])([H])[H])(C([H])([H])[H])C([H])([H])[H])C([H])(C(=O)N([H])C1([H])c3c([H])c([H])c([H])c([H])c3C([H])([H])C([H])([H])C1([H])[H])C2([H])[H]

$$$$
34:0:0
     RDKit          3D

 96105  0  0  1  0  0  0  0  0999 V2000
  -31.1720  -22.8100   20.8610 C   0  0  0  0  0  2  0  0  0  0  0  0
  -30.4840  -21.4400   21.1400 C   0  0  0  0  0  2  0  0  0  0  0  0
  -28.1490  -21.6710   20.0360 C   0  0  0  0  0  2  0  0  0  0  0  0
  -30.3180  -24.1180   20.7910 C   0  0  0  0  0  2  0  0  0  0  0  0
  -28.0250  -23.2400   20.2350 C   0  0  0  0  0  2  0  0  0  0  0  0
  -29.5510  -20.9830   20.0010 C   0  0  0  0  0  3  0  0  0  0  0  0
  -29.1680  -24.1900   19.7400 C   0  0  2  0  0  0  0  0  0  0  0  0
  -29.4450  -19.2670   18.1690 C   0  0  0  0  0  3  0  0  0  0  0  0
  -29.6490  -16.8950   18.5250 C   0  0  0  0  0  3  0  0  0  0  0  0
  -29.4760  -17.9720   17.6520 C   0  0  0  0  0  0  0  0  0  0  0  0
  -29.5800  -19.4750   19.5530 C   0  0  0  0  0  0  0  0  0  0  0  0
  -29.7820  -17.1050   19.9140 C   0  0  0  0  0  0  0  0  0  0  0  0
  -29.7010  -18.3980   20.4130 N   0  0  0  0  0  0  0  0  0  0  0  0
  -29.3360  -17.7630   16.3220 F   0  0  0  0  0  0  0  0  0  0  0  0
  -30.6580  -14.8000   20.4680 C   0  0  0  0  0  0  0  0  0  0  0  0
  -30.4750  -12.5550   19.4490 C   0  0  0  0  0  2  0  0  0  0  0  0
  -29.5630  -12.6680   18.2060 C   0  0  0  0  0  2  0  0  0  0  0  0
  -28.0820  -12.5100   18.6000 C   0  0  0  0  0  2  0  0  0  0  0  0
  -27.6860  -13.3730   19.8280 C   0  0  0  0  0  3  0  0  0  0  0  0
  -28.7190  -13.2450   20.9700 C   0  0  0  0  0  2  0  0  0  0  0  0
  -30.0400  -13.5790   20.4200 N   0  0  0  0  0  0  0  0  0  0  0  0
  -31.8370  -14.9280   20.1260 O   0  0  0  0  0  0  0  0  0  0  0  0
  -29.8740  -15.8980   20.7230 N   0  0  0  0  0  0  0  0  0  0  0  0
  -29.0370  -15.6950   21.2440 H   0  0  0  0  0  0  0  0  0  0  0  0
  -25.2660  -13.9430   20.4770 C   0  0  0  0  0  0  0  0  0  0  0  0
  -24.2020  -13.1590   20.8320 C   0  0  0  0  0  0  0  0  0  0  0  0
  -24.6860  -11.8160   20.8320 C   0  0  0  0  0  0  0  0  0  0  0  0
  -26.3300  -13.0780   20.2820 N   0  0  0  0  0  0  0  0  0  0  0  0
  -25.9840  -11.7940   20.5560 N   0  0  0  0  0  0  0  0  0  0  0  0
  -23.9730  -10.5460   21.0220 C   0  0  0  0  0  0  0  0  0  0  0  0
  -24.3970   -9.5990   21.9800 C   0  0  0  0  0  3  0  0  0  0  0  0
  -23.6860   -8.3910   22.1570 C   0  0  0  0  0  3  0  0  0  0  0  0
  -22.5370   -8.1240   21.3730 C   0  0  0  0  0  0  0  0  0  0  0  0
  -22.1340   -9.0610   20.4040 C   0  0  0  0  0  3  0  0  0  0  0  0
  -22.8450  -10.2580   20.2270 C   0  0  0  0  0  3  0  0  0  0  0  0
  -21.7980   -6.9690   21.4580 O   0  0  0  0  0  0  0  0  0  0  0  0
  -21.7320   -6.2390   22.6170 C   0  0  0  0  0  0  0  0  0  0  0  0
  -21.2630   -6.8000   23.8250 C   0  0  0  0  0  3  0  0  0  0  0  0
  -21.1480   -5.9950   24.9760 C   0  0  0  0  0  3  0  0  0  0  0  0
  -21.4900   -4.6300   24.9200 C   0  0  0  0  0  0  0  0  0  0  0  0
  -21.9530   -4.0700   23.7150 C   0  0  0  0  0  3  0  0  0  0  0  0
  -22.0710   -4.8710   22.5670 C   0  0  0  0  0  0  0  0  0  0  0  0
  -22.4960   -4.3210   21.4040 F   0  0  0  0  0  0  0  0  0  0  0  0
  -21.3740   -3.8550   26.0230 F   0  0  0  0  0  0  0  0  0  0  0  0
  -22.7900  -13.6200   21.0600 C   0  0  0  0  0  0  0  0  0  0  0  0
  -22.0480  -12.9250   21.9160 N   0  0  0  0  0  0  0  0  0  0  0  0
  -22.3510  -14.6320   20.5150 O   0  0  0  0  0  0  0  0  0  0  0  0
  -22.4170  -12.1120   22.3840 H   0  0  0  0  0  0  0  0  0  0  0  0
  -21.1000  -13.2160   22.1070 H   0  0  0  0  0  0  0  0  0  0  0  0
  -25.4190  -15.3130   20.2830 N   0  0  0  0  0  0  0  0  0  0  0  0
  -24.6460  -15.9620   20.3760 H   0  0  0  0  0  0  0  0  0  0  0  0
  -26.2680  -15.7530   19.9560 H   0  0  0  0  0  0  0  0  0  0  0  0
  -30.6560  -24.1670   17.7560 C   0  0  0  0  0  1  0  0  0  0  0  0
  -29.5770  -23.5970   18.4980 O   0  0  0  0  0  0  0  0  0  0  0  0
  -28.7060  -25.6850   19.3680 C   0  0  0  0  0  2  0  0  0  0  0  0
  -28.3910  -26.7090   20.3570 O   0  0  0  0  0  0  0  0  0  0  0  0
  -24.5460  -31.9840   23.3060 C   0  0  0  0  0  0  0  0  0  0  0  0
  -27.2370  -27.4920   20.2560 C   0  0  0  0  0  0  0  0  0  0  0  0
  -23.3620  -30.5750   21.6560 C   0  0  0  0  0  3  0  0  0  0  0  0
  -24.8380  -29.0440   20.2340 C   0  0  0  0  0  0  0  0  0  0  0  0
  -25.8940  -30.9300   21.4840 C   0  0  0  0  0  2  0  0  0  0  0  0
  -25.9920  -29.5550   20.8390 C   0  0  0  0  0  0  0  0  0  0  0  0
  -27.1870  -28.7850   20.8500 C   0  0  0  0  0  3  0  0  0  0  0  0
  -26.0520  -27.0120   19.6460 C   0  0  0  0  0  3  0  0  0  0  0  0
  -24.8680  -27.7750   19.6330 C   0  0  0  0  0  3  0  0  0  0  0  0
  -23.5890  -29.8980   20.2760 C   0  0  0  0  0  2  0  0  0  0  0  0
  -24.6190  -31.1800   22.2070 N   0  0  0  0  0  0  0  0  0  0  0  0
  -23.4580  -32.2510   23.8370 O   0  0  0  0  0  0  0  0  0  0  0  0
  -22.7060  -29.5530   22.6130 C   0  0  0  0  0  0  0  0  0  0  0  0
  -21.3870  -29.3480   22.4630 N   0  0  0  0  0  0  0  0  0  0  0  0
  -23.3830  -28.9450   23.4480 O   0  0  0  0  0  0  0  0  0  0  0  0
  -20.9010  -29.8910   21.7640 H   0  0  0  0  0  0  0  0  0  0  0  0
  -18.0290  -28.0760   22.8900 C   0  0  0  0  0  0  0  0  0  0  0  0
  -20.5720  -28.4010   23.2260 C   0  0  0  0  0  3  0  0  0  0  0  0
  -20.7230  -26.9650   22.6740 C   0  0  0  0  0  2  0  0  0  0  0  0
  -19.6580  -26.6020   21.6350 C   0  0  0  0  0  2  0  0  0  0  0  0
  -18.2560  -26.7220   22.2400 C   0  0  0  0  0  2  0  0  0  0  0  0
  -19.1170  -28.8720   23.3380 C   0  0  0  0  0  0  0  0  0  0  0  0
  -18.8520  -30.1370   23.9050 C   0  0  0  0  0  3  0  0  0  0  0  0
  -17.5320  -30.6090   24.0290 C   0  0  0  0  0  3  0  0  0  0  0  0
  -16.4580  -29.8110   23.5970 C   0  0  0  0  0  3  0  0  0  0  0  0
  -16.7070  -28.5480   23.0340 C   0  0  0  0  0  3  0  0  0  0  0  0
  -25.8220  -32.6260   23.9350 C   0  0  0  0  0  3  0  0  0  0  0  0
  -26.3190  -31.8750   25.2330 C   0  0  1  0  0  0  0  0  0  0  0  0
  -25.2100  -31.6580   26.2890 C   0  0  0  0  0  1  0  0  0  0  0  0
  -26.9060  -30.4900   24.8750 C   0  0  0  0  0  1  0  0  0  0  0  0
  -27.4600  -32.6810   25.8990 C   0  0  0  0  0  1  0  0  0  0  0  0
  -25.5110  -34.0300   24.2350 N   0  0  0  0  0  0  0  0  0  0  0  0
  -25.8580  -35.0680   23.4630 C   0  0  0  0  0  0  0  0  0  0  0  0
  -26.5430  -34.9440   22.4440 O   0  0  0  0  0  0  0  0  0  0  0  0
  -24.9050  -34.2000   25.0240 H   0  0  0  0  0  0  0  0  0  0  0  0
  -24.1390  -36.8570   23.0520 C   0  0  0  0  0  1  0  0  0  0  0  0
  -25.3680  -36.4660   23.8880 C   0  0  0  0  0  3  0  0  0  0  0  0
  -27.4920  -37.3630   24.7320 C   0  0  0  0  0  1  0  0  0  0  0  0
  -26.4040  -37.5140   23.7690 N   0  0  0  0  0  0  0  0  0  0  0  0
  -25.9970  -38.4370   23.8930 H   0  0  0  0  0  0  0  0  0  0  0  0
  1  2  1  0
  3  5  1  0
  4  1  1  0
  6 11  1  0
  6  3  1  0
  6  2  1  0
  7 55  1  6
  7  5  1  0
  7  4  1  0
  8 11  1  0
  9 12  2  0
 10  8  2  0
 10  9  1  0
 11 13  2  0
 12 13  1  0
 12 23  1  0
 14 10  1  0
 15 23  1  0
 16 21  1  0
 17 18  1  0
 17 16  1  0
 19 18  1  0
 19 28  1  0
 19 20  1  0
 21 15  1  0
 21 20  1  0
 22 15  2  0
 23 24  1  0
 25 26  2  0
 26 45  1  0
 27 26  1  0
 27 30  1  0
 28 25  1  0
 28 29  1  0
 29 27  2  0
 30 31  1  0
 31 32  2  0
 33 36  1  0
 33 32  1  0
 34 33  2  0
 35 34  1  0
 35 30  2  0
 36 37  1  0
 37 38  1  0
 38 39  2  0
 40 39  1  0
 40 44  1  0
 41 40  2  0
 42 37  2  0
 42 41  1  0
 43 42  1  0
 45 46  1  0
 46 49  1  0
 46 48  1  0
 47 45  2  0
 50 51  1  0
 50 25  1  0
 52 50  1  0
 53 54  1  0
 54  7  1  0
 55 56  1  0
 57 68  2  0
 58 56  1  0
 58 63  1  0
 59 67  1  0
 59 69  1  0
 60 66  1  0
 60 62  1  0
 61 67  1  0
 62 63  2  0
 62 61  1  0
 64 58  2  0
 65 64  1  0
 65 60  2  0
 66 59  1  0
 67 57  1  0
 69 71  2  0
 70 69  1  0
 72 70  1  0
 73 82  2  0
 73 78  1  0
 74 70  1  0
 74 78  1  0
 75 74  1  0
 76 77  1  0
 76 75  1  0
 77 73  1  0
 78 79  2  0
 79 80  1  0
 81 80  2  0
 82 81  1  0
 83 57  1  0
 83 88  1  0
 83 84  1  0
 84 87  1  1
 84 85  1  0
 86 84  1  0
 88 91  1  0
 89 93  1  0
 89 88  1  0
 90 89  2  0
 93 92  1  0
 95 93  1  0
 95 96  1  0
 95 94  1  0
M  ISO  4  15 100  23 100  55 101  56 101
M  END
>  <TORSDO>  (35) 
F 19

>  <SCORE>  (35) 
-13.854

>  <name>  (35) 
34

>  <ligand_id>  (35) 
34

>  <original_smiles>  (35) 
[H]c1c([H])c([H])c2c(c1[H])C([H])([H])C([H])([H])C([H])([H])C2([H])N([H])C(=O)C1([H])N(C(=O)C([H])(N([H])C(=O)C([H])(N([H])C([H])([H])[H])C([H])([H])[H])C(C([H])([H])[H])(C([H])([H])[H])C([H])([H])[H])C([H])([H])c2c([H])c(OC([H])([H])C3(OC([H])([H])[H])C([H])([H])C([H])([H])C([H])([H])C([H])(c4nc(N([H])C(=O)N5C([H])([H])C([H])([H])C([H])([H])C([H])(n6nc(-c7c([H])c([H])c(Oc8c([H])c([H])c(F)c([H])c8F)c([H])c7[H])c(C(=O)N([H])[H])c6N([H])[H])C5([H])[H])c([H])c(F)c4[H])C([H])([H])C3([H])[H])c([H])c([H])c2C1([H])[H]

>  <smiles>  (35) 
[H]c1c([H])c([H])c2c(c1[H])C([H])([H])C([H])([H])C([H])([H])C2([H])N([H])C(=O)C1([H])N(C(=O)C([H])(N([H])C(=O)C([H])(N([H])C([H])([H])[H])C([H])([H])[H])C(C([H])([H])[H])(C([H])([H])[H])C([H])([H])[H])C([H])([H])c2c([H])c(OC([H])([H])C3(OC([H])([H])[H])C([H])([H])C([H])([H])C([H])([H])C([H])(c4nc(N([H])C(=O)N5C([H])([H])C([H])([H])C([H])([H])C([H])(n6nc(-c7c([H])c([H])c(Oc8c([H])c([H])c(F)c([H])c8F)c([H])c7[H])c(C(=O)N([H])[H])c6N([H])[H])C5([H])[H])c([H])c(F)c4[H])C([H])([H])C3([H])[H])c([H])c([H])c2C1([H])[H]

$$$$
35:0:0
     RDKit          3D

 94102  0  0  1  0  0  0  0  0999 V2000
  -28.6140  -18.9160   19.9370 C   0  0  0  0  0  3  0  0  0  0  0  0
  -28.2980  -20.3010   19.7750 C   0  0  0  0  0  3  0  0  0  0  0  0
  -29.8240  -18.5040   20.5490 C   0  0  0  0  0  0  0  0  0  0  0  0
  -30.2980  -20.9290   20.9750 C   0  0  0  0  0  0  0  0  0  0  0  0
  -29.1370  -21.3480   20.2520 C   0  0  0  0  0  0  0  0  0  0  0  0
  -30.6140  -19.5410   21.1100 C   0  0  0  0  0  0  0  0  0  0  0  0
  -31.7560  -19.1920   21.7560 F   0  0  0  0  0  0  0  0  0  0  0  0
  -28.6720  -23.9220   20.4110 C   0  0  0  0  0  0  0  0  0  0  0  0
  -28.8700  -22.7150   19.7870 N   0  0  0  0  0  0  0  0  0  0  0  0
  -28.5760  -24.0220   21.6370 O   0  0  0  0  0  0  0  0  0  0  0  0
  -28.7700  -22.7860   18.7830 H   0  0  0  0  0  0  0  0  0  0  0  0
  -29.7450  -25.4080   18.6120 C   0  0  0  0  0  1  0  0  0  0  0  0
  -28.5070  -25.2150   19.5040 C   0  0  0  0  0  3  0  0  0  0  0  0
  -28.3610  -26.5030   20.2250 O   0  0  0  0  0  0  0  0  0  0  0  0
  -24.5970  -31.8590   23.2390 C   0  0  0  0  0  0  0  0  0  0  0  0
  -27.2120  -27.3090   20.1560 C   0  0  0  0  0  0  0  0  0  0  0  0
  -23.3920  -30.4610   21.5980 C   0  0  0  0  0  3  0  0  0  0  0  0
  -24.8410  -28.9150   20.1700 C   0  0  0  0  0  0  0  0  0  0  0  0
  -25.9330  -30.7810   21.4150 C   0  0  0  0  0  2  0  0  0  0  0  0
  -26.0090  -29.4050   20.7640 C   0  0  0  0  0  0  0  0  0  0  0  0
  -27.1940  -28.6110   20.7480 C   0  0  0  0  0  3  0  0  0  0  0  0
  -26.0090  -26.8670   19.5560 C   0  0  0  0  0  3  0  0  0  0  0  0
  -24.8420  -27.6520   19.5620 C   0  0  0  0  0  3  0  0  0  0  0  0
  -23.6020  -29.7850   20.2190 C   0  0  0  0  0  2  0  0  0  0  0  0
  -24.6600  -31.0520   22.1390 N   0  0  0  0  0  0  0  0  0  0  0  0
  -23.5120  -32.1360   23.7730 O   0  0  0  0  0  0  0  0  0  0  0  0
  -22.7300  -29.4430   22.5580 C   0  0  0  0  0  0  0  0  0  0  0  0
  -21.4030  -29.2710   22.4360 N   0  0  0  0  0  0  0  0  0  0  0  0
  -23.4100  -28.8130   23.3710 O   0  0  0  0  0  0  0  0  0  0  0  0
  -20.9150  -29.8310   21.7490 H   0  0  0  0  0  0  0  0  0  0  0  0
  -18.0220  -28.0940   22.9510 C   0  0  0  0  0  0  0  0  0  0  0  0
  -20.5840  -28.3350   23.2060 C   0  0  0  0  0  3  0  0  0  0  0  0
  -20.6710  -26.9050   22.6240 C   0  0  0  0  0  2  0  0  0  0  0  0
  -19.5610  -26.5960   21.6150 C   0  0  0  0  0  2  0  0  0  0  0  0
  -18.1850  -26.7470   22.2660 C   0  0  0  0  0  2  0  0  0  0  0  0
  -19.1480  -28.8460   23.3780 C   0  0  0  0  0  0  0  0  0  0  0  0
  -18.9420  -30.1080   23.9770 C   0  0  0  0  0  3  0  0  0  0  0  0
  -17.6420  -30.6190   24.1480 C   0  0  0  0  0  3  0  0  0  0  0  0
  -16.5290  -29.8640   23.7360 C   0  0  0  0  0  3  0  0  0  0  0  0
  -16.7200  -28.6020   23.1460 C   0  0  0  0  0  3  0  0  0  0  0  0
  -25.8780  -32.4900   23.8620 C   0  0  0  0  0  3  0  0  0  0  0  0
  -26.3890  -31.7220   25.1430 C   0  0  1  0  0  0  0  0  0  0  0  0
  -25.2930  -31.4890   26.2090 C   0  0  0  0  0  1  0  0  0  0  0  0
  -26.9700  -30.3410   24.7580 C   0  0  0  0  0  1  0  0  0  0  0  0
  -27.5420  -32.5130   25.8040 C   0  0  0  0  0  1  0  0  0  0  0  0
  -25.5700  -33.8900   24.1890 N   0  0  0  0  0  0  0  0  0  0  0  0
  -25.9070  -34.9410   23.4300 C   0  0  0  0  0  0  0  0  0  0  0  0
  -26.5800  -34.8350   22.4030 O   0  0  0  0  0  0  0  0  0  0  0  0
  -24.9650  -34.0460   24.9820 H   0  0  0  0  0  0  0  0  0  0  0  0
  -24.1800  -36.7350   23.0680 C   0  0  0  0  0  1  0  0  0  0  0  0
  -25.4180  -36.3310   23.8850 C   0  0  0  0  0  3  0  0  0  0  0  0
  -27.5540  -37.2080   24.7190 C   0  0  0  0  0  1  0  0  0  0  0  0
  -26.4520  -37.3840   23.7770 N   0  0  0  0  0  0  0  0  0  0  0  0
  -26.0460  -38.3030   23.9310 H   0  0  0  0  0  0  0  0  0  0  0  0
  -30.3650  -17.0850   20.5530 C   0  0  0  0  0  3  0  0  0  0  0  0
  -29.7790  -15.8440   20.5580 C   0  0  0  0  0  3  0  0  0  0  0  0
  -30.5920  -14.6050   20.3650 C   0  0  0  0  0  0  0  0  0  0  0  0
  -30.3310  -12.3790   19.3100 C   0  0  0  0  0  2  0  0  0  0  0  0
  -29.4080  -12.5450   18.0830 C   0  0  0  0  0  2  0  0  0  0  0  0
  -27.9270  -12.4090   18.4920 C   0  0  0  0  0  2  0  0  0  0  0  0
  -27.5710  -13.2530   19.7460 C   0  0  0  0  0  3  0  0  0  0  0  0
  -28.6220  -13.0880   20.8640 C   0  0  0  0  0  2  0  0  0  0  0  0
  -29.9360  -13.4050   20.2970 N   0  0  0  0  0  0  0  0  0  0  0  0
  -31.7840  -14.6670   20.0430 O   0  0  0  0  0  0  0  0  0  0  0  0
  -25.1830  -13.8610   20.4540 C   0  0  0  0  0  0  0  0  0  0  0  0
  -24.1130  -13.0940   20.8230 C   0  0  0  0  0  0  0  0  0  0  0  0
  -24.5720  -11.7410   20.8060 C   0  0  0  0  0  0  0  0  0  0  0  0
  -26.2240  -12.9750   20.2280 N   0  0  0  0  0  0  0  0  0  0  0  0
  -25.8640  -11.6960   20.5040 N   0  0  0  0  0  0  0  0  0  0  0  0
  -23.8420  -10.4820   21.0020 C   0  0  0  0  0  0  0  0  0  0  0  0
  -24.2660   -9.5220   21.9470 C   0  0  0  0  0  3  0  0  0  0  0  0
  -23.5380   -8.3270   22.1310 C   0  0  0  0  0  3  0  0  0  0  0  0
  -22.3700   -8.0850   21.3700 C   0  0  0  0  0  0  0  0  0  0  0  0
  -21.9630   -9.0330   20.4150 C   0  0  0  0  0  3  0  0  0  0  0  0
  -22.6920  -10.2180   20.2290 C   0  0  0  0  0  3  0  0  0  0  0  0
  -21.6130   -6.9410   21.4630 O   0  0  0  0  0  0  0  0  0  0  0  0
  -21.5540   -6.2090   22.6210 C   0  0  0  0  0  0  0  0  0  0  0  0
  -21.1200   -6.7760   23.8400 C   0  0  0  0  0  3  0  0  0  0  0  0
  -21.0080   -5.9690   24.9900 C   0  0  0  0  0  3  0  0  0  0  0  0
  -21.3190   -4.5970   24.9210 C   0  0  0  0  0  0  0  0  0  0  0  0
  -21.7470   -4.0310   23.7080 C   0  0  0  0  0  3  0  0  0  0  0  0
  -21.8590   -4.8350   22.5600 C   0  0  0  0  0  0  0  0  0  0  0  0
  -22.2510   -4.2800   21.3870 F   0  0  0  0  0  0  0  0  0  0  0  0
  -21.2040   -3.8210   26.0230 F   0  0  0  0  0  0  0  0  0  0  0  0
  -22.7170  -13.5760   21.0830 C   0  0  0  0  0  0  0  0  0  0  0  0
  -21.9800  -12.8890   21.9470 N   0  0  0  0  0  0  0  0  0  0  0  0
  -22.2840  -14.5980   20.5490 O   0  0  0  0  0  0  0  0  0  0  0  0
  -22.3420  -12.0640   22.4020 H   0  0  0  0  0  0  0  0  0  0  0  0
  -21.0400  -13.1930   22.1610 H   0  0  0  0  0  0  0  0  0  0  0  0
  -25.3520  -15.2300   20.2650 N   0  0  0  0  0  0  0  0  0  0  0  0
  -24.5860  -15.8870   20.3740 H   0  0  0  0  0  0  0  0  0  0  0  0
  -26.2030  -15.6610   19.9270 H   0  0  0  0  0  0  0  0  0  0  0  0
  -32.4700  -22.1950   20.6090 C   0  0  0  0  0  1  0  0  0  0  0  0
  -31.3000  -21.9140   21.5600 C   0  0  0  0  0  2  0  0  0  0  0  0
  1  3  1  0
  2  1  2  0
  2  5  1  0
  3 55  1  0
  3  6  2  0
  4  6  1  0
  4 94  1  0
  5  4  2  0
  6  7  1  0
  8 10  2  0
  9  5  1  0
  9  8  1  0
 11  9  1  0
 13 12  1  0
 13 14  1  0
 13  8  1  0
 15 26  2  0
 16 14  1  0
 16 21  1  0
 17 25  1  0
 17 27  1  0
 18 24  1  0
 18 20  1  0
 19 25  1  0
 20 19  1  0
 21 20  2  0
 22 23  1  0
 22 16  2  0
 23 18  2  0
 24 17  1  0
 25 15  1  0
 27 29  2  0
 28 27  1  0
 30 28  1  0
 31 40  2  0
 31 36  1  0
 32 28  1  0
 32 36  1  0
 33 32  1  0
 34 35  1  0
 34 33  1  0
 35 31  1  0
 36 37  2  0
 37 38  1  0
 39 38  2  0
 40 39  1  0
 41 15  1  0
 41 46  1  0
 41 42  1  0
 42 45  1  1
 42 43  1  0
 44 42  1  0
 46 49  1  0
 47 51  1  0
 47 46  1  0
 48 47  2  0
 51 50  1  0
 53 51  1  0
 53 54  1  0
 53 52  1  0
 55 56  2  0
 57 56  1  0
 58 63  1  0
 59 60  1  0
 59 58  1  0
 61 60  1  0
 61 68  1  0
 61 62  1  0
 63 57  1  0
 63 62  1  0
 64 57  2  0
 65 66  2  0
 66 85  1  0
 67 66  1  0
 67 70  1  0
 68 65  1  0
 68 69  1  0
 69 67  2  0
 70 71  1  0
 71 72  2  0
 73 76  1  0
 73 72  1  0
 74 73  2  0
 75 74  1  0
 75 70  2  0
 76 77  1  0
 77 78  1  0
 78 79  2  0
 80 79  1  0
 80 84  1  0
 81 80  2  0
 82 77  2  0
 82 81  1  0
 83 82  1  0
 85 86  1  0
 86 89  1  0
 86 88  1  0
 87 85  2  0
 90 91  1  0
 90 65  1  0
 92 90  1  0
 93 94  1  0
M  ISO  4  13 101  14 101  56 100  57 100
M  END
>  <TORSDO>  (36) 
F 20

>  <SCORE>  (36) 
-14.095

>  <name>  (36) 
35

>  <ligand_id>  (36) 
35

>  <original_smiles>  (36) 
[H]C(C(=O)N1C([H])([H])C([H])([H])C([H])([H])C([H])(n2nc(-c3c([H])c([H])c(Oc4c([H])c([H])c(F)c([H])c4F)c([H])c3[H])c(C(=O)N([H])[H])c2N([H])[H])C1([H])[H])=C([H])c1c([H])c([H])c(N([H])C(=O)C([H])(Oc2c([H])c([H])c3c(c2[H])C([H])([H])N(C(=O)C([H])(N([H])C(=O)C([H])(N([H])C([H])([H])[H])C([H])([H])[H])C(C([H])([H])[H])(C([H])([H])[H])C([H])([H])[H])C([H])(C(=O)N([H])C2([H])c4c([H])c([H])c([H])c([H])c4C([H])([H])C([H])([H])C2([H])[H])C3([H])[H])C([H])([H])[H])c(C([H])([H])C([H])([H])[H])c1F

>  <smiles>  (36) 
[H]C(C(=O)N1C([H])([H])C([H])([H])C([H])([H])C([H])(n2nc(-c3c([H])c([H])c(Oc4c([H])c([H])c(F)c([H])c4F)c([H])c3[H])c(C(=O)N([H])[H])c2N([H])[H])C1([H])[H])=C([H])c1c([H])c([H])c(N([H])C(=O)C([H])(Oc2c([H])c([H])c3c(c2[H])C([H])([H])N(C(=O)C([H])(N([H])C(=O)C([H])(N([H])C([H])([H])[H])C([H])([H])[H])C(C([H])([H])[H])(C([H])([H])[H])C([H])([H])[H])C([H])(C(=O)N([H])C2([H])c4c([H])c([H])c([H])c([H])c4C([H])([H])C([H])([H])C2([H])[H])C3([H])[H])C([H])([H])[H])c(C([H])([H])C([H])([H])[H])c1F

$$$$
36:0:0
     RDKit          3D

 93101  0  0  1  0  0  0  0  0999 V2000
  -29.9780  -21.5060   20.0550 N   0  0  0  0  0  0  0  0  0  0  0  0
  -30.8550  -21.9270   19.7500 H   0  0  0  0  0  0  0  0  0  0  0  0
  -31.2240  -17.9210   20.1900 C   0  0  0  0  0  3  0  0  0  0  0  0
  -28.7910  -19.3060   20.4400 C   0  0  0  0  0  3  0  0  0  0  0  0
  -30.0550  -17.1530   20.4330 C   0  0  0  0  0  0  0  0  0  0  0  0
  -29.9560  -20.0770   20.1920 C   0  0  0  0  0  0  0  0  0  0  0  0
  -28.8440  -17.8850   20.5540 C   0  0  0  0  0  0  0  0  0  0  0  0
  -31.1710  -19.3430   20.0720 C   0  0  0  0  0  0  0  0  0  0  0  0
  -27.6970  -17.1980   20.7790 F   0  0  0  0  0  0  0  0  0  0  0  0
  -32.3200  -20.0220   19.8360 F   0  0  0  0  0  0  0  0  0  0  0  0
  -30.7580  -14.6750   20.0760 C   0  0  0  0  0  0  0  0  0  0  0  0
  -30.4920  -12.4810   18.9420 C   0  0  0  0  0  2  0  0  0  0  0  0
  -29.4770  -12.6560   17.7910 C   0  0  0  0  0  2  0  0  0  0  0  0
  -28.0330  -12.4730   18.3000 C   0  0  0  0  0  2  0  0  0  0  0  0
  -27.7460  -13.2850   19.5910 C   0  0  0  0  0  3  0  0  0  0  0  0
  -28.8690  -13.0860   20.6350 C   0  0  0  0  0  2  0  0  0  0  0  0
  -30.1440  -13.4530   19.9960 N   0  0  0  0  0  0  0  0  0  0  0  0
  -31.8860  -14.8580   19.6080 O   0  0  0  0  0  0  0  0  0  0  0  0
  -29.9870  -15.6960   20.5560 N   0  0  0  0  0  0  0  0  0  0  0  0
  -29.1180  -15.3760   20.9590 H   0  0  0  0  0  0  0  0  0  0  0  0
  -25.3950  -13.8450   20.4660 C   0  0  0  0  0  0  0  0  0  0  0  0
  -24.3530  -13.0540   20.8640 C   0  0  0  0  0  0  0  0  0  0  0  0
  -24.8160  -11.7070   20.7570 C   0  0  0  0  0  0  0  0  0  0  0  0
  -26.4280  -12.9800   20.1410 N   0  0  0  0  0  0  0  0  0  0  0  0
  -26.0880  -11.6860   20.3750 N   0  0  0  0  0  0  0  0  0  0  0  0
  -24.1060  -10.4360   20.9420 C   0  0  0  0  0  0  0  0  0  0  0  0
  -24.5320   -9.4830   21.8950 C   0  0  0  0  0  3  0  0  0  0  0  0
  -23.8210   -8.2750   22.0670 C   0  0  0  0  0  3  0  0  0  0  0  0
  -22.6700   -8.0120   21.2860 C   0  0  0  0  0  0  0  0  0  0  0  0
  -22.2640   -8.9530   20.3250 C   0  0  0  0  0  3  0  0  0  0  0  0
  -22.9750  -10.1520   20.1510 C   0  0  0  0  0  3  0  0  0  0  0  0
  -21.9330   -6.8560   21.3660 O   0  0  0  0  0  0  0  0  0  0  0  0
  -21.7890   -6.1730   22.5480 C   0  0  0  0  0  0  0  0  0  0  0  0
  -21.2020   -6.7700   23.6850 C   0  0  0  0  0  3  0  0  0  0  0  0
  -21.0100   -6.0110   24.8570 C   0  0  0  0  0  3  0  0  0  0  0  0
  -21.3950   -4.6570   24.8930 C   0  0  0  0  0  0  0  0  0  0  0  0
  -21.9760   -4.0610   23.7590 C   0  0  0  0  0  3  0  0  0  0  0  0
  -22.1690   -4.8170   22.5890 C   0  0  0  0  0  0  0  0  0  0  0  0
  -22.7090   -4.2320   21.4930 F   0  0  0  0  0  0  0  0  0  0  0  0
  -21.2050   -3.9270   26.0150 F   0  0  0  0  0  0  0  0  0  0  0  0
  -22.9720  -13.5140   21.2360 C   0  0  0  0  0  0  0  0  0  0  0  0
  -22.2970  -12.7820   22.1150 N   0  0  0  0  0  0  0  0  0  0  0  0
  -22.5030  -14.5580   20.7850 O   0  0  0  0  0  0  0  0  0  0  0  0
  -22.6910  -11.9370   22.5030 H   0  0  0  0  0  0  0  0  0  0  0  0
  -21.3750  -13.0700   22.4060 H   0  0  0  0  0  0  0  0  0  0  0  0
  -25.5440  -15.2230   20.3350 N   0  0  0  0  0  0  0  0  0  0  0  0
  -24.7910  -15.8670   20.5520 H   0  0  0  0  0  0  0  0  0  0  0  0
  -26.3970  -15.6950   20.0660 H   0  0  0  0  0  0  0  0  0  0  0  0
  -28.8790  -22.4770   20.3520 C   0  0  0  0  0  2  0  0  0  0  0  0
  -29.1880  -24.0110   20.0990 C   0  0  0  0  0  0  0  0  0  0  0  0
  -30.2800  -24.3450   19.6240 O   0  0  0  0  0  0  0  0  0  0  0  0
  -28.0950  -25.0870   20.4590 C   0  0  0  0  0  2  0  0  0  0  0  0
  -28.3810  -26.4980   20.1050 O   0  0  0  0  0  0  0  0  0  0  0  0
  -24.6160  -31.8340   23.1770 C   0  0  0  0  0  0  0  0  0  0  0  0
  -27.2680  -27.3470   20.0720 C   0  0  0  0  0  0  0  0  0  0  0  0
  -23.4290  -30.4590   21.5040 C   0  0  0  0  0  3  0  0  0  0  0  0
  -24.8960  -28.9390   20.0660 C   0  0  0  0  0  0  0  0  0  0  0  0
  -25.9670  -30.7930   21.3460 C   0  0  0  0  0  2  0  0  0  0  0  0
  -26.0580  -29.4260   20.6800 C   0  0  0  0  0  0  0  0  0  0  0  0
  -27.2480  -28.6420   20.6740 C   0  0  0  0  0  3  0  0  0  0  0  0
  -26.0880  -26.9190   19.4220 C   0  0  0  0  0  3  0  0  0  0  0  0
  -24.9130  -27.6910   19.4270 C   0  0  0  0  0  3  0  0  0  0  0  0
  -23.6560  -29.8070   20.1150 C   0  0  0  0  0  2  0  0  0  0  0  0
  -24.6890  -31.0450   22.0660 N   0  0  0  0  0  0  0  0  0  0  0  0
  -23.5270  -32.1010   23.7070 O   0  0  0  0  0  0  0  0  0  0  0  0
  -22.7620  -29.4250   22.4420 C   0  0  0  0  0  0  0  0  0  0  0  0
  -21.4320  -29.2710   22.3230 N   0  0  0  0  0  0  0  0  0  0  0  0
  -23.4390  -28.7660   23.2350 O   0  0  0  0  0  0  0  0  0  0  0  0
  -20.9460  -29.8550   21.6570 H   0  0  0  0  0  0  0  0  0  0  0  0
  -18.0330  -28.1650   22.8750 C   0  0  0  0  0  0  0  0  0  0  0  0
  -20.6060  -28.3270   23.0760 C   0  0  0  0  0  3  0  0  0  0  0  0
  -20.6410  -26.9210   22.4320 C   0  0  0  0  0  2  0  0  0  0  0  0
  -19.4980  -26.6820   21.4400 C   0  0  0  0  0  2  0  0  0  0  0  0
  -18.1420  -26.8430   22.1340 C   0  0  0  0  0  2  0  0  0  0  0  0
  -19.1900  -28.8690   23.3030 C   0  0  0  0  0  0  0  0  0  0  0  0
  -19.0320  -30.1090   23.9590 C   0  0  0  0  0  3  0  0  0  0  0  0
  -17.7510  -30.6450   24.1880 C   0  0  0  0  0  3  0  0  0  0  0  0
  -16.6090  -29.9370   23.7750 C   0  0  0  0  0  3  0  0  0  0  0  0
  -16.7510  -28.6990   23.1240 C   0  0  0  0  0  3  0  0  0  0  0  0
  -25.8930  -32.4590   23.8200 C   0  0  0  0  0  3  0  0  0  0  0  0
  -26.3900  -31.6780   25.0980 C   0  0  1  0  0  0  0  0  0  0  0  0
  -25.2800  -31.4320   26.1470 C   0  0  0  0  0  1  0  0  0  0  0  0
  -26.9790  -30.3030   24.7050 C   0  0  0  0  0  1  0  0  0  0  0  0
  -27.5300  -32.4680   25.7840 C   0  0  0  0  0  1  0  0  0  0  0  0
  -25.5840  -33.8560   24.1530 N   0  0  0  0  0  0  0  0  0  0  0  0
  -25.9270  -34.9120   23.4030 C   0  0  0  0  0  0  0  0  0  0  0  0
  -26.6070  -34.8110   22.3790 O   0  0  0  0  0  0  0  0  0  0  0  0
  -24.9820  -34.0070   24.9490 H   0  0  0  0  0  0  0  0  0  0  0  0
  -24.2160  -36.7170   23.0340 C   0  0  0  0  0  1  0  0  0  0  0  0
  -25.4400  -36.2990   23.8630 C   0  0  0  0  0  3  0  0  0  0  0  0
  -27.5590  -37.1720   24.7460 C   0  0  0  0  0  1  0  0  0  0  0  0
  -26.4800  -37.3470   23.7770 N   0  0  0  0  0  0  0  0  0  0  0  0
  -26.0760  -38.2690   23.9150 H   0  0  0  0  0  0  0  0  0  0  0  0
  1  6  1  0
  1 49  1  0
  2  1  1  0
  3  5  1  0
  4  7  1  0
  5  7  2  0
  5 19  1  0
  6  4  2  0
  7  9  1  0
  8  3  2  0
  8  6  1  0
 10  8  1  0
 11 19  1  0
 12 17  1  0
 13 14  1  0
 13 12  1  0
 15 14  1  0
 15 24  1  0
 15 16  1  0
 17 11  1  0
 17 16  1  0
 18 11  2  0
 19 20  1  0
 21 22  2  0
 22 41  1  0
 23 22  1  0
 23 26  1  0
 24 25  1  0
 24 21  1  0
 25 23  2  0
 26 27  1  0
 27 28  2  0
 29 32  1  0
 29 28  1  0
 30 29  2  0
 31 30  1  0
 31 26  2  0
 32 33  1  0
 33 38  2  0
 33 34  1  0
 34 35  2  0
 35 36  1  0
 36 40  1  0
 37 36  2  0
 38 37  1  0
 39 38  1  0
 41 42  1  0
 42 45  1  0
 42 44  1  0
 43 41  2  0
 46 21  1  0
 46 47  1  0
 48 46  1  0
 50 49  1  0
 50 52  1  0
 51 50  2  0
 53 52  1  0
 54 65  2  0
 55 53  1  0
 55 60  1  0
 56 64  1  0
 56 66  1  0
 57 63  1  0
 57 59  1  0
 58 64  1  0
 59 58  1  0
 60 59  2  0
 61 62  1  0
 61 55  2  0
 62 57  2  0
 63 56  1  0
 64 54  1  0
 66 68  2  0
 67 66  1  0
 69 67  1  0
 70 79  2  0
 70 75  1  0
 71 67  1  0
 71 75  1  0
 72 71  1  0
 73 74  1  0
 73 72  1  0
 74 70  1  0
 75 76  2  0
 76 77  1  0
 78 77  2  0
 79 78  1  0
 80 54  1  0
 80 85  1  0
 80 81  1  0
 81 84  1  1
 81 82  1  0
 83 81  1  0
 85 88  1  0
 86 90  1  0
 86 85  1  0
 87 86  2  0
 90 89  1  0
 92 90  1  0
 92 93  1  0
 92 91  1  0
M  ISO  4  11 100  19 100  52 101  53 101
M  END
>  <TORSDO>  (37) 
F 20

>  <SCORE>  (37) 
-13.736

>  <name>  (37) 
36

>  <ligand_id>  (37) 
36

>  <original_smiles>  (37) 
[H]c1c([H])c([H])c2c(c1[H])C([H])([H])C([H])([H])C([H])([H])C2([H])N([H])C(=O)C1([H])N(C(=O)C([H])(N([H])C(=O)C([H])(N([H])C([H])([H])[H])C([H])([H])[H])C(C([H])([H])[H])(C([H])([H])[H])C([H])([H])[H])C([H])([H])c2c([H])c(OC([H])([H])C(=O)C([H])([H])N([H])c3c([H])c(F)c(N([H])C(=O)N4C([H])([H])C([H])([H])C([H])([H])C([H])(n5nc(-c6c([H])c([H])c(Oc7c([H])c([H])c(F)c([H])c7F)c([H])c6[H])c(C(=O)N([H])[H])c5N([H])[H])C4([H])[H])c([H])c3F)c([H])c([H])c2C1([H])[H]

>  <smiles>  (37) 
[H]c1c([H])c([H])c2c(c1[H])C([H])([H])C([H])([H])C([H])([H])C2([H])N([H])C(=O)C1([H])N(C(=O)C([H])(N([H])C(=O)C([H])(N([H])C([H])([H])[H])C([H])([H])[H])C(C([H])([H])[H])(C([H])([H])[H])C([H])([H])[H])C([H])([H])c2c([H])c(OC([H])([H])C(=O)C([H])([H])N([H])c3c([H])c(F)c(N([H])C(=O)N4C([H])([H])C([H])([H])C([H])([H])C([H])(n5nc(-c6c([H])c([H])c(Oc7c([H])c([H])c(F)c([H])c7F)c([H])c6[H])c(C(=O)N([H])[H])c5N([H])[H])C4([H])[H])c([H])c3F)c([H])c([H])c2C1([H])[H]

$$$$
37:0:0
     RDKit          3D

 97105  0  0  1  0  0  0  0  0999 V2000
  -29.3010  -22.2910   21.9230 C   0  0  0  0  0  0  0  0  0  0  0  0
  -30.3830  -22.1600   21.1320 N   0  0  0  0  0  0  0  0  0  0  0  0
  -28.2250  -21.7050   21.7750 O   0  0  0  0  0  0  0  0  0  0  0  0
  -31.1500  -22.7780   21.3620 H   0  0  0  0  0  0  0  0  0  0  0  0
  -29.6790  -20.2980   19.6130 C   0  0  0  0  0  3  0  0  0  0  0  0
  -31.2070  -19.5530   17.8540 C   0  0  0  0  0  0  0  0  0  0  0  0
  -32.1350  -20.5670   18.2300 C   0  0  0  0  0  0  0  0  0  0  0  0
  -30.6000  -21.2880   20.0230 C   0  0  0  0  0  0  0  0  0  0  0  0
  -29.9790  -19.4410   18.5420 C   0  0  0  0  0  0  0  0  0  0  0  0
  -31.8240  -21.4100   19.3280 C   0  0  0  0  0  0  0  0  0  0  0  0
  -31.4920  -18.5540   16.7430 C   0  0  0  0  0  1  0  0  0  0  0  0
  -29.0800  -18.4920   18.1910 F   0  0  0  0  0  0  0  0  0  0  0  0
  -32.7070  -22.3550   19.7340 F   0  0  0  0  0  0  0  0  0  0  0  0
  -33.4810  -20.7470   17.5190 C   0  0  0  0  0  2  0  0  0  0  0  0
  -33.6850  -19.4100   15.3970 C   0  0  0  0  0  0  0  0  0  0  0  0
  -34.1150  -17.9000   13.4860 C   0  0  0  0  0  2  0  0  0  0  0  0
  -33.0630  -16.7770   13.4010 C   0  0  0  0  0  2  0  0  0  0  0  0
  -33.4420  -15.5900   14.3070 C   0  0  0  0  0  2  0  0  0  0  0  0
  -33.8200  -16.0370   15.7430 C   0  0  0  0  0  3  0  0  0  0  0  0
  -34.8470  -17.1890   15.6900 C   0  0  0  0  0  2  0  0  0  0  0  0
  -34.2640  -18.2880   14.8960 N   0  0  0  0  0  0  0  0  0  0  0  0
  -33.0490  -20.2130   14.7050 O   0  0  0  0  0  0  0  0  0  0  0  0
  -33.8890  -19.5990   16.7060 N   0  0  0  0  0  0  0  0  0  0  0  0
  -34.4250  -18.8830   17.1710 H   0  0  0  0  0  0  0  0  0  0  0  0
  -33.8000  -14.3750   17.7120 C   0  0  0  0  0  0  0  0  0  0  0  0
  -34.5900  -13.2940   18.0030 C   0  0  0  0  0  0  0  0  0  0  0  0
  -35.5610  -13.2220   16.9580 C   0  0  0  0  0  0  0  0  0  0  0  0
  -34.3090  -14.9120   16.5390 N   0  0  0  0  0  0  0  0  0  0  0  0
  -35.4070  -14.2360   16.1160 N   0  0  0  0  0  0  0  0  0  0  0  0
  -36.5920  -12.2150   16.6760 C   0  0  0  0  0  0  0  0  0  0  0  0
  -37.8990  -12.5850   16.2920 C   0  0  0  0  0  3  0  0  0  0  0  0
  -38.8780  -11.5980   16.0440 C   0  0  0  0  0  3  0  0  0  0  0  0
  -38.5530  -10.2280   16.1810 C   0  0  0  0  0  0  0  0  0  0  0  0
  -37.2440   -9.8640   16.5410 C   0  0  0  0  0  3  0  0  0  0  0  0
  -36.2700  -10.8460   16.7830 C   0  0  0  0  0  3  0  0  0  0  0  0
  -39.4320   -9.2000   15.9350 O   0  0  0  0  0  0  0  0  0  0  0  0
  -40.7880   -9.4040   15.8910 C   0  0  0  0  0  0  0  0  0  0  0  0
  -41.4920   -9.9590   16.9820 C   0  0  0  0  0  3  0  0  0  0  0  0
  -42.8940  -10.0900   16.9230 C   0  0  0  0  0  3  0  0  0  0  0  0
  -43.5940   -9.6600   15.7790 C   0  0  0  0  0  0  0  0  0  0  0  0
  -42.8950   -9.1040   14.6930 C   0  0  0  0  0  3  0  0  0  0  0  0
  -41.4960   -8.9740   14.7510 C   0  0  0  0  0  0  0  0  0  0  0  0
  -40.8290   -8.4170   13.7110 F   0  0  0  0  0  0  0  0  0  0  0  0
  -44.9400   -9.7780   15.7230 F   0  0  0  0  0  0  0  0  0  0  0  0
  -34.4010  -12.3240   19.1340 C   0  0  0  0  0  0  0  0  0  0  0  0
  -35.4920  -11.8010   19.6810 N   0  0  0  0  0  0  0  0  0  0  0  0
  -33.2810  -12.0610   19.5710 O   0  0  0  0  0  0  0  0  0  0  0  0
  -36.4110  -12.0290   19.3310 H   0  0  0  0  0  0  0  0  0  0  0  0
  -35.4080  -11.1610   20.4590 H   0  0  0  0  0  0  0  0  0  0  0  0
  -32.6880  -14.9330   18.3320 N   0  0  0  0  0  0  0  0  0  0  0  0
  -32.2690  -14.5310   19.1630 H   0  0  0  0  0  0  0  0  0  0  0  0
  -32.1670  -15.7230   17.9720 H   0  0  0  0  0  0  0  0  0  0  0  0
  -29.5300  -23.3050   23.0730 C   0  0  0  0  0  0  0  0  0  0  0  0
  -30.3330  -23.0860   23.9900 O   0  0  0  0  0  0  0  0  0  0  0  0
  -28.7420  -24.6200   23.0200 C   0  0  0  0  0  2  0  0  0  0  0  0
  -27.2130  -24.4310   22.9270 C   0  0  0  0  0  2  0  0  0  0  0  0
  -26.6150  -24.8290   24.1620 O   0  0  0  0  0  0  0  0  0  0  0  0
  -21.2990  -28.3470   20.9900 C   0  0  0  0  0  0  0  0  0  0  0  0
  -25.8170  -25.9480   24.1380 C   0  0  0  0  0  0  0  0  0  0  0  0
  -22.4720  -29.5690   22.7960 C   0  0  0  0  0  3  0  0  0  0  0  0
  -24.0920  -28.1830   24.1980 C   0  0  0  0  0  0  0  0  0  0  0  0
  -22.3720  -27.0150   22.8050 C   0  0  0  0  0  2  0  0  0  0  0  0
  -23.7150  -27.0230   23.5080 C   0  0  0  0  0  0  0  0  0  0  0  0
  -24.5690  -25.9010   23.4840 C   0  0  0  0  0  3  0  0  0  0  0  0
  -26.1950  -27.1240   24.8220 C   0  0  0  0  0  3  0  0  0  0  0  0
  -25.3350  -28.2410   24.8570 C   0  0  0  0  0  3  0  0  0  0  0  0
  -23.1090  -29.3310   24.1930 C   0  0  0  0  0  2  0  0  0  0  0  0
  -22.0380  -28.2940   22.1360 N   0  0  0  0  0  0  0  0  0  0  0  0
  -20.9360  -29.4300   20.5110 O   0  0  0  0  0  0  0  0  0  0  0  0
  -23.4600  -30.3960   21.9460 C   0  0  0  0  0  0  0  0  0  0  0  0
  -24.0470  -31.4370   22.5570 N   0  0  0  0  0  0  0  0  0  0  0  0
  -23.7070  -30.0830   20.7780 O   0  0  0  0  0  0  0  0  0  0  0  0
  -23.7870  -31.6320   23.5140 H   0  0  0  0  0  0  0  0  0  0  0  0
  -26.4960  -33.9810   23.3270 C   0  0  0  0  0  0  0  0  0  0  0  0
  -25.0420  -32.3320   21.9680 C   0  0  0  0  0  3  0  0  0  0  0  0
  -26.3580  -31.5780   21.6700 C   0  0  0  0  0  2  0  0  0  0  0  0
  -27.3770  -31.6660   22.8110 C   0  0  0  0  0  2  0  0  0  0  0  0
  -27.7330  -33.1280   23.1020 C   0  0  0  0  0  2  0  0  0  0  0  0
  -25.2290  -33.5980   22.8110 C   0  0  0  0  0  0  0  0  0  0  0  0
  -24.1060  -34.4090   23.0800 C   0  0  0  0  0  3  0  0  0  0  0  0
  -24.2320  -35.5800   23.8520 C   0  0  0  0  0  3  0  0  0  0  0  0
  -25.4890  -35.9620   24.3500 C   0  0  0  0  0  3  0  0  0  0  0  0
  -26.6190  -35.1670   24.0810 C   0  0  0  0  0  3  0  0  0  0  0  0
  -20.8520  -27.0490   20.2450 C   0  0  0  0  0  3  0  0  0  0  0  0
  -19.3850  -27.0550   20.1940 N   0  0  0  0  0  0  0  0  0  0  0  0
  -18.5970  -26.2650   20.9370 C   0  0  0  0  0  0  0  0  0  0  0  0
  -19.0400  -25.3950   21.6920 O   0  0  0  0  0  0  0  0  0  0  0  0
  -18.9550  -27.7880   19.6490 H   0  0  0  0  0  0  0  0  0  0  0  0
  -16.5650  -27.2580   22.0420 C   0  0  0  0  0  1  0  0  0  0  0  0
  -17.0740  -26.4720   20.8230 C   0  0  0  0  0  3  0  0  0  0  0  0
  -16.6450  -24.4580   19.4840 C   0  0  0  0  0  1  0  0  0  0  0  0
  -16.3160  -25.2060   20.6940 N   0  0  0  0  0  0  0  0  0  0  0  0
  -15.3150  -25.3860   20.6950 H   0  0  0  0  0  0  0  0  0  0  0  0
  -21.4630  -26.9220   18.7960 C   0  0  1  0  0  0  0  0  0  0  0  0
  -21.2590  -28.1810   17.9210 C   0  0  0  0  0  1  0  0  0  0  0  0
  -22.9820  -26.6410   18.8670 C   0  0  0  0  0  1  0  0  0  0  0  0
  -20.8330  -25.7130   18.0630 C   0  0  0  0  0  1  0  0  0  0  0  0
  1 53  1  0
  2  4  1  0
  2  1  1  0
  3  1  2  0
  5  8  1  0
  6  7  2  0
  6  9  1  0
  7 10  1  0
  8  2  1  0
  9  5  2  0
 10 13  1  0
 10  8  2  0
 11  6  1  0
 12  9  1  0
 14  7  1  0
 15 23  1  0
 16 21  1  0
 17 16  1  0
 17 18  1  0
 19 18  1  0
 19 28  1  0
 20 19  1  0
 21 15  1  0
 21 20  1  0
 22 15  2  0
 23 24  1  0
 23 14  1  0
 25 26  2  0
 25 50  1  0
 26 45  1  0
 27 26  1  0
 28 25  1  0
 29 28  1  0
 29 27  2  0
 30 35  1  0
 30 27  1  0
 31 30  2  0
 32 33  2  0
 32 31  1  0
 33 34  1  0
 34 35  2  0
 36 33  1  0
 37 36  1  0
 37 38  1  0
 39 38  2  0
 40 39  1  0
 41 42  1  0
 41 40  2  0
 42 37  2  0
 43 42  1  0
 44 40  1  0
 45 47  2  0
 45 46  1  0
 46 49  1  0
 48 46  1  0
 50 51  1  0
 52 50  1  0
 53 54  2  0
 55 53  1  0
 56 55  1  0
 56 57  1  0
 58 68  1  0
 59 57  1  0
 59 65  1  0
 60 70  1  0
 60 67  1  0
 61 66  1  0
 62 63  1  0
 63 61  2  0
 64 63  1  0
 64 59  2  0
 65 66  2  0
 67 61  1  0
 68 60  1  0
 68 62  1  0
 69 58  2  0
 70 71  1  0
 71 73  1  0
 72 70  2  0
 74 83  1  0
 75 71  1  0
 75 79  1  0
 76 75  1  0
 76 77  1  0
 77 78  1  0
 78 74  1  0
 79 80  1  0
 79 74  2  0
 80 81  2  0
 81 82  1  0
 83 82  2  0
 84 58  1  0
 85 84  1  0
 85 86  1  0
 86 87  2  0
 88 85  1  0
 90 86  1  0
 90 89  1  0
 91 92  1  0
 92 93  1  0
 92 90  1  0
 94 96  1  1
 94 84  1  0
 95 94  1  0
 97 94  1  0
M  ISO  4  15 100  23 100  56 101  57 101
M  END
>  <TORSDO>  (38) 
F 21

>  <SCORE>  (38) 
-0.251

>  <name>  (38) 
37

>  <ligand_id>  (38) 
37

>  <original_smiles>  (38) 
[H]c1c([H])c([H])c2c(c1[H])C([H])([H])C([H])([H])C([H])([H])C2([H])N([H])C(=O)C1([H])N(C(=O)C([H])(N([H])C(=O)C([H])(N([H])C([H])([H])[H])C([H])([H])[H])C(C([H])([H])[H])(C([H])([H])[H])C([H])([H])[H])C([H])([H])c2c([H])c(OC([H])([H])C([H])([H])C(=O)C(=O)N([H])c3c([H])c(F)c(C([H])([H])[H])c(C([H])([H])N([H])C(=O)N4C([H])([H])C([H])([H])C([H])([H])C([H])(n5nc(-c6c([H])c([H])c(Oc7c([H])c([H])c(F)c([H])c7F)c([H])c6[H])c(C(=O)N([H])[H])c5N([H])[H])C4([H])[H])c3F)c([H])c([H])c2C1([H])[H]

>  <smiles>  (38) 
[H]c1c([H])c([H])c2c(c1[H])C([H])([H])C([H])([H])C([H])([H])C2([H])N([H])C(=O)C1([H])N(C(=O)C([H])(N([H])C(=O)C([H])(N([H])C([H])([H])[H])C([H])([H])[H])C(C([H])([H])[H])(C([H])([H])[H])C([H])([H])[H])C([H])([H])c2c([H])c(OC([H])([H])C([H])([H])C(=O)C(=O)N([H])c3c([H])c(F)c(C([H])([H])[H])c(C([H])([H])N([H])C(=O)N4C([H])([H])C([H])([H])C([H])([H])C([H])(n5nc(-c6c([H])c([H])c(Oc7c([H])c([H])c(F)c([H])c7F)c([H])c6[H])c(C(=O)N([H])[H])c5N([H])[H])C4([H])[H])c3F)c([H])c([H])c2C1([H])[H]

$$$$
38:0:0
     RDKit          3D

 94102  0  0  1  0  0  0  0  0999 V2000
  -28.3590  -17.8610   20.1320 C   0  0  0  0  0  3  0  0  0  0  0  0
  -28.0260  -20.2680   20.1750 C   0  0  0  0  0  3  0  0  0  0  0  0
  -29.6480  -17.9930   20.6920 C   0  0  0  0  0  0  0  0  0  0  0  0
  -30.1060  -19.3090   21.0450 C   0  0  0  0  0  0  0  0  0  0  0  0
  -29.3220  -20.4590   20.7100 C   0  0  0  0  0  0  0  0  0  0  0  0
  -27.5420  -18.9790   19.9060 C   0  0  0  0  0  0  0  0  0  0  0  0
  -26.2910  -18.8140   19.4110 F   0  0  0  0  0  0  0  0  0  0  0  0
  -30.4810  -16.7500   20.8230 C   0  0  0  0  0  3  0  0  0  0  0  0
  -30.0320  -15.5530   20.9890 N   0  0  0  0  0  0  0  0  0  0  0  0
  -30.9050  -14.4720   20.7860 C   0  0  0  0  0  0  0  0  0  0  0  0
  -30.7480  -12.1850   19.8700 C   0  0  0  0  0  2  0  0  0  0  0  0
  -29.9040  -12.2660   18.5800 C   0  0  0  0  0  2  0  0  0  0  0  0
  -28.3970  -12.1450   18.8930 C   0  0  0  0  0  2  0  0  0  0  0  0
  -27.9510  -13.0770   20.0500 C   0  0  0  0  0  3  0  0  0  0  0  0
  -28.9210  -12.9780   21.2480 C   0  0  0  0  0  2  0  0  0  0  0  0
  -30.2830  -13.2580   20.7630 N   0  0  0  0  0  0  0  0  0  0  0  0
  -32.0930  -14.5720   20.4620 O   0  0  0  0  0  0  0  0  0  0  0  0
  -25.5210  -13.7110   20.6060 C   0  0  0  0  0  0  0  0  0  0  0  0
  -24.4250  -12.9540   20.9280 C   0  0  0  0  0  0  0  0  0  0  0  0
  -24.8750  -11.5990   20.9420 C   0  0  0  0  0  0  0  0  0  0  0  0
  -26.5690  -12.8180   20.4520 N   0  0  0  0  0  0  0  0  0  0  0  0
  -26.1800  -11.5430   20.7090 N   0  0  0  0  0  0  0  0  0  0  0  0
  -24.1250  -10.3450   21.1040 C   0  0  0  0  0  0  0  0  0  0  0  0
  -24.4780   -9.3960   22.0880 C   0  0  0  0  0  3  0  0  0  0  0  0
  -23.7320   -8.2080   22.2340 C   0  0  0  0  0  3  0  0  0  0  0  0
  -22.6180   -7.9620   21.3970 C   0  0  0  0  0  0  0  0  0  0  0  0
  -22.2840   -8.9000   20.4040 C   0  0  0  0  0  3  0  0  0  0  0  0
  -23.0320  -10.0800   20.2560 C   0  0  0  0  0  3  0  0  0  0  0  0
  -21.8480   -6.8250   21.4520 O   0  0  0  0  0  0  0  0  0  0  0  0
  -21.6980   -6.1150   22.6150 C   0  0  0  0  0  0  0  0  0  0  0  0
  -21.1150   -6.6840   23.7670 C   0  0  0  0  0  3  0  0  0  0  0  0
  -20.9160   -5.8950   24.9180 C   0  0  0  0  0  3  0  0  0  0  0  0
  -21.2910   -4.5370   24.9170 C   0  0  0  0  0  0  0  0  0  0  0  0
  -21.8660   -3.9690   23.7680 C   0  0  0  0  0  3  0  0  0  0  0  0
  -22.0670   -4.7540   22.6190 C   0  0  0  0  0  0  0  0  0  0  0  0
  -22.6020   -4.1950   21.5070 F   0  0  0  0  0  0  0  0  0  0  0  0
  -21.0940   -3.7760   26.0200 F   0  0  0  0  0  0  0  0  0  0  0  0
  -23.0190  -13.4510   21.1120 C   0  0  0  0  0  0  0  0  0  0  0  0
  -22.2340  -12.7730   21.9460 N   0  0  0  0  0  0  0  0  0  0  0  0
  -22.6240  -14.4740   20.5550 O   0  0  0  0  0  0  0  0  0  0  0  0
  -22.5650  -11.9440   22.4170 H   0  0  0  0  0  0  0  0  0  0  0  0
  -21.2890  -13.0840   22.1130 H   0  0  0  0  0  0  0  0  0  0  0  0
  -25.7060  -15.0730   20.4070 N   0  0  0  0  0  0  0  0  0  0  0  0
  -24.9420  -15.7390   20.4290 H   0  0  0  0  0  0  0  0  0  0  0  0
  -26.5730  -15.4650   20.0660 H   0  0  0  0  0  0  0  0  0  0  0  0
  -32.6480  -19.7190   20.9850 C   0  0  0  0  0  1  0  0  0  0  0  0
  -31.4010  -19.4820   21.8450 C   0  0  0  0  0  2  0  0  0  0  0  0
  -29.7950  -21.7760   20.9180 N   0  0  0  0  0  0  0  0  0  0  0  0
  -30.7520  -21.8610   21.2450 H   0  0  0  0  0  0  0  0  0  0  0  0
  -29.4290  -22.8130   19.9280 C   0  0  0  0  0  2  0  0  0  0  0  0
  -29.4210  -24.2730   20.4510 C   0  0  0  0  0  0  0  0  0  0  0  0
  -30.2230  -24.6390   21.3200 O   0  0  0  0  0  0  0  0  0  0  0  0
  -28.3690  -25.2360   19.8500 C   0  0  0  0  0  2  0  0  0  0  0  0
  -28.4420  -26.5920   20.3690 O   0  0  0  0  0  0  0  0  0  0  0  0
  -24.5530  -31.8580   23.2610 C   0  0  0  0  0  0  0  0  0  0  0  0
  -27.2870  -27.3620   20.2890 C   0  0  0  0  0  0  0  0  0  0  0  0
  -23.4070  -30.4620   21.5770 C   0  0  0  0  0  3  0  0  0  0  0  0
  -24.9040  -28.9150   20.2130 C   0  0  0  0  0  0  0  0  0  0  0  0
  -25.9450  -30.7940   21.4820 C   0  0  0  0  0  2  0  0  0  0  0  0
  -26.0460  -29.4190   20.8480 C   0  0  0  0  0  0  0  0  0  0  0  0
  -27.2370  -28.6500   20.8880 C   0  0  0  0  0  3  0  0  0  0  0  0
  -26.1240  -26.8980   19.6260 C   0  0  0  0  0  3  0  0  0  0  0  0
  -24.9400  -27.6540   19.6040 C   0  0  0  0  0  3  0  0  0  0  0  0
  -23.6650  -29.7810   20.2080 C   0  0  0  0  0  2  0  0  0  0  0  0
  -24.6520  -31.0530   22.1650 N   0  0  0  0  0  0  0  0  0  0  0  0
  -23.4530  -32.1340   23.7580 O   0  0  0  0  0  0  0  0  0  0  0  0
  -22.7130  -29.4440   22.5120 C   0  0  0  0  0  0  0  0  0  0  0  0
  -21.3840  -29.3070   22.3700 N   0  0  0  0  0  0  0  0  0  0  0  0
  -23.3670  -28.7800   23.3210 O   0  0  0  0  0  0  0  0  0  0  0  0
  -20.9140  -29.8950   21.6970 H   0  0  0  0  0  0  0  0  0  0  0  0
  -17.9630  -28.2520   22.8630 C   0  0  0  0  0  0  0  0  0  0  0  0
  -20.5330  -28.3810   23.1170 C   0  0  0  0  0  3  0  0  0  0  0  0
  -20.5620  -26.9660   22.4950 C   0  0  0  0  0  2  0  0  0  0  0  0
  -19.4380  -26.7280   21.4810 C   0  0  0  0  0  2  0  0  0  0  0  0
  -18.0700  -26.9190   22.1420 C   0  0  0  0  0  2  0  0  0  0  0  0
  -19.1200  -28.9450   23.3060 C   0  0  0  0  0  0  0  0  0  0  0  0
  -18.9680  -30.1990   23.9390 C   0  0  0  0  0  3  0  0  0  0  0  0
  -17.6900  -30.7560   24.1320 C   0  0  0  0  0  3  0  0  0  0  0  0
  -16.5470  -30.0590   23.7040 C   0  0  0  0  0  3  0  0  0  0  0  0
  -16.6860  -28.8080   23.0760 C   0  0  0  0  0  3  0  0  0  0  0  0
  -25.8160  -32.4870   23.9280 C   0  0  0  0  0  3  0  0  0  0  0  0
  -25.5060  -33.8930   24.2190 N   0  0  0  0  0  0  0  0  0  0  0  0
  -25.8720  -34.9290   23.4520 C   0  0  0  0  0  0  0  0  0  0  0  0
  -26.5780  -34.8020   22.4490 O   0  0  0  0  0  0  0  0  0  0  0  0
  -24.8810  -34.0650   24.9930 H   0  0  0  0  0  0  0  0  0  0  0  0
  -24.1770  -36.7310   22.9940 C   0  0  0  0  0  1  0  0  0  0  0  0
  -25.3770  -36.3280   23.8670 C   0  0  0  0  0  3  0  0  0  0  0  0
  -27.4690  -37.2220   24.7910 C   0  0  0  0  0  1  0  0  0  0  0  0
  -26.4220  -37.3720   23.7830 N   0  0  0  0  0  0  0  0  0  0  0  0
  -26.0150  -38.2970   23.8870 H   0  0  0  0  0  0  0  0  0  0  0  0
  -26.2670  -31.7310   25.2370 C   0  0  1  0  0  0  0  0  0  0  0  0
  -25.1260  -31.5170   26.2580 C   0  0  0  0  0  1  0  0  0  0  0  0
  -26.8570  -30.3440   24.8930 C   0  0  0  0  0  1  0  0  0  0  0  0
  -27.3910  -32.5270   25.9390 C   0  0  0  0  0  1  0  0  0  0  0  0
  1  3  1  0
  2  5  2  0
  3  8  1  0
  3  4  2  0
  4 47  1  0
  5 48  1  0
  5  4  1  0
  6  1  2  0
  6  2  1  0
  7  6  1  0
  8  9  2  0
 10  9  1  0
 11 16  1  0
 12 13  1  0
 12 11  1  0
 14 13  1  0
 14 21  1  0
 14 15  1  0
 16 10  1  0
 16 15  1  0
 17 10  2  0
 18 19  2  0
 19 20  1  0
 19 38  1  0
 20 23  1  0
 21 18  1  0
 21 22  1  0
 22 20  2  0
 23 24  1  0
 24 25  2  0
 26 29  1  0
 26 25  1  0
 27 26  2  0
 28 27  1  0
 28 23  2  0
 29 30  1  0
 30 35  2  0
 30 31  1  0
 31 32  2  0
 33 32  1  0
 33 37  1  0
 34 33  2  0
 35 34  1  0
 36 35  1  0
 38 39  1  0
 39 42  1  0
 39 41  1  0
 40 38  2  0
 43 44  1  0
 43 18  1  0
 45 43  1  0
 46 47  1  0
 48 49  1  0
 50 51  1  0
 50 48  1  0
 51 52  2  0
 53 54  1  0
 53 51  1  0
 55 66  2  0
 56 54  1  0
 56 61  1  0
 57 65  1  0
 57 67  1  0
 58 60  1  0
 59 65  1  0
 60 61  2  0
 60 59  1  0
 62 56  2  0
 63 62  1  0
 63 58  2  0
 64 58  1  0
 64 57  1  0
 65 55  1  0
 67 69  2  0
 68 67  1  0
 70 68  1  0
 71 80  2  0
 71 76  1  0
 72 68  1  0
 72 76  1  0
 73 72  1  0
 74 75  1  0
 74 73  1  0
 75 71  1  0
 76 77  2  0
 77 78  1  0
 79 78  2  0
 80 79  1  0
 81 55  1  0
 81 82  1  0
 81 91  1  0
 82 85  1  0
 83 87  1  0
 83 82  1  0
 84 83  2  0
 87 86  1  0
 89 87  1  0
 89 90  1  0
 89 88  1  0
 91 94  1  1
 91 92  1  0
 93 91  1  0
M  ISO  4   9 100  10 100  53 101  54 101
M  END
>  <TORSDO>  (39) 
F 22

>  <SCORE>  (39) 
-13.208

>  <name>  (39) 
38

>  <ligand_id>  (39) 
38

>  <original_smiles>  (39) 
[H]C(=NC(=O)N1C([H])([H])C([H])([H])C([H])([H])C([H])(n2nc(-c3c([H])c([H])c(Oc4c([H])c([H])c(F)c([H])c4F)c([H])c3[H])c(C(=O)N([H])[H])c2N([H])[H])C1([H])[H])c1c([H])c(F)c([H])c(N([H])C([H])([H])C(=O)C([H])([H])Oc2c([H])c([H])c3c(c2[H])C([H])([H])N(C(=O)C([H])(N([H])C(=O)C([H])(N([H])C([H])([H])[H])C([H])([H])[H])C(C([H])([H])[H])(C([H])([H])[H])C([H])([H])[H])C([H])(C(=O)N([H])C2([H])c4c([H])c([H])c([H])c([H])c4C([H])([H])C([H])([H])C2([H])[H])C3([H])[H])c1C([H])([H])C([H])([H])[H]

>  <smiles>  (39) 
[H]C(=NC(=O)N1C([H])([H])C([H])([H])C([H])([H])C([H])(n2nc(-c3c([H])c([H])c(Oc4c([H])c([H])c(F)c([H])c4F)c([H])c3[H])c(C(=O)N([H])[H])c2N([H])[H])C1([H])[H])c1c([H])c(F)c([H])c(N([H])C([H])([H])C(=O)C([H])([H])Oc2c([H])c([H])c3c(c2[H])C([H])([H])N(C(=O)C([H])(N([H])C(=O)C([H])(N([H])C([H])([H])[H])C([H])([H])[H])C(C([H])([H])[H])(C([H])([H])[H])C([H])([H])[H])C([H])(C(=O)N([H])C2([H])c4c([H])c([H])c([H])c([H])c4C([H])([H])C([H])([H])C2([H])[H])C3([H])[H])c1C([H])([H])C([H])([H])[H]

$$$$
39:0:0
     RDKit          3D

 97105  0  0  1  0  0  0  0  0999 V2000
  -29.7020  -21.2510   20.8630 C   0  0  0  0  0  0  0  0  0  0  0  0
  -29.2380  -23.8660   20.8420 C   0  0  0  0  0  0  0  0  0  0  0  0
  -28.9230  -22.3980   20.6580 N   0  0  0  0  0  0  0  0  0  0  0  0
  -30.8690  -21.4020   21.4990 N   0  0  0  0  0  4  0  0  0  0  0  0
  -30.4120  -24.2200   21.0000 O   0  0  0  0  0  0  0  0  0  0  0  0
  -27.9770  -22.1360   20.4290 H   0  0  0  0  0  0  0  0  0  0  0  0
  -31.1910  -22.3300   21.7420 H   0  0  0  0  0  0  0  0  0  0  0  0
  -31.4260  -20.5950   21.7360 H   0  0  0  0  0  0  0  0  0  0  0  0
  -28.7120  -19.7290   19.1230 C   0  0  0  0  0  3  0  0  0  0  0  0
  -28.4740  -18.4840   18.5040 C   0  0  0  0  0  3  0  0  0  0  0  0
  -29.3750  -19.8230   20.3650 C   0  0  0  0  0  0  0  0  0  0  0  0
  -29.5320  -17.2470   20.3460 C   0  0  0  0  0  0  0  0  0  0  0  0
  -28.8810  -17.2700   19.0930 C   0  0  0  0  0  0  0  0  0  0  0  0
  -29.7660  -18.5470   20.9750 C   0  0  0  0  0  0  0  0  0  0  0  0
  -28.5900  -16.1110   18.4540 F   0  0  0  0  0  0  0  0  0  0  0  0
  -30.3990  -18.5670   22.1740 F   0  0  0  0  0  0  0  0  0  0  0  0
  -30.4780  -14.8360   20.4270 C   0  0  0  0  0  0  0  0  0  0  0  0
  -30.2990  -12.5760   19.3700 C   0  0  0  0  0  2  0  0  0  0  0  0
  -29.3420  -12.6630   18.1580 C   0  0  0  0  0  2  0  0  0  0  0  0
  -27.8790  -12.4710   18.5990 C   0  0  0  0  0  2  0  0  0  0  0  0
  -27.5150  -13.3200   19.8450 C   0  0  0  0  0  3  0  0  0  0  0  0
  -28.5880  -13.2070   20.9510 C   0  0  0  0  0  2  0  0  0  0  0  0
  -29.8800  -13.5940   20.3660 N   0  0  0  0  0  0  0  0  0  0  0  0
  -31.6070  -14.9980   19.9530 O   0  0  0  0  0  0  0  0  0  0  0  0
  -29.7780  -15.9100   20.9510 N   0  0  0  0  0  0  0  0  0  0  0  0
  -29.0380  -15.6200   21.5720 H   0  0  0  0  0  0  0  0  0  0  0  0
  -25.1240  -13.8730   20.5980 C   0  0  0  0  0  0  0  0  0  0  0  0
  -24.0700  -13.0810   20.9700 C   0  0  0  0  0  0  0  0  0  0  0  0
  -24.5480  -11.7360   20.9080 C   0  0  0  0  0  0  0  0  0  0  0  0
  -26.1760  -13.0110   20.3390 N   0  0  0  0  0  0  0  0  0  0  0  0
  -25.8360  -11.7190   20.5840 N   0  0  0  0  0  0  0  0  0  0  0  0
  -23.8380  -10.4630   21.0860 C   0  0  0  0  0  0  0  0  0  0  0  0
  -24.2760   -9.4950   22.0160 C   0  0  0  0  0  3  0  0  0  0  0  0
  -23.5630   -8.2860   22.1810 C   0  0  0  0  0  3  0  0  0  0  0  0
  -22.4000   -8.0390   21.4160 C   0  0  0  0  0  0  0  0  0  0  0  0
  -21.9810   -8.9960   20.4730 C   0  0  0  0  0  3  0  0  0  0  0  0
  -22.6950  -10.1950   20.3070 C   0  0  0  0  0  3  0  0  0  0  0  0
  -21.6590   -6.8840   21.4900 O   0  0  0  0  0  0  0  0  0  0  0  0
  -21.5890   -6.1460   22.6440 C   0  0  0  0  0  0  0  0  0  0  0  0
  -21.0580   -6.6810   23.8390 C   0  0  0  0  0  3  0  0  0  0  0  0
  -20.9410   -5.8690   24.9830 C   0  0  0  0  0  3  0  0  0  0  0  0
  -21.3440   -4.5200   24.9350 C   0  0  0  0  0  0  0  0  0  0  0  0
  -21.8680   -3.9850   23.7450 C   0  0  0  0  0  3  0  0  0  0  0  0
  -21.9870   -4.7950   22.6030 C   0  0  0  0  0  0  0  0  0  0  0  0
  -22.4720   -4.2680   21.4520 F   0  0  0  0  0  0  0  0  0  0  0  0
  -21.2250   -3.7360   26.0310 F   0  0  0  0  0  0  0  0  0  0  0  0
  -22.6720  -13.5390   21.2660 C   0  0  0  0  0  0  0  0  0  0  0  0
  -21.9600  -12.8190   22.1270 N   0  0  0  0  0  0  0  0  0  0  0  0
  -22.2180  -14.5690   20.7700 O   0  0  0  0  0  0  0  0  0  0  0  0
  -22.3410  -11.9850   22.5490 H   0  0  0  0  0  0  0  0  0  0  0  0
  -21.0220  -13.1060   22.3670 H   0  0  0  0  0  0  0  0  0  0  0  0
  -25.2680  -15.2480   20.4370 N   0  0  0  0  0  0  0  0  0  0  0  0
  -24.4900  -15.8880   20.5620 H   0  0  0  0  0  0  0  0  0  0  0  0
  -26.0940  -15.6940   20.0610 H   0  0  0  0  0  0  0  0  0  0  0  0
  -26.7260  -24.2710   20.5270 C   0  0  0  0  0  1  0  0  0  0  0  0
  -28.0540  -24.9600   20.9270 C   0  0  0  0  0  3  0  0  0  0  0  0
  -28.3260  -26.3800   20.4070 O   0  0  0  0  0  0  0  0  0  0  0  0
  -24.6030  -31.9610   23.3000 C   0  0  0  0  0  0  0  0  0  0  0  0
  -27.2680  -27.3320   20.3260 C   0  0  0  0  0  0  0  0  0  0  0  0
  -23.4410  -30.5520   21.6450 C   0  0  0  0  0  3  0  0  0  0  0  0
  -24.9260  -29.0100   20.2440 C   0  0  0  0  0  0  0  0  0  0  0  0
  -25.9890  -30.8550   21.5260 C   0  0  0  0  0  2  0  0  0  0  0  0
  -26.0820  -29.4700   20.8860 C   0  0  0  0  0  0  0  0  0  0  0  0
  -27.2560  -28.6390   20.9290 C   0  0  0  0  0  3  0  0  0  0  0  0
  -26.1230  -27.0060   19.5690 C   0  0  0  0  0  3  0  0  0  0  0  0
  -24.9540  -27.7850   19.5690 C   0  0  0  0  0  3  0  0  0  0  0  0
  -23.6870  -29.8820   20.2690 C   0  0  0  0  0  2  0  0  0  0  0  0
  -24.6950  -31.1430   22.2120 N   0  0  0  0  0  0  0  0  0  0  0  0
  -23.5070  -32.2370   23.8110 O   0  0  0  0  0  0  0  0  0  0  0  0
  -22.7620  -29.5330   22.5930 C   0  0  0  0  0  0  0  0  0  0  0  0
  -21.4460  -29.3200   22.4200 N   0  0  0  0  0  0  0  0  0  0  0  0
  -23.4220  -28.9390   23.4500 O   0  0  0  0  0  0  0  0  0  0  0  0
  -20.9700  -29.8570   21.7080 H   0  0  0  0  0  0  0  0  0  0  0  0
  -18.0830  -28.0380   22.8110 C   0  0  0  0  0  0  0  0  0  0  0  0
  -20.6200  -28.3750   23.1760 C   0  0  0  0  0  3  0  0  0  0  0  0
  -20.7830  -26.9350   22.6360 C   0  0  0  0  0  2  0  0  0  0  0  0
  -19.7310  -26.5630   21.5860 C   0  0  0  0  0  2  0  0  0  0  0  0
  -18.3220  -26.6810   22.1730 C   0  0  0  0  0  2  0  0  0  0  0  0
  -19.1620  -28.8400   23.2690 C   0  0  0  0  0  0  0  0  0  0  0  0
  -18.8840  -30.1080   23.8270 C   0  0  0  0  0  3  0  0  0  0  0  0
  -17.5600  -30.5740   23.9320 C   0  0  0  0  0  3  0  0  0  0  0  0
  -16.4950  -29.7700   23.4900 C   0  0  0  0  0  3  0  0  0  0  0  0
  -16.7570  -28.5040   22.9360 C   0  0  0  0  0  3  0  0  0  0  0  0
  -25.8680  -32.6070   23.9430 C   0  0  0  0  0  3  0  0  0  0  0  0
  -25.5530  -34.0130   24.2330 N   0  0  0  0  0  0  0  0  0  0  0  0
  -25.8880  -35.0480   23.4500 C   0  0  0  0  0  0  0  0  0  0  0  0
  -26.5650  -34.9190   22.4270 O   0  0  0  0  0  0  0  0  0  0  0  0
  -24.9520  -34.1860   25.0250 H   0  0  0  0  0  0  0  0  0  0  0  0
  -24.1650  -36.8350   23.0340 C   0  0  0  0  0  1  0  0  0  0  0  0
  -25.3970  -36.4480   23.8690 C   0  0  0  0  0  3  0  0  0  0  0  0
  -27.5150  -37.3600   24.7110 C   0  0  0  0  0  1  0  0  0  0  0  0
  -26.4320  -37.4970   23.7420 N   0  0  0  0  0  0  0  0  0  0  0  0
  -26.0250  -38.4220   23.8490 H   0  0  0  0  0  0  0  0  0  0  0  0
  -26.3460  -31.8650   25.2510 C   0  0  1  0  0  0  0  0  0  0  0  0
  -25.2190  -31.6460   26.2890 C   0  0  0  0  0  1  0  0  0  0  0  0
  -26.9470  -30.4810   24.9130 C   0  0  0  0  0  1  0  0  0  0  0  0
  -27.4730  -32.6770   25.9300 C   0  0  0  0  0  1  0  0  0  0  0  0
  1  4  2  0
  2 56  1  0
  2  5  2  0
  3  2  1  0
  3  1  1  0
  4  8  1  0
  4  7  1  0
  6  3  1  0
  9 11  1  0
 10 13  1  0
 10  9  2  0
 11  1  1  0
 11 14  2  0
 12 25  1  0
 12 14  1  0
 13 12  2  0
 14 16  1  0
 15 13  1  0
 17 25  1  0
 18 23  1  0
 19 20  1  0
 19 18  1  0
 21 20  1  0
 21 30  1  0
 21 22  1  0
 23 17  1  0
 23 22  1  0
 24 17  2  0
 25 26  1  0
 27 28  2  0
 28 47  1  0
 29 28  1  0
 29 32  1  0
 30 31  1  0
 30 27  1  0
 31 29  2  0
 32 33  1  0
 33 34  2  0
 35 38  1  0
 35 34  1  0
 36 35  2  0
 37 36  1  0
 37 32  2  0
 38 39  1  0
 39 40  1  0
 40 41  2  0
 42 41  1  0
 42 46  1  0
 43 42  2  0
 44 39  2  0
 44 43  1  0
 45 44  1  0
 47 48  1  0
 48 51  1  0
 48 50  1  0
 49 47  2  0
 52 53  1  0
 52 27  1  0
 54 52  1  0
 56 55  1  0
 57 56  1  0
 58 69  2  0
 59 57  1  0
 59 64  1  0
 60 68  1  0
 60 70  1  0
 61 67  1  0
 61 63  1  0
 62 68  1  0
 63 64  2  0
 63 62  1  0
 65 59  2  0
 66 65  1  0
 66 61  2  0
 67 60  1  0
 68 58  1  0
 70 72  2  0
 71 70  1  0
 73 71  1  0
 74 83  2  0
 74 79  1  0
 75 71  1  0
 75 79  1  0
 76 75  1  0
 77 78  1  0
 77 76  1  0
 78 74  1  0
 79 80  2  0
 80 81  1  0
 82 81  2  0
 83 82  1  0
 84 58  1  0
 84 85  1  0
 84 94  1  0
 85 88  1  0
 86 90  1  0
 86 85  1  0
 87 86  2  0
 90 89  1  0
 92 93  1  0
 92 90  1  0
 92 91  1  0
 94 97  1  1
 94 95  1  0
 96 94  1  0
M  ISO  4  17 100  25 100  56 101  57 101
M  END
>  <TORSDO>  (40) 
F 18

>  <SCORE>  (40) 
-14.897

>  <name>  (40) 
39

>  <ligand_id>  (40) 
39

>  <original_smiles>  (40) 
[H]c1c([H])c([H])c2c(c1[H])C([H])([H])C([H])([H])C([H])([H])C2([H])N([H])C(=O)C1([H])N(C(=O)C([H])(N([H])C(=O)C([H])(N([H])C([H])([H])[H])C([H])([H])[H])C(C([H])([H])[H])(C([H])([H])[H])C([H])([H])[H])C([H])([H])c2c([H])c(OC([H])(C(=O)N([H])C(c3c([H])c([H])c(F)c(N([H])C(=O)N4C([H])([H])C([H])([H])C([H])([H])C([H])(n5nc(-c6c([H])c([H])c(Oc7c([H])c([H])c(F)c([H])c7F)c([H])c6[H])c(C(=O)N([H])[H])c5N([H])[H])C4([H])[H])c3F)=[N+]([H])[H])C([H])([H])[H])c([H])c([H])c2C1([H])[H]

>  <smiles>  (40) 
[H]c1c([H])c([H])c2c(c1[H])C([H])([H])C([H])([H])C([H])([H])C2([H])N([H])C(=O)C1([H])N(C(=O)C([H])(N([H])C(=O)C([H])(N([H])C([H])([H])[H])C([H])([H])[H])C(C([H])([H])[H])(C([H])([H])[H])C([H])([H])[H])C([H])([H])c2c([H])c(OC([H])(C(=O)N([H])C(c3c([H])c([H])c(F)c(N([H])C(=O)N4C([H])([H])C([H])([H])C([H])([H])C([H])(n5nc(-c6c([H])c([H])c(Oc7c([H])c([H])c(F)c([H])c7F)c([H])c6[H])c(C(=O)N([H])[H])c5N([H])[H])C4([H])[H])c3F)=[N+]([H])[H])C([H])([H])[H])c([H])c([H])c2C1([H])[H]

$$$$
40:0:0
     RDKit          3D

 93101  0  0  1  0  0  0  0  0999 V2000
  -29.0370  -22.3730   20.4900 C   0  0  0  0  0  0  0  0  0  0  0  0
  -28.9410  -21.1410   19.8660 N   0  0  0  0  0  0  0  0  0  0  0  0
  -29.6250  -22.4820   21.5680 O   0  0  0  0  0  0  0  0  0  0  0  0
  -28.3350  -21.1680   19.0580 H   0  0  0  0  0  0  0  0  0  0  0  0
  -30.5650  -14.7520   20.3550 C   0  0  0  0  0  0  0  0  0  0  0  0
  -30.3870  -12.4690   19.3630 C   0  0  0  0  0  2  0  0  0  0  0  0
  -29.4450  -12.5390   18.1390 C   0  0  0  0  0  2  0  0  0  0  0  0
  -27.9740  -12.3630   18.5700 C   0  0  0  0  0  2  0  0  0  0  0  0
  -27.5970  -13.2600   19.7780 C   0  0  0  0  0  3  0  0  0  0  0  0
  -28.6570  -13.1720   20.9000 C   0  0  0  0  0  2  0  0  0  0  0  0
  -29.9590  -13.5180   20.3110 N   0  0  0  0  0  0  0  0  0  0  0  0
  -31.7600  -14.8720   20.0730 O   0  0  0  0  0  0  0  0  0  0  0  0
  -30.7410  -19.4390   20.4630 C   0  0  0  0  0  0  0  0  0  0  0  0
  -29.4510  -19.8650   20.1540 C   0  0  0  0  0  0  0  0  0  0  0  0
  -29.8310  -17.2910   20.3660 C   0  0  0  0  0  0  0  0  0  0  0  0
  -30.9360  -18.0260   20.5750 N   0  0  0  0  0  0  0  0  0  0  0  0
  -29.7090  -15.8280   20.4840 N   0  0  0  0  0  0  0  0  0  0  0  0
  -28.4590  -18.3890   20.0010 S   0  0  0  0  0  0  0  0  0  0  0  0
  -28.7530  -15.5240   20.5780 H   0  0  0  0  0  0  0  0  0  0  0  0
  -25.2070  -13.8640   20.4970 C   0  0  0  0  0  0  0  0  0  0  0  0
  -24.1380  -13.0940   20.8660 C   0  0  0  0  0  0  0  0  0  0  0  0
  -24.6010  -11.7420   20.8460 C   0  0  0  0  0  0  0  0  0  0  0  0
  -26.2510  -12.9810   20.2710 N   0  0  0  0  0  0  0  0  0  0  0  0
  -25.8910  -11.7010   20.5430 N   0  0  0  0  0  0  0  0  0  0  0  0
  -23.8730  -10.4830   21.0390 C   0  0  0  0  0  0  0  0  0  0  0  0
  -24.3080   -9.5160   21.9730 C   0  0  0  0  0  3  0  0  0  0  0  0
  -23.5820   -8.3190   22.1560 C   0  0  0  0  0  3  0  0  0  0  0  0
  -22.4070   -8.0800   21.4040 C   0  0  0  0  0  0  0  0  0  0  0  0
  -21.9910   -9.0350   20.4600 C   0  0  0  0  0  3  0  0  0  0  0  0
  -22.7160  -10.2240   20.2750 C   0  0  0  0  0  3  0  0  0  0  0  0
  -21.6530   -6.9350   21.4960 O   0  0  0  0  0  0  0  0  0  0  0  0
  -21.6150   -6.1870   22.6450 C   0  0  0  0  0  0  0  0  0  0  0  0
  -21.2110   -6.7380   23.8800 C   0  0  0  0  0  3  0  0  0  0  0  0
  -21.1220   -5.9160   25.0210 C   0  0  0  0  0  3  0  0  0  0  0  0
  -21.4260   -4.5450   24.9290 C   0  0  0  0  0  0  0  0  0  0  0  0
  -21.8270   -3.9940   23.6980 C   0  0  0  0  0  3  0  0  0  0  0  0
  -21.9180   -4.8130   22.5580 C   0  0  0  0  0  0  0  0  0  0  0  0
  -22.2830   -4.2720   21.3710 F   0  0  0  0  0  0  0  0  0  0  0  0
  -21.3340   -3.7530   26.0230 F   0  0  0  0  0  0  0  0  0  0  0  0
  -22.7390  -13.5740   21.1240 C   0  0  0  0  0  0  0  0  0  0  0  0
  -22.0040  -12.8820   21.9860 N   0  0  0  0  0  0  0  0  0  0  0  0
  -22.3060  -14.5970   20.5930 O   0  0  0  0  0  0  0  0  0  0  0  0
  -22.3670  -12.0550   22.4370 H   0  0  0  0  0  0  0  0  0  0  0  0
  -21.0630  -13.1870   22.2000 H   0  0  0  0  0  0  0  0  0  0  0  0
  -25.3660  -15.2340   20.3130 N   0  0  0  0  0  0  0  0  0  0  0  0
  -24.5800  -15.8690   20.4020 H   0  0  0  0  0  0  0  0  0  0  0  0
  -26.1910  -15.6830   19.9400 H   0  0  0  0  0  0  0  0  0  0  0  0
  -32.4130  -20.3330   22.1000 C   0  0  0  0  0  1  0  0  0  0  0  0
  -31.9420  -20.3170   20.6420 C   0  0  0  0  0  2  0  0  0  0  0  0
  -27.0570  -23.3140   19.1360 C   0  0  0  0  0  1  0  0  0  0  0  0
  -28.3900  -23.6880   19.8280 C   0  0  0  0  0  3  0  0  0  0  0  0
  -28.2090  -25.0370   20.7190 C   0  0  0  0  0  2  0  0  0  0  0  0
  -28.3200  -26.4300   20.1720 O   0  0  0  0  0  0  0  0  0  0  0  0
  -24.6120  -31.8870   23.2460 C   0  0  0  0  0  0  0  0  0  0  0  0
  -27.2050  -27.2880   20.1960 C   0  0  0  0  0  0  0  0  0  0  0  0
  -23.4070  -30.4830   21.6120 C   0  0  0  0  0  3  0  0  0  0  0  0
  -24.8510  -28.9250   20.1860 C   0  0  0  0  0  0  0  0  0  0  0  0
  -25.9460  -30.7910   21.4270 C   0  0  0  0  0  2  0  0  0  0  0  0
  -26.0230  -29.4070   20.7830 C   0  0  0  0  0  0  0  0  0  0  0  0
  -27.2060  -28.6020   20.7750 C   0  0  0  0  0  3  0  0  0  0  0  0
  -26.0070  -26.8590   19.5910 C   0  0  0  0  0  3  0  0  0  0  0  0
  -24.8450  -27.6570   19.5810 C   0  0  0  0  0  3  0  0  0  0  0  0
  -23.6220  -29.8100   20.2300 C   0  0  0  0  0  2  0  0  0  0  0  0
  -24.6730  -31.0730   22.1510 N   0  0  0  0  0  0  0  0  0  0  0  0
  -23.5300  -32.1680   23.7800 O   0  0  0  0  0  0  0  0  0  0  0  0
  -22.7470  -29.4650   22.5730 C   0  0  0  0  0  0  0  0  0  0  0  0
  -21.4210  -29.2890   22.4520 N   0  0  0  0  0  0  0  0  0  0  0  0
  -23.4270  -28.8400   23.3890 O   0  0  0  0  0  0  0  0  0  0  0  0
  -20.9300  -29.8490   21.7720 H   0  0  0  0  0  0  0  0  0  0  0  0
  -18.0450  -28.0820   22.9560 C   0  0  0  0  0  0  0  0  0  0  0  0
  -20.6030  -28.3500   23.2230 C   0  0  0  0  0  3  0  0  0  0  0  0
  -20.7090  -26.9180   22.6520 C   0  0  0  0  0  2  0  0  0  0  0  0
  -19.6080  -26.5880   21.6400 C   0  0  0  0  0  2  0  0  0  0  0  0
  -18.2250  -26.7300   22.2820 C   0  0  0  0  0  2  0  0  0  0  0  0
  -19.1620  -28.8490   23.3820 C   0  0  0  0  0  0  0  0  0  0  0  0
  -18.9400  -30.1130   23.9700 C   0  0  0  0  0  3  0  0  0  0  0  0
  -17.6330  -30.6110   24.1380 C   0  0  0  0  0  3  0  0  0  0  0  0
  -16.5320  -29.8410   23.7260 C   0  0  0  0  0  3  0  0  0  0  0  0
  -16.7370  -28.5780   23.1420 C   0  0  0  0  0  3  0  0  0  0  0  0
  -25.8980  -32.5220   23.8630 C   0  0  0  0  0  3  0  0  0  0  0  0
  -26.4170  -31.7560   25.1410 C   0  0  1  0  0  0  0  0  0  0  0  0
  -25.3270  -31.5220   26.2140 C   0  0  0  0  0  1  0  0  0  0  0  0
  -26.9990  -30.3770   24.7520 C   0  0  0  0  0  1  0  0  0  0  0  0
  -27.5700  -32.5540   25.7960 C   0  0  0  0  0  1  0  0  0  0  0  0
  -25.5890  -33.9220   24.1930 N   0  0  0  0  0  0  0  0  0  0  0  0
  -25.9100  -34.9740   23.4280 C   0  0  0  0  0  0  0  0  0  0  0  0
  -26.5720  -34.8710   22.3910 O   0  0  0  0  0  0  0  0  0  0  0  0
  -25.0100  -34.0770   25.0040 H   0  0  0  0  0  0  0  0  0  0  0  0
  -24.1790  -36.7660   23.0800 C   0  0  0  0  0  1  0  0  0  0  0  0
  -25.4220  -36.3600   23.8870 C   0  0  0  0  0  3  0  0  0  0  0  0
  -27.5590  -37.2500   24.7100 C   0  0  0  0  0  1  0  0  0  0  0  0
  -26.4520  -37.4150   23.7700 N   0  0  0  0  0  0  0  0  0  0  0  0
  -26.0460  -38.3350   23.9250 H   0  0  0  0  0  0  0  0  0  0  0  0
  1  3  2  0
  2 14  1  0
  2  1  1  0
  4  2  1  0
  5 17  1  0
  6 11  1  0
  7  8  1  0
  7  6  1  0
  9  8  1  0
  9 23  1  0
  9 10  1  0
 11  5  1  0
 11 10  1  0
 12  5  2  0
 13 16  1  0
 13 49  1  0
 14 13  2  0
 15 17  1  0
 15 16  2  0
 17 19  1  0
 18 14  1  0
 18 15  1  0
 20 21  2  0
 21 40  1  0
 22 21  1  0
 22 25  1  0
 23 20  1  0
 23 24  1  0
 24 22  2  0
 25 26  1  0
 26 27  2  0
 28 31  1  0
 28 27  1  0
 29 28  2  0
 30 29  1  0
 30 25  2  0
 31 32  1  0
 32 33  1  0
 33 34  2  0
 35 34  1  0
 35 39  1  0
 36 35  2  0
 37 32  2  0
 37 36  1  0
 38 37  1  0
 40 41  1  0
 41 44  1  0
 41 43  1  0
 42 40  2  0
 45 46  1  0
 45 20  1  0
 47 45  1  0
 49 48  1  0
 51 50  1  0
 51  1  1  0
 51 52  1  0
 53 55  1  0
 53 52  1  0
 54 65  2  0
 55 60  1  0
 56 64  1  0
 56 66  1  0
 57 63  1  0
 57 59  1  0
 58 64  1  0
 59 58  1  0
 60 59  2  0
 61 55  2  0
 62 61  1  0
 62 57  2  0
 63 56  1  0
 64 54  1  0
 66 68  2  0
 67 66  1  0
 69 67  1  0
 70 79  2  0
 70 75  1  0
 71 67  1  0
 71 75  1  0
 72 71  1  0
 73 74  1  0
 73 72  1  0
 74 70  1  0
 75 76  2  0
 76 77  1  0
 78 77  2  0
 79 78  1  0
 80 54  1  0
 80 85  1  0
 80 81  1  0
 81 84  1  1
 81 82  1  0
 83 81  1  0
 85 88  1  0
 86 90  1  0
 86 85  1  0
 87 86  2  0
 90 89  1  0
 92 90  1  0
 92 93  1  0
 92 91  1  0
M  ISO  4   5 100  17 100  52 101  53 101
M  END
>  <TORSDO>  (41) 
F 19

>  <SCORE>  (41) 
-14.515

>  <name>  (41) 
40

>  <ligand_id>  (41) 
40

>  <original_smiles>  (41) 
[H]c1c([H])c([H])c2c(c1[H])C([H])([H])C([H])([H])C([H])([H])C2([H])N([H])C(=O)C1([H])N(C(=O)C([H])(N([H])C(=O)C([H])(N([H])C([H])([H])[H])C([H])([H])[H])C(C([H])([H])[H])(C([H])([H])[H])C([H])([H])[H])C([H])([H])c2c([H])c(OC([H])([H])C([H])(C(=O)N([H])c3sc(N([H])C(=O)N4C([H])([H])C([H])([H])C([H])([H])C([H])(n5nc(-c6c([H])c([H])c(Oc7c([H])c([H])c(F)c([H])c7F)c([H])c6[H])c(C(=O)N([H])[H])c5N([H])[H])C4([H])[H])nc3C([H])([H])C([H])([H])[H])C([H])([H])[H])c([H])c([H])c2C1([H])[H]

>  <smiles>  (41) 
[H]c1c([H])c([H])c2c(c1[H])C([H])([H])C([H])([H])C([H])([H])C2([H])N([H])C(=O)C1([H])N(C(=O)C([H])(N([H])C(=O)C([H])(N([H])C([H])([H])[H])C([H])([H])[H])C(C([H])([H])[H])(C([H])([H])[H])C([H])([H])[H])C([H])([H])c2c([H])c(OC([H])([H])C([H])(C(=O)N([H])c3sc(N([H])C(=O)N4C([H])([H])C([H])([H])C([H])([H])C([H])(n5nc(-c6c([H])c([H])c(Oc7c([H])c([H])c(F)c([H])c7F)c([H])c6[H])c(C(=O)N([H])[H])c5N([H])[H])C4([H])[H])nc3C([H])([H])C([H])([H])[H])C([H])([H])[H])c([H])c([H])c2C1([H])[H]

$$$$
41:0:0
     RDKit          3D

 96105  0  0  1  0  0  0  0  0999 V2000
  -33.2270  -21.5110   21.9240 C   0  0  0  0  0  2  0  0  0  0  0  0
  -33.1900  -22.6260   20.8920 C   0  0  0  0  0  2  0  0  0  0  0  0
  -32.4910  -20.3190   21.3300 C   0  0  0  0  0  2  0  0  0  0  0  0
  -31.7360  -22.9920   20.5700 C   0  0  0  0  0  2  0  0  0  0  0  0
  -31.0200  -20.6190   20.9230 C   0  0  0  0  0  3  0  0  0  0  0  0
  -30.8920  -21.8590   20.0410 N   0  0  1  0  0  4  0  0  0  0  0  0
  -31.2510  -21.6410   19.1230 H   0  0  0  0  0  0  0  0  0  0  0  0
  -30.4520  -13.9980   19.7010 C   0  0  0  0  0  0  0  0  0  0  0  0
  -30.0750  -11.7800   18.6630 C   0  0  0  0  0  2  0  0  0  0  0  0
  -28.9860  -11.9270   17.5770 C   0  0  0  0  0  2  0  0  0  0  0  0
  -27.5780  -11.7840   18.1880 C   0  0  0  0  0  2  0  0  0  0  0  0
  -27.3850  -12.6490   19.4610 C   0  0  0  0  0  3  0  0  0  0  0  0
  -28.5730  -12.4730   20.4360 C   0  0  0  0  0  2  0  0  0  0  0  0
  -29.8090  -12.7930   19.7010 N   0  0  0  0  0  0  0  0  0  0  0  0
  -31.5300  -14.1540   19.1160 O   0  0  0  0  0  0  0  0  0  0  0  0
  -29.4860  -18.5900   21.3600 C   0  0  0  0  0  3  0  0  0  0  0  0
  -29.2660  -17.1980   21.2200 C   0  0  0  0  0  3  0  0  0  0  0  0
  -30.9540  -18.4460   19.4780 C   0  0  0  0  0  3  0  0  0  0  0  0
  -30.4010  -19.2480   20.5080 C   0  0  0  0  0  0  0  0  0  0  0  0
  -29.9630  -16.4460   20.2470 C   0  0  0  0  0  0  0  0  0  0  0  0
  -30.7510  -17.1060   19.3590 N   0  0  0  0  0  0  0  0  0  0  0  0
  -29.7650  -15.0190   20.2790 N   0  0  0  0  0  0  0  0  0  0  0  0
  -28.9520  -14.7170   20.7890 H   0  0  0  0  0  0  0  0  0  0  0  0
  -25.1120  -13.2630   20.4970 C   0  0  0  0  0  0  0  0  0  0  0  0
  -24.0920  -12.4930   20.9860 C   0  0  0  0  0  0  0  0  0  0  0  0
  -24.5250  -11.1380   20.8610 C   0  0  0  0  0  0  0  0  0  0  0  0
  -26.1050  -12.3760   20.1090 N   0  0  0  0  0  0  0  0  0  0  0  0
  -25.7630  -11.0910   20.3850 N   0  0  0  0  0  0  0  0  0  0  0  0
  -23.8120   -9.8790   21.1150 C   0  0  0  0  0  0  0  0  0  0  0  0
  -24.3280   -8.9010   21.9940 C   0  0  0  0  0  3  0  0  0  0  0  0
  -23.6150   -7.7070   22.2350 C   0  0  0  0  0  3  0  0  0  0  0  0
  -22.3710   -7.4830   21.5970 C   0  0  0  0  0  0  0  0  0  0  0  0
  -21.8730   -8.4490   20.7050 C   0  0  0  0  0  3  0  0  0  0  0  0
  -22.5860   -9.6350   20.4630 C   0  0  0  0  0  3  0  0  0  0  0  0
  -21.6220   -6.3420   21.7520 O   0  0  0  0  0  0  0  0  0  0  0  0
  -21.6290   -5.6290   22.9240 C   0  0  0  0  0  0  0  0  0  0  0  0
  -21.1680   -6.1830   24.1370 C   0  0  0  0  0  3  0  0  0  0  0  0
  -21.1280   -5.3920   25.3020 C   0  0  0  0  0  3  0  0  0  0  0  0
  -21.5390   -4.0480   25.2560 C   0  0  0  0  0  0  0  0  0  0  0  0
  -21.9950   -3.4920   24.0480 C   0  0  0  0  0  3  0  0  0  0  0  0
  -22.0370   -4.2790   22.8840 C   0  0  0  0  0  0  0  0  0  0  0  0
  -22.4560   -3.7330   21.7180 F   0  0  0  0  0  0  0  0  0  0  0  0
  -21.4940   -3.2850   26.3740 F   0  0  0  0  0  0  0  0  0  0  0  0
  -22.7490  -12.9790   21.4510 C   0  0  0  0  0  0  0  0  0  0  0  0
  -22.1430  -12.2850   22.4080 N   0  0  0  0  0  0  0  0  0  0  0  0
  -22.2510  -14.0090   20.9990 O   0  0  0  0  0  0  0  0  0  0  0  0
  -22.5620  -11.4520   22.7940 H   0  0  0  0  0  0  0  0  0  0  0  0
  -21.2490  -12.5930   22.7610 H   0  0  0  0  0  0  0  0  0  0  0  0
  -25.2720  -14.6350   20.3320 N   0  0  0  0  0  0  0  0  0  0  0  0
  -24.5330  -15.2920   20.5560 H   0  0  0  0  0  0  0  0  0  0  0  0
  -26.0660  -15.0730   19.8800 H   0  0  0  0  0  0  0  0  0  0  0  0
  -29.4760  -22.3460   19.8380 C   0  0  0  0  0  2  0  0  0  0  0  0
  -29.3970  -23.7850   19.2290 C   0  0  0  0  0  0  0  0  0  0  0  0
  -30.1600  -24.1220   18.3150 O   0  0  0  0  0  0  0  0  0  0  0  0
  -28.3290  -24.7710   19.7820 C   0  0  0  0  0  2  0  0  0  0  0  0
  -28.5970  -26.1760   19.4830 O   0  0  0  0  0  0  0  0  0  0  0  0
  -25.0330  -31.2010   23.1530 C   0  0  0  0  0  0  0  0  0  0  0  0
  -27.4950  -27.0150   19.5620 C   0  0  0  0  0  0  0  0  0  0  0  0
  -23.7870  -30.0760   21.3390 C   0  0  0  0  0  3  0  0  0  0  0  0
  -25.1860  -28.6600   19.7410 C   0  0  0  0  0  0  0  0  0  0  0  0
  -26.3340  -30.3220   21.2100 C   0  0  0  0  0  2  0  0  0  0  0  0
  -26.3640  -29.0380   20.3990 C   0  0  0  0  0  0  0  0  0  0  0  0
  -27.5250  -28.2270   20.3020 C   0  0  0  0  0  3  0  0  0  0  0  0
  -26.3030  -26.6760   18.8860 C   0  0  0  0  0  3  0  0  0  0  0  0
  -25.1540  -27.4820   18.9780 C   0  0  0  0  0  3  0  0  0  0  0  0
  -23.9840  -29.5690   19.8880 C   0  0  0  0  0  2  0  0  0  0  0  0
  -25.0690  -30.5400   21.9600 N   0  0  0  0  0  0  0  0  0  0  0  0
  -23.9580  -31.4560   23.7130 O   0  0  0  0  0  0  0  0  0  0  0  0
  -23.0720  -28.9760   22.1590 C   0  0  0  0  0  0  0  0  0  0  0  0
  -21.7380  -28.8990   22.0250 N   0  0  0  0  0  0  0  0  0  0  0  0
  -23.7160  -28.2020   22.8710 O   0  0  0  0  0  0  0  0  0  0  0  0
  -21.2820  -29.5740   21.4280 H   0  0  0  0  0  0  0  0  0  0  0  0
  -18.2870  -27.9220   22.4800 C   0  0  0  0  0  0  0  0  0  0  0  0
  -20.8640  -27.9170   22.6700 C   0  0  0  0  0  3  0  0  0  0  0  0
  -20.8200  -26.5990   21.8640 C   0  0  0  0  0  2  0  0  0  0  0  0
  -19.6610  -26.5430   20.8630 C   0  0  0  0  0  2  0  0  0  0  0  0
  -18.3200  -26.6940   21.5860 C   0  0  0  0  0  2  0  0  0  0  0  0
  -19.4830  -28.5060   22.9760 C   0  0  0  0  0  0  0  0  0  0  0  0
  -19.3980  -29.6660   23.7750 C   0  0  0  0  0  3  0  0  0  0  0  0
  -18.1500  -30.2410   24.0810 C   0  0  0  0  0  3  0  0  0  0  0  0
  -16.9680  -29.6500   23.6000 C   0  0  0  0  0  3  0  0  0  0  0  0
  -17.0380  -28.4920   22.8060 C   0  0  0  0  0  3  0  0  0  0  0  0
  -26.3370  -31.6880   23.8580 C   0  0  0  0  0  3  0  0  0  0  0  0
  -26.7660  -30.7750   25.0720 C   0  0  1  0  0  0  0  0  0  0  0  0
  -25.6330  -30.5270   26.0940 C   0  0  0  0  0  1  0  0  0  0  0  0
  -27.2600  -29.3960   24.5710 C   0  0  0  0  0  1  0  0  0  0  0  0
  -27.9540  -31.4240   25.8200 C   0  0  0  0  0  1  0  0  0  0  0  0
  -26.1110  -33.0690   24.3030 N   0  0  0  0  0  0  0  0  0  0  0  0
  -26.5310  -34.1590   23.6450 C   0  0  0  0  0  0  0  0  0  0  0  0
  -27.2190  -34.0990   22.6220 O   0  0  0  0  0  0  0  0  0  0  0  0
  -25.5080  -33.1940   25.1020 H   0  0  0  0  0  0  0  0  0  0  0  0
  -24.9290  -36.0840   23.4150 C   0  0  0  0  0  1  0  0  0  0  0  0
  -26.1220  -35.5320   24.2110 C   0  0  0  0  0  3  0  0  0  0  0  0
  -28.2770  -36.2100   25.1730 C   0  0  0  0  0  1  0  0  0  0  0  0
  -27.2230  -36.5200   24.2110 N   0  0  0  0  0  0  0  0  0  0  0  0
  -26.8710  -37.4510   24.4150 H   0  0  0  0  0  0  0  0  0  0  0  0
  2  1  1  0
  3  1  1  0
  4  2  1  0
  5 19  1  0
  5  3  1  0
  6  4  1  0
  6  5  1  0
  6  7  1  6
  8 14  1  0
  8 22  1  0
  9 14  1  0
 10 11  1  0
 10  9  1  0
 12 11  1  0
 12 27  1  0
 12 13  1  0
 14 13  1  0
 15  8  2  0
 17 16  1  0
 18 19  1  0
 19 16  2  0
 20 22  1  0
 20 17  2  0
 21 18  2  0
 21 20  1  0
 22 23  1  0
 24 25  2  0
 25 44  1  0
 26 25  1  0
 26 29  1  0
 27 28  1  0
 27 24  1  0
 28 26  2  0
 29 30  1  0
 30 31  2  0
 32 35  1  0
 32 31  1  0
 33 32  2  0
 34 33  1  0
 34 29  2  0
 35 36  1  0
 36 37  1  0
 37 38  2  0
 39 38  1  0
 39 43  1  0
 40 39  2  0
 41 36  2  0
 41 40  1  0
 42 41  1  0
 44 45  1  0
 45 48  1  0
 45 47  1  0
 46 44  2  0
 49 24  1  0
 49 50  1  0
 51 49  1  0
 52  6  1  0
 53 55  1  0
 53 52  1  0
 54 53  2  0
 56 58  1  0
 56 55  1  0
 57 68  2  0
 58 63  1  0
 59 67  1  0
 59 69  1  0
 60 66  1  0
 60 62  1  0
 61 67  1  0
 62 61  1  0
 63 62  2  0
 64 65  1  0
 64 58  2  0
 65 60  2  0
 66 59  1  0
 67 57  1  0
 69 71  2  0
 70 69  1  0
 72 70  1  0
 73 82  2  0
 73 78  1  0
 74 70  1  0
 74 78  1  0
 75 74  1  0
 76 77  1  0
 76 75  1  0
 77 73  1  0
 78 79  2  0
 79 80  1  0
 81 80  2  0
 82 81  1  0
 83 57  1  0
 83 88  1  0
 83 84  1  0
 84 87  1  1
 84 85  1  0
 86 84  1  0
 88 91  1  0
 89 93  1  0
 89 88  1  0
 90 89  2  0
 93 92  1  0
 95 93  1  0
 95 96  1  0
 95 94  1  0
M  ISO  4   8 100  22 100  55 101  56 101
M  END
>  <TORSDO>  (42) 
F 19

>  <SCORE>  (42) 
-10.389

>  <name>  (42) 
41

>  <ligand_id>  (42) 
41

>  <original_smiles>  (42) 
[H]c1nc(N([H])C(=O)N2C([H])([H])C([H])([H])C([H])([H])C([H])(n3nc(-c4c([H])c([H])c(Oc5c([H])c([H])c(F)c([H])c5F)c([H])c4[H])c(C(=O)N([H])[H])c3N([H])[H])C2([H])[H])c([H])c([H])c1C1([H])C([H])([H])C([H])([H])C([H])([H])C([H])([H])[N+]1([H])C([H])([H])C(=O)C([H])([H])Oc1c([H])c([H])c2c(c1[H])C([H])([H])N(C(=O)C([H])(N([H])C(=O)C([H])(N([H])C([H])([H])[H])C([H])([H])[H])C(C([H])([H])[H])(C([H])([H])[H])C([H])([H])[H])C([H])(C(=O)N([H])C1([H])c3c([H])c([H])c([H])c([H])c3C([H])([H])C([H])([H])C1([H])[H])C2([H])[H]

>  <smiles>  (42) 
[H]c1nc(N([H])C(=O)N2C([H])([H])C([H])([H])C([H])([H])C([H])(n3nc(-c4c([H])c([H])c(Oc5c([H])c([H])c(F)c([H])c5F)c([H])c4[H])c(C(=O)N([H])[H])c3N([H])[H])C2([H])[H])c([H])c([H])c1C1([H])C([H])([H])C([H])([H])C([H])([H])C([H])([H])[N+]1([H])C([H])([H])C(=O)C([H])([H])Oc1c([H])c([H])c2c(c1[H])C([H])([H])N(C(=O)C([H])(N([H])C(=O)C([H])(N([H])C([H])([H])[H])C([H])([H])[H])C(C([H])([H])[H])(C([H])([H])[H])C([H])([H])[H])C([H])(C(=O)N([H])C1([H])c3c([H])c([H])c([H])c([H])c3C([H])([H])C([H])([H])C1([H])[H])C2([H])[H]

$$$$
42:0:0
     RDKit          3D

 96104  0  0  1  0  0  0  0  0999 V2000
  -30.3370  -18.5080   17.9990 C   0  0  0  0  0  3  0  0  0  0  0  0
  -29.7340  -18.5780   20.6960 C   0  0  0  0  0  3  0  0  0  0  0  0
  -30.1370  -19.7750   18.5960 C   0  0  0  0  0  0  0  0  0  0  0  0
  -29.7710  -19.8560   19.9820 C   0  0  0  0  0  0  0  0  0  0  0  0
  -30.0020  -17.2780   20.0930 C   0  0  0  0  0  0  0  0  0  0  0  0
  -30.2610  -17.2990   18.7050 C   0  0  0  0  0  0  0  0  0  0  0  0
  -30.4000  -16.1450   18.0080 F   0  0  0  0  0  0  0  0  0  0  0  0
  -30.6890  -14.8250   20.5730 C   0  0  0  0  0  0  0  0  0  0  0  0
  -30.5510  -12.5250   19.6310 C   0  0  0  0  0  2  0  0  0  0  0  0
  -29.6670  -12.5780   18.3660 C   0  0  0  0  0  2  0  0  0  0  0  0
  -28.1790  -12.4060   18.7310 C   0  0  0  0  0  2  0  0  0  0  0  0
  -27.7490  -13.3050   19.9210 C   0  0  0  0  0  3  0  0  0  0  0  0
  -28.7610  -13.2410   21.0880 C   0  0  0  0  0  2  0  0  0  0  0  0
  -30.0810  -13.5890   20.5470 N   0  0  0  0  0  0  0  0  0  0  0  0
  -31.8850  -14.9270   20.2880 O   0  0  0  0  0  0  0  0  0  0  0  0
  -29.9100  -15.9560   20.7700 N   0  0  0  0  0  0  0  0  0  0  0  0
  -29.0280  -15.7770   21.2250 H   0  0  0  0  0  0  0  0  0  0  0  0
  -25.3250  -13.8770   20.5370 C   0  0  0  0  0  0  0  0  0  0  0  0
  -24.2520  -13.0960   20.8710 C   0  0  0  0  0  0  0  0  0  0  0  0
  -24.7300  -11.7490   20.8770 C   0  0  0  0  0  0  0  0  0  0  0  0
  -26.3870  -13.0070   20.3560 N   0  0  0  0  0  0  0  0  0  0  0  0
  -26.0330  -11.7220   20.6240 N   0  0  0  0  0  0  0  0  0  0  0  0
  -24.0090  -10.4820   21.0520 C   0  0  0  0  0  0  0  0  0  0  0  0
  -24.4040   -9.5340   22.0210 C   0  0  0  0  0  3  0  0  0  0  0  0
  -23.6840   -8.3310   22.1840 C   0  0  0  0  0  3  0  0  0  0  0  0
  -22.5510   -8.0670   21.3770 C   0  0  0  0  0  0  0  0  0  0  0  0
  -22.1750   -9.0040   20.3990 C   0  0  0  0  0  3  0  0  0  0  0  0
  -22.8960  -10.1980   20.2340 C   0  0  0  0  0  3  0  0  0  0  0  0
  -21.8050   -6.9160   21.4480 O   0  0  0  0  0  0  0  0  0  0  0  0
  -21.6980   -6.1970   22.6120 C   0  0  0  0  0  0  0  0  0  0  0  0
  -21.1720   -6.7670   23.7920 C   0  0  0  0  0  3  0  0  0  0  0  0
  -21.0140   -5.9730   24.9460 C   0  0  0  0  0  3  0  0  0  0  0  0
  -21.3710   -4.6120   24.9200 C   0  0  0  0  0  0  0  0  0  0  0  0
  -21.8910   -4.0420   23.7450 C   0  0  0  0  0  3  0  0  0  0  0  0
  -22.0500   -4.8330   22.5940 C   0  0  0  0  0  0  0  0  0  0  0  0
  -22.5310   -4.2740   21.4560 F   0  0  0  0  0  0  0  0  0  0  0  0
  -21.2110   -3.8480   26.0260 F   0  0  0  0  0  0  0  0  0  0  0  0
  -22.8390  -13.5610   21.0770 C   0  0  0  0  0  0  0  0  0  0  0  0
  -22.0800  -12.8630   21.9130 N   0  0  0  0  0  0  0  0  0  0  0  0
  -22.4160  -14.5790   20.5320 O   0  0  0  0  0  0  0  0  0  0  0  0
  -22.4360  -12.0400   22.3770 H   0  0  0  0  0  0  0  0  0  0  0  0
  -21.1310  -13.1550   22.0950 H   0  0  0  0  0  0  0  0  0  0  0  0
  -25.4810  -15.2470   20.3490 N   0  0  0  0  0  0  0  0  0  0  0  0
  -24.6990  -15.8900   20.4170 H   0  0  0  0  0  0  0  0  0  0  0  0
  -26.3310  -15.6910   20.0260 H   0  0  0  0  0  0  0  0  0  0  0  0
  -30.3540  -20.9810   17.6670 C   0  0  1  0  0  0  0  0  0  0  0  0
  -31.1730  -20.6620   16.6610 F   0  0  0  0  0  0  0  0  0  0  0  0
  -29.1890  -21.3410   17.1230 F   0  0  0  0  0  0  0  0  0  0  0  0
  -30.9060  -22.0340   18.2670 F   0  0  0  0  0  0  0  0  0  0  0  0
  -29.5160  -21.1220   20.6580 N   0  0  0  0  0  0  0  0  0  0  0  0
  -29.5880  -21.0960   21.6710 H   0  0  0  0  0  0  0  0  0  0  0  0
  -28.6530  -22.2790   20.1630 C   0  0  0  0  0  2  0  0  0  0  0  0
  -29.0160  -23.8130   20.4900 C   0  0  0  0  0  0  0  0  0  0  0  0
  -30.0470  -24.0780   21.1170 O   0  0  0  0  0  0  0  0  0  0  0  0
  -28.0220  -24.9770   20.0250 C   0  0  0  0  0  2  0  0  0  0  0  0
  -28.3310  -26.4270   20.2950 O   0  0  0  0  0  0  0  0  0  0  0  0
  -24.6060  -31.9170   23.2650 C   0  0  0  0  0  0  0  0  0  0  0  0
  -27.2470  -27.3380   20.2150 C   0  0  0  0  0  0  0  0  0  0  0  0
  -23.4220  -30.5180   21.6170 C   0  0  0  0  0  3  0  0  0  0  0  0
  -24.8900  -28.9840   20.1890 C   0  0  0  0  0  0  0  0  0  0  0  0
  -25.9670  -30.8380   21.4530 C   0  0  0  0  0  2  0  0  0  0  0  0
  -26.0570  -29.4600   20.8010 C   0  0  0  0  0  0  0  0  0  0  0  0
  -27.2400  -28.6490   20.8030 C   0  0  0  0  0  3  0  0  0  0  0  0
  -26.0560  -26.9440   19.5610 C   0  0  0  0  0  3  0  0  0  0  0  0
  -24.8940  -27.7350   19.5580 C   0  0  0  0  0  3  0  0  0  0  0  0
  -23.6500  -29.8550   20.2350 C   0  0  0  0  0  2  0  0  0  0  0  0
  -24.6840  -31.1100   22.1680 N   0  0  0  0  0  0  0  0  0  0  0  0
  -23.5180  -32.1880   23.7920 O   0  0  0  0  0  0  0  0  0  0  0  0
  -22.7580  -29.4930   22.5690 C   0  0  0  0  0  0  0  0  0  0  0  0
  -21.4340  -29.3020   22.4290 N   0  0  0  0  0  0  0  0  0  0  0  0
  -23.4330  -28.8730   23.3950 O   0  0  0  0  0  0  0  0  0  0  0  0
  -20.9490  -29.8530   21.7350 H   0  0  0  0  0  0  0  0  0  0  0  0
  -18.0610  -28.0700   22.8860 C   0  0  0  0  0  0  0  0  0  0  0  0
  -20.6130  -28.3590   23.1920 C   0  0  0  0  0  3  0  0  0  0  0  0
  -20.7400  -26.9260   22.6220 C   0  0  0  0  0  2  0  0  0  0  0  0
  -19.6550  -26.5890   21.5960 C   0  0  0  0  0  2  0  0  0  0  0  0
  -18.2630  -26.7200   22.2190 C   0  0  0  0  0  2  0  0  0  0  0  0
  -19.1660  -28.8470   23.3290 C   0  0  0  0  0  0  0  0  0  0  0  0
  -18.9220  -30.1100   23.9120 C   0  0  0  0  0  3  0  0  0  0  0  0
  -17.6090  -30.5940   24.0610 C   0  0  0  0  0  3  0  0  0  0  0  0
  -16.5200  -29.8140   23.6350 C   0  0  0  0  0  3  0  0  0  0  0  0
  -16.7470  -28.5550   23.0520 C   0  0  0  0  0  3  0  0  0  0  0  0
  -25.8800  -32.5570   23.8970 C   0  0  0  0  0  3  0  0  0  0  0  0
  -25.5690  -33.9630   24.1980 N   0  0  0  0  0  0  0  0  0  0  0  0
  -25.9200  -35.0010   23.4270 C   0  0  0  0  0  0  0  0  0  0  0  0
  -26.6060  -34.8770   22.4090 O   0  0  0  0  0  0  0  0  0  0  0  0
  -24.9630  -34.1330   24.9860 H   0  0  0  0  0  0  0  0  0  0  0  0
  -24.2160  -36.8030   23.0050 C   0  0  0  0  0  1  0  0  0  0  0  0
  -25.4320  -36.3990   23.8540 C   0  0  0  0  0  3  0  0  0  0  0  0
  -27.5490  -37.2820   24.7310 C   0  0  0  0  0  1  0  0  0  0  0  0
  -26.4760  -37.4430   23.7540 N   0  0  0  0  0  0  0  0  0  0  0  0
  -26.0730  -38.3680   23.8760 H   0  0  0  0  0  0  0  0  0  0  0  0
  -26.3710  -31.8070   25.1960 C   0  0  1  0  0  0  0  0  0  0  0  0
  -25.2580  -31.5900   26.2480 C   0  0  0  0  0  1  0  0  0  0  0  0
  -26.9560  -30.4200   24.8400 C   0  0  0  0  0  1  0  0  0  0  0  0
  -27.5140  -32.6080   25.8620 C   0  0  0  0  0  1  0  0  0  0  0  0
  1  3  2  0
  1  6  1  0
  3  4  1  0
  4 50  1  0
  4  2  2  0
  5  2  1  0
  5 16  1  0
  6  5  2  0
  7  6  1  0
  8 16  1  0
  9 14  1  0
 10 11  1  0
 10  9  1  0
 12 11  1  0
 12 21  1  0
 12 13  1  0
 14  8  1  0
 14 13  1  0
 15  8  2  0
 16 17  1  0
 18 19  2  0
 19 20  1  0
 19 38  1  0
 20 23  1  0
 21 18  1  0
 21 22  1  0
 22 20  2  0
 23 24  1  0
 24 25  2  0
 26 29  1  0
 26 25  1  0
 27 26  2  0
 28 27  1  0
 28 23  2  0
 29 30  1  0
 30 31  1  0
 31 32  2  0
 33 32  1  0
 33 37  1  0
 34 33  2  0
 35 30  2  0
 35 34  1  0
 36 35  1  0
 38 39  1  0
 39 42  1  0
 39 41  1  0
 40 38  2  0
 43 44  1  0
 43 18  1  0
 45 43  1  0
 46 49  1  1
 46  3  1  0
 47 46  1  0
 48 46  1  0
 50 51  1  0
 52 53  1  0
 52 50  1  0
 53 54  2  0
 55 56  1  0
 55 53  1  0
 57 68  2  0
 58 56  1  0
 58 63  1  0
 59 67  1  0
 59 69  1  0
 60 66  1  0
 60 62  1  0
 61 67  1  0
 62 63  2  0
 62 61  1  0
 64 58  2  0
 65 64  1  0
 65 60  2  0
 66 59  1  0
 67 57  1  0
 69 71  2  0
 70 69  1  0
 72 70  1  0
 73 82  2  0
 73 78  1  0
 74 70  1  0
 74 78  1  0
 75 74  1  0
 76 77  1  0
 76 75  1  0
 77 73  1  0
 78 79  2  0
 79 80  1  0
 81 80  2  0
 82 81  1  0
 83 57  1  0
 83 84  1  0
 83 93  1  0
 84 87  1  0
 85 89  1  0
 85 84  1  0
 86 85  2  0
 89 88  1  0
 91 89  1  0
 91 92  1  0
 91 90  1  0
 93 96  1  1
 93 94  1  0
 95 93  1  0
M  ISO  4   8 100  16 100  55 101  56 101
M  END
>  <TORSDO>  (43) 
F 21

>  <SCORE>  (43) 
-13.358

>  <name>  (43) 
42

>  <ligand_id>  (43) 
42

>  <original_smiles>  (43) 
[H]c1c([H])c([H])c2c(c1[H])C([H])([H])C([H])([H])C([H])([H])C2([H])N([H])C(=O)C1([H])N(C(=O)C([H])(N([H])C(=O)C([H])(N([H])C([H])([H])[H])C([H])([H])[H])C(C([H])([H])[H])(C([H])([H])[H])C([H])([H])[H])C([H])([H])c2c([H])c(OC([H])([H])C(=O)C([H])([H])N([H])c3c([H])c(N([H])C(=O)N4C([H])([H])C([H])([H])C([H])([H])C([H])(n5nc(-c6c([H])c([H])c(Oc7c([H])c([H])c(F)c([H])c7F)c([H])c6[H])c(C(=O)N([H])[H])c5N([H])[H])C4([H])[H])c(F)c([H])c3C(F)(F)F)c([H])c([H])c2C1([H])[H]

>  <smiles>  (43) 
[H]c1c([H])c([H])c2c(c1[H])C([H])([H])C([H])([H])C([H])([H])C2([H])N([H])C(=O)C1([H])N(C(=O)C([H])(N([H])C(=O)C([H])(N([H])C([H])([H])[H])C([H])([H])[H])C(C([H])([H])[H])(C([H])([H])[H])C([H])([H])[H])C([H])([H])c2c([H])c(OC([H])([H])C(=O)C([H])([H])N([H])c3c([H])c(N([H])C(=O)N4C([H])([H])C([H])([H])C([H])([H])C([H])(n5nc(-c6c([H])c([H])c(Oc7c([H])c([H])c(F)c([H])c7F)c([H])c6[H])c(C(=O)N([H])[H])c5N([H])[H])C4([H])[H])c(F)c([H])c3C(F)(F)F)c([H])c([H])c2C1([H])[H]

$$$$
43:0:0
     RDKit          3D

 95104  0  0  1  0  0  0  0  0999 V2000
  -29.6090  -17.8300   21.3090 C   0  0  0  0  0  3  0  0  0  0  0  0
  -31.2340  -17.5240   19.5290 C   0  0  0  0  0  3  0  0  0  0  0  0
  -29.4640  -19.1890   20.9480 C   0  0  0  0  0  0  0  0  0  0  0  0
  -30.1950  -19.7220   19.8600 C   0  0  0  0  0  0  0  0  0  0  0  0
  -30.4810  -16.9740   20.5960 C   0  0  0  0  0  0  0  0  0  0  0  0
  -31.0920  -18.8810   19.1670 C   0  0  0  0  0  0  0  0  0  0  0  0
  -28.4980  -20.0770   21.7080 C   0  0  0  0  0  2  0  0  0  0  0  0
  -27.9610  -21.1940   20.8060 C   0  0  0  0  0  2  0  0  0  0  0  0
  -29.0980  -21.9720   20.1140 C   0  0  0  0  0  3  0  0  0  0  0  0
  -30.0170  -21.0520   19.4270 N   0  0  0  0  0  0  0  0  0  0  0  0
  -31.8070  -19.3760   18.1250 F   0  0  0  0  0  0  0  0  0  0  0  0
  -30.6130  -21.3960   18.6770 H   0  0  0  0  0  0  0  0  0  0  0  0
  -31.1620  -14.5650   20.3900 C   0  0  0  0  0  0  0  0  0  0  0  0
  -30.8670  -12.3200   19.4140 C   0  0  0  0  0  2  0  0  0  0  0  0
  -29.9670  -12.4460   18.1670 C   0  0  0  0  0  2  0  0  0  0  0  0
  -28.4770  -12.3720   18.5540 C   0  0  0  0  0  2  0  0  0  0  0  0
  -28.1180  -13.3140   19.7340 C   0  0  0  0  0  3  0  0  0  0  0  0
  -29.1300  -13.1540   20.8920 C   0  0  0  0  0  2  0  0  0  0  0  0
  -30.4850  -13.3860   20.3540 N   0  0  0  0  0  0  0  0  0  0  0  0
  -32.2820  -14.7060   19.8900 O   0  0  0  0  0  0  0  0  0  0  0  0
  -30.4930  -15.5860   20.9590 N   0  0  0  0  0  0  0  0  0  0  0  0
  -29.7150  -15.2880   21.5260 H   0  0  0  0  0  0  0  0  0  0  0  0
  -25.7370  -14.0380   20.3900 C   0  0  0  0  0  0  0  0  0  0  0  0
  -24.6260  -13.3180   20.7440 C   0  0  0  0  0  0  0  0  0  0  0  0
  -25.0250  -11.9460   20.7290 C   0  0  0  0  0  0  0  0  0  0  0  0
  -26.7440  -13.1070   20.1850 N   0  0  0  0  0  0  0  0  0  0  0  0
  -26.3160  -11.8450   20.4450 N   0  0  0  0  0  0  0  0  0  0  0  0
  -24.2370  -10.7200   20.9160 C   0  0  0  0  0  0  0  0  0  0  0  0
  -24.6320   -9.7230   21.8350 C   0  0  0  0  0  3  0  0  0  0  0  0
  -23.8500   -8.5610   22.0090 C   0  0  0  0  0  3  0  0  0  0  0  0
  -22.6590   -8.3880   21.2640 C   0  0  0  0  0  0  0  0  0  0  0  0
  -22.2810   -9.3740   20.3350 C   0  0  0  0  0  3  0  0  0  0  0  0
  -23.0640  -10.5280   20.1590 C   0  0  0  0  0  3  0  0  0  0  0  0
  -21.8500   -7.2810   21.3480 O   0  0  0  0  0  0  0  0  0  0  0  0
  -21.8180   -6.4960   22.4730 C   0  0  0  0  0  0  0  0  0  0  0  0
  -21.4800   -7.0220   23.7390 C   0  0  0  0  0  3  0  0  0  0  0  0
  -21.3910   -6.1670   24.8550 C   0  0  0  0  0  3  0  0  0  0  0  0
  -21.6310   -4.7880   24.7080 C   0  0  0  0  0  0  0  0  0  0  0  0
  -21.9640   -4.2610   23.4480 C   0  0  0  0  0  3  0  0  0  0  0  0
  -22.0540   -5.1140   22.3320 C   0  0  0  0  0  0  0  0  0  0  0  0
  -22.3550   -4.5980   21.1160 F   0  0  0  0  0  0  0  0  0  0  0  0
  -21.5390   -3.9650   25.7790 F   0  0  0  0  0  0  0  0  0  0  0  0
  -23.2480  -13.8620   20.9890 C   0  0  0  0  0  0  0  0  0  0  0  0
  -22.4790  -13.2120   21.8560 N   0  0  0  0  0  0  0  0  0  0  0  0
  -22.8640  -14.8970   20.4490 O   0  0  0  0  0  0  0  0  0  0  0  0
  -22.8020  -12.3740   22.3160 H   0  0  0  0  0  0  0  0  0  0  0  0
  -21.5530  -13.5590   22.0640 H   0  0  0  0  0  0  0  0  0  0  0  0
  -25.9700  -15.3970   20.2090 N   0  0  0  0  0  0  0  0  0  0  0  0
  -25.2360  -16.0910   20.3010 H   0  0  0  0  0  0  0  0  0  0  0  0
  -26.8530  -15.7910   19.9080 H   0  0  0  0  0  0  0  0  0  0  0  0
  -28.4910  -23.0410   19.1620 C   0  0  0  0  0  2  0  0  0  0  0  0
  -29.1920  -24.4100   19.1000 C   0  0  0  0  0  0  0  0  0  0  0  0
  -30.1360  -24.6100   18.3280 O   0  0  0  0  0  0  0  0  0  0  0  0
  -28.6540  -25.5210   20.0210 C   0  0  0  0  0  2  0  0  0  0  0  0
  -28.6650  -26.8070   19.3800 O   0  0  0  0  0  0  0  0  0  0  0  0
  -24.6150  -31.3750   23.0350 C   0  0  0  0  0  0  0  0  0  0  0  0
  -27.4660  -27.4760   19.4600 C   0  0  0  0  0  0  0  0  0  0  0  0
  -23.4680  -30.1080   21.2450 C   0  0  0  0  0  3  0  0  0  0  0  0
  -24.9900  -28.8250   19.6500 C   0  0  0  0  0  0  0  0  0  0  0  0
  -25.9680  -30.6280   21.0810 C   0  0  0  0  0  2  0  0  0  0  0  0
  -26.1230  -29.3480   20.2860 C   0  0  0  0  0  0  0  0  0  0  0  0
  -27.3660  -28.6830   20.1850 C   0  0  0  0  0  3  0  0  0  0  0  0
  -26.3180  -26.9610   18.8190 C   0  0  0  0  0  3  0  0  0  0  0  0
  -25.0820  -27.6290   18.9130 C   0  0  0  0  0  3  0  0  0  0  0  0
  -23.7010  -29.6020   19.7960 C   0  0  0  0  0  2  0  0  0  0  0  0
  -24.7020  -30.7130   21.8470 N   0  0  0  0  0  0  0  0  0  0  0  0
  -23.5270  -31.5250   23.6080 O   0  0  0  0  0  0  0  0  0  0  0  0
  -22.8840  -28.9510   22.0850 C   0  0  0  0  0  0  0  0  0  0  0  0
  -21.5610  -28.7390   21.9720 N   0  0  0  0  0  0  0  0  0  0  0  0
  -23.6120  -28.2500   22.7920 O   0  0  0  0  0  0  0  0  0  0  0  0
  -21.0330  -29.3610   21.3770 H   0  0  0  0  0  0  0  0  0  0  0  0
  -18.2410  -27.3880   22.4230 C   0  0  0  0  0  0  0  0  0  0  0  0
  -20.8000  -27.6820   22.6370 C   0  0  0  0  0  3  0  0  0  0  0  0
  -20.9160  -26.3460   21.8680 C   0  0  0  0  0  2  0  0  0  0  0  0
  -19.7840  -26.1300   20.8590 C   0  0  0  0  0  2  0  0  0  0  0  0
  -18.4240  -26.1470   21.5650 C   0  0  0  0  0  2  0  0  0  0  0  0
  -19.3570  -28.1170   22.9120 C   0  0  0  0  0  0  0  0  0  0  0  0
  -19.1310  -29.2840   23.6760 C   0  0  0  0  0  3  0  0  0  0  0  0
  -17.8230  -29.7210   23.9530 C   0  0  0  0  0  3  0  0  0  0  0  0
  -16.7220  -28.9870   23.4790 C   0  0  0  0  0  3  0  0  0  0  0  0
  -16.9320  -27.8210   22.7200 C   0  0  0  0  0  3  0  0  0  0  0  0
  -25.8730  -31.9990   23.7190 C   0  0  0  0  0  3  0  0  0  0  0  0
  -26.4200  -31.1360   24.9210 C   0  0  1  0  0  0  0  0  0  0  0  0
  -25.3400  -30.7680   25.9640 C   0  0  0  0  0  1  0  0  0  0  0  0
  -27.0480  -29.8190   24.4080 C   0  0  0  0  0  1  0  0  0  0  0  0
  -27.5440  -31.9080   25.6520 C   0  0  0  0  0  1  0  0  0  0  0  0
  -25.5080  -33.3470   24.1710 N   0  0  0  0  0  0  0  0  0  0  0  0
  -25.8220  -34.4770   23.5220 C   0  0  0  0  0  0  0  0  0  0  0  0
  -26.5210  -34.4930   22.5050 O   0  0  0  0  0  0  0  0  0  0  0  0
  -24.8880  -33.4060   24.9650 H   0  0  0  0  0  0  0  0  0  0  0  0
  -24.0360  -36.2320   23.2920 C   0  0  0  0  0  1  0  0  0  0  0  0
  -25.2740  -35.7980   24.0930 C   0  0  0  0  0  3  0  0  0  0  0  0
  -27.3560  -36.6770   25.0540 C   0  0  0  0  0  1  0  0  0  0  0  0
  -26.2700  -36.8920   24.1020 N   0  0  0  0  0  0  0  0  0  0  0  0
  -25.8260  -37.7800   24.3240 H   0  0  0  0  0  0  0  0  0  0  0  0
  2  5  1  0
  3  1  1  0
  3  7  1  0
  4  3  2  0
  5 21  1  0
  5  1  2  0
  6  2  2  0
  6  4  1  0
  8  7  1  0
  9 51  1  0
  9  8  1  0
 10  4  1  0
 10  9  1  0
 11  6  1  0
 12 10  1  0
 13 21  1  0
 14 19  1  0
 15 16  1  0
 15 14  1  0
 17 16  1  0
 17 26  1  0
 17 18  1  0
 19 13  1  0
 19 18  1  0
 20 13  2  0
 21 22  1  0
 23 24  2  0
 24 43  1  0
 25 24  1  0
 25 28  1  0
 26 23  1  0
 26 27  1  0
 27 25  2  0
 28 29  1  0
 29 30  2  0
 31 34  1  0
 31 30  1  0
 32 31  2  0
 33 32  1  0
 33 28  2  0
 34 35  1  0
 35 36  1  0
 36 37  2  0
 38 37  1  0
 38 42  1  0
 39 38  2  0
 40 35  2  0
 40 39  1  0
 41 40  1  0
 43 44  1  0
 44 47  1  0
 44 46  1  0
 45 43  2  0
 48 49  1  0
 48 23  1  0
 50 48  1  0
 52 51  1  0
 52 54  1  0
 53 52  2  0
 55 57  1  0
 55 54  1  0
 56 67  2  0
 57 62  1  0
 58 66  1  0
 58 68  1  0
 59 65  1  0
 59 61  1  0
 60 66  1  0
 61 60  1  0
 62 61  2  0
 63 64  1  0
 63 57  2  0
 64 59  2  0
 65 58  1  0
 66 56  1  0
 68 70  2  0
 69 68  1  0
 71 69  1  0
 72 81  2  0
 72 77  1  0
 73 69  1  0
 73 77  1  0
 74 73  1  0
 75 76  1  0
 75 74  1  0
 76 72  1  0
 77 78  2  0
 78 79  1  0
 80 79  2  0
 81 80  1  0
 82 56  1  0
 82 87  1  0
 82 83  1  0
 83 86  1  1
 83 84  1  0
 85 83  1  0
 87 90  1  0
 88 92  1  0
 88 87  1  0
 89 88  2  0
 92 91  1  0
 92 94  1  0
 94 95  1  0
 94 93  1  0
M  ISO  4  13 100  21 100  54 101  55 101
M  END
>  <TORSDO>  (44) 
F 19

>  <SCORE>  (44) 
-11.254

>  <name>  (44) 
43

>  <ligand_id>  (44) 
43

>  <original_smiles>  (44) 
[H]c1c([H])c([H])c2c(c1[H])C([H])([H])C([H])([H])C([H])([H])C2([H])N([H])C(=O)C1([H])N(C(=O)C([H])(N([H])C(=O)C([H])(N([H])C([H])([H])[H])C([H])([H])[H])C(C([H])([H])[H])(C([H])([H])[H])C([H])([H])[H])C([H])([H])c2c([H])c(OC([H])([H])C(=O)C([H])([H])C3([H])N([H])c4c(F)c([H])c(N([H])C(=O)N5C([H])([H])C([H])([H])C([H])([H])C([H])(n6nc(-c7c([H])c([H])c(Oc8c([H])c([H])c(F)c([H])c8F)c([H])c7[H])c(C(=O)N([H])[H])c6N([H])[H])C5([H])[H])c([H])c4C([H])([H])C3([H])[H])c([H])c([H])c2C1([H])[H]

>  <smiles>  (44) 
[H]c1c([H])c([H])c2c(c1[H])C([H])([H])C([H])([H])C([H])([H])C2([H])N([H])C(=O)C1([H])N(C(=O)C([H])(N([H])C(=O)C([H])(N([H])C([H])([H])[H])C([H])([H])[H])C(C([H])([H])[H])(C([H])([H])[H])C([H])([H])[H])C([H])([H])c2c([H])c(OC([H])([H])C(=O)C([H])([H])C3([H])N([H])c4c(F)c([H])c(N([H])C(=O)N5C([H])([H])C([H])([H])C([H])([H])C([H])(n6nc(-c7c([H])c([H])c(Oc8c([H])c([H])c(F)c([H])c8F)c([H])c7[H])c(C(=O)N([H])[H])c6N([H])[H])C5([H])[H])c([H])c4C([H])([H])C3([H])[H])c([H])c([H])c2C1([H])[H]

$$$$
44:0:0
     RDKit          3D

 95103  0  0  1  0  0  0  0  0999 V2000
  -30.1700  -20.5220   21.2880 C   0  0  0  0  0  2  0  0  0  0  0  0
  -29.2100  -21.7650   21.1260 C   0  0  0  0  0  0  0  0  0  0  0  0
  -28.0220  -21.6030   20.8280 O   0  0  0  0  0  0  0  0  0  0  0  0
  -29.7600  -23.2360   21.3730 C   0  0  0  0  0  0  0  0  0  0  0  0
  -30.6310  -23.4230   22.2320 O   0  0  0  0  0  0  0  0  0  0  0  0
  -29.2200  -24.4530   20.5440 C   0  0  0  0  0  2  0  0  0  0  0  0
  -28.7440  -25.7210   21.3460 C   0  0  0  0  0  2  0  0  0  0  0  0
  -28.7020  -26.9590   20.5740 O   0  0  0  0  0  0  0  0  0  0  0  0
  -24.6330  -32.1180   23.4260 C   0  0  0  0  0  0  0  0  0  0  0  0
  -27.5150  -27.6750   20.5400 C   0  0  0  0  0  0  0  0  0  0  0  0
  -23.5250  -30.6520   21.7710 C   0  0  0  0  0  3  0  0  0  0  0  0
  -25.0770  -29.1270   20.4210 C   0  0  0  0  0  0  0  0  0  0  0  0
  -26.0430  -31.0860   21.6400 C   0  0  0  0  0  2  0  0  0  0  0  0
  -26.2000  -29.6990   21.0360 C   0  0  0  0  0  0  0  0  0  0  0  0
  -27.4240  -28.9870   21.0790 C   0  0  0  0  0  3  0  0  0  0  0  0
  -26.3770  -27.1240   19.9120 C   0  0  0  0  0  3  0  0  0  0  0  0
  -25.1610  -27.8420   19.8510 C   0  0  0  0  0  3  0  0  0  0  0  0
  -23.8030  -29.9470   20.4140 C   0  0  0  0  0  2  0  0  0  0  0  0
  -24.7530  -31.3020   22.3390 N   0  0  0  0  0  0  0  0  0  0  0  0
  -23.5280  -32.3640   23.9270 O   0  0  0  0  0  0  0  0  0  0  0  0
  -22.8680  -29.6320   22.7290 C   0  0  0  0  0  0  0  0  0  0  0  0
  -21.5570  -29.4010   22.5490 N   0  0  0  0  0  0  0  0  0  0  0  0
  -23.5340  -29.0510   23.5880 O   0  0  0  0  0  0  0  0  0  0  0  0
  -21.0740  -29.9410   21.8460 H   0  0  0  0  0  0  0  0  0  0  0  0
  -18.2290  -28.0230   22.8710 C   0  0  0  0  0  0  0  0  0  0  0  0
  -20.7480  -28.4390   23.2950 C   0  0  0  0  0  3  0  0  0  0  0  0
  -20.9660  -27.0000   22.7740 C   0  0  0  0  0  2  0  0  0  0  0  0
  -19.9530  -26.5790   21.7090 C   0  0  0  0  0  2  0  0  0  0  0  0
  -18.5250  -26.6620   22.2630 C   0  0  0  0  0  2  0  0  0  0  0  0
  -19.2740  -28.8610   23.3420 C   0  0  0  0  0  0  0  0  0  0  0  0
  -18.9470  -30.1310   23.8640 C   0  0  0  0  0  3  0  0  0  0  0  0
  -17.6090  -30.5660   23.9280 C   0  0  0  0  0  3  0  0  0  0  0  0
  -16.5780  -29.7250   23.4780 C   0  0  0  0  0  3  0  0  0  0  0  0
  -16.8900  -28.4610   22.9480 C   0  0  0  0  0  3  0  0  0  0  0  0
  -25.8770  -32.7970   24.0810 C   0  0  0  0  0  3  0  0  0  0  0  0
  -25.5390  -34.2050   24.3290 N   0  0  0  0  0  0  0  0  0  0  0  0
  -25.8970  -35.2230   23.5350 C   0  0  0  0  0  0  0  0  0  0  0  0
  -26.6140  -35.0750   22.5430 O   0  0  0  0  0  0  0  0  0  0  0  0
  -24.9130  -34.4000   25.0990 H   0  0  0  0  0  0  0  0  0  0  0  0
  -24.1700  -36.9730   23.0220 C   0  0  0  0  0  1  0  0  0  0  0  0
  -25.3820  -36.6290   23.9000 C   0  0  0  0  0  3  0  0  0  0  0  0
  -27.4720  -37.5820   24.7690 C   0  0  0  0  0  1  0  0  0  0  0  0
  -26.4090  -37.6850   23.7720 N   0  0  0  0  0  0  0  0  0  0  0  0
  -25.9910  -38.6080   23.8520 H   0  0  0  0  0  0  0  0  0  0  0  0
  -26.3430  -32.0910   25.4130 C   0  0  1  0  0  0  0  0  0  0  0  0
  -25.2000  -31.8710   26.4350 C   0  0  0  0  0  1  0  0  0  0  0  0
  -26.9690  -30.7120   25.1030 C   0  0  0  0  0  1  0  0  0  0  0  0
  -27.4430  -32.9380   26.0950 C   0  0  0  0  0  1  0  0  0  0  0  0
  -29.6290  -19.1230   21.1910 N   0  0  0  0  0  0  0  0  0  0  0  0
  -29.7870  -18.5160   21.9910 H   0  0  0  0  0  0  0  0  0  0  0  0
  -28.7880  -16.5830   18.5260 C   0  0  0  0  0  3  0  0  0  0  0  0
  -28.4110  -17.4280   17.4740 C   0  0  0  0  0  3  0  0  0  0  0  0
  -28.9920  -19.3270   18.8520 C   0  0  0  0  0  3  0  0  0  0  0  0
  -29.2810  -17.0600   19.7690 C   0  0  0  0  0  0  0  0  0  0  0  0
  -29.3230  -18.4960   19.9560 C   0  0  0  0  0  0  0  0  0  0  0  0
  -28.5360  -18.8090   17.6320 C   0  0  0  0  0  0  0  0  0  0  0  0
  -28.1880  -19.6380   16.6220 F   0  0  0  0  0  0  0  0  0  0  0  0
  -30.4300  -14.9780   20.4890 C   0  0  0  0  0  0  0  0  0  0  0  0
  -30.2660  -12.7700   19.3690 C   0  0  0  0  0  2  0  0  0  0  0  0
  -29.3020  -12.8240   18.1660 C   0  0  0  0  0  2  0  0  0  0  0  0
  -27.8270  -12.7190   18.5980 C   0  0  0  0  0  2  0  0  0  0  0  0
  -27.4740  -13.5080   19.8900 C   0  0  0  0  0  3  0  0  0  0  0  0
  -28.5540  -13.3490   20.9780 C   0  0  0  0  0  2  0  0  0  0  0  0
  -29.8330  -13.7500   20.3860 N   0  0  0  0  0  0  0  0  0  0  0  0
  -31.5940  -15.1560   20.1200 O   0  0  0  0  0  0  0  0  0  0  0  0
  -29.6210  -16.0530   20.7590 N   0  0  0  0  0  0  0  0  0  0  0  0
  -28.8740  -15.8590   21.4100 H   0  0  0  0  0  0  0  0  0  0  0  0
  -25.0680  -13.9880   20.6360 C   0  0  0  0  0  0  0  0  0  0  0  0
  -24.0390  -13.1610   20.9940 C   0  0  0  0  0  0  0  0  0  0  0  0
  -24.5630  -11.8320   20.9400 C   0  0  0  0  0  0  0  0  0  0  0  0
  -26.1470  -13.1580   20.3820 N   0  0  0  0  0  0  0  0  0  0  0  0
  -25.8520  -11.8580   20.6310 N   0  0  0  0  0  0  0  0  0  0  0  0
  -23.9010  -10.5310   21.1020 C   0  0  0  0  0  0  0  0  0  0  0  0
  -24.3590   -9.5820   22.0430 C   0  0  0  0  0  3  0  0  0  0  0  0
  -23.6930   -8.3480   22.1960 C   0  0  0  0  0  3  0  0  0  0  0  0
  -22.5530   -8.0530   21.4100 C   0  0  0  0  0  0  0  0  0  0  0  0
  -22.1160   -8.9910   20.4600 C   0  0  0  0  0  3  0  0  0  0  0  0
  -22.7820  -10.2180   20.3040 C   0  0  0  0  0  3  0  0  0  0  0  0
  -21.8590   -6.8700   21.4740 O   0  0  0  0  0  0  0  0  0  0  0  0
  -21.7950   -6.1380   22.6320 C   0  0  0  0  0  0  0  0  0  0  0  0
  -21.2550   -6.6710   23.8240 C   0  0  0  0  0  3  0  0  0  0  0  0
  -21.1450   -5.8580   24.9710 C   0  0  0  0  0  3  0  0  0  0  0  0
  -21.5640   -4.5150   24.9260 C   0  0  0  0  0  0  0  0  0  0  0  0
  -22.0990   -3.9840   23.7400 C   0  0  0  0  0  3  0  0  0  0  0  0
  -22.2110   -4.7920   22.5970 C   0  0  0  0  0  0  0  0  0  0  0  0
  -22.7070   -4.2700   21.4500 F   0  0  0  0  0  0  0  0  0  0  0  0
  -21.4520   -3.7330   26.0250 F   0  0  0  0  0  0  0  0  0  0  0  0
  -22.6230  -13.5680   21.2750 C   0  0  0  0  0  0  0  0  0  0  0  0
  -21.9240  -12.8230   22.1240 N   0  0  0  0  0  0  0  0  0  0  0  0
  -22.1400  -14.5790   20.7710 O   0  0  0  0  0  0  0  0  0  0  0  0
  -22.3240  -12.0080   22.5640 H   0  0  0  0  0  0  0  0  0  0  0  0
  -20.9690  -13.0770   22.3410 H   0  0  0  0  0  0  0  0  0  0  0  0
  -25.1730  -15.3650   20.4770 N   0  0  0  0  0  0  0  0  0  0  0  0
  -24.3880  -15.9970   20.5990 H   0  0  0  0  0  0  0  0  0  0  0  0
  -26.0030  -15.8310   20.1300 H   0  0  0  0  0  0  0  0  0  0  0  0
  2  1  1  0
  2  4  1  0
  3  2  2  0
  4  5  2  0
  6  7  1  0
  6  4  1  0
  8  7  1  0
  9 20  2  0
 10  8  1  0
 10 15  1  0
 11 19  1  0
 11 21  1  0
 12 14  1  0
 13 19  1  0
 14 15  2  0
 14 13  1  0
 16 10  2  0
 17 16  1  0
 17 12  2  0
 18 12  1  0
 18 11  1  0
 19  9  1  0
 21 23  2  0
 22 21  1  0
 24 22  1  0
 25 34  2  0
 25 30  1  0
 26 22  1  0
 26 30  1  0
 27 26  1  0
 28 29  1  0
 28 27  1  0
 29 25  1  0
 30 31  2  0
 31 32  1  0
 33 32  2  0
 34 33  1  0
 35  9  1  0
 35 36  1  0
 35 45  1  0
 36 39  1  0
 37 41  1  0
 37 36  1  0
 38 37  2  0
 41 40  1  0
 43 44  1  0
 43 41  1  0
 43 42  1  0
 45 48  1  1
 45 46  1  0
 47 45  1  0
 49  1  1  0
 49 50  1  0
 51 54  1  0
 52 56  1  0
 52 51  2  0
 53 55  1  0
 54 55  2  0
 54 66  1  0
 55 49  1  0
 56 53  2  0
 57 56  1  0
 58 66  1  0
 59 64  1  0
 60 61  1  0
 60 59  1  0
 62 61  1  0
 62 71  1  0
 62 63  1  0
 64 58  1  0
 64 63  1  0
 65 58  2  0
 66 67  1  0
 68 69  2  0
 69 88  1  0
 70 69  1  0
 70 73  1  0
 71 72  1  0
 71 68  1  0
 72 70  2  0
 73 74  1  0
 74 75  2  0
 76 79  1  0
 76 75  1  0
 77 76  2  0
 78 77  1  0
 78 73  2  0
 79 80  1  0
 80 81  1  0
 81 82  2  0
 83 82  1  0
 83 87  1  0
 84 83  2  0
 85 80  2  0
 85 84  1  0
 86 85  1  0
 88 89  1  0
 89 92  1  0
 89 91  1  0
 90 88  2  0
 93 94  1  0
 93 68  1  0
 95 93  1  0
M  ISO  4   7 101   8 101  58 100  66 100
M  END
>  <TORSDO>  (45) 
F 22

>  <SCORE>  (45) 
-12.470

>  <name>  (45) 
44

>  <ligand_id>  (45) 
44

>  <original_smiles>  (45) 
[H]c1c([H])c([H])c2c(c1[H])C([H])([H])C([H])([H])C([H])([H])C2([H])N([H])C(=O)C1([H])N(C(=O)C([H])(N([H])C(=O)C([H])(N([H])C([H])([H])[H])C([H])([H])[H])C(C([H])([H])[H])(C([H])([H])[H])C([H])([H])[H])C([H])([H])c2c([H])c(OC([H])([H])C([H])([H])C(=O)C(=O)C([H])([H])N([H])c3c([H])c(F)c([H])c([H])c3N([H])C(=O)N3C([H])([H])C([H])([H])C([H])([H])C([H])(n4nc(-c5c([H])c([H])c(Oc6c([H])c([H])c(F)c([H])c6F)c([H])c5[H])c(C(=O)N([H])[H])c4N([H])[H])C3([H])[H])c([H])c([H])c2C1([H])[H]

>  <smiles>  (45) 
[H]c1c([H])c([H])c2c(c1[H])C([H])([H])C([H])([H])C([H])([H])C2([H])N([H])C(=O)C1([H])N(C(=O)C([H])(N([H])C(=O)C([H])(N([H])C([H])([H])[H])C([H])([H])[H])C(C([H])([H])[H])(C([H])([H])[H])C([H])([H])[H])C([H])([H])c2c([H])c(OC([H])([H])C([H])([H])C(=O)C(=O)C([H])([H])N([H])c3c([H])c(F)c([H])c([H])c3N([H])C(=O)N3C([H])([H])C([H])([H])C([H])([H])C([H])(n4nc(-c5c([H])c([H])c(Oc6c([H])c([H])c(F)c([H])c6F)c([H])c5[H])c(C(=O)N([H])[H])c4N([H])[H])C3([H])[H])c([H])c([H])c2C1([H])[H]

$$$$
45:0:0
     RDKit          3D

 96104  0  0  1  0  0  0  0  0999 V2000
  -29.3490  -18.6120   20.4190 C   0  0  0  0  0  3  0  0  0  0  0  0
  -31.1710  -17.6570   21.6880 C   0  0  0  0  0  3  0  0  0  0  0  0
  -30.7800  -20.1120   21.7340 C   0  0  0  0  0  0  0  0  0  0  0  0
  -30.0910  -17.4260   20.8220 C   0  0  0  0  0  0  0  0  0  0  0  0
  -29.6530  -19.9800   20.8430 C   0  0  0  0  0  0  0  0  0  0  0  0
  -31.4990  -18.9480   22.1370 C   0  0  0  0  0  0  0  0  0  0  0  0
  -32.5390  -19.0260   23.0050 F   0  0  0  0  0  0  0  0  0  0  0  0
  -30.5580  -14.9030   20.3190 C   0  0  0  0  0  0  0  0  0  0  0  0
  -30.4000  -12.6200   19.3060 C   0  0  0  0  0  2  0  0  0  0  0  0
  -29.4370  -12.6400   18.0990 C   0  0  0  0  0  2  0  0  0  0  0  0
  -27.9770  -12.4440   18.5570 C   0  0  0  0  0  2  0  0  0  0  0  0
  -27.5990  -13.3430   19.7640 C   0  0  0  0  0  3  0  0  0  0  0  0
  -28.6760  -13.2960   20.8670 C   0  0  0  0  0  2  0  0  0  0  0  0
  -29.9520  -13.6710   20.2460 N   0  0  0  0  0  0  0  0  0  0  0  0
  -31.7430  -15.0260   19.9960 O   0  0  0  0  0  0  0  0  0  0  0  0
  -29.7490  -16.0190   20.4930 N   0  0  0  0  0  0  0  0  0  0  0  0
  -28.7600  -15.8120   20.4690 H   0  0  0  0  0  0  0  0  0  0  0  0
  -25.2220  -13.8910   20.5560 C   0  0  0  0  0  0  0  0  0  0  0  0
  -24.1760  -13.0980   20.9400 C   0  0  0  0  0  0  0  0  0  0  0  0
  -24.6560  -11.7540   20.8800 C   0  0  0  0  0  0  0  0  0  0  0  0
  -26.2710  -13.0310   20.2810 N   0  0  0  0  0  0  0  0  0  0  0  0
  -25.9400  -11.7390   20.5400 N   0  0  0  0  0  0  0  0  0  0  0  0
  -23.9520  -10.4790   21.0680 C   0  0  0  0  0  0  0  0  0  0  0  0
  -24.4010   -9.5160   21.9980 C   0  0  0  0  0  3  0  0  0  0  0  0
  -23.6930   -8.3080   22.1740 C   0  0  0  0  0  3  0  0  0  0  0  0
  -22.5230   -8.0520   21.4190 C   0  0  0  0  0  0  0  0  0  0  0  0
  -22.0930   -9.0050   20.4790 C   0  0  0  0  0  3  0  0  0  0  0  0
  -22.8020  -10.2060   20.3010 C   0  0  0  0  0  3  0  0  0  0  0  0
  -21.7880   -6.8950   21.5040 O   0  0  0  0  0  0  0  0  0  0  0  0
  -21.7310   -6.1620   22.6620 C   0  0  0  0  0  0  0  0  0  0  0  0
  -21.2280   -6.7040   23.8640 C   0  0  0  0  0  3  0  0  0  0  0  0
  -21.1240   -5.8950   25.0130 C   0  0  0  0  0  3  0  0  0  0  0  0
  -21.5110   -4.5420   24.9590 C   0  0  0  0  0  0  0  0  0  0  0  0
  -22.0080   -3.9990   23.7610 C   0  0  0  0  0  3  0  0  0  0  0  0
  -22.1140   -4.8060   22.6150 C   0  0  0  0  0  0  0  0  0  0  0  0
  -22.5730   -4.2710   21.4570 F   0  0  0  0  0  0  0  0  0  0  0  0
  -21.4040   -3.7630   26.0610 F   0  0  0  0  0  0  0  0  0  0  0  0
  -22.7780  -13.5510   21.2480 C   0  0  0  0  0  0  0  0  0  0  0  0
  -22.0770  -12.8310   22.1150 N   0  0  0  0  0  0  0  0  0  0  0  0
  -22.3180  -14.5820   20.7570 O   0  0  0  0  0  0  0  0  0  0  0  0
  -22.4610  -11.9940   22.5310 H   0  0  0  0  0  0  0  0  0  0  0  0
  -21.1410  -13.1180   22.3700 H   0  0  0  0  0  0  0  0  0  0  0  0
  -25.3560  -15.2680   20.3940 N   0  0  0  0  0  0  0  0  0  0  0  0
  -24.5700  -15.8960   20.5280 H   0  0  0  0  0  0  0  0  0  0  0  0
  -26.1650  -15.7320   20.0010 H   0  0  0  0  0  0  0  0  0  0  0  0
  -31.2580  -21.4580   22.3100 C   0  0  1  0  0  0  0  0  0  0  0  0
  -30.4470  -21.8250   23.3040 F   0  0  0  0  0  0  0  0  0  0  0  0
  -32.4920  -21.4200   22.8160 F   0  0  0  0  0  0  0  0  0  0  0  0
  -31.2950  -22.4200   21.3940 F   0  0  0  0  0  0  0  0  0  0  0  0
  -28.8610  -21.0980   20.3210 N   0  0  0  0  0  0  0  0  0  0  0  0
  -28.2030  -20.8190   19.6000 H   0  0  0  0  0  0  0  0  0  0  0  0
  -28.4220  -22.4110   20.9710 C   0  0  0  0  0  2  0  0  0  0  0  0
  -28.5450  -23.8270   20.2040 C   0  0  0  0  0  0  0  0  0  0  0  0
  -29.1770  -23.8830   19.1430 O   0  0  0  0  0  0  0  0  0  0  0  0
  -27.8290  -25.1400   20.7890 C   0  0  0  0  0  2  0  0  0  0  0  0
  -28.0760  -26.4940   20.1690 O   0  0  0  0  0  0  0  0  0  0  0  0
  -24.4900  -32.0110   23.2530 C   0  0  0  0  0  0  0  0  0  0  0  0
  -26.9980  -27.4080   20.1560 C   0  0  0  0  0  0  0  0  0  0  0  0
  -23.2460  -30.6390   21.6180 C   0  0  0  0  0  3  0  0  0  0  0  0
  -24.6610  -29.0790   20.1580 C   0  0  0  0  0  0  0  0  0  0  0  0
  -25.7870  -30.9250   21.3990 C   0  0  0  0  0  2  0  0  0  0  0  0
  -25.8460  -29.5470   20.7410 C   0  0  0  0  0  0  0  0  0  0  0  0
  -27.0220  -28.7250   20.7240 C   0  0  0  0  0  3  0  0  0  0  0  0
  -25.7910  -27.0010   19.5480 C   0  0  0  0  0  3  0  0  0  0  0  0
  -24.6370  -27.8140   19.5480 C   0  0  0  0  0  3  0  0  0  0  0  0
  -23.4330  -29.9720   20.2280 C   0  0  0  0  0  2  0  0  0  0  0  0
  -24.5280  -31.2100   22.1470 N   0  0  0  0  0  0  0  0  0  0  0  0
  -23.4180  -32.2940   23.8060 O   0  0  0  0  0  0  0  0  0  0  0  0
  -22.5850  -29.6220   22.5800 C   0  0  0  0  0  0  0  0  0  0  0  0
  -21.2620  -29.4310   22.4460 N   0  0  0  0  0  0  0  0  0  0  0  0
  -23.2650  -29.0070   23.4050 O   0  0  0  0  0  0  0  0  0  0  0  0
  -20.7680  -29.9850   21.7620 H   0  0  0  0  0  0  0  0  0  0  0  0
  -17.8960  -28.1880   22.9200 C   0  0  0  0  0  0  0  0  0  0  0  0
  -20.4470  -28.4870   23.2160 C   0  0  0  0  0  3  0  0  0  0  0  0
  -20.5750  -27.0510   22.6560 C   0  0  0  0  0  2  0  0  0  0  0  0
  -19.4910  -26.7030   21.6310 C   0  0  0  0  0  2  0  0  0  0  0  0
  -18.0990  -26.8350   22.2580 C   0  0  0  0  0  2  0  0  0  0  0  0
  -19.0000  -28.9700   23.3550 C   0  0  0  0  0  0  0  0  0  0  0  0
  -18.7560  -30.2340   23.9320 C   0  0  0  0  0  3  0  0  0  0  0  0
  -17.4430  -30.7190   24.0800 C   0  0  0  0  0  3  0  0  0  0  0  0
  -16.3540  -29.9330   23.6640 C   0  0  0  0  0  3  0  0  0  0  0  0
  -16.5820  -28.6710   23.0870 C   0  0  0  0  0  3  0  0  0  0  0  0
  -25.7890  -32.6240   23.8610 C   0  0  0  0  0  3  0  0  0  0  0  0
  -25.5070  -34.0300   24.1830 N   0  0  0  0  0  0  0  0  0  0  0  0
  -25.8560  -35.0740   23.4180 C   0  0  0  0  0  0  0  0  0  0  0  0
  -26.5190  -34.9530   22.3830 O   0  0  0  0  0  0  0  0  0  0  0  0
  -24.9180  -34.2010   24.9840 H   0  0  0  0  0  0  0  0  0  0  0  0
  -24.1740  -36.9090   23.0550 C   0  0  0  0  0  1  0  0  0  0  0  0
  -25.4020  -36.4730   23.8720 C   0  0  0  0  0  3  0  0  0  0  0  0
  -27.5500  -37.3140   24.7160 C   0  0  0  0  0  1  0  0  0  0  0  0
  -26.4620  -37.5000   23.7610 N   0  0  0  0  0  0  0  0  0  0  0  0
  -26.0770  -38.4310   23.8960 H   0  0  0  0  0  0  0  0  0  0  0  0
  -26.2980  -31.8540   25.1420 C   0  0  1  0  0  0  0  0  0  0  0  0
  -25.2050  -31.6420   26.2150 C   0  0  0  0  0  1  0  0  0  0  0  0
  -26.8600  -30.4660   24.7580 C   0  0  0  0  0  1  0  0  0  0  0  0
  -27.4620  -32.6370   25.7930 C   0  0  0  0  0  1  0  0  0  0  0  0
  1  4  2  0
  1  5  1  0
  2  6  2  0
  3  6  1  0
  3 46  1  0
  4  2  1  0
  5  3  2  0
  6  7  1  0
  8 16  1  0
  9 14  1  0
 10 11  1  0
 10  9  1  0
 12 11  1  0
 12 21  1  0
 12 13  1  0
 14  8  1  0
 14 13  1  0
 15  8  2  0
 16  4  1  0
 17 16  1  0
 18 19  2  0
 19 38  1  0
 20 19  1  0
 20 23  1  0
 21 22  1  0
 21 18  1  0
 22 20  2  0
 23 24  1  0
 24 25  2  0
 26 29  1  0
 26 25  1  0
 27 26  2  0
 28 27  1  0
 28 23  2  0
 29 30  1  0
 30 31  1  0
 31 32  2  0
 33 32  1  0
 33 37  1  0
 34 33  2  0
 35 30  2  0
 35 34  1  0
 36 35  1  0
 38 39  1  0
 39 42  1  0
 39 41  1  0
 40 38  2  0
 43 44  1  0
 43 18  1  0
 45 43  1  0
 46 48  1  1
 46 47  1  0
 49 46  1  0
 50  5  1  0
 50 52  1  0
 51 50  1  0
 53 55  1  0
 53 52  1  0
 54 53  2  0
 56 55  1  0
 57 68  2  0
 58 56  1  0
 58 63  1  0
 59 67  1  0
 59 69  1  0
 60 66  1  0
 60 62  1  0
 61 67  1  0
 62 61  1  0
 63 62  2  0
 64 65  1  0
 64 58  2  0
 65 60  2  0
 66 59  1  0
 67 57  1  0
 69 71  2  0
 70 69  1  0
 72 70  1  0
 73 82  2  0
 73 78  1  0
 74 70  1  0
 74 78  1  0
 75 74  1  0
 76 77  1  0
 76 75  1  0
 77 73  1  0
 78 79  2  0
 79 80  1  0
 81 80  2  0
 82 81  1  0
 83 57  1  0
 83 84  1  0
 83 93  1  0
 84 87  1  0
 85 89  1  0
 85 84  1  0
 86 85  2  0
 89 88  1  0
 91 89  1  0
 91 92  1  0
 91 90  1  0
 93 96  1  1
 93 94  1  0
 95 93  1  0
M  ISO  4   8 100  16 100  55 101  56 101
M  END
>  <TORSDO>  (46) 
F 21

>  <SCORE>  (46) 
-13.758

>  <name>  (46) 
45

>  <ligand_id>  (46) 
45

>  <original_smiles>  (46) 
[H]c1c([H])c([H])c2c(c1[H])C([H])([H])C([H])([H])C([H])([H])C2([H])N([H])C(=O)C1([H])N(C(=O)C([H])(N([H])C(=O)C([H])(N([H])C([H])([H])[H])C([H])([H])[H])C(C([H])([H])[H])(C([H])([H])[H])C([H])([H])[H])C([H])([H])c2c([H])c(OC([H])([H])C(=O)C([H])([H])N([H])c3c([H])c(N([H])C(=O)N4C([H])([H])C([H])([H])C([H])([H])C([H])(n5nc(-c6c([H])c([H])c(Oc7c([H])c([H])c(F)c([H])c7F)c([H])c6[H])c(C(=O)N([H])[H])c5N([H])[H])C4([H])[H])c([H])c(F)c3C(F)(F)F)c([H])c([H])c2C1([H])[H]

>  <smiles>  (46) 
[H]c1c([H])c([H])c2c(c1[H])C([H])([H])C([H])([H])C([H])([H])C2([H])N([H])C(=O)C1([H])N(C(=O)C([H])(N([H])C(=O)C([H])(N([H])C([H])([H])[H])C([H])([H])[H])C(C([H])([H])[H])(C([H])([H])[H])C([H])([H])[H])C([H])([H])c2c([H])c(OC([H])([H])C(=O)C([H])([H])N([H])c3c([H])c(N([H])C(=O)N4C([H])([H])C([H])([H])C([H])([H])C([H])(n5nc(-c6c([H])c([H])c(Oc7c([H])c([H])c(F)c([H])c7F)c([H])c6[H])c(C(=O)N([H])[H])c5N([H])[H])C4([H])[H])c([H])c(F)c3C(F)(F)F)c([H])c([H])c2C1([H])[H]

$$$$
46:0:0
     RDKit          3D

100108  0  0  1  0  0  0  0  0999 V2000
  -30.1110  -20.7640   20.7040 C   0  0  0  0  0  0  0  0  0  0  0  0
  -29.5880  -21.8520   20.0790 N   0  0  0  0  0  0  0  0  0  0  0  0
  -30.6630  -20.9520   21.9050 N   0  0  0  0  0  4  0  0  0  0  0  0
  -29.0350  -21.6810   19.2450 H   0  0  0  0  0  0  0  0  0  0  0  0
  -30.9850  -20.1440   22.4200 H   0  0  0  0  0  0  0  0  0  0  0  0
  -30.6610  -21.8490   22.3590 H   0  0  0  0  0  0  0  0  0  0  0  0
  -30.6250  -18.1270   18.0320 C   0  0  0  0  0  3  0  0  0  0  0  0
  -30.4910  -19.3630   18.6880 C   0  0  0  0  0  3  0  0  0  0  0  0
  -30.4570  -16.9230   18.7380 C   0  0  0  0  0  3  0  0  0  0  0  0
  -30.1670  -19.4210   20.0620 C   0  0  0  0  0  0  0  0  0  0  0  0
  -30.1690  -16.9330   20.1230 C   0  0  0  0  0  0  0  0  0  0  0  0
  -30.0040  -18.1910   20.7750 C   0  0  0  0  0  0  0  0  0  0  0  0
  -29.7300  -18.2080   22.1030 F   0  0  0  0  0  0  0  0  0  0  0  0
  -30.7880  -14.5920   20.6060 C   0  0  0  0  0  0  0  0  0  0  0  0
  -30.5730  -12.3410   19.6460 C   0  0  0  0  0  2  0  0  0  0  0  0
  -29.6800  -12.4480   18.3910 C   0  0  0  0  0  2  0  0  0  0  0  0
  -28.1930  -12.3130   18.7710 C   0  0  0  0  0  2  0  0  0  0  0  0
  -27.7900  -13.2280   19.9580 C   0  0  0  0  0  3  0  0  0  0  0  0
  -28.8050  -13.1150   21.1180 C   0  0  0  0  0  2  0  0  0  0  0  0
  -30.1460  -13.3930   20.5840 N   0  0  0  0  0  0  0  0  0  0  0  0
  -31.9620  -14.7190   20.2430 O   0  0  0  0  0  0  0  0  0  0  0  0
  -30.0230  -15.6840   20.8300 N   0  0  0  0  0  0  0  0  0  0  0  0
  -29.1530  -15.5470   21.3220 H   0  0  0  0  0  0  0  0  0  0  0  0
  -25.3850  -13.8470   20.6280 C   0  0  0  0  0  0  0  0  0  0  0  0
  -24.3020  -13.0820   20.9680 C   0  0  0  0  0  0  0  0  0  0  0  0
  -24.7500  -11.7260   20.9330 C   0  0  0  0  0  0  0  0  0  0  0  0
  -26.4250  -12.9590   20.4060 N   0  0  0  0  0  0  0  0  0  0  0  0
  -26.0450  -11.6760   20.6470 N   0  0  0  0  0  0  0  0  0  0  0  0
  -24.0050  -10.4680   21.0900 C   0  0  0  0  0  0  0  0  0  0  0  0
  -24.4330   -9.4660   21.9870 C   0  0  0  0  0  3  0  0  0  0  0  0
  -23.6930   -8.2740   22.1360 C   0  0  0  0  0  3  0  0  0  0  0  0
  -22.5090   -8.0750   21.3860 C   0  0  0  0  0  0  0  0  0  0  0  0
  -22.0970   -9.0680   20.4800 C   0  0  0  0  0  3  0  0  0  0  0  0
  -22.8390  -10.2520   20.3290 C   0  0  0  0  0  3  0  0  0  0  0  0
  -21.7390   -6.9380   21.4480 O   0  0  0  0  0  0  0  0  0  0  0  0
  -21.7190   -6.1400   22.5620 C   0  0  0  0  0  0  0  0  0  0  0  0
  -21.3320   -6.6340   23.8280 C   0  0  0  0  0  3  0  0  0  0  0  0
  -21.2610   -5.7640   24.9330 C   0  0  0  0  0  3  0  0  0  0  0  0
  -21.5640   -4.3980   24.7750 C   0  0  0  0  0  0  0  0  0  0  0  0
  -21.9450   -3.9020   23.5150 C   0  0  0  0  0  3  0  0  0  0  0  0
  -22.0180   -4.7700   22.4130 C   0  0  0  0  0  0  0  0  0  0  0  0
  -22.3670   -4.2830   21.1970 F   0  0  0  0  0  0  0  0  0  0  0  0
  -21.4850   -3.5600   25.8350 F   0  0  0  0  0  0  0  0  0  0  0  0
  -22.9040  -13.5710   21.2140 C   0  0  0  0  0  0  0  0  0  0  0  0
  -22.1530  -12.8810   22.0660 N   0  0  0  0  0  0  0  0  0  0  0  0
  -22.4860  -14.6000   20.6870 O   0  0  0  0  0  0  0  0  0  0  0  0
  -22.5030  -12.0520   22.5200 H   0  0  0  0  0  0  0  0  0  0  0  0
  -21.2130  -13.1920   22.2670 H   0  0  0  0  0  0  0  0  0  0  0  0
  -25.5690  -15.2190   20.4700 N   0  0  0  0  0  0  0  0  0  0  0  0
  -24.7990  -15.8740   20.5400 H   0  0  0  0  0  0  0  0  0  0  0  0
  -26.4170  -15.6400   20.1140 H   0  0  0  0  0  0  0  0  0  0  0  0
  -29.6990  -23.3000   20.4600 C   0  0  0  0  0  3  0  0  0  0  0  0
  -28.4550  -24.1190   19.9950 C   0  0  0  0  0  0  0  0  0  0  0  0
  -27.7480  -23.7210   19.0620 O   0  0  0  0  0  0  0  0  0  0  0  0
  -28.0930  -25.4330   20.7380 C   0  0  0  0  0  2  0  0  0  0  0  0
  -28.0350  -26.5820   19.8640 O   0  0  0  0  0  0  0  0  0  0  0  0
  -24.4820  -31.8200   23.2020 C   0  0  0  0  0  0  0  0  0  0  0  0
  -26.8920  -27.3500   19.9620 C   0  0  0  0  0  0  0  0  0  0  0  0
  -23.1770  -30.4800   21.5830 C   0  0  0  0  0  3  0  0  0  0  0  0
  -24.5370  -28.9200   20.0850 C   0  0  0  0  0  0  0  0  0  0  0  0
  -25.7020  -30.7720   21.2960 C   0  0  0  0  0  2  0  0  0  0  0  0
  -25.7300  -29.4070   20.6360 C   0  0  0  0  0  0  0  0  0  0  0  0
  -26.9110  -28.6310   20.5690 C   0  0  0  0  0  3  0  0  0  0  0  0
  -25.6840  -26.8800   19.4090 C   0  0  0  0  0  3  0  0  0  0  0  0
  -24.5080  -27.6560   19.4700 C   0  0  0  0  0  3  0  0  0  0  0  0
  -23.3190  -29.8130   20.1870 C   0  0  0  0  0  2  0  0  0  0  0  0
  -24.4740  -31.0390   22.0840 N   0  0  0  0  0  0  0  0  0  0  0  0
  -23.4280  -32.1110   23.7880 O   0  0  0  0  0  0  0  0  0  0  0  0
  -22.5350  -29.4620   22.5530 C   0  0  0  0  0  0  0  0  0  0  0  0
  -21.2060  -29.2930   22.4530 N   0  0  0  0  0  0  0  0  0  0  0  0
  -23.2300  -28.8240   23.3490 O   0  0  0  0  0  0  0  0  0  0  0  0
  -20.7090  -29.8580   21.7800 H   0  0  0  0  0  0  0  0  0  0  0  0
  -17.8380  -28.0870   22.9680 C   0  0  0  0  0  0  0  0  0  0  0  0
  -20.3950  -28.3570   23.2340 C   0  0  0  0  0  3  0  0  0  0  0  0
  -20.5020  -26.9200   22.6720 C   0  0  0  0  0  2  0  0  0  0  0  0
  -19.4000  -26.5870   21.6610 C   0  0  0  0  0  2  0  0  0  0  0  0
  -18.0180  -26.7330   22.3030 C   0  0  0  0  0  2  0  0  0  0  0  0
  -18.9540  -28.8570   23.3890 C   0  0  0  0  0  0  0  0  0  0  0  0
  -18.7320  -30.1250   23.9670 C   0  0  0  0  0  3  0  0  0  0  0  0
  -17.4240  -30.6220   24.1320 C   0  0  0  0  0  3  0  0  0  0  0  0
  -16.3230  -29.8490   23.7250 C   0  0  0  0  0  3  0  0  0  0  0  0
  -16.5310  -28.5850   23.1480 C   0  0  0  0  0  3  0  0  0  0  0  0
  -25.8060  -32.4030   23.7840 C   0  0  0  0  0  3  0  0  0  0  0  0
  -25.5490  -33.8000   24.1570 N   0  0  0  0  0  0  0  0  0  0  0  0
  -25.8850  -34.8600   23.4080 C   0  0  0  0  0  0  0  0  0  0  0  0
  -26.5150  -34.7610   22.3510 O   0  0  0  0  0  0  0  0  0  0  0  0
  -24.9920  -33.9510   24.9850 H   0  0  0  0  0  0  0  0  0  0  0  0
  -24.1910  -36.6990   23.1550 C   0  0  0  0  0  1  0  0  0  0  0  0
  -25.4510  -36.2500   23.9110 C   0  0  0  0  0  3  0  0  0  0  0  0
  -27.6390  -37.0660   24.6710 C   0  0  0  0  0  1  0  0  0  0  0  0
  -26.5060  -37.2790   23.7750 N   0  0  0  0  0  0  0  0  0  0  0  0
  -26.1300  -38.2070   23.9510 H   0  0  0  0  0  0  0  0  0  0  0  0
  -26.3570  -31.5910   25.0210 C   0  0  1  0  0  0  0  0  0  0  0  0
  -25.3090  -31.3750   26.1370 C   0  0  0  0  0  1  0  0  0  0  0  0
  -26.8690  -30.2010   24.5770 C   0  0  0  0  0  1  0  0  0  0  0  0
  -27.5670  -32.3310   25.6370 C   0  0  0  0  0  1  0  0  0  0  0  0
  -30.9880  -23.9230   19.8390 C   0  0  0  0  0  2  0  0  0  0  0  0
  -31.5450  -25.1430   20.5840 C   0  0  0  0  0  0  0  0  0  0  0  0
  -32.8240  -25.7650   20.0450 C   0  0  0  0  0  1  0  0  0  0  0  0
  -30.9960  -25.6010   21.5870 O   0  0  0  0  0  0  0  0  0  0  0  0
  1  3  2  0
  2 52  1  0
  2  1  1  0
  3  6  1  0
  3  5  1  0
  4  2  1  0
  7  8  2  0
  7  9  1  0
  8 10  1  0
  9 11  2  0
 10  1  1  0
 10 12  2  0
 11 12  1  0
 11 22  1  0
 12 13  1  0
 14 22  1  0
 15 20  1  0
 16 17  1  0
 16 15  1  0
 18 17  1  0
 18 27  1  0
 18 19  1  0
 20 14  1  0
 20 19  1  0
 21 14  2  0
 22 23  1  0
 24 25  2  0
 25 44  1  0
 26 25  1  0
 26 29  1  0
 27 24  1  0
 27 28  1  0
 28 26  2  0
 29 30  1  0
 30 31  2  0
 32 35  1  0
 32 31  1  0
 33 32  2  0
 34 33  1  0
 34 29  2  0
 35 36  1  0
 36 37  1  0
 37 38  2  0
 39 38  1  0
 39 43  1  0
 40 39  2  0
 41 36  2  0
 41 40  1  0
 42 41  1  0
 44 45  1  0
 45 48  1  0
 45 47  1  0
 46 44  2  0
 49 50  1  0
 49 24  1  0
 51 49  1  0
 52 97  1  0
 53 52  1  0
 53 55  1  0
 54 53  2  0
 56 58  1  0
 56 55  1  0
 57 68  2  0
 58 63  1  0
 59 67  1  0
 59 69  1  0
 60 66  1  0
 60 62  1  0
 61 67  1  0
 62 61  1  0
 63 62  2  0
 64 65  1  0
 64 58  2  0
 65 60  2  0
 66 59  1  0
 67 57  1  0
 69 71  2  0
 70 69  1  0
 72 70  1  0
 73 82  2  0
 73 78  1  0
 74 70  1  0
 74 78  1  0
 75 74  1  0
 76 77  1  0
 76 75  1  0
 77 73  1  0
 78 79  2  0
 79 80  1  0
 81 80  2  0
 82 81  1  0
 83 57  1  0
 83 84  1  0
 83 93  1  0
 84 87  1  0
 85 89  1  0
 85 84  1  0
 86 85  2  0
 89 88  1  0
 91 89  1  0
 91 92  1  0
 91 90  1  0
 93 96  1  1
 93 94  1  0
 95 93  1  0
 97 98  1  0
 98100  2  0
 99 98  1  0
M  ISO  4  14 100  22 100  55 101  56 101
M  END
>  <TORSDO>  (47) 
F 22

>  <SCORE>  (47) 
-12.920

>  <name>  (47) 
46

>  <ligand_id>  (47) 
46

>  <original_smiles>  (47) 
[H]c1c([H])c(C(N([H])C([H])(C(=O)C([H])([H])Oc2c([H])c([H])c3c(c2[H])C([H])([H])N(C(=O)C([H])(N([H])C(=O)C([H])(N([H])C([H])([H])[H])C([H])([H])[H])C(C([H])([H])[H])(C([H])([H])[H])C([H])([H])[H])C([H])(C(=O)N([H])C2([H])c4c([H])c([H])c([H])c([H])c4C([H])([H])C([H])([H])C2([H])[H])C3([H])[H])C([H])([H])C(=O)C([H])([H])[H])=[N+]([H])[H])c(F)c(N([H])C(=O)N2C([H])([H])C([H])([H])C([H])([H])C([H])(n3nc(-c4c([H])c([H])c(Oc5c([H])c([H])c(F)c([H])c5F)c([H])c4[H])c(C(=O)N([H])[H])c3N([H])[H])C2([H])[H])c1[H]

>  <smiles>  (47) 
[H]c1c([H])c(C(N([H])C([H])(C(=O)C([H])([H])Oc2c([H])c([H])c3c(c2[H])C([H])([H])N(C(=O)C([H])(N([H])C(=O)C([H])(N([H])C([H])([H])[H])C([H])([H])[H])C(C([H])([H])[H])(C([H])([H])[H])C([H])([H])[H])C([H])(C(=O)N([H])C2([H])c4c([H])c([H])c([H])c([H])c4C([H])([H])C([H])([H])C2([H])[H])C3([H])[H])C([H])([H])C(=O)C([H])([H])[H])=[N+]([H])[H])c(F)c(N([H])C(=O)N2C([H])([H])C([H])([H])C([H])([H])C([H])(n3nc(-c4c([H])c([H])c(Oc5c([H])c([H])c(F)c([H])c5F)c([H])c4[H])c(C(=O)N([H])[H])c3N([H])[H])C2([H])[H])c1[H]

$$$$
47:0:0
     RDKit          3D

 92100  0  0  1  0  0  0  0  0999 V2000
  -28.9120  -18.0720   20.6670 C   0  0  0  0  0  3  0  0  0  0  0  0
  -30.8690  -19.5000   20.5830 C   0  0  0  0  0  3  0  0  0  0  0  0
  -28.1360  -19.2310   20.5580 C   0  0  0  0  0  3  0  0  0  0  0  0
  -30.3100  -18.1910   20.6470 C   0  0  0  0  0  0  0  0  0  0  0  0
  -30.0130  -20.6240   20.4940 C   0  0  0  0  0  0  0  0  0  0  0  0
  -28.6720  -20.4650   20.4520 N   0  0  0  0  0  0  0  0  0  0  0  0
  -30.4850  -21.9580   20.4480 N   0  0  0  0  0  0  0  0  0  0  0  0
  -31.4720  -22.2010   20.5640 H   0  0  0  0  0  0  0  0  0  0  0  0
  -31.1870  -16.9390   20.6520 C   0  0  0  0  0  2  0  0  0  0  0  0
  -31.0030  -14.5450   20.0660 C   0  0  0  0  0  0  0  0  0  0  0  0
  -30.5160  -12.4220   18.9170 C   0  0  0  0  0  2  0  0  0  0  0  0
  -29.5450  -12.6720   17.7480 C   0  0  0  0  0  2  0  0  0  0  0  0
  -28.0940  -12.5390   18.2380 C   0  0  0  0  0  2  0  0  0  0  0  0
  -27.8150  -13.3760   19.5160 C   0  0  0  0  0  3  0  0  0  0  0  0
  -28.9210  -13.1760   20.5810 C   0  0  0  0  0  2  0  0  0  0  0  0
  -30.2290  -13.4280   19.9540 N   0  0  0  0  0  0  0  0  0  0  0  0
  -32.1090  -14.6290   19.5330 O   0  0  0  0  0  0  0  0  0  0  0  0
  -30.4820  -15.6320   20.6520 N   0  0  0  0  0  0  0  0  0  0  0  0
  -29.5470  -15.5980   21.0220 H   0  0  0  0  0  0  0  0  0  0  0  0
  -25.4570  -13.9870   20.3450 C   0  0  0  0  0  0  0  0  0  0  0  0
  -24.3970  -13.2190   20.7420 C   0  0  0  0  0  0  0  0  0  0  0  0
  -24.8420  -11.8620   20.6700 C   0  0  0  0  0  0  0  0  0  0  0  0
  -26.4840  -13.1010   20.0570 N   0  0  0  0  0  0  0  0  0  0  0  0
  -26.1180  -11.8190   20.3120 N   0  0  0  0  0  0  0  0  0  0  0  0
  -24.1090  -10.6040   20.8730 C   0  0  0  0  0  0  0  0  0  0  0  0
  -24.5320   -9.6510   21.8250 C   0  0  0  0  0  3  0  0  0  0  0  0
  -23.8030   -8.4570   22.0180 C   0  0  0  0  0  3  0  0  0  0  0  0
  -22.6370   -8.2080   21.2560 C   0  0  0  0  0  0  0  0  0  0  0  0
  -22.2370   -9.1480   20.2900 C   0  0  0  0  0  3  0  0  0  0  0  0
  -22.9660  -10.3330   20.0960 C   0  0  0  0  0  3  0  0  0  0  0  0
  -21.8830   -7.0650   21.3500 O   0  0  0  0  0  0  0  0  0  0  0  0
  -21.7670   -6.3730   22.5300 C   0  0  0  0  0  0  0  0  0  0  0  0
  -21.1900   -6.9530   23.6800 C   0  0  0  0  0  3  0  0  0  0  0  0
  -21.0300   -6.1860   24.8500 C   0  0  0  0  0  3  0  0  0  0  0  0
  -21.4370   -4.8380   24.8700 C   0  0  0  0  0  0  0  0  0  0  0  0
  -22.0060   -4.2580   23.7230 C   0  0  0  0  0  3  0  0  0  0  0  0
  -22.1680   -5.0220   22.5550 C   0  0  0  0  0  0  0  0  0  0  0  0
  -22.6990   -4.4530   21.4460 F   0  0  0  0  0  0  0  0  0  0  0  0
  -21.2760   -4.0970   25.9900 F   0  0  0  0  0  0  0  0  0  0  0  0
  -23.0150  -13.7020   21.0690 C   0  0  0  0  0  0  0  0  0  0  0  0
  -22.3100  -13.0050   21.9530 N   0  0  0  0  0  0  0  0  0  0  0  0
  -22.5660  -14.7370   20.5750 O   0  0  0  0  0  0  0  0  0  0  0  0
  -22.6870  -12.1700   22.3770 H   0  0  0  0  0  0  0  0  0  0  0  0
  -21.3820  -13.3160   22.2020 H   0  0  0  0  0  0  0  0  0  0  0  0
  -25.6260  -15.3590   20.1790 N   0  0  0  0  0  0  0  0  0  0  0  0
  -24.8700  -16.0200   20.3320 H   0  0  0  0  0  0  0  0  0  0  0  0
  -26.4720  -15.8010   19.8460 H   0  0  0  0  0  0  0  0  0  0  0  0
  -29.5160  -22.9930   20.0090 C   0  0  0  0  0  2  0  0  0  0  0  0
  -29.7740  -24.4810   20.3270 C   0  0  0  0  0  0  0  0  0  0  0  0
  -30.8910  -24.9160   20.6280 O   0  0  0  0  0  0  0  0  0  0  0  0
  -28.4980  -25.3530   20.2560 C   0  0  0  0  0  2  0  0  0  0  0  0
  -28.7130  -26.7640   20.0460 O   0  0  0  0  0  0  0  0  0  0  0  0
  -24.5880  -31.6720   23.1370 C   0  0  0  0  0  0  0  0  0  0  0  0
  -27.5270  -27.4770   19.9820 C   0  0  0  0  0  0  0  0  0  0  0  0
  -23.4980  -30.3010   21.3890 C   0  0  0  0  0  3  0  0  0  0  0  0
  -25.0670  -28.8920   19.9540 C   0  0  0  0  0  0  0  0  0  0  0  0
  -26.0130  -30.7700   21.3020 C   0  0  0  0  0  2  0  0  0  0  0  0
  -26.1820  -29.4360   20.6060 C   0  0  0  0  0  0  0  0  0  0  0  0
  -27.4150  -28.7390   20.6130 C   0  0  0  0  0  3  0  0  0  0  0  0
  -26.3940  -26.9620   19.3080 C   0  0  0  0  0  3  0  0  0  0  0  0
  -25.1710  -27.6570   19.2960 C   0  0  0  0  0  3  0  0  0  0  0  0
  -23.7870  -29.6980   19.9880 C   0  0  0  0  0  2  0  0  0  0  0  0
  -24.7150  -30.9250   22.0030 N   0  0  0  0  0  0  0  0  0  0  0  0
  -23.4760  -31.8770   23.6470 O   0  0  0  0  0  0  0  0  0  0  0  0
  -22.8540  -29.2130   22.2760 C   0  0  0  0  0  0  0  0  0  0  0  0
  -21.5320  -29.0290   22.1350 N   0  0  0  0  0  0  0  0  0  0  0  0
  -23.5400  -28.5390   23.0510 O   0  0  0  0  0  0  0  0  0  0  0  0
  -21.0430  -29.6210   21.4790 H   0  0  0  0  0  0  0  0  0  0  0  0
  -18.1510  -27.8390   22.6110 C   0  0  0  0  0  0  0  0  0  0  0  0
  -20.7180  -28.0390   22.8420 C   0  0  0  0  0  3  0  0  0  0  0  0
  -20.7820  -26.6590   22.1430 C   0  0  0  0  0  2  0  0  0  0  0  0
  -19.6580  -26.4500   21.1220 C   0  0  0  0  0  2  0  0  0  0  0  0
  -18.2940  -26.5540   21.8080 C   0  0  0  0  0  2  0  0  0  0  0  0
  -19.2920  -28.5470   23.0820 C   0  0  0  0  0  0  0  0  0  0  0  0
  -19.1020  -29.7550   23.7870 C   0  0  0  0  0  3  0  0  0  0  0  0
  -17.8090  -30.2510   24.0350 C   0  0  0  0  0  3  0  0  0  0  0  0
  -16.6860  -29.5400   23.5780 C   0  0  0  0  0  3  0  0  0  0  0  0
  -16.8580  -28.3370   22.8690 C   0  0  0  0  0  3  0  0  0  0  0  0
  -25.8240  -32.3200   23.8320 C   0  0  0  0  0  3  0  0  0  0  0  0
  -26.2920  -31.5430   25.1240 C   0  0  1  0  0  0  0  0  0  0  0  0
  -25.1560  -31.2770   26.1370 C   0  0  0  0  0  1  0  0  0  0  0  0
  -26.9130  -30.1780   24.7460 C   0  0  0  0  0  1  0  0  0  0  0  0
  -27.3960  -32.3490   25.8510 C   0  0  0  0  0  1  0  0  0  0  0  0
  -25.4690  -33.7080   24.1610 N   0  0  0  0  0  0  0  0  0  0  0  0
  -25.7980  -34.7730   23.4210 C   0  0  0  0  0  0  0  0  0  0  0  0
  -26.5050  -34.6970   22.4130 O   0  0  0  0  0  0  0  0  0  0  0  0
  -24.8440  -33.8370   24.9410 H   0  0  0  0  0  0  0  0  0  0  0  0
  -24.0340  -36.5240   23.0220 C   0  0  0  0  0  1  0  0  0  0  0  0
  -25.2570  -36.1440   23.8710 C   0  0  0  0  0  3  0  0  0  0  0  0
  -27.3220  -37.0970   24.8000 C   0  0  0  0  0  1  0  0  0  0  0  0
  -26.2650  -37.2250   23.8010 N   0  0  0  0  0  0  0  0  0  0  0  0
  -25.8250  -38.1350   23.9220 H   0  0  0  0  0  0  0  0  0  0  0  0
  2  4  2  0
  3  1  2  0
  4  9  1  0
  4  1  1  0
  5  2  1  0
  6  5  2  0
  6  3  1  0
  7  5  1  0
  7  8  1  0
  9 18  1  0
 10 18  1  0
 11 16  1  0
 12 13  1  0
 12 11  1  0
 14 13  1  0
 14 23  1  0
 14 15  1  0
 16 10  1  0
 16 15  1  0
 17 10  2  0
 18 19  1  0
 20 21  2  0
 21 40  1  0
 22 21  1  0
 22 25  1  0
 23 24  1  0
 23 20  1  0
 24 22  2  0
 25 26  1  0
 26 27  2  0
 28 31  1  0
 28 27  1  0
 29 28  2  0
 30 29  1  0
 30 25  2  0
 31 32  1  0
 32 37  2  0
 32 33  1  0
 33 34  2  0
 34 35  1  0
 35 39  1  0
 36 35  2  0
 37 36  1  0
 38 37  1  0
 40 41  1  0
 41 44  1  0
 41 43  1  0
 42 40  2  0
 45 46  1  0
 45 20  1  0
 47 45  1  0
 48 49  1  0
 48  7  1  0
 49 50  2  0
 51 49  1  0
 52 51  1  0
 53 64  2  0
 54 52  1  0
 54 59  1  0
 55 63  1  0
 55 65  1  0
 56 62  1  0
 56 58  1  0
 57 63  1  0
 58 59  2  0
 58 57  1  0
 60 54  2  0
 61 60  1  0
 61 56  2  0
 62 55  1  0
 63 53  1  0
 65 67  2  0
 66 65  1  0
 68 66  1  0
 69 78  2  0
 69 74  1  0
 70 66  1  0
 70 74  1  0
 71 70  1  0
 72 73  1  0
 72 71  1  0
 73 69  1  0
 74 75  2  0
 75 76  1  0
 77 76  2  0
 78 77  1  0
 79 53  1  0
 79 84  1  0
 79 80  1  0
 80 83  1  1
 80 81  1  0
 82 80  1  0
 84 87  1  0
 85 89  1  0
 85 84  1  0
 86 85  2  0
 89 88  1  0
 91 89  1  0
 91 92  1  0
 91 90  1  0
M  ISO  4  10 100  18 100  51 101  52 101
M  END
>  <TORSDO>  (48) 
F 20

>  <SCORE>  (48) 
-13.445

>  <name>  (48) 
47

>  <ligand_id>  (48) 
47

>  <original_smiles>  (48) 
[H]c1nc(N([H])C([H])([H])C(=O)C([H])([H])Oc2c([H])c([H])c3c(c2[H])C([H])([H])N(C(=O)C([H])(N([H])C(=O)C([H])(N([H])C([H])([H])[H])C([H])([H])[H])C(C([H])([H])[H])(C([H])([H])[H])C([H])([H])[H])C([H])(C(=O)N([H])C2([H])c4c([H])c([H])c([H])c([H])c4C([H])([H])C([H])([H])C2([H])[H])C3([H])[H])c([H])c(C([H])([H])N([H])C(=O)N2C([H])([H])C([H])([H])C([H])([H])C([H])(n3nc(-c4c([H])c([H])c(Oc5c([H])c([H])c(F)c([H])c5F)c([H])c4[H])c(C(=O)N([H])[H])c3N([H])[H])C2([H])[H])c1[H]

>  <smiles>  (48) 
[H]c1nc(N([H])C([H])([H])C(=O)C([H])([H])Oc2c([H])c([H])c3c(c2[H])C([H])([H])N(C(=O)C([H])(N([H])C(=O)C([H])(N([H])C([H])([H])[H])C([H])([H])[H])C(C([H])([H])[H])(C([H])([H])[H])C([H])([H])[H])C([H])(C(=O)N([H])C2([H])c4c([H])c([H])c([H])c([H])c4C([H])([H])C([H])([H])C2([H])[H])C3([H])[H])c([H])c(C([H])([H])N([H])C(=O)N2C([H])([H])C([H])([H])C([H])([H])C([H])(n3nc(-c4c([H])c([H])c(Oc5c([H])c([H])c(F)c([H])c5F)c([H])c4[H])c(C(=O)N([H])[H])c3N([H])[H])C2([H])[H])c1[H]

$$$$
48:0:0
     RDKit          3D

 94103  0  0  1  0  0  0  0  0999 V2000
  -27.6920  -23.0280   19.7310 C   0  0  0  0  0  3  0  0  0  0  0  0
  -29.1980  -21.4000   20.4300 C   0  0  0  0  0  3  0  0  0  0  0  0
  -28.6400  -24.1420   20.2190 C   0  0  0  0  0  3  0  0  0  0  0  0
  -27.9270  -21.7710   19.8230 N   0  0  0  0  0  0  0  0  0  0  0  0
  -30.0100  -23.6420   20.5030 N   0  0  0  0  0  0  0  0  0  0  0  0
  -30.2140  -22.2860   19.9290 O   0  0  0  0  0  0  0  0  0  0  0  0
  -30.0640  -23.5120   21.5080 H   0  0  0  0  0  0  0  0  0  0  0  0
  -28.6400  -19.0210   21.1120 C   0  0  0  0  0  3  0  0  0  0  0  0
  -28.8260  -17.6200   21.1550 C   0  0  0  0  0  3  0  0  0  0  0  0
  -30.6980  -17.8220   19.6420 C   0  0  0  0  0  3  0  0  0  0  0  0
  -29.4720  -19.8670   20.3440 C   0  0  0  0  0  0  0  0  0  0  0  0
  -29.8550  -16.9840   20.4240 C   0  0  0  0  0  0  0  0  0  0  0  0
  -30.5120  -19.2380   19.6000 C   0  0  0  0  0  0  0  0  0  0  0  0
  -31.3540  -19.9770   18.8380 F   0  0  0  0  0  0  0  0  0  0  0  0
  -30.6760  -14.5870   19.9170 C   0  0  0  0  0  0  0  0  0  0  0  0
  -30.3940  -12.4060   18.7710 C   0  0  0  0  0  2  0  0  0  0  0  0
  -29.3500  -12.5910   17.6480 C   0  0  0  0  0  2  0  0  0  0  0  0
  -27.9090  -12.4350   18.1840 C   0  0  0  0  0  2  0  0  0  0  0  0
  -27.6620  -13.2510   19.4800 C   0  0  0  0  0  3  0  0  0  0  0  0
  -28.8000  -13.0050   20.4980 C   0  0  0  0  0  2  0  0  0  0  0  0
  -30.0730  -13.3620   19.8440 N   0  0  0  0  0  0  0  0  0  0  0  0
  -31.7690  -14.8170   19.3890 O   0  0  0  0  0  0  0  0  0  0  0  0
  -29.9190  -15.5410   20.5210 N   0  0  0  0  0  0  0  0  0  0  0  0
  -29.1340  -15.1350   21.0080 H   0  0  0  0  0  0  0  0  0  0  0  0
  -25.3340  -13.8540   20.3980 C   0  0  0  0  0  0  0  0  0  0  0  0
  -24.2940  -13.0800   20.8330 C   0  0  0  0  0  0  0  0  0  0  0  0
  -24.7390  -11.7260   20.7290 C   0  0  0  0  0  0  0  0  0  0  0  0
  -26.3490  -12.9730   20.0570 N   0  0  0  0  0  0  0  0  0  0  0  0
  -25.9990  -11.6870   20.3160 N   0  0  0  0  0  0  0  0  0  0  0  0
  -24.0210  -10.4640   20.9460 C   0  0  0  0  0  0  0  0  0  0  0  0
  -24.4890   -9.4950   21.8620 C   0  0  0  0  0  3  0  0  0  0  0  0
  -23.7720   -8.2960   22.0620 C   0  0  0  0  0  3  0  0  0  0  0  0
  -22.5740   -8.0580   21.3500 C   0  0  0  0  0  0  0  0  0  0  0  0
  -22.1240   -9.0150   20.4240 C   0  0  0  0  0  3  0  0  0  0  0  0
  -22.8400  -10.2070   20.2210 C   0  0  0  0  0  3  0  0  0  0  0  0
  -21.8250   -6.9110   21.4640 O   0  0  0  0  0  0  0  0  0  0  0  0
  -21.7750   -6.1980   22.6330 C   0  0  0  0  0  0  0  0  0  0  0  0
  -21.3450   -6.7830   23.8450 C   0  0  0  0  0  3  0  0  0  0  0  0
  -21.2420   -5.9950   25.0100 C   0  0  0  0  0  3  0  0  0  0  0  0
  -21.5580   -4.6250   24.9630 C   0  0  0  0  0  0  0  0  0  0  0  0
  -21.9800   -4.0390   23.7580 C   0  0  0  0  0  3  0  0  0  0  0  0
  -22.0860   -4.8230   22.5950 C   0  0  0  0  0  0  0  0  0  0  0  0
  -22.4730   -4.2510   21.4300 F   0  0  0  0  0  0  0  0  0  0  0  0
  -21.4520   -3.8650   26.0790 F   0  0  0  0  0  0  0  0  0  0  0  0
  -22.9260  -13.5560   21.2290 C   0  0  0  0  0  0  0  0  0  0  0  0
  -22.2670  -12.8490   22.1390 N   0  0  0  0  0  0  0  0  0  0  0  0
  -22.4510  -14.5940   20.7640 O   0  0  0  0  0  0  0  0  0  0  0  0
  -22.6620  -12.0110   22.5390 H   0  0  0  0  0  0  0  0  0  0  0  0
  -21.3540  -13.1540   22.4440 H   0  0  0  0  0  0  0  0  0  0  0  0
  -25.4950  -15.2290   20.2420 N   0  0  0  0  0  0  0  0  0  0  0  0
  -24.7380  -15.8810   20.4220 H   0  0  0  0  0  0  0  0  0  0  0  0
  -26.2990  -15.6690   19.8130 H   0  0  0  0  0  0  0  0  0  0  0  0
  -28.6610  -25.4340   19.3190 C   0  0  0  0  0  2  0  0  0  0  0  0
  -28.4610  -26.7000   20.0110 O   0  0  0  0  0  0  0  0  0  0  0  0
  -24.5500  -31.8150   23.1190 C   0  0  0  0  0  0  0  0  0  0  0  0
  -27.2520  -27.3890   19.9990 C   0  0  0  0  0  0  0  0  0  0  0  0
  -23.3570  -30.4080   21.4700 C   0  0  0  0  0  3  0  0  0  0  0  0
  -24.8260  -28.8840   20.0390 C   0  0  0  0  0  0  0  0  0  0  0  0
  -25.8800  -30.7860   21.2700 C   0  0  0  0  0  2  0  0  0  0  0  0
  -25.9810  -29.4150   20.6250 C   0  0  0  0  0  0  0  0  0  0  0  0
  -27.1890  -28.6720   20.6030 C   0  0  0  0  0  3  0  0  0  0  0  0
  -26.0680  -26.8760   19.4200 C   0  0  0  0  0  3  0  0  0  0  0  0
  -24.8660  -27.6160   19.4360 C   0  0  0  0  0  3  0  0  0  0  0  0
  -23.5770  -29.7380   20.0860 C   0  0  0  0  0  2  0  0  0  0  0  0
  -24.6140  -31.0210   22.0110 N   0  0  0  0  0  0  0  0  0  0  0  0
  -23.4670  -32.0710   23.6630 O   0  0  0  0  0  0  0  0  0  0  0  0
  -22.7160  -29.3770   22.4280 C   0  0  0  0  0  0  0  0  0  0  0  0
  -21.3920  -29.1800   22.3030 N   0  0  0  0  0  0  0  0  0  0  0  0
  -23.4060  -28.7580   23.2430 O   0  0  0  0  0  0  0  0  0  0  0  0
  -20.8940  -29.7330   21.6220 H   0  0  0  0  0  0  0  0  0  0  0  0
  -18.0390  -27.9180   22.7820 C   0  0  0  0  0  0  0  0  0  0  0  0
  -20.5890  -28.2270   23.0700 C   0  0  0  0  0  3  0  0  0  0  0  0
  -20.7240  -26.7970   22.4980 C   0  0  0  0  0  2  0  0  0  0  0  0
  -19.6360  -26.4500   21.4770 C   0  0  0  0  0  2  0  0  0  0  0  0
  -18.2470  -26.5700   22.1100 C   0  0  0  0  0  2  0  0  0  0  0  0
  -19.1380  -28.7030   23.2170 C   0  0  0  0  0  0  0  0  0  0  0  0
  -18.8910  -29.9630   23.8040 C   0  0  0  0  0  3  0  0  0  0  0  0
  -17.5760  -30.4390   23.9580 C   0  0  0  0  0  3  0  0  0  0  0  0
  -16.4890  -29.6520   23.5340 C   0  0  0  0  0  3  0  0  0  0  0  0
  -16.7220  -28.3940   22.9530 C   0  0  0  0  0  3  0  0  0  0  0  0
  -25.8310  -32.4580   23.7400 C   0  0  0  0  0  3  0  0  0  0  0  0
  -25.5030  -33.8450   24.0960 N   0  0  0  0  0  0  0  0  0  0  0  0
  -25.8020  -34.9150   23.3460 C   0  0  0  0  0  0  0  0  0  0  0  0
  -26.4550  -34.8370   22.3020 O   0  0  0  0  0  0  0  0  0  0  0  0
  -24.9290  -33.9800   24.9160 H   0  0  0  0  0  0  0  0  0  0  0  0
  -24.0330  -36.6780   23.0430 C   0  0  0  0  0  1  0  0  0  0  0  0
  -25.2950  -36.2880   23.8300 C   0  0  0  0  0  3  0  0  0  0  0  0
  -27.4250  -37.2040   24.6340 C   0  0  0  0  0  1  0  0  0  0  0  0
  -26.3040  -37.3630   23.7120 N   0  0  0  0  0  0  0  0  0  0  0  0
  -25.8830  -38.2740   23.8770 H   0  0  0  0  0  0  0  0  0  0  0  0
  -26.3720  -31.6730   24.9960 C   0  0  1  0  0  0  0  0  0  0  0  0
  -25.2950  -31.3950   26.0710 C   0  0  0  0  0  1  0  0  0  0  0  0
  -26.9720  -30.3120   24.5720 C   0  0  0  0  0  1  0  0  0  0  0  0
  -27.5170  -32.4700   25.6620 C   0  0  0  0  0  1  0  0  0  0  0  0
  1  4  2  0
  1  3  1  0
  2 11  1  0
  3 53  1  0
  3  5  1  0
  4  2  1  0
  5  7  1  0
  6  2  1  0
  6  5  1  0
  8  9  1  0
 10 12  1  0
 11  8  2  0
 12 23  1  0
 12  9  2  0
 13 10  2  0
 13 11  1  0
 14 13  1  0
 15 23  1  0
 16 21  1  0
 17 18  1  0
 17 16  1  0
 19 18  1  0
 19 28  1  0
 19 20  1  0
 21 15  1  0
 21 20  1  0
 22 15  2  0
 23 24  1  0
 25 26  2  0
 26 45  1  0
 27 26  1  0
 27 30  1  0
 28 29  1  0
 28 25  1  0
 29 27  2  0
 30 31  1  0
 31 32  2  0
 33 36  1  0
 33 32  1  0
 34 33  2  0
 35 34  1  0
 35 30  2  0
 36 37  1  0
 37 38  1  0
 38 39  2  0
 40 39  1  0
 40 44  1  0
 41 40  2  0
 42 37  2  0
 42 41  1  0
 43 42  1  0
 45 46  1  0
 46 49  1  0
 46 48  1  0
 47 45  2  0
 50 25  1  0
 50 51  1  0
 52 50  1  0
 53 54  1  0
 55 66  2  0
 56 54  1  0
 56 61  1  0
 57 65  1  0
 57 67  1  0
 58 64  1  0
 58 60  1  0
 59 65  1  0
 60 59  1  0
 61 60  2  0
 62 63  1  0
 62 56  2  0
 63 58  2  0
 64 57  1  0
 65 55  1  0
 67 69  2  0
 68 67  1  0
 70 68  1  0
 71 80  2  0
 71 76  1  0
 72 68  1  0
 72 76  1  0
 73 72  1  0
 74 75  1  0
 74 73  1  0
 75 71  1  0
 76 77  2  0
 77 78  1  0
 79 78  2  0
 80 79  1  0
 81 55  1  0
 81 82  1  0
 81 91  1  0
 82 85  1  0
 83 87  1  0
 83 82  1  0
 84 83  2  0
 87 86  1  0
 89 87  1  0
 89 90  1  0
 89 88  1  0
 91 94  1  1
 91 92  1  0
 93 91  1  0
M  ISO  4  15 100  23 100  53 101  54 101
M  END
>  <TORSDO>  (49) 
F 18

>  <SCORE>  (49) 
-13.657

>  <name>  (49) 
48

>  <ligand_id>  (49) 
48

>  <original_smiles>  (49) 
[H]C1=NC([H])(c2c([H])c([H])c(N([H])C(=O)N3C([H])([H])C([H])([H])C([H])([H])C([H])(n4nc(-c5c([H])c([H])c(Oc6c([H])c([H])c(F)c([H])c6F)c([H])c5[H])c(C(=O)N([H])[H])c4N([H])[H])C3([H])[H])c([H])c2F)ON([H])C1([H])C([H])([H])Oc1c([H])c([H])c2c(c1[H])C([H])([H])N(C(=O)C([H])(N([H])C(=O)C([H])(N([H])C([H])([H])[H])C([H])([H])[H])C(C([H])([H])[H])(C([H])([H])[H])C([H])([H])[H])C([H])(C(=O)N([H])C1([H])c3c([H])c([H])c([H])c([H])c3C([H])([H])C([H])([H])C1([H])[H])C2([H])[H]

>  <smiles>  (49) 
[H]C1=NC([H])(c2c([H])c([H])c(N([H])C(=O)N3C([H])([H])C([H])([H])C([H])([H])C([H])(n4nc(-c5c([H])c([H])c(Oc6c([H])c([H])c(F)c([H])c6F)c([H])c5[H])c(C(=O)N([H])[H])c4N([H])[H])C3([H])[H])c([H])c2F)ON([H])C1([H])C([H])([H])Oc1c([H])c([H])c2c(c1[H])C([H])([H])N(C(=O)C([H])(N([H])C(=O)C([H])(N([H])C([H])([H])[H])C([H])([H])[H])C(C([H])([H])[H])(C([H])([H])[H])C([H])([H])[H])C([H])(C(=O)N([H])C1([H])c3c([H])c([H])c([H])c([H])c3C([H])([H])C([H])([H])C1([H])[H])C2([H])[H]

$$$$
49:0:0
     RDKit          3D

 95103  0  0  1  0  0  0  0  0999 V2000
  -30.3740  -22.8190   20.6230 C   0  0  0  0  0  0  0  0  0  0  0  0
  -29.8920  -21.6520   21.0670 N   0  0  0  0  0  0  0  0  0  0  0  0
  -31.5710  -23.0160   20.4090 O   0  0  0  0  0  0  0  0  0  0  0  0
  -28.8890  -21.5810   21.1680 H   0  0  0  0  0  0  0  0  0  0  0  0
  -30.5370  -20.2490   22.9220 C   0  0  0  0  0  1  0  0  0  0  0  0
  -30.6440  -20.4370   21.3980 C   0  0  0  0  0  3  0  0  0  0  0  0
  -29.0410  -18.2250   18.6930 C   0  0  0  0  0  3  0  0  0  0  0  0
  -29.4770  -19.3640   19.3820 C   0  0  0  0  0  3  0  0  0  0  0  0
  -29.2840  -16.9650   19.2610 C   0  0  0  0  0  3  0  0  0  0  0  0
  -30.1400  -19.2090   20.6160 C   0  0  0  0  0  0  0  0  0  0  0  0
  -29.9780  -16.8640   20.4870 C   0  0  0  0  0  0  0  0  0  0  0  0
  -30.3930  -17.9800   21.1410 N   0  0  0  0  0  0  0  0  0  0  0  0
  -30.8260  -14.5730   20.5010 C   0  0  0  0  0  0  0  0  0  0  0  0
  -30.5740  -12.3930   19.3830 C   0  0  0  0  0  2  0  0  0  0  0  0
  -29.6510  -12.5830   18.1610 C   0  0  0  0  0  2  0  0  0  0  0  0
  -28.1700  -12.4340   18.5640 C   0  0  0  0  0  2  0  0  0  0  0  0
  -27.8010  -13.2820   19.8120 C   0  0  0  0  0  3  0  0  0  0  0  0
  -28.8380  -13.0780   20.9410 C   0  0  0  0  0  2  0  0  0  0  0  0
  -30.1780  -13.3790   20.4020 N   0  0  0  0  0  0  0  0  0  0  0  0
  -31.9490  -14.7670   20.0230 O   0  0  0  0  0  0  0  0  0  0  0  0
  -30.1190  -15.5710   21.0580 N   0  0  0  0  0  0  0  0  0  0  0  0
  -29.3260  -15.2650   21.5970 H   0  0  0  0  0  0  0  0  0  0  0  0
  -25.3850  -13.8770   20.4760 C   0  0  0  0  0  0  0  0  0  0  0  0
  -24.3140  -13.1000   20.8310 C   0  0  0  0  0  0  0  0  0  0  0  0
  -24.7850  -11.7510   20.8110 C   0  0  0  0  0  0  0  0  0  0  0  0
  -26.4410  -13.0030   20.2680 N   0  0  0  0  0  0  0  0  0  0  0  0
  -26.0810  -11.7180   20.5250 N   0  0  0  0  0  0  0  0  0  0  0  0
  -24.0640  -10.4840   20.9920 C   0  0  0  0  0  0  0  0  0  0  0  0
  -24.4570   -9.5460   21.9720 C   0  0  0  0  0  3  0  0  0  0  0  0
  -23.7360   -8.3450   22.1420 C   0  0  0  0  0  3  0  0  0  0  0  0
  -22.6080   -8.0720   21.3300 C   0  0  0  0  0  0  0  0  0  0  0  0
  -22.2370   -9.0000   20.3430 C   0  0  0  0  0  3  0  0  0  0  0  0
  -22.9570  -10.1930   20.1710 C   0  0  0  0  0  3  0  0  0  0  0  0
  -21.8650   -6.9200   21.4070 O   0  0  0  0  0  0  0  0  0  0  0  0
  -21.7250   -6.2290   22.5840 C   0  0  0  0  0  0  0  0  0  0  0  0
  -21.1270   -6.8100   23.7240 C   0  0  0  0  0  3  0  0  0  0  0  0
  -20.9390   -6.0420   24.8900 C   0  0  0  0  0  3  0  0  0  0  0  0
  -21.3410   -4.6940   24.9180 C   0  0  0  0  0  0  0  0  0  0  0  0
  -21.9320   -4.1120   23.7830 C   0  0  0  0  0  3  0  0  0  0  0  0
  -22.1200   -4.8770   22.6190 C   0  0  0  0  0  0  0  0  0  0  0  0
  -22.6700   -4.3060   21.5210 F   0  0  0  0  0  0  0  0  0  0  0  0
  -21.1570   -3.9530   26.0350 F   0  0  0  0  0  0  0  0  0  0  0  0
  -22.9090  -13.5690   21.0760 C   0  0  0  0  0  0  0  0  0  0  0  0
  -22.1670  -12.8650   21.9240 N   0  0  0  0  0  0  0  0  0  0  0  0
  -22.4780  -14.5960   20.5520 O   0  0  0  0  0  0  0  0  0  0  0  0
  -22.5270  -12.0350   22.3700 H   0  0  0  0  0  0  0  0  0  0  0  0
  -21.2220  -13.1600   22.1280 H   0  0  0  0  0  0  0  0  0  0  0  0
  -25.5450  -15.2480   20.2940 N   0  0  0  0  0  0  0  0  0  0  0  0
  -24.7710  -15.8980   20.3850 H   0  0  0  0  0  0  0  0  0  0  0  0
  -26.4000  -15.6950   19.9890 H   0  0  0  0  0  0  0  0  0  0  0  0
  -29.3380  -23.9300   20.4010 C   0  0  0  0  0  2  0  0  0  0  0  0
  -29.8260  -25.0990   19.5190 C   0  0  0  0  0  2  0  0  0  0  0  0
  -29.1400  -27.0120   17.9930 C   0  0  0  0  0  1  0  0  0  0  0  0
  -28.6830  -26.0480   19.0980 C   0  0  0  0  0  3  0  0  0  0  0  0
  -28.2910  -26.8250   20.2350 O   0  0  0  0  0  0  0  0  0  0  0  0
  -24.5250  -31.9790   23.3510 C   0  0  0  0  0  0  0  0  0  0  0  0
  -27.1020  -27.5260   20.2180 C   0  0  0  0  0  0  0  0  0  0  0  0
  -23.2820  -30.5840   21.7280 C   0  0  0  0  0  3  0  0  0  0  0  0
  -24.7030  -29.0290   20.2870 C   0  0  0  0  0  0  0  0  0  0  0  0
  -25.8070  -30.9190   21.4960 C   0  0  0  0  0  2  0  0  0  0  0  0
  -25.8710  -29.5490   20.8560 C   0  0  0  0  0  0  0  0  0  0  0  0
  -27.0670  -28.7990   20.8280 C   0  0  0  0  0  3  0  0  0  0  0  0
  -25.9070  -27.0060   19.6680 C   0  0  0  0  0  3  0  0  0  0  0  0
  -24.7130  -27.7530   19.6980 C   0  0  0  0  0  3  0  0  0  0  0  0
  -23.4660  -29.8970   20.3480 C   0  0  0  0  0  2  0  0  0  0  0  0
  -24.5560  -31.1760   22.2490 N   0  0  0  0  0  0  0  0  0  0  0  0
  -23.4560  -32.2620   23.9070 O   0  0  0  0  0  0  0  0  0  0  0  0
  -22.6360  -29.5720   22.7020 C   0  0  0  0  0  0  0  0  0  0  0  0
  -21.3230  -29.3400   22.5390 N   0  0  0  0  0  0  0  0  0  0  0  0
  -23.3140  -28.9960   23.5570 O   0  0  0  0  0  0  0  0  0  0  0  0
  -20.8380  -29.8560   21.8190 H   0  0  0  0  0  0  0  0  0  0  0  0
  -17.9930  -27.9960   22.9250 C   0  0  0  0  0  0  0  0  0  0  0  0
  -20.5150  -28.3990   23.3150 C   0  0  0  0  0  3  0  0  0  0  0  0
  -20.7200  -26.9500   22.8200 C   0  0  0  0  0  2  0  0  0  0  0  0
  -19.6920  -26.5210   21.7670 C   0  0  0  0  0  2  0  0  0  0  0  0
  -18.2720  -26.6270   22.3290 C   0  0  0  0  0  2  0  0  0  0  0  0
  -19.0470  -28.8350   23.3740 C   0  0  0  0  0  0  0  0  0  0  0  0
  -18.7350  -30.1130   23.8860 C   0  0  0  0  0  3  0  0  0  0  0  0
  -17.4000  -30.5540   23.9570 C   0  0  0  0  0  3  0  0  0  0  0  0
  -16.3590  -29.7130   23.5280 C   0  0  0  0  0  3  0  0  0  0  0  0
  -16.6560  -28.4370   23.0160 C   0  0  0  0  0  3  0  0  0  0  0  0
  -25.8270  -32.5980   23.9480 C   0  0  0  0  0  3  0  0  0  0  0  0
  -25.5430  -34.0050   24.2610 N   0  0  0  0  0  0  0  0  0  0  0  0
  -25.8930  -35.0410   23.4870 C   0  0  0  0  0  0  0  0  0  0  0  0
  -26.5610  -34.9120   22.4570 O   0  0  0  0  0  0  0  0  0  0  0  0
  -24.9490  -34.1790   25.0580 H   0  0  0  0  0  0  0  0  0  0  0  0
  -24.2080  -36.8660   23.0910 C   0  0  0  0  0  1  0  0  0  0  0  0
  -25.4290  -36.4430   23.9240 C   0  0  0  0  0  3  0  0  0  0  0  0
  -27.5650  -37.2990   24.7840 C   0  0  0  0  0  1  0  0  0  0  0  0
  -26.4860  -37.4740   23.8140 N   0  0  0  0  0  0  0  0  0  0  0  0
  -26.0960  -38.4050   23.9390 H   0  0  0  0  0  0  0  0  0  0  0  0
  -26.3490  -31.8340   25.2270 C   0  0  1  0  0  0  0  0  0  0  0  0
  -25.2640  -31.6050   26.3030 C   0  0  0  0  0  1  0  0  0  0  0  0
  -26.9250  -30.4520   24.8410 C   0  0  0  0  0  1  0  0  0  0  0  0
  -27.5060  -32.6300   25.8750 C   0  0  0  0  0  1  0  0  0  0  0  0
  1  2  1  0
  2  4  1  0
  2  6  1  0
  3  1  2  0
  6  5  1  0
  7  9  2  0
  7  8  1  0
  8 10  2  0
  9 11  1  0
 10 12  1  0
 10  6  1  0
 11 21  1  0
 11 12  2  0
 13 21  1  0
 14 19  1  0
 15 16  1  0
 15 14  1  0
 17 16  1  0
 17 26  1  0
 17 18  1  0
 19 13  1  0
 19 18  1  0
 20 13  2  0
 21 22  1  0
 23 24  2  0
 24 43  1  0
 25 24  1  0
 25 28  1  0
 26 23  1  0
 26 27  1  0
 27 25  2  0
 28 29  1  0
 29 30  2  0
 31 34  1  0
 31 30  1  0
 32 31  2  0
 33 32  1  0
 33 28  2  0
 34 35  1  0
 35 40  2  0
 35 36  1  0
 36 37  2  0
 37 38  1  0
 38 42  1  0
 39 38  2  0
 40 39  1  0
 41 40  1  0
 43 44  1  0
 44 47  1  0
 44 46  1  0
 45 43  2  0
 48 49  1  0
 48 23  1  0
 50 48  1  0
 51  1  1  0
 52 51  1  0
 54 53  1  0
 54 52  1  0
 54 55  1  0
 56 67  2  0
 57 55  1  0
 57 62  1  0
 58 66  1  0
 58 68  1  0
 59 65  1  0
 59 61  1  0
 60 66  1  0
 61 60  1  0
 62 61  2  0
 63 64  1  0
 63 57  2  0
 64 59  2  0
 65 58  1  0
 66 56  1  0
 68 70  2  0
 69 68  1  0
 71 69  1  0
 72 81  2  0
 72 77  1  0
 73 69  1  0
 73 77  1  0
 74 73  1  0
 75 76  1  0
 75 74  1  0
 76 72  1  0
 77 78  2  0
 78 79  1  0
 80 79  2  0
 81 80  1  0
 82 56  1  0
 82 83  1  0
 82 92  1  0
 83 86  1  0
 84 88  1  0
 84 83  1  0
 85 84  2  0
 88 87  1  0
 90 88  1  0
 90 91  1  0
 90 89  1  0
 92 95  1  1
 92 93  1  0
 94 92  1  0
M  ISO  4  13 100  21 100  54 101  55 101
M  END
>  <TORSDO>  (50) 
F 21

>  <SCORE>  (50) 
-13.511

>  <name>  (50) 
49

>  <ligand_id>  (50) 
49

>  <original_smiles>  (50) 
[H]c1c(N([H])C(=O)N2C([H])([H])C([H])([H])C([H])([H])C([H])(n3nc(-c4c([H])c([H])c(Oc5c([H])c([H])c(F)c([H])c5F)c([H])c4[H])c(C(=O)N([H])[H])c3N([H])[H])C2([H])[H])nc(C([H])(N([H])C(=O)C([H])([H])C([H])([H])C([H])(Oc2c([H])c([H])c3c(c2[H])C([H])([H])N(C(=O)C([H])(N([H])C(=O)C([H])(N([H])C([H])([H])[H])C([H])([H])[H])C(C([H])([H])[H])(C([H])([H])[H])C([H])([H])[H])C([H])(C(=O)N([H])C2([H])c4c([H])c([H])c([H])c([H])c4C([H])([H])C([H])([H])C2([H])[H])C3([H])[H])C([H])([H])[H])C([H])([H])[H])c([H])c1[H]

>  <smiles>  (50) 
[H]c1c(N([H])C(=O)N2C([H])([H])C([H])([H])C([H])([H])C([H])(n3nc(-c4c([H])c([H])c(Oc5c([H])c([H])c(F)c([H])c5F)c([H])c4[H])c(C(=O)N([H])[H])c3N([H])[H])C2([H])[H])nc(C([H])(N([H])C(=O)C([H])([H])C([H])([H])C([H])(Oc2c([H])c([H])c3c(c2[H])C([H])([H])N(C(=O)C([H])(N([H])C(=O)C([H])(N([H])C([H])([H])[H])C([H])([H])[H])C(C([H])([H])[H])(C([H])([H])[H])C([H])([H])[H])C([H])(C(=O)N([H])C2([H])c4c([H])c([H])c([H])c([H])c4C([H])([H])C([H])([H])C2([H])[H])C3([H])[H])C([H])([H])[H])C([H])([H])[H])c([H])c1[H]

$$$$
50:0:0
     RDKit          3D

 92100  0  0  1  0  0  0  0  0999 V2000
  -28.5020  -18.0310   20.3960 C   0  0  0  0  0  3  0  0  0  0  0  0
  -29.8560  -18.0980   20.6170 C   0  0  0  0  0  0  0  0  0  0  0  0
  -29.3540  -20.3490   20.4830 C   0  0  0  0  0  0  0  0  0  0  0  0
  -28.7620  -22.7700   20.6030 C   0  0  0  0  0  0  0  0  0  0  0  0
  -30.3260  -19.4320   20.6460 N   0  0  0  0  0  0  0  0  0  0  0  0
  -29.6430  -21.7490   20.4840 N   0  0  0  0  0  0  0  0  0  0  0  0
  -27.5650  -22.6240   20.8810 O   0  0  0  0  0  0  0  0  0  0  0  0
  -27.7690  -19.6090   20.2330 S   0  0  0  0  0  0  0  0  0  0  0  0
  -30.6100  -22.0200   20.3790 H   0  0  0  0  0  0  0  0  0  0  0  0
  -29.3740  -24.2030   20.3940 C   0  0  0  0  0  0  0  0  0  0  0  0
  -30.5470  -24.4800   20.6740 O   0  0  0  0  0  0  0  0  0  0  0  0
  -28.4040  -25.2430   19.7830 C   0  0  0  0  0  2  0  0  0  0  0  0
  -28.6250  -26.6360   20.1440 O   0  0  0  0  0  0  0  0  0  0  0  0
  -24.5770  -31.6790   23.2040 C   0  0  0  0  0  0  0  0  0  0  0  0
  -27.4800  -27.4220   20.0600 C   0  0  0  0  0  0  0  0  0  0  0  0
  -23.4950  -30.3270   21.4450 C   0  0  0  0  0  3  0  0  0  0  0  0
  -25.0590  -28.9120   20.0140 C   0  0  0  0  0  0  0  0  0  0  0  0
  -26.0240  -30.7480   21.3990 C   0  0  0  0  0  2  0  0  0  0  0  0
  -26.1780  -29.4160   20.6910 C   0  0  0  0  0  0  0  0  0  0  0  0
  -27.3920  -28.6800   20.7130 C   0  0  0  0  0  3  0  0  0  0  0  0
  -26.3400  -26.9690   19.3460 C   0  0  0  0  0  3  0  0  0  0  0  0
  -25.1380  -27.6900   19.3370 C   0  0  0  0  0  3  0  0  0  0  0  0
  -23.7910  -29.7360   20.0440 C   0  0  0  0  0  2  0  0  0  0  0  0
  -24.7140  -30.9320   22.0730 N   0  0  0  0  0  0  0  0  0  0  0  0
  -23.4620  -31.8960   23.7000 O   0  0  0  0  0  0  0  0  0  0  0  0
  -22.8330  -29.2360   22.3190 C   0  0  0  0  0  0  0  0  0  0  0  0
  -21.5120  -29.0530   22.1530 N   0  0  0  0  0  0  0  0  0  0  0  0
  -23.5040  -28.5640   23.1050 O   0  0  0  0  0  0  0  0  0  0  0  0
  -21.0300  -29.6530   21.4980 H   0  0  0  0  0  0  0  0  0  0  0  0
  -18.1200  -27.8830   22.5960 C   0  0  0  0  0  0  0  0  0  0  0  0
  -20.6870  -28.0630   22.8460 C   0  0  0  0  0  3  0  0  0  0  0  0
  -20.7490  -26.6910   22.1360 C   0  0  0  0  0  2  0  0  0  0  0  0
  -19.6240  -26.4860   21.1160 C   0  0  0  0  0  2  0  0  0  0  0  0
  -18.2560  -26.6000   21.7930 C   0  0  0  0  0  2  0  0  0  0  0  0
  -19.2610  -28.5770   23.0760 C   0  0  0  0  0  0  0  0  0  0  0  0
  -19.0810  -29.7840   23.7860 C   0  0  0  0  0  3  0  0  0  0  0  0
  -17.7900  -30.2960   24.0200 C   0  0  0  0  0  3  0  0  0  0  0  0
  -16.6630  -29.5950   23.5570 C   0  0  0  0  0  3  0  0  0  0  0  0
  -16.8290  -28.3910   22.8510 C   0  0  0  0  0  3  0  0  0  0  0  0
  -25.8110  -32.3190   23.9120 C   0  0  0  0  0  3  0  0  0  0  0  0
  -26.2400  -31.5530   25.2230 C   0  0  1  0  0  0  0  0  0  0  0  0
  -25.0720  -31.3030   26.2060 C   0  0  0  0  0  1  0  0  0  0  0  0
  -26.8660  -30.1810   24.8810 C   0  0  0  0  0  1  0  0  0  0  0  0
  -27.3300  -32.3610   25.9670 C   0  0  0  0  0  1  0  0  0  0  0  0
  -25.4720  -33.7150   24.2120 N   0  0  0  0  0  0  0  0  0  0  0  0
  -25.8110  -34.7620   23.4460 C   0  0  0  0  0  0  0  0  0  0  0  0
  -26.5170  -34.6550   22.4390 O   0  0  0  0  0  0  0  0  0  0  0  0
  -24.8520  -33.8720   24.9910 H   0  0  0  0  0  0  0  0  0  0  0  0
  -24.0590  -36.5150   23.0160 C   0  0  0  0  0  1  0  0  0  0  0  0
  -25.2860  -36.1490   23.8670 C   0  0  0  0  0  3  0  0  0  0  0  0
  -27.3700  -37.0990   24.7500 C   0  0  0  0  0  1  0  0  0  0  0  0
  -26.2990  -37.2230   23.7660 N   0  0  0  0  0  0  0  0  0  0  0  0
  -25.8660  -38.1350   23.8820 H   0  0  0  0  0  0  0  0  0  0  0  0
  -30.8090  -16.9340   20.8440 C   0  0  0  0  0  2  0  0  0  0  0  0
  -30.8530  -14.5400   20.0840 C   0  0  0  0  0  0  0  0  0  0  0  0
  -30.4500  -12.3890   18.9340 C   0  0  0  0  0  2  0  0  0  0  0  0
  -29.4560  -12.6240   17.7780 C   0  0  0  0  0  2  0  0  0  0  0  0
  -28.0020  -12.5000   18.2790 C   0  0  0  0  0  2  0  0  0  0  0  0
  -27.7400  -13.3130   19.5760 C   0  0  0  0  0  3  0  0  0  0  0  0
  -28.8540  -13.0850   20.6220 C   0  0  0  0  0  2  0  0  0  0  0  0
  -30.1460  -13.3790   19.9820 N   0  0  0  0  0  0  0  0  0  0  0  0
  -31.9580  -14.6820   19.5560 O   0  0  0  0  0  0  0  0  0  0  0  0
  -30.2340  -15.5800   20.6800 N   0  0  0  0  0  0  0  0  0  0  0  0
  -29.3120  -15.4180   21.0530 H   0  0  0  0  0  0  0  0  0  0  0  0
  -25.3980  -13.9250   20.4410 C   0  0  0  0  0  0  0  0  0  0  0  0
  -24.3420  -13.1590   20.8550 C   0  0  0  0  0  0  0  0  0  0  0  0
  -24.7780  -11.8020   20.7600 C   0  0  0  0  0  0  0  0  0  0  0  0
  -26.4140  -13.0370   20.1240 N   0  0  0  0  0  0  0  0  0  0  0  0
  -26.0480  -11.7520   20.3720 N   0  0  0  0  0  0  0  0  0  0  0  0
  -24.0420  -10.5460   20.9550 C   0  0  0  0  0  0  0  0  0  0  0  0
  -24.4720   -9.5740   21.8870 C   0  0  0  0  0  3  0  0  0  0  0  0
  -23.7370   -8.3840   22.0690 C   0  0  0  0  0  3  0  0  0  0  0  0
  -22.5570   -8.1540   21.3210 C   0  0  0  0  0  0  0  0  0  0  0  0
  -22.1470   -9.1140   20.3800 C   0  0  0  0  0  3  0  0  0  0  0  0
  -22.8820  -10.2970   20.1930 C   0  0  0  0  0  3  0  0  0  0  0  0
  -21.7930   -7.0160   21.4150 O   0  0  0  0  0  0  0  0  0  0  0  0
  -21.6890   -6.3130   22.5880 C   0  0  0  0  0  0  0  0  0  0  0  0
  -21.1130   -6.8780   23.7480 C   0  0  0  0  0  3  0  0  0  0  0  0
  -20.9640   -6.0980   24.9110 C   0  0  0  0  0  3  0  0  0  0  0  0
  -21.3790   -4.7520   24.9150 C   0  0  0  0  0  0  0  0  0  0  0  0
  -21.9470   -4.1860   23.7590 C   0  0  0  0  0  3  0  0  0  0  0  0
  -22.0980   -4.9640   22.5990 C   0  0  0  0  0  0  0  0  0  0  0  0
  -22.6270   -4.4080   21.4830 F   0  0  0  0  0  0  0  0  0  0  0  0
  -21.2280   -4.0000   26.0300 F   0  0  0  0  0  0  0  0  0  0  0  0
  -22.9700  -13.6490   21.2190 C   0  0  0  0  0  0  0  0  0  0  0  0
  -22.2780  -12.9400   22.1040 N   0  0  0  0  0  0  0  0  0  0  0  0
  -22.5240  -14.6980   20.7550 O   0  0  0  0  0  0  0  0  0  0  0  0
  -22.6490  -12.0920   22.5050 H   0  0  0  0  0  0  0  0  0  0  0  0
  -21.3600  -13.2520   22.3850 H   0  0  0  0  0  0  0  0  0  0  0  0
  -25.5700  -15.2960   20.2770 N   0  0  0  0  0  0  0  0  0  0  0  0
  -24.7870  -15.9320   20.3790 H   0  0  0  0  0  0  0  0  0  0  0  0
  -26.3270  -15.6870   19.7330 H   0  0  0  0  0  0  0  0  0  0  0  0
  1  2  2  0
  2  5  1  0
  2 54  1  0
  3  6  1  0
  3  5  2  0
  4  7  2  0
  6  4  1  0
  8  1  1  0
  8  3  1  0
  9  6  1  0
 10  4  1  0
 10 11  2  0
 12 13  1  0
 12 10  1  0
 14 25  2  0
 15 13  1  0
 15 20  1  0
 16 24  1  0
 16 26  1  0
 17 23  1  0
 17 19  1  0
 18 24  1  0
 19 20  2  0
 19 18  1  0
 21 15  2  0
 22 21  1  0
 22 17  2  0
 23 16  1  0
 24 14  1  0
 26 28  2  0
 27 26  1  0
 29 27  1  0
 30 39  2  0
 30 35  1  0
 31 27  1  0
 31 35  1  0
 32 31  1  0
 33 34  1  0
 33 32  1  0
 34 30  1  0
 35 36  2  0
 36 37  1  0
 38 37  2  0
 39 38  1  0
 40 14  1  0
 40 45  1  0
 40 41  1  0
 41 44  1  1
 41 42  1  0
 43 41  1  0
 45 48  1  0
 46 50  1  0
 46 45  1  0
 47 46  2  0
 50 49  1  0
 52 50  1  0
 52 53  1  0
 52 51  1  0
 55 63  1  0
 56 61  1  0
 57 58  1  0
 57 56  1  0
 59 58  1  0
 59 68  1  0
 59 60  1  0
 61 55  1  0
 61 60  1  0
 62 55  2  0
 63 54  1  0
 63 64  1  0
 65 66  2  0
 66 85  1  0
 67 66  1  0
 67 70  1  0
 68 69  1  0
 68 65  1  0
 69 67  2  0
 70 71  1  0
 71 72  2  0
 73 76  1  0
 73 72  1  0
 74 73  2  0
 75 74  1  0
 75 70  2  0
 76 77  1  0
 77 82  2  0
 77 78  1  0
 78 79  2  0
 79 80  1  0
 80 84  1  0
 81 80  2  0
 82 81  1  0
 83 82  1  0
 85 86  1  0
 86 89  1  0
 86 88  1  0
 87 85  2  0
 90 91  1  0
 90 65  1  0
 92 90  1  0
M  ISO  4  12 101  13 101  55 100  63 100
M  END
>  <TORSDO>  (51) 
F 19

>  <SCORE>  (51) 
-13.946

>  <name>  (51) 
50

>  <ligand_id>  (51) 
50

>  <original_smiles>  (51) 
[H]c1sc(N([H])C(=O)C(=O)C([H])([H])Oc2c([H])c([H])c3c(c2[H])C([H])([H])N(C(=O)C([H])(N([H])C(=O)C([H])(N([H])C([H])([H])[H])C([H])([H])[H])C(C([H])([H])[H])(C([H])([H])[H])C([H])([H])[H])C([H])(C(=O)N([H])C2([H])c4c([H])c([H])c([H])c([H])c4C([H])([H])C([H])([H])C2([H])[H])C3([H])[H])nc1C([H])([H])N([H])C(=O)N1C([H])([H])C([H])([H])C([H])([H])C([H])(n2nc(-c3c([H])c([H])c(Oc4c([H])c([H])c(F)c([H])c4F)c([H])c3[H])c(C(=O)N([H])[H])c2N([H])[H])C1([H])[H]

>  <smiles>  (51) 
[H]c1sc(N([H])C(=O)C(=O)C([H])([H])Oc2c([H])c([H])c3c(c2[H])C([H])([H])N(C(=O)C([H])(N([H])C(=O)C([H])(N([H])C([H])([H])[H])C([H])([H])[H])C(C([H])([H])[H])(C([H])([H])[H])C([H])([H])[H])C([H])(C(=O)N([H])C2([H])c4c([H])c([H])c([H])c([H])c4C([H])([H])C([H])([H])C2([H])[H])C3([H])[H])nc1C([H])([H])N([H])C(=O)N1C([H])([H])C([H])([H])C([H])([H])C([H])(n2nc(-c3c([H])c([H])c(Oc4c([H])c([H])c(F)c([H])c4F)c([H])c3[H])c(C(=O)N([H])[H])c2N([H])[H])C1([H])[H]

$$$$
51:0:0
     RDKit          3D

 94102  0  0  1  0  0  0  0  0999 V2000
  -29.4350  -23.1420   19.7970 C   0  0  0  0  0  0  0  0  0  0  0  0
  -29.2500  -21.9000   20.3960 N   0  0  0  0  0  0  0  0  0  0  0  0
  -29.8330  -23.2540   18.6380 O   0  0  0  0  0  0  0  0  0  0  0  0
  -28.7450  -22.0350   21.2600 H   0  0  0  0  0  0  0  0  0  0  0  0
  -30.8980  -15.0700   19.2320 C   0  0  0  0  0  0  0  0  0  0  0  0
  -30.5830  -12.7970   18.2040 C   0  0  0  0  0  2  0  0  0  0  0  0
  -29.4240  -12.8700   17.1820 C   0  0  0  0  0  2  0  0  0  0  0  0
  -28.0580  -12.6820   17.8750 C   0  0  0  0  0  2  0  0  0  0  0  0
  -27.9170  -13.5480   19.1550 C   0  0  0  0  0  3  0  0  0  0  0  0
  -29.1630  -13.4110   20.0580 C   0  0  0  0  0  2  0  0  0  0  0  0
  -30.3310  -13.8110   19.2570 N   0  0  0  0  0  0  0  0  0  0  0  0
  -31.9540  -15.2510   18.6100 O   0  0  0  0  0  0  0  0  0  0  0  0
  -29.3750  -18.1130   20.9660 C   0  0  0  0  0  3  0  0  0  0  0  0
  -30.2340  -19.8450   19.0490 C   0  0  0  0  0  3  0  0  0  0  0  0
  -29.1180  -19.5090   21.1190 C   0  0  0  0  0  0  0  0  0  0  0  0
  -29.5360  -20.4560   20.1390 C   0  0  0  0  0  0  0  0  0  0  0  0
  -30.0800  -17.5680   19.8610 C   0  0  0  0  0  0  0  0  0  0  0  0
  -28.3770  -19.9730   22.3680 C   0  0  0  0  0  1  0  0  0  0  0  0
  -30.4980  -18.4830   18.9230 N   0  0  0  0  0  0  0  0  0  0  0  0
  -30.1670  -16.0800   19.8480 N   0  0  0  0  0  0  0  0  0  0  0  0
  -29.4430  -15.6640   20.4100 H   0  0  0  0  0  0  0  0  0  0  0  0
  -25.7770  -14.1450   20.4390 C   0  0  0  0  0  0  0  0  0  0  0  0
  -24.7570  -13.3750   20.9320 C   0  0  0  0  0  0  0  0  0  0  0  0
  -25.1050  -12.0220   20.6340 C   0  0  0  0  0  0  0  0  0  0  0  0
  -26.6830  -13.2600   19.8760 N   0  0  0  0  0  0  0  0  0  0  0  0
  -26.2970  -11.9690   20.0510 N   0  0  0  0  0  0  0  0  0  0  0  0
  -24.3450  -10.7790   20.8170 C   0  0  0  0  0  0  0  0  0  0  0  0
  -24.7860   -9.7660   21.6980 C   0  0  0  0  0  3  0  0  0  0  0  0
  -24.0300   -8.5870   21.8700 C   0  0  0  0  0  3  0  0  0  0  0  0
  -22.8150   -8.4150   21.1630 C   0  0  0  0  0  0  0  0  0  0  0  0
  -22.3920   -9.4150   20.2710 C   0  0  0  0  0  3  0  0  0  0  0  0
  -23.1500  -10.5850   20.0950 C   0  0  0  0  0  3  0  0  0  0  0  0
  -22.0270   -7.2930   21.2480 O   0  0  0  0  0  0  0  0  0  0  0  0
  -21.8290   -6.6400   22.4390 C   0  0  0  0  0  0  0  0  0  0  0  0
  -21.2600   -7.2880   23.5570 C   0  0  0  0  0  3  0  0  0  0  0  0
  -21.0110   -6.5620   24.7400 C   0  0  0  0  0  3  0  0  0  0  0  0
  -21.3200   -5.1900   24.8020 C   0  0  0  0  0  0  0  0  0  0  0  0
  -21.8820   -4.5430   23.6880 C   0  0  0  0  0  3  0  0  0  0  0  0
  -22.1330   -5.2660   22.5080 C   0  0  0  0  0  0  0  0  0  0  0  0
  -22.6550   -4.6330   21.4300 F   0  0  0  0  0  0  0  0  0  0  0  0
  -21.0740   -4.4910   25.9350 F   0  0  0  0  0  0  0  0  0  0  0  0
  -23.4840  -13.8730   21.5550 C   0  0  0  0  0  0  0  0  0  0  0  0
  -22.9300  -13.1190   22.4970 N   0  0  0  0  0  0  0  0  0  0  0  0
  -23.0010  -14.9600   21.2420 O   0  0  0  0  0  0  0  0  0  0  0  0
  -23.3370  -12.2360   22.7680 H   0  0  0  0  0  0  0  0  0  0  0  0
  -22.0850  -13.4300   22.9560 H   0  0  0  0  0  0  0  0  0  0  0  0
  -25.9970  -15.5180   20.4020 N   0  0  0  0  0  0  0  0  0  0  0  0
  -25.3130  -16.1790   20.7510 H   0  0  0  0  0  0  0  0  0  0  0  0
  -26.7710  -15.9660   19.9300 H   0  0  0  0  0  0  0  0  0  0  0  0
  -28.8660  -25.6640   20.5990 C   0  0  0  0  0  3  0  0  0  0  0  0
  -29.1010  -24.2900   20.7380 C   0  0  0  0  0  0  0  0  0  0  0  0
  -29.0550  -23.9140   22.0280 O   0  0  0  0  0  0  0  0  0  0  0  0
  -29.6300  -23.1620   22.1200 H   0  0  0  0  0  0  0  0  0  0  0  0
  -28.8260  -26.6510   19.5860 O   0  0  0  0  0  0  0  0  0  0  0  0
  -24.6260  -31.6080   22.8960 C   0  0  0  0  0  0  0  0  0  0  0  0
  -27.7010  -27.5040   19.5950 C   0  0  0  0  0  0  0  0  0  0  0  0
  -23.5930  -30.2450   21.1170 C   0  0  0  0  0  3  0  0  0  0  0  0
  -25.2140  -28.9340   19.6250 C   0  0  0  0  0  0  0  0  0  0  0  0
  -26.1040  -30.7810   21.0420 C   0  0  0  0  0  2  0  0  0  0  0  0
  -26.3230  -29.4640   20.2980 C   0  0  0  0  0  0  0  0  0  0  0  0
  -27.5730  -28.7610   20.2780 C   0  0  0  0  0  3  0  0  0  0  0  0
  -26.5700  -27.0400   18.8980 C   0  0  0  0  0  3  0  0  0  0  0  0
  -25.3400  -27.7290   18.9150 C   0  0  0  0  0  3  0  0  0  0  0  0
  -23.9070  -29.7010   19.6980 C   0  0  0  0  0  2  0  0  0  0  0  0
  -24.7910  -30.8930   21.7430 N   0  0  0  0  0  0  0  0  0  0  0  0
  -23.5090  -31.7520   23.4150 O   0  0  0  0  0  0  0  0  0  0  0  0
  -22.9950  -29.1040   21.9770 C   0  0  0  0  0  0  0  0  0  0  0  0
  -21.6900  -28.8270   21.8010 N   0  0  0  0  0  0  0  0  0  0  0  0
  -23.7040  -28.4720   22.7650 O   0  0  0  0  0  0  0  0  0  0  0  0
  -21.1700  -29.3980   21.1500 H   0  0  0  0  0  0  0  0  0  0  0  0
  -18.4200  -27.3130   22.1060 C   0  0  0  0  0  0  0  0  0  0  0  0
  -20.9370  -27.7670   22.4750 C   0  0  0  0  0  3  0  0  0  0  0  0
  -21.1770  -26.3960   21.7980 C   0  0  0  0  0  2  0  0  0  0  0  0
  -20.1330  -26.0610   20.7290 C   0  0  0  0  0  2  0  0  0  0  0  0
  -18.7290  -26.0390   21.3380 C   0  0  0  0  0  2  0  0  0  0  0  0
  -19.4560  -28.1310   22.6260 C   0  0  0  0  0  0  0  0  0  0  0  0
  -19.1110  -29.3220   23.3030 C   0  0  0  0  0  3  0  0  0  0  0  0
  -17.7640  -29.6940   23.4650 C   0  0  0  0  0  3  0  0  0  0  0  0
  -16.7420  -28.8720   22.9600 C   0  0  0  0  0  3  0  0  0  0  0  0
  -17.0700  -27.6820   22.2860 C   0  0  0  0  0  3  0  0  0  0  0  0
  -25.8300  -32.3000   23.6050 C   0  0  0  0  0  3  0  0  0  0  0  0
  -25.4030  -33.6500   23.9990 N   0  0  0  0  0  0  0  0  0  0  0  0
  -25.6820  -34.7670   23.3150 C   0  0  0  0  0  0  0  0  0  0  0  0
  -26.3940  -34.7730   22.3070 O   0  0  0  0  0  0  0  0  0  0  0  0
  -24.7690  -33.7120   24.7830 H   0  0  0  0  0  0  0  0  0  0  0  0
  -23.8380  -36.4470   22.9900 C   0  0  0  0  0  1  0  0  0  0  0  0
  -25.0760  -36.0870   23.8280 C   0  0  0  0  0  3  0  0  0  0  0  0
  -27.1000  -37.0790   24.8000 C   0  0  0  0  0  1  0  0  0  0  0  0
  -26.0290  -37.2190   23.8180 N   0  0  0  0  0  0  0  0  0  0  0  0
  -25.5490  -38.0970   23.9940 H   0  0  0  0  0  0  0  0  0  0  0  0
  -26.3550  -31.4980   24.8600 C   0  0  1  0  0  0  0  0  0  0  0  0
  -25.2400  -31.1160   25.8630 C   0  0  0  0  0  1  0  0  0  0  0  0
  -27.0600  -30.1950   24.4190 C   0  0  0  0  0  1  0  0  0  0  0  0
  -27.4090  -32.3390   25.6160 C   0  0  0  0  0  1  0  0  0  0  0  0
  1  2  1  0
  1 51  1  0
  2  4  1  0
  3  1  2  0
  5 11  1  0
  5 20  1  0
  6 11  1  0
  7  8  1  0
  7  6  1  0
  9  8  1  0
  9 25  1  0
  9 10  1  0
 11 10  1  0
 12  5  2  0
 13 15  1  0
 14 16  1  0
 15 18  1  0
 16  2  1  0
 16 15  2  0
 17 13  2  0
 19 14  2  0
 19 17  1  0
 20 17  1  0
 20 21  1  0
 22 23  2  0
 23 42  1  0
 24 27  1  0
 24 23  1  0
 25 26  1  0
 25 22  1  0
 26 24  2  0
 27 28  1  0
 28 29  2  0
 30 33  1  0
 30 29  1  0
 31 30  2  0
 32 31  1  0
 32 27  2  0
 33 34  1  0
 34 39  2  0
 34 35  1  0
 35 36  2  0
 36 37  1  0
 37 41  1  0
 38 37  2  0
 39 38  1  0
 40 39  1  0
 42 43  1  0
 43 45  1  0
 43 46  1  0
 44 42  2  0
 47 22  1  0
 47 48  1  0
 49 47  1  0
 50 51  2  0
 51 52  1  0
 52 53  1  0
 54 56  1  0
 54 50  1  0
 55 66  2  0
 56 61  1  0
 57 65  1  0
 57 67  1  0
 58 64  1  0
 58 60  1  0
 59 65  1  0
 60 59  1  0
 61 60  2  0
 62 63  1  0
 62 56  2  0
 63 58  2  0
 64 57  1  0
 65 55  1  0
 67 69  2  0
 68 67  1  0
 70 68  1  0
 71 80  2  0
 71 76  1  0
 72 68  1  0
 72 76  1  0
 73 72  1  0
 74 75  1  0
 74 73  1  0
 75 71  1  0
 76 77  2  0
 77 78  1  0
 79 78  2  0
 80 79  1  0
 81 55  1  0
 81 82  1  0
 81 91  1  0
 82 85  1  0
 83 87  1  0
 83 82  1  0
 84 83  2  0
 87 86  1  0
 89 87  1  0
 89 90  1  0
 89 88  1  0
 91 94  1  1
 91 92  1  0
 93 91  1  0
M  ISO  4   5 100  20 100  50 101  54 101
M  END
>  <TORSDO>  (52) 
F 18

>  <SCORE>  (52) 
-7.782

>  <name>  (52) 
51

>  <ligand_id>  (52) 
51

>  <original_smiles>  (52) 
[H]OC(C(=O)N([H])c1c([H])nc(N([H])C(=O)N2C([H])([H])C([H])([H])C([H])([H])C([H])(n3nc(-c4c([H])c([H])c(Oc5c([H])c([H])c(F)c([H])c5F)c([H])c4[H])c(C(=O)N([H])[H])c3N([H])[H])C2([H])[H])c([H])c1C([H])([H])[H])=C([H])Oc1c([H])c([H])c2c(c1[H])C([H])([H])N(C(=O)C([H])(N([H])C(=O)C([H])(N([H])C([H])([H])[H])C([H])([H])[H])C(C([H])([H])[H])(C([H])([H])[H])C([H])([H])[H])C([H])(C(=O)N([H])C1([H])c3c([H])c([H])c([H])c([H])c3C([H])([H])C([H])([H])C1([H])[H])C2([H])[H]

>  <smiles>  (52) 
[H]OC(C(=O)N([H])c1c([H])nc(N([H])C(=O)N2C([H])([H])C([H])([H])C([H])([H])C([H])(n3nc(-c4c([H])c([H])c(Oc5c([H])c([H])c(F)c([H])c5F)c([H])c4[H])c(C(=O)N([H])[H])c3N([H])[H])C2([H])[H])c([H])c1C([H])([H])[H])=C([H])Oc1c([H])c([H])c2c(c1[H])C([H])([H])N(C(=O)C([H])(N([H])C(=O)C([H])(N([H])C([H])([H])[H])C([H])([H])[H])C(C([H])([H])[H])(C([H])([H])[H])C([H])([H])[H])C([H])(C(=O)N([H])C1([H])c3c([H])c([H])c([H])c([H])c3C([H])([H])C([H])([H])C1([H])[H])C2([H])[H]

$$$$
52:0:0
     RDKit          3D

 94102  0  0  1  0  0  0  0  0999 V2000
  -29.9390  -21.9450   20.7430 C   0  0  0  0  0  0  0  0  0  0  0  0
  -29.5030  -20.6570   20.6910 N   0  0  0  0  0  0  0  0  0  0  0  0
  -31.0700  -22.2650   21.1220 O   0  0  0  0  0  0  0  0  0  0  0  0
  -28.5870  -20.5370   20.2790 H   0  0  0  0  0  0  0  0  0  0  0  0
  -31.9080  -18.2560   22.3770 C   0  0  0  0  0  3  0  0  0  0  0  0
  -31.2900  -19.4500   21.9690 C   0  0  0  0  0  3  0  0  0  0  0  0
  -31.4170  -17.0130   21.9450 C   0  0  0  0  0  3  0  0  0  0  0  0
  -29.6480  -18.1620   20.7170 C   0  0  0  0  0  3  0  0  0  0  0  0
  -30.1580  -19.4370   21.1170 C   0  0  0  0  0  0  0  0  0  0  0  0
  -30.2860  -16.9430   21.1020 C   0  0  0  0  0  0  0  0  0  0  0  0
  -30.4690  -14.6290   20.1610 C   0  0  0  0  0  0  0  0  0  0  0  0
  -30.1220  -12.5140   18.9230 C   0  0  0  0  0  2  0  0  0  0  0  0
  -29.1030  -12.7380   17.7860 C   0  0  0  0  0  2  0  0  0  0  0  0
  -27.6620  -12.5560   18.3000 C   0  0  0  0  0  2  0  0  0  0  0  0
  -27.3890  -13.3400   19.6110 C   0  0  0  0  0  3  0  0  0  0  0  0
  -28.5150  -13.1060   20.6440 C   0  0  0  0  0  2  0  0  0  0  0  0
  -29.7900  -13.4580   20.0030 N   0  0  0  0  0  0  0  0  0  0  0  0
  -31.5850  -14.8110   19.6650 O   0  0  0  0  0  0  0  0  0  0  0  0
  -29.7740  -15.6560   20.7120 N   0  0  0  0  0  0  0  0  0  0  0  0
  -28.7930  -15.4860   20.8770 H   0  0  0  0  0  0  0  0  0  0  0  0
  -25.0280  -13.8840   20.4730 C   0  0  0  0  0  0  0  0  0  0  0  0
  -23.9970  -13.0830   20.8830 C   0  0  0  0  0  0  0  0  0  0  0  0
  -24.4800  -11.7420   20.7970 C   0  0  0  0  0  0  0  0  0  0  0  0
  -26.0730  -13.0280   20.1620 N   0  0  0  0  0  0  0  0  0  0  0  0
  -25.7510  -11.7340   20.4170 N   0  0  0  0  0  0  0  0  0  0  0  0
  -23.7880  -10.4620   20.9980 C   0  0  0  0  0  0  0  0  0  0  0  0
  -24.2700   -9.4980   21.9110 C   0  0  0  0  0  3  0  0  0  0  0  0
  -23.5770   -8.2820   22.1000 C   0  0  0  0  0  3  0  0  0  0  0  0
  -22.3880   -8.0220   21.3780 C   0  0  0  0  0  0  0  0  0  0  0  0
  -21.9260   -8.9760   20.4540 C   0  0  0  0  0  3  0  0  0  0  0  0
  -22.6200  -10.1830   20.2620 C   0  0  0  0  0  3  0  0  0  0  0  0
  -21.6630   -6.8600   21.4780 O   0  0  0  0  0  0  0  0  0  0  0  0
  -21.6500   -6.1170   22.6320 C   0  0  0  0  0  0  0  0  0  0  0  0
  -21.2150   -6.6570   23.8610 C   0  0  0  0  0  3  0  0  0  0  0  0
  -21.1530   -5.8380   25.0070 C   0  0  0  0  0  3  0  0  0  0  0  0
  -21.5150   -4.4800   24.9240 C   0  0  0  0  0  0  0  0  0  0  0  0
  -21.9430   -3.9390   23.6980 C   0  0  0  0  0  3  0  0  0  0  0  0
  -22.0080   -4.7560   22.5560 C   0  0  0  0  0  0  0  0  0  0  0  0
  -22.4010   -4.2240   21.3720 F   0  0  0  0  0  0  0  0  0  0  0  0
  -21.4470   -3.6910   26.0210 F   0  0  0  0  0  0  0  0  0  0  0  0
  -22.6080  -13.5280   21.2450 C   0  0  0  0  0  0  0  0  0  0  0  0
  -21.9400  -12.7940   22.1270 N   0  0  0  0  0  0  0  0  0  0  0  0
  -22.1270  -14.5590   20.7790 O   0  0  0  0  0  0  0  0  0  0  0  0
  -22.3440  -11.9600   22.5260 H   0  0  0  0  0  0  0  0  0  0  0  0
  -21.0110  -13.0710   22.4110 H   0  0  0  0  0  0  0  0  0  0  0  0
  -25.1590  -15.2610   20.3170 N   0  0  0  0  0  0  0  0  0  0  0  0
  -24.3890  -15.8990   20.4820 H   0  0  0  0  0  0  0  0  0  0  0  0
  -25.9770  -15.7200   19.9360 H   0  0  0  0  0  0  0  0  0  0  0  0
  -28.9520  -22.9320   20.2800 C   0  0  0  0  0  3  0  0  0  0  0  0
  -29.1310  -24.2860   20.2990 C   0  0  0  0  0  0  0  0  0  0  0  0
  -30.2300  -24.9070   20.7570 O   0  0  0  0  0  0  0  0  0  0  0  0
  -30.8370  -24.2290   21.0440 H   0  0  0  0  0  0  0  0  0  0  0  0
  -28.0890  -25.3040   19.8040 C   0  0  0  0  0  2  0  0  0  0  0  0
  -28.2800  -26.7000   20.1770 O   0  0  0  0  0  0  0  0  0  0  0  0
  -24.5900  -31.9970   23.2820 C   0  0  0  0  0  0  0  0  0  0  0  0
  -27.1460  -27.5100   20.1400 C   0  0  0  0  0  0  0  0  0  0  0  0
  -23.3590  -30.6290   21.6360 C   0  0  0  0  0  3  0  0  0  0  0  0
  -24.7840  -29.0960   20.1820 C   0  0  0  0  0  0  0  0  0  0  0  0
  -25.8960  -30.9430   21.4340 C   0  0  0  0  0  2  0  0  0  0  0  0
  -25.9580  -29.5780   20.7720 C   0  0  0  0  0  0  0  0  0  0  0  0
  -27.1420  -28.7940   20.7490 C   0  0  0  0  0  3  0  0  0  0  0  0
  -25.9480  -27.0750   19.5190 C   0  0  0  0  0  3  0  0  0  0  0  0
  -24.7770  -27.8460   19.5500 C   0  0  0  0  0  3  0  0  0  0  0  0
  -23.5540  -29.9730   20.2460 C   0  0  0  0  0  2  0  0  0  0  0  0
  -24.6340  -31.2040   22.1740 N   0  0  0  0  0  0  0  0  0  0  0  0
  -23.5140  -32.2770   23.8300 O   0  0  0  0  0  0  0  0  0  0  0  0
  -22.7010  -29.6020   22.5870 C   0  0  0  0  0  0  0  0  0  0  0  0
  -21.3780  -29.4160   22.4480 N   0  0  0  0  0  0  0  0  0  0  0  0
  -23.3790  -28.9760   23.4070 O   0  0  0  0  0  0  0  0  0  0  0  0
  -20.8920  -29.9730   21.7590 H   0  0  0  0  0  0  0  0  0  0  0  0
  -18.0020  -28.2050   22.9110 C   0  0  0  0  0  0  0  0  0  0  0  0
  -20.5560  -28.4760   23.2120 C   0  0  0  0  0  3  0  0  0  0  0  0
  -20.6720  -27.0440   22.6420 C   0  0  0  0  0  2  0  0  0  0  0  0
  -19.5840  -26.7130   21.6160 C   0  0  0  0  0  2  0  0  0  0  0  0
  -18.1940  -26.8550   22.2420 C   0  0  0  0  0  2  0  0  0  0  0  0
  -19.1130  -28.9730   23.3540 C   0  0  0  0  0  0  0  0  0  0  0  0
  -18.8810  -30.2360   23.9380 C   0  0  0  0  0  3  0  0  0  0  0  0
  -17.5730  -30.7330   24.0860 C   0  0  0  0  0  3  0  0  0  0  0  0
  -16.4770  -29.9620   23.6620 C   0  0  0  0  0  3  0  0  0  0  0  0
  -16.6930  -28.7000   23.0800 C   0  0  0  0  0  3  0  0  0  0  0  0
  -25.8860  -32.6080   23.9000 C   0  0  0  0  0  3  0  0  0  0  0  0
  -26.3940  -31.8270   25.1730 C   0  0  1  0  0  0  0  0  0  0  0  0
  -25.2980  -31.5970   26.2390 C   0  0  0  0  0  1  0  0  0  0  0  0
  -26.9630  -30.4440   24.7770 C   0  0  0  0  0  1  0  0  0  0  0  0
  -27.5540  -32.6080   25.8370 C   0  0  0  0  0  1  0  0  0  0  0  0
  -25.5990  -34.0110   24.2310 N   0  0  0  0  0  0  0  0  0  0  0  0
  -25.9310  -35.0560   23.4630 C   0  0  0  0  0  0  0  0  0  0  0  0
  -26.5850  -34.9430   22.4220 O   0  0  0  0  0  0  0  0  0  0  0  0
  -25.0170  -34.1740   25.0390 H   0  0  0  0  0  0  0  0  0  0  0  0
  -24.2140  -36.8640   23.1310 C   0  0  0  0  0  1  0  0  0  0  0  0
  -25.4650  -36.4510   23.9230 C   0  0  0  0  0  3  0  0  0  0  0  0
  -27.6230  -37.3180   24.7140 C   0  0  0  0  0  1  0  0  0  0  0  0
  -26.5050  -37.4950   23.7900 N   0  0  0  0  0  0  0  0  0  0  0  0
  -26.1100  -38.4190   23.9460 H   0  0  0  0  0  0  0  0  0  0  0  0
  1  3  2  0
  2  1  1  0
  2  9  1  0
  4  2  1  0
  6  5  1  0
  7  5  2  0
  8 10  2  0
  8  9  1  0
  9  6  2  0
 10  7  1  0
 11 19  1  0
 12 17  1  0
 13 14  1  0
 13 12  1  0
 15 14  1  0
 15 24  1  0
 15 16  1  0
 17 11  1  0
 17 16  1  0
 18 11  2  0
 19 20  1  0
 19 10  1  0
 21 22  2  0
 22 41  1  0
 23 22  1  0
 23 26  1  0
 24 25  1  0
 24 21  1  0
 25 23  2  0
 26 27  1  0
 27 28  2  0
 29 32  1  0
 29 28  1  0
 30 29  2  0
 31 30  1  0
 31 26  2  0
 32 33  1  0
 33 34  1  0
 34 35  2  0
 36 35  1  0
 36 40  1  0
 37 36  2  0
 38 33  2  0
 38 37  1  0
 39 38  1  0
 41 42  1  0
 42 45  1  0
 42 44  1  0
 43 41  2  0
 46 21  1  0
 46 47  1  0
 48 46  1  0
 49 50  2  0
 49  1  1  0
 50 51  1  0
 51 52  1  0
 53 54  1  0
 53 50  1  0
 55 66  2  0
 56 54  1  0
 56 61  1  0
 57 65  1  0
 57 67  1  0
 58 64  1  0
 58 60  1  0
 59 65  1  0
 60 59  1  0
 61 60  2  0
 62 63  1  0
 62 56  2  0
 63 58  2  0
 64 57  1  0
 65 55  1  0
 67 69  2  0
 68 67  1  0
 70 68  1  0
 71 80  2  0
 71 76  1  0
 72 68  1  0
 72 76  1  0
 73 72  1  0
 74 75  1  0
 74 73  1  0
 75 71  1  0
 76 77  2  0
 77 78  1  0
 79 78  2  0
 80 79  1  0
 81 55  1  0
 81 86  1  0
 81 82  1  0
 82 85  1  1
 82 83  1  0
 84 82  1  0
 86 89  1  0
 87 91  1  0
 87 86  1  0
 88 87  2  0
 91 90  1  0
 93 91  1  0
 93 94  1  0
 93 92  1  0
M  ISO  4  11 100  19 100  53 101  54 101
M  END
>  <TORSDO>  (53) 
F 20

>  <SCORE>  (53) 
-13.385

>  <name>  (53) 
52

>  <ligand_id>  (53) 
52

>  <original_smiles>  (53) 
[H]OC(=C([H])C(=O)N([H])c1c([H])c([H])c([H])c(N([H])C(=O)N2C([H])([H])C([H])([H])C([H])([H])C([H])(n3nc(-c4c([H])c([H])c(Oc5c([H])c([H])c(F)c([H])c5F)c([H])c4[H])c(C(=O)N([H])[H])c3N([H])[H])C2([H])[H])c1[H])C([H])([H])Oc1c([H])c([H])c2c(c1[H])C([H])([H])N(C(=O)C([H])(N([H])C(=O)C([H])(N([H])C([H])([H])[H])C([H])([H])[H])C(C([H])([H])[H])(C([H])([H])[H])C([H])([H])[H])C([H])(C(=O)N([H])C1([H])c3c([H])c([H])c([H])c([H])c3C([H])([H])C([H])([H])C1([H])[H])C2([H])[H]

>  <smiles>  (53) 
[H]OC(=C([H])C(=O)N([H])c1c([H])c([H])c([H])c(N([H])C(=O)N2C([H])([H])C([H])([H])C([H])([H])C([H])(n3nc(-c4c([H])c([H])c(Oc5c([H])c([H])c(F)c([H])c5F)c([H])c4[H])c(C(=O)N([H])[H])c3N([H])[H])C2([H])[H])c1[H])C([H])([H])Oc1c([H])c([H])c2c(c1[H])C([H])([H])N(C(=O)C([H])(N([H])C(=O)C([H])(N([H])C([H])([H])[H])C([H])([H])[H])C(C([H])([H])[H])(C([H])([H])[H])C([H])([H])[H])C([H])(C(=O)N([H])C1([H])c3c([H])c([H])c([H])c([H])c3C([H])([H])C([H])([H])C1([H])[H])C2([H])[H]

$$$$
53:0:0
     RDKit          3D

 94102  0  0  1  0  0  0  0  0999 V2000
  -28.2590  -20.8200   20.0800 C   0  0  0  0  0  3  0  0  0  0  0  0
  -30.8920  -18.1250   20.3070 C   0  0  0  0  0  3  0  0  0  0  0  0
  -28.6700  -18.2320   20.4790 C   0  0  0  0  0  3  0  0  0  0  0  0
  -29.7290  -17.3210   20.4640 C   0  0  0  0  0  0  0  0  0  0  0  0
  -30.5260  -19.4570   20.1940 C   0  0  0  0  0  0  0  0  0  0  0  0
  -29.1310  -19.5710   20.3050 N   0  0  0  0  0  0  0  0  0  0  0  0
  -30.5410  -14.8070   20.2800 C   0  0  0  0  0  0  0  0  0  0  0  0
  -30.4270  -12.5510   19.2040 C   0  0  0  0  0  2  0  0  0  0  0  0
  -29.4600  -12.6460   17.9990 C   0  0  0  0  0  2  0  0  0  0  0  0
  -27.9920  -12.4610   18.4460 C   0  0  0  0  0  2  0  0  0  0  0  0
  -27.6450  -13.2970   19.7090 C   0  0  0  0  0  3  0  0  0  0  0  0
  -28.7170  -13.1280   20.8050 C   0  0  0  0  0  2  0  0  0  0  0  0
  -29.9930  -13.5440   20.2120 N   0  0  0  0  0  0  0  0  0  0  0  0
  -31.7060  -14.9930   19.9090 O   0  0  0  0  0  0  0  0  0  0  0  0
  -29.6630  -15.8410   20.5940 N   0  0  0  0  0  0  0  0  0  0  0  0
  -28.7580  -15.4880   20.8710 H   0  0  0  0  0  0  0  0  0  0  0  0
  -25.2710  -13.8750   20.4880 C   0  0  0  0  0  0  0  0  0  0  0  0
  -24.2190  -13.0950   20.8710 C   0  0  0  0  0  0  0  0  0  0  0  0
  -24.6850  -11.7440   20.8100 C   0  0  0  0  0  0  0  0  0  0  0  0
  -26.3100  -13.0010   20.2160 N   0  0  0  0  0  0  0  0  0  0  0  0
  -25.9670  -11.7120   20.4710 N   0  0  0  0  0  0  0  0  0  0  0  0
  -23.9670  -10.4780   21.0000 C   0  0  0  0  0  0  0  0  0  0  0  0
  -24.4100   -9.5120   21.9310 C   0  0  0  0  0  3  0  0  0  0  0  0
  -23.6980   -8.3070   22.1080 C   0  0  0  0  0  3  0  0  0  0  0  0
  -22.5260   -8.0600   21.3530 C   0  0  0  0  0  0  0  0  0  0  0  0
  -22.1030   -9.0140   20.4110 C   0  0  0  0  0  3  0  0  0  0  0  0
  -22.8150  -10.2110   20.2330 C   0  0  0  0  0  3  0  0  0  0  0  0
  -21.7790   -6.9110   21.4420 O   0  0  0  0  0  0  0  0  0  0  0  0
  -21.7180   -6.1800   22.6010 C   0  0  0  0  0  0  0  0  0  0  0  0
  -21.2340   -6.7330   23.8070 C   0  0  0  0  0  3  0  0  0  0  0  0
  -21.1230   -5.9270   24.9580 C   0  0  0  0  0  3  0  0  0  0  0  0
  -21.4840   -4.5670   24.9020 C   0  0  0  0  0  0  0  0  0  0  0  0
  -21.9600   -4.0130   23.7010 C   0  0  0  0  0  3  0  0  0  0  0  0
  -22.0730   -4.8160   22.5540 C   0  0  0  0  0  0  0  0  0  0  0  0
  -22.5140   -4.2730   21.3930 F   0  0  0  0  0  0  0  0  0  0  0  0
  -21.3690   -3.7890   26.0050 F   0  0  0  0  0  0  0  0  0  0  0  0
  -22.8250  -13.5610   21.1800 C   0  0  0  0  0  0  0  0  0  0  0  0
  -22.1120  -12.8480   22.0460 N   0  0  0  0  0  0  0  0  0  0  0  0
  -22.3760  -14.5960   20.6870 O   0  0  0  0  0  0  0  0  0  0  0  0
  -22.4860  -12.0120   22.4670 H   0  0  0  0  0  0  0  0  0  0  0  0
  -21.1770  -13.1430   22.2850 H   0  0  0  0  0  0  0  0  0  0  0  0
  -25.4250  -15.2500   20.3210 N   0  0  0  0  0  0  0  0  0  0  0  0
  -24.6520  -15.8900   20.4690 H   0  0  0  0  0  0  0  0  0  0  0  0
  -26.2430  -15.6960   19.9250 H   0  0  0  0  0  0  0  0  0  0  0  0
  -31.4420  -20.6330   19.9620 C   0  0  1  0  0  0  0  0  0  0  0  0
  -32.6650  -20.2310   19.6260 F   0  0  0  0  0  0  0  0  0  0  0  0
  -31.0120  -21.4190   18.9720 F   0  0  0  0  0  0  0  0  0  0  0  0
  -31.5820  -21.3700   21.0640 F   0  0  0  0  0  0  0  0  0  0  0  0
  -28.5510  -22.2930   20.7190 C   0  0  0  0  0  3  0  0  0  0  0  0
  -28.3710  -23.8200   18.6110 C   0  0  0  0  0  1  0  0  0  0  0  0
  -26.3620  -23.3260   20.0350 C   0  0  0  0  0  1  0  0  0  0  0  0
  -27.8800  -23.6410   20.0710 C   0  0  1  0  0  0  0  0  0  0  0  0
  -28.1550  -25.0580   20.8630 C   0  0  0  0  0  2  0  0  0  0  0  0
  -28.3010  -26.4260   20.2510 O   0  0  0  0  0  0  0  0  0  0  0  0
  -24.5940  -31.9200   23.2570 C   0  0  0  0  0  0  0  0  0  0  0  0
  -27.2180  -27.3160   20.2410 C   0  0  0  0  0  0  0  0  0  0  0  0
  -23.4140  -30.5120   21.6160 C   0  0  0  0  0  3  0  0  0  0  0  0
  -24.8730  -28.9500   20.2130 C   0  0  0  0  0  0  0  0  0  0  0  0
  -25.9600  -30.8210   21.4560 C   0  0  0  0  0  2  0  0  0  0  0  0
  -26.0390  -29.4340   20.8210 C   0  0  0  0  0  0  0  0  0  0  0  0
  -27.2200  -28.6260   20.8300 C   0  0  0  0  0  3  0  0  0  0  0  0
  -26.0470  -26.9150   19.5740 C   0  0  0  0  0  3  0  0  0  0  0  0
  -24.8740  -27.6940   19.5890 C   0  0  0  0  0  3  0  0  0  0  0  0
  -23.6380  -29.8290   20.2440 C   0  0  0  0  0  2  0  0  0  0  0  0
  -24.6770  -31.1010   22.1680 N   0  0  0  0  0  0  0  0  0  0  0  0
  -23.5020  -32.2010   23.7730 O   0  0  0  0  0  0  0  0  0  0  0  0
  -22.7400  -29.4980   22.5700 C   0  0  0  0  0  0  0  0  0  0  0  0
  -21.4160  -29.3180   22.4270 N   0  0  0  0  0  0  0  0  0  0  0  0
  -23.4090  -28.8730   23.3980 O   0  0  0  0  0  0  0  0  0  0  0  0
  -20.9310  -29.8680   21.7300 H   0  0  0  0  0  0  0  0  0  0  0  0
  -18.0250  -28.1610   22.9290 C   0  0  0  0  0  0  0  0  0  0  0  0
  -20.5910  -28.3820   23.1890 C   0  0  0  0  0  3  0  0  0  0  0  0
  -20.6730  -26.9560   22.5960 C   0  0  0  0  0  2  0  0  0  0  0  0
  -19.5600  -26.6580   21.5870 C   0  0  0  0  0  2  0  0  0  0  0  0
  -18.1820  -26.8150   22.2380 C   0  0  0  0  0  2  0  0  0  0  0  0
  -19.1580  -28.9010   23.3610 C   0  0  0  0  0  0  0  0  0  0  0  0
  -18.9580  -30.1630   23.9620 C   0  0  0  0  0  3  0  0  0  0  0  0
  -17.6620  -30.6780   24.1440 C   0  0  0  0  0  3  0  0  0  0  0  0
  -16.5460  -29.9330   23.7310 C   0  0  0  0  0  3  0  0  0  0  0  0
  -16.7270  -28.6760   23.1270 C   0  0  0  0  0  3  0  0  0  0  0  0
  -25.8660  -32.5620   23.8940 C   0  0  0  0  0  3  0  0  0  0  0  0
  -25.5510  -33.9670   24.1960 N   0  0  0  0  0  0  0  0  0  0  0  0
  -25.8960  -35.0050   23.4250 C   0  0  0  0  0  0  0  0  0  0  0  0
  -26.5830  -34.8860   22.4070 O   0  0  0  0  0  0  0  0  0  0  0  0
  -24.9610  -34.1390   24.9960 H   0  0  0  0  0  0  0  0  0  0  0  0
  -24.1850  -36.7960   23.0040 C   0  0  0  0  0  1  0  0  0  0  0  0
  -25.4020  -36.4000   23.8530 C   0  0  0  0  0  3  0  0  0  0  0  0
  -27.5120  -37.2910   24.7400 C   0  0  0  0  0  1  0  0  0  0  0  0
  -26.4410  -37.4480   23.7580 N   0  0  0  0  0  0  0  0  0  0  0  0
  -26.0310  -38.3680   23.8850 H   0  0  0  0  0  0  0  0  0  0  0  0
  -26.3530  -31.8120   25.1940 C   0  0  1  0  0  0  0  0  0  0  0  0
  -25.2360  -31.5930   26.2410 C   0  0  0  0  0  1  0  0  0  0  0  0
  -26.9450  -30.4280   24.8390 C   0  0  0  0  0  1  0  0  0  0  0  0
  -27.4840  -32.6200   25.8720 C   0  0  0  0  0  1  0  0  0  0  0  0
  1  6  1  0
  1 49  2  0
  2  4  1  0
  4  3  2  0
  4 15  1  0
  5  6  1  0
  5  2  2  0
  6  3  1  0
  7 15  1  0
  8 13  1  0
  9 10  1  0
  9  8  1  0
 11 10  1  0
 11 20  1  0
 11 12  1  0
 13  7  1  0
 13 12  1  0
 14  7  2  0
 15 16  1  0
 17 18  2  0
 18 37  1  0
 19 18  1  0
 19 22  1  0
 20 21  1  0
 20 17  1  0
 21 19  2  0
 22 23  1  0
 23 24  2  0
 25 28  1  0
 25 24  1  0
 26 25  2  0
 27 26  1  0
 27 22  2  0
 28 29  1  0
 29 30  1  0
 30 31  2  0
 32 31  1  0
 32 36  1  0
 33 32  2  0
 34 29  2  0
 34 33  1  0
 35 34  1  0
 37 38  1  0
 38 41  1  0
 38 40  1  0
 39 37  2  0
 42 43  1  0
 42 17  1  0
 44 42  1  0
 45  5  1  0
 45 48  1  1
 46 45  1  0
 47 45  1  0
 52 50  1  6
 51 52  1  0
 52 49  1  0
 52 53  1  0
 54 53  1  0
 55 66  2  0
 56 54  1  0
 56 61  1  0
 57 65  1  0
 57 67  1  0
 58 64  1  0
 58 60  1  0
 59 65  1  0
 60 61  2  0
 60 59  1  0
 62 63  1  0
 62 56  2  0
 63 58  2  0
 64 57  1  0
 65 55  1  0
 67 69  2  0
 68 67  1  0
 70 68  1  0
 71 80  2  0
 71 76  1  0
 72 68  1  0
 72 76  1  0
 73 72  1  0
 74 75  1  0
 74 73  1  0
 75 71  1  0
 76 77  2  0
 77 78  1  0
 79 78  2  0
 80 79  1  0
 81 55  1  0
 81 82  1  0
 81 91  1  0
 82 85  1  0
 83 87  1  0
 83 82  1  0
 84 83  2  0
 87 86  1  0
 89 87  1  0
 89 90  1  0
 89 88  1  0
 91 94  1  1
 91 92  1  0
 93 91  1  0
M  ISO  4   7 100  15 100  53 101  54 101
M  END
>  <TORSDO>  (54) 
F 21

>  <SCORE>  (54) 
-13.884

>  <name>  (54) 
53

>  <ligand_id>  (54) 
53

>  <original_smiles>  (54) 
[H]c1c([H])c([H])c2c(c1[H])C([H])([H])C([H])([H])C([H])([H])C2([H])N([H])C(=O)C1([H])N(C(=O)C([H])(N([H])C(=O)C([H])(N([H])C([H])([H])[H])C([H])([H])[H])C(C([H])([H])[H])(C([H])([H])[H])C([H])([H])[H])C([H])([H])c2c([H])c(OC([H])([H])C(C([H])([H])[H])(C([H])([H])[H])C([H])([H])C([H])([H])n3c([H])c(N([H])C(=O)N4C([H])([H])C([H])([H])C([H])([H])C([H])(n5nc(-c6c([H])c([H])c(Oc7c([H])c([H])c(F)c([H])c7F)c([H])c6[H])c(C(=O)N([H])[H])c5N([H])[H])C4([H])[H])c([H])c3C(F)(F)F)c([H])c([H])c2C1([H])[H]

>  <smiles>  (54) 
[H]c1c([H])c([H])c2c(c1[H])C([H])([H])C([H])([H])C([H])([H])C2([H])N([H])C(=O)C1([H])N(C(=O)C([H])(N([H])C(=O)C([H])(N([H])C([H])([H])[H])C([H])([H])[H])C(C([H])([H])[H])(C([H])([H])[H])C([H])([H])[H])C([H])([H])c2c([H])c(OC([H])([H])C(C([H])([H])[H])(C([H])([H])[H])C([H])([H])C([H])([H])n3c([H])c(N([H])C(=O)N4C([H])([H])C([H])([H])C([H])([H])C([H])(n5nc(-c6c([H])c([H])c(Oc7c([H])c([H])c(F)c([H])c7F)c([H])c6[H])c(C(=O)N([H])[H])c5N([H])[H])C4([H])[H])c([H])c3C(F)(F)F)c([H])c([H])c2C1([H])[H]

$$$$
54:0:0
     RDKit          3D

 96104  0  0  1  0  0  0  0  0999 V2000
  -29.4870  -18.7640   20.4550 C   0  0  0  0  0  3  0  0  0  0  0  0
  -31.3210  -17.7860   21.7120 C   0  0  0  0  0  3  0  0  0  0  0  0
  -30.2020  -17.5590   20.8750 C   0  0  0  0  0  0  0  0  0  0  0  0
  -29.8640  -20.1280   20.8250 C   0  0  0  0  0  0  0  0  0  0  0  0
  -31.0070  -20.2370   21.6720 C   0  0  0  0  0  0  0  0  0  0  0  0
  -31.7040  -19.0850   22.1050 C   0  0  0  0  0  0  0  0  0  0  0  0
  -32.7880  -19.2380   22.9100 F   0  0  0  0  0  0  0  0  0  0  0  0
  -30.5720  -14.9950   20.3620 C   0  0  0  0  0  0  0  0  0  0  0  0
  -30.3910  -12.6830   19.3780 C   0  0  0  0  0  2  0  0  0  0  0  0
  -29.4510  -12.6790   18.1490 C   0  0  0  0  0  2  0  0  0  0  0  0
  -27.9910  -12.4700   18.5970 C   0  0  0  0  0  2  0  0  0  0  0  0
  -27.5940  -13.3930   19.7800 C   0  0  0  0  0  3  0  0  0  0  0  0
  -28.6590  -13.3900   20.9010 C   0  0  0  0  0  2  0  0  0  0  0  0
  -29.9400  -13.7670   20.2850 N   0  0  0  0  0  0  0  0  0  0  0  0
  -31.7610  -15.0840   20.0310 O   0  0  0  0  0  0  0  0  0  0  0  0
  -29.8080  -16.1460   20.5690 N   0  0  0  0  0  0  0  0  0  0  0  0
  -28.8120  -15.9820   20.5590 H   0  0  0  0  0  0  0  0  0  0  0  0
  -25.2220  -13.9620   20.5770 C   0  0  0  0  0  0  0  0  0  0  0  0
  -24.1640  -13.1780   20.9480 C   0  0  0  0  0  0  0  0  0  0  0  0
  -24.6280  -11.8270   20.8780 C   0  0  0  0  0  0  0  0  0  0  0  0
  -26.2580  -13.0900   20.2880 N   0  0  0  0  0  0  0  0  0  0  0  0
  -25.9100  -11.7990   20.5330 N   0  0  0  0  0  0  0  0  0  0  0  0
  -23.9040  -10.5630   21.0700 C   0  0  0  0  0  0  0  0  0  0  0  0
  -24.3500   -9.5850   21.9880 C   0  0  0  0  0  3  0  0  0  0  0  0
  -23.6290   -8.3840   22.1630 C   0  0  0  0  0  3  0  0  0  0  0  0
  -22.4460   -8.1530   21.4200 C   0  0  0  0  0  0  0  0  0  0  0  0
  -22.0190   -9.1200   20.4920 C   0  0  0  0  0  3  0  0  0  0  0  0
  -22.7410  -10.3110   20.3170 C   0  0  0  0  0  3  0  0  0  0  0  0
  -21.6940   -7.0050   21.5010 O   0  0  0  0  0  0  0  0  0  0  0  0
  -21.6590   -6.2530   22.6460 C   0  0  0  0  0  0  0  0  0  0  0  0
  -21.1780   -6.7760   23.8670 C   0  0  0  0  0  3  0  0  0  0  0  0
  -21.0890   -5.9450   25.0020 C   0  0  0  0  0  3  0  0  0  0  0  0
  -21.4640   -4.5910   24.9190 C   0  0  0  0  0  0  0  0  0  0  0  0
  -21.9380   -4.0680   23.7030 C   0  0  0  0  0  3  0  0  0  0  0  0
  -22.0300   -4.8960   22.5700 C   0  0  0  0  0  0  0  0  0  0  0  0
  -22.4650   -4.3790   21.3970 F   0  0  0  0  0  0  0  0  0  0  0  0
  -21.3740   -3.7930   26.0080 F   0  0  0  0  0  0  0  0  0  0  0  0
  -22.7710  -13.6500   21.2530 C   0  0  0  0  0  0  0  0  0  0  0  0
  -22.0540  -12.9440   22.1200 N   0  0  0  0  0  0  0  0  0  0  0  0
  -22.3220  -14.6840   20.7580 O   0  0  0  0  0  0  0  0  0  0  0  0
  -22.4250  -12.1130   22.5540 H   0  0  0  0  0  0  0  0  0  0  0  0
  -21.1220  -13.2490   22.3600 H   0  0  0  0  0  0  0  0  0  0  0  0
  -25.3760  -15.3380   20.4350 N   0  0  0  0  0  0  0  0  0  0  0  0
  -24.6090  -15.9780   20.6070 H   0  0  0  0  0  0  0  0  0  0  0  0
  -26.2130  -15.7960   20.1010 H   0  0  0  0  0  0  0  0  0  0  0  0
  -28.8280  -22.5450   20.8830 C   0  0  0  0  0  0  0  0  0  0  0  0
  -29.2570  -21.3770   20.2630 N   0  0  0  0  0  0  0  0  0  0  0  0
  -28.5910  -22.5700   22.0970 O   0  0  0  0  0  0  0  0  0  0  0  0
  -29.3030  -21.4570   19.2520 H   0  0  0  0  0  0  0  0  0  0  0  0
  -28.6150  -23.9020   19.9730 C   0  0  0  0  0  0  0  0  0  0  0  0
  -29.0650  -23.9490   18.8190 O   0  0  0  0  0  0  0  0  0  0  0  0
  -27.8280  -25.1780   20.5640 C   0  0  0  0  0  2  0  0  0  0  0  0
  -28.0090  -26.5390   19.9320 O   0  0  0  0  0  0  0  0  0  0  0  0
  -24.4840  -31.9890   23.1980 C   0  0  0  0  0  0  0  0  0  0  0  0
  -26.9180  -27.4350   19.9710 C   0  0  0  0  0  0  0  0  0  0  0  0
  -23.1950  -30.6360   21.5830 C   0  0  0  0  0  3  0  0  0  0  0  0
  -24.5740  -29.0980   20.0630 C   0  0  0  0  0  0  0  0  0  0  0  0
  -25.7280  -30.9360   21.2890 C   0  0  0  0  0  2  0  0  0  0  0  0
  -25.7750  -29.5620   20.6190 C   0  0  0  0  0  0  0  0  0  0  0  0
  -26.9500  -28.7460   20.5600 C   0  0  0  0  0  3  0  0  0  0  0  0
  -25.7000  -27.0370   19.3830 C   0  0  0  0  0  3  0  0  0  0  0  0
  -24.5420  -27.8440   19.4310 C   0  0  0  0  0  3  0  0  0  0  0  0
  -23.3440  -29.9800   20.1850 C   0  0  0  0  0  2  0  0  0  0  0  0
  -24.4920  -31.2010   22.0820 N   0  0  0  0  0  0  0  0  0  0  0  0
  -23.4280  -32.2650   23.7860 O   0  0  0  0  0  0  0  0  0  0  0  0
  -22.5620  -29.6090   22.5540 C   0  0  0  0  0  0  0  0  0  0  0  0
  -21.2370  -29.4090   22.4470 N   0  0  0  0  0  0  0  0  0  0  0  0
  -23.2630  -28.9920   23.3590 O   0  0  0  0  0  0  0  0  0  0  0  0
  -20.7250  -29.9540   21.7670 H   0  0  0  0  0  0  0  0  0  0  0  0
  -17.8970  -28.1200   22.9660 C   0  0  0  0  0  0  0  0  0  0  0  0
  -20.4490  -28.4540   23.2280 C   0  0  0  0  0  3  0  0  0  0  0  0
  -20.5920  -27.0220   22.6640 C   0  0  0  0  0  2  0  0  0  0  0  0
  -19.4980  -26.6600   21.6560 C   0  0  0  0  0  2  0  0  0  0  0  0
  -18.1120  -26.7700   22.3020 C   0  0  0  0  0  2  0  0  0  0  0  0
  -18.9940  -28.9160   23.3890 C   0  0  0  0  0  0  0  0  0  0  0  0
  -18.7410  -30.1770   23.9730 C   0  0  0  0  0  3  0  0  0  0  0  0
  -17.4230  -30.6410   24.1400 C   0  0  0  0  0  3  0  0  0  0  0  0
  -16.3400  -29.8420   23.7370 C   0  0  0  0  0  3  0  0  0  0  0  0
  -16.5780  -28.5850   23.1520 C   0  0  0  0  0  3  0  0  0  0  0  0
  -25.7980  -32.5960   23.7760 C   0  0  0  0  0  3  0  0  0  0  0  0
  -26.3540  -31.8040   25.0240 C   0  0  1  0  0  0  0  0  0  0  0  0
  -25.2970  -31.5710   26.1300 C   0  0  0  0  0  1  0  0  0  0  0  0
  -26.8970  -30.4200   24.5960 C   0  0  0  0  0  1  0  0  0  0  0  0
  -27.5420  -32.5700   25.6490 C   0  0  0  0  0  1  0  0  0  0  0  0
  -25.5230  -33.9960   24.1340 N   0  0  0  0  0  0  0  0  0  0  0  0
  -25.8520  -35.0550   23.3800 C   0  0  0  0  0  0  0  0  0  0  0  0
  -26.4900  -34.9540   22.3280 O   0  0  0  0  0  0  0  0  0  0  0  0
  -24.9500  -34.1500   24.9510 H   0  0  0  0  0  0  0  0  0  0  0  0
  -24.1860  -36.9130   23.0630 C   0  0  0  0  0  1  0  0  0  0  0  0
  -25.4060  -36.4450   23.8720 C   0  0  0  0  0  3  0  0  0  0  0  0
  -27.5570  -37.2450   24.7450 C   0  0  0  0  0  1  0  0  0  0  0  0
  -26.4720  -37.4670   23.7940 N   0  0  0  0  0  0  0  0  0  0  0  0
  -26.0910  -38.3960   23.9570 H   0  0  0  0  0  0  0  0  0  0  0  0
  -31.5050  -21.4750   22.0950 N   0  0  0  0  0  0  0  0  0  0  0  0
  -30.7840  -22.1100   22.4210 H   0  0  0  0  0  0  0  0  0  0  0  0
  -32.2500  -21.3930   22.7830 H   0  0  0  0  0  0  0  0  0  0  0  0
  1  4  2  0
  1  3  1  0
  2  6  1  0
  3  2  2  0
  4  5  1  0
  5 94  1  0
  5  6  2  0
  6  7  1  0
  8 16  1  0
  9 14  1  0
 10 11  1  0
 10  9  1  0
 12 11  1  0
 12 21  1  0
 12 13  1  0
 14  8  1  0
 14 13  1  0
 15  8  2  0
 16  3  1  0
 17 16  1  0
 18 19  2  0
 19 38  1  0
 20 19  1  0
 20 23  1  0
 21 22  1  0
 21 18  1  0
 22 20  2  0
 23 24  1  0
 24 25  2  0
 26 29  1  0
 26 25  1  0
 27 26  2  0
 28 27  1  0
 28 23  2  0
 29 30  1  0
 30 31  1  0
 31 32  2  0
 33 32  1  0
 33 37  1  0
 34 33  2  0
 35 30  2  0
 35 34  1  0
 36 35  1  0
 38 39  1  0
 39 42  1  0
 39 41  1  0
 40 38  2  0
 43 18  1  0
 43 44  1  0
 45 43  1  0
 46 48  2  0
 47  4  1  0
 47 46  1  0
 49 47  1  0
 50 52  1  0
 50 46  1  0
 51 50  2  0
 53 55  1  0
 53 52  1  0
 54 65  2  0
 55 60  1  0
 56 64  1  0
 56 66  1  0
 57 63  1  0
 57 59  1  0
 58 64  1  0
 59 58  1  0
 60 59  2  0
 61 62  1  0
 61 55  2  0
 62 57  2  0
 63 56  1  0
 64 54  1  0
 66 68  2  0
 67 66  1  0
 69 67  1  0
 70 79  2  0
 70 75  1  0
 71 67  1  0
 71 75  1  0
 72 71  1  0
 73 74  1  0
 73 72  1  0
 74 70  1  0
 75 76  2  0
 76 77  1  0
 78 77  2  0
 79 78  1  0
 80 54  1  0
 80 85  1  0
 80 81  1  0
 81 84  1  1
 81 82  1  0
 83 81  1  0
 85 88  1  0
 86 90  1  0
 86 85  1  0
 87 86  2  0
 90 89  1  0
 92 90  1  0
 92 93  1  0
 92 91  1  0
 94 95  1  0
 94 96  1  0
M  ISO  4   8 100  16 100  52 101  53 101
M  END
>  <TORSDO>  (55) 
F 20

>  <SCORE>  (55) 
-14.145

>  <name>  (55) 
54

>  <ligand_id>  (55) 
54

>  <original_smiles>  (55) 
[H]c1c([H])c([H])c2c(c1[H])C([H])([H])C([H])([H])C([H])([H])C2([H])N([H])C(=O)C1([H])N(C(=O)C([H])(N([H])C(=O)C([H])(N([H])C([H])([H])[H])C([H])([H])[H])C(C([H])([H])[H])(C([H])([H])[H])C([H])([H])[H])C([H])([H])c2c([H])c(OC([H])([H])C(=O)C(=O)N([H])c3c([H])c(N([H])C(=O)N4C([H])([H])C([H])([H])C([H])([H])C([H])(n5nc(-c6c([H])c([H])c(Oc7c([H])c([H])c(F)c([H])c7F)c([H])c6[H])c(C(=O)N([H])[H])c5N([H])[H])C4([H])[H])c([H])c(F)c3N([H])[H])c([H])c([H])c2C1([H])[H]

>  <smiles>  (55) 
[H]c1c([H])c([H])c2c(c1[H])C([H])([H])C([H])([H])C([H])([H])C2([H])N([H])C(=O)C1([H])N(C(=O)C([H])(N([H])C(=O)C([H])(N([H])C([H])([H])[H])C([H])([H])[H])C(C([H])([H])[H])(C([H])([H])[H])C([H])([H])[H])C([H])([H])c2c([H])c(OC([H])([H])C(=O)C(=O)N([H])c3c([H])c(N([H])C(=O)N4C([H])([H])C([H])([H])C([H])([H])C([H])(n5nc(-c6c([H])c([H])c(Oc7c([H])c([H])c(F)c([H])c7F)c([H])c6[H])c(C(=O)N([H])[H])c5N([H])[H])C4([H])[H])c([H])c(F)c3N([H])[H])c([H])c([H])c2C1([H])[H]

$$$$
55:0:0
     RDKit          3D

 97 99  0  0  1  0  0  0  0  0999 V2000
  -29.6860  -20.8300   17.0880 C   0  0  0  0  0  0  0  0  0  0  0  0
  -30.4540  -21.6270   15.8610 N   0  0  0  0  0  0  0  0  0  0  0  0
  -29.1410  -19.8150   16.6600 O   0  0  0  0  0  0  0  0  0  0  0  0
  -31.0360  -22.3220   16.3130 H   0  0  0  0  0  0  0  0  0  0  0  0
  -29.3420  -21.1710   18.9550 C   0  0  0  0  0  1  0  0  0  0  0  0
  -28.2070  -22.6760   19.7290 C   0  0  0  0  0  1  0  0  0  0  0  0
  -27.5360  -22.9020   20.9020 O   0  0  0  0  0  0  0  0  0  0  0  0
  -27.7150  -22.1510   21.4610 H   0  0  0  0  0  0  0  0  0  0  0  0
  -27.6560  -24.3430   18.7110 C   0  0  0  0  0  1  0  0  0  0  0  0
  -27.2870  -26.1380   19.0460 O   0  0  0  0  0  0  0  0  0  0  0  0
  -22.3110  -27.6890   20.7980 C   0  0  0  0  0  0  0  0  0  0  0  0
  -27.8880  -27.3170   19.6710 C   0  0  0  0  0  3  0  0  0  0  0  0
  -23.5260  -27.2790   18.7270 C   0  0  0  0  0  3  0  0  0  0  0  0
  -25.8780  -28.3370   18.4790 C   0  0  0  0  0  3  0  0  0  0  0  0
  -24.5290  -28.7950   20.5170 C   0  0  0  0  0  2  0  0  0  0  0  0
  -25.8470  -28.4410   19.8700 C   0  0  0  0  0  3  0  0  0  0  0  0
  -27.0200  -28.0560   20.5390 C   0  0  0  0  0  2  0  0  0  0  0  0
  -28.3020  -28.0370   18.5900 C   0  0  0  0  0  2  0  0  0  0  0  0
  -27.1550  -28.3340   17.8340 C   0  0  0  0  0  2  0  0  0  0  0  0
  -24.5490  -28.0530   17.8140 C   0  0  0  0  0  2  0  0  0  0  0  0
  -23.4000  -27.9620   20.0380 N   0  0  0  0  0  0  0  0  0  0  0  0
  -21.3890  -26.9750   20.3760 O   0  0  0  0  0  0  0  0  0  0  0  0
  -23.8340  -25.7960   19.0870 C   0  0  0  0  0  0  0  0  0  0  0  0
  -23.1670  -25.1420   19.9950 N   0  0  0  0  0  0  0  0  0  0  0  0
  -24.8060  -25.2140   18.6370 O   0  0  0  0  0  0  0  0  0  0  0  0
  -22.3910  -25.5870   20.4620 H   0  0  0  0  0  0  0  0  0  0  0  0
  -20.7740  -23.1150   18.0450 C   0  0  0  0  0  0  0  0  0  0  0  0
  -23.2050  -23.6450   20.0050 C   0  0  0  0  0  2  0  0  0  0  0  0
  -24.9860  -22.8380   18.8360 C   0  0  0  0  0 15  0  0  0  0  0  0
  -23.9860  -22.2590   16.3030 C   0  0  0  0  0 15  0  0  0  0  0  0
  -21.7350  -22.4870   16.4760 C   0  0  0  0  0  1  0  0  0  0  0  0
  -21.4060  -23.6120   19.4300 C   0  0  0  0  0  0  0  0  0  0  0  0
  -20.4770  -24.3520   20.2950 C   0  0  0  0  0  3  0  0  0  0  0  0
  -19.0740  -24.5210   20.1280 C   0  0  0  0  0  3  0  0  0  0  0  0
  -18.4710  -23.8990   19.0310 C   0  0  0  0  0  3  0  0  0  0  0  0
  -19.2980  -23.2460   18.0470 C   0  0  0  0  0  3  0  0  0  0  0  0
  -22.1730  -28.2850   22.2200 C   0  0  0  0  0  3  0  0  0  0  0  0
  -22.8360  -27.3950   23.3390 C   0  0  1  0  0  0  0  0  0  0  0  0
  -22.6260  -25.8770   23.1380 C   0  0  0  0  0  1  0  0  0  0  0  0
  -24.3590  -27.6480   23.4260 C   0  0  0  0  0  1  0  0  0  0  0  0
  -22.2490  -27.7890   24.7130 C   0  0  0  0  0  1  0  0  0  0  0  0
  -20.7350  -28.4380   22.4520 N   0  0  0  0  0  0  0  0  0  0  0  0
  -20.1880  -29.4520   23.1330 C   0  0  0  0  0  0  0  0  0  0  0  0
  -20.8600  -30.3080   23.7160 O   0  0  0  0  0  0  0  0  0  0  0  0
  -20.1250  -27.8070   21.9530 H   0  0  0  0  0  0  0  0  0  0  0  0
  -18.2100  -30.4400   24.3280 C   0  0  0  0  0  1  0  0  0  0  0  0
  -18.6510  -29.5150   23.1830 C   0  0  0  0  0  3  0  0  0  0  0  0
  -16.9100  -27.9660   22.4140 C   0  0  0  0  0  1  0  0  0  0  0  0
  -18.0180  -28.1880   23.3400 N   0  0  0  0  0  0  0  0  0  0  0  0
  -17.6690  -28.0660   24.2870 H   0  0  0  0  0  0  0  0  0  0  0  0
  -29.3430  -21.2330   13.5400 C   0  0  0  0  0  1  0  0  0  0  0  0
  -30.6140  -21.9690   13.9870 C   0  0  0  0  0  2  0  0  0  0  0  0
  -29.9310  -26.5470    6.8990 C   0  0  0  0  0  0  0  0  0  0  0  0
  -28.7020  -27.2900    4.5120 C   0  0  0  0  0  2  0  0  0  0  0  0
  -27.1460  -27.0830    4.4550 C   0  0  0  0  0  2  0  0  0  0  0  0
  -26.7860  -25.5870    4.3790 C   0  0  0  0  0  2  0  0  0  0  0  0
  -27.7640  -24.7880    5.2620 C   0  0  0  0  0  3  0  0  0  0  0  0
  -29.2270  -25.0620    4.9540 C   0  0  0  0  0  2  0  0  0  0  0  0
  -29.3760  -26.3460    5.5540 N   0  0  0  0  0  0  0  0  0  0  0  0
  -30.2530  -27.7790    6.8210 O   0  0  0  0  0  0  0  0  0  0  0  0
  -30.1950  -23.7220   10.9880 C   0  0  0  0  0  3  0  0  0  0  0  0
  -32.0490  -25.3500   11.6470 C   0  0  0  0  0  3  0  0  0  0  0  0
  -30.8080  -23.3030   12.5020 C   0  0  0  0  0  3  0  0  0  0  0  0
  -31.7900  -24.3250   12.6400 C   0  0  0  0  0  0  0  0  0  0  0  0
  -30.4680  -24.9160    9.8330 C   0  0  0  0  0  0  0  0  0  0  0  0
  -31.4710  -25.6340   10.4140 N   0  0  0  0  0  0  0  0  0  0  0  0
  -29.9400  -25.4770    8.1650 N   0  0  0  0  0  0  0  0  0  0  0  0
  -32.5420  -24.3310   13.7670 F   0  0  0  0  0  0  0  0  0  0  0  0
  -29.3730  -24.7180    7.8050 H   0  0  0  0  0  0  0  0  0  0  0  0
  -26.3950  -22.7130    5.4640 C   0  0  0  0  0  0  0  0  0  0  0  0
  -26.7330  -21.3970    5.4040 C   0  0  0  0  0  0  0  0  0  0  0  0
  -28.1520  -21.3570    5.2330 C   0  0  0  0  0  0  0  0  0  0  0  0
  -27.5860  -23.3830    5.2850 N   0  0  0  0  0  0  0  0  0  0  0  0
  -28.6620  -22.5760    5.2370 N   0  0  0  0  0  0  0  0  0  0  0  0
  -29.0530  -20.2350    4.9850 C   0  0  0  0  0  0  0  0  0  0  0  0
  -29.7080  -20.0750    3.7440 C   0  0  0  0  0  3  0  0  0  0  0  0
  -30.5850  -18.9890    3.5400 C   0  0  0  0  0  3  0  0  0  0  0  0
  -30.8090  -18.0570    4.5810 C   0  0  0  0  0  0  0  0  0  0  0  0
  -30.1300  -18.2070    5.8030 C   0  0  0  0  0  3  0  0  0  0  0  0
  -29.2540  -19.2850    6.0030 C   0  0  0  0  0  3  0  0  0  0  0  0
  -31.6280  -16.9610    4.4720 O   0  0  0  0  0  0  0  0  0  0  0  0
  -31.2210  -15.8230    3.8230 C   0  0  0  0  0  0  0  0  0  0  0  0
  -30.4760  -14.8180    4.4770 C   0  0  0  0  0  3  0  0  0  0  0  0
  -30.0230  -13.6960    3.7550 C   0  0  0  0  0  3  0  0  0  0  0  0
  -30.3000  -13.5860    2.3780 C   0  0  0  0  0  0  0  0  0  0  0  0
  -31.0340  -14.5910    1.7240 C   0  0  0  0  0  3  0  0  0  0  0  0
  -31.4920  -15.7070    2.4460 C   0  0  0  0  0  0  0  0  0  0  0  0
  -32.1840  -16.6820    1.8070 F   0  0  0  0  0  0  0  0  0  0  0  0
  -29.8560  -12.5130    1.6810 F   0  0  0  0  0  0  0  0  0  0  0  0
  -25.7740  -20.2510    5.3840 C   0  0  0  0  0  0  0  0  0  0  0  0
  -25.6430  -19.5570    6.5060 N   0  0  0  0  0  0  0  0  0  0  0  0
  -25.1050  -19.9990    4.3810 O   0  0  0  0  0  0  0  0  0  0  0  0
  -26.1820  -19.7880    7.3280 H   0  0  0  0  0  0  0  0  0  0  0  0
  -24.9940  -18.7850    6.5490 H   0  0  0  0  0  0  0  0  0  0  0  0
  -25.1880  -23.4030    5.6140 N   0  0  0  0  0  0  0  0  0  0  0  0
  -24.3720  -22.8020    5.5540 H   0  0  0  0  0  0  0  0  0  0  0  0
  -25.0780  -24.1950    4.9940 H   0  0  0  0  0  0  0  0  0  0  0  0
  1  5  1  0
  2  4  1  0
  2  1  1  0
  3  1  2  0
  6  7  1  0
  7  8  1  0
  9 10  1  0
 12 10  1  0
 12 17  1  0
 13 23  1  0
 13 21  1  0
 14 20  1  0
 14 16  1  0
 16 15  1  0
 16 17  1  0
 18 12  1  0
 19 14  1  0
 19 18  1  0
 20 13  1  0
 21 15  1  0
 21 11  1  0
 22 11  2  0
 23 24  1  0
 24 28  1  0
 24 26  1  0
 25 23  2  0
 27 36  2  0
 27 32  1  0
 31 27  1  0
 32 28  1  0
 32 33  2  0
 34 33  1  0
 35 34  2  0
 36 35  1  0
 37 11  1  0
 37 42  1  0
 37 38  1  0
 38 40  1  1
 38 41  1  0
 39 38  1  0
 42 43  1  0
 43 47  1  0
 43 44  2  0
 45 42  1  0
 47 49  1  0
 47 46  1  0
 48 49  1  0
 49 50  1  0
 51 52  1  0
 52  2  1  0
 53 67  1  0
 54 59  1  0
 55 54  1  0
 56 55  1  0
 57 56  1  0
 57 73  1  0
 58 57  1  0
 58 59  1  0
 59 53  1  0
 60 53  2  0
 61 63  1  0
 62 64  1  0
 63 64  2  0
 64 68  1  0
 65 66  1  0
 65 61  2  0
 66 62  2  0
 67 65  1  0
 69 67  1  0
 70 95  1  0
 71 70  2  0
 72 74  2  0
 72 71  1  0
 73 70  1  0
 74 73  1  0
 75 72  1  0
 75 80  1  0
 76 75  2  0
 77 76  1  0
 77 78  2  0
 78 79  1  0
 79 80  2  0
 81 78  1  0
 82 81  1  0
 82 83  1  0
 84 83  2  0
 85 84  1  0
 86 85  2  0
 86 87  1  0
 87 82  2  0
 88 87  1  0
 89 85  1  0
 90 71  1  0
 90 91  1  0
 91 94  1  0
 91 93  1  0
 92 90  2  0
 96 95  1  0
 97 95  1  0
M  ISO  4   9 101  10 101  53 100  67 100
M  END
>  <TORSDO>  (56) 
F 20

>  <SCORE>  (56) 
-4.378

>  <name>  (56) 
55

>  <ligand_id>  (56) 
55

>  <original_smiles>  (56) 
[H]OC(=C([H])C(=O)N([H])C([H])(c1c([H])c(N([H])C(=O)N2C([H])([H])C([H])([H])C([H])([H])C([H])(n3nc(-c4c([H])c([H])c(Oc5c([H])c([H])c(F)c([H])c5F)c([H])c4[H])c(C(=O)N([H])[H])c3N([H])[H])C2([H])[H])nc([H])c1F)C([H])([H])[H])C([H])([H])Oc1c([H])c([H])c2c(c1[H])C([H])([H])N(C(=O)C([H])(N([H])C(=O)C([H])(N([H])C([H])([H])[H])C([H])([H])[H])C(C([H])([H])[H])(C([H])([H])[H])C([H])([H])[H])C([H])(C(=O)N([H])C1([H])c3c([H])c([H])c([H])c([H])c3C([H])([H])C([H])([H])C1([H])[H])C2([H])[H]

>  <smiles>  (56) 
[H]OC(=C([H])C(=O)N([H])C([H])(c1c([H])c(N([H])C(=O)N2C([H])([H])C([H])([H])C([H])([H])C([H])(n3nc(-c4c([H])c([H])c(Oc5c([H])c([H])c(F)c([H])c5F)c([H])c4[H])c(C(=O)N([H])[H])c3N([H])[H])C2([H])[H])nc([H])c1F)C([H])([H])[H])C([H])([H])Oc1c([H])c([H])c2c(c1[H])C([H])([H])N(C(=O)C([H])(N([H])C(=O)C([H])(N([H])C([H])([H])[H])C([H])([H])[H])C(C([H])([H])[H])(C([H])([H])[H])C([H])([H])[H])C([H])(C(=O)N([H])C1([H])c3c([H])c([H])c([H])c([H])c3C([H])([H])C([H])([H])C1([H])[H])C2([H])[H]

$$$$
56:0:0
     RDKit          3D

 90 98  0  0  1  0  0  0  0  0999 V2000
  -28.6040  -22.2330   20.5580 C   0  0  0  0  0  2  0  0  0  0  0  0
  -31.5560  -17.7960   20.0840 C   0  0  0  0  0  3  0  0  0  0  0  0
  -30.2790  -17.4280   20.4410 C   0  0  0  0  0  0  0  0  0  0  0  0
  -30.1030  -19.8170   20.3780 C   0  0  0  0  0  0  0  0  0  0  0  0
  -29.4510  -18.6210   20.5950 N   0  0  0  0  0  0  0  0  0  0  0  0
  -29.7160  -21.2130   20.4090 N   0  0  0  0  0  0  0  0  0  0  0  0
  -31.7870  -19.5250   19.9590 S   0  0  0  0  0  0  0  0  0  0  0  0
  -30.5550  -21.7670   20.2490 H   0  0  0  0  0  0  0  0  0  0  0  0
  -30.6090  -14.8200   20.3880 C   0  0  0  0  0  0  0  0  0  0  0  0
  -30.3750  -12.5440   19.3840 C   0  0  0  0  0  2  0  0  0  0  0  0
  -29.4440  -12.6220   18.1550 C   0  0  0  0  0  2  0  0  0  0  0  0
  -27.9770  -12.4380   18.5860 C   0  0  0  0  0  2  0  0  0  0  0  0
  -27.5980  -13.3210   19.8050 C   0  0  0  0  0  3  0  0  0  0  0  0
  -28.6580  -13.2560   20.9270 C   0  0  0  0  0  2  0  0  0  0  0  0
  -29.9520  -13.6090   20.3280 N   0  0  0  0  0  0  0  0  0  0  0  0
  -31.8010  -14.8510   20.0660 O   0  0  0  0  0  0  0  0  0  0  0  0
  -29.8850  -15.9940   20.6030 N   0  0  0  0  0  0  0  0  0  0  0  0
  -28.9200  -15.8450   20.8450 H   0  0  0  0  0  0  0  0  0  0  0  0
  -25.2090  -13.8880   20.5410 C   0  0  0  0  0  0  0  0  0  0  0  0
  -24.1490  -13.1050   20.9080 C   0  0  0  0  0  0  0  0  0  0  0  0
  -24.6170  -11.7570   20.8650 C   0  0  0  0  0  0  0  0  0  0  0  0
  -26.2580  -13.0180   20.2960 N   0  0  0  0  0  0  0  0  0  0  0  0
  -25.9090  -11.7290   20.5540 N   0  0  0  0  0  0  0  0  0  0  0  0
  -23.8950  -10.4900   21.0450 C   0  0  0  0  0  0  0  0  0  0  0  0
  -24.3160   -9.5280   21.9890 C   0  0  0  0  0  3  0  0  0  0  0  0
  -23.5960   -8.3260   22.1570 C   0  0  0  0  0  3  0  0  0  0  0  0
  -22.4390   -8.0770   21.3800 C   0  0  0  0  0  0  0  0  0  0  0  0
  -22.0360   -9.0290   20.4260 C   0  0  0  0  0  3  0  0  0  0  0  0
  -22.7570  -10.2230   20.2560 C   0  0  0  0  0  3  0  0  0  0  0  0
  -21.6880   -6.9290   21.4570 O   0  0  0  0  0  0  0  0  0  0  0  0
  -21.6010   -6.2040   22.6190 C   0  0  0  0  0  0  0  0  0  0  0  0
  -21.0730   -6.7580   23.8050 C   0  0  0  0  0  3  0  0  0  0  0  0
  -20.9370   -5.9560   24.9570 C   0  0  0  0  0  3  0  0  0  0  0  0
  -21.3190   -4.6020   24.9210 C   0  0  0  0  0  0  0  0  0  0  0  0
  -21.8390   -4.0460   23.7390 C   0  0  0  0  0  3  0  0  0  0  0  0
  -21.9760   -4.8460   22.5890 C   0  0  0  0  0  0  0  0  0  0  0  0
  -22.4590   -4.3000   21.4470 F   0  0  0  0  0  0  0  0  0  0  0  0
  -21.1790   -3.8290   26.0230 F   0  0  0  0  0  0  0  0  0  0  0  0
  -22.7490  -13.5750   21.1840 C   0  0  0  0  0  0  0  0  0  0  0  0
  -22.0220  -12.8710   22.0430 N   0  0  0  0  0  0  0  0  0  0  0  0
  -22.3100  -14.6060   20.6760 O   0  0  0  0  0  0  0  0  0  0  0  0
  -22.3890  -12.0380   22.4790 H   0  0  0  0  0  0  0  0  0  0  0  0
  -21.0850  -13.1700   22.2710 H   0  0  0  0  0  0  0  0  0  0  0  0
  -25.3660  -15.2610   20.3740 N   0  0  0  0  0  0  0  0  0  0  0  0
  -24.5870  -15.9010   20.4830 H   0  0  0  0  0  0  0  0  0  0  0  0
  -26.1970  -15.7100   20.0150 H   0  0  0  0  0  0  0  0  0  0  0  0
  -28.9870  -23.7910   20.4130 C   0  0  0  0  0  0  0  0  0  0  0  0
  -30.1710  -24.0860   20.2100 O   0  0  0  0  0  0  0  0  0  0  0  0
  -27.8730  -24.9390   20.5130 C   0  0  0  0  0  2  0  0  0  0  0  0
  -28.2430  -26.3930   20.3080 O   0  0  0  0  0  0  0  0  0  0  0  0
  -24.5900  -31.9270   23.3010 C   0  0  0  0  0  0  0  0  0  0  0  0
  -27.1700  -27.3180   20.2460 C   0  0  0  0  0  0  0  0  0  0  0  0
  -23.3840  -30.5410   21.6540 C   0  0  0  0  0  3  0  0  0  0  0  0
  -24.8290  -28.9900   20.2220 C   0  0  0  0  0  0  0  0  0  0  0  0
  -25.9310  -30.8340   21.4820 C   0  0  0  0  0  2  0  0  0  0  0  0
  -26.0030  -29.4540   20.8290 C   0  0  0  0  0  0  0  0  0  0  0  0
  -27.1790  -28.6330   20.8270 C   0  0  0  0  0  3  0  0  0  0  0  0
  -25.9750  -26.9360   19.5960 C   0  0  0  0  0  3  0  0  0  0  0  0
  -24.8220  -27.7400   19.5920 C   0  0  0  0  0  3  0  0  0  0  0  0
  -23.6000  -29.8750   20.2710 C   0  0  0  0  0  2  0  0  0  0  0  0
  -24.6550  -31.1190   22.2010 N   0  0  0  0  0  0  0  0  0  0  0  0
  -23.5060  -32.2090   23.8330 O   0  0  0  0  0  0  0  0  0  0  0  0
  -22.7130  -29.5230   22.6080 C   0  0  0  0  0  0  0  0  0  0  0  0
  -21.3880  -29.3430   22.4700 N   0  0  0  0  0  0  0  0  0  0  0  0
  -23.3850  -28.9010   23.4340 O   0  0  0  0  0  0  0  0  0  0  0  0
  -20.9050  -29.8980   21.7790 H   0  0  0  0  0  0  0  0  0  0  0  0
  -18.0060  -28.1430   22.9480 C   0  0  0  0  0  0  0  0  0  0  0  0
  -20.5630  -28.4050   23.2350 C   0  0  0  0  0  3  0  0  0  0  0  0
  -20.6680  -26.9720   22.6600 C   0  0  0  0  0  2  0  0  0  0  0  0
  -19.5730  -26.6500   21.6390 C   0  0  0  0  0  2  0  0  0  0  0  0
  -18.1880  -26.7940   22.2740 C   0  0  0  0  0  2  0  0  0  0  0  0
  -19.1210  -28.9060   23.3850 C   0  0  0  0  0  0  0  0  0  0  0  0
  -18.8950  -30.1690   23.9760 C   0  0  0  0  0  3  0  0  0  0  0  0
  -17.5890  -30.6680   24.1320 C   0  0  0  0  0  3  0  0  0  0  0  0
  -16.4890  -29.9010   23.7110 C   0  0  0  0  0  3  0  0  0  0  0  0
  -16.6980  -28.6400   23.1250 C   0  0  0  0  0  3  0  0  0  0  0  0
  -25.8730  -32.5530   23.9280 C   0  0  0  0  0  3  0  0  0  0  0  0
  -26.3670  -31.7920   25.2190 C   0  0  1  0  0  0  0  0  0  0  0  0
  -25.2600  -31.5770   26.2780 C   0  0  0  0  0  1  0  0  0  0  0  0
  -26.9400  -30.4030   24.8500 C   0  0  0  0  0  1  0  0  0  0  0  0
  -27.5190  -32.5810   25.8840 C   0  0  0  0  0  1  0  0  0  0  0  0
  -25.5750  -33.9580   24.2390 N   0  0  0  0  0  0  0  0  0  0  0  0
  -25.9060  -34.9980   23.4600 C   0  0  0  0  0  0  0  0  0  0  0  0
  -26.5610  -34.8750   22.4240 O   0  0  0  0  0  0  0  0  0  0  0  0
  -24.9900  -34.1280   25.0450 H   0  0  0  0  0  0  0  0  0  0  0  0
  -24.1840  -36.7990   23.1040 C   0  0  0  0  0  1  0  0  0  0  0  0
  -25.4330  -36.3960   23.9040 C   0  0  0  0  0  3  0  0  0  0  0  0
  -27.5810  -37.2850   24.6990 C   0  0  0  0  0  1  0  0  0  0  0  0
  -26.4710  -37.4420   23.7620 N   0  0  0  0  0  0  0  0  0  0  0  0
  -26.0710  -38.3670   23.8950 H   0  0  0  0  0  0  0  0  0  0  0  0
  2  3  2  0
  3  5  1  0
  3 17  1  0
  4  6  1  0
  4  5  2  0
  6  1  1  0
  7  2  1  0
  7  4  1  0
  8  6  1  0
  9 17  1  0
 10 15  1  0
 11 12  1  0
 11 10  1  0
 13 12  1  0
 13 22  1  0
 13 14  1  0
 15  9  1  0
 15 14  1  0
 16  9  2  0
 17 18  1  0
 19 20  2  0
 20 39  1  0
 21 20  1  0
 21 24  1  0
 22 19  1  0
 22 23  1  0
 23 21  2  0
 24 25  1  0
 25 26  2  0
 27 30  1  0
 27 26  1  0
 28 27  2  0
 29 28  1  0
 29 24  2  0
 30 31  1  0
 31 32  1  0
 32 33  2  0
 34 33  1  0
 34 38  1  0
 35 34  2  0
 36 31  2  0
 36 35  1  0
 37 36  1  0
 39 40  1  0
 40 43  1  0
 40 42  1  0
 41 39  2  0
 44 45  1  0
 44 19  1  0
 46 44  1  0
 47 49  1  0
 47  1  1  0
 48 47  2  0
 50 49  1  0
 51 62  2  0
 52 50  1  0
 52 57  1  0
 53 61  1  0
 53 63  1  0
 54 60  1  0
 54 56  1  0
 55 61  1  0
 56 55  1  0
 57 56  2  0
 58 52  2  0
 59 58  1  0
 59 54  2  0
 60 53  1  0
 61 51  1  0
 63 65  2  0
 64 63  1  0
 66 64  1  0
 67 76  2  0
 67 72  1  0
 68 64  1  0
 68 72  1  0
 69 68  1  0
 70 71  1  0
 70 69  1  0
 71 67  1  0
 72 73  2  0
 73 74  1  0
 75 74  2  0
 76 75  1  0
 77 51  1  0
 77 82  1  0
 77 78  1  0
 78 81  1  1
 78 79  1  0
 80 78  1  0
 82 85  1  0
 83 87  1  0
 83 82  1  0
 84 83  2  0
 87 86  1  0
 89 90  1  0
 89 87  1  0
 89 88  1  0
M  ISO  4   9 100  17 100  49 101  50 101
M  END
>  <TORSDO>  (57) 
F 19

>  <SCORE>  (57) 
-14.151

>  <name>  (57) 
56

>  <ligand_id>  (57) 
56

>  <original_smiles>  (57) 
[H]c1sc(N([H])C([H])([H])C(=O)C([H])([H])Oc2c([H])c([H])c3c(c2[H])C([H])([H])N(C(=O)C([H])(N([H])C(=O)C([H])(N([H])C([H])([H])[H])C([H])([H])[H])C(C([H])([H])[H])(C([H])([H])[H])C([H])([H])[H])C([H])(C(=O)N([H])C2([H])c4c([H])c([H])c([H])c([H])c4C([H])([H])C([H])([H])C2([H])[H])C3([H])[H])nc1N([H])C(=O)N1C([H])([H])C([H])([H])C([H])([H])C([H])(n2nc(-c3c([H])c([H])c(Oc4c([H])c([H])c(F)c([H])c4F)c([H])c3[H])c(C(=O)N([H])[H])c2N([H])[H])C1([H])[H]

>  <smiles>  (57) 
[H]c1sc(N([H])C([H])([H])C(=O)C([H])([H])Oc2c([H])c([H])c3c(c2[H])C([H])([H])N(C(=O)C([H])(N([H])C(=O)C([H])(N([H])C([H])([H])[H])C([H])([H])[H])C(C([H])([H])[H])(C([H])([H])[H])C([H])([H])[H])C([H])(C(=O)N([H])C2([H])c4c([H])c([H])c([H])c([H])c4C([H])([H])C([H])([H])C2([H])[H])C3([H])[H])nc1N([H])C(=O)N1C([H])([H])C([H])([H])C([H])([H])C([H])(n2nc(-c3c([H])c([H])c(Oc4c([H])c([H])c(F)c([H])c4F)c([H])c3[H])c(C(=O)N([H])[H])c2N([H])[H])C1([H])[H]

$$$$
57:0:0
     RDKit          3D

 97105  0  0  1  0  0  0  0  0999 V2000
  -29.7130  -21.1500   19.8260 C   0  0  0  0  0  0  0  0  0  0  0  0
  -30.0990  -21.2730   18.5600 N   0  0  0  0  0  4  0  0  0  0  0  0
  -29.2290  -22.3000   20.4380 N   0  0  0  0  0  0  0  0  0  0  0  0
  -30.4880  -20.4650   18.0950 H   0  0  0  0  0  0  0  0  0  0  0  0
  -29.8950  -22.0880   18.0060 H   0  0  0  0  0  0  0  0  0  0  0  0
  -28.8610  -22.1300   21.3640 H   0  0  0  0  0  0  0  0  0  0  0  0
  -30.4440  -19.8340   21.8230 C   0  0  0  0  0  3  0  0  0  0  0  0
  -30.7050  -17.3910   21.8920 C   0  0  0  0  0  3  0  0  0  0  0  0
  -29.9400  -19.7970   20.5050 C   0  0  0  0  0  0  0  0  0  0  0  0
  -30.1860  -17.2490   20.5900 C   0  0  0  0  0  0  0  0  0  0  0  0
  -30.8270  -18.6580   22.4960 C   0  0  0  0  0  0  0  0  0  0  0  0
  -29.7970  -18.4740   19.9090 C   0  0  0  0  0  0  0  0  0  0  0  0
  -31.3190  -18.7400   23.7540 F   0  0  0  0  0  0  0  0  0  0  0  0
  -29.2980  -18.3710   18.6530 F   0  0  0  0  0  0  0  0  0  0  0  0
  -30.7480  -14.7540   20.0790 C   0  0  0  0  0  0  0  0  0  0  0  0
  -30.4960  -12.5030   19.0240 C   0  0  0  0  0  2  0  0  0  0  0  0
  -29.4950  -12.6000   17.8530 C   0  0  0  0  0  2  0  0  0  0  0  0
  -28.0450  -12.4370   18.3580 C   0  0  0  0  0  2  0  0  0  0  0  0
  -27.7350  -13.3230   19.5940 C   0  0  0  0  0  3  0  0  0  0  0  0
  -28.8450  -13.2040   20.6620 C   0  0  0  0  0  2  0  0  0  0  0  0
  -30.1130  -13.5410   20.0020 N   0  0  0  0  0  0  0  0  0  0  0  0
  -31.9520  -14.8490   19.8220 O   0  0  0  0  0  0  0  0  0  0  0  0
  -29.9430  -15.8770   20.1010 N   0  0  0  0  0  0  0  0  0  0  0  0
  -28.9730  -15.6810   19.9110 H   0  0  0  0  0  0  0  0  0  0  0  0
  -25.3880  -13.9520   20.4290 C   0  0  0  0  0  0  0  0  0  0  0  0
  -24.3250  -13.1920   20.8340 C   0  0  0  0  0  0  0  0  0  0  0  0
  -24.7650  -11.8350   20.7770 C   0  0  0  0  0  0  0  0  0  0  0  0
  -26.4070  -13.0580   20.1440 N   0  0  0  0  0  0  0  0  0  0  0  0
  -26.0420  -11.7790   20.4160 N   0  0  0  0  0  0  0  0  0  0  0  0
  -24.0270  -10.5820   20.9790 C   0  0  0  0  0  0  0  0  0  0  0  0
  -24.4690   -9.6020   21.8960 C   0  0  0  0  0  3  0  0  0  0  0  0
  -23.7300   -8.4150   22.0880 C   0  0  0  0  0  3  0  0  0  0  0  0
  -22.5330   -8.2010   21.3640 C   0  0  0  0  0  0  0  0  0  0  0  0
  -22.1090   -9.1690   20.4350 C   0  0  0  0  0  3  0  0  0  0  0  0
  -22.8500  -10.3460   20.2410 C   0  0  0  0  0  3  0  0  0  0  0  0
  -21.7620   -7.0670   21.4670 O   0  0  0  0  0  0  0  0  0  0  0  0
  -21.7260   -6.3220   22.6190 C   0  0  0  0  0  0  0  0  0  0  0  0
  -21.3320   -6.8810   23.8550 C   0  0  0  0  0  3  0  0  0  0  0  0
  -21.2430   -6.0650   25.0000 C   0  0  0  0  0  3  0  0  0  0  0  0
  -21.5390   -4.6910   24.9110 C   0  0  0  0  0  0  0  0  0  0  0  0
  -21.9290   -4.1330   23.6810 C   0  0  0  0  0  3  0  0  0  0  0  0
  -22.0190   -4.9460   22.5380 C   0  0  0  0  0  0  0  0  0  0  0  0
  -22.3740   -4.3980   21.3510 F   0  0  0  0  0  0  0  0  0  0  0  0
  -21.4460   -3.9060   26.0090 F   0  0  0  0  0  0  0  0  0  0  0  0
  -22.9460  -13.6900   21.1590 C   0  0  0  0  0  0  0  0  0  0  0  0
  -22.2360  -13.0020   22.0460 N   0  0  0  0  0  0  0  0  0  0  0  0
  -22.5060  -14.7250   20.6590 O   0  0  0  0  0  0  0  0  0  0  0  0
  -22.6040  -12.1640   22.4720 H   0  0  0  0  0  0  0  0  0  0  0  0
  -21.3110  -13.3180   22.3020 H   0  0  0  0  0  0  0  0  0  0  0  0
  -25.5640  -15.3240   20.2510 N   0  0  0  0  0  0  0  0  0  0  0  0
  -24.7920  -15.9740   20.3560 H   0  0  0  0  0  0  0  0  0  0  0  0
  -26.3760  -15.7460   19.8270 H   0  0  0  0  0  0  0  0  0  0  0  0
  -29.3490  -23.8090   20.0920 C   0  0  0  0  0  2  0  0  0  0  0  0
  -28.1060  -24.8290   20.3170 C   0  0  0  0  0  3  0  0  0  0  0  0
  -26.1920  -23.3740   21.3040 C   0  0  0  0  0  1  0  0  0  0  0  0
  -27.3050  -24.4090   21.5820 C   0  0  0  0  0  2  0  0  0  0  0  0
  -28.3650  -26.3320   20.3530 O   0  0  0  0  0  0  0  0  0  0  0  0
  -24.6240  -31.8970   23.2230 C   0  0  0  0  0  0  0  0  0  0  0  0
  -27.2870  -27.2560   20.2590 C   0  0  0  0  0  0  0  0  0  0  0  0
  -23.4510  -30.4700   21.5880 C   0  0  0  0  0  3  0  0  0  0  0  0
  -24.9300  -28.9120   20.1980 C   0  0  0  0  0  0  0  0  0  0  0  0
  -25.9990  -30.7790   21.4470 C   0  0  0  0  0  2  0  0  0  0  0  0
  -26.0930  -29.3910   20.8160 C   0  0  0  0  0  0  0  0  0  0  0  0
  -27.2720  -28.5720   20.8410 C   0  0  0  0  0  3  0  0  0  0  0  0
  -26.1050  -26.8700   19.5850 C   0  0  0  0  0  3  0  0  0  0  0  0
  -24.9420  -27.6620   19.5710 C   0  0  0  0  0  3  0  0  0  0  0  0
  -23.6900  -29.7840   20.2220 C   0  0  0  0  0  2  0  0  0  0  0  0
  -24.7090  -31.0710   22.1410 N   0  0  0  0  0  0  0  0  0  0  0  0
  -23.5290  -32.1710   23.7390 O   0  0  0  0  0  0  0  0  0  0  0  0
  -22.7790  -29.4610   22.5480 C   0  0  0  0  0  0  0  0  0  0  0  0
  -21.4550  -29.2720   22.4040 N   0  0  0  0  0  0  0  0  0  0  0  0
  -23.4490  -28.8470   23.3840 O   0  0  0  0  0  0  0  0  0  0  0  0
  -20.9680  -29.8130   21.7010 H   0  0  0  0  0  0  0  0  0  0  0  0
  -18.0820  -28.0590   22.8810 C   0  0  0  0  0  0  0  0  0  0  0  0
  -20.6350  -28.3430   23.1820 C   0  0  0  0  0  3  0  0  0  0  0  0
  -20.7560  -26.9050   22.6340 C   0  0  0  0  0  2  0  0  0  0  0  0
  -19.6730  -26.5600   21.6040 C   0  0  0  0  0  2  0  0  0  0  0  0
  -18.2810  -26.6990   22.2300 C   0  0  0  0  0  2  0  0  0  0  0  0
  -19.1890  -28.8350   23.3150 C   0  0  0  0  0  0  0  0  0  0  0  0
  -18.9550  -30.1050   23.8830 C   0  0  0  0  0  3  0  0  0  0  0  0
  -17.6460  -30.6010   24.0210 C   0  0  0  0  0  3  0  0  0  0  0  0
  -16.5530  -29.8210   23.6030 C   0  0  0  0  0  3  0  0  0  0  0  0
  -16.7700  -28.5510   23.0410 C   0  0  0  0  0  3  0  0  0  0  0  0
  -25.8930  -32.5460   23.8550 C   0  0  0  0  0  3  0  0  0  0  0  0
  -26.4050  -31.7850   25.1390 C   0  0  1  0  0  0  0  0  0  0  0  0
  -25.3000  -31.5400   26.1920 C   0  0  0  0  0  1  0  0  0  0  0  0
  -27.0130  -30.4140   24.7640 C   0  0  0  0  0  1  0  0  0  0  0  0
  -27.5360  -32.5990   25.8090 C   0  0  0  0  0  1  0  0  0  0  0  0
  -25.5610  -33.9410   24.1780 N   0  0  0  0  0  0  0  0  0  0  0  0
  -25.8910  -34.9980   23.4240 C   0  0  0  0  0  0  0  0  0  0  0  0
  -26.5800  -34.9040   22.4040 O   0  0  0  0  0  0  0  0  0  0  0  0
  -24.9580  -34.0870   24.9740 H   0  0  0  0  0  0  0  0  0  0  0  0
  -24.1520  -36.7760   23.0420 C   0  0  0  0  0  1  0  0  0  0  0  0
  -25.3820  -36.3810   23.8750 C   0  0  0  0  0  3  0  0  0  0  0  0
  -27.4890  -37.2880   24.7510 C   0  0  0  0  0  1  0  0  0  0  0  0
  -26.4050  -37.4460   23.7840 N   0  0  0  0  0  0  0  0  0  0  0  0
  -25.9860  -38.3620   23.9230 H   0  0  0  0  0  0  0  0  0  0  0  0
  1  3  1  0
  1  9  1  0
  2  1  2  0
  3  6  1  0
  4  2  1  0
  5  2  1  0
  7 11  1  0
  8 11  2  0
  9  7  2  0
 10  8  1  0
 11 13  1  0
 12  9  1  0
 12 10  2  0
 14 12  1  0
 15 23  1  0
 16 21  1  0
 17 18  1  0
 17 16  1  0
 19 18  1  0
 19 28  1  0
 19 20  1  0
 21 15  1  0
 21 20  1  0
 22 15  2  0
 23 10  1  0
 24 23  1  0
 25 26  2  0
 26 45  1  0
 27 26  1  0
 27 30  1  0
 28 29  1  0
 28 25  1  0
 29 27  2  0
 30 31  1  0
 31 32  2  0
 33 36  1  0
 33 32  1  0
 34 33  2  0
 35 34  1  0
 35 30  2  0
 36 37  1  0
 37 38  1  0
 38 39  2  0
 40 39  1  0
 40 44  1  0
 41 40  2  0
 42 37  2  0
 42 41  1  0
 43 42  1  0
 45 46  1  0
 46 49  1  0
 46 48  1  0
 47 45  2  0
 50 51  1  0
 50 25  1  0
 52 50  1  0
 53  3  1  0
 54 53  1  0
 54 57  1  0
 54 56  1  0
 55 56  1  0
 58 69  2  0
 59 57  1  0
 59 64  1  0
 60 68  1  0
 60 70  1  0
 61 67  1  0
 61 63  1  0
 62 68  1  0
 63 64  2  0
 63 62  1  0
 65 59  2  0
 66 65  1  0
 66 61  2  0
 67 60  1  0
 68 58  1  0
 70 72  2  0
 71 70  1  0
 73 71  1  0
 74 83  2  0
 74 79  1  0
 75 71  1  0
 75 79  1  0
 76 75  1  0
 77 78  1  0
 77 76  1  0
 78 74  1  0
 79 80  2  0
 80 81  1  0
 82 81  2  0
 83 82  1  0
 84 58  1  0
 84 89  1  0
 84 85  1  0
 85 88  1  1
 85 86  1  0
 87 85  1  0
 89 92  1  0
 90 94  1  0
 90 89  1  0
 91 90  2  0
 94 93  1  0
 96 94  1  0
 96 97  1  0
 96 95  1  0
M  ISO  4  15 100  23 100  54 101  57 101
M  END
>  <TORSDO>  (58) 
F 20

>  <SCORE>  (58) 
-13.946

>  <name>  (58) 
57

>  <ligand_id>  (58) 
57

>  <original_smiles>  (58) 
[H]c1c([H])c([H])c2c(c1[H])C([H])([H])C([H])([H])C([H])([H])C2([H])N([H])C(=O)C1([H])N(C(=O)C([H])(N([H])C(=O)C([H])(N([H])C([H])([H])[H])C([H])([H])[H])C(C([H])([H])[H])(C([H])([H])[H])C([H])([H])[H])C([H])([H])c2c([H])c(OC([H])(C([H])([H])[N+]([H])=C(c3c([H])c(F)c([H])c(N([H])C(=O)N4C([H])([H])C([H])([H])C([H])([H])C([H])(n5nc(-c6c([H])c([H])c(Oc7c([H])c([H])c(F)c([H])c7F)c([H])c6[H])c(C(=O)N([H])[H])c5N([H])[H])C4([H])[H])c3F)N([H])[H])C([H])([H])C([H])([H])[H])c([H])c([H])c2C1([H])[H]

>  <smiles>  (58) 
[H]c1c([H])c([H])c2c(c1[H])C([H])([H])C([H])([H])C([H])([H])C2([H])N([H])C(=O)C1([H])N(C(=O)C([H])(N([H])C(=O)C([H])(N([H])C([H])([H])[H])C([H])([H])[H])C(C([H])([H])[H])(C([H])([H])[H])C([H])([H])[H])C([H])([H])c2c([H])c(OC([H])(C([H])([H])[N+]([H])=C(c3c([H])c(F)c([H])c(N([H])C(=O)N4C([H])([H])C([H])([H])C([H])([H])C([H])(n5nc(-c6c([H])c([H])c(Oc7c([H])c([H])c(F)c([H])c7F)c([H])c6[H])c(C(=O)N([H])[H])c5N([H])[H])C4([H])[H])c3F)N([H])[H])C([H])([H])C([H])([H])[H])c([H])c([H])c2C1([H])[H]

$$$$
58:0:0
     RDKit          3D

 96104  0  0  1  0  0  0  0  0999 V2000
  -28.8930  -23.3730   20.3030 C   0  0  0  0  0  0  0  0  0  0  0  0
  -29.1300  -22.0750   19.9490 N   0  0  0  0  0  0  0  0  0  0  0  0
  -28.6390  -23.7010   21.4630 O   0  0  0  0  0  0  0  0  0  0  0  0
  -29.3340  -21.9900   18.9620 H   0  0  0  0  0  0  0  0  0  0  0  0
  -28.7720  -25.6530   19.1210 C   0  0  0  0  0  3  0  0  0  0  0  0
  -28.9540  -24.2900   19.1360 C   0  0  0  0  0  0  0  0  0  0  0  0
  -29.2050  -23.7140   17.9460 O   0  0  0  0  0  0  0  0  0  0  0  0
  -29.2160  -24.3980   17.2900 H   0  0  0  0  0  0  0  0  0  0  0  0
  -28.5170  -26.5560   20.1430 O   0  0  0  0  0  0  0  0  0  0  0  0
  -24.7270  -31.8340   23.1690 C   0  0  0  0  0  0  0  0  0  0  0  0
  -27.3970  -27.3820   20.0590 C   0  0  0  0  0  0  0  0  0  0  0  0
  -23.5370  -30.4360   21.5150 C   0  0  0  0  0  3  0  0  0  0  0  0
  -25.0050  -28.9280   20.0670 C   0  0  0  0  0  0  0  0  0  0  0  0
  -26.0630  -30.8090   21.3210 C   0  0  0  0  0  2  0  0  0  0  0  0
  -26.1640  -29.4380   20.6660 C   0  0  0  0  0  0  0  0  0  0  0  0
  -27.3610  -28.6720   20.6630 C   0  0  0  0  0  3  0  0  0  0  0  0
  -26.2140  -26.9110   19.4430 C   0  0  0  0  0  3  0  0  0  0  0  0
  -25.0300  -27.6700   19.4470 C   0  0  0  0  0  3  0  0  0  0  0  0
  -23.7530  -29.7780   20.1280 C   0  0  0  0  0  2  0  0  0  0  0  0
  -24.7940  -31.0410   22.0610 N   0  0  0  0  0  0  0  0  0  0  0  0
  -23.6420  -32.0910   23.7100 O   0  0  0  0  0  0  0  0  0  0  0  0
  -22.8920  -29.4020   22.4680 C   0  0  0  0  0  0  0  0  0  0  0  0
  -21.5680  -29.2070   22.3410 N   0  0  0  0  0  0  0  0  0  0  0  0
  -23.5810  -28.7760   23.2780 O   0  0  0  0  0  0  0  0  0  0  0  0
  -21.0680  -29.7690   21.6660 H   0  0  0  0  0  0  0  0  0  0  0  0
  -18.2100  -27.9600   22.8290 C   0  0  0  0  0  0  0  0  0  0  0  0
  -20.7630  -28.2530   23.1050 C   0  0  0  0  0  3  0  0  0  0  0  0
  -20.8860  -26.8270   22.5210 C   0  0  0  0  0  2  0  0  0  0  0  0
  -19.7900  -26.4960   21.5010 C   0  0  0  0  0  2  0  0  0  0  0  0
  -18.4070  -26.6180   22.1450 C   0  0  0  0  0  2  0  0  0  0  0  0
  -19.3170  -28.7350   23.2660 C   0  0  0  0  0  0  0  0  0  0  0  0
  -19.0800  -29.9910   23.8650 C   0  0  0  0  0  3  0  0  0  0  0  0
  -17.7680  -30.4740   24.0320 C   0  0  0  0  0  3  0  0  0  0  0  0
  -16.6750  -29.6960   23.6110 C   0  0  0  0  0  3  0  0  0  0  0  0
  -16.8970  -28.4410   23.0160 C   0  0  0  0  0  3  0  0  0  0  0  0
  -26.0060  -32.4770   23.7930 C   0  0  0  0  0  3  0  0  0  0  0  0
  -26.5440  -31.6930   25.0530 C   0  0  1  0  0  0  0  0  0  0  0  0
  -25.4600  -31.4190   26.1220 C   0  0  0  0  0  1  0  0  0  0  0  0
  -27.1470  -30.3320   24.6320 C   0  0  0  0  0  1  0  0  0  0  0  0
  -27.6850  -32.4930   25.7240 C   0  0  0  0  0  1  0  0  0  0  0  0
  -25.6800  -33.8650   24.1470 N   0  0  0  0  0  0  0  0  0  0  0  0
  -25.9910  -34.9330   23.3990 C   0  0  0  0  0  0  0  0  0  0  0  0
  -26.6520  -34.8530   22.3600 O   0  0  0  0  0  0  0  0  0  0  0  0
  -25.1000  -34.0020   24.9610 H   0  0  0  0  0  0  0  0  0  0  0  0
  -24.2350  -36.7040   23.0810 C   0  0  0  0  0  1  0  0  0  0  0  0
  -25.4880  -36.3090   23.8790 C   0  0  0  0  0  3  0  0  0  0  0  0
  -27.6110  -37.2180   24.7110 C   0  0  0  0  0  1  0  0  0  0  0  0
  -26.5060  -37.3760   23.7700 N   0  0  0  0  0  0  0  0  0  0  0  0
  -26.0880  -38.2890   23.9220 H   0  0  0  0  0  0  0  0  0  0  0  0
  -27.5620  -20.5130   21.0150 C   0  0  0  0  0  1  0  0  0  0  0  0
  -29.0470  -20.7860   20.7090 C   0  0  0  0  0  3  0  0  0  0  0  0
  -30.9300  -18.6350   18.0800 C   0  0  0  0  0  3  0  0  0  0  0  0
  -30.3460  -19.7190   18.7590 C   0  0  0  0  0  3  0  0  0  0  0  0
  -30.9100  -17.3430   18.6320 C   0  0  0  0  0  3  0  0  0  0  0  0
  -29.7150  -19.5430   20.0130 C   0  0  0  0  0  0  0  0  0  0  0  0
  -30.3160  -17.0960   19.8920 C   0  0  0  0  0  0  0  0  0  0  0  0
  -29.7230  -18.2120   20.5740 C   0  0  0  0  0  0  0  0  0  0  0  0
  -29.1550  -17.9890   21.7850 F   0  0  0  0  0  0  0  0  0  0  0  0
  -30.9600  -14.6450   19.9930 C   0  0  0  0  0  0  0  0  0  0  0  0
  -30.6130  -12.4600   18.8940 C   0  0  0  0  0  2  0  0  0  0  0  0
  -29.6020  -12.6630   17.7450 C   0  0  0  0  0  2  0  0  0  0  0  0
  -28.1590  -12.5120   18.2650 C   0  0  0  0  0  2  0  0  0  0  0  0
  -27.8970  -13.3490   19.5460 C   0  0  0  0  0  3  0  0  0  0  0  0
  -29.0160  -13.1420   20.5900 C   0  0  0  0  0  2  0  0  0  0  0  0
  -30.2990  -13.4510   19.9430 N   0  0  0  0  0  0  0  0  0  0  0  0
  -32.1000  -14.7650   19.5320 O   0  0  0  0  0  0  0  0  0  0  0  0
  -30.2520  -15.7350   20.4130 N   0  0  0  0  0  0  0  0  0  0  0  0
  -29.4530  -15.5370   20.9970 H   0  0  0  0  0  0  0  0  0  0  0  0
  -25.5630  -13.9640   20.4320 C   0  0  0  0  0  0  0  0  0  0  0  0
  -24.5080  -13.1970   20.8450 C   0  0  0  0  0  0  0  0  0  0  0  0
  -24.9440  -11.8410   20.7440 C   0  0  0  0  0  0  0  0  0  0  0  0
  -26.5760  -13.0760   20.1050 N   0  0  0  0  0  0  0  0  0  0  0  0
  -26.2110  -11.7910   20.3530 N   0  0  0  0  0  0  0  0  0  0  0  0
  -24.2100  -10.5850   20.9410 C   0  0  0  0  0  0  0  0  0  0  0  0
  -24.6180   -9.6330   21.9030 C   0  0  0  0  0  3  0  0  0  0  0  0
  -23.8860   -8.4410   22.0870 C   0  0  0  0  0  3  0  0  0  0  0  0
  -22.7300   -8.1910   21.3100 C   0  0  0  0  0  0  0  0  0  0  0  0
  -22.3400   -9.1300   20.3390 C   0  0  0  0  0  3  0  0  0  0  0  0
  -23.0730  -10.3140   20.1530 C   0  0  0  0  0  3  0  0  0  0  0  0
  -21.9700   -7.0500   21.4020 O   0  0  0  0  0  0  0  0  0  0  0  0
  -21.7950   -6.3970   22.5970 C   0  0  0  0  0  0  0  0  0  0  0  0
  -21.2250   -7.0370   23.7190 C   0  0  0  0  0  3  0  0  0  0  0  0
  -20.9970   -6.3080   24.9030 C   0  0  0  0  0  3  0  0  0  0  0  0
  -21.3300   -4.9420   24.9660 C   0  0  0  0  0  0  0  0  0  0  0  0
  -21.8930   -4.3020   23.8480 C   0  0  0  0  0  3  0  0  0  0  0  0
  -22.1210   -5.0270   22.6650 C   0  0  0  0  0  0  0  0  0  0  0  0
  -22.6440   -4.4000   21.5830 F   0  0  0  0  0  0  0  0  0  0  0  0
  -21.1040   -4.2400   26.1010 F   0  0  0  0  0  0  0  0  0  0  0  0
  -23.1410  -13.6870   21.2220 C   0  0  0  0  0  0  0  0  0  0  0  0
  -22.4580  -12.9760   22.1120 N   0  0  0  0  0  0  0  0  0  0  0  0
  -22.6870  -14.7340   20.7620 O   0  0  0  0  0  0  0  0  0  0  0  0
  -22.8370  -12.1260   22.5040 H   0  0  0  0  0  0  0  0  0  0  0  0
  -21.5430  -13.2850   22.4080 H   0  0  0  0  0  0  0  0  0  0  0  0
  -25.7410  -15.3380   20.2860 N   0  0  0  0  0  0  0  0  0  0  0  0
  -24.9950  -16.0000   20.4700 H   0  0  0  0  0  0  0  0  0  0  0  0
  -26.5740  -15.7750   19.9140 H   0  0  0  0  0  0  0  0  0  0  0  0
  1  3  2  0
  2  1  1  0
  2 51  1  0
  4  2  1  0
  5  6  2  0
  5  9  1  0
  6  1  1  0
  7  6  1  0
  8  7  1  0
 10 21  2  0
 11  9  1  0
 11 16  1  0
 12 20  1  0
 12 22  1  0
 13 19  1  0
 13 15  1  0
 14 20  1  0
 15 14  1  0
 16 15  2  0
 17 18  1  0
 17 11  2  0
 18 13  2  0
 19 12  1  0
 20 10  1  0
 22 24  2  0
 23 22  1  0
 25 23  1  0
 26 35  2  0
 26 31  1  0
 27 23  1  0
 27 31  1  0
 28 27  1  0
 29 30  1  0
 29 28  1  0
 30 26  1  0
 31 32  2  0
 32 33  1  0
 34 33  2  0
 35 34  1  0
 36 10  1  0
 36 41  1  0
 36 37  1  0
 37 40  1  1
 37 38  1  0
 39 37  1  0
 41 44  1  0
 42 46  1  0
 42 41  1  0
 43 42  2  0
 46 45  1  0
 48 46  1  0
 48 49  1  0
 48 47  1  0
 51 50  1  0
 52 54  2  0
 52 53  1  0
 53 55  2  0
 54 56  1  0
 55 57  1  0
 55 51  1  0
 56 67  1  0
 56 57  2  0
 57 58  1  0
 59 67  1  0
 60 65  1  0
 61 62  1  0
 61 60  1  0
 63 62  1  0
 63 72  1  0
 63 64  1  0
 65 59  1  0
 65 64  1  0
 66 59  2  0
 67 68  1  0
 69 70  2  0
 70 89  1  0
 71 70  1  0
 71 74  1  0
 72 73  1  0
 72 69  1  0
 73 71  2  0
 74 75  1  0
 75 76  2  0
 77 80  1  0
 77 76  1  0
 78 77  2  0
 79 78  1  0
 79 74  2  0
 80 81  1  0
 81 86  2  0
 81 82  1  0
 82 83  2  0
 83 84  1  0
 84 88  1  0
 85 84  2  0
 86 85  1  0
 87 86  1  0
 89 90  1  0
 90 93  1  0
 90 92  1  0
 91 89  2  0
 94 69  1  0
 94 95  1  0
 96 94  1  0
M  ISO  4   5 101   9 101  59 100  67 100
M  END
>  <TORSDO>  (59) 
F 20

>  <SCORE>  (59) 
-12.735

>  <name>  (59) 
58

>  <ligand_id>  (59) 
58

>  <original_smiles>  (59) 
[H]OC(C(=O)N([H])C([H])(c1c([H])c([H])c([H])c(N([H])C(=O)N2C([H])([H])C([H])([H])C([H])([H])C([H])(n3nc(-c4c([H])c([H])c(Oc5c([H])c([H])c(F)c([H])c5F)c([H])c4[H])c(C(=O)N([H])[H])c3N([H])[H])C2([H])[H])c1F)C([H])([H])[H])=C([H])Oc1c([H])c([H])c2c(c1[H])C([H])([H])N(C(=O)C([H])(N([H])C(=O)C([H])(N([H])C([H])([H])[H])C([H])([H])[H])C(C([H])([H])[H])(C([H])([H])[H])C([H])([H])[H])C([H])(C(=O)N([H])C1([H])c3c([H])c([H])c([H])c([H])c3C([H])([H])C([H])([H])C1([H])[H])C2([H])[H]

>  <smiles>  (59) 
[H]OC(C(=O)N([H])C([H])(c1c([H])c([H])c([H])c(N([H])C(=O)N2C([H])([H])C([H])([H])C([H])([H])C([H])(n3nc(-c4c([H])c([H])c(Oc5c([H])c([H])c(F)c([H])c5F)c([H])c4[H])c(C(=O)N([H])[H])c3N([H])[H])C2([H])[H])c1F)C([H])([H])[H])=C([H])Oc1c([H])c([H])c2c(c1[H])C([H])([H])N(C(=O)C([H])(N([H])C(=O)C([H])(N([H])C([H])([H])[H])C([H])([H])[H])C(C([H])([H])[H])(C([H])([H])[H])C([H])([H])[H])C([H])(C(=O)N([H])C1([H])c3c([H])c([H])c([H])c([H])c3C([H])([H])C([H])([H])C1([H])[H])C2([H])[H]

$$$$
59:0:0
     RDKit          3D

 95103  0  0  1  0  0  0  0  0999 V2000
  -29.6630  -19.3540   19.5160 C   0  0  0  0  0  0  0  0  0  0  0  0
  -29.4880  -20.7230   19.7610 N   0  0  0  0  0  0  0  0  0  0  0  0
  -29.4390  -18.8900   18.3990 O   0  0  0  0  0  0  0  0  0  0  0  0
  -29.7090  -20.9990   20.7090 H   0  0  0  0  0  0  0  0  0  0  0  0
  -31.3240  -16.5410   21.8380 C   0  0  0  0  0  3  0  0  0  0  0  0
  -30.1290  -18.1670   23.1510 C   0  0  0  0  0  3  0  0  0  0  0  0
  -30.1330  -18.3870   20.6660 C   0  0  0  0  0  0  0  0  0  0  0  0
  -30.8680  -17.0750   20.6030 C   0  0  0  0  0  0  0  0  0  0  0  0
  -30.9690  -17.0620   23.0860 C   0  0  0  0  0  0  0  0  0  0  0  0
  -29.7350  -18.8190   21.9760 C   0  0  0  0  0  0  0  0  0  0  0  0
  -31.4090  -16.4770   24.2280 F   0  0  0  0  0  0  0  0  0  0  0  0
  -28.9310  -19.8950   22.1560 F   0  0  0  0  0  0  0  0  0  0  0  0
  -31.7610  -14.8860   19.3900 C   0  0  0  0  0  0  0  0  0  0  0  0
  -31.2120  -12.6230   18.4580 C   0  0  0  0  0  2  0  0  0  0  0  0
  -30.1610  -12.7580   17.3300 C   0  0  0  0  0  2  0  0  0  0  0  0
  -28.7390  -12.7000   17.9220 C   0  0  0  0  0  2  0  0  0  0  0  0
  -28.5760  -13.6360   19.1460 C   0  0  0  0  0  3  0  0  0  0  0  0
  -29.7390  -13.5080   20.1490 C   0  0  0  0  0  2  0  0  0  0  0  0
  -30.9840  -13.7440   19.4100 N   0  0  0  0  0  0  0  0  0  0  0  0
  -32.9200  -14.7990   18.9720 O   0  0  0  0  0  0  0  0  0  0  0  0
  -31.1910  -16.1740   19.4590 N   0  0  0  0  0  0  0  0  0  0  0  0
  -31.4930  -16.7170   18.6630 H   0  0  0  0  0  0  0  0  0  0  0  0
  -26.3970  -14.4490   20.2150 C   0  0  0  0  0  0  0  0  0  0  0  0
  -25.2940  -13.7830   20.6740 C   0  0  0  0  0  0  0  0  0  0  0  0
  -25.5790  -12.3920   20.5180 C   0  0  0  0  0  0  0  0  0  0  0  0
  -27.2820  -13.4710   19.7970 N   0  0  0  0  0  0  0  0  0  0  0  0
  -26.8070  -12.2230   20.0490 N   0  0  0  0  0  0  0  0  0  0  0  0
  -24.7280  -11.2140   20.7360 C   0  0  0  0  0  0  0  0  0  0  0  0
  -25.0990  -10.1900   21.6400 C   0  0  0  0  0  3  0  0  0  0  0  0
  -24.2530   -9.0780   21.8430 C   0  0  0  0  0  3  0  0  0  0  0  0
  -23.0260   -8.9810   21.1430 C   0  0  0  0  0  0  0  0  0  0  0  0
  -22.6770   -9.9900   20.2260 C   0  0  0  0  0  3  0  0  0  0  0  0
  -23.5200  -11.0940   20.0200 C   0  0  0  0  0  3  0  0  0  0  0  0
  -22.1530   -7.9250   21.2570 O   0  0  0  0  0  0  0  0  0  0  0  0
  -21.9740   -7.2690   22.4470 C   0  0  0  0  0  0  0  0  0  0  0  0
  -21.6080   -7.9520   23.6290 C   0  0  0  0  0  3  0  0  0  0  0  0
  -21.3630   -7.2280   24.8130 C   0  0  0  0  0  3  0  0  0  0  0  0
  -21.4760   -5.8240   24.8170 C   0  0  0  0  0  0  0  0  0  0  0  0
  -21.8340   -5.1420   23.6420 C   0  0  0  0  0  3  0  0  0  0  0  0
  -22.0810   -5.8640   22.4600 C   0  0  0  0  0  0  0  0  0  0  0  0
  -22.4030   -5.2000   21.3240 F   0  0  0  0  0  0  0  0  0  0  0  0
  -21.2390   -5.1300   25.9540 F   0  0  0  0  0  0  0  0  0  0  0  0
  -24.0110  -14.4020   21.1450 C   0  0  0  0  0  0  0  0  0  0  0  0
  -23.3710  -13.7930   22.1360 N   0  0  0  0  0  0  0  0  0  0  0  0
  -23.5930  -15.4550   20.6640 O   0  0  0  0  0  0  0  0  0  0  0  0
  -23.7260  -12.9320   22.5230 H   0  0  0  0  0  0  0  0  0  0  0  0
  -22.5160  -14.1820   22.5110 H   0  0  0  0  0  0  0  0  0  0  0  0
  -26.7240  -15.7970   20.0950 N   0  0  0  0  0  0  0  0  0  0  0  0
  -26.0830  -16.5430   20.3430 H   0  0  0  0  0  0  0  0  0  0  0  0
  -27.6040  -16.1360   19.7320 H   0  0  0  0  0  0  0  0  0  0  0  0
  -28.8600  -21.8630   18.9320 C   0  0  0  0  0  2  0  0  0  0  0  0
  -28.7180  -23.3570   19.5520 C   0  0  0  0  0  0  0  0  0  0  0  0
  -28.9850  -23.5210   20.7470 O   0  0  0  0  0  0  0  0  0  0  0  0
  -28.2210  -24.6170   18.6530 C   0  0  0  0  0  2  0  0  0  0  0  0
  -28.3010  -26.0630   19.1570 O   0  0  0  0  0  0  0  0  0  0  0  0
  -24.8030  -31.3400   22.7950 C   0  0  0  0  0  0  0  0  0  0  0  0
  -27.1860  -26.9510   19.2290 C   0  0  0  0  0  0  0  0  0  0  0  0
  -23.4790  -29.9970   21.2070 C   0  0  0  0  0  3  0  0  0  0  0  0
  -24.8120  -28.5700   19.5520 C   0  0  0  0  0  0  0  0  0  0  0  0
  -25.9890  -30.3830   20.7930 C   0  0  0  0  0  2  0  0  0  0  0  0
  -26.0320  -29.0370   20.0570 C   0  0  0  0  0  0  0  0  0  0  0  0
  -27.2170  -28.2390   19.8830 C   0  0  0  0  0  3  0  0  0  0  0  0
  -25.9300  -26.5700   18.7040 C   0  0  0  0  0  3  0  0  0  0  0  0
  -24.7670  -27.3480   18.8670 C   0  0  0  0  0  3  0  0  0  0  0  0
  -23.5700  -29.4120   19.7740 C   0  0  0  0  0  2  0  0  0  0  0  0
  -24.7830  -30.5870   21.6560 N   0  0  0  0  0  0  0  0  0  0  0  0
  -23.7690  -31.5500   23.4480 O   0  0  0  0  0  0  0  0  0  0  0  0
  -22.9380  -28.9090   22.1670 C   0  0  0  0  0  0  0  0  0  0  0  0
  -21.6440  -28.5700   22.0420 N   0  0  0  0  0  0  0  0  0  0  0  0
  -23.6860  -28.3710   22.9890 O   0  0  0  0  0  0  0  0  0  0  0  0
  -21.0930  -29.0470   21.3410 H   0  0  0  0  0  0  0  0  0  0  0  0
  -18.4820  -26.8530   22.4340 C   0  0  0  0  0  0  0  0  0  0  0  0
  -20.9430  -27.5430   22.8170 C   0  0  0  0  0  3  0  0  0  0  0  0
  -21.3090  -26.1280   22.3190 C   0  0  0  0  0  2  0  0  0  0  0  0
  -20.3400  -25.5900   21.2630 C   0  0  0  0  0  2  0  0  0  0  0  0
  -18.9160  -25.5300   21.8260 C   0  0  0  0  0  2  0  0  0  0  0  0
  -19.4350  -27.8050   22.8840 C   0  0  0  0  0  0  0  0  0  0  0  0
  -18.9790  -29.0330   23.4130 C   0  0  0  0  0  3  0  0  0  0  0  0
  -17.6030  -29.3190   23.4920 C   0  0  0  0  0  3  0  0  0  0  0  0
  -16.6630  -28.3660   23.0580 C   0  0  0  0  0  3  0  0  0  0  0  0
  -17.1010  -27.1370   22.5320 C   0  0  0  0  0  3  0  0  0  0  0  0
  -26.1190  -31.9830   23.3260 C   0  0  0  0  0  3  0  0  0  0  0  0
  -26.8940  -31.0590   24.3430 C   0  0  1  0  0  0  0  0  0  0  0  0
  -26.0130  -30.5140   25.4930 C   0  0  0  0  0  1  0  0  0  0  0  0
  -27.5190  -29.8450   23.6180 C   0  0  0  0  0  1  0  0  0  0  0  0
  -28.0670  -31.8450   24.9760 C   0  0  0  0  0  1  0  0  0  0  0  0
  -25.7640  -33.2620   23.9590 N   0  0  0  0  0  0  0  0  0  0  0  0
  -25.8950  -34.4610   23.3790 C   0  0  0  0  0  0  0  0  0  0  0  0
  -26.3940  -34.6130   22.2610 O   0  0  0  0  0  0  0  0  0  0  0  0
  -25.2910  -33.2130   24.8500 H   0  0  0  0  0  0  0  0  0  0  0  0
  -24.0090  -36.1080   23.6390 C   0  0  0  0  0  1  0  0  0  0  0  0
  -25.3910  -35.6860   24.1640 C   0  0  0  0  0  3  0  0  0  0  0  0
  -27.5620  -36.6190   24.8330 C   0  0  0  0  0  1  0  0  0  0  0  0
  -26.3140  -36.8400   24.1070 N   0  0  0  0  0  0  0  0  0  0  0  0
  -25.8700  -37.6730   24.4860 H   0  0  0  0  0  0  0  0  0  0  0  0
  1  2  1  0
  1  7  1  0
  2  4  1  0
  3  1  2  0
  5  9  1  0
  7 10  2  0
  8  7  1  0
  8  5  2  0
  9  6  2  0
  9 11  1  0
 10 12  1  0
 10  6  1  0
 13 19  1  0
 13 21  1  0
 14 19  1  0
 15 16  1  0
 15 14  1  0
 17 16  1  0
 17 26  1  0
 17 18  1  0
 19 18  1  0
 20 13  2  0
 21  8  1  0
 22 21  1  0
 23 24  2  0
 24 43  1  0
 25 24  1  0
 25 28  1  0
 26 27  1  0
 26 23  1  0
 27 25  2  0
 28 29  1  0
 29 30  2  0
 31 34  1  0
 31 30  1  0
 32 31  2  0
 33 32  1  0
 33 28  2  0
 34 35  1  0
 35 40  2  0
 35 36  1  0
 36 37  2  0
 37 38  1  0
 38 42  1  0
 39 38  2  0
 40 39  1  0
 41 40  1  0
 43 44  1  0
 44 47  1  0
 44 46  1  0
 45 43  2  0
 48 23  1  0
 48 49  1  0
 50 48  1  0
 51 52  1  0
 51  2  1  0
 52 53  2  0
 54 55  1  0
 54 52  1  0
 55 57  1  0
 56 67  2  0
 57 62  1  0
 58 66  1  0
 58 68  1  0
 59 65  1  0
 59 61  1  0
 60 66  1  0
 61 60  1  0
 62 61  2  0
 63 64  1  0
 63 57  2  0
 64 59  2  0
 65 58  1  0
 66 56  1  0
 68 70  2  0
 69 68  1  0
 71 69  1  0
 72 81  2  0
 72 77  1  0
 73 69  1  0
 73 77  1  0
 74 73  1  0
 75 76  1  0
 75 74  1  0
 76 72  1  0
 77 78  2  0
 78 79  1  0
 80 79  2  0
 81 80  1  0
 82 56  1  0
 82 87  1  0
 82 83  1  0
 83 86  1  1
 83 84  1  0
 85 83  1  0
 87 90  1  0
 88 87  1  0
 88 92  1  0
 89 88  2  0
 92 91  1  0
 94 92  1  0
 94 95  1  0
 94 93  1  0
M  ISO  4  13 100  21 100  54 101  55 101
M  END
>  <TORSDO>  (60) 
F 20

>  <SCORE>  (60) 
-6.439

>  <name>  (60) 
59

>  <ligand_id>  (60) 
59

>  <original_smiles>  (60) 
[H]c1c([H])c([H])c2c(c1[H])C([H])([H])C([H])([H])C([H])([H])C2([H])N([H])C(=O)C1([H])N(C(=O)C([H])(N([H])C(=O)C([H])(N([H])C([H])([H])[H])C([H])([H])[H])C(C([H])([H])[H])(C([H])([H])[H])C([H])([H])[H])C([H])([H])c2c([H])c(OC([H])([H])C(=O)C([H])([H])N([H])C(=O)c3c(F)c([H])c(F)c([H])c3N([H])C(=O)N3C([H])([H])C([H])([H])C([H])([H])C([H])(n4nc(-c5c([H])c([H])c(Oc6c([H])c([H])c(F)c([H])c6F)c([H])c5[H])c(C(=O)N([H])[H])c4N([H])[H])C3([H])[H])c([H])c([H])c2C1([H])[H]

>  <smiles>  (60) 
[H]c1c([H])c([H])c2c(c1[H])C([H])([H])C([H])([H])C([H])([H])C2([H])N([H])C(=O)C1([H])N(C(=O)C([H])(N([H])C(=O)C([H])(N([H])C([H])([H])[H])C([H])([H])[H])C(C([H])([H])[H])(C([H])([H])[H])C([H])([H])[H])C([H])([H])c2c([H])c(OC([H])([H])C(=O)C([H])([H])N([H])C(=O)c3c(F)c([H])c(F)c([H])c3N([H])C(=O)N3C([H])([H])C([H])([H])C([H])([H])C([H])(n4nc(-c5c([H])c([H])c(Oc6c([H])c([H])c(F)c([H])c6F)c([H])c5[H])c(C(=O)N([H])[H])c4N([H])[H])C3([H])[H])c([H])c([H])c2C1([H])[H]

$$$$
60:0:0
     RDKit          3D

 95103  0  0  1  0  0  0  0  0999 V2000
  -28.6410  -23.0310   19.4730 C   0  0  0  0  0  3  0  0  0  0  0  0
  -28.4060  -21.7460   19.8900 C   0  0  0  0  0  0  0  0  0  0  0  0
  -28.2540  -24.3140   20.1720 C   0  0  0  0  0  0  0  0  0  0  0  0
  -27.7540  -24.3170   21.3030 O   0  0  0  0  0  0  0  0  0  0  0  0
  -28.4920  -25.6790   19.4380 C   0  0  0  0  0  2  0  0  0  0  0  0
  -28.3220  -26.8830   20.2570 O   0  0  0  0  0  0  0  0  0  0  0  0
  -24.5320  -32.0730   23.4240 C   0  0  0  0  0  0  0  0  0  0  0  0
  -27.1520  -27.6420   20.2320 C   0  0  0  0  0  0  0  0  0  0  0  0
  -23.3220  -30.7120   21.7530 C   0  0  0  0  0  3  0  0  0  0  0  0
  -24.7680  -29.2030   20.2840 C   0  0  0  0  0  0  0  0  0  0  0  0
  -25.8540  -31.0550   21.5610 C   0  0  0  0  0  2  0  0  0  0  0  0
  -25.9320  -29.6960   20.8840 C   0  0  0  0  0  0  0  0  0  0  0  0
  -27.1240  -28.9220   20.8530 C   0  0  0  0  0  3  0  0  0  0  0  0
  -25.9590  -27.1780   19.6310 C   0  0  0  0  0  3  0  0  0  0  0  0
  -24.7790  -27.9470   19.6560 C   0  0  0  0  0  3  0  0  0  0  0  0
  -23.5280  -30.0680   20.3570 C   0  0  0  0  0  2  0  0  0  0  0  0
  -24.5880  -31.2960   22.3040 N   0  0  0  0  0  0  0  0  0  0  0  0
  -23.4510  -32.3350   23.9720 O   0  0  0  0  0  0  0  0  0  0  0  0
  -22.6700  -29.6700   22.6910 C   0  0  0  0  0  0  0  0  0  0  0  0
  -21.3540  -29.4530   22.5290 N   0  0  0  0  0  0  0  0  0  0  0  0
  -23.3470  -29.0600   23.5240 O   0  0  0  0  0  0  0  0  0  0  0  0
  -20.8680  -29.9980   21.8320 H   0  0  0  0  0  0  0  0  0  0  0  0
  -18.0130  -28.1230   22.8950 C   0  0  0  0  0  0  0  0  0  0  0  0
  -20.5430  -28.4880   23.2730 C   0  0  0  0  0  3  0  0  0  0  0  0
  -20.7290  -27.0580   22.7140 C   0  0  0  0  0  2  0  0  0  0  0  0
  -19.6860  -26.6830   21.6570 C   0  0  0  0  0  2  0  0  0  0  0  0
  -18.2720  -26.7770   22.2400 C   0  0  0  0  0  2  0  0  0  0  0  0
  -19.0800  -28.9330   23.3650 C   0  0  0  0  0  0  0  0  0  0  0  0
  -18.7850  -30.1910   23.9340 C   0  0  0  0  0  3  0  0  0  0  0  0
  -17.4550  -30.6410   24.0380 C   0  0  0  0  0  3  0  0  0  0  0  0
  -16.4010  -29.8280   23.5850 C   0  0  0  0  0  3  0  0  0  0  0  0
  -16.6810  -28.5710   23.0190 C   0  0  0  0  0  3  0  0  0  0  0  0
  -25.8180  -32.6920   24.0550 C   0  0  0  0  0  3  0  0  0  0  0  0
  -25.5360  -34.1050   24.3410 N   0  0  0  0  0  0  0  0  0  0  0  0
  -25.8900  -35.1270   23.5500 C   0  0  0  0  0  0  0  0  0  0  0  0
  -26.5600  -34.9780   22.5250 O   0  0  0  0  0  0  0  0  0  0  0  0
  -24.9440  -34.2960   25.1360 H   0  0  0  0  0  0  0  0  0  0  0  0
  -24.1880  -36.9340   23.1500 C   0  0  0  0  0  1  0  0  0  0  0  0
  -25.4300  -36.5380   23.9640 C   0  0  0  0  0  3  0  0  0  0  0  0
  -27.5810  -37.4240   24.7510 C   0  0  0  0  0  1  0  0  0  0  0  0
  -26.4780  -37.5700   23.8040 N   0  0  0  0  0  0  0  0  0  0  0  0
  -26.0870  -38.5010   23.9130 H   0  0  0  0  0  0  0  0  0  0  0  0
  -26.2900  -31.9430   25.3620 C   0  0  1  0  0  0  0  0  0  0  0  0
  -25.1670  -31.7510   26.4090 C   0  0  0  0  0  1  0  0  0  0  0  0
  -26.8580  -30.5480   25.0170 C   0  0  0  0  0  1  0  0  0  0  0  0
  -27.4380  -32.7340   26.0320 C   0  0  0  0  0  1  0  0  0  0  0  0
  -27.7540  -21.4450   21.0230 O   0  0  0  0  0  0  0  0  0  0  0  0
  -27.5190  -22.2690   21.4400 H   0  0  0  0  0  0  0  0  0  0  0  0
  -28.8470  -20.4520   19.1320 C   0  0  0  0  0  2  0  0  0  0  0  0
  -28.6360  -18.9980   19.7440 C   0  0  0  0  0  2  0  0  0  0  0  0
  -30.9740  -16.9390   22.1450 C   0  0  0  0  0  3  0  0  0  0  0  0
  -31.5780  -17.9960   22.8440 C   0  0  0  0  0  3  0  0  0  0  0  0
  -30.2770  -19.5710   21.5440 C   0  0  0  0  0  3  0  0  0  0  0  0
  -29.6600  -18.5310   20.8070 C   0  0  0  0  0  0  0  0  0  0  0  0
  -30.0200  -17.1590   21.1140 C   0  0  0  0  0  0  0  0  0  0  0  0
  -31.2280  -19.3160   22.5430 C   0  0  0  0  0  0  0  0  0  0  0  0
  -31.7970  -20.3410   23.2180 F   0  0  0  0  0  0  0  0  0  0  0  0
  -30.1560  -14.9270   19.9910 C   0  0  0  0  0  0  0  0  0  0  0  0
  -29.9460  -12.7060   18.9050 C   0  0  0  0  0  2  0  0  0  0  0  0
  -28.8880  -12.7570   17.7850 C   0  0  0  0  0  2  0  0  0  0  0  0
  -27.4850  -12.4790   18.3590 C   0  0  0  0  0  2  0  0  0  0  0  0
  -27.1770  -13.3210   19.6260 C   0  0  0  0  0  3  0  0  0  0  0  0
  -28.3460  -13.2780   20.6350 C   0  0  0  0  0  2  0  0  0  0  0  0
  -29.5570  -13.7010   19.9220 N   0  0  0  0  0  0  0  0  0  0  0  0
  -31.2420  -15.1370   19.4430 O   0  0  0  0  0  0  0  0  0  0  0  0
  -29.4460  -15.9690   20.5190 N   0  0  0  0  0  0  0  0  0  0  0  0
  -28.4650  -15.8080   20.6900 H   0  0  0  0  0  0  0  0  0  0  0  0
  -24.8530  -13.7190   20.6430 C   0  0  0  0  0  0  0  0  0  0  0  0
  -23.8820  -12.8560   21.0780 C   0  0  0  0  0  0  0  0  0  0  0  0
  -24.4170  -11.5420   20.9090 C   0  0  0  0  0  0  0  0  0  0  0  0
  -25.9130  -12.9240   20.2390 N   0  0  0  0  0  0  0  0  0  0  0  0
  -25.6640  -11.6070   20.4590 N   0  0  0  0  0  0  0  0  0  0  0  0
  -23.7920  -10.2260   21.0950 C   0  0  0  0  0  0  0  0  0  0  0  0
  -24.2940   -9.2960   22.0320 C   0  0  0  0  0  3  0  0  0  0  0  0
  -23.6640   -8.0440   22.2050 C   0  0  0  0  0  3  0  0  0  0  0  0
  -22.5180   -7.7140   21.4420 C   0  0  0  0  0  0  0  0  0  0  0  0
  -22.0380   -8.6340   20.4940 C   0  0  0  0  0  3  0  0  0  0  0  0
  -22.6690   -9.8760   20.3190 C   0  0  0  0  0  3  0  0  0  0  0  0
  -21.8570   -6.5130   21.5250 O   0  0  0  0  0  0  0  0  0  0  0  0
  -21.7610   -5.8240   22.7070 C   0  0  0  0  0  0  0  0  0  0  0  0
  -21.1360   -6.3790   23.8450 C   0  0  0  0  0  3  0  0  0  0  0  0
  -20.9980   -5.6110   25.0190 C   0  0  0  0  0  3  0  0  0  0  0  0
  -21.4740   -4.2870   25.0540 C   0  0  0  0  0  0  0  0  0  0  0  0
  -22.0930   -3.7300   23.9210 C   0  0  0  0  0  3  0  0  0  0  0  0
  -22.2330   -4.4960   22.7490 C   0  0  0  0  0  0  0  0  0  0  0  0
  -22.8100   -3.9480   21.6530 F   0  0  0  0  0  0  0  0  0  0  0  0
  -21.3350   -3.5450   26.1780 F   0  0  0  0  0  0  0  0  0  0  0  0
  -22.5000  -13.2240   21.5320 C   0  0  0  0  0  0  0  0  0  0  0  0
  -21.9180  -12.4340   22.4270 N   0  0  0  0  0  0  0  0  0  0  0  0
  -21.9450  -14.2460   21.1280 O   0  0  0  0  0  0  0  0  0  0  0  0
  -22.3810  -11.6080   22.7740 H   0  0  0  0  0  0  0  0  0  0  0  0
  -20.9960  -12.6610   22.7730 H   0  0  0  0  0  0  0  0  0  0  0  0
  -24.9140  -15.1050   20.5370 N   0  0  0  0  0  0  0  0  0  0  0  0
  -24.1240  -15.6980   20.7690 H   0  0  0  0  0  0  0  0  0  0  0  0
  -25.6850  -15.6160   20.1260 H   0  0  0  0  0  0  0  0  0  0  0  0
  1  2  2  0
  1  3  1  0
  2 47  1  0
  3  4  2  0
  5  3  1  0
  5  6  1  0
  7 18  2  0
  8  6  1  0
  8 13  1  0
  9 17  1  0
  9 19  1  0
 10 16  1  0
 10 12  1  0
 11 17  1  0
 12 11  1  0
 13 12  2  0
 14 15  1  0
 14  8  2  0
 15 10  2  0
 16  9  1  0
 17  7  1  0
 19 21  2  0
 20 19  1  0
 22 20  1  0
 23 32  2  0
 23 28  1  0
 24 20  1  0
 24 28  1  0
 25 24  1  0
 26 27  1  0
 26 25  1  0
 27 23  1  0
 28 29  2  0
 29 30  1  0
 31 30  2  0
 32 31  1  0
 33  7  1  0
 33 34  1  0
 33 43  1  0
 34 37  1  0
 35 39  1  0
 35 34  1  0
 36 35  2  0
 39 38  1  0
 41 42  1  0
 41 39  1  0
 41 40  1  0
 43 46  1  1
 43 44  1  0
 45 43  1  0
 47 48  1  0
 49 50  1  0
 49  2  1  0
 50 54  1  0
 51 52  1  0
 53 56  1  0
 54 55  1  0
 54 53  2  0
 55 51  2  0
 56 52  2  0
 56 57  1  0
 58 66  1  0
 59 64  1  0
 60 61  1  0
 60 59  1  0
 62 61  1  0
 62 71  1  0
 62 63  1  0
 64 58  1  0
 64 63  1  0
 65 58  2  0
 66 67  1  0
 66 55  1  0
 68 69  2  0
 69 88  1  0
 70 69  1  0
 70 73  1  0
 71 72  1  0
 71 68  1  0
 72 70  2  0
 73 74  1  0
 74 75  2  0
 76 79  1  0
 76 75  1  0
 77 76  2  0
 78 77  1  0
 78 73  2  0
 79 80  1  0
 80 85  2  0
 80 81  1  0
 81 82  2  0
 82 83  1  0
 83 87  1  0
 84 83  2  0
 85 84  1  0
 86 85  1  0
 88 89  1  0
 89 92  1  0
 89 91  1  0
 90 88  2  0
 93 68  1  0
 93 94  1  0
 95 93  1  0
M  ISO  4   5 101   6 101  58 100  66 100
M  END
>  <TORSDO>  (61) 
F 22

>  <SCORE>  (61) 
-12.538

>  <name>  (61) 
60

>  <ligand_id>  (61) 
60

>  <original_smiles>  (61) 
[H]OC(=C([H])C(=O)C([H])([H])Oc1c([H])c([H])c2c(c1[H])C([H])([H])N(C(=O)C([H])(N([H])C(=O)C([H])(N([H])C([H])([H])[H])C([H])([H])[H])C(C([H])([H])[H])(C([H])([H])[H])C([H])([H])[H])C([H])(C(=O)N([H])C1([H])c3c([H])c([H])c([H])c([H])c3C([H])([H])C([H])([H])C1([H])[H])C2([H])[H])C([H])([H])C([H])([H])c1c([H])c(F)c([H])c([H])c1N([H])C(=O)N1C([H])([H])C([H])([H])C([H])([H])C([H])(n2nc(-c3c([H])c([H])c(Oc4c([H])c([H])c(F)c([H])c4F)c([H])c3[H])c(C(=O)N([H])[H])c2N([H])[H])C1([H])[H]

>  <smiles>  (61) 
[H]OC(=C([H])C(=O)C([H])([H])Oc1c([H])c([H])c2c(c1[H])C([H])([H])N(C(=O)C([H])(N([H])C(=O)C([H])(N([H])C([H])([H])[H])C([H])([H])[H])C(C([H])([H])[H])(C([H])([H])[H])C([H])([H])[H])C([H])(C(=O)N([H])C1([H])c3c([H])c([H])c([H])c([H])c3C([H])([H])C([H])([H])C1([H])[H])C2([H])[H])C([H])([H])C([H])([H])c1c([H])c(F)c([H])c([H])c1N([H])C(=O)N1C([H])([H])C([H])([H])C([H])([H])C([H])(n2nc(-c3c([H])c([H])c(Oc4c([H])c([H])c(F)c([H])c4F)c([H])c3[H])c(C(=O)N([H])[H])c2N([H])[H])C1([H])[H]

$$$$
61:0:0
     RDKit          3D

 92100  0  0  1  0  0  0  0  0999 V2000
  -29.9070  -21.4630   20.0960 N   0  0  0  0  0  0  0  0  0  0  0  0
  -30.7250  -21.8740   19.6550 H   0  0  0  0  0  0  0  0  0  0  0  0
  -31.0520  -17.8780   19.8410 C   0  0  0  0  0  3  0  0  0  0  0  0
  -28.8960  -18.0140   20.8580 C   0  0  0  0  0  3  0  0  0  0  0  0
  -29.9590  -17.1770   20.4140 C   0  0  0  0  0  0  0  0  0  0  0  0
  -31.0250  -19.3000   19.7410 C   0  0  0  0  0  0  0  0  0  0  0  0
  -29.9080  -20.0370   20.2130 C   0  0  0  0  0  0  0  0  0  0  0  0
  -28.8580  -19.3830   20.7680 N   0  0  0  0  0  0  0  0  0  0  0  0
  -32.0740  -19.9570   19.1860 F   0  0  0  0  0  0  0  0  0  0  0  0
  -30.6160  -14.6770   20.0780 C   0  0  0  0  0  0  0  0  0  0  0  0
  -30.3420  -12.4800   18.9470 C   0  0  0  0  0  2  0  0  0  0  0  0
  -29.3340  -12.6550   17.7880 C   0  0  0  0  0  2  0  0  0  0  0  0
  -27.8860  -12.4840   18.2910 C   0  0  0  0  0  2  0  0  0  0  0  0
  -27.6000  -13.3010   19.5790 C   0  0  0  0  0  3  0  0  0  0  0  0
  -28.7150  -13.0970   20.6290 C   0  0  0  0  0  2  0  0  0  0  0  0
  -29.9940  -13.4580   19.9970 N   0  0  0  0  0  0  0  0  0  0  0  0
  -31.7480  -14.8510   19.6210 O   0  0  0  0  0  0  0  0  0  0  0  0
  -29.8490  -15.7150   20.5460 N   0  0  0  0  0  0  0  0  0  0  0  0
  -28.9830  -15.3950   20.9540 H   0  0  0  0  0  0  0  0  0  0  0  0
  -25.2370  -13.8810   20.4090 C   0  0  0  0  0  0  0  0  0  0  0  0
  -24.1940  -13.0990   20.8250 C   0  0  0  0  0  0  0  0  0  0  0  0
  -24.6630  -11.7510   20.7650 C   0  0  0  0  0  0  0  0  0  0  0  0
  -26.2760  -13.0080   20.1220 N   0  0  0  0  0  0  0  0  0  0  0  0
  -25.9370  -11.7220   20.3970 N   0  0  0  0  0  0  0  0  0  0  0  0
  -23.9540  -10.4830   20.9830 C   0  0  0  0  0  0  0  0  0  0  0  0
  -24.4140   -9.5320   21.9180 C   0  0  0  0  0  3  0  0  0  0  0  0
  -23.7050   -8.3280   22.1220 C   0  0  0  0  0  3  0  0  0  0  0  0
  -22.5220   -8.0680   21.3900 C   0  0  0  0  0  0  0  0  0  0  0  0
  -22.0820   -9.0080   20.4430 C   0  0  0  0  0  3  0  0  0  0  0  0
  -22.7920  -10.2030   20.2380 C   0  0  0  0  0  3  0  0  0  0  0  0
  -21.7830   -6.9160   21.5040 O   0  0  0  0  0  0  0  0  0  0  0  0
  -21.7390   -6.2010   22.6740 C   0  0  0  0  0  0  0  0  0  0  0  0
  -21.2790   -6.7730   23.8800 C   0  0  0  0  0  3  0  0  0  0  0  0
  -21.1850   -5.9820   25.0420 C   0  0  0  0  0  3  0  0  0  0  0  0
  -21.5410   -4.6220   25.0010 C   0  0  0  0  0  0  0  0  0  0  0  0
  -21.9930   -4.0490   23.8000 C   0  0  0  0  0  3  0  0  0  0  0  0
  -22.0890   -4.8350   22.6380 C   0  0  0  0  0  0  0  0  0  0  0  0
  -22.5060   -4.2740   21.4780 F   0  0  0  0  0  0  0  0  0  0  0  0
  -21.4430   -3.8600   26.1160 F   0  0  0  0  0  0  0  0  0  0  0  0
  -22.8070  -13.5660   21.1640 C   0  0  0  0  0  0  0  0  0  0  0  0
  -22.1240  -12.8580   22.0560 N   0  0  0  0  0  0  0  0  0  0  0  0
  -22.3400  -14.5930   20.6720 O   0  0  0  0  0  0  0  0  0  0  0  0
  -22.5160  -12.0280   22.4760 H   0  0  0  0  0  0  0  0  0  0  0  0
  -21.1960  -13.1530   22.3260 H   0  0  0  0  0  0  0  0  0  0  0  0
  -25.3840  -15.2530   20.2280 N   0  0  0  0  0  0  0  0  0  0  0  0
  -24.6080  -15.8940   20.3590 H   0  0  0  0  0  0  0  0  0  0  0  0
  -26.1920  -15.6910   19.8040 H   0  0  0  0  0  0  0  0  0  0  0  0
  -28.8530  -22.4390   20.5120 C   0  0  0  0  0  2  0  0  0  0  0  0
  -29.1500  -23.9700   20.2240 C   0  0  0  0  0  0  0  0  0  0  0  0
  -30.2220  -24.2940   19.6990 O   0  0  0  0  0  0  0  0  0  0  0  0
  -28.0750  -25.0640   20.6040 C   0  0  0  0  0  2  0  0  0  0  0  0
  -28.3650  -26.4800   20.2490 O   0  0  0  0  0  0  0  0  0  0  0  0
  -24.6030  -31.8670   23.2610 C   0  0  0  0  0  0  0  0  0  0  0  0
  -27.2540  -27.3370   20.2070 C   0  0  0  0  0  0  0  0  0  0  0  0
  -23.4160  -30.4700   21.6090 C   0  0  0  0  0  3  0  0  0  0  0  0
  -24.8820  -28.9350   20.1850 C   0  0  0  0  0  0  0  0  0  0  0  0
  -25.9540  -30.8030   21.4420 C   0  0  0  0  0  2  0  0  0  0  0  0
  -26.0460  -29.4280   20.7920 C   0  0  0  0  0  0  0  0  0  0  0  0
  -27.2370  -28.6410   20.7920 C   0  0  0  0  0  3  0  0  0  0  0  0
  -26.0730  -26.9060   19.5630 C   0  0  0  0  0  3  0  0  0  0  0  0
  -24.8980  -27.6790   19.5620 C   0  0  0  0  0  3  0  0  0  0  0  0
  -23.6410  -29.8010   20.2280 C   0  0  0  0  0  2  0  0  0  0  0  0
  -24.6760  -31.0630   22.1610 N   0  0  0  0  0  0  0  0  0  0  0  0
  -23.5160  -32.1380   23.7910 O   0  0  0  0  0  0  0  0  0  0  0  0
  -22.7530  -29.4450   22.5610 C   0  0  0  0  0  0  0  0  0  0  0  0
  -21.4280  -29.2620   22.4250 N   0  0  0  0  0  0  0  0  0  0  0  0
  -23.4290  -28.8190   23.3800 O   0  0  0  0  0  0  0  0  0  0  0  0
  -20.9410  -29.8210   21.7370 H   0  0  0  0  0  0  0  0  0  0  0  0
  -18.0510  -28.0580   22.9040 C   0  0  0  0  0  0  0  0  0  0  0  0
  -20.6080  -28.3200   23.1870 C   0  0  0  0  0  3  0  0  0  0  0  0
  -20.7130  -26.8910   22.6040 C   0  0  0  0  0  2  0  0  0  0  0  0
  -19.6170  -26.5720   21.5840 C   0  0  0  0  0  2  0  0  0  0  0  0
  -18.2320  -26.7120   22.2230 C   0  0  0  0  0  2  0  0  0  0  0  0
  -19.1660  -28.8190   23.3430 C   0  0  0  0  0  0  0  0  0  0  0  0
  -18.9430  -30.0790   23.9400 C   0  0  0  0  0  3  0  0  0  0  0  0
  -17.6360  -30.5780   24.1030 C   0  0  0  0  0  3  0  0  0  0  0  0
  -16.5350  -29.8130   23.6800 C   0  0  0  0  0  3  0  0  0  0  0  0
  -16.7430  -28.5550   23.0870 C   0  0  0  0  0  3  0  0  0  0  0  0
  -25.8790  -32.5020   23.8930 C   0  0  0  0  0  3  0  0  0  0  0  0
  -26.3850  -31.7350   25.1770 C   0  0  1  0  0  0  0  0  0  0  0  0
  -25.2810  -31.4990   26.2350 C   0  0  0  0  0  1  0  0  0  0  0  0
  -26.9750  -30.3590   24.7950 C   0  0  0  0  0  1  0  0  0  0  0  0
  -27.5270  -32.5340   25.8490 C   0  0  0  0  0  1  0  0  0  0  0  0
  -25.5660  -33.9010   24.2170 N   0  0  0  0  0  0  0  0  0  0  0  0
  -25.9020  -34.9520   23.4580 C   0  0  0  0  0  0  0  0  0  0  0  0
  -26.5780  -34.8470   22.4310 O   0  0  0  0  0  0  0  0  0  0  0  0
  -24.9670  -34.0580   25.0140 H   0  0  0  0  0  0  0  0  0  0  0  0
  -24.1800  -36.7470   23.0800 C   0  0  0  0  0  1  0  0  0  0  0  0
  -25.4090  -36.3420   23.9080 C   0  0  0  0  0  3  0  0  0  0  0  0
  -27.5320  -37.2270   24.7700 C   0  0  0  0  0  1  0  0  0  0  0  0
  -26.4440  -37.3940   23.8080 N   0  0  0  0  0  0  0  0  0  0  0  0
  -26.0370  -38.3140   23.9460 H   0  0  0  0  0  0  0  0  0  0  0  0
  1  7  1  0
  1 48  1  0
  2  1  1  0
  3  5  1  0
  5 18  1  0
  5  4  2  0
  6  3  2  0
  6  7  1  0
  7  8  2  0
  8  4  1  0
  9  6  1  0
 10 18  1  0
 11 16  1  0
 12 13  1  0
 12 11  1  0
 14 13  1  0
 14 23  1  0
 14 15  1  0
 16 10  1  0
 16 15  1  0
 17 10  2  0
 18 19  1  0
 20 21  2  0
 21 40  1  0
 22 21  1  0
 22 25  1  0
 23 24  1  0
 23 20  1  0
 24 22  2  0
 25 26  1  0
 26 27  2  0
 28 31  1  0
 28 27  1  0
 29 28  2  0
 30 29  1  0
 30 25  2  0
 31 32  1  0
 32 33  1  0
 33 34  2  0
 35 34  1  0
 35 39  1  0
 36 35  2  0
 37 32  2  0
 37 36  1  0
 38 37  1  0
 40 41  1  0
 41 44  1  0
 41 43  1  0
 42 40  2  0
 45 46  1  0
 45 20  1  0
 47 45  1  0
 49 48  1  0
 49 51  1  0
 50 49  2  0
 52 51  1  0
 53 64  2  0
 54 52  1  0
 54 59  1  0
 55 63  1  0
 55 65  1  0
 56 62  1  0
 56 58  1  0
 57 63  1  0
 58 57  1  0
 59 58  2  0
 60 54  2  0
 61 60  1  0
 61 56  2  0
 62 55  1  0
 63 53  1  0
 65 67  2  0
 66 65  1  0
 68 66  1  0
 69 78  2  0
 69 74  1  0
 70 66  1  0
 70 74  1  0
 71 70  1  0
 72 73  1  0
 72 71  1  0
 73 69  1  0
 74 75  2  0
 75 76  1  0
 77 76  2  0
 78 77  1  0
 79 53  1  0
 79 84  1  0
 79 80  1  0
 80 83  1  1
 80 81  1  0
 82 80  1  0
 84 87  1  0
 85 89  1  0
 85 84  1  0
 86 85  2  0
 89 88  1  0
 91 89  1  0
 91 92  1  0
 91 90  1  0
M  ISO  4  10 100  18 100  51 101  52 101
M  END
>  <TORSDO>  (62) 
F 20

>  <SCORE>  (62) 
-13.652

>  <name>  (62) 
61

>  <ligand_id>  (62) 
61

>  <original_smiles>  (62) 
[H]c1nc(N([H])C([H])([H])C(=O)C([H])([H])Oc2c([H])c([H])c3c(c2[H])C([H])([H])N(C(=O)C([H])(N([H])C(=O)C([H])(N([H])C([H])([H])[H])C([H])([H])[H])C(C([H])([H])[H])(C([H])([H])[H])C([H])([H])[H])C([H])(C(=O)N([H])C2([H])c4c([H])c([H])c([H])c([H])c4C([H])([H])C([H])([H])C2([H])[H])C3([H])[H])c(F)c([H])c1N([H])C(=O)N1C([H])([H])C([H])([H])C([H])([H])C([H])(n2nc(-c3c([H])c([H])c(Oc4c([H])c([H])c(F)c([H])c4F)c([H])c3[H])c(C(=O)N([H])[H])c2N([H])[H])C1([H])[H]

>  <smiles>  (62) 
[H]c1nc(N([H])C([H])([H])C(=O)C([H])([H])Oc2c([H])c([H])c3c(c2[H])C([H])([H])N(C(=O)C([H])(N([H])C(=O)C([H])(N([H])C([H])([H])[H])C([H])([H])[H])C(C([H])([H])[H])(C([H])([H])[H])C([H])([H])[H])C([H])(C(=O)N([H])C2([H])c4c([H])c([H])c([H])c([H])c4C([H])([H])C([H])([H])C2([H])[H])C3([H])[H])c(F)c([H])c1N([H])C(=O)N1C([H])([H])C([H])([H])C([H])([H])C([H])(n2nc(-c3c([H])c([H])c(Oc4c([H])c([H])c(F)c([H])c4F)c([H])c3[H])c(C(=O)N([H])[H])c2N([H])[H])C1([H])[H]

$$$$
62:0:0
     RDKit          3D

 98106  0  0  1  0  0  0  0  0999 V2000
  -28.3990  -18.4810   20.2360 C   0  0  0  0  0  3  0  0  0  0  0  0
  -28.1690  -19.8750   20.1530 C   0  0  0  0  0  3  0  0  0  0  0  0
  -29.7540  -20.2360   21.9370 C   0  0  0  0  0  3  0  0  0  0  0  0
  -29.3540  -17.9330   21.1340 C   0  0  0  0  0  0  0  0  0  0  0  0
  -30.0070  -18.8420   22.0190 C   0  0  0  0  0  0  0  0  0  0  0  0
  -28.9020  -20.7860   20.9510 C   0  0  0  0  0  0  0  0  0  0  0  0
  -31.0520  -18.3780   23.0250 C   0  0  0  0  0  1  0  0  0  0  0  0
  -28.5330  -22.9710   19.7290 C   0  0  0  0  0  0  0  0  0  0  0  0
  -28.8480  -22.2180   20.8130 N   0  0  0  0  0  0  0  0  0  0  0  0
  -28.0790  -22.4900   18.6900 O   0  0  0  0  0  0  0  0  0  0  0  0
  -29.2030  -22.7430   21.5940 H   0  0  0  0  0  0  0  0  0  0  0  0
  -28.2320  -25.2670   18.9840 C   0  0  0  0  0  3  0  0  0  0  0  0
  -28.7590  -24.4210   19.9060 C   0  0  0  0  0  0  0  0  0  0  0  0
  -29.4860  -24.8960   20.9300 O   0  0  0  0  0  0  0  0  0  0  0  0
  -30.0500  -24.1970   21.2370 H   0  0  0  0  0  0  0  0  0  0  0  0
  -28.3350  -26.6400   19.0100 O   0  0  0  0  0  0  0  0  0  0  0  0
  -24.8400  -31.4630   22.8690 C   0  0  0  0  0  0  0  0  0  0  0  0
  -27.1750  -27.3770   19.1310 C   0  0  0  0  0  0  0  0  0  0  0  0
  -23.4890  -30.2510   21.1900 C   0  0  0  0  0  3  0  0  0  0  0  0
  -24.8050  -28.8880   19.4860 C   0  0  0  0  0  0  0  0  0  0  0  0
  -25.9880  -30.6400   20.8130 C   0  0  0  0  0  2  0  0  0  0  0  0
  -26.0140  -29.3450   20.0230 C   0  0  0  0  0  0  0  0  0  0  0  0
  -27.2030  -28.5980   19.8420 C   0  0  0  0  0  3  0  0  0  0  0  0
  -25.9450  -26.9420   18.5770 C   0  0  0  0  0  3  0  0  0  0  0  0
  -24.7660  -27.6860   18.7600 C   0  0  0  0  0  3  0  0  0  0  0  0
  -23.5790  -29.7400   19.7270 C   0  0  0  0  0  2  0  0  0  0  0  0
  -24.7960  -30.7920   21.6830 N   0  0  0  0  0  0  0  0  0  0  0  0
  -23.8100  -31.6690   23.5240 O   0  0  0  0  0  0  0  0  0  0  0  0
  -22.9100  -29.1230   22.0760 C   0  0  0  0  0  0  0  0  0  0  0  0
  -21.5810  -28.9430   22.0320 N   0  0  0  0  0  0  0  0  0  0  0  0
  -23.6550  -28.4240   22.7660 O   0  0  0  0  0  0  0  0  0  0  0  0
  -21.0380  -29.5760   21.4610 H   0  0  0  0  0  0  0  0  0  0  0  0
  -18.2610  -27.6310   22.5910 C   0  0  0  0  0  0  0  0  0  0  0  0
  -20.8250  -27.9210   22.7560 C   0  0  0  0  0  3  0  0  0  0  0  0
  -20.9200  -26.5470   22.0520 C   0  0  0  0  0  2  0  0  0  0  0  0
  -19.7720  -26.2890   21.0710 C   0  0  0  0  0  2  0  0  0  0  0  0
  -18.4250  -26.3470   21.7950 C   0  0  0  0  0  2  0  0  0  0  0  0
  -19.3870  -28.3770   23.0300 C   0  0  0  0  0  0  0  0  0  0  0  0
  -19.1740  -29.5810   23.7360 C   0  0  0  0  0  3  0  0  0  0  0  0
  -17.8720  -30.0370   24.0090 C   0  0  0  0  0  3  0  0  0  0  0  0
  -16.7630  -29.2860   23.5840 C   0  0  0  0  0  3  0  0  0  0  0  0
  -16.9580  -28.0850   22.8800 C   0  0  0  0  0  3  0  0  0  0  0  0
  -26.1750  -32.0210   23.4460 C   0  0  0  0  0  3  0  0  0  0  0  0
  -25.8900  -33.3460   24.0180 N   0  0  0  0  0  0  0  0  0  0  0  0
  -26.1280  -34.5090   23.3970 C   0  0  0  0  0  0  0  0  0  0  0  0
  -26.6880  -34.5800   22.3000 O   0  0  0  0  0  0  0  0  0  0  0  0
  -25.3870  -33.3630   24.8930 H   0  0  0  0  0  0  0  0  0  0  0  0
  -24.3500  -36.2850   23.4980 C   0  0  0  0  0  1  0  0  0  0  0  0
  -25.6760  -35.8010   24.1040 C   0  0  0  0  0  3  0  0  0  0  0  0
  -27.8810  -36.6150   24.8250 C   0  0  0  0  0  1  0  0  0  0  0  0
  -26.6780  -36.8880   24.0420 N   0  0  0  0  0  0  0  0  0  0  0  0
  -26.2770  -37.7650   24.3680 H   0  0  0  0  0  0  0  0  0  0  0  0
  -26.8360  -31.0740   24.5230 C   0  0  1  0  0  0  0  0  0  0  0  0
  -25.8740  -30.6410   25.6550 C   0  0  0  0  0  1  0  0  0  0  0  0
  -27.3740  -29.7890   23.8510 C   0  0  0  0  0  1  0  0  0  0  0  0
  -28.0480  -31.7840   25.1720 C   0  0  0  0  0  1  0  0  0  0  0  0
  -29.6850  -16.4080   21.0960 C   0  0  0  0  0  2  0  0  0  0  0  0
  -31.3630  -14.6660   20.0740 C   0  0  0  0  0  0  0  0  0  0  0  0
  -30.8750  -12.5180   18.9430 C   0  0  0  0  0  2  0  0  0  0  0  0
  -29.9170  -12.7050   17.7500 C   0  0  0  0  0  2  0  0  0  0  0  0
  -28.4570  -12.5840   18.2300 C   0  0  0  0  0  2  0  0  0  0  0  0
  -28.1720  -13.4640   19.4730 C   0  0  0  0  0  3  0  0  0  0  0  0
  -29.2620  -13.2940   20.5590 C   0  0  0  0  0  2  0  0  0  0  0  0
  -30.5530  -13.5740   19.9330 N   0  0  0  0  0  0  0  0  0  0  0  0
  -32.5310  -14.5730   19.6760 O   0  0  0  0  0  0  0  0  0  0  0  0
  -30.8600  -15.9420   20.2860 N   0  0  0  0  0  0  0  0  0  0  0  0
  -25.8430  -14.1250   20.3130 C   0  0  0  0  0  0  0  0  0  0  0  0
  -24.7680  -13.3790   20.7180 C   0  0  0  0  0  0  0  0  0  0  0  0
  -25.1850  -12.0140   20.6380 C   0  0  0  0  0  0  0  0  0  0  0  0
  -26.8430  -13.2170   20.0130 N   0  0  0  0  0  0  0  0  0  0  0  0
  -26.4570  -11.9410   20.2720 N   0  0  0  0  0  0  0  0  0  0  0  0
  -24.4260  -10.7720   20.8300 C   0  0  0  0  0  0  0  0  0  0  0  0
  -24.8150   -9.8090   21.7880 C   0  0  0  0  0  3  0  0  0  0  0  0
  -24.0600   -8.6310   21.9710 C   0  0  0  0  0  3  0  0  0  0  0  0
  -22.8970   -8.4100   21.1930 C   0  0  0  0  0  0  0  0  0  0  0  0
  -22.5250   -9.3580   20.2250 C   0  0  0  0  0  3  0  0  0  0  0  0
  -23.2840  -10.5270   20.0410 C   0  0  0  0  0  3  0  0  0  0  0  0
  -22.1170   -7.2830   21.2810 O   0  0  0  0  0  0  0  0  0  0  0  0
  -21.9360   -6.6210   22.4690 C   0  0  0  0  0  0  0  0  0  0  0  0
  -21.4230   -7.2700   23.6130 C   0  0  0  0  0  3  0  0  0  0  0  0
  -21.1890   -6.5360   24.7930 C   0  0  0  0  0  3  0  0  0  0  0  0
  -21.4590   -5.1560   24.8280 C   0  0  0  0  0  0  0  0  0  0  0  0
  -21.9680   -4.5070   23.6900 C   0  0  0  0  0  3  0  0  0  0  0  0
  -22.2000   -5.2380   22.5100 C   0  0  0  0  0  0  0  0  0  0  0  0
  -22.6700   -4.6040   21.4090 F   0  0  0  0  0  0  0  0  0  0  0  0
  -21.2270   -4.4480   25.9590 F   0  0  0  0  0  0  0  0  0  0  0  0
  -23.4000  -13.8990   21.0510 C   0  0  0  0  0  0  0  0  0  0  0  0
  -22.6990  -13.2390   21.9650 N   0  0  0  0  0  0  0  0  0  0  0  0
  -22.9640  -14.9260   20.5350 O   0  0  0  0  0  0  0  0  0  0  0  0
  -23.0550  -12.4040   22.4000 H   0  0  0  0  0  0  0  0  0  0  0  0
  -21.7880  -13.5800   22.2350 H   0  0  0  0  0  0  0  0  0  0  0  0
  -26.0410  -15.4920   20.1500 N   0  0  0  0  0  0  0  0  0  0  0  0
  -25.2860  -16.1610   20.2800 H   0  0  0  0  0  0  0  0  0  0  0  0
  -26.8540  -15.9040   19.7110 H   0  0  0  0  0  0  0  0  0  0  0  0
  -31.7260  -17.0250   19.7520 C   0  0  0  0  0  2  0  0  0  0  0  0
  -31.5910  -17.1260   18.2140 C   0  0  0  0  0  3  0  0  0  0  0  0
  -30.3200  -16.9170   17.8580 F   0  0  0  0  0  0  0  0  0  0  0  0
  -31.9810  -18.3330   17.7960 F   0  0  0  0  0  0  0  0  0  0  0  0
  1  4  1  0
  2  1  2  0
  2  6  1  0
  3  5  1  0
  4  5  2  0
  5  7  1  0
  6  3  2  0
  8 13  1  0
  8  9  1  0
  9  6  1  0
  9 11  1  0
 10  8  2  0
 12 16  1  0
 12 13  2  0
 13 14  1  0
 14 15  1  0
 16 18  1  0
 17 28  2  0
 18 23  1  0
 19 27  1  0
 19 29  1  0
 20 26  1  0
 20 22  1  0
 21 27  1  0
 22 21  1  0
 23 22  2  0
 24 25  1  0
 24 18  2  0
 25 20  2  0
 26 19  1  0
 27 17  1  0
 29 31  2  0
 30 29  1  0
 32 30  1  0
 33 42  2  0
 33 38  1  0
 34 30  1  0
 34 38  1  0
 35 34  1  0
 36 37  1  0
 36 35  1  0
 37 33  1  0
 38 39  2  0
 39 40  1  0
 41 40  2  0
 42 41  1  0
 43 17  1  0
 43 44  1  0
 43 53  1  0
 44 47  1  0
 45 44  1  0
 45 49  1  0
 46 45  2  0
 49 48  1  0
 51 49  1  0
 51 52  1  0
 51 50  1  0
 53 56  1  1
 53 54  1  0
 55 53  1  0
 57  4  1  0
 58 66  1  0
 59 64  1  0
 60 61  1  0
 60 59  1  0
 62 61  1  0
 62 70  1  0
 62 63  1  0
 64 58  1  0
 64 63  1  0
 65 58  2  0
 66 57  1  0
 67 68  2  0
 68 87  1  0
 69 68  1  0
 69 72  1  0
 70 71  1  0
 70 67  1  0
 71 69  2  0
 72 73  1  0
 73 74  2  0
 75 78  1  0
 75 74  1  0
 76 75  2  0
 77 76  1  0
 77 72  2  0
 78 79  1  0
 79 84  2  0
 79 80  1  0
 80 81  2  0
 81 82  1  0
 82 86  1  0
 83 82  2  0
 84 83  1  0
 85 84  1  0
 87 88  1  0
 88 91  1  0
 88 90  1  0
 89 87  2  0
 92 93  1  0
 92 67  1  0
 94 92  1  0
 95 66  1  0
 96 95  1  0
 97 96  1  0
 98 96  1  0
M  ISO  4  12 101  16 101  58 100  66 100
M  END
>  <TORSDO>  (63) 
F 22

>  <SCORE>  (63) 
-10.612

>  <name>  (63) 
62

>  <ligand_id>  (63) 
62

>  <original_smiles>  (63) 
[H]OC(C(=O)N([H])c1c([H])c([H])c(C([H])([H])N(C(=O)N2C([H])([H])C([H])([H])C([H])([H])C([H])(n3nc(-c4c([H])c([H])c(Oc5c([H])c([H])c(F)c([H])c5F)c([H])c4[H])c(C(=O)N([H])[H])c3N([H])[H])C2([H])[H])C([H])([H])C([H])(F)F)c(C([H])([H])[H])c1[H])=C([H])Oc1c([H])c([H])c2c(c1[H])C([H])([H])N(C(=O)C([H])(N([H])C(=O)C([H])(N([H])C([H])([H])[H])C([H])([H])[H])C(C([H])([H])[H])(C([H])([H])[H])C([H])([H])[H])C([H])(C(=O)N([H])C1([H])c3c([H])c([H])c([H])c([H])c3C([H])([H])C([H])([H])C1([H])[H])C2([H])[H]

>  <smiles>  (63) 
[H]OC(C(=O)N([H])c1c([H])c([H])c(C([H])([H])N(C(=O)N2C([H])([H])C([H])([H])C([H])([H])C([H])(n3nc(-c4c([H])c([H])c(Oc5c([H])c([H])c(F)c([H])c5F)c([H])c4[H])c(C(=O)N([H])[H])c3N([H])[H])C2([H])[H])C([H])([H])C([H])(F)F)c(C([H])([H])[H])c1[H])=C([H])Oc1c([H])c([H])c2c(c1[H])C([H])([H])N(C(=O)C([H])(N([H])C(=O)C([H])(N([H])C([H])([H])[H])C([H])([H])[H])C(C([H])([H])[H])(C([H])([H])[H])C([H])([H])[H])C([H])(C(=O)N([H])C1([H])c3c([H])c([H])c([H])c([H])c3C([H])([H])C([H])([H])C1([H])[H])C2([H])[H]

$$$$
63:0:0
     RDKit          3D

100108  0  0  1  0  0  0  0  0999 V2000
  -30.5890  -14.5620   20.6130 C   0  0  0  0  0  0  0  0  0  0  0  0
  -30.4570  -12.3720   19.4250 C   0  0  0  0  0  2  0  0  0  0  0  0
  -29.5120  -12.5310   18.2090 C   0  0  0  0  0  2  0  0  0  0  0  0
  -28.0290  -12.3670   18.6120 C   0  0  0  0  0  2  0  0  0  0  0  0
  -27.6630  -13.1900   19.8760 C   0  0  0  0  0  3  0  0  0  0  0  0
  -28.7030  -12.9300   20.9880 C   0  0  0  0  0  2  0  0  0  0  0  0
  -30.0230  -13.3260   20.4590 N   0  0  0  0  0  0  0  0  0  0  0  0
  -31.7040  -14.8390   20.1450 O   0  0  0  0  0  0  0  0  0  0  0  0
  -29.2160  -18.2960   23.4830 C   0  0  0  0  0  3  0  0  0  0  0  0
  -29.5110  -17.0200   22.9860 C   0  0  0  0  0  3  0  0  0  0  0  0
  -29.1920  -19.4010   22.6010 C   0  0  0  0  0  0  0  0  0  0  0  0
  -29.7950  -16.8310   21.6220 C   0  0  0  0  0  0  0  0  0  0  0  0
  -29.5050  -19.1750   21.2350 C   0  0  0  0  0  0  0  0  0  0  0  0
  -29.8130  -17.9180   20.7760 N   0  0  0  0  0  0  0  0  0  0  0  0
  -29.7640  -15.4410   21.2450 N   0  0  0  0  0  0  0  0  0  0  0  0
  -28.9630  -14.9600   21.6210 H   0  0  0  0  0  0  0  0  0  0  0  0
  -25.2600  -13.8110   20.5650 C   0  0  0  0  0  0  0  0  0  0  0  0
  -24.1820  -13.0430   20.9150 C   0  0  0  0  0  0  0  0  0  0  0  0
  -24.6340  -11.6870   20.8700 C   0  0  0  0  0  0  0  0  0  0  0  0
  -26.3000  -12.9220   20.3320 N   0  0  0  0  0  0  0  0  0  0  0  0
  -25.9260  -11.6400   20.5700 N   0  0  0  0  0  0  0  0  0  0  0  0
  -23.8980  -10.4280   21.0410 C   0  0  0  0  0  0  0  0  0  0  0  0
  -24.3550   -9.4210   21.9180 C   0  0  0  0  0  3  0  0  0  0  0  0
  -23.6250   -8.2230   22.0750 C   0  0  0  0  0  3  0  0  0  0  0  0
  -22.4240   -8.0250   21.3540 C   0  0  0  0  0  0  0  0  0  0  0  0
  -21.9850   -9.0210   20.4630 C   0  0  0  0  0  3  0  0  0  0  0  0
  -22.7150  -10.2120   20.3040 C   0  0  0  0  0  3  0  0  0  0  0  0
  -21.6620   -6.8860   21.4230 O   0  0  0  0  0  0  0  0  0  0  0  0
  -21.6850   -6.0720   22.5270 C   0  0  0  0  0  0  0  0  0  0  0  0
  -21.4010   -6.5620   23.8210 C   0  0  0  0  0  3  0  0  0  0  0  0
  -21.3660   -5.6770   24.9170 C   0  0  0  0  0  3  0  0  0  0  0  0
  -21.6050   -4.3040   24.7210 C   0  0  0  0  0  0  0  0  0  0  0  0
  -21.8820   -3.8130   23.4340 C   0  0  0  0  0  3  0  0  0  0  0  0
  -21.9190   -4.6930   22.3400 C   0  0  0  0  0  0  0  0  0  0  0  0
  -22.1660   -4.2140   21.0970 F   0  0  0  0  0  0  0  0  0  0  0  0
  -21.5640   -3.4520   25.7720 F   0  0  0  0  0  0  0  0  0  0  0  0
  -22.7860  -13.5270   21.1840 C   0  0  0  0  0  0  0  0  0  0  0  0
  -22.0460  -12.8290   22.0380 N   0  0  0  0  0  0  0  0  0  0  0  0
  -22.3570  -14.5570   20.6660 O   0  0  0  0  0  0  0  0  0  0  0  0
  -22.4040  -11.9950   22.4770 H   0  0  0  0  0  0  0  0  0  0  0  0
  -21.1080  -13.1360   22.2560 H   0  0  0  0  0  0  0  0  0  0  0  0
  -25.4390  -15.1810   20.4050 N   0  0  0  0  0  0  0  0  0  0  0  0
  -24.6740  -15.8400   20.5070 H   0  0  0  0  0  0  0  0  0  0  0  0
  -26.2890  -15.6110   20.0590 H   0  0  0  0  0  0  0  0  0  0  0  0
  -28.7670  -21.1870   24.3020 C   0  0  0  0  0  0  0  0  0  0  0  0
  -28.8110  -20.6970   23.0540 N   0  0  0  0  0  0  0  0  0  0  0  0
  -29.2800  -20.6700   25.2980 O   0  0  0  0  0  0  0  0  0  0  0  0
  -28.4820  -21.3300   22.3380 H   0  0  0  0  0  0  0  0  0  0  0  0
  -28.0050  -22.5260   24.3580 C   0  0  0  0  0  0  0  0  0  0  0  0
  -28.8360  -23.7870   24.5460 C   0  0  0  0  0  1  0  0  0  0  0  0
  -26.7780  -22.5870   24.2370 O   0  0  0  0  0  0  0  0  0  0  0  0
  -29.5760  -20.2320   20.2810 N   0  0  0  0  0  0  0  0  0  0  0  0
  -29.9470  -19.9290   19.3880 H   0  0  0  0  0  0  0  0  0  0  0  0
  -28.6600  -21.4060   20.1660 C   0  0  0  0  0  2  0  0  0  0  0  0
  -30.2440  -22.9490   18.8590 C   0  0  0  0  0  1  0  0  0  0  0  0
  -29.3660  -22.8230   20.1220 C   0  0  0  0  0  3  0  0  0  0  0  0
  -28.4270  -24.0750   20.3360 C   0  0  0  0  0  0  0  0  0  0  0  0
  -27.5710  -24.0340   21.2240 O   0  0  0  0  0  0  0  0  0  0  0  0
  -28.5810  -25.3710   19.4620 C   0  0  0  0  0  2  0  0  0  0  0  0
  -28.4000  -26.6300   20.1750 O   0  0  0  0  0  0  0  0  0  0  0  0
  -24.6210  -31.8640   23.2110 C   0  0  0  0  0  0  0  0  0  0  0  0
  -27.2310  -27.3820   20.1030 C   0  0  0  0  0  0  0  0  0  0  0  0
  -23.4120  -30.4860   21.5540 C   0  0  0  0  0  3  0  0  0  0  0  0
  -24.8550  -28.9490   20.1060 C   0  0  0  0  0  0  0  0  0  0  0  0
  -25.9430  -30.8180   21.3670 C   0  0  0  0  0  2  0  0  0  0  0  0
  -26.0190  -29.4520   20.7000 C   0  0  0  0  0  0  0  0  0  0  0  0
  -27.2060  -28.6800   20.6840 C   0  0  0  0  0  3  0  0  0  0  0  0
  -26.0450  -26.9000   19.5050 C   0  0  0  0  0  3  0  0  0  0  0  0
  -24.8660  -27.6770   19.5030 C   0  0  0  0  0  3  0  0  0  0  0  0
  -23.6200  -29.8230   20.1660 C   0  0  0  0  0  2  0  0  0  0  0  0
  -24.6770  -31.0700   22.1020 N   0  0  0  0  0  0  0  0  0  0  0  0
  -23.5400  -32.1440   23.7480 O   0  0  0  0  0  0  0  0  0  0  0  0
  -22.7470  -29.4620   22.5020 C   0  0  0  0  0  0  0  0  0  0  0  0
  -21.4190  -29.3020   22.3770 N   0  0  0  0  0  0  0  0  0  0  0  0
  -23.4220  -28.8170   23.3060 O   0  0  0  0  0  0  0  0  0  0  0  0
  -20.9380  -29.8740   21.6970 H   0  0  0  0  0  0  0  0  0  0  0  0
  -18.0290  -28.1390   22.8520 C   0  0  0  0  0  0  0  0  0  0  0  0
  -20.5890  -28.3660   23.1360 C   0  0  0  0  0  3  0  0  0  0  0  0
  -20.6760  -26.9390   22.5450 C   0  0  0  0  0  2  0  0  0  0  0  0
  -19.5720  -26.6400   21.5250 C   0  0  0  0  0  2  0  0  0  0  0  0
  -18.1910  -26.7940   22.1670 C   0  0  0  0  0  2  0  0  0  0  0  0
  -19.1540  -28.8850   23.2920 C   0  0  0  0  0  0  0  0  0  0  0  0
  -18.9440  -30.1470   23.8900 C   0  0  0  0  0  3  0  0  0  0  0  0
  -17.6440  -30.6590   24.0570 C   0  0  0  0  0  3  0  0  0  0  0  0
  -16.5340  -29.9090   23.6330 C   0  0  0  0  0  3  0  0  0  0  0  0
  -16.7290  -28.6520   23.0350 C   0  0  0  0  0  3  0  0  0  0  0  0
  -25.9080  -32.4810   23.8410 C   0  0  0  0  0  3  0  0  0  0  0  0
  -25.5930  -33.8610   24.2350 N   0  0  0  0  0  0  0  0  0  0  0  0
  -25.9030  -34.9460   23.5140 C   0  0  0  0  0  0  0  0  0  0  0  0
  -26.5560  -34.8940   22.4680 O   0  0  0  0  0  0  0  0  0  0  0  0
  -25.0190  -33.9760   25.0570 H   0  0  0  0  0  0  0  0  0  0  0  0
  -24.1450  -36.7230   23.2640 C   0  0  0  0  0  1  0  0  0  0  0  0
  -25.4090  -36.3090   24.0370 C   0  0  0  0  0  3  0  0  0  0  0  0
  -27.5580  -37.1760   24.8480 C   0  0  0  0  0  1  0  0  0  0  0  0
  -26.4250  -37.3810   23.9480 N   0  0  0  0  0  0  0  0  0  0  0  0
  -26.0140  -38.2880   24.1570 H   0  0  0  0  0  0  0  0  0  0  0  0
  -26.4500  -31.6610   25.0750 C   0  0  1  0  0  0  0  0  0  0  0  0
  -25.3780  -31.3700   26.1520 C   0  0  0  0  0  1  0  0  0  0  0  0
  -27.0320  -30.3060   24.6100 C   0  0  0  0  0  1  0  0  0  0  0  0
  -27.6060  -32.4370   25.7480 C   0  0  0  0  0  1  0  0  0  0  0  0
  1 15  1  0
  2  7  1  0
  3  4  1  0
  3  2  1  0
  5  4  1  0
  5 20  1  0
  5  6  1  0
  7  1  1  0
  7  6  1  0
  8  1  2  0
 10  9  1  0
 11 46  1  0
 11  9  2  0
 12 10  2  0
 13 11  1  0
 14 13  2  0
 14 12  1  0
 15 16  1  0
 15 12  1  0
 17 18  2  0
 18 37  1  0
 19 18  1  0
 19 22  1  0
 20 17  1  0
 20 21  1  0
 21 19  2  0
 22 23  1  0
 23 24  2  0
 25 28  1  0
 25 24  1  0
 26 25  2  0
 27 26  1  0
 27 22  2  0
 28 29  1  0
 29 30  1  0
 30 31  2  0
 32 31  1  0
 32 36  1  0
 33 32  2  0
 34 29  2  0
 34 33  1  0
 35 34  1  0
 37 38  1  0
 38 41  1  0
 38 40  1  0
 39 37  2  0
 42 43  1  0
 42 17  1  0
 44 42  1  0
 45 49  1  0
 45 47  2  0
 46 45  1  0
 48 46  1  0
 49 50  1  0
 51 49  2  0
 52 13  1  0
 53 52  1  0
 54 52  1  0
 56 55  1  0
 56 54  1  0
 56 57  1  0
 57 58  2  0
 59 60  1  0
 59 57  1  0
 61 72  2  0
 62 60  1  0
 62 67  1  0
 63 71  1  0
 63 73  1  0
 64 70  1  0
 64 66  1  0
 65 71  1  0
 66 65  1  0
 67 66  2  0
 68 62  2  0
 69 68  1  0
 69 64  2  0
 70 63  1  0
 71 61  1  0
 73 75  2  0
 74 73  1  0
 76 74  1  0
 77 86  2  0
 77 82  1  0
 78 74  1  0
 78 82  1  0
 79 78  1  0
 80 81  1  0
 80 79  1  0
 81 77  1  0
 82 83  2  0
 83 84  1  0
 85 84  2  0
 86 85  1  0
 87 61  1  0
 87 88  1  0
 87 97  1  0
 88 91  1  0
 89 93  1  0
 89 88  1  0
 90 89  2  0
 93 92  1  0
 95 93  1  0
 95 96  1  0
 95 94  1  0
 97100  1  1
 97 98  1  0
 99 97  1  0
M  ISO  4   1 100  15 100  59 101  60 101
M  END
>  <TORSDO>  (64) 
F 22

>  <SCORE>  (64) 
10.545

>  <name>  (64) 
63

>  <ligand_id>  (64) 
63

>  <original_smiles>  (64) 
[H]c1c(N([H])C(=O)N2C([H])([H])C([H])([H])C([H])([H])C([H])(n3nc(-c4c([H])c([H])c(Oc5c([H])c([H])c(F)c([H])c5F)c([H])c4[H])c(C(=O)N([H])[H])c3N([H])[H])C2([H])[H])nc(N([H])C([H])([H])C([H])(C(=O)C([H])([H])Oc2c([H])c([H])c3c(c2[H])C([H])([H])N(C(=O)C([H])(N([H])C(=O)C([H])(N([H])C([H])([H])[H])C([H])([H])[H])C(C([H])([H])[H])(C([H])([H])[H])C([H])([H])[H])C([H])(C(=O)N([H])C2([H])c4c([H])c([H])c([H])c([H])c4C([H])([H])C([H])([H])C2([H])[H])C3([H])[H])C([H])([H])[H])c(N([H])C(=O)C(=O)C([H])([H])[H])c1[H]

>  <smiles>  (64) 
[H]c1c(N([H])C(=O)N2C([H])([H])C([H])([H])C([H])([H])C([H])(n3nc(-c4c([H])c([H])c(Oc5c([H])c([H])c(F)c([H])c5F)c([H])c4[H])c(C(=O)N([H])[H])c3N([H])[H])C2([H])[H])nc(N([H])C([H])([H])C([H])(C(=O)C([H])([H])Oc2c([H])c([H])c3c(c2[H])C([H])([H])N(C(=O)C([H])(N([H])C(=O)C([H])(N([H])C([H])([H])[H])C([H])([H])[H])C(C([H])([H])[H])(C([H])([H])[H])C([H])([H])[H])C([H])(C(=O)N([H])C2([H])c4c([H])c([H])c([H])c([H])c4C([H])([H])C([H])([H])C2([H])[H])C3([H])[H])C([H])([H])[H])c(N([H])C(=O)C(=O)C([H])([H])[H])c1[H]

$$$$
64:0:0
     RDKit          3D

 93101  0  0  1  0  0  0  0  0999 V2000
  -28.5820  -22.2530   20.4830 C   0  0  0  0  0  0  0  0  0  0  0  0
  -29.6240  -21.3320   20.3100 N   0  0  0  0  0  0  0  0  0  0  0  0
  -27.4560  -21.8540   20.7840 O   0  0  0  0  0  0  0  0  0  0  0  0
  -30.4650  -21.8560   20.1000 H   0  0  0  0  0  0  0  0  0  0  0  0
  -31.3420  -18.0890   20.3960 C   0  0  0  0  0  3  0  0  0  0  0  0
  -31.2210  -19.5200   20.3500 C   0  0  0  0  0  0  0  0  0  0  0  0
  -30.0750  -17.5620   20.4640 C   0  0  0  0  0  0  0  0  0  0  0  0
  -29.9130  -19.9280   20.3970 C   0  0  0  0  0  0  0  0  0  0  0  0
  -29.1570  -18.7010   20.4750 O   0  0  0  0  0  0  0  0  0  0  0  0
  -32.2730  -20.3690   20.2640 F   0  0  0  0  0  0  0  0  0  0  0  0
  -30.5500  -14.9820   20.3420 C   0  0  0  0  0  0  0  0  0  0  0  0
  -30.4050  -12.6530   19.3670 C   0  0  0  0  0  2  0  0  0  0  0  0
  -29.4580  -12.6300   18.1450 C   0  0  0  0  0  2  0  0  0  0  0  0
  -27.9990  -12.4230   18.5900 C   0  0  0  0  0  2  0  0  0  0  0  0
  -27.6060  -13.3350   19.7810 C   0  0  0  0  0  3  0  0  0  0  0  0
  -28.6730  -13.3260   20.8970 C   0  0  0  0  0  2  0  0  0  0  0  0
  -29.9420  -13.7320   20.2820 N   0  0  0  0  0  0  0  0  0  0  0  0
  -31.7490  -15.0370   20.0460 O   0  0  0  0  0  0  0  0  0  0  0  0
  -29.7730  -16.1570   20.5200 N   0  0  0  0  0  0  0  0  0  0  0  0
  -28.7980  -15.9560   20.6820 H   0  0  0  0  0  0  0  0  0  0  0  0
  -25.2310  -13.9010   20.5500 C   0  0  0  0  0  0  0  0  0  0  0  0
  -24.1730  -13.1190   20.9210 C   0  0  0  0  0  0  0  0  0  0  0  0
  -24.6410  -11.7700   20.8690 C   0  0  0  0  0  0  0  0  0  0  0  0
  -26.2740  -13.0300   20.2890 N   0  0  0  0  0  0  0  0  0  0  0  0
  -25.9290  -11.7410   20.5470 N   0  0  0  0  0  0  0  0  0  0  0  0
  -23.9180  -10.5030   21.0470 C   0  0  0  0  0  0  0  0  0  0  0  0
  -24.3420   -9.5370   21.9860 C   0  0  0  0  0  3  0  0  0  0  0  0
  -23.6170   -8.3370   22.1540 C   0  0  0  0  0  3  0  0  0  0  0  0
  -22.4570   -8.0940   21.3820 C   0  0  0  0  0  0  0  0  0  0  0  0
  -22.0550   -9.0490   20.4310 C   0  0  0  0  0  3  0  0  0  0  0  0
  -22.7790  -10.2390   20.2610 C   0  0  0  0  0  3  0  0  0  0  0  0
  -21.7060   -6.9460   21.4580 O   0  0  0  0  0  0  0  0  0  0  0  0
  -21.6160   -6.2200   22.6190 C   0  0  0  0  0  0  0  0  0  0  0  0
  -21.1010   -6.7800   23.8080 C   0  0  0  0  0  3  0  0  0  0  0  0
  -20.9610   -5.9800   24.9590 C   0  0  0  0  0  3  0  0  0  0  0  0
  -21.3260   -4.6210   24.9230 C   0  0  0  0  0  0  0  0  0  0  0  0
  -21.8340   -4.0600   23.7370 C   0  0  0  0  0  3  0  0  0  0  0  0
  -21.9750   -4.8580   22.5880 C   0  0  0  0  0  0  0  0  0  0  0  0
  -22.4460   -4.3070   21.4440 F   0  0  0  0  0  0  0  0  0  0  0  0
  -21.1830   -3.8510   26.0250 F   0  0  0  0  0  0  0  0  0  0  0  0
  -22.7770  -13.5890   21.2090 C   0  0  0  0  0  0  0  0  0  0  0  0
  -22.0590  -12.8810   22.0740 N   0  0  0  0  0  0  0  0  0  0  0  0
  -22.3320  -14.6180   20.7020 O   0  0  0  0  0  0  0  0  0  0  0  0
  -22.4340  -12.0500   22.5060 H   0  0  0  0  0  0  0  0  0  0  0  0
  -21.1230  -13.1770   22.3100 H   0  0  0  0  0  0  0  0  0  0  0  0
  -25.3880  -15.2750   20.3860 N   0  0  0  0  0  0  0  0  0  0  0  0
  -24.6150  -15.9200   20.5050 H   0  0  0  0  0  0  0  0  0  0  0  0
  -26.2130  -15.7190   20.0030 H   0  0  0  0  0  0  0  0  0  0  0  0
  -28.0320  -24.8480   20.4220 C   0  0  0  0  0  3  0  0  0  0  0  0
  -28.9140  -23.7550   20.2870 C   0  0  0  0  0  0  0  0  0  0  0  0
  -30.1820  -24.0370   19.9560 O   0  0  0  0  0  0  0  0  0  0  0  0
  -30.2390  -24.9820   19.8720 H   0  0  0  0  0  0  0  0  0  0  0  0
  -28.2730  -26.2820   20.2650 O   0  0  0  0  0  0  0  0  0  0  0  0
  -24.6170  -31.9300   23.2460 C   0  0  0  0  0  0  0  0  0  0  0  0
  -27.2090  -27.2450   20.2250 C   0  0  0  0  0  0  0  0  0  0  0  0
  -23.4250  -30.5430   21.5920 C   0  0  0  0  0  3  0  0  0  0  0  0
  -24.8800  -28.9720   20.1740 C   0  0  0  0  0  0  0  0  0  0  0  0
  -25.9780  -30.8090   21.4460 C   0  0  0  0  0  2  0  0  0  0  0  0
  -26.0530  -29.4200   20.7960 C   0  0  0  0  0  0  0  0  0  0  0  0
  -27.2180  -28.5700   20.8100 C   0  0  0  0  0  3  0  0  0  0  0  0
  -26.0160  -26.8930   19.5560 C   0  0  0  0  0  3  0  0  0  0  0  0
  -24.8730  -27.7200   19.5390 C   0  0  0  0  0  3  0  0  0  0  0  0
  -23.6540  -29.8690   20.2130 C   0  0  0  0  0  2  0  0  0  0  0  0
  -24.6920  -31.1150   22.1500 N   0  0  0  0  0  0  0  0  0  0  0  0
  -23.5290  -32.2160   23.7680 O   0  0  0  0  0  0  0  0  0  0  0  0
  -22.7380  -29.5340   22.5450 C   0  0  0  0  0  0  0  0  0  0  0  0
  -21.4090  -29.3730   22.4110 N   0  0  0  0  0  0  0  0  0  0  0  0
  -23.4010  -28.8990   23.3680 O   0  0  0  0  0  0  0  0  0  0  0  0
  -20.9300  -29.9360   21.7220 H   0  0  0  0  0  0  0  0  0  0  0  0
  -18.0120  -28.2240   22.9160 C   0  0  0  0  0  0  0  0  0  0  0  0
  -20.5760  -28.4380   23.1730 C   0  0  0  0  0  3  0  0  0  0  0  0
  -20.6500  -27.0140   22.5760 C   0  0  0  0  0  2  0  0  0  0  0  0
  -19.5370  -26.7250   21.5640 C   0  0  0  0  0  2  0  0  0  0  0  0
  -18.1620  -26.8830   22.2190 C   0  0  0  0  0  2  0  0  0  0  0  0
  -19.1460  -28.9620   23.3510 C   0  0  0  0  0  0  0  0  0  0  0  0
  -18.9510  -30.2180   23.9640 C   0  0  0  0  0  3  0  0  0  0  0  0
  -17.6550  -30.7360   24.1490 C   0  0  0  0  0  3  0  0  0  0  0  0
  -16.5360  -29.9960   23.7300 C   0  0  0  0  0  3  0  0  0  0  0  0
  -16.7150  -28.7410   23.1200 C   0  0  0  0  0  3  0  0  0  0  0  0
  -25.8930  -32.5570   23.8840 C   0  0  0  0  0  3  0  0  0  0  0  0
  -26.3860  -31.7880   25.1720 C   0  0  1  0  0  0  0  0  0  0  0  0
  -25.2730  -31.5580   26.2220 C   0  0  0  0  0  1  0  0  0  0  0  0
  -26.9710  -30.4080   24.7980 C   0  0  0  0  0  1  0  0  0  0  0  0
  -27.5260  -32.5820   25.8510 C   0  0  0  0  0  1  0  0  0  0  0  0
  -25.5880  -33.9590   24.2100 N   0  0  0  0  0  0  0  0  0  0  0  0
  -25.9200  -35.0110   23.4480 C   0  0  0  0  0  0  0  0  0  0  0  0
  -26.5820  -34.9020   22.4140 O   0  0  0  0  0  0  0  0  0  0  0  0
  -24.9970  -34.1170   25.0130 H   0  0  0  0  0  0  0  0  0  0  0  0
  -24.1920  -36.8090   23.1130 C   0  0  0  0  0  1  0  0  0  0  0  0
  -25.4440  -36.4030   23.9080 C   0  0  0  0  0  3  0  0  0  0  0  0
  -27.5850  -37.2950   24.7140 C   0  0  0  0  0  1  0  0  0  0  0  0
  -26.4790  -37.4510   23.7720 N   0  0  0  0  0  0  0  0  0  0  0  0
  -26.0770  -38.3750   23.9050 H   0  0  0  0  0  0  0  0  0  0  0  0
  1  3  2  0
  2  8  1  0
  2  1  1  0
  4  2  1  0
  5  7  2  0
  6  5  1  0
  6  8  2  0
  7  9  1  0
  7 19  1  0
  8  9  1  0
 10  6  1  0
 11 19  1  0
 12 17  1  0
 13 14  1  0
 13 12  1  0
 15 14  1  0
 15 24  1  0
 15 16  1  0
 17 11  1  0
 17 16  1  0
 18 11  2  0
 19 20  1  0
 21 22  2  0
 22 41  1  0
 23 22  1  0
 23 26  1  0
 24 25  1  0
 24 21  1  0
 25 23  2  0
 26 27  1  0
 27 28  2  0
 29 32  1  0
 29 28  1  0
 30 29  2  0
 31 30  1  0
 31 26  2  0
 32 33  1  0
 33 34  1  0
 34 35  2  0
 36 35  1  0
 36 40  1  0
 37 36  2  0
 38 33  2  0
 38 37  1  0
 39 38  1  0
 41 42  1  0
 42 45  1  0
 42 44  1  0
 43 41  2  0
 46 47  1  0
 46 21  1  0
 48 46  1  0
 50 49  2  0
 50  1  1  0
 51 50  1  0
 52 51  1  0
 53 49  1  0
 54 65  2  0
 55 53  1  0
 55 60  1  0
 56 64  1  0
 56 66  1  0
 57 63  1  0
 57 59  1  0
 58 64  1  0
 59 60  2  0
 59 58  1  0
 61 55  2  0
 62 61  1  0
 62 57  2  0
 63 56  1  0
 64 54  1  0
 66 68  2  0
 67 66  1  0
 69 67  1  0
 70 79  2  0
 70 75  1  0
 71 67  1  0
 71 75  1  0
 72 71  1  0
 73 74  1  0
 73 72  1  0
 74 70  1  0
 75 76  2  0
 76 77  1  0
 78 77  2  0
 79 78  1  0
 80 54  1  0
 80 85  1  0
 80 81  1  0
 81 84  1  1
 81 82  1  0
 83 81  1  0
 85 88  1  0
 86 90  1  0
 86 85  1  0
 87 86  2  0
 90 89  1  0
 92 93  1  0
 92 90  1  0
 92 91  1  0
M  ISO  4  11 100  19 100  49 101  53 101
M  END
>  <TORSDO>  (65) 
F 19

>  <SCORE>  (65) 
-14.496

>  <name>  (65) 
64

>  <ligand_id>  (65) 
64

>  <original_smiles>  (65) 
[H]OC(C(=O)N([H])c1oc(N([H])C(=O)N2C([H])([H])C([H])([H])C([H])([H])C([H])(n3nc(-c4c([H])c([H])c(Oc5c([H])c([H])c(F)c([H])c5F)c([H])c4[H])c(C(=O)N([H])[H])c3N([H])[H])C2([H])[H])c([H])c1F)=C([H])Oc1c([H])c([H])c2c(c1[H])C([H])([H])N(C(=O)C([H])(N([H])C(=O)C([H])(N([H])C([H])([H])[H])C([H])([H])[H])C(C([H])([H])[H])(C([H])([H])[H])C([H])([H])[H])C([H])(C(=O)N([H])C1([H])c3c([H])c([H])c([H])c([H])c3C([H])([H])C([H])([H])C1([H])[H])C2([H])[H]

>  <smiles>  (65) 
[H]OC(C(=O)N([H])c1oc(N([H])C(=O)N2C([H])([H])C([H])([H])C([H])([H])C([H])(n3nc(-c4c([H])c([H])c(Oc5c([H])c([H])c(F)c([H])c5F)c([H])c4[H])c(C(=O)N([H])[H])c3N([H])[H])C2([H])[H])c([H])c1F)=C([H])Oc1c([H])c([H])c2c(c1[H])C([H])([H])N(C(=O)C([H])(N([H])C(=O)C([H])(N([H])C([H])([H])[H])C([H])([H])[H])C(C([H])([H])[H])(C([H])([H])[H])C([H])([H])[H])C([H])(C(=O)N([H])C1([H])c3c([H])c([H])c([H])c([H])c3C([H])([H])C([H])([H])C1([H])[H])C2([H])[H]

$$$$
65:0:0
     RDKit          3D

 97105  0  0  1  0  0  0  0  0999 V2000
  -28.4790  -22.3020   20.1690 C   0  0  0  0  0  0  0  0  0  0  0  0
  -29.4200  -21.2890   20.3970 N   0  0  0  0  0  0  0  0  0  0  0  0
  -27.3280  -21.9890   19.8620 O   0  0  0  0  0  0  0  0  0  0  0  0
  -30.2650  -21.6490   20.8170 H   0  0  0  0  0  0  0  0  0  0  0  0
  -30.5580  -14.8790   20.4800 C   0  0  0  0  0  0  0  0  0  0  0  0
  -30.3980  -12.5490   19.5620 C   0  0  0  0  0  2  0  0  0  0  0  0
  -29.5050  -12.5710   18.3010 C   0  0  0  0  0  2  0  0  0  0  0  0
  -28.0250  -12.3930   18.6880 C   0  0  0  0  0  2  0  0  0  0  0  0
  -27.6070  -13.3130   19.8650 C   0  0  0  0  0  3  0  0  0  0  0  0
  -28.6290  -13.2850   21.0230 C   0  0  0  0  0  2  0  0  0  0  0  0
  -29.9390  -13.6390   20.4630 N   0  0  0  0  0  0  0  0  0  0  0  0
  -31.7500  -14.9340   20.1540 O   0  0  0  0  0  0  0  0  0  0  0  0
  -30.1100  -18.5170   17.8940 C   0  0  0  0  0  3  0  0  0  0  0  0
  -30.1240  -17.3530   18.6750 C   0  0  0  0  0  3  0  0  0  0  0  0
  -29.8520  -19.7860   18.4530 C   0  0  0  0  0  0  0  0  0  0  0  0
  -29.8660  -17.3990   20.0530 C   0  0  0  0  0  0  0  0  0  0  0  0
  -29.5520  -19.8900   19.8460 C   0  0  0  0  0  0  0  0  0  0  0  0
  -29.5750  -18.6780   20.5920 N   0  0  0  0  0  0  0  0  0  0  0  0
  -29.8180  -16.0500   20.7200 N   0  0  0  0  0  0  0  0  0  0  0  0
  -28.9790  -15.8960   21.2540 H   0  0  0  0  0  0  0  0  0  0  0  0
  -25.2020  -13.9090   20.5190 C   0  0  0  0  0  0  0  0  0  0  0  0
  -24.1250  -13.1410   20.8680 C   0  0  0  0  0  0  0  0  0  0  0  0
  -24.5870  -11.7890   20.8690 C   0  0  0  0  0  0  0  0  0  0  0  0
  -26.2500  -13.0270   20.3220 N   0  0  0  0  0  0  0  0  0  0  0  0
  -25.8870  -11.7470   20.5970 N   0  0  0  0  0  0  0  0  0  0  0  0
  -23.8520  -10.5300   21.0550 C   0  0  0  0  0  0  0  0  0  0  0  0
  -24.2630   -9.5680   22.0040 C   0  0  0  0  0  3  0  0  0  0  0  0
  -23.5270   -8.3750   22.1780 C   0  0  0  0  0  3  0  0  0  0  0  0
  -22.3680   -8.1360   21.4020 C   0  0  0  0  0  0  0  0  0  0  0  0
  -21.9770   -9.0860   20.4440 C   0  0  0  0  0  3  0  0  0  0  0  0
  -22.7130  -10.2700   20.2680 C   0  0  0  0  0  3  0  0  0  0  0  0
  -21.6080   -6.9950   21.4850 O   0  0  0  0  0  0  0  0  0  0  0  0
  -21.5400   -6.2560   22.6390 C   0  0  0  0  0  0  0  0  0  0  0  0
  -21.1050   -6.8190   23.8590 C   0  0  0  0  0  3  0  0  0  0  0  0
  -20.9830   -6.0080   25.0050 C   0  0  0  0  0  3  0  0  0  0  0  0
  -21.2860   -4.6350   24.9320 C   0  0  0  0  0  0  0  0  0  0  0  0
  -21.7140   -4.0720   23.7170 C   0  0  0  0  0  3  0  0  0  0  0  0
  -21.8360   -4.8800   22.5730 C   0  0  0  0  0  0  0  0  0  0  0  0
  -22.2290   -4.3280   21.4000 F   0  0  0  0  0  0  0  0  0  0  0  0
  -21.1620   -3.8550   26.0310 F   0  0  0  0  0  0  0  0  0  0  0  0
  -22.7220  -13.6240   21.0910 C   0  0  0  0  0  0  0  0  0  0  0  0
  -21.9670  -12.9410   21.9450 N   0  0  0  0  0  0  0  0  0  0  0  0
  -22.3020  -14.6430   20.5430 O   0  0  0  0  0  0  0  0  0  0  0  0
  -22.3190  -12.1180   22.4110 H   0  0  0  0  0  0  0  0  0  0  0  0
  -21.0250  -13.2490   22.1380 H   0  0  0  0  0  0  0  0  0  0  0  0
  -25.3720  -15.2770   20.3270 N   0  0  0  0  0  0  0  0  0  0  0  0
  -24.6000  -15.9300   20.3990 H   0  0  0  0  0  0  0  0  0  0  0  0
  -26.2240  -15.7090   19.9910 H   0  0  0  0  0  0  0  0  0  0  0  0
  -29.9400  -20.9900   17.5000 C   0  0  1  0  0  0  0  0  0  0  0  0
  -30.4870  -20.6540   16.3320 F   0  0  0  0  0  0  0  0  0  0  0  0
  -28.7210  -21.4610   17.2420 F   0  0  0  0  0  0  0  0  0  0  0  0
  -30.6940  -21.9650   18.0070 F   0  0  0  0  0  0  0  0  0  0  0  0
  -28.0150  -24.8530   20.1830 C   0  0  0  0  0  3  0  0  0  0  0  0
  -28.8940  -23.7700   20.3220 C   0  0  0  0  0  0  0  0  0  0  0  0
  -30.1850  -24.0230   20.5760 O   0  0  0  0  0  0  0  0  0  0  0  0
  -30.2760  -24.9660   20.6250 H   0  0  0  0  0  0  0  0  0  0  0  0
  -28.2520  -26.2870   20.2080 O   0  0  0  0  0  0  0  0  0  0  0  0
  -24.6280  -31.8880   23.2390 C   0  0  0  0  0  0  0  0  0  0  0  0
  -27.1820  -27.2350   20.1580 C   0  0  0  0  0  0  0  0  0  0  0  0
  -23.4090  -30.4940   21.6120 C   0  0  0  0  0  3  0  0  0  0  0  0
  -24.8440  -28.9400   20.1620 C   0  0  0  0  0  0  0  0  0  0  0  0
  -25.9570  -30.7760   21.4180 C   0  0  0  0  0  2  0  0  0  0  0  0
  -26.0230  -29.3910   20.7660 C   0  0  0  0  0  0  0  0  0  0  0  0
  -27.1910  -28.5480   20.7620 C   0  0  0  0  0  3  0  0  0  0  0  0
  -25.9860  -26.8920   19.4850 C   0  0  0  0  0  3  0  0  0  0  0  0
  -24.8330  -27.7000   19.5090 C   0  0  0  0  0  3  0  0  0  0  0  0
  -23.6130  -29.8260   20.2260 C   0  0  0  0  0  2  0  0  0  0  0  0
  -24.6850  -31.0730   22.1440 N   0  0  0  0  0  0  0  0  0  0  0  0
  -23.5490  -32.1670   23.7830 O   0  0  0  0  0  0  0  0  0  0  0  0
  -22.7510  -29.4780   22.5770 C   0  0  0  0  0  0  0  0  0  0  0  0
  -21.4240  -29.2930   22.4560 N   0  0  0  0  0  0  0  0  0  0  0  0
  -23.4340  -28.8580   23.3960 O   0  0  0  0  0  0  0  0  0  0  0  0
  -20.9290  -29.8450   21.7690 H   0  0  0  0  0  0  0  0  0  0  0  0
  -18.0580  -28.0600   22.9690 C   0  0  0  0  0  0  0  0  0  0  0  0
  -20.6140  -28.3530   23.2350 C   0  0  0  0  0  3  0  0  0  0  0  0
  -20.7320  -26.9170   22.6710 C   0  0  0  0  0  2  0  0  0  0  0  0
  -19.6340  -26.5740   21.6600 C   0  0  0  0  0  2  0  0  0  0  0  0
  -18.2500  -26.7080   22.3020 C   0  0  0  0  0  2  0  0  0  0  0  0
  -19.1680  -28.8390   23.3920 C   0  0  0  0  0  0  0  0  0  0  0  0
  -18.9330  -30.1030   23.9770 C   0  0  0  0  0  3  0  0  0  0  0  0
  -17.6220  -30.5890   24.1400 C   0  0  0  0  0  3  0  0  0  0  0  0
  -16.5270  -29.8080   23.7310 C   0  0  0  0  0  3  0  0  0  0  0  0
  -16.7460  -28.5450   23.1510 C   0  0  0  0  0  3  0  0  0  0  0  0
  -25.9150  -32.5220   23.8490 C   0  0  0  0  0  3  0  0  0  0  0  0
  -26.4440  -31.7500   25.1220 C   0  0  1  0  0  0  0  0  0  0  0  0
  -25.3620  -31.5150   26.2000 C   0  0  0  0  0  1  0  0  0  0  0  0
  -27.0210  -30.3710   24.7280 C   0  0  0  0  0  1  0  0  0  0  0  0
  -27.6020  -32.5440   25.7700 C   0  0  0  0  0  1  0  0  0  0  0  0
  -25.6060  -33.9190   24.1880 N   0  0  0  0  0  0  0  0  0  0  0  0
  -25.9290  -34.9770   23.4310 C   0  0  0  0  0  0  0  0  0  0  0  0
  -26.5860  -34.8790   22.3910 O   0  0  0  0  0  0  0  0  0  0  0  0
  -25.0200  -34.0690   24.9960 H   0  0  0  0  0  0  0  0  0  0  0  0
  -24.1980  -36.7750   23.1050 C   0  0  0  0  0  1  0  0  0  0  0  0
  -25.4470  -36.3640   23.9020 C   0  0  0  0  0  3  0  0  0  0  0  0
  -27.5900  -37.2430   24.7170 C   0  0  0  0  0  1  0  0  0  0  0  0
  -26.4790  -37.4170   23.7850 N   0  0  0  0  0  0  0  0  0  0  0  0
  -26.0750  -38.3360   23.9410 H   0  0  0  0  0  0  0  0  0  0  0  0
  1 54  1  0
  1  2  1  0
  2  4  1  0
  3  1  2  0
  5 19  1  0
  6 11  1  0
  7  8  1  0
  7  6  1  0
  9  8  1  0
  9 24  1  0
  9 10  1  0
 11  5  1  0
 11 10  1  0
 12  5  2  0
 13 15  2  0
 13 14  1  0
 14 16  2  0
 15 17  1  0
 16 18  1  0
 16 19  1  0
 17  2  1  0
 17 18  2  0
 19 20  1  0
 21 22  2  0
 22 23  1  0
 22 41  1  0
 23 26  1  0
 24 21  1  0
 24 25  1  0
 25 23  2  0
 26 27  1  0
 27 28  2  0
 29 32  1  0
 29 28  1  0
 30 29  2  0
 31 30  1  0
 31 26  2  0
 32 33  1  0
 33 34  1  0
 34 35  2  0
 36 35  1  0
 36 40  1  0
 37 36  2  0
 38 33  2  0
 38 37  1  0
 39 38  1  0
 41 42  1  0
 42 45  1  0
 42 44  1  0
 43 41  2  0
 46 47  1  0
 46 21  1  0
 48 46  1  0
 49 52  1  1
 49 15  1  0
 50 49  1  0
 51 49  1  0
 53 57  1  0
 53 54  2  0
 54 55  1  0
 55 56  1  0
 58 69  2  0
 59 57  1  0
 59 64  1  0
 60 68  1  0
 60 70  1  0
 61 67  1  0
 61 63  1  0
 62 68  1  0
 63 62  1  0
 64 63  2  0
 65 66  1  0
 65 59  2  0
 66 61  2  0
 67 60  1  0
 68 58  1  0
 70 72  2  0
 71 70  1  0
 73 71  1  0
 74 83  2  0
 74 79  1  0
 75 71  1  0
 75 79  1  0
 76 75  1  0
 77 78  1  0
 77 76  1  0
 78 74  1  0
 79 80  2  0
 80 81  1  0
 82 81  2  0
 83 82  1  0
 84 58  1  0
 84 89  1  0
 84 85  1  0
 85 88  1  1
 85 86  1  0
 87 85  1  0
 89 92  1  0
 90 94  1  0
 90 89  1  0
 91 90  2  0
 94 93  1  0
 96 94  1  0
 96 97  1  0
 96 95  1  0
M  ISO  4   5 100  19 100  53 101  57 101
M  END
>  <TORSDO>  (66) 
F 19

>  <SCORE>  (66) 
-14.546

>  <name>  (66) 
65

>  <ligand_id>  (66) 
65

>  <original_smiles>  (66) 
[H]OC(C(=O)N([H])c1nc(N([H])C(=O)N2C([H])([H])C([H])([H])C([H])([H])C([H])(n3nc(-c4c([H])c([H])c(Oc5c([H])c([H])c(F)c([H])c5F)c([H])c4[H])c(C(=O)N([H])[H])c3N([H])[H])C2([H])[H])c([H])c([H])c1C(F)(F)F)=C([H])Oc1c([H])c([H])c2c(c1[H])C([H])([H])N(C(=O)C([H])(N([H])C(=O)C([H])(N([H])C([H])([H])[H])C([H])([H])[H])C(C([H])([H])[H])(C([H])([H])[H])C([H])([H])[H])C([H])(C(=O)N([H])C1([H])c3c([H])c([H])c([H])c([H])c3C([H])([H])C([H])([H])C1([H])[H])C2([H])[H]

>  <smiles>  (66) 
[H]OC(C(=O)N([H])c1nc(N([H])C(=O)N2C([H])([H])C([H])([H])C([H])([H])C([H])(n3nc(-c4c([H])c([H])c(Oc5c([H])c([H])c(F)c([H])c5F)c([H])c4[H])c(C(=O)N([H])[H])c3N([H])[H])C2([H])[H])c([H])c([H])c1C(F)(F)F)=C([H])Oc1c([H])c([H])c2c(c1[H])C([H])([H])N(C(=O)C([H])(N([H])C(=O)C([H])(N([H])C([H])([H])[H])C([H])([H])[H])C(C([H])([H])[H])(C([H])([H])[H])C([H])([H])[H])C([H])(C(=O)N([H])C1([H])c3c([H])c([H])c([H])c([H])c3C([H])([H])C([H])([H])C1([H])[H])C2([H])[H]

$$$$
66:0:0
     RDKit          3D

 97105  0  0  1  0  0  0  0  0999 V2000
  -28.9360  -23.2190   20.7760 C   0  0  0  0  0  0  0  0  0  0  0  0
  -29.7860  -22.3930   20.1690 N   0  0  0  0  0  0  0  0  0  0  0  0
  -28.1150  -22.8750   21.6300 O   0  0  0  0  0  0  0  0  0  0  0  0
  -30.4160  -22.8790   19.5400 H   0  0  0  0  0  0  0  0  0  0  0  0
  -29.3170  -18.6970   20.7700 C   0  0  0  0  0  3  0  0  0  0  0  0
  -29.0850  -20.0850   20.8800 C   0  0  0  0  0  3  0  0  0  0  0  0
  -30.3660  -18.2060   19.9600 C   0  0  0  0  0  0  0  0  0  0  0  0
  -29.9150  -20.9910   20.1790 C   0  0  0  0  0  0  0  0  0  0  0  0
  -31.1990  -19.1300   19.2700 C   0  0  0  0  0  0  0  0  0  0  0  0
  -30.9630  -20.5080   19.3820 C   0  0  0  0  0  0  0  0  0  0  0  0
  -31.7610  -21.3820   18.7170 F   0  0  0  0  0  0  0  0  0  0  0  0
  -32.2820  -18.7340   18.4760 N   0  0  0  0  0  0  0  0  0  0  0  0
  -32.7670  -17.8880   18.7520 H   0  0  0  0  0  0  0  0  0  0  0  0
  -32.9240  -19.4800   18.2320 H   0  0  0  0  0  0  0  0  0  0  0  0
  -30.6530  -16.7720   19.8360 C   0  0  0  0  0  2  0  0  0  0  0  0
  -30.1820  -15.6940   20.5050 C   0  0  0  0  0  2  0  0  0  0  0  0
  -30.8210  -14.4360   20.1360 C   0  0  0  0  0  0  0  0  0  0  0  0
  -30.3510  -12.3180   19.0280 C   0  0  0  0  0  2  0  0  0  0  0  0
  -29.3900  -12.5920   17.8550 C   0  0  0  0  0  2  0  0  0  0  0  0
  -27.9320  -12.4770   18.3350 C   0  0  0  0  0  2  0  0  0  0  0  0
  -27.6530  -13.2940   19.6270 C   0  0  0  0  0  3  0  0  0  0  0  0
  -28.7500  -13.0770   20.6910 C   0  0  0  0  0  2  0  0  0  0  0  0
  -30.0590  -13.3140   20.0700 N   0  0  0  0  0  0  0  0  0  0  0  0
  -31.9800  -14.4420   19.7150 O   0  0  0  0  0  0  0  0  0  0  0  0
  -25.2870  -13.8740   20.4500 C   0  0  0  0  0  0  0  0  0  0  0  0
  -24.2370  -13.0910   20.8460 C   0  0  0  0  0  0  0  0  0  0  0  0
  -24.7000  -11.7410   20.7720 C   0  0  0  0  0  0  0  0  0  0  0  0
  -26.3240  -13.0020   20.1600 N   0  0  0  0  0  0  0  0  0  0  0  0
  -25.9770  -11.7130   20.4120 N   0  0  0  0  0  0  0  0  0  0  0  0
  -23.9850  -10.4730   20.9670 C   0  0  0  0  0  0  0  0  0  0  0  0
  -24.4250   -9.5120   21.9040 C   0  0  0  0  0  3  0  0  0  0  0  0
  -23.7080   -8.3090   22.0860 C   0  0  0  0  0  3  0  0  0  0  0  0
  -22.5380   -8.0580   21.3320 C   0  0  0  0  0  0  0  0  0  0  0  0
  -22.1170   -9.0080   20.3850 C   0  0  0  0  0  3  0  0  0  0  0  0
  -22.8330  -10.2020   20.2000 C   0  0  0  0  0  3  0  0  0  0  0  0
  -21.7940   -6.9070   21.4240 O   0  0  0  0  0  0  0  0  0  0  0  0
  -21.7110   -6.1940   22.5920 C   0  0  0  0  0  0  0  0  0  0  0  0
  -21.2050   -6.7670   23.7800 C   0  0  0  0  0  3  0  0  0  0  0  0
  -21.0720   -5.9790   24.9410 C   0  0  0  0  0  3  0  0  0  0  0  0
  -21.4330   -4.6200   24.9150 C   0  0  0  0  0  0  0  0  0  0  0  0
  -21.9320   -4.0460   23.7320 C   0  0  0  0  0  3  0  0  0  0  0  0
  -22.0660   -4.8310   22.5730 C   0  0  0  0  0  0  0  0  0  0  0  0
  -22.5270   -4.2680   21.4300 F   0  0  0  0  0  0  0  0  0  0  0  0
  -21.2990   -3.8600   26.0270 F   0  0  0  0  0  0  0  0  0  0  0  0
  -22.8510  -13.5580   21.1840 C   0  0  0  0  0  0  0  0  0  0  0  0
  -22.1580  -12.8400   22.0620 N   0  0  0  0  0  0  0  0  0  0  0  0
  -22.3910  -14.5940   20.7060 O   0  0  0  0  0  0  0  0  0  0  0  0
  -22.5440  -12.0020   22.4700 H   0  0  0  0  0  0  0  0  0  0  0  0
  -21.2300  -13.1340   22.3300 H   0  0  0  0  0  0  0  0  0  0  0  0
  -25.4430  -15.2480   20.2930 N   0  0  0  0  0  0  0  0  0  0  0  0
  -24.6850  -15.9030   20.4510 H   0  0  0  0  0  0  0  0  0  0  0  0
  -26.2880  -15.6920   19.9540 H   0  0  0  0  0  0  0  0  0  0  0  0
  -28.3110  -25.5480   20.6690 C   0  0  0  0  0  3  0  0  0  0  0  0
  -29.1310  -24.5720   20.2690 C   0  0  0  0  0  0  0  0  0  0  0  0
  -30.1090  -24.8510   19.3880 O   0  0  0  0  0  0  0  0  0  0  0  0
  -30.0410  -25.7780   19.1950 H   0  0  0  0  0  0  0  0  0  0  0  0
  -28.4210  -26.8170   20.1770 O   0  0  0  0  0  0  0  0  0  0  0  0
  -24.5890  -31.9190   23.2270 C   0  0  0  0  0  0  0  0  0  0  0  0
  -27.2560  -27.5290   20.1560 C   0  0  0  0  0  0  0  0  0  0  0  0
  -23.3870  -30.5060   21.5880 C   0  0  0  0  0  3  0  0  0  0  0  0
  -24.8480  -28.9800   20.1640 C   0  0  0  0  0  0  0  0  0  0  0  0
  -25.9050  -30.8940   21.3820 C   0  0  0  0  0  2  0  0  0  0  0  0
  -26.0000  -29.5250   20.7490 C   0  0  0  0  0  0  0  0  0  0  0  0
  -27.2090  -28.8050   20.7450 C   0  0  0  0  0  3  0  0  0  0  0  0
  -26.0960  -26.9860   19.5630 C   0  0  0  0  0  3  0  0  0  0  0  0
  -24.8880  -27.7060   19.5700 C   0  0  0  0  0  3  0  0  0  0  0  0
  -23.5980  -29.8240   20.2090 C   0  0  0  0  0  2  0  0  0  0  0  0
  -24.6450  -31.1190   22.1250 N   0  0  0  0  0  0  0  0  0  0  0  0
  -23.5080  -32.1840   23.7690 O   0  0  0  0  0  0  0  0  0  0  0  0
  -22.7470  -29.4800   22.5510 C   0  0  0  0  0  0  0  0  0  0  0  0
  -21.4230  -29.2940   22.4270 N   0  0  0  0  0  0  0  0  0  0  0  0
  -23.4370  -28.8560   23.3610 O   0  0  0  0  0  0  0  0  0  0  0  0
  -20.9290  -29.8500   21.7430 H   0  0  0  0  0  0  0  0  0  0  0  0
  -18.0500  -28.1110   22.9450 C   0  0  0  0  0  0  0  0  0  0  0  0
  -20.6110  -28.3560   23.2000 C   0  0  0  0  0  3  0  0  0  0  0  0
  -20.7040  -26.9280   22.6150 C   0  0  0  0  0  2  0  0  0  0  0  0
  -19.5930  -26.6150   21.6080 C   0  0  0  0  0  2  0  0  0  0  0  0
  -18.2160  -26.7630   22.2630 C   0  0  0  0  0  2  0  0  0  0  0  0
  -19.1750  -28.8660   23.3710 C   0  0  0  0  0  0  0  0  0  0  0  0
  -18.9670  -30.1290   23.9660 C   0  0  0  0  0  3  0  0  0  0  0  0
  -17.6670  -30.6360   24.1420 C   0  0  0  0  0  3  0  0  0  0  0  0
  -16.5560  -29.8780   23.7330 C   0  0  0  0  0  3  0  0  0  0  0  0
  -16.7480  -28.6180   23.1410 C   0  0  0  0  0  3  0  0  0  0  0  0
  -25.8740  -32.5550   23.8440 C   0  0  0  0  0  3  0  0  0  0  0  0
  -25.5590  -33.9500   24.1750 N   0  0  0  0  0  0  0  0  0  0  0  0
  -25.8870  -35.0040   23.4150 C   0  0  0  0  0  0  0  0  0  0  0  0
  -26.5600  -34.9040   22.3850 O   0  0  0  0  0  0  0  0  0  0  0  0
  -24.9620  -34.1020   24.9750 H   0  0  0  0  0  0  0  0  0  0  0  0
  -24.1580  -36.7920   23.0440 C   0  0  0  0  0  1  0  0  0  0  0  0
  -25.3900  -36.3890   23.8700 C   0  0  0  0  0  3  0  0  0  0  0  0
  -27.5100  -37.2760   24.7330 C   0  0  0  0  0  1  0  0  0  0  0  0
  -26.4210  -37.4440   23.7740 N   0  0  0  0  0  0  0  0  0  0  0  0
  -26.0110  -38.3640   23.9180 H   0  0  0  0  0  0  0  0  0  0  0  0
  -26.4040  -31.7830   25.1140 C   0  0  1  0  0  0  0  0  0  0  0  0
  -25.3180  -31.5290   26.1840 C   0  0  0  0  0  1  0  0  0  0  0  0
  -26.9990  -30.4140   24.7090 C   0  0  0  0  0  1  0  0  0  0  0  0
  -27.5500  -32.5850   25.7750 C   0  0  0  0  0  1  0  0  0  0  0  0
  1  3  2  0
  2  8  1  0
  2  1  1  0
  4  2  1  0
  5  6  1  0
  7  5  2  0
  8  6  2  0
  9 10  2  0
  9  7  1  0
 10  8  1  0
 11 10  1  0
 12 13  1  0
 12  9  1  0
 14 12  1  0
 15  7  1  0
 15 16  1  0
 17 16  1  0
 18 23  1  0
 19 20  1  0
 19 18  1  0
 21 20  1  0
 21 28  1  0
 21 22  1  0
 23 17  1  0
 23 22  1  0
 24 17  2  0
 25 26  2  0
 26 45  1  0
 27 26  1  0
 27 30  1  0
 28 29  1  0
 28 25  1  0
 29 27  2  0
 30 31  1  0
 31 32  2  0
 33 36  1  0
 33 32  1  0
 34 33  2  0
 35 34  1  0
 35 30  2  0
 36 37  1  0
 37 38  1  0
 38 39  2  0
 40 39  1  0
 40 44  1  0
 41 40  2  0
 42 37  2  0
 42 41  1  0
 43 42  1  0
 45 46  1  0
 46 49  1  0
 46 48  1  0
 47 45  2  0
 50 25  1  0
 50 51  1  0
 52 50  1  0
 54 53  2  0
 54  1  1  0
 55 54  1  0
 56 55  1  0
 57 53  1  0
 58 69  2  0
 59 57  1  0
 59 64  1  0
 60 68  1  0
 60 70  1  0
 61 67  1  0
 61 63  1  0
 62 68  1  0
 63 62  1  0
 64 63  2  0
 65 66  1  0
 65 59  2  0
 66 61  2  0
 67 60  1  0
 68 58  1  0
 70 72  2  0
 71 70  1  0
 73 71  1  0
 74 83  2  0
 74 79  1  0
 75 71  1  0
 75 79  1  0
 76 75  1  0
 77 78  1  0
 77 76  1  0
 78 74  1  0
 79 80  2  0
 80 81  1  0
 82 81  2  0
 83 82  1  0
 84 58  1  0
 84 85  1  0
 84 94  1  0
 85 88  1  0
 86 90  1  0
 86 85  1  0
 87 86  2  0
 90 89  1  0
 92 90  1  0
 92 93  1  0
 92 91  1  0
 94 97  1  1
 94 95  1  0
 96 94  1  0
M  ISO  4  16 100  17 100  53 101  57 101
M  END
>  <TORSDO>  (67) 
F 21

>  <SCORE>  (67) 
-13.927

>  <name>  (67) 
66

>  <ligand_id>  (67) 
66

>  <original_smiles>  (67) 
[H]OC(C(=O)N([H])c1c([H])c([H])c(C([H])=C([H])C(=O)N2C([H])([H])C([H])([H])C([H])([H])C([H])(n3nc(-c4c([H])c([H])c(Oc5c([H])c([H])c(F)c([H])c5F)c([H])c4[H])c(C(=O)N([H])[H])c3N([H])[H])C2([H])[H])c(N([H])[H])c1F)=C([H])Oc1c([H])c([H])c2c(c1[H])C([H])([H])N(C(=O)C([H])(N([H])C(=O)C([H])(N([H])C([H])([H])[H])C([H])([H])[H])C(C([H])([H])[H])(C([H])([H])[H])C([H])([H])[H])C([H])(C(=O)N([H])C1([H])c3c([H])c([H])c([H])c([H])c3C([H])([H])C([H])([H])C1([H])[H])C2([H])[H]

>  <smiles>  (67) 
[H]OC(C(=O)N([H])c1c([H])c([H])c(C([H])=C([H])C(=O)N2C([H])([H])C([H])([H])C([H])([H])C([H])(n3nc(-c4c([H])c([H])c(Oc5c([H])c([H])c(F)c([H])c5F)c([H])c4[H])c(C(=O)N([H])[H])c3N([H])[H])C2([H])[H])c(N([H])[H])c1F)=C([H])Oc1c([H])c([H])c2c(c1[H])C([H])([H])N(C(=O)C([H])(N([H])C(=O)C([H])(N([H])C([H])([H])[H])C([H])([H])[H])C(C([H])([H])[H])(C([H])([H])[H])C([H])([H])[H])C([H])(C(=O)N([H])C1([H])c3c([H])c([H])c([H])c([H])c3C([H])([H])C([H])([H])C1([H])[H])C2([H])[H]

$$$$
67:0:0
     RDKit          3D

 97105  0  0  1  0  0  0  0  0999 V2000
  -29.9280  -20.8760   20.7900 C   0  0  0  0  0  0  0  0  0  0  0  0
  -30.7410  -21.5720   21.6010 N   0  0  0  0  0  4  0  0  0  0  0  0
  -28.8000  -21.4620   20.3020 N   0  0  0  0  0  0  0  0  0  0  0  0
  -31.5620  -21.1270   21.9840 H   0  0  0  0  0  0  0  0  0  0  0  0
  -30.6180  -22.5460   21.8160 H   0  0  0  0  0  0  0  0  0  0  0  0
  -28.3230  -20.9380   19.5810 H   0  0  0  0  0  0  0  0  0  0  0  0
  -31.8290  -17.5470   19.8570 C   0  0  0  0  0  3  0  0  0  0  0  0
  -30.5980  -17.1290   20.3080 C   0  0  0  0  0  0  0  0  0  0  0  0
  -29.7430  -18.2570   20.6100 C   0  0  0  0  0  0  0  0  0  0  0  0
  -30.3420  -19.5020   20.4620 C   0  0  0  0  0  0  0  0  0  0  0  0
  -28.5160  -18.0900   21.0520 F   0  0  0  0  0  0  0  0  0  0  0  0
  -31.9720  -19.2860   19.8630 S   0  0  0  0  0  0  0  0  0  0  0  0
  -30.8860  -14.6150   20.0860 C   0  0  0  0  0  0  0  0  0  0  0  0
  -30.5000  -12.4590   18.9540 C   0  0  0  0  0  2  0  0  0  0  0  0
  -29.5030  -12.6890   17.7990 C   0  0  0  0  0  2  0  0  0  0  0  0
  -28.0550  -12.5430   18.3040 C   0  0  0  0  0  2  0  0  0  0  0  0
  -27.7860  -13.3490   19.6050 C   0  0  0  0  0  3  0  0  0  0  0  0
  -28.9050  -13.1380   20.6490 C   0  0  0  0  0  2  0  0  0  0  0  0
  -30.1860  -13.4460   20.0030 N   0  0  0  0  0  0  0  0  0  0  0  0
  -32.0410  -14.6840   19.6610 O   0  0  0  0  0  0  0  0  0  0  0  0
  -30.2020  -15.7350   20.4600 N   0  0  0  0  0  0  0  0  0  0  0  0
  -29.2720  -15.5810   20.8170 H   0  0  0  0  0  0  0  0  0  0  0  0
  -25.4380  -13.9260   20.4690 C   0  0  0  0  0  0  0  0  0  0  0  0
  -24.3900  -13.1430   20.8720 C   0  0  0  0  0  0  0  0  0  0  0  0
  -24.8490  -11.7920   20.7780 C   0  0  0  0  0  0  0  0  0  0  0  0
  -26.4660  -13.0540   20.1550 N   0  0  0  0  0  0  0  0  0  0  0  0
  -26.1220  -11.7640   20.4010 N   0  0  0  0  0  0  0  0  0  0  0  0
  -24.1310  -10.5240   20.9690 C   0  0  0  0  0  0  0  0  0  0  0  0
  -24.5680   -9.5630   21.9070 C   0  0  0  0  0  3  0  0  0  0  0  0
  -23.8490   -8.3600   22.0860 C   0  0  0  0  0  3  0  0  0  0  0  0
  -22.6810   -8.1110   21.3260 C   0  0  0  0  0  0  0  0  0  0  0  0
  -22.2660   -9.0610   20.3760 C   0  0  0  0  0  3  0  0  0  0  0  0
  -22.9850  -10.2550   20.1960 C   0  0  0  0  0  3  0  0  0  0  0  0
  -21.9350   -6.9610   21.4140 O   0  0  0  0  0  0  0  0  0  0  0  0
  -21.8430   -6.2500   22.5840 C   0  0  0  0  0  0  0  0  0  0  0  0
  -21.3020   -6.8160   23.7590 C   0  0  0  0  0  3  0  0  0  0  0  0
  -21.1620   -6.0290   24.9190 C   0  0  0  0  0  3  0  0  0  0  0  0
  -21.5540   -4.6760   24.9050 C   0  0  0  0  0  0  0  0  0  0  0  0
  -22.0870   -4.1110   23.7330 C   0  0  0  0  0  3  0  0  0  0  0  0
  -22.2300   -4.8950   22.5760 C   0  0  0  0  0  0  0  0  0  0  0  0
  -22.7240   -4.3390   21.4440 F   0  0  0  0  0  0  0  0  0  0  0  0
  -21.4120   -3.9180   26.0170 F   0  0  0  0  0  0  0  0  0  0  0  0
  -23.0110  -13.6110   21.2320 C   0  0  0  0  0  0  0  0  0  0  0  0
  -22.3230  -12.8810   22.1050 N   0  0  0  0  0  0  0  0  0  0  0  0
  -22.5510  -14.6570   20.7760 O   0  0  0  0  0  0  0  0  0  0  0  0
  -22.7080  -12.0330   22.4940 H   0  0  0  0  0  0  0  0  0  0  0  0
  -21.4000  -13.1750   22.3880 H   0  0  0  0  0  0  0  0  0  0  0  0
  -25.5950  -15.3020   20.3220 N   0  0  0  0  0  0  0  0  0  0  0  0
  -24.8350  -15.9530   20.4900 H   0  0  0  0  0  0  0  0  0  0  0  0
  -26.4250  -15.7520   19.9600 H   0  0  0  0  0  0  0  0  0  0  0  0
  -27.9170  -22.7680   22.2080 C   0  0  0  0  0  1  0  0  0  0  0  0
  -26.7150  -22.7100   19.9830 C   0  0  0  0  0  1  0  0  0  0  0  0
  -28.1090  -22.7520   20.6650 C   0  0  2  0  0  0  0  0  0  0  0  0
  -28.8260  -24.0730   20.2030 C   0  0  0  0  0  0  0  0  0  0  0  0
  -29.7610  -24.0440   19.3960 O   0  0  0  0  0  0  0  0  0  0  0  0
  -28.3150  -25.4190   20.8090 C   0  0  0  0  0  2  0  0  0  0  0  0
  -28.5160  -26.6080   19.9920 O   0  0  0  0  0  0  0  0  0  0  0  0
  -24.6770  -31.7460   23.1630 C   0  0  0  0  0  0  0  0  0  0  0  0
  -27.3960  -27.4180   19.9620 C   0  0  0  0  0  0  0  0  0  0  0  0
  -23.5050  -30.3810   21.4680 C   0  0  0  0  0  3  0  0  0  0  0  0
  -24.9920  -28.9190   19.9950 C   0  0  0  0  0  0  0  0  0  0  0  0
  -26.0300  -30.7800   21.2990 C   0  0  0  0  0  2  0  0  0  0  0  0
  -26.1420  -29.4330   20.6090 C   0  0  0  0  0  0  0  0  0  0  0  0
  -27.3520  -28.6910   20.5870 C   0  0  0  0  0  3  0  0  0  0  0  0
  -26.2340  -26.9370   19.3250 C   0  0  0  0  0  3  0  0  0  0  0  0
  -25.0350  -27.6750   19.3440 C   0  0  0  0  0  3  0  0  0  0  0  0
  -23.7340  -29.7560   20.0670 C   0  0  0  0  0  2  0  0  0  0  0  0
  -24.7560  -30.9830   22.0360 N   0  0  0  0  0  0  0  0  0  0  0  0
  -23.5880  -31.9820   23.7060 O   0  0  0  0  0  0  0  0  0  0  0  0
  -22.8640  -29.3170   22.3900 C   0  0  0  0  0  0  0  0  0  0  0  0
  -21.5460  -29.1080   22.2400 N   0  0  0  0  0  0  0  0  0  0  0  0
  -23.5510  -28.6850   23.1960 O   0  0  0  0  0  0  0  0  0  0  0  0
  -21.0510  -29.6710   21.5630 H   0  0  0  0  0  0  0  0  0  0  0  0
  -18.1890  -27.8380   22.6770 C   0  0  0  0  0  0  0  0  0  0  0  0
  -20.7410  -28.1290   22.9720 C   0  0  0  0  0  3  0  0  0  0  0  0
  -20.8720  -26.7230   22.3460 C   0  0  0  0  0  2  0  0  0  0  0  0
  -19.7810  -26.4180   21.3150 C   0  0  0  0  0  2  0  0  0  0  0  0
  -18.3920  -26.5170   21.9550 C   0  0  0  0  0  2  0  0  0  0  0  0
  -19.2930  -28.6030   23.1410 C   0  0  0  0  0  0  0  0  0  0  0  0
  -19.0500  -29.8400   23.7750 C   0  0  0  0  0  3  0  0  0  0  0  0
  -17.7360  -30.3140   23.9510 C   0  0  0  0  0  3  0  0  0  0  0  0
  -16.6470  -29.5450   23.5060 C   0  0  0  0  0  3  0  0  0  0  0  0
  -16.8750  -28.3080   22.8750 C   0  0  0  0  0  3  0  0  0  0  0  0
  -25.9480  -32.3780   23.8120 C   0  0  0  0  0  3  0  0  0  0  0  0
  -26.4480  -31.5990   25.0890 C   0  0  1  0  0  0  0  0  0  0  0  0
  -25.3380  -31.3410   26.1350 C   0  0  0  0  0  1  0  0  0  0  0  0
  -27.0500  -30.2310   24.6920 C   0  0  0  0  0  1  0  0  0  0  0  0
  -27.5800  -32.3950   25.7800 C   0  0  0  0  0  1  0  0  0  0  0  0
  -25.6270  -33.7720   24.1470 N   0  0  0  0  0  0  0  0  0  0  0  0
  -25.9720  -34.8330   23.4030 C   0  0  0  0  0  0  0  0  0  0  0  0
  -26.6620  -34.7390   22.3840 O   0  0  0  0  0  0  0  0  0  0  0  0
  -25.0210  -33.9200   24.9400 H   0  0  0  0  0  0  0  0  0  0  0  0
  -24.2560  -36.6280   23.0110 C   0  0  0  0  0  1  0  0  0  0  0  0
  -25.4680  -36.2140   23.8610 C   0  0  0  0  0  3  0  0  0  0  0  0
  -27.5650  -37.0930   24.7880 C   0  0  0  0  0  1  0  0  0  0  0  0
  -26.5040  -37.2670   23.8000 N   0  0  0  0  0  0  0  0  0  0  0  0
  -26.0920  -38.1860   23.9370 H   0  0  0  0  0  0  0  0  0  0  0  0
  1  2  2  0
  2  5  1  0
  2  4  1  0
  3 53  1  0
  3  1  1  0
  6  3  1  0
  7 12  1  0
  7  8  2  0
  8 21  1  0
  8  9  1  0
  9 11  1  0
 10  9  2  0
 10  1  1  0
 12 10  1  0
 13 21  1  0
 14 19  1  0
 15 16  1  0
 15 14  1  0
 17 16  1  0
 17 26  1  0
 17 18  1  0
 19 13  1  0
 19 18  1  0
 20 13  2  0
 21 22  1  0
 23 24  2  0
 24 43  1  0
 25 24  1  0
 25 28  1  0
 26 27  1  0
 26 23  1  0
 27 25  2  0
 28 29  1  0
 29 30  2  0
 31 34  1  0
 31 30  1  0
 32 31  2  0
 33 32  1  0
 33 28  2  0
 34 35  1  0
 35 36  1  0
 36 37  2  0
 38 37  1  0
 38 42  1  0
 39 38  2  0
 40 35  2  0
 40 39  1  0
 41 40  1  0
 43 44  1  0
 44 47  1  0
 44 46  1  0
 45 43  2  0
 48 23  1  0
 48 49  1  0
 50 48  1  0
 53 52  1  6
 53 51  1  0
 54 53  1  0
 54 56  1  0
 55 54  2  0
 57 56  1  0
 58 69  2  0
 59 57  1  0
 59 64  1  0
 60 68  1  0
 60 70  1  0
 61 67  1  0
 61 63  1  0
 62 68  1  0
 63 62  1  0
 64 63  2  0
 65 66  1  0
 65 59  2  0
 66 61  2  0
 67 60  1  0
 68 58  1  0
 70 72  2  0
 71 70  1  0
 73 71  1  0
 74 83  2  0
 74 79  1  0
 75 71  1  0
 75 79  1  0
 76 75  1  0
 77 78  1  0
 77 76  1  0
 78 74  1  0
 79 80  2  0
 80 81  1  0
 82 81  2  0
 83 82  1  0
 84 58  1  0
 84 89  1  0
 84 85  1  0
 85 88  1  1
 85 86  1  0
 87 85  1  0
 89 92  1  0
 90 94  1  0
 90 89  1  0
 91 90  2  0
 94 93  1  0
 96 94  1  0
 96 97  1  0
 96 95  1  0
M  ISO  4  13 100  21 100  56 101  57 101
M  END
>  <TORSDO>  (68) 
F 20

>  <SCORE>  (68) 
-13.443

>  <name>  (68) 
67

>  <ligand_id>  (68) 
67

>  <original_smiles>  (68) 
[H]c1sc(C(N([H])[H])=[N+]([H])C(C(=O)C([H])([H])Oc2c([H])c([H])c3c(c2[H])C([H])([H])N(C(=O)C([H])(N([H])C(=O)C([H])(N([H])C([H])([H])[H])C([H])([H])[H])C(C([H])([H])[H])(C([H])([H])[H])C([H])([H])[H])C([H])(C(=O)N([H])C2([H])c4c([H])c([H])c([H])c([H])c4C([H])([H])C([H])([H])C2([H])[H])C3([H])[H])(C([H])([H])[H])C([H])([H])[H])c(F)c1N([H])C(=O)N1C([H])([H])C([H])([H])C([H])([H])C([H])(n2nc(-c3c([H])c([H])c(Oc4c([H])c([H])c(F)c([H])c4F)c([H])c3[H])c(C(=O)N([H])[H])c2N([H])[H])C1([H])[H]

>  <smiles>  (68) 
[H]c1sc(C(N([H])[H])=[N+]([H])C(C(=O)C([H])([H])Oc2c([H])c([H])c3c(c2[H])C([H])([H])N(C(=O)C([H])(N([H])C(=O)C([H])(N([H])C([H])([H])[H])C([H])([H])[H])C(C([H])([H])[H])(C([H])([H])[H])C([H])([H])[H])C([H])(C(=O)N([H])C2([H])c4c([H])c([H])c([H])c([H])c4C([H])([H])C([H])([H])C2([H])[H])C3([H])[H])(C([H])([H])[H])C([H])([H])[H])c(F)c1N([H])C(=O)N1C([H])([H])C([H])([H])C([H])([H])C([H])(n2nc(-c3c([H])c([H])c(Oc4c([H])c([H])c(F)c([H])c4F)c([H])c3[H])c(C(=O)N([H])[H])c2N([H])[H])C1([H])[H]

$$$$
68:0:0
     RDKit          3D

 95103  0  0  1  0  0  0  0  0999 V2000
  -28.5110  -21.6230   20.2150 N   0  0  0  0  0  4  0  0  0  0  0  0
  -27.8310  -21.1820   20.8100 H   0  0  0  0  0  0  0  0  0  0  0  0
  -27.9960  -22.0310   19.4460 H   0  0  0  0  0  0  0  0  0  0  0  0
  -28.9200  -22.7800   22.3930 C   0  0  0  0  0  1  0  0  0  0  0  0
  -29.0880  -22.8460   20.8610 C   0  0  0  0  0  3  0  0  0  0  0  0
  -28.3690  -24.1040   20.2460 C   0  0  0  0  0  0  0  0  0  0  0  0
  -27.7220  -24.0070   19.1960 O   0  0  0  0  0  0  0  0  0  0  0  0
  -28.4700  -25.4870   20.9720 C   0  0  0  0  0  2  0  0  0  0  0  0
  -28.3980  -26.6530   20.1030 O   0  0  0  0  0  0  0  0  0  0  0  0
  -24.6260  -31.8840   23.2620 C   0  0  0  0  0  0  0  0  0  0  0  0
  -27.2430  -27.4140   20.1650 C   0  0  0  0  0  0  0  0  0  0  0  0
  -23.4110  -30.4900   21.6220 C   0  0  0  0  0  3  0  0  0  0  0  0
  -24.8560  -28.9490   20.1860 C   0  0  0  0  0  0  0  0  0  0  0  0
  -25.9380  -30.8390   21.4110 C   0  0  0  0  0  2  0  0  0  0  0  0
  -26.0210  -29.4650   20.7690 C   0  0  0  0  0  0  0  0  0  0  0  0
  -27.2200  -28.7080   20.7500 C   0  0  0  0  0  3  0  0  0  0  0  0
  -26.0610  -26.9220   19.5760 C   0  0  0  0  0  3  0  0  0  0  0  0
  -24.8720  -27.6790   19.5850 C   0  0  0  0  0  3  0  0  0  0  0  0
  -23.6130  -29.8120   20.2400 C   0  0  0  0  0  2  0  0  0  0  0  0
  -24.6780  -31.0870   22.1560 N   0  0  0  0  0  0  0  0  0  0  0  0
  -23.5470  -32.1560   23.8090 O   0  0  0  0  0  0  0  0  0  0  0  0
  -22.7610  -29.4680   22.5830 C   0  0  0  0  0  0  0  0  0  0  0  0
  -21.4360  -29.2850   22.4590 N   0  0  0  0  0  0  0  0  0  0  0  0
  -23.4470  -28.8410   23.3950 O   0  0  0  0  0  0  0  0  0  0  0  0
  -20.9440  -29.8440   21.7760 H   0  0  0  0  0  0  0  0  0  0  0  0
  -18.0650  -28.0780   22.9560 C   0  0  0  0  0  0  0  0  0  0  0  0
  -20.6220  -28.3430   23.2270 C   0  0  0  0  0  3  0  0  0  0  0  0
  -20.7290  -26.9140   22.6470 C   0  0  0  0  0  2  0  0  0  0  0  0
  -19.6270  -26.5900   21.6330 C   0  0  0  0  0  2  0  0  0  0  0  0
  -18.2450  -26.7290   22.2780 C   0  0  0  0  0  2  0  0  0  0  0  0
  -19.1820  -28.8430   23.3870 C   0  0  0  0  0  0  0  0  0  0  0  0
  -18.9610  -30.1050   23.9800 C   0  0  0  0  0  3  0  0  0  0  0  0
  -17.6550  -30.6030   24.1460 C   0  0  0  0  0  3  0  0  0  0  0  0
  -16.5520  -29.8350   23.7330 C   0  0  0  0  0  3  0  0  0  0  0  0
  -16.7580  -28.5740   23.1440 C   0  0  0  0  0  3  0  0  0  0  0  0
  -25.9150  -32.5120   23.8780 C   0  0  0  0  0  3  0  0  0  0  0  0
  -25.6130  -33.9110   24.2080 N   0  0  0  0  0  0  0  0  0  0  0  0
  -25.9410  -34.9620   23.4430 C   0  0  0  0  0  0  0  0  0  0  0  0
  -26.6020  -34.8530   22.4060 O   0  0  0  0  0  0  0  0  0  0  0  0
  -25.0240  -34.0690   25.0130 H   0  0  0  0  0  0  0  0  0  0  0  0
  -24.2120  -36.7560   23.1000 C   0  0  0  0  0  1  0  0  0  0  0  0
  -25.4610  -36.3520   23.9010 C   0  0  0  0  0  3  0  0  0  0  0  0
  -27.6050  -37.2360   24.7070 C   0  0  0  0  0  1  0  0  0  0  0  0
  -26.4940  -37.4030   23.7730 N   0  0  0  0  0  0  0  0  0  0  0  0
  -26.0920  -38.3250   23.9210 H   0  0  0  0  0  0  0  0  0  0  0  0
  -26.4360  -31.7380   25.1510 C   0  0  1  0  0  0  0  0  0  0  0  0
  -25.3470  -31.5020   26.2240 C   0  0  0  0  0  1  0  0  0  0  0  0
  -27.0130  -30.3600   24.7540 C   0  0  0  0  0  1  0  0  0  0  0  0
  -27.5920  -32.5290   25.8080 C   0  0  0  0  0  1  0  0  0  0  0  0
  -29.4180  -20.6030   19.5950 C   0  0  0  0  0  2  0  0  0  0  0  0
  -31.5250  -18.6140   22.1440 C   0  0  0  0  0  3  0  0  0  0  0  0
  -30.9190  -19.6770   21.4420 C   0  0  0  0  0  3  0  0  0  0  0  0
  -31.1770  -17.2770   21.8650 C   0  0  0  0  0  3  0  0  0  0  0  0
  -29.9360  -19.4240   20.4610 C   0  0  0  0  0  0  0  0  0  0  0  0
  -30.2010  -16.9810   20.8890 C   0  0  0  0  0  0  0  0  0  0  0  0
  -29.5670  -18.0640   20.2080 C   0  0  0  0  0  0  0  0  0  0  0  0
  -28.6230  -17.7860   19.2760 F   0  0  0  0  0  0  0  0  0  0  0  0
  -30.5880  -14.5650   20.2900 C   0  0  0  0  0  0  0  0  0  0  0  0
  -30.3080  -12.3900   19.1370 C   0  0  0  0  0  2  0  0  0  0  0  0
  -29.3330  -12.5740   17.9550 C   0  0  0  0  0  2  0  0  0  0  0  0
  -27.8710  -12.4180   18.4200 C   0  0  0  0  0  2  0  0  0  0  0  0
  -27.5530  -13.2500   19.6920 C   0  0  0  0  0  3  0  0  0  0  0  0
  -28.6380  -13.0420   20.7730 C   0  0  0  0  0  2  0  0  0  0  0  0
  -29.9370  -13.3730   20.1660 N   0  0  0  0  0  0  0  0  0  0  0  0
  -31.7440  -14.7260   19.8890 O   0  0  0  0  0  0  0  0  0  0  0  0
  -29.8110  -15.6140   20.6590 N   0  0  0  0  0  0  0  0  0  0  0  0
  -28.8240  -15.4210   20.7290 H   0  0  0  0  0  0  0  0  0  0  0  0
  -25.1730  -13.8460   20.4570 C   0  0  0  0  0  0  0  0  0  0  0  0
  -24.1150  -13.0690   20.8480 C   0  0  0  0  0  0  0  0  0  0  0  0
  -24.5810  -11.7180   20.8050 C   0  0  0  0  0  0  0  0  0  0  0  0
  -26.2150  -12.9680   20.2020 N   0  0  0  0  0  0  0  0  0  0  0  0
  -25.8650  -11.6840   20.4700 N   0  0  0  0  0  0  0  0  0  0  0  0
  -23.8630  -10.4540   21.0070 C   0  0  0  0  0  0  0  0  0  0  0  0
  -24.3170   -9.4860   21.9290 C   0  0  0  0  0  3  0  0  0  0  0  0
  -23.6000   -8.2850   22.1180 C   0  0  0  0  0  3  0  0  0  0  0  0
  -22.4140   -8.0440   21.3850 C   0  0  0  0  0  0  0  0  0  0  0  0
  -21.9790   -9.0010   20.4500 C   0  0  0  0  0  3  0  0  0  0  0  0
  -22.6980  -10.1940   20.2590 C   0  0  0  0  0  3  0  0  0  0  0  0
  -21.6660   -6.8960   21.4830 O   0  0  0  0  0  0  0  0  0  0  0  0
  -21.6440   -6.1480   22.6330 C   0  0  0  0  0  0  0  0  0  0  0  0
  -21.2380   -6.6940   23.8710 C   0  0  0  0  0  3  0  0  0  0  0  0
  -21.1650   -5.8710   25.0130 C   0  0  0  0  0  3  0  0  0  0  0  0
  -21.4870   -4.5050   24.9190 C   0  0  0  0  0  0  0  0  0  0  0  0
  -21.8880   -3.9590   23.6870 C   0  0  0  0  0  3  0  0  0  0  0  0
  -21.9630   -4.7780   22.5460 C   0  0  0  0  0  0  0  0  0  0  0  0
  -22.3280   -4.2410   21.3570 F   0  0  0  0  0  0  0  0  0  0  0  0
  -21.4100   -3.7130   26.0140 F   0  0  0  0  0  0  0  0  0  0  0  0
  -22.7230  -13.5410   21.1490 C   0  0  0  0  0  0  0  0  0  0  0  0
  -22.0130  -12.8370   22.0240 N   0  0  0  0  0  0  0  0  0  0  0  0
  -22.2720  -14.5680   20.6440 O   0  0  0  0  0  0  0  0  0  0  0  0
  -22.3890  -12.0040   22.4520 H   0  0  0  0  0  0  0  0  0  0  0  0
  -21.0790  -13.1340   22.2690 H   0  0  0  0  0  0  0  0  0  0  0  0
  -25.3280  -15.2170   20.2770 N   0  0  0  0  0  0  0  0  0  0  0  0
  -24.5540  -15.8620   20.3940 H   0  0  0  0  0  0  0  0  0  0  0  0
  -26.1530  -15.6600   19.8900 H   0  0  0  0  0  0  0  0  0  0  0  0
  1  2  1  0
  1  5  1  0
  3  1  1  0
  5  4  1  0
  6  5  1  0
  6  8  1  0
  7  6  2  0
  9 11  1  0
  9  8  1  0
 10 21  2  0
 11 16  1  0
 12 20  1  0
 12 22  1  0
 13 19  1  0
 13 15  1  0
 14 20  1  0
 15 14  1  0
 16 15  2  0
 17 18  1  0
 17 11  2  0
 18 13  2  0
 19 12  1  0
 20 10  1  0
 22 24  2  0
 23 22  1  0
 25 23  1  0
 26 35  2  0
 26 31  1  0
 27 23  1  0
 27 31  1  0
 28 27  1  0
 29 30  1  0
 29 28  1  0
 30 26  1  0
 31 32  2  0
 32 33  1  0
 34 33  2  0
 35 34  1  0
 36 10  1  0
 36 37  1  0
 36 46  1  0
 37 40  1  0
 38 42  1  0
 38 37  1  0
 39 38  2  0
 42 41  1  0
 44 42  1  0
 44 45  1  0
 44 43  1  0
 46 49  1  1
 46 47  1  0
 48 46  1  0
 50  1  1  0
 50 54  1  0
 52 51  2  0
 53 51  1  0
 54 52  1  0
 55 53  2  0
 56 54  2  0
 56 55  1  0
 57 56  1  0
 58 66  1  0
 59 64  1  0
 60 61  1  0
 60 59  1  0
 62 61  1  0
 62 71  1  0
 62 63  1  0
 64 58  1  0
 64 63  1  0
 65 58  2  0
 66 67  1  0
 66 55  1  0
 68 69  2  0
 69 88  1  0
 70 69  1  0
 70 73  1  0
 71 68  1  0
 71 72  1  0
 72 70  2  0
 73 74  1  0
 74 75  2  0
 76 79  1  0
 76 75  1  0
 77 76  2  0
 78 77  1  0
 78 73  2  0
 79 80  1  0
 80 81  1  0
 81 82  2  0
 83 82  1  0
 83 87  1  0
 84 83  2  0
 85 80  2  0
 85 84  1  0
 86 85  1  0
 88 89  1  0
 89 92  1  0
 89 91  1  0
 90 88  2  0
 93 94  1  0
 93 68  1  0
 95 93  1  0
M  ISO  4   8 101   9 101  58 100  66 100
M  END
>  <TORSDO>  (69) 
F 21

>  <SCORE>  (69) 
-13.632

>  <name>  (69) 
68

>  <ligand_id>  (69) 
68

>  <original_smiles>  (69) 
[H]c1c([H])c([H])c2c(c1[H])C([H])([H])C([H])([H])C([H])([H])C2([H])N([H])C(=O)C1([H])N(C(=O)C([H])(N([H])C(=O)C([H])(N([H])C([H])([H])[H])C([H])([H])[H])C(C([H])([H])[H])(C([H])([H])[H])C([H])([H])[H])C([H])([H])c2c([H])c(OC([H])([H])C(=O)C([H])(C([H])([H])[H])[N+]([H])([H])C([H])([H])c3c([H])c([H])c([H])c(N([H])C(=O)N4C([H])([H])C([H])([H])C([H])([H])C([H])(n5nc(-c6c([H])c([H])c(Oc7c([H])c([H])c(F)c([H])c7F)c([H])c6[H])c(C(=O)N([H])[H])c5N([H])[H])C4([H])[H])c3F)c([H])c([H])c2C1([H])[H]

>  <smiles>  (69) 
[H]c1c([H])c([H])c2c(c1[H])C([H])([H])C([H])([H])C([H])([H])C2([H])N([H])C(=O)C1([H])N(C(=O)C([H])(N([H])C(=O)C([H])(N([H])C([H])([H])[H])C([H])([H])[H])C(C([H])([H])[H])(C([H])([H])[H])C([H])([H])[H])C([H])([H])c2c([H])c(OC([H])([H])C(=O)C([H])(C([H])([H])[H])[N+]([H])([H])C([H])([H])c3c([H])c([H])c([H])c(N([H])C(=O)N4C([H])([H])C([H])([H])C([H])([H])C([H])(n5nc(-c6c([H])c([H])c(Oc7c([H])c([H])c(F)c([H])c7F)c([H])c6[H])c(C(=O)N([H])[H])c5N([H])[H])C4([H])[H])c3F)c([H])c([H])c2C1([H])[H]

$$$$
69:0:0
     RDKit          3D

 98106  0  0  1  0  0  0  0  0999 V2000
  -29.2580  -20.6520   20.8890 C   0  0  0  0  0  0  0  0  0  0  0  0
  -29.5460  -21.9550   20.6250 N   0  0  0  0  0  0  0  0  0  0  0  0
  -28.0760  -20.3950   21.4530 N   0  0  0  0  0  4  0  0  0  0  0  0
  -30.3580  -22.1500   20.0490 H   0  0  0  0  0  0  0  0  0  0  0  0
  -27.7980  -19.4310   21.5740 H   0  0  0  0  0  0  0  0  0  0  0  0
  -27.4200  -21.1280   21.6580 H   0  0  0  0  0  0  0  0  0  0  0  0
  -31.6000  -19.8570   20.6460 C   0  0  0  0  0  3  0  0  0  0  0  0
  -32.1720  -17.4890   20.5000 C   0  0  0  0  0  3  0  0  0  0  0  0
  -30.2240  -19.5450   20.6750 C   0  0  0  0  0  0  0  0  0  0  0  0
  -30.8010  -17.1310   20.5110 C   0  0  0  0  0  0  0  0  0  0  0  0
  -32.5640  -18.8390   20.5600 C   0  0  0  0  0  0  0  0  0  0  0  0
  -29.8340  -18.1700   20.6040 C   0  0  0  0  0  0  0  0  0  0  0  0
  -33.8800  -19.1610   20.5560 F   0  0  0  0  0  0  0  0  0  0  0  0
  -28.5230  -17.8220   20.6630 F   0  0  0  0  0  0  0  0  0  0  0  0
  -31.0000  -14.6930   19.9570 C   0  0  0  0  0  0  0  0  0  0  0  0
  -30.6370  -12.4740   18.9380 C   0  0  0  0  0  2  0  0  0  0  0  0
  -29.6360  -12.6050   17.7730 C   0  0  0  0  0  2  0  0  0  0  0  0
  -28.1890  -12.4730   18.2870 C   0  0  0  0  0  2  0  0  0  0  0  0
  -27.9070  -13.3740   19.5200 C   0  0  0  0  0  3  0  0  0  0  0  0
  -29.0230  -13.2410   20.5820 C   0  0  0  0  0  2  0  0  0  0  0  0
  -30.3100  -13.5190   19.9250 N   0  0  0  0  0  0  0  0  0  0  0  0
  -32.0940  -14.8170   19.4030 O   0  0  0  0  0  0  0  0  0  0  0  0
  -30.3580  -15.7590   20.4860 N   0  0  0  0  0  0  0  0  0  0  0  0
  -29.4100  -15.5960   20.7880 H   0  0  0  0  0  0  0  0  0  0  0  0
  -25.5800  -14.0000   20.4210 C   0  0  0  0  0  0  0  0  0  0  0  0
  -24.5220  -13.2360   20.8340 C   0  0  0  0  0  0  0  0  0  0  0  0
  -24.9480  -11.8770   20.7200 C   0  0  0  0  0  0  0  0  0  0  0  0
  -26.5860  -13.1080   20.0850 N   0  0  0  0  0  0  0  0  0  0  0  0
  -26.2130  -11.8240   20.3220 N   0  0  0  0  0  0  0  0  0  0  0  0
  -24.2050  -10.6240   20.9140 C   0  0  0  0  0  0  0  0  0  0  0  0
  -24.6100   -9.6660   21.8690 C   0  0  0  0  0  3  0  0  0  0  0  0
  -23.8700   -8.4780   22.0490 C   0  0  0  0  0  3  0  0  0  0  0  0
  -22.7100   -8.2400   21.2750 C   0  0  0  0  0  0  0  0  0  0  0  0
  -22.3240   -9.1870   20.3100 C   0  0  0  0  0  3  0  0  0  0  0  0
  -23.0660  -10.3660   20.1270 C   0  0  0  0  0  3  0  0  0  0  0  0
  -21.9430   -7.1030   21.3630 O   0  0  0  0  0  0  0  0  0  0  0  0
  -21.7880   -6.4310   22.5480 C   0  0  0  0  0  0  0  0  0  0  0  0
  -21.2100   -7.0440   23.6820 C   0  0  0  0  0  3  0  0  0  0  0  0
  -21.0050   -6.2950   24.8590 C   0  0  0  0  0  3  0  0  0  0  0  0
  -21.3650   -4.9360   24.9000 C   0  0  0  0  0  0  0  0  0  0  0  0
  -21.9350   -4.3220   23.7700 C   0  0  0  0  0  3  0  0  0  0  0  0
  -22.1420   -5.0680   22.5970 C   0  0  0  0  0  0  0  0  0  0  0  0
  -22.6710   -4.4660   21.5040 F   0  0  0  0  0  0  0  0  0  0  0  0
  -21.1610   -4.2140   26.0280 F   0  0  0  0  0  0  0  0  0  0  0  0
  -23.1590  -13.7330   21.2220 C   0  0  0  0  0  0  0  0  0  0  0  0
  -22.4750  -13.0190   22.1080 N   0  0  0  0  0  0  0  0  0  0  0  0
  -22.7120  -14.7890   20.7740 O   0  0  0  0  0  0  0  0  0  0  0  0
  -22.8500  -12.1630   22.4910 H   0  0  0  0  0  0  0  0  0  0  0  0
  -21.5630  -13.3320   22.4080 H   0  0  0  0  0  0  0  0  0  0  0  0
  -25.7650  -15.3730   20.2850 N   0  0  0  0  0  0  0  0  0  0  0  0
  -25.0230  -16.0370   20.4770 H   0  0  0  0  0  0  0  0  0  0  0  0
  -26.6050  -15.8130   19.9330 H   0  0  0  0  0  0  0  0  0  0  0  0
  -29.0910  -23.4620   22.5710 C   0  0  0  0  0  1  0  0  0  0  0  0
  -28.7930  -23.1660   21.0800 C   0  0  0  0  0  3  0  0  0  0  0  0
  -29.0700  -24.4330   20.2140 C   0  0  0  0  0  0  0  0  0  0  0  0
  -29.8250  -24.4130   19.2380 O   0  0  0  0  0  0  0  0  0  0  0  0
  -28.3550  -25.7360   20.6580 C   0  0  0  0  0  2  0  0  0  0  0  0
  -28.4540  -26.8390   19.7290 O   0  0  0  0  0  0  0  0  0  0  0  0
  -24.6390  -31.8250   23.1170 C   0  0  0  0  0  0  0  0  0  0  0  0
  -27.3130  -27.6110   19.7510 C   0  0  0  0  0  0  0  0  0  0  0  0
  -23.4290  -30.4800   21.4300 C   0  0  0  0  0  3  0  0  0  0  0  0
  -24.8880  -29.0600   19.8900 C   0  0  0  0  0  0  0  0  0  0  0  0
  -25.9420  -30.9130   21.1930 C   0  0  0  0  0  2  0  0  0  0  0  0
  -26.0480  -29.5810   20.4790 C   0  0  0  0  0  0  0  0  0  0  0  0
  -27.2680  -28.8650   20.4050 C   0  0  0  0  0  3  0  0  0  0  0  0
  -26.1400  -27.1110   19.1480 C   0  0  0  0  0  3  0  0  0  0  0  0
  -24.9300  -27.8250   19.2200 C   0  0  0  0  0  3  0  0  0  0  0  0
  -23.6230  -29.8800   20.0130 C   0  0  0  0  0  2  0  0  0  0  0  0
  -24.6900  -31.0850   21.9730 N   0  0  0  0  0  0  0  0  0  0  0  0
  -23.5650  -32.0400   23.6950 O   0  0  0  0  0  0  0  0  0  0  0  0
  -22.8260  -29.3930   22.3490 C   0  0  0  0  0  0  0  0  0  0  0  0
  -21.5030  -29.1860   22.2450 N   0  0  0  0  0  0  0  0  0  0  0  0
  -23.5440  -28.7420   23.1140 O   0  0  0  0  0  0  0  0  0  0  0  0
  -20.9830  -29.7670   21.6010 H   0  0  0  0  0  0  0  0  0  0  0  0
  -18.1690  -27.8890   22.7590 C   0  0  0  0  0  0  0  0  0  0  0  0
  -20.7270  -28.1900   22.9830 C   0  0  0  0  0  3  0  0  0  0  0  0
  -20.8460  -26.7950   22.3270 C   0  0  0  0  0  2  0  0  0  0  0  0
  -19.7250  -26.5030   21.3230 C   0  0  0  0  0  2  0  0  0  0  0  0
  -18.3580  -26.5820   22.0070 C   0  0  0  0  0  2  0  0  0  0  0  0
  -19.2820  -28.6510   23.2030 C   0  0  0  0  0  0  0  0  0  0  0  0
  -19.0510  -29.8770   23.8670 C   0  0  0  0  0  3  0  0  0  0  0  0
  -17.7410  -30.3380   24.0910 C   0  0  0  0  0  3  0  0  0  0  0  0
  -16.6430  -29.5720   23.6630 C   0  0  0  0  0  3  0  0  0  0  0  0
  -16.8580  -28.3490   23.0030 C   0  0  0  0  0  3  0  0  0  0  0  0
  -25.9240  -32.4550   23.7400 C   0  0  0  0  0  3  0  0  0  0  0  0
  -26.4660  -31.6550   24.9880 C   0  0  1  0  0  0  0  0  0  0  0  0
  -25.3900  -31.3700   26.0600 C   0  0  0  0  0  1  0  0  0  0  0  0
  -27.0640  -30.2980   24.5460 C   0  0  0  0  0  1  0  0  0  0  0  0
  -27.6140  -32.4470   25.6590 C   0  0  0  0  0  1  0  0  0  0  0  0
  -25.6020  -33.8400   24.1100 N   0  0  0  0  0  0  0  0  0  0  0  0
  -25.9230  -34.9150   23.3790 C   0  0  0  0  0  0  0  0  0  0  0  0
  -26.5930  -34.8460   22.3440 O   0  0  0  0  0  0  0  0  0  0  0  0
  -25.0080  -33.9670   24.9160 H   0  0  0  0  0  0  0  0  0  0  0  0
  -24.1840  -36.7050   23.0660 C   0  0  0  0  0  1  0  0  0  0  0  0
  -25.4230  -36.2860   23.8740 C   0  0  0  0  0  3  0  0  0  0  0  0
  -27.5400  -37.1650   24.7540 C   0  0  0  0  0  1  0  0  0  0  0  0
  -26.4480  -37.3490   23.8000 N   0  0  0  0  0  0  0  0  0  0  0  0
  -26.0330  -38.2620   23.9660 H   0  0  0  0  0  0  0  0  0  0  0  0
  1  3  2  0
  2  1  1  0
  2 54  1  0
  3  5  1  0
  3  6  1  0
  4  2  1  0
  7  9  1  0
  8 10  2  0
  8 11  1  0
  9  1  1  0
 10 12  1  0
 11  7  2  0
 12 14  1  0
 12  9  2  0
 13 11  1  0
 15 23  1  0
 16 21  1  0
 17 18  1  0
 17 16  1  0
 19 18  1  0
 19 28  1  0
 19 20  1  0
 21 15  1  0
 21 20  1  0
 22 15  2  0
 23 10  1  0
 23 24  1  0
 25 26  2  0
 26 45  1  0
 27 26  1  0
 27 30  1  0
 28 29  1  0
 28 25  1  0
 29 27  2  0
 30 31  1  0
 31 32  2  0
 33 36  1  0
 33 32  1  0
 34 33  2  0
 35 34  1  0
 35 30  2  0
 36 37  1  0
 37 42  2  0
 37 38  1  0
 38 39  2  0
 39 40  1  0
 40 44  1  0
 41 40  2  0
 42 41  1  0
 43 42  1  0
 45 46  1  0
 46 49  1  0
 46 48  1  0
 47 45  2  0
 50 25  1  0
 50 51  1  0
 52 50  1  0
 54 53  1  0
 55 57  1  0
 55 54  1  0
 56 55  2  0
 58 60  1  0
 58 57  1  0
 59 70  2  0
 60 65  1  0
 61 69  1  0
 61 71  1  0
 62 68  1  0
 62 64  1  0
 63 69  1  0
 64 63  1  0
 65 64  2  0
 66 67  1  0
 66 60  2  0
 67 62  2  0
 68 61  1  0
 69 59  1  0
 71 73  2  0
 72 71  1  0
 74 72  1  0
 75 84  2  0
 75 80  1  0
 76 72  1  0
 76 80  1  0
 77 76  1  0
 78 79  1  0
 78 77  1  0
 79 75  1  0
 80 81  2  0
 81 82  1  0
 83 82  2  0
 84 83  1  0
 85 59  1  0
 85 90  1  0
 85 86  1  0
 86 89  1  1
 86 87  1  0
 88 86  1  0
 90 93  1  0
 91 95  1  0
 91 90  1  0
 92 91  2  0
 95 94  1  0
 97 95  1  0
 97 98  1  0
 97 96  1  0
M  ISO  4  15 100  23 100  57 101  58 101
M  END
>  <TORSDO>  (70) 
F 20

>  <SCORE>  (70) 
-13.530

>  <name>  (70) 
69

>  <ligand_id>  (70) 
69

>  <original_smiles>  (70) 
[H]c1c([H])c([H])c2c(c1[H])C([H])([H])C([H])([H])C([H])([H])C2([H])N([H])C(=O)C1([H])N(C(=O)C([H])(N([H])C(=O)C([H])(N([H])C([H])([H])[H])C([H])([H])[H])C(C([H])([H])[H])(C([H])([H])[H])C([H])([H])[H])C([H])([H])c2c([H])c(OC([H])([H])C(=O)C([H])(N([H])C(c3c([H])c(F)c([H])c(N([H])C(=O)N4C([H])([H])C([H])([H])C([H])([H])C([H])(n5nc(-c6c([H])c([H])c(Oc7c([H])c([H])c(F)c([H])c7F)c([H])c6[H])c(C(=O)N([H])[H])c5N([H])[H])C4([H])[H])c3F)=[N+]([H])[H])C([H])([H])[H])c([H])c([H])c2C1([H])[H]

>  <smiles>  (70) 
[H]c1c([H])c([H])c2c(c1[H])C([H])([H])C([H])([H])C([H])([H])C2([H])N([H])C(=O)C1([H])N(C(=O)C([H])(N([H])C(=O)C([H])(N([H])C([H])([H])[H])C([H])([H])[H])C(C([H])([H])[H])(C([H])([H])[H])C([H])([H])[H])C([H])([H])c2c([H])c(OC([H])([H])C(=O)C([H])(N([H])C(c3c([H])c(F)c([H])c(N([H])C(=O)N4C([H])([H])C([H])([H])C([H])([H])C([H])(n5nc(-c6c([H])c([H])c(Oc7c([H])c([H])c(F)c([H])c7F)c([H])c6[H])c(C(=O)N([H])[H])c5N([H])[H])C4([H])[H])c3F)=[N+]([H])[H])C([H])([H])[H])c([H])c([H])c2C1([H])[H]

$$$$
70:0:0
     RDKit          3D

 96104  0  0  1  0  0  0  0  0999 V2000
  -28.7360  -22.9870   19.2510 C   0  0  0  0  0  0  0  0  0  0  0  0
  -29.3510  -21.8940   19.7730 N   0  0  0  0  0  0  0  0  0  0  0  0
  -28.1220  -22.9150   18.1830 O   0  0  0  0  0  0  0  0  0  0  0  0
  -29.8280  -22.0190   20.6560 H   0  0  0  0  0  0  0  0  0  0  0  0
  -28.3570  -25.3940   19.5180 C   0  0  0  0  0  3  0  0  0  0  0  0
  -28.8510  -24.2340   20.0330 C   0  0  0  0  0  0  0  0  0  0  0  0
  -29.4280  -24.2170   21.2430 O   0  0  0  0  0  0  0  0  0  0  0  0
  -29.4130  -25.1100   21.5650 H   0  0  0  0  0  0  0  0  0  0  0  0
  -28.3430  -26.6300   20.1520 O   0  0  0  0  0  0  0  0  0  0  0  0
  -24.5810  -31.8840   23.2490 C   0  0  0  0  0  0  0  0  0  0  0  0
  -27.1820  -27.4030   20.1300 C   0  0  0  0  0  0  0  0  0  0  0  0
  -23.3590  -30.4930   21.6140 C   0  0  0  0  0  3  0  0  0  0  0  0
  -24.7970  -28.9580   20.1700 C   0  0  0  0  0  0  0  0  0  0  0  0
  -25.8920  -30.8320   21.4020 C   0  0  0  0  0  2  0  0  0  0  0  0
  -25.9670  -29.4610   20.7510 C   0  0  0  0  0  0  0  0  0  0  0  0
  -27.1600  -28.6920   20.7270 C   0  0  0  0  0  3  0  0  0  0  0  0
  -25.9760  -26.9220   19.5620 C   0  0  0  0  0  3  0  0  0  0  0  0
  -24.7990  -27.6880   19.5740 C   0  0  0  0  0  3  0  0  0  0  0  0
  -23.5590  -29.8250   20.2290 C   0  0  0  0  0  2  0  0  0  0  0  0
  -24.6300  -31.0840   22.1470 N   0  0  0  0  0  0  0  0  0  0  0  0
  -23.5030  -32.1590   23.7960 O   0  0  0  0  0  0  0  0  0  0  0  0
  -22.7090  -29.4700   22.5740 C   0  0  0  0  0  0  0  0  0  0  0  0
  -21.3820  -29.2890   22.4520 N   0  0  0  0  0  0  0  0  0  0  0  0
  -23.3940  -28.8430   23.3860 O   0  0  0  0  0  0  0  0  0  0  0  0
  -20.8880  -29.8470   21.7700 H   0  0  0  0  0  0  0  0  0  0  0  0
  -18.0090  -28.0890   22.9550 C   0  0  0  0  0  0  0  0  0  0  0  0
  -20.5670  -28.3500   23.2250 C   0  0  0  0  0  3  0  0  0  0  0  0
  -20.6700  -26.9190   22.6500 C   0  0  0  0  0  2  0  0  0  0  0  0
  -19.5690  -26.5940   21.6360 C   0  0  0  0  0  2  0  0  0  0  0  0
  -18.1880  -26.7400   22.2800 C   0  0  0  0  0  2  0  0  0  0  0  0
  -19.1270  -28.8520   23.3840 C   0  0  0  0  0  0  0  0  0  0  0  0
  -18.9090  -30.1160   23.9750 C   0  0  0  0  0  3  0  0  0  0  0  0
  -17.6030  -30.6180   24.1390 C   0  0  0  0  0  3  0  0  0  0  0  0
  -16.5000  -29.8500   23.7300 C   0  0  0  0  0  3  0  0  0  0  0  0
  -16.7030  -28.5880   23.1430 C   0  0  0  0  0  3  0  0  0  0  0  0
  -25.8710  -32.5110   23.8620 C   0  0  0  0  0  3  0  0  0  0  0  0
  -26.3950  -31.7360   25.1330 C   0  0  1  0  0  0  0  0  0  0  0  0
  -25.3100  -31.5050   26.2110 C   0  0  0  0  0  1  0  0  0  0  0  0
  -26.9660  -30.3540   24.7360 C   0  0  0  0  0  1  0  0  0  0  0  0
  -27.5560  -32.5230   25.7840 C   0  0  0  0  0  1  0  0  0  0  0  0
  -25.5690  -33.9100   24.1950 N   0  0  0  0  0  0  0  0  0  0  0  0
  -25.8990  -34.9610   23.4330 C   0  0  0  0  0  0  0  0  0  0  0  0
  -26.5590  -34.8550   22.3960 O   0  0  0  0  0  0  0  0  0  0  0  0
  -24.9850  -34.0660   25.0030 H   0  0  0  0  0  0  0  0  0  0  0  0
  -24.1750  -36.7590   23.0890 C   0  0  0  0  0  1  0  0  0  0  0  0
  -25.4190  -36.3500   23.8940 C   0  0  0  0  0  3  0  0  0  0  0  0
  -27.5630  -37.2250   24.7120 C   0  0  0  0  0  1  0  0  0  0  0  0
  -26.4540  -37.4000   23.7760 N   0  0  0  0  0  0  0  0  0  0  0  0
  -26.0520  -38.3220   23.9260 H   0  0  0  0  0  0  0  0  0  0  0  0
  -30.3660  -20.6270   17.8890 C   0  0  0  0  0  1  0  0  0  0  0  0
  -29.4150  -20.5670   19.1010 C   0  0  0  0  0  3  0  0  0  0  0  0
  -30.7190  -19.1410   20.9010 C   0  0  0  0  0  0  0  0  0  0  0  0
  -30.8580  -17.7780   21.3290 C   0  0  0  0  0  0  0  0  0  0  0  0
  -29.7530  -19.3420   19.9450 C   0  0  0  0  0  0  0  0  0  0  0  0
  -29.9980  -16.8900   20.7260 C   0  0  0  0  0  0  0  0  0  0  0  0
  -31.4880  -20.1010   21.3640 F   0  0  0  0  0  0  0  0  0  0  0  0
  -31.7390  -17.4200   22.2370 F   0  0  0  0  0  0  0  0  0  0  0  0
  -28.9710  -17.7930   19.6150 S   0  0  0  0  0  0  0  0  0  0  0  0
  -30.5930  -14.5430   20.4420 C   0  0  0  0  0  0  0  0  0  0  0  0
  -30.3320  -12.3730   19.2830 C   0  0  0  0  0  2  0  0  0  0  0  0
  -29.3840  -12.5740   18.0820 C   0  0  0  0  0  2  0  0  0  0  0  0
  -27.9110  -12.4220   18.5120 C   0  0  0  0  0  2  0  0  0  0  0  0
  -27.5700  -13.2480   19.7800 C   0  0  0  0  0  3  0  0  0  0  0  0
  -28.6280  -13.0210   20.8850 C   0  0  0  0  0  2  0  0  0  0  0  0
  -29.9490  -13.3450   20.3200 N   0  0  0  0  0  0  0  0  0  0  0  0
  -31.7260  -14.7380   19.9960 O   0  0  0  0  0  0  0  0  0  0  0  0
  -29.8360  -15.5470   20.9420 N   0  0  0  0  0  0  0  0  0  0  0  0
  -28.9100  -15.2570   21.2160 H   0  0  0  0  0  0  0  0  0  0  0  0
  -25.1700  -13.8510   20.4830 C   0  0  0  0  0  0  0  0  0  0  0  0
  -24.1030  -13.0770   20.8560 C   0  0  0  0  0  0  0  0  0  0  0  0
  -24.5700  -11.7270   20.8330 C   0  0  0  0  0  0  0  0  0  0  0  0
  -26.2180  -12.9720   20.2580 N   0  0  0  0  0  0  0  0  0  0  0  0
  -25.8610  -11.6900   20.5270 N   0  0  0  0  0  0  0  0  0  0  0  0
  -23.8480  -10.4640   21.0300 C   0  0  0  0  0  0  0  0  0  0  0  0
  -24.2860   -9.5000   21.9650 C   0  0  0  0  0  3  0  0  0  0  0  0
  -23.5660   -8.3010   22.1490 C   0  0  0  0  0  3  0  0  0  0  0  0
  -22.3920   -8.0570   21.3970 C   0  0  0  0  0  0  0  0  0  0  0  0
  -21.9720   -9.0100   20.4530 C   0  0  0  0  0  3  0  0  0  0  0  0
  -22.6940  -10.2000   20.2670 C   0  0  0  0  0  3  0  0  0  0  0  0
  -21.6410   -6.9090   21.4910 O   0  0  0  0  0  0  0  0  0  0  0  0
  -21.6070   -6.1630   22.6410 C   0  0  0  0  0  0  0  0  0  0  0  0
  -21.1950   -6.7140   23.8750 C   0  0  0  0  0  3  0  0  0  0  0  0
  -21.1080   -5.8940   25.0180 C   0  0  0  0  0  3  0  0  0  0  0  0
  -21.4210   -4.5240   24.9280 C   0  0  0  0  0  0  0  0  0  0  0  0
  -21.8240   -3.9730   23.6990 C   0  0  0  0  0  3  0  0  0  0  0  0
  -21.9140   -4.7890   22.5580 C   0  0  0  0  0  0  0  0  0  0  0  0
  -22.2830   -4.2490   21.3720 F   0  0  0  0  0  0  0  0  0  0  0  0
  -21.3290   -3.7350   26.0230 F   0  0  0  0  0  0  0  0  0  0  0  0
  -22.7050  -13.5510   21.1250 C   0  0  0  0  0  0  0  0  0  0  0  0
  -21.9760  -12.8530   21.9900 N   0  0  0  0  0  0  0  0  0  0  0  0
  -22.2650  -14.5740   20.6030 O   0  0  0  0  0  0  0  0  0  0  0  0
  -22.3420  -12.0250   22.4360 H   0  0  0  0  0  0  0  0  0  0  0  0
  -21.0380  -13.1540   22.2130 H   0  0  0  0  0  0  0  0  0  0  0  0
  -25.3300  -15.2210   20.2960 N   0  0  0  0  0  0  0  0  0  0  0  0
  -24.5560  -15.8710   20.3890 H   0  0  0  0  0  0  0  0  0  0  0  0
  -26.1740  -15.6610   19.9520 H   0  0  0  0  0  0  0  0  0  0  0  0
  1  2  1  0
  1  6  1  0
  2  4  1  0
  3  1  2  0
  5  6  2  0
  5  9  1  0
  6  7  1  0
  7  8  1  0
 10 21  2  0
 11  9  1  0
 11 16  1  0
 12 20  1  0
 12 22  1  0
 13 19  1  0
 13 15  1  0
 14 20  1  0
 15 14  1  0
 16 15  2  0
 17 18  1  0
 17 11  2  0
 18 13  2  0
 19 12  1  0
 20 10  1  0
 22 24  2  0
 23 22  1  0
 25 23  1  0
 26 35  2  0
 26 31  1  0
 27 23  1  0
 27 31  1  0
 28 27  1  0
 29 30  1  0
 29 28  1  0
 30 26  1  0
 31 32  2  0
 32 33  1  0
 34 33  2  0
 35 34  1  0
 36 10  1  0
 36 41  1  0
 36 37  1  0
 37 40  1  1
 37 38  1  0
 39 37  1  0
 41 44  1  0
 42 46  1  0
 42 41  1  0
 43 42  2  0
 46 45  1  0
 48 46  1  0
 48 49  1  0
 48 47  1  0
 51 50  1  0
 51  2  1  0
 51 54  1  0
 52 53  1  0
 52 56  1  0
 53 57  1  0
 54 52  2  0
 55 67  1  0
 55 53  2  0
 58 54  1  0
 58 55  1  0
 59 67  1  0
 60 65  1  0
 61 62  1  0
 61 60  1  0
 63 62  1  0
 63 72  1  0
 63 64  1  0
 65 59  1  0
 65 64  1  0
 66 59  2  0
 67 68  1  0
 69 70  2  0
 70 89  1  0
 71 70  1  0
 71 74  1  0
 72 69  1  0
 72 73  1  0
 73 71  2  0
 74 75  1  0
 75 76  2  0
 77 80  1  0
 77 76  1  0
 78 77  2  0
 79 78  1  0
 79 74  2  0
 80 81  1  0
 81 82  1  0
 82 83  2  0
 84 83  1  0
 84 88  1  0
 85 84  2  0
 86 81  2  0
 86 85  1  0
 87 86  1  0
 89 90  1  0
 90 93  1  0
 90 92  1  0
 91 89  2  0
 94 95  1  0
 94 69  1  0
 96 94  1  0
M  ISO  4   5 101   9 101  59 100  67 100
M  END
>  <TORSDO>  (71) 
F 20

>  <SCORE>  (71) 
-14.156

>  <name>  (71) 
70

>  <ligand_id>  (71) 
70

>  <original_smiles>  (71) 
[H]OC(C(=O)N([H])C([H])(c1sc(N([H])C(=O)N2C([H])([H])C([H])([H])C([H])([H])C([H])(n3nc(-c4c([H])c([H])c(Oc5c([H])c([H])c(F)c([H])c5F)c([H])c4[H])c(C(=O)N([H])[H])c3N([H])[H])C2([H])[H])c(F)c1F)C([H])([H])[H])=C([H])Oc1c([H])c([H])c2c(c1[H])C([H])([H])N(C(=O)C([H])(N([H])C(=O)C([H])(N([H])C([H])([H])[H])C([H])([H])[H])C(C([H])([H])[H])(C([H])([H])[H])C([H])([H])[H])C([H])(C(=O)N([H])C1([H])c3c([H])c([H])c([H])c([H])c3C([H])([H])C([H])([H])C1([H])[H])C2([H])[H]

>  <smiles>  (71) 
[H]OC(C(=O)N([H])C([H])(c1sc(N([H])C(=O)N2C([H])([H])C([H])([H])C([H])([H])C([H])(n3nc(-c4c([H])c([H])c(Oc5c([H])c([H])c(F)c([H])c5F)c([H])c4[H])c(C(=O)N([H])[H])c3N([H])[H])C2([H])[H])c(F)c1F)C([H])([H])[H])=C([H])Oc1c([H])c([H])c2c(c1[H])C([H])([H])N(C(=O)C([H])(N([H])C(=O)C([H])(N([H])C([H])([H])[H])C([H])([H])[H])C(C([H])([H])[H])(C([H])([H])[H])C([H])([H])[H])C([H])(C(=O)N([H])C1([H])c3c([H])c([H])c([H])c([H])c3C([H])([H])C([H])([H])C1([H])[H])C2([H])[H]

$$$$
71:0:0
     RDKit          3D

 98106  0  0  1  0  0  0  0  0999 V2000
  -29.6600  -18.3370   20.7230 C   0  0  0  0  0  3  0  0  0  0  0  0
  -31.8880  -17.4340   21.0030 C   0  0  0  0  0  3  0  0  0  0  0  0
  -31.6050  -19.8590   20.7090 C   0  0  0  0  0  0  0  0  0  0  0  0
  -30.5080  -17.1820   20.8100 C   0  0  0  0  0  0  0  0  0  0  0  0
  -30.1850  -19.6740   20.6850 C   0  0  0  0  0  0  0  0  0  0  0  0
  -32.4230  -18.7310   20.9480 C   0  0  0  0  0  0  0  0  0  0  0  0
  -33.7580  -18.8790   21.1300 F   0  0  0  0  0  0  0  0  0  0  0  0
  -30.6490  -14.6810   20.3350 C   0  0  0  0  0  0  0  0  0  0  0  0
  -30.3010  -12.4890   19.2370 C   0  0  0  0  0  2  0  0  0  0  0  0
  -29.3410  -12.6440   18.0370 C   0  0  0  0  0  2  0  0  0  0  0  0
  -27.8820  -12.4930   18.5000 C   0  0  0  0  0  2  0  0  0  0  0  0
  -27.5620  -13.3520   19.7500 C   0  0  0  0  0  3  0  0  0  0  0  0
  -28.6410  -13.2080   20.8480 C   0  0  0  0  0  2  0  0  0  0  0  0
  -29.9410  -13.5150   20.2360 N   0  0  0  0  0  0  0  0  0  0  0  0
  -31.7990  -14.7450   19.8940 O   0  0  0  0  0  0  0  0  0  0  0  0
  -29.9940  -15.8110   20.7520 N   0  0  0  0  0  0  0  0  0  0  0  0
  -29.0100  -15.6910   20.9450 H   0  0  0  0  0  0  0  0  0  0  0  0
  -25.1840  -13.9510   20.5030 C   0  0  0  0  0  0  0  0  0  0  0  0
  -24.1220  -13.1840   20.8820 C   0  0  0  0  0  0  0  0  0  0  0  0
  -24.5770  -11.8260   20.8420 C   0  0  0  0  0  0  0  0  0  0  0  0
  -26.2250  -13.0700   20.2560 N   0  0  0  0  0  0  0  0  0  0  0  0
  -25.8650  -11.7890   20.5200 N   0  0  0  0  0  0  0  0  0  0  0  0
  -23.8510  -10.5670   21.0340 C   0  0  0  0  0  0  0  0  0  0  0  0
  -24.2860   -9.5940   21.9610 C   0  0  0  0  0  3  0  0  0  0  0  0
  -23.5580   -8.3990   22.1400 C   0  0  0  0  0  3  0  0  0  0  0  0
  -22.3810   -8.1660   21.3890 C   0  0  0  0  0  0  0  0  0  0  0  0
  -21.9680   -9.1260   20.4470 C   0  0  0  0  0  3  0  0  0  0  0  0
  -22.6980  -10.3100   20.2670 C   0  0  0  0  0  3  0  0  0  0  0  0
  -21.6250   -7.0230   21.4760 O   0  0  0  0  0  0  0  0  0  0  0  0
  -21.5720   -6.2800   22.6300 C   0  0  0  0  0  0  0  0  0  0  0  0
  -21.1320   -6.8340   23.8500 C   0  0  0  0  0  3  0  0  0  0  0  0
  -21.0260   -6.0190   24.9960 C   0  0  0  0  0  3  0  0  0  0  0  0
  -21.3540   -4.6540   24.9190 C   0  0  0  0  0  0  0  0  0  0  0  0
  -21.7860   -4.0980   23.7040 C   0  0  0  0  0  3  0  0  0  0  0  0
  -21.8930   -4.9110   22.5610 C   0  0  0  0  0  0  0  0  0  0  0  0
  -22.2910   -4.3680   21.3840 F   0  0  0  0  0  0  0  0  0  0  0  0
  -21.2470   -3.8670   26.0170 F   0  0  0  0  0  0  0  0  0  0  0  0
  -22.7250  -13.6590   21.1720 C   0  0  0  0  0  0  0  0  0  0  0  0
  -22.0020  -12.9510   22.0300 N   0  0  0  0  0  0  0  0  0  0  0  0
  -22.2920  -14.7000   20.6760 O   0  0  0  0  0  0  0  0  0  0  0  0
  -22.3650  -12.1040   22.4400 H   0  0  0  0  0  0  0  0  0  0  0  0
  -21.0670  -13.2480   22.2690 H   0  0  0  0  0  0  0  0  0  0  0  0
  -25.3620  -15.3210   20.3150 N   0  0  0  0  0  0  0  0  0  0  0  0
  -24.6050  -15.9900   20.3860 H   0  0  0  0  0  0  0  0  0  0  0  0
  -26.2010  -15.7190   19.9150 H   0  0  0  0  0  0  0  0  0  0  0  0
  -32.3190  -21.2060   20.4870 C   0  0  1  0  0  0  0  0  0  0  0  0
  -32.8210  -21.6780   21.6290 F   0  0  0  0  0  0  0  0  0  0  0  0
  -33.3290  -21.0250   19.6350 F   0  0  0  0  0  0  0  0  0  0  0  0
  -31.5560  -22.1530   19.9520 F   0  0  0  0  0  0  0  0  0  0  0  0
  -28.7570  -21.6120   19.8720 C   0  0  0  0  0  0  0  0  0  0  0  0
  -29.2980  -20.8050   20.8180 N   0  0  0  0  0  0  0  0  0  0  0  0
  -28.8150  -21.3810   18.6590 O   0  0  0  0  0  0  0  0  0  0  0  0
  -29.1980  -21.1720   21.7590 H   0  0  0  0  0  0  0  0  0  0  0  0
  -28.5970  -24.0390   20.1720 C   0  0  0  0  0  3  0  0  0  0  0  0
  -28.1330  -22.7870   20.4960 C   0  0  0  0  0  0  0  0  0  0  0  0
  -27.0200  -22.4960   21.5240 C   0  0  0  0  0  1  0  0  0  0  0  0
  -28.2140  -25.3760   20.8600 C   0  0  0  0  0  2  0  0  0  0  0  0
  -28.3930  -26.6290   20.1320 O   0  0  0  0  0  0  0  0  0  0  0  0
  -24.6010  -31.9250   23.2120 C   0  0  0  0  0  0  0  0  0  0  0  0
  -27.2730  -27.4520   20.1300 C   0  0  0  0  0  0  0  0  0  0  0  0
  -23.4150  -30.5120   21.5670 C   0  0  0  0  0  3  0  0  0  0  0  0
  -24.8870  -28.9860   20.1500 C   0  0  0  0  0  0  0  0  0  0  0  0
  -25.9520  -30.8760   21.3900 C   0  0  0  0  0  2  0  0  0  0  0  0
  -26.0500  -29.5070   20.7330 C   0  0  0  0  0  0  0  0  0  0  0  0
  -27.2550  -28.7500   20.7100 C   0  0  0  0  0  3  0  0  0  0  0  0
  -26.0930  -26.9650   19.5360 C   0  0  0  0  0  3  0  0  0  0  0  0
  -24.9030  -27.7130   19.5540 C   0  0  0  0  0  3  0  0  0  0  0  0
  -23.6440  -29.8470   20.1860 C   0  0  0  0  0  2  0  0  0  0  0  0
  -24.6730  -31.1210   22.1130 N   0  0  0  0  0  0  0  0  0  0  0  0
  -23.5130  -32.1890   23.7440 O   0  0  0  0  0  0  0  0  0  0  0  0
  -22.7590  -29.4850   22.5210 C   0  0  0  0  0  0  0  0  0  0  0  0
  -21.4330  -29.3090   22.4040 N   0  0  0  0  0  0  0  0  0  0  0  0
  -23.4440  -28.8530   23.3290 O   0  0  0  0  0  0  0  0  0  0  0  0
  -20.9360  -29.8900   21.7420 H   0  0  0  0  0  0  0  0  0  0  0  0
  -18.0490  -28.1310   22.9260 C   0  0  0  0  0  0  0  0  0  0  0  0
  -20.6140  -28.3660   23.1690 C   0  0  0  0  0  3  0  0  0  0  0  0
  -20.6930  -26.9390   22.5760 C   0  0  0  0  0  2  0  0  0  0  0  0
  -19.5760  -26.6380   21.5710 C   0  0  0  0  0  2  0  0  0  0  0  0
  -18.2020  -26.7890   22.2320 C   0  0  0  0  0  2  0  0  0  0  0  0
  -19.1810  -28.8790   23.3490 C   0  0  0  0  0  0  0  0  0  0  0  0
  -18.9800  -30.1350   23.9600 C   0  0  0  0  0  3  0  0  0  0  0  0
  -17.6820  -30.6470   24.1490 C   0  0  0  0  0  3  0  0  0  0  0  0
  -16.5650  -29.8950   23.7440 C   0  0  0  0  0  3  0  0  0  0  0  0
  -16.7500  -28.6390   23.1380 C   0  0  0  0  0  3  0  0  0  0  0  0
  -25.8760  -32.5700   23.8420 C   0  0  0  0  0  3  0  0  0  0  0  0
  -26.3940  -31.8090   25.1250 C   0  0  1  0  0  0  0  0  0  0  0  0
  -25.2960  -31.5690   26.1860 C   0  0  0  0  0  1  0  0  0  0  0  0
  -26.9950  -30.4380   24.7370 C   0  0  0  0  0  1  0  0  0  0  0  0
  -27.5340  -32.6130   25.7910 C   0  0  0  0  0  1  0  0  0  0  0  0
  -25.5540  -33.9650   24.1650 N   0  0  0  0  0  0  0  0  0  0  0  0
  -25.8890  -35.0180   23.4090 C   0  0  0  0  0  0  0  0  0  0  0  0
  -26.5650  -34.9170   22.3810 O   0  0  0  0  0  0  0  0  0  0  0  0
  -24.9680  -34.1230   24.9700 H   0  0  0  0  0  0  0  0  0  0  0  0
  -24.1570  -36.7980   23.0230 C   0  0  0  0  0  1  0  0  0  0  0  0
  -25.3850  -36.4000   23.8590 C   0  0  0  0  0  3  0  0  0  0  0  0
  -27.4970  -37.2880   24.7350 C   0  0  0  0  0  1  0  0  0  0  0  0
  -26.4130  -37.4610   23.7740 N   0  0  0  0  0  0  0  0  0  0  0  0
  -25.9980  -38.3780   23.9270 H   0  0  0  0  0  0  0  0  0  0  0  0
  1  4  1  0
  3  6  2  0
  4  2  2  0
  5  3  1  0
  5  1  2  0
  5 51  1  0
  6  2  1  0
  6  7  1  0
  8 16  1  0
  9 14  1  0
 10 11  1  0
 10  9  1  0
 12 11  1  0
 12 21  1  0
 12 13  1  0
 14  8  1  0
 14 13  1  0
 15  8  2  0
 16  4  1  0
 16 17  1  0
 18 19  2  0
 19 38  1  0
 20 19  1  0
 20 23  1  0
 21 18  1  0
 21 22  1  0
 22 20  2  0
 23 24  1  0
 24 25  2  0
 26 29  1  0
 26 25  1  0
 27 26  2  0
 28 27  1  0
 28 23  2  0
 29 30  1  0
 30 31  1  0
 31 32  2  0
 33 32  1  0
 33 37  1  0
 34 33  2  0
 35 30  2  0
 35 34  1  0
 36 35  1  0
 38 39  1  0
 39 42  1  0
 39 41  1  0
 40 38  2  0
 43 44  1  0
 43 18  1  0
 45 43  1  0
 46  3  1  0
 46 47  1  1
 48 46  1  0
 49 46  1  0
 50 55  1  0
 50 51  1  0
 51 53  1  0
 52 50  2  0
 54 55  2  0
 54 57  1  0
 55 56  1  0
 58 57  1  0
 59 70  2  0
 60 58  1  0
 60 65  1  0
 61 69  1  0
 61 71  1  0
 62 68  1  0
 62 64  1  0
 63 69  1  0
 64 63  1  0
 65 64  2  0
 66 67  1  0
 66 60  2  0
 67 62  2  0
 68 61  1  0
 69 59  1  0
 71 73  2  0
 72 71  1  0
 74 72  1  0
 75 84  2  0
 75 80  1  0
 76 72  1  0
 76 80  1  0
 77 76  1  0
 78 79  1  0
 78 77  1  0
 79 75  1  0
 80 81  2  0
 81 82  1  0
 83 82  2  0
 84 83  1  0
 85 59  1  0
 85 90  1  0
 85 86  1  0
 86 89  1  1
 86 87  1  0
 88 86  1  0
 90 93  1  0
 91 95  1  0
 91 90  1  0
 92 91  2  0
 95 94  1  0
 97 95  1  0
 97 98  1  0
 97 96  1  0
M  ISO  4   8 100  16 100  57 101  58 101
M  END
>  <TORSDO>  (72) 
F 20

>  <SCORE>  (72) 
-14.170

>  <name>  (72) 
71

>  <ligand_id>  (72) 
71

>  <original_smiles>  (72) 
[H]C(=C(C(=O)N([H])c1c([H])c(N([H])C(=O)N2C([H])([H])C([H])([H])C([H])([H])C([H])(n3nc(-c4c([H])c([H])c(Oc5c([H])c([H])c(F)c([H])c5F)c([H])c4[H])c(C(=O)N([H])[H])c3N([H])[H])C2([H])[H])c([H])c(F)c1C(F)(F)F)C([H])([H])[H])C([H])([H])Oc1c([H])c([H])c2c(c1[H])C([H])([H])N(C(=O)C([H])(N([H])C(=O)C([H])(N([H])C([H])([H])[H])C([H])([H])[H])C(C([H])([H])[H])(C([H])([H])[H])C([H])([H])[H])C([H])(C(=O)N([H])C1([H])c3c([H])c([H])c([H])c([H])c3C([H])([H])C([H])([H])C1([H])[H])C2([H])[H]

>  <smiles>  (72) 
[H]C(=C(C(=O)N([H])c1c([H])c(N([H])C(=O)N2C([H])([H])C([H])([H])C([H])([H])C([H])(n3nc(-c4c([H])c([H])c(Oc5c([H])c([H])c(F)c([H])c5F)c([H])c4[H])c(C(=O)N([H])[H])c3N([H])[H])C2([H])[H])c([H])c(F)c1C(F)(F)F)C([H])([H])[H])C([H])([H])Oc1c([H])c([H])c2c(c1[H])C([H])([H])N(C(=O)C([H])(N([H])C(=O)C([H])(N([H])C([H])([H])[H])C([H])([H])[H])C(C([H])([H])[H])(C([H])([H])[H])C([H])([H])[H])C([H])(C(=O)N([H])C1([H])c3c([H])c([H])c([H])c([H])c3C([H])([H])C([H])([H])C1([H])[H])C2([H])[H]

$$$$
72:0:0
     RDKit          3D

 91 99  0  0  1  0  0  0  0  0999 V2000
  -28.3540  -23.6470   20.2200 C   0  0  0  0  0  0  0  0  0  0  0  0
  -28.9660  -22.5250   19.6630 N   0  0  0  0  0  0  0  0  0  0  0  0
  -27.6510  -23.5560   21.2290 O   0  0  0  0  0  0  0  0  0  0  0  0
  -29.4720  -22.7760   18.8240 H   0  0  0  0  0  0  0  0  0  0  0  0
  -29.6770  -20.1690   20.7250 C   0  0  0  0  0  3  0  0  0  0  0  0
  -28.3540  -20.1700   18.9520 C   0  0  0  0  0  3  0  0  0  0  0  0
  -28.9060  -21.0450   19.8570 C   0  0  0  0  0  0  0  0  0  0  0  0
  -29.5700  -18.8310   20.2900 C   0  0  0  0  0  0  0  0  0  0  0  0
  -28.7300  -18.8530   19.2000 O   0  0  0  0  0  0  0  0  0  0  0  0
  -30.3380  -17.4800   20.6590 C   0  0  0  0  0  2  0  0  0  0  0  0
  -30.5760  -14.8670   20.3340 C   0  0  0  0  0  0  0  0  0  0  0  0
  -30.4010  -12.5790   19.3360 C   0  0  0  0  0  2  0  0  0  0  0  0
  -29.4550  -12.6020   18.1150 C   0  0  0  0  0  2  0  0  0  0  0  0
  -27.9920  -12.3960   18.5530 C   0  0  0  0  0  2  0  0  0  0  0  0
  -27.5980  -13.3100   19.7440 C   0  0  0  0  0  3  0  0  0  0  0  0
  -28.6570  -13.2710   20.8650 C   0  0  0  0  0  2  0  0  0  0  0  0
  -29.9440  -13.6430   20.2620 N   0  0  0  0  0  0  0  0  0  0  0  0
  -31.7840  -14.9350   20.0860 O   0  0  0  0  0  0  0  0  0  0  0  0
  -29.8230  -16.0360   20.4830 N   0  0  0  0  0  0  0  0  0  0  0  0
  -28.8310  -15.9090   20.6050 H   0  0  0  0  0  0  0  0  0  0  0  0
  -25.2160  -13.8800   20.4900 C   0  0  0  0  0  0  0  0  0  0  0  0
  -24.1570  -13.0990   20.8570 C   0  0  0  0  0  0  0  0  0  0  0  0
  -24.6260  -11.7480   20.8190 C   0  0  0  0  0  0  0  0  0  0  0  0
  -26.2620  -13.0070   20.2400 N   0  0  0  0  0  0  0  0  0  0  0  0
  -25.9160  -11.7200   20.5030 N   0  0  0  0  0  0  0  0  0  0  0  0
  -23.9060  -10.4850   21.0100 C   0  0  0  0  0  0  0  0  0  0  0  0
  -24.3340   -9.5240   21.9540 C   0  0  0  0  0  3  0  0  0  0  0  0
  -23.6120   -8.3230   22.1310 C   0  0  0  0  0  3  0  0  0  0  0  0
  -22.4480   -8.0780   21.3650 C   0  0  0  0  0  0  0  0  0  0  0  0
  -22.0380   -9.0270   20.4100 C   0  0  0  0  0  3  0  0  0  0  0  0
  -22.7600  -10.2180   20.2340 C   0  0  0  0  0  3  0  0  0  0  0  0
  -21.6970   -6.9300   21.4510 O   0  0  0  0  0  0  0  0  0  0  0  0
  -21.6280   -6.2010   22.6110 C   0  0  0  0  0  0  0  0  0  0  0  0
  -21.1580   -6.7660   23.8180 C   0  0  0  0  0  3  0  0  0  0  0  0
  -21.0400   -5.9630   24.9700 C   0  0  0  0  0  3  0  0  0  0  0  0
  -21.3770   -4.5970   24.9160 C   0  0  0  0  0  0  0  0  0  0  0  0
  -21.8350   -4.0320   23.7130 C   0  0  0  0  0  3  0  0  0  0  0  0
  -21.9580   -4.8320   22.5630 C   0  0  0  0  0  0  0  0  0  0  0  0
  -22.3820   -4.2800   21.4020 F   0  0  0  0  0  0  0  0  0  0  0  0
  -21.2540   -3.8230   26.0190 F   0  0  0  0  0  0  0  0  0  0  0  0
  -22.7600  -13.5660   21.1380 C   0  0  0  0  0  0  0  0  0  0  0  0
  -22.0390  -12.8560   21.9990 N   0  0  0  0  0  0  0  0  0  0  0  0
  -22.3180  -14.5980   20.6300 O   0  0  0  0  0  0  0  0  0  0  0  0
  -22.4120  -12.0200   22.4240 H   0  0  0  0  0  0  0  0  0  0  0  0
  -21.1060  -13.1510   22.2470 H   0  0  0  0  0  0  0  0  0  0  0  0
  -25.3710  -15.2550   20.3200 N   0  0  0  0  0  0  0  0  0  0  0  0
  -24.5970  -15.8980   20.4460 H   0  0  0  0  0  0  0  0  0  0  0  0
  -26.1830  -15.6930   19.9050 H   0  0  0  0  0  0  0  0  0  0  0  0
  -28.2330  -25.1310   18.0450 C   0  0  0  0  0  1  0  0  0  0  0  0
  -28.6000  -25.1010   19.5400 C   0  0  0  0  0  3  0  0  0  0  0  0
  -28.3300  -26.4060   20.2740 O   0  0  0  0  0  0  0  0  0  0  0  0
  -24.5810  -31.8820   23.2310 C   0  0  0  0  0  0  0  0  0  0  0  0
  -27.2060  -27.2670   20.1740 C   0  0  0  0  0  0  0  0  0  0  0  0
  -23.3880  -30.4850   21.5850 C   0  0  0  0  0  3  0  0  0  0  0  0
  -24.8450  -28.9310   20.1560 C   0  0  0  0  0  0  0  0  0  0  0  0
  -25.9320  -30.7900   21.4130 C   0  0  0  0  0  2  0  0  0  0  0  0
  -26.0130  -29.4060   20.7610 C   0  0  0  0  0  0  0  0  0  0  0  0
  -27.1880  -28.5820   20.7640 C   0  0  0  0  0  3  0  0  0  0  0  0
  -26.0060  -26.8610   19.5530 C   0  0  0  0  0  3  0  0  0  0  0  0
  -24.8450  -27.6650   19.5480 C   0  0  0  0  0  3  0  0  0  0  0  0
  -23.6130  -29.8180   20.2020 C   0  0  0  0  0  2  0  0  0  0  0  0
  -24.6530  -31.0720   22.1320 N   0  0  0  0  0  0  0  0  0  0  0  0
  -23.4950  -32.1570   23.7640 O   0  0  0  0  0  0  0  0  0  0  0  0
  -22.7180  -29.4690   22.5410 C   0  0  0  0  0  0  0  0  0  0  0  0
  -21.3930  -29.2870   22.4090 N   0  0  0  0  0  0  0  0  0  0  0  0
  -23.3940  -28.8480   23.3650 O   0  0  0  0  0  0  0  0  0  0  0  0
  -20.9040  -29.8210   21.7050 H   0  0  0  0  0  0  0  0  0  0  0  0
  -18.0230  -28.0870   22.9120 C   0  0  0  0  0  0  0  0  0  0  0  0
  -20.5770  -28.3540   23.1870 C   0  0  0  0  0  3  0  0  0  0  0  0
  -20.6880  -26.9220   22.6160 C   0  0  0  0  0  2  0  0  0  0  0  0
  -19.5900  -26.5980   21.5960 C   0  0  0  0  0  2  0  0  0  0  0  0
  -18.2060  -26.7360   22.2400 C   0  0  0  0  0  2  0  0  0  0  0  0
  -19.1360  -28.8530   23.3460 C   0  0  0  0  0  0  0  0  0  0  0  0
  -18.9130  -30.1120   23.9420 C   0  0  0  0  0  3  0  0  0  0  0  0
  -17.6070  -30.6090   24.1090 C   0  0  0  0  0  3  0  0  0  0  0  0
  -16.5060  -29.8420   23.6910 C   0  0  0  0  0  3  0  0  0  0  0  0
  -16.7140  -28.5850   23.0950 C   0  0  0  0  0  3  0  0  0  0  0  0
  -25.8580  -32.5220   23.8590 C   0  0  0  0  0  3  0  0  0  0  0  0
  -26.3670  -31.7600   25.1440 C   0  0  1  0  0  0  0  0  0  0  0  0
  -25.2730  -31.5280   26.2090 C   0  0  0  0  0  1  0  0  0  0  0  0
  -26.9480  -30.3790   24.7660 C   0  0  0  0  0  1  0  0  0  0  0  0
  -27.5130  -32.5560   25.8060 C   0  0  0  0  0  1  0  0  0  0  0  0
  -25.5460  -33.9240   24.1750 N   0  0  0  0  0  0  0  0  0  0  0  0
  -25.8920  -34.9740   23.4170 C   0  0  0  0  0  0  0  0  0  0  0  0
  -26.5780  -34.8620   22.3940 O   0  0  0  0  0  0  0  0  0  0  0  0
  -24.9280  -34.0830   24.9570 H   0  0  0  0  0  0  0  0  0  0  0  0
  -24.1850  -36.7800   23.0240 C   0  0  0  0  0  1  0  0  0  0  0  0
  -25.4050  -36.3650   23.8620 C   0  0  0  0  0  3  0  0  0  0  0  0
  -27.5240  -37.2470   24.7360 C   0  0  0  0  0  1  0  0  0  0  0  0
  -26.4450  -37.4130   23.7670 N   0  0  0  0  0  0  0  0  0  0  0  0
  -26.0390  -38.3360   23.9000 H   0  0  0  0  0  0  0  0  0  0  0  0
  1  3  2  0
  2  7  1  0
  2  1  1  0
  4  2  1  0
  6  9  1  0
  6  7  2  0
  7  5  1  0
  8 10  1  0
  8  5  2  0
  9  8  1  0
 11 19  1  0
 12 17  1  0
 13 14  1  0
 13 12  1  0
 15 14  1  0
 15 24  1  0
 15 16  1  0
 17 11  1  0
 17 16  1  0
 18 11  2  0
 19 20  1  0
 19 10  1  0
 21 22  2  0
 22 41  1  0
 23 22  1  0
 23 26  1  0
 24 21  1  0
 24 25  1  0
 25 23  2  0
 26 27  1  0
 27 28  2  0
 29 32  1  0
 29 28  1  0
 30 29  2  0
 31 30  1  0
 31 26  2  0
 32 33  1  0
 33 34  1  0
 34 35  2  0
 36 35  1  0
 36 40  1  0
 37 36  2  0
 38 33  2  0
 38 37  1  0
 39 38  1  0
 41 42  1  0
 42 45  1  0
 42 44  1  0
 43 41  2  0
 46 47  1  0
 46 21  1  0
 48 46  1  0
 50 49  1  0
 50  1  1  0
 50 51  1  0
 52 63  2  0
 53 51  1  0
 53 58  1  0
 54 62  1  0
 54 64  1  0
 55 61  1  0
 55 57  1  0
 56 62  1  0
 57 58  2  0
 57 56  1  0
 59 53  2  0
 60 59  1  0
 60 55  2  0
 61 54  1  0
 62 52  1  0
 64 66  2  0
 65 64  1  0
 67 65  1  0
 68 77  2  0
 68 73  1  0
 69 65  1  0
 69 73  1  0
 70 69  1  0
 71 72  1  0
 71 70  1  0
 72 68  1  0
 73 74  2  0
 74 75  1  0
 76 75  2  0
 77 76  1  0
 78 52  1  0
 78 83  1  0
 78 79  1  0
 79 82  1  1
 79 80  1  0
 81 79  1  0
 83 86  1  0
 84 88  1  0
 84 83  1  0
 85 84  2  0
 88 87  1  0
 90 88  1  0
 90 91  1  0
 90 89  1  0
M  ISO  4  11 100  19 100  50 101  51 101
M  END
>  <TORSDO>  (73) 
F 19

>  <SCORE>  (73) 
-14.271

>  <name>  (73) 
72

>  <ligand_id>  (73) 
72

>  <original_smiles>  (73) 
[H]c1oc(C([H])([H])N([H])C(=O)N2C([H])([H])C([H])([H])C([H])([H])C([H])(n3nc(-c4c([H])c([H])c(Oc5c([H])c([H])c(F)c([H])c5F)c([H])c4[H])c(C(=O)N([H])[H])c3N([H])[H])C2([H])[H])c([H])c1N([H])C(=O)C([H])(Oc1c([H])c([H])c2c(c1[H])C([H])([H])N(C(=O)C([H])(N([H])C(=O)C([H])(N([H])C([H])([H])[H])C([H])([H])[H])C(C([H])([H])[H])(C([H])([H])[H])C([H])([H])[H])C([H])(C(=O)N([H])C1([H])c3c([H])c([H])c([H])c([H])c3C([H])([H])C([H])([H])C1([H])[H])C2([H])[H])C([H])([H])[H]

>  <smiles>  (73) 
[H]c1oc(C([H])([H])N([H])C(=O)N2C([H])([H])C([H])([H])C([H])([H])C([H])(n3nc(-c4c([H])c([H])c(Oc5c([H])c([H])c(F)c([H])c5F)c([H])c4[H])c(C(=O)N([H])[H])c3N([H])[H])C2([H])[H])c([H])c1N([H])C(=O)C([H])(Oc1c([H])c([H])c2c(c1[H])C([H])([H])N(C(=O)C([H])(N([H])C(=O)C([H])(N([H])C([H])([H])[H])C([H])([H])[H])C(C([H])([H])[H])(C([H])([H])[H])C([H])([H])[H])C([H])(C(=O)N([H])C1([H])c3c([H])c([H])c([H])c([H])c3C([H])([H])C([H])([H])C1([H])[H])C2([H])[H])C([H])([H])[H]

$$$$
73:0:0
     RDKit          3D

 96104  0  0  1  0  0  0  0  0999 V2000
  -28.9080  -18.6820   18.2320 C   0  0  0  0  0  3  0  0  0  0  0  0
  -29.5640  -17.6650   18.9440 C   0  0  0  0  0  3  0  0  0  0  0  0
  -28.8820  -19.9960   18.7270 C   0  0  0  0  0  3  0  0  0  0  0  0
  -30.2320  -17.9510   20.1550 C   0  0  0  0  0  0  0  0  0  0  0  0
  -30.2290  -19.3000   20.6580 C   0  0  0  0  0  0  0  0  0  0  0  0
  -29.5170  -20.3330   19.9450 C   0  0  0  0  0  0  0  0  0  0  0  0
  -30.9880  -19.6010   21.9680 C   0  0  1  0  0  0  0  0  0  0  0  0
  -30.3450  -19.0370   22.9910 F   0  0  0  0  0  0  0  0  0  0  0  0
  -32.2280  -19.1130   21.9270 F   0  0  0  0  0  0  0  0  0  0  0  0
  -31.1250  -20.8980   22.2460 F   0  0  0  0  0  0  0  0  0  0  0  0
  -29.4050  -21.6660   20.4280 N   0  0  0  0  0  0  0  0  0  0  0  0
  -29.8740  -21.8890   21.3060 H   0  0  0  0  0  0  0  0  0  0  0  0
  -29.1460  -22.8330   19.5590 C   0  0  0  0  0  2  0  0  0  0  0  0
  -28.9070  -24.1640   20.3250 C   0  0  0  0  0  0  0  0  0  0  0  0
  -28.7390  -24.1610   21.5510 O   0  0  0  0  0  0  0  0  0  0  0  0
  -28.9070  -25.4850   19.5090 C   0  0  0  0  0  2  0  0  0  0  0  0
  -28.6850  -26.6730   20.3110 O   0  0  0  0  0  0  0  0  0  0  0  0
  -24.6420  -31.7530   23.2760 C   0  0  0  0  0  0  0  0  0  0  0  0
  -27.4870  -27.3700   20.2450 C   0  0  0  0  0  0  0  0  0  0  0  0
  -23.5320  -30.3640   21.5600 C   0  0  0  0  0  3  0  0  0  0  0  0
  -25.0680  -28.8620   20.1820 C   0  0  0  0  0  0  0  0  0  0  0  0
  -26.0570  -30.7550   21.4760 C   0  0  0  0  0  2  0  0  0  0  0  0
  -26.1940  -29.3890   20.8250 C   0  0  0  0  0  0  0  0  0  0  0  0
  -27.4010  -28.6490   20.8570 C   0  0  0  0  0  3  0  0  0  0  0  0
  -26.3320  -26.8590   19.6090 C   0  0  0  0  0  3  0  0  0  0  0  0
  -25.1330  -27.5960   19.5760 C   0  0  0  0  0  3  0  0  0  0  0  0
  -23.8120  -29.7050   20.1850 C   0  0  0  0  0  2  0  0  0  0  0  0
  -24.7610  -30.9690   22.1660 N   0  0  0  0  0  0  0  0  0  0  0  0
  -23.5330  -32.0020   23.7690 O   0  0  0  0  0  0  0  0  0  0  0  0
  -22.8480  -29.3200   22.4730 C   0  0  0  0  0  0  0  0  0  0  0  0
  -21.5240  -29.1570   22.3120 N   0  0  0  0  0  0  0  0  0  0  0  0
  -23.5070  -28.6620   23.2810 O   0  0  0  0  0  0  0  0  0  0  0  0
  -21.0540  -29.7370   21.6310 H   0  0  0  0  0  0  0  0  0  0  0  0
  -18.1240  -28.0080   22.7290 C   0  0  0  0  0  0  0  0  0  0  0  0
  -20.6830  -28.2030   23.0330 C   0  0  0  0  0  3  0  0  0  0  0  0
  -20.7640  -26.7970   22.3970 C   0  0  0  0  0  2  0  0  0  0  0  0
  -19.6660  -26.5400   21.3590 C   0  0  0  0  0  2  0  0  0  0  0  0
  -18.2810  -26.6860   21.9950 C   0  0  0  0  0  2  0  0  0  0  0  0
  -19.2530  -28.7280   23.2010 C   0  0  0  0  0  0  0  0  0  0  0  0
  -19.0520  -29.9700   23.8420 C   0  0  0  0  0  3  0  0  0  0  0  0
  -17.7560  -30.4900   24.0170 C   0  0  0  0  0  3  0  0  0  0  0  0
  -16.6410  -29.7660   23.5600 C   0  0  0  0  0  3  0  0  0  0  0  0
  -16.8250  -28.5250   22.9230 C   0  0  0  0  0  3  0  0  0  0  0  0
  -25.8880  -32.3920   23.9650 C   0  0  0  0  0  3  0  0  0  0  0  0
  -25.5480  -33.7830   24.2930 N   0  0  0  0  0  0  0  0  0  0  0  0
  -25.9170  -34.8470   23.5670 C   0  0  0  0  0  0  0  0  0  0  0  0
  -26.6510  -34.7610   22.5780 O   0  0  0  0  0  0  0  0  0  0  0  0
  -24.9030  -33.9230   25.0580 H   0  0  0  0  0  0  0  0  0  0  0  0
  -24.2080  -36.6370   23.1150 C   0  0  0  0  0  1  0  0  0  0  0  0
  -25.3910  -36.2270   24.0060 C   0  0  0  0  0  3  0  0  0  0  0  0
  -27.4570  -37.1100   24.9990 C   0  0  0  0  0  1  0  0  0  0  0  0
  -26.4230  -37.2880   23.9840 N   0  0  0  0  0  0  0  0  0  0  0  0
  -25.9980  -38.2000   24.1230 H   0  0  0  0  0  0  0  0  0  0  0  0
  -26.3570  -31.6110   25.2540 C   0  0  1  0  0  0  0  0  0  0  0  0
  -25.2200  -31.3500   26.2700 C   0  0  0  0  0  1  0  0  0  0  0  0
  -26.9700  -30.2440   24.8700 C   0  0  0  0  0  1  0  0  0  0  0  0
  -27.4740  -32.4050   25.9720 C   0  0  0  0  0  1  0  0  0  0  0  0
  -30.9890  -16.8090   20.8760 C   0  0  0  0  0  2  0  0  0  0  0  0
  -31.2500  -14.4120   20.0730 C   0  0  0  0  0  0  0  0  0  0  0  0
  -30.8750  -12.2380   18.9640 C   0  0  0  0  0  2  0  0  0  0  0  0
  -29.8880  -12.4380   17.7940 C   0  0  0  0  0  2  0  0  0  0  0  0
  -28.4280  -12.3650   18.2850 C   0  0  0  0  0  2  0  0  0  0  0  0
  -28.1710  -13.2520   19.5310 C   0  0  0  0  0  3  0  0  0  0  0  0
  -29.2480  -12.9870   20.6060 C   0  0  0  0  0  2  0  0  0  0  0  0
  -30.5610  -13.2430   19.9900 N   0  0  0  0  0  0  0  0  0  0  0  0
  -32.3700  -14.5730   19.5790 O   0  0  0  0  0  0  0  0  0  0  0  0
  -30.5530  -15.4260   20.6200 N   0  0  0  0  0  0  0  0  0  0  0  0
  -29.6460  -15.1740   20.9790 H   0  0  0  0  0  0  0  0  0  0  0  0
  -25.8450  -14.0050   20.3410 C   0  0  0  0  0  0  0  0  0  0  0  0
  -24.7440  -13.2960   20.7380 C   0  0  0  0  0  0  0  0  0  0  0  0
  -25.1150  -11.9190   20.6670 C   0  0  0  0  0  0  0  0  0  0  0  0
  -26.8220  -13.0630   20.0560 N   0  0  0  0  0  0  0  0  0  0  0  0
  -26.3870  -11.8030   20.3090 N   0  0  0  0  0  0  0  0  0  0  0  0
  -24.3190  -10.7010   20.8620 C   0  0  0  0  0  0  0  0  0  0  0  0
  -24.7050   -9.7110   21.7930 C   0  0  0  0  0  3  0  0  0  0  0  0
  -23.9150   -8.5560   21.9760 C   0  0  0  0  0  3  0  0  0  0  0  0
  -22.7250   -8.3840   21.2300 C   0  0  0  0  0  0  0  0  0  0  0  0
  -22.3590   -9.3620   20.2870 C   0  0  0  0  0  3  0  0  0  0  0  0
  -23.1480  -10.5080   20.1030 C   0  0  0  0  0  3  0  0  0  0  0  0
  -21.9100   -7.2830   21.3230 O   0  0  0  0  0  0  0  0  0  0  0  0
  -21.7770   -6.5830   22.4950 C   0  0  0  0  0  0  0  0  0  0  0  0
  -21.3270   -7.1980   23.6830 C   0  0  0  0  0  3  0  0  0  0  0  0
  -21.1390   -6.4260   24.8480 C   0  0  0  0  0  3  0  0  0  0  0  0
  -21.3910   -5.0410   24.8240 C   0  0  0  0  0  0  0  0  0  0  0  0
  -21.8310   -4.4260   23.6390 C   0  0  0  0  0  3  0  0  0  0  0  0
  -22.0210   -5.1940   22.4780 C   0  0  0  0  0  0  0  0  0  0  0  0
  -22.4280   -4.5930   21.3320 F   0  0  0  0  0  0  0  0  0  0  0  0
  -21.2010   -4.2980   25.9390 F   0  0  0  0  0  0  0  0  0  0  0  0
  -23.3910  -13.8540   21.0730 C   0  0  0  0  0  0  0  0  0  0  0  0
  -22.6670  -13.2010   21.9750 N   0  0  0  0  0  0  0  0  0  0  0  0
  -22.9890  -14.9010   20.5680 O   0  0  0  0  0  0  0  0  0  0  0  0
  -23.0060  -12.3510   22.4010 H   0  0  0  0  0  0  0  0  0  0  0  0
  -21.7590  -13.5560   22.2440 H   0  0  0  0  0  0  0  0  0  0  0  0
  -26.0940  -15.3660   20.1790 N   0  0  0  0  0  0  0  0  0  0  0  0
  -25.3750  -16.0640   20.3200 H   0  0  0  0  0  0  0  0  0  0  0  0
  -26.9530  -15.7500   19.8040 H   0  0  0  0  0  0  0  0  0  0  0  0
  1  3  2  0
  1  2  1  0
  2  4  2  0
  3  6  1  0
  4  5  1  0
  4 58  1  0
  5  7  1  0
  6 11  1  0
  6  5  2  0
  7 10  1  1
  7  8  1  0
  9  7  1  0
 11 12  1  0
 13 14  1  0
 13 11  1  0
 14 15  2  0
 16 17  1  0
 16 14  1  0
 18 29  2  0
 19 17  1  0
 19 24  1  0
 20 28  1  0
 20 30  1  0
 21 27  1  0
 21 23  1  0
 22 28  1  0
 23 24  2  0
 23 22  1  0
 25 19  2  0
 26 25  1  0
 26 21  2  0
 27 20  1  0
 28 18  1  0
 30 32  2  0
 31 30  1  0
 33 31  1  0
 34 43  2  0
 34 39  1  0
 35 31  1  0
 35 39  1  0
 36 35  1  0
 37 38  1  0
 37 36  1  0
 38 34  1  0
 39 40  2  0
 40 41  1  0
 42 41  2  0
 43 42  1  0
 44 18  1  0
 44 45  1  0
 44 54  1  0
 45 48  1  0
 46 50  1  0
 46 45  1  0
 47 46  2  0
 50 49  1  0
 52 50  1  0
 52 53  1  0
 52 51  1  0
 54 57  1  1
 54 55  1  0
 56 54  1  0
 59 67  1  0
 60 65  1  0
 61 62  1  0
 61 60  1  0
 63 62  1  0
 63 72  1  0
 63 64  1  0
 65 59  1  0
 65 64  1  0
 66 59  2  0
 67 58  1  0
 67 68  1  0
 69 70  2  0
 70 89  1  0
 71 70  1  0
 71 74  1  0
 72 73  1  0
 72 69  1  0
 73 71  2  0
 74 75  1  0
 75 76  2  0
 77 80  1  0
 77 76  1  0
 78 77  2  0
 79 78  1  0
 79 74  2  0
 80 81  1  0
 81 82  1  0
 82 83  2  0
 84 83  1  0
 84 88  1  0
 85 84  2  0
 86 81  2  0
 86 85  1  0
 87 86  1  0
 89 90  1  0
 90 93  1  0
 90 92  1  0
 91 89  2  0
 94 95  1  0
 94 69  1  0
 96 94  1  0
M  ISO  4  16 101  17 101  59 100  67 100
M  END
>  <TORSDO>  (74) 
F 22

>  <SCORE>  (74) 
-12.893

>  <name>  (74) 
73

>  <ligand_id>  (74) 
73

>  <original_smiles>  (74) 
[H]c1c([H])c(N([H])C([H])([H])C(=O)C([H])([H])Oc2c([H])c([H])c3c(c2[H])C([H])([H])N(C(=O)C([H])(N([H])C(=O)C([H])(N([H])C([H])([H])[H])C([H])([H])[H])C(C([H])([H])[H])(C([H])([H])[H])C([H])([H])[H])C([H])(C(=O)N([H])C2([H])c4c([H])c([H])c([H])c([H])c4C([H])([H])C([H])([H])C2([H])[H])C3([H])[H])c(C(F)(F)F)c(C([H])([H])N([H])C(=O)N2C([H])([H])C([H])([H])C([H])([H])C([H])(n3nc(-c4c([H])c([H])c(Oc5c([H])c([H])c(F)c([H])c5F)c([H])c4[H])c(C(=O)N([H])[H])c3N([H])[H])C2([H])[H])c1[H]

>  <smiles>  (74) 
[H]c1c([H])c(N([H])C([H])([H])C(=O)C([H])([H])Oc2c([H])c([H])c3c(c2[H])C([H])([H])N(C(=O)C([H])(N([H])C(=O)C([H])(N([H])C([H])([H])[H])C([H])([H])[H])C(C([H])([H])[H])(C([H])([H])[H])C([H])([H])[H])C([H])(C(=O)N([H])C2([H])c4c([H])c([H])c([H])c([H])c4C([H])([H])C([H])([H])C2([H])[H])C3([H])[H])c(C(F)(F)F)c(C([H])([H])N([H])C(=O)N2C([H])([H])C([H])([H])C([H])([H])C([H])(n3nc(-c4c([H])c([H])c(Oc5c([H])c([H])c(F)c([H])c5F)c([H])c4[H])c(C(=O)N([H])[H])c3N([H])[H])C2([H])[H])c1[H]

$$$$
74:0:0
     RDKit          3D

 93101  0  0  1  0  0  0  0  0999 V2000
  -29.1490  -21.8690   20.9150 C   0  0  0  0  0  0  0  0  0  0  0  0
  -29.3470  -20.6570   20.3250 N   0  0  0  0  0  0  0  0  0  0  0  0
  -29.1730  -22.0600   22.1360 O   0  0  0  0  0  0  0  0  0  0  0  0
  -29.1370  -20.6380   19.3350 H   0  0  0  0  0  0  0  0  0  0  0  0
  -31.6590  -18.4340   22.3110 C   0  0  0  0  0  3  0  0  0  0  0  0
  -30.9970  -19.5780   21.8270 C   0  0  0  0  0  3  0  0  0  0  0  0
  -31.2890  -17.1490   21.8690 C   0  0  0  0  0  3  0  0  0  0  0  0
  -29.5710  -18.1550   20.4540 C   0  0  0  0  0  3  0  0  0  0  0  0
  -29.9450  -19.4670   20.8880 C   0  0  0  0  0  0  0  0  0  0  0  0
  -30.2400  -16.9870   20.9370 C   0  0  0  0  0  0  0  0  0  0  0  0
  -30.5820  -14.6040   20.1820 C   0  0  0  0  0  0  0  0  0  0  0  0
  -30.2720  -12.4470   19.0050 C   0  0  0  0  0  2  0  0  0  0  0  0
  -29.2740  -12.6450   17.8440 C   0  0  0  0  0  2  0  0  0  0  0  0
  -27.8210  -12.4850   18.3340 C   0  0  0  0  0  2  0  0  0  0  0  0
  -27.5280  -13.3020   19.6210 C   0  0  0  0  0  3  0  0  0  0  0  0
  -28.6320  -13.0850   20.6790 C   0  0  0  0  0  2  0  0  0  0  0  0
  -29.9200  -13.4190   20.0520 N   0  0  0  0  0  0  0  0  0  0  0  0
  -31.7300  -14.7650   19.7580 O   0  0  0  0  0  0  0  0  0  0  0  0
  -29.8190  -15.6570   20.5730 N   0  0  0  0  0  0  0  0  0  0  0  0
  -28.8320  -15.4650   20.6580 H   0  0  0  0  0  0  0  0  0  0  0  0
  -25.1590  -13.8880   20.4300 C   0  0  0  0  0  0  0  0  0  0  0  0
  -24.1110  -13.1050   20.8350 C   0  0  0  0  0  0  0  0  0  0  0  0
  -24.5800  -11.7570   20.7780 C   0  0  0  0  0  0  0  0  0  0  0  0
  -26.1990  -13.0140   20.1530 N   0  0  0  0  0  0  0  0  0  0  0  0
  -25.8580  -11.7290   20.4210 N   0  0  0  0  0  0  0  0  0  0  0  0
  -23.8700  -10.4890   20.9840 C   0  0  0  0  0  0  0  0  0  0  0  0
  -24.3360   -9.5230   21.9050 C   0  0  0  0  0  3  0  0  0  0  0  0
  -23.6250   -8.3200   22.1000 C   0  0  0  0  0  3  0  0  0  0  0  0
  -22.4350   -8.0730   21.3740 C   0  0  0  0  0  0  0  0  0  0  0  0
  -21.9880   -9.0270   20.4430 C   0  0  0  0  0  3  0  0  0  0  0  0
  -22.7000  -10.2220   20.2460 C   0  0  0  0  0  3  0  0  0  0  0  0
  -21.6920   -6.9210   21.4800 O   0  0  0  0  0  0  0  0  0  0  0  0
  -21.6770   -6.1780   22.6330 C   0  0  0  0  0  0  0  0  0  0  0  0
  -21.2710   -6.7280   23.8680 C   0  0  0  0  0  3  0  0  0  0  0  0
  -21.2040   -5.9100   25.0130 C   0  0  0  0  0  3  0  0  0  0  0  0
  -21.5320   -4.5440   24.9260 C   0  0  0  0  0  0  0  0  0  0  0  0
  -21.9320   -3.9940   23.6960 C   0  0  0  0  0  3  0  0  0  0  0  0
  -22.0020   -4.8080   22.5510 C   0  0  0  0  0  0  0  0  0  0  0  0
  -22.3670   -4.2690   21.3640 F   0  0  0  0  0  0  0  0  0  0  0  0
  -21.4600   -3.7570   26.0240 F   0  0  0  0  0  0  0  0  0  0  0  0
  -22.7220  -13.5710   21.1610 C   0  0  0  0  0  0  0  0  0  0  0  0
  -22.0290  -12.8610   22.0440 N   0  0  0  0  0  0  0  0  0  0  0  0
  -22.2610  -14.6010   20.6700 O   0  0  0  0  0  0  0  0  0  0  0  0
  -22.4150  -12.0270   22.4630 H   0  0  0  0  0  0  0  0  0  0  0  0
  -21.0980  -13.1540   22.3060 H   0  0  0  0  0  0  0  0  0  0  0  0
  -25.3070  -15.2610   20.2540 N   0  0  0  0  0  0  0  0  0  0  0  0
  -24.5360  -15.9050   20.3880 H   0  0  0  0  0  0  0  0  0  0  0  0
  -26.1280  -15.7070   19.8670 H   0  0  0  0  0  0  0  0  0  0  0  0
  -28.8530  -23.0420   19.9050 C   0  0  0  0  0  0  0  0  0  0  0  0
  -29.4030  -23.0790   18.7980 O   0  0  0  0  0  0  0  0  0  0  0  0
  -27.8290  -24.1450   20.2900 C   0  0  0  0  0  2  0  0  0  0  0  0
  -28.3760  -25.4560   20.9530 C   0  0  0  0  0  2  0  0  0  0  0  0
  -28.3660  -26.6860   20.1780 O   0  0  0  0  0  0  0  0  0  0  0  0
  -24.5740  -31.9420   23.2550 C   0  0  0  0  0  0  0  0  0  0  0  0
  -27.2100  -27.4470   20.2100 C   0  0  0  0  0  0  0  0  0  0  0  0
  -23.3720  -30.5410   21.6110 C   0  0  0  0  0  3  0  0  0  0  0  0
  -24.8270  -28.9890   20.1980 C   0  0  0  0  0  0  0  0  0  0  0  0
  -25.9020  -30.8820   21.4260 C   0  0  0  0  0  2  0  0  0  0  0  0
  -25.9880  -29.5040   20.7910 C   0  0  0  0  0  0  0  0  0  0  0  0
  -27.1850  -28.7440   20.7880 C   0  0  0  0  0  3  0  0  0  0  0  0
  -26.0320  -26.9560   19.6100 C   0  0  0  0  0  3  0  0  0  0  0  0
  -24.8470  -27.7160   19.6040 C   0  0  0  0  0  3  0  0  0  0  0  0
  -23.5880  -29.8560   20.2340 C   0  0  0  0  0  2  0  0  0  0  0  0
  -24.6350  -31.1370   22.1550 N   0  0  0  0  0  0  0  0  0  0  0  0
  -23.4900  -32.2190   23.7880 O   0  0  0  0  0  0  0  0  0  0  0  0
  -22.7100  -29.5250   22.5700 C   0  0  0  0  0  0  0  0  0  0  0  0
  -21.3860  -29.3460   22.4350 N   0  0  0  0  0  0  0  0  0  0  0  0
  -23.3860  -28.9000   23.3920 O   0  0  0  0  0  0  0  0  0  0  0  0
  -20.9020  -29.9010   21.7430 H   0  0  0  0  0  0  0  0  0  0  0  0
  -18.0040  -28.1650   22.9220 C   0  0  0  0  0  0  0  0  0  0  0  0
  -20.5630  -28.4100   23.2020 C   0  0  0  0  0  3  0  0  0  0  0  0
  -20.6600  -26.9790   22.6240 C   0  0  0  0  0  2  0  0  0  0  0  0
  -19.5590  -26.6640   21.6060 C   0  0  0  0  0  2  0  0  0  0  0  0
  -18.1760  -26.8150   22.2460 C   0  0  0  0  0  2  0  0  0  0  0  0
  -19.1260  -28.9210   23.3560 C   0  0  0  0  0  0  0  0  0  0  0  0
  -18.9110  -30.1860   23.9470 C   0  0  0  0  0  3  0  0  0  0  0  0
  -17.6090  -30.6940   24.1080 C   0  0  0  0  0  3  0  0  0  0  0  0
  -16.5020  -29.9340   23.6910 C   0  0  0  0  0  3  0  0  0  0  0  0
  -16.7010  -28.6720   23.1030 C   0  0  0  0  0  3  0  0  0  0  0  0
  -25.8580  -32.5700   23.8800 C   0  0  0  0  0  3  0  0  0  0  0  0
  -26.3640  -31.8040   25.1630 C   0  0  1  0  0  0  0  0  0  0  0  0
  -25.2640  -31.5750   26.2260 C   0  0  0  0  0  1  0  0  0  0  0  0
  -26.9430  -30.4220   24.7800 C   0  0  0  0  0  1  0  0  0  0  0  0
  -27.5130  -32.5960   25.8270 C   0  0  0  0  0  1  0  0  0  0  0  0
  -25.5540  -33.9720   24.1990 N   0  0  0  0  0  0  0  0  0  0  0  0
  -25.8980  -35.0180   23.4360 C   0  0  0  0  0  0  0  0  0  0  0  0
  -26.5760  -34.9040   22.4110 O   0  0  0  0  0  0  0  0  0  0  0  0
  -24.9520  -34.1340   24.9940 H   0  0  0  0  0  0  0  0  0  0  0  0
  -24.1840  -36.8180   23.0530 C   0  0  0  0  0  1  0  0  0  0  0  0
  -25.4140  -36.4120   23.8800 C   0  0  0  0  0  3  0  0  0  0  0  0
  -27.5450  -37.2890   24.7280 C   0  0  0  0  0  1  0  0  0  0  0  0
  -26.4540  -37.4580   23.7720 N   0  0  0  0  0  0  0  0  0  0  0  0
  -26.0520  -38.3820   23.9110 H   0  0  0  0  0  0  0  0  0  0  0  0
  1  3  2  0
  2  9  1  0
  2  1  1  0
  4  2  1  0
  6  5  2  0
  7  5  1  0
  8  9  2  0
  8 10  1  0
  9  6  1  0
 10  7  2  0
 11 19  1  0
 12 17  1  0
 13 14  1  0
 13 12  1  0
 15 14  1  0
 15 24  1  0
 15 16  1  0
 17 11  1  0
 17 16  1  0
 18 11  2  0
 19 20  1  0
 19 10  1  0
 21 22  2  0
 22 41  1  0
 23 22  1  0
 23 26  1  0
 24 25  1  0
 24 21  1  0
 25 23  2  0
 26 27  1  0
 27 28  2  0
 29 32  1  0
 29 28  1  0
 30 29  2  0
 31 30  1  0
 31 26  2  0
 32 33  1  0
 33 34  1  0
 34 35  2  0
 36 35  1  0
 36 40  1  0
 37 36  2  0
 38 33  2  0
 38 37  1  0
 39 38  1  0
 41 42  1  0
 42 45  1  0
 42 44  1  0
 43 41  2  0
 46 47  1  0
 46 21  1  0
 48 46  1  0
 49 51  1  0
 49  1  1  0
 50 49  2  0
 51 52  1  0
 53 55  1  0
 53 52  1  0
 54 65  2  0
 55 60  1  0
 56 64  1  0
 56 66  1  0
 57 63  1  0
 57 59  1  0
 58 64  1  0
 59 58  1  0
 60 59  2  0
 61 55  2  0
 62 61  1  0
 62 57  2  0
 63 56  1  0
 64 54  1  0
 66 68  2  0
 67 66  1  0
 69 67  1  0
 70 79  2  0
 70 75  1  0
 71 67  1  0
 71 75  1  0
 72 71  1  0
 73 74  1  0
 73 72  1  0
 74 70  1  0
 75 76  2  0
 76 77  1  0
 78 77  2  0
 79 78  1  0
 80 54  1  0
 80 85  1  0
 80 81  1  0
 81 84  1  1
 81 82  1  0
 83 81  1  0
 85 88  1  0
 86 90  1  0
 86 85  1  0
 87 86  2  0
 90 89  1  0
 92 90  1  0
 92 93  1  0
 92 91  1  0
M  ISO  4  11 100  19 100  52 101  53 101
M  END
>  <TORSDO>  (75) 
F 20

>  <SCORE>  (75) 
-13.804

>  <name>  (75) 
74

>  <ligand_id>  (75) 
74

>  <original_smiles>  (75) 
[H]c1c([H])c(N([H])C(=O)C(=O)C([H])([H])C([H])([H])Oc2c([H])c([H])c3c(c2[H])C([H])([H])N(C(=O)C([H])(N([H])C(=O)C([H])(N([H])C([H])([H])[H])C([H])([H])[H])C(C([H])([H])[H])(C([H])([H])[H])C([H])([H])[H])C([H])(C(=O)N([H])C2([H])c4c([H])c([H])c([H])c([H])c4C([H])([H])C([H])([H])C2([H])[H])C3([H])[H])c([H])c(N([H])C(=O)N2C([H])([H])C([H])([H])C([H])([H])C([H])(n3nc(-c4c([H])c([H])c(Oc5c([H])c([H])c(F)c([H])c5F)c([H])c4[H])c(C(=O)N([H])[H])c3N([H])[H])C2([H])[H])c1[H]

>  <smiles>  (75) 
[H]c1c([H])c(N([H])C(=O)C(=O)C([H])([H])C([H])([H])Oc2c([H])c([H])c3c(c2[H])C([H])([H])N(C(=O)C([H])(N([H])C(=O)C([H])(N([H])C([H])([H])[H])C([H])([H])[H])C(C([H])([H])[H])(C([H])([H])[H])C([H])([H])[H])C([H])(C(=O)N([H])C2([H])c4c([H])c([H])c([H])c([H])c4C([H])([H])C([H])([H])C2([H])[H])C3([H])[H])c([H])c(N([H])C(=O)N2C([H])([H])C([H])([H])C([H])([H])C([H])(n3nc(-c4c([H])c([H])c(Oc5c([H])c([H])c(F)c([H])c5F)c([H])c4[H])c(C(=O)N([H])[H])c3N([H])[H])C2([H])[H])c1[H]

$$$$
75:0:0
     RDKit          3D

 94102  0  0  1  0  0  0  0  0999 V2000
  -29.5560  -19.5110   22.7400 C   0  0  0  0  0  3  0  0  0  0  0  0
  -30.0120  -18.3470   22.1040 C   0  0  0  0  0  3  0  0  0  0  0  0
  -29.4570  -20.7140   22.0270 C   0  0  0  0  0  3  0  0  0  0  0  0
  -30.3720  -18.3570   20.7390 C   0  0  0  0  0  0  0  0  0  0  0  0
  -30.2170  -19.5760   19.9930 C   0  0  0  0  0  0  0  0  0  0  0  0
  -29.7920  -20.7790   20.6540 C   0  0  0  0  0  0  0  0  0  0  0  0
  -30.5260  -19.5980   18.5270 C   0  0  0  0  0  0  0  0  0  0  0  0
  -29.6960  -18.6840   17.6310 C   0  0  0  0  0  1  0  0  0  0  0  0
  -31.3620  -20.3460   18.0080 O   0  0  0  0  0  0  0  0  0  0  0  0
  -30.8940  -17.0920   20.1460 C   0  0  0  0  0  3  0  0  0  0  0  0
  -30.6810  -15.8270   20.5870 C   0  0  0  0  0  3  0  0  0  0  0  0
  -31.3260  -14.7000   19.9050 C   0  0  0  0  0  0  0  0  0  0  0  0
  -30.9210  -12.5240   18.8180 C   0  0  0  0  0  2  0  0  0  0  0  0
  -29.9070  -12.7320   17.6730 C   0  0  0  0  0  2  0  0  0  0  0  0
  -28.4610  -12.6230   18.1950 C   0  0  0  0  0  2  0  0  0  0  0  0
  -28.2200  -13.4750   19.4700 C   0  0  0  0  0  3  0  0  0  0  0  0
  -29.3410  -13.2360   20.5060 C   0  0  0  0  0  2  0  0  0  0  0  0
  -30.6320  -13.5260   19.8590 N   0  0  0  0  0  0  0  0  0  0  0  0
  -32.4010  -14.8360   19.3110 O   0  0  0  0  0  0  0  0  0  0  0  0
  -25.9210  -14.1350   20.4180 C   0  0  0  0  0  0  0  0  0  0  0  0
  -24.8470  -13.3850   20.8230 C   0  0  0  0  0  0  0  0  0  0  0  0
  -25.2370  -12.0210   20.6590 C   0  0  0  0  0  0  0  0  0  0  0  0
  -26.8980  -13.2270   20.0390 N   0  0  0  0  0  0  0  0  0  0  0  0
  -26.4920  -11.9460   20.2380 N   0  0  0  0  0  0  0  0  0  0  0  0
  -24.4660  -10.7800   20.8240 C   0  0  0  0  0  0  0  0  0  0  0  0
  -24.8720   -9.7750   21.7290 C   0  0  0  0  0  3  0  0  0  0  0  0
  -24.1040   -8.5990   21.8820 C   0  0  0  0  0  3  0  0  0  0  0  0
  -22.9180   -8.4230   21.1310 C   0  0  0  0  0  0  0  0  0  0  0  0
  -22.5320   -9.4170   20.2160 C   0  0  0  0  0  3  0  0  0  0  0  0
  -23.2980  -10.5840   20.0600 C   0  0  0  0  0  3  0  0  0  0  0  0
  -22.1240   -7.3020   21.1960 O   0  0  0  0  0  0  0  0  0  0  0  0
  -21.9600   -6.6030   22.3630 C   0  0  0  0  0  0  0  0  0  0  0  0
  -21.4290   -7.2060   23.5250 C   0  0  0  0  0  3  0  0  0  0  0  0
  -21.2130   -6.4330   24.6830 C   0  0  0  0  0  3  0  0  0  0  0  0
  -21.5160   -5.0580   24.6800 C   0  0  0  0  0  0  0  0  0  0  0  0
  -22.0390   -4.4540   23.5220 C   0  0  0  0  0  3  0  0  0  0  0  0
  -22.2570   -5.2250   22.3670 C   0  0  0  0  0  0  0  0  0  0  0  0
  -22.7410   -4.6350   21.2470 F   0  0  0  0  0  0  0  0  0  0  0  0
  -21.3000   -4.3130   25.7900 F   0  0  0  0  0  0  0  0  0  0  0  0
  -23.5040  -13.9020   21.2500 C   0  0  0  0  0  0  0  0  0  0  0  0
  -22.8280  -13.1890   22.1440 N   0  0  0  0  0  0  0  0  0  0  0  0
  -23.0660  -14.9710   20.8250 O   0  0  0  0  0  0  0  0  0  0  0  0
  -23.1970  -12.3230   22.5070 H   0  0  0  0  0  0  0  0  0  0  0  0
  -21.9310  -13.5150   22.4710 H   0  0  0  0  0  0  0  0  0  0  0  0
  -26.1420  -15.5050   20.3260 N   0  0  0  0  0  0  0  0  0  0  0  0
  -25.4290  -16.1890   20.5580 H   0  0  0  0  0  0  0  0  0  0  0  0
  -26.9980  -15.9250   19.9890 H   0  0  0  0  0  0  0  0  0  0  0  0
  -29.6730  -22.0170   19.9740 N   0  0  0  0  0  0  0  0  0  0  0  0
  -30.1510  -22.1370   19.0820 H   0  0  0  0  0  0  0  0  0  0  0  0
  -29.3920  -23.2710   20.6910 C   0  0  0  0  0  2  0  0  0  0  0  0
  -29.3390  -24.5260   19.7950 C   0  0  0  0  0  0  0  0  0  0  0  0
  -29.5330  -24.4490   18.5760 O   0  0  0  0  0  0  0  0  0  0  0  0
  -29.0470  -25.8660   20.5000 C   0  0  0  0  0  2  0  0  0  0  0  0
  -28.9180  -26.9620   19.5790 O   0  0  0  0  0  0  0  0  0  0  0  0
  -24.8020  -31.5900   23.0950 C   0  0  0  0  0  0  0  0  0  0  0  0
  -27.7070  -27.6040   19.6610 C   0  0  0  0  0  0  0  0  0  0  0  0
  -23.6660  -30.2070   21.3870 C   0  0  0  0  0  3  0  0  0  0  0  0
  -25.1990  -28.8910   19.8280 C   0  0  0  0  0  0  0  0  0  0  0  0
  -26.1460  -30.7890   21.1550 C   0  0  0  0  0  2  0  0  0  0  0  0
  -26.3250  -29.4750   20.4230 C   0  0  0  0  0  0  0  0  0  0  0  0
  -27.5850  -28.8400   20.3340 C   0  0  0  0  0  3  0  0  0  0  0  0
  -26.5660  -27.0270   19.0660 C   0  0  0  0  0  3  0  0  0  0  0  0
  -25.3130  -27.6660   19.1460 C   0  0  0  0  0  3  0  0  0  0  0  0
  -23.8900  -29.6380   19.9590 C   0  0  0  0  0  2  0  0  0  0  0  0
  -24.8900  -30.8740   21.9380 N   0  0  0  0  0  0  0  0  0  0  0  0
  -23.7190  -31.7350   23.6780 O   0  0  0  0  0  0  0  0  0  0  0  0
  -23.1250  -29.0760   22.2900 C   0  0  0  0  0  0  0  0  0  0  0  0
  -21.8230  -28.7750   22.1550 N   0  0  0  0  0  0  0  0  0  0  0  0
  -23.8720  -28.4730   23.0640 O   0  0  0  0  0  0  0  0  0  0  0  0
  -21.2760  -29.3210   21.5040 H   0  0  0  0  0  0  0  0  0  0  0  0
  -18.5920  -27.2110   22.5610 C   0  0  0  0  0  0  0  0  0  0  0  0
  -21.1060  -27.7200   22.8700 C   0  0  0  0  0  3  0  0  0  0  0  0
  -21.3610  -26.3380   22.2260 C   0  0  0  0  0  2  0  0  0  0  0  0
  -20.3030  -25.9530   21.1860 C   0  0  0  0  0  2  0  0  0  0  0  0
  -18.9100  -25.9220   21.8220 C   0  0  0  0  0  2  0  0  0  0  0  0
  -19.6210  -28.0640   23.0390 C   0  0  0  0  0  0  0  0  0  0  0  0
  -19.2710  -29.2670   23.6870 C   0  0  0  0  0  3  0  0  0  0  0  0
  -17.9200  -29.6220   23.8640 C   0  0  0  0  0  3  0  0  0  0  0  0
  -16.9030  -28.7680   23.4030 C   0  0  0  0  0  3  0  0  0  0  0  0
  -17.2400  -27.5640   22.7570 C   0  0  0  0  0  3  0  0  0  0  0  0
  -26.0520  -32.2790   23.7290 C   0  0  0  0  0  3  0  0  0  0  0  0
  -25.6650  -33.6500   24.0880 N   0  0  0  0  0  0  0  0  0  0  0  0
  -25.9560  -34.7370   23.3610 C   0  0  0  0  0  0  0  0  0  0  0  0
  -26.6490  -34.6940   22.3400 O   0  0  0  0  0  0  0  0  0  0  0  0
  -25.0510  -33.7530   24.8820 H   0  0  0  0  0  0  0  0  0  0  0  0
  -24.1460  -36.4470   23.0130 C   0  0  0  0  0  1  0  0  0  0  0  0
  -25.3890  -36.0860   23.8420 C   0  0  0  0  0  3  0  0  0  0  0  0
  -27.4570  -37.0560   24.7420 C   0  0  0  0  0  1  0  0  0  0  0  0
  -26.3690  -37.1930   23.7780 N   0  0  0  0  0  0  0  0  0  0  0  0
  -25.9130  -38.0870   23.9380 H   0  0  0  0  0  0  0  0  0  0  0  0
  -26.6160  -31.5090   24.9860 C   0  0  1  0  0  0  0  0  0  0  0  0
  -25.5420  -31.1860   26.0520 C   0  0  0  0  0  1  0  0  0  0  0  0
  -27.2740  -30.1760   24.5600 C   0  0  0  0  0  1  0  0  0  0  0  0
  -27.7220  -32.3520   25.6650 C   0  0  0  0  0  1  0  0  0  0  0  0
  2  1  1  0
  3  1  2  0
  4  2  2  0
  5  6  2  0
  5  4  1  0
  6  3  1  0
  7  5  1  0
  8  7  1  0
  9  7  2  0
 10 11  2  0
 10  4  1  0
 12 11  1  0
 13 18  1  0
 14 15  1  0
 14 13  1  0
 16 15  1  0
 16 23  1  0
 16 17  1  0
 18 12  1  0
 18 17  1  0
 19 12  2  0
 20 21  2  0
 21 40  1  0
 22 21  1  0
 22 25  1  0
 23 24  1  0
 23 20  1  0
 24 22  2  0
 25 26  1  0
 26 27  2  0
 28 31  1  0
 28 27  1  0
 29 28  2  0
 30 29  1  0
 30 25  2  0
 31 32  1  0
 32 37  2  0
 32 33  1  0
 33 34  2  0
 35 34  1  0
 35 39  1  0
 36 35  2  0
 37 36  1  0
 38 37  1  0
 40 41  1  0
 41 44  1  0
 41 43  1  0
 42 40  2  0
 45 20  1  0
 45 46  1  0
 47 45  1  0
 48  6  1  0
 48 50  1  0
 49 48  1  0
 51 53  1  0
 51 50  1  0
 52 51  2  0
 54 56  1  0
 54 53  1  0
 55 66  2  0
 56 61  1  0
 57 65  1  0
 57 67  1  0
 58 64  1  0
 58 60  1  0
 59 65  1  0
 60 59  1  0
 61 60  2  0
 62 63  1  0
 62 56  2  0
 63 58  2  0
 64 57  1  0
 65 55  1  0
 67 69  2  0
 68 67  1  0
 70 68  1  0
 71 80  2  0
 71 76  1  0
 72 68  1  0
 72 76  1  0
 73 72  1  0
 74 75  1  0
 74 73  1  0
 75 71  1  0
 76 77  2  0
 77 78  1  0
 79 78  2  0
 80 79  1  0
 81 55  1  0
 81 82  1  0
 81 91  1  0
 82 85  1  0
 83 87  1  0
 83 82  1  0
 84 83  2  0
 87 86  1  0
 89 87  1  0
 89 90  1  0
 89 88  1  0
 91 94  1  1
 91 92  1  0
 93 91  1  0
M  ISO  4  11 100  12 100  53 101  54 101
M  END
>  <TORSDO>  (76) 
F 22

>  <SCORE>  (76) 
-9.006

>  <name>  (76) 
75

>  <ligand_id>  (76) 
75

>  <original_smiles>  (76) 
[H]C(C(=O)N1C([H])([H])C([H])([H])C([H])([H])C([H])(n2nc(-c3c([H])c([H])c(Oc4c([H])c([H])c(F)c([H])c4F)c([H])c3[H])c(C(=O)N([H])[H])c2N([H])[H])C1([H])[H])=C([H])c1c([H])c([H])c([H])c(N([H])C([H])([H])C(=O)C([H])([H])Oc2c([H])c([H])c3c(c2[H])C([H])([H])N(C(=O)C([H])(N([H])C(=O)C([H])(N([H])C([H])([H])[H])C([H])([H])[H])C(C([H])([H])[H])(C([H])([H])[H])C([H])([H])[H])C([H])(C(=O)N([H])C2([H])c4c([H])c([H])c([H])c([H])c4C([H])([H])C([H])([H])C2([H])[H])C3([H])[H])c1C(=O)C([H])([H])[H]

>  <smiles>  (76) 
[H]C(C(=O)N1C([H])([H])C([H])([H])C([H])([H])C([H])(n2nc(-c3c([H])c([H])c(Oc4c([H])c([H])c(F)c([H])c4F)c([H])c3[H])c(C(=O)N([H])[H])c2N([H])[H])C1([H])[H])=C([H])c1c([H])c([H])c([H])c(N([H])C([H])([H])C(=O)C([H])([H])Oc2c([H])c([H])c3c(c2[H])C([H])([H])N(C(=O)C([H])(N([H])C(=O)C([H])(N([H])C([H])([H])[H])C([H])([H])[H])C(C([H])([H])[H])(C([H])([H])[H])C([H])([H])[H])C([H])(C(=O)N([H])C2([H])c4c([H])c([H])c([H])c([H])c4C([H])([H])C([H])([H])C2([H])[H])C3([H])[H])c1C(=O)C([H])([H])[H]

$$$$
77:0:0
     RDKit          3D

 93101  0  0  1  0  0  0  0  0999 V2000
  -30.0070  -21.3200   22.0180 C   0  0  0  0  0  3  0  0  0  0  0  0
  -30.5920  -20.1850   22.6160 C   0  0  0  0  0  0  0  0  0  0  0  0
  -30.7060  -18.9710   21.9120 C   0  0  0  0  0  0  0  0  0  0  0  0
  -30.2240  -18.9020   20.5890 C   0  0  0  0  0  0  0  0  0  0  0  0
  -29.5120  -21.2480   20.7050 C   0  0  0  0  0  0  0  0  0  0  0  0
  -29.6290  -20.0400   20.0170 N   0  0  0  0  0  0  0  0  0  0  0  0
  -28.8730  -22.4070   20.1130 N   0  0  0  0  0  0  0  0  0  0  0  0
  -31.0620  -20.2730   23.8860 F   0  0  0  0  0  0  0  0  0  0  0  0
  -31.3050  -17.9040   22.4960 F   0  0  0  0  0  0  0  0  0  0  0  0
  -28.4820  -22.2870   19.1840 H   0  0  0  0  0  0  0  0  0  0  0  0
  -30.4890  -17.5740   19.7360 C   0  0  0  0  0  2  0  0  0  0  0  0
  -30.9650  -14.9930   19.9870 C   0  0  0  0  0  0  0  0  0  0  0  0
  -30.7080  -12.7110   18.9990 C   0  0  0  0  0  2  0  0  0  0  0  0
  -29.7260  -12.7880   17.8070 C   0  0  0  0  0  2  0  0  0  0  0  0
  -28.2730  -12.6220   18.2940 C   0  0  0  0  0  2  0  0  0  0  0  0
  -27.9500  -13.5120   19.5230 C   0  0  0  0  0  3  0  0  0  0  0  0
  -29.0510  -13.4250   20.6050 C   0  0  0  0  0  2  0  0  0  0  0  0
  -30.3270  -13.7700   19.9660 N   0  0  0  0  0  0  0  0  0  0  0  0
  -32.1260  -15.0760   19.5770 O   0  0  0  0  0  0  0  0  0  0  0  0
  -30.2220  -16.1420   20.2290 N   0  0  0  0  0  0  0  0  0  0  0  0
  -29.2960  -15.9890   20.5950 H   0  0  0  0  0  0  0  0  0  0  0  0
  -25.6060  -14.1190   20.3670 C   0  0  0  0  0  0  0  0  0  0  0  0
  -24.5460  -13.3510   20.7660 C   0  0  0  0  0  0  0  0  0  0  0  0
  -24.9860  -11.9950   20.6850 C   0  0  0  0  0  0  0  0  0  0  0  0
  -26.6250  -13.2300   20.0650 N   0  0  0  0  0  0  0  0  0  0  0  0
  -26.2610  -11.9460   20.3190 N   0  0  0  0  0  0  0  0  0  0  0  0
  -24.2470  -10.7400   20.8770 C   0  0  0  0  0  0  0  0  0  0  0  0
  -24.6390   -9.7930   21.8500 C   0  0  0  0  0  3  0  0  0  0  0  0
  -23.9020   -8.6020   22.0280 C   0  0  0  0  0  3  0  0  0  0  0  0
  -22.7580   -8.3500   21.2340 C   0  0  0  0  0  0  0  0  0  0  0  0
  -22.3850   -9.2840   20.2520 C   0  0  0  0  0  3  0  0  0  0  0  0
  -23.1230  -10.4660   20.0720 C   0  0  0  0  0  3  0  0  0  0  0  0
  -21.9960   -7.2090   21.3210 O   0  0  0  0  0  0  0  0  0  0  0  0
  -21.8080   -6.5580   22.5130 C   0  0  0  0  0  0  0  0  0  0  0  0
  -21.1890   -7.1880   23.6160 C   0  0  0  0  0  3  0  0  0  0  0  0
  -20.9530   -6.4600   24.7990 C   0  0  0  0  0  3  0  0  0  0  0  0
  -21.3230   -5.1040   24.8800 C   0  0  0  0  0  0  0  0  0  0  0  0
  -21.9330   -4.4740   23.7800 C   0  0  0  0  0  3  0  0  0  0  0  0
  -22.1720   -5.2000   22.5990 C   0  0  0  0  0  0  0  0  0  0  0  0
  -22.7400   -4.5820   21.5360 F   0  0  0  0  0  0  0  0  0  0  0  0
  -21.0890   -4.4030   26.0130 F   0  0  0  0  0  0  0  0  0  0  0  0
  -23.1690  -13.8440   21.1070 C   0  0  0  0  0  0  0  0  0  0  0  0
  -22.4740  -13.1490   22.0010 N   0  0  0  0  0  0  0  0  0  0  0  0
  -22.7190  -14.8780   20.6160 O   0  0  0  0  0  0  0  0  0  0  0  0
  -22.8510  -12.3120   22.4200 H   0  0  0  0  0  0  0  0  0  0  0  0
  -21.5510  -13.4600   22.2720 H   0  0  0  0  0  0  0  0  0  0  0  0
  -25.7830  -15.4900   20.2120 N   0  0  0  0  0  0  0  0  0  0  0  0
  -25.0270  -16.1500   20.3610 H   0  0  0  0  0  0  0  0  0  0  0  0
  -26.6120  -15.9220   19.8250 H   0  0  0  0  0  0  0  0  0  0  0  0
  -28.9860  -23.8720   20.5510 C   0  0  0  0  0  2  0  0  0  0  0  0
  -27.9770  -24.9850   19.9180 C   0  0  0  0  0  3  0  0  0  0  0  0
  -27.9080  -24.6800   18.5980 F   0  0  0  0  0  0  0  0  0  0  0  0
  -28.1790  -26.3910   20.0430 O   0  0  0  0  0  0  0  0  0  0  0  0
  -24.6240  -31.9330   23.1630 C   0  0  0  0  0  0  0  0  0  0  0  0
  -27.0910  -27.3100   20.0070 C   0  0  0  0  0  0  0  0  0  0  0  0
  -23.3540  -30.5370   21.5740 C   0  0  0  0  0  3  0  0  0  0  0  0
  -24.7430  -28.9850   20.0830 C   0  0  0  0  0  0  0  0  0  0  0  0
  -25.8900  -30.8320   21.2930 C   0  0  0  0  0  2  0  0  0  0  0  0
  -25.9400  -29.4490   20.6420 C   0  0  0  0  0  0  0  0  0  0  0  0
  -27.1130  -28.6240   20.5970 C   0  0  0  0  0  3  0  0  0  0  0  0
  -25.8710  -26.9340   19.3940 C   0  0  0  0  0  3  0  0  0  0  0  0
  -24.7150  -27.7360   19.4450 C   0  0  0  0  0  3  0  0  0  0  0  0
  -23.5120  -29.8650   20.1850 C   0  0  0  0  0  2  0  0  0  0  0  0
  -24.6440  -31.1190   22.0650 N   0  0  0  0  0  0  0  0  0  0  0  0
  -23.5630  -32.2120   23.7390 O   0  0  0  0  0  0  0  0  0  0  0  0
  -22.7280  -29.5200   22.5610 C   0  0  0  0  0  0  0  0  0  0  0  0
  -21.4150  -29.2650   22.4210 N   0  0  0  0  0  0  0  0  0  0  0  0
  -23.4250  -28.9640   23.4140 O   0  0  0  0  0  0  0  0  0  0  0  0
  -20.9090  -29.7690   21.7050 H   0  0  0  0  0  0  0  0  0  0  0  0
  -18.1220  -27.8260   22.8490 C   0  0  0  0  0  0  0  0  0  0  0  0
  -20.6360  -28.3120   23.2140 C   0  0  0  0  0  3  0  0  0  0  0  0
  -20.8780  -26.8620   22.7370 C   0  0  0  0  0  2  0  0  0  0  0  0
  -19.8560  -26.3880   21.6990 C   0  0  0  0  0  2  0  0  0  0  0  0
  -18.4380  -26.4580   22.2700 C   0  0  0  0  0  2  0  0  0  0  0  0
  -19.1530  -28.7030   23.2780 C   0  0  0  0  0  0  0  0  0  0  0  0
  -18.8050  -29.9770   23.7770 C   0  0  0  0  0  3  0  0  0  0  0  0
  -17.4580  -30.3760   23.8550 C   0  0  0  0  0  3  0  0  0  0  0  0
  -16.4400  -29.4990   23.4420 C   0  0  0  0  0  3  0  0  0  0  0  0
  -16.7730  -28.2260   22.9460 C   0  0  0  0  0  3  0  0  0  0  0  0
  -25.9300  -32.5670   23.7310 C   0  0  0  0  0  3  0  0  0  0  0  0
  -26.5130  -31.7810   24.9690 C   0  0  1  0  0  0  0  0  0  0  0  0
  -25.4670  -31.4940   26.0720 C   0  0  0  0  0  1  0  0  0  0  0  0
  -27.1130  -30.4260   24.5250 C   0  0  0  0  0  1  0  0  0  0  0  0
  -27.6700  -32.5870   25.6050 C   0  0  0  0  0  1  0  0  0  0  0  0
  -25.6260  -33.9580   24.1010 N   0  0  0  0  0  0  0  0  0  0  0  0
  -25.9360  -35.0290   23.3600 C   0  0  0  0  0  0  0  0  0  0  0  0
  -26.5770  -34.9520   22.3080 O   0  0  0  0  0  0  0  0  0  0  0  0
  -25.0570  -34.0920   24.9230 H   0  0  0  0  0  0  0  0  0  0  0  0
  -24.1990  -36.8300   23.0930 C   0  0  0  0  0  1  0  0  0  0  0  0
  -25.4610  -36.4060   23.8640 C   0  0  0  0  0  3  0  0  0  0  0  0
  -27.6090  -37.2770   24.6730 C   0  0  0  0  0  1  0  0  0  0  0  0
  -26.4890  -37.4630   23.7530 N   0  0  0  0  0  0  0  0  0  0  0  0
  -26.0860  -38.3800   23.9250 H   0  0  0  0  0  0  0  0  0  0  0  0
  1  2  1  0
  2  8  1  0
  3  9  1  0
  3  2  2  0
  4  3  1  0
  5  1  2  0
  6  4  2  0
  6  5  1  0
  7 50  1  0
  7  5  1  0
 10  7  1  0
 11 20  1  0
 11  4  1  0
 12 20  1  0
 13 18  1  0
 14 15  1  0
 14 13  1  0
 16 15  1  0
 16 25  1  0
 16 17  1  0
 18 12  1  0
 18 17  1  0
 19 12  2  0
 20 21  1  0
 22 23  2  0
 23 42  1  0
 24 23  1  0
 24 27  1  0
 25 26  1  0
 25 22  1  0
 26 24  2  0
 27 28  1  0
 28 29  2  0
 30 33  1  0
 30 29  1  0
 31 30  2  0
 32 31  1  0
 32 27  2  0
 33 34  1  0
 34 39  2  0
 34 35  1  0
 35 36  2  0
 36 37  1  0
 37 41  1  0
 38 37  2  0
 39 38  1  0
 40 39  1  0
 42 43  1  0
 43 46  1  0
 43 45  1  0
 44 42  2  0
 47 48  1  0
 47 22  1  0
 49 47  1  0
 51 52  1  0
 51 53  1  0
 51 50  1  0
 54 65  2  0
 55 53  1  0
 55 60  1  0
 56 64  1  0
 56 66  1  0
 57 63  1  0
 57 59  1  0
 58 64  1  0
 59 58  1  0
 60 59  2  0
 61 62  1  0
 61 55  2  0
 62 57  2  0
 63 56  1  0
 64 54  1  0
 66 68  2  0
 67 66  1  0
 69 67  1  0
 70 79  2  0
 70 75  1  0
 71 67  1  0
 71 75  1  0
 72 71  1  0
 73 74  1  0
 73 72  1  0
 74 70  1  0
 75 76  2  0
 76 77  1  0
 78 77  2  0
 79 78  1  0
 80 54  1  0
 80 85  1  0
 80 81  1  0
 81 84  1  1
 81 82  1  0
 83 81  1  0
 85 88  1  0
 86 90  1  0
 86 85  1  0
 87 86  2  0
 90 89  1  0
 92 90  1  0
 92 93  1  0
 92 91  1  0
M  ISO  4  12 100  20 100  51 101  53 101
M  END
>  <TORSDO>  (77) 
F 19

>  <SCORE>  (77) 
-13.794

>  <name>  (77) 
77

>  <ligand_id>  (77) 
77

>  <original_smiles>  (77) 
[H]c1c([H])c([H])c2c(c1[H])C([H])([H])C([H])([H])C([H])([H])C2([H])N([H])C(=O)C1([H])N(C(=O)C([H])(N([H])C(=O)C([H])(N([H])C([H])([H])[H])C([H])([H])[H])C(C([H])([H])[H])(C([H])([H])[H])C([H])([H])[H])C([H])([H])c2c([H])c(OC([H])(F)C([H])([H])N([H])c3nc(C([H])([H])N([H])C(=O)N4C([H])([H])C([H])([H])C([H])([H])C([H])(n5nc(-c6c([H])c([H])c(Oc7c([H])c([H])c(F)c([H])c7F)c([H])c6[H])c(C(=O)N([H])[H])c5N([H])[H])C4([H])[H])c(F)c(F)c3[H])c([H])c([H])c2C1([H])[H]

>  <smiles>  (77) 
[H]c1c([H])c([H])c2c(c1[H])C([H])([H])C([H])([H])C([H])([H])C2([H])N([H])C(=O)C1([H])N(C(=O)C([H])(N([H])C(=O)C([H])(N([H])C([H])([H])[H])C([H])([H])[H])C(C([H])([H])[H])(C([H])([H])[H])C([H])([H])[H])C([H])([H])c2c([H])c(OC([H])(F)C([H])([H])N([H])c3nc(C([H])([H])N([H])C(=O)N4C([H])([H])C([H])([H])C([H])([H])C([H])(n5nc(-c6c([H])c([H])c(Oc7c([H])c([H])c(F)c([H])c7F)c([H])c6[H])c(C(=O)N([H])[H])c5N([H])[H])C4([H])[H])c(F)c(F)c3[H])c([H])c([H])c2C1([H])[H]

$$$$
78:0:0
     RDKit          3D

 97105  0  0  1  0  0  0  0  0999 V2000
  -29.4260  -20.3520   19.8520 N   0  0  0  0  0  0  0  0  0  0  0  0
  -28.7310  -20.0600   19.1710 H   0  0  0  0  0  0  0  0  0  0  0  0
  -30.0530  -18.0310   20.0800 C   0  0  0  0  0  3  0  0  0  0  0  0
  -31.4260  -17.1940   21.9100 C   0  0  0  0  0  3  0  0  0  0  0  0
  -30.7690  -19.5580   21.8390 C   0  0  0  0  0  0  0  0  0  0  0  0
  -30.6810  -16.9520   20.7440 C   0  0  0  0  0  0  0  0  0  0  0  0
  -30.1130  -19.3530   20.5860 C   0  0  0  0  0  0  0  0  0  0  0  0
  -31.4550  -18.4870   22.4640 C   0  0  0  0  0  0  0  0  0  0  0  0
  -32.0930  -18.6660   23.6430 F   0  0  0  0  0  0  0  0  0  0  0  0
  -31.1820  -14.5680   20.1570 C   0  0  0  0  0  0  0  0  0  0  0  0
  -30.8560  -12.3540   19.1240 C   0  0  0  0  0  2  0  0  0  0  0  0
  -29.9070  -12.5170   17.9170 C   0  0  0  0  0  2  0  0  0  0  0  0
  -28.4260  -12.4610   18.3410 C   0  0  0  0  0  2  0  0  0  0  0  0
  -28.1150  -13.3760   19.5570 C   0  0  0  0  0  3  0  0  0  0  0  0
  -29.1640  -13.1730   20.6780 C   0  0  0  0  0  2  0  0  0  0  0  0
  -30.5000  -13.3970   20.0930 N   0  0  0  0  0  0  0  0  0  0  0  0
  -32.3540  -14.7020   19.8000 O   0  0  0  0  0  0  0  0  0  0  0  0
  -30.3720  -15.6210   20.3600 N   0  0  0  0  0  0  0  0  0  0  0  0
  -29.3930  -15.3800   20.3830 H   0  0  0  0  0  0  0  0  0  0  0  0
  -25.7600  -14.1230   20.2840 C   0  0  0  0  0  0  0  0  0  0  0  0
  -24.6540  -13.4160   20.6640 C   0  0  0  0  0  0  0  0  0  0  0  0
  -25.0320  -12.0410   20.6260 C   0  0  0  0  0  0  0  0  0  0  0  0
  -26.7510  -13.1850   20.0460 N   0  0  0  0  0  0  0  0  0  0  0  0
  -26.3170  -11.9270   20.3110 N   0  0  0  0  0  0  0  0  0  0  0  0
  -24.2350  -10.8240   20.8220 C   0  0  0  0  0  0  0  0  0  0  0  0
  -24.6080   -9.8410   21.7670 C   0  0  0  0  0  3  0  0  0  0  0  0
  -23.8140   -8.6880   21.9480 C   0  0  0  0  0  3  0  0  0  0  0  0
  -22.6360   -8.5110   21.1850 C   0  0  0  0  0  0  0  0  0  0  0  0
  -22.2830   -9.4800   20.2330 C   0  0  0  0  0  3  0  0  0  0  0  0
  -23.0730  -10.6250   20.0500 C   0  0  0  0  0  3  0  0  0  0  0  0
  -21.8180   -7.4120   21.2740 O   0  0  0  0  0  0  0  0  0  0  0  0
  -21.7130   -6.6810   22.4320 C   0  0  0  0  0  0  0  0  0  0  0  0
  -21.2960   -7.2700   23.6450 C   0  0  0  0  0  3  0  0  0  0  0  0
  -21.1330   -6.4720   24.7960 C   0  0  0  0  0  3  0  0  0  0  0  0
  -21.3750   -5.0860   24.7320 C   0  0  0  0  0  0  0  0  0  0  0  0
  -21.7880   -4.4970   23.5230 C   0  0  0  0  0  3  0  0  0  0  0  0
  -21.9520   -5.2930   22.3750 C   0  0  0  0  0  0  0  0  0  0  0  0
  -22.3260   -4.7190   21.2060 F   0  0  0  0  0  0  0  0  0  0  0  0
  -21.2130   -4.3180   25.8320 F   0  0  0  0  0  0  0  0  0  0  0  0
  -23.2890  -13.9740   20.9420 C   0  0  0  0  0  0  0  0  0  0  0  0
  -22.5320  -13.3330   21.8260 N   0  0  0  0  0  0  0  0  0  0  0  0
  -22.9060  -15.0190   20.4170 O   0  0  0  0  0  0  0  0  0  0  0  0
  -22.8530  -12.4880   22.2790 H   0  0  0  0  0  0  0  0  0  0  0  0
  -21.6170  -13.6930   22.0540 H   0  0  0  0  0  0  0  0  0  0  0  0
  -25.9980  -15.4830   20.1070 N   0  0  0  0  0  0  0  0  0  0  0  0
  -25.2550  -16.1650   20.2300 H   0  0  0  0  0  0  0  0  0  0  0  0
  -26.8450  -15.8810   19.7190 H   0  0  0  0  0  0  0  0  0  0  0  0
  -30.6710  -20.8260   22.5990 C   0  0  0  0  0  0  0  0  0  0  0  0
  -29.3240  -21.0830   23.2700 C   0  0  0  0  0  1  0  0  0  0  0  0
  -31.5830  -21.6560   22.6970 O   0  0  0  0  0  0  0  0  0  0  0  0
  -29.9510  -21.7180   19.6250 C   0  0  0  0  0  2  0  0  0  0  0  0
  -28.8770  -22.8200   19.7550 C   0  0  0  0  0  0  0  0  0  0  0  0
  -27.6840  -22.4910   19.8000 O   0  0  0  0  0  0  0  0  0  0  0  0
  -29.2830  -24.3340   19.8320 C   0  0  0  0  0  0  0  0  0  0  0  0
  -30.4450  -24.6990   20.0430 O   0  0  0  0  0  0  0  0  0  0  0  0
  -28.1180  -25.3180   19.6220 C   0  0  0  0  0  2  0  0  0  0  0  0
  -28.3360  -26.6960   20.0200 O   0  0  0  0  0  0  0  0  0  0  0  0
  -24.6060  -31.9130   23.2270 C   0  0  0  0  0  0  0  0  0  0  0  0
  -27.1810  -27.4750   20.0350 C   0  0  0  0  0  0  0  0  0  0  0  0
  -23.3590  -30.5220   21.6170 C   0  0  0  0  0  3  0  0  0  0  0  0
  -24.7840  -29.0090   20.1320 C   0  0  0  0  0  0  0  0  0  0  0  0
  -25.8890  -30.8700   21.3670 C   0  0  0  0  0  2  0  0  0  0  0  0
  -25.9600  -29.5080   20.7020 C   0  0  0  0  0  0  0  0  0  0  0  0
  -27.1600  -28.7500   20.6580 C   0  0  0  0  0  3  0  0  0  0  0  0
  -25.9730  -27.0190   19.4430 C   0  0  0  0  0  3  0  0  0  0  0  0
  -24.7870  -27.7630   19.4980 C   0  0  0  0  0  3  0  0  0  0  0  0
  -23.5350  -29.8550   20.2330 C   0  0  0  0  0  2  0  0  0  0  0  0
  -24.6380  -31.1140   22.1270 N   0  0  0  0  0  0  0  0  0  0  0  0
  -23.5400  -32.1880   23.7950 O   0  0  0  0  0  0  0  0  0  0  0  0
  -22.7400  -29.4890   22.5850 C   0  0  0  0  0  0  0  0  0  0  0  0
  -21.4160  -29.2810   22.4680 N   0  0  0  0  0  0  0  0  0  0  0  0
  -23.4420  -28.8780   23.3920 O   0  0  0  0  0  0  0  0  0  0  0  0
  -20.9040  -29.8330   21.7910 H   0  0  0  0  0  0  0  0  0  0  0  0
  -18.0760  -28.0070   22.9490 C   0  0  0  0  0  0  0  0  0  0  0  0
  -20.6210  -28.3250   23.2390 C   0  0  0  0  0  3  0  0  0  0  0  0
  -20.7680  -26.8940   22.6710 C   0  0  0  0  0  2  0  0  0  0  0  0
  -19.6810  -26.5390   21.6560 C   0  0  0  0  0  2  0  0  0  0  0  0
  -18.2920  -26.6560   22.2900 C   0  0  0  0  0  2  0  0  0  0  0  0
  -19.1730  -28.8010   23.3740 C   0  0  0  0  0  0  0  0  0  0  0  0
  -18.9210  -30.0740   23.9320 C   0  0  0  0  0  3  0  0  0  0  0  0
  -17.6030  -30.5420   24.0960 C   0  0  0  0  0  3  0  0  0  0  0  0
  -16.5170  -29.7420   23.6950 C   0  0  0  0  0  3  0  0  0  0  0  0
  -16.7570  -28.4820   23.1140 C   0  0  0  0  0  3  0  0  0  0  0  0
  -25.9090  -32.5400   23.8150 C   0  0  0  0  0  3  0  0  0  0  0  0
  -25.6050  -33.9300   24.1680 N   0  0  0  0  0  0  0  0  0  0  0  0
  -25.9200  -34.9940   23.4200 C   0  0  0  0  0  0  0  0  0  0  0  0
  -26.5700  -34.9070   22.3730 O   0  0  0  0  0  0  0  0  0  0  0  0
  -25.0360  -34.0720   24.9900 H   0  0  0  0  0  0  0  0  0  0  0  0
  -24.1860  -36.7820   23.1080 C   0  0  0  0  0  1  0  0  0  0  0  0
  -25.4350  -36.3720   23.9030 C   0  0  0  0  0  3  0  0  0  0  0  0
  -27.5730  -37.2510   24.7270 C   0  0  0  0  0  1  0  0  0  0  0  0
  -26.4640  -37.4270   23.7930 N   0  0  0  0  0  0  0  0  0  0  0  0
  -26.0600  -38.3450   23.9510 H   0  0  0  0  0  0  0  0  0  0  0  0
  -26.4610  -31.7550   25.0640 C   0  0  1  0  0  0  0  0  0  0  0  0
  -25.3880  -31.5030   26.1500 C   0  0  0  0  0  1  0  0  0  0  0  0
  -27.0500  -30.3870   24.6430 C   0  0  0  0  0  1  0  0  0  0  0  0
  -27.6220  -32.5510   25.7050 C   0  0  0  0  0  1  0  0  0  0  0  0
  1  7  1  0
  2  1  1  0
  3  7  2  0
  3  6  1  0
  4  8  1  0
  5  8  2  0
  5 48  1  0
  6  4  2  0
  7  5  1  0
  8  9  1  0
 10 18  1  0
 11 16  1  0
 12 13  1  0
 12 11  1  0
 14 13  1  0
 14 23  1  0
 14 15  1  0
 16 10  1  0
 16 15  1  0
 17 10  2  0
 18 19  1  0
 18  6  1  0
 20 21  2  0
 21 40  1  0
 22 21  1  0
 22 25  1  0
 23 20  1  0
 23 24  1  0
 24 22  2  0
 25 26  1  0
 26 27  2  0
 28 31  1  0
 28 27  1  0
 29 28  2  0
 30 29  1  0
 30 25  2  0
 31 32  1  0
 32 33  1  0
 33 34  2  0
 35 34  1  0
 35 39  1  0
 36 35  2  0
 37 32  2  0
 37 36  1  0
 38 37  1  0
 40 41  1  0
 41 44  1  0
 41 43  1  0
 42 40  2  0
 45 46  1  0
 45 20  1  0
 47 45  1  0
 48 50  2  0
 48 49  1  0
 51 52  1  0
 51  1  1  0
 52 53  2  0
 52 54  1  0
 54 55  2  0
 56 54  1  0
 56 57  1  0
 57 59  1  0
 58 69  2  0
 59 64  1  0
 60 68  1  0
 60 70  1  0
 61 67  1  0
 61 63  1  0
 62 68  1  0
 63 62  1  0
 64 63  2  0
 65 66  1  0
 65 59  2  0
 66 61  2  0
 67 60  1  0
 68 58  1  0
 70 72  2  0
 71 70  1  0
 73 71  1  0
 74 83  2  0
 74 79  1  0
 75 71  1  0
 75 79  1  0
 76 75  1  0
 77 78  1  0
 77 76  1  0
 78 74  1  0
 79 80  2  0
 80 81  1  0
 82 81  2  0
 83 82  1  0
 84 58  1  0
 84 85  1  0
 84 94  1  0
 85 88  1  0
 86 90  1  0
 86 85  1  0
 87 86  2  0
 90 89  1  0
 92 90  1  0
 92 93  1  0
 92 91  1  0
 94 97  1  1
 94 95  1  0
 96 94  1  0
M  ISO  4  10 100  18 100  56 101  57 101
M  END
>  <TORSDO>  (78) 
F 22

>  <SCORE>  (78) 
-11.570

>  <name>  (78) 
78

>  <ligand_id>  (78) 
78

>  <original_smiles>  (78) 
[H]c1c([H])c([H])c2c(c1[H])C([H])([H])C([H])([H])C([H])([H])C2([H])N([H])C(=O)C1([H])N(C(=O)C([H])(N([H])C(=O)C([H])(N([H])C([H])([H])[H])C([H])([H])[H])C(C([H])([H])[H])(C([H])([H])[H])C([H])([H])[H])C([H])([H])c2c([H])c(OC([H])([H])C(=O)C(=O)C([H])([H])N([H])c3c([H])c(N([H])C(=O)N4C([H])([H])C([H])([H])C([H])([H])C([H])(n5nc(-c6c([H])c([H])c(Oc7c([H])c([H])c(F)c([H])c7F)c([H])c6[H])c(C(=O)N([H])[H])c5N([H])[H])C4([H])[H])c([H])c(F)c3C(=O)C([H])([H])[H])c([H])c([H])c2C1([H])[H]

>  <smiles>  (78) 
[H]c1c([H])c([H])c2c(c1[H])C([H])([H])C([H])([H])C([H])([H])C2([H])N([H])C(=O)C1([H])N(C(=O)C([H])(N([H])C(=O)C([H])(N([H])C([H])([H])[H])C([H])([H])[H])C(C([H])([H])[H])(C([H])([H])[H])C([H])([H])[H])C([H])([H])c2c([H])c(OC([H])([H])C(=O)C(=O)C([H])([H])N([H])c3c([H])c(N([H])C(=O)N4C([H])([H])C([H])([H])C([H])([H])C([H])(n5nc(-c6c([H])c([H])c(Oc7c([H])c([H])c(F)c([H])c7F)c([H])c6[H])c(C(=O)N([H])[H])c5N([H])[H])C4([H])[H])c([H])c(F)c3C(=O)C([H])([H])[H])c([H])c([H])c2C1([H])[H]

$$$$
79:0:0
     RDKit          3D

 95103  0  0  1  0  0  0  0  0999 V2000
  -29.8480  -19.9340   20.6250 C   0  0  0  0  0  3  0  0  0  0  0  0
  -30.2850  -19.7890   18.2650 C   0  0  0  0  0  3  0  0  0  0  0  0
  -30.5180  -18.6970   20.7920 C   0  0  0  0  0  0  0  0  0  0  0  0
  -29.7410  -20.5220   19.3430 C   0  0  0  0  0  0  0  0  0  0  0  0
  -31.0770  -18.0810   19.6390 C   0  0  0  0  0  0  0  0  0  0  0  0
  -30.9320  -18.6120   18.4030 N   0  0  0  0  0  0  0  0  0  0  0  0
  -30.5930  -18.0840   22.1500 C   0  0  0  0  0  0  0  0  0  0  0  0
  -31.1530  -18.9420   23.2810 C   0  0  0  0  0  1  0  0  0  0  0  0
  -30.2400  -16.9300   22.4040 O   0  0  0  0  0  0  0  0  0  0  0  0
  -29.1210  -21.7700   19.1030 N   0  0  0  0  0  0  0  0  0  0  0  0
  -29.1880  -22.1670   18.1660 H   0  0  0  0  0  0  0  0  0  0  0  0
  -28.9710  -22.7780   20.1670 C   0  0  0  0  0  2  0  0  0  0  0  0
  -28.7900  -24.2230   19.6390 C   0  0  0  0  0  0  0  0  0  0  0  0
  -29.0150  -24.4950   18.4520 O   0  0  0  0  0  0  0  0  0  0  0  0
  -28.3330  -25.2980   20.6470 C   0  0  0  0  0  2  0  0  0  0  0  0
  -28.4880  -26.6410   20.1440 O   0  0  0  0  0  0  0  0  0  0  0  0
  -24.5440  -31.7540   23.1600 C   0  0  0  0  0  0  0  0  0  0  0  0
  -27.3210  -27.3700   20.1200 C   0  0  0  0  0  0  0  0  0  0  0  0
  -23.3940  -30.3370   21.4890 C   0  0  0  0  0  3  0  0  0  0  0  0
  -24.9010  -28.8320   20.0870 C   0  0  0  0  0  0  0  0  0  0  0  0
  -25.9150  -30.7440   21.3380 C   0  0  0  0  0  2  0  0  0  0  0  0
  -26.0390  -29.3770   20.6960 C   0  0  0  0  0  0  0  0  0  0  0  0
  -27.2550  -28.6550   20.7050 C   0  0  0  0  0  3  0  0  0  0  0  0
  -26.1690  -26.8380   19.5020 C   0  0  0  0  0  3  0  0  0  0  0  0
  -24.9610  -27.5610   19.4860 C   0  0  0  0  0  3  0  0  0  0  0  0
  -23.6410  -29.6670   20.1120 C   0  0  0  0  0  2  0  0  0  0  0  0
  -24.6350  -30.9590   22.0550 N   0  0  0  0  0  0  0  0  0  0  0  0
  -23.4490  -32.0050   23.6820 O   0  0  0  0  0  0  0  0  0  0  0  0
  -22.7430  -29.3010   22.4340 C   0  0  0  0  0  0  0  0  0  0  0  0
  -21.4320  -29.0680   22.2550 N   0  0  0  0  0  0  0  0  0  0  0  0
  -23.4160  -28.7090   23.2830 O   0  0  0  0  0  0  0  0  0  0  0  0
  -20.9500  -29.6000   21.5440 H   0  0  0  0  0  0  0  0  0  0  0  0
  -18.0970  -27.7210   22.5950 C   0  0  0  0  0  0  0  0  0  0  0  0
  -20.6200  -28.1080   23.0020 C   0  0  0  0  0  3  0  0  0  0  0  0
  -20.8220  -26.6720   22.4660 C   0  0  0  0  0  2  0  0  0  0  0  0
  -19.7960  -26.2760   21.3990 C   0  0  0  0  0  2  0  0  0  0  0  0
  -18.3750  -26.3690   21.9610 C   0  0  0  0  0  2  0  0  0  0  0  0
  -19.1520  -28.5440   23.0690 C   0  0  0  0  0  0  0  0  0  0  0  0
  -18.8410  -29.8080   23.6170 C   0  0  0  0  0  3  0  0  0  0  0  0
  -17.5070  -30.2500   23.6980 C   0  0  0  0  0  3  0  0  0  0  0  0
  -16.4650  -29.4230   23.2420 C   0  0  0  0  0  3  0  0  0  0  0  0
  -16.7600  -28.1610   22.6950 C   0  0  0  0  0  3  0  0  0  0  0  0
  -25.8080  -32.4030   23.8060 C   0  0  0  0  0  3  0  0  0  0  0  0
  -25.4740  -33.7970   24.1270 N   0  0  0  0  0  0  0  0  0  0  0  0
  -25.8040  -34.8510   23.3690 C   0  0  0  0  0  0  0  0  0  0  0  0
  -26.4920  -34.7550   22.3490 O   0  0  0  0  0  0  0  0  0  0  0  0
  -24.8660  -33.9460   24.9190 H   0  0  0  0  0  0  0  0  0  0  0  0
  -24.0520  -36.6130   22.9790 C   0  0  0  0  0  1  0  0  0  0  0  0
  -25.2860  -36.2340   23.8120 C   0  0  0  0  0  3  0  0  0  0  0  0
  -27.3910  -37.1570   24.6760 C   0  0  0  0  0  1  0  0  0  0  0  0
  -26.3030  -37.3030   23.7120 N   0  0  0  0  0  0  0  0  0  0  0  0
  -25.8790  -38.2160   23.8500 H   0  0  0  0  0  0  0  0  0  0  0  0
  -26.3120  -31.6390   25.0920 C   0  0  1  0  0  0  0  0  0  0  0  0
  -25.1930  -31.3460   26.1180 C   0  0  0  0  0  1  0  0  0  0  0  0
  -26.9620  -30.2910   24.7040 C   0  0  0  0  0  1  0  0  0  0  0  0
  -27.4070  -32.4710   25.8010 C   0  0  0  0  0  1  0  0  0  0  0  0
  -32.0060  -16.8600   19.6950 C   0  0  0  0  0  2  0  0  0  0  0  0
  -31.8360  -14.4330   19.1490 C   0  0  0  0  0  0  0  0  0  0  0  0
  -31.4280  -12.0480   18.6520 C   0  0  0  0  0  2  0  0  0  0  0  0
  -30.3640  -11.9060   17.5470 C   0  0  0  0  0  2  0  0  0  0  0  0
  -28.9480  -11.9030   18.1520 C   0  0  0  0  0  2  0  0  0  0  0  0
  -28.7220  -13.0710   19.1490 C   0  0  0  0  0  3  0  0  0  0  0  0
  -29.8880  -13.1740   20.1570 C   0  0  0  0  0  2  0  0  0  0  0  0
  -31.1430  -13.2870   19.3940 N   0  0  0  0  0  0  0  0  0  0  0  0
  -32.8510  -14.4590   18.4500 O   0  0  0  0  0  0  0  0  0  0  0  0
  -31.3410  -15.5520   19.6930 N   0  0  0  0  0  0  0  0  0  0  0  0
  -30.4830  -15.4880   20.2220 H   0  0  0  0  0  0  0  0  0  0  0  0
  -26.6070  -13.9530   20.3220 C   0  0  0  0  0  0  0  0  0  0  0  0
  -25.4860  -13.3180   20.7880 C   0  0  0  0  0  0  0  0  0  0  0  0
  -25.6890  -11.9270   20.5370 C   0  0  0  0  0  0  0  0  0  0  0  0
  -27.4300  -12.9550   19.8250 N   0  0  0  0  0  0  0  0  0  0  0  0
  -26.8890  -11.7230   20.0080 N   0  0  0  0  0  0  0  0  0  0  0  0
  -24.7850  -10.7820   20.7180 C   0  0  0  0  0  0  0  0  0  0  0  0
  -25.1030   -9.7210   21.5950 C   0  0  0  0  0  3  0  0  0  0  0  0
  -24.2100   -8.6420   21.7650 C   0  0  0  0  0  3  0  0  0  0  0  0
  -22.9840   -8.6160   21.0580 C   0  0  0  0  0  0  0  0  0  0  0  0
  -22.6840   -9.6620   20.1700 C   0  0  0  0  0  3  0  0  0  0  0  0
  -23.5760  -10.7330   19.9970 C   0  0  0  0  0  3  0  0  0  0  0  0
  -22.0670   -7.5950   21.1420 O   0  0  0  0  0  0  0  0  0  0  0  0
  -21.8270   -6.9370   22.3220 C   0  0  0  0  0  0  0  0  0  0  0  0
  -21.3490   -7.6120   23.4660 C   0  0  0  0  0  3  0  0  0  0  0  0
  -21.0500   -6.8860   24.6360 C   0  0  0  0  0  3  0  0  0  0  0  0
  -21.2170   -5.4890   24.6630 C   0  0  0  0  0  0  0  0  0  0  0  0
  -21.6870   -4.8150   23.5210 C   0  0  0  0  0  3  0  0  0  0  0  0
  -21.9890   -5.5380   22.3530 C   0  0  0  0  0  0  0  0  0  0  0  0
  -22.4210   -4.8800   21.2500 F   0  0  0  0  0  0  0  0  0  0  0  0
  -20.9220   -4.7910   25.7830 F   0  0  0  0  0  0  0  0  0  0  0  0
  -24.2560  -13.9720   21.3470 C   0  0  0  0  0  0  0  0  0  0  0  0
  -23.5720  -13.3040   22.2710 N   0  0  0  0  0  0  0  0  0  0  0  0
  -23.9200  -15.1040   21.0020 O   0  0  0  0  0  0  0  0  0  0  0  0
  -23.8580  -12.3830   22.5690 H   0  0  0  0  0  0  0  0  0  0  0  0
  -22.7500  -13.7190   22.6840 H   0  0  0  0  0  0  0  0  0  0  0  0
  -26.9850  -15.2900   20.2610 N   0  0  0  0  0  0  0  0  0  0  0  0
  -26.3770  -16.0400   20.5720 H   0  0  0  0  0  0  0  0  0  0  0  0
  -27.8540  -15.6230   19.8640 H   0  0  0  0  0  0  0  0  0  0  0  0
  1  3  1  0
  2  6  2  0
  2  4  1  0
  3  7  1  0
  4  1  2  0
  5 57  1  0
  5  3  2  0
  6  5  1  0
  7  9  2  0
  7  8  1  0
 10  4  1  0
 10 12  1  0
 11 10  1  0
 13 12  1  0
 13 15  1  0
 14 13  2  0
 16 15  1  0
 17 28  2  0
 18 16  1  0
 18 23  1  0
 19 27  1  0
 19 29  1  0
 20 26  1  0
 20 22  1  0
 21 27  1  0
 22 23  2  0
 22 21  1  0
 24 18  2  0
 25 24  1  0
 25 20  2  0
 26 19  1  0
 27 17  1  0
 29 31  2  0
 30 29  1  0
 32 30  1  0
 33 42  2  0
 33 38  1  0
 34 30  1  0
 34 38  1  0
 35 34  1  0
 36 37  1  0
 36 35  1  0
 37 33  1  0
 38 39  2  0
 39 40  1  0
 41 40  2  0
 42 41  1  0
 43 17  1  0
 43 44  1  0
 43 53  1  0
 44 47  1  0
 45 49  1  0
 45 44  1  0
 46 45  2  0
 49 48  1  0
 51 49  1  0
 51 52  1  0
 51 50  1  0
 53 56  1  1
 53 54  1  0
 55 53  1  0
 58 64  1  0
 58 66  1  0
 59 64  1  0
 60 61  1  0
 60 59  1  0
 62 61  1  0
 62 71  1  0
 62 63  1  0
 64 63  1  0
 65 58  2  0
 66 57  1  0
 66 67  1  0
 68 69  2  0
 69 88  1  0
 70 73  1  0
 70 69  1  0
 71 72  1  0
 71 68  1  0
 72 70  2  0
 73 74  1  0
 74 75  2  0
 76 79  1  0
 76 75  1  0
 77 76  2  0
 78 77  1  0
 78 73  2  0
 79 80  1  0
 80 85  2  0
 80 81  1  0
 81 82  2  0
 82 83  1  0
 83 87  1  0
 84 83  2  0
 85 84  1  0
 86 85  1  0
 88 89  1  0
 89 91  1  0
 89 92  1  0
 90 88  2  0
 93 68  1  0
 93 94  1  0
 95 93  1  0
M  ISO  4  15 101  16 101  58 100  66 100
M  END
>  <TORSDO>  (79) 
F 22

>  <SCORE>  (79) 
-11.440

>  <name>  (79) 
79

>  <ligand_id>  (79) 
79

>  <original_smiles>  (79) 
[H]c1nc(C([H])([H])N([H])C(=O)N2C([H])([H])C([H])([H])C([H])([H])C([H])(n3nc(-c4c([H])c([H])c(Oc5c([H])c([H])c(F)c([H])c5F)c([H])c4[H])c(C(=O)N([H])[H])c3N([H])[H])C2([H])[H])c(C(=O)C([H])([H])[H])c([H])c1N([H])C([H])([H])C(=O)C([H])([H])Oc1c([H])c([H])c2c(c1[H])C([H])([H])N(C(=O)C([H])(N([H])C(=O)C([H])(N([H])C([H])([H])[H])C([H])([H])[H])C(C([H])([H])[H])(C([H])([H])[H])C([H])([H])[H])C([H])(C(=O)N([H])C1([H])c3c([H])c([H])c([H])c([H])c3C([H])([H])C([H])([H])C1([H])[H])C2([H])[H]

>  <smiles>  (79) 
[H]c1nc(C([H])([H])N([H])C(=O)N2C([H])([H])C([H])([H])C([H])([H])C([H])(n3nc(-c4c([H])c([H])c(Oc5c([H])c([H])c(F)c([H])c5F)c([H])c4[H])c(C(=O)N([H])[H])c3N([H])[H])C2([H])[H])c(C(=O)C([H])([H])[H])c([H])c1N([H])C([H])([H])C(=O)C([H])([H])Oc1c([H])c([H])c2c(c1[H])C([H])([H])N(C(=O)C([H])(N([H])C(=O)C([H])(N([H])C([H])([H])[H])C([H])([H])[H])C(C([H])([H])[H])(C([H])([H])[H])C([H])([H])[H])C([H])(C(=O)N([H])C1([H])c3c([H])c([H])c([H])c([H])c3C([H])([H])C([H])([H])C1([H])[H])C2([H])[H]

$$$$
80:0:0
     RDKit          3D

 97105  0  0  1  0  0  0  0  0999 V2000
  -29.0790  -22.6340   20.3470 C   0  0  0  0  0  0  0  0  0  0  0  0
  -28.9270  -21.2560   20.6340 N   0  0  0  0  0  0  0  0  0  0  0  0
  -29.9340  -23.0180   19.5490 O   0  0  0  0  0  0  0  0  0  0  0  0
  -27.9790  -21.0260   20.9010 H   0  0  0  0  0  0  0  0  0  0  0  0
  -31.9960  -18.9800   21.2580 C   0  0  0  0  0  3  0  0  0  0  0  0
  -31.5250  -17.6800   21.0070 C   0  0  0  0  0  3  0  0  0  0  0  0
  -31.2030  -20.1460   21.1200 C   0  0  0  0  0  0  0  0  0  0  0  0
  -30.2030  -17.4350   20.5910 C   0  0  0  0  0  0  0  0  0  0  0  0
  -29.8450  -20.0430   20.6660 C   0  0  0  0  0  0  0  0  0  0  0  0
  -29.3780  -18.6530   20.4400 C   0  0  0  0  0  0  0  0  0  0  0  0
  -28.0800  -18.4800   20.0890 F   0  0  0  0  0  0  0  0  0  0  0  0
  -30.4980  -14.8030   20.2090 C   0  0  0  0  0  0  0  0  0  0  0  0
  -30.2710  -12.5170   19.1710 C   0  0  0  0  0  2  0  0  0  0  0  0
  -29.3050  -12.5610   17.9680 C   0  0  0  0  0  2  0  0  0  0  0  0
  -27.8500  -12.3670   18.4370 C   0  0  0  0  0  2  0  0  0  0  0  0
  -27.4970  -13.2490   19.6640 C   0  0  0  0  0  3  0  0  0  0  0  0
  -28.5860  -13.1940   20.7590 C   0  0  0  0  0  2  0  0  0  0  0  0
  -29.8500  -13.5810   20.1230 N   0  0  0  0  0  0  0  0  0  0  0  0
  -31.6860  -14.8430   19.8730 O   0  0  0  0  0  0  0  0  0  0  0  0
  -29.7710  -15.9890   20.4340 N   0  0  0  0  0  0  0  0  0  0  0  0
  -28.7750  -15.8480   20.5120 H   0  0  0  0  0  0  0  0  0  0  0  0
  -25.1280  -13.8170   20.4570 C   0  0  0  0  0  0  0  0  0  0  0  0
  -24.0780  -13.0340   20.8500 C   0  0  0  0  0  0  0  0  0  0  0  0
  -24.5490  -11.6860   20.8030 C   0  0  0  0  0  0  0  0  0  0  0  0
  -26.1710  -12.9460   20.1900 N   0  0  0  0  0  0  0  0  0  0  0  0
  -25.8320  -11.6590   20.4630 N   0  0  0  0  0  0  0  0  0  0  0  0
  -23.8330  -10.4180   21.0040 C   0  0  0  0  0  0  0  0  0  0  0  0
  -24.2840   -9.4530   21.9290 C   0  0  0  0  0  3  0  0  0  0  0  0
  -23.5660   -8.2510   22.1170 C   0  0  0  0  0  3  0  0  0  0  0  0
  -22.3820   -8.0100   21.3810 C   0  0  0  0  0  0  0  0  0  0  0  0
  -21.9510   -8.9640   20.4420 C   0  0  0  0  0  3  0  0  0  0  0  0
  -22.6700  -10.1560   20.2520 C   0  0  0  0  0  3  0  0  0  0  0  0
  -21.6350   -6.8610   21.4810 O   0  0  0  0  0  0  0  0  0  0  0  0
  -21.6100   -6.1150   22.6320 C   0  0  0  0  0  0  0  0  0  0  0  0
  -21.2000   -6.6620   23.8670 C   0  0  0  0  0  3  0  0  0  0  0  0
  -21.1230   -5.8420   25.0100 C   0  0  0  0  0  3  0  0  0  0  0  0
  -21.4470   -4.4750   24.9200 C   0  0  0  0  0  0  0  0  0  0  0  0
  -21.8480   -3.9260   23.6900 C   0  0  0  0  0  3  0  0  0  0  0  0
  -21.9270   -4.7440   22.5490 C   0  0  0  0  0  0  0  0  0  0  0  0
  -22.2960   -4.2050   21.3610 F   0  0  0  0  0  0  0  0  0  0  0  0
  -21.3660   -3.6850   26.0160 F   0  0  0  0  0  0  0  0  0  0  0  0
  -22.6840  -13.5020   21.1540 C   0  0  0  0  0  0  0  0  0  0  0  0
  -21.9780  -12.7960   22.0300 N   0  0  0  0  0  0  0  0  0  0  0  0
  -22.2310  -14.5290   20.6490 O   0  0  0  0  0  0  0  0  0  0  0  0
  -22.3550  -11.9650   22.4580 H   0  0  0  0  0  0  0  0  0  0  0  0
  -21.0430  -13.0930   22.2740 H   0  0  0  0  0  0  0  0  0  0  0  0
  -25.2770  -15.1910   20.2810 N   0  0  0  0  0  0  0  0  0  0  0  0
  -24.5000  -15.8310   20.4060 H   0  0  0  0  0  0  0  0  0  0  0  0
  -26.1030  -15.6440   19.9150 H   0  0  0  0  0  0  0  0  0  0  0  0
  -31.8720  -21.4060   21.5510 C   0  0  0  0  0  3  0  0  0  0  0  0
  -32.6340  -21.5080   22.5600 N   0  0  0  0  0  0  0  0  0  0  0  0
  -32.7190  -20.6260   23.0550 H   0  0  0  0  0  0  0  0  0  0  0  0
  -27.8370  -24.9790   20.9710 C   0  0  0  0  0  3  0  0  0  0  0  0
  -28.1100  -23.5920   21.0310 C   0  0  0  0  0  0  0  0  0  0  0  0
  -27.3590  -22.9750   21.9590 O   0  0  0  0  0  0  0  0  0  0  0  0
  -27.8080  -22.1750   22.1970 H   0  0  0  0  0  0  0  0  0  0  0  0
  -28.2440  -26.1900   20.3080 O   0  0  0  0  0  0  0  0  0  0  0  0
  -24.6280  -31.8370   23.2310 C   0  0  0  0  0  0  0  0  0  0  0  0
  -27.2380  -27.1960   20.2160 C   0  0  0  0  0  0  0  0  0  0  0  0
  -23.4350  -30.4430   21.5810 C   0  0  0  0  0  3  0  0  0  0  0  0
  -24.9000  -28.8820   20.1620 C   0  0  0  0  0  0  0  0  0  0  0  0
  -25.9860  -30.7320   21.4240 C   0  0  0  0  0  2  0  0  0  0  0  0
  -26.0710  -29.3470   20.7790 C   0  0  0  0  0  0  0  0  0  0  0  0
  -27.2450  -28.5170   20.7970 C   0  0  0  0  0  3  0  0  0  0  0  0
  -26.0500  -26.8170   19.5560 C   0  0  0  0  0  3  0  0  0  0  0  0
  -24.8970  -27.6260   19.5370 C   0  0  0  0  0  3  0  0  0  0  0  0
  -23.6650  -29.7690   20.2020 C   0  0  0  0  0  2  0  0  0  0  0  0
  -24.7010  -31.0250   22.1330 N   0  0  0  0  0  0  0  0  0  0  0  0
  -23.5400  -32.1170   23.7570 O   0  0  0  0  0  0  0  0  0  0  0  0
  -22.7590  -29.4300   22.5380 C   0  0  0  0  0  0  0  0  0  0  0  0
  -21.4290  -29.2650   22.4130 N   0  0  0  0  0  0  0  0  0  0  0  0
  -23.4300  -28.7940   23.3530 O   0  0  0  0  0  0  0  0  0  0  0  0
  -20.9440  -29.8350   21.7350 H   0  0  0  0  0  0  0  0  0  0  0  0
  -18.0420  -28.0910   22.9190 C   0  0  0  0  0  0  0  0  0  0  0  0
  -20.6040  -28.3280   23.1810 C   0  0  0  0  0  3  0  0  0  0  0  0
  -20.6890  -26.8980   22.5970 C   0  0  0  0  0  2  0  0  0  0  0  0
  -19.5810  -26.5910   21.5830 C   0  0  0  0  0  2  0  0  0  0  0  0
  -18.2040  -26.7440   22.2330 C   0  0  0  0  0  2  0  0  0  0  0  0
  -19.1690  -28.8420   23.3500 C   0  0  0  0  0  0  0  0  0  0  0  0
  -18.9600  -30.1020   23.9520 C   0  0  0  0  0  3  0  0  0  0  0  0
  -17.6590  -30.6130   24.1250 C   0  0  0  0  0  3  0  0  0  0  0  0
  -16.5480  -29.8600   23.7080 C   0  0  0  0  0  3  0  0  0  0  0  0
  -16.7400  -28.6010   23.1130 C   0  0  0  0  0  3  0  0  0  0  0  0
  -25.9050  -32.4680   23.8670 C   0  0  0  0  0  3  0  0  0  0  0  0
  -26.4060  -31.6990   25.1510 C   0  0  1  0  0  0  0  0  0  0  0  0
  -25.3020  -31.4730   26.2110 C   0  0  0  0  0  1  0  0  0  0  0  0
  -26.9880  -30.3180   24.7690 C   0  0  0  0  0  1  0  0  0  0  0  0
  -27.5550  -32.4920   25.8210 C   0  0  0  0  0  1  0  0  0  0  0  0
  -25.5940  -33.8670   24.1940 N   0  0  0  0  0  0  0  0  0  0  0  0
  -25.9210  -34.9200   23.4320 C   0  0  0  0  0  0  0  0  0  0  0  0
  -26.5860  -34.8150   22.3990 O   0  0  0  0  0  0  0  0  0  0  0  0
  -25.0030  -34.0230   24.9970 H   0  0  0  0  0  0  0  0  0  0  0  0
  -24.1880  -36.7120   23.0910 C   0  0  0  0  0  1  0  0  0  0  0  0
  -25.4360  -36.3100   23.8920 C   0  0  0  0  0  3  0  0  0  0  0  0
  -27.5780  -37.1980   24.7040 C   0  0  0  0  0  1  0  0  0  0  0  0
  -26.4670  -37.3630   23.7700 N   0  0  0  0  0  0  0  0  0  0  0  0
  -26.0610  -38.2830   23.9190 H   0  0  0  0  0  0  0  0  0  0  0  0
  1  2  1  0
  1 54  1  0
  2  9  1  0
  2  4  1  0
  3  1  2  0
  6  5  2  0
  7  5  1  0
  7 50  1  0
  8  6  1  0
  9  7  2  0
 10  8  2  0
 10  9  1  0
 11 10  1  0
 12 20  1  0
 13 18  1  0
 14 15  1  0
 14 13  1  0
 16 15  1  0
 16 25  1  0
 16 17  1  0
 18 12  1  0
 18 17  1  0
 19 12  2  0
 20 21  1  0
 20  8  1  0
 22 23  2  0
 23 42  1  0
 24 23  1  0
 24 27  1  0
 25 22  1  0
 25 26  1  0
 26 24  2  0
 27 28  1  0
 28 29  2  0
 30 33  1  0
 30 29  1  0
 31 30  2  0
 32 31  1  0
 32 27  2  0
 33 34  1  0
 34 35  1  0
 35 36  2  0
 37 36  1  0
 37 41  1  0
 38 37  2  0
 39 34  2  0
 39 38  1  0
 40 39  1  0
 42 43  1  0
 43 46  1  0
 43 45  1  0
 44 42  2  0
 47 48  1  0
 47 22  1  0
 49 47  1  0
 50 51  2  0
 51 52  1  0
 53 54  2  0
 54 55  1  0
 55 56  1  0
 57 53  1  0
 58 69  2  0
 59 57  1  0
 59 64  1  0
 60 68  1  0
 60 70  1  0
 61 67  1  0
 61 63  1  0
 62 68  1  0
 63 64  2  0
 63 62  1  0
 65 59  2  0
 66 65  1  0
 66 61  2  0
 67 60  1  0
 68 58  1  0
 70 72  2  0
 71 70  1  0
 73 71  1  0
 74 83  2  0
 74 79  1  0
 75 71  1  0
 75 79  1  0
 76 75  1  0
 77 78  1  0
 77 76  1  0
 78 74  1  0
 79 80  2  0
 80 81  1  0
 82 81  2  0
 83 82  1  0
 84 58  1  0
 84 89  1  0
 84 85  1  0
 85 88  1  1
 85 86  1  0
 87 85  1  0
 89 92  1  0
 90 94  1  0
 90 89  1  0
 91 90  2  0
 94 93  1  0
 96 94  1  0
 96 97  1  0
 96 95  1  0
M  ISO  4  12 100  20 100  53 101  57 101
M  END
>  <TORSDO>  (80) 
F 20

>  <SCORE>  (80) 
-14.621

>  <name>  (80) 
80

>  <ligand_id>  (80) 
80

>  <original_smiles>  (80) 
[H]N=C([H])c1c([H])c([H])c(N([H])C(=O)N2C([H])([H])C([H])([H])C([H])([H])C([H])(n3nc(-c4c([H])c([H])c(Oc5c([H])c([H])c(F)c([H])c5F)c([H])c4[H])c(C(=O)N([H])[H])c3N([H])[H])C2([H])[H])c(F)c1N([H])C(=O)C(O[H])=C([H])Oc1c([H])c([H])c2c(c1[H])C([H])([H])N(C(=O)C([H])(N([H])C(=O)C([H])(N([H])C([H])([H])[H])C([H])([H])[H])C(C([H])([H])[H])(C([H])([H])[H])C([H])([H])[H])C([H])(C(=O)N([H])C1([H])c3c([H])c([H])c([H])c([H])c3C([H])([H])C([H])([H])C1([H])[H])C2([H])[H]

>  <smiles>  (80) 
[H]N=C([H])c1c([H])c([H])c(N([H])C(=O)N2C([H])([H])C([H])([H])C([H])([H])C([H])(n3nc(-c4c([H])c([H])c(Oc5c([H])c([H])c(F)c([H])c5F)c([H])c4[H])c(C(=O)N([H])[H])c3N([H])[H])C2([H])[H])c(F)c1N([H])C(=O)C(O[H])=C([H])Oc1c([H])c([H])c2c(c1[H])C([H])([H])N(C(=O)C([H])(N([H])C(=O)C([H])(N([H])C([H])([H])[H])C([H])([H])[H])C(C([H])([H])[H])(C([H])([H])[H])C([H])([H])[H])C([H])(C(=O)N([H])C1([H])c3c([H])c([H])c([H])c([H])c3C([H])([H])C([H])([H])C1([H])[H])C2([H])[H]

$$$$
81:0:0
     RDKit          3D

 96104  0  0  1  0  0  0  0  0999 V2000
  -28.9730  -20.7360   19.8360 C   0  0  0  0  0  0  0  0  0  0  0  0
  -28.3830  -23.1260   20.0250 C   0  0  0  0  0  0  0  0  0  0  0  0
  -28.7940  -21.9120   20.5090 N   0  0  0  0  0  0  0  0  0  0  0  0
  -28.5230  -20.5300   18.7020 O   0  0  0  0  0  0  0  0  0  0  0  0
  -28.3460  -23.3950   18.8190 O   0  0  0  0  0  0  0  0  0  0  0  0
  -29.0070  -21.8690   21.4940 H   0  0  0  0  0  0  0  0  0  0  0  0
  -29.3970  -18.2150   20.2570 C   0  0  0  0  0  3  0  0  0  0  0  0
  -31.3390  -17.4490   21.5080 C   0  0  0  0  0  3  0  0  0  0  0  0
  -29.7310  -19.5880   20.5070 C   0  0  0  0  0  0  0  0  0  0  0  0
  -30.1970  -17.1300   20.7400 C   0  0  0  0  0  0  0  0  0  0  0  0
  -31.6700  -18.7910   21.7820 C   0  0  0  0  0  0  0  0  0  0  0  0
  -30.8810  -19.8500   21.2880 C   0  0  0  0  0  0  0  0  0  0  0  0
  -32.7700  -19.0650   22.5240 F   0  0  0  0  0  0  0  0  0  0  0  0
  -31.2630  -21.1250   21.5520 F   0  0  0  0  0  0  0  0  0  0  0  0
  -30.6130  -14.6770   20.2090 C   0  0  0  0  0  0  0  0  0  0  0  0
  -30.3340  -12.4840   19.0880 C   0  0  0  0  0  2  0  0  0  0  0  0
  -29.3430  -12.6490   17.9160 C   0  0  0  0  0  2  0  0  0  0  0  0
  -27.8880  -12.4850   18.4010 C   0  0  0  0  0  2  0  0  0  0  0  0
  -27.5800  -13.3260   19.6680 C   0  0  0  0  0  3  0  0  0  0  0  0
  -28.6800  -13.1460   20.7380 C   0  0  0  0  0  2  0  0  0  0  0  0
  -29.9660  -13.4790   20.1100 N   0  0  0  0  0  0  0  0  0  0  0  0
  -31.7720  -14.8270   19.8120 O   0  0  0  0  0  0  0  0  0  0  0  0
  -29.8270  -15.7470   20.5270 N   0  0  0  0  0  0  0  0  0  0  0  0
  -28.8450  -15.5320   20.6120 H   0  0  0  0  0  0  0  0  0  0  0  0
  -25.2170  -13.9180   20.4860 C   0  0  0  0  0  0  0  0  0  0  0  0
  -24.1650  -13.1380   20.8840 C   0  0  0  0  0  0  0  0  0  0  0  0
  -24.6250  -11.7890   20.8160 C   0  0  0  0  0  0  0  0  0  0  0  0
  -26.2500  -13.0400   20.2000 N   0  0  0  0  0  0  0  0  0  0  0  0
  -25.9020  -11.7540   20.4580 N   0  0  0  0  0  0  0  0  0  0  0  0
  -23.9070  -10.5230   21.0130 C   0  0  0  0  0  0  0  0  0  0  0  0
  -24.3530   -9.5570   21.9410 C   0  0  0  0  0  3  0  0  0  0  0  0
  -23.6350   -8.3550   22.1260 C   0  0  0  0  0  3  0  0  0  0  0  0
  -22.4560   -8.1120   21.3820 C   0  0  0  0  0  0  0  0  0  0  0  0
  -22.0290   -9.0670   20.4430 C   0  0  0  0  0  3  0  0  0  0  0  0
  -22.7480  -10.2600   20.2560 C   0  0  0  0  0  3  0  0  0  0  0  0
  -21.7080   -6.9640   21.4760 O   0  0  0  0  0  0  0  0  0  0  0  0
  -21.6540   -6.2340   22.6360 C   0  0  0  0  0  0  0  0  0  0  0  0
  -21.1700   -6.7860   23.8420 C   0  0  0  0  0  3  0  0  0  0  0  0
  -21.0660   -5.9800   24.9940 C   0  0  0  0  0  3  0  0  0  0  0  0
  -21.4350   -4.6230   24.9400 C   0  0  0  0  0  0  0  0  0  0  0  0
  -21.9120   -4.0700   23.7390 C   0  0  0  0  0  3  0  0  0  0  0  0
  -22.0180   -4.8730   22.5890 C   0  0  0  0  0  0  0  0  0  0  0  0
  -22.4580   -4.3300   21.4280 F   0  0  0  0  0  0  0  0  0  0  0  0
  -21.3280   -3.8470   26.0430 F   0  0  0  0  0  0  0  0  0  0  0  0
  -22.7780  -13.6100   21.2150 C   0  0  0  0  0  0  0  0  0  0  0  0
  -22.0780  -12.8940   22.0870 N   0  0  0  0  0  0  0  0  0  0  0  0
  -22.3250  -14.6490   20.7360 O   0  0  0  0  0  0  0  0  0  0  0  0
  -22.4560  -12.0530   22.4960 H   0  0  0  0  0  0  0  0  0  0  0  0
  -21.1490  -13.1910   22.3510 H   0  0  0  0  0  0  0  0  0  0  0  0
  -25.3720  -15.2910   20.3200 N   0  0  0  0  0  0  0  0  0  0  0  0
  -24.6010  -15.9370   20.4560 H   0  0  0  0  0  0  0  0  0  0  0  0
  -26.1900  -15.7350   19.9240 H   0  0  0  0  0  0  0  0  0  0  0  0
  -27.8810  -24.2250   21.0170 C   0  0  0  0  0  2  0  0  0  0  0  0
  -28.6060  -26.1590   22.5600 C   0  0  0  0  0  1  0  0  0  0  0  0
  -28.6570  -25.6000   21.1260 C   0  0  0  0  0  3  0  0  0  0  0  0
  -28.3990  -26.6860   20.1830 O   0  0  0  0  0  0  0  0  0  0  0  0
  -24.5260  -31.9240   23.2560 C   0  0  0  0  0  0  0  0  0  0  0  0
  -27.2330  -27.4370   20.2550 C   0  0  0  0  0  0  0  0  0  0  0  0
  -23.3560  -30.5150   21.5960 C   0  0  0  0  0  3  0  0  0  0  0  0
  -24.8410  -28.9680   20.2080 C   0  0  0  0  0  0  0  0  0  0  0  0
  -25.8880  -30.8720   21.4430 C   0  0  0  0  0  2  0  0  0  0  0  0
  -25.9900  -29.4920   20.8160 C   0  0  0  0  0  0  0  0  0  0  0  0
  -27.1910  -28.7360   20.8310 C   0  0  0  0  0  3  0  0  0  0  0  0
  -26.0700  -26.9430   19.6330 C   0  0  0  0  0  3  0  0  0  0  0  0
  -24.8780  -27.6950   19.6130 C   0  0  0  0  0  3  0  0  0  0  0  0
  -23.5960  -29.8310   20.2240 C   0  0  0  0  0  2  0  0  0  0  0  0
  -24.6070  -31.1210   22.1560 N   0  0  0  0  0  0  0  0  0  0  0  0
  -23.4340  -32.1930   23.7760 O   0  0  0  0  0  0  0  0  0  0  0  0
  -22.6900  -29.4950   22.5490 C   0  0  0  0  0  0  0  0  0  0  0  0
  -21.3690  -29.3050   22.3980 N   0  0  0  0  0  0  0  0  0  0  0  0
  -23.3610  -28.8760   23.3780 O   0  0  0  0  0  0  0  0  0  0  0  0
  -20.8860  -29.8570   21.7010 H   0  0  0  0  0  0  0  0  0  0  0  0
  -17.9860  -28.1220   22.8680 C   0  0  0  0  0  0  0  0  0  0  0  0
  -20.5440  -28.3630   23.1550 C   0  0  0  0  0  3  0  0  0  0  0  0
  -20.6420  -26.9370   22.5640 C   0  0  0  0  0  2  0  0  0  0  0  0
  -19.5430  -26.6310   21.5420 C   0  0  0  0  0  2  0  0  0  0  0  0
  -18.1590  -26.7780   22.1810 C   0  0  0  0  0  2  0  0  0  0  0  0
  -19.1060  -28.8720   23.3120 C   0  0  0  0  0  0  0  0  0  0  0  0
  -18.8920  -30.1310   23.9140 C   0  0  0  0  0  3  0  0  0  0  0  0
  -17.5890  -30.6380   24.0800 C   0  0  0  0  0  3  0  0  0  0  0  0
  -16.4830  -29.8830   23.6530 C   0  0  0  0  0  3  0  0  0  0  0  0
  -16.6820  -28.6280   23.0520 C   0  0  0  0  0  3  0  0  0  0  0  0
  -25.7980  -32.5630   23.8960 C   0  0  0  0  0  3  0  0  0  0  0  0
  -26.2910  -31.8030   25.1900 C   0  0  1  0  0  0  0  0  0  0  0  0
  -25.1760  -31.5710   26.2350 C   0  0  0  0  0  1  0  0  0  0  0  0
  -26.8870  -30.4250   24.8180 C   0  0  0  0  0  1  0  0  0  0  0  0
  -27.4220  -32.6090   25.8710 C   0  0  0  0  0  1  0  0  0  0  0  0
  -25.4810  -33.9640   24.2060 N   0  0  0  0  0  0  0  0  0  0  0  0
  -25.8350  -35.0090   23.4490 C   0  0  0  0  0  0  0  0  0  0  0  0
  -26.5320  -34.8970   22.4350 O   0  0  0  0  0  0  0  0  0  0  0  0
  -24.8650  -34.1240   24.9900 H   0  0  0  0  0  0  0  0  0  0  0  0
  -24.1310  -36.8090   23.0190 C   0  0  0  0  0  1  0  0  0  0  0  0
  -25.3370  -36.4010   23.8810 C   0  0  0  0  0  3  0  0  0  0  0  0
  -27.4370  -37.2840   24.7970 C   0  0  0  0  0  1  0  0  0  0  0  0
  -26.3770  -37.4500   23.8050 N   0  0  0  0  0  0  0  0  0  0  0  0
  -25.9680  -38.3720   23.9290 H   0  0  0  0  0  0  0  0  0  0  0  0
  1  9  1  0
  1  3  1  0
  2  3  1  0
  2 53  1  0
  3  6  1  0
  4  1  2  0
  5  2  2  0
  7  9  2  0
  7 10  1  0
  8 11  1  0
  9 12  1  0
 10  8  2  0
 11 13  1  0
 12 14  1  0
 12 11  2  0
 15 23  1  0
 16 21  1  0
 17 18  1  0
 17 16  1  0
 19 18  1  0
 19 28  1  0
 19 20  1  0
 21 15  1  0
 21 20  1  0
 22 15  2  0
 23 24  1  0
 23 10  1  0
 25 26  2  0
 26 45  1  0
 27 26  1  0
 27 30  1  0
 28 29  1  0
 28 25  1  0
 29 27  2  0
 30 31  1  0
 31 32  2  0
 33 36  1  0
 33 32  1  0
 34 33  2  0
 35 34  1  0
 35 30  2  0
 36 37  1  0
 37 38  1  0
 38 39  2  0
 40 39  1  0
 40 44  1  0
 41 40  2  0
 42 37  2  0
 42 41  1  0
 43 42  1  0
 45 46  1  0
 46 49  1  0
 46 48  1  0
 47 45  2  0
 50 51  1  0
 50 25  1  0
 52 50  1  0
 53 55  1  0
 55 54  1  0
 56 58  1  0
 56 55  1  0
 57 68  2  0
 58 63  1  0
 59 67  1  0
 59 69  1  0
 60 66  1  0
 60 62  1  0
 61 67  1  0
 62 63  2  0
 62 61  1  0
 64 58  2  0
 65 64  1  0
 65 60  2  0
 66 59  1  0
 67 57  1  0
 69 71  2  0
 70 69  1  0
 72 70  1  0
 73 82  2  0
 73 78  1  0
 74 70  1  0
 74 78  1  0
 75 74  1  0
 76 77  1  0
 76 75  1  0
 77 73  1  0
 78 79  2  0
 79 80  1  0
 81 80  2  0
 82 81  1  0
 83 57  1  0
 83 88  1  0
 83 84  1  0
 84 87  1  1
 84 85  1  0
 86 84  1  0
 88 91  1  0
 89 93  1  0
 89 88  1  0
 90 89  2  0
 93 92  1  0
 95 93  1  0
 95 96  1  0
 95 94  1  0
M  ISO  4  15 100  23 100  55 101  56 101
M  END
>  <TORSDO>  (81) 
F 19

>  <SCORE>  (81) 
-14.622

>  <name>  (81) 
81

>  <ligand_id>  (81) 
81

>  <original_smiles>  (81) 
[H]c1c([H])c([H])c2c(c1[H])C([H])([H])C([H])([H])C([H])([H])C2([H])N([H])C(=O)C1([H])N(C(=O)C([H])(N([H])C(=O)C([H])(N([H])C([H])([H])[H])C([H])([H])[H])C(C([H])([H])[H])(C([H])([H])[H])C([H])([H])[H])C([H])([H])c2c([H])c(OC([H])(C([H])([H])[H])C([H])([H])C(=O)N([H])C(=O)c3c([H])c(N([H])C(=O)N4C([H])([H])C([H])([H])C([H])([H])C([H])(n5nc(-c6c([H])c([H])c(Oc7c([H])c([H])c(F)c([H])c7F)c([H])c6[H])c(C(=O)N([H])[H])c5N([H])[H])C4([H])[H])c([H])c(F)c3F)c([H])c([H])c2C1([H])[H]

>  <smiles>  (81) 
[H]c1c([H])c([H])c2c(c1[H])C([H])([H])C([H])([H])C([H])([H])C2([H])N([H])C(=O)C1([H])N(C(=O)C([H])(N([H])C(=O)C([H])(N([H])C([H])([H])[H])C([H])([H])[H])C(C([H])([H])[H])(C([H])([H])[H])C([H])([H])[H])C([H])([H])c2c([H])c(OC([H])(C([H])([H])[H])C([H])([H])C(=O)N([H])C(=O)c3c([H])c(N([H])C(=O)N4C([H])([H])C([H])([H])C([H])([H])C([H])(n5nc(-c6c([H])c([H])c(Oc7c([H])c([H])c(F)c([H])c7F)c([H])c6[H])c(C(=O)N([H])[H])c5N([H])[H])C4([H])[H])c([H])c(F)c3F)c([H])c([H])c2C1([H])[H]

$$$$
82:0:0
     RDKit          3D

 93101  0  0  1  0  0  0  0  0999 V2000
  -28.4450  -23.7680   19.8300 C   0  0  0  0  0  0  0  0  0  0  0  0
  -28.8870  -22.5530   20.3470 N   0  0  0  0  0  0  0  0  0  0  0  0
  -28.0520  -23.8350   18.6630 O   0  0  0  0  0  0  0  0  0  0  0  0
  -29.2530  -22.6020   21.2870 H   0  0  0  0  0  0  0  0  0  0  0  0
  -29.4690  -25.1260   21.7740 C   0  0  0  0  0  1  0  0  0  0  0  0
  -28.3310  -25.0920   20.7420 C   0  0  0  0  0  3  0  0  0  0  0  0
  -28.3540  -26.4410   20.0880 O   0  0  0  0  0  0  0  0  0  0  0  0
  -24.6190  -31.8770   23.2280 C   0  0  0  0  0  0  0  0  0  0  0  0
  -27.2290  -27.2900   20.1610 C   0  0  0  0  0  0  0  0  0  0  0  0
  -23.4120  -30.4740   21.5970 C   0  0  0  0  0  3  0  0  0  0  0  0
  -24.8590  -28.9080   20.1760 C   0  0  0  0  0  0  0  0  0  0  0  0
  -25.9530  -30.7880   21.4020 C   0  0  0  0  0  2  0  0  0  0  0  0
  -26.0340  -29.4020   20.7570 C   0  0  0  0  0  0  0  0  0  0  0  0
  -27.2250  -28.6080   20.7310 C   0  0  0  0  0  3  0  0  0  0  0  0
  -26.0290  -26.8510   19.5710 C   0  0  0  0  0  3  0  0  0  0  0  0
  -24.8600  -27.6380   19.5740 C   0  0  0  0  0  3  0  0  0  0  0  0
  -23.6200  -29.7840   20.2240 C   0  0  0  0  0  2  0  0  0  0  0  0
  -24.6800  -31.0650   22.1320 N   0  0  0  0  0  0  0  0  0  0  0  0
  -23.5350  -32.1570   23.7640 O   0  0  0  0  0  0  0  0  0  0  0  0
  -22.7480  -29.4650   22.5660 C   0  0  0  0  0  0  0  0  0  0  0  0
  -21.4230  -29.2850   22.4380 N   0  0  0  0  0  0  0  0  0  0  0  0
  -23.4270  -28.8430   23.3880 O   0  0  0  0  0  0  0  0  0  0  0  0
  -20.9320  -29.8380   21.7500 H   0  0  0  0  0  0  0  0  0  0  0  0
  -18.0490  -28.0730   22.9390 C   0  0  0  0  0  0  0  0  0  0  0  0
  -20.6060  -28.3470   23.2120 C   0  0  0  0  0  3  0  0  0  0  0  0
  -20.7160  -26.9140   22.6420 C   0  0  0  0  0  2  0  0  0  0  0  0
  -19.6180  -26.5810   21.6280 C   0  0  0  0  0  2  0  0  0  0  0  0
  -18.2340  -26.7220   22.2680 C   0  0  0  0  0  2  0  0  0  0  0  0
  -19.1630  -28.8430   23.3660 C   0  0  0  0  0  0  0  0  0  0  0  0
  -18.9360  -30.1070   23.9540 C   0  0  0  0  0  3  0  0  0  0  0  0
  -17.6290  -30.6020   24.1140 C   0  0  0  0  0  3  0  0  0  0  0  0
  -16.5300  -29.8290   23.7000 C   0  0  0  0  0  3  0  0  0  0  0  0
  -16.7400  -28.5650   23.1210 C   0  0  0  0  0  3  0  0  0  0  0  0
  -25.9030  -32.5110   23.8490 C   0  0  0  0  0  3  0  0  0  0  0  0
  -26.4210  -31.7420   25.1270 C   0  0  1  0  0  0  0  0  0  0  0  0
  -25.3280  -31.5130   26.1980 C   0  0  0  0  0  1  0  0  0  0  0  0
  -27.0010  -30.3630   24.7420 C   0  0  0  0  0  1  0  0  0  0  0  0
  -27.5750  -32.5360   25.7860 C   0  0  0  0  0  1  0  0  0  0  0  0
  -25.5930  -33.9080   24.1820 N   0  0  0  0  0  0  0  0  0  0  0  0
  -25.9270  -34.9630   23.4260 C   0  0  0  0  0  0  0  0  0  0  0  0
  -26.5930  -34.8610   22.3920 O   0  0  0  0  0  0  0  0  0  0  0  0
  -25.0010  -34.0610   24.9850 H   0  0  0  0  0  0  0  0  0  0  0  0
  -24.1960  -36.7560   23.0860 C   0  0  0  0  0  1  0  0  0  0  0  0
  -25.4420  -36.3510   23.8890 C   0  0  0  0  0  3  0  0  0  0  0  0
  -27.5820  -37.2290   24.7100 C   0  0  0  0  0  1  0  0  0  0  0  0
  -26.4750  -37.4030   23.7730 N   0  0  0  0  0  0  0  0  0  0  0  0
  -26.0740  -38.3240   23.9240 H   0  0  0  0  0  0  0  0  0  0  0  0
  -28.7170  -21.1320   19.7910 C   0  0  0  0  0  2  0  0  0  0  0  0
  -31.9030  -19.1350   20.8380 C   0  0  0  0  0  3  0  0  0  0  0  0
  -30.9960  -20.1770   20.5550 C   0  0  0  0  0  3  0  0  0  0  0  0
  -31.5170  -17.7790   20.8100 C   0  0  0  0  0  3  0  0  0  0  0  0
  -29.6550  -19.9030   20.2120 C   0  0  0  0  0  0  0  0  0  0  0  0
  -30.1960  -17.3920   20.4770 C   0  0  0  0  0  0  0  0  0  0  0  0
  -29.2760  -18.4880   20.1810 C   0  0  0  0  0  0  0  0  0  0  0  0
  -28.0060  -18.1660   19.8360 F   0  0  0  0  0  0  0  0  0  0  0  0
  -30.5940  -14.7870   20.3470 C   0  0  0  0  0  0  0  0  0  0  0  0
  -30.3990  -12.4960   19.3680 C   0  0  0  0  0  2  0  0  0  0  0  0
  -29.4630  -12.5470   18.1400 C   0  0  0  0  0  2  0  0  0  0  0  0
  -27.9910  -12.3840   18.5690 C   0  0  0  0  0  2  0  0  0  0  0  0
  -27.6090  -13.2710   19.7860 C   0  0  0  0  0  3  0  0  0  0  0  0
  -28.6720  -13.2030   20.9040 C   0  0  0  0  0  2  0  0  0  0  0  0
  -29.9600  -13.5630   20.2970 N   0  0  0  0  0  0  0  0  0  0  0  0
  -31.7890  -14.8490   20.0500 O   0  0  0  0  0  0  0  0  0  0  0  0
  -29.8220  -15.9420   20.4840 N   0  0  0  0  0  0  0  0  0  0  0  0
  -28.8320  -15.7770   20.5730 H   0  0  0  0  0  0  0  0  0  0  0  0
  -25.2150  -13.8430   20.5110 C   0  0  0  0  0  0  0  0  0  0  0  0
  -24.1520  -13.0640   20.8820 C   0  0  0  0  0  0  0  0  0  0  0  0
  -24.6260  -11.7150   20.8580 C   0  0  0  0  0  0  0  0  0  0  0  0
  -26.2660  -12.9720   20.2760 N   0  0  0  0  0  0  0  0  0  0  0  0
  -25.9180  -11.6860   20.5490 N   0  0  0  0  0  0  0  0  0  0  0  0
  -23.9060  -10.4480   21.0560 C   0  0  0  0  0  0  0  0  0  0  0  0
  -24.3500   -9.4810   21.9850 C   0  0  0  0  0  3  0  0  0  0  0  0
  -23.6280   -8.2830   22.1700 C   0  0  0  0  0  3  0  0  0  0  0  0
  -22.4510   -8.0380   21.4220 C   0  0  0  0  0  0  0  0  0  0  0  0
  -22.0250   -8.9940   20.4860 C   0  0  0  0  0  3  0  0  0  0  0  0
  -22.7480  -10.1850   20.2990 C   0  0  0  0  0  3  0  0  0  0  0  0
  -21.7020   -6.8890   21.5150 O   0  0  0  0  0  0  0  0  0  0  0  0
  -21.6760   -6.1370   22.6630 C   0  0  0  0  0  0  0  0  0  0  0  0
  -21.2740   -6.6840   23.9010 C   0  0  0  0  0  3  0  0  0  0  0  0
  -21.1940   -5.8610   25.0420 C   0  0  0  0  0  3  0  0  0  0  0  0
  -21.5060   -4.4910   24.9460 C   0  0  0  0  0  0  0  0  0  0  0  0
  -21.9030   -3.9440   23.7140 C   0  0  0  0  0  3  0  0  0  0  0  0
  -21.9840   -4.7640   22.5740 C   0  0  0  0  0  0  0  0  0  0  0  0
  -22.3460   -4.2280   21.3850 F   0  0  0  0  0  0  0  0  0  0  0  0
  -21.4210   -3.6980   26.0400 F   0  0  0  0  0  0  0  0  0  0  0  0
  -22.7520  -13.5350   21.1450 C   0  0  0  0  0  0  0  0  0  0  0  0
  -22.0200  -12.8420   22.0130 N   0  0  0  0  0  0  0  0  0  0  0  0
  -22.3110  -14.5520   20.6150 O   0  0  0  0  0  0  0  0  0  0  0  0
  -22.3870  -12.0210   22.4670 H   0  0  0  0  0  0  0  0  0  0  0  0
  -21.0840  -13.1480   22.2300 H   0  0  0  0  0  0  0  0  0  0  0  0
  -25.3670  -15.2160   20.3320 N   0  0  0  0  0  0  0  0  0  0  0  0
  -24.5970  -15.8620   20.4660 H   0  0  0  0  0  0  0  0  0  0  0  0
  -26.1960  -15.6600   19.9550 H   0  0  0  0  0  0  0  0  0  0  0  0
  1  2  1  0
  1  6  1  0
  2  4  1  0
  3  1  2  0
  6  5  1  0
  7  9  1  0
  7  6  1  0
  8 19  2  0
  9 14  1  0
 10 18  1  0
 10 20  1  0
 11 17  1  0
 11 13  1  0
 12 18  1  0
 13 12  1  0
 14 13  2  0
 15 16  1  0
 15  9  2  0
 16 11  2  0
 17 10  1  0
 18  8  1  0
 20 22  2  0
 21 20  1  0
 23 21  1  0
 24 33  2  0
 24 29  1  0
 25 21  1  0
 25 29  1  0
 26 25  1  0
 27 28  1  0
 27 26  1  0
 28 24  1  0
 29 30  2  0
 30 31  1  0
 32 31  2  0
 33 32  1  0
 34  8  1  0
 34 39  1  0
 34 35  1  0
 35 38  1  1
 35 36  1  0
 37 35  1  0
 39 42  1  0
 40 44  1  0
 40 39  1  0
 41 40  2  0
 44 43  1  0
 46 44  1  0
 46 47  1  0
 46 45  1  0
 48 52  1  0
 48  2  1  0
 50 49  2  0
 51 49  1  0
 52 50  1  0
 53 64  1  0
 53 51  2  0
 54 52  2  0
 54 53  1  0
 55 54  1  0
 56 64  1  0
 57 62  1  0
 58 59  1  0
 58 57  1  0
 60 59  1  0
 60 69  1  0
 60 61  1  0
 62 56  1  0
 62 61  1  0
 63 56  2  0
 64 65  1  0
 66 67  2  0
 67 86  1  0
 68 67  1  0
 68 71  1  0
 69 66  1  0
 69 70  1  0
 70 68  2  0
 71 72  1  0
 72 73  2  0
 74 77  1  0
 74 73  1  0
 75 74  2  0
 76 75  1  0
 76 71  2  0
 77 78  1  0
 78 79  1  0
 79 80  2  0
 81 80  1  0
 81 85  1  0
 82 81  2  0
 83 78  2  0
 83 82  1  0
 84 83  1  0
 86 87  1  0
 87 90  1  0
 87 89  1  0
 88 86  2  0
 91 92  1  0
 91 66  1  0
 93 91  1  0
M  ISO  4   6 101   7 101  56 100  64 100
M  END
>  <TORSDO>  (82) 
F 19

>  <SCORE>  (82) 
-14.487

>  <name>  (82) 
82

>  <ligand_id>  (82) 
82

>  <original_smiles>  (82) 
[H]c1c([H])c(N([H])C(=O)N2C([H])([H])C([H])([H])C([H])([H])C([H])(n3nc(-c4c([H])c([H])c(Oc5c([H])c([H])c(F)c([H])c5F)c([H])c4[H])c(C(=O)N([H])[H])c3N([H])[H])C2([H])[H])c(F)c(C([H])([H])N([H])C(=O)C([H])(Oc2c([H])c([H])c3c(c2[H])C([H])([H])N(C(=O)C([H])(N([H])C(=O)C([H])(N([H])C([H])([H])[H])C([H])([H])[H])C(C([H])([H])[H])(C([H])([H])[H])C([H])([H])[H])C([H])(C(=O)N([H])C2([H])c4c([H])c([H])c([H])c([H])c4C([H])([H])C([H])([H])C2([H])[H])C3([H])[H])C([H])([H])[H])c1[H]

>  <smiles>  (82) 
[H]c1c([H])c(N([H])C(=O)N2C([H])([H])C([H])([H])C([H])([H])C([H])(n3nc(-c4c([H])c([H])c(Oc5c([H])c([H])c(F)c([H])c5F)c([H])c4[H])c(C(=O)N([H])[H])c3N([H])[H])C2([H])[H])c(F)c(C([H])([H])N([H])C(=O)C([H])(Oc2c([H])c([H])c3c(c2[H])C([H])([H])N(C(=O)C([H])(N([H])C(=O)C([H])(N([H])C([H])([H])[H])C([H])([H])[H])C(C([H])([H])[H])(C([H])([H])[H])C([H])([H])[H])C([H])(C(=O)N([H])C2([H])c4c([H])c([H])c([H])c([H])c4C([H])([H])C([H])([H])C2([H])[H])C3([H])[H])C([H])([H])[H])c1[H]

$$$$
83:0:0
     RDKit          3D

 95103  0  0  1  0  0  0  0  0999 V2000
  -28.5640  -21.6270   20.2840 N   0  0  0  0  0  4  0  0  0  0  0  0
  -27.8820  -21.1630   20.8590 H   0  0  0  0  0  0  0  0  0  0  0  0
  -28.0560  -22.0220   19.5030 H   0  0  0  0  0  0  0  0  0  0  0  0
  -28.8510  -22.8140   22.4660 C   0  0  0  0  0  1  0  0  0  0  0  0
  -29.0880  -22.8670   20.9430 C   0  0  0  0  0  3  0  0  0  0  0  0
  -28.3760  -24.1060   20.2850 C   0  0  0  0  0  0  0  0  0  0  0  0
  -27.7400  -23.9800   19.2330 O   0  0  0  0  0  0  0  0  0  0  0  0
  -28.4710  -25.5060   20.9760 C   0  0  0  0  0  2  0  0  0  0  0  0
  -28.3830  -26.6440   20.0750 O   0  0  0  0  0  0  0  0  0  0  0  0
  -24.6230  -31.8830   23.2290 C   0  0  0  0  0  0  0  0  0  0  0  0
  -27.2280  -27.4050   20.1370 C   0  0  0  0  0  0  0  0  0  0  0  0
  -23.4010  -30.4830   21.5970 C   0  0  0  0  0  3  0  0  0  0  0  0
  -24.8420  -28.9380   20.1610 C   0  0  0  0  0  0  0  0  0  0  0  0
  -25.9280  -30.8320   21.3770 C   0  0  0  0  0  2  0  0  0  0  0  0
  -26.0080  -29.4560   20.7390 C   0  0  0  0  0  0  0  0  0  0  0  0
  -27.2080  -28.6990   20.7190 C   0  0  0  0  0  3  0  0  0  0  0  0
  -26.0450  -26.9090   19.5530 C   0  0  0  0  0  3  0  0  0  0  0  0
  -24.8570  -27.6660   19.5640 C   0  0  0  0  0  3  0  0  0  0  0  0
  -23.6000  -29.8010   20.2160 C   0  0  0  0  0  2  0  0  0  0  0  0
  -24.6700  -31.0810   22.1260 N   0  0  0  0  0  0  0  0  0  0  0  0
  -23.5470  -32.1560   23.7780 O   0  0  0  0  0  0  0  0  0  0  0  0
  -22.7560  -29.4630   22.5630 C   0  0  0  0  0  0  0  0  0  0  0  0
  -21.4300  -29.2810   22.4450 N   0  0  0  0  0  0  0  0  0  0  0  0
  -23.4450  -28.8400   23.3750 O   0  0  0  0  0  0  0  0  0  0  0  0
  -20.9350  -29.8360   21.7610 H   0  0  0  0  0  0  0  0  0  0  0  0
  -18.0640  -28.0670   22.9530 C   0  0  0  0  0  0  0  0  0  0  0  0
  -20.6210  -28.3420   23.2210 C   0  0  0  0  0  3  0  0  0  0  0  0
  -20.7310  -26.9080   22.6510 C   0  0  0  0  0  2  0  0  0  0  0  0
  -19.6300  -26.5740   21.6400 C   0  0  0  0  0  2  0  0  0  0  0  0
  -18.2480  -26.7140   22.2840 C   0  0  0  0  0  2  0  0  0  0  0  0
  -19.1790  -28.8370   23.3770 C   0  0  0  0  0  0  0  0  0  0  0  0
  -18.9540  -30.1020   23.9630 C   0  0  0  0  0  3  0  0  0  0  0  0
  -17.6460  -30.5980   24.1270 C   0  0  0  0  0  3  0  0  0  0  0  0
  -16.5460  -29.8240   23.7190 C   0  0  0  0  0  3  0  0  0  0  0  0
  -16.7550  -28.5600   23.1390 C   0  0  0  0  0  3  0  0  0  0  0  0
  -25.9140  -32.5130   23.8370 C   0  0  0  0  0  3  0  0  0  0  0  0
  -25.6070  -33.9080   24.1810 N   0  0  0  0  0  0  0  0  0  0  0  0
  -25.9250  -34.9670   23.4230 C   0  0  0  0  0  0  0  0  0  0  0  0
  -26.5810  -34.8720   22.3820 O   0  0  0  0  0  0  0  0  0  0  0  0
  -25.0200  -34.0550   24.9890 H   0  0  0  0  0  0  0  0  0  0  0  0
  -24.1830  -36.7540   23.1130 C   0  0  0  0  0  1  0  0  0  0  0  0
  -25.4420  -36.3500   23.8980 C   0  0  0  0  0  3  0  0  0  0  0  0
  -27.5890  -37.2370   24.6900 C   0  0  0  0  0  1  0  0  0  0  0  0
  -26.4670  -37.4080   23.7710 N   0  0  0  0  0  0  0  0  0  0  0  0
  -26.0610  -38.3250   23.9330 H   0  0  0  0  0  0  0  0  0  0  0  0
  -26.4520  -31.7340   25.0990 C   0  0  1  0  0  0  0  0  0  0  0  0
  -25.3750  -31.4890   26.1820 C   0  0  0  0  0  1  0  0  0  0  0  0
  -27.0280  -30.3590   24.6880 C   0  0  0  0  0  1  0  0  0  0  0  0
  -27.6110  -32.5240   25.7500 C   0  0  0  0  0  1  0  0  0  0  0  0
  -29.5210  -20.6410   19.6860 C   0  0  0  0  0  2  0  0  0  0  0  0
  -31.2020  -17.2460   21.9070 C   0  0  0  0  0  3  0  0  0  0  0  0
  -31.5830  -18.5700   22.2010 C   0  0  0  0  0  3  0  0  0  0  0  0
  -29.6010  -18.0950   20.2760 C   0  0  0  0  0  3  0  0  0  0  0  0
  -30.0070  -19.4420   20.5410 C   0  0  0  0  0  0  0  0  0  0  0  0
  -30.2160  -16.9840   20.9320 C   0  0  0  0  0  0  0  0  0  0  0  0
  -31.0060  -19.6560   21.5150 C   0  0  0  0  0  0  0  0  0  0  0  0
  -31.4330  -20.9130   21.7760 F   0  0  0  0  0  0  0  0  0  0  0  0
  -30.5870  -14.5620   20.3390 C   0  0  0  0  0  0  0  0  0  0  0  0
  -30.3010  -12.3800   19.2030 C   0  0  0  0  0  2  0  0  0  0  0  0
  -29.3270  -12.5570   18.0190 C   0  0  0  0  0  2  0  0  0  0  0  0
  -27.8630  -12.4080   18.4840 C   0  0  0  0  0  2  0  0  0  0  0  0
  -27.5470  -13.2500   19.7500 C   0  0  0  0  0  3  0  0  0  0  0  0
  -28.6300  -13.0510   20.8330 C   0  0  0  0  0  2  0  0  0  0  0  0
  -29.9300  -13.3730   20.2250 N   0  0  0  0  0  0  0  0  0  0  0  0
  -31.7470  -14.7110   19.9430 O   0  0  0  0  0  0  0  0  0  0  0  0
  -29.8110  -15.6260   20.6760 N   0  0  0  0  0  0  0  0  0  0  0  0
  -28.8250  -15.4310   20.7550 H   0  0  0  0  0  0  0  0  0  0  0  0
  -25.1710  -13.8560   20.5230 C   0  0  0  0  0  0  0  0  0  0  0  0
  -24.1110  -13.0830   20.9130 C   0  0  0  0  0  0  0  0  0  0  0  0
  -24.5690  -11.7310   20.8650 C   0  0  0  0  0  0  0  0  0  0  0  0
  -26.2080  -12.9740   20.2620 N   0  0  0  0  0  0  0  0  0  0  0  0
  -25.8510  -11.6910   20.5270 N   0  0  0  0  0  0  0  0  0  0  0  0
  -23.8440  -10.4700   21.0620 C   0  0  0  0  0  0  0  0  0  0  0  0
  -24.3070   -9.4860   21.9650 C   0  0  0  0  0  3  0  0  0  0  0  0
  -23.5820   -8.2890   22.1520 C   0  0  0  0  0  3  0  0  0  0  0  0
  -22.3820   -8.0670   21.4350 C   0  0  0  0  0  0  0  0  0  0  0  0
  -21.9390   -9.0390   20.5210 C   0  0  0  0  0  3  0  0  0  0  0  0
  -22.6640  -10.2270   20.3330 C   0  0  0  0  0  3  0  0  0  0  0  0
  -21.6250   -6.9240   21.5330 O   0  0  0  0  0  0  0  0  0  0  0  0
  -21.6310   -6.1530   22.6680 C   0  0  0  0  0  0  0  0  0  0  0  0
  -21.2850   -6.6820   23.9300 C   0  0  0  0  0  3  0  0  0  0  0  0
  -21.2360   -5.8390   25.0590 C   0  0  0  0  0  3  0  0  0  0  0  0
  -21.5220   -4.4680   24.9260 C   0  0  0  0  0  0  0  0  0  0  0  0
  -21.8620   -3.9370   23.6690 C   0  0  0  0  0  3  0  0  0  0  0  0
  -21.9130   -4.7780   22.5420 C   0  0  0  0  0  0  0  0  0  0  0  0
  -22.2200   -4.2580   21.3290 F   0  0  0  0  0  0  0  0  0  0  0  0
  -21.4680   -3.6550   26.0070 F   0  0  0  0  0  0  0  0  0  0  0  0
  -22.7200  -13.5620   21.2170 C   0  0  0  0  0  0  0  0  0  0  0  0
  -22.0100  -12.8620   22.0960 N   0  0  0  0  0  0  0  0  0  0  0  0
  -22.2730  -14.5910   20.7120 O   0  0  0  0  0  0  0  0  0  0  0  0
  -22.3850  -12.0300   22.5250 H   0  0  0  0  0  0  0  0  0  0  0  0
  -21.0790  -13.1650   22.3430 H   0  0  0  0  0  0  0  0  0  0  0  0
  -25.3320  -15.2270   20.3450 N   0  0  0  0  0  0  0  0  0  0  0  0
  -24.5630  -15.8760   20.4670 H   0  0  0  0  0  0  0  0  0  0  0  0
  -26.1600  -15.6670   19.9640 H   0  0  0  0  0  0  0  0  0  0  0  0
  1  2  1  0
  1  5  1  0
  3  1  1  0
  5  4  1  0
  6  5  1  0
  6  8  1  0
  7  6  2  0
  9 11  1  0
  9  8  1  0
 10 21  2  0
 11 16  1  0
 12 20  1  0
 12 22  1  0
 13 19  1  0
 13 15  1  0
 14 20  1  0
 15 14  1  0
 16 15  2  0
 17 18  1  0
 17 11  2  0
 18 13  2  0
 19 12  1  0
 20 10  1  0
 22 24  2  0
 23 22  1  0
 25 23  1  0
 26 35  2  0
 26 31  1  0
 27 23  1  0
 27 31  1  0
 28 27  1  0
 29 30  1  0
 29 28  1  0
 30 26  1  0
 31 32  2  0
 32 33  1  0
 34 33  2  0
 35 34  1  0
 36 10  1  0
 36 37  1  0
 36 46  1  0
 37 40  1  0
 38 42  1  0
 38 37  1  0
 39 38  2  0
 42 41  1  0
 44 42  1  0
 44 45  1  0
 44 43  1  0
 46 49  1  1
 46 47  1  0
 48 46  1  0
 50  1  1  0
 50 54  1  0
 51 52  1  0
 53 54  2  0
 53 55  1  0
 54 56  1  0
 55 51  2  0
 56 57  1  0
 56 52  2  0
 58 66  1  0
 59 64  1  0
 60 61  1  0
 60 59  1  0
 62 61  1  0
 62 71  1  0
 62 63  1  0
 64 58  1  0
 64 63  1  0
 65 58  2  0
 66 67  1  0
 66 55  1  0
 68 69  2  0
 69 88  1  0
 70 69  1  0
 70 73  1  0
 71 68  1  0
 71 72  1  0
 72 70  2  0
 73 74  1  0
 74 75  2  0
 76 79  1  0
 76 75  1  0
 77 76  2  0
 78 77  1  0
 78 73  2  0
 79 80  1  0
 80 81  1  0
 81 82  2  0
 83 82  1  0
 83 87  1  0
 84 83  2  0
 85 80  2  0
 85 84  1  0
 86 85  1  0
 88 89  1  0
 89 92  1  0
 89 91  1  0
 90 88  2  0
 93 94  1  0
 93 68  1  0
 95 93  1  0
M  ISO  4   8 101   9 101  58 100  66 100
M  END
>  <TORSDO>  (83) 
F 21

>  <SCORE>  (83) 
-13.499

>  <name>  (83) 
83

>  <ligand_id>  (83) 
83

>  <original_smiles>  (83) 
[H]c1c([H])c([H])c2c(c1[H])C([H])([H])C([H])([H])C([H])([H])C2([H])N([H])C(=O)C1([H])N(C(=O)C([H])(N([H])C(=O)C([H])(N([H])C([H])([H])[H])C([H])([H])[H])C(C([H])([H])[H])(C([H])([H])[H])C([H])([H])[H])C([H])([H])c2c([H])c(OC([H])([H])C(=O)C([H])(C([H])([H])[H])[N+]([H])([H])C([H])([H])c3c([H])c(N([H])C(=O)N4C([H])([H])C([H])([H])C([H])([H])C([H])(n5nc(-c6c([H])c([H])c(Oc7c([H])c([H])c(F)c([H])c7F)c([H])c6[H])c(C(=O)N([H])[H])c5N([H])[H])C4([H])[H])c([H])c([H])c3F)c([H])c([H])c2C1([H])[H]

>  <smiles>  (83) 
[H]c1c([H])c([H])c2c(c1[H])C([H])([H])C([H])([H])C([H])([H])C2([H])N([H])C(=O)C1([H])N(C(=O)C([H])(N([H])C(=O)C([H])(N([H])C([H])([H])[H])C([H])([H])[H])C(C([H])([H])[H])(C([H])([H])[H])C([H])([H])[H])C([H])([H])c2c([H])c(OC([H])([H])C(=O)C([H])(C([H])([H])[H])[N+]([H])([H])C([H])([H])c3c([H])c(N([H])C(=O)N4C([H])([H])C([H])([H])C([H])([H])C([H])(n5nc(-c6c([H])c([H])c(Oc7c([H])c([H])c(F)c([H])c7F)c([H])c6[H])c(C(=O)N([H])[H])c5N([H])[H])C4([H])[H])c([H])c([H])c3F)c([H])c([H])c2C1([H])[H]

$$$$
84:0:0
     RDKit          3D

 94102  0  0  1  0  0  0  0  0999 V2000
  -28.7120  -22.4620   19.6330 C   0  0  0  0  0  0  0  0  0  0  0  0
  -29.0410  -21.2950   20.3400 N   0  0  0  0  0  0  0  0  0  0  0  0
  -28.4780  -22.3840   18.4250 O   0  0  0  0  0  0  0  0  0  0  0  0
  -29.0170  -21.4150   21.3440 H   0  0  0  0  0  0  0  0  0  0  0  0
  -29.3990  -18.6420   20.4890 C   0  0  0  0  0  3  0  0  0  0  0  0
  -30.3300  -19.9600   18.6690 C   0  0  0  0  0  3  0  0  0  0  0  0
  -30.7740  -17.5450   18.8090 C   0  0  0  0  0  3  0  0  0  0  0  0
  -29.5440  -19.9600   19.8450 C   0  0  0  0  0  0  0  0  0  0  0  0
  -30.0070  -17.3950   19.9880 C   0  0  0  0  0  0  0  0  0  0  0  0
  -30.9300  -18.7890   18.1670 C   0  0  0  0  0  0  0  0  0  0  0  0
  -31.6760  -18.8620   17.0390 F   0  0  0  0  0  0  0  0  0  0  0  0
  -30.5890  -14.8330   20.3220 C   0  0  0  0  0  0  0  0  0  0  0  0
  -30.3930  -12.5320   19.3600 C   0  0  0  0  0  2  0  0  0  0  0  0
  -29.4620  -12.5860   18.1280 C   0  0  0  0  0  2  0  0  0  0  0  0
  -27.9940  -12.4090   18.5540 C   0  0  0  0  0  2  0  0  0  0  0  0
  -27.6120  -13.3060   19.7600 C   0  0  0  0  0  3  0  0  0  0  0  0
  -28.6660  -13.2440   20.8860 C   0  0  0  0  0  2  0  0  0  0  0  0
  -29.9620  -13.6010   20.2960 N   0  0  0  0  0  0  0  0  0  0  0  0
  -31.7800  -14.8940   20.0050 O   0  0  0  0  0  0  0  0  0  0  0  0
  -29.8410  -16.0010   20.5400 N   0  0  0  0  0  0  0  0  0  0  0  0
  -28.9590  -15.8320   21.0010 H   0  0  0  0  0  0  0  0  0  0  0  0
  -25.2270  -13.8990   20.4860 C   0  0  0  0  0  0  0  0  0  0  0  0
  -24.1600  -13.1250   20.8540 C   0  0  0  0  0  0  0  0  0  0  0  0
  -24.6210  -11.7740   20.8260 C   0  0  0  0  0  0  0  0  0  0  0  0
  -26.2690  -13.0180   20.2500 N   0  0  0  0  0  0  0  0  0  0  0  0
  -25.9120  -11.7350   20.5220 N   0  0  0  0  0  0  0  0  0  0  0  0
  -23.8920  -10.5120   21.0150 C   0  0  0  0  0  0  0  0  0  0  0  0
  -24.3200   -9.5450   21.9510 C   0  0  0  0  0  3  0  0  0  0  0  0
  -23.5910   -8.3500   22.1290 C   0  0  0  0  0  3  0  0  0  0  0  0
  -22.4190   -8.1130   21.3690 C   0  0  0  0  0  0  0  0  0  0  0  0
  -22.0110   -9.0690   20.4230 C   0  0  0  0  0  3  0  0  0  0  0  0
  -22.7400  -10.2560   20.2430 C   0  0  0  0  0  3  0  0  0  0  0  0
  -21.6620   -6.9700   21.4560 O   0  0  0  0  0  0  0  0  0  0  0  0
  -21.6070   -6.2290   22.6090 C   0  0  0  0  0  0  0  0  0  0  0  0
  -21.1710   -6.7860   23.8310 C   0  0  0  0  0  3  0  0  0  0  0  0
  -21.0630   -5.9720   24.9760 C   0  0  0  0  0  3  0  0  0  0  0  0
  -21.3790   -4.6020   24.9000 C   0  0  0  0  0  0  0  0  0  0  0  0
  -21.8070   -4.0440   23.6820 C   0  0  0  0  0  3  0  0  0  0  0  0
  -21.9170   -4.8560   22.5380 C   0  0  0  0  0  0  0  0  0  0  0  0
  -22.3090   -4.3100   21.3620 F   0  0  0  0  0  0  0  0  0  0  0  0
  -21.2680   -3.8170   25.9970 F   0  0  0  0  0  0  0  0  0  0  0  0
  -22.7620  -13.6050   21.1200 C   0  0  0  0  0  0  0  0  0  0  0  0
  -22.0290  -12.9100   21.9830 N   0  0  0  0  0  0  0  0  0  0  0  0
  -22.3300  -14.6320   20.5990 O   0  0  0  0  0  0  0  0  0  0  0  0
  -22.3930  -12.0790   22.4260 H   0  0  0  0  0  0  0  0  0  0  0  0
  -21.0910  -13.2130   22.2040 H   0  0  0  0  0  0  0  0  0  0  0  0
  -25.3930  -15.2690   20.3060 N   0  0  0  0  0  0  0  0  0  0  0  0
  -24.6230  -15.9220   20.4060 H   0  0  0  0  0  0  0  0  0  0  0  0
  -26.2340  -15.7040   19.9520 H   0  0  0  0  0  0  0  0  0  0  0  0
  -28.2680  -25.0060   19.7310 C   0  0  0  0  0  3  0  0  0  0  0  0
  -28.6250  -23.8040   20.3560 C   0  0  0  0  0  0  0  0  0  0  0  0
  -28.9380  -23.8300   21.6570 O   0  0  0  0  0  0  0  0  0  0  0  0
  -28.8500  -24.7310   21.9410 H   0  0  0  0  0  0  0  0  0  0  0  0
  -28.2730  -26.3450   20.2560 O   0  0  0  0  0  0  0  0  0  0  0  0
  -24.6030  -31.8740   23.2400 C   0  0  0  0  0  0  0  0  0  0  0  0
  -27.1820  -27.2520   20.1620 C   0  0  0  0  0  0  0  0  0  0  0  0
  -23.3910  -30.4800   21.6060 C   0  0  0  0  0  3  0  0  0  0  0  0
  -24.8310  -28.9210   20.1640 C   0  0  0  0  0  0  0  0  0  0  0  0
  -25.9350  -30.7730   21.4160 C   0  0  0  0  0  2  0  0  0  0  0  0
  -26.0060  -29.3920   20.7600 C   0  0  0  0  0  0  0  0  0  0  0  0
  -27.1810  -28.5670   20.7500 C   0  0  0  0  0  3  0  0  0  0  0  0
  -25.9790  -26.8540   19.5380 C   0  0  0  0  0  3  0  0  0  0  0  0
  -24.8230  -27.6620   19.5430 C   0  0  0  0  0  3  0  0  0  0  0  0
  -23.6000  -29.8060   20.2230 C   0  0  0  0  0  2  0  0  0  0  0  0
  -24.6630  -31.0630   22.1420 N   0  0  0  0  0  0  0  0  0  0  0  0
  -23.5210  -32.1540   23.7790 O   0  0  0  0  0  0  0  0  0  0  0  0
  -22.7290  -29.4650   22.5700 C   0  0  0  0  0  0  0  0  0  0  0  0
  -21.4020  -29.2880   22.4480 N   0  0  0  0  0  0  0  0  0  0  0  0
  -23.4100  -28.8410   23.3890 O   0  0  0  0  0  0  0  0  0  0  0  0
  -20.9120  -29.8450   21.7630 H   0  0  0  0  0  0  0  0  0  0  0  0
  -18.0290  -28.0780   22.9580 C   0  0  0  0  0  0  0  0  0  0  0  0
  -20.5870  -28.3510   23.2230 C   0  0  0  0  0  3  0  0  0  0  0  0
  -20.6930  -26.9160   22.6530 C   0  0  0  0  0  2  0  0  0  0  0  0
  -19.5920  -26.5860   21.6410 C   0  0  0  0  0  2  0  0  0  0  0  0
  -18.2100  -26.7280   22.2860 C   0  0  0  0  0  2  0  0  0  0  0  0
  -19.1440  -28.8460   23.3840 C   0  0  0  0  0  0  0  0  0  0  0  0
  -18.9190  -30.1100   23.9730 C   0  0  0  0  0  3  0  0  0  0  0  0
  -17.6130  -30.6030   24.1430 C   0  0  0  0  0  3  0  0  0  0  0  0
  -16.5110  -29.8330   23.7300 C   0  0  0  0  0  3  0  0  0  0  0  0
  -16.7210  -28.5720   23.1440 C   0  0  0  0  0  3  0  0  0  0  0  0
  -25.8880  -32.5060   23.8580 C   0  0  0  0  0  3  0  0  0  0  0  0
  -26.4080  -31.7370   25.1350 C   0  0  1  0  0  0  0  0  0  0  0  0
  -25.3210  -31.5060   26.2100 C   0  0  0  0  0  1  0  0  0  0  0  0
  -26.9870  -30.3560   24.7490 C   0  0  0  0  0  1  0  0  0  0  0  0
  -27.5630  -32.5310   25.7910 C   0  0  0  0  0  1  0  0  0  0  0  0
  -25.5790  -33.9050   24.1920 N   0  0  0  0  0  0  0  0  0  0  0  0
  -25.9020  -34.9620   23.4340 C   0  0  0  0  0  0  0  0  0  0  0  0
  -26.5610  -34.8610   22.3940 O   0  0  0  0  0  0  0  0  0  0  0  0
  -24.9940  -34.0590   25.0000 H   0  0  0  0  0  0  0  0  0  0  0  0
  -24.1700  -36.7550   23.1070 C   0  0  0  0  0  1  0  0  0  0  0  0
  -25.4220  -36.3490   23.9000 C   0  0  0  0  0  3  0  0  0  0  0  0
  -27.5650  -37.2360   24.7050 C   0  0  0  0  0  1  0  0  0  0  0  0
  -26.4530  -37.4020   23.7730 N   0  0  0  0  0  0  0  0  0  0  0  0
  -26.0470  -38.3220   23.9230 H   0  0  0  0  0  0  0  0  0  0  0  0
  1  2  1  0
  1 51  1  0
  2  4  1  0
  3  1  2  0
  6  8  1  0
  7  9  2  0
  8  2  1  0
  8  5  2  0
  9  5  1  0
  9 20  1  0
 10  6  2  0
 10  7  1  0
 11 10  1  0
 12 20  1  0
 13 18  1  0
 14 15  1  0
 14 13  1  0
 16 15  1  0
 16 25  1  0
 16 17  1  0
 18 12  1  0
 18 17  1  0
 19 12  2  0
 20 21  1  0
 22 23  2  0
 23 42  1  0
 24 23  1  0
 24 27  1  0
 25 22  1  0
 25 26  1  0
 26 24  2  0
 27 28  1  0
 28 29  2  0
 30 33  1  0
 30 29  1  0
 31 30  2  0
 32 31  1  0
 32 27  2  0
 33 34  1  0
 34 35  1  0
 35 36  2  0
 37 36  1  0
 37 41  1  0
 38 37  2  0
 39 34  2  0
 39 38  1  0
 40 39  1  0
 42 43  1  0
 43 46  1  0
 43 45  1  0
 44 42  2  0
 47 48  1  0
 47 22  1  0
 49 47  1  0
 50 54  1  0
 50 51  2  0
 51 52  1  0
 52 53  1  0
 55 66  2  0
 56 54  1  0
 56 61  1  0
 57 65  1  0
 57 67  1  0
 58 64  1  0
 58 60  1  0
 59 65  1  0
 60 59  1  0
 61 60  2  0
 62 63  1  0
 62 56  2  0
 63 58  2  0
 64 57  1  0
 65 55  1  0
 67 69  2  0
 68 67  1  0
 70 68  1  0
 71 80  2  0
 71 76  1  0
 72 68  1  0
 72 76  1  0
 73 72  1  0
 74 75  1  0
 74 73  1  0
 75 71  1  0
 76 77  2  0
 77 78  1  0
 79 78  2  0
 80 79  1  0
 81 55  1  0
 81 86  1  0
 81 82  1  0
 82 85  1  1
 82 83  1  0
 84 82  1  0
 86 89  1  0
 87 91  1  0
 87 86  1  0
 88 87  2  0
 91 90  1  0
 93 91  1  0
 93 94  1  0
 93 92  1  0
M  ISO  4  12 100  20 100  50 101  54 101
M  END
>  <TORSDO>  (84) 
F 19

>  <SCORE>  (84) 
-14.521

>  <name>  (84) 
84

>  <ligand_id>  (84) 
84

>  <original_smiles>  (84) 
[H]OC(C(=O)N([H])c1c([H])c(F)c([H])c(N([H])C(=O)N2C([H])([H])C([H])([H])C([H])([H])C([H])(n3nc(-c4c([H])c([H])c(Oc5c([H])c([H])c(F)c([H])c5F)c([H])c4[H])c(C(=O)N([H])[H])c3N([H])[H])C2([H])[H])c1[H])=C([H])Oc1c([H])c([H])c2c(c1[H])C([H])([H])N(C(=O)C([H])(N([H])C(=O)C([H])(N([H])C([H])([H])[H])C([H])([H])[H])C(C([H])([H])[H])(C([H])([H])[H])C([H])([H])[H])C([H])(C(=O)N([H])C1([H])c3c([H])c([H])c([H])c([H])c3C([H])([H])C([H])([H])C1([H])[H])C2([H])[H]

>  <smiles>  (84) 
[H]OC(C(=O)N([H])c1c([H])c(F)c([H])c(N([H])C(=O)N2C([H])([H])C([H])([H])C([H])([H])C([H])(n3nc(-c4c([H])c([H])c(Oc5c([H])c([H])c(F)c([H])c5F)c([H])c4[H])c(C(=O)N([H])[H])c3N([H])[H])C2([H])[H])c1[H])=C([H])Oc1c([H])c([H])c2c(c1[H])C([H])([H])N(C(=O)C([H])(N([H])C(=O)C([H])(N([H])C([H])([H])[H])C([H])([H])[H])C(C([H])([H])[H])(C([H])([H])[H])C([H])([H])[H])C([H])(C(=O)N([H])C1([H])c3c([H])c([H])c([H])c([H])c3C([H])([H])C([H])([H])C1([H])[H])C2([H])[H]

$$$$
85:0:0
     RDKit          3D

 94102  0  0  1  0  0  0  0  0999 V2000
  -28.7520  -18.0240   20.8570 C   0  0  0  0  0  3  0  0  0  0  0  0
  -29.8790  -17.3100   20.3400 C   0  0  0  0  0  0  0  0  0  0  0  0
  -29.5690  -20.1590   20.2430 C   0  0  0  0  0  0  0  0  0  0  0  0
  -30.7060  -19.4540   19.7280 C   0  0  0  0  0  0  0  0  0  0  0  0
  -28.6350  -22.5970   20.4870 C   0  0  0  0  0  0  0  0  0  0  0  0
  -28.5940  -19.3890   20.8150 N   0  0  0  0  0  0  0  0  0  0  0  0
  -30.8560  -18.0810   19.7730 N   0  0  0  0  0  0  0  0  0  0  0  0
  -29.5470  -21.6330   20.1140 N   0  0  0  0  0  0  0  0  0  0  0  0
  -27.5860  -22.2880   21.0570 O   0  0  0  0  0  0  0  0  0  0  0  0
  -31.7030  -20.1690   19.1530 F   0  0  0  0  0  0  0  0  0  0  0  0
  -30.3620  -22.0200   19.6570 H   0  0  0  0  0  0  0  0  0  0  0  0
  -30.6500  -14.8000   20.0120 C   0  0  0  0  0  0  0  0  0  0  0  0
  -30.4250  -12.5620   18.9220 C   0  0  0  0  0  2  0  0  0  0  0  0
  -29.4110  -12.6860   17.7620 C   0  0  0  0  0  2  0  0  0  0  0  0
  -27.9670  -12.4970   18.2690 C   0  0  0  0  0  2  0  0  0  0  0  0
  -27.6680  -13.3340   19.5400 C   0  0  0  0  0  3  0  0  0  0  0  0
  -28.7880  -13.1750   20.5930 C   0  0  0  0  0  2  0  0  0  0  0  0
  -30.0560  -13.5590   19.9520 N   0  0  0  0  0  0  0  0  0  0  0  0
  -31.7890  -14.9670   19.5640 O   0  0  0  0  0  0  0  0  0  0  0  0
  -29.8490  -15.8360   20.4520 N   0  0  0  0  0  0  0  0  0  0  0  0
  -28.9920  -15.4890   20.8520 H   0  0  0  0  0  0  0  0  0  0  0  0
  -25.3190  -13.9030   20.4090 C   0  0  0  0  0  0  0  0  0  0  0  0
  -24.2780  -13.1170   20.8210 C   0  0  0  0  0  0  0  0  0  0  0  0
  -24.7410  -11.7690   20.7300 C   0  0  0  0  0  0  0  0  0  0  0  0
  -26.3500  -13.0330   20.0930 N   0  0  0  0  0  0  0  0  0  0  0  0
  -26.0110  -11.7430   20.3470 N   0  0  0  0  0  0  0  0  0  0  0  0
  -24.0290  -10.4990   20.9280 C   0  0  0  0  0  0  0  0  0  0  0  0
  -24.4610   -9.5520   21.8830 C   0  0  0  0  0  3  0  0  0  0  0  0
  -23.7480   -8.3470   22.0670 C   0  0  0  0  0  3  0  0  0  0  0  0
  -22.5910   -8.0810   21.2980 C   0  0  0  0  0  0  0  0  0  0  0  0
  -22.1790   -9.0170   20.3340 C   0  0  0  0  0  3  0  0  0  0  0  0
  -22.8920  -10.2130   20.1470 C   0  0  0  0  0  3  0  0  0  0  0  0
  -21.8520   -6.9280   21.3920 O   0  0  0  0  0  0  0  0  0  0  0  0
  -21.7130   -6.2550   22.5800 C   0  0  0  0  0  0  0  0  0  0  0  0
  -21.0910   -6.8460   23.7010 C   0  0  0  0  0  3  0  0  0  0  0  0
  -20.9080   -6.0950   24.8800 C   0  0  0  0  0  3  0  0  0  0  0  0
  -21.3350   -4.7560   24.9370 C   0  0  0  0  0  0  0  0  0  0  0  0
  -21.9500   -4.1650   23.8190 C   0  0  0  0  0  3  0  0  0  0  0  0
  -22.1350   -4.9120   22.6430 C   0  0  0  0  0  0  0  0  0  0  0  0
  -22.7080   -4.3310   21.5610 F   0  0  0  0  0  0  0  0  0  0  0  0
  -21.1520   -4.0320   26.0660 F   0  0  0  0  0  0  0  0  0  0  0  0
  -22.8960  -13.5820   21.1810 C   0  0  0  0  0  0  0  0  0  0  0  0
  -22.2160  -12.8570   22.0620 N   0  0  0  0  0  0  0  0  0  0  0  0
  -22.4310  -14.6220   20.7180 O   0  0  0  0  0  0  0  0  0  0  0  0
  -22.6060  -12.0150   22.4580 H   0  0  0  0  0  0  0  0  0  0  0  0
  -21.2910  -13.1490   22.3460 H   0  0  0  0  0  0  0  0  0  0  0  0
  -25.4680  -15.2780   20.2540 N   0  0  0  0  0  0  0  0  0  0  0  0
  -24.6920  -15.9150   20.3990 H   0  0  0  0  0  0  0  0  0  0  0  0
  -26.2570  -15.7180   19.7980 H   0  0  0  0  0  0  0  0  0  0  0  0
  -28.1510  -25.0950   20.4470 C   0  0  0  0  0  3  0  0  0  0  0  0
  -28.9890  -24.0300   20.1630 C   0  0  0  0  0  0  0  0  0  0  0  0
  -30.1670  -24.2740   19.5700 O   0  0  0  0  0  0  0  0  0  0  0  0
  -30.2190  -25.2140   19.4440 H   0  0  0  0  0  0  0  0  0  0  0  0
  -28.3680  -26.4810   20.1970 O   0  0  0  0  0  0  0  0  0  0  0  0
  -24.6410  -31.9210   23.2400 C   0  0  0  0  0  0  0  0  0  0  0  0
  -27.2630  -27.3570   20.1790 C   0  0  0  0  0  0  0  0  0  0  0  0
  -23.4390  -30.5140   21.6050 C   0  0  0  0  0  3  0  0  0  0  0  0
  -24.8920  -28.9700   20.1720 C   0  0  0  0  0  0  0  0  0  0  0  0
  -25.9760  -30.8420   21.4130 C   0  0  0  0  0  2  0  0  0  0  0  0
  -26.0610  -29.4610   20.7680 C   0  0  0  0  0  0  0  0  0  0  0  0
  -27.2500  -28.6650   20.7640 C   0  0  0  0  0  3  0  0  0  0  0  0
  -26.0740  -26.9300   19.5480 C   0  0  0  0  0  3  0  0  0  0  0  0
  -24.9020  -27.7100   19.5530 C   0  0  0  0  0  3  0  0  0  0  0  0
  -23.6510  -29.8390   20.2250 C   0  0  0  0  0  2  0  0  0  0  0  0
  -24.7040  -31.1110   22.1430 N   0  0  0  0  0  0  0  0  0  0  0  0
  -23.5580  -32.1920   23.7790 O   0  0  0  0  0  0  0  0  0  0  0  0
  -22.7840  -29.4950   22.5700 C   0  0  0  0  0  0  0  0  0  0  0  0
  -21.4620  -29.2950   22.4350 N   0  0  0  0  0  0  0  0  0  0  0  0
  -23.4660  -28.8880   23.3990 O   0  0  0  0  0  0  0  0  0  0  0  0
  -20.9700  -29.8380   21.7390 H   0  0  0  0  0  0  0  0  0  0  0  0
  -18.0950  -28.0750   22.9490 C   0  0  0  0  0  0  0  0  0  0  0  0
  -20.6520  -28.3510   23.2070 C   0  0  0  0  0  3  0  0  0  0  0  0
  -20.7620  -26.9210   22.6290 C   0  0  0  0  0  2  0  0  0  0  0  0
  -19.6570  -26.5930   21.6190 C   0  0  0  0  0  2  0  0  0  0  0  0
  -18.2770  -26.7280   22.2700 C   0  0  0  0  0  2  0  0  0  0  0  0
  -19.2100  -28.8440   23.3740 C   0  0  0  0  0  0  0  0  0  0  0  0
  -18.9840  -30.1040   23.9700 C   0  0  0  0  0  3  0  0  0  0  0  0
  -17.6770  -30.5950   24.1430 C   0  0  0  0  0  3  0  0  0  0  0  0
  -16.5760  -29.8240   23.7330 C   0  0  0  0  0  3  0  0  0  0  0  0
  -16.7870  -28.5650   23.1410 C   0  0  0  0  0  3  0  0  0  0  0  0
  -25.9230  -32.5600   23.8560 C   0  0  0  0  0  3  0  0  0  0  0  0
  -25.6070  -33.9570   24.1870 N   0  0  0  0  0  0  0  0  0  0  0  0
  -25.9200  -35.0120   23.4230 C   0  0  0  0  0  0  0  0  0  0  0  0
  -26.5760  -34.9120   22.3820 O   0  0  0  0  0  0  0  0  0  0  0  0
  -25.0220  -34.1090   24.9970 H   0  0  0  0  0  0  0  0  0  0  0  0
  -24.1840  -36.8010   23.0820 C   0  0  0  0  0  1  0  0  0  0  0  0
  -25.4310  -36.3990   23.8870 C   0  0  0  0  0  3  0  0  0  0  0  0
  -27.5540  -37.3020   24.7260 C   0  0  0  0  0  1  0  0  0  0  0  0
  -26.4590  -37.4550   23.7710 N   0  0  0  0  0  0  0  0  0  0  0  0
  -26.0470  -38.3750   23.9050 H   0  0  0  0  0  0  0  0  0  0  0  0
  -26.4490  -31.7940   25.1310 C   0  0  1  0  0  0  0  0  0  0  0  0
  -25.3570  -31.5370   26.1960 C   0  0  0  0  0  1  0  0  0  0  0  0
  -27.0530  -30.4250   24.7380 C   0  0  0  0  0  1  0  0  0  0  0  0
  -27.5860  -32.6030   25.7980 C   0  0  0  0  0  1  0  0  0  0  0  0
  2 20  1  0
  2  1  2  0
  3  6  2  0
  4  7  2  0
  4  3  1  0
  5  9  2  0
  6  1  1  0
  7  2  1  0
  8  3  1  0
  8  5  1  0
 10  4  1  0
 11  8  1  0
 12 20  1  0
 13 18  1  0
 14 15  1  0
 14 13  1  0
 16 15  1  0
 16 25  1  0
 16 17  1  0
 18 12  1  0
 18 17  1  0
 19 12  2  0
 20 21  1  0
 22 23  2  0
 23 42  1  0
 24 23  1  0
 24 27  1  0
 25 26  1  0
 25 22  1  0
 26 24  2  0
 27 28  1  0
 28 29  2  0
 30 33  1  0
 30 29  1  0
 31 30  2  0
 32 31  1  0
 32 27  2  0
 33 34  1  0
 34 39  2  0
 34 35  1  0
 35 36  2  0
 36 37  1  0
 37 41  1  0
 38 37  2  0
 39 38  1  0
 40 39  1  0
 42 43  1  0
 43 46  1  0
 43 45  1  0
 44 42  2  0
 47 48  1  0
 47 22  1  0
 49 47  1  0
 51 50  2  0
 51  5  1  0
 52 51  1  0
 53 52  1  0
 54 50  1  0
 55 66  2  0
 56 54  1  0
 56 61  1  0
 57 65  1  0
 57 67  1  0
 58 64  1  0
 58 60  1  0
 59 65  1  0
 60 59  1  0
 61 60  2  0
 62 63  1  0
 62 56  2  0
 63 58  2  0
 64 57  1  0
 65 55  1  0
 67 69  2  0
 68 67  1  0
 70 68  1  0
 71 80  2  0
 71 76  1  0
 72 68  1  0
 72 76  1  0
 73 72  1  0
 74 75  1  0
 74 73  1  0
 75 71  1  0
 76 77  2  0
 77 78  1  0
 79 78  2  0
 80 79  1  0
 81 55  1  0
 81 82  1  0
 81 91  1  0
 82 85  1  0
 83 87  1  0
 83 82  1  0
 84 83  2  0
 87 86  1  0
 89 87  1  0
 89 90  1  0
 89 88  1  0
 91 94  1  1
 91 92  1  0
 93 91  1  0
M  ISO  4  12 100  20 100  50 101  54 101
M  END
>  <TORSDO>  (85) 
F 18

>  <SCORE>  (85) 
-14.620

>  <name>  (85) 
85

>  <ligand_id>  (85) 
85

>  <original_smiles>  (85) 
[H]OC(C(=O)N([H])c1nc([H])c(N([H])C(=O)N2C([H])([H])C([H])([H])C([H])([H])C([H])(n3nc(-c4c([H])c([H])c(Oc5c([H])c([H])c(F)c([H])c5F)c([H])c4[H])c(C(=O)N([H])[H])c3N([H])[H])C2([H])[H])nc1F)=C([H])Oc1c([H])c([H])c2c(c1[H])C([H])([H])N(C(=O)C([H])(N([H])C(=O)C([H])(N([H])C([H])([H])[H])C([H])([H])[H])C(C([H])([H])[H])(C([H])([H])[H])C([H])([H])[H])C([H])(C(=O)N([H])C1([H])c3c([H])c([H])c([H])c([H])c3C([H])([H])C([H])([H])C1([H])[H])C2([H])[H]

>  <smiles>  (85) 
[H]OC(C(=O)N([H])c1nc([H])c(N([H])C(=O)N2C([H])([H])C([H])([H])C([H])([H])C([H])(n3nc(-c4c([H])c([H])c(Oc5c([H])c([H])c(F)c([H])c5F)c([H])c4[H])c(C(=O)N([H])[H])c3N([H])[H])C2([H])[H])nc1F)=C([H])Oc1c([H])c([H])c2c(c1[H])C([H])([H])N(C(=O)C([H])(N([H])C(=O)C([H])(N([H])C([H])([H])[H])C([H])([H])[H])C(C([H])([H])[H])(C([H])([H])[H])C([H])([H])[H])C([H])(C(=O)N([H])C1([H])c3c([H])c([H])c([H])c([H])c3C([H])([H])C([H])([H])C1([H])[H])C2([H])[H]

$$$$
86:0:0
     RDKit          3D

 96104  0  0  1  0  0  0  0  0999 V2000
  -30.0400  -21.8330   19.9780 C   0  0  0  0  0  3  0  0  0  0  0  0
  -30.2740  -17.8450   21.3030 C   0  0  0  0  0  3  0  0  0  0  0  0
  -29.1610  -18.3240   18.8260 C   0  0  0  0  0  0  0  0  0  0  0  0
  -29.8330  -16.7430   20.5490 C   0  0  0  0  0  0  0  0  0  0  0  0
  -29.2690  -16.9960   19.2830 C   0  0  0  0  0  0  0  0  0  0  0  0
  -29.6570  -19.3570   19.6490 C   0  0  0  0  0  0  0  0  0  0  0  0
  -28.4910  -18.6120   17.4850 C   0  0  0  0  0  1  0  0  0  0  0  0
  -30.1950  -19.1210   20.8640 N   0  0  0  0  0  0  0  0  0  0  0  0
  -29.5580  -20.6820   19.2120 N   0  0  0  0  0  0  0  0  0  0  0  0
  -28.8030  -15.9750   18.5260 F   0  0  0  0  0  0  0  0  0  0  0  0
  -29.4190  -20.8310   18.2200 H   0  0  0  0  0  0  0  0  0  0  0  0
  -30.6070  -14.4520   20.4780 C   0  0  0  0  0  0  0  0  0  0  0  0
  -30.3330  -12.2930   19.3370 C   0  0  0  0  0  2  0  0  0  0  0  0
  -29.3890  -12.5020   18.1350 C   0  0  0  0  0  2  0  0  0  0  0  0
  -27.9140  -12.3650   18.5630 C   0  0  0  0  0  2  0  0  0  0  0  0
  -27.5750  -13.2020   19.8270 C   0  0  0  0  0  3  0  0  0  0  0  0
  -28.6290  -12.9620   20.9340 C   0  0  0  0  0  2  0  0  0  0  0  0
  -29.9600  -13.2630   20.3750 N   0  0  0  0  0  0  0  0  0  0  0  0
  -31.7130  -14.6790   19.9820 O   0  0  0  0  0  0  0  0  0  0  0  0
  -29.8980  -15.4240   21.0700 N   0  0  0  0  0  0  0  0  0  0  0  0
  -29.0630  -15.1010   21.5350 H   0  0  0  0  0  0  0  0  0  0  0  0
  -25.1770  -13.8170   20.5380 C   0  0  0  0  0  0  0  0  0  0  0  0
  -24.1100  -13.0450   20.9100 C   0  0  0  0  0  0  0  0  0  0  0  0
  -24.5720  -11.6940   20.8790 C   0  0  0  0  0  0  0  0  0  0  0  0
  -26.2210  -12.9350   20.3050 N   0  0  0  0  0  0  0  0  0  0  0  0
  -25.8600  -11.6540   20.5670 N   0  0  0  0  0  0  0  0  0  0  0  0
  -23.8500  -10.4290   21.0690 C   0  0  0  0  0  0  0  0  0  0  0  0
  -24.2930   -9.4610   21.9950 C   0  0  0  0  0  3  0  0  0  0  0  0
  -23.5720   -8.2600   22.1760 C   0  0  0  0  0  3  0  0  0  0  0  0
  -22.3950   -8.0210   21.4270 C   0  0  0  0  0  0  0  0  0  0  0  0
  -21.9710   -8.9810   20.4910 C   0  0  0  0  0  3  0  0  0  0  0  0
  -22.6920  -10.1710   20.3090 C   0  0  0  0  0  3  0  0  0  0  0  0
  -21.6450   -6.8740   21.5160 O   0  0  0  0  0  0  0  0  0  0  0  0
  -21.6110   -6.1240   22.6640 C   0  0  0  0  0  0  0  0  0  0  0  0
  -21.1840   -6.6660   23.8970 C   0  0  0  0  0  3  0  0  0  0  0  0
  -21.0980   -5.8420   25.0360 C   0  0  0  0  0  3  0  0  0  0  0  0
  -21.4290   -4.4770   24.9450 C   0  0  0  0  0  0  0  0  0  0  0  0
  -21.8500   -3.9340   23.7180 C   0  0  0  0  0  3  0  0  0  0  0  0
  -21.9380   -4.7550   22.5800 C   0  0  0  0  0  0  0  0  0  0  0  0
  -22.3240   -4.2240   21.3950 F   0  0  0  0  0  0  0  0  0  0  0  0
  -21.3380   -3.6820   26.0360 F   0  0  0  0  0  0  0  0  0  0  0  0
  -22.7120  -13.5200   21.1840 C   0  0  0  0  0  0  0  0  0  0  0  0
  -21.9880  -12.8200   22.0510 N   0  0  0  0  0  0  0  0  0  0  0  0
  -22.2710  -14.5450   20.6660 O   0  0  0  0  0  0  0  0  0  0  0  0
  -22.3610  -11.9910   22.4920 H   0  0  0  0  0  0  0  0  0  0  0  0
  -21.0510  -13.1210   22.2810 H   0  0  0  0  0  0  0  0  0  0  0  0
  -25.3400  -15.1870   20.3610 N   0  0  0  0  0  0  0  0  0  0  0  0
  -24.5710  -15.8360   20.4850 H   0  0  0  0  0  0  0  0  0  0  0  0
  -26.1770  -15.6280   20.0030 H   0  0  0  0  0  0  0  0  0  0  0  0
  -31.5180  -22.1290   19.6600 C   0  0  0  0  0  0  0  0  0  0  0  0
  -32.3420  -22.8270   20.7340 C   0  0  0  0  0  1  0  0  0  0  0  0
  -32.0470  -21.8430   18.5810 O   0  0  0  0  0  0  0  0  0  0  0  0
  -29.1230  -23.0330   19.6390 C   0  0  0  0  0  2  0  0  0  0  0  0
  -29.3750  -24.4010   20.3120 C   0  0  0  0  0  2  0  0  0  0  0  0
  -28.1790  -25.3120   20.0040 C   0  0  0  0  0  2  0  0  0  0  0  0
  -28.3530  -26.6970   20.3080 O   0  0  0  0  0  0  0  0  0  0  0  0
  -24.6340  -31.9390   23.3330 C   0  0  0  0  0  0  0  0  0  0  0  0
  -27.1990  -27.4600   20.2530 C   0  0  0  0  0  0  0  0  0  0  0  0
  -23.4090  -30.5660   21.6840 C   0  0  0  0  0  3  0  0  0  0  0  0
  -24.8360  -29.0170   20.2560 C   0  0  0  0  0  0  0  0  0  0  0  0
  -25.9410  -30.8810   21.4950 C   0  0  0  0  0  2  0  0  0  0  0  0
  -26.0030  -29.5140   20.8520 C   0  0  0  0  0  0  0  0  0  0  0  0
  -27.1870  -28.7410   20.8510 C   0  0  0  0  0  3  0  0  0  0  0  0
  -26.0120  -26.9940   19.6320 C   0  0  0  0  0  3  0  0  0  0  0  0
  -24.8360  -27.7570   19.6450 C   0  0  0  0  0  3  0  0  0  0  0  0
  -23.6110  -29.8950   20.3010 C   0  0  0  0  0  2  0  0  0  0  0  0
  -24.6790  -31.1420   22.2290 N   0  0  0  0  0  0  0  0  0  0  0  0
  -23.5570  -32.2280   23.8700 O   0  0  0  0  0  0  0  0  0  0  0  0
  -22.7380  -29.5500   22.6360 C   0  0  0  0  0  0  0  0  0  0  0  0
  -21.4120  -29.3870   22.4960 N   0  0  0  0  0  0  0  0  0  0  0  0
  -23.4050  -28.9130   23.4540 O   0  0  0  0  0  0  0  0  0  0  0  0
  -20.9340  -29.9540   21.8090 H   0  0  0  0  0  0  0  0  0  0  0  0
  -18.0170  -28.2460   22.9640 C   0  0  0  0  0  0  0  0  0  0  0  0
  -20.5750  -28.4610   23.2580 C   0  0  0  0  0  3  0  0  0  0  0  0
  -20.6600  -27.0290   22.6790 C   0  0  0  0  0  2  0  0  0  0  0  0
  -19.5620  -26.7260   21.6560 C   0  0  0  0  0  2  0  0  0  0  0  0
  -18.1770  -26.8930   22.2890 C   0  0  0  0  0  2  0  0  0  0  0  0
  -19.1430  -28.9880   23.4050 C   0  0  0  0  0  0  0  0  0  0  0  0
  -18.9400  -30.2560   23.9910 C   0  0  0  0  0  3  0  0  0  0  0  0
  -17.6430  -30.7790   24.1450 C   0  0  0  0  0  3  0  0  0  0  0  0
  -16.5300  -30.0330   23.7220 C   0  0  0  0  0  3  0  0  0  0  0  0
  -16.7170  -28.7690   23.1350 C   0  0  0  0  0  3  0  0  0  0  0  0
  -25.9320  -32.5420   23.9570 C   0  0  0  0  0  3  0  0  0  0  0  0
  -25.6570  -33.9490   24.2760 N   0  0  0  0  0  0  0  0  0  0  0  0
  -26.0070  -34.9840   23.5020 C   0  0  0  0  0  0  0  0  0  0  0  0
  -26.6680  -34.8540   22.4670 O   0  0  0  0  0  0  0  0  0  0  0  0
  -25.0710  -34.1270   25.0790 H   0  0  0  0  0  0  0  0  0  0  0  0
  -24.3130  -36.8070   23.1400 C   0  0  0  0  0  1  0  0  0  0  0  0
  -25.5530  -36.3870   23.9460 C   0  0  0  0  0  3  0  0  0  0  0  0
  -27.7090  -37.2410   24.7480 C   0  0  0  0  0  1  0  0  0  0  0  0
  -26.6030  -37.4170   23.8110 N   0  0  0  0  0  0  0  0  0  0  0  0
  -26.2180  -38.3480   23.9500 H   0  0  0  0  0  0  0  0  0  0  0  0
  -26.4230  -31.7620   25.2390 C   0  0  1  0  0  0  0  0  0  0  0  0
  -25.3200  -31.5600   26.3030 C   0  0  0  0  0  1  0  0  0  0  0  0
  -26.9710  -30.3680   24.8530 C   0  0  0  0  0  1  0  0  0  0  0  0
  -27.5890  -32.5300   25.9040 C   0  0  0  0  0  1  0  0  0  0  0  0
  1 53  1  0
  3  5  2  0
  3  6  1  0
  4 20  1  0
  4  2  2  0
  5  4  1  0
  6  8  2  0
  7  3  1  0
  8  2  1  0
  9  6  1  0
  9  1  1  0
 10  5  1  0
 11  9  1  0
 12 20  1  0
 13 18  1  0
 14 15  1  0
 14 13  1  0
 16 15  1  0
 16 25  1  0
 16 17  1  0
 18 12  1  0
 18 17  1  0
 19 12  2  0
 20 21  1  0
 22 23  2  0
 23 42  1  0
 24 23  1  0
 24 27  1  0
 25 22  1  0
 25 26  1  0
 26 24  2  0
 27 28  1  0
 28 29  2  0
 30 33  1  0
 30 29  1  0
 31 30  2  0
 32 31  1  0
 32 27  2  0
 33 34  1  0
 34 35  1  0
 35 36  2  0
 37 36  1  0
 37 41  1  0
 38 37  2  0
 39 34  2  0
 39 38  1  0
 40 39  1  0
 42 43  1  0
 43 46  1  0
 43 45  1  0
 44 42  2  0
 47 48  1  0
 47 22  1  0
 49 47  1  0
 50  1  1  0
 50 51  1  0
 52 50  2  0
 53 54  1  0
 55 56  1  0
 55 54  1  0
 57 68  2  0
 58 56  1  0
 58 63  1  0
 59 67  1  0
 59 69  1  0
 60 66  1  0
 60 62  1  0
 61 67  1  0
 62 61  1  0
 63 62  2  0
 64 65  1  0
 64 58  2  0
 65 60  2  0
 66 59  1  0
 67 57  1  0
 69 71  2  0
 70 69  1  0
 72 70  1  0
 73 82  2  0
 73 78  1  0
 74 70  1  0
 74 78  1  0
 75 74  1  0
 76 77  1  0
 76 75  1  0
 77 73  1  0
 78 79  2  0
 79 80  1  0
 81 80  2  0
 82 81  1  0
 83 57  1  0
 83 84  1  0
 83 93  1  0
 84 87  1  0
 85 89  1  0
 85 84  1  0
 86 85  2  0
 89 88  1  0
 91 89  1  0
 91 92  1  0
 91 90  1  0
 93 96  1  1
 93 94  1  0
 95 93  1  0
M  ISO  4  12 100  20 100  55 101  56 101
M  END
>  <TORSDO>  (86) 
F 21

>  <SCORE>  (86) 
-13.462

>  <name>  (86) 
86

>  <ligand_id>  (86) 
86

>  <original_smiles>  (86) 
[H]c1nc(N([H])C([H])(C(=O)C([H])([H])[H])C([H])([H])C([H])([H])C([H])([H])Oc2c([H])c([H])c3c(c2[H])C([H])([H])N(C(=O)C([H])(N([H])C(=O)C([H])(N([H])C([H])([H])[H])C([H])([H])[H])C(C([H])([H])[H])(C([H])([H])[H])C([H])([H])[H])C([H])(C(=O)N([H])C2([H])c4c([H])c([H])c([H])c([H])c4C([H])([H])C([H])([H])C2([H])[H])C3([H])[H])c(C([H])([H])[H])c(F)c1N([H])C(=O)N1C([H])([H])C([H])([H])C([H])([H])C([H])(n2nc(-c3c([H])c([H])c(Oc4c([H])c([H])c(F)c([H])c4F)c([H])c3[H])c(C(=O)N([H])[H])c2N([H])[H])C1([H])[H]

>  <smiles>  (86) 
[H]c1nc(N([H])C([H])(C(=O)C([H])([H])[H])C([H])([H])C([H])([H])C([H])([H])Oc2c([H])c([H])c3c(c2[H])C([H])([H])N(C(=O)C([H])(N([H])C(=O)C([H])(N([H])C([H])([H])[H])C([H])([H])[H])C(C([H])([H])[H])(C([H])([H])[H])C([H])([H])[H])C([H])(C(=O)N([H])C2([H])c4c([H])c([H])c([H])c([H])c4C([H])([H])C([H])([H])C2([H])[H])C3([H])[H])c(C([H])([H])[H])c(F)c1N([H])C(=O)N1C([H])([H])C([H])([H])C([H])([H])C([H])(n2nc(-c3c([H])c([H])c(Oc4c([H])c([H])c(F)c([H])c4F)c([H])c3[H])c(C(=O)N([H])[H])c2N([H])[H])C1([H])[H]

$$$$
87:0:0
     RDKit          3D

 94102  0  0  1  0  0  0  0  0999 V2000
  -28.0180  -19.0270   19.7040 C   0  0  0  0  0  0  0  0  0  0  0  0
  -29.3670  -18.9010   20.0350 C   0  0  0  0  0  0  0  0  0  0  0  0
  -28.9800  -21.2870   20.3030 C   0  0  0  0  0  0  0  0  0  0  0  0
  -28.5570  -23.8900   20.3210 C   0  0  0  0  0  0  0  0  0  0  0  0
  -29.8690  -20.2320   20.3630 N   0  0  0  0  0  0  0  0  0  0  0  0
  -29.2910  -22.7230   20.5550 N   0  0  0  0  0  0  0  0  0  0  0  0
  -27.5250  -23.8620   19.6470 O   0  0  0  0  0  0  0  0  0  0  0  0
  -27.3810  -20.6720   19.9160 S   0  0  0  0  0  0  0  0  0  0  0  0
  -30.1770  -22.8830   21.0070 H   0  0  0  0  0  0  0  0  0  0  0  0
  -27.0810  -18.0510   19.1360 C   0  0  0  0  0  0  0  0  0  0  0  0
  -25.5890  -18.3900   19.0060 C   0  0  0  0  0  1  0  0  0  0  0  0
  -27.4650  -16.9500   18.7340 O   0  0  0  0  0  0  0  0  0  0  0  0
  -28.5950  -25.5010   22.3790 C   0  0  0  0  0  1  0  0  0  0  0  0
  -29.0240  -25.3190   20.9140 C   0  0  0  0  0  3  0  0  0  0  0  0
  -28.7820  -26.5970   20.1470 O   0  0  0  0  0  0  0  0  0  0  0  0
  -24.6990  -31.8010   23.2280 C   0  0  0  0  0  0  0  0  0  0  0  0
  -27.6050  -27.3770   20.2080 C   0  0  0  0  0  0  0  0  0  0  0  0
  -23.6160  -30.3890   21.5170 C   0  0  0  0  0  3  0  0  0  0  0  0
  -25.1800  -28.9160   20.1240 C   0  0  0  0  0  0  0  0  0  0  0  0
  -26.1470  -30.8080   21.4320 C   0  0  0  0  0  2  0  0  0  0  0  0
  -26.3080  -29.4390   20.7710 C   0  0  0  0  0  0  0  0  0  0  0  0
  -27.5270  -28.6870   20.7910 C   0  0  0  0  0  3  0  0  0  0  0  0
  -26.4520  -26.9070   19.5500 C   0  0  0  0  0  3  0  0  0  0  0  0
  -25.2540  -27.6550   19.5060 C   0  0  0  0  0  3  0  0  0  0  0  0
  -23.9150  -29.7490   20.1330 C   0  0  0  0  0  2  0  0  0  0  0  0
  -24.8370  -31.0190   22.1170 N   0  0  0  0  0  0  0  0  0  0  0  0
  -23.5870  -32.0190   23.7310 O   0  0  0  0  0  0  0  0  0  0  0  0
  -22.9620  -29.3290   22.4380 C   0  0  0  0  0  0  0  0  0  0  0  0
  -21.6420  -29.1260   22.2890 N   0  0  0  0  0  0  0  0  0  0  0  0
  -23.6450  -28.6920   23.2470 O   0  0  0  0  0  0  0  0  0  0  0  0
  -21.1490  -29.6970   21.6170 H   0  0  0  0  0  0  0  0  0  0  0  0
  -18.2800  -27.8490   22.7210 C   0  0  0  0  0  0  0  0  0  0  0  0
  -20.8340  -28.1410   23.0160 C   0  0  0  0  0  3  0  0  0  0  0  0
  -20.9630  -26.7330   22.3880 C   0  0  0  0  0  2  0  0  0  0  0  0
  -19.8700  -26.4320   21.3560 C   0  0  0  0  0  2  0  0  0  0  0  0
  -18.4830  -26.5300   21.9950 C   0  0  0  0  0  2  0  0  0  0  0  0
  -19.3830  -28.6110   23.1860 C   0  0  0  0  0  0  0  0  0  0  0  0
  -19.1410  -29.8470   23.8250 C   0  0  0  0  0  3  0  0  0  0  0  0
  -17.8270  -30.3150   24.0110 C   0  0  0  0  0  3  0  0  0  0  0  0
  -16.7390  -29.5490   23.5610 C   0  0  0  0  0  3  0  0  0  0  0  0
  -16.9650  -28.3200   22.9160 C   0  0  0  0  0  3  0  0  0  0  0  0
  -25.9270  -32.4740   23.9100 C   0  0  0  0  0  3  0  0  0  0  0  0
  -26.3930  -31.7390   25.2250 C   0  0  1  0  0  0  0  0  0  0  0  0
  -25.2520  -31.4920   26.2400 C   0  0  0  0  0  1  0  0  0  0  0  0
  -27.0310  -30.3720   24.8810 C   0  0  0  0  0  1  0  0  0  0  0  0
  -27.4820  -32.5790   25.9350 C   0  0  0  0  0  1  0  0  0  0  0  0
  -25.5670  -33.8680   24.2030 N   0  0  0  0  0  0  0  0  0  0  0  0
  -25.9020  -34.9200   23.4430 C   0  0  0  0  0  0  0  0  0  0  0  0
  -26.6110  -34.8180   22.4390 O   0  0  0  0  0  0  0  0  0  0  0  0
  -24.9380  -34.0190   24.9790 H   0  0  0  0  0  0  0  0  0  0  0  0
  -24.1370  -36.6630   23.0070 C   0  0  0  0  0  1  0  0  0  0  0  0
  -25.3610  -36.3030   23.8640 C   0  0  0  0  0  3  0  0  0  0  0  0
  -27.4340  -37.2660   24.7600 C   0  0  0  0  0  1  0  0  0  0  0  0
  -26.3670  -37.3830   23.7710 N   0  0  0  0  0  0  0  0  0  0  0  0
  -25.9250  -38.2910   23.8870 H   0  0  0  0  0  0  0  0  0  0  0  0
  -30.3260  -17.6050   19.8960 C   0  0  0  0  0  2  0  0  0  0  0  0
  -30.8090  -15.0130   20.0750 C   0  0  0  0  0  0  0  0  0  0  0  0
  -30.6920  -12.7490   18.9660 C   0  0  0  0  0  2  0  0  0  0  0  0
  -29.6650  -12.7720   17.8070 C   0  0  0  0  0  2  0  0  0  0  0  0
  -28.2310  -12.5370   18.3250 C   0  0  0  0  0  2  0  0  0  0  0  0
  -27.9080  -13.3890   19.5800 C   0  0  0  0  0  3  0  0  0  0  0  0
  -29.0320  -13.2180   20.6190 C   0  0  0  0  0  2  0  0  0  0  0  0
  -30.2510  -13.7400   19.9880 N   0  0  0  0  0  0  0  0  0  0  0  0
  -31.9570  -15.1500   19.6370 O   0  0  0  0  0  0  0  0  0  0  0  0
  -29.1090  -16.1790   21.5220 C   0  0  0  0  0  1  0  0  0  0  0  0
  -30.0120  -16.1570   20.3640 N   0  0  0  0  0  0  0  0  0  0  0  0
  -25.5630  -13.9520   20.4620 C   0  0  0  0  0  0  0  0  0  0  0  0
  -24.5250  -13.1580   20.8690 C   0  0  0  0  0  0  0  0  0  0  0  0
  -24.9920  -11.8130   20.7600 C   0  0  0  0  0  0  0  0  0  0  0  0
  -26.5940  -13.0850   20.1320 N   0  0  0  0  0  0  0  0  0  0  0  0
  -26.2620  -11.7920   20.3760 N   0  0  0  0  0  0  0  0  0  0  0  0
  -24.2810  -10.5400   20.9370 C   0  0  0  0  0  0  0  0  0  0  0  0
  -24.7040   -9.5890   21.8930 C   0  0  0  0  0  3  0  0  0  0  0  0
  -23.9920   -8.3820   22.0590 C   0  0  0  0  0  3  0  0  0  0  0  0
  -22.8480   -8.1190   21.2690 C   0  0  0  0  0  0  0  0  0  0  0  0
  -22.4470   -9.0600   20.3050 C   0  0  0  0  0  3  0  0  0  0  0  0
  -23.1580  -10.2600   20.1360 C   0  0  0  0  0  3  0  0  0  0  0  0
  -22.1120   -6.9610   21.3410 O   0  0  0  0  0  0  0  0  0  0  0  0
  -21.9390   -6.2920   22.5270 C   0  0  0  0  0  0  0  0  0  0  0  0
  -21.3160   -6.8980   23.6390 C   0  0  0  0  0  3  0  0  0  0  0  0
  -21.1000   -6.1560   24.8170 C   0  0  0  0  0  3  0  0  0  0  0  0
  -21.4940   -4.8050   24.8810 C   0  0  0  0  0  0  0  0  0  0  0  0
  -22.1070   -4.1980   23.7710 C   0  0  0  0  0  3  0  0  0  0  0  0
  -22.3280   -4.9390   22.5970 C   0  0  0  0  0  0  0  0  0  0  0  0
  -22.9020   -4.3440   21.5230 F   0  0  0  0  0  0  0  0  0  0  0  0
  -21.2790   -4.0870   26.0080 F   0  0  0  0  0  0  0  0  0  0  0  0
  -23.1430  -13.6180   21.2330 C   0  0  0  0  0  0  0  0  0  0  0  0
  -22.4730  -12.8980   22.1250 N   0  0  0  0  0  0  0  0  0  0  0  0
  -22.6650  -14.6500   20.7640 O   0  0  0  0  0  0  0  0  0  0  0  0
  -22.8620  -12.0600   22.5280 H   0  0  0  0  0  0  0  0  0  0  0  0
  -21.5470  -13.1900   22.4090 H   0  0  0  0  0  0  0  0  0  0  0  0
  -25.6910  -15.3250   20.3220 N   0  0  0  0  0  0  0  0  0  0  0  0
  -24.9200  -15.9550   20.5110 H   0  0  0  0  0  0  0  0  0  0  0  0
  -26.4440  -15.7570   19.7940 H   0  0  0  0  0  0  0  0  0  0  0  0
  1  8  1  0
  1  2  2  0
  2  5  1  0
  3  5  2  0
  3  6  1  0
  4  6  1  0
  4 14  1  0
  6  9  1  0
  7  4  2  0
  8  3  1  0
 10  1  1  0
 11 10  1  0
 12 10  2  0
 14 13  1  0
 15 17  1  0
 15 14  1  0
 16 27  2  0
 17 22  1  0
 18 26  1  0
 18 28  1  0
 19 25  1  0
 19 21  1  0
 20 26  1  0
 21 22  2  0
 21 20  1  0
 23 17  2  0
 24 23  1  0
 24 19  2  0
 25 18  1  0
 26 16  1  0
 28 30  2  0
 29 28  1  0
 31 29  1  0
 32 41  2  0
 32 37  1  0
 33 29  1  0
 33 37  1  0
 34 33  1  0
 35 36  1  0
 35 34  1  0
 36 32  1  0
 37 38  2  0
 38 39  1  0
 40 39  2  0
 41 40  1  0
 42 16  1  0
 42 47  1  0
 42 43  1  0
 43 46  1  1
 43 44  1  0
 45 43  1  0
 47 50  1  0
 48 52  1  0
 48 47  1  0
 49 48  2  0
 52 51  1  0
 54 52  1  0
 54 55  1  0
 54 53  1  0
 56  2  1  0
 56 66  1  0
 57 66  1  0
 58 63  1  0
 59 60  1  0
 59 58  1  0
 61 60  1  0
 61 70  1  0
 61 62  1  0
 63 57  1  0
 63 62  1  0
 64 57  2  0
 66 65  1  0
 67 68  2  0
 68 87  1  0
 69 68  1  0
 69 72  1  0
 70 71  1  0
 70 67  1  0
 71 69  2  0
 72 73  1  0
 73 74  2  0
 75 78  1  0
 75 74  1  0
 76 75  2  0
 77 76  1  0
 77 72  2  0
 78 79  1  0
 79 84  2  0
 79 80  1  0
 80 81  2  0
 81 82  1  0
 82 86  1  0
 83 82  2  0
 84 83  1  0
 85 84  1  0
 87 88  1  0
 88 91  1  0
 88 90  1  0
 89 87  2  0
 92 67  1  0
 92 93  1  0
 94 92  1  0
M  ISO  4  14 101  15 101  57 100  66 100
M  END
>  <TORSDO>  (87) 
F 19

>  <SCORE>  (87) 
-12.600

>  <name>  (87) 
87

>  <ligand_id>  (87) 
87

>  <original_smiles>  (87) 
[H]c1c([H])c([H])c2c(c1[H])C([H])([H])C([H])([H])C([H])([H])C2([H])N([H])C(=O)C1([H])N(C(=O)C([H])(N([H])C(=O)C([H])(N([H])C([H])([H])[H])C([H])([H])[H])C(C([H])([H])[H])(C([H])([H])[H])C([H])([H])[H])C([H])([H])c2c([H])c(OC([H])(C(=O)N([H])c3nc(C([H])([H])N(C(=O)N4C([H])([H])C([H])([H])C([H])([H])C([H])(n5nc(-c6c([H])c([H])c(Oc7c([H])c([H])c(F)c([H])c7F)c([H])c6[H])c(C(=O)N([H])[H])c5N([H])[H])C4([H])[H])C([H])([H])[H])c(C(=O)C([H])([H])[H])s3)C([H])([H])[H])c([H])c([H])c2C1([H])[H]

>  <smiles>  (87) 
[H]c1c([H])c([H])c2c(c1[H])C([H])([H])C([H])([H])C([H])([H])C2([H])N([H])C(=O)C1([H])N(C(=O)C([H])(N([H])C(=O)C([H])(N([H])C([H])([H])[H])C([H])([H])[H])C(C([H])([H])[H])(C([H])([H])[H])C([H])([H])[H])C([H])([H])c2c([H])c(OC([H])(C(=O)N([H])c3nc(C([H])([H])N(C(=O)N4C([H])([H])C([H])([H])C([H])([H])C([H])(n5nc(-c6c([H])c([H])c(Oc7c([H])c([H])c(F)c([H])c7F)c([H])c6[H])c(C(=O)N([H])[H])c5N([H])[H])C4([H])[H])C([H])([H])[H])c(C(=O)C([H])([H])[H])s3)C([H])([H])[H])c([H])c([H])c2C1([H])[H]

$$$$
88:0:0
     RDKit          3D

 97105  0  0  1  0  0  0  0  0999 V2000
  -29.9910  -21.9970   20.1460 C   0  0  0  0  0  0  0  0  0  0  0  0
  -30.2460  -21.0820   21.1000 N   0  0  0  0  0  0  0  0  0  0  0  0
  -30.0250  -21.7650   18.9310 O   0  0  0  0  0  0  0  0  0  0  0  0
  -30.1750  -21.4360   22.0460 H   0  0  0  0  0  0  0  0  0  0  0  0
  -31.5050  -17.5140   21.0440 C   0  0  0  0  0  3  0  0  0  0  0  0
  -29.1210  -18.9660   20.7810 C   0  0  0  0  0  3  0  0  0  0  0  0
  -31.5600  -18.9310   21.0600 C   0  0  0  0  0  0  0  0  0  0  0  0
  -30.2800  -16.8220   20.9000 C   0  0  0  0  0  0  0  0  0  0  0  0
  -30.3370  -19.6670   20.9350 C   0  0  0  0  0  0  0  0  0  0  0  0
  -29.0910  -17.5610   20.7680 C   0  0  0  0  0  0  0  0  0  0  0  0
  -27.9120  -16.9070   20.6420 F   0  0  0  0  0  0  0  0  0  0  0  0
  -30.7640  -14.4930   20.1750 C   0  0  0  0  0  0  0  0  0  0  0  0
  -30.3690  -12.4210   18.9000 C   0  0  0  0  0  2  0  0  0  0  0  0
  -29.3510  -12.7030   17.7750 C   0  0  0  0  0  2  0  0  0  0  0  0
  -27.9050  -12.5530   18.2860 C   0  0  0  0  0  2  0  0  0  0  0  0
  -27.6570  -13.3170   19.6150 C   0  0  0  0  0  3  0  0  0  0  0  0
  -28.7750  -13.0050   20.6360 C   0  0  0  0  0  2  0  0  0  0  0  0
  -30.0710  -13.3350   20.0120 N   0  0  0  0  0  0  0  0  0  0  0  0
  -31.8330  -14.7260   19.6050 O   0  0  0  0  0  0  0  0  0  0  0  0
  -30.1430  -15.4070   20.9380 N   0  0  0  0  0  0  0  0  0  0  0  0
  -29.2630  -15.0900   21.3160 H   0  0  0  0  0  0  0  0  0  0  0  0
  -25.2950  -13.9050   20.4570 C   0  0  0  0  0  0  0  0  0  0  0  0
  -24.2450  -13.1220   20.8580 C   0  0  0  0  0  0  0  0  0  0  0  0
  -24.7030  -11.7730   20.7670 C   0  0  0  0  0  0  0  0  0  0  0  0
  -26.3280  -13.0320   20.1540 N   0  0  0  0  0  0  0  0  0  0  0  0
  -25.9760  -11.7420   20.3930 N   0  0  0  0  0  0  0  0  0  0  0  0
  -23.9870  -10.5060   20.9610 C   0  0  0  0  0  0  0  0  0  0  0  0
  -24.4320   -9.5410   21.8910 C   0  0  0  0  0  3  0  0  0  0  0  0
  -23.7180   -8.3380   22.0730 C   0  0  0  0  0  3  0  0  0  0  0  0
  -22.5420   -8.0910   21.3240 C   0  0  0  0  0  0  0  0  0  0  0  0
  -22.1150   -9.0450   20.3830 C   0  0  0  0  0  3  0  0  0  0  0  0
  -22.8310  -10.2400   20.2000 C   0  0  0  0  0  3  0  0  0  0  0  0
  -21.7970   -6.9410   21.4160 O   0  0  0  0  0  0  0  0  0  0  0  0
  -21.7140   -6.2290   22.5860 C   0  0  0  0  0  0  0  0  0  0  0  0
  -21.2130   -6.8040   23.7750 C   0  0  0  0  0  3  0  0  0  0  0  0
  -21.0780   -6.0160   24.9350 C   0  0  0  0  0  3  0  0  0  0  0  0
  -21.4340   -4.6550   24.9080 C   0  0  0  0  0  0  0  0  0  0  0  0
  -21.9310   -4.0810   23.7250 C   0  0  0  0  0  3  0  0  0  0  0  0
  -22.0660   -4.8640   22.5670 C   0  0  0  0  0  0  0  0  0  0  0  0
  -22.5240   -4.3000   21.4240 F   0  0  0  0  0  0  0  0  0  0  0  0
  -21.2980   -3.8960   26.0210 F   0  0  0  0  0  0  0  0  0  0  0  0
  -22.8650  -13.5940   21.2200 C   0  0  0  0  0  0  0  0  0  0  0  0
  -22.1800  -12.8730   22.1010 N   0  0  0  0  0  0  0  0  0  0  0  0
  -22.4050  -14.6370   20.7590 O   0  0  0  0  0  0  0  0  0  0  0  0
  -22.5630  -12.0270   22.4990 H   0  0  0  0  0  0  0  0  0  0  0  0
  -21.2590  -13.1730   22.3840 H   0  0  0  0  0  0  0  0  0  0  0  0
  -25.4490  -15.2800   20.3140 N   0  0  0  0  0  0  0  0  0  0  0  0
  -24.7000  -15.9290   20.5230 H   0  0  0  0  0  0  0  0  0  0  0  0
  -26.3320  -15.7460   20.1290 H   0  0  0  0  0  0  0  0  0  0  0  0
  -32.9090  -19.5380   21.2340 C   0  0  0  0  0  3  0  0  0  0  0  0
  -33.2540  -20.7190   20.9360 N   0  0  0  0  0  0  0  0  0  0  0  0
  -32.4760  -21.2310   20.5390 H   0  0  0  0  0  0  0  0  0  0  0  0
  -29.6920  -23.4060   20.7500 C   0  0  0  0  0  0  0  0  0  0  0  0
  -29.3990  -23.5470   21.9440 O   0  0  0  0  0  0  0  0  0  0  0  0
  -29.7810  -24.6300   19.8200 C   0  0  0  0  0  2  0  0  0  0  0  0
  -28.4340  -25.3660   19.6210 C   0  0  0  0  0  2  0  0  0  0  0  0
  -28.4510  -26.7180   20.1120 O   0  0  0  0  0  0  0  0  0  0  0  0
  -24.5350  -31.8430   23.1620 C   0  0  0  0  0  0  0  0  0  0  0  0
  -27.2640  -27.4340   20.0810 C   0  0  0  0  0  0  0  0  0  0  0  0
  -23.3680  -30.4530   21.4830 C   0  0  0  0  0  3  0  0  0  0  0  0
  -24.8580  -28.9410   20.0690 C   0  0  0  0  0  0  0  0  0  0  0  0
  -25.8990  -30.8190   21.3450 C   0  0  0  0  0  2  0  0  0  0  0  0
  -26.0020  -29.4550   20.6910 C   0  0  0  0  0  0  0  0  0  0  0  0
  -27.2050  -28.7090   20.6950 C   0  0  0  0  0  3  0  0  0  0  0  0
  -26.0930  -26.9390   19.4560 C   0  0  0  0  0  3  0  0  0  0  0  0
  -24.8990  -27.6820   19.4490 C   0  0  0  0  0  3  0  0  0  0  0  0
  -23.6110  -29.7950   20.1000 C   0  0  0  0  0  2  0  0  0  0  0  0
  -24.6180  -31.0520   22.0550 N   0  0  0  0  0  0  0  0  0  0  0  0
  -23.4410  -32.1060   23.6830 O   0  0  0  0  0  0  0  0  0  0  0  0
  -22.7050  -29.4160   22.4170 C   0  0  0  0  0  0  0  0  0  0  0  0
  -21.3800  -29.2400   22.2730 N   0  0  0  0  0  0  0  0  0  0  0  0
  -23.3770  -28.7760   23.2300 O   0  0  0  0  0  0  0  0  0  0  0  0
  -20.9010  -29.8130   21.5930 H   0  0  0  0  0  0  0  0  0  0  0  0
  -17.9900  -28.0760   22.7280 C   0  0  0  0  0  0  0  0  0  0  0  0
  -20.5490  -28.2940   23.0170 C   0  0  0  0  0  3  0  0  0  0  0  0
  -20.6350  -26.8760   22.4080 C   0  0  0  0  0  2  0  0  0  0  0  0
  -19.5330  -26.5910   21.3800 C   0  0  0  0  0  2  0  0  0  0  0  0
  -18.1520  -26.7400   22.0240 C   0  0  0  0  0  2  0  0  0  0  0  0
  -19.1170  -28.8120   23.1810 C   0  0  0  0  0  0  0  0  0  0  0  0
  -18.9130  -30.0660   23.7980 C   0  0  0  0  0  3  0  0  0  0  0  0
  -17.6150  -30.5820   23.9690 C   0  0  0  0  0  3  0  0  0  0  0  0
  -16.5020  -29.8400   23.5380 C   0  0  0  0  0  3  0  0  0  0  0  0
  -16.6900  -28.5890   22.9230 C   0  0  0  0  0  3  0  0  0  0  0  0
  -25.8050  -32.4740   23.8120 C   0  0  0  0  0  3  0  0  0  0  0  0
  -25.4850  -33.8680   24.1440 N   0  0  0  0  0  0  0  0  0  0  0  0
  -25.8330  -34.9270   23.4010 C   0  0  0  0  0  0  0  0  0  0  0  0
  -26.5300  -34.8350   22.3860 O   0  0  0  0  0  0  0  0  0  0  0  0
  -24.8630  -34.0140   24.9270 H   0  0  0  0  0  0  0  0  0  0  0  0
  -24.1150  -36.7220   23.0060 C   0  0  0  0  0  1  0  0  0  0  0  0
  -25.3270  -36.3110   23.8550 C   0  0  0  0  0  3  0  0  0  0  0  0
  -27.4300  -37.1870   24.7690 C   0  0  0  0  0  1  0  0  0  0  0  0
  -26.3590  -37.3670   23.7930 N   0  0  0  0  0  0  0  0  0  0  0  0
  -25.9440  -38.2830   23.9430 H   0  0  0  0  0  0  0  0  0  0  0  0
  -26.3010  -31.6950   25.0910 C   0  0  1  0  0  0  0  0  0  0  0  0
  -25.1890  -31.4340   26.1350 C   0  0  0  0  0  1  0  0  0  0  0  0
  -26.9020  -30.3270   24.6940 C   0  0  0  0  0  1  0  0  0  0  0  0
  -27.4320  -32.4900   25.7860 C   0  0  0  0  0  1  0  0  0  0  0  0
  1 53  1  0
  1  2  1  0
  2  4  1  0
  3  1  2  0
  5  7  1  0
  6  9  1  0
  7 50  1  0
  8 20  1  0
  8  5  2  0
  9  7  2  0
  9  2  1  0
 10  6  2  0
 10  8  1  0
 11 10  1  0
 12 20  1  0
 13 18  1  0
 14 15  1  0
 14 13  1  0
 16 15  1  0
 16 25  1  0
 16 17  1  0
 18 12  1  0
 18 17  1  0
 19 12  2  0
 20 21  1  0
 22 23  2  0
 23 42  1  0
 24 23  1  0
 24 27  1  0
 25 26  1  0
 25 22  1  0
 26 24  2  0
 27 28  1  0
 28 29  2  0
 30 33  1  0
 30 29  1  0
 31 30  2  0
 32 31  1  0
 32 27  2  0
 33 34  1  0
 34 35  1  0
 35 36  2  0
 37 36  1  0
 37 41  1  0
 38 37  2  0
 39 34  2  0
 39 38  1  0
 40 39  1  0
 42 43  1  0
 43 46  1  0
 43 45  1  0
 44 42  2  0
 47 22  1  0
 47 48  1  0
 49 47  1  0
 51 50  2  0
 52 51  1  0
 53 54  2  0
 55 53  1  0
 56 55  1  0
 56 57  1  0
 58 69  2  0
 59 57  1  0
 59 64  1  0
 60 68  1  0
 60 70  1  0
 61 67  1  0
 61 63  1  0
 62 68  1  0
 63 64  2  0
 63 62  1  0
 65 59  2  0
 66 65  1  0
 66 61  2  0
 67 60  1  0
 68 58  1  0
 70 72  2  0
 71 70  1  0
 73 71  1  0
 74 83  2  0
 74 79  1  0
 75 71  1  0
 75 79  1  0
 76 75  1  0
 77 78  1  0
 77 76  1  0
 78 74  1  0
 79 80  2  0
 80 81  1  0
 82 81  2  0
 83 82  1  0
 84 58  1  0
 84 85  1  0
 84 94  1  0
 85 88  1  0
 86 90  1  0
 86 85  1  0
 87 86  2  0
 90 89  1  0
 92 90  1  0
 92 93  1  0
 92 91  1  0
 94 97  1  1
 94 95  1  0
 96 94  1  0
M  ISO  4  12 100  20 100  56 101  57 101
M  END
>  <TORSDO>  (88) 
F 21

>  <SCORE>  (88) 
-13.823

>  <name>  (88) 
88

>  <ligand_id>  (88) 
88

>  <original_smiles>  (88) 
[H]N=C([H])c1c([H])c(N([H])C(=O)N2C([H])([H])C([H])([H])C([H])([H])C([H])(n3nc(-c4c([H])c([H])c(Oc5c([H])c([H])c(F)c([H])c5F)c([H])c4[H])c(C(=O)N([H])[H])c3N([H])[H])C2([H])[H])c(F)c([H])c1N([H])C(=O)C(=O)C([H])([H])C([H])([H])Oc1c([H])c([H])c2c(c1[H])C([H])([H])N(C(=O)C([H])(N([H])C(=O)C([H])(N([H])C([H])([H])[H])C([H])([H])[H])C(C([H])([H])[H])(C([H])([H])[H])C([H])([H])[H])C([H])(C(=O)N([H])C1([H])c3c([H])c([H])c([H])c([H])c3C([H])([H])C([H])([H])C1([H])[H])C2([H])[H]

>  <smiles>  (88) 
[H]N=C([H])c1c([H])c(N([H])C(=O)N2C([H])([H])C([H])([H])C([H])([H])C([H])(n3nc(-c4c([H])c([H])c(Oc5c([H])c([H])c(F)c([H])c5F)c([H])c4[H])c(C(=O)N([H])[H])c3N([H])[H])C2([H])[H])c(F)c([H])c1N([H])C(=O)C(=O)C([H])([H])C([H])([H])Oc1c([H])c([H])c2c(c1[H])C([H])([H])N(C(=O)C([H])(N([H])C(=O)C([H])(N([H])C([H])([H])[H])C([H])([H])[H])C(C([H])([H])[H])(C([H])([H])[H])C([H])([H])[H])C([H])(C(=O)N([H])C1([H])c3c([H])c([H])c([H])c([H])c3C([H])([H])C([H])([H])C1([H])[H])C2([H])[H]

$$$$
89:0:0
     RDKit          3D

 96104  0  0  1  0  0  0  0  0999 V2000
  -29.0260  -22.2920   19.8890 C   0  0  0  0  0  3  0  0  0  0  0  0
  -30.9600  -21.5390   18.3900 C   0  0  0  0  0  1  0  0  0  0  0  0
  -28.7070  -21.0300   20.4370 N   0  0  0  0  0  0  0  0  0  0  0  0
  -29.9590  -22.4710   18.9270 N   0  0  0  0  0  0  0  0  0  0  0  0
  -28.3590  -21.0520   21.3860 H   0  0  0  0  0  0  0  0  0  0  0  0
  -30.0560  -23.4120   18.5750 H   0  0  0  0  0  0  0  0  0  0  0  0
  -29.4130  -18.4950   20.7930 C   0  0  0  0  0  3  0  0  0  0  0  0
  -28.9480  -19.6410   19.9650 C   0  0  0  0  0  0  0  0  0  0  0  0
  -28.6340  -19.1460   18.7090 C   0  0  0  0  0  0  0  0  0  0  0  0
  -29.5340  -17.2230   20.1770 C   0  0  0  0  0  0  0  0  0  0  0  0
  -29.1000  -17.4560   18.4990 S   0  0  0  0  0  0  0  0  0  0  0  0
  -30.5060  -14.8480   20.2280 C   0  0  0  0  0  0  0  0  0  0  0  0
  -30.3610  -12.5560   19.2300 C   0  0  0  0  0  2  0  0  0  0  0  0
  -29.4000  -12.6300   18.0210 C   0  0  0  0  0  2  0  0  0  0  0  0
  -27.9380  -12.4420   18.4720 C   0  0  0  0  0  2  0  0  0  0  0  0
  -27.5810  -13.3020   19.7150 C   0  0  0  0  0  3  0  0  0  0  0  0
  -28.6610  -13.1950   20.8150 C   0  0  0  0  0  2  0  0  0  0  0  0
  -29.9410  -13.5880   20.2120 N   0  0  0  0  0  0  0  0  0  0  0  0
  -31.6410  -15.0090   19.7690 O   0  0  0  0  0  0  0  0  0  0  0  0
  -29.7530  -15.9260   20.6960 N   0  0  0  0  0  0  0  0  0  0  0  0
  -29.0260  -15.6260   21.3290 H   0  0  0  0  0  0  0  0  0  0  0  0
  -25.2040  -13.8580   20.5010 C   0  0  0  0  0  0  0  0  0  0  0  0
  -24.1520  -13.0710   20.8850 C   0  0  0  0  0  0  0  0  0  0  0  0
  -24.6270  -11.7240   20.8250 C   0  0  0  0  0  0  0  0  0  0  0  0
  -26.2500  -12.9920   20.2270 N   0  0  0  0  0  0  0  0  0  0  0  0
  -25.9100  -11.7030   20.4830 N   0  0  0  0  0  0  0  0  0  0  0  0
  -23.9160  -10.4530   21.0180 C   0  0  0  0  0  0  0  0  0  0  0  0
  -24.3570   -9.4920   21.9540 C   0  0  0  0  0  3  0  0  0  0  0  0
  -23.6450   -8.2870   22.1330 C   0  0  0  0  0  3  0  0  0  0  0  0
  -22.4760   -8.0350   21.3760 C   0  0  0  0  0  0  0  0  0  0  0  0
  -22.0540   -8.9850   20.4300 C   0  0  0  0  0  3  0  0  0  0  0  0
  -22.7670  -10.1810   20.2490 C   0  0  0  0  0  3  0  0  0  0  0  0
  -21.7350   -6.8810   21.4640 O   0  0  0  0  0  0  0  0  0  0  0  0
  -21.6690   -6.1540   22.6260 C   0  0  0  0  0  0  0  0  0  0  0  0
  -21.1690   -6.7100   23.8240 C   0  0  0  0  0  3  0  0  0  0  0  0
  -21.0540   -5.9070   24.9770 C   0  0  0  0  0  3  0  0  0  0  0  0
  -21.4280   -4.5500   24.9320 C   0  0  0  0  0  0  0  0  0  0  0  0
  -21.9180   -3.9940   23.7370 C   0  0  0  0  0  3  0  0  0  0  0  0
  -22.0360   -4.7940   22.5880 C   0  0  0  0  0  0  0  0  0  0  0  0
  -22.4900   -4.2480   21.4330 F   0  0  0  0  0  0  0  0  0  0  0  0
  -21.3100   -3.7780   26.0370 F   0  0  0  0  0  0  0  0  0  0  0  0
  -22.7590  -13.5330   21.1940 C   0  0  0  0  0  0  0  0  0  0  0  0
  -22.0520  -12.8190   22.0620 N   0  0  0  0  0  0  0  0  0  0  0  0
  -22.3050  -14.5650   20.7020 O   0  0  0  0  0  0  0  0  0  0  0  0
  -22.4320  -11.9850   22.4860 H   0  0  0  0  0  0  0  0  0  0  0  0
  -21.1150  -13.1110   22.3060 H   0  0  0  0  0  0  0  0  0  0  0  0
  -25.3520  -15.2330   20.3390 N   0  0  0  0  0  0  0  0  0  0  0  0
  -24.5820  -15.8770   20.4760 H   0  0  0  0  0  0  0  0  0  0  0  0
  -26.1880  -15.6850   19.9890 H   0  0  0  0  0  0  0  0  0  0  0  0
  -27.9390  -19.7650   17.5840 C   0  0  0  0  0  3  0  0  0  0  0  0
  -27.1700  -20.7700   17.6430 N   0  0  0  0  0  0  0  0  0  0  0  0
  -27.0320  -21.1060   18.5870 H   0  0  0  0  0  0  0  0  0  0  0  0
  -28.3850  -23.7030   20.4170 C   0  0  0  0  0  0  0  0  0  0  0  0
  -27.7890  -23.6700   21.4990 O   0  0  0  0  0  0  0  0  0  0  0  0
  -28.4590  -25.0960   19.6000 C   0  0  0  0  0  2  0  0  0  0  0  0
  -28.3360  -26.4330   20.2970 O   0  0  0  0  0  0  0  0  0  0  0  0
  -24.5690  -31.9100   23.1970 C   0  0  0  0  0  0  0  0  0  0  0  0
  -27.2250  -27.3050   20.1820 C   0  0  0  0  0  0  0  0  0  0  0  0
  -23.3910  -30.5040   21.5460 C   0  0  0  0  0  3  0  0  0  0  0  0
  -24.8630  -28.9530   20.1340 C   0  0  0  0  0  0  0  0  0  0  0  0
  -25.9370  -30.8160   21.3990 C   0  0  0  0  0  2  0  0  0  0  0  0
  -26.0270  -29.4370   20.7450 C   0  0  0  0  0  0  0  0  0  0  0  0
  -27.2060  -28.6250   20.7560 C   0  0  0  0  0  3  0  0  0  0  0  0
  -26.0310  -26.8840   19.5540 C   0  0  0  0  0  3  0  0  0  0  0  0
  -24.8710  -27.6860   19.5320 C   0  0  0  0  0  3  0  0  0  0  0  0
  -23.6260  -29.8320   20.1680 C   0  0  0  0  0  2  0  0  0  0  0  0
  -24.6520  -31.0970   22.1010 N   0  0  0  0  0  0  0  0  0  0  0  0
  -23.4780  -32.1840   23.7180 O   0  0  0  0  0  0  0  0  0  0  0  0
  -22.7220  -29.4860   22.5010 C   0  0  0  0  0  0  0  0  0  0  0  0
  -21.3960  -29.3100   22.3670 N   0  0  0  0  0  0  0  0  0  0  0  0
  -23.3960  -28.8600   23.3230 O   0  0  0  0  0  0  0  0  0  0  0  0
  -20.9130  -29.8630   21.6720 H   0  0  0  0  0  0  0  0  0  0  0  0
  -18.0110  -28.1380   22.8770 C   0  0  0  0  0  0  0  0  0  0  0  0
  -20.5740  -28.3710   23.1330 C   0  0  0  0  0  3  0  0  0  0  0  0
  -20.6580  -26.9460   22.5410 C   0  0  0  0  0  2  0  0  0  0  0  0
  -19.5470  -26.6450   21.5300 C   0  0  0  0  0  2  0  0  0  0  0  0
  -18.1700  -26.7950   22.1830 C   0  0  0  0  0  2  0  0  0  0  0  0
  -19.1390  -28.8850   23.3080 C   0  0  0  0  0  0  0  0  0  0  0  0
  -18.9350  -30.1420   23.9170 C   0  0  0  0  0  3  0  0  0  0  0  0
  -17.6350  -30.6520   24.1000 C   0  0  0  0  0  3  0  0  0  0  0  0
  -16.5210  -29.9010   23.6830 C   0  0  0  0  0  3  0  0  0  0  0  0
  -16.7110  -28.6470   23.0770 C   0  0  0  0  0  3  0  0  0  0  0  0
  -25.8410  -32.5500   23.8330 C   0  0  0  0  0  3  0  0  0  0  0  0
  -26.3410  -31.7900   25.1230 C   0  0  1  0  0  0  0  0  0  0  0  0
  -25.2320  -31.5550   26.1750 C   0  0  0  0  0  1  0  0  0  0  0  0
  -26.9390  -30.4110   24.7560 C   0  0  0  0  0  1  0  0  0  0  0  0
  -27.4760  -32.5950   25.7990 C   0  0  0  0  0  1  0  0  0  0  0  0
  -25.5200  -33.9490   24.1530 N   0  0  0  0  0  0  0  0  0  0  0  0
  -25.8500  -35.0020   23.3940 C   0  0  0  0  0  0  0  0  0  0  0  0
  -26.5270  -34.8990   22.3670 O   0  0  0  0  0  0  0  0  0  0  0  0
  -24.9170  -34.1020   24.9480 H   0  0  0  0  0  0  0  0  0  0  0  0
  -24.1210  -36.7900   23.0170 C   0  0  0  0  0  1  0  0  0  0  0  0
  -25.3510  -36.3890   23.8450 C   0  0  0  0  0  3  0  0  0  0  0  0
  -27.4680  -37.2860   24.7090 C   0  0  0  0  0  1  0  0  0  0  0  0
  -26.3810  -37.4470   23.7460 N   0  0  0  0  0  0  0  0  0  0  0  0
  -25.9690  -38.3650   23.8820 H   0  0  0  0  0  0  0  0  0  0  0  0
  1 53  1  0
  1  3  1  0
  2  4  1  0
  3  5  1  0
  4  1  1  0
  6  4  1  0
  8  3  1  0
  8  7  1  0
  9  8  2  0
 10 20  1  0
 10  7  2  0
 11  9  1  0
 11 10  1  0
 12 20  1  0
 13 18  1  0
 14 15  1  0
 14 13  1  0
 16 15  1  0
 16 25  1  0
 16 17  1  0
 18 12  1  0
 18 17  1  0
 19 12  2  0
 20 21  1  0
 22 23  2  0
 23 42  1  0
 24 23  1  0
 24 27  1  0
 25 26  1  0
 25 22  1  0
 26 24  2  0
 27 28  1  0
 28 29  2  0
 30 33  1  0
 30 29  1  0
 31 30  2  0
 32 31  1  0
 32 27  2  0
 33 34  1  0
 34 35  1  0
 35 36  2  0
 37 36  1  0
 37 41  1  0
 38 37  2  0
 39 34  2  0
 39 38  1  0
 40 39  1  0
 42 43  1  0
 43 46  1  0
 43 45  1  0
 44 42  2  0
 47 48  1  0
 47 22  1  0
 49 47  1  0
 50 51  2  0
 50  9  1  0
 51 52  1  0
 53 54  2  0
 55 56  1  0
 55 53  1  0
 57 68  2  0
 58 56  1  0
 58 63  1  0
 59 67  1  0
 59 69  1  0
 60 66  1  0
 60 62  1  0
 61 67  1  0
 62 63  2  0
 62 61  1  0
 64 58  2  0
 65 64  1  0
 65 60  2  0
 66 59  1  0
 67 57  1  0
 69 71  2  0
 70 69  1  0
 72 70  1  0
 73 82  2  0
 73 78  1  0
 74 70  1  0
 74 78  1  0
 75 74  1  0
 76 77  1  0
 76 75  1  0
 77 73  1  0
 78 79  2  0
 79 80  1  0
 81 80  2  0
 82 81  1  0
 83 57  1  0
 83 88  1  0
 83 84  1  0
 84 87  1  1
 84 85  1  0
 86 84  1  0
 88 91  1  0
 89 93  1  0
 89 88  1  0
 90 89  2  0
 93 92  1  0
 95 93  1  0
 95 96  1  0
 95 94  1  0
M  ISO  4  12 100  20 100  55 101  56 101
M  END
>  <TORSDO>  (89) 
F 20

>  <SCORE>  (89) 
-14.137

>  <name>  (89) 
89

>  <ligand_id>  (89) 
89

>  <original_smiles>  (89) 
[H]N=C([H])c1sc(N([H])C(=O)N2C([H])([H])C([H])([H])C([H])([H])C([H])(n3nc(-c4c([H])c([H])c(Oc5c([H])c([H])c(F)c([H])c5F)c([H])c4[H])c(C(=O)N([H])[H])c3N([H])[H])C2([H])[H])c([H])c1N([H])C(C(=O)C([H])([H])Oc1c([H])c([H])c2c(c1[H])C([H])([H])N(C(=O)C([H])(N([H])C(=O)C([H])(N([H])C([H])([H])[H])C([H])([H])[H])C(C([H])([H])[H])(C([H])([H])[H])C([H])([H])[H])C([H])(C(=O)N([H])C1([H])c3c([H])c([H])c([H])c([H])c3C([H])([H])C([H])([H])C1([H])[H])C2([H])[H])=[N+]([H])C([H])([H])[H]

>  <smiles>  (89) 
[H]N=C([H])c1sc(N([H])C(=O)N2C([H])([H])C([H])([H])C([H])([H])C([H])(n3nc(-c4c([H])c([H])c(Oc5c([H])c([H])c(F)c([H])c5F)c([H])c4[H])c(C(=O)N([H])[H])c3N([H])[H])C2([H])[H])c([H])c1N([H])C(C(=O)C([H])([H])Oc1c([H])c([H])c2c(c1[H])C([H])([H])N(C(=O)C([H])(N([H])C(=O)C([H])(N([H])C([H])([H])[H])C([H])([H])[H])C(C([H])([H])[H])(C([H])([H])[H])C([H])([H])[H])C([H])(C(=O)N([H])C1([H])c3c([H])c([H])c([H])c([H])c3C([H])([H])C([H])([H])C1([H])[H])C2([H])[H])=[N+]([H])C([H])([H])[H]

$$$$
90:0:0
     RDKit          3D

 93101  0  0  1  0  0  0  0  0999 V2000
  -29.9670  -21.5570   21.3080 C   0  0  0  0  0  3  0  0  0  0  0  0
  -30.2260  -22.7670   20.9620 N   0  0  0  0  0  0  0  0  0  0  0  0
  -29.3730  -23.7770   21.4140 C   0  0  0  0  0  0  0  0  0  0  0  0
  -28.2560  -23.6430   21.9220 O   0  0  0  0  0  0  0  0  0  0  0  0
  -29.9760  -25.1940   21.2680 C   0  0  0  0  0  2  0  0  0  0  0  0
  -29.0010  -26.4010   21.4160 C   0  0  0  0  0  2  0  0  0  0  0  0
  -28.2850  -26.6280   20.2020 O   0  0  0  0  0  0  0  0  0  0  0  0
  -24.5340  -31.9440   23.2360 C   0  0  0  0  0  0  0  0  0  0  0  0
  -27.1650  -27.4310   20.2540 C   0  0  0  0  0  0  0  0  0  0  0  0
  -23.3260  -30.5290   21.6040 C   0  0  0  0  0  3  0  0  0  0  0  0
  -24.7810  -28.9540   20.2180 C   0  0  0  0  0  0  0  0  0  0  0  0
  -25.8550  -30.8600   21.4230 C   0  0  0  0  0  2  0  0  0  0  0  0
  -25.9360  -29.4740   20.8180 C   0  0  0  0  0  0  0  0  0  0  0  0
  -27.1310  -28.7160   20.8480 C   0  0  0  0  0  3  0  0  0  0  0  0
  -26.0000  -26.9320   19.6400 C   0  0  0  0  0  3  0  0  0  0  0  0
  -24.8060  -27.6780   19.6300 C   0  0  0  0  0  3  0  0  0  0  0  0
  -23.5430  -29.8240   20.2370 C   0  0  0  0  0  2  0  0  0  0  0  0
  -24.5890  -31.1270   22.1470 N   0  0  0  0  0  0  0  0  0  0  0  0
  -23.4510  -32.2340   23.7640 O   0  0  0  0  0  0  0  0  0  0  0  0
  -22.6570  -29.5290   22.5750 C   0  0  0  0  0  0  0  0  0  0  0  0
  -21.3290  -29.3710   22.4520 N   0  0  0  0  0  0  0  0  0  0  0  0
  -23.3300  -28.8990   23.3940 O   0  0  0  0  0  0  0  0  0  0  0  0
  -20.8480  -29.9320   21.7630 H   0  0  0  0  0  0  0  0  0  0  0  0
  -17.9330  -28.2520   22.9720 C   0  0  0  0  0  0  0  0  0  0  0  0
  -20.4970  -28.4570   23.2330 C   0  0  0  0  0  3  0  0  0  0  0  0
  -20.5660  -27.0200   22.6660 C   0  0  0  0  0  2  0  0  0  0  0  0
  -19.4540  -26.7140   21.6580 C   0  0  0  0  0  2  0  0  0  0  0  0
  -18.0780  -26.8930   22.3060 C   0  0  0  0  0  2  0  0  0  0  0  0
  -19.0690  -28.9920   23.3930 C   0  0  0  0  0  0  0  0  0  0  0  0
  -18.8800  -30.2640   23.9760 C   0  0  0  0  0  3  0  0  0  0  0  0
  -17.5880  -30.7960   24.1410 C   0  0  0  0  0  3  0  0  0  0  0  0
  -16.4660  -30.0520   23.7360 C   0  0  0  0  0  3  0  0  0  0  0  0
  -16.6390  -28.7820   23.1570 C   0  0  0  0  0  3  0  0  0  0  0  0
  -25.8230  -32.5700   23.8540 C   0  0  0  0  0  3  0  0  0  0  0  0
  -25.5210  -33.9700   24.1820 N   0  0  0  0  0  0  0  0  0  0  0  0
  -25.8630  -35.0190   23.4220 C   0  0  0  0  0  0  0  0  0  0  0  0
  -26.5360  -34.9100   22.3930 O   0  0  0  0  0  0  0  0  0  0  0  0
  -24.9240  -34.1290   24.9790 H   0  0  0  0  0  0  0  0  0  0  0  0
  -24.1410  -36.8160   23.0590 C   0  0  0  0  0  1  0  0  0  0  0  0
  -25.3800  -36.4100   23.8740 C   0  0  0  0  0  3  0  0  0  0  0  0
  -27.5190  -37.2850   24.7020 C   0  0  0  0  0  1  0  0  0  0  0  0
  -26.4180  -37.4590   23.7590 N   0  0  0  0  0  0  0  0  0  0  0  0
  -26.0160  -38.3800   23.9070 H   0  0  0  0  0  0  0  0  0  0  0  0
  -26.3410  -31.7960   25.1280 C   0  0  1  0  0  0  0  0  0  0  0  0
  -25.2510  -31.5570   26.1970 C   0  0  0  0  0  1  0  0  0  0  0  0
  -26.9240  -30.4190   24.7300 C   0  0  0  0  0  1  0  0  0  0  0  0
  -27.4940  -32.5890   25.7880 C   0  0  0  0  0  1  0  0  0  0  0  0
  -30.7560  -20.3280   20.8200 C   0  0  0  0  0  2  0  0  0  0  0  0
  -27.9140  -17.7510   20.3500 C   0  0  0  0  0  3  0  0  0  0  0  0
  -28.6220  -18.9640   20.3850 C   0  0  0  0  0  3  0  0  0  0  0  0
  -28.5700  -16.5430   20.6280 C   0  0  0  0  0  3  0  0  0  0  0  0
  -29.9960  -18.9880   20.7270 C   0  0  0  0  0  0  0  0  0  0  0  0
  -29.9520  -16.5180   20.9010 C   0  0  0  0  0  0  0  0  0  0  0  0
  -30.6640  -17.7490   20.9670 C   0  0  0  0  0  0  0  0  0  0  0  0
  -31.9800  -17.7530   21.2880 F   0  0  0  0  0  0  0  0  0  0  0  0
  -30.9640  -14.3770   20.2510 C   0  0  0  0  0  0  0  0  0  0  0  0
  -30.6200  -12.1530   19.2070 C   0  0  0  0  0  2  0  0  0  0  0  0
  -29.6620  -12.2640   18.0030 C   0  0  0  0  0  2  0  0  0  0  0  0
  -28.1900  -12.1820   18.4510 C   0  0  0  0  0  2  0  0  0  0  0  0
  -27.8790  -13.1330   19.6360 C   0  0  0  0  0  3  0  0  0  0  0  0
  -28.9330  -12.9580   20.7540 C   0  0  0  0  0  2  0  0  0  0  0  0
  -30.2740  -13.2020   20.1820 N   0  0  0  0  0  0  0  0  0  0  0  0
  -31.9680  -14.6090   19.5720 O   0  0  0  0  0  0  0  0  0  0  0  0
  -30.5140  -15.2370   21.1810 N   0  0  0  0  0  0  0  0  0  0  0  0
  -29.9590  -14.7290   21.8520 H   0  0  0  0  0  0  0  0  0  0  0  0
  -25.5230  -13.8720   20.3780 C   0  0  0  0  0  0  0  0  0  0  0  0
  -24.4240  -13.1620   20.7780 C   0  0  0  0  0  0  0  0  0  0  0  0
  -24.8090  -11.7870   20.7420 C   0  0  0  0  0  0  0  0  0  0  0  0
  -26.5180  -12.9360   20.1360 N   0  0  0  0  0  0  0  0  0  0  0  0
  -26.0900  -11.6760   20.4060 N   0  0  0  0  0  0  0  0  0  0  0  0
  -24.0190  -10.5670   20.9500 C   0  0  0  0  0  0  0  0  0  0  0  0
  -24.4190   -9.5780   21.8740 C   0  0  0  0  0  3  0  0  0  0  0  0
  -23.6330   -8.4210   22.0690 C   0  0  0  0  0  3  0  0  0  0  0  0
  -22.4340   -8.2460   21.3380 C   0  0  0  0  0  0  0  0  0  0  0  0
  -22.0520   -9.2240   20.4030 C   0  0  0  0  0  3  0  0  0  0  0  0
  -22.8380  -10.3720   20.2060 C   0  0  0  0  0  3  0  0  0  0  0  0
  -21.6190   -7.1450   21.4440 O   0  0  0  0  0  0  0  0  0  0  0  0
  -21.5540   -6.4060   22.5980 C   0  0  0  0  0  0  0  0  0  0  0  0
  -21.2000   -6.9880   23.8350 C   0  0  0  0  0  3  0  0  0  0  0  0
  -21.0780   -6.1780   24.9830 C   0  0  0  0  0  3  0  0  0  0  0  0
  -21.2980   -4.7910   24.8950 C   0  0  0  0  0  0  0  0  0  0  0  0
  -21.6460   -4.2110   23.6620 C   0  0  0  0  0  3  0  0  0  0  0  0
  -21.7700   -5.0160   22.5170 C   0  0  0  0  0  0  0  0  0  0  0  0
  -22.0840   -4.4480   21.3270 F   0  0  0  0  0  0  0  0  0  0  0  0
  -21.1720   -4.0130   25.9950 F   0  0  0  0  0  0  0  0  0  0  0  0
  -23.0610  -13.7170   21.0790 C   0  0  0  0  0  0  0  0  0  0  0  0
  -22.3220  -13.0750   21.9780 N   0  0  0  0  0  0  0  0  0  0  0  0
  -22.6620  -14.7540   20.5520 O   0  0  0  0  0  0  0  0  0  0  0  0
  -22.6560  -12.2370   22.4290 H   0  0  0  0  0  0  0  0  0  0  0  0
  -21.4070  -13.4310   22.2180 H   0  0  0  0  0  0  0  0  0  0  0  0
  -25.7490  -15.2300   20.1770 N   0  0  0  0  0  0  0  0  0  0  0  0
  -25.0060  -15.9130   20.2660 H   0  0  0  0  0  0  0  0  0  0  0  0
  -26.5910  -15.6130   19.7660 H   0  0  0  0  0  0  0  0  0  0  0  0
  2  1  2  0
  2  3  1  0
  3  4  2  0
  5  3  1  0
  5  6  1  0
  7  9  1  0
  7  6  1  0
  8 19  2  0
  9 14  1  0
 10 18  1  0
 10 20  1  0
 11 17  1  0
 11 13  1  0
 12 18  1  0
 13 14  2  0
 13 12  1  0
 15  9  2  0
 16 15  1  0
 16 11  2  0
 17 10  1  0
 18  8  1  0
 20 22  2  0
 21 20  1  0
 23 21  1  0
 24 33  2  0
 24 29  1  0
 25 21  1  0
 25 29  1  0
 26 25  1  0
 27 28  1  0
 27 26  1  0
 28 24  1  0
 29 30  2  0
 30 31  1  0
 32 31  2  0
 33 32  1  0
 34  8  1  0
 34 35  1  0
 34 44  1  0
 35 38  1  0
 36 40  1  0
 36 35  1  0
 37 36  2  0
 40 39  1  0
 42 40  1  0
 42 43  1  0
 42 41  1  0
 44 47  1  1
 44 45  1  0
 46 44  1  0
 48  1  1  0
 49 50  2  0
 49 51  1  0
 50 52  1  0
 51 53  2  0
 52 48  1  0
 52 54  2  0
 53 54  1  0
 53 64  1  0
 54 55  1  0
 56 64  1  0
 57 62  1  0
 58 59  1  0
 58 57  1  0
 60 59  1  0
 60 69  1  0
 60 61  1  0
 62 56  1  0
 62 61  1  0
 63 56  2  0
 64 65  1  0
 66 67  2  0
 67 86  1  0
 68 67  1  0
 68 71  1  0
 69 66  1  0
 69 70  1  0
 70 68  2  0
 71 72  1  0
 72 73  2  0
 74 77  1  0
 74 73  1  0
 75 74  2  0
 76 75  1  0
 76 71  2  0
 77 78  1  0
 78 79  1  0
 79 80  2  0
 81 80  1  0
 81 85  1  0
 82 81  2  0
 83 78  2  0
 83 82  1  0
 84 83  1  0
 86 87  1  0
 87 90  1  0
 87 89  1  0
 88 86  2  0
 91 92  1  0
 91 66  1  0
 93 91  1  0
M  ISO  4   6 101   7 101  56 100  64 100
M  END
>  <TORSDO>  (90) 
F 21

>  <SCORE>  (90) 
-13.820

>  <name>  (90) 
90

>  <ligand_id>  (90) 
90

>  <original_smiles>  (90) 
[H]C(=NC(=O)C([H])([H])C([H])([H])Oc1c([H])c([H])c2c(c1[H])C([H])([H])N(C(=O)C([H])(N([H])C(=O)C([H])(N([H])C([H])([H])[H])C([H])([H])[H])C(C([H])([H])[H])(C([H])([H])[H])C([H])([H])[H])C([H])(C(=O)N([H])C1([H])c3c([H])c([H])c([H])c([H])c3C([H])([H])C([H])([H])C1([H])[H])C2([H])[H])C([H])([H])c1c([H])c([H])c([H])c(N([H])C(=O)N2C([H])([H])C([H])([H])C([H])([H])C([H])(n3nc(-c4c([H])c([H])c(Oc5c([H])c([H])c(F)c([H])c5F)c([H])c4[H])c(C(=O)N([H])[H])c3N([H])[H])C2([H])[H])c1F

>  <smiles>  (90) 
[H]C(=NC(=O)C([H])([H])C([H])([H])Oc1c([H])c([H])c2c(c1[H])C([H])([H])N(C(=O)C([H])(N([H])C(=O)C([H])(N([H])C([H])([H])[H])C([H])([H])[H])C(C([H])([H])[H])(C([H])([H])[H])C([H])([H])[H])C([H])(C(=O)N([H])C1([H])c3c([H])c([H])c([H])c([H])c3C([H])([H])C([H])([H])C1([H])[H])C2([H])[H])C([H])([H])c1c([H])c([H])c([H])c(N([H])C(=O)N2C([H])([H])C([H])([H])C([H])([H])C([H])(n3nc(-c4c([H])c([H])c(Oc5c([H])c([H])c(F)c([H])c5F)c([H])c4[H])c(C(=O)N([H])[H])c3N([H])[H])C2([H])[H])c1F

$$$$
91:0:0
     RDKit          3D

 95103  0  0  1  0  0  0  0  0999 V2000
  -28.3830  -22.1430   19.8680 C   0  0  0  0  0  0  0  0  0  0  0  0
  -28.3410  -20.9580   19.2800 N   0  0  0  0  0  0  0  0  0  0  0  0
  -28.0910  -22.3350   21.0450 O   0  0  0  0  0  0  0  0  0  0  0  0
  -28.5730  -20.9470   18.3030 H   0  0  0  0  0  0  0  0  0  0  0  0
  -27.8970  -19.7060   19.8710 C   0  0  0  0  0  2  0  0  0  0  0  0
  -29.8450  -19.3020   21.5020 C   0  0  0  0  0  3  0  0  0  0  0  0
  -31.1020  -17.1970   21.4710 C   0  0  0  0  0  3  0  0  0  0  0  0
  -29.0410  -18.8550   20.4230 C   0  0  0  0  0  0  0  0  0  0  0  0
  -30.3220  -16.7480   20.3780 C   0  0  0  0  0  0  0  0  0  0  0  0
  -30.8500  -18.4670   22.0330 C   0  0  0  0  0  0  0  0  0  0  0  0
  -29.2980  -17.5750   19.8740 C   0  0  0  0  0  0  0  0  0  0  0  0
  -31.5460  -18.8630   23.1290 F   0  0  0  0  0  0  0  0  0  0  0  0
  -28.5240  -17.1080   18.8630 F   0  0  0  0  0  0  0  0  0  0  0  0
  -31.2040  -14.3980   20.0030 C   0  0  0  0  0  0  0  0  0  0  0  0
  -30.8260  -12.2050   18.9550 C   0  0  0  0  0  2  0  0  0  0  0  0
  -29.8700  -12.4330   17.7660 C   0  0  0  0  0  2  0  0  0  0  0  0
  -28.3990  -12.3610   18.2250 C   0  0  0  0  0  2  0  0  0  0  0  0
  -28.1230  -13.2470   19.4730 C   0  0  0  0  0  3  0  0  0  0  0  0
  -29.1950  -13.0330   20.5660 C   0  0  0  0  0  2  0  0  0  0  0  0
  -30.5110  -13.2370   19.9410 N   0  0  0  0  0  0  0  0  0  0  0  0
  -32.4090  -14.4910   19.7360 O   0  0  0  0  0  0  0  0  0  0  0  0
  -30.3970  -15.4480   19.8030 N   0  0  0  0  0  0  0  0  0  0  0  0
  -29.6410  -15.2530   19.1680 H   0  0  0  0  0  0  0  0  0  0  0  0
  -25.8050  -14.0170   20.2600 C   0  0  0  0  0  0  0  0  0  0  0  0
  -24.7010  -13.3150   20.6680 C   0  0  0  0  0  0  0  0  0  0  0  0
  -25.0740  -11.9390   20.6250 C   0  0  0  0  0  0  0  0  0  0  0  0
  -26.7740  -13.0640   19.9940 N   0  0  0  0  0  0  0  0  0  0  0  0
  -26.3430  -11.8120   20.2710 N   0  0  0  0  0  0  0  0  0  0  0  0
  -24.2770  -10.7270   20.8480 C   0  0  0  0  0  0  0  0  0  0  0  0
  -24.6580   -9.7630   21.8060 C   0  0  0  0  0  3  0  0  0  0  0  0
  -23.8690   -8.6130   22.0120 C   0  0  0  0  0  3  0  0  0  0  0  0
  -22.6870   -8.4200   21.2600 C   0  0  0  0  0  0  0  0  0  0  0  0
  -22.3250   -9.3730   20.2910 C   0  0  0  0  0  3  0  0  0  0  0  0
  -23.1140  -10.5150   20.0830 C   0  0  0  0  0  3  0  0  0  0  0  0
  -21.8670   -7.3220   21.3740 O   0  0  0  0  0  0  0  0  0  0  0  0
  -21.7390   -6.6400   22.5560 C   0  0  0  0  0  0  0  0  0  0  0  0
  -21.3110   -7.2740   23.7430 C   0  0  0  0  0  3  0  0  0  0  0  0
  -21.1300   -6.5180   24.9180 C   0  0  0  0  0  3  0  0  0  0  0  0
  -21.3600   -5.1280   24.9060 C   0  0  0  0  0  0  0  0  0  0  0  0
  -21.7780   -4.4960   23.7210 C   0  0  0  0  0  3  0  0  0  0  0  0
  -21.9640   -5.2500   22.5500 C   0  0  0  0  0  0  0  0  0  0  0  0
  -22.3480   -4.6310   21.4070 F   0  0  0  0  0  0  0  0  0  0  0  0
  -21.1780   -4.3990   26.0310 F   0  0  0  0  0  0  0  0  0  0  0  0
  -23.3470  -13.8810   20.9880 C   0  0  0  0  0  0  0  0  0  0  0  0
  -22.6180  -13.2420   21.8980 N   0  0  0  0  0  0  0  0  0  0  0  0
  -22.9480  -14.9220   20.4660 O   0  0  0  0  0  0  0  0  0  0  0  0
  -22.9560  -12.4010   22.3380 H   0  0  0  0  0  0  0  0  0  0  0  0
  -21.7090  -13.6020   22.1540 H   0  0  0  0  0  0  0  0  0  0  0  0
  -26.0530  -15.3720   20.0800 N   0  0  0  0  0  0  0  0  0  0  0  0
  -25.3340  -16.0700   20.2460 H   0  0  0  0  0  0  0  0  0  0  0  0
  -26.9240  -15.7670   19.7480 H   0  0  0  0  0  0  0  0  0  0  0  0
  -28.8220  -23.2980   18.9740 C   0  0  0  0  0  2  0  0  0  0  0  0
  -28.0350  -24.5850   19.2700 C   0  0  0  0  0  2  0  0  0  0  0  0
  -28.6810  -25.5220   20.2700 C   0  0  0  0  0  2  0  0  0  0  0  0
  -28.4240  -26.9130   20.0870 O   0  0  0  0  0  0  0  0  0  0  0  0
  -24.6030  -31.9090   23.3370 C   0  0  0  0  0  0  0  0  0  0  0  0
  -27.1650  -27.4750   20.1860 C   0  0  0  0  0  0  0  0  0  0  0  0
  -23.3590  -30.5220   21.7370 C   0  0  0  0  0  3  0  0  0  0  0  0
  -24.7560  -28.9660   20.2600 C   0  0  0  0  0  0  0  0  0  0  0  0
  -25.8630  -30.8700   21.4480 C   0  0  0  0  0  2  0  0  0  0  0  0
  -25.9220  -29.4950   20.8170 C   0  0  0  0  0  0  0  0  0  0  0  0
  -27.1150  -28.7460   20.7890 C   0  0  0  0  0  3  0  0  0  0  0  0
  -25.9790  -26.9480   19.6080 C   0  0  0  0  0  3  0  0  0  0  0  0
  -24.7710  -27.6840   19.6850 C   0  0  0  0  0  3  0  0  0  0  0  0
  -23.5150  -29.8290   20.3530 C   0  0  0  0  0  2  0  0  0  0  0  0
  -24.6310  -31.1150   22.2360 N   0  0  0  0  0  0  0  0  0  0  0  0
  -23.5310  -32.1890   23.8930 O   0  0  0  0  0  0  0  0  0  0  0  0
  -22.7280  -29.5140   22.7160 C   0  0  0  0  0  0  0  0  0  0  0  0
  -21.4060  -29.4460   22.5970 N   0  0  0  0  0  0  0  0  0  0  0  0
  -23.3990  -28.8300   23.4810 O   0  0  0  0  0  0  0  0  0  0  0  0
  -21.0110  -30.1690   22.0070 H   0  0  0  0  0  0  0  0  0  0  0  0
  -17.9890  -27.9880   22.9310 C   0  0  0  0  0  0  0  0  0  0  0  0
  -20.4560  -28.4380   22.9790 C   0  0  0  0  0  3  0  0  0  0  0  0
  -20.7300  -26.9390   22.8100 C   0  0  0  0  0  2  0  0  0  0  0  0
  -19.6830  -26.3620   21.8270 C   0  0  0  0  0  2  0  0  0  0  0  0
  -18.2410  -26.6070   22.3300 C   0  0  0  0  0  2  0  0  0  0  0  0
  -19.0530  -28.8310   23.3400 C   0  0  0  0  0  0  0  0  0  0  0  0
  -18.7900  -30.0970   23.8930 C   0  0  0  0  0  3  0  0  0  0  0  0
  -17.4650  -30.5470   23.9960 C   0  0  0  0  0  3  0  0  0  0  0  0
  -16.4040  -29.7330   23.5600 C   0  0  0  0  0  3  0  0  0  0  0  0
  -16.6610  -28.4450   23.0560 C   0  0  0  0  0  3  0  0  0  0  0  0
  -25.9020  -32.5260   23.9280 C   0  0  0  0  0  3  0  0  0  0  0  0
  -25.6100  -33.9210   24.2800 N   0  0  0  0  0  0  0  0  0  0  0  0
  -25.9380  -34.9790   23.5260 C   0  0  0  0  0  0  0  0  0  0  0  0
  -26.5890  -34.8790   22.4830 O   0  0  0  0  0  0  0  0  0  0  0  0
  -25.0380  -34.0680   25.1000 H   0  0  0  0  0  0  0  0  0  0  0  0
  -24.2270  -36.7890   23.2040 C   0  0  0  0  0  1  0  0  0  0  0  0
  -25.4700  -36.3640   24.0040 C   0  0  0  0  0  3  0  0  0  0  0  0
  -27.6210  -37.2090   24.8240 C   0  0  0  0  0  1  0  0  0  0  0  0
  -26.5110  -37.4080   23.8950 N   0  0  0  0  0  0  0  0  0  0  0  0
  -26.1200  -38.3310   24.0650 H   0  0  0  0  0  0  0  0  0  0  0  0
  -26.4420  -31.7320   25.1770 C   0  0  1  0  0  0  0  0  0  0  0  0
  -25.3740  -31.4830   26.2680 C   0  0  0  0  0  1  0  0  0  0  0  0
  -27.0020  -30.3590   24.7400 C   0  0  0  0  0  1  0  0  0  0  0  0
  -27.6150  -32.5070   25.8210 C   0  0  0  0  0  1  0  0  0  0  0  0
  1  3  2  0
  2  1  1  0
  2  5  1  0
  4  2  1  0
  5  8  1  0
  6 10  1  0
  7 10  2  0
  8  6  2  0
  9  7  1  0
 10 12  1  0
 11  9  2  0
 11  8  1  0
 13 11  1  0
 15 20  1  0
 16 17  1  0
 16 15  1  0
 18 17  1  0
 18 27  1  0
 18 19  1  0
 20 14  1  0
 20 19  1  0
 21 14  2  0
 22 14  1  0
 22  9  1  0
 23 22  1  0
 24 25  2  0
 25 44  1  0
 26 25  1  0
 26 29  1  0
 27 24  1  0
 27 28  1  0
 28 26  2  0
 29 30  1  0
 30 31  2  0
 32 35  1  0
 32 31  1  0
 33 32  2  0
 34 33  1  0
 34 29  2  0
 35 36  1  0
 36 37  1  0
 37 38  2  0
 39 38  1  0
 39 43  1  0
 40 39  2  0
 41 36  2  0
 41 40  1  0
 42 41  1  0
 44 45  1  0
 45 48  1  0
 45 47  1  0
 46 44  2  0
 49 50  1  0
 49 24  1  0
 51 49  1  0
 52 53  1  0
 52  1  1  0
 53 54  1  0
 55 57  1  0
 55 54  1  0
 56 67  2  0
 57 62  1  0
 58 66  1  0
 58 68  1  0
 59 65  1  0
 59 61  1  0
 60 66  1  0
 61 60  1  0
 62 61  2  0
 63 64  1  0
 63 57  2  0
 64 59  2  0
 65 58  1  0
 66 56  1  0
 68 70  2  0
 69 68  1  0
 71 69  1  0
 72 81  2  0
 72 77  1  0
 73 69  1  0
 73 77  1  0
 74 73  1  0
 75 76  1  0
 75 74  1  0
 76 72  1  0
 77 78  2  0
 78 79  1  0
 80 79  2  0
 81 80  1  0
 82 56  1  0
 82 83  1  0
 82 92  1  0
 83 86  1  0
 84 88  1  0
 84 83  1  0
 85 84  2  0
 88 87  1  0
 90 88  1  0
 90 91  1  0
 90 89  1  0
 92 95  1  1
 92 93  1  0
 94 92  1  0
M  ISO  4  14 100  22 100  54 101  55 101
M  END
>  <TORSDO>  (91) 
F 21

>  <SCORE>  (91) 
-13.246

>  <name>  (91) 
91

>  <ligand_id>  (91) 
91

>  <original_smiles>  (91) 
[H]c1c([H])c([H])c2c(c1[H])C([H])([H])C([H])([H])C([H])([H])C2([H])N([H])C(=O)C1([H])N(C(=O)C([H])(N([H])C(=O)C([H])(N([H])C([H])([H])[H])C([H])([H])[H])C(C([H])([H])[H])(C([H])([H])[H])C([H])([H])[H])C([H])([H])c2c([H])c(OC([H])([H])C([H])([H])C([H])([H])C(=O)N([H])C([H])([H])c3c([H])c(F)c([H])c(N([H])C(=O)N4C([H])([H])C([H])([H])C([H])([H])C([H])(n5nc(-c6c([H])c([H])c(Oc7c([H])c([H])c(F)c([H])c7F)c([H])c6[H])c(C(=O)N([H])[H])c5N([H])[H])C4([H])[H])c3F)c([H])c([H])c2C1([H])[H]

>  <smiles>  (91) 
[H]c1c([H])c([H])c2c(c1[H])C([H])([H])C([H])([H])C([H])([H])C2([H])N([H])C(=O)C1([H])N(C(=O)C([H])(N([H])C(=O)C([H])(N([H])C([H])([H])[H])C([H])([H])[H])C(C([H])([H])[H])(C([H])([H])[H])C([H])([H])[H])C([H])([H])c2c([H])c(OC([H])([H])C([H])([H])C([H])([H])C(=O)N([H])C([H])([H])c3c([H])c(F)c([H])c(N([H])C(=O)N4C([H])([H])C([H])([H])C([H])([H])C([H])(n5nc(-c6c([H])c([H])c(Oc7c([H])c([H])c(F)c([H])c7F)c([H])c6[H])c(C(=O)N([H])[H])c5N([H])[H])C4([H])[H])c3F)c([H])c([H])c2C1([H])[H]

$$$$
92:0:0
     RDKit          3D

 97105  0  0  1  0  0  0  0  0999 V2000
  -28.7460  -21.1260   22.0030 C   0  0  0  0  0  1  0  0  0  0  0  0
  -29.8350  -21.1200   20.9240 C   0  0  0  0  0  3  0  0  0  0  0  0
  -30.3980  -22.5430   20.7150 C   0  0  0  0  0  0  0  0  0  0  0  0
  -31.4350  -23.0060   21.7220 C   0  0  0  0  0  1  0  0  0  0  0  0
  -30.0440  -23.3590   19.8000 N   0  0  0  0  0  0  0  0  0  0  0  0
  -29.0240  -23.0030   18.8300 C   0  0  0  0  0  2  0  0  0  0  0  0
  -28.6160  -24.2450   18.0170 C   0  0  0  0  0  2  0  0  0  0  0  0
  -27.9320  -25.3090   18.8870 C   0  0  0  0  0  2  0  0  0  0  0  0
  -27.9190  -26.5800   18.2380 O   0  0  0  0  0  0  0  0  0  0  0  0
  -25.5990  -30.4550   23.7270 C   0  0  0  0  0  0  0  0  0  0  0  0
  -26.9490  -27.4210   18.7240 C   0  0  0  0  0  0  0  0  0  0  0  0
  -23.9810  -30.1050   21.8880 C   0  0  0  0  0  3  0  0  0  0  0  0
  -24.9430  -29.1190   19.7420 C   0  0  0  0  0  0  0  0  0  0  0  0
  -26.4990  -30.1080   21.4300 C   0  0  0  0  0  2  0  0  0  0  0  0
  -26.2320  -29.1490   20.2900 C   0  0  0  0  0  0  0  0  0  0  0  0
  -27.2430  -28.3070   19.7790 C   0  0  0  0  0  3  0  0  0  0  0  0
  -25.6490  -27.4050   18.1730 C   0  0  0  0  0  3  0  0  0  0  0  0
  -24.6450  -28.2490   18.6810 C   0  0  0  0  0  3  0  0  0  0  0  0
  -23.9200  -30.0550   20.3380 C   0  0  0  0  0  2  0  0  0  0  0  0
  -25.3850  -30.2080   22.4040 N   0  0  0  0  0  0  0  0  0  0  0  0
  -24.6520  -30.6370   24.5060 O   0  0  0  0  0  0  0  0  0  0  0  0
  -23.2130  -28.8870   22.4500 C   0  0  0  0  0  0  0  0  0  0  0  0
  -21.8830  -28.8820   22.2660 N   0  0  0  0  0  0  0  0  0  0  0  0
  -23.8110  -27.9650   23.0110 O   0  0  0  0  0  0  0  0  0  0  0  0
  -21.4650  -29.6780   21.8020 H   0  0  0  0  0  0  0  0  0  0  0  0
  -18.4480  -27.7910   22.0900 C   0  0  0  0  0  0  0  0  0  0  0  0
  -20.9610  -27.8250   22.6800 C   0  0  0  0  0  3  0  0  0  0  0  0
  -21.0950  -26.5870   21.7640 C   0  0  0  0  0  2  0  0  0  0  0  0
  -20.1070  -26.5980   20.5940 C   0  0  0  0  0  2  0  0  0  0  0  0
  -18.6640  -26.6520   21.1080 C   0  0  0  0  0  2  0  0  0  0  0  0
  -19.5290  -28.3530   22.8170 C   0  0  0  0  0  0  0  0  0  0  0  0
  -19.2780  -29.4370   23.6870 C   0  0  0  0  0  3  0  0  0  0  0  0
  -17.9760  -29.9510   23.8390 C   0  0  0  0  0  3  0  0  0  0  0  0
  -16.9070  -29.3800   23.1300 C   0  0  0  0  0  3  0  0  0  0  0  0
  -17.1430  -28.3010   22.2600 C   0  0  0  0  0  3  0  0  0  0  0  0
  -27.0400  -30.5480   24.3200 C   0  0  0  0  0  3  0  0  0  0  0  0
  -27.1090  -31.7700   25.1330 N   0  0  0  0  0  0  0  0  0  0  0  0
  -27.7250  -32.8990   24.7560 C   0  0  0  0  0  0  0  0  0  0  0  0
  -28.3620  -32.9950   23.7020 O   0  0  0  0  0  0  0  0  0  0  0  0
  -26.5700  -31.7800   25.9870 H   0  0  0  0  0  0  0  0  0  0  0  0
  -26.5690  -35.0940   25.1420 C   0  0  0  0  0  1  0  0  0  0  0  0
  -27.6170  -34.1150   25.6940 C   0  0  0  0  0  3  0  0  0  0  0  0
  -29.8740  -34.0400   26.6610 C   0  0  0  0  0  1  0  0  0  0  0  0
  -28.9020  -34.8180   25.8960 N   0  0  0  0  0  0  0  0  0  0  0  0
  -28.7570  -35.7030   26.3770 H   0  0  0  0  0  0  0  0  0  0  0  0
  -27.4430  -29.2840   25.1730 C   0  0  1  0  0  0  0  0  0  0  0  0
  -26.4060  -28.9100   26.2560 C   0  0  0  0  0  1  0  0  0  0  0  0
  -27.6400  -28.0520   24.2590 C   0  0  0  0  0  1  0  0  0  0  0  0
  -28.8010  -29.5330   25.8690 C   0  0  0  0  0  1  0  0  0  0  0  0
  -30.8500  -20.1170   21.2570 N   0  0  0  0  0  0  0  0  0  0  0  0
  -30.7760  -19.7590   22.2000 H   0  0  0  0  0  0  0  0  0  0  0  0
  -31.7360  -17.2490   18.2860 C   0  0  0  0  0  3  0  0  0  0  0  0
  -31.9960  -18.6090   18.0570 C   0  0  0  0  0  3  0  0  0  0  0  0
  -30.8670  -17.7730   20.5110 C   0  0  0  0  0  0  0  0  0  0  0  0
  -31.1620  -16.8060   19.5070 C   0  0  0  0  0  0  0  0  0  0  0  0
  -31.1310  -19.1540   20.2730 C   0  0  0  0  0  0  0  0  0  0  0  0
  -31.6950  -19.5570   19.0400 C   0  0  0  0  0  0  0  0  0  0  0  0
  -30.2720  -17.3070   21.8400 C   0  0  0  0  0  1  0  0  0  0  0  0
  -31.9840  -20.8580   18.7950 F   0  0  0  0  0  0  0  0  0  0  0  0
  -31.3380  -14.3110   19.1920 C   0  0  0  0  0  0  0  0  0  0  0  0
  -30.9620  -11.9230   18.7140 C   0  0  0  0  0  2  0  0  0  0  0  0
  -29.9130  -11.7750   17.5950 C   0  0  0  0  0  2  0  0  0  0  0  0
  -28.4960  -11.7390   18.1960 C   0  0  0  0  0  2  0  0  0  0  0  0
  -28.2400  -12.9020   19.1920 C   0  0  0  0  0  3  0  0  0  0  0  0
  -29.3990  -13.0360   20.2070 C   0  0  0  0  0  2  0  0  0  0  0  0
  -30.6640  -13.1600   19.4590 N   0  0  0  0  0  0  0  0  0  0  0  0
  -32.3170  -14.3240   18.4440 O   0  0  0  0  0  0  0  0  0  0  0  0
  -30.8630  -15.4270   19.7790 N   0  0  0  0  0  0  0  0  0  0  0  0
  -30.1050  -15.2650   20.4230 H   0  0  0  0  0  0  0  0  0  0  0  0
  -26.0500  -13.7210   20.2730 C   0  0  0  0  0  0  0  0  0  0  0  0
  -24.9730  -13.0470   20.7820 C   0  0  0  0  0  0  0  0  0  0  0  0
  -25.2750  -11.6580   20.6460 C   0  0  0  0  0  0  0  0  0  0  0  0
  -26.9510  -12.7490   19.8630 N   0  0  0  0  0  0  0  0  0  0  0  0
  -26.4940  -11.5000   20.1430 N   0  0  0  0  0  0  0  0  0  0  0  0
  -24.4540  -10.4690   20.9150 C   0  0  0  0  0  0  0  0  0  0  0  0
  -24.7990   -9.5490   21.9300 C   0  0  0  0  0  3  0  0  0  0  0  0
  -23.9840   -8.4240   22.1830 C   0  0  0  0  0  3  0  0  0  0  0  0
  -22.8110   -8.2120   21.4220 C   0  0  0  0  0  0  0  0  0  0  0  0
  -22.4850   -9.1190   20.3970 C   0  0  0  0  0  3  0  0  0  0  0  0
  -23.2990  -10.2350   20.1430 C   0  0  0  0  0  3  0  0  0  0  0  0
  -21.9730   -7.1340   21.5790 O   0  0  0  0  0  0  0  0  0  0  0  0
  -21.6910   -6.6160   22.8180 C   0  0  0  0  0  0  0  0  0  0  0  0
  -21.1040   -7.4000   23.8360 C   0  0  0  0  0  3  0  0  0  0  0  0
  -20.7670   -6.8100   25.0710 C   0  0  0  0  0  3  0  0  0  0  0  0
  -21.0040   -5.4390   25.2850 C   0  0  0  0  0  0  0  0  0  0  0  0
  -21.5830   -4.6560   24.2700 C   0  0  0  0  0  3  0  0  0  0  0  0
  -21.9220   -5.2440   23.0390 C   0  0  0  0  0  0  0  0  0  0  0  0
  -22.4590   -4.4820   22.0570 F   0  0  0  0  0  0  0  0  0  0  0  0
  -20.6730   -4.8710   26.4680 F   0  0  0  0  0  0  0  0  0  0  0  0
  -23.6910  -13.6520   21.2780 C   0  0  0  0  0  0  0  0  0  0  0  0
  -23.0690  -13.0370   22.2790 N   0  0  0  0  0  0  0  0  0  0  0  0
  -23.2590  -14.7050   20.8120 O   0  0  0  0  0  0  0  0  0  0  0  0
  -23.4340  -12.1850   22.6780 H   0  0  0  0  0  0  0  0  0  0  0  0
  -22.2160  -13.4260   22.6530 H   0  0  0  0  0  0  0  0  0  0  0  0
  -26.3330  -15.0730   20.1050 N   0  0  0  0  0  0  0  0  0  0  0  0
  -25.6620  -15.7970   20.3390 H   0  0  0  0  0  0  0  0  0  0  0  0
  -27.1630  -15.4360   19.6540 H   0  0  0  0  0  0  0  0  0  0  0  0
  2 50  1  0
  2  1  1  0
  3  2  1  0
  3  4  1  0
  5  3  2  0
  6  5  1  0
  7  6  1  0
  7  8  1  0
  9 11  1  0
  9  8  1  0
 10 21  2  0
 11 16  1  0
 12 20  1  0
 12 22  1  0
 13 15  1  0
 13 19  1  0
 14 20  1  0
 15 14  1  0
 16 15  2  0
 17 18  1  0
 17 11  2  0
 18 13  2  0
 19 12  1  0
 20 10  1  0
 22 24  2  0
 23 22  1  0
 25 23  1  0
 26 35  2  0
 26 31  1  0
 27 23  1  0
 27 31  1  0
 28 27  1  0
 29 30  1  0
 29 28  1  0
 30 26  1  0
 31 32  2  0
 32 33  1  0
 34 33  2  0
 35 34  1  0
 36 10  1  0
 36 37  1  0
 36 46  1  0
 37 40  1  0
 38 37  1  0
 38 42  1  0
 39 38  2  0
 42 41  1  0
 42 44  1  0
 44 45  1  0
 44 43  1  0
 46 49  1  1
 46 47  1  0
 48 46  1  0
 50 51  1  0
 52 55  1  0
 53 52  2  0
 53 57  1  0
 54 58  1  0
 55 68  1  0
 55 54  2  0
 56 54  1  0
 56 50  1  0
 57 56  2  0
 59 57  1  0
 60 66  1  0
 60 68  1  0
 61 66  1  0
 62 63  1  0
 62 61  1  0
 64 63  1  0
 64 73  1  0
 64 65  1  0
 66 65  1  0
 67 60  2  0
 68 69  1  0
 70 71  2  0
 71 90  1  0
 72 71  1  0
 72 75  1  0
 73 74  1  0
 73 70  1  0
 74 72  2  0
 75 76  1  0
 76 77  2  0
 78 81  1  0
 78 77  1  0
 79 78  2  0
 80 79  1  0
 80 75  2  0
 81 82  1  0
 82 87  2  0
 82 83  1  0
 83 84  2  0
 84 85  1  0
 85 89  1  0
 86 85  2  0
 87 86  1  0
 88 87  1  0
 90 91  1  0
 91 94  1  0
 91 93  1  0
 92 90  2  0
 95 70  1  0
 95 96  1  0
 97 95  1  0
M  ISO  4   8 101   9 101  60 100  68 100
M  END
>  <TORSDO>  (92) 
F 22

>  <SCORE>  (92) 
-9.231

>  <name>  (92) 
92

>  <ligand_id>  (92) 
92

>  <original_smiles>  (92) 
[H]c1c([H])c([H])c2c(c1[H])C([H])([H])C([H])([H])C([H])([H])C2([H])N([H])C(=O)C1([H])N(C(=O)C([H])(N([H])C(=O)C([H])(N([H])C([H])([H])[H])C([H])([H])[H])C(C([H])([H])[H])(C([H])([H])[H])C([H])([H])[H])C([H])([H])c2c([H])c(OC([H])([H])C([H])([H])C([H])([H])N=C(C([H])([H])[H])C([H])(N([H])c3c(F)c([H])c([H])c(N([H])C(=O)N4C([H])([H])C([H])([H])C([H])([H])C([H])(n5nc(-c6c([H])c([H])c(Oc7c([H])c([H])c(F)c([H])c7F)c([H])c6[H])c(C(=O)N([H])[H])c5N([H])[H])C4([H])[H])c3C([H])([H])[H])C([H])([H])[H])c([H])c([H])c2C1([H])[H]

>  <smiles>  (92) 
[H]c1c([H])c([H])c2c(c1[H])C([H])([H])C([H])([H])C([H])([H])C2([H])N([H])C(=O)C1([H])N(C(=O)C([H])(N([H])C(=O)C([H])(N([H])C([H])([H])[H])C([H])([H])[H])C(C([H])([H])[H])(C([H])([H])[H])C([H])([H])[H])C([H])([H])c2c([H])c(OC([H])([H])C([H])([H])C([H])([H])N=C(C([H])([H])[H])C([H])(N([H])c3c(F)c([H])c([H])c(N([H])C(=O)N4C([H])([H])C([H])([H])C([H])([H])C([H])(n5nc(-c6c([H])c([H])c(Oc7c([H])c([H])c(F)c([H])c7F)c([H])c6[H])c(C(=O)N([H])[H])c5N([H])[H])C4([H])[H])c3C([H])([H])[H])C([H])([H])[H])c([H])c([H])c2C1([H])[H]

$$$$
93:0:0
     RDKit          3D

 97105  0  0  1  0  0  0  0  0999 V2000
  -29.0850  -23.2270   20.3620 C   0  0  0  0  0  0  0  0  0  0  0  0
  -29.2010  -21.9530   20.9010 N   0  0  0  0  0  0  0  0  0  0  0  0
  -29.1060  -23.4190   19.1470 O   0  0  0  0  0  0  0  0  0  0  0  0
  -28.9900  -21.9330   21.8860 H   0  0  0  0  0  0  0  0  0  0  0  0
  -30.0860  -20.4610   19.1270 C   0  0  0  0  0  3  0  0  0  0  0  0
  -30.4940  -19.0840   19.1020 C   0  0  0  0  0  0  0  0  0  0  0  0
  -30.0830  -18.4750   20.2780 C   0  0  0  0  0  0  0  0  0  0  0  0
  -29.5480  -20.7110   20.3590 C   0  0  0  0  0  0  0  0  0  0  0  0
  -29.5320  -19.5030   21.0710 O   0  0  0  0  0  0  0  0  0  0  0  0
  -30.6580  -14.6950   20.4150 C   0  0  0  0  0  0  0  0  0  0  0  0
  -30.3660  -12.4430   19.3720 C   0  0  0  0  0  2  0  0  0  0  0  0
  -29.4310  -12.5080   18.1490 C   0  0  0  0  0  2  0  0  0  0  0  0
  -27.9650  -12.3470   18.6000 C   0  0  0  0  0  2  0  0  0  0  0  0
  -27.5940  -13.2640   19.7970 C   0  0  0  0  0  3  0  0  0  0  0  0
  -28.6560  -13.2100   20.9150 C   0  0  0  0  0  2  0  0  0  0  0  0
  -29.9460  -13.5230   20.2910 N   0  0  0  0  0  0  0  0  0  0  0  0
  -31.8670  -14.6950   20.1790 O   0  0  0  0  0  0  0  0  0  0  0  0
  -30.4780  -17.1110   20.8910 C   0  0  0  0  0  0  0  0  0  0  0  0
  -29.9740  -15.8920   20.4890 N   0  0  0  0  0  0  0  0  0  0  0  0
  -31.3190  -17.1610   21.7940 O   0  0  0  0  0  0  0  0  0  0  0  0
  -29.0320  -15.8950   20.1460 H   0  0  0  0  0  0  0  0  0  0  0  0
  -25.2060  -13.8670   20.5230 C   0  0  0  0  0  0  0  0  0  0  0  0
  -24.1350  -13.0990   20.8890 C   0  0  0  0  0  0  0  0  0  0  0  0
  -24.5940  -11.7470   20.8690 C   0  0  0  0  0  0  0  0  0  0  0  0
  -26.2500  -12.9860   20.2960 N   0  0  0  0  0  0  0  0  0  0  0  0
  -25.8880  -11.7040   20.5690 N   0  0  0  0  0  0  0  0  0  0  0  0
  -23.8650  -10.4870   21.0640 C   0  0  0  0  0  0  0  0  0  0  0  0
  -24.3070   -9.5140   21.9880 C   0  0  0  0  0  3  0  0  0  0  0  0
  -23.5780   -8.3180   22.1700 C   0  0  0  0  0  3  0  0  0  0  0  0
  -22.3930   -8.0880   21.4300 C   0  0  0  0  0  0  0  0  0  0  0  0
  -21.9690   -9.0530   20.4990 C   0  0  0  0  0  3  0  0  0  0  0  0
  -22.6970  -10.2390   20.3140 C   0  0  0  0  0  3  0  0  0  0  0  0
  -21.6340   -6.9460   21.5220 O   0  0  0  0  0  0  0  0  0  0  0  0
  -21.6150   -6.1850   22.6630 C   0  0  0  0  0  0  0  0  0  0  0  0
  -21.2520   -6.7260   23.9150 C   0  0  0  0  0  3  0  0  0  0  0  0
  -21.1780   -5.8930   25.0500 C   0  0  0  0  0  3  0  0  0  0  0  0
  -21.4600   -4.5200   24.9340 C   0  0  0  0  0  0  0  0  0  0  0  0
  -21.8170   -3.9770   23.6860 C   0  0  0  0  0  3  0  0  0  0  0  0
  -21.8930   -4.8080   22.5560 C   0  0  0  0  0  0  0  0  0  0  0  0
  -22.2180   -4.2760   21.3540 F   0  0  0  0  0  0  0  0  0  0  0  0
  -21.3830   -3.7170   26.0210 F   0  0  0  0  0  0  0  0  0  0  0  0
  -22.7390  -13.5840   21.1490 C   0  0  0  0  0  0  0  0  0  0  0  0
  -22.0030  -12.8960   22.0170 N   0  0  0  0  0  0  0  0  0  0  0  0
  -22.3080  -14.6060   20.6180 O   0  0  0  0  0  0  0  0  0  0  0  0
  -22.3670  -12.0700   22.4730 H   0  0  0  0  0  0  0  0  0  0  0  0
  -21.0700  -13.2050   22.2350 H   0  0  0  0  0  0  0  0  0  0  0  0
  -25.3750  -15.2370   20.3410 N   0  0  0  0  0  0  0  0  0  0  0  0
  -24.6210  -15.8970   20.4800 H   0  0  0  0  0  0  0  0  0  0  0  0
  -26.2300  -15.6800   20.0320 H   0  0  0  0  0  0  0  0  0  0  0  0
  -31.3190  -18.4020   18.0670 C   0  0  0  0  0  0  0  0  0  0  0  0
  -32.3110  -19.2710   17.2790 C   0  0  0  0  0  1  0  0  0  0  0  0
  -31.2590  -17.1920   17.8530 O   0  0  0  0  0  0  0  0  0  0  0  0
  -28.5810  -25.6450   21.2250 C   0  0  0  0  0  3  0  0  0  0  0  0
  -28.9140  -24.3080   21.3850 C   0  0  0  0  0  0  0  0  0  0  0  0
  -29.1730  -23.9560   22.6560 O   0  0  0  0  0  0  0  0  0  0  0  0
  -29.8590  -23.2970   22.6290 H   0  0  0  0  0  0  0  0  0  0  0  0
  -28.3300  -26.4560   20.1160 O   0  0  0  0  0  0  0  0  0  0  0  0
  -24.6210  -31.8730   23.2240 C   0  0  0  0  0  0  0  0  0  0  0  0
  -27.2380  -27.3320   20.1600 C   0  0  0  0  0  0  0  0  0  0  0  0
  -23.4140  -30.4740   21.5810 C   0  0  0  0  0  3  0  0  0  0  0  0
  -24.8690  -28.9250   20.1530 C   0  0  0  0  0  0  0  0  0  0  0  0
  -25.9490  -30.8000   21.3900 C   0  0  0  0  0  2  0  0  0  0  0  0
  -26.0330  -29.4160   20.7600 C   0  0  0  0  0  0  0  0  0  0  0  0
  -27.2240  -28.6280   20.7600 C   0  0  0  0  0  3  0  0  0  0  0  0
  -26.0560  -26.8900   19.5330 C   0  0  0  0  0  3  0  0  0  0  0  0
  -24.8770  -27.6650   19.5340 C   0  0  0  0  0  3  0  0  0  0  0  0
  -23.6320  -29.8010   20.1980 C   0  0  0  0  0  2  0  0  0  0  0  0
  -24.6810  -31.0680   22.1210 N   0  0  0  0  0  0  0  0  0  0  0  0
  -23.5420  -32.1450   23.7680 O   0  0  0  0  0  0  0  0  0  0  0  0
  -22.7530  -29.4560   22.5430 C   0  0  0  0  0  0  0  0  0  0  0  0
  -21.4240  -29.2850   22.4330 N   0  0  0  0  0  0  0  0  0  0  0  0
  -23.4370  -28.8230   23.3530 O   0  0  0  0  0  0  0  0  0  0  0  0
  -20.9290  -29.8500   21.7580 H   0  0  0  0  0  0  0  0  0  0  0  0
  -18.0490  -28.0870   22.9460 C   0  0  0  0  0  0  0  0  0  0  0  0
  -20.6100  -28.3480   23.2100 C   0  0  0  0  0  3  0  0  0  0  0  0
  -20.7110  -26.9140   22.6410 C   0  0  0  0  0  2  0  0  0  0  0  0
  -19.6090  -26.5870   21.6320 C   0  0  0  0  0  2  0  0  0  0  0  0
  -18.2280  -26.7330   22.2780 C   0  0  0  0  0  2  0  0  0  0  0  0
  -19.1680  -28.8510   23.3710 C   0  0  0  0  0  0  0  0  0  0  0  0
  -18.9510  -30.1150   23.9590 C   0  0  0  0  0  3  0  0  0  0  0  0
  -17.6460  -30.6130   24.1320 C   0  0  0  0  0  3  0  0  0  0  0  0
  -16.5410  -29.8450   23.7250 C   0  0  0  0  0  3  0  0  0  0  0  0
  -16.7440  -28.5860   23.1330 C   0  0  0  0  0  3  0  0  0  0  0  0
  -25.9070  -32.5100   23.8380 C   0  0  0  0  0  3  0  0  0  0  0  0
  -26.4410  -31.7320   25.1030 C   0  0  1  0  0  0  0  0  0  0  0  0
  -25.3650  -31.4900   26.1850 C   0  0  0  0  0  1  0  0  0  0  0  0
  -27.0260  -30.3570   24.7040 C   0  0  0  0  0  1  0  0  0  0  0  0
  -27.5970  -32.5250   25.7590 C   0  0  0  0  0  1  0  0  0  0  0  0
  -25.5960  -33.9060   24.1830 N   0  0  0  0  0  0  0  0  0  0  0  0
  -25.9120  -34.9620   23.4230 C   0  0  0  0  0  0  0  0  0  0  0  0
  -26.5700  -34.8680   22.3820 O   0  0  0  0  0  0  0  0  0  0  0  0
  -25.0160  -34.0520   24.9960 H   0  0  0  0  0  0  0  0  0  0  0  0
  -24.1730  -36.7530   23.0960 C   0  0  0  0  0  1  0  0  0  0  0  0
  -25.4240  -36.3480   23.8910 C   0  0  0  0  0  3  0  0  0  0  0  0
  -27.5690  -37.2370   24.6970 C   0  0  0  0  0  1  0  0  0  0  0  0
  -26.4510  -37.4070   23.7720 N   0  0  0  0  0  0  0  0  0  0  0  0
  -26.0410  -38.3240   23.9400 H   0  0  0  0  0  0  0  0  0  0  0  0
  1  2  1  0
  1 54  1  0
  2  4  1  0
  3  1  2  0
  5  8  2  0
  6  5  1  0
  6  7  2  0
  7 18  1  0
  7  9  1  0
  8  2  1  0
  8  9  1  0
 10 19  1  0
 11 16  1  0
 12 13  1  0
 12 11  1  0
 14 13  1  0
 14 25  1  0
 14 15  1  0
 16 10  1  0
 16 15  1  0
 17 10  2  0
 18 20  2  0
 19 18  1  0
 21 19  1  0
 22 23  2  0
 23 42  1  0
 24 23  1  0
 24 27  1  0
 25 22  1  0
 25 26  1  0
 26 24  2  0
 27 28  1  0
 28 29  2  0
 30 33  1  0
 30 29  1  0
 31 30  2  0
 32 31  1  0
 32 27  2  0
 33 34  1  0
 34 35  1  0
 35 36  2  0
 37 36  1  0
 37 41  1  0
 38 37  2  0
 39 34  2  0
 39 38  1  0
 40 39  1  0
 42 43  1  0
 43 46  1  0
 43 45  1  0
 44 42  2  0
 47 48  1  0
 47 22  1  0
 49 47  1  0
 50  6  1  0
 51 50  1  0
 52 50  2  0
 53 54  2  0
 54 55  1  0
 56 55  1  0
 57 59  1  0
 57 53  1  0
 58 69  2  0
 59 64  1  0
 60 68  1  0
 60 70  1  0
 61 67  1  0
 61 63  1  0
 62 68  1  0
 63 64  2  0
 63 62  1  0
 65 66  1  0
 65 59  2  0
 66 61  2  0
 67 60  1  0
 68 58  1  0
 70 72  2  0
 71 70  1  0
 73 71  1  0
 74 83  2  0
 74 79  1  0
 75 71  1  0
 75 79  1  0
 76 75  1  0
 77 78  1  0
 77 76  1  0
 78 74  1  0
 79 80  2  0
 80 81  1  0
 82 81  2  0
 83 82  1  0
 84 58  1  0
 84 89  1  0
 84 85  1  0
 85 88  1  1
 85 86  1  0
 87 85  1  0
 89 92  1  0
 90 94  1  0
 90 89  1  0
 91 90  2  0
 94 93  1  0
 96 94  1  0
 96 97  1  0
 96 95  1  0
M  ISO  4  10 100  19 100  53 101  57 101
M  END
>  <TORSDO>  (93) 
F 20

>  <SCORE>  (93) 
-14.402

>  <name>  (93) 
93

>  <ligand_id>  (93) 
93

>  <original_smiles>  (93) 
[H]OC(C(=O)N([H])c1oc(C(=O)N([H])C(=O)N2C([H])([H])C([H])([H])C([H])([H])C([H])(n3nc(-c4c([H])c([H])c(Oc5c([H])c([H])c(F)c([H])c5F)c([H])c4[H])c(C(=O)N([H])[H])c3N([H])[H])C2([H])[H])c(C(=O)C([H])([H])[H])c1[H])=C([H])Oc1c([H])c([H])c2c(c1[H])C([H])([H])N(C(=O)C([H])(N([H])C(=O)C([H])(N([H])C([H])([H])[H])C([H])([H])[H])C(C([H])([H])[H])(C([H])([H])[H])C([H])([H])[H])C([H])(C(=O)N([H])C1([H])c3c([H])c([H])c([H])c([H])c3C([H])([H])C([H])([H])C1([H])[H])C2([H])[H]

>  <smiles>  (93) 
[H]OC(C(=O)N([H])c1oc(C(=O)N([H])C(=O)N2C([H])([H])C([H])([H])C([H])([H])C([H])(n3nc(-c4c([H])c([H])c(Oc5c([H])c([H])c(F)c([H])c5F)c([H])c4[H])c(C(=O)N([H])[H])c3N([H])[H])C2([H])[H])c(C(=O)C([H])([H])[H])c1[H])=C([H])Oc1c([H])c([H])c2c(c1[H])C([H])([H])N(C(=O)C([H])(N([H])C(=O)C([H])(N([H])C([H])([H])[H])C([H])([H])[H])C(C([H])([H])[H])(C([H])([H])[H])C([H])([H])[H])C([H])(C(=O)N([H])C1([H])c3c([H])c([H])c([H])c([H])c3C([H])([H])C([H])([H])C1([H])[H])C2([H])[H]

$$$$
94:0:0
     RDKit          3D

 96104  0  0  1  0  0  0  0  0999 V2000
  -28.8540  -20.2030   19.2420 C   0  0  0  0  0  0  0  0  0  0  0  0
  -28.9620  -18.9360   19.7690 N   0  0  0  0  0  0  0  0  0  0  0  0
  -28.1870  -20.3230   18.2130 O   0  0  0  0  0  0  0  0  0  0  0  0
  -28.6320  -18.2360   19.1190 H   0  0  0  0  0  0  0  0  0  0  0  0
  -30.4470  -18.6780   23.2380 C   0  0  0  0  0  3  0  0  0  0  0  0
  -30.6250  -16.5190   22.1710 C   0  0  0  0  0  3  0  0  0  0  0  0
  -29.7010  -19.1690   22.1520 C   0  0  0  0  0  0  0  0  0  0  0  0
  -29.8650  -16.9590   21.0560 C   0  0  0  0  0  0  0  0  0  0  0  0
  -29.5300  -18.3730   20.9720 C   0  0  0  0  0  0  0  0  0  0  0  0
  -30.9490  -17.3770   23.2290 C   0  0  0  0  0  0  0  0  0  0  0  0
  -29.0190  -20.5070   22.4120 C   0  0  0  0  0  1  0  0  0  0  0  0
  -31.6670  -16.9230   24.2800 F   0  0  0  0  0  0  0  0  0  0  0  0
  -30.0420  -14.8570   19.6420 C   0  0  0  0  0  0  0  0  0  0  0  0
  -29.6570  -12.7220   18.4100 C   0  0  0  0  0  2  0  0  0  0  0  0
  -28.5190  -12.8880   17.3830 C   0  0  0  0  0  2  0  0  0  0  0  0
  -27.1470  -12.6410   18.0420 C   0  0  0  0  0  2  0  0  0  0  0  0
  -26.9830  -13.3960   19.3890 C   0  0  0  0  0  3  0  0  0  0  0  0
  -28.2220  -13.2280   20.2950 C   0  0  0  0  0  2  0  0  0  0  0  0
  -29.3890  -13.6610   19.5170 N   0  0  0  0  0  0  0  0  0  0  0  0
  -31.1360  -15.0450   19.1050 O   0  0  0  0  0  0  0  0  0  0  0  0
  -29.3490  -15.9140   20.1780 N   0  0  0  0  0  0  0  0  0  0  0  0
  -28.3530  -15.7670   20.2380 H   0  0  0  0  0  0  0  0  0  0  0  0
  -24.7140  -13.8190   20.5160 C   0  0  0  0  0  0  0  0  0  0  0  0
  -23.7590  -12.9680   21.0000 C   0  0  0  0  0  0  0  0  0  0  0  0
  -24.2780  -11.6490   20.8220 C   0  0  0  0  0  0  0  0  0  0  0  0
  -25.7500  -13.0140   20.0710 N   0  0  0  0  0  0  0  0  0  0  0  0
  -25.5040  -11.7010   20.3160 N   0  0  0  0  0  0  0  0  0  0  0  0
  -23.6550  -10.3390   21.0490 C   0  0  0  0  0  0  0  0  0  0  0  0
  -24.1710   -9.4310   22.0000 C   0  0  0  0  0  3  0  0  0  0  0  0
  -23.5430   -8.1850   22.2160 C   0  0  0  0  0  3  0  0  0  0  0  0
  -22.3860   -7.8380   21.4780 C   0  0  0  0  0  0  0  0  0  0  0  0
  -21.8890   -8.7360   20.5170 C   0  0  0  0  0  3  0  0  0  0  0  0
  -22.5180   -9.9730   20.3010 C   0  0  0  0  0  3  0  0  0  0  0  0
  -21.7230   -6.6410   21.6020 O   0  0  0  0  0  0  0  0  0  0  0  0
  -21.6350   -5.9880   22.8050 C   0  0  0  0  0  0  0  0  0  0  0  0
  -20.9950   -6.5680   23.9220 C   0  0  0  0  0  3  0  0  0  0  0  0
  -20.8660   -5.8330   25.1180 C   0  0  0  0  0  3  0  0  0  0  0  0
  -21.3670   -4.5190   25.1960 C   0  0  0  0  0  0  0  0  0  0  0  0
  -21.9990   -3.9400   24.0820 C   0  0  0  0  0  3  0  0  0  0  0  0
  -22.1300   -4.6710   22.8880 C   0  0  0  0  0  0  0  0  0  0  0  0
  -22.7210   -4.1010   21.8110 F   0  0  0  0  0  0  0  0  0  0  0  0
  -21.2360   -3.8110   26.3400 F   0  0  0  0  0  0  0  0  0  0  0  0
  -22.4010  -13.3510   21.5100 C   0  0  0  0  0  0  0  0  0  0  0  0
  -21.8580  -12.5780   22.4420 N   0  0  0  0  0  0  0  0  0  0  0  0
  -21.8350  -14.3710   21.1190 O   0  0  0  0  0  0  0  0  0  0  0  0
  -22.3350  -11.7570   22.7810 H   0  0  0  0  0  0  0  0  0  0  0  0
  -20.9520  -12.8120   22.8220 H   0  0  0  0  0  0  0  0  0  0  0  0
  -24.7800  -15.2040   20.3980 N   0  0  0  0  0  0  0  0  0  0  0  0
  -24.0050  -15.8000   20.6730 H   0  0  0  0  0  0  0  0  0  0  0  0
  -25.5410  -15.7160   19.9710 H   0  0  0  0  0  0  0  0  0  0  0  0
  -29.5150  -21.5230   19.7790 C   0  0  0  0  0  2  0  0  0  0  0  0
  -28.5140  -22.7270   20.0860 C   0  0  0  0  0  2  0  0  0  0  0  0
  -28.9520  -24.2210   19.8490 C   0  0  0  0  0  0  0  0  0  0  0  0
  -29.9890  -24.4830   19.2320 O   0  0  0  0  0  0  0  0  0  0  0  0
  -28.0420  -25.3650   20.4320 C   0  0  0  0  0  2  0  0  0  0  0  0
  -28.2770  -26.7440   19.9500 O   0  0  0  0  0  0  0  0  0  0  0  0
  -24.5600  -31.9910   23.2230 C   0  0  0  0  0  0  0  0  0  0  0  0
  -27.1540  -27.5760   19.9730 C   0  0  0  0  0  0  0  0  0  0  0  0
  -23.3300  -30.6140   21.5820 C   0  0  0  0  0  3  0  0  0  0  0  0
  -24.7610  -29.1260   20.0730 C   0  0  0  0  0  0  0  0  0  0  0  0
  -25.8520  -30.9880   21.3260 C   0  0  0  0  0  2  0  0  0  0  0  0
  -25.9370  -29.6280   20.6450 C   0  0  0  0  0  0  0  0  0  0  0  0
  -27.1400  -28.8650   20.5830 C   0  0  0  0  0  3  0  0  0  0  0  0
  -25.9610  -27.1250   19.3710 C   0  0  0  0  0  3  0  0  0  0  0  0
  -24.7720  -27.8790   19.4260 C   0  0  0  0  0  3  0  0  0  0  0  0
  -23.5130  -29.9770   20.1780 C   0  0  0  0  0  2  0  0  0  0  0  0
  -24.6000  -31.2120   22.1020 N   0  0  0  0  0  0  0  0  0  0  0  0
  -23.4890  -32.2390   23.7970 O   0  0  0  0  0  0  0  0  0  0  0  0
  -22.7110  -29.5640   22.5320 C   0  0  0  0  0  0  0  0  0  0  0  0
  -21.3900  -29.3470   22.4120 N   0  0  0  0  0  0  0  0  0  0  0  0
  -23.4180  -28.9490   23.3360 O   0  0  0  0  0  0  0  0  0  0  0  0
  -20.8810  -29.9110   21.7460 H   0  0  0  0  0  0  0  0  0  0  0  0
  -18.0600  -28.0250   22.9180 C   0  0  0  0  0  0  0  0  0  0  0  0
  -20.6090  -28.3630   23.1620 C   0  0  0  0  0  3  0  0  0  0  0  0
  -20.7570  -26.9450   22.5550 C   0  0  0  0  0  2  0  0  0  0  0  0
  -19.6460  -26.5830   21.5670 C   0  0  0  0  0  2  0  0  0  0  0  0
  -18.2730  -26.6850   22.2370 C   0  0  0  0  0  2  0  0  0  0  0  0
  -19.1570  -28.8160   23.3430 C   0  0  0  0  0  0  0  0  0  0  0  0
  -18.9040  -30.0620   23.9560 C   0  0  0  0  0  3  0  0  0  0  0  0
  -17.5860  -30.5150   24.1490 C   0  0  0  0  0  3  0  0  0  0  0  0
  -16.5020  -29.7220   23.7340 C   0  0  0  0  0  3  0  0  0  0  0  0
  -16.7400  -28.4790   23.1200 C   0  0  0  0  0  3  0  0  0  0  0  0
  -25.8510  -32.6280   23.8230 C   0  0  0  0  0  3  0  0  0  0  0  0
  -25.5490  -34.0280   24.1470 N   0  0  0  0  0  0  0  0  0  0  0  0
  -25.8770  -35.0750   23.3770 C   0  0  0  0  0  0  0  0  0  0  0  0
  -26.5370  -34.9600   22.3400 O   0  0  0  0  0  0  0  0  0  0  0  0
  -24.9640  -34.1930   24.9530 H   0  0  0  0  0  0  0  0  0  0  0  0
  -24.1620  -36.8780   23.0120 C   0  0  0  0  0  1  0  0  0  0  0  0
  -25.4000  -36.4690   23.8280 C   0  0  0  0  0  3  0  0  0  0  0  0
  -27.5330  -37.3510   24.6650 C   0  0  0  0  0  1  0  0  0  0  0  0
  -26.4410  -37.5140   23.7100 N   0  0  0  0  0  0  0  0  0  0  0  0
  -26.0410  -38.4390   23.8390 H   0  0  0  0  0  0  0  0  0  0  0  0
  -26.3790  -31.8670   25.0990 C   0  0  1  0  0  0  0  0  0  0  0  0
  -25.2930  -31.6290   26.1750 C   0  0  0  0  0  1  0  0  0  0  0  0
  -26.9650  -30.4910   24.7110 C   0  0  0  0  0  1  0  0  0  0  0  0
  -27.5330  -32.6680   25.7490 C   0  0  0  0  0  1  0  0  0  0  0  0
  1  2  1  0
  1 51  1  0
  2  9  1  0
  3  1  2  0
  4  2  1  0
  6 10  2  0
  7 11  1  0
  7  5  2  0
  8  6  1  0
  9  8  2  0
  9  7  1  0
 10  5  1  0
 10 12  1  0
 13 21  1  0
 14 19  1  0
 15 16  1  0
 15 14  1  0
 17 16  1  0
 17 26  1  0
 17 18  1  0
 19 13  1  0
 19 18  1  0
 20 13  2  0
 21 22  1  0
 21  8  1  0
 23 24  2  0
 24 43  1  0
 25 24  1  0
 25 28  1  0
 26 27  1  0
 26 23  1  0
 27 25  2  0
 28 29  1  0
 29 30  2  0
 31 34  1  0
 31 30  1  0
 32 31  2  0
 33 32  1  0
 33 28  2  0
 34 35  1  0
 35 40  2  0
 35 36  1  0
 36 37  2  0
 37 38  1  0
 38 42  1  0
 39 38  2  0
 40 39  1  0
 41 40  1  0
 43 44  1  0
 44 46  1  0
 44 47  1  0
 45 43  2  0
 48 23  1  0
 48 49  1  0
 50 48  1  0
 51 52  1  0
 53 52  1  0
 53 55  1  0
 54 53  2  0
 56 58  1  0
 56 55  1  0
 57 68  2  0
 58 63  1  0
 59 67  1  0
 59 69  1  0
 60 66  1  0
 60 62  1  0
 61 67  1  0
 62 61  1  0
 63 62  2  0
 64 65  1  0
 64 58  2  0
 65 60  2  0
 66 59  1  0
 67 57  1  0
 69 71  2  0
 70 69  1  0
 72 70  1  0
 73 82  2  0
 73 78  1  0
 74 70  1  0
 74 78  1  0
 75 74  1  0
 76 77  1  0
 76 75  1  0
 77 73  1  0
 78 79  2  0
 79 80  1  0
 81 80  2  0
 82 81  1  0
 83 57  1  0
 83 84  1  0
 83 93  1  0
 84 87  1  0
 85 89  1  0
 85 84  1  0
 86 85  2  0
 89 88  1  0
 91 89  1  0
 91 92  1  0
 91 90  1  0
 93 96  1  1
 93 94  1  0
 95 93  1  0
M  ISO  4  13 100  21 100  55 101  56 101
M  END
>  <TORSDO>  (94) 
F 21

>  <SCORE>  (94) 
-7.995

>  <name>  (94) 
94

>  <ligand_id>  (94) 
94

>  <original_smiles>  (94) 
[H]c1c([H])c([H])c2c(c1[H])C([H])([H])C([H])([H])C([H])([H])C2([H])N([H])C(=O)C1([H])N(C(=O)C([H])(N([H])C(=O)C([H])(N([H])C([H])([H])[H])C([H])([H])[H])C(C([H])([H])[H])(C([H])([H])[H])C([H])([H])[H])C([H])([H])c2c([H])c(OC([H])([H])C(=O)C([H])([H])C([H])([H])C(=O)N([H])c3c(N([H])C(=O)N4C([H])([H])C([H])([H])C([H])([H])C([H])(n5nc(-c6c([H])c([H])c(Oc7c([H])c([H])c(F)c([H])c7F)c([H])c6[H])c(C(=O)N([H])[H])c5N([H])[H])C4([H])[H])c([H])c(F)c([H])c3C([H])([H])[H])c([H])c([H])c2C1([H])[H]

>  <smiles>  (94) 
[H]c1c([H])c([H])c2c(c1[H])C([H])([H])C([H])([H])C([H])([H])C2([H])N([H])C(=O)C1([H])N(C(=O)C([H])(N([H])C(=O)C([H])(N([H])C([H])([H])[H])C([H])([H])[H])C(C([H])([H])[H])(C([H])([H])[H])C([H])([H])[H])C([H])([H])c2c([H])c(OC([H])([H])C(=O)C([H])([H])C([H])([H])C(=O)N([H])c3c(N([H])C(=O)N4C([H])([H])C([H])([H])C([H])([H])C([H])(n5nc(-c6c([H])c([H])c(Oc7c([H])c([H])c(F)c([H])c7F)c([H])c6[H])c(C(=O)N([H])[H])c5N([H])[H])C4([H])[H])c([H])c(F)c([H])c3C([H])([H])[H])c([H])c([H])c2C1([H])[H]

$$$$
95:0:0
     RDKit          3D

 92100  0  0  1  0  0  0  0  0999 V2000
  -29.6450  -18.5250   20.8710 C   0  0  0  0  0  3  0  0  0  0  0  0
  -29.7810  -18.6060   18.1570 C   0  0  0  0  0  3  0  0  0  0  0  0
  -29.8710  -17.2560   20.1900 C   0  0  0  0  0  0  0  0  0  0  0  0
  -29.9190  -17.3460   18.7800 C   0  0  0  0  0  0  0  0  0  0  0  0
  -29.5100  -19.7800   20.1510 C   0  0  0  0  0  0  0  0  0  0  0  0
  -29.5850  -19.7790   18.8070 N   0  0  0  0  0  0  0  0  0  0  0  0
  -29.3080  -21.0840   20.7380 N   0  0  0  0  0  0  0  0  0  0  0  0
  -30.0420  -16.2340   18.0150 F   0  0  0  0  0  0  0  0  0  0  0  0
  -29.2070  -21.1400   21.7470 H   0  0  0  0  0  0  0  0  0  0  0  0
  -30.6550  -14.7970   20.4790 C   0  0  0  0  0  0  0  0  0  0  0  0
  -30.4750  -12.5210   19.4760 C   0  0  0  0  0  2  0  0  0  0  0  0
  -29.5680  -12.6100   18.2280 C   0  0  0  0  0  2  0  0  0  0  0  0
  -28.0870  -12.4430   18.6200 C   0  0  0  0  0  2  0  0  0  0  0  0
  -27.6900  -13.3240   19.8350 C   0  0  0  0  0  3  0  0  0  0  0  0
  -28.7190  -13.2210   20.9820 C   0  0  0  0  0  2  0  0  0  0  0  0
  -30.0360  -13.5660   20.4310 N   0  0  0  0  0  0  0  0  0  0  0  0
  -31.8330  -14.9040   20.1250 O   0  0  0  0  0  0  0  0  0  0  0  0
  -29.9050  -15.9120   20.8240 N   0  0  0  0  0  0  0  0  0  0  0  0
  -29.0740  -15.6920   21.3490 H   0  0  0  0  0  0  0  0  0  0  0  0
  -25.2800  -13.9120   20.4930 C   0  0  0  0  0  0  0  0  0  0  0  0
  -24.2080  -13.1370   20.8450 C   0  0  0  0  0  0  0  0  0  0  0  0
  -24.6780  -11.7870   20.8410 C   0  0  0  0  0  0  0  0  0  0  0  0
  -26.3330  -13.0350   20.2920 N   0  0  0  0  0  0  0  0  0  0  0  0
  -25.9760  -11.7540   20.5650 N   0  0  0  0  0  0  0  0  0  0  0  0
  -23.9520  -10.5240   21.0270 C   0  0  0  0  0  0  0  0  0  0  0  0
  -24.3680   -9.5670   21.9790 C   0  0  0  0  0  3  0  0  0  0  0  0
  -23.6440   -8.3680   22.1530 C   0  0  0  0  0  3  0  0  0  0  0  0
  -22.4880   -8.1180   21.3760 C   0  0  0  0  0  0  0  0  0  0  0  0
  -22.0910   -9.0630   20.4140 C   0  0  0  0  0  3  0  0  0  0  0  0
  -22.8170  -10.2530   20.2380 C   0  0  0  0  0  3  0  0  0  0  0  0
  -21.7360   -6.9710   21.4580 O   0  0  0  0  0  0  0  0  0  0  0  0
  -21.6640   -6.2380   22.6170 C   0  0  0  0  0  0  0  0  0  0  0  0
  -21.2030   -6.8010   23.8270 C   0  0  0  0  0  3  0  0  0  0  0  0
  -21.0790   -5.9960   24.9760 C   0  0  0  0  0  3  0  0  0  0  0  0
  -21.4050   -4.6290   24.9150 C   0  0  0  0  0  0  0  0  0  0  0  0
  -21.8580   -4.0640   23.7110 C   0  0  0  0  0  3  0  0  0  0  0  0
  -21.9830   -4.8670   22.5630 C   0  0  0  0  0  0  0  0  0  0  0  0
  -22.4010   -4.3130   21.3990 F   0  0  0  0  0  0  0  0  0  0  0  0
  -21.2780   -3.8520   26.0180 F   0  0  0  0  0  0  0  0  0  0  0  0
  -22.8020  -13.6100   21.0740 C   0  0  0  0  0  0  0  0  0  0  0  0
  -22.0550  -12.9230   21.9310 N   0  0  0  0  0  0  0  0  0  0  0  0
  -22.3730  -14.6260   20.5280 O   0  0  0  0  0  0  0  0  0  0  0  0
  -22.4150  -12.1020   22.3960 H   0  0  0  0  0  0  0  0  0  0  0  0
  -21.1100  -13.2210   22.1250 H   0  0  0  0  0  0  0  0  0  0  0  0
  -25.4420  -15.2810   20.3040 N   0  0  0  0  0  0  0  0  0  0  0  0
  -24.6690  -15.9320   20.3860 H   0  0  0  0  0  0  0  0  0  0  0  0
  -26.2950  -15.7180   19.9780 H   0  0  0  0  0  0  0  0  0  0  0  0
  -28.8240  -22.3050   19.9680 C   0  0  0  0  0  2  0  0  0  0  0  0
  -28.9260  -23.7850   20.5760 C   0  0  0  0  0  0  0  0  0  0  0  0
  -29.6810  -24.0020   21.5310 O   0  0  0  0  0  0  0  0  0  0  0  0
  -28.0340  -24.9650   19.9610 C   0  0  0  0  0  2  0  0  0  0  0  0
  -28.2810  -26.4030   20.3420 O   0  0  0  0  0  0  0  0  0  0  0  0
  -24.5860  -31.9420   23.2540 C   0  0  0  0  0  0  0  0  0  0  0  0
  -27.1960  -27.3140   20.2470 C   0  0  0  0  0  0  0  0  0  0  0  0
  -23.3920  -30.5360   21.6170 C   0  0  0  0  0  3  0  0  0  0  0  0
  -24.8480  -28.9760   20.2060 C   0  0  0  0  0  0  0  0  0  0  0  0
  -25.9380  -30.8340   21.4530 C   0  0  0  0  0  2  0  0  0  0  0  0
  -26.0180  -29.4490   20.8130 C   0  0  0  0  0  0  0  0  0  0  0  0
  -27.1950  -28.6300   20.8260 C   0  0  0  0  0  3  0  0  0  0  0  0
  -26.0040  -26.9230   19.5920 C   0  0  0  0  0  3  0  0  0  0  0  0
  -24.8470  -27.7210   19.5840 C   0  0  0  0  0  3  0  0  0  0  0  0
  -23.6140  -29.8560   20.2420 C   0  0  0  0  0  2  0  0  0  0  0  0
  -24.6580  -31.1230   22.1640 N   0  0  0  0  0  0  0  0  0  0  0  0
  -23.4990  -32.2270   23.7770 O   0  0  0  0  0  0  0  0  0  0  0  0
  -22.7190  -29.5270   22.5790 C   0  0  0  0  0  0  0  0  0  0  0  0
  -21.3910  -29.3570   22.4490 N   0  0  0  0  0  0  0  0  0  0  0  0
  -23.3900  -28.9000   23.4020 O   0  0  0  0  0  0  0  0  0  0  0  0
  -20.9090  -29.9140   21.7570 H   0  0  0  0  0  0  0  0  0  0  0  0
  -18.0030  -28.1900   22.9520 C   0  0  0  0  0  0  0  0  0  0  0  0
  -20.5640  -28.4270   23.2220 C   0  0  0  0  0  3  0  0  0  0  0  0
  -20.6530  -26.9950   22.6480 C   0  0  0  0  0  2  0  0  0  0  0  0
  -19.5480  -26.6810   21.6340 C   0  0  0  0  0  2  0  0  0  0  0  0
  -18.1680  -26.8380   22.2790 C   0  0  0  0  0  2  0  0  0  0  0  0
  -19.1280  -28.9430   23.3800 C   0  0  0  0  0  0  0  0  0  0  0  0
  -18.9200  -30.2090   23.9710 C   0  0  0  0  0  3  0  0  0  0  0  0
  -17.6190  -30.7210   24.1370 C   0  0  0  0  0  3  0  0  0  0  0  0
  -16.5080  -29.9640   23.7240 C   0  0  0  0  0  3  0  0  0  0  0  0
  -16.7010  -28.7020   23.1380 C   0  0  0  0  0  3  0  0  0  0  0  0
  -25.8650  -32.5770   23.8810 C   0  0  0  0  0  3  0  0  0  0  0  0
  -26.3650  -31.8180   25.1710 C   0  0  1  0  0  0  0  0  0  0  0  0
  -25.2600  -31.5980   26.2310 C   0  0  0  0  0  1  0  0  0  0  0  0
  -26.9470  -30.4340   24.8020 C   0  0  0  0  0  1  0  0  0  0  0  0
  -27.5120  -32.6150   25.8370 C   0  0  0  0  0  1  0  0  0  0  0  0
  -25.5560  -33.9800   24.1950 N   0  0  0  0  0  0  0  0  0  0  0  0
  -25.8960  -35.0260   23.4300 C   0  0  0  0  0  0  0  0  0  0  0  0
  -26.5730  -34.9110   22.4040 O   0  0  0  0  0  0  0  0  0  0  0  0
  -24.9550  -34.1430   24.9900 H   0  0  0  0  0  0  0  0  0  0  0  0
  -24.1800  -36.8260   23.0440 C   0  0  0  0  0  1  0  0  0  0  0  0
  -25.4110  -36.4190   23.8720 C   0  0  0  0  0  3  0  0  0  0  0  0
  -27.5390  -37.3040   24.7210 C   0  0  0  0  0  1  0  0  0  0  0  0
  -26.4490  -37.4680   23.7620 N   0  0  0  0  0  0  0  0  0  0  0  0
  -26.0460  -38.3910   23.8950 H   0  0  0  0  0  0  0  0  0  0  0  0
  2  4  1  0
  2  6  2  0
  3 18  1  0
  3  1  1  0
  4  3  2  0
  5  7  1  0
  5  1  2  0
  6  5  1  0
  7  9  1  0
  8  4  1  0
 10 18  1  0
 11 16  1  0
 12 13  1  0
 12 11  1  0
 14 13  1  0
 14 23  1  0
 14 15  1  0
 16 10  1  0
 16 15  1  0
 17 10  2  0
 18 19  1  0
 20 21  2  0
 21 40  1  0
 22 21  1  0
 22 25  1  0
 23 20  1  0
 23 24  1  0
 24 22  2  0
 25 26  1  0
 26 27  2  0
 28 31  1  0
 28 27  1  0
 29 28  2  0
 30 29  1  0
 30 25  2  0
 31 32  1  0
 32 33  1  0
 33 34  2  0
 35 34  1  0
 35 39  1  0
 36 35  2  0
 37 32  2  0
 37 36  1  0
 38 37  1  0
 40 41  1  0
 41 44  1  0
 41 43  1  0
 42 40  2  0
 45 46  1  0
 45 20  1  0
 47 45  1  0
 48 49  1  0
 48  7  1  0
 49 50  2  0
 51 52  1  0
 51 49  1  0
 53 64  2  0
 54 52  1  0
 54 59  1  0
 55 63  1  0
 55 65  1  0
 56 62  1  0
 56 58  1  0
 57 63  1  0
 58 59  2  0
 58 57  1  0
 60 54  2  0
 61 60  1  0
 61 56  2  0
 62 55  1  0
 63 53  1  0
 65 67  2  0
 66 65  1  0
 68 66  1  0
 69 78  2  0
 69 74  1  0
 70 66  1  0
 70 74  1  0
 71 70  1  0
 72 73  1  0
 72 71  1  0
 73 69  1  0
 74 75  2  0
 75 76  1  0
 77 76  2  0
 78 77  1  0
 79 53  1  0
 79 84  1  0
 79 80  1  0
 80 83  1  1
 80 81  1  0
 82 80  1  0
 84 87  1  0
 85 89  1  0
 85 84  1  0
 86 85  2  0
 89 88  1  0
 91 89  1  0
 91 92  1  0
 91 90  1  0
M  ISO  4  10 100  18 100  51 101  52 101
M  END
>  <TORSDO>  (95) 
F 19

>  <SCORE>  (95) 
-13.928

>  <name>  (95) 
95

>  <ligand_id>  (95) 
95

>  <original_smiles>  (95) 
[H]c1nc(N([H])C([H])([H])C(=O)C([H])([H])Oc2c([H])c([H])c3c(c2[H])C([H])([H])N(C(=O)C([H])(N([H])C(=O)C([H])(N([H])C([H])([H])[H])C([H])([H])[H])C(C([H])([H])[H])(C([H])([H])[H])C([H])([H])[H])C([H])(C(=O)N([H])C2([H])c4c([H])c([H])c([H])c([H])c4C([H])([H])C([H])([H])C2([H])[H])C3([H])[H])c([H])c(N([H])C(=O)N2C([H])([H])C([H])([H])C([H])([H])C([H])(n3nc(-c4c([H])c([H])c(Oc5c([H])c([H])c(F)c([H])c5F)c([H])c4[H])c(C(=O)N([H])[H])c3N([H])[H])C2([H])[H])c1F

>  <smiles>  (95) 
[H]c1nc(N([H])C([H])([H])C(=O)C([H])([H])Oc2c([H])c([H])c3c(c2[H])C([H])([H])N(C(=O)C([H])(N([H])C(=O)C([H])(N([H])C([H])([H])[H])C([H])([H])[H])C(C([H])([H])[H])(C([H])([H])[H])C([H])([H])[H])C([H])(C(=O)N([H])C2([H])c4c([H])c([H])c([H])c([H])c4C([H])([H])C([H])([H])C2([H])[H])C3([H])[H])c([H])c(N([H])C(=O)N2C([H])([H])C([H])([H])C([H])([H])C([H])(n3nc(-c4c([H])c([H])c(Oc5c([H])c([H])c(F)c([H])c5F)c([H])c4[H])c(C(=O)N([H])[H])c3N([H])[H])C2([H])[H])c1F

$$$$
96:0:0
     RDKit          3D

 94102  0  0  1  0  0  0  0  0999 V2000
  -29.1820  -22.0880   20.4020 C   0  0  0  0  0  0  0  0  0  0  0  0
  -29.0900  -20.6060   20.3060 N   0  0  0  0  0  0  0  0  0  0  0  0
  -30.2930  -22.5980   20.5380 O   0  0  0  0  0  0  0  0  0  0  0  0
  -28.1550  -20.2250   20.3300 H   0  0  0  0  0  0  0  0  0  0  0  0
  -30.5050  -15.2020   20.2640 C   0  0  0  0  0  0  0  0  0  0  0  0
  -30.3430  -12.7980   19.3560 C   0  0  0  0  0  2  0  0  0  0  0  0
  -29.4090  -12.6460   18.1360 C   0  0  0  0  0  2  0  0  0  0  0  0
  -27.9660  -12.3930   18.6000 C   0  0  0  0  0  2  0  0  0  0  0  0
  -27.5460  -13.3450   19.7480 C   0  0  0  0  0  3  0  0  0  0  0  0
  -28.6170  -13.4850   20.8540 C   0  0  0  0  0  2  0  0  0  0  0  0
  -29.8470  -13.9490   20.1960 N   0  0  0  0  0  0  0  0  0  0  0  0
  -31.7100  -15.0870   19.9970 O   0  0  0  0  0  0  0  0  0  0  0  0
  -31.3480  -20.1560   19.5920 C   0  0  0  0  0  3  0  0  0  0  0  0
  -32.8510  -18.5440   20.4540 C   0  0  0  0  0  3  0  0  0  0  0  0
  -30.2180  -19.4940   20.1600 C   0  0  0  0  0  0  0  0  0  0  0  0
  -32.6620  -19.7100   19.7330 C   0  0  0  0  0  0  0  0  0  0  0  0
  -30.5350  -17.9780   20.4400 C   0  0  0  0  0  0  0  0  0  0  0  0
  -31.8270  -17.7470   20.7840 N   0  0  0  0  0  0  0  0  0  0  0  0
  -29.8770  -16.5390   20.3900 N   0  0  0  0  0  0  0  0  0  0  0  0
  -33.7080  -20.4290   19.2580 F   0  0  0  0  0  0  0  0  0  0  0  0
  -28.8700  -16.5330   20.4190 H   0  0  0  0  0  0  0  0  0  0  0  0
  -25.1880  -13.8830   20.5560 C   0  0  0  0  0  0  0  0  0  0  0  0
  -24.1370  -13.0960   20.9320 C   0  0  0  0  0  0  0  0  0  0  0  0
  -24.6090  -11.7480   20.8740 C   0  0  0  0  0  0  0  0  0  0  0  0
  -26.2310  -13.0170   20.2810 N   0  0  0  0  0  0  0  0  0  0  0  0
  -25.8960  -11.7260   20.5410 N   0  0  0  0  0  0  0  0  0  0  0  0
  -23.8910  -10.4800   21.0570 C   0  0  0  0  0  0  0  0  0  0  0  0
  -24.3320   -9.5060   21.9800 C   0  0  0  0  0  3  0  0  0  0  0  0
  -23.6100   -8.3050   22.1530 C   0  0  0  0  0  3  0  0  0  0  0  0
  -22.4330   -8.0690   21.4030 C   0  0  0  0  0  0  0  0  0  0  0  0
  -22.0110   -9.0310   20.4700 C   0  0  0  0  0  3  0  0  0  0  0  0
  -22.7340  -10.2240   20.2940 C   0  0  0  0  0  3  0  0  0  0  0  0
  -21.6820   -6.9210   21.4870 O   0  0  0  0  0  0  0  0  0  0  0  0
  -21.6290   -6.1780   22.6400 C   0  0  0  0  0  0  0  0  0  0  0  0
  -21.1790   -6.7270   23.8600 C   0  0  0  0  0  3  0  0  0  0  0  0
  -21.0750   -5.9090   25.0030 C   0  0  0  0  0  3  0  0  0  0  0  0
  -21.4090   -4.5450   24.9260 C   0  0  0  0  0  0  0  0  0  0  0  0
  -21.8520   -3.9950   23.7100 C   0  0  0  0  0  3  0  0  0  0  0  0
  -21.9570   -4.8100   22.5690 C   0  0  0  0  0  0  0  0  0  0  0  0
  -22.3640   -4.2700   21.3950 F   0  0  0  0  0  0  0  0  0  0  0  0
  -21.3020   -3.7570   26.0230 F   0  0  0  0  0  0  0  0  0  0  0  0
  -22.7420  -13.5620   21.2290 C   0  0  0  0  0  0  0  0  0  0  0  0
  -22.0330  -12.8570   22.1030 N   0  0  0  0  0  0  0  0  0  0  0  0
  -22.2920  -14.5890   20.7230 O   0  0  0  0  0  0  0  0  0  0  0  0
  -22.4130  -12.0270   22.5340 H   0  0  0  0  0  0  0  0  0  0  0  0
  -21.0980  -13.1510   22.3450 H   0  0  0  0  0  0  0  0  0  0  0  0
  -25.3400  -15.2570   20.3940 N   0  0  0  0  0  0  0  0  0  0  0  0
  -24.5680  -15.9030   20.5250 H   0  0  0  0  0  0  0  0  0  0  0  0
  -26.1720  -15.7040   20.0310 H   0  0  0  0  0  0  0  0  0  0  0  0
  -27.6280  -24.5070   20.4200 C   0  0  0  0  0  3  0  0  0  0  0  0
  -27.9460  -23.0710   20.4370 C   0  0  0  0  0  0  0  0  0  0  0  0
  -26.8230  -22.3450   20.5490 O   0  0  0  0  0  0  0  0  0  0  0  0
  -27.0830  -21.4480   20.6990 H   0  0  0  0  0  0  0  0  0  0  0  0
  -28.1130  -25.9310   20.3260 O   0  0  0  0  0  0  0  0  0  0  0  0
  -24.6330  -31.9090   23.2530 C   0  0  0  0  0  0  0  0  0  0  0  0
  -27.1540  -27.0570   20.2490 C   0  0  0  0  0  0  0  0  0  0  0  0
  -23.4290  -30.5150   21.6210 C   0  0  0  0  0  3  0  0  0  0  0  0
  -24.8690  -28.9200   20.1950 C   0  0  0  0  0  0  0  0  0  0  0  0
  -25.9940  -30.7240   21.4740 C   0  0  0  0  0  2  0  0  0  0  0  0
  -26.0550  -29.3190   20.8270 C   0  0  0  0  0  0  0  0  0  0  0  0
  -27.1930  -28.4020   20.8460 C   0  0  0  0  0  3  0  0  0  0  0  0
  -25.9580  -26.8250   19.5290 C   0  0  0  0  0  3  0  0  0  0  0  0
  -24.8420  -27.6890   19.5270 C   0  0  0  0  0  3  0  0  0  0  0  0
  -23.6510  -29.8360   20.2440 C   0  0  0  0  0  2  0  0  0  0  0  0
  -24.7060  -31.0750   22.1700 N   0  0  0  0  0  0  0  0  0  0  0  0
  -23.5460  -32.2050   23.7760 O   0  0  0  0  0  0  0  0  0  0  0  0
  -22.7370  -29.5180   22.5870 C   0  0  0  0  0  0  0  0  0  0  0  0
  -21.4060  -29.3550   22.4620 N   0  0  0  0  0  0  0  0  0  0  0  0
  -23.4010  -28.8940   23.4190 O   0  0  0  0  0  0  0  0  0  0  0  0
  -20.9240  -29.9100   21.7680 H   0  0  0  0  0  0  0  0  0  0  0  0
  -18.0200  -28.1590   22.9700 C   0  0  0  0  0  0  0  0  0  0  0  0
  -20.5800  -28.4260   23.2390 C   0  0  0  0  0  3  0  0  0  0  0  0
  -20.6810  -26.9880   22.6770 C   0  0  0  0  0  2  0  0  0  0  0  0
  -19.5810  -26.6580   21.6620 C   0  0  0  0  0  2  0  0  0  0  0  0
  -18.1980  -26.8070   22.3020 C   0  0  0  0  0  2  0  0  0  0  0  0
  -19.1380  -28.9270   23.3950 C   0  0  0  0  0  0  0  0  0  0  0  0
  -18.9160  -30.1910   23.9830 C   0  0  0  0  0  3  0  0  0  0  0  0
  -17.6090  -30.6900   24.1470 C   0  0  0  0  0  3  0  0  0  0  0  0
  -16.5060  -29.9220   23.7350 C   0  0  0  0  0  3  0  0  0  0  0  0
  -16.7130  -28.6580   23.1530 C   0  0  0  0  0  3  0  0  0  0  0  0
  -25.9110  -32.5450   23.8780 C   0  0  0  0  0  3  0  0  0  0  0  0
  -25.6000  -33.9450   24.2140 N   0  0  0  0  0  0  0  0  0  0  0  0
  -25.9100  -35.0030   23.4510 C   0  0  0  0  0  0  0  0  0  0  0  0
  -26.5540  -34.9020   22.4040 O   0  0  0  0  0  0  0  0  0  0  0  0
  -25.0240  -34.0950   25.0290 H   0  0  0  0  0  0  0  0  0  0  0  0
  -24.1610  -36.7910   23.1640 C   0  0  0  0  0  1  0  0  0  0  0  0
  -25.4350  -36.3910   23.9270 C   0  0  0  0  0  3  0  0  0  0  0  0
  -27.5940  -37.2920   24.6750 C   0  0  0  0  0  1  0  0  0  0  0  0
  -26.4570  -37.4490   23.7720 N   0  0  0  0  0  0  0  0  0  0  0  0
  -26.0520  -38.3680   23.9290 H   0  0  0  0  0  0  0  0  0  0  0  0
  -26.4190  -31.7770   25.1610 C   0  0  1  0  0  0  0  0  0  0  0  0
  -25.3220  -31.5510   26.2280 C   0  0  0  0  0  1  0  0  0  0  0  0
  -26.9980  -30.3930   24.7870 C   0  0  0  0  0  1  0  0  0  0  0  0
  -27.5720  -32.5700   25.8220 C   0  0  0  0  0  1  0  0  0  0  0  0
  1 51  1  0
  1  3  2  0
  2  4  1  0
  2  1  1  0
  5 19  1  0
  6 11  1  0
  7  8  1  0
  7  6  1  0
  9  8  1  0
  9 25  1  0
  9 10  1  0
 11  5  1  0
 11 10  1  0
 12  5  2  0
 13 16  2  0
 13 15  1  0
 14 18  2  0
 15  2  1  0
 15 17  2  0
 16 14  1  0
 17 18  1  0
 19 21  1  0
 19 17  1  0
 20 16  1  0
 22 23  2  0
 23 42  1  0
 24 23  1  0
 24 27  1  0
 25 26  1  0
 25 22  1  0
 26 24  2  0
 27 28  1  0
 28 29  2  0
 30 33  1  0
 30 29  1  0
 31 30  2  0
 32 31  1  0
 32 27  2  0
 33 34  1  0
 34 35  1  0
 35 36  2  0
 37 36  1  0
 37 41  1  0
 38 37  2  0
 39 34  2  0
 39 38  1  0
 40 39  1  0
 42 43  1  0
 43 46  1  0
 43 45  1  0
 44 42  2  0
 47 48  1  0
 47 22  1  0
 49 47  1  0
 50 51  2  0
 51 52  1  0
 52 53  1  0
 54 50  1  0
 55 66  2  0
 56 54  1  0
 56 61  1  0
 57 65  1  0
 57 67  1  0
 58 64  1  0
 58 60  1  0
 59 65  1  0
 60 61  2  0
 60 59  1  0
 62 56  2  0
 63 62  1  0
 63 58  2  0
 64 57  1  0
 65 55  1  0
 67 69  2  0
 68 67  1  0
 70 68  1  0
 71 80  2  0
 71 76  1  0
 72 68  1  0
 72 76  1  0
 73 72  1  0
 74 75  1  0
 74 73  1  0
 75 71  1  0
 76 77  2  0
 77 78  1  0
 79 78  2  0
 80 79  1  0
 81 55  1  0
 81 82  1  0
 81 91  1  0
 82 85  1  0
 83 87  1  0
 83 82  1  0
 84 83  2  0
 87 86  1  0
 89 87  1  0
 89 90  1  0
 89 88  1  0
 91 94  1  1
 91 92  1  0
 93 91  1  0
M  ISO  4   5 100  19 100  50 101  54 101
M  END
>  <TORSDO>  (96) 
F 18

>  <SCORE>  (96) 
-15.120

>  <name>  (96) 
96

>  <ligand_id>  (96) 
96

>  <original_smiles>  (96) 
[H]OC(C(=O)N([H])c1c(N([H])C(=O)N2C([H])([H])C([H])([H])C([H])([H])C([H])(n3nc(-c4c([H])c([H])c(Oc5c([H])c([H])c(F)c([H])c5F)c([H])c4[H])c(C(=O)N([H])[H])c3N([H])[H])C2([H])[H])nc([H])c(F)c1[H])=C([H])Oc1c([H])c([H])c2c(c1[H])C([H])([H])N(C(=O)C([H])(N([H])C(=O)C([H])(N([H])C([H])([H])[H])C([H])([H])[H])C(C([H])([H])[H])(C([H])([H])[H])C([H])([H])[H])C([H])(C(=O)N([H])C1([H])c3c([H])c([H])c([H])c([H])c3C([H])([H])C([H])([H])C1([H])[H])C2([H])[H]

>  <smiles>  (96) 
[H]OC(C(=O)N([H])c1c(N([H])C(=O)N2C([H])([H])C([H])([H])C([H])([H])C([H])(n3nc(-c4c([H])c([H])c(Oc5c([H])c([H])c(F)c([H])c5F)c([H])c4[H])c(C(=O)N([H])[H])c3N([H])[H])C2([H])[H])nc([H])c(F)c1[H])=C([H])Oc1c([H])c([H])c2c(c1[H])C([H])([H])N(C(=O)C([H])(N([H])C(=O)C([H])(N([H])C([H])([H])[H])C([H])([H])[H])C(C([H])([H])[H])(C([H])([H])[H])C([H])([H])[H])C([H])(C(=O)N([H])C1([H])c3c([H])c([H])c([H])c([H])c3C([H])([H])C([H])([H])C1([H])[H])C2([H])[H]

$$$$
