0:0:0
     RDKit          3D

 96104  0  0  1  0  0  0  0  0999 V2000
  -28.6450  -20.2890   20.6270 C   0  0  0  0  0  0  0  0  0  0  0  0
  -29.4530  -19.2170   20.3700 N   0  0  0  0  0  0  0  0  0  0  0  0
  -27.7750  -20.2590   21.5060 O   0  0  0  0  0  0  0  0  0  0  0  0
  -29.9970  -19.2980   19.5230 H   0  0  0  0  0  0  0  0  0  0  0  0
  -30.6150  -16.3860   22.6970 C   0  0  0  0  0  3  0  0  0  0  0  0
  -31.4680  -18.5230   23.4450 C   0  0  0  0  0  3  0  0  0  0  0  0
  -29.9850  -16.9690   21.5640 C   0  0  0  0  0  0  0  0  0  0  0  0
  -30.0430  -18.4150   21.4230 C   0  0  0  0  0  0  0  0  0  0  0  0
  -31.3440  -17.1440   23.6240 C   0  0  0  0  0  0  0  0  0  0  0  0
  -30.8370  -19.1460   22.3590 C   0  0  0  0  0  0  0  0  0  0  0  0
  -31.9390  -16.5380   24.6800 F   0  0  0  0  0  0  0  0  0  0  0  0
  -31.0340  -20.4810   22.2120 F   0  0  0  0  0  0  0  0  0  0  0  0
  -29.9610  -15.0240   20.0270 C   0  0  0  0  0  0  0  0  0  0  0  0
  -29.6870  -12.9360   18.7110 C   0  0  0  0  0  2  0  0  0  0  0  0
  -28.6390  -13.1260   17.5980 C   0  0  0  0  0  2  0  0  0  0  0  0
  -27.2260  -12.8280   18.1330 C   0  0  0  0  0  2  0  0  0  0  0  0
  -26.9310  -13.5430   19.4800 C   0  0  0  0  0  3  0  0  0  0  0  0
  -28.0920  -13.3730   20.4830 C   0  0  0  0  0  2  0  0  0  0  0  0
  -29.3170  -13.8350   19.8210 N   0  0  0  0  0  0  0  0  0  0  0  0
  -31.0540  -15.2560   19.5040 O   0  0  0  0  0  0  0  0  0  0  0  0
  -29.3120  -16.0240   20.6960 N   0  0  0  0  0  0  0  0  0  0  0  0
  -28.3200  -15.9100   20.8440 H   0  0  0  0  0  0  0  0  0  0  0  0
  -24.5240  -13.8750   20.3090 C   0  0  0  0  0  0  0  0  0  0  0  0
  -23.5770  -12.9920   20.7520 C   0  0  0  0  0  0  0  0  0  0  0  0
  -24.1960  -11.7050   20.7310 C   0  0  0  0  0  0  0  0  0  0  0  0
  -25.6530  -13.1190   20.0440 N   0  0  0  0  0  0  0  0  0  0  0  0
  -25.4650  -11.8100   20.3590 N   0  0  0  0  0  0  0  0  0  0  0  0
  -23.6350  -10.3720   20.9880 C   0  0  0  0  0  0  0  0  0  0  0  0
  -24.1420   -9.5420   22.0120 C   0  0  0  0  0  3  0  0  0  0  0  0
  -23.5740   -8.2730   22.2530 C   0  0  0  0  0  3  0  0  0  0  0  0
  -22.4860   -7.8230   21.4680 C   0  0  0  0  0  0  0  0  0  0  0  0
  -22.0000   -8.6420   20.4350 C   0  0  0  0  0  3  0  0  0  0  0  0
  -22.5710   -9.9030   20.1940 C   0  0  0  0  0  3  0  0  0  0  0  0
  -21.8870   -6.5950   21.6130 O   0  0  0  0  0  0  0  0  0  0  0  0
  -21.8230   -5.9640   22.8300 C   0  0  0  0  0  0  0  0  0  0  0  0
  -21.1900   -6.5550   23.9440 C   0  0  0  0  0  3  0  0  0  0  0  0
  -21.0870   -5.8430   25.1570 C   0  0  0  0  0  3  0  0  0  0  0  0
  -21.6070   -4.5390   25.2540 C   0  0  0  0  0  0  0  0  0  0  0  0
  -22.2330   -3.9460   24.1430 C   0  0  0  0  0  3  0  0  0  0  0  0
  -22.3380   -4.6550   22.9340 C   0  0  0  0  0  0  0  0  0  0  0  0
  -22.9230   -4.0710   21.8610 F   0  0  0  0  0  0  0  0  0  0  0  0
  -21.5010   -3.8510   26.4140 F   0  0  0  0  0  0  0  0  0  0  0  0
  -22.1470  -13.3090   21.0830 C   0  0  0  0  0  0  0  0  0  0  0  0
  -21.5590  -12.5800   22.0250 N   0  0  0  0  0  0  0  0  0  0  0  0
  -21.5560  -14.2410   20.5380 O   0  0  0  0  0  0  0  0  0  0  0  0
  -22.0510  -11.8290   22.4870 H   0  0  0  0  0  0  0  0  0  0  0  0
  -20.6050  -12.7770   22.2900 H   0  0  0  0  0  0  0  0  0  0  0  0
  -24.5140  -15.2490   20.0880 N   0  0  0  0  0  0  0  0  0  0  0  0
  -23.6770  -15.8100   20.2150 H   0  0  0  0  0  0  0  0  0  0  0  0
  -25.2820  -15.7740   19.6890 H   0  0  0  0  0  0  0  0  0  0  0  0
  -28.8700  -21.6000   19.7470 C   0  0  0  0  0  0  0  0  0  0  0  0
  -29.4580  -21.5580   18.6610 O   0  0  0  0  0  0  0  0  0  0  0  0
  -28.3330  -22.9620   20.3170 C   0  0  0  0  0  2  0  0  0  0  0  0
  -28.5280  -24.2990   19.4850 C   0  0  0  0  0  2  0  0  0  0  0  0
  -28.0060  -25.6070   20.1990 C   0  0  0  0  0  2  0  0  0  0  0  0
  -28.0670  -26.8870   19.4820 O   0  0  0  0  0  0  0  0  0  0  0  0
  -24.4620  -31.9680   23.0720 C   0  0  0  0  0  0  0  0  0  0  0  0
  -26.9400  -27.6980   19.5800 C   0  0  0  0  0  0  0  0  0  0  0  0
  -23.1780  -30.6680   21.4090 C   0  0  0  0  0  3  0  0  0  0  0  0
  -24.5590  -29.2370   19.8030 C   0  0  0  0  0  0  0  0  0  0  0  0
  -25.6930  -31.0450   21.1010 C   0  0  0  0  0  2  0  0  0  0  0  0
  -25.7510  -29.7160   20.3630 C   0  0  0  0  0  0  0  0  0  0  0  0
  -26.9470  -28.9570   20.2410 C   0  0  0  0  0  3  0  0  0  0  0  0
  -25.7300  -27.2580   19.0020 C   0  0  0  0  0  3  0  0  0  0  0  0
  -24.5470  -28.0130   19.1140 C   0  0  0  0  0  3  0  0  0  0  0  0
  -23.3170  -30.0860   19.9770 C   0  0  0  0  0  2  0  0  0  0  0  0
  -24.4660  -31.2400   21.9180 N   0  0  0  0  0  0  0  0  0  0  0  0
  -23.4090  -32.1940   23.6850 O   0  0  0  0  0  0  0  0  0  0  0  0
  -22.5820  -29.5800   22.3340 C   0  0  0  0  0  0  0  0  0  0  0  0
  -21.2530  -29.3960   22.2690 N   0  0  0  0  0  0  0  0  0  0  0  0
  -23.3110  -28.9080   23.0680 O   0  0  0  0  0  0  0  0  0  0  0  0
  -20.7220  -29.9920   21.6490 H   0  0  0  0  0  0  0  0  0  0  0  0
  -17.9150  -28.1590   22.8980 C   0  0  0  0  0  0  0  0  0  0  0  0
  -20.4850  -28.4000   23.0190 C   0  0  0  0  0  3  0  0  0  0  0  0
  -20.5440  -27.0170   22.3300 C   0  0  0  0  0  2  0  0  0  0  0  0
  -19.3770  -26.7700   21.3700 C   0  0  0  0  0  2  0  0  0  0  0  0
  -18.0410  -26.8650   22.1130 C   0  0  0  0  0  2  0  0  0  0  0  0
  -19.0620  -28.8880   23.3100 C   0  0  0  0  0  0  0  0  0  0  0  0
  -18.8860  -30.1020   24.0080 C   0  0  0  0  0  3  0  0  0  0  0  0
  -17.5970  -30.5870   24.2970 C   0  0  0  0  0  3  0  0  0  0  0  0
  -16.4650  -29.8530   23.9010 C   0  0  0  0  0  3  0  0  0  0  0  0
  -16.6250  -28.6410   23.2070 C   0  0  0  0  0  3  0  0  0  0  0  0
  -25.7740  -32.5710   23.6630 C   0  0  0  0  0  3  0  0  0  0  0  0
  -25.4860  -33.9540   24.0630 N   0  0  0  0  0  0  0  0  0  0  0  0
  -25.8190  -35.0380   23.3480 C   0  0  0  0  0  0  0  0  0  0  0  0
  -26.4730  -34.9750   22.3030 O   0  0  0  0  0  0  0  0  0  0  0  0
  -24.9050  -34.0770   24.8790 H   0  0  0  0  0  0  0  0  0  0  0  0
  -24.1240  -36.8770   23.0850 C   0  0  0  0  0  1  0  0  0  0  0  0
  -25.3550  -36.4090   23.8770 C   0  0  0  0  0  3  0  0  0  0  0  0
  -27.5000  -37.2110   24.7620 C   0  0  0  0  0  1  0  0  0  0  0  0
  -26.4060  -37.4480   23.8220 N   0  0  0  0  0  0  0  0  0  0  0  0
  -26.0160  -38.3660   24.0150 H   0  0  0  0  0  0  0  0  0  0  0  0
  -26.3420  -31.7460   24.8830 C   0  0  1  0  0  0  0  0  0  0  0  0
  -25.2970  -31.4690   25.9870 C   0  0  0  0  0  1  0  0  0  0  0  0
  -26.8990  -30.3830   24.4090 C   0  0  0  0  0  1  0  0  0  0  0  0
  -27.5260  -32.5080   25.5230 C   0  0  0  0  0  1  0  0  0  0  0  0
  1  3  2  0
  2  1  1  0
  2  8  1  0
  4  2  1  0
  5  9  1  0
  6  9  2  0
  7  5  2  0
  8  7  1  0
  8 10  2  0
  9 11  1  0
 10  6  1  0
 12 10  1  0
 13 21  1  0
 14 19  1  0
 15 16  1  0
 15 14  1  0
 17 16  1  0
 17 26  1  0
 17 18  1  0
 19 13  1  0
 19 18  1  0
 20 13  2  0
 21 22  1  0
 21  7  1  0
 23 24  2  0
 24 43  1  0
 25 24  1  0
 25 28  1  0
 26 23  1  0
 26 27  1  0
 27 25  2  0
 28 29  1  0
 29 30  2  0
 31 34  1  0
 31 30  1  0
 32 31  2  0
 33 32  1  0
 33 28  2  0
 34 35  1  0
 35 40  2  0
 35 36  1  0
 36 37  2  0
 37 38  1  0
 38 42  1  0
 39 38  2  0
 40 39  1  0
 41 40  1  0
 43 44  1  0
 44 47  1  0
 44 46  1  0
 45 43  2  0
 48 49  1  0
 48 23  1  0
 50 48  1  0
 51 53  1  0
 51  1  1  0
 52 51  2  0
 54 55  1  0
 54 53  1  0
 56 58  1  0
 56 55  1  0
 57 68  2  0
 58 63  1  0
 59 67  1  0
 59 69  1  0
 60 66  1  0
 60 62  1  0
 61 67  1  0
 62 61  1  0
 63 62  2  0
 64 65  1  0
 64 58  2  0
 65 60  2  0
 66 59  1  0
 67 57  1  0
 69 71  2  0
 70 69  1  0
 72 70  1  0
 73 82  2  0
 73 78  1  0
 74 70  1  0
 74 78  1  0
 75 74  1  0
 76 77  1  0
 76 75  1  0
 77 73  1  0
 78 79  2  0
 79 80  1  0
 81 80  2  0
 82 81  1  0
 83 57  1  0
 83 84  1  0
 83 93  1  0
 84 87  1  0
 85 89  1  0
 85 84  1  0
 86 85  2  0
 89 88  1  0
 91 89  1  0
 91 92  1  0
 91 90  1  0
 93 96  1  1
 93 94  1  0
 95 93  1  0
M  ISO  4  13 100  21 100  55 101  56 101
M  END
>  <TORSDO>  (1) 
F 21

>  <SCORE>  (1) 
-6.504

>  <name>  (1) 
0

>  <ligand_id>  (1) 
0

>  <original_smiles>  (1) 
[H]c1c([H])c([H])c2c(c1[H])C([H])([H])C([H])([H])C([H])([H])C2([H])N([H])C(=O)C1([H])N(C(=O)C([H])(N([H])C(=O)C([H])(N([H])C([H])([H])[H])C([H])([H])[H])C(C([H])([H])[H])(C([H])([H])[H])C([H])([H])[H])C([H])([H])c2c([H])c(OC([H])([H])C([H])([H])C([H])([H])C(=O)C(=O)N([H])c3c(F)c([H])c(F)c([H])c3N([H])C(=O)N3C([H])([H])C([H])([H])C([H])([H])C([H])(n4nc(-c5c([H])c([H])c(Oc6c([H])c([H])c(F)c([H])c6F)c([H])c5[H])c(C(=O)N([H])[H])c4N([H])[H])C3([H])[H])c([H])c([H])c2C1([H])[H]

>  <smiles>  (1) 
[H]c1c([H])c([H])c2c(c1[H])C([H])([H])C([H])([H])C([H])([H])C2([H])N([H])C(=O)C1([H])N(C(=O)C([H])(N([H])C(=O)C([H])(N([H])C([H])([H])[H])C([H])([H])[H])C(C([H])([H])[H])(C([H])([H])[H])C([H])([H])[H])C([H])([H])c2c([H])c(OC([H])([H])C([H])([H])C([H])([H])C(=O)C(=O)N([H])c3c(F)c([H])c(F)c([H])c3N([H])C(=O)N3C([H])([H])C([H])([H])C([H])([H])C([H])(n4nc(-c5c([H])c([H])c(Oc6c([H])c([H])c(F)c([H])c6F)c([H])c5[H])c(C(=O)N([H])[H])c4N([H])[H])C3([H])[H])c([H])c([H])c2C1([H])[H]

$$$$
1:0:0
     RDKit          3D

 95103  0  0  1  0  0  0  0  0999 V2000
  -29.1600  -21.8540   20.3950 C   0  0  0  0  0  0  0  0  0  0  0  0
  -28.7600  -20.5580   20.4470 N   0  0  0  0  0  0  0  0  0  0  0  0
  -30.3390  -22.2160   20.3080 O   0  0  0  0  0  0  0  0  0  0  0  0
  -27.7880  -20.4340   20.6970 H   0  0  0  0  0  0  0  0  0  0  0  0
  -29.4100  -18.1470   20.6690 C   0  0  0  0  0  3  0  0  0  0  0  0
  -30.6870  -18.2710   18.1760 C   0  0  0  0  0  3  0  0  0  0  0  0
  -29.4620  -19.3940   19.9710 C   0  0  0  0  0  0  0  0  0  0  0  0
  -30.0110  -16.9610   20.1410 C   0  0  0  0  0  0  0  0  0  0  0  0
  -30.1130  -19.4320   18.7150 C   0  0  0  0  0  0  0  0  0  0  0  0
  -30.6200  -17.0450   18.8590 C   0  0  0  0  0  0  0  0  0  0  0  0
  -30.1300  -20.5640   17.9690 F   0  0  0  0  0  0  0  0  0  0  0  0
  -31.0930  -15.9470   18.2220 F   0  0  0  0  0  0  0  0  0  0  0  0
  -30.7210  -14.6200   20.7090 C   0  0  0  0  0  0  0  0  0  0  0  0
  -30.5460  -12.3830   19.7090 C   0  0  0  0  0  2  0  0  0  0  0  0
  -29.6730  -12.5120   18.4430 C   0  0  0  0  0  2  0  0  0  0  0  0
  -28.1790  -12.3630   18.7950 C   0  0  0  0  0  2  0  0  0  0  0  0
  -27.7540  -13.2490   19.9970 C   0  0  0  0  0  3  0  0  0  0  0  0
  -28.7490  -13.1160   21.1710 C   0  0  0  0  0  2  0  0  0  0  0  0
  -30.0950  -13.4120   20.6590 N   0  0  0  0  0  0  0  0  0  0  0  0
  -31.9230  -14.7500   20.4650 O   0  0  0  0  0  0  0  0  0  0  0  0
  -29.9060  -15.6990   20.8430 N   0  0  0  0  0  0  0  0  0  0  0  0
  -29.0110  -15.5080   21.2640 H   0  0  0  0  0  0  0  0  0  0  0  0
  -25.3210  -13.8450   20.5800 C   0  0  0  0  0  0  0  0  0  0  0  0
  -24.2420  -13.0690   20.9060 C   0  0  0  0  0  0  0  0  0  0  0  0
  -24.7140  -11.7210   20.9220 C   0  0  0  0  0  0  0  0  0  0  0  0
  -26.3830  -12.9690   20.4140 N   0  0  0  0  0  0  0  0  0  0  0  0
  -26.0200  -11.6880   20.6800 N   0  0  0  0  0  0  0  0  0  0  0  0
  -23.9900  -10.4550   21.0940 C   0  0  0  0  0  0  0  0  0  0  0  0
  -24.3860   -9.5030   22.0590 C   0  0  0  0  0  3  0  0  0  0  0  0
  -23.6630   -8.3010   22.2160 C   0  0  0  0  0  3  0  0  0  0  0  0
  -22.5290   -8.0440   21.4090 C   0  0  0  0  0  0  0  0  0  0  0  0
  -22.1520   -8.9850   20.4360 C   0  0  0  0  0  3  0  0  0  0  0  0
  -22.8760  -10.1780   20.2750 C   0  0  0  0  0  3  0  0  0  0  0  0
  -21.7810   -6.8940   21.4760 O   0  0  0  0  0  0  0  0  0  0  0  0
  -21.6840   -6.1630   22.6330 C   0  0  0  0  0  0  0  0  0  0  0  0
  -21.1810   -6.7230   23.8280 C   0  0  0  0  0  3  0  0  0  0  0  0
  -21.0340   -5.9170   24.9740 C   0  0  0  0  0  3  0  0  0  0  0  0
  -21.3800   -4.5530   24.9270 C   0  0  0  0  0  0  0  0  0  0  0  0
  -21.8770   -3.9930   23.7370 C   0  0  0  0  0  3  0  0  0  0  0  0
  -22.0250   -4.7960   22.5930 C   0  0  0  0  0  0  0  0  0  0  0  0
  -22.4840   -4.2470   21.4420 F   0  0  0  0  0  0  0  0  0  0  0  0
  -21.2320   -3.7780   26.0260 F   0  0  0  0  0  0  0  0  0  0  0  0
  -22.8290  -13.5380   21.0980 C   0  0  0  0  0  0  0  0  0  0  0  0
  -22.0610  -12.8480   21.9350 N   0  0  0  0  0  0  0  0  0  0  0  0
  -22.4110  -14.5520   20.5410 O   0  0  0  0  0  0  0  0  0  0  0  0
  -22.4110  -12.0280   22.4090 H   0  0  0  0  0  0  0  0  0  0  0  0
  -21.1120  -13.1460   22.1050 H   0  0  0  0  0  0  0  0  0  0  0  0
  -25.4840  -15.2140   20.3880 N   0  0  0  0  0  0  0  0  0  0  0  0
  -24.7070  -15.8610   20.4420 H   0  0  0  0  0  0  0  0  0  0  0  0
  -26.3410  -15.6510   20.0730 H   0  0  0  0  0  0  0  0  0  0  0  0
  -27.9770  -22.8800   20.5160 C   0  0  0  0  0  0  0  0  0  0  0  0
  -26.8110  -22.5360   20.2840 O   0  0  0  0  0  0  0  0  0  0  0  0
  -28.2660  -24.3380   20.9580 C   0  0  0  0  0  2  0  0  0  0  0  0
  -28.5240  -25.3570   19.8100 C   0  0  0  0  0  2  0  0  0  0  0  0
  -28.4490  -26.7450   20.2290 O   0  0  0  0  0  0  0  0  0  0  0  0
  -24.5620  -31.9140   23.2660 C   0  0  0  0  0  0  0  0  0  0  0  0
  -27.2510  -27.4500   20.2100 C   0  0  0  0  0  0  0  0  0  0  0  0
  -23.3770  -30.5030   21.6180 C   0  0  0  0  0  3  0  0  0  0  0  0
  -24.8470  -28.9710   20.2060 C   0  0  0  0  0  0  0  0  0  0  0  0
  -25.9060  -30.8690   21.4390 C   0  0  0  0  0  2  0  0  0  0  0  0
  -26.0020  -29.4950   20.7990 C   0  0  0  0  0  0  0  0  0  0  0  0
  -27.2030  -28.7450   20.7920 C   0  0  0  0  0  3  0  0  0  0  0  0
  -26.0660  -26.9440   19.6240 C   0  0  0  0  0  3  0  0  0  0  0  0
  -24.8780  -27.6960   19.6170 C   0  0  0  0  0  3  0  0  0  0  0  0
  -23.6000  -29.8250   20.2410 C   0  0  0  0  0  2  0  0  0  0  0  0
  -24.6340  -31.1110   22.1660 N   0  0  0  0  0  0  0  0  0  0  0  0
  -23.4750  -32.1790   23.7990 O   0  0  0  0  0  0  0  0  0  0  0  0
  -22.7250  -29.4770   22.5760 C   0  0  0  0  0  0  0  0  0  0  0  0
  -21.4020  -29.2910   22.4440 N   0  0  0  0  0  0  0  0  0  0  0  0
  -23.4090  -28.8540   23.3920 O   0  0  0  0  0  0  0  0  0  0  0  0
  -20.9120  -29.8470   21.7560 H   0  0  0  0  0  0  0  0  0  0  0  0
  -18.0300  -28.0890   22.9330 C   0  0  0  0  0  0  0  0  0  0  0  0
  -20.5860  -28.3480   23.2090 C   0  0  0  0  0  3  0  0  0  0  0  0
  -20.6920  -26.9200   22.6270 C   0  0  0  0  0  2  0  0  0  0  0  0
  -19.5910  -26.6000   21.6090 C   0  0  0  0  0  2  0  0  0  0  0  0
  -18.2080  -26.7410   22.2520 C   0  0  0  0  0  2  0  0  0  0  0  0
  -19.1470  -28.8500   23.3680 C   0  0  0  0  0  0  0  0  0  0  0  0
  -18.9250  -30.1110   23.9630 C   0  0  0  0  0  3  0  0  0  0  0  0
  -17.6210  -30.6100   24.1280 C   0  0  0  0  0  3  0  0  0  0  0  0
  -16.5180  -29.8460   23.7110 C   0  0  0  0  0  3  0  0  0  0  0  0
  -16.7230  -28.5870   23.1190 C   0  0  0  0  0  3  0  0  0  0  0  0
  -25.8390  -32.5550   23.8950 C   0  0  0  0  0  3  0  0  0  0  0  0
  -26.3380  -31.8050   25.1900 C   0  0  1  0  0  0  0  0  0  0  0  0
  -25.2310  -31.5830   26.2460 C   0  0  0  0  0  1  0  0  0  0  0  0
  -26.9270  -30.4210   24.8270 C   0  0  0  0  0  1  0  0  0  0  0  0
  -27.4790  -32.6090   25.8550 C   0  0  0  0  0  1  0  0  0  0  0  0
  -25.5270  -33.9580   24.1960 N   0  0  0  0  0  0  0  0  0  0  0  0
  -25.8730  -34.9970   23.4230 C   0  0  0  0  0  0  0  0  0  0  0  0
  -26.5590  -34.8740   22.4050 O   0  0  0  0  0  0  0  0  0  0  0  0
  -24.9190  -34.1270   24.9840 H   0  0  0  0  0  0  0  0  0  0  0  0
  -24.1600  -36.7890   23.0000 C   0  0  0  0  0  1  0  0  0  0  0  0
  -25.3790  -36.3930   23.8480 C   0  0  0  0  0  3  0  0  0  0  0  0
  -27.4930  -37.2860   24.7210 C   0  0  0  0  0  1  0  0  0  0  0  0
  -26.4190  -37.4410   23.7440 N   0  0  0  0  0  0  0  0  0  0  0  0
  -26.0120  -38.3650   23.8630 H   0  0  0  0  0  0  0  0  0  0  0  0
  1  2  1  0
  1 51  1  0
  2  4  1  0
  3  1  2  0
  6  9  2  0
  6 10  1  0
  7  2  1  0
  7  5  2  0
  8  5  1  0
  8 21  1  0
  9  7  1  0
 10  8  2  0
 11  9  1  0
 12 10  1  0
 13 21  1  0
 14 19  1  0
 15 16  1  0
 15 14  1  0
 17 16  1  0
 17 26  1  0
 17 18  1  0
 19 13  1  0
 19 18  1  0
 20 13  2  0
 21 22  1  0
 23 24  2  0
 24 25  1  0
 24 43  1  0
 25 28  1  0
 26 23  1  0
 26 27  1  0
 27 25  2  0
 28 29  1  0
 29 30  2  0
 31 34  1  0
 31 30  1  0
 32 31  2  0
 33 32  1  0
 33 28  2  0
 34 35  1  0
 35 36  1  0
 36 37  2  0
 38 37  1  0
 38 42  1  0
 39 38  2  0
 40 35  2  0
 40 39  1  0
 41 40  1  0
 43 44  1  0
 44 47  1  0
 44 46  1  0
 45 43  2  0
 48 49  1  0
 48 23  1  0
 50 48  1  0
 51 53  1  0
 52 51  2  0
 54 55  1  0
 54 53  1  0
 56 67  2  0
 57 55  1  0
 57 62  1  0
 58 66  1  0
 58 68  1  0
 59 65  1  0
 59 61  1  0
 60 66  1  0
 61 60  1  0
 62 61  2  0
 63 57  2  0
 64 63  1  0
 64 59  2  0
 65 58  1  0
 66 56  1  0
 68 70  2  0
 69 68  1  0
 71 69  1  0
 72 81  2  0
 72 77  1  0
 73 69  1  0
 73 77  1  0
 74 73  1  0
 75 76  1  0
 75 74  1  0
 76 72  1  0
 77 78  2  0
 78 79  1  0
 80 79  2  0
 81 80  1  0
 82 56  1  0
 82 87  1  0
 82 83  1  0
 83 86  1  1
 83 84  1  0
 85 83  1  0
 87 90  1  0
 88 92  1  0
 88 87  1  0
 89 88  2  0
 92 91  1  0
 94 92  1  0
 94 95  1  0
 94 93  1  0
M  ISO  4  13 100  21 100  54 101  55 101
M  END
>  <TORSDO>  (2) 
F 20

>  <SCORE>  (2) 
-13.990

>  <name>  (2) 
1

>  <ligand_id>  (2) 
1

>  <original_smiles>  (2) 
[H]c1c([H])c([H])c2c(c1[H])C([H])([H])C([H])([H])C([H])([H])C2([H])N([H])C(=O)C1([H])N(C(=O)C([H])(N([H])C(=O)C([H])(N([H])C([H])([H])[H])C([H])([H])[H])C(C([H])([H])[H])(C([H])([H])[H])C([H])([H])[H])C([H])([H])c2c([H])c(OC([H])([H])C([H])([H])C(=O)C(=O)N([H])c3c([H])c(N([H])C(=O)N4C([H])([H])C([H])([H])C([H])([H])C([H])(n5nc(-c6c([H])c([H])c(Oc7c([H])c([H])c(F)c([H])c7F)c([H])c6[H])c(C(=O)N([H])[H])c5N([H])[H])C4([H])[H])c(F)c([H])c3F)c([H])c([H])c2C1([H])[H]

>  <smiles>  (2) 
[H]c1c([H])c([H])c2c(c1[H])C([H])([H])C([H])([H])C([H])([H])C2([H])N([H])C(=O)C1([H])N(C(=O)C([H])(N([H])C(=O)C([H])(N([H])C([H])([H])[H])C([H])([H])[H])C(C([H])([H])[H])(C([H])([H])[H])C([H])([H])[H])C([H])([H])c2c([H])c(OC([H])([H])C([H])([H])C(=O)C(=O)N([H])c3c([H])c(N([H])C(=O)N4C([H])([H])C([H])([H])C([H])([H])C([H])(n5nc(-c6c([H])c([H])c(Oc7c([H])c([H])c(F)c([H])c7F)c([H])c6[H])c(C(=O)N([H])[H])c5N([H])[H])C4([H])[H])c(F)c([H])c3F)c([H])c([H])c2C1([H])[H]

$$$$
2:0:0
     RDKit          3D

 96104  0  0  1  0  0  0  0  0999 V2000
  -29.2760  -22.2950    6.6960 C   0  0  0  0  0  0  0  0  0  0  0  0
  -27.8070  -22.4310    4.6070 C   0  0  0  0  0  2  0  0  0  0  0  0
  -26.3280  -22.6570    5.0070 C   0  0  0  0  0  2  0  0  0  0  0  0
  -25.6260  -21.3230    5.3260 C   0  0  0  0  0  2  0  0  0  0  0  0
  -26.4920  -20.4040    6.2250 C   0  0  0  0  0  3  0  0  0  0  0  0
  -27.9520  -20.3160    5.7280 C   0  0  0  0  0  2  0  0  0  0  0  0
  -28.4840  -21.6870    5.7120 N   0  0  0  0  0  0  0  0  0  0  0  0
  -29.8360  -23.3530    6.3800 O   0  0  0  0  0  0  0  0  0  0  0  0
  -30.3070  -22.3190   12.2230 C   0  0  0  0  0  0  0  0  0  0  0  0
  -30.0350  -21.0380   11.7110 C   0  0  0  0  0  0  0  0  0  0  0  0
  -29.7170  -21.9720    9.5000 C   0  0  0  0  0  0  0  0  0  0  0  0
  -29.7020  -20.8920   10.3090 N   0  0  0  0  0  0  0  0  0  0  0  0
  -29.2820  -21.7460    8.0210 N   0  0  0  0  0  0  0  0  0  0  0  0
  -30.1790  -23.3510   10.6680 S   0  0  0  0  0  0  0  0  0  0  0  0
  -28.8220  -20.8520    7.9540 H   0  0  0  0  0  0  0  0  0  0  0  0
  -24.8170  -18.7450    7.2210 C   0  0  0  0  0  0  0  0  0  0  0  0
  -24.5830  -17.4190    6.9870 C   0  0  0  0  0  0  0  0  0  0  0  0
  -25.5570  -17.0080    6.0250 C   0  0  0  0  0  0  0  0  0  0  0  0
  -25.8910  -19.0890    6.4150 N   0  0  0  0  0  0  0  0  0  0  0  0
  -26.3750  -18.0150    5.7390 N   0  0  0  0  0  0  0  0  0  0  0  0
  -25.7160  -15.7310    5.3160 C   0  0  0  0  0  0  0  0  0  0  0  0
  -24.9080  -15.3960    4.2060 C   0  0  0  0  0  3  0  0  0  0  0  0
  -25.0960  -14.1720    3.5280 C   0  0  0  0  0  3  0  0  0  0  0  0
  -26.1010  -13.2710    3.9540 C   0  0  0  0  0  0  0  0  0  0  0  0
  -26.8860  -13.5990    5.0730 C   0  0  0  0  0  3  0  0  0  0  0  0
  -26.6940  -14.8150    5.7500 C   0  0  0  0  0  3  0  0  0  0  0  0
  -26.3370  -12.0480    3.3740 O   0  0  0  0  0  0  0  0  0  0  0  0
  -26.5420  -10.9210    4.1280 C   0  0  0  0  0  0  0  0  0  0  0  0
  -25.4670  -10.1680    4.6520 C   0  0  0  0  0  3  0  0  0  0  0  0
  -25.7200   -8.9790    5.3620 C   0  0  0  0  0  3  0  0  0  0  0  0
  -27.0430   -8.5350    5.5430 C   0  0  0  0  0  0  0  0  0  0  0  0
  -28.1150   -9.2790    5.0190 C   0  0  0  0  0  3  0  0  0  0  0  0
  -27.8630  -10.4670    4.3110 C   0  0  0  0  0  0  0  0  0  0  0  0
  -28.8980  -11.1690    3.7890 F   0  0  0  0  0  0  0  0  0  0  0  0
  -27.2870   -7.3880    6.2200 F   0  0  0  0  0  0  0  0  0  0  0  0
  -23.4560  -16.6010    7.5480 C   0  0  0  0  0  0  0  0  0  0  0  0
  -23.7470  -15.3920    8.0140 N   0  0  0  0  0  0  0  0  0  0  0  0
  -22.3140  -17.0550    7.6210 O   0  0  0  0  0  0  0  0  0  0  0  0
  -24.6880  -15.0290    7.9740 H   0  0  0  0  0  0  0  0  0  0  0  0
  -23.0180  -14.8230    8.4190 H   0  0  0  0  0  0  0  0  0  0  0  0
  -24.1940  -19.6920    8.0280 N   0  0  0  0  0  0  0  0  0  0  0  0
  -23.3780  -19.4670    8.5860 H   0  0  0  0  0  0  0  0  0  0  0  0
  -24.4340  -20.6750    8.0660 H   0  0  0  0  0  0  0  0  0  0  0  0
  -30.8950  -18.8540   12.5880 C   0  0  0  0  0  0  0  0  0  0  0  0
  -30.0540  -19.9000   12.5490 N   0  0  0  0  0  0  0  0  0  0  0  0
  -31.9000  -18.7250   11.8850 O   0  0  0  0  0  0  0  0  0  0  0  0
  -29.3290  -19.8930   13.2610 H   0  0  0  0  0  0  0  0  0  0  0  0
  -30.9390  -18.2170   15.0430 C   0  0  0  0  0  1  0  0  0  0  0  0
  -30.5560  -17.7790   13.6210 C   0  0  0  0  0  2  0  0  0  0  0  0
  -30.6860  -22.9100   13.7070 C   0  0  0  0  0  0  0  0  0  0  0  0
  -29.9650  -22.5150   14.6270 O   0  0  0  0  0  0  0  0  0  0  0  0
  -33.2310  -23.9850   14.6780 C   0  0  0  0  0  3  0  0  0  0  0  0
  -31.8920  -23.9310   14.1170 C   0  0  0  0  0  0  0  0  0  0  0  0
  -31.5170  -25.1740   13.7920 O   0  0  0  0  0  0  0  0  0  0  0  0
  -32.2470  -25.7490   13.9860 H   0  0  0  0  0  0  0  0  0  0  0  0
  -34.3910  -23.2440   15.2260 O   0  0  0  0  0  0  0  0  0  0  0  0
  -38.0020  -23.5790   21.7320 C   0  0  0  0  0  0  0  0  0  0  0  0
  -34.4600  -23.0510   16.6740 C   0  0  0  0  0  0  0  0  0  0  0  0
  -36.3060  -21.8210   21.4180 C   0  0  0  0  0  3  0  0  0  0  0  0
  -34.6790  -22.1510   19.4490 C   0  0  0  0  0  0  0  0  0  0  0  0
  -36.0570  -24.0760   20.1990 C   0  0  0  0  0  2  0  0  0  0  0  0
  -35.2820  -23.3590   19.0740 C   0  0  0  0  0  0  0  0  0  0  0  0
  -35.1660  -23.8170   17.6990 C   0  0  0  0  0  3  0  0  0  0  0  0
  -33.7970  -21.9090   17.1780 C   0  0  0  0  0  3  0  0  0  0  0  0
  -33.9190  -21.4470   18.5060 C   0  0  0  0  0  3  0  0  0  0  0  0
  -34.8640  -21.6430   20.8740 C   0  0  0  0  0  2  0  0  0  0  0  0
  -36.8430  -23.1880   21.1180 N   0  0  0  0  0  0  0  0  0  0  0  0
  -38.6000  -22.8360   22.5270 O   0  0  0  0  0  0  0  0  0  0  0  0
  -37.2070  -20.6800   20.8800 C   0  0  0  0  0  0  0  0  0  0  0  0
  -37.9370  -19.9960   21.7800 N   0  0  0  0  0  0  0  0  0  0  0  0
  -37.2230  -20.4130   19.6760 O   0  0  0  0  0  0  0  0  0  0  0  0
  -37.8830  -20.2790   22.7480 H   0  0  0  0  0  0  0  0  0  0  0  0
  -40.7570  -18.0700   22.9970 C   0  0  0  0  0  0  0  0  0  0  0  0
  -38.8070  -18.8530   21.4860 C   0  0  0  0  0  3  0  0  0  0  0  0
  -38.1210  -17.5200   21.8610 C   0  0  0  0  0  2  0  0  0  0  0  0
  -38.4620  -17.0420   23.2760 C   0  0  0  0  0  2  0  0  0  0  0  0
  -39.9720  -16.8420   23.4270 C   0  0  0  0  0  2  0  0  0  0  0  0
  -40.2030  -19.0220   22.0990 C   0  0  0  0  0  0  0  0  0  0  0  0
  -40.9640  -20.1620   21.7580 C   0  0  0  0  0  3  0  0  0  0  0  0
  -42.2510  -20.3570   22.2960 C   0  0  0  0  0  3  0  0  0  0  0  0
  -42.7970  -19.4050   23.1740 C   0  0  0  0  0  3  0  0  0  0  0  0
  -42.0530  -18.2630   23.5200 C   0  0  0  0  0  3  0  0  0  0  0  0
  -38.6220  -24.9860   21.4790 C   0  0  0  0  0  3  0  0  0  0  0  0
  -40.1200  -25.0980   21.9660 C   0  0  1  0  0  0  0  0  0  0  0  0
  -40.2810  -25.0370   23.5030 C   0  0  0  0  0  1  0  0  0  0  0  0
  -40.9850  -23.9710   21.3600 C   0  0  0  0  0  1  0  0  0  0  0  0
  -40.7300  -26.4330   21.4750 C   0  0  0  0  0  1  0  0  0  0  0  0
  -37.7840  -25.9780   22.1700 N   0  0  0  0  0  0  0  0  0  0  0  0
  -37.1980  -27.0300   21.5820 C   0  0  0  0  0  0  0  0  0  0  0  0
  -37.3630  -27.3040   20.3900 O   0  0  0  0  0  0  0  0  0  0  0  0
  -37.5610  -25.7840   23.1350 H   0  0  0  0  0  0  0  0  0  0  0  0
  -34.8220  -27.4870   22.2770 C   0  0  0  0  0  1  0  0  0  0  0  0
  -36.2870  -27.9210   22.4510 C   0  0  0  0  0  3  0  0  0  0  0  0
  -37.6710  -29.9420   22.6270 C   0  0  0  0  0  1  0  0  0  0  0  0
  -36.4160  -29.3640   22.1520 N   0  0  0  0  0  0  0  0  0  0  0  0
  -35.6490  -29.8870   22.5670 H   0  0  0  0  0  0  0  0  0  0  0  0
  1 13  1  0
  2  3  1  0
  2  7  1  0
  3  4  1  0
  5  4  1  0
  5 19  1  0
  6  5  1  0
  7  6  1  0
  7  1  1  0
  8  1  2  0
  9 50  1  0
 10  9  2  0
 10 45  1  0
 11 12  2  0
 11 14  1  0
 12 10  1  0
 13 11  1  0
 14  9  1  0
 15 13  1  0
 16 41  1  0
 17 16  2  0
 17 36  1  0
 18 17  1  0
 19 16  1  0
 20 18  2  0
 20 19  1  0
 21 26  1  0
 21 18  1  0
 22 21  2  0
 23 24  2  0
 23 22  1  0
 24 25  1  0
 25 26  2  0
 27 24  1  0
 27 28  1  0
 28 33  2  0
 28 29  1  0
 29 30  2  0
 30 31  1  0
 31 35  1  0
 32 31  2  0
 33 32  1  0
 34 33  1  0
 36 38  2  0
 36 37  1  0
 37 40  1  0
 39 37  1  0
 41 43  1  0
 41 42  1  0
 44 49  1  0
 45 44  1  0
 45 47  1  0
 46 44  2  0
 49 48  1  0
 50 53  1  0
 50 51  2  0
 52 56  1  0
 53 52  2  0
 54 55  1  0
 54 53  1  0
 56 58  1  0
 57 68  2  0
 58 64  2  0
 58 63  1  0
 59 69  1  0
 60 66  1  0
 61 67  1  0
 62 60  1  0
 62 61  1  0
 63 62  2  0
 64 65  1  0
 65 60  2  0
 66 59  1  0
 67 59  1  0
 67 57  1  0
 69 70  1  0
 70 72  1  0
 71 69  2  0
 73 77  1  0
 73 82  1  0
 74 70  1  0
 74 75  1  0
 74 78  1  0
 75 76  1  0
 76 77  1  0
 78 73  2  0
 79 78  1  0
 79 80  2  0
 80 81  1  0
 81 82  2  0
 83 57  1  0
 83 84  1  0
 83 88  1  0
 84 85  1  1
 86 84  1  0
 87 84  1  0
 88 91  1  0
 89 88  1  0
 89 93  1  0
 90 89  2  0
 93 92  1  0
 95 93  1  0
 95 96  1  0
 95 94  1  0
M  ISO  4   1 100  13 100  52 101  56 101
M  END
>  <TORSDO>  (3) 
F 20

>  <SCORE>  (3) 
-4.086

>  <name>  (3) 
2

>  <ligand_id>  (3) 
2

>  <original_smiles>  (3) 
[H]OC(C(=O)c1sc(N([H])C(=O)N2C([H])([H])C([H])([H])C([H])([H])C([H])(n3nc(-c4c([H])c([H])c(Oc5c([H])c([H])c(F)c([H])c5F)c([H])c4[H])c(C(=O)N([H])[H])c3N([H])[H])C2([H])[H])nc1N([H])C(=O)C([H])([H])C([H])([H])[H])=C([H])Oc1c([H])c([H])c2c(c1[H])C([H])([H])N(C(=O)C([H])(N([H])C(=O)C([H])(N([H])C([H])([H])[H])C([H])([H])[H])C(C([H])([H])[H])(C([H])([H])[H])C([H])([H])[H])C([H])(C(=O)N([H])C1([H])c3c([H])c([H])c([H])c([H])c3C([H])([H])C([H])([H])C1([H])[H])C2([H])[H]

>  <smiles>  (3) 
[H]OC(C(=O)c1sc(N([H])C(=O)N2C([H])([H])C([H])([H])C([H])([H])C([H])(n3nc(-c4c([H])c([H])c(Oc5c([H])c([H])c(F)c([H])c5F)c([H])c4[H])c(C(=O)N([H])[H])c3N([H])[H])C2([H])[H])nc1N([H])C(=O)C([H])([H])C([H])([H])[H])=C([H])Oc1c([H])c([H])c2c(c1[H])C([H])([H])N(C(=O)C([H])(N([H])C(=O)C([H])(N([H])C([H])([H])[H])C([H])([H])[H])C(C([H])([H])[H])(C([H])([H])[H])C([H])([H])[H])C([H])(C(=O)N([H])C1([H])c3c([H])c([H])c([H])c([H])c3C([H])([H])C([H])([H])C1([H])[H])C2([H])[H]

$$$$
3:0:0
     RDKit          3D

 98106  0  0  1  0  0  0  0  0999 V2000
  -30.2150  -22.5490   23.3200 C   0  0  0  0  0  3  0  0  0  0  0  0
  -30.6140  -21.1800   23.1750 C   0  0  0  0  0  0  0  0  0  0  0  0
  -30.9360  -20.8720   21.8640 C   0  0  0  0  0  0  0  0  0  0  0  0
  -30.1380  -23.2610   22.1470 C   0  0  0  0  0  0  0  0  0  0  0  0
  -30.6580  -22.2450   20.8170 S   0  0  0  0  0  0  0  0  0  0  0  0
  -30.6580  -20.2710   24.3880 C   0  0  1  0  0  0  0  0  0  0  0  0
  -31.4440  -20.7780   25.3360 F   0  0  0  0  0  0  0  0  0  0  0  0
  -29.4390  -20.1290   24.9100 F   0  0  0  0  0  0  0  0  0  0  0  0
  -31.1080  -19.0480   24.1090 F   0  0  0  0  0  0  0  0  0  0  0  0
  -29.5870  -25.2260   20.8690 C   0  0  0  0  0  0  0  0  0  0  0  0
  -29.6410  -24.5210   22.0150 N   0  0  0  0  0  0  0  0  0  0  0  0
  -30.5680  -25.4310   20.1500 O   0  0  0  0  0  0  0  0  0  0  0  0
  -28.9160  -24.7530   22.6780 H   0  0  0  0  0  0  0  0  0  0  0  0
  -27.5460  -24.6100   19.6370 C   0  0  0  0  0  1  0  0  0  0  0  0
  -28.1920  -25.7390   20.4720 C   0  0  0  0  0  3  0  0  0  0  0  0
  -28.2740  -27.0140   19.7930 O   0  0  0  0  0  0  0  0  0  0  0  0
  -24.5470  -31.9200   23.3500 C   0  0  0  0  0  0  0  0  0  0  0  0
  -27.1180  -27.7660   19.8520 C   0  0  0  0  0  0  0  0  0  0  0  0
  -23.2960  -30.6350   21.6480 C   0  0  0  0  0  3  0  0  0  0  0  0
  -24.7120  -29.2400   20.0550 C   0  0  0  0  0  0  0  0  0  0  0  0
  -25.8110  -31.0420   21.3900 C   0  0  0  0  0  2  0  0  0  0  0  0
  -25.8860  -29.7270   20.6450 C   0  0  0  0  0  0  0  0  0  0  0  0
  -27.0900  -28.9930   20.5520 C   0  0  0  0  0  3  0  0  0  0  0  0
  -25.9360  -27.3210   19.2240 C   0  0  0  0  0  3  0  0  0  0  0  0
  -24.7320  -28.0330   19.3440 C   0  0  0  0  0  3  0  0  0  0  0  0
  -23.4620  -30.0750   20.2120 C   0  0  0  0  0  2  0  0  0  0  0  0
  -24.5710  -31.2080   22.1880 N   0  0  0  0  0  0  0  0  0  0  0  0
  -23.4810  -32.1350   23.9460 O   0  0  0  0  0  0  0  0  0  0  0  0
  -22.6940  -29.5300   22.5490 C   0  0  0  0  0  0  0  0  0  0  0  0
  -21.3860  -29.2700   22.3860 N   0  0  0  0  0  0  0  0  0  0  0  0
  -23.4000  -28.9130   23.3510 O   0  0  0  0  0  0  0  0  0  0  0  0
  -20.8710  -29.8230   21.7150 H   0  0  0  0  0  0  0  0  0  0  0  0
  -18.1070  -27.7840   22.6960 C   0  0  0  0  0  0  0  0  0  0  0  0
  -20.6190  -28.2470   23.0970 C   0  0  0  0  0  3  0  0  0  0  0  0
  -20.8660  -26.8400   22.5000 C   0  0  0  0  0  2  0  0  0  0  0  0
  -19.8450  -26.4530   21.4270 C   0  0  0  0  0  2  0  0  0  0  0  0
  -18.4280  -26.4700   22.0050 C   0  0  0  0  0  2  0  0  0  0  0  0
  -19.1370  -28.6280   23.1940 C   0  0  0  0  0  0  0  0  0  0  0  0
  -18.7850  -29.8570   23.7940 C   0  0  0  0  0  3  0  0  0  0  0  0
  -17.4370  -30.2440   23.9040 C   0  0  0  0  0  3  0  0  0  0  0  0
  -16.4230  -29.3990   23.4170 C   0  0  0  0  0  3  0  0  0  0  0  0
  -16.7580  -28.1710   22.8200 C   0  0  0  0  0  3  0  0  0  0  0  0
  -25.8490  -32.5180   23.9720 C   0  0  0  0  0  3  0  0  0  0  0  0
  -26.3260  -31.7550   25.2700 C   0  0  1  0  0  0  0  0  0  0  0  0
  -25.2060  -31.5360   26.3140 C   0  0  0  0  0  1  0  0  0  0  0  0
  -26.9070  -30.3710   24.8990 C   0  0  0  0  0  1  0  0  0  0  0  0
  -27.4690  -32.5430   25.9530 C   0  0  0  0  0  1  0  0  0  0  0  0
  -25.5870  -33.9320   24.2710 N   0  0  0  0  0  0  0  0  0  0  0  0
  -25.9610  -34.9590   23.4940 C   0  0  0  0  0  0  0  0  0  0  0  0
  -26.6390  -34.8120   22.4720 O   0  0  0  0  0  0  0  0  0  0  0  0
  -24.9980  -34.1260   25.0670 H   0  0  0  0  0  0  0  0  0  0  0  0
  -24.2930  -36.7930   23.0820 C   0  0  0  0  0  1  0  0  0  0  0  0
  -25.5120  -36.3710   23.9180 C   0  0  0  0  0  3  0  0  0  0  0  0
  -27.6610  -37.2030   24.7540 C   0  0  0  0  0  1  0  0  0  0  0  0
  -26.5790  -37.3880   23.7910 N   0  0  0  0  0  0  0  0  0  0  0  0
  -26.2050  -38.3230   23.9170 H   0  0  0  0  0  0  0  0  0  0  0  0
  -31.5890  -19.6410   21.2770 C   0  0  0  0  0  2  0  0  0  0  0  0
  -30.6890  -18.5720   20.6300 C   0  0  0  0  0  0  0  0  0  0  0  0
  -29.5460  -18.8220   20.2240 O   0  0  0  0  0  0  0  0  0  0  0  0
  -31.3500  -17.1900   20.4410 C   0  0  0  0  0  3  0  0  0  0  0  0
  -32.3240  -17.0150   21.3410 F   0  0  0  0  0  0  0  0  0  0  0  0
  -30.4200  -15.9430   20.4730 C   0  0  0  0  0  2  0  0  0  0  0  0
  -31.0760  -14.6770   19.8710 C   0  0  0  0  0  0  0  0  0  0  0  0
  -30.8180  -12.3530   19.0730 C   0  0  0  0  0  2  0  0  0  0  0  0
  -29.8510  -12.3300   17.8710 C   0  0  0  0  0  2  0  0  0  0  0  0
  -28.3890  -12.2270   18.3490 C   0  0  0  0  0  2  0  0  0  0  0  0
  -28.0510  -13.2630   19.4540 C   0  0  0  0  0  3  0  0  0  0  0  0
  -29.1250  -13.2510   20.5650 C   0  0  0  0  0  2  0  0  0  0  0  0
  -30.4330  -13.4790   19.9350 N   0  0  0  0  0  0  0  0  0  0  0  0
  -32.1450  -14.7990   19.2620 O   0  0  0  0  0  0  0  0  0  0  0  0
  -25.7280  -13.9800   20.3040 C   0  0  0  0  0  0  0  0  0  0  0  0
  -24.6380  -13.2560   20.7080 C   0  0  0  0  0  0  0  0  0  0  0  0
  -25.0190  -11.8820   20.6130 C   0  0  0  0  0  0  0  0  0  0  0  0
  -26.7090  -13.0500   19.9930 N   0  0  0  0  0  0  0  0  0  0  0  0
  -26.2860  -11.7820   20.2350 N   0  0  0  0  0  0  0  0  0  0  0  0
  -24.2340  -10.6580   20.8050 C   0  0  0  0  0  0  0  0  0  0  0  0
  -24.5960   -9.6930   21.7710 C   0  0  0  0  0  3  0  0  0  0  0  0
  -23.8130   -8.5330   21.9510 C   0  0  0  0  0  3  0  0  0  0  0  0
  -22.6550   -8.3270   21.1630 C   0  0  0  0  0  0  0  0  0  0  0  0
  -22.3130   -9.2810   20.1880 C   0  0  0  0  0  3  0  0  0  0  0  0
  -23.0950  -10.4330   20.0070 C   0  0  0  0  0  3  0  0  0  0  0  0
  -21.8480   -7.2190   21.2510 O   0  0  0  0  0  0  0  0  0  0  0  0
  -21.6680   -6.5520   22.4380 C   0  0  0  0  0  0  0  0  0  0  0  0
  -21.1250   -7.1890   23.5750 C   0  0  0  0  0  3  0  0  0  0  0  0
  -20.8940   -6.4490   24.7520 C   0  0  0  0  0  3  0  0  0  0  0  0
  -21.1910   -5.0740   24.7900 C   0  0  0  0  0  0  0  0  0  0  0  0
  -21.7240   -4.4360   23.6560 C   0  0  0  0  0  3  0  0  0  0  0  0
  -21.9590   -5.1750   22.4810 C   0  0  0  0  0  0  0  0  0  0  0  0
  -22.4550   -4.5510   21.3850 F   0  0  0  0  0  0  0  0  0  0  0  0
  -20.9600   -4.3600   25.9170 F   0  0  0  0  0  0  0  0  0  0  0  0
  -23.2860  -13.8010   21.0700 C   0  0  0  0  0  0  0  0  0  0  0  0
  -22.5650  -13.1210   21.9540 N   0  0  0  0  0  0  0  0  0  0  0  0
  -22.8820  -14.8670   20.6090 O   0  0  0  0  0  0  0  0  0  0  0  0
  -22.9040  -12.2560   22.3510 H   0  0  0  0  0  0  0  0  0  0  0  0
  -21.6590  -13.4680   22.2380 H   0  0  0  0  0  0  0  0  0  0  0  0
  -25.9570  -15.3450   20.1580 N   0  0  0  0  0  0  0  0  0  0  0  0
  -25.2310  -16.0310   20.3390 H   0  0  0  0  0  0  0  0  0  0  0  0
  -26.8210  -15.7570   19.8270 H   0  0  0  0  0  0  0  0  0  0  0  0
  2  1  1  0
  2  6  1  0
  3  2  2  0
  4  1  2  0
  5  3  1  0
  5  4  1  0
  6  8  1  1
  6  7  1  0
  9  6  1  0
 10 11  1  0
 11  4  1  0
 11 13  1  0
 12 10  2  0
 15 14  1  0
 15 10  1  0
 16 18  1  0
 16 15  1  0
 17 28  2  0
 18 23  1  0
 19 27  1  0
 19 29  1  0
 20 26  1  0
 20 22  1  0
 21 27  1  0
 22 21  1  0
 23 22  2  0
 24 25  1  0
 24 18  2  0
 25 20  2  0
 26 19  1  0
 27 17  1  0
 29 31  2  0
 30 29  1  0
 32 30  1  0
 33 42  2  0
 33 38  1  0
 34 30  1  0
 34 38  1  0
 35 34  1  0
 36 37  1  0
 36 35  1  0
 37 33  1  0
 38 39  2  0
 39 40  1  0
 41 40  2  0
 42 41  1  0
 43 17  1  0
 43 48  1  0
 43 44  1  0
 44 47  1  1
 44 45  1  0
 46 44  1  0
 48 51  1  0
 49 53  1  0
 49 48  1  0
 50 49  2  0
 53 52  1  0
 55 56  1  0
 55 53  1  0
 55 54  1  0
 57  3  1  0
 58 57  1  0
 59 58  2  0
 60 62  1  0
 60 58  1  0
 60 61  1  0
 63 69  1  0
 63 62  1  0
 64 69  1  0
 65 66  1  0
 65 64  1  0
 67 66  1  0
 67 74  1  0
 67 68  1  0
 69 68  1  0
 70 63  2  0
 71 72  2  0
 72 91  1  0
 73 72  1  0
 73 76  1  0
 74 75  1  0
 74 71  1  0
 75 73  2  0
 76 77  1  0
 77 78  2  0
 79 82  1  0
 79 78  1  0
 80 79  2  0
 81 80  1  0
 81 76  2  0
 82 83  1  0
 83 88  2  0
 83 84  1  0
 84 85  2  0
 85 86  1  0
 86 90  1  0
 87 86  2  0
 88 87  1  0
 89 88  1  0
 91 92  1  0
 92 95  1  0
 92 94  1  0
 93 91  2  0
 96 71  1  0
 96 97  1  0
 98 96  1  0
M  ISO  4  15 101  16 101  62 100  63 100
M  END
>  <TORSDO>  (4) 
F 23

>  <SCORE>  (4) 
-12.158

>  <name>  (4) 
3

>  <ligand_id>  (4) 
3

>  <original_smiles>  (4) 
[H]c1c([H])c([H])c2c(c1[H])C([H])([H])C([H])([H])C([H])([H])C2([H])N([H])C(=O)C1([H])N(C(=O)C([H])(N([H])C(=O)C([H])(N([H])C([H])([H])[H])C([H])([H])[H])C(C([H])([H])[H])(C([H])([H])[H])C([H])([H])[H])C([H])([H])c2c([H])c(OC([H])(C(=O)N([H])c3sc(C([H])([H])C(=O)C([H])(F)C([H])([H])C(=O)N4C([H])([H])C([H])([H])C([H])([H])C([H])(n5nc(-c6c([H])c([H])c(Oc7c([H])c([H])c(F)c([H])c7F)c([H])c6[H])c(C(=O)N([H])[H])c5N([H])[H])C4([H])[H])c(C(F)(F)F)c3[H])C([H])([H])[H])c([H])c([H])c2C1([H])[H]

>  <smiles>  (4) 
[H]c1c([H])c([H])c2c(c1[H])C([H])([H])C([H])([H])C([H])([H])C2([H])N([H])C(=O)C1([H])N(C(=O)C([H])(N([H])C(=O)C([H])(N([H])C([H])([H])[H])C([H])([H])[H])C(C([H])([H])[H])(C([H])([H])[H])C([H])([H])[H])C([H])([H])c2c([H])c(OC([H])(C(=O)N([H])c3sc(C([H])([H])C(=O)C([H])(F)C([H])([H])C(=O)N4C([H])([H])C([H])([H])C([H])([H])C([H])(n5nc(-c6c([H])c([H])c(Oc7c([H])c([H])c(F)c([H])c7F)c([H])c6[H])c(C(=O)N([H])[H])c5N([H])[H])C4([H])[H])c(C(F)(F)F)c3[H])C([H])([H])[H])c([H])c([H])c2C1([H])[H]

$$$$
4:0:0
     RDKit          3D

 97105  0  0  1  0  0  0  0  0999 V2000
  -30.5420  -20.6680   21.8480 C   0  0  0  0  0  0  0  0  0  0  0  0
  -29.6840  -21.2330   21.0530 N   0  0  0  0  0  2  0  0  0  0  0  0
  -31.2510  -21.2280   22.8980 N   0  0  0  0  0  4  0  0  0  0  0  0
  -31.9420  -20.7290   23.4460 H   0  0  0  0  0  0  0  0  0  0  0  0
  -31.2850  -22.2150   23.1250 H   0  0  0  0  0  0  0  0  0  0  0  0
  -30.7540  -14.6660   19.9190 C   0  0  0  0  0  0  0  0  0  0  0  0
  -30.3710  -12.5850   18.6470 C   0  0  0  0  0  2  0  0  0  0  0  0
  -29.2920  -12.7900   17.5640 C   0  0  0  0  0  2  0  0  0  0  0  0
  -27.8790  -12.5870   18.1460 C   0  0  0  0  0  2  0  0  0  0  0  0
  -27.6580  -13.3780   19.4640 C   0  0  0  0  0  3  0  0  0  0  0  0
  -28.8240  -13.1260   20.4420 C   0  0  0  0  0  2  0  0  0  0  0  0
  -30.0800  -13.4960   19.7620 N   0  0  0  0  0  0  0  0  0  0  0  0
  -31.7460  -14.9670   19.2450 O   0  0  0  0  0  0  0  0  0  0  0  0
  -30.8030  -19.2250   21.6510 C   0  0  0  0  0  0  0  0  0  0  0  0
  -31.9610  -18.4850   21.7920 C   0  0  0  0  0  0  0  0  0  0  0  0
  -30.6100  -16.8140   21.1210 C   0  0  0  0  0  0  0  0  0  0  0  0
  -31.8520  -17.1220   21.5010 N   0  0  0  0  0  0  0  0  0  0  0  0
  -30.2100  -15.4960   20.8210 N   0  0  0  0  0  0  0  0  0  0  0  0
  -33.1030  -19.0030   22.1880 F   0  0  0  0  0  0  0  0  0  0  0  0
  -29.4930  -18.1740   21.1350 S   0  0  0  0  0  0  0  0  0  0  0  0
  -29.3290  -15.1980   21.2110 H   0  0  0  0  0  0  0  0  0  0  0  0
  -25.3510  -13.9050   20.4800 C   0  0  0  0  0  0  0  0  0  0  0  0
  -24.3380  -13.0940   20.9160 C   0  0  0  0  0  0  0  0  0  0  0  0
  -24.8000  -11.7540   20.7370 C   0  0  0  0  0  0  0  0  0  0  0  0
  -26.3680  -13.0560   20.0710 N   0  0  0  0  0  0  0  0  0  0  0  0
  -26.0450  -11.7540   20.2790 N   0  0  0  0  0  0  0  0  0  0  0  0
  -24.1100  -10.4720   20.9220 C   0  0  0  0  0  0  0  0  0  0  0  0
  -24.5610   -9.5210   21.8630 C   0  0  0  0  0  3  0  0  0  0  0  0
  -23.8710   -8.3010   22.0350 C   0  0  0  0  0  3  0  0  0  0  0  0
  -22.7180   -8.0240   21.2640 C   0  0  0  0  0  0  0  0  0  0  0  0
  -22.2870   -8.9640   20.3110 C   0  0  0  0  0  3  0  0  0  0  0  0
  -22.9770  -10.1750   20.1380 C   0  0  0  0  0  3  0  0  0  0  0  0
  -22.0000   -6.8550   21.3440 O   0  0  0  0  0  0  0  0  0  0  0  0
  -21.8380   -6.1900   22.5320 C   0  0  0  0  0  0  0  0  0  0  0  0
  -21.1900   -6.7840   23.6370 C   0  0  0  0  0  3  0  0  0  0  0  0
  -20.9840   -6.0400   24.8150 C   0  0  0  0  0  3  0  0  0  0  0  0
  -21.4150   -4.7020   24.8890 C   0  0  0  0  0  0  0  0  0  0  0  0
  -22.0560   -4.1070   23.7870 C   0  0  0  0  0  3  0  0  0  0  0  0
  -22.2640   -4.8490   22.6110 C   0  0  0  0  0  0  0  0  0  0  0  0
  -22.8630   -4.2640   21.5460 F   0  0  0  0  0  0  0  0  0  0  0  0
  -21.2100   -3.9830   26.0170 F   0  0  0  0  0  0  0  0  0  0  0  0
  -22.9780  -13.5300   21.3800 C   0  0  0  0  0  0  0  0  0  0  0  0
  -22.3530  -12.7540   22.2590 N   0  0  0  0  0  0  0  0  0  0  0  0
  -22.4830  -14.5910   21.0010 O   0  0  0  0  0  0  0  0  0  0  0  0
  -22.7700  -11.8950   22.5870 H   0  0  0  0  0  0  0  0  0  0  0  0
  -21.4430  -13.0210   22.6070 H   0  0  0  0  0  0  0  0  0  0  0  0
  -25.4890  -15.2870   20.3830 N   0  0  0  0  0  0  0  0  0  0  0  0
  -24.7380  -15.9250   20.6260 H   0  0  0  0  0  0  0  0  0  0  0  0
  -26.2890  -15.7560   19.9760 H   0  0  0  0  0  0  0  0  0  0  0  0
  -28.1820  -23.0400   22.1190 O   0  0  0  0  0  0  0  0  0  0  0  0
  -30.5290  -23.6590   21.3760 O   0  0  0  0  0  0  0  0  0  0  0  0
  -29.3040  -22.8630   21.1790 S   0  0  1  0  0  0  0  0  0  0  0  0
  -28.6680  -23.1710   19.4840 C   0  0  0  0  0  2  0  0  0  0  0  0
  -28.7470  -24.6510   19.0990 C   0  0  0  0  0  0  0  0  0  0  0  0
  -29.0040  -24.9770   17.9330 O   0  0  0  0  0  0  0  0  0  0  0  0
  -28.4300  -25.7070   20.1730 C   0  0  0  0  0  2  0  0  0  0  0  0
  -28.4760  -27.0390   19.6450 O   0  0  0  0  0  0  0  0  0  0  0  0
  -24.5480  -31.8070   23.1610 C   0  0  0  0  0  0  0  0  0  0  0  0
  -27.2860  -27.7200   19.7180 C   0  0  0  0  0  0  0  0  0  0  0  0
  -23.3560  -30.4780   21.4490 C   0  0  0  0  0  3  0  0  0  0  0  0
  -24.8340  -29.1070   19.8870 C   0  0  0  0  0  0  0  0  0  0  0  0
  -25.8570  -30.9600   21.2160 C   0  0  0  0  0  2  0  0  0  0  0  0
  -25.9820  -29.6420   20.4830 C   0  0  0  0  0  0  0  0  0  0  0  0
  -27.2160  -28.9580   20.3920 C   0  0  0  0  0  3  0  0  0  0  0  0
  -26.1220  -27.1940   19.1160 C   0  0  0  0  0  3  0  0  0  0  0  0
  -24.8980  -27.8830   19.2000 C   0  0  0  0  0  3  0  0  0  0  0  0
  -23.5570  -29.9060   20.0210 C   0  0  0  0  0  2  0  0  0  0  0  0
  -24.6060  -31.0940   22.0010 N   0  0  0  0  0  0  0  0  0  0  0  0
  -23.4700  -31.9930   23.7450 O   0  0  0  0  0  0  0  0  0  0  0  0
  -22.7740  -29.3630   22.3480 C   0  0  0  0  0  0  0  0  0  0  0  0
  -21.4610  -29.1120   22.2150 N   0  0  0  0  0  0  0  0  0  0  0  0
  -23.4990  -28.7300   23.1190 O   0  0  0  0  0  0  0  0  0  0  0  0
  -20.9350  -29.6810   21.5670 H   0  0  0  0  0  0  0  0  0  0  0  0
  -18.1690  -27.6850   22.6300 C   0  0  0  0  0  0  0  0  0  0  0  0
  -20.7060  -28.0840   22.9300 C   0  0  0  0  0  3  0  0  0  0  0  0
  -20.8980  -26.6970   22.2770 C   0  0  0  0  0  2  0  0  0  0  0  0
  -19.8200  -26.3630   21.2430 C   0  0  0  0  0  2  0  0  0  0  0  0
  -18.4300  -26.3890   21.8830 C   0  0  0  0  0  2  0  0  0  0  0  0
  -19.2380  -28.4890   23.1080 C   0  0  0  0  0  0  0  0  0  0  0  0
  -18.9400  -29.7050   23.7620 C   0  0  0  0  0  3  0  0  0  0  0  0
  -17.6070  -30.1160   23.9460 C   0  0  0  0  0  3  0  0  0  0  0  0
  -16.5530  -29.3070   23.4840 C   0  0  0  0  0  3  0  0  0  0  0  0
  -16.8360  -28.0940   22.8320 C   0  0  0  0  0  3  0  0  0  0  0  0
  -25.8230  -32.4470   23.7950 C   0  0  0  0  0  3  0  0  0  0  0  0
  -26.3450  -31.6630   25.0620 C   0  0  1  0  0  0  0  0  0  0  0  0
  -25.2430  -31.3610   26.1040 C   0  0  0  0  0  1  0  0  0  0  0  0
  -26.9800  -30.3160   24.6430 C   0  0  0  0  0  1  0  0  0  0  0  0
  -27.4580  -32.4790   25.7610 C   0  0  0  0  0  1  0  0  0  0  0  0
  -25.4980  -33.8360   24.1400 N   0  0  0  0  0  0  0  0  0  0  0  0
  -25.8120  -34.8980   23.3870 C   0  0  0  0  0  0  0  0  0  0  0  0
  -26.4810  -34.8140   22.3530 O   0  0  0  0  0  0  0  0  0  0  0  0
  -24.9020  -33.9750   24.9420 H   0  0  0  0  0  0  0  0  0  0  0  0
  -24.0500  -36.6630   23.0560 C   0  0  0  0  0  1  0  0  0  0  0  0
  -25.3040  -36.2770   23.8560 C   0  0  0  0  0  3  0  0  0  0  0  0
  -27.4220  -37.1990   24.6860 C   0  0  0  0  0  1  0  0  0  0  0  0
  -26.3170  -37.3470   23.7410 N   0  0  0  0  0  0  0  0  0  0  0  0
  -25.8950  -38.2600   23.8900 H   0  0  0  0  0  0  0  0  0  0  0  0
  1  3  2  0
  2 52  1  0
  2  1  1  0
  3  5  1  0
  3  4  1  0
  6 18  1  0
  7 12  1  0
  8  9  1  0
  8  7  1  0
 10  9  1  0
 10 25  1  0
 10 11  1  0
 12  6  1  0
 12 11  1  0
 13  6  2  0
 14 15  2  0
 14  1  1  0
 15 19  1  0
 16 20  1  0
 16 17  2  0
 17 15  1  0
 18 16  1  0
 18 21  1  0
 20 14  1  0
 22 23  2  0
 23 42  1  0
 24 23  1  0
 24 27  1  0
 25 26  1  0
 25 22  1  0
 26 24  2  0
 27 28  1  0
 28 29  2  0
 30 33  1  0
 30 29  1  0
 31 30  2  0
 32 31  1  0
 32 27  2  0
 33 34  1  0
 34 39  2  0
 34 35  1  0
 35 36  2  0
 36 37  1  0
 37 41  1  0
 38 37  2  0
 39 38  1  0
 40 39  1  0
 42 43  1  0
 43 45  1  0
 43 46  1  0
 44 42  2  0
 47 22  1  0
 47 48  1  0
 49 47  1  0
 52 51  2  0
 52 50  2  0
 52 53  1  6
 54 53  1  0
 54 56  1  0
 55 54  2  0
 57 59  1  0
 57 56  1  0
 58 69  2  0
 59 64  1  0
 60 68  1  0
 60 70  1  0
 61 67  1  0
 61 63  1  0
 62 68  1  0
 63 62  1  0
 64 63  2  0
 65 66  1  0
 65 59  2  0
 66 61  2  0
 67 60  1  0
 68 58  1  0
 70 72  2  0
 71 70  1  0
 73 71  1  0
 74 83  2  0
 74 79  1  0
 75 71  1  0
 75 79  1  0
 76 75  1  0
 77 78  1  0
 77 76  1  0
 78 74  1  0
 79 80  2  0
 80 81  1  0
 82 81  2  0
 83 82  1  0
 84 58  1  0
 84 89  1  0
 84 85  1  0
 85 88  1  1
 85 86  1  0
 87 85  1  0
 89 92  1  0
 90 94  1  0
 90 89  1  0
 91 90  2  0
 94 93  1  0
 96 94  1  0
 96 97  1  0
 96 95  1  0
M  ISO  4   6 100  18 100  56 101  57 101
M  END
>  <TORSDO>  (5) 
F 20

>  <SCORE>  (5) 
-12.665

>  <name>  (5) 
4

>  <ligand_id>  (5) 
4

>  <original_smiles>  (5) 
[H]c1c([H])c([H])c2c(c1[H])C([H])([H])C([H])([H])C([H])([H])C2([H])N([H])C(=O)C1([H])N(C(=O)C([H])(N([H])C(=O)C([H])(N([H])C([H])([H])[H])C([H])([H])[H])C(C([H])([H])[H])(C([H])([H])[H])C([H])([H])[H])C([H])([H])c2c([H])c(OC([H])([H])C(=O)C([H])([H])S(=O)(=O)N=C(c3sc(N([H])C(=O)N4C([H])([H])C([H])([H])C([H])([H])C([H])(n5nc(-c6c([H])c([H])c(Oc7c([H])c([H])c(F)c([H])c7F)c([H])c6[H])c(C(=O)N([H])[H])c5N([H])[H])C4([H])[H])nc3F)N([H])[H])c([H])c([H])c2C1([H])[H]

>  <smiles>  (5) 
[H]c1c([H])c([H])c2c(c1[H])C([H])([H])C([H])([H])C([H])([H])C2([H])N([H])C(=O)C1([H])N(C(=O)C([H])(N([H])C(=O)C([H])(N([H])C([H])([H])[H])C([H])([H])[H])C(C([H])([H])[H])(C([H])([H])[H])C([H])([H])[H])C([H])([H])c2c([H])c(OC([H])([H])C(=O)C([H])([H])S(=O)(=O)N=C(c3sc(N([H])C(=O)N4C([H])([H])C([H])([H])C([H])([H])C([H])(n5nc(-c6c([H])c([H])c(Oc7c([H])c([H])c(F)c([H])c7F)c([H])c6[H])c(C(=O)N([H])[H])c5N([H])[H])C4([H])[H])nc3F)N([H])[H])c([H])c([H])c2C1([H])[H]

$$$$
5:0:0
     RDKit          3D

 96104  0  0  1  0  0  0  0  0999 V2000
  -30.1210  -20.6650   20.6560 C   0  0  0  0  0  3  0  0  0  0  0  0
  -30.6970  -14.6360   20.4410 C   0  0  0  0  0  0  0  0  0  0  0  0
  -30.4480  -12.4490   19.3510 C   0  0  0  0  0  2  0  0  0  0  0  0
  -29.5300  -12.6520   18.1280 C   0  0  0  0  0  2  0  0  0  0  0  0
  -28.0470  -12.5100   18.5290 C   0  0  0  0  0  2  0  0  0  0  0  0
  -27.6830  -13.3440   19.7860 C   0  0  0  0  0  3  0  0  0  0  0  0
  -28.7240  -13.1380   20.9130 C   0  0  0  0  0  2  0  0  0  0  0  0
  -30.0530  -13.4390   20.3630 N   0  0  0  0  0  0  0  0  0  0  0  0
  -31.8390  -14.8100   20.0020 O   0  0  0  0  0  0  0  0  0  0  0  0
  -29.9350  -19.2480   20.1080 C   0  0  0  0  0  0  0  0  0  0  0  0
  -29.7900  -18.8820   18.7920 C   0  0  0  0  0  0  0  0  0  0  0  0
  -29.9290  -16.9420   20.2560 C   0  0  0  0  0  0  0  0  0  0  0  0
  -29.9500  -18.0990   20.9470 N   0  0  0  0  0  0  0  0  0  0  0  0
  -29.9670  -15.6720   20.8970 N   0  0  0  0  0  0  0  0  0  0  0  0
  -29.7220  -19.7640   17.7650 F   0  0  0  0  0  0  0  0  0  0  0  0
  -29.7610  -17.1620   18.5140 S   0  0  0  0  0  0  0  0  0  0  0  0
  -29.1300  -15.4280   21.4020 H   0  0  0  0  0  0  0  0  0  0  0  0
  -25.2630  -13.9260   20.4530 C   0  0  0  0  0  0  0  0  0  0  0  0
  -24.2000  -13.1440   20.8190 C   0  0  0  0  0  0  0  0  0  0  0  0
  -24.6790  -11.7990   20.8100 C   0  0  0  0  0  0  0  0  0  0  0  0
  -26.3240  -13.0580   20.2460 N   0  0  0  0  0  0  0  0  0  0  0  0
  -25.9760  -11.7750   20.5190 N   0  0  0  0  0  0  0  0  0  0  0  0
  -23.9660  -10.5280   21.0050 C   0  0  0  0  0  0  0  0  0  0  0  0
  -24.3920   -9.5810   21.9620 C   0  0  0  0  0  3  0  0  0  0  0  0
  -23.6780   -8.3770   22.1410 C   0  0  0  0  0  3  0  0  0  0  0  0
  -22.5260   -8.1100   21.3650 C   0  0  0  0  0  0  0  0  0  0  0  0
  -22.1190   -9.0490   20.4010 C   0  0  0  0  0  3  0  0  0  0  0  0
  -22.8320  -10.2450   20.2180 C   0  0  0  0  0  3  0  0  0  0  0  0
  -21.7810   -6.9580   21.4570 O   0  0  0  0  0  0  0  0  0  0  0  0
  -21.7110   -6.2350   22.6200 C   0  0  0  0  0  0  0  0  0  0  0  0
  -21.2210   -6.7970   23.8210 C   0  0  0  0  0  3  0  0  0  0  0  0
  -21.1020   -5.9970   24.9740 C   0  0  0  0  0  3  0  0  0  0  0  0
  -21.4630   -4.6380   24.9300 C   0  0  0  0  0  0  0  0  0  0  0  0
  -21.9450   -4.0750   23.7340 C   0  0  0  0  0  3  0  0  0  0  0  0
  -22.0670   -4.8710   22.5840 C   0  0  0  0  0  0  0  0  0  0  0  0
  -22.5120   -4.3200   21.4280 F   0  0  0  0  0  0  0  0  0  0  0  0
  -21.3430   -3.8680   26.0360 F   0  0  0  0  0  0  0  0  0  0  0  0
  -22.7920  -13.6060   21.0710 C   0  0  0  0  0  0  0  0  0  0  0  0
  -22.0590  -12.9100   21.9330 N   0  0  0  0  0  0  0  0  0  0  0  0
  -22.3490  -14.6190   20.5360 O   0  0  0  0  0  0  0  0  0  0  0  0
  -22.4260  -12.0930   22.3980 H   0  0  0  0  0  0  0  0  0  0  0  0
  -21.1120  -13.2050   22.1370 H   0  0  0  0  0  0  0  0  0  0  0  0
  -25.4110  -15.2960   20.2590 N   0  0  0  0  0  0  0  0  0  0  0  0
  -24.6280  -15.9330   20.3520 H   0  0  0  0  0  0  0  0  0  0  0  0
  -26.2590  -15.7490   19.9490 H   0  0  0  0  0  0  0  0  0  0  0  0
  -31.3220  -20.6530   22.8330 C   0  0  0  0  0  0  0  0  0  0  0  0
  -31.3130  -19.9400   24.1810 C   0  0  0  0  0  1  0  0  0  0  0  0
  -30.1910  -20.6020   22.1180 N   0  0  0  0  0  0  0  0  0  0  0  0
  -32.3610  -21.1720   22.4270 O   0  0  0  0  0  0  0  0  0  0  0  0
  -29.4010  -20.1480   22.5520 H   0  0  0  0  0  0  0  0  0  0  0  0
  -27.6260  -21.2770   20.4190 C   0  0  0  0  0  1  0  0  0  0  0  0
  -29.0790  -21.7380   20.1730 C   0  0  0  0  0  3  0  0  0  0  0  0
  -29.3170  -23.1630   20.7750 C   0  0  0  0  0  2  0  0  0  0  0  0
  -28.6210  -24.3610   20.0380 C   0  0  0  0  0  2  0  0  0  0  0  0
  -28.5580  -25.6800   20.8670 C   0  0  0  0  0  2  0  0  0  0  0  0
  -28.3960  -26.8740   20.0730 O   0  0  0  0  0  0  0  0  0  0  0  0
  -24.5170  -31.9410   23.3140 C   0  0  0  0  0  0  0  0  0  0  0  0
  -27.2050  -27.5670   20.1640 C   0  0  0  0  0  0  0  0  0  0  0  0
  -23.3250  -30.5640   21.6410 C   0  0  0  0  0  3  0  0  0  0  0  0
  -24.7940  -29.0570   20.1940 C   0  0  0  0  0  0  0  0  0  0  0  0
  -25.8470  -30.9470   21.4470 C   0  0  0  0  0  2  0  0  0  0  0  0
  -25.9480  -29.5820   20.7910 C   0  0  0  0  0  0  0  0  0  0  0  0
  -27.1570  -28.8490   20.7610 C   0  0  0  0  0  3  0  0  0  0  0  0
  -26.0350  -27.0520   19.5670 C   0  0  0  0  0  3  0  0  0  0  0  0
  -24.8350  -27.7940   19.5730 C   0  0  0  0  0  3  0  0  0  0  0  0
  -23.5400  -29.9030   20.2510 C   0  0  0  0  0  2  0  0  0  0  0  0
  -24.5820  -31.1650   22.1930 N   0  0  0  0  0  0  0  0  0  0  0  0
  -23.4330  -32.1900   23.8600 O   0  0  0  0  0  0  0  0  0  0  0  0
  -22.6760  -29.5230   22.5820 C   0  0  0  0  0  0  0  0  0  0  0  0
  -21.3540  -29.3290   22.4440 N   0  0  0  0  0  0  0  0  0  0  0  0
  -23.3620  -28.8920   23.3920 O   0  0  0  0  0  0  0  0  0  0  0  0
  -20.8600  -29.8910   21.7660 H   0  0  0  0  0  0  0  0  0  0  0  0
  -17.9930  -28.0810   22.8920 C   0  0  0  0  0  0  0  0  0  0  0  0
  -20.5450  -28.3670   23.1940 C   0  0  0  0  0  3  0  0  0  0  0  0
  -20.6710  -26.9470   22.5970 C   0  0  0  0  0  2  0  0  0  0  0  0
  -19.5850  -26.6270   21.5660 C   0  0  0  0  0  2  0  0  0  0  0  0
  -18.1940  -26.7440   22.1990 C   0  0  0  0  0  2  0  0  0  0  0  0
  -19.0980  -28.8500   23.3460 C   0  0  0  0  0  0  0  0  0  0  0  0
  -18.8570  -30.1000   23.9550 C   0  0  0  0  0  3  0  0  0  0  0  0
  -17.5450  -30.5830   24.1180 C   0  0  0  0  0  3  0  0  0  0  0  0
  -16.4530  -29.8090   23.6820 C   0  0  0  0  0  3  0  0  0  0  0  0
  -16.6790  -28.5630   23.0730 C   0  0  0  0  0  3  0  0  0  0  0  0
  -25.7990  -32.5690   23.9480 C   0  0  0  0  0  3  0  0  0  0  0  0
  -25.5020  -33.9760   24.2460 N   0  0  0  0  0  0  0  0  0  0  0  0
  -25.8710  -35.0110   23.4780 C   0  0  0  0  0  0  0  0  0  0  0  0
  -26.5690  -34.8790   22.4680 O   0  0  0  0  0  0  0  0  0  0  0  0
  -24.8860  -34.1500   25.0250 H   0  0  0  0  0  0  0  0  0  0  0  0
  -24.1960  -36.8310   23.0240 C   0  0  0  0  0  1  0  0  0  0  0  0
  -25.3920  -36.4140   23.8940 C   0  0  0  0  0  3  0  0  0  0  0  0
  -27.5010  -37.2760   24.8090 C   0  0  0  0  0  1  0  0  0  0  0  0
  -26.4490  -37.4460   23.8100 N   0  0  0  0  0  0  0  0  0  0  0  0
  -26.0540  -38.3750   23.9230 H   0  0  0  0  0  0  0  0  0  0  0  0
  -26.2810  -31.8170   25.2490 C   0  0  1  0  0  0  0  0  0  0  0  0
  -25.1650  -31.6110   26.3000 C   0  0  0  0  0  1  0  0  0  0  0  0
  -26.8570  -30.4270   24.8930 C   0  0  0  0  0  1  0  0  0  0  0  0
  -27.4280  -32.6090   25.9200 C   0  0  0  0  0  1  0  0  0  0  0  0
  1 48  1  0
  2 14  1  0
  3  8  1  0
  4  5  1  0
  4  3  1  0
  6  5  1  0
  6 21  1  0
  6  7  1  0
  8  2  1  0
  8  7  1  0
  9  2  2  0
 10  1  1  0
 10 13  1  0
 11 10  2  0
 12 14  1  0
 12 13  2  0
 14 17  1  0
 15 11  1  0
 16 11  1  0
 16 12  1  0
 18 19  2  0
 19 38  1  0
 20 19  1  0
 20 23  1  0
 21 18  1  0
 21 22  1  0
 22 20  2  0
 23 24  1  0
 24 25  2  0
 26 29  1  0
 26 25  1  0
 27 26  2  0
 28 27  1  0
 28 23  2  0
 29 30  1  0
 30 31  1  0
 31 32  2  0
 33 32  1  0
 33 37  1  0
 34 33  2  0
 35 30  2  0
 35 34  1  0
 36 35  1  0
 38 39  1  0
 39 42  1  0
 39 41  1  0
 40 38  2  0
 43 44  1  0
 43 18  1  0
 45 43  1  0
 46 47  1  0
 48 50  1  0
 48 46  1  0
 49 46  2  0
 52 51  1  0
 52  1  1  0
 52 53  1  0
 54 53  1  0
 54 55  1  0
 56 58  1  0
 56 55  1  0
 57 68  2  0
 58 63  1  0
 59 67  1  0
 59 69  1  0
 60 66  1  0
 60 62  1  0
 61 67  1  0
 62 61  1  0
 63 62  2  0
 64 65  1  0
 64 58  2  0
 65 60  2  0
 66 59  1  0
 67 57  1  0
 69 71  2  0
 70 69  1  0
 72 70  1  0
 73 82  2  0
 73 78  1  0
 74 70  1  0
 74 78  1  0
 75 74  1  0
 76 77  1  0
 76 75  1  0
 77 73  1  0
 78 79  2  0
 79 80  1  0
 81 80  2  0
 82 81  1  0
 83 57  1  0
 83 84  1  0
 83 93  1  0
 84 87  1  0
 85 89  1  0
 85 84  1  0
 86 85  2  0
 89 88  1  0
 91 89  1  0
 91 92  1  0
 91 90  1  0
 93 96  1  1
 93 94  1  0
 95 93  1  0
M  ISO  4   2 100  14 100  55 101  56 101
M  END
>  <TORSDO>  (6) 
F 21

>  <SCORE>  (6) 
-13.532

>  <name>  (6) 
5

>  <ligand_id>  (6) 
5

>  <original_smiles>  (6) 
[H]c1c([H])c([H])c2c(c1[H])C([H])([H])C([H])([H])C([H])([H])C2([H])N([H])C(=O)C1([H])N(C(=O)C([H])(N([H])C(=O)C([H])(N([H])C([H])([H])[H])C([H])([H])[H])C(C([H])([H])[H])(C([H])([H])[H])C([H])([H])[H])C([H])([H])c2c([H])c(OC([H])([H])C([H])([H])C([H])([H])C([H])(C([H])([H])[H])C([H])(c3nc(N([H])C(=O)N4C([H])([H])C([H])([H])C([H])([H])C([H])(n5nc(-c6c([H])c([H])c(Oc7c([H])c([H])c(F)c([H])c7F)c([H])c6[H])c(C(=O)N([H])[H])c5N([H])[H])C4([H])[H])sc3F)N([H])C(=O)C([H])([H])[H])c([H])c([H])c2C1([H])[H]

>  <smiles>  (6) 
[H]c1c([H])c([H])c2c(c1[H])C([H])([H])C([H])([H])C([H])([H])C2([H])N([H])C(=O)C1([H])N(C(=O)C([H])(N([H])C(=O)C([H])(N([H])C([H])([H])[H])C([H])([H])[H])C(C([H])([H])[H])(C([H])([H])[H])C([H])([H])[H])C([H])([H])c2c([H])c(OC([H])([H])C([H])([H])C([H])([H])C([H])(C([H])([H])[H])C([H])(c3nc(N([H])C(=O)N4C([H])([H])C([H])([H])C([H])([H])C([H])(n5nc(-c6c([H])c([H])c(Oc7c([H])c([H])c(F)c([H])c7F)c([H])c6[H])c(C(=O)N([H])[H])c5N([H])[H])C4([H])[H])sc3F)N([H])C(=O)C([H])([H])[H])c([H])c([H])c2C1([H])[H]

$$$$
6:0:0
     RDKit          3D

 95103  0  0  1  0  0  0  0  0999 V2000
  -28.9810  -21.7780   19.7640 C   0  0  0  0  0  0  0  0  0  0  0  0
  -29.9780  -20.8940   19.9690 N   0  0  0  0  0  0  0  0  0  0  0  0
  -27.7840  -21.4970   19.8790 O   0  0  0  0  0  0  0  0  0  0  0  0
  -30.9190  -21.2360   19.8220 H   0  0  0  0  0  0  0  0  0  0  0  0
  -30.7340  -14.4520   20.2370 C   0  0  0  0  0  0  0  0  0  0  0  0
  -30.3760  -12.3390   19.0210 C   0  0  0  0  0  2  0  0  0  0  0  0
  -29.3910  -12.5950   17.8610 C   0  0  0  0  0  2  0  0  0  0  0  0
  -27.9320  -12.4590   18.3390 C   0  0  0  0  0  2  0  0  0  0  0  0
  -27.6490  -13.2550   19.6410 C   0  0  0  0  0  3  0  0  0  0  0  0
  -28.7390  -12.9740   20.7010 C   0  0  0  0  0  2  0  0  0  0  0  0
  -30.0520  -13.2830   20.1010 N   0  0  0  0  0  0  0  0  0  0  0  0
  -31.8270  -14.6540   19.7000 O   0  0  0  0  0  0  0  0  0  0  0  0
  -29.9230  -19.5050   20.2710 C   0  0  0  0  0  0  0  0  0  0  0  0
  -30.1420  -16.8070   20.7050 C   0  0  0  0  0  0  0  0  0  0  0  0
  -31.1690  -18.8290   20.2190 C   0  0  0  0  0  0  0  0  0  0  0  0
  -28.9010  -17.4870   20.7880 C   0  0  0  0  0  0  0  0  0  0  0  0
  -28.7880  -18.8190   20.5710 N   0  0  0  0  0  0  0  0  0  0  0  0
  -31.2810  -17.4950   20.4350 N   0  0  0  0  0  0  0  0  0  0  0  0
  -30.0740  -15.4040   20.9140 N   0  0  0  0  0  0  0  0  0  0  0  0
  -32.2900  -19.5310   19.9260 F   0  0  0  0  0  0  0  0  0  0  0  0
  -27.7810  -16.7780   21.0620 F   0  0  0  0  0  0  0  0  0  0  0  0
  -29.2000  -15.0930   21.3130 H   0  0  0  0  0  0  0  0  0  0  0  0
  -25.2680  -13.8570   20.4170 C   0  0  0  0  0  0  0  0  0  0  0  0
  -24.2120  -13.0820   20.8110 C   0  0  0  0  0  0  0  0  0  0  0  0
  -24.6750  -11.7320   20.7630 C   0  0  0  0  0  0  0  0  0  0  0  0
  -26.3090  -12.9800   20.1560 N   0  0  0  0  0  0  0  0  0  0  0  0
  -25.9550  -11.6960   20.4190 N   0  0  0  0  0  0  0  0  0  0  0  0
  -23.9560  -10.4690   20.9710 C   0  0  0  0  0  0  0  0  0  0  0  0
  -24.4110   -9.5030   21.8950 C   0  0  0  0  0  3  0  0  0  0  0  0
  -23.6930   -8.3040   22.0900 C   0  0  0  0  0  3  0  0  0  0  0  0
  -22.5050   -8.0630   21.3590 C   0  0  0  0  0  0  0  0  0  0  0  0
  -22.0680   -9.0170   20.4230 C   0  0  0  0  0  3  0  0  0  0  0  0
  -22.7880  -10.2070   20.2270 C   0  0  0  0  0  3  0  0  0  0  0  0
  -21.7550   -6.9160   21.4620 O   0  0  0  0  0  0  0  0  0  0  0  0
  -21.7220   -6.1810   22.6200 C   0  0  0  0  0  0  0  0  0  0  0  0
  -21.3010   -6.7410   23.8470 C   0  0  0  0  0  3  0  0  0  0  0  0
  -21.2150   -5.9320   24.9970 C   0  0  0  0  0  3  0  0  0  0  0  0
  -21.5380   -4.5640   24.9230 C   0  0  0  0  0  0  0  0  0  0  0  0
  -21.9520   -4.0030   23.7020 C   0  0  0  0  0  3  0  0  0  0  0  0
  -22.0400   -4.8090   22.5530 C   0  0  0  0  0  0  0  0  0  0  0  0
  -22.4190   -4.2590   21.3740 F   0  0  0  0  0  0  0  0  0  0  0  0
  -21.4480   -3.7850   26.0260 F   0  0  0  0  0  0  0  0  0  0  0  0
  -22.8230  -13.5580   21.1310 C   0  0  0  0  0  0  0  0  0  0  0  0
  -22.1250  -12.8580   22.0180 N   0  0  0  0  0  0  0  0  0  0  0  0
  -22.3680  -14.5850   20.6310 O   0  0  0  0  0  0  0  0  0  0  0  0
  -22.5060  -12.0260   22.4440 H   0  0  0  0  0  0  0  0  0  0  0  0
  -21.1960  -13.1580   22.2760 H   0  0  0  0  0  0  0  0  0  0  0  0
  -25.4210  -15.2290   20.2460 N   0  0  0  0  0  0  0  0  0  0  0  0
  -24.6640  -15.8780   20.4270 H   0  0  0  0  0  0  0  0  0  0  0  0
  -26.2990  -15.6970   20.0580 H   0  0  0  0  0  0  0  0  0  0  0  0
  -29.4040  -23.1800   19.2890 C   0  0  0  0  0  2  0  0  0  0  0  0
  -28.7420  -24.3560   20.0360 C   0  0  0  0  0  0  0  0  0  0  0  0
  -28.3400  -24.2720   21.2040 O   0  0  0  0  0  0  0  0  0  0  0  0
  -28.6850  -25.6850   19.2630 C   0  0  0  0  0  2  0  0  0  0  0  0
  -28.4580  -26.7990   20.1390 O   0  0  0  0  0  0  0  0  0  0  0  0
  -24.5860  -31.8860   23.2280 C   0  0  0  0  0  0  0  0  0  0  0  0
  -27.2470  -27.4620   20.1300 C   0  0  0  0  0  0  0  0  0  0  0  0
  -23.3800  -30.4840   21.5830 C   0  0  0  0  0  3  0  0  0  0  0  0
  -24.8360  -28.9490   20.1580 C   0  0  0  0  0  0  0  0  0  0  0  0
  -25.9030  -30.8500   21.3840 C   0  0  0  0  0  2  0  0  0  0  0  0
  -25.9900  -29.4780   20.7470 C   0  0  0  0  0  0  0  0  0  0  0  0
  -27.1930  -28.7380   20.7350 C   0  0  0  0  0  3  0  0  0  0  0  0
  -26.0650  -26.9330   19.5590 C   0  0  0  0  0  3  0  0  0  0  0  0
  -24.8660  -27.6740   19.5690 C   0  0  0  0  0  3  0  0  0  0  0  0
  -23.5910  -29.8040   20.2040 C   0  0  0  0  0  2  0  0  0  0  0  0
  -24.6420  -31.0890   22.1240 N   0  0  0  0  0  0  0  0  0  0  0  0
  -23.5040  -32.1560   23.7690 O   0  0  0  0  0  0  0  0  0  0  0  0
  -22.7320  -29.4620   22.5430 C   0  0  0  0  0  0  0  0  0  0  0  0
  -21.4070  -29.2800   22.4170 N   0  0  0  0  0  0  0  0  0  0  0  0
  -23.4170  -28.8340   23.3560 O   0  0  0  0  0  0  0  0  0  0  0  0
  -20.9160  -29.8380   21.7330 H   0  0  0  0  0  0  0  0  0  0  0  0
  -18.0320  -28.0950   22.9210 C   0  0  0  0  0  0  0  0  0  0  0  0
  -20.5910  -28.3410   23.1860 C   0  0  0  0  0  3  0  0  0  0  0  0
  -20.6860  -26.9130   22.6010 C   0  0  0  0  0  2  0  0  0  0  0  0
  -19.5790  -26.6000   21.5890 C   0  0  0  0  0  2  0  0  0  0  0  0
  -18.2010  -26.7470   22.2390 C   0  0  0  0  0  2  0  0  0  0  0  0
  -19.1550  -28.8490   23.3510 C   0  0  0  0  0  0  0  0  0  0  0  0
  -18.9440  -30.1120   23.9480 C   0  0  0  0  0  3  0  0  0  0  0  0
  -17.6430  -30.6190   24.1190 C   0  0  0  0  0  3  0  0  0  0  0  0
  -16.5340  -29.8610   23.7060 C   0  0  0  0  0  3  0  0  0  0  0  0
  -16.7290  -28.6010   23.1120 C   0  0  0  0  0  3  0  0  0  0  0  0
  -25.8710  -32.5180   23.8480 C   0  0  0  0  0  3  0  0  0  0  0  0
  -26.3920  -31.7450   25.1210 C   0  0  1  0  0  0  0  0  0  0  0  0
  -25.3020  -31.5020   26.1900 C   0  0  0  0  0  1  0  0  0  0  0  0
  -26.9770  -30.3700   24.7210 C   0  0  0  0  0  1  0  0  0  0  0  0
  -27.5420  -32.5400   25.7830 C   0  0  0  0  0  1  0  0  0  0  0  0
  -25.5620  -33.9150   24.1770 N   0  0  0  0  0  0  0  0  0  0  0  0
  -25.8970  -34.9680   23.4190 C   0  0  0  0  0  0  0  0  0  0  0  0
  -26.5700  -34.8650   22.3900 O   0  0  0  0  0  0  0  0  0  0  0  0
  -24.9640  -34.0700   24.9750 H   0  0  0  0  0  0  0  0  0  0  0  0
  -24.1710  -36.7610   23.0550 C   0  0  0  0  0  1  0  0  0  0  0  0
  -25.4060  -36.3560   23.8750 C   0  0  0  0  0  3  0  0  0  0  0  0
  -27.5360  -37.2380   24.7210 C   0  0  0  0  0  1  0  0  0  0  0  0
  -26.4400  -37.4080   23.7710 N   0  0  0  0  0  0  0  0  0  0  0  0
  -26.0330  -38.3280   23.9190 H   0  0  0  0  0  0  0  0  0  0  0  0
  1  3  2  0
  1  2  1  0
  2 13  1  0
  4  2  1  0
  5 19  1  0
  6 11  1  0
  7  8  1  0
  7  6  1  0
  9  8  1  0
  9 26  1  0
  9 10  1  0
 11  5  1  0
 11 10  1  0
 12  5  2  0
 13 17  1  0
 14 16  1  0
 14 19  1  0
 15 13  2  0
 15 18  1  0
 16 21  1  0
 17 16  2  0
 18 14  2  0
 19 22  1  0
 20 15  1  0
 23 24  2  0
 24 43  1  0
 25 24  1  0
 25 28  1  0
 26 23  1  0
 26 27  1  0
 27 25  2  0
 28 29  1  0
 29 30  2  0
 31 34  1  0
 31 30  1  0
 32 31  2  0
 33 32  1  0
 33 28  2  0
 34 35  1  0
 35 36  1  0
 36 37  2  0
 38 37  1  0
 38 42  1  0
 39 38  2  0
 40 35  2  0
 40 39  1  0
 41 40  1  0
 43 44  1  0
 44 47  1  0
 44 46  1  0
 45 43  2  0
 48 23  1  0
 48 49  1  0
 50 48  1  0
 51  1  1  0
 51 52  1  0
 52 53  2  0
 54 52  1  0
 54 55  1  0
 56 67  2  0
 57 55  1  0
 57 62  1  0
 58 66  1  0
 58 68  1  0
 59 65  1  0
 59 61  1  0
 60 66  1  0
 61 60  1  0
 62 61  2  0
 63 64  1  0
 63 57  2  0
 64 59  2  0
 65 58  1  0
 66 56  1  0
 68 70  2  0
 69 68  1  0
 71 69  1  0
 72 81  2  0
 72 77  1  0
 73 69  1  0
 73 77  1  0
 74 73  1  0
 75 76  1  0
 75 74  1  0
 76 72  1  0
 77 78  2  0
 78 79  1  0
 80 79  2  0
 81 80  1  0
 82 56  1  0
 82 87  1  0
 82 83  1  0
 83 86  1  1
 83 84  1  0
 85 83  1  0
 87 90  1  0
 88 92  1  0
 88 87  1  0
 89 88  2  0
 92 91  1  0
 94 92  1  0
 94 95  1  0
 94 93  1  0
M  ISO  4   5 100  19 100  54 101  55 101
M  END
>  <TORSDO>  (7) 
F 19

>  <SCORE>  (7) 
-14.314

>  <name>  (7) 
6

>  <ligand_id>  (7) 
6

>  <original_smiles>  (7) 
[H]c1c([H])c([H])c2c(c1[H])C([H])([H])C([H])([H])C([H])([H])C2([H])N([H])C(=O)C1([H])N(C(=O)C([H])(N([H])C(=O)C([H])(N([H])C([H])([H])[H])C([H])([H])[H])C(C([H])([H])[H])(C([H])([H])[H])C([H])([H])[H])C([H])([H])c2c([H])c(OC([H])([H])C(=O)C([H])([H])C(=O)N([H])c3nc(F)c(N([H])C(=O)N4C([H])([H])C([H])([H])C([H])([H])C([H])(n5nc(-c6c([H])c([H])c(Oc7c([H])c([H])c(F)c([H])c7F)c([H])c6[H])c(C(=O)N([H])[H])c5N([H])[H])C4([H])[H])nc3F)c([H])c([H])c2C1([H])[H]

>  <smiles>  (7) 
[H]c1c([H])c([H])c2c(c1[H])C([H])([H])C([H])([H])C([H])([H])C2([H])N([H])C(=O)C1([H])N(C(=O)C([H])(N([H])C(=O)C([H])(N([H])C([H])([H])[H])C([H])([H])[H])C(C([H])([H])[H])(C([H])([H])[H])C([H])([H])[H])C([H])([H])c2c([H])c(OC([H])([H])C(=O)C([H])([H])C(=O)N([H])c3nc(F)c(N([H])C(=O)N4C([H])([H])C([H])([H])C([H])([H])C([H])(n5nc(-c6c([H])c([H])c(Oc7c([H])c([H])c(F)c([H])c7F)c([H])c6[H])c(C(=O)N([H])[H])c5N([H])[H])C4([H])[H])nc3F)c([H])c([H])c2C1([H])[H]

$$$$
7:0:0
     RDKit          3D

 94102  0  0  1  0  0  0  0  0999 V2000
  -28.9730  -21.5300   20.1580 C   0  0  0  0  0  0  0  0  0  0  0  0
  -29.3550  -20.5830   19.2660 N   0  0  0  0  0  0  0  0  0  0  0  0
  -28.7270  -21.2940   21.3440 O   0  0  0  0  0  0  0  0  0  0  0  0
  -29.5070  -20.9820   18.3530 H   0  0  0  0  0  0  0  0  0  0  0  0
  -30.6660  -14.6500   20.5520 C   0  0  0  0  0  0  0  0  0  0  0  0
  -30.4610  -12.4090   19.5480 C   0  0  0  0  0  2  0  0  0  0  0  0
  -29.5730  -12.5470   18.2920 C   0  0  0  0  0  2  0  0  0  0  0  0
  -28.0860  -12.3950   18.6660 C   0  0  0  0  0  2  0  0  0  0  0  0
  -27.6800  -13.2720   19.8820 C   0  0  0  0  0  3  0  0  0  0  0  0
  -28.6940  -13.1390   21.0420 C   0  0  0  0  0  2  0  0  0  0  0  0
  -30.0280  -13.4420   20.5080 N   0  0  0  0  0  0  0  0  0  0  0  0
  -31.8550  -14.7570   20.2380 O   0  0  0  0  0  0  0  0  0  0  0  0
  -30.1890  -18.6390   18.1420 C   0  0  0  0  0  0  0  0  0  0  0  0
  -29.6680  -19.1690   19.3030 C   0  0  0  0  0  0  0  0  0  0  0  0
  -29.9710  -16.9630   19.9590 C   0  0  0  0  0  0  0  0  0  0  0  0
  -30.4690  -19.3260   16.8400 C   0  0  0  0  0  1  0  0  0  0  0  0
  -29.5160  -18.1930   20.3370 N   0  0  0  0  0  0  0  0  0  0  0  0
  -29.8980  -15.7580   20.7590 N   0  0  0  0  0  0  0  0  0  0  0  0
  -30.5650  -16.9440   18.3010 S   0  0  0  0  0  0  0  0  0  0  0  0
  -29.0280  -15.6140   21.2420 H   0  0  0  0  0  0  0  0  0  0  0  0
  -25.2580  -13.8650   20.5050 C   0  0  0  0  0  0  0  0  0  0  0  0
  -24.1830  -13.0900   20.8440 C   0  0  0  0  0  0  0  0  0  0  0  0
  -24.6540  -11.7410   20.8500 C   0  0  0  0  0  0  0  0  0  0  0  0
  -26.3160  -12.9890   20.3200 N   0  0  0  0  0  0  0  0  0  0  0  0
  -25.9560  -11.7070   20.5900 N   0  0  0  0  0  0  0  0  0  0  0  0
  -23.9290  -10.4780   21.0340 C   0  0  0  0  0  0  0  0  0  0  0  0
  -24.3310   -9.5290   22.0000 C   0  0  0  0  0  3  0  0  0  0  0  0
  -23.6070   -8.3280   22.1680 C   0  0  0  0  0  3  0  0  0  0  0  0
  -22.4660   -8.0700   21.3710 C   0  0  0  0  0  0  0  0  0  0  0  0
  -22.0830   -9.0080   20.3970 C   0  0  0  0  0  3  0  0  0  0  0  0
  -22.8080  -10.1990   20.2270 C   0  0  0  0  0  3  0  0  0  0  0  0
  -21.7170   -6.9200   21.4460 O   0  0  0  0  0  0  0  0  0  0  0  0
  -21.6240   -6.1950   22.6090 C   0  0  0  0  0  0  0  0  0  0  0  0
  -21.1280   -6.7640   23.8020 C   0  0  0  0  0  3  0  0  0  0  0  0
  -20.9840   -5.9670   24.9550 C   0  0  0  0  0  3  0  0  0  0  0  0
  -21.3250   -4.6010   24.9150 C   0  0  0  0  0  0  0  0  0  0  0  0
  -21.8120   -4.0330   23.7260 C   0  0  0  0  0  3  0  0  0  0  0  0
  -21.9570   -4.8280   22.5740 C   0  0  0  0  0  0  0  0  0  0  0  0
  -22.4080   -4.2700   21.4240 F   0  0  0  0  0  0  0  0  0  0  0  0
  -21.1790   -3.8340   26.0200 F   0  0  0  0  0  0  0  0  0  0  0  0
  -22.7720  -13.5620   21.0550 C   0  0  0  0  0  0  0  0  0  0  0  0
  -22.0130  -12.8740   21.9000 N   0  0  0  0  0  0  0  0  0  0  0  0
  -22.3500  -14.5770   20.5030 O   0  0  0  0  0  0  0  0  0  0  0  0
  -22.3670  -12.0530   22.3690 H   0  0  0  0  0  0  0  0  0  0  0  0
  -21.0670  -13.1740   22.0840 H   0  0  0  0  0  0  0  0  0  0  0  0
  -25.4220  -15.2330   20.3130 N   0  0  0  0  0  0  0  0  0  0  0  0
  -24.6480  -15.8820   20.4060 H   0  0  0  0  0  0  0  0  0  0  0  0
  -26.2660  -15.6680   19.9600 H   0  0  0  0  0  0  0  0  0  0  0  0
  -28.8970  -22.8680   19.5210 C   0  0  0  0  0  3  0  0  0  0  0  0
  -28.5860  -24.0670   20.1080 C   0  0  0  0  0  0  0  0  0  0  0  0
  -28.2760  -24.2190   21.4060 O   0  0  0  0  0  0  0  0  0  0  0  0
  -28.3170  -23.3580   21.8110 H   0  0  0  0  0  0  0  0  0  0  0  0
  -28.5690  -25.4350   19.3630 C   0  0  0  0  0  2  0  0  0  0  0  0
  -28.4100  -26.6510   20.1610 O   0  0  0  0  0  0  0  0  0  0  0  0
  -24.5950  -31.8960   23.2320 C   0  0  0  0  0  0  0  0  0  0  0  0
  -27.2370  -27.4050   20.1330 C   0  0  0  0  0  0  0  0  0  0  0  0
  -23.3940  -30.4940   21.5910 C   0  0  0  0  0  3  0  0  0  0  0  0
  -24.8450  -28.9600   20.1580 C   0  0  0  0  0  0  0  0  0  0  0  0
  -25.9250  -30.8400   21.3970 C   0  0  0  0  0  2  0  0  0  0  0  0
  -26.0090  -29.4660   20.7490 C   0  0  0  0  0  0  0  0  0  0  0  0
  -27.2020  -28.6960   20.7340 C   0  0  0  0  0  3  0  0  0  0  0  0
  -26.0400  -26.9230   19.5510 C   0  0  0  0  0  3  0  0  0  0  0  0
  -24.8580  -27.6910   19.5600 C   0  0  0  0  0  3  0  0  0  0  0  0
  -23.6050  -29.8250   20.2080 C   0  0  0  0  0  2  0  0  0  0  0  0
  -24.6570  -31.0920   22.1310 N   0  0  0  0  0  0  0  0  0  0  0  0
  -23.5120  -32.1650   23.7710 O   0  0  0  0  0  0  0  0  0  0  0  0
  -22.7440  -29.4690   22.5480 C   0  0  0  0  0  0  0  0  0  0  0  0
  -21.4180  -29.2840   22.4230 N   0  0  0  0  0  0  0  0  0  0  0  0
  -23.4270  -28.8440   23.3640 O   0  0  0  0  0  0  0  0  0  0  0  0
  -20.9260  -29.8420   21.7390 H   0  0  0  0  0  0  0  0  0  0  0  0
  -18.0470  -28.0820   22.9250 C   0  0  0  0  0  0  0  0  0  0  0  0
  -20.6060  -28.3420   23.1920 C   0  0  0  0  0  3  0  0  0  0  0  0
  -20.7090  -26.9140   22.6100 C   0  0  0  0  0  2  0  0  0  0  0  0
  -19.6060  -26.5930   21.5980 C   0  0  0  0  0  2  0  0  0  0  0  0
  -18.2240  -26.7340   22.2450 C   0  0  0  0  0  2  0  0  0  0  0  0
  -19.1660  -28.8430   23.3560 C   0  0  0  0  0  0  0  0  0  0  0  0
  -18.9460  -30.1030   23.9520 C   0  0  0  0  0  3  0  0  0  0  0  0
  -17.6410  -30.6030   24.1210 C   0  0  0  0  0  3  0  0  0  0  0  0
  -16.5370  -29.8380   23.7070 C   0  0  0  0  0  3  0  0  0  0  0  0
  -16.7420  -28.5780   23.1140 C   0  0  0  0  0  3  0  0  0  0  0  0
  -25.8780  -32.5320   23.8530 C   0  0  0  0  0  3  0  0  0  0  0  0
  -26.3940  -31.7660   25.1330 C   0  0  1  0  0  0  0  0  0  0  0  0
  -25.3020  -31.5300   26.2010 C   0  0  0  0  0  1  0  0  0  0  0  0
  -26.9800  -30.3880   24.7430 C   0  0  0  0  0  1  0  0  0  0  0  0
  -27.5430  -32.5650   25.7930 C   0  0  0  0  0  1  0  0  0  0  0  0
  -25.5650  -33.9310   24.1780 N   0  0  0  0  0  0  0  0  0  0  0  0
  -25.8990  -34.9810   23.4180 C   0  0  0  0  0  0  0  0  0  0  0  0
  -26.5730  -34.8770   22.3900 O   0  0  0  0  0  0  0  0  0  0  0  0
  -24.9690  -34.0850   24.9780 H   0  0  0  0  0  0  0  0  0  0  0  0
  -24.1770  -36.7750   23.0420 C   0  0  0  0  0  1  0  0  0  0  0  0
  -25.4070  -36.3710   23.8690 C   0  0  0  0  0  3  0  0  0  0  0  0
  -27.5330  -37.2530   24.7260 C   0  0  0  0  0  1  0  0  0  0  0  0
  -26.4420  -37.4230   23.7700 N   0  0  0  0  0  0  0  0  0  0  0  0
  -26.0350  -38.3430   23.9140 H   0  0  0  0  0  0  0  0  0  0  0  0
  1  3  2  0
  2 14  1  0
  2  1  1  0
  4  2  1  0
  5 18  1  0
  6 11  1  0
  7  8  1  0
  7  6  1  0
  9  8  1  0
  9 24  1  0
  9 10  1  0
 11  5  1  0
 11 10  1  0
 12  5  2  0
 13 19  1  0
 13 14  2  0
 14 17  1  0
 15 17  2  0
 15 18  1  0
 16 13  1  0
 18 20  1  0
 19 15  1  0
 21 22  2  0
 22 23  1  0
 22 41  1  0
 23 26  1  0
 24 21  1  0
 24 25  1  0
 25 23  2  0
 26 27  1  0
 27 28  2  0
 29 32  1  0
 29 28  1  0
 30 29  2  0
 31 30  1  0
 31 26  2  0
 32 33  1  0
 33 34  1  0
 34 35  2  0
 36 35  1  0
 36 40  1  0
 37 36  2  0
 38 33  2  0
 38 37  1  0
 39 38  1  0
 41 42  1  0
 42 45  1  0
 42 44  1  0
 43 41  2  0
 46 47  1  0
 46 21  1  0
 48 46  1  0
 49 50  2  0
 49  1  1  0
 50 51  1  0
 51 52  1  0
 53 50  1  0
 53 54  1  0
 55 66  2  0
 56 54  1  0
 56 61  1  0
 57 65  1  0
 57 67  1  0
 58 64  1  0
 58 60  1  0
 59 65  1  0
 60 59  1  0
 61 60  2  0
 62 63  1  0
 62 56  2  0
 63 58  2  0
 64 57  1  0
 65 55  1  0
 67 69  2  0
 68 67  1  0
 70 68  1  0
 71 80  2  0
 71 76  1  0
 72 68  1  0
 72 76  1  0
 73 72  1  0
 74 75  1  0
 74 73  1  0
 75 71  1  0
 76 77  2  0
 77 78  1  0
 79 78  2  0
 80 79  1  0
 81 55  1  0
 81 86  1  0
 81 82  1  0
 82 85  1  1
 82 83  1  0
 84 82  1  0
 86 89  1  0
 87 91  1  0
 87 86  1  0
 88 87  2  0
 91 90  1  0
 93 91  1  0
 93 94  1  0
 93 92  1  0
M  ISO  4   5 100  18 100  53 101  54 101
M  END
>  <TORSDO>  (8) 
F 19

>  <SCORE>  (8) 
-14.302

>  <name>  (8) 
7

>  <ligand_id>  (8) 
7

>  <original_smiles>  (8) 
[H]OC(=C([H])C(=O)N([H])c1nc(N([H])C(=O)N2C([H])([H])C([H])([H])C([H])([H])C([H])(n3nc(-c4c([H])c([H])c(Oc5c([H])c([H])c(F)c([H])c5F)c([H])c4[H])c(C(=O)N([H])[H])c3N([H])[H])C2([H])[H])sc1C([H])([H])[H])C([H])([H])Oc1c([H])c([H])c2c(c1[H])C([H])([H])N(C(=O)C([H])(N([H])C(=O)C([H])(N([H])C([H])([H])[H])C([H])([H])[H])C(C([H])([H])[H])(C([H])([H])[H])C([H])([H])[H])C([H])(C(=O)N([H])C1([H])c3c([H])c([H])c([H])c([H])c3C([H])([H])C([H])([H])C1([H])[H])C2([H])[H]

>  <smiles>  (8) 
[H]OC(=C([H])C(=O)N([H])c1nc(N([H])C(=O)N2C([H])([H])C([H])([H])C([H])([H])C([H])(n3nc(-c4c([H])c([H])c(Oc5c([H])c([H])c(F)c([H])c5F)c([H])c4[H])c(C(=O)N([H])[H])c3N([H])[H])C2([H])[H])sc1C([H])([H])[H])C([H])([H])Oc1c([H])c([H])c2c(c1[H])C([H])([H])N(C(=O)C([H])(N([H])C(=O)C([H])(N([H])C([H])([H])[H])C([H])([H])[H])C(C([H])([H])[H])(C([H])([H])[H])C([H])([H])[H])C([H])(C(=O)N([H])C1([H])c3c([H])c([H])c([H])c([H])c3C([H])([H])C([H])([H])C1([H])[H])C2([H])[H]

$$$$
8:0:0
     RDKit          3D

 91 99  0  0  1  0  0  0  0  0999 V2000
  -29.1480  -22.3510   20.1220 C   0  0  0  0  0  3  0  0  0  0  0  0
  -29.2690  -21.1460   20.8180 C   0  0  0  0  0  0  0  0  0  0  0  0
  -30.7170  -17.7630   19.1470 C   0  0  0  0  0  3  0  0  0  0  0  0
  -30.0270  -17.3700   20.2710 C   0  0  0  0  0  0  0  0  0  0  0  0
  -29.6670  -19.7510   20.3020 C   0  0  0  0  0  0  0  0  0  0  0  0
  -29.4420  -18.5320   20.9110 N   0  0  0  0  0  0  0  0  0  0  0  0
  -30.6180  -19.4990   18.8350 S   0  0  0  0  0  0  0  0  0  0  0  0
  -30.5910  -14.8010   20.3440 C   0  0  0  0  0  0  0  0  0  0  0  0
  -30.3800  -12.5160   19.3530 C   0  0  0  0  0  2  0  0  0  0  0  0
  -29.4440  -12.5860   18.1250 C   0  0  0  0  0  2  0  0  0  0  0  0
  -27.9730  -12.4160   18.5550 C   0  0  0  0  0  2  0  0  0  0  0  0
  -27.6010  -13.3100   19.7680 C   0  0  0  0  0  3  0  0  0  0  0  0
  -28.6580  -13.2260   20.8920 C   0  0  0  0  0  2  0  0  0  0  0  0
  -29.9590  -13.5740   20.3050 N   0  0  0  0  0  0  0  0  0  0  0  0
  -31.7670  -14.8840   19.9740 O   0  0  0  0  0  0  0  0  0  0  0  0
  -29.8510  -15.9410   20.6560 N   0  0  0  0  0  0  0  0  0  0  0  0
  -28.9750  -15.7410   21.1120 H   0  0  0  0  0  0  0  0  0  0  0  0
  -25.2090  -13.9080   20.4800 C   0  0  0  0  0  0  0  0  0  0  0  0
  -24.1410  -13.1390   20.8550 C   0  0  0  0  0  0  0  0  0  0  0  0
  -24.6040  -11.7870   20.8370 C   0  0  0  0  0  0  0  0  0  0  0  0
  -26.2550  -13.0260   20.2560 N   0  0  0  0  0  0  0  0  0  0  0  0
  -25.8960  -11.7460   20.5330 N   0  0  0  0  0  0  0  0  0  0  0  0
  -23.8740  -10.5270   21.0340 C   0  0  0  0  0  0  0  0  0  0  0  0
  -24.3110   -9.5580   21.9630 C   0  0  0  0  0  3  0  0  0  0  0  0
  -23.5830   -8.3630   22.1490 C   0  0  0  0  0  3  0  0  0  0  0  0
  -22.4010   -8.1310   21.4050 C   0  0  0  0  0  0  0  0  0  0  0  0
  -21.9820   -9.0880   20.4640 C   0  0  0  0  0  3  0  0  0  0  0  0
  -22.7120  -10.2740   20.2770 C   0  0  0  0  0  3  0  0  0  0  0  0
  -21.6420   -6.9890   21.5010 O   0  0  0  0  0  0  0  0  0  0  0  0
  -21.6120   -6.2400   22.6500 C   0  0  0  0  0  0  0  0  0  0  0  0
  -21.2150   -6.7880   23.8890 C   0  0  0  0  0  3  0  0  0  0  0  0
  -21.1310   -5.9650   25.0300 C   0  0  0  0  0  3  0  0  0  0  0  0
  -21.4350   -4.5930   24.9320 C   0  0  0  0  0  0  0  0  0  0  0  0
  -21.8240   -4.0440   23.6980 C   0  0  0  0  0  3  0  0  0  0  0  0
  -21.9090   -4.8640   22.5600 C   0  0  0  0  0  0  0  0  0  0  0  0
  -22.2650   -4.3250   21.3690 F   0  0  0  0  0  0  0  0  0  0  0  0
  -21.3480   -3.8000   26.0250 F   0  0  0  0  0  0  0  0  0  0  0  0
  -22.7450  -13.6210   21.1180 C   0  0  0  0  0  0  0  0  0  0  0  0
  -22.0130  -12.9350   21.9890 N   0  0  0  0  0  0  0  0  0  0  0  0
  -22.3110  -14.6430   20.5870 O   0  0  0  0  0  0  0  0  0  0  0  0
  -22.3750  -12.1110   22.4430 H   0  0  0  0  0  0  0  0  0  0  0  0
  -21.0760  -13.2420   22.2070 H   0  0  0  0  0  0  0  0  0  0  0  0
  -25.3730  -15.2770   20.2860 N   0  0  0  0  0  0  0  0  0  0  0  0
  -24.5960  -15.9250   20.3790 H   0  0  0  0  0  0  0  0  0  0  0  0
  -26.2110  -15.7130   19.9250 H   0  0  0  0  0  0  0  0  0  0  0  0
  -28.9000  -23.7890   20.6720 C   0  0  0  0  0  0  0  0  0  0  0  0
  -29.2910  -24.1040   21.8000 O   0  0  0  0  0  0  0  0  0  0  0  0
  -28.1570  -24.9390   19.8330 C   0  0  0  0  0  2  0  0  0  0  0  0
  -28.2980  -26.3870   20.2600 O   0  0  0  0  0  0  0  0  0  0  0  0
  -24.6100  -31.8880   23.2390 C   0  0  0  0  0  0  0  0  0  0  0  0
  -27.2040  -27.2860   20.1690 C   0  0  0  0  0  0  0  0  0  0  0  0
  -23.4050  -30.4990   21.5940 C   0  0  0  0  0  3  0  0  0  0  0  0
  -24.8530  -28.9510   20.1560 C   0  0  0  0  0  0  0  0  0  0  0  0
  -25.9500  -30.7970   21.4180 C   0  0  0  0  0  2  0  0  0  0  0  0
  -26.0250  -29.4180   20.7630 C   0  0  0  0  0  0  0  0  0  0  0  0
  -27.2000  -28.5960   20.7630 C   0  0  0  0  0  3  0  0  0  0  0  0
  -26.0110  -26.9030   19.5130 C   0  0  0  0  0  3  0  0  0  0  0  0
  -24.8520  -27.7030   19.5190 C   0  0  0  0  0  3  0  0  0  0  0  0
  -23.6200  -29.8320   20.2100 C   0  0  0  0  0  2  0  0  0  0  0  0
  -24.6740  -31.0810   22.1390 N   0  0  0  0  0  0  0  0  0  0  0  0
  -23.5260  -32.1680   23.7720 O   0  0  0  0  0  0  0  0  0  0  0  0
  -22.7410  -29.4780   22.5510 C   0  0  0  0  0  0  0  0  0  0  0  0
  -21.4150  -29.2950   22.4180 N   0  0  0  0  0  0  0  0  0  0  0  0
  -23.4160  -28.8570   23.3750 O   0  0  0  0  0  0  0  0  0  0  0  0
  -20.9280  -29.8470   21.7250 H   0  0  0  0  0  0  0  0  0  0  0  0
  -18.0440  -28.0640   22.8880 C   0  0  0  0  0  0  0  0  0  0  0  0
  -20.5960  -28.3540   23.1840 C   0  0  0  0  0  3  0  0  0  0  0  0
  -20.7200  -26.9200   22.6190 C   0  0  0  0  0  2  0  0  0  0  0  0
  -19.6320  -26.5780   21.5950 C   0  0  0  0  0  2  0  0  0  0  0  0
  -18.2430  -26.7120   22.2250 C   0  0  0  0  0  2  0  0  0  0  0  0
  -19.1490  -28.8410   23.3250 C   0  0  0  0  0  0  0  0  0  0  0  0
  -18.9090  -30.1050   23.9070 C   0  0  0  0  0  3  0  0  0  0  0  0
  -17.5970  -30.5920   24.0560 C   0  0  0  0  0  3  0  0  0  0  0  0
  -16.5060  -29.8120   23.6340 C   0  0  0  0  0  3  0  0  0  0  0  0
  -16.7300  -28.5500   23.0570 C   0  0  0  0  0  3  0  0  0  0  0  0
  -25.8920  -32.5180   23.8630 C   0  0  0  0  0  3  0  0  0  0  0  0
  -26.4050  -31.7470   25.1420 C   0  0  1  0  0  0  0  0  0  0  0  0
  -25.3120  -31.5190   26.2130 C   0  0  0  0  0  1  0  0  0  0  0  0
  -26.9800  -30.3650   24.7550 C   0  0  0  0  0  1  0  0  0  0  0  0
  -27.5600  -32.5360   25.8000 C   0  0  0  0  0  1  0  0  0  0  0  0
  -25.5850  -33.9180   24.1940 N   0  0  0  0  0  0  0  0  0  0  0  0
  -25.9120  -34.9710   23.4340 C   0  0  0  0  0  0  0  0  0  0  0  0
  -26.5760  -34.8680   22.3990 O   0  0  0  0  0  0  0  0  0  0  0  0
  -24.9950  -34.0720   24.9980 H   0  0  0  0  0  0  0  0  0  0  0  0
  -24.1790  -36.7650   23.0960 C   0  0  0  0  0  1  0  0  0  0  0  0
  -25.4280  -36.3600   23.8950 C   0  0  0  0  0  3  0  0  0  0  0  0
  -27.5730  -37.2450   24.6990 C   0  0  0  0  0  1  0  0  0  0  0  0
  -26.4570  -37.4160   23.7740 N   0  0  0  0  0  0  0  0  0  0  0  0
  -26.0500  -38.3330   23.9380 H   0  0  0  0  0  0  0  0  0  0  0  0
  -29.0840  -21.1080   22.1440 O   0  0  0  0  0  0  0  0  0  0  0  0
  -29.2160  -20.2000   22.4000 H   0  0  0  0  0  0  0  0  0  0  0  0
  1 46  1  0
  1  2  2  0
  2 90  1  0
  3  4  2  0
  4 16  1  0
  4  6  1  0
  5  2  1  0
  5  6  2  0
  7  3  1  0
  7  5  1  0
  8 16  1  0
  9 14  1  0
 10 11  1  0
 10  9  1  0
 12 11  1  0
 12 21  1  0
 12 13  1  0
 14  8  1  0
 14 13  1  0
 15  8  2  0
 16 17  1  0
 18 19  2  0
 19 38  1  0
 20 19  1  0
 20 23  1  0
 21 18  1  0
 21 22  1  0
 22 20  2  0
 23 24  1  0
 24 25  2  0
 26 29  1  0
 26 25  1  0
 27 26  2  0
 28 27  1  0
 28 23  2  0
 29 30  1  0
 30 31  1  0
 31 32  2  0
 33 32  1  0
 33 37  1  0
 34 33  2  0
 35 30  2  0
 35 34  1  0
 36 35  1  0
 38 39  1  0
 39 42  1  0
 39 41  1  0
 40 38  2  0
 43 44  1  0
 43 18  1  0
 45 43  1  0
 46 47  2  0
 48 49  1  0
 48 46  1  0
 50 61  2  0
 51 49  1  0
 51 56  1  0
 52 60  1  0
 52 62  1  0
 53 59  1  0
 53 55  1  0
 54 60  1  0
 55 56  2  0
 55 54  1  0
 57 58  1  0
 57 51  2  0
 58 53  2  0
 59 52  1  0
 60 50  1  0
 62 64  2  0
 63 62  1  0
 65 63  1  0
 66 75  2  0
 66 71  1  0
 67 63  1  0
 67 71  1  0
 68 67  1  0
 69 70  1  0
 69 68  1  0
 70 66  1  0
 71 72  2  0
 72 73  1  0
 74 73  2  0
 75 74  1  0
 76 50  1  0
 76 81  1  0
 76 77  1  0
 77 80  1  1
 77 78  1  0
 79 77  1  0
 81 84  1  0
 82 86  1  0
 82 81  1  0
 83 82  2  0
 86 85  1  0
 88 86  1  0
 88 89  1  0
 88 87  1  0
 90 91  1  0
M  ISO  4   8 100  16 100  48 101  49 101
M  END
>  <TORSDO>  (9) 
F 20

>  <SCORE>  (9) 
-14.225

>  <name>  (9) 
8

>  <ligand_id>  (9) 
8

>  <original_smiles>  (9) 
[H]OC(=C([H])C(=O)C([H])([H])Oc1c([H])c([H])c2c(c1[H])C([H])([H])N(C(=O)C([H])(N([H])C(=O)C([H])(N([H])C([H])([H])[H])C([H])([H])[H])C(C([H])([H])[H])(C([H])([H])[H])C([H])([H])[H])C([H])(C(=O)N([H])C1([H])c3c([H])c([H])c([H])c([H])c3C([H])([H])C([H])([H])C1([H])[H])C2([H])[H])c1nc(N([H])C(=O)N2C([H])([H])C([H])([H])C([H])([H])C([H])(n3nc(-c4c([H])c([H])c(Oc5c([H])c([H])c(F)c([H])c5F)c([H])c4[H])c(C(=O)N([H])[H])c3N([H])[H])C2([H])[H])c([H])s1

>  <smiles>  (9) 
[H]OC(=C([H])C(=O)C([H])([H])Oc1c([H])c([H])c2c(c1[H])C([H])([H])N(C(=O)C([H])(N([H])C(=O)C([H])(N([H])C([H])([H])[H])C([H])([H])[H])C(C([H])([H])[H])(C([H])([H])[H])C([H])([H])[H])C([H])(C(=O)N([H])C1([H])c3c([H])c([H])c([H])c([H])c3C([H])([H])C([H])([H])C1([H])[H])C2([H])[H])c1nc(N([H])C(=O)N2C([H])([H])C([H])([H])C([H])([H])C([H])(n3nc(-c4c([H])c([H])c(Oc5c([H])c([H])c(F)c([H])c5F)c([H])c4[H])c(C(=O)N([H])[H])c3N([H])[H])C2([H])[H])c([H])s1

$$$$
9:0:0
     RDKit          3D

 92100  0  0  1  0  0  0  0  0999 V2000
  -29.0120  -22.4360   20.3920 C   0  0  0  0  0  3  0  0  0  0  0  0
  -28.8360  -21.1930   19.7920 C   0  0  0  0  0  0  0  0  0  0  0  0
  -30.8090  -18.0930   20.8240 C   0  0  0  0  0  0  0  0  0  0  0  0
  -29.7900  -17.2200   20.4740 C   0  0  0  0  0  0  0  0  0  0  0  0
  -29.3380  -19.8000   20.2060 C   0  0  0  0  0  0  0  0  0  0  0  0
  -30.5540  -19.4930   20.6920 N   0  0  0  0  0  0  0  0  0  0  0  0
  -31.9540  -17.6690   21.3040 F   0  0  0  0  0  0  0  0  0  0  0  0
  -28.4320  -18.2580   19.9520 S   0  0  0  0  0  0  0  0  0  0  0  0
  -30.5470  -14.7650   20.3610 C   0  0  0  0  0  0  0  0  0  0  0  0
  -30.4000  -12.4880   19.3350 C   0  0  0  0  0  2  0  0  0  0  0  0
  -29.4460  -12.5630   18.1200 C   0  0  0  0  0  2  0  0  0  0  0  0
  -27.9780  -12.3810   18.5570 C   0  0  0  0  0  2  0  0  0  0  0  0
  -27.6080  -13.2610   19.7800 C   0  0  0  0  0  3  0  0  0  0  0  0
  -28.6720  -13.1480   20.8940 C   0  0  0  0  0  2  0  0  0  0  0  0
  -29.9670  -13.5180   20.3030 N   0  0  0  0  0  0  0  0  0  0  0  0
  -31.7280  -14.9200   20.0370 O   0  0  0  0  0  0  0  0  0  0  0  0
  -29.6760  -15.8220   20.5540 N   0  0  0  0  0  0  0  0  0  0  0  0
  -28.7290  -15.5000   20.6780 H   0  0  0  0  0  0  0  0  0  0  0  0
  -25.2180  -13.8540   20.5090 C   0  0  0  0  0  0  0  0  0  0  0  0
  -24.1550  -13.0770   20.8830 C   0  0  0  0  0  0  0  0  0  0  0  0
  -24.6230  -11.7270   20.8560 C   0  0  0  0  0  0  0  0  0  0  0  0
  -26.2630  -12.9760   20.2720 N   0  0  0  0  0  0  0  0  0  0  0  0
  -25.9130  -11.6920   20.5440 N   0  0  0  0  0  0  0  0  0  0  0  0
  -23.9010  -10.4640   21.0480 C   0  0  0  0  0  0  0  0  0  0  0  0
  -24.3430   -9.4950   21.9770 C   0  0  0  0  0  3  0  0  0  0  0  0
  -23.6200   -8.2960   22.1590 C   0  0  0  0  0  3  0  0  0  0  0  0
  -22.4430   -8.0560   21.4100 C   0  0  0  0  0  0  0  0  0  0  0  0
  -22.0210   -9.0130   20.4720 C   0  0  0  0  0  3  0  0  0  0  0  0
  -22.7430  -10.2040   20.2880 C   0  0  0  0  0  3  0  0  0  0  0  0
  -21.6920   -6.9100   21.5020 O   0  0  0  0  0  0  0  0  0  0  0  0
  -21.6590   -6.1600   22.6510 C   0  0  0  0  0  0  0  0  0  0  0  0
  -21.2470   -6.7070   23.8850 C   0  0  0  0  0  3  0  0  0  0  0  0
  -21.1620   -5.8840   25.0260 C   0  0  0  0  0  3  0  0  0  0  0  0
  -21.4770   -4.5160   24.9340 C   0  0  0  0  0  0  0  0  0  0  0  0
  -21.8830   -3.9670   23.7040 C   0  0  0  0  0  3  0  0  0  0  0  0
  -21.9700   -4.7880   22.5640 C   0  0  0  0  0  0  0  0  0  0  0  0
  -22.3410   -4.2510   21.3770 F   0  0  0  0  0  0  0  0  0  0  0  0
  -21.3880   -3.7230   26.0260 F   0  0  0  0  0  0  0  0  0  0  0  0
  -22.7570  -13.5500   21.1550 C   0  0  0  0  0  0  0  0  0  0  0  0
  -22.0310  -12.8520   22.0210 N   0  0  0  0  0  0  0  0  0  0  0  0
  -22.3160  -14.5750   20.6340 O   0  0  0  0  0  0  0  0  0  0  0  0
  -22.4000  -12.0230   22.4620 H   0  0  0  0  0  0  0  0  0  0  0  0
  -21.0930  -13.1520   22.2470 H   0  0  0  0  0  0  0  0  0  0  0  0
  -25.3750  -15.2240   20.3250 N   0  0  0  0  0  0  0  0  0  0  0  0
  -24.5950  -15.8650   20.4270 H   0  0  0  0  0  0  0  0  0  0  0  0
  -26.1970  -15.6650   19.9350 H   0  0  0  0  0  0  0  0  0  0  0  0
  -28.5820  -23.8250   19.8350 C   0  0  0  0  0  0  0  0  0  0  0  0
  -28.5240  -24.0250   18.6180 O   0  0  0  0  0  0  0  0  0  0  0  0
  -28.2110  -25.0720   20.7620 C   0  0  0  0  0  2  0  0  0  0  0  0
  -28.3420  -26.4540   20.1910 O   0  0  0  0  0  0  0  0  0  0  0  0
  -24.6010  -31.8840   23.2360 C   0  0  0  0  0  0  0  0  0  0  0  0
  -27.2240  -27.3080   20.1990 C   0  0  0  0  0  0  0  0  0  0  0  0
  -23.4020  -30.4820   21.5960 C   0  0  0  0  0  3  0  0  0  0  0  0
  -24.8570  -28.9230   20.1770 C   0  0  0  0  0  0  0  0  0  0  0  0
  -25.9410  -30.8010   21.4120 C   0  0  0  0  0  2  0  0  0  0  0  0
  -26.0260  -29.4180   20.7710 C   0  0  0  0  0  0  0  0  0  0  0  0
  -27.2150  -28.6240   20.7650 C   0  0  0  0  0  3  0  0  0  0  0  0
  -26.0330  -26.8650   19.5880 C   0  0  0  0  0  3  0  0  0  0  0  0
  -24.8630  -27.6540   19.5760 C   0  0  0  0  0  3  0  0  0  0  0  0
  -23.6190  -29.7990   20.2190 C   0  0  0  0  0  2  0  0  0  0  0  0
  -24.6670  -31.0750   22.1380 N   0  0  0  0  0  0  0  0  0  0  0  0
  -23.5170  -32.1600   23.7710 O   0  0  0  0  0  0  0  0  0  0  0  0
  -22.7380  -29.4680   22.5580 C   0  0  0  0  0  0  0  0  0  0  0  0
  -21.4120  -29.2880   22.4300 N   0  0  0  0  0  0  0  0  0  0  0  0
  -23.4150  -28.8450   23.3790 O   0  0  0  0  0  0  0  0  0  0  0  0
  -20.9220  -29.8450   21.7430 H   0  0  0  0  0  0  0  0  0  0  0  0
  -18.0370  -28.0810   22.9230 C   0  0  0  0  0  0  0  0  0  0  0  0
  -20.5930  -28.3510   23.2010 C   0  0  0  0  0  3  0  0  0  0  0  0
  -20.7030  -26.9170   22.6290 C   0  0  0  0  0  2  0  0  0  0  0  0
  -19.6050  -26.5890   21.6130 C   0  0  0  0  0  2  0  0  0  0  0  0
  -18.2200  -26.7320   22.2510 C   0  0  0  0  0  2  0  0  0  0  0  0
  -19.1510  -28.8480   23.3550 C   0  0  0  0  0  0  0  0  0  0  0  0
  -18.9260  -30.1120   23.9440 C   0  0  0  0  0  3  0  0  0  0  0  0
  -17.6190  -30.6090   24.1050 C   0  0  0  0  0  3  0  0  0  0  0  0
  -16.5180  -29.8400   23.6880 C   0  0  0  0  0  3  0  0  0  0  0  0
  -16.7290  -28.5770   23.1030 C   0  0  0  0  0  3  0  0  0  0  0  0
  -25.8820  -32.5200   23.8600 C   0  0  0  0  0  3  0  0  0  0  0  0
  -26.3950  -31.7530   25.1400 C   0  0  1  0  0  0  0  0  0  0  0  0
  -25.3000  -31.5230   26.2070 C   0  0  0  0  0  1  0  0  0  0  0  0
  -26.9750  -30.3730   24.7550 C   0  0  0  0  0  1  0  0  0  0  0  0
  -27.5470  -32.5470   25.8010 C   0  0  0  0  0  1  0  0  0  0  0  0
  -25.5720  -33.9190   24.1880 N   0  0  0  0  0  0  0  0  0  0  0  0
  -25.9040  -34.9710   23.4280 C   0  0  0  0  0  0  0  0  0  0  0  0
  -26.5730  -34.8650   22.3950 O   0  0  0  0  0  0  0  0  0  0  0  0
  -24.9790  -34.0760   24.9900 H   0  0  0  0  0  0  0  0  0  0  0  0
  -24.1780  -36.7650   23.0690 C   0  0  0  0  0  1  0  0  0  0  0  0
  -25.4180  -36.3600   23.8830 C   0  0  0  0  0  3  0  0  0  0  0  0
  -27.5530  -37.2430   24.7150 C   0  0  0  0  0  1  0  0  0  0  0  0
  -26.4520  -37.4120   23.7700 N   0  0  0  0  0  0  0  0  0  0  0  0
  -26.0470  -38.3330   23.9180 H   0  0  0  0  0  0  0  0  0  0  0  0
  -28.1810  -21.1200   18.6230 O   0  0  0  0  0  0  0  0  0  0  0  0
  -28.2200  -20.2180   18.3290 H   0  0  0  0  0  0  0  0  0  0  0  0
  2  5  1  0
  2  1  2  0
  3  7  1  0
  4 17  1  0
  4  3  2  0
  5  6  2  0
  6  3  1  0
  8  5  1  0
  8  4  1  0
  9 17  1  0
 10 15  1  0
 11 12  1  0
 11 10  1  0
 13 12  1  0
 13 22  1  0
 13 14  1  0
 15  9  1  0
 15 14  1  0
 16  9  2  0
 17 18  1  0
 19 20  2  0
 20 39  1  0
 21 20  1  0
 21 24  1  0
 22 19  1  0
 22 23  1  0
 23 21  2  0
 24 25  1  0
 25 26  2  0
 27 30  1  0
 27 26  1  0
 28 27  2  0
 29 28  1  0
 29 24  2  0
 30 31  1  0
 31 32  1  0
 32 33  2  0
 34 33  1  0
 34 38  1  0
 35 34  2  0
 36 31  2  0
 36 35  1  0
 37 36  1  0
 39 40  1  0
 40 43  1  0
 40 42  1  0
 41 39  2  0
 44 45  1  0
 44 19  1  0
 46 44  1  0
 47  1  1  0
 47 49  1  0
 48 47  2  0
 50 52  1  0
 50 49  1  0
 51 62  2  0
 52 57  1  0
 53 61  1  0
 53 63  1  0
 54 60  1  0
 54 56  1  0
 55 61  1  0
 56 55  1  0
 57 56  2  0
 58 52  2  0
 59 58  1  0
 59 54  2  0
 60 53  1  0
 61 51  1  0
 63 65  2  0
 64 63  1  0
 66 64  1  0
 67 76  2  0
 67 72  1  0
 68 64  1  0
 68 72  1  0
 69 68  1  0
 70 71  1  0
 70 69  1  0
 71 67  1  0
 72 73  2  0
 73 74  1  0
 75 74  2  0
 76 75  1  0
 77 51  1  0
 77 82  1  0
 77 78  1  0
 78 81  1  1
 78 79  1  0
 80 78  1  0
 82 85  1  0
 83 87  1  0
 83 82  1  0
 84 83  2  0
 87 86  1  0
 89 87  1  0
 89 90  1  0
 89 88  1  0
 91  2  1  0
 92 91  1  0
M  ISO  4   9 100  17 100  49 101  50 101
M  END
>  <TORSDO>  (10) 
F 20

>  <SCORE>  (10) 
-14.287

>  <name>  (10) 
9

>  <ligand_id>  (10) 
9

>  <original_smiles>  (10) 
[H]OC(=C([H])C(=O)C([H])([H])Oc1c([H])c([H])c2c(c1[H])C([H])([H])N(C(=O)C([H])(N([H])C(=O)C([H])(N([H])C([H])([H])[H])C([H])([H])[H])C(C([H])([H])[H])(C([H])([H])[H])C([H])([H])[H])C([H])(C(=O)N([H])C1([H])c3c([H])c([H])c([H])c([H])c3C([H])([H])C([H])([H])C1([H])[H])C2([H])[H])c1nc(F)c(N([H])C(=O)N2C([H])([H])C([H])([H])C([H])([H])C([H])(n3nc(-c4c([H])c([H])c(Oc5c([H])c([H])c(F)c([H])c5F)c([H])c4[H])c(C(=O)N([H])[H])c3N([H])[H])C2([H])[H])s1

>  <smiles>  (10) 
[H]OC(=C([H])C(=O)C([H])([H])Oc1c([H])c([H])c2c(c1[H])C([H])([H])N(C(=O)C([H])(N([H])C(=O)C([H])(N([H])C([H])([H])[H])C([H])([H])[H])C(C([H])([H])[H])(C([H])([H])[H])C([H])([H])[H])C([H])(C(=O)N([H])C1([H])c3c([H])c([H])c([H])c([H])c3C([H])([H])C([H])([H])C1([H])[H])C2([H])[H])c1nc(F)c(N([H])C(=O)N2C([H])([H])C([H])([H])C([H])([H])C([H])(n3nc(-c4c([H])c([H])c(Oc5c([H])c([H])c(F)c([H])c5F)c([H])c4[H])c(C(=O)N([H])[H])c3N([H])[H])C2([H])[H])s1

$$$$
10:0:0
     RDKit          3D

 94102  0  0  1  0  0  0  0  0999 V2000
  -29.4050  -21.1570   20.4410 C   0  0  0  0  0  0  0  0  0  0  0  0
  -29.5800  -20.2450   19.4760 N   0  0  0  0  0  0  0  0  0  0  0  0
  -29.4490  -20.9560   21.6600 O   0  0  0  0  0  0  0  0  0  0  0  0
  -29.5370  -20.6450   18.5480 H   0  0  0  0  0  0  0  0  0  0  0  0
  -29.5660  -18.0240   20.5170 C   0  0  0  0  0  3  0  0  0  0  0  0
  -30.8570  -17.0190   18.9270 C   0  0  0  0  0  3  0  0  0  0  0  0
  -30.1630  -16.7990   20.0930 C   0  0  0  0  0  0  0  0  0  0  0  0
  -29.9370  -18.9420   19.5690 C   0  0  0  0  0  0  0  0  0  0  0  0
  -31.2870  -18.9840   17.4160 C   0  0  0  0  0  1  0  0  0  0  0  0
  -30.7150  -18.3480   18.5900 N   0  0  0  0  0  0  0  0  0  0  0  0
  -30.7190  -14.4400   20.4120 C   0  0  0  0  0  0  0  0  0  0  0  0
  -30.3610  -12.2920   19.3010 C   0  0  0  0  0  2  0  0  0  0  0  0
  -29.4280  -12.5400   18.0980 C   0  0  0  0  0  2  0  0  0  0  0  0
  -27.9530  -12.4230   18.5310 C   0  0  0  0  0  2  0  0  0  0  0  0
  -27.6290  -13.2540   19.8020 C   0  0  0  0  0  3  0  0  0  0  0  0
  -28.6870  -13.0280   20.9070 C   0  0  0  0  0  2  0  0  0  0  0  0
  -30.0160  -13.2830   20.3300 N   0  0  0  0  0  0  0  0  0  0  0  0
  -31.8860  -14.5410   20.0260 O   0  0  0  0  0  0  0  0  0  0  0  0
  -30.0060  -15.5340   20.7340 N   0  0  0  0  0  0  0  0  0  0  0  0
  -29.1390  -15.3800   21.2270 H   0  0  0  0  0  0  0  0  0  0  0  0
  -25.2350  -13.8660   20.5250 C   0  0  0  0  0  0  0  0  0  0  0  0
  -24.1670  -13.0950   20.8990 C   0  0  0  0  0  0  0  0  0  0  0  0
  -24.6250  -11.7420   20.8640 C   0  0  0  0  0  0  0  0  0  0  0  0
  -26.2770  -12.9820   20.2870 N   0  0  0  0  0  0  0  0  0  0  0  0
  -25.9130  -11.7000   20.5480 N   0  0  0  0  0  0  0  0  0  0  0  0
  -23.8950  -10.4810   21.0570 C   0  0  0  0  0  0  0  0  0  0  0  0
  -24.3380   -9.5080   21.9810 C   0  0  0  0  0  3  0  0  0  0  0  0
  -23.6120   -8.3100   22.1630 C   0  0  0  0  0  3  0  0  0  0  0  0
  -22.4280   -8.0790   21.4210 C   0  0  0  0  0  0  0  0  0  0  0  0
  -22.0050   -9.0410   20.4880 C   0  0  0  0  0  3  0  0  0  0  0  0
  -22.7310  -10.2300   20.3040 C   0  0  0  0  0  3  0  0  0  0  0  0
  -21.6720   -6.9350   21.5120 O   0  0  0  0  0  0  0  0  0  0  0  0
  -21.6470   -6.1790   22.6570 C   0  0  0  0  0  0  0  0  0  0  0  0
  -21.2580   -6.7230   23.9000 C   0  0  0  0  0  3  0  0  0  0  0  0
  -21.1790   -5.8930   25.0370 C   0  0  0  0  0  3  0  0  0  0  0  0
  -21.4770   -4.5220   24.9300 C   0  0  0  0  0  0  0  0  0  0  0  0
  -21.8580   -3.9780   23.6910 C   0  0  0  0  0  3  0  0  0  0  0  0
  -21.9410   -4.8040   22.5570 C   0  0  0  0  0  0  0  0  0  0  0  0
  -22.2880   -4.2710   21.3610 F   0  0  0  0  0  0  0  0  0  0  0  0
  -21.3930   -3.7240   26.0200 F   0  0  0  0  0  0  0  0  0  0  0  0
  -22.7720  -13.5760   21.1810 C   0  0  0  0  0  0  0  0  0  0  0  0
  -22.0450  -12.8770   22.0460 N   0  0  0  0  0  0  0  0  0  0  0  0
  -22.3350  -14.6060   20.6670 O   0  0  0  0  0  0  0  0  0  0  0  0
  -22.4100  -12.0450   22.4840 H   0  0  0  0  0  0  0  0  0  0  0  0
  -21.1080  -13.1810   22.2740 H   0  0  0  0  0  0  0  0  0  0  0  0
  -25.4050  -15.2350   20.3490 N   0  0  0  0  0  0  0  0  0  0  0  0
  -24.6400  -15.8920   20.4530 H   0  0  0  0  0  0  0  0  0  0  0  0
  -26.2560  -15.6700   20.0180 H   0  0  0  0  0  0  0  0  0  0  0  0
  -29.1490  -22.5400   19.7970 C   0  0  0  0  0  0  0  0  0  0  0  0
  -28.5140  -22.6440   18.7380 O   0  0  0  0  0  0  0  0  0  0  0  0
  -29.7740  -23.7660   20.4800 C   0  0  0  0  0  2  0  0  0  0  0  0
  -29.9250  -24.9920   19.5430 C   0  0  0  0  0  2  0  0  0  0  0  0
  -28.6080  -25.7260   19.2300 C   0  0  0  0  0  2  0  0  0  0  0  0
  -28.4150  -26.7850   20.1640 O   0  0  0  0  0  0  0  0  0  0  0  0
  -24.5890  -31.9070   23.2430 C   0  0  0  0  0  0  0  0  0  0  0  0
  -27.2200  -27.4740   20.1440 C   0  0  0  0  0  0  0  0  0  0  0  0
  -23.3750  -30.5080   21.6020 C   0  0  0  0  0  3  0  0  0  0  0  0
  -24.8210  -28.9720   20.1760 C   0  0  0  0  0  0  0  0  0  0  0  0
  -25.9000  -30.8640   21.4000 C   0  0  0  0  0  2  0  0  0  0  0  0
  -25.9790  -29.4920   20.7650 C   0  0  0  0  0  0  0  0  0  0  0  0
  -27.1760  -28.7440   20.7580 C   0  0  0  0  0  3  0  0  0  0  0  0
  -26.0370  -26.9630   19.5550 C   0  0  0  0  0  3  0  0  0  0  0  0
  -24.8430  -27.7030   19.5750 C   0  0  0  0  0  3  0  0  0  0  0  0
  -23.5810  -29.8330   20.2220 C   0  0  0  0  0  2  0  0  0  0  0  0
  -24.6400  -31.1080   22.1410 N   0  0  0  0  0  0  0  0  0  0  0  0
  -23.5090  -32.1800   23.7860 O   0  0  0  0  0  0  0  0  0  0  0  0
  -22.7270  -29.4850   22.5620 C   0  0  0  0  0  0  0  0  0  0  0  0
  -21.4020  -29.3050   22.4380 N   0  0  0  0  0  0  0  0  0  0  0  0
  -23.4120  -28.8580   23.3750 O   0  0  0  0  0  0  0  0  0  0  0  0
  -20.9110  -29.8620   21.7530 H   0  0  0  0  0  0  0  0  0  0  0  0
  -18.0280  -28.1200   22.9410 C   0  0  0  0  0  0  0  0  0  0  0  0
  -20.5860  -28.3690   23.2110 C   0  0  0  0  0  3  0  0  0  0  0  0
  -20.6840  -26.9380   22.6340 C   0  0  0  0  0  2  0  0  0  0  0  0
  -19.5800  -26.6190   21.6210 C   0  0  0  0  0  2  0  0  0  0  0  0
  -18.2000  -26.7690   22.2650 C   0  0  0  0  0  2  0  0  0  0  0  0
  -19.1490  -28.8770   23.3710 C   0  0  0  0  0  0  0  0  0  0  0  0
  -18.9350  -30.1420   23.9600 C   0  0  0  0  0  3  0  0  0  0  0  0
  -17.6320  -30.6500   24.1240 C   0  0  0  0  0  3  0  0  0  0  0  0
  -16.5250  -29.8880   23.7120 C   0  0  0  0  0  3  0  0  0  0  0  0
  -16.7240  -28.6250   23.1260 C   0  0  0  0  0  3  0  0  0  0  0  0
  -25.8780  -32.5350   23.8580 C   0  0  0  0  0  3  0  0  0  0  0  0
  -25.5740  -33.9330   24.1890 N   0  0  0  0  0  0  0  0  0  0  0  0
  -25.9080  -34.9830   23.4270 C   0  0  0  0  0  0  0  0  0  0  0  0
  -26.5770  -34.8770   22.3960 O   0  0  0  0  0  0  0  0  0  0  0  0
  -24.9820  -34.0900   24.9910 H   0  0  0  0  0  0  0  0  0  0  0  0
  -24.1830  -36.7780   23.0700 C   0  0  0  0  0  1  0  0  0  0  0  0
  -25.4230  -36.3720   23.8840 C   0  0  0  0  0  3  0  0  0  0  0  0
  -27.5590  -37.2510   24.7160 C   0  0  0  0  0  1  0  0  0  0  0  0
  -26.4570  -37.4230   23.7730 N   0  0  0  0  0  0  0  0  0  0  0  0
  -26.0530  -38.3440   23.9230 H   0  0  0  0  0  0  0  0  0  0  0  0
  -26.4010  -31.7610   25.1300 C   0  0  1  0  0  0  0  0  0  0  0  0
  -25.3130  -31.5220   26.2020 C   0  0  0  0  0  1  0  0  0  0  0  0
  -26.9800  -30.3840   24.7290 C   0  0  0  0  0  1  0  0  0  0  0  0
  -27.5550  -32.5520   25.7890 C   0  0  0  0  0  1  0  0  0  0  0  0
  1  3  2  0
  2  8  1  0
  2  1  1  0
  4  2  1  0
  6  7  2  0
  7  5  1  0
  7 19  1  0
  8  5  2  0
  9 10  1  0
 10  6  1  0
 10  8  1  0
 11 19  1  0
 12 17  1  0
 13 14  1  0
 13 12  1  0
 15 14  1  0
 15 24  1  0
 15 16  1  0
 17 11  1  0
 17 16  1  0
 18 11  2  0
 19 20  1  0
 21 22  2  0
 22 41  1  0
 23 22  1  0
 23 26  1  0
 24 21  1  0
 24 25  1  0
 25 23  2  0
 26 27  1  0
 27 28  2  0
 29 32  1  0
 29 28  1  0
 30 29  2  0
 31 30  1  0
 31 26  2  0
 32 33  1  0
 33 34  1  0
 34 35  2  0
 36 35  1  0
 36 40  1  0
 37 36  2  0
 38 33  2  0
 38 37  1  0
 39 38  1  0
 41 42  1  0
 42 45  1  0
 42 44  1  0
 43 41  2  0
 46 47  1  0
 46 21  1  0
 48 46  1  0
 49  1  1  0
 49 51  1  0
 50 49  2  0
 52 51  1  0
 53 52  1  0
 53 54  1  0
 55 66  2  0
 56 54  1  0
 56 61  1  0
 57 65  1  0
 57 67  1  0
 58 64  1  0
 58 60  1  0
 59 65  1  0
 60 59  1  0
 61 60  2  0
 62 63  1  0
 62 56  2  0
 63 58  2  0
 64 57  1  0
 65 55  1  0
 67 69  2  0
 68 67  1  0
 70 68  1  0
 71 80  2  0
 71 76  1  0
 72 68  1  0
 72 76  1  0
 73 72  1  0
 74 75  1  0
 74 73  1  0
 75 71  1  0
 76 77  2  0
 77 78  1  0
 79 78  2  0
 80 79  1  0
 81 55  1  0
 81 82  1  0
 81 91  1  0
 82 85  1  0
 83 87  1  0
 83 82  1  0
 84 83  2  0
 87 86  1  0
 89 87  1  0
 89 90  1  0
 89 88  1  0
 91 94  1  1
 91 92  1  0
 93 91  1  0
M  ISO  4  11 100  19 100  53 101  54 101
M  END
>  <TORSDO>  (11) 
F 21

>  <SCORE>  (11) 
-13.670

>  <name>  (11) 
10

>  <ligand_id>  (11) 
10

>  <original_smiles>  (11) 
[H]c1c([H])c([H])c2c(c1[H])C([H])([H])C([H])([H])C([H])([H])C2([H])N([H])C(=O)C1([H])N(C(=O)C([H])(N([H])C(=O)C([H])(N([H])C([H])([H])[H])C([H])([H])[H])C(C([H])([H])[H])(C([H])([H])[H])C([H])([H])[H])C([H])([H])c2c([H])c(OC([H])([H])C([H])([H])C([H])([H])C(=O)C(=O)N([H])c3c([H])c(N([H])C(=O)N4C([H])([H])C([H])([H])C([H])([H])C([H])(n5nc(-c6c([H])c([H])c(Oc7c([H])c([H])c(F)c([H])c7F)c([H])c6[H])c(C(=O)N([H])[H])c5N([H])[H])C4([H])[H])c([H])n3C([H])([H])[H])c([H])c([H])c2C1([H])[H]

>  <smiles>  (11) 
[H]c1c([H])c([H])c2c(c1[H])C([H])([H])C([H])([H])C([H])([H])C2([H])N([H])C(=O)C1([H])N(C(=O)C([H])(N([H])C(=O)C([H])(N([H])C([H])([H])[H])C([H])([H])[H])C(C([H])([H])[H])(C([H])([H])[H])C([H])([H])[H])C([H])([H])c2c([H])c(OC([H])([H])C([H])([H])C([H])([H])C(=O)C(=O)N([H])c3c([H])c(N([H])C(=O)N4C([H])([H])C([H])([H])C([H])([H])C([H])(n5nc(-c6c([H])c([H])c(Oc7c([H])c([H])c(F)c([H])c7F)c([H])c6[H])c(C(=O)N([H])[H])c5N([H])[H])C4([H])[H])c([H])n3C([H])([H])[H])c([H])c([H])c2C1([H])[H]

$$$$
11:0:0
     RDKit          3D

 93101  0  0  1  0  0  0  0  0999 V2000
  -29.1990  -22.3640   19.9780 C   0  0  2  0  0  0  0  0  0  0  0  0
  -30.2730  -22.5170   19.2030 F   0  0  0  0  0  0  0  0  0  0  0  0
  -28.1820  -22.0380   19.1790 F   0  0  0  0  0  0  0  0  0  0  0  0
  -28.8550  -23.8010   20.6310 C   0  0  0  0  0  0  0  0  0  0  0  0
  -29.1330  -24.0310   21.8140 O   0  0  0  0  0  0  0  0  0  0  0  0
  -28.1660  -24.9600   19.7690 C   0  0  0  0  0  2  0  0  0  0  0  0
  -28.2550  -26.3950   20.2390 O   0  0  0  0  0  0  0  0  0  0  0  0
  -24.5220  -31.8900   23.1530 C   0  0  0  0  0  0  0  0  0  0  0  0
  -27.1550  -27.2830   20.1300 C   0  0  0  0  0  0  0  0  0  0  0  0
  -23.3360  -30.4880   21.5060 C   0  0  0  0  0  3  0  0  0  0  0  0
  -24.8030  -28.9420   20.0860 C   0  0  0  0  0  0  0  0  0  0  0  0
  -25.8810  -30.7960   21.3500 C   0  0  0  0  0  2  0  0  0  0  0  0
  -25.9660  -29.4130   20.7050 C   0  0  0  0  0  0  0  0  0  0  0  0
  -27.1410  -28.5930   20.7210 C   0  0  0  0  0  3  0  0  0  0  0  0
  -25.9730  -26.8970   19.4540 C   0  0  0  0  0  3  0  0  0  0  0  0
  -24.8130  -27.6940   19.4500 C   0  0  0  0  0  3  0  0  0  0  0  0
  -23.5660  -29.8180   20.1260 C   0  0  0  0  0  2  0  0  0  0  0  0
  -24.5990  -31.0760   22.0590 N   0  0  0  0  0  0  0  0  0  0  0  0
  -23.4330  -32.1670   23.6770 O   0  0  0  0  0  0  0  0  0  0  0  0
  -22.6670  -29.4690   22.4600 C   0  0  0  0  0  0  0  0  0  0  0  0
  -21.3440  -29.2810   22.3170 N   0  0  0  0  0  0  0  0  0  0  0  0
  -23.3380  -28.8510   23.2910 O   0  0  0  0  0  0  0  0  0  0  0  0
  -20.8610  -29.8340   21.6220 H   0  0  0  0  0  0  0  0  0  0  0  0
  -17.9690  -28.0580   22.7750 C   0  0  0  0  0  0  0  0  0  0  0  0
  -20.5200  -28.3430   23.0820 C   0  0  0  0  0  3  0  0  0  0  0  0
  -20.6450  -26.9080   22.5190 C   0  0  0  0  0  2  0  0  0  0  0  0
  -19.5610  -26.5680   21.4900 C   0  0  0  0  0  2  0  0  0  0  0  0
  -18.1680  -26.7060   22.1110 C   0  0  0  0  0  2  0  0  0  0  0  0
  -19.0740  -28.8340   23.2160 C   0  0  0  0  0  0  0  0  0  0  0  0
  -18.8350  -30.0980   23.7960 C   0  0  0  0  0  3  0  0  0  0  0  0
  -17.5220  -30.5870   23.9410 C   0  0  0  0  0  3  0  0  0  0  0  0
  -16.4310  -29.8100   23.5140 C   0  0  0  0  0  3  0  0  0  0  0  0
  -16.6550  -28.5470   22.9370 C   0  0  0  0  0  3  0  0  0  0  0  0
  -25.7960  -32.5290   23.7840 C   0  0  0  0  0  3  0  0  0  0  0  0
  -26.3120  -31.7530   25.0580 C   0  0  1  0  0  0  0  0  0  0  0  0
  -25.2150  -31.4970   26.1180 C   0  0  0  0  0  1  0  0  0  0  0  0
  -26.9090  -30.3830   24.6590 C   0  0  0  0  0  1  0  0  0  0  0  0
  -27.4510  -32.5520   25.7320 C   0  0  0  0  0  1  0  0  0  0  0  0
  -25.4740  -33.9220   24.1270 N   0  0  0  0  0  0  0  0  0  0  0  0
  -25.8060  -34.9860   23.3840 C   0  0  0  0  0  0  0  0  0  0  0  0
  -26.4840  -34.8970   22.3560 O   0  0  0  0  0  0  0  0  0  0  0  0
  -24.8690  -34.0640   24.9230 H   0  0  0  0  0  0  0  0  0  0  0  0
  -24.0780  -36.7800   23.0260 C   0  0  0  0  0  1  0  0  0  0  0  0
  -25.3060  -36.3660   23.8510 C   0  0  0  0  0  3  0  0  0  0  0  0
  -27.4210  -37.2490   24.7350 C   0  0  0  0  0  1  0  0  0  0  0  0
  -26.3370  -37.4240   23.7720 N   0  0  0  0  0  0  0  0  0  0  0  0
  -25.9260  -38.3410   23.9230 H   0  0  0  0  0  0  0  0  0  0  0  0
  -29.4600  -21.0430   20.9040 C   0  0  0  0  0  3  0  0  0  0  0  0
  -30.8020  -14.8380   20.1070 C   0  0  0  0  0  0  0  0  0  0  0  0
  -30.5310  -12.5810   19.0590 C   0  0  0  0  0  2  0  0  0  0  0  0
  -29.5460  -12.7090   17.8750 C   0  0  0  0  0  2  0  0  0  0  0  0
  -28.0910  -12.5530   18.3570 C   0  0  0  0  0  2  0  0  0  0  0  0
  -27.7860  -13.4090   19.6150 C   0  0  0  0  0  3  0  0  0  0  0  0
  -28.8860  -13.2640   20.6900 C   0  0  0  0  0  2  0  0  0  0  0  0
  -30.1680  -13.6120   20.0640 N   0  0  0  0  0  0  0  0  0  0  0  0
  -31.9490  -14.9380   19.6550 O   0  0  0  0  0  0  0  0  0  0  0  0
  -30.4000  -19.2600   19.0790 C   0  0  0  0  0  3  0  0  0  0  0  0
  -29.8390  -19.6350   20.2790 C   0  0  0  0  0  0  0  0  0  0  0  0
  -30.1760  -17.3710   20.2170 C   0  0  0  0  0  0  0  0  0  0  0  0
  -30.6100  -17.8660   19.0510 N   0  0  0  0  0  0  0  0  0  0  0  0
  -30.0910  -15.9370   20.5650 N   0  0  0  0  0  0  0  0  0  0  0  0
  -29.6770  -18.4170   20.9970 O   0  0  0  0  0  0  0  0  0  0  0  0
  -29.2880  -15.7040   21.1250 H   0  0  0  0  0  0  0  0  0  0  0  0
  -25.4360  -14.0200   20.4460 C   0  0  0  0  0  0  0  0  0  0  0  0
  -24.3740  -13.2540   20.8450 C   0  0  0  0  0  0  0  0  0  0  0  0
  -24.8150  -11.8970   20.7700 C   0  0  0  0  0  0  0  0  0  0  0  0
  -26.4560  -13.1310   20.1500 N   0  0  0  0  0  0  0  0  0  0  0  0
  -26.0920  -11.8490   20.4100 N   0  0  0  0  0  0  0  0  0  0  0  0
  -24.0790  -10.6420   20.9700 C   0  0  0  0  0  0  0  0  0  0  0  0
  -24.5100   -9.6690   21.8990 C   0  0  0  0  0  3  0  0  0  0  0  0
  -23.7730   -8.4800   22.0840 C   0  0  0  0  0  3  0  0  0  0  0  0
  -22.5890   -8.2540   21.3410 C   0  0  0  0  0  0  0  0  0  0  0  0
  -22.1790   -9.2150   20.3990 C   0  0  0  0  0  3  0  0  0  0  0  0
  -22.9170  -10.3950   20.2120 C   0  0  0  0  0  3  0  0  0  0  0  0
  -21.8250   -7.1170   21.4360 O   0  0  0  0  0  0  0  0  0  0  0  0
  -21.7500   -6.3950   22.5990 C   0  0  0  0  0  0  0  0  0  0  0  0
  -21.2840   -6.9690   23.8020 C   0  0  0  0  0  3  0  0  0  0  0  0
  -21.1560   -6.1730   24.9590 C   0  0  0  0  0  3  0  0  0  0  0  0
  -21.4860   -4.8040   24.9120 C   0  0  0  0  0  0  0  0  0  0  0  0
  -21.9440   -4.2300   23.7140 C   0  0  0  0  0  3  0  0  0  0  0  0
  -22.0720   -5.0240   22.5600 C   0  0  0  0  0  0  0  0  0  0  0  0
  -22.4950   -4.4610   21.4020 F   0  0  0  0  0  0  0  0  0  0  0  0
  -21.3560   -4.0370   26.0200 F   0  0  0  0  0  0  0  0  0  0  0  0
  -22.9960  -13.7450   21.1810 C   0  0  0  0  0  0  0  0  0  0  0  0
  -22.2960  -13.0460   22.0700 N   0  0  0  0  0  0  0  0  0  0  0  0
  -22.5500  -14.7840   20.6960 O   0  0  0  0  0  0  0  0  0  0  0  0
  -22.6700  -12.2070   22.4870 H   0  0  0  0  0  0  0  0  0  0  0  0
  -21.3740  -13.3590   22.3390 H   0  0  0  0  0  0  0  0  0  0  0  0
  -25.6130  -15.3920   20.2840 N   0  0  0  0  0  0  0  0  0  0  0  0
  -24.8580  -16.0540   20.4330 H   0  0  0  0  0  0  0  0  0  0  0  0
  -26.4410  -15.8210   19.8910 H   0  0  0  0  0  0  0  0  0  0  0  0
  -30.2230  -21.0550   23.1720 C   0  0  0  0  0  1  0  0  0  0  0  0
  -30.5320  -21.3170   21.8070 O   0  0  0  0  0  0  0  0  0  0  0  0
  1  4  1  0
  1 48  1  0
  1  2  1  6
  3  1  1  0
  4  5  2  0
  6  7  1  0
  6  4  1  0
  8 19  2  0
  9  7  1  0
  9 14  1  0
 10 18  1  0
 10 20  1  0
 11 17  1  0
 11 13  1  0
 12 18  1  0
 13 14  2  0
 13 12  1  0
 15  9  2  0
 16 15  1  0
 16 11  2  0
 17 10  1  0
 18  8  1  0
 20 22  2  0
 21 20  1  0
 23 21  1  0
 24 33  2  0
 24 29  1  0
 25 21  1  0
 25 29  1  0
 26 25  1  0
 27 28  1  0
 27 26  1  0
 28 24  1  0
 29 30  2  0
 30 31  1  0
 32 31  2  0
 33 32  1  0
 34  8  1  0
 34 39  1  0
 34 35  1  0
 35 38  1  1
 35 36  1  0
 37 35  1  0
 39 42  1  0
 40 44  1  0
 40 39  1  0
 41 40  2  0
 44 43  1  0
 46 44  1  0
 46 47  1  0
 46 45  1  0
 48 93  1  0
 49 61  1  0
 50 55  1  0
 51 52  1  0
 51 50  1  0
 53 52  1  0
 53 67  1  0
 53 54  1  0
 55 49  1  0
 55 54  1  0
 56 49  2  0
 57 58  2  0
 58 48  1  0
 58 62  1  0
 59 61  1  0
 59 62  1  0
 60 57  1  0
 60 59  2  0
 61 63  1  0
 64 65  2  0
 65 84  1  0
 66 65  1  0
 66 69  1  0
 67 68  1  0
 67 64  1  0
 68 66  2  0
 69 70  1  0
 70 71  2  0
 72 75  1  0
 72 71  1  0
 73 72  2  0
 74 73  1  0
 74 69  2  0
 75 76  1  0
 76 77  1  0
 77 78  2  0
 79 78  1  0
 79 83  1  0
 80 79  2  0
 81 76  2  0
 81 80  1  0
 82 81  1  0
 84 85  1  0
 85 88  1  0
 85 87  1  0
 86 84  2  0
 89 90  1  0
 89 64  1  0
 91 89  1  0
 93 92  1  0
M  ISO  4   6 101   7 101  49 100  61 100
M  END
>  <TORSDO>  (12) 
F 20

>  <SCORE>  (12) 
-13.911

>  <name>  (12) 
11

>  <ligand_id>  (12) 
11

>  <original_smiles>  (12) 
[H]c1nc(N([H])C(=O)N2C([H])([H])C([H])([H])C([H])([H])C([H])(n3nc(-c4c([H])c([H])c(Oc5c([H])c([H])c(F)c([H])c5F)c([H])c4[H])c(C(=O)N([H])[H])c3N([H])[H])C2([H])[H])oc1C([H])(OC([H])([H])[H])C(F)(F)C(=O)C([H])([H])Oc1c([H])c([H])c2c(c1[H])C([H])([H])N(C(=O)C([H])(N([H])C(=O)C([H])(N([H])C([H])([H])[H])C([H])([H])[H])C(C([H])([H])[H])(C([H])([H])[H])C([H])([H])[H])C([H])(C(=O)N([H])C1([H])c3c([H])c([H])c([H])c([H])c3C([H])([H])C([H])([H])C1([H])[H])C2([H])[H]

>  <smiles>  (12) 
[H]c1nc(N([H])C(=O)N2C([H])([H])C([H])([H])C([H])([H])C([H])(n3nc(-c4c([H])c([H])c(Oc5c([H])c([H])c(F)c([H])c5F)c([H])c4[H])c(C(=O)N([H])[H])c3N([H])[H])C2([H])[H])oc1C([H])(OC([H])([H])[H])C(F)(F)C(=O)C([H])([H])Oc1c([H])c([H])c2c(c1[H])C([H])([H])N(C(=O)C([H])(N([H])C(=O)C([H])(N([H])C([H])([H])[H])C([H])([H])[H])C(C([H])([H])[H])(C([H])([H])[H])C([H])([H])[H])C([H])(C(=O)N([H])C1([H])c3c([H])c([H])c([H])c([H])c3C([H])([H])C([H])([H])C1([H])[H])C2([H])[H]

$$$$
12:0:0
     RDKit          3D

 93101  0  0  1  0  0  0  0  0999 V2000
  -29.8820  -18.0880   20.6910 C   0  0  0  0  0  0  0  0  0  0  0  0
  -28.6230  -18.0160   20.1510 C   0  0  0  0  0  0  0  0  0  0  0  0
  -29.3620  -20.3300   20.4340 C   0  0  0  0  0  0  0  0  0  0  0  0
  -28.7050  -22.7400   20.3260 C   0  0  0  0  0  0  0  0  0  0  0  0
  -30.2950  -19.4370   20.8350 N   0  0  0  0  0  0  0  0  0  0  0  0
  -29.6060  -21.7430   20.5050 N   0  0  0  0  0  0  0  0  0  0  0  0
  -27.4960  -22.5530   20.1470 O   0  0  0  0  0  0  0  0  0  0  0  0
  -27.9750  -16.8520   19.8930 F   0  0  0  0  0  0  0  0  0  0  0  0
  -27.8920  -19.5550   19.8150 S   0  0  0  0  0  0  0  0  0  0  0  0
  -30.5500  -22.0390   20.7060 H   0  0  0  0  0  0  0  0  0  0  0  0
  -29.2880  -24.2020   20.3770 C   0  0  0  0  0  0  0  0  0  0  0  0
  -30.3680  -24.4760   20.9180 O   0  0  0  0  0  0  0  0  0  0  0  0
  -28.4160  -25.2750   19.6790 C   0  0  0  0  0  2  0  0  0  0  0  0
  -28.5900  -26.6560   20.1140 O   0  0  0  0  0  0  0  0  0  0  0  0
  -24.5050  -31.6690   23.1870 C   0  0  0  0  0  0  0  0  0  0  0  0
  -27.4340  -27.4290   20.0330 C   0  0  0  0  0  0  0  0  0  0  0  0
  -23.4270  -30.3050   21.4340 C   0  0  0  0  0  3  0  0  0  0  0  0
  -24.9970  -28.8990   19.9990 C   0  0  0  0  0  0  0  0  0  0  0  0
  -25.9520  -30.7480   21.3740 C   0  0  0  0  0  2  0  0  0  0  0  0
  -26.1140  -29.4140   20.6680 C   0  0  0  0  0  0  0  0  0  0  0  0
  -27.3360  -28.6880   20.6830 C   0  0  0  0  0  3  0  0  0  0  0  0
  -26.2930  -26.9650   19.3280 C   0  0  0  0  0  3  0  0  0  0  0  0
  -25.0850  -27.6760   19.3230 C   0  0  0  0  0  3  0  0  0  0  0  0
  -23.7220  -29.7090   20.0340 C   0  0  0  0  0  2  0  0  0  0  0  0
  -24.6440  -30.9190   22.0580 N   0  0  0  0  0  0  0  0  0  0  0  0
  -23.3900  -31.8790   23.6860 O   0  0  0  0  0  0  0  0  0  0  0  0
  -22.7730  -29.2140   22.3130 C   0  0  0  0  0  0  0  0  0  0  0  0
  -21.4510  -29.0330   22.1590 N   0  0  0  0  0  0  0  0  0  0  0  0
  -23.4520  -28.5370   23.0890 O   0  0  0  0  0  0  0  0  0  0  0  0
  -20.9640  -29.6320   21.5070 H   0  0  0  0  0  0  0  0  0  0  0  0
  -18.0630  -27.8620   22.6390 C   0  0  0  0  0  0  0  0  0  0  0  0
  -20.6330  -28.0390   22.8560 C   0  0  0  0  0  3  0  0  0  0  0  0
  -20.6850  -26.6720   22.1370 C   0  0  0  0  0  2  0  0  0  0  0  0
  -19.5460  -26.4750   21.1310 C   0  0  0  0  0  2  0  0  0  0  0  0
  -18.1880  -26.5830   21.8290 C   0  0  0  0  0  2  0  0  0  0  0  0
  -19.2110  -28.5540   23.1070 C   0  0  0  0  0  0  0  0  0  0  0  0
  -19.0400  -29.7560   23.8280 C   0  0  0  0  0  3  0  0  0  0  0  0
  -17.7530  -30.2680   24.0810 C   0  0  0  0  0  3  0  0  0  0  0  0
  -16.6200  -29.5720   23.6260 C   0  0  0  0  0  3  0  0  0  0  0  0
  -16.7760  -28.3700   22.9120 C   0  0  0  0  0  3  0  0  0  0  0  0
  -25.7360  -32.3150   23.8940 C   0  0  0  0  0  3  0  0  0  0  0  0
  -26.1740  -31.5500   25.2020 C   0  0  1  0  0  0  0  0  0  0  0  0
  -25.0160  -31.3030   26.1960 C   0  0  0  0  0  1  0  0  0  0  0  0
  -26.7970  -30.1780   24.8520 C   0  0  0  0  0  1  0  0  0  0  0  0
  -27.2700  -32.3580   25.9370 C   0  0  0  0  0  1  0  0  0  0  0  0
  -25.3870  -33.7090   24.1980 N   0  0  0  0  0  0  0  0  0  0  0  0
  -25.7290  -34.7620   23.4430 C   0  0  0  0  0  0  0  0  0  0  0  0
  -26.4430  -34.6620   22.4410 O   0  0  0  0  0  0  0  0  0  0  0  0
  -24.7550  -33.8590   24.9710 H   0  0  0  0  0  0  0  0  0  0  0  0
  -23.9700  -36.5070   23.0100 C   0  0  0  0  0  1  0  0  0  0  0  0
  -25.1950  -36.1430   23.8650 C   0  0  0  0  0  3  0  0  0  0  0  0
  -27.2730  -37.0970   24.7580 C   0  0  0  0  0  1  0  0  0  0  0  0
  -26.2060  -37.2190   23.7700 N   0  0  0  0  0  0  0  0  0  0  0  0
  -25.7720  -38.1320   23.8820 H   0  0  0  0  0  0  0  0  0  0  0  0
  -30.7800  -16.9350   21.1140 C   0  0  0  0  0  2  0  0  0  0  0  0
  -30.7760  -14.5330   20.3950 C   0  0  0  0  0  0  0  0  0  0  0  0
  -30.3690  -12.3990   19.2220 C   0  0  0  0  0  2  0  0  0  0  0  0
  -29.4110  -12.6360   18.0370 C   0  0  0  0  0  2  0  0  0  0  0  0
  -27.9490  -12.5010   18.5000 C   0  0  0  0  0  2  0  0  0  0  0  0
  -27.6470  -13.3260   19.7800 C   0  0  0  0  0  3  0  0  0  0  0  0
  -28.7300  -13.1100   20.8640 C   0  0  0  0  0  2  0  0  0  0  0  0
  -30.0430  -13.3910   20.2610 N   0  0  0  0  0  0  0  0  0  0  0  0
  -31.8900  -14.6630   19.8850 O   0  0  0  0  0  0  0  0  0  0  0  0
  -30.1880  -15.5820   21.0010 N   0  0  0  0  0  0  0  0  0  0  0  0
  -29.2460  -15.4680   21.3410 H   0  0  0  0  0  0  0  0  0  0  0  0
  -25.2700  -13.9280   20.5630 C   0  0  0  0  0  0  0  0  0  0  0  0
  -24.2040  -13.1550   20.9330 C   0  0  0  0  0  0  0  0  0  0  0  0
  -24.6550  -11.8010   20.8650 C   0  0  0  0  0  0  0  0  0  0  0  0
  -26.3050  -13.0460   20.2900 N   0  0  0  0  0  0  0  0  0  0  0  0
  -25.9390  -11.7600   20.5290 N   0  0  0  0  0  0  0  0  0  0  0  0
  -23.9230  -10.5410   21.0460 C   0  0  0  0  0  0  0  0  0  0  0  0
  -24.3540   -9.5630   21.9680 C   0  0  0  0  0  3  0  0  0  0  0  0
  -23.6230   -8.3690   22.1400 C   0  0  0  0  0  3  0  0  0  0  0  0
  -22.4440   -8.1440   21.3880 C   0  0  0  0  0  0  0  0  0  0  0  0
  -22.0320   -9.1100   20.4550 C   0  0  0  0  0  3  0  0  0  0  0  0
  -22.7630  -10.2970   20.2820 C   0  0  0  0  0  3  0  0  0  0  0  0
  -21.6840   -7.0020   21.4680 O   0  0  0  0  0  0  0  0  0  0  0  0
  -21.6140   -6.2630   22.6220 C   0  0  0  0  0  0  0  0  0  0  0  0
  -21.1190   -6.8080   23.8260 C   0  0  0  0  0  3  0  0  0  0  0  0
  -21.0000   -5.9950   24.9710 C   0  0  0  0  0  3  0  0  0  0  0  0
  -21.3630   -4.6360   24.9110 C   0  0  0  0  0  0  0  0  0  0  0  0
  -21.8490   -4.0900   23.7100 C   0  0  0  0  0  3  0  0  0  0  0  0
  -21.9720   -4.9010   22.5690 C   0  0  0  0  0  0  0  0  0  0  0  0
  -22.4210   -4.3650   21.4080 F   0  0  0  0  0  0  0  0  0  0  0  0
  -21.2410   -3.8520   26.0070 F   0  0  0  0  0  0  0  0  0  0  0  0
  -22.8180  -13.6380   21.2500 C   0  0  0  0  0  0  0  0  0  0  0  0
  -22.1040  -12.9280   22.1170 N   0  0  0  0  0  0  0  0  0  0  0  0
  -22.3770  -14.6790   20.7650 O   0  0  0  0  0  0  0  0  0  0  0  0
  -22.4740  -12.0860   22.5320 H   0  0  0  0  0  0  0  0  0  0  0  0
  -21.1750  -13.2320   22.3690 H   0  0  0  0  0  0  0  0  0  0  0  0
  -25.4370  -15.3010   20.4240 N   0  0  0  0  0  0  0  0  0  0  0  0
  -24.6910  -15.9490   20.6500 H   0  0  0  0  0  0  0  0  0  0  0  0
  -26.3370  -15.7620   20.3270 H   0  0  0  0  0  0  0  0  0  0  0  0
  1  5  1  0
  1 55  1  0
  2  1  2  0
  3  6  1  0
  3  5  2  0
  4 11  1  0
  4  6  1  0
  6 10  1  0
  7  4  2  0
  8  2  1  0
  9  2  1  0
  9  3  1  0
 11 12  2  0
 13 14  1  0
 13 11  1  0
 15 26  2  0
 16 14  1  0
 16 21  1  0
 17 25  1  0
 17 27  1  0
 18 24  1  0
 18 20  1  0
 19 25  1  0
 20 21  2  0
 20 19  1  0
 22 16  2  0
 23 22  1  0
 23 18  2  0
 24 17  1  0
 25 15  1  0
 27 29  2  0
 28 27  1  0
 30 28  1  0
 31 40  2  0
 31 36  1  0
 32 28  1  0
 32 36  1  0
 33 32  1  0
 34 35  1  0
 34 33  1  0
 35 31  1  0
 36 37  2  0
 37 38  1  0
 39 38  2  0
 40 39  1  0
 41 15  1  0
 41 46  1  0
 41 42  1  0
 42 45  1  1
 42 43  1  0
 44 42  1  0
 46 49  1  0
 47 51  1  0
 47 46  1  0
 48 47  2  0
 51 50  1  0
 53 51  1  0
 53 54  1  0
 53 52  1  0
 56 64  1  0
 57 62  1  0
 58 59  1  0
 58 57  1  0
 60 59  1  0
 60 69  1  0
 60 61  1  0
 62 56  1  0
 62 61  1  0
 63 56  2  0
 64 55  1  0
 64 65  1  0
 66 67  2  0
 67 86  1  0
 68 67  1  0
 68 71  1  0
 69 70  1  0
 69 66  1  0
 70 68  2  0
 71 72  1  0
 72 73  2  0
 74 77  1  0
 74 73  1  0
 75 74  2  0
 76 75  1  0
 76 71  2  0
 77 78  1  0
 78 79  1  0
 79 80  2  0
 81 80  1  0
 81 85  1  0
 82 81  2  0
 83 78  2  0
 83 82  1  0
 84 83  1  0
 86 87  1  0
 87 90  1  0
 87 89  1  0
 88 86  2  0
 91 66  1  0
 91 92  1  0
 93 91  1  0
M  ISO  4  13 101  14 101  56 100  64 100
M  END
>  <TORSDO>  (13) 
F 19

>  <SCORE>  (13) 
-14.364

>  <name>  (13) 
12

>  <ligand_id>  (13) 
12

>  <original_smiles>  (13) 
[H]c1c([H])c([H])c2c(c1[H])C([H])([H])C([H])([H])C([H])([H])C2([H])N([H])C(=O)C1([H])N(C(=O)C([H])(N([H])C(=O)C([H])(N([H])C([H])([H])[H])C([H])([H])[H])C(C([H])([H])[H])(C([H])([H])[H])C([H])([H])[H])C([H])([H])c2c([H])c(OC([H])([H])C(=O)C(=O)N([H])c3nc(C([H])([H])N([H])C(=O)N4C([H])([H])C([H])([H])C([H])([H])C([H])(n5nc(-c6c([H])c([H])c(Oc7c([H])c([H])c(F)c([H])c7F)c([H])c6[H])c(C(=O)N([H])[H])c5N([H])[H])C4([H])[H])c(F)s3)c([H])c([H])c2C1([H])[H]

>  <smiles>  (13) 
[H]c1c([H])c([H])c2c(c1[H])C([H])([H])C([H])([H])C([H])([H])C2([H])N([H])C(=O)C1([H])N(C(=O)C([H])(N([H])C(=O)C([H])(N([H])C([H])([H])[H])C([H])([H])[H])C(C([H])([H])[H])(C([H])([H])[H])C([H])([H])[H])C([H])([H])c2c([H])c(OC([H])([H])C(=O)C(=O)N([H])c3nc(C([H])([H])N([H])C(=O)N4C([H])([H])C([H])([H])C([H])([H])C([H])(n5nc(-c6c([H])c([H])c(Oc7c([H])c([H])c(F)c([H])c7F)c([H])c6[H])c(C(=O)N([H])[H])c5N([H])[H])C4([H])[H])c(F)s3)c([H])c([H])c2C1([H])[H]

$$$$
13:0:0
     RDKit          3D

 93101  0  0  1  0  0  0  0  0999 V2000
  -29.2510  -21.6930   20.2710 C   0  0  0  0  0  0  0  0  0  0  0  0
  -30.1170  -20.8210   19.7220 N   0  0  0  0  0  0  0  0  0  0  0  0
  -28.3170  -21.4060   21.0290 O   0  0  0  0  0  0  0  0  0  0  0  0
  -30.8050  -21.3020   19.1530 H   0  0  0  0  0  0  0  0  0  0  0  0
  -30.6600  -14.5200   20.2670 C   0  0  0  0  0  0  0  0  0  0  0  0
  -30.3400  -12.3420   19.1890 C   0  0  0  0  0  2  0  0  0  0  0  0
  -29.3830  -12.5600   17.9980 C   0  0  0  0  0  2  0  0  0  0  0  0
  -27.9180  -12.4120   18.4510 C   0  0  0  0  0  2  0  0  0  0  0  0
  -27.5980  -13.2510   19.7180 C   0  0  0  0  0  3  0  0  0  0  0  0
  -28.6730  -13.0480   20.8110 C   0  0  0  0  0  2  0  0  0  0  0  0
  -29.9850  -13.3390   20.2110 N   0  0  0  0  0  0  0  0  0  0  0  0
  -31.8420  -14.6030   19.9240 O   0  0  0  0  0  0  0  0  0  0  0  0
  -31.3290  -18.7710   19.3200 C   0  0  0  0  0  0  0  0  0  0  0  0
  -30.2490  -19.4660   19.8200 C   0  0  0  0  0  0  0  0  0  0  0  0
  -30.1820  -16.9870   20.1840 C   0  0  0  0  0  0  0  0  0  0  0  0
  -32.5270  -19.3600   18.6280 C   0  0  0  0  0  1  0  0  0  0  0  0
  -31.2760  -17.3880   19.5260 N   0  0  0  0  0  0  0  0  0  0  0  0
  -29.8990  -15.6160   20.5080 N   0  0  0  0  0  0  0  0  0  0  0  0
  -29.1060  -18.3400   20.5620 S   0  0  0  0  0  0  0  0  0  0  0  0
  -28.9600  -15.4340   20.8270 H   0  0  0  0  0  0  0  0  0  0  0  0
  -25.2150  -13.8540   20.4700 C   0  0  0  0  0  0  0  0  0  0  0  0
  -24.1550  -13.0800   20.8530 C   0  0  0  0  0  0  0  0  0  0  0  0
  -24.6170  -11.7280   20.8160 C   0  0  0  0  0  0  0  0  0  0  0  0
  -26.2560  -12.9730   20.2200 N   0  0  0  0  0  0  0  0  0  0  0  0
  -25.9030  -11.6910   20.4880 N   0  0  0  0  0  0  0  0  0  0  0  0
  -23.8960  -10.4650   21.0140 C   0  0  0  0  0  0  0  0  0  0  0  0
  -24.3430   -9.4980   21.9430 C   0  0  0  0  0  3  0  0  0  0  0  0
  -23.6240   -8.2980   22.1280 C   0  0  0  0  0  3  0  0  0  0  0  0
  -22.4430   -8.0570   21.3870 C   0  0  0  0  0  0  0  0  0  0  0  0
  -22.0150   -9.0120   20.4480 C   0  0  0  0  0  3  0  0  0  0  0  0
  -22.7350  -10.2020   20.2600 C   0  0  0  0  0  3  0  0  0  0  0  0
  -21.6920   -6.9100   21.4840 O   0  0  0  0  0  0  0  0  0  0  0  0
  -21.6610   -6.1660   22.6360 C   0  0  0  0  0  0  0  0  0  0  0  0
  -21.2460   -6.7160   23.8670 C   0  0  0  0  0  3  0  0  0  0  0  0
  -21.1610   -5.8980   25.0120 C   0  0  0  0  0  3  0  0  0  0  0  0
  -21.4830   -4.5300   24.9260 C   0  0  0  0  0  0  0  0  0  0  0  0
  -21.8900   -3.9790   23.6980 C   0  0  0  0  0  3  0  0  0  0  0  0
  -21.9760   -4.7940   22.5560 C   0  0  0  0  0  0  0  0  0  0  0  0
  -22.3500   -4.2540   21.3710 F   0  0  0  0  0  0  0  0  0  0  0  0
  -21.3940   -3.7430   26.0220 F   0  0  0  0  0  0  0  0  0  0  0  0
  -22.7600  -13.5520   21.1470 C   0  0  0  0  0  0  0  0  0  0  0  0
  -22.0460  -12.8470   22.0170 N   0  0  0  0  0  0  0  0  0  0  0  0
  -22.3140  -14.5820   20.6400 O   0  0  0  0  0  0  0  0  0  0  0  0
  -22.4200  -12.0100   22.4380 H   0  0  0  0  0  0  0  0  0  0  0  0
  -21.1100  -13.1400   22.2590 H   0  0  0  0  0  0  0  0  0  0  0  0
  -25.3820  -15.2240   20.2920 N   0  0  0  0  0  0  0  0  0  0  0  0
  -24.6210  -15.8820   20.4080 H   0  0  0  0  0  0  0  0  0  0  0  0
  -26.2220  -15.6530   19.9260 H   0  0  0  0  0  0  0  0  0  0  0  0
  -29.5970  -23.1490   19.8180 C   0  0  0  0  0  0  0  0  0  0  0  0
  -30.4900  -23.3520   18.9820 O   0  0  0  0  0  0  0  0  0  0  0  0
  -28.8520  -24.3370   20.4590 C   0  0  0  0  0  2  0  0  0  0  0  0
  -28.6530  -25.5350   19.4790 C   0  0  0  0  0  2  0  0  0  0  0  0
  -28.4380  -26.7680   20.1900 O   0  0  0  0  0  0  0  0  0  0  0  0
  -24.5850  -31.8910   23.2540 C   0  0  0  0  0  0  0  0  0  0  0  0
  -27.2250  -27.4310   20.1780 C   0  0  0  0  0  0  0  0  0  0  0  0
  -23.3760  -30.4870   21.6140 C   0  0  0  0  0  3  0  0  0  0  0  0
  -24.8260  -28.9430   20.1980 C   0  0  0  0  0  0  0  0  0  0  0  0
  -25.9010  -30.8500   21.4060 C   0  0  0  0  0  2  0  0  0  0  0  0
  -25.9860  -29.4740   20.7720 C   0  0  0  0  0  0  0  0  0  0  0  0
  -27.1840  -28.7260   20.7490 C   0  0  0  0  0  3  0  0  0  0  0  0
  -26.0290  -26.8950   19.6470 C   0  0  0  0  0  3  0  0  0  0  0  0
  -24.8420  -27.6560   19.6390 C   0  0  0  0  0  3  0  0  0  0  0  0
  -23.5840  -29.8050   20.2370 C   0  0  0  0  0  2  0  0  0  0  0  0
  -24.6390  -31.0910   22.1520 N   0  0  0  0  0  0  0  0  0  0  0  0
  -23.5060  -32.1640   23.7950 O   0  0  0  0  0  0  0  0  0  0  0  0
  -22.7250  -29.4670   22.5800 C   0  0  0  0  0  0  0  0  0  0  0  0
  -21.4000  -29.2890   22.4610 N   0  0  0  0  0  0  0  0  0  0  0  0
  -23.4110  -28.8410   23.3920 O   0  0  0  0  0  0  0  0  0  0  0  0
  -20.9080  -29.8570   21.7850 H   0  0  0  0  0  0  0  0  0  0  0  0
  -18.0230  -28.0970   22.9570 C   0  0  0  0  0  0  0  0  0  0  0  0
  -20.5830  -28.3490   23.2290 C   0  0  0  0  0  3  0  0  0  0  0  0
  -20.6820  -26.9160   22.6530 C   0  0  0  0  0  2  0  0  0  0  0  0
  -19.5780  -26.5960   21.6410 C   0  0  0  0  0  2  0  0  0  0  0  0
  -18.1970  -26.7460   22.2820 C   0  0  0  0  0  2  0  0  0  0  0  0
  -19.1440  -28.8560   23.3860 C   0  0  0  0  0  0  0  0  0  0  0  0
  -18.9280  -30.1220   23.9730 C   0  0  0  0  0  3  0  0  0  0  0  0
  -17.6260  -30.6260   24.1400 C   0  0  0  0  0  3  0  0  0  0  0  0
  -16.5200  -29.8610   23.7300 C   0  0  0  0  0  3  0  0  0  0  0  0
  -16.7190  -28.6000   23.1400 C   0  0  0  0  0  3  0  0  0  0  0  0
  -25.8720  -32.5250   23.8710 C   0  0  0  0  0  3  0  0  0  0  0  0
  -26.3900  -31.7570   25.1480 C   0  0  1  0  0  0  0  0  0  0  0  0
  -25.2960  -31.5100   26.2130 C   0  0  0  0  0  1  0  0  0  0  0  0
  -26.9860  -30.3860   24.7500 C   0  0  0  0  0  1  0  0  0  0  0  0
  -27.5320  -32.5590   25.8200 C   0  0  0  0  0  1  0  0  0  0  0  0
  -25.5680  -33.9250   24.1970 N   0  0  0  0  0  0  0  0  0  0  0  0
  -25.8990  -34.9730   23.4310 C   0  0  0  0  0  0  0  0  0  0  0  0
  -26.5680  -34.8630   22.4010 O   0  0  0  0  0  0  0  0  0  0  0  0
  -24.9890  -34.0860   25.0070 H   0  0  0  0  0  0  0  0  0  0  0  0
  -24.1800  -36.7670   23.0560 C   0  0  0  0  0  1  0  0  0  0  0  0
  -25.4110  -36.3620   23.8810 C   0  0  0  0  0  3  0  0  0  0  0  0
  -27.5430  -37.2420   24.7240 C   0  0  0  0  0  1  0  0  0  0  0  0
  -26.4460  -37.4130   23.7770 N   0  0  0  0  0  0  0  0  0  0  0  0
  -26.0380  -38.3310   23.9290 H   0  0  0  0  0  0  0  0  0  0  0  0
  1  3  2  0
  2 14  1  0
  2  1  1  0
  4  2  1  0
  5 18  1  0
  6 11  1  0
  7  8  1  0
  7  6  1  0
  9  8  1  0
  9 24  1  0
  9 10  1  0
 11  5  1  0
 11 10  1  0
 12  5  2  0
 13 17  1  0
 13 14  2  0
 14 19  1  0
 15 18  1  0
 15 19  1  0
 16 13  1  0
 17 15  2  0
 18 20  1  0
 21 22  2  0
 22 41  1  0
 23 22  1  0
 23 26  1  0
 24 21  1  0
 24 25  1  0
 25 23  2  0
 26 27  1  0
 27 28  2  0
 29 32  1  0
 29 28  1  0
 30 29  2  0
 31 30  1  0
 31 26  2  0
 32 33  1  0
 33 34  1  0
 34 35  2  0
 36 35  1  0
 36 40  1  0
 37 36  2  0
 38 33  2  0
 38 37  1  0
 39 38  1  0
 41 42  1  0
 42 45  1  0
 42 44  1  0
 43 41  2  0
 46 47  1  0
 46 21  1  0
 48 46  1  0
 49  1  1  0
 49 51  1  0
 50 49  2  0
 52 53  1  0
 52 51  1  0
 54 65  2  0
 55 53  1  0
 55 60  1  0
 56 64  1  0
 56 66  1  0
 57 63  1  0
 57 59  1  0
 58 64  1  0
 59 58  1  0
 60 59  2  0
 61 55  2  0
 62 61  1  0
 62 57  2  0
 63 56  1  0
 64 54  1  0
 66 68  2  0
 67 66  1  0
 69 67  1  0
 70 79  2  0
 70 75  1  0
 71 67  1  0
 71 75  1  0
 72 71  1  0
 73 74  1  0
 73 72  1  0
 74 70  1  0
 75 76  2  0
 76 77  1  0
 78 77  2  0
 79 78  1  0
 80 54  1  0
 80 85  1  0
 80 81  1  0
 81 84  1  1
 81 82  1  0
 83 81  1  0
 85 88  1  0
 86 90  1  0
 86 85  1  0
 87 86  2  0
 90 89  1  0
 92 90  1  0
 92 93  1  0
 92 91  1  0
M  ISO  4   5 100  18 100  52 101  53 101
M  END
>  <TORSDO>  (14) 
F 19

>  <SCORE>  (14) 
-14.274

>  <name>  (14) 
13

>  <ligand_id>  (14) 
13

>  <original_smiles>  (14) 
[H]c1c([H])c([H])c2c(c1[H])C([H])([H])C([H])([H])C([H])([H])C2([H])N([H])C(=O)C1([H])N(C(=O)C([H])(N([H])C(=O)C([H])(N([H])C([H])([H])[H])C([H])([H])[H])C(C([H])([H])[H])(C([H])([H])[H])C([H])([H])[H])C([H])([H])c2c([H])c(OC([H])([H])C([H])([H])C(=O)C(=O)N([H])c3sc(N([H])C(=O)N4C([H])([H])C([H])([H])C([H])([H])C([H])(n5nc(-c6c([H])c([H])c(Oc7c([H])c([H])c(F)c([H])c7F)c([H])c6[H])c(C(=O)N([H])[H])c5N([H])[H])C4([H])[H])nc3C([H])([H])[H])c([H])c([H])c2C1([H])[H]

>  <smiles>  (14) 
[H]c1c([H])c([H])c2c(c1[H])C([H])([H])C([H])([H])C([H])([H])C2([H])N([H])C(=O)C1([H])N(C(=O)C([H])(N([H])C(=O)C([H])(N([H])C([H])([H])[H])C([H])([H])[H])C(C([H])([H])[H])(C([H])([H])[H])C([H])([H])[H])C([H])([H])c2c([H])c(OC([H])([H])C([H])([H])C(=O)C(=O)N([H])c3sc(N([H])C(=O)N4C([H])([H])C([H])([H])C([H])([H])C([H])(n5nc(-c6c([H])c([H])c(Oc7c([H])c([H])c(F)c([H])c7F)c([H])c6[H])c(C(=O)N([H])[H])c5N([H])[H])C4([H])[H])nc3C([H])([H])[H])c([H])c([H])c2C1([H])[H]

$$$$
14:0:0
     RDKit          3D

 94102  0  0  1  0  0  0  0  0999 V2000
  -29.2070  -21.3810   21.4700 C   0  0  0  0  0  0  0  0  0  0  0  0
  -30.2830  -20.6330   21.7790 N   0  0  0  0  0  0  0  0  0  0  0  0
  -28.4530  -21.1220   20.5250 O   0  0  0  0  0  0  0  0  0  0  0  0
  -30.9240  -21.0480   22.4410 H   0  0  0  0  0  0  0  0  0  0  0  0
  -31.8470  -17.4500   20.9110 C   0  0  0  0  0  3  0  0  0  0  0  0
  -31.8420  -18.8490   21.2070 C   0  0  0  0  0  0  0  0  0  0  0  0
  -30.6010  -16.8680   20.8850 C   0  0  0  0  0  0  0  0  0  0  0  0
  -30.5780  -19.3620   21.3870 C   0  0  0  0  0  0  0  0  0  0  0  0
  -33.0960  -19.6660   21.3230 C   0  0  0  0  0  1  0  0  0  0  0  0
  -29.3850  -18.0890   21.1870 S   0  0  0  0  0  0  0  0  0  0  0  0
  -30.9290  -14.5810   20.0800 C   0  0  0  0  0  0  0  0  0  0  0  0
  -30.5980  -12.4100   18.9450 C   0  0  0  0  0  2  0  0  0  0  0  0
  -29.6100  -12.5920   17.7740 C   0  0  0  0  0  2  0  0  0  0  0  0
  -28.1520  -12.4590   18.2600 C   0  0  0  0  0  2  0  0  0  0  0  0
  -27.8600  -13.3180   19.5190 C   0  0  0  0  0  3  0  0  0  0  0  0
  -28.9520  -13.1010   20.5910 C   0  0  0  0  0  2  0  0  0  0  0  0
  -30.2560  -13.4030   19.9750 N   0  0  0  0  0  0  0  0  0  0  0  0
  -32.0220  -14.7750   19.5350 O   0  0  0  0  0  0  0  0  0  0  0  0
  -30.2510  -15.5610   20.7070 N   0  0  0  0  0  0  0  0  0  0  0  0
  -29.3220  -15.3040   21.0070 H   0  0  0  0  0  0  0  0  0  0  0  0
  -25.5000  -13.9490   20.3310 C   0  0  0  0  0  0  0  0  0  0  0  0
  -24.4380  -13.1860   20.7350 C   0  0  0  0  0  0  0  0  0  0  0  0
  -24.8780  -11.8280   20.6680 C   0  0  0  0  0  0  0  0  0  0  0  0
  -26.5230  -13.0570   20.0470 N   0  0  0  0  0  0  0  0  0  0  0  0
  -26.1540  -11.7760   20.3050 N   0  0  0  0  0  0  0  0  0  0  0  0
  -24.1450  -10.5730   20.8710 C   0  0  0  0  0  0  0  0  0  0  0  0
  -24.5520   -9.6270   21.8380 C   0  0  0  0  0  3  0  0  0  0  0  0
  -23.8200   -8.4360   22.0280 C   0  0  0  0  0  3  0  0  0  0  0  0
  -22.6660   -8.1810   21.2480 C   0  0  0  0  0  0  0  0  0  0  0  0
  -22.2780   -9.1140   20.2710 C   0  0  0  0  0  3  0  0  0  0  0  0
  -23.0110  -10.2970   20.0810 C   0  0  0  0  0  3  0  0  0  0  0  0
  -21.9080   -7.0390   21.3450 O   0  0  0  0  0  0  0  0  0  0  0  0
  -21.7600   -6.3710   22.5340 C   0  0  0  0  0  0  0  0  0  0  0  0
  -21.2100   -6.9950   23.6760 C   0  0  0  0  0  3  0  0  0  0  0  0
  -21.0120   -6.2520   24.8570 C   0  0  0  0  0  3  0  0  0  0  0  0
  -21.3550   -4.8870   24.8960 C   0  0  0  0  0  0  0  0  0  0  0  0
  -21.8970   -4.2640   23.7590 C   0  0  0  0  0  3  0  0  0  0  0  0
  -22.0960   -5.0030   22.5800 C   0  0  0  0  0  0  0  0  0  0  0  0
  -22.6000   -4.3930   21.4810 F   0  0  0  0  0  0  0  0  0  0  0  0
  -21.1570   -4.1710   26.0270 F   0  0  0  0  0  0  0  0  0  0  0  0
  -23.0590  -13.6760   21.0720 C   0  0  0  0  0  0  0  0  0  0  0  0
  -22.3580  -12.9750   21.9560 N   0  0  0  0  0  0  0  0  0  0  0  0
  -22.6140  -14.7160   20.5880 O   0  0  0  0  0  0  0  0  0  0  0  0
  -22.7320  -12.1340   22.3700 H   0  0  0  0  0  0  0  0  0  0  0  0
  -21.4350  -13.2850   22.2240 H   0  0  0  0  0  0  0  0  0  0  0  0
  -25.6760  -15.3200   20.1630 N   0  0  0  0  0  0  0  0  0  0  0  0
  -24.9180  -15.9790   20.3020 H   0  0  0  0  0  0  0  0  0  0  0  0
  -26.5120  -15.7500   19.7900 H   0  0  0  0  0  0  0  0  0  0  0  0
  -28.9360  -22.6020   22.3770 C   0  0  0  0  0  3  0  0  0  0  0  0
  -27.6190  -22.7460   22.5480 F   0  0  0  0  0  0  0  0  0  0  0  0
  -29.5510  -23.9630   21.9550 C   0  0  0  0  0  2  0  0  0  0  0  0
  -28.8440  -24.7490   20.8240 C   0  0  0  0  0  2  0  0  0  0  0  0
  -29.2200  -26.2500   20.8310 C   0  0  0  0  0  2  0  0  0  0  0  0
  -28.7280  -26.9170   19.6690 O   0  0  0  0  0  0  0  0  0  0  0  0
  -24.7140  -31.7400   23.1010 C   0  0  0  0  0  0  0  0  0  0  0  0
  -27.5350  -27.5840   19.8020 C   0  0  0  0  0  0  0  0  0  0  0  0
  -23.5580  -30.3630   21.4000 C   0  0  0  0  0  3  0  0  0  0  0  0
  -25.0710  -28.9580   19.9020 C   0  0  0  0  0  0  0  0  0  0  0  0
  -26.0610  -30.8480   21.2050 C   0  0  0  0  0  2  0  0  0  0  0  0
  -26.2060  -29.5100   20.5120 C   0  0  0  0  0  0  0  0  0  0  0  0
  -27.4410  -28.8260   20.4690 C   0  0  0  0  0  3  0  0  0  0  0  0
  -26.3910  -27.0440   19.1850 C   0  0  0  0  0  3  0  0  0  0  0  0
  -25.1560  -27.7190   19.2400 C   0  0  0  0  0  3  0  0  0  0  0  0
  -23.7880  -29.7550   19.9890 C   0  0  0  0  0  2  0  0  0  0  0  0
  -24.7950  -30.9980   21.9600 N   0  0  0  0  0  0  0  0  0  0  0  0
  -23.6260  -31.9360   23.6610 O   0  0  0  0  0  0  0  0  0  0  0  0
  -22.9630  -29.2690   22.3150 C   0  0  0  0  0  0  0  0  0  0  0  0
  -21.6470  -29.0310   22.1880 N   0  0  0  0  0  0  0  0  0  0  0  0
  -23.6820  -28.6400   23.0960 O   0  0  0  0  0  0  0  0  0  0  0  0
  -21.1260  -29.5960   21.5310 H   0  0  0  0  0  0  0  0  0  0  0  0
  -18.3330  -27.6730   22.6560 C   0  0  0  0  0  0  0  0  0  0  0  0
  -20.8810  -28.0230   22.9180 C   0  0  0  0  0  3  0  0  0  0  0  0
  -21.0360  -26.6290   22.2670 C   0  0  0  0  0  2  0  0  0  0  0  0
  -19.9370  -26.3130   21.2480 C   0  0  0  0  0  2  0  0  0  0  0  0
  -18.5580  -26.3680   21.9110 C   0  0  0  0  0  2  0  0  0  0  0  0
  -19.4240  -28.4580   23.1140 C   0  0  0  0  0  0  0  0  0  0  0  0
  -19.1600  -29.6810   23.7700 C   0  0  0  0  0  3  0  0  0  0  0  0
  -17.8380  -30.1190   23.9710 C   0  0  0  0  0  3  0  0  0  0  0  0
  -16.7620  -29.3290   23.5300 C   0  0  0  0  0  3  0  0  0  0  0  0
  -17.0100  -28.1090   22.8770 C   0  0  0  0  0  3  0  0  0  0  0  0
  -25.9760  -32.3980   23.7420 C   0  0  0  0  0  3  0  0  0  0  0  0
  -25.6210  -33.7770   24.1010 N   0  0  0  0  0  0  0  0  0  0  0  0
  -25.9200  -34.8560   23.3640 C   0  0  0  0  0  0  0  0  0  0  0  0
  -26.5930  -34.7960   22.3310 O   0  0  0  0  0  0  0  0  0  0  0  0
  -25.0210  -33.8950   24.9050 H   0  0  0  0  0  0  0  0  0  0  0  0
  -24.1310  -36.5930   23.0440 C   0  0  0  0  0  1  0  0  0  0  0  0
  -25.3850  -36.2160   23.8490 C   0  0  0  0  0  3  0  0  0  0  0  0
  -27.4840  -37.1590   24.7020 C   0  0  0  0  0  1  0  0  0  0  0  0
  -26.3800  -37.3050   23.7580 N   0  0  0  0  0  0  0  0  0  0  0  0
  -25.9420  -38.2080   23.9190 H   0  0  0  0  0  0  0  0  0  0  0  0
  -26.5170  -31.6130   25.0000 C   0  0  1  0  0  0  0  0  0  0  0  0
  -25.4310  -31.3130   26.0580 C   0  0  0  0  0  1  0  0  0  0  0  0
  -27.1460  -30.2660   24.5730 C   0  0  0  0  0  1  0  0  0  0  0  0
  -27.6400  -32.4280   25.6830 C   0  0  0  0  0  1  0  0  0  0  0  0
  1  2  1  0
  1 49  1  0
  2  4  1  0
  3  1  2  0
  5  6  1  0
  6  9  1  0
  6  8  2  0
  7  5  2  0
  7 10  1  0
  8  2  1  0
 10  8  1  0
 11 19  1  0
 12 17  1  0
 13 14  1  0
 13 12  1  0
 15 14  1  0
 15 24  1  0
 15 16  1  0
 17 11  1  0
 17 16  1  0
 18 11  2  0
 19  7  1  0
 19 20  1  0
 21 22  2  0
 22 41  1  0
 23 22  1  0
 23 26  1  0
 24 25  1  0
 24 21  1  0
 25 23  2  0
 26 27  1  0
 27 28  2  0
 29 32  1  0
 29 28  1  0
 30 29  2  0
 31 30  1  0
 31 26  2  0
 32 33  1  0
 33 38  2  0
 33 34  1  0
 34 35  2  0
 35 36  1  0
 36 40  1  0
 37 36  2  0
 38 37  1  0
 39 38  1  0
 41 42  1  0
 42 45  1  0
 42 44  1  0
 43 41  2  0
 46 47  1  0
 46 21  1  0
 48 46  1  0
 49 50  1  0
 51 49  1  0
 52 53  1  0
 52 51  1  0
 54 56  1  0
 54 53  1  0
 55 66  2  0
 56 61  1  0
 57 65  1  0
 57 67  1  0
 58 64  1  0
 58 60  1  0
 59 65  1  0
 60 59  1  0
 61 60  2  0
 62 63  1  0
 62 56  2  0
 63 58  2  0
 64 57  1  0
 65 55  1  0
 67 69  2  0
 68 67  1  0
 70 68  1  0
 71 80  2  0
 71 76  1  0
 72 68  1  0
 72 76  1  0
 73 72  1  0
 74 75  1  0
 74 73  1  0
 75 71  1  0
 76 77  2  0
 77 78  1  0
 79 78  2  0
 80 79  1  0
 81 55  1  0
 81 82  1  0
 81 91  1  0
 82 85  1  0
 83 87  1  0
 83 82  1  0
 84 83  2  0
 87 86  1  0
 89 87  1  0
 89 90  1  0
 89 88  1  0
 91 94  1  1
 91 92  1  0
 93 91  1  0
M  ISO  4  11 100  19 100  53 101  54 101
M  END
>  <TORSDO>  (15) 
F 21

>  <SCORE>  (15) 
-12.747

>  <name>  (15) 
14

>  <ligand_id>  (15) 
14

>  <original_smiles>  (15) 
[H]c1c([H])c([H])c2c(c1[H])C([H])([H])C([H])([H])C([H])([H])C2([H])N([H])C(=O)C1([H])N(C(=O)C([H])(N([H])C(=O)C([H])(N([H])C([H])([H])[H])C([H])([H])[H])C(C([H])([H])[H])(C([H])([H])[H])C([H])([H])[H])C([H])([H])c2c([H])c(OC([H])([H])C([H])([H])C([H])([H])C([H])(F)C(=O)N([H])c3sc(N([H])C(=O)N4C([H])([H])C([H])([H])C([H])([H])C([H])(n5nc(-c6c([H])c([H])c(Oc7c([H])c([H])c(F)c([H])c7F)c([H])c6[H])c(C(=O)N([H])[H])c5N([H])[H])C4([H])[H])c([H])c3C([H])([H])[H])c([H])c([H])c2C1([H])[H]

>  <smiles>  (15) 
[H]c1c([H])c([H])c2c(c1[H])C([H])([H])C([H])([H])C([H])([H])C2([H])N([H])C(=O)C1([H])N(C(=O)C([H])(N([H])C(=O)C([H])(N([H])C([H])([H])[H])C([H])([H])[H])C(C([H])([H])[H])(C([H])([H])[H])C([H])([H])[H])C([H])([H])c2c([H])c(OC([H])([H])C([H])([H])C([H])([H])C([H])(F)C(=O)N([H])c3sc(N([H])C(=O)N4C([H])([H])C([H])([H])C([H])([H])C([H])(n5nc(-c6c([H])c([H])c(Oc7c([H])c([H])c(F)c([H])c7F)c([H])c6[H])c(C(=O)N([H])[H])c5N([H])[H])C4([H])[H])c([H])c3C([H])([H])[H])c([H])c([H])c2C1([H])[H]

$$$$
15:0:0
     RDKit          3D

 94102  0  0  1  0  0  0  0  0999 V2000
  -28.4250  -21.5520   20.4190 C   0  0  0  0  0  0  0  0  0  0  0  0
  -29.2540  -20.5050   20.6770 N   0  0  0  0  0  0  0  0  0  0  0  0
  -27.3360  -21.4880   19.8410 O   0  0  0  0  0  0  0  0  0  0  0  0
  -30.0090  -20.7550   21.3020 H   0  0  0  0  0  0  0  0  0  0  0  0
  -30.8020  -14.6720   20.5240 C   0  0  0  0  0  0  0  0  0  0  0  0
  -30.5410  -12.5110   19.3660 C   0  0  0  0  0  2  0  0  0  0  0  0
  -29.6120  -12.7220   18.1540 C   0  0  0  0  0  2  0  0  0  0  0  0
  -28.1310  -12.5740   18.5640 C   0  0  0  0  0  2  0  0  0  0  0  0
  -27.7720  -13.3830   19.8380 C   0  0  0  0  0  3  0  0  0  0  0  0
  -28.8210  -13.1630   20.9570 C   0  0  0  0  0  2  0  0  0  0  0  0
  -30.1530  -13.4760   20.4110 N   0  0  0  0  0  0  0  0  0  0  0  0
  -31.9050  -14.8730   20.0110 O   0  0  0  0  0  0  0  0  0  0  0  0
  -28.7450  -18.6340   19.0540 C   0  0  0  0  0  0  0  0  0  0  0  0
  -29.2250  -19.1230   20.2630 C   0  0  0  0  0  0  0  0  0  0  0  0
  -29.7670  -16.8870   20.4910 C   0  0  0  0  0  0  0  0  0  0  0  0
  -29.7870  -18.1040   21.0750 N   0  0  0  0  0  0  0  0  0  0  0  0
  -30.1360  -15.6700   21.1470 N   0  0  0  0  0  0  0  0  0  0  0  0
  -29.0640  -16.9190   18.8840 S   0  0  0  0  0  0  0  0  0  0  0  0
  -29.4290  -15.3410   21.7850 H   0  0  0  0  0  0  0  0  0  0  0  0
  -25.3590  -13.9730   20.5130 C   0  0  0  0  0  0  0  0  0  0  0  0
  -24.2890  -13.1960   20.8680 C   0  0  0  0  0  0  0  0  0  0  0  0
  -24.7550  -11.8450   20.8420 C   0  0  0  0  0  0  0  0  0  0  0  0
  -26.4130  -13.0960   20.2940 N   0  0  0  0  0  0  0  0  0  0  0  0
  -26.0510  -11.8130   20.5480 N   0  0  0  0  0  0  0  0  0  0  0  0
  -24.0320  -10.5810   21.0260 C   0  0  0  0  0  0  0  0  0  0  0  0
  -24.4460   -9.6220   21.9750 C   0  0  0  0  0  3  0  0  0  0  0  0
  -23.7220   -8.4220   22.1460 C   0  0  0  0  0  3  0  0  0  0  0  0
  -22.5680   -8.1710   21.3670 C   0  0  0  0  0  0  0  0  0  0  0  0
  -22.1700   -9.1210   20.4100 C   0  0  0  0  0  3  0  0  0  0  0  0
  -22.8940  -10.3120   20.2350 C   0  0  0  0  0  3  0  0  0  0  0  0
  -21.8190   -7.0210   21.4440 O   0  0  0  0  0  0  0  0  0  0  0  0
  -21.7410   -6.2910   22.6050 C   0  0  0  0  0  0  0  0  0  0  0  0
  -21.2330   -6.8460   23.8000 C   0  0  0  0  0  3  0  0  0  0  0  0
  -21.1050   -6.0410   24.9510 C   0  0  0  0  0  3  0  0  0  0  0  0
  -21.4710   -4.6820   24.9050 C   0  0  0  0  0  0  0  0  0  0  0  0
  -21.9710   -4.1280   23.7140 C   0  0  0  0  0  3  0  0  0  0  0  0
  -22.1040   -4.9310   22.5680 C   0  0  0  0  0  0  0  0  0  0  0  0
  -22.5660   -4.3850   21.4170 F   0  0  0  0  0  0  0  0  0  0  0  0
  -21.3420   -3.9070   26.0080 F   0  0  0  0  0  0  0  0  0  0  0  0
  -22.8860  -13.6710   21.1190 C   0  0  0  0  0  0  0  0  0  0  0  0
  -22.1420  -12.9760   21.9720 N   0  0  0  0  0  0  0  0  0  0  0  0
  -22.4540  -14.6950   20.5900 O   0  0  0  0  0  0  0  0  0  0  0  0
  -22.4970  -12.1480   22.4290 H   0  0  0  0  0  0  0  0  0  0  0  0
  -21.2030  -13.2860   22.1740 H   0  0  0  0  0  0  0  0  0  0  0  0
  -25.5160  -15.3460   20.3420 N   0  0  0  0  0  0  0  0  0  0  0  0
  -24.7380  -15.9860   20.4590 H   0  0  0  0  0  0  0  0  0  0  0  0
  -26.3570  -15.8060   20.0210 H   0  0  0  0  0  0  0  0  0  0  0  0
  -26.5100  -19.1620   18.0140 C   0  0  0  0  0  1  0  0  0  0  0  0
  -28.0390  -19.2900   17.9070 C   0  0  0  0  0  2  0  0  0  0  0  0
  -28.9390  -22.9180   21.0020 C   0  0  0  0  0  0  0  0  0  0  0  0
  -29.6060  -22.9500   22.0440 O   0  0  0  0  0  0  0  0  0  0  0  0
  -28.6170  -24.2260   20.2200 C   0  0  0  0  0  2  0  0  0  0  0  0
  -28.4010  -25.5100   21.0860 C   0  0  0  0  0  2  0  0  0  0  0  0
  -28.5030  -26.7640   20.3560 O   0  0  0  0  0  0  0  0  0  0  0  0
  -24.6320  -32.0070   23.2800 C   0  0  0  0  0  0  0  0  0  0  0  0
  -27.3540  -27.5290   20.3110 C   0  0  0  0  0  0  0  0  0  0  0  0
  -23.4700  -30.5770   21.6300 C   0  0  0  0  0  3  0  0  0  0  0  0
  -24.9620  -29.0370   20.2440 C   0  0  0  0  0  0  0  0  0  0  0  0
  -25.9950  -30.9550   21.4700 C   0  0  0  0  0  2  0  0  0  0  0  0
  -26.1060  -29.5750   20.8480 C   0  0  0  0  0  0  0  0  0  0  0  0
  -27.3110  -28.8290   20.8720 C   0  0  0  0  0  3  0  0  0  0  0  0
  -26.1990  -27.0120   19.6930 C   0  0  0  0  0  3  0  0  0  0  0  0
  -25.0060  -27.7610   19.6570 C   0  0  0  0  0  3  0  0  0  0  0  0
  -23.7100  -29.8860   20.2610 C   0  0  0  0  0  2  0  0  0  0  0  0
  -24.7160  -31.1960   22.1860 N   0  0  0  0  0  0  0  0  0  0  0  0
  -23.5380  -32.2750   23.7970 O   0  0  0  0  0  0  0  0  0  0  0  0
  -22.8100  -29.5610   22.5900 C   0  0  0  0  0  0  0  0  0  0  0  0
  -21.4920  -29.3590   22.4320 N   0  0  0  0  0  0  0  0  0  0  0  0
  -23.4820  -28.9600   23.4310 O   0  0  0  0  0  0  0  0  0  0  0  0
  -21.0160  -29.8940   21.7190 H   0  0  0  0  0  0  0  0  0  0  0  0
  -18.1210  -28.1210   22.8560 C   0  0  0  0  0  0  0  0  0  0  0  0
  -20.6680  -28.4190   23.1920 C   0  0  0  0  0  3  0  0  0  0  0  0
  -20.8070  -26.9840   22.6350 C   0  0  0  0  0  2  0  0  0  0  0  0
  -19.7350  -26.6310   21.5980 C   0  0  0  0  0  2  0  0  0  0  0  0
  -18.3360  -26.7640   22.2030 C   0  0  0  0  0  2  0  0  0  0  0  0
  -19.2180  -28.9030   23.3060 C   0  0  0  0  0  0  0  0  0  0  0  0
  -18.9640  -30.1690   23.8740 C   0  0  0  0  0  3  0  0  0  0  0  0
  -17.6490  -30.6540   24.0000 C   0  0  0  0  0  3  0  0  0  0  0  0
  -16.5670  -29.8670   23.5700 C   0  0  0  0  0  3  0  0  0  0  0  0
  -16.8040  -28.6030   23.0020 C   0  0  0  0  0  3  0  0  0  0  0  0
  -25.9020  -32.6550   23.9170 C   0  0  0  0  0  3  0  0  0  0  0  0
  -26.4000  -31.9010   25.2100 C   0  0  1  0  0  0  0  0  0  0  0  0
  -25.2850  -31.6480   26.2520 C   0  0  0  0  0  1  0  0  0  0  0  0
  -27.0160  -30.5330   24.8360 C   0  0  0  0  0  1  0  0  0  0  0  0
  -27.5220  -32.7180   25.8940 C   0  0  0  0  0  1  0  0  0  0  0  0
  -25.5760  -34.0540   24.2280 N   0  0  0  0  0  0  0  0  0  0  0  0
  -25.9090  -35.1010   23.4620 C   0  0  0  0  0  0  0  0  0  0  0  0
  -26.5940  -34.9920   22.4400 O   0  0  0  0  0  0  0  0  0  0  0  0
  -24.9710  -34.2130   25.0190 H   0  0  0  0  0  0  0  0  0  0  0  0
  -24.1790  -36.8760   23.0520 C   0  0  0  0  0  1  0  0  0  0  0  0
  -25.4040  -36.4890   23.8960 C   0  0  0  0  0  3  0  0  0  0  0  0
  -27.5080  -37.3960   24.7770 C   0  0  0  0  0  1  0  0  0  0  0  0
  -26.4320  -37.5480   23.8000 N   0  0  0  0  0  0  0  0  0  0  0  0
  -26.0190  -38.4670   23.9240 H   0  0  0  0  0  0  0  0  0  0  0  0
  1  2  1  0
  1 50  1  0
  2  4  1  0
  3  1  2  0
  5 17  1  0
  6 11  1  0
  7  8  1  0
  7  6  1  0
  9  8  1  0
  9 23  1  0
  9 10  1  0
 11  5  1  0
 11 10  1  0
 12  5  2  0
 13 14  2  0
 14  2  1  0
 14 16  1  0
 15 16  2  0
 15 17  1  0
 17 19  1  0
 18 13  1  0
 18 15  1  0
 20 21  2  0
 21 40  1  0
 22 21  1  0
 22 25  1  0
 23 20  1  0
 23 24  1  0
 24 22  2  0
 25 26  1  0
 26 27  2  0
 28 31  1  0
 28 27  1  0
 29 28  2  0
 30 29  1  0
 30 25  2  0
 31 32  1  0
 32 33  1  0
 33 34  2  0
 35 34  1  0
 35 39  1  0
 36 35  2  0
 37 32  2  0
 37 36  1  0
 38 37  1  0
 40 41  1  0
 41 44  1  0
 41 43  1  0
 42 40  2  0
 45 46  1  0
 45 20  1  0
 47 45  1  0
 49 48  1  0
 49 13  1  0
 50 51  2  0
 52 50  1  0
 52 53  1  0
 54 53  1  0
 55 66  2  0
 56 54  1  0
 56 61  1  0
 57 65  1  0
 57 67  1  0
 58 64  1  0
 58 60  1  0
 59 65  1  0
 60 61  2  0
 60 59  1  0
 62 56  2  0
 63 62  1  0
 63 58  2  0
 64 57  1  0
 65 55  1  0
 67 69  2  0
 68 67  1  0
 70 68  1  0
 71 80  2  0
 71 76  1  0
 72 68  1  0
 72 76  1  0
 73 72  1  0
 74 75  1  0
 74 73  1  0
 75 71  1  0
 76 77  2  0
 77 78  1  0
 79 78  2  0
 80 79  1  0
 81 55  1  0
 81 86  1  0
 81 82  1  0
 82 85  1  1
 82 83  1  0
 84 82  1  0
 86 89  1  0
 87 91  1  0
 87 86  1  0
 88 87  2  0
 91 90  1  0
 93 91  1  0
 93 94  1  0
 93 92  1  0
M  ISO  4   5 100  17 100  53 101  54 101
M  END
>  <TORSDO>  (16) 
F 20

>  <SCORE>  (16) 
-13.716

>  <name>  (16) 
15

>  <ligand_id>  (16) 
15

>  <original_smiles>  (16) 
[H]c1c([H])c([H])c2c(c1[H])C([H])([H])C([H])([H])C([H])([H])C2([H])N([H])C(=O)C1([H])N(C(=O)C([H])(N([H])C(=O)C([H])(N([H])C([H])([H])[H])C([H])([H])[H])C(C([H])([H])[H])(C([H])([H])[H])C([H])([H])[H])C([H])([H])c2c([H])c(OC([H])([H])C([H])([H])C(=O)C(=O)N([H])c3nc(N([H])C(=O)N4C([H])([H])C([H])([H])C([H])([H])C([H])(n5nc(-c6c([H])c([H])c(Oc7c([H])c([H])c(F)c([H])c7F)c([H])c6[H])c(C(=O)N([H])[H])c5N([H])[H])C4([H])[H])sc3C([H])([H])C([H])([H])[H])c([H])c([H])c2C1([H])[H]

>  <smiles>  (16) 
[H]c1c([H])c([H])c2c(c1[H])C([H])([H])C([H])([H])C([H])([H])C2([H])N([H])C(=O)C1([H])N(C(=O)C([H])(N([H])C(=O)C([H])(N([H])C([H])([H])[H])C([H])([H])[H])C(C([H])([H])[H])(C([H])([H])[H])C([H])([H])[H])C([H])([H])c2c([H])c(OC([H])([H])C([H])([H])C(=O)C(=O)N([H])c3nc(N([H])C(=O)N4C([H])([H])C([H])([H])C([H])([H])C([H])(n5nc(-c6c([H])c([H])c(Oc7c([H])c([H])c(F)c([H])c7F)c([H])c6[H])c(C(=O)N([H])[H])c5N([H])[H])C4([H])[H])sc3C([H])([H])C([H])([H])[H])c([H])c([H])c2C1([H])[H]

$$$$
16:0:0
     RDKit          3D

 99107  0  0  1  0  0  0  0  0999 V2000
  -31.1920  -20.0420   20.1650 C   0  0  0  0  0  3  0  0  0  0  0  0
  -30.7810  -14.5160   20.4420 C   0  0  0  0  0  0  0  0  0  0  0  0
  -30.4480  -12.4240   19.1720 C   0  0  0  0  0  2  0  0  0  0  0  0
  -29.4830  -12.6770   17.9950 C   0  0  0  0  0  2  0  0  0  0  0  0
  -28.0170  -12.5220   18.4470 C   0  0  0  0  0  2  0  0  0  0  0  0
  -27.7060  -13.3180   19.7410 C   0  0  0  0  0  3  0  0  0  0  0  0
  -28.7730  -13.0330   20.8210 C   0  0  0  0  0  2  0  0  0  0  0  0
  -30.1010  -13.3520   20.2580 N   0  0  0  0  0  0  0  0  0  0  0  0
  -31.8120  -14.7980   19.8210 O   0  0  0  0  0  0  0  0  0  0  0  0
  -30.9910  -18.8790   21.1280 C   0  0  0  0  0  0  0  0  0  0  0  0
  -31.1210  -18.8990   22.5050 C   0  0  0  0  0  0  0  0  0  0  0  0
  -30.5720  -16.6810   21.6160 C   0  0  0  0  0  0  0  0  0  0  0  0
  -30.6270  -17.6070   20.6470 N   0  0  0  0  0  0  0  0  0  0  0  0
  -30.2610  -15.3230   21.3790 N   0  0  0  0  0  0  0  0  0  0  0  0
  -30.8150  -17.3350   23.2230 S   0  0  0  0  0  0  0  0  0  0  0  0
  -29.5680  -14.9070   21.9810 H   0  0  0  0  0  0  0  0  0  0  0  0
  -25.3080  -13.9150   20.4690 C   0  0  0  0  0  0  0  0  0  0  0  0
  -24.2480  -13.1330   20.8440 C   0  0  0  0  0  0  0  0  0  0  0  0
  -24.7150  -11.7860   20.8040 C   0  0  0  0  0  0  0  0  0  0  0  0
  -26.3560  -13.0400   20.2280 N   0  0  0  0  0  0  0  0  0  0  0  0
  -26.0030  -11.7550   20.4840 N   0  0  0  0  0  0  0  0  0  0  0  0
  -24.0000  -10.5170   20.9970 C   0  0  0  0  0  0  0  0  0  0  0  0
  -24.4400   -9.5570   21.9350 C   0  0  0  0  0  3  0  0  0  0  0  0
  -23.7250   -8.3530   22.1160 C   0  0  0  0  0  3  0  0  0  0  0  0
  -22.5560   -8.1010   21.3590 C   0  0  0  0  0  0  0  0  0  0  0  0
  -22.1360   -9.0490   20.4100 C   0  0  0  0  0  3  0  0  0  0  0  0
  -22.8520  -10.2440   20.2270 C   0  0  0  0  0  3  0  0  0  0  0  0
  -21.8140   -6.9490   21.4480 O   0  0  0  0  0  0  0  0  0  0  0  0
  -21.7550   -6.2190   22.6060 C   0  0  0  0  0  0  0  0  0  0  0  0
  -21.2790   -6.7720   23.8160 C   0  0  0  0  0  3  0  0  0  0  0  0
  -21.1740   -5.9660   24.9660 C   0  0  0  0  0  3  0  0  0  0  0  0
  -21.5330   -4.6050   24.9080 C   0  0  0  0  0  0  0  0  0  0  0  0
  -21.9980   -4.0510   23.7030 C   0  0  0  0  0  3  0  0  0  0  0  0
  -22.1080   -4.8560   22.5550 C   0  0  0  0  0  0  0  0  0  0  0  0
  -22.5390   -4.3120   21.3930 F   0  0  0  0  0  0  0  0  0  0  0  0
  -21.4230   -3.8270   26.0100 F   0  0  0  0  0  0  0  0  0  0  0  0
  -22.8520  -13.6010   21.1370 C   0  0  0  0  0  0  0  0  0  0  0  0
  -22.1370  -12.8930   22.0050 N   0  0  0  0  0  0  0  0  0  0  0  0
  -22.4030  -14.6280   20.6330 O   0  0  0  0  0  0  0  0  0  0  0  0
  -22.5150  -12.0620   22.4350 H   0  0  0  0  0  0  0  0  0  0  0  0
  -21.1990  -13.1860   22.2420 H   0  0  0  0  0  0  0  0  0  0  0  0
  -25.4600  -15.2870   20.2970 N   0  0  0  0  0  0  0  0  0  0  0  0
  -24.6820  -15.9280   20.4130 H   0  0  0  0  0  0  0  0  0  0  0  0
  -26.3090  -15.7410   19.9830 H   0  0  0  0  0  0  0  0  0  0  0  0
  -31.4480  -19.9610   23.3450 N   0  0  0  0  0  0  0  0  0  0  0  0
  -31.4750  -20.9270   23.0330 H   0  0  0  0  0  0  0  0  0  0  0  0
  -31.4410  -19.8850   24.3580 H   0  0  0  0  0  0  0  0  0  0  0  0
  -29.8360  -22.1040   20.6490 C   0  0  0  0  0  0  0  0  0  0  0  0
  -30.0140  -20.9170   20.0350 N   0  0  0  0  0  0  0  0  0  0  0  0
  -30.6680  -22.5590   21.4380 O   0  0  0  0  0  0  0  0  0  0  0  0
  -29.3060  -20.5880   19.3970 H   0  0  0  0  0  0  0  0  0  0  0  0
  -28.5180  -22.8680   20.4010 C   0  0  0  0  0  2  0  0  0  0  0  0
  -28.7280  -24.3240   19.9140 C   0  0  0  0  0  0  0  0  0  0  0  0
  -29.1800  -24.5590   18.7880 O   0  0  0  0  0  0  0  0  0  0  0  0
  -28.2910  -25.4660   20.8600 C   0  0  0  0  0  2  0  0  0  0  0  0
  -28.4210  -26.7770   20.2630 O   0  0  0  0  0  0  0  0  0  0  0  0
  -24.5900  -31.9770   23.2930 C   0  0  0  0  0  0  0  0  0  0  0  0
  -27.2600  -27.5220   20.2490 C   0  0  0  0  0  0  0  0  0  0  0  0
  -23.3920  -30.5490   21.6680 C   0  0  0  0  0  3  0  0  0  0  0  0
  -24.8550  -29.0160   20.2450 C   0  0  0  0  0  0  0  0  0  0  0  0
  -25.9150  -30.9300   21.4560 C   0  0  0  0  0  2  0  0  0  0  0  0
  -26.0110  -29.5550   20.8240 C   0  0  0  0  0  0  0  0  0  0  0  0
  -27.2200  -28.8190   20.8150 C   0  0  0  0  0  3  0  0  0  0  0  0
  -26.0890  -27.0020   19.6560 C   0  0  0  0  0  3  0  0  0  0  0  0
  -24.8900  -27.7410   19.6550 C   0  0  0  0  0  3  0  0  0  0  0  0
  -23.6010  -29.8600   20.2930 C   0  0  0  0  0  2  0  0  0  0  0  0
  -24.6500  -31.1680   22.1960 N   0  0  0  0  0  0  0  0  0  0  0  0
  -23.5080  -32.2430   23.8350 O   0  0  0  0  0  0  0  0  0  0  0  0
  -22.7560  -29.5290   22.6400 C   0  0  0  0  0  0  0  0  0  0  0  0
  -21.4360  -29.3180   22.5070 N   0  0  0  0  0  0  0  0  0  0  0  0
  -23.4460  -28.9290   23.4670 O   0  0  0  0  0  0  0  0  0  0  0  0
  -20.9390  -29.8540   21.8100 H   0  0  0  0  0  0  0  0  0  0  0  0
  -18.0820  -28.0620   22.9940 C   0  0  0  0  0  0  0  0  0  0  0  0
  -20.6320  -28.3750   23.2850 C   0  0  0  0  0  3  0  0  0  0  0  0
  -20.7690  -26.9390   22.7290 C   0  0  0  0  0  2  0  0  0  0  0  0
  -19.6820  -26.5790   21.7110 C   0  0  0  0  0  2  0  0  0  0  0  0
  -18.2910  -26.7070   22.3400 C   0  0  0  0  0  2  0  0  0  0  0  0
  -19.1820  -28.8540   23.4220 C   0  0  0  0  0  0  0  0  0  0  0  0
  -18.9330  -30.1210   23.9900 C   0  0  0  0  0  3  0  0  0  0  0  0
  -17.6180  -30.6000   24.1360 C   0  0  0  0  0  3  0  0  0  0  0  0
  -16.5320  -29.8070   23.7260 C   0  0  0  0  0  3  0  0  0  0  0  0
  -16.7650  -28.5400   23.1610 C   0  0  0  0  0  3  0  0  0  0  0  0
  -25.8720  -32.6250   23.9030 C   0  0  0  0  0  3  0  0  0  0  0  0
  -25.5550  -34.0270   24.2110 N   0  0  0  0  0  0  0  0  0  0  0  0
  -25.8950  -35.0700   23.4410 C   0  0  0  0  0  0  0  0  0  0  0  0
  -26.5790  -34.9550   22.4200 O   0  0  0  0  0  0  0  0  0  0  0  0
  -24.9490  -34.1900   25.0020 H   0  0  0  0  0  0  0  0  0  0  0  0
  -24.1780  -36.8580   23.0190 C   0  0  0  0  0  1  0  0  0  0  0  0
  -25.3940  -36.4620   23.8720 C   0  0  0  0  0  3  0  0  0  0  0  0
  -27.5040  -37.3510   24.7580 C   0  0  0  0  0  1  0  0  0  0  0  0
  -26.4290  -37.5140   23.7820 N   0  0  0  0  0  0  0  0  0  0  0  0
  -26.0190  -38.4350   23.9160 H   0  0  0  0  0  0  0  0  0  0  0  0
  -26.3960  -31.8750   25.1900 C   0  0  1  0  0  0  0  0  0  0  0  0
  -25.3070  -31.6440   26.2620 C   0  0  0  0  0  1  0  0  0  0  0  0
  -26.9900  -30.4970   24.8150 C   0  0  0  0  0  1  0  0  0  0  0  0
  -27.5410  -32.6880   25.8400 C   0  0  0  0  0  1  0  0  0  0  0  0
  -31.6840  -19.5890   18.7740 C   0  0  0  0  0  3  0  0  0  0  0  0
  -32.2200  -20.6160   18.1140 F   0  0  0  0  0  0  0  0  0  0  0  0
  -30.6950  -19.0760   18.0390 F   0  0  0  0  0  0  0  0  0  0  0  0
  1 97  1  0
  1 10  1  0
  2 14  1  0
  3  8  1  0
  4  5  1  0
  4  3  1  0
  6  5  1  0
  6 20  1  0
  6  7  1  0
  8  2  1  0
  8  7  1  0
  9  2  2  0
 10 11  2  0
 11 15  1  0
 11 45  1  0
 12 15  1  0
 13 10  1  0
 13 12  2  0
 14 12  1  0
 14 16  1  0
 17 18  2  0
 18 37  1  0
 19 18  1  0
 19 22  1  0
 20 17  1  0
 20 21  1  0
 21 19  2  0
 22 23  1  0
 23 24  2  0
 25 28  1  0
 25 24  1  0
 26 25  2  0
 27 26  1  0
 27 22  2  0
 28 29  1  0
 29 30  1  0
 30 31  2  0
 32 31  1  0
 32 36  1  0
 33 32  2  0
 34 29  2  0
 34 33  1  0
 35 34  1  0
 37 38  1  0
 38 41  1  0
 38 40  1  0
 39 37  2  0
 42 43  1  0
 42 17  1  0
 44 42  1  0
 45 47  1  0
 46 45  1  0
 48 50  2  0
 49  1  1  0
 49 48  1  0
 51 49  1  0
 52 48  1  0
 53 52  1  0
 53 55  1  0
 54 53  2  0
 56 55  1  0
 57 68  2  0
 58 56  1  0
 58 63  1  0
 59 67  1  0
 59 69  1  0
 60 66  1  0
 60 62  1  0
 61 67  1  0
 62 61  1  0
 63 62  2  0
 64 58  2  0
 65 64  1  0
 65 60  2  0
 66 59  1  0
 67 57  1  0
 69 71  2  0
 70 69  1  0
 72 70  1  0
 73 82  2  0
 73 78  1  0
 74 70  1  0
 74 78  1  0
 75 74  1  0
 76 77  1  0
 76 75  1  0
 77 73  1  0
 78 79  2  0
 79 80  1  0
 81 80  2  0
 82 81  1  0
 83 57  1  0
 83 84  1  0
 83 93  1  0
 84 87  1  0
 85 89  1  0
 85 84  1  0
 86 85  2  0
 89 88  1  0
 91 89  1  0
 91 92  1  0
 91 90  1  0
 93 96  1  1
 93 94  1  0
 95 93  1  0
 98 97  1  0
 99 97  1  0
M  ISO  4   2 100  14 100  55 101  56 101
M  END
>  <TORSDO>  (17) 
F 22

>  <SCORE>  (17) 
-13.154

>  <name>  (17) 
16

>  <ligand_id>  (17) 
16

>  <original_smiles>  (17) 
[H]c1c([H])c([H])c2c(c1[H])C([H])([H])C([H])([H])C([H])([H])C2([H])N([H])C(=O)C1([H])N(C(=O)C([H])(N([H])C(=O)C([H])(N([H])C([H])([H])[H])C([H])([H])[H])C(C([H])([H])[H])(C([H])([H])[H])C([H])([H])[H])C([H])([H])c2c([H])c(OC([H])([H])C(=O)C([H])([H])C(=O)N([H])C([H])(c3nc(N([H])C(=O)N4C([H])([H])C([H])([H])C([H])([H])C([H])(n5nc(-c6c([H])c([H])c(Oc7c([H])c([H])c(F)c([H])c7F)c([H])c6[H])c(C(=O)N([H])[H])c5N([H])[H])C4([H])[H])sc3N([H])[H])C([H])(F)F)c([H])c([H])c2C1([H])[H]

>  <smiles>  (17) 
[H]c1c([H])c([H])c2c(c1[H])C([H])([H])C([H])([H])C([H])([H])C2([H])N([H])C(=O)C1([H])N(C(=O)C([H])(N([H])C(=O)C([H])(N([H])C([H])([H])[H])C([H])([H])[H])C(C([H])([H])[H])(C([H])([H])[H])C([H])([H])[H])C([H])([H])c2c([H])c(OC([H])([H])C(=O)C([H])([H])C(=O)N([H])C([H])(c3nc(N([H])C(=O)N4C([H])([H])C([H])([H])C([H])([H])C([H])(n5nc(-c6c([H])c([H])c(Oc7c([H])c([H])c(F)c([H])c7F)c([H])c6[H])c(C(=O)N([H])[H])c5N([H])[H])C4([H])[H])sc3N([H])[H])C([H])(F)F)c([H])c([H])c2C1([H])[H]

$$$$
17:0:0
     RDKit          3D

 95103  0  0  1  0  0  0  0  0999 V2000
  -30.2930  -18.4300   21.0820 C   0  0  0  0  0  0  0  0  0  0  0  0
  -30.6410  -18.1800   19.7570 C   0  0  0  0  0  0  0  0  0  0  0  0
  -30.1730  -20.4430   19.6490 C   0  0  0  0  0  0  0  0  0  0  0  0
  -29.0910  -22.5360   18.9190 C   0  0  0  0  0  0  0  0  0  0  0  0
  -30.5750  -19.3580   18.9700 N   0  0  0  0  0  0  0  0  0  0  0  0
  -30.1740  -21.7540   19.0990 N   0  0  0  0  0  0  0  0  0  0  0  0
  -27.9350  -22.1000   18.8510 O   0  0  0  0  0  0  0  0  0  0  0  0
  -29.8270  -20.1080   21.3310 S   0  0  0  0  0  0  0  0  0  0  0  0
  -31.0560  -22.2540   19.0920 H   0  0  0  0  0  0  0  0  0  0  0  0
  -30.2360  -17.5690   22.2770 C   0  0  0  0  0  0  0  0  0  0  0  0
  -30.8700  -18.0160   23.6080 C   0  0  0  0  0  1  0  0  0  0  0  0
  -29.6880  -16.4690   22.2490 O   0  0  0  0  0  0  0  0  0  0  0  0
  -29.4260  -24.0650   18.7700 C   0  0  0  0  0  0  0  0  0  0  0  0
  -30.5810  -24.5020   18.8670 O   0  0  0  0  0  0  0  0  0  0  0  0
  -28.2090  -24.9950   18.5430 C   0  0  0  0  0  2  0  0  0  0  0  0
  -28.3940  -26.3730   18.9750 O   0  0  0  0  0  0  0  0  0  0  0  0
  -24.5620  -30.8900   22.9960 C   0  0  0  0  0  0  0  0  0  0  0  0
  -27.2280  -27.1190   19.1000 C   0  0  0  0  0  0  0  0  0  0  0  0
  -23.3520  -29.7600   21.1630 C   0  0  0  0  0  3  0  0  0  0  0  0
  -24.8040  -28.5570   19.4500 C   0  0  0  0  0  0  0  0  0  0  0  0
  -25.8650  -30.2210   20.9750 C   0  0  0  0  0  2  0  0  0  0  0  0
  -25.9700  -28.9870   20.0980 C   0  0  0  0  0  0  0  0  0  0  0  0
  -27.1820  -28.2700   19.9310 C   0  0  0  0  0  3  0  0  0  0  0  0
  -26.0400  -26.7420   18.4270 C   0  0  0  0  0  3  0  0  0  0  0  0
  -24.8360  -27.4340   18.6130 C   0  0  0  0  0  3  0  0  0  0  0  0
  -23.5430  -29.3560   19.6790 C   0  0  0  0  0  2  0  0  0  0  0  0
  -24.6140  -30.2930   21.7720 N   0  0  0  0  0  0  0  0  0  0  0  0
  -23.4870  -31.0240   23.6000 O   0  0  0  0  0  0  0  0  0  0  0  0
  -22.7630  -28.5580   21.9350 C   0  0  0  0  0  0  0  0  0  0  0  0
  -21.4680  -28.2810   21.7110 N   0  0  0  0  0  0  0  0  0  0  0  0
  -23.4700  -27.8870   22.6910 O   0  0  0  0  0  0  0  0  0  0  0  0
  -20.9580  -28.8860   21.0800 H   0  0  0  0  0  0  0  0  0  0  0  0
  -18.2330  -26.6680   21.7700 C   0  0  0  0  0  0  0  0  0  0  0  0
  -20.7120  -27.1750   22.3020 C   0  0  0  0  0  3  0  0  0  0  0  0
  -21.0320  -25.8400   21.5910 C   0  0  0  0  0  2  0  0  0  0  0  0
  -20.0580  -25.5120   20.4550 C   0  0  0  0  0  2  0  0  0  0  0  0
  -18.6240  -25.4310   20.9800 C   0  0  0  0  0  2  0  0  0  0  0  0
  -19.2140  -27.4950   22.3780 C   0  0  0  0  0  0  0  0  0  0  0  0
  -18.7990  -28.6540   23.0670 C   0  0  0  0  0  3  0  0  0  0  0  0
  -17.4340  -28.9850   23.1660 C   0  0  0  0  0  3  0  0  0  0  0  0
  -16.4660  -28.1490   22.5810 C   0  0  0  0  0  3  0  0  0  0  0  0
  -16.8670  -26.9960   21.8840 C   0  0  0  0  0  3  0  0  0  0  0  0
  -25.8470  -31.4490   23.6830 C   0  0  0  0  0  3  0  0  0  0  0  0
  -26.3840  -30.5190   24.8400 C   0  0  1  0  0  0  0  0  0  0  0  0
  -25.3080  -30.1320   25.8810 C   0  0  0  0  0  1  0  0  0  0  0  0
  -26.9780  -29.2120   24.2610 C   0  0  0  0  0  1  0  0  0  0  0  0
  -27.5360  -31.2280   25.5910 C   0  0  0  0  0  1  0  0  0  0  0  0
  -25.5270  -32.7870   24.1950 N   0  0  0  0  0  0  0  0  0  0  0  0
  -25.8250  -33.9360   23.5720 C   0  0  0  0  0  0  0  0  0  0  0  0
  -26.4820  -33.9850   22.5300 O   0  0  0  0  0  0  0  0  0  0  0  0
  -24.9420  -32.8290   25.0170 H   0  0  0  0  0  0  0  0  0  0  0  0
  -24.0480  -35.7180   23.4740 C   0  0  0  0  0  1  0  0  0  0  0  0
  -25.3040  -35.2350   24.2140 C   0  0  0  0  0  3  0  0  0  0  0  0
  -27.4680  -36.0240   25.0790 C   0  0  0  0  0  1  0  0  0  0  0  0
  -26.2890  -36.3360   24.2810 N   0  0  0  0  0  0  0  0  0  0  0  0
  -25.8540  -37.1600   24.6860 H   0  0  0  0  0  0  0  0  0  0  0  0
  -31.1880  -16.9230   19.0600 C   0  0  0  0  0  2  0  0  0  0  0  0
  -31.2380  -14.4320   19.1460 C   0  0  0  0  0  0  0  0  0  0  0  0
  -30.7970  -12.0970   18.4930 C   0  0  0  0  0  2  0  0  0  0  0  0
  -29.7150  -12.0800   17.3970 C   0  0  0  0  0  2  0  0  0  0  0  0
  -28.3130  -12.0160   18.0310 C   0  0  0  0  0  2  0  0  0  0  0  0
  -28.1110  -13.0780   19.1490 C   0  0  0  0  0  3  0  0  0  0  0  0
  -29.3070  -13.1150   20.1270 C   0  0  0  0  0  2  0  0  0  0  0  0
  -30.5420  -13.2760   19.3450 N   0  0  0  0  0  0  0  0  0  0  0  0
  -32.3290  -14.4450   18.5700 O   0  0  0  0  0  0  0  0  0  0  0  0
  -30.6290  -15.6040   19.4250 N   0  0  0  0  0  0  0  0  0  0  0  0
  -29.7340  -15.5980   19.8980 H   0  0  0  0  0  0  0  0  0  0  0  0
  -25.9760  -13.8560   20.3550 C   0  0  0  0  0  0  0  0  0  0  0  0
  -24.8960  -13.1720   20.8420 C   0  0  0  0  0  0  0  0  0  0  0  0
  -25.1590  -11.7900   20.5910 C   0  0  0  0  0  0  0  0  0  0  0  0
  -26.8400  -12.8960   19.8460 N   0  0  0  0  0  0  0  0  0  0  0  0
  -26.3600  -11.6400   20.0460 N   0  0  0  0  0  0  0  0  0  0  0  0
  -24.3090  -10.6090   20.7940 C   0  0  0  0  0  0  0  0  0  0  0  0
  -24.6620   -9.5910   21.7070 C   0  0  0  0  0  3  0  0  0  0  0  0
  -23.8260   -8.4680   21.8920 C   0  0  0  0  0  3  0  0  0  0  0  0
  -22.6160   -8.3590   21.1650 C   0  0  0  0  0  0  0  0  0  0  0  0
  -22.2770   -9.3630   20.2390 C   0  0  0  0  0  3  0  0  0  0  0  0
  -23.1170  -10.4760   20.0520 C   0  0  0  0  0  3  0  0  0  0  0  0
  -21.7500   -7.2980   21.2680 O   0  0  0  0  0  0  0  0  0  0  0  0
  -21.4920   -6.6870   22.4690 C   0  0  0  0  0  0  0  0  0  0  0  0
  -20.9320   -7.3870   23.5570 C   0  0  0  0  0  3  0  0  0  0  0  0
  -20.6140   -6.7010   24.7470 C   0  0  0  0  0  3  0  0  0  0  0  0
  -20.8610   -5.3210   24.8490 C   0  0  0  0  0  0  0  0  0  0  0  0
  -21.4230   -4.6200   23.7670 C   0  0  0  0  0  3  0  0  0  0  0  0
  -21.7300   -5.3010   22.5780 C   0  0  0  0  0  0  0  0  0  0  0  0
  -22.2500   -4.6180   21.5290 F   0  0  0  0  0  0  0  0  0  0  0  0
  -20.5530   -4.6610   25.9920 F   0  0  0  0  0  0  0  0  0  0  0  0
  -23.6440  -13.7730   21.4140 C   0  0  0  0  0  0  0  0  0  0  0  0
  -22.9930  -13.0810   22.3430 N   0  0  0  0  0  0  0  0  0  0  0  0
  -23.2630  -14.8910   21.0730 O   0  0  0  0  0  0  0  0  0  0  0  0
  -23.3140  -12.1750   22.6510 H   0  0  0  0  0  0  0  0  0  0  0  0
  -22.1560  -13.4670   22.7570 H   0  0  0  0  0  0  0  0  0  0  0  0
  -26.2840  -15.2080   20.2800 N   0  0  0  0  0  0  0  0  0  0  0  0
  -25.6240  -15.9120   20.5870 H   0  0  0  0  0  0  0  0  0  0  0  0
  -27.1010  -15.6010   19.8300 H   0  0  0  0  0  0  0  0  0  0  0  0
  1  8  1  0
  1 10  1  0
  2  1  2  0
  3  8  1  0
  4  6  1  0
  5  3  2  0
  5  2  1  0
  6  3  1  0
  7  4  2  0
  9  6  1  0
 10 11  1  0
 12 10  2  0
 13 14  2  0
 13  4  1  0
 15 13  1  0
 15 16  1  0
 16 18  1  0
 17 28  2  0
 18 23  1  0
 19 27  1  0
 19 29  1  0
 20 26  1  0
 20 22  1  0
 21 27  1  0
 22 21  1  0
 23 22  2  0
 24 25  1  0
 24 18  2  0
 25 20  2  0
 26 19  1  0
 27 17  1  0
 29 31  2  0
 30 29  1  0
 32 30  1  0
 33 42  2  0
 33 38  1  0
 34 30  1  0
 34 38  1  0
 35 34  1  0
 36 37  1  0
 36 35  1  0
 37 33  1  0
 38 39  2  0
 39 40  1  0
 41 40  2  0
 42 41  1  0
 43 17  1  0
 43 48  1  0
 43 44  1  0
 44 47  1  1
 44 45  1  0
 46 44  1  0
 48 51  1  0
 49 48  1  0
 49 53  1  0
 50 49  2  0
 53 52  1  0
 53 55  1  0
 55 56  1  0
 55 54  1  0
 57 66  1  0
 57  2  1  0
 58 64  1  0
 58 66  1  0
 59 64  1  0
 60 61  1  0
 60 59  1  0
 62 61  1  0
 62 71  1  0
 62 63  1  0
 64 63  1  0
 65 58  2  0
 66 67  1  0
 68 69  2  0
 69 88  1  0
 70 73  1  0
 70 69  1  0
 71 72  1  0
 71 68  1  0
 72 70  2  0
 73 74  1  0
 74 75  2  0
 76 79  1  0
 76 75  1  0
 77 76  2  0
 78 77  1  0
 78 73  2  0
 79 80  1  0
 80 85  2  0
 80 81  1  0
 81 82  2  0
 82 83  1  0
 83 87  1  0
 84 83  2  0
 85 84  1  0
 86 85  1  0
 88 89  1  0
 89 91  1  0
 89 92  1  0
 90 88  2  0
 93 68  1  0
 93 94  1  0
 95 93  1  0
M  ISO  4  15 101  16 101  58 100  66 100
M  END
>  <TORSDO>  (18) 
F 20

>  <SCORE>  (18) 
-9.513

>  <name>  (18) 
17

>  <ligand_id>  (18) 
17

>  <original_smiles>  (18) 
[H]c1c([H])c([H])c2c(c1[H])C([H])([H])C([H])([H])C([H])([H])C2([H])N([H])C(=O)C1([H])N(C(=O)C([H])(N([H])C(=O)C([H])(N([H])C([H])([H])[H])C([H])([H])[H])C(C([H])([H])[H])(C([H])([H])[H])C([H])([H])[H])C([H])([H])c2c([H])c(OC([H])([H])C(=O)C(=O)N([H])c3nc(C([H])([H])N([H])C(=O)N4C([H])([H])C([H])([H])C([H])([H])C([H])(n5nc(-c6c([H])c([H])c(Oc7c([H])c([H])c(F)c([H])c7F)c([H])c6[H])c(C(=O)N([H])[H])c5N([H])[H])C4([H])[H])c(C(=O)C([H])([H])[H])s3)c([H])c([H])c2C1([H])[H]

>  <smiles>  (18) 
[H]c1c([H])c([H])c2c(c1[H])C([H])([H])C([H])([H])C([H])([H])C2([H])N([H])C(=O)C1([H])N(C(=O)C([H])(N([H])C(=O)C([H])(N([H])C([H])([H])[H])C([H])([H])[H])C(C([H])([H])[H])(C([H])([H])[H])C([H])([H])[H])C([H])([H])c2c([H])c(OC([H])([H])C(=O)C(=O)N([H])c3nc(C([H])([H])N([H])C(=O)N4C([H])([H])C([H])([H])C([H])([H])C([H])(n5nc(-c6c([H])c([H])c(Oc7c([H])c([H])c(F)c([H])c7F)c([H])c6[H])c(C(=O)N([H])[H])c5N([H])[H])C4([H])[H])c(C(=O)C([H])([H])[H])s3)c([H])c([H])c2C1([H])[H]

$$$$
18:0:0
     RDKit          3D

 94102  0  0  1  0  0  0  0  0999 V2000
  -28.7680  -20.3010   20.4780 C   0  0  0  0  0  0  0  0  0  0  0  0
  -27.6600  -20.1490   19.9480 O   0  0  0  0  0  0  0  0  0  0  0  0
  -30.6560  -14.5100   20.3740 C   0  0  0  0  0  0  0  0  0  0  0  0
  -30.3480  -12.3510   19.2180 C   0  0  0  0  0  2  0  0  0  0  0  0
  -29.3910  -12.5650   18.0260 C   0  0  0  0  0  2  0  0  0  0  0  0
  -27.9210  -12.4270   18.4740 C   0  0  0  0  0  2  0  0  0  0  0  0
  -27.6030  -13.2520   19.7510 C   0  0  0  0  0  3  0  0  0  0  0  0
  -28.6730  -13.0180   20.8430 C   0  0  0  0  0  2  0  0  0  0  0  0
  -29.9890  -13.3280   20.2590 N   0  0  0  0  0  0  0  0  0  0  0  0
  -31.7890  -14.6740   19.9100 O   0  0  0  0  0  0  0  0  0  0  0  0
  -29.7250  -19.1810   20.6800 C   0  0  0  0  0  0  0  0  0  0  0  0
  -31.1150  -19.2390   20.7240 C   0  0  0  0  0  0  0  0  0  0  0  0
  -30.2330  -16.9260   20.8160 C   0  0  0  0  0  0  0  0  0  0  0  0
  -29.2590  -17.8430   20.7560 N   0  0  0  0  0  0  0  0  0  0  0  0
  -29.9220  -15.5330   20.8620 N   0  0  0  0  0  0  0  0  0  0  0  0
  -31.8370  -17.6460   20.8480 S   0  0  0  0  0  0  0  0  0  0  0  0
  -28.9860  -15.2950   21.1410 H   0  0  0  0  0  0  0  0  0  0  0  0
  -25.2110  -13.8580   20.4810 C   0  0  0  0  0  0  0  0  0  0  0  0
  -24.1480  -13.0860   20.8630 C   0  0  0  0  0  0  0  0  0  0  0  0
  -24.6090  -11.7340   20.8280 C   0  0  0  0  0  0  0  0  0  0  0  0
  -26.2550  -12.9780   20.2420 N   0  0  0  0  0  0  0  0  0  0  0  0
  -25.8960  -11.6950   20.5080 N   0  0  0  0  0  0  0  0  0  0  0  0
  -23.8870  -10.4710   21.0270 C   0  0  0  0  0  0  0  0  0  0  0  0
  -24.3330   -9.5020   21.9520 C   0  0  0  0  0  3  0  0  0  0  0  0
  -23.6100   -8.3040   22.1380 C   0  0  0  0  0  3  0  0  0  0  0  0
  -22.4270   -8.0670   21.4000 C   0  0  0  0  0  0  0  0  0  0  0  0
  -22.0000   -9.0240   20.4640 C   0  0  0  0  0  3  0  0  0  0  0  0
  -22.7240  -10.2130   20.2740 C   0  0  0  0  0  3  0  0  0  0  0  0
  -21.6760   -6.9210   21.4960 O   0  0  0  0  0  0  0  0  0  0  0  0
  -21.6490   -6.1710   22.6440 C   0  0  0  0  0  0  0  0  0  0  0  0
  -21.2480   -6.7180   23.8820 C   0  0  0  0  0  3  0  0  0  0  0  0
  -21.1700   -5.8950   25.0240 C   0  0  0  0  0  3  0  0  0  0  0  0
  -21.4810   -4.5250   24.9270 C   0  0  0  0  0  0  0  0  0  0  0  0
  -21.8750   -3.9780   23.6940 C   0  0  0  0  0  3  0  0  0  0  0  0
  -21.9550   -4.7980   22.5550 C   0  0  0  0  0  0  0  0  0  0  0  0
  -22.3150   -4.2610   21.3650 F   0  0  0  0  0  0  0  0  0  0  0  0
  -21.3990   -3.7320   26.0210 F   0  0  0  0  0  0  0  0  0  0  0  0
  -22.7530  -13.5620   21.1520 C   0  0  0  0  0  0  0  0  0  0  0  0
  -22.0360  -12.8610   22.0240 N   0  0  0  0  0  0  0  0  0  0  0  0
  -22.3070  -14.5870   20.6380 O   0  0  0  0  0  0  0  0  0  0  0  0
  -22.4100  -12.0300   22.4590 H   0  0  0  0  0  0  0  0  0  0  0  0
  -21.1000  -13.1580   22.2610 H   0  0  0  0  0  0  0  0  0  0  0  0
  -25.3750  -15.2290   20.2980 N   0  0  0  0  0  0  0  0  0  0  0  0
  -24.6100  -15.8850   20.4170 H   0  0  0  0  0  0  0  0  0  0  0  0
  -26.2190  -15.6690   19.9540 H   0  0  0  0  0  0  0  0  0  0  0  0
  -32.0020  -20.3140   20.6550 N   0  0  0  0  0  0  0  0  0  0  0  0
  -31.7460  -21.2930   20.5700 H   0  0  0  0  0  0  0  0  0  0  0  0
  -33.0070  -20.1940   20.7400 H   0  0  0  0  0  0  0  0  0  0  0  0
  -29.0950  -21.7130   21.0190 C   0  0  0  0  0  2  0  0  0  0  0  0
  -28.8720  -22.8590   19.9810 C   0  0  0  0  0  2  0  0  0  0  0  0
  -28.5800  -24.2580   20.5640 C   0  0  0  0  0  0  0  0  0  0  0  0
  -28.3420  -24.4150   21.7650 O   0  0  0  0  0  0  0  0  0  0  0  0
  -28.6110  -25.4570   19.5810 C   0  0  0  0  0  2  0  0  0  0  0  0
  -28.4610  -26.7360   20.2390 O   0  0  0  0  0  0  0  0  0  0  0  0
  -24.6000  -31.9040   23.2540 C   0  0  0  0  0  0  0  0  0  0  0  0
  -27.2630  -27.4320   20.2050 C   0  0  0  0  0  0  0  0  0  0  0  0
  -23.4040  -30.4980   21.6090 C   0  0  0  0  0  3  0  0  0  0  0  0
  -24.8640  -28.9520   20.1990 C   0  0  0  0  0  0  0  0  0  0  0  0
  -25.9320  -30.8520   21.4250 C   0  0  0  0  0  2  0  0  0  0  0  0
  -26.0190  -29.4750   20.7900 C   0  0  0  0  0  0  0  0  0  0  0  0
  -27.2170  -28.7220   20.7920 C   0  0  0  0  0  3  0  0  0  0  0  0
  -26.0790  -26.9200   19.6230 C   0  0  0  0  0  3  0  0  0  0  0  0
  -24.8890  -27.6740   19.6160 C   0  0  0  0  0  3  0  0  0  0  0  0
  -23.6220  -29.8140   20.2330 C   0  0  0  0  0  2  0  0  0  0  0  0
  -24.6640  -31.1000   22.1540 N   0  0  0  0  0  0  0  0  0  0  0  0
  -23.5170  -32.1770   23.7870 O   0  0  0  0  0  0  0  0  0  0  0  0
  -22.7470  -29.4790   22.5690 C   0  0  0  0  0  0  0  0  0  0  0  0
  -21.4230  -29.2990   22.4370 N   0  0  0  0  0  0  0  0  0  0  0  0
  -23.4270  -28.8520   23.3870 O   0  0  0  0  0  0  0  0  0  0  0  0
  -20.9370  -29.8540   21.7460 H   0  0  0  0  0  0  0  0  0  0  0  0
  -18.0420  -28.1220   22.9330 C   0  0  0  0  0  0  0  0  0  0  0  0
  -20.6010  -28.3630   23.2050 C   0  0  0  0  0  3  0  0  0  0  0  0
  -20.6950  -26.9340   22.6240 C   0  0  0  0  0  2  0  0  0  0  0  0
  -19.5910  -26.6210   21.6100 C   0  0  0  0  0  2  0  0  0  0  0  0
  -18.2110  -26.7720   22.2530 C   0  0  0  0  0  2  0  0  0  0  0  0
  -19.1660  -28.8750   23.3640 C   0  0  0  0  0  0  0  0  0  0  0  0
  -18.9550  -30.1400   23.9570 C   0  0  0  0  0  3  0  0  0  0  0  0
  -17.6520  -30.6480   24.1240 C   0  0  0  0  0  3  0  0  0  0  0  0
  -16.5440  -29.8910   23.7100 C   0  0  0  0  0  3  0  0  0  0  0  0
  -16.7400  -28.6300   23.1180 C   0  0  0  0  0  3  0  0  0  0  0  0
  -25.8830  -32.5370   23.8800 C   0  0  0  0  0  3  0  0  0  0  0  0
  -25.5750  -33.9370   24.2010 N   0  0  0  0  0  0  0  0  0  0  0  0
  -25.9130  -34.9840   23.4370 C   0  0  0  0  0  0  0  0  0  0  0  0
  -26.5900  -34.8740   22.4110 O   0  0  0  0  0  0  0  0  0  0  0  0
  -24.9810  -34.0980   25.0010 H   0  0  0  0  0  0  0  0  0  0  0  0
  -24.1900  -36.7750   23.0560 C   0  0  0  0  0  1  0  0  0  0  0  0
  -25.4230  -36.3750   23.8820 C   0  0  0  0  0  3  0  0  0  0  0  0
  -27.5510  -37.2620   24.7270 C   0  0  0  0  0  1  0  0  0  0  0  0
  -26.4570  -37.4270   23.7720 N   0  0  0  0  0  0  0  0  0  0  0  0
  -26.0520  -38.3490   23.9100 H   0  0  0  0  0  0  0  0  0  0  0  0
  -26.3940  -31.7690   25.1600 C   0  0  1  0  0  0  0  0  0  0  0  0
  -25.2960  -31.5320   26.2230 C   0  0  0  0  0  1  0  0  0  0  0  0
  -26.9790  -30.3910   24.7730 C   0  0  0  0  0  1  0  0  0  0  0  0
  -27.5430  -32.5630   25.8250 C   0  0  0  0  0  1  0  0  0  0  0  0
  1 11  1  0
  1 49  1  0
  2  1  2  0
  3 15  1  0
  4  9  1  0
  5  6  1  0
  5  4  1  0
  7  6  1  0
  7 21  1  0
  7  8  1  0
  9  3  1  0
  9  8  1  0
 10  3  2  0
 11 12  2  0
 11 14  1  0
 12 16  1  0
 13 16  1  0
 13 15  1  0
 14 13  2  0
 15 17  1  0
 18 19  2  0
 19 38  1  0
 20 19  1  0
 20 23  1  0
 21 18  1  0
 21 22  1  0
 22 20  2  0
 23 24  1  0
 24 25  2  0
 26 29  1  0
 26 25  1  0
 27 26  2  0
 28 27  1  0
 28 23  2  0
 29 30  1  0
 30 31  1  0
 31 32  2  0
 33 32  1  0
 33 37  1  0
 34 33  2  0
 35 30  2  0
 35 34  1  0
 36 35  1  0
 38 39  1  0
 39 42  1  0
 39 41  1  0
 40 38  2  0
 43 44  1  0
 43 18  1  0
 45 43  1  0
 46 12  1  0
 46 48  1  0
 47 46  1  0
 50 51  1  0
 50 49  1  0
 51 52  2  0
 53 54  1  0
 53 51  1  0
 55 66  2  0
 56 54  1  0
 56 61  1  0
 57 65  1  0
 57 67  1  0
 58 64  1  0
 58 60  1  0
 59 65  1  0
 60 61  2  0
 60 59  1  0
 62 56  2  0
 63 62  1  0
 63 58  2  0
 64 57  1  0
 65 55  1  0
 67 69  2  0
 68 67  1  0
 70 68  1  0
 71 80  2  0
 71 76  1  0
 72 68  1  0
 72 76  1  0
 73 72  1  0
 74 75  1  0
 74 73  1  0
 75 71  1  0
 76 77  2  0
 77 78  1  0
 79 78  2  0
 80 79  1  0
 81 55  1  0
 81 82  1  0
 81 91  1  0
 82 85  1  0
 83 87  1  0
 83 82  1  0
 84 83  2  0
 87 86  1  0
 89 87  1  0
 89 90  1  0
 89 88  1  0
 91 94  1  1
 91 92  1  0
 93 91  1  0
M  ISO  4   3 100  15 100  53 101  54 101
M  END
>  <TORSDO>  (19) 
F 21

>  <SCORE>  (19) 
-13.938

>  <name>  (19) 
18

>  <ligand_id>  (19) 
18

>  <original_smiles>  (19) 
[H]c1c([H])c([H])c2c(c1[H])C([H])([H])C([H])([H])C([H])([H])C2([H])N([H])C(=O)C1([H])N(C(=O)C([H])(N([H])C(=O)C([H])(N([H])C([H])([H])[H])C([H])([H])[H])C(C([H])([H])[H])(C([H])([H])[H])C([H])([H])[H])C([H])([H])c2c([H])c(OC([H])([H])C(=O)C([H])([H])C([H])([H])C(=O)c3nc(N([H])C(=O)N4C([H])([H])C([H])([H])C([H])([H])C([H])(n5nc(-c6c([H])c([H])c(Oc7c([H])c([H])c(F)c([H])c7F)c([H])c6[H])c(C(=O)N([H])[H])c5N([H])[H])C4([H])[H])sc3N([H])[H])c([H])c([H])c2C1([H])[H]

>  <smiles>  (19) 
[H]c1c([H])c([H])c2c(c1[H])C([H])([H])C([H])([H])C([H])([H])C2([H])N([H])C(=O)C1([H])N(C(=O)C([H])(N([H])C(=O)C([H])(N([H])C([H])([H])[H])C([H])([H])[H])C(C([H])([H])[H])(C([H])([H])[H])C([H])([H])[H])C([H])([H])c2c([H])c(OC([H])([H])C(=O)C([H])([H])C([H])([H])C(=O)c3nc(N([H])C(=O)N4C([H])([H])C([H])([H])C([H])([H])C([H])(n5nc(-c6c([H])c([H])c(Oc7c([H])c([H])c(F)c([H])c7F)c([H])c6[H])c(C(=O)N([H])[H])c5N([H])[H])C4([H])[H])sc3N([H])[H])c([H])c([H])c2C1([H])[H]

$$$$
19:0:0
     RDKit          3D

 94102  0  0  1  0  0  0  0  0999 V2000
  -27.7450  -22.0540   19.4000 C   0  0  0  0  0  0  0  0  0  0  0  0
  -27.8330  -20.7050   19.3480 N   0  0  0  0  0  0  0  0  0  0  0  0
  -26.8160  -22.6350   18.8320 O   0  0  0  0  0  0  0  0  0  0  0  0
  -27.0730  -20.2890   18.8270 H   0  0  0  0  0  0  0  0  0  0  0  0
  -28.8030  -19.2960   21.1040 C   0  0  0  0  0  3  0  0  0  0  0  0
  -29.7040  -18.1960   21.2190 C   0  0  0  0  0  0  0  0  0  0  0  0
  -30.3400  -17.8460   20.0600 C   0  0  0  0  0  0  0  0  0  0  0  0
  -28.7410  -19.8120   19.8310 C   0  0  0  0  0  0  0  0  0  0  0  0
  -29.8790  -17.5580   22.3540 F   0  0  0  0  0  0  0  0  0  0  0  0
  -29.8480  -18.9390   18.7800 S   0  0  0  0  0  0  0  0  0  0  0  0
  -31.3420  -16.7430   19.8380 C   0  0  0  0  0  2  0  0  0  0  0  0
  -31.3070  -14.2910   19.3310 C   0  0  0  0  0  0  0  0  0  0  0  0
  -30.8370  -12.0030   18.5400 C   0  0  0  0  0  2  0  0  0  0  0  0
  -29.8090  -12.0540   17.3920 C   0  0  0  0  0  2  0  0  0  0  0  0
  -28.3730  -12.0300   17.9510 C   0  0  0  0  0  2  0  0  0  0  0  0
  -28.1550  -13.0670   19.0870 C   0  0  0  0  0  3  0  0  0  0  0  0
  -29.2920  -12.9930   20.1320 C   0  0  0  0  0  2  0  0  0  0  0  0
  -30.5750  -13.1480   19.4250 N   0  0  0  0  0  0  0  0  0  0  0  0
  -32.3620  -14.3590   18.6960 O   0  0  0  0  0  0  0  0  0  0  0  0
  -30.7730  -15.3860   19.8980 N   0  0  0  0  0  0  0  0  0  0  0  0
  -29.9080  -15.2620   20.4020 H   0  0  0  0  0  0  0  0  0  0  0  0
  -25.9150  -13.8790   20.0570 C   0  0  0  0  0  0  0  0  0  0  0  0
  -24.8230  -13.2010   20.5310 C   0  0  0  0  0  0  0  0  0  0  0  0
  -25.1490  -11.8140   20.4420 C   0  0  0  0  0  0  0  0  0  0  0  0
  -26.8400  -12.9090   19.7070 N   0  0  0  0  0  0  0  0  0  0  0  0
  -26.3900  -11.6600   19.9940 N   0  0  0  0  0  0  0  0  0  0  0  0
  -24.3320  -10.6210   20.6990 C   0  0  0  0  0  0  0  0  0  0  0  0
  -24.7310   -9.6380   21.6320 C   0  0  0  0  0  3  0  0  0  0  0  0
  -23.9200   -8.5110   21.8790 C   0  0  0  0  0  3  0  0  0  0  0  0
  -22.6910   -8.3570   21.1940 C   0  0  0  0  0  0  0  0  0  0  0  0
  -22.3070   -9.3260   20.2490 C   0  0  0  0  0  3  0  0  0  0  0  0
  -23.1200  -10.4450   20.0000 C   0  0  0  0  0  3  0  0  0  0  0  0
  -21.8500   -7.2820   21.3490 O   0  0  0  0  0  0  0  0  0  0  0  0
  -21.7570   -6.6080   22.5410 C   0  0  0  0  0  0  0  0  0  0  0  0
  -21.3920   -7.2600   23.7380 C   0  0  0  0  0  3  0  0  0  0  0  0
  -21.2390   -6.5160   24.9250 C   0  0  0  0  0  3  0  0  0  0  0  0
  -21.4420   -5.1230   24.9170 C   0  0  0  0  0  0  0  0  0  0  0  0
  -21.7990   -4.4720   23.7230 C   0  0  0  0  0  3  0  0  0  0  0  0
  -21.9530   -5.2130   22.5380 C   0  0  0  0  0  0  0  0  0  0  0  0
  -22.2780   -4.5770   21.3860 F   0  0  0  0  0  0  0  0  0  0  0  0
  -21.2870   -4.4080   26.0540 F   0  0  0  0  0  0  0  0  0  0  0  0
  -23.5130  -13.8020   20.9550 C   0  0  0  0  0  0  0  0  0  0  0  0
  -22.8350  -13.1760   21.9100 N   0  0  0  0  0  0  0  0  0  0  0  0
  -23.1050  -14.8590   20.4720 O   0  0  0  0  0  0  0  0  0  0  0  0
  -23.1760  -12.3190   22.3210 H   0  0  0  0  0  0  0  0  0  0  0  0
  -21.9590  -13.5580   22.2370 H   0  0  0  0  0  0  0  0  0  0  0  0
  -26.1880  -15.2320   19.8740 N   0  0  0  0  0  0  0  0  0  0  0  0
  -25.5090  -15.9550   20.0870 H   0  0  0  0  0  0  0  0  0  0  0  0
  -27.0470  -15.5960   19.4810 H   0  0  0  0  0  0  0  0  0  0  0  0
  -28.8070  -22.8780   20.1940 C   0  0  0  0  0  0  0  0  0  0  0  0
  -29.9400  -22.4540   20.4540 O   0  0  0  0  0  0  0  0  0  0  0  0
  -28.3840  -24.2980   20.6290 C   0  0  0  0  0  2  0  0  0  0  0  0
  -28.6750  -25.3920   19.5700 C   0  0  0  0  0  2  0  0  0  0  0  0
  -28.5420  -26.7300   20.0800 O   0  0  0  0  0  0  0  0  0  0  0  0
  -24.5670  -31.7000   23.2520 C   0  0  0  0  0  0  0  0  0  0  0  0
  -27.3290  -27.3930   20.0690 C   0  0  0  0  0  0  0  0  0  0  0  0
  -23.4060  -30.3350   21.5460 C   0  0  0  0  0  3  0  0  0  0  0  0
  -24.9040  -28.8660   20.0930 C   0  0  0  0  0  0  0  0  0  0  0  0
  -25.9290  -30.7370   21.3970 C   0  0  0  0  0  2  0  0  0  0  0  0
  -26.0440  -29.3880   20.7160 C   0  0  0  0  0  0  0  0  0  0  0  0
  -27.2540  -28.6590   20.6980 C   0  0  0  0  0  3  0  0  0  0  0  0
  -26.1650  -26.8810   19.4500 C   0  0  0  0  0  3  0  0  0  0  0  0
  -24.9610  -27.6120   19.4590 C   0  0  0  0  0  3  0  0  0  0  0  0
  -23.6460  -29.7040   20.1480 C   0  0  0  0  0  2  0  0  0  0  0  0
  -24.6510  -30.9380   22.1240 N   0  0  0  0  0  0  0  0  0  0  0  0
  -23.4760  -31.9380   23.7840 O   0  0  0  0  0  0  0  0  0  0  0  0
  -22.7600  -29.2730   22.4630 C   0  0  0  0  0  0  0  0  0  0  0  0
  -21.4380  -29.0840   22.3190 N   0  0  0  0  0  0  0  0  0  0  0  0
  -23.4440  -28.6220   23.2570 O   0  0  0  0  0  0  0  0  0  0  0  0
  -20.9480  -29.6640   21.6540 H   0  0  0  0  0  0  0  0  0  0  0  0
  -18.0680  -27.8490   22.7460 C   0  0  0  0  0  0  0  0  0  0  0  0
  -20.6230  -28.1110   23.0460 C   0  0  0  0  0  3  0  0  0  0  0  0
  -20.7380  -26.7050   22.4120 C   0  0  0  0  0  2  0  0  0  0  0  0
  -19.6450  -26.4170   21.3790 C   0  0  0  0  0  2  0  0  0  0  0  0
  -18.2580  -26.5280   22.0190 C   0  0  0  0  0  2  0  0  0  0  0  0
  -19.1790  -28.6000   23.2140 C   0  0  0  0  0  0  0  0  0  0  0  0
  -18.9500  -29.8380   23.8510 C   0  0  0  0  0  3  0  0  0  0  0  0
  -17.6410  -30.3250   24.0270 C   0  0  0  0  0  3  0  0  0  0  0  0
  -16.5440  -29.5710   23.5760 C   0  0  0  0  0  3  0  0  0  0  0  0
  -16.7590  -28.3330   22.9410 C   0  0  0  0  0  3  0  0  0  0  0  0
  -25.8350  -32.3280   23.9120 C   0  0  0  0  0  3  0  0  0  0  0  0
  -25.4970  -33.7060   24.2940 N   0  0  0  0  0  0  0  0  0  0  0  0
  -25.8150  -34.7940   23.5800 C   0  0  0  0  0  0  0  0  0  0  0  0
  -26.4990  -34.7450   22.5540 O   0  0  0  0  0  0  0  0  0  0  0  0
  -24.8880  -33.8180   25.0920 H   0  0  0  0  0  0  0  0  0  0  0  0
  -24.0490  -36.5590   23.2850 C   0  0  0  0  0  1  0  0  0  0  0  0
  -25.2950  -36.1530   24.0870 C   0  0  0  0  0  3  0  0  0  0  0  0
  -27.4070  -37.0510   24.9590 C   0  0  0  0  0  1  0  0  0  0  0  0
  -26.3060  -37.2320   24.0190 N   0  0  0  0  0  0  0  0  0  0  0  0
  -25.8790  -38.1370   24.2000 H   0  0  0  0  0  0  0  0  0  0  0  0
  -26.3560  -31.5140   25.1580 C   0  0  1  0  0  0  0  0  0  0  0  0
  -25.2610  -31.2120   26.2070 C   0  0  0  0  0  1  0  0  0  0  0  0
  -26.9640  -30.1650   24.7120 C   0  0  0  0  0  1  0  0  0  0  0  0
  -27.4860  -32.3010   25.8620 C   0  0  0  0  0  1  0  0  0  0  0  0
  1 50  1  0
  2  1  1  0
  2  8  1  0
  3  1  2  0
  4  2  1  0
  5  6  1  0
  6  9  1  0
  7  6  2  0
  8  5  2  0
 10  8  1  0
 10  7  1  0
 11 20  1  0
 11  7  1  0
 12 18  1  0
 12 20  1  0
 13 18  1  0
 14 15  1  0
 14 13  1  0
 16 15  1  0
 16 25  1  0
 16 17  1  0
 18 17  1  0
 19 12  2  0
 20 21  1  0
 22 23  2  0
 23 42  1  0
 24 23  1  0
 24 27  1  0
 25 26  1  0
 25 22  1  0
 26 24  2  0
 27 28  1  0
 28 29  2  0
 30 33  1  0
 30 29  1  0
 31 30  2  0
 32 31  1  0
 32 27  2  0
 33 34  1  0
 34 35  1  0
 35 36  2  0
 37 36  1  0
 37 41  1  0
 38 37  2  0
 39 34  2  0
 39 38  1  0
 40 39  1  0
 42 43  1  0
 43 46  1  0
 43 45  1  0
 44 42  2  0
 47 22  1  0
 47 48  1  0
 49 47  1  0
 50 51  2  0
 50 52  1  0
 53 54  1  0
 53 52  1  0
 55 66  2  0
 56 54  1  0
 56 61  1  0
 57 65  1  0
 57 67  1  0
 58 64  1  0
 58 60  1  0
 59 65  1  0
 60 59  1  0
 61 60  2  0
 62 63  1  0
 62 56  2  0
 63 58  2  0
 64 57  1  0
 65 55  1  0
 67 69  2  0
 68 67  1  0
 70 68  1  0
 71 80  2  0
 71 76  1  0
 72 68  1  0
 72 76  1  0
 73 72  1  0
 74 75  1  0
 74 73  1  0
 75 71  1  0
 76 77  2  0
 77 78  1  0
 79 78  2  0
 80 79  1  0
 81 55  1  0
 81 82  1  0
 81 91  1  0
 82 85  1  0
 83 87  1  0
 83 82  1  0
 84 83  2  0
 87 86  1  0
 89 87  1  0
 89 90  1  0
 89 88  1  0
 91 94  1  1
 91 92  1  0
 93 91  1  0
M  ISO  4  12 100  20 100  53 101  54 101
M  END
>  <TORSDO>  (20) 
F 21

>  <SCORE>  (20) 
-11.946

>  <name>  (20) 
19

>  <ligand_id>  (20) 
19

>  <original_smiles>  (20) 
[H]c1c([H])c([H])c2c(c1[H])C([H])([H])C([H])([H])C([H])([H])C2([H])N([H])C(=O)C1([H])N(C(=O)C([H])(N([H])C(=O)C([H])(N([H])C([H])([H])[H])C([H])([H])[H])C(C([H])([H])[H])(C([H])([H])[H])C([H])([H])[H])C([H])([H])c2c([H])c(OC([H])([H])C([H])([H])C(=O)C(=O)N([H])c3sc(C([H])([H])N([H])C(=O)N4C([H])([H])C([H])([H])C([H])([H])C([H])(n5nc(-c6c([H])c([H])c(Oc7c([H])c([H])c(F)c([H])c7F)c([H])c6[H])c(C(=O)N([H])[H])c5N([H])[H])C4([H])[H])c(F)c3[H])c([H])c([H])c2C1([H])[H]

>  <smiles>  (20) 
[H]c1c([H])c([H])c2c(c1[H])C([H])([H])C([H])([H])C([H])([H])C2([H])N([H])C(=O)C1([H])N(C(=O)C([H])(N([H])C(=O)C([H])(N([H])C([H])([H])[H])C([H])([H])[H])C(C([H])([H])[H])(C([H])([H])[H])C([H])([H])[H])C([H])([H])c2c([H])c(OC([H])([H])C([H])([H])C(=O)C(=O)N([H])c3sc(C([H])([H])N([H])C(=O)N4C([H])([H])C([H])([H])C([H])([H])C([H])(n5nc(-c6c([H])c([H])c(Oc7c([H])c([H])c(F)c([H])c7F)c([H])c6[H])c(C(=O)N([H])[H])c5N([H])[H])C4([H])[H])c(F)c3[H])c([H])c([H])c2C1([H])[H]

$$$$
20:0:0
     RDKit          3D

 92100  0  0  1  0  0  0  0  0999 V2000
  -28.4340  -19.0170   20.7370 C   0  0  0  0  0  3  0  0  0  0  0  0
  -29.6760  -18.6510   20.2410 C   0  0  0  0  0  0  0  0  0  0  0  0
  -29.0720  -21.1880   20.1450 C   0  0  0  0  0  0  0  0  0  0  0  0
  -28.1130  -20.4140   20.6800 N   0  0  0  0  0  0  0  0  0  0  0  0
  -29.0620  -22.6190   19.9640 N   0  0  0  0  0  0  0  0  0  0  0  0
  -30.4590  -20.1590   19.6750 S   0  0  0  0  0  0  0  0  0  0  0  0
  -29.9070  -22.8930   19.4740 H   0  0  0  0  0  0  0  0  0  0  0  0
  -30.7880  -14.8680   20.2000 C   0  0  0  0  0  0  0  0  0  0  0  0
  -30.5330  -12.5780   19.2470 C   0  0  0  0  0  2  0  0  0  0  0  0
  -29.5870  -12.6310   18.0290 C   0  0  0  0  0  2  0  0  0  0  0  0
  -28.1250  -12.4630   18.4830 C   0  0  0  0  0  2  0  0  0  0  0  0
  -27.7630  -13.3730   19.6880 C   0  0  0  0  0  3  0  0  0  0  0  0
  -28.8370  -13.3330   20.7960 C   0  0  0  0  0  2  0  0  0  0  0  0
  -30.1210  -13.6630   20.1700 N   0  0  0  0  0  0  0  0  0  0  0  0
  -31.9850  -14.8620   19.8990 O   0  0  0  0  0  0  0  0  0  0  0  0
  -30.5380  -17.3600   20.1950 C   0  0  0  0  0  0  0  0  0  0  0  0
  -30.0670  -16.0560   20.3440 N   0  0  0  0  0  0  0  0  0  0  0  0
  -31.7390  -17.5690   19.9860 O   0  0  0  0  0  0  0  0  0  0  0  0
  -29.0820  -15.9600   20.5190 H   0  0  0  0  0  0  0  0  0  0  0  0
  -25.3950  -13.9560   20.4780 C   0  0  0  0  0  0  0  0  0  0  0  0
  -24.3360  -13.1780   20.8600 C   0  0  0  0  0  0  0  0  0  0  0  0
  -24.7960  -11.8270   20.8020 C   0  0  0  0  0  0  0  0  0  0  0  0
  -26.4310  -13.0770   20.2070 N   0  0  0  0  0  0  0  0  0  0  0  0
  -26.0800  -11.7920   20.4680 N   0  0  0  0  0  0  0  0  0  0  0  0
  -24.0700  -10.5630   20.9880 C   0  0  0  0  0  0  0  0  0  0  0  0
  -24.4910   -9.6010   21.9320 C   0  0  0  0  0  3  0  0  0  0  0  0
  -23.7640   -8.4030   22.1070 C   0  0  0  0  0  3  0  0  0  0  0  0
  -22.6020   -8.1590   21.3380 C   0  0  0  0  0  0  0  0  0  0  0  0
  -22.2000   -9.1110   20.3820 C   0  0  0  0  0  3  0  0  0  0  0  0
  -22.9280  -10.2990   20.2060 C   0  0  0  0  0  3  0  0  0  0  0  0
  -21.8470   -7.0140   21.4210 O   0  0  0  0  0  0  0  0  0  0  0  0
  -21.7560   -6.2960   22.5860 C   0  0  0  0  0  0  0  0  0  0  0  0
  -21.2230   -6.8570   23.7670 C   0  0  0  0  0  3  0  0  0  0  0  0
  -21.0820   -6.0630   24.9230 C   0  0  0  0  0  3  0  0  0  0  0  0
  -21.4640   -4.7080   24.8980 C   0  0  0  0  0  0  0  0  0  0  0  0
  -21.9910   -4.1460   23.7220 C   0  0  0  0  0  3  0  0  0  0  0  0
  -22.1330   -4.9380   22.5680 C   0  0  0  0  0  0  0  0  0  0  0  0
  -22.6210   -4.3850   21.4310 F   0  0  0  0  0  0  0  0  0  0  0  0
  -21.3230   -3.9430   26.0050 F   0  0  0  0  0  0  0  0  0  0  0  0
  -22.9440  -13.6550   21.1610 C   0  0  0  0  0  0  0  0  0  0  0  0
  -22.2270  -12.9450   22.0240 N   0  0  0  0  0  0  0  0  0  0  0  0
  -22.5040  -14.6920   20.6660 O   0  0  0  0  0  0  0  0  0  0  0  0
  -22.5970  -12.1060   22.4460 H   0  0  0  0  0  0  0  0  0  0  0  0
  -21.2950  -13.2460   22.2680 H   0  0  0  0  0  0  0  0  0  0  0  0
  -25.5560  -15.3280   20.3110 N   0  0  0  0  0  0  0  0  0  0  0  0
  -24.7830  -15.9740   20.4280 H   0  0  0  0  0  0  0  0  0  0  0  0
  -26.3750  -15.7630   19.9060 H   0  0  0  0  0  0  0  0  0  0  0  0
  -28.2960  -23.8760   20.3340 C   0  0  0  0  0  2  0  0  0  0  0  0
  -28.7410  -25.3160   18.2130 C   0  0  0  0  0  1  0  0  0  0  0  0
  -30.3720  -25.3070   20.0780 C   0  0  0  0  0  1  0  0  0  0  0  0
  -28.8650  -25.2800   19.7490 C   0  0  2  0  0  0  0  0  0  0  0  0
  -28.5240  -26.6160   20.3450 O   0  0  0  0  0  0  0  0  0  0  0  0
  -24.6330  -31.9310   23.2720 C   0  0  0  0  0  0  0  0  0  0  0  0
  -27.3530  -27.3920   20.2450 C   0  0  0  0  0  0  0  0  0  0  0  0
  -23.4710  -30.5130   21.6160 C   0  0  0  0  0  3  0  0  0  0  0  0
  -24.9600  -28.9790   20.2060 C   0  0  0  0  0  0  0  0  0  0  0  0
  -26.0060  -30.8690   21.4600 C   0  0  0  0  0  2  0  0  0  0  0  0
  -26.1130  -29.4880   20.8120 C   0  0  0  0  0  0  0  0  0  0  0  0
  -27.3070  -28.7070   20.8160 C   0  0  0  0  0  3  0  0  0  0  0  0
  -26.1660  -26.9230   19.6440 C   0  0  0  0  0  3  0  0  0  0  0  0
  -24.9900  -27.7040   19.6140 C   0  0  0  0  0  3  0  0  0  0  0  0
  -23.7110  -29.8380   20.2390 C   0  0  0  0  0  2  0  0  0  0  0  0
  -24.7220  -31.1220   22.1730 N   0  0  0  0  0  0  0  0  0  0  0  0
  -23.5390  -32.1900   23.7940 O   0  0  0  0  0  0  0  0  0  0  0  0
  -22.8120  -29.4890   22.5710 C   0  0  0  0  0  0  0  0  0  0  0  0
  -21.4880  -29.2990   22.4340 N   0  0  0  0  0  0  0  0  0  0  0  0
  -23.4900  -28.8670   23.3910 O   0  0  0  0  0  0  0  0  0  0  0  0
  -21.0000  -29.8540   21.7450 H   0  0  0  0  0  0  0  0  0  0  0  0
  -18.1160  -28.0870   22.9240 C   0  0  0  0  0  0  0  0  0  0  0  0
  -20.6730  -28.3510   23.1940 C   0  0  0  0  0  3  0  0  0  0  0  0
  -20.7790  -26.9270   22.6030 C   0  0  0  0  0  2  0  0  0  0  0  0
  -19.6780  -26.6130   21.5850 C   0  0  0  0  0  2  0  0  0  0  0  0
  -18.2960  -26.7460   22.2320 C   0  0  0  0  0  2  0  0  0  0  0  0
  -19.2320  -28.8480   23.3610 C   0  0  0  0  0  0  0  0  0  0  0  0
  -19.0090  -30.1020   23.9690 C   0  0  0  0  0  3  0  0  0  0  0  0
  -17.7030  -30.5970   24.1410 C   0  0  0  0  0  3  0  0  0  0  0  0
  -16.6010  -29.8330   23.7200 C   0  0  0  0  0  3  0  0  0  0  0  0
  -16.8080  -28.5790   23.1160 C   0  0  0  0  0  3  0  0  0  0  0  0
  -25.8970  -32.5820   23.9120 C   0  0  0  0  0  3  0  0  0  0  0  0
  -25.5700  -33.9840   24.2140 N   0  0  0  0  0  0  0  0  0  0  0  0
  -25.9040  -35.0290   23.4460 C   0  0  0  0  0  0  0  0  0  0  0  0
  -26.5900  -34.9140   22.4250 O   0  0  0  0  0  0  0  0  0  0  0  0
  -24.9610  -34.1450   25.0030 H   0  0  0  0  0  0  0  0  0  0  0  0
  -24.1840  -36.8140   23.0210 C   0  0  0  0  0  1  0  0  0  0  0  0
  -25.4000  -36.4200   23.8740 C   0  0  0  0  0  3  0  0  0  0  0  0
  -27.5000  -37.3270   24.7690 C   0  0  0  0  0  1  0  0  0  0  0  0
  -26.4330  -37.4760   23.7810 N   0  0  0  0  0  0  0  0  0  0  0  0
  -26.0200  -38.3970   23.8980 H   0  0  0  0  0  0  0  0  0  0  0  0
  -26.3910  -31.8370   25.2120 C   0  0  1  0  0  0  0  0  0  0  0  0
  -25.2730  -31.6010   26.2570 C   0  0  0  0  0  1  0  0  0  0  0  0
  -26.9990  -30.4610   24.8560 C   0  0  0  0  0  1  0  0  0  0  0  0
  -27.5140  -32.6540   25.8920 C   0  0  0  0  0  1  0  0  0  0  0  0
  2  1  2  0
  3  4  2  0
  4  1  1  0
  5  3  1  0
  5 48  1  0
  6  3  1  0
  6  2  1  0
  7  5  1  0
  8 17  1  0
  9 14  1  0
 10 11  1  0
 10  9  1  0
 12 11  1  0
 12 23  1  0
 12 13  1  0
 14  8  1  0
 14 13  1  0
 15  8  2  0
 16  2  1  0
 16 17  1  0
 17 19  1  0
 18 16  2  0
 20 21  2  0
 21 40  1  0
 22 21  1  0
 22 25  1  0
 23 24  1  0
 23 20  1  0
 24 22  2  0
 25 26  1  0
 26 27  2  0
 28 31  1  0
 28 27  1  0
 29 28  2  0
 30 29  1  0
 30 25  2  0
 31 32  1  0
 32 33  1  0
 33 34  2  0
 35 34  1  0
 35 39  1  0
 36 35  2  0
 37 32  2  0
 37 36  1  0
 38 37  1  0
 40 41  1  0
 41 44  1  0
 41 43  1  0
 42 40  2  0
 45 46  1  0
 45 20  1  0
 47 45  1  0
 51 49  1  6
 51 50  1  0
 51 48  1  0
 51 52  1  0
 53 64  2  0
 54 52  1  0
 54 59  1  0
 55 63  1  0
 55 65  1  0
 56 62  1  0
 56 58  1  0
 57 63  1  0
 58 59  2  0
 58 57  1  0
 60 54  2  0
 61 60  1  0
 61 56  2  0
 62 55  1  0
 63 53  1  0
 65 67  2  0
 66 65  1  0
 68 66  1  0
 69 78  2  0
 69 74  1  0
 70 66  1  0
 70 74  1  0
 71 70  1  0
 72 73  1  0
 72 71  1  0
 73 69  1  0
 74 75  2  0
 75 76  1  0
 77 76  2  0
 78 77  1  0
 79 53  1  0
 79 80  1  0
 79 89  1  0
 80 83  1  0
 81 85  1  0
 81 80  1  0
 82 81  2  0
 85 84  1  0
 87 85  1  0
 87 88  1  0
 87 86  1  0
 89 92  1  1
 89 90  1  0
 91 89  1  0
M  ISO  4   8 100  17 100  51 101  52 101
M  END
>  <TORSDO>  (21) 
F 18

>  <SCORE>  (21) 
-14.473

>  <name>  (21) 
20

>  <ligand_id>  (21) 
20

>  <original_smiles>  (21) 
[H]c1nc(N([H])C([H])([H])C(Oc2c([H])c([H])c3c(c2[H])C([H])([H])N(C(=O)C([H])(N([H])C(=O)C([H])(N([H])C([H])([H])[H])C([H])([H])[H])C(C([H])([H])[H])(C([H])([H])[H])C([H])([H])[H])C([H])(C(=O)N([H])C2([H])c4c([H])c([H])c([H])c([H])c4C([H])([H])C([H])([H])C2([H])[H])C3([H])[H])(C([H])([H])[H])C([H])([H])[H])sc1C(=O)N([H])C(=O)N1C([H])([H])C([H])([H])C([H])([H])C([H])(n2nc(-c3c([H])c([H])c(Oc4c([H])c([H])c(F)c([H])c4F)c([H])c3[H])c(C(=O)N([H])[H])c2N([H])[H])C1([H])[H]

>  <smiles>  (21) 
[H]c1nc(N([H])C([H])([H])C(Oc2c([H])c([H])c3c(c2[H])C([H])([H])N(C(=O)C([H])(N([H])C(=O)C([H])(N([H])C([H])([H])[H])C([H])([H])[H])C(C([H])([H])[H])(C([H])([H])[H])C([H])([H])[H])C([H])(C(=O)N([H])C2([H])c4c([H])c([H])c([H])c([H])c4C([H])([H])C([H])([H])C2([H])[H])C3([H])[H])(C([H])([H])[H])C([H])([H])[H])sc1C(=O)N([H])C(=O)N1C([H])([H])C([H])([H])C([H])([H])C([H])(n2nc(-c3c([H])c([H])c(Oc4c([H])c([H])c(F)c([H])c4F)c([H])c3[H])c(C(=O)N([H])[H])c2N([H])[H])C1([H])[H]

$$$$
21:0:0
     RDKit          3D

 95103  0  0  1  0  0  0  0  0999 V2000
  -29.0810  -21.8470   20.4320 C   0  0  0  0  0  0  0  0  0  0  0  0
  -28.6900  -20.5550   20.2870 N   0  0  0  0  0  0  0  0  0  0  0  0
  -30.2560  -22.2130   20.5500 O   0  0  0  0  0  0  0  0  0  0  0  0
  -27.6940  -20.4060   20.3780 H   0  0  0  0  0  0  0  0  0  0  0  0
  -29.3260  -18.1360   20.4300 C   0  0  0  0  0  3  0  0  0  0  0  0
  -30.9350  -17.2090   18.8570 C   0  0  0  0  0  3  0  0  0  0  0  0
  -30.0630  -17.0040   19.9560 C   0  0  0  0  0  0  0  0  0  0  0  0
  -29.4880  -19.4340   19.8530 C   0  0  0  0  0  0  0  0  0  0  0  0
  -31.0950  -18.4770   18.2730 C   0  0  0  0  0  0  0  0  0  0  0  0
  -30.3760  -19.5810   18.7590 C   0  0  0  0  0  0  0  0  0  0  0  0
  -31.9290  -18.6290   17.2160 F   0  0  0  0  0  0  0  0  0  0  0  0
  -30.5140  -20.7690   18.1220 F   0  0  0  0  0  0  0  0  0  0  0  0
  -30.6540  -14.5830   20.3790 C   0  0  0  0  0  0  0  0  0  0  0  0
  -30.4090  -12.3610   19.3660 C   0  0  0  0  0  2  0  0  0  0  0  0
  -29.4730  -12.4960   18.1470 C   0  0  0  0  0  2  0  0  0  0  0  0
  -28.0040  -12.3330   18.5830 C   0  0  0  0  0  2  0  0  0  0  0  0
  -27.6360  -13.2250   19.7990 C   0  0  0  0  0  3  0  0  0  0  0  0
  -28.6900  -13.0970   20.9240 C   0  0  0  0  0  2  0  0  0  0  0  0
  -30.0070  -13.3860   20.3440 N   0  0  0  0  0  0  0  0  0  0  0  0
  -31.8460  -14.6820   20.0860 O   0  0  0  0  0  0  0  0  0  0  0  0
  -29.8660  -15.6830   20.5280 N   0  0  0  0  0  0  0  0  0  0  0  0
  -28.9490  -15.5010   20.9060 H   0  0  0  0  0  0  0  0  0  0  0  0
  -25.2410  -13.8220   20.5090 C   0  0  0  0  0  0  0  0  0  0  0  0
  -24.1740  -13.0460   20.8780 C   0  0  0  0  0  0  0  0  0  0  0  0
  -24.6410  -11.6970   20.8540 C   0  0  0  0  0  0  0  0  0  0  0  0
  -26.2870  -12.9440   20.2820 N   0  0  0  0  0  0  0  0  0  0  0  0
  -25.9330  -11.6610   20.5510 N   0  0  0  0  0  0  0  0  0  0  0  0
  -23.9200  -10.4320   21.0460 C   0  0  0  0  0  0  0  0  0  0  0  0
  -24.3620   -9.4660   21.9770 C   0  0  0  0  0  3  0  0  0  0  0  0
  -23.6450   -8.2630   22.1560 C   0  0  0  0  0  3  0  0  0  0  0  0
  -22.4700   -8.0200   21.4030 C   0  0  0  0  0  0  0  0  0  0  0  0
  -22.0460   -8.9750   20.4620 C   0  0  0  0  0  3  0  0  0  0  0  0
  -22.7650  -10.1680   20.2820 C   0  0  0  0  0  3  0  0  0  0  0  0
  -21.7240   -6.8690   21.4890 O   0  0  0  0  0  0  0  0  0  0  0  0
  -21.6890   -6.1180   22.6370 C   0  0  0  0  0  0  0  0  0  0  0  0
  -21.2670   -6.6620   23.8700 C   0  0  0  0  0  3  0  0  0  0  0  0
  -21.1810   -5.8370   25.0100 C   0  0  0  0  0  3  0  0  0  0  0  0
  -21.5070   -4.4700   24.9170 C   0  0  0  0  0  0  0  0  0  0  0  0
  -21.9230   -3.9280   23.6890 C   0  0  0  0  0  3  0  0  0  0  0  0
  -22.0100   -4.7500   22.5510 C   0  0  0  0  0  0  0  0  0  0  0  0
  -22.3910   -4.2170   21.3660 F   0  0  0  0  0  0  0  0  0  0  0  0
  -21.4170   -3.6750   26.0080 F   0  0  0  0  0  0  0  0  0  0  0  0
  -22.7740  -13.5190   21.1450 C   0  0  0  0  0  0  0  0  0  0  0  0
  -22.0460  -12.8210   22.0090 N   0  0  0  0  0  0  0  0  0  0  0  0
  -22.3330  -14.5440   20.6240 O   0  0  0  0  0  0  0  0  0  0  0  0
  -22.4130  -11.9960   22.4570 H   0  0  0  0  0  0  0  0  0  0  0  0
  -21.1070  -13.1230   22.2310 H   0  0  0  0  0  0  0  0  0  0  0  0
  -25.4030  -15.1920   20.3250 N   0  0  0  0  0  0  0  0  0  0  0  0
  -24.6410  -15.8510   20.4300 H   0  0  0  0  0  0  0  0  0  0  0  0
  -26.2500  -15.6180   19.9710 H   0  0  0  0  0  0  0  0  0  0  0  0
  -27.8860  -22.8620   20.4980 C   0  0  0  0  0  0  0  0  0  0  0  0
  -26.7320  -22.5110   20.2250 O   0  0  0  0  0  0  0  0  0  0  0  0
  -28.1550  -24.3220   20.9470 C   0  0  0  0  0  2  0  0  0  0  0  0
  -28.5300  -25.3240   19.8180 C   0  0  0  0  0  2  0  0  0  0  0  0
  -28.4690  -26.7150   20.2260 O   0  0  0  0  0  0  0  0  0  0  0  0
  -24.6030  -31.9030   23.2450 C   0  0  0  0  0  0  0  0  0  0  0  0
  -27.2790  -27.4260   20.1990 C   0  0  0  0  0  0  0  0  0  0  0  0
  -23.4170  -30.4940   21.5960 C   0  0  0  0  0  3  0  0  0  0  0  0
  -24.8840  -28.9560   20.1850 C   0  0  0  0  0  0  0  0  0  0  0  0
  -25.9470  -30.8500   21.4230 C   0  0  0  0  0  2  0  0  0  0  0  0
  -26.0380  -29.4750   20.7830 C   0  0  0  0  0  0  0  0  0  0  0  0
  -27.2350  -28.7210   20.7800 C   0  0  0  0  0  3  0  0  0  0  0  0
  -26.0960  -26.9230   19.6070 C   0  0  0  0  0  3  0  0  0  0  0  0
  -24.9090  -27.6810   19.5950 C   0  0  0  0  0  3  0  0  0  0  0  0
  -23.6400  -29.8150   20.2180 C   0  0  0  0  0  2  0  0  0  0  0  0
  -24.6740  -31.0980   22.1460 N   0  0  0  0  0  0  0  0  0  0  0  0
  -23.5150  -32.1760   23.7730 O   0  0  0  0  0  0  0  0  0  0  0  0
  -22.7590  -29.4730   22.5540 C   0  0  0  0  0  0  0  0  0  0  0  0
  -21.4350  -29.2910   22.4170 N   0  0  0  0  0  0  0  0  0  0  0  0
  -23.4370  -28.8470   23.3730 O   0  0  0  0  0  0  0  0  0  0  0  0
  -20.9530  -29.8490   21.7250 H   0  0  0  0  0  0  0  0  0  0  0  0
  -18.0540  -28.1100   22.9010 C   0  0  0  0  0  0  0  0  0  0  0  0
  -20.6120  -28.3550   23.1820 C   0  0  0  0  0  3  0  0  0  0  0  0
  -20.7090  -26.9260   22.6010 C   0  0  0  0  0  2  0  0  0  0  0  0
  -19.6090  -26.6130   21.5820 C   0  0  0  0  0  2  0  0  0  0  0  0
  -18.2250  -26.7630   22.2200 C   0  0  0  0  0  2  0  0  0  0  0  0
  -19.1750  -28.8650   23.3380 C   0  0  0  0  0  0  0  0  0  0  0  0
  -18.9620  -30.1270   23.9360 C   0  0  0  0  0  3  0  0  0  0  0  0
  -17.6590  -30.6330   24.1010 C   0  0  0  0  0  3  0  0  0  0  0  0
  -16.5520  -29.8760   23.6810 C   0  0  0  0  0  3  0  0  0  0  0  0
  -16.7500  -28.6160   23.0880 C   0  0  0  0  0  3  0  0  0  0  0  0
  -25.8810  -32.5390   23.8760 C   0  0  0  0  0  3  0  0  0  0  0  0
  -26.3870  -31.7740   25.1590 C   0  0  1  0  0  0  0  0  0  0  0  0
  -25.2840  -31.5420   26.2190 C   0  0  0  0  0  1  0  0  0  0  0  0
  -26.9720  -30.3930   24.7780 C   0  0  0  0  0  1  0  0  0  0  0  0
  -27.5340  -32.5710   25.8240 C   0  0  0  0  0  1  0  0  0  0  0  0
  -25.5670  -33.9380   24.1960 N   0  0  0  0  0  0  0  0  0  0  0  0
  -25.9060  -34.9870   23.4340 C   0  0  0  0  0  0  0  0  0  0  0  0
  -26.5890  -34.8780   22.4120 O   0  0  0  0  0  0  0  0  0  0  0  0
  -24.9640  -34.0970   24.9900 H   0  0  0  0  0  0  0  0  0  0  0  0
  -24.1810  -36.7760   23.0440 C   0  0  0  0  0  1  0  0  0  0  0  0
  -25.4100  -36.3770   23.8770 C   0  0  0  0  0  3  0  0  0  0  0  0
  -27.5340  -37.2640   24.7350 C   0  0  0  0  0  1  0  0  0  0  0  0
  -26.4440  -37.4300   23.7770 N   0  0  0  0  0  0  0  0  0  0  0  0
  -26.0350  -38.3510   23.9180 H   0  0  0  0  0  0  0  0  0  0  0  0
  1 51  1  0
  1  3  2  0
  2  4  1  0
  2  1  1  0
  6  7  2  0
  7  5  1  0
  7 21  1  0
  8  2  1  0
  8  5  2  0
  9 10  2  0
  9  6  1  0
 10  8  1  0
 11  9  1  0
 12 10  1  0
 13 21  1  0
 14 19  1  0
 15 16  1  0
 15 14  1  0
 17 16  1  0
 17 26  1  0
 17 18  1  0
 19 13  1  0
 19 18  1  0
 20 13  2  0
 21 22  1  0
 23 24  2  0
 24 43  1  0
 25 24  1  0
 25 28  1  0
 26 23  1  0
 26 27  1  0
 27 25  2  0
 28 29  1  0
 29 30  2  0
 31 34  1  0
 31 30  1  0
 32 31  2  0
 33 32  1  0
 33 28  2  0
 34 35  1  0
 35 36  1  0
 36 37  2  0
 38 37  1  0
 38 42  1  0
 39 38  2  0
 40 35  2  0
 40 39  1  0
 41 40  1  0
 43 44  1  0
 44 47  1  0
 44 46  1  0
 45 43  2  0
 48 49  1  0
 48 23  1  0
 50 48  1  0
 51 53  1  0
 52 51  2  0
 54 55  1  0
 54 53  1  0
 56 67  2  0
 57 55  1  0
 57 62  1  0
 58 66  1  0
 58 68  1  0
 59 65  1  0
 59 61  1  0
 60 66  1  0
 61 60  1  0
 62 61  2  0
 63 57  2  0
 64 63  1  0
 64 59  2  0
 65 58  1  0
 66 56  1  0
 68 70  2  0
 69 68  1  0
 71 69  1  0
 72 81  2  0
 72 77  1  0
 73 69  1  0
 73 77  1  0
 74 73  1  0
 75 76  1  0
 75 74  1  0
 76 72  1  0
 77 78  2  0
 78 79  1  0
 80 79  2  0
 81 80  1  0
 82 56  1  0
 82 87  1  0
 82 83  1  0
 83 86  1  1
 83 84  1  0
 85 83  1  0
 87 90  1  0
 88 92  1  0
 88 87  1  0
 89 88  2  0
 92 91  1  0
 94 92  1  0
 94 95  1  0
 94 93  1  0
M  ISO  4  13 100  21 100  54 101  55 101
M  END
>  <TORSDO>  (22) 
F 20

>  <SCORE>  (22) 
-14.094

>  <name>  (22) 
21

>  <ligand_id>  (22) 
21

>  <original_smiles>  (22) 
[H]c1c([H])c([H])c2c(c1[H])C([H])([H])C([H])([H])C([H])([H])C2([H])N([H])C(=O)C1([H])N(C(=O)C([H])(N([H])C(=O)C([H])(N([H])C([H])([H])[H])C([H])([H])[H])C(C([H])([H])[H])(C([H])([H])[H])C([H])([H])[H])C([H])([H])c2c([H])c(OC([H])([H])C([H])([H])C(=O)C(=O)N([H])c3c([H])c(N([H])C(=O)N4C([H])([H])C([H])([H])C([H])([H])C([H])(n5nc(-c6c([H])c([H])c(Oc7c([H])c([H])c(F)c([H])c7F)c([H])c6[H])c(C(=O)N([H])[H])c5N([H])[H])C4([H])[H])c([H])c(F)c3F)c([H])c([H])c2C1([H])[H]

>  <smiles>  (22) 
[H]c1c([H])c([H])c2c(c1[H])C([H])([H])C([H])([H])C([H])([H])C2([H])N([H])C(=O)C1([H])N(C(=O)C([H])(N([H])C(=O)C([H])(N([H])C([H])([H])[H])C([H])([H])[H])C(C([H])([H])[H])(C([H])([H])[H])C([H])([H])[H])C([H])([H])c2c([H])c(OC([H])([H])C([H])([H])C(=O)C(=O)N([H])c3c([H])c(N([H])C(=O)N4C([H])([H])C([H])([H])C([H])([H])C([H])(n5nc(-c6c([H])c([H])c(Oc7c([H])c([H])c(F)c([H])c7F)c([H])c6[H])c(C(=O)N([H])[H])c5N([H])[H])C4([H])[H])c([H])c(F)c3F)c([H])c([H])c2C1([H])[H]

$$$$
22:0:0
     RDKit          3D

 96104  0  0  1  0  0  0  0  0999 V2000
  -29.9880  -22.0550   20.6200 C   0  0  0  0  0  0  0  0  0  0  0  0
  -30.4350  -21.0550   21.4080 N   0  0  0  0  0  0  0  0  0  0  0  0
  -29.6680  -21.8830   19.4400 O   0  0  0  0  0  0  0  0  0  0  0  0
  -30.6050  -21.3380   22.3680 H   0  0  0  0  0  0  0  0  0  0  0  0
  -31.3210  -14.6140   19.7490 C   0  0  0  0  0  0  0  0  0  0  0  0
  -30.8940  -12.5080   18.5180 C   0  0  0  0  0  2  0  0  0  0  0  0
  -29.7790  -12.7370   17.4760 C   0  0  0  0  0  2  0  0  0  0  0  0
  -28.3820  -12.5650   18.1060 C   0  0  0  0  0  2  0  0  0  0  0  0
  -28.2270  -13.3480   19.4360 C   0  0  0  0  0  3  0  0  0  0  0  0
  -29.4250  -13.0650   20.3700 C   0  0  0  0  0  2  0  0  0  0  0  0
  -30.6630  -13.4210   19.6500 N   0  0  0  0  0  0  0  0  0  0  0  0
  -32.3040  -14.8870   19.0500 O   0  0  0  0  0  0  0  0  0  0  0  0
  -30.8980  -19.0730   19.9010 C   0  0  0  0  0  3  0  0  0  0  0  0
  -30.5790  -19.6550   21.1510 C   0  0  0  0  0  0  0  0  0  0  0  0
  -30.4100  -18.7750   22.2340 C   0  0  0  0  0  0  0  0  0  0  0  0
  -30.5140  -17.3830   22.0380 C   0  0  0  0  0  0  0  0  0  0  0  0
  -30.8290  -16.8830   20.7560 C   0  0  0  0  0  0  0  0  0  0  0  0
  -31.0240  -17.7320   19.7100 N   0  0  0  0  0  0  0  0  0  0  0  0
  -30.8180  -15.4590   20.6690 N   0  0  0  0  0  0  0  0  0  0  0  0
  -30.1230  -19.2730   23.4660 F   0  0  0  0  0  0  0  0  0  0  0  0
  -30.2990  -16.5250   23.0680 F   0  0  0  0  0  0  0  0  0  0  0  0
  -30.2090  -15.0270   21.3460 H   0  0  0  0  0  0  0  0  0  0  0  0
  -25.9810  -13.9250   20.5600 C   0  0  0  0  0  0  0  0  0  0  0  0
  -24.9560  -13.1370   21.0110 C   0  0  0  0  0  0  0  0  0  0  0  0
  -25.3620  -11.7880   20.7740 C   0  0  0  0  0  0  0  0  0  0  0  0
  -26.9490  -13.0530   20.0840 N   0  0  0  0  0  0  0  0  0  0  0  0
  -26.5870  -11.7570   20.2670 N   0  0  0  0  0  0  0  0  0  0  0  0
  -24.6320  -10.5250   20.9450 C   0  0  0  0  0  0  0  0  0  0  0  0
  -25.0400   -9.5590   21.8900 C   0  0  0  0  0  3  0  0  0  0  0  0
  -24.3110   -8.3610   22.0500 C   0  0  0  0  0  3  0  0  0  0  0  0
  -23.1590   -8.1210   21.2630 C   0  0  0  0  0  0  0  0  0  0  0  0
  -22.7700   -9.0760   20.3080 C   0  0  0  0  0  3  0  0  0  0  0  0
  -23.5000  -10.2660   20.1480 C   0  0  0  0  0  3  0  0  0  0  0  0
  -22.4030   -6.9750   21.3310 O   0  0  0  0  0  0  0  0  0  0  0  0
  -22.1400   -6.3580   22.5260 C   0  0  0  0  0  0  0  0  0  0  0  0
  -21.5000   -7.0310   23.5890 C   0  0  0  0  0  3  0  0  0  0  0  0
  -21.1870   -6.3380   24.7760 C   0  0  0  0  0  3  0  0  0  0  0  0
  -21.5050   -4.9720   24.8970 C   0  0  0  0  0  0  0  0  0  0  0  0
  -22.1380   -4.2980   23.8380 C   0  0  0  0  0  3  0  0  0  0  0  0
  -22.4520   -4.9890   22.6550 C   0  0  0  0  0  0  0  0  0  0  0  0
  -23.0430   -4.3310   21.6290 F   0  0  0  0  0  0  0  0  0  0  0  0
  -21.1970   -4.3020   26.0330 F   0  0  0  0  0  0  0  0  0  0  0  0
  -23.6340  -13.6080   21.5440 C   0  0  0  0  0  0  0  0  0  0  0  0
  -23.0510  -12.8670   22.4800 N   0  0  0  0  0  0  0  0  0  0  0  0
  -23.1320  -14.6660   21.1660 O   0  0  0  0  0  0  0  0  0  0  0  0
  -23.4720  -12.0080   22.8040 H   0  0  0  0  0  0  0  0  0  0  0  0
  -22.1720  -13.1620   22.8790 H   0  0  0  0  0  0  0  0  0  0  0  0
  -26.1620  -15.3030   20.4920 N   0  0  0  0  0  0  0  0  0  0  0  0
  -25.4350  -15.9540   20.7690 H   0  0  0  0  0  0  0  0  0  0  0  0
  -26.9530  -15.7570   20.0530 H   0  0  0  0  0  0  0  0  0  0  0  0
  -29.8500  -23.4280   21.3240 C   0  0  0  0  0  3  0  0  0  0  0  0
  -30.7270  -23.4870   22.3350 F   0  0  0  0  0  0  0  0  0  0  0  0
  -30.0320  -24.6590   20.4050 C   0  0  0  0  0  0  0  0  0  0  0  0
  -31.1510  -25.1460   20.1860 O   0  0  0  0  0  0  0  0  0  0  0  0
  -28.7650  -25.3130   19.8270 C   0  0  0  0  0  2  0  0  0  0  0  0
  -28.8090  -26.7400   20.0150 O   0  0  0  0  0  0  0  0  0  0  0  0
  -24.8520  -31.7360   23.1830 C   0  0  0  0  0  0  0  0  0  0  0  0
  -27.6080  -27.4210   20.0130 C   0  0  0  0  0  0  0  0  0  0  0  0
  -23.6810  -30.3360   21.5160 C   0  0  0  0  0  3  0  0  0  0  0  0
  -25.1720  -28.8670   20.0590 C   0  0  0  0  0  0  0  0  0  0  0  0
  -26.1950  -30.7650   21.3200 C   0  0  0  0  0  2  0  0  0  0  0  0
  -26.3160  -29.4070   20.6570 C   0  0  0  0  0  0  0  0  0  0  0  0
  -27.5340  -28.6900   20.6360 C   0  0  0  0  0  3  0  0  0  0  0  0
  -26.4420  -26.9020   19.4000 C   0  0  0  0  0  3  0  0  0  0  0  0
  -25.2290  -27.6130   19.4300 C   0  0  0  0  0  3  0  0  0  0  0  0
  -23.9040  -29.6890   20.1220 C   0  0  0  0  0  2  0  0  0  0  0  0
  -24.9280  -30.9590   22.0660 N   0  0  0  0  0  0  0  0  0  0  0  0
  -23.7650  -31.9670   23.7310 O   0  0  0  0  0  0  0  0  0  0  0  0
  -23.0610  -29.2770   22.4560 C   0  0  0  0  0  0  0  0  0  0  0  0
  -21.7410  -29.0620   22.3280 N   0  0  0  0  0  0  0  0  0  0  0  0
  -23.7630  -28.6530   23.2550 O   0  0  0  0  0  0  0  0  0  0  0  0
  -21.2350  -29.6210   21.6570 H   0  0  0  0  0  0  0  0  0  0  0  0
  -18.3990  -27.7780   22.8030 C   0  0  0  0  0  0  0  0  0  0  0  0
  -20.9500  -28.0880   23.0790 C   0  0  0  0  0  3  0  0  0  0  0  0
  -21.0860  -26.6720   22.4730 C   0  0  0  0  0  2  0  0  0  0  0  0
  -19.9900  -26.3460   21.4520 C   0  0  0  0  0  2  0  0  0  0  0  0
  -18.6060  -26.4460   22.1000 C   0  0  0  0  0  2  0  0  0  0  0  0
  -19.5000  -28.5560   23.2490 C   0  0  0  0  0  0  0  0  0  0  0  0
  -19.2530  -29.8040   23.8620 C   0  0  0  0  0  3  0  0  0  0  0  0
  -17.9360  -30.2710   24.0370 C   0  0  0  0  0  3  0  0  0  0  0  0
  -16.8490  -29.4890   23.6090 C   0  0  0  0  0  3  0  0  0  0  0  0
  -17.0820  -28.2450   22.9970 C   0  0  0  0  0  3  0  0  0  0  0  0
  -26.1210  -32.3900   23.8130 C   0  0  0  0  0  3  0  0  0  0  0  0
  -26.7200  -31.5560   25.0110 C   0  0  1  0  0  0  0  0  0  0  0  0
  -25.6700  -31.1510   26.0710 C   0  0  0  0  0  1  0  0  0  0  0  0
  -27.3930  -30.2640   24.4900 C   0  0  0  0  0  1  0  0  0  0  0  0
  -27.8220  -32.3750   25.7220 C   0  0  0  0  0  1  0  0  0  0  0  0
  -25.7520  -33.7410   24.2530 N   0  0  0  0  0  0  0  0  0  0  0  0
  -26.0000  -34.8600   23.5610 C   0  0  0  0  0  0  0  0  0  0  0  0
  -26.6400  -34.8670   22.5050 O   0  0  0  0  0  0  0  0  0  0  0  0
  -25.1780  -33.8050   25.0820 H   0  0  0  0  0  0  0  0  0  0  0  0
  -24.1670  -36.5700   23.3930 C   0  0  0  0  0  1  0  0  0  0  0  0
  -25.4570  -36.1840   24.1340 C   0  0  0  0  0  3  0  0  0  0  0  0
  -27.5680  -37.1300   24.9550 C   0  0  0  0  0  1  0  0  0  0  0  0
  -26.4260  -37.2990   24.0610 N   0  0  0  0  0  0  0  0  0  0  0  0
  -25.9740  -38.1810   24.2870 H   0  0  0  0  0  0  0  0  0  0  0  0
  1 51  1  0
  1  2  1  0
  2  4  1  0
  3  1  2  0
  5 19  1  0
  6 11  1  0
  7  8  1  0
  7  6  1  0
  9  8  1  0
  9 26  1  0
  9 10  1  0
 11  5  1  0
 11 10  1  0
 12  5  2  0
 13 14  1  0
 14  2  1  0
 14 15  2  0
 15 20  1  0
 16 15  1  0
 16 21  1  0
 17 16  2  0
 18 13  2  0
 18 17  1  0
 19 17  1  0
 19 22  1  0
 23 24  2  0
 24 43  1  0
 25 28  1  0
 25 24  1  0
 26 27  1  0
 26 23  1  0
 27 25  2  0
 28 29  1  0
 29 30  2  0
 31 34  1  0
 31 30  1  0
 32 31  2  0
 33 32  1  0
 33 28  2  0
 34 35  1  0
 35 40  2  0
 35 36  1  0
 36 37  2  0
 37 38  1  0
 38 42  1  0
 39 38  2  0
 40 39  1  0
 41 40  1  0
 43 44  1  0
 44 46  1  0
 44 47  1  0
 45 43  2  0
 48 23  1  0
 48 49  1  0
 50 48  1  0
 51 52  1  0
 53 51  1  0
 54 53  2  0
 55 56  1  0
 55 53  1  0
 57 68  2  0
 58 56  1  0
 58 63  1  0
 59 67  1  0
 59 69  1  0
 60 66  1  0
 60 62  1  0
 61 67  1  0
 62 61  1  0
 63 62  2  0
 64 65  1  0
 64 58  2  0
 65 60  2  0
 66 59  1  0
 67 57  1  0
 69 71  2  0
 70 69  1  0
 72 70  1  0
 73 82  2  0
 73 78  1  0
 74 70  1  0
 74 78  1  0
 75 74  1  0
 76 77  1  0
 76 75  1  0
 77 73  1  0
 78 79  2  0
 79 80  1  0
 81 80  2  0
 82 81  1  0
 83 57  1  0
 83 88  1  0
 83 84  1  0
 84 87  1  1
 84 85  1  0
 86 84  1  0
 88 91  1  0
 89 93  1  0
 89 88  1  0
 90 89  2  0
 93 92  1  0
 95 93  1  0
 95 96  1  0
 95 94  1  0
M  ISO  4   5 100  19 100  55 101  56 101
M  END
>  <TORSDO>  (23) 
F 19

>  <SCORE>  (23) 
-11.340

>  <name>  (23) 
22

>  <ligand_id>  (23) 
22

>  <original_smiles>  (23) 
[H]c1nc(N([H])C(=O)N2C([H])([H])C([H])([H])C([H])([H])C([H])(n3nc(-c4c([H])c([H])c(Oc5c([H])c([H])c(F)c([H])c5F)c([H])c4[H])c(C(=O)N([H])[H])c3N([H])[H])C2([H])[H])c(F)c(F)c1N([H])C(=O)C([H])(F)C(=O)C([H])([H])Oc1c([H])c([H])c2c(c1[H])C([H])([H])N(C(=O)C([H])(N([H])C(=O)C([H])(N([H])C([H])([H])[H])C([H])([H])[H])C(C([H])([H])[H])(C([H])([H])[H])C([H])([H])[H])C([H])(C(=O)N([H])C1([H])c3c([H])c([H])c([H])c([H])c3C([H])([H])C([H])([H])C1([H])[H])C2([H])[H]

>  <smiles>  (23) 
[H]c1nc(N([H])C(=O)N2C([H])([H])C([H])([H])C([H])([H])C([H])(n3nc(-c4c([H])c([H])c(Oc5c([H])c([H])c(F)c([H])c5F)c([H])c4[H])c(C(=O)N([H])[H])c3N([H])[H])C2([H])[H])c(F)c(F)c1N([H])C(=O)C([H])(F)C(=O)C([H])([H])Oc1c([H])c([H])c2c(c1[H])C([H])([H])N(C(=O)C([H])(N([H])C(=O)C([H])(N([H])C([H])([H])[H])C([H])([H])[H])C(C([H])([H])[H])(C([H])([H])[H])C([H])([H])[H])C([H])(C(=O)N([H])C1([H])c3c([H])c([H])c([H])c([H])c3C([H])([H])C([H])([H])C1([H])[H])C2([H])[H]

$$$$
23:0:0
     RDKit          3D

 94102  0  0  1  0  0  0  0  0999 V2000
  -28.7680  -20.3010   20.4780 C   0  0  0  0  0  0  0  0  0  0  0  0
  -27.6600  -20.1490   19.9480 O   0  0  0  0  0  0  0  0  0  0  0  0
  -30.6560  -14.5100   20.3740 C   0  0  0  0  0  0  0  0  0  0  0  0
  -30.3480  -12.3510   19.2180 C   0  0  0  0  0  2  0  0  0  0  0  0
  -29.3910  -12.5650   18.0260 C   0  0  0  0  0  2  0  0  0  0  0  0
  -27.9210  -12.4270   18.4740 C   0  0  0  0  0  2  0  0  0  0  0  0
  -27.6030  -13.2520   19.7510 C   0  0  0  0  0  3  0  0  0  0  0  0
  -28.6730  -13.0180   20.8430 C   0  0  0  0  0  2  0  0  0  0  0  0
  -29.9890  -13.3280   20.2590 N   0  0  0  0  0  0  0  0  0  0  0  0
  -31.7890  -14.6740   19.9100 O   0  0  0  0  0  0  0  0  0  0  0  0
  -29.7250  -19.1810   20.6800 C   0  0  0  0  0  0  0  0  0  0  0  0
  -31.1150  -19.2390   20.7240 C   0  0  0  0  0  0  0  0  0  0  0  0
  -30.2330  -16.9260   20.8160 C   0  0  0  0  0  0  0  0  0  0  0  0
  -29.2590  -17.8430   20.7560 N   0  0  0  0  0  0  0  0  0  0  0  0
  -29.9220  -15.5330   20.8620 N   0  0  0  0  0  0  0  0  0  0  0  0
  -31.8370  -17.6460   20.8480 S   0  0  0  0  0  0  0  0  0  0  0  0
  -28.9860  -15.2950   21.1410 H   0  0  0  0  0  0  0  0  0  0  0  0
  -25.2110  -13.8580   20.4810 C   0  0  0  0  0  0  0  0  0  0  0  0
  -24.1480  -13.0860   20.8630 C   0  0  0  0  0  0  0  0  0  0  0  0
  -24.6090  -11.7340   20.8280 C   0  0  0  0  0  0  0  0  0  0  0  0
  -26.2550  -12.9780   20.2420 N   0  0  0  0  0  0  0  0  0  0  0  0
  -25.8960  -11.6950   20.5080 N   0  0  0  0  0  0  0  0  0  0  0  0
  -23.8870  -10.4710   21.0270 C   0  0  0  0  0  0  0  0  0  0  0  0
  -24.3330   -9.5020   21.9520 C   0  0  0  0  0  3  0  0  0  0  0  0
  -23.6100   -8.3040   22.1380 C   0  0  0  0  0  3  0  0  0  0  0  0
  -22.4270   -8.0670   21.4000 C   0  0  0  0  0  0  0  0  0  0  0  0
  -22.0000   -9.0240   20.4640 C   0  0  0  0  0  3  0  0  0  0  0  0
  -22.7240  -10.2130   20.2740 C   0  0  0  0  0  3  0  0  0  0  0  0
  -21.6760   -6.9210   21.4960 O   0  0  0  0  0  0  0  0  0  0  0  0
  -21.6490   -6.1710   22.6440 C   0  0  0  0  0  0  0  0  0  0  0  0
  -21.2480   -6.7180   23.8820 C   0  0  0  0  0  3  0  0  0  0  0  0
  -21.1700   -5.8950   25.0240 C   0  0  0  0  0  3  0  0  0  0  0  0
  -21.4810   -4.5250   24.9270 C   0  0  0  0  0  0  0  0  0  0  0  0
  -21.8750   -3.9780   23.6940 C   0  0  0  0  0  3  0  0  0  0  0  0
  -21.9550   -4.7980   22.5550 C   0  0  0  0  0  0  0  0  0  0  0  0
  -22.3150   -4.2610   21.3650 F   0  0  0  0  0  0  0  0  0  0  0  0
  -21.3990   -3.7320   26.0210 F   0  0  0  0  0  0  0  0  0  0  0  0
  -22.7530  -13.5620   21.1520 C   0  0  0  0  0  0  0  0  0  0  0  0
  -22.0360  -12.8610   22.0240 N   0  0  0  0  0  0  0  0  0  0  0  0
  -22.3070  -14.5870   20.6380 O   0  0  0  0  0  0  0  0  0  0  0  0
  -22.4100  -12.0300   22.4590 H   0  0  0  0  0  0  0  0  0  0  0  0
  -21.1000  -13.1580   22.2610 H   0  0  0  0  0  0  0  0  0  0  0  0
  -25.3750  -15.2290   20.2980 N   0  0  0  0  0  0  0  0  0  0  0  0
  -24.6100  -15.8850   20.4170 H   0  0  0  0  0  0  0  0  0  0  0  0
  -26.2190  -15.6690   19.9540 H   0  0  0  0  0  0  0  0  0  0  0  0
  -32.0020  -20.3140   20.6550 N   0  0  0  0  0  0  0  0  0  0  0  0
  -31.7460  -21.2930   20.5700 H   0  0  0  0  0  0  0  0  0  0  0  0
  -33.0070  -20.1940   20.7400 H   0  0  0  0  0  0  0  0  0  0  0  0
  -29.0950  -21.7130   21.0190 C   0  0  0  0  0  2  0  0  0  0  0  0
  -28.8720  -22.8590   19.9810 C   0  0  0  0  0  2  0  0  0  0  0  0
  -28.5800  -24.2580   20.5640 C   0  0  0  0  0  0  0  0  0  0  0  0
  -28.3420  -24.4150   21.7650 O   0  0  0  0  0  0  0  0  0  0  0  0
  -28.6110  -25.4570   19.5810 C   0  0  0  0  0  2  0  0  0  0  0  0
  -28.4610  -26.7360   20.2390 O   0  0  0  0  0  0  0  0  0  0  0  0
  -24.6000  -31.9040   23.2540 C   0  0  0  0  0  0  0  0  0  0  0  0
  -27.2630  -27.4320   20.2050 C   0  0  0  0  0  0  0  0  0  0  0  0
  -23.4040  -30.4980   21.6090 C   0  0  0  0  0  3  0  0  0  0  0  0
  -24.8640  -28.9520   20.1990 C   0  0  0  0  0  0  0  0  0  0  0  0
  -25.9320  -30.8520   21.4250 C   0  0  0  0  0  2  0  0  0  0  0  0
  -26.0190  -29.4750   20.7900 C   0  0  0  0  0  0  0  0  0  0  0  0
  -27.2170  -28.7220   20.7920 C   0  0  0  0  0  3  0  0  0  0  0  0
  -26.0790  -26.9200   19.6230 C   0  0  0  0  0  3  0  0  0  0  0  0
  -24.8890  -27.6740   19.6160 C   0  0  0  0  0  3  0  0  0  0  0  0
  -23.6220  -29.8140   20.2330 C   0  0  0  0  0  2  0  0  0  0  0  0
  -24.6640  -31.1000   22.1540 N   0  0  0  0  0  0  0  0  0  0  0  0
  -23.5170  -32.1770   23.7870 O   0  0  0  0  0  0  0  0  0  0  0  0
  -22.7470  -29.4790   22.5690 C   0  0  0  0  0  0  0  0  0  0  0  0
  -21.4230  -29.2990   22.4370 N   0  0  0  0  0  0  0  0  0  0  0  0
  -23.4270  -28.8520   23.3870 O   0  0  0  0  0  0  0  0  0  0  0  0
  -20.9370  -29.8540   21.7460 H   0  0  0  0  0  0  0  0  0  0  0  0
  -18.0420  -28.1220   22.9330 C   0  0  0  0  0  0  0  0  0  0  0  0
  -20.6010  -28.3630   23.2050 C   0  0  0  0  0  3  0  0  0  0  0  0
  -20.6950  -26.9340   22.6240 C   0  0  0  0  0  2  0  0  0  0  0  0
  -19.5910  -26.6210   21.6100 C   0  0  0  0  0  2  0  0  0  0  0  0
  -18.2110  -26.7720   22.2530 C   0  0  0  0  0  2  0  0  0  0  0  0
  -19.1660  -28.8750   23.3640 C   0  0  0  0  0  0  0  0  0  0  0  0
  -18.9550  -30.1400   23.9570 C   0  0  0  0  0  3  0  0  0  0  0  0
  -17.6520  -30.6480   24.1240 C   0  0  0  0  0  3  0  0  0  0  0  0
  -16.5440  -29.8910   23.7100 C   0  0  0  0  0  3  0  0  0  0  0  0
  -16.7400  -28.6300   23.1180 C   0  0  0  0  0  3  0  0  0  0  0  0
  -25.8830  -32.5370   23.8800 C   0  0  0  0  0  3  0  0  0  0  0  0
  -25.5750  -33.9370   24.2010 N   0  0  0  0  0  0  0  0  0  0  0  0
  -25.9130  -34.9840   23.4370 C   0  0  0  0  0  0  0  0  0  0  0  0
  -26.5900  -34.8740   22.4110 O   0  0  0  0  0  0  0  0  0  0  0  0
  -24.9810  -34.0980   25.0010 H   0  0  0  0  0  0  0  0  0  0  0  0
  -24.1900  -36.7750   23.0560 C   0  0  0  0  0  1  0  0  0  0  0  0
  -25.4230  -36.3750   23.8820 C   0  0  0  0  0  3  0  0  0  0  0  0
  -27.5510  -37.2620   24.7270 C   0  0  0  0  0  1  0  0  0  0  0  0
  -26.4570  -37.4270   23.7720 N   0  0  0  0  0  0  0  0  0  0  0  0
  -26.0520  -38.3490   23.9100 H   0  0  0  0  0  0  0  0  0  0  0  0
  -26.3940  -31.7690   25.1600 C   0  0  1  0  0  0  0  0  0  0  0  0
  -25.2960  -31.5320   26.2230 C   0  0  0  0  0  1  0  0  0  0  0  0
  -26.9790  -30.3910   24.7730 C   0  0  0  0  0  1  0  0  0  0  0  0
  -27.5430  -32.5630   25.8250 C   0  0  0  0  0  1  0  0  0  0  0  0
  1 11  1  0
  1 49  1  0
  2  1  2  0
  3 15  1  0
  4  9  1  0
  5  6  1  0
  5  4  1  0
  7  6  1  0
  7 21  1  0
  7  8  1  0
  9  3  1  0
  9  8  1  0
 10  3  2  0
 11 12  2  0
 11 14  1  0
 12 16  1  0
 13 16  1  0
 13 15  1  0
 14 13  2  0
 15 17  1  0
 18 19  2  0
 19 38  1  0
 20 19  1  0
 20 23  1  0
 21 18  1  0
 21 22  1  0
 22 20  2  0
 23 24  1  0
 24 25  2  0
 26 29  1  0
 26 25  1  0
 27 26  2  0
 28 27  1  0
 28 23  2  0
 29 30  1  0
 30 31  1  0
 31 32  2  0
 33 32  1  0
 33 37  1  0
 34 33  2  0
 35 30  2  0
 35 34  1  0
 36 35  1  0
 38 39  1  0
 39 42  1  0
 39 41  1  0
 40 38  2  0
 43 44  1  0
 43 18  1  0
 45 43  1  0
 46 12  1  0
 46 48  1  0
 47 46  1  0
 50 51  1  0
 50 49  1  0
 51 52  2  0
 53 54  1  0
 53 51  1  0
 55 66  2  0
 56 54  1  0
 56 61  1  0
 57 65  1  0
 57 67  1  0
 58 64  1  0
 58 60  1  0
 59 65  1  0
 60 61  2  0
 60 59  1  0
 62 56  2  0
 63 62  1  0
 63 58  2  0
 64 57  1  0
 65 55  1  0
 67 69  2  0
 68 67  1  0
 70 68  1  0
 71 80  2  0
 71 76  1  0
 72 68  1  0
 72 76  1  0
 73 72  1  0
 74 75  1  0
 74 73  1  0
 75 71  1  0
 76 77  2  0
 77 78  1  0
 79 78  2  0
 80 79  1  0
 81 55  1  0
 81 82  1  0
 81 91  1  0
 82 85  1  0
 83 87  1  0
 83 82  1  0
 84 83  2  0
 87 86  1  0
 89 87  1  0
 89 90  1  0
 89 88  1  0
 91 94  1  1
 91 92  1  0
 93 91  1  0
M  ISO  4   3 100  15 100  53 101  54 101
M  END
>  <TORSDO>  (24) 
F 21

>  <SCORE>  (24) 
-13.938

>  <name>  (24) 
23

>  <ligand_id>  (24) 
23

>  <original_smiles>  (24) 
[H]c1c([H])c([H])c2c(c1[H])C([H])([H])C([H])([H])C([H])([H])C2([H])N([H])C(=O)C1([H])N(C(=O)C([H])(N([H])C(=O)C([H])(N([H])C([H])([H])[H])C([H])([H])[H])C(C([H])([H])[H])(C([H])([H])[H])C([H])([H])[H])C([H])([H])c2c([H])c(OC([H])([H])C(=O)C([H])([H])C([H])([H])C(=O)c3nc(N([H])C(=O)N4C([H])([H])C([H])([H])C([H])([H])C([H])(n5nc(-c6c([H])c([H])c(Oc7c([H])c([H])c(F)c([H])c7F)c([H])c6[H])c(C(=O)N([H])[H])c5N([H])[H])C4([H])[H])sc3N([H])[H])c([H])c([H])c2C1([H])[H]

>  <smiles>  (24) 
[H]c1c([H])c([H])c2c(c1[H])C([H])([H])C([H])([H])C([H])([H])C2([H])N([H])C(=O)C1([H])N(C(=O)C([H])(N([H])C(=O)C([H])(N([H])C([H])([H])[H])C([H])([H])[H])C(C([H])([H])[H])(C([H])([H])[H])C([H])([H])[H])C([H])([H])c2c([H])c(OC([H])([H])C(=O)C([H])([H])C([H])([H])C(=O)c3nc(N([H])C(=O)N4C([H])([H])C([H])([H])C([H])([H])C([H])(n5nc(-c6c([H])c([H])c(Oc7c([H])c([H])c(F)c([H])c7F)c([H])c6[H])c(C(=O)N([H])[H])c5N([H])[H])C4([H])[H])sc3N([H])[H])c([H])c([H])c2C1([H])[H]

$$$$
24:0:0
     RDKit          3D

 94102  0  0  1  0  0  0  0  0999 V2000
  -28.6080  -22.4110   20.4880 C   0  0  0  0  0  0  0  0  0  0  0  0
  -29.6700  -21.5180   20.4380 N   0  0  0  0  0  0  0  0  0  0  0  0
  -27.4610  -22.0010   20.6710 O   0  0  0  0  0  0  0  0  0  0  0  0
  -30.5290  -22.0420   20.3300 H   0  0  0  0  0  0  0  0  0  0  0  0
  -30.5830  -14.8670   20.3680 C   0  0  0  0  0  0  0  0  0  0  0  0
  -30.4280  -12.5690   19.3590 C   0  0  0  0  0  2  0  0  0  0  0  0
  -29.4820  -12.6060   18.1380 C   0  0  0  0  0  2  0  0  0  0  0  0
  -28.0190  -12.4090   18.5770 C   0  0  0  0  0  2  0  0  0  0  0  0
  -27.6350  -13.3040   19.7830 C   0  0  0  0  0  3  0  0  0  0  0  0
  -28.6980  -13.2380   20.9020 C   0  0  0  0  0  2  0  0  0  0  0  0
  -29.9840  -13.6230   20.3040 N   0  0  0  0  0  0  0  0  0  0  0  0
  -31.7680  -14.9740   20.0350 O   0  0  0  0  0  0  0  0  0  0  0  0
  -31.1080  -19.4940   20.5730 C   0  0  0  0  0  0  0  0  0  0  0  0
  -29.8590  -20.1120   20.5160 C   0  0  0  0  0  0  0  0  0  0  0  0
  -29.9560  -17.4560   20.5700 C   0  0  0  0  0  0  0  0  0  0  0  0
  -31.1470  -18.0680   20.6010 N   0  0  0  0  0  0  0  0  0  0  0  0
  -29.7630  -15.9740   20.6050 N   0  0  0  0  0  0  0  0  0  0  0  0
  -28.6700  -18.7540   20.5390 S   0  0  0  0  0  0  0  0  0  0  0  0
  -28.8100  -15.7050   20.7850 H   0  0  0  0  0  0  0  0  0  0  0  0
  -25.2530  -13.8820   20.5350 C   0  0  0  0  0  0  0  0  0  0  0  0
  -24.1920  -13.1020   20.9030 C   0  0  0  0  0  0  0  0  0  0  0  0
  -24.6570  -11.7520   20.8540 C   0  0  0  0  0  0  0  0  0  0  0  0
  -26.2970  -13.0070   20.2820 N   0  0  0  0  0  0  0  0  0  0  0  0
  -25.9460  -11.7210   20.5380 N   0  0  0  0  0  0  0  0  0  0  0  0
  -23.9340  -10.4870   21.0350 C   0  0  0  0  0  0  0  0  0  0  0  0
  -24.3550   -9.5220   21.9760 C   0  0  0  0  0  3  0  0  0  0  0  0
  -23.6320   -8.3220   22.1440 C   0  0  0  0  0  3  0  0  0  0  0  0
  -22.4730   -8.0770   21.3690 C   0  0  0  0  0  0  0  0  0  0  0  0
  -22.0720   -9.0300   20.4160 C   0  0  0  0  0  3  0  0  0  0  0  0
  -22.7970  -10.2220   20.2470 C   0  0  0  0  0  3  0  0  0  0  0  0
  -21.7230   -6.9290   21.4450 O   0  0  0  0  0  0  0  0  0  0  0  0
  -21.6290   -6.2060   22.6070 C   0  0  0  0  0  0  0  0  0  0  0  0
  -21.1180   -6.7700   23.7960 C   0  0  0  0  0  3  0  0  0  0  0  0
  -20.9750   -5.9730   24.9490 C   0  0  0  0  0  3  0  0  0  0  0  0
  -21.3320   -4.6120   24.9130 C   0  0  0  0  0  0  0  0  0  0  0  0
  -21.8350   -4.0470   23.7280 C   0  0  0  0  0  3  0  0  0  0  0  0
  -21.9800   -4.8410   22.5770 C   0  0  0  0  0  0  0  0  0  0  0  0
  -22.4460   -4.2870   21.4320 F   0  0  0  0  0  0  0  0  0  0  0  0
  -21.1870   -3.8420   26.0170 F   0  0  0  0  0  0  0  0  0  0  0  0
  -22.7950  -13.5730   21.1880 C   0  0  0  0  0  0  0  0  0  0  0  0
  -22.0750  -12.8670   22.0520 N   0  0  0  0  0  0  0  0  0  0  0  0
  -22.3520  -14.6020   20.6790 O   0  0  0  0  0  0  0  0  0  0  0  0
  -22.4460  -12.0310   22.4810 H   0  0  0  0  0  0  0  0  0  0  0  0
  -21.1390  -13.1640   22.2890 H   0  0  0  0  0  0  0  0  0  0  0  0
  -25.4120  -15.2540   20.3660 N   0  0  0  0  0  0  0  0  0  0  0  0
  -24.6350  -15.8980   20.4670 H   0  0  0  0  0  0  0  0  0  0  0  0
  -26.2290  -15.6900   19.9610 H   0  0  0  0  0  0  0  0  0  0  0  0
  -33.2440  -20.0070   19.3250 C   0  0  0  0  0  1  0  0  0  0  0  0
  -32.4380  -20.1960   20.6180 C   0  0  0  0  0  2  0  0  0  0  0  0
  -28.0420  -24.9470   20.3880 C   0  0  0  0  0  3  0  0  0  0  0  0
  -28.9530  -23.8910   20.3160 C   0  0  0  0  0  0  0  0  0  0  0  0
  -30.2380  -24.1910   20.0750 O   0  0  0  0  0  0  0  0  0  0  0  0
  -30.2860  -25.1340   19.9820 H   0  0  0  0  0  0  0  0  0  0  0  0
  -28.2760  -26.3630   20.2280 O   0  0  0  0  0  0  0  0  0  0  0  0
  -24.6210  -31.9240   23.2340 C   0  0  0  0  0  0  0  0  0  0  0  0
  -27.1950  -27.2890   20.1860 C   0  0  0  0  0  0  0  0  0  0  0  0
  -23.4120  -30.5360   21.5910 C   0  0  0  0  0  3  0  0  0  0  0  0
  -24.8540  -28.9720   20.1590 C   0  0  0  0  0  0  0  0  0  0  0  0
  -25.9570  -30.8200   21.4140 C   0  0  0  0  0  2  0  0  0  0  0  0
  -26.0290  -29.4340   20.7680 C   0  0  0  0  0  0  0  0  0  0  0  0
  -27.2010  -28.6040   20.7750 C   0  0  0  0  0  3  0  0  0  0  0  0
  -26.0030  -26.9120   19.5280 C   0  0  0  0  0  3  0  0  0  0  0  0
  -24.8480  -27.7210   19.5240 C   0  0  0  0  0  3  0  0  0  0  0  0
  -23.6260  -29.8620   20.2100 C   0  0  0  0  0  2  0  0  0  0  0  0
  -24.6830  -31.1140   22.1350 N   0  0  0  0  0  0  0  0  0  0  0  0
  -23.5370  -32.2060   23.7680 O   0  0  0  0  0  0  0  0  0  0  0  0
  -22.7390  -29.5230   22.5520 C   0  0  0  0  0  0  0  0  0  0  0  0
  -21.4110  -29.3500   22.4240 N   0  0  0  0  0  0  0  0  0  0  0  0
  -23.4130  -28.8960   23.3720 O   0  0  0  0  0  0  0  0  0  0  0  0
  -20.9240  -29.9110   21.7400 H   0  0  0  0  0  0  0  0  0  0  0  0
  -18.0300  -28.1700   22.9390 C   0  0  0  0  0  0  0  0  0  0  0  0
  -20.5910  -28.4140   23.1950 C   0  0  0  0  0  3  0  0  0  0  0  0
  -20.6810  -26.9850   22.6100 C   0  0  0  0  0  2  0  0  0  0  0  0
  -19.5710  -26.6760   21.6000 C   0  0  0  0  0  2  0  0  0  0  0  0
  -18.1950  -26.8250   22.2510 C   0  0  0  0  0  2  0  0  0  0  0  0
  -19.1560  -28.9240   23.3680 C   0  0  0  0  0  0  0  0  0  0  0  0
  -18.9480  -30.1830   23.9700 C   0  0  0  0  0  3  0  0  0  0  0  0
  -17.6460  -30.6910   24.1480 C   0  0  0  0  0  3  0  0  0  0  0  0
  -16.5360  -29.9360   23.7330 C   0  0  0  0  0  3  0  0  0  0  0  0
  -16.7280  -28.6770   23.1360 C   0  0  0  0  0  3  0  0  0  0  0  0
  -25.9040  -32.5520   23.8590 C   0  0  0  0  0  3  0  0  0  0  0  0
  -26.4230  -31.7690   25.1280 C   0  0  1  0  0  0  0  0  0  0  0  0
  -25.3310  -31.5250   26.1940 C   0  0  0  0  0  1  0  0  0  0  0  0
  -27.0060  -30.3960   24.7230 C   0  0  0  0  0  1  0  0  0  0  0  0
  -27.5730  -32.5580   25.7950 C   0  0  0  0  0  1  0  0  0  0  0  0
  -25.5930  -33.9470   24.2060 N   0  0  0  0  0  0  0  0  0  0  0  0
  -25.8970  -35.0070   23.4450 C   0  0  0  0  0  0  0  0  0  0  0  0
  -26.5350  -34.9140   22.3930 O   0  0  0  0  0  0  0  0  0  0  0  0
  -25.0260  -34.0940   25.0290 H   0  0  0  0  0  0  0  0  0  0  0  0
  -24.1430  -36.7880   23.1680 C   0  0  0  0  0  1  0  0  0  0  0  0
  -25.4200  -36.3900   23.9270 C   0  0  0  0  0  3  0  0  0  0  0  0
  -27.5760  -37.2970   24.6770 C   0  0  0  0  0  1  0  0  0  0  0  0
  -26.4390  -37.4510   23.7740 N   0  0  0  0  0  0  0  0  0  0  0  0
  -26.0290  -38.3690   23.9270 H   0  0  0  0  0  0  0  0  0  0  0  0
  1  3  2  0
  2  1  1  0
  2 14  1  0
  4  2  1  0
  5 17  1  0
  6 11  1  0
  7  8  1  0
  7  6  1  0
  9  8  1  0
  9 23  1  0
  9 10  1  0
 11  5  1  0
 11 10  1  0
 12  5  2  0
 13 16  1  0
 13 49  1  0
 14 18  1  0
 14 13  2  0
 15 16  2  0
 15 17  1  0
 17 19  1  0
 18 15  1  0
 20 21  2  0
 21 40  1  0
 22 21  1  0
 22 25  1  0
 23 20  1  0
 23 24  1  0
 24 22  2  0
 25 26  1  0
 26 27  2  0
 28 31  1  0
 28 27  1  0
 29 28  2  0
 30 29  1  0
 30 25  2  0
 31 32  1  0
 32 33  1  0
 33 34  2  0
 35 34  1  0
 35 39  1  0
 36 35  2  0
 37 32  2  0
 37 36  1  0
 38 37  1  0
 40 41  1  0
 41 44  1  0
 41 43  1  0
 42 40  2  0
 45 46  1  0
 45 20  1  0
 47 45  1  0
 48 49  1  0
 51 50  2  0
 51  1  1  0
 52 51  1  0
 53 52  1  0
 54 50  1  0
 55 66  2  0
 56 54  1  0
 56 61  1  0
 57 65  1  0
 57 67  1  0
 58 64  1  0
 58 60  1  0
 59 65  1  0
 60 61  2  0
 60 59  1  0
 62 56  2  0
 63 62  1  0
 63 58  2  0
 64 57  1  0
 65 55  1  0
 67 69  2  0
 68 67  1  0
 70 68  1  0
 71 80  2  0
 71 76  1  0
 72 68  1  0
 72 76  1  0
 73 72  1  0
 74 75  1  0
 74 73  1  0
 75 71  1  0
 76 77  2  0
 77 78  1  0
 79 78  2  0
 80 79  1  0
 81 55  1  0
 81 86  1  0
 81 82  1  0
 82 85  1  1
 82 83  1  0
 84 82  1  0
 86 89  1  0
 87 91  1  0
 87 86  1  0
 88 87  2  0
 91 90  1  0
 93 94  1  0
 93 91  1  0
 93 92  1  0
M  ISO  4   5 100  17 100  50 101  54 101
M  END
>  <TORSDO>  (25) 
F 19

>  <SCORE>  (25) 
-14.484

>  <name>  (25) 
24

>  <ligand_id>  (25) 
24

>  <original_smiles>  (25) 
[H]OC(C(=O)N([H])c1sc(N([H])C(=O)N2C([H])([H])C([H])([H])C([H])([H])C([H])(n3nc(-c4c([H])c([H])c(Oc5c([H])c([H])c(F)c([H])c5F)c([H])c4[H])c(C(=O)N([H])[H])c3N([H])[H])C2([H])[H])nc1C([H])([H])C([H])([H])[H])=C([H])Oc1c([H])c([H])c2c(c1[H])C([H])([H])N(C(=O)C([H])(N([H])C(=O)C([H])(N([H])C([H])([H])[H])C([H])([H])[H])C(C([H])([H])[H])(C([H])([H])[H])C([H])([H])[H])C([H])(C(=O)N([H])C1([H])c3c([H])c([H])c([H])c([H])c3C([H])([H])C([H])([H])C1([H])[H])C2([H])[H]

>  <smiles>  (25) 
[H]OC(C(=O)N([H])c1sc(N([H])C(=O)N2C([H])([H])C([H])([H])C([H])([H])C([H])(n3nc(-c4c([H])c([H])c(Oc5c([H])c([H])c(F)c([H])c5F)c([H])c4[H])c(C(=O)N([H])[H])c3N([H])[H])C2([H])[H])nc1C([H])([H])C([H])([H])[H])=C([H])Oc1c([H])c([H])c2c(c1[H])C([H])([H])N(C(=O)C([H])(N([H])C(=O)C([H])(N([H])C([H])([H])[H])C([H])([H])[H])C(C([H])([H])[H])(C([H])([H])[H])C([H])([H])[H])C([H])(C(=O)N([H])C1([H])c3c([H])c([H])c([H])c([H])c3C([H])([H])C([H])([H])C1([H])[H])C2([H])[H]

$$$$
25:0:0
     RDKit          3D

101109  0  0  1  0  0  0  0  0999 V2000
  -30.3930  -21.1470   20.9510 C   0  0  0  0  0  3  0  0  0  0  0  0
  -30.7330  -14.6450   20.2150 C   0  0  0  0  0  0  0  0  0  0  0  0
  -30.3970  -12.4380   19.1580 C   0  0  0  0  0  2  0  0  0  0  0  0
  -29.4280  -12.6200   17.9700 C   0  0  0  0  0  2  0  0  0  0  0  0
  -27.9660  -12.4900   18.4390 C   0  0  0  0  0  2  0  0  0  0  0  0
  -27.6580  -13.3370   19.7040 C   0  0  0  0  0  3  0  0  0  0  0  0
  -28.7520  -13.1710   20.7860 C   0  0  0  0  0  2  0  0  0  0  0  0
  -30.0520  -13.4610   20.1630 N   0  0  0  0  0  0  0  0  0  0  0  0
  -31.8990  -14.7240   19.8220 O   0  0  0  0  0  0  0  0  0  0  0  0
  -30.4880  -19.6730   20.4910 C   0  0  0  0  0  0  0  0  0  0  0  0
  -31.5620  -19.0300   19.8970 C   0  0  0  0  0  0  0  0  0  0  0  0
  -30.3190  -17.1530   20.3730 C   0  0  0  0  0  0  0  0  0  0  0  0
  -31.4610  -17.6300   19.8520 N   0  0  0  0  0  0  0  0  0  0  0  0
  -30.0070  -15.7480   20.5290 N   0  0  0  0  0  0  0  0  0  0  0  0
  -29.2250  -18.4780   20.8310 S   0  0  0  0  0  0  0  0  0  0  0  0
  -29.0740  -15.5570   20.8600 H   0  0  0  0  0  0  0  0  0  0  0  0
  -25.2910  -13.9420   20.5010 C   0  0  0  0  0  0  0  0  0  0  0  0
  -24.2310  -13.1710   20.8930 C   0  0  0  0  0  0  0  0  0  0  0  0
  -24.6820  -11.8160   20.8310 C   0  0  0  0  0  0  0  0  0  0  0  0
  -26.3220  -13.0570   20.2260 N   0  0  0  0  0  0  0  0  0  0  0  0
  -25.9630  -11.7730   20.4840 N   0  0  0  0  0  0  0  0  0  0  0  0
  -23.9520  -10.5560   21.0280 C   0  0  0  0  0  0  0  0  0  0  0  0
  -24.3950   -9.5820   21.9490 C   0  0  0  0  0  3  0  0  0  0  0  0
  -23.6660   -8.3880   22.1330 C   0  0  0  0  0  3  0  0  0  0  0  0
  -22.4770   -8.1600   21.3980 C   0  0  0  0  0  0  0  0  0  0  0  0
  -22.0530   -9.1250   20.4660 C   0  0  0  0  0  3  0  0  0  0  0  0
  -22.7840  -10.3100   20.2800 C   0  0  0  0  0  3  0  0  0  0  0  0
  -21.7170   -7.0190   21.4920 O   0  0  0  0  0  0  0  0  0  0  0  0
  -21.6770   -6.2760   22.6460 C   0  0  0  0  0  0  0  0  0  0  0  0
  -21.2470   -6.8250   23.8720 C   0  0  0  0  0  3  0  0  0  0  0  0
  -21.1520   -6.0060   25.0150 C   0  0  0  0  0  3  0  0  0  0  0  0
  -21.4790   -4.6400   24.9320 C   0  0  0  0  0  0  0  0  0  0  0  0
  -21.9020   -4.0890   23.7090 C   0  0  0  0  0  3  0  0  0  0  0  0
  -21.9970   -4.9050   22.5690 C   0  0  0  0  0  0  0  0  0  0  0  0
  -22.3840   -4.3650   21.3890 F   0  0  0  0  0  0  0  0  0  0  0  0
  -21.3810   -3.8510   26.0270 F   0  0  0  0  0  0  0  0  0  0  0  0
  -22.8440  -13.6530   21.2080 C   0  0  0  0  0  0  0  0  0  0  0  0
  -22.1370  -12.9540   22.0880 N   0  0  0  0  0  0  0  0  0  0  0  0
  -22.3980  -14.6880   20.7120 O   0  0  0  0  0  0  0  0  0  0  0  0
  -22.5120  -12.1180   22.5120 H   0  0  0  0  0  0  0  0  0  0  0  0
  -21.2070  -13.2590   22.3390 H   0  0  0  0  0  0  0  0  0  0  0  0
  -25.4540  -15.3120   20.3290 N   0  0  0  0  0  0  0  0  0  0  0  0
  -24.6740  -15.9510   20.4410 H   0  0  0  0  0  0  0  0  0  0  0  0
  -26.2640  -15.7510   19.9110 H   0  0  0  0  0  0  0  0  0  0  0  0
  -32.7230  -19.6220   19.3970 N   0  0  0  0  0  0  0  0  0  0  0  0
  -32.6980  -20.6020   19.1340 H   0  0  0  0  0  0  0  0  0  0  0  0
  -33.3270  -19.0640   18.8050 H   0  0  0  0  0  0  0  0  0  0  0  0
  -29.4440  -23.3640   20.1740 C   0  0  0  0  0  0  0  0  0  0  0  0
  -29.3840  -22.0030   20.2720 N   0  0  0  0  0  0  0  0  0  0  0  0
  -30.4230  -23.9470   19.7000 O   0  0  0  0  0  0  0  0  0  0  0  0
  -28.4390  -21.7270   20.5080 H   0  0  0  0  0  0  0  0  0  0  0  0
  -27.9410  -25.3230   20.9230 C   0  0  0  0  0  3  0  0  0  0  0  0
  -28.2960  -24.0030   20.8500 C   0  0  0  0  0  0  0  0  0  0  0  0
  -27.4850  -23.1630   21.5240 O   0  0  0  0  0  0  0  0  0  0  0  0
  -26.8020  -23.6800   21.9290 H   0  0  0  0  0  0  0  0  0  0  0  0
  -28.3910  -26.5200   20.3430 O   0  0  0  0  0  0  0  0  0  0  0  0
  -24.6570  -31.9350   23.2480 C   0  0  0  0  0  0  0  0  0  0  0  0
  -27.3460  -27.4400   20.2020 C   0  0  0  0  0  0  0  0  0  0  0  0
  -23.4790  -30.5140   21.6050 C   0  0  0  0  0  3  0  0  0  0  0  0
  -24.9620  -28.9990   20.1760 C   0  0  0  0  0  0  0  0  0  0  0  0
  -26.0120  -30.8740   21.4360 C   0  0  0  0  0  2  0  0  0  0  0  0
  -26.1200  -29.5030   20.7880 C   0  0  0  0  0  0  0  0  0  0  0  0
  -27.3180  -28.7310   20.8050 C   0  0  0  0  0  3  0  0  0  0  0  0
  -26.1760  -26.9980   19.5410 C   0  0  0  0  0  3  0  0  0  0  0  0
  -24.9880  -27.7480   19.5460 C   0  0  0  0  0  3  0  0  0  0  0  0
  -23.7070  -29.8470   20.2260 C   0  0  0  0  0  2  0  0  0  0  0  0
  -24.7340  -31.1210   22.1540 N   0  0  0  0  0  0  0  0  0  0  0  0
  -23.5660  -32.2030   23.7740 O   0  0  0  0  0  0  0  0  0  0  0  0
  -22.8260  -29.4910   22.5620 C   0  0  0  0  0  0  0  0  0  0  0  0
  -21.5020  -29.3040   22.4320 N   0  0  0  0  0  0  0  0  0  0  0  0
  -23.5060  -28.8650   23.3810 O   0  0  0  0  0  0  0  0  0  0  0  0
  -21.0140  -29.8590   21.7440 H   0  0  0  0  0  0  0  0  0  0  0  0
  -18.1290  -28.0920   22.9210 C   0  0  0  0  0  0  0  0  0  0  0  0
  -20.6840  -28.3640   23.1990 C   0  0  0  0  0  3  0  0  0  0  0  0
  -20.7950  -26.9330   22.6230 C   0  0  0  0  0  2  0  0  0  0  0  0
  -19.6970  -26.6050   21.6050 C   0  0  0  0  0  2  0  0  0  0  0  0
  -18.3140  -26.7440   22.2450 C   0  0  0  0  0  2  0  0  0  0  0  0
  -19.2430  -28.8600   23.3540 C   0  0  0  0  0  0  0  0  0  0  0  0
  -19.0160  -30.1210   23.9480 C   0  0  0  0  0  3  0  0  0  0  0  0
  -17.7090  -30.6160   24.1130 C   0  0  0  0  0  3  0  0  0  0  0  0
  -16.6090  -29.8450   23.6990 C   0  0  0  0  0  3  0  0  0  0  0  0
  -16.8200  -28.5870   23.1090 C   0  0  0  0  0  3  0  0  0  0  0  0
  -25.9290  -32.5810   23.8780 C   0  0  0  0  0  3  0  0  0  0  0  0
  -25.6070  -33.9770   24.2000 N   0  0  0  0  0  0  0  0  0  0  0  0
  -25.9250  -35.0300   23.4360 C   0  0  0  0  0  0  0  0  0  0  0  0
  -26.6030  -34.9310   22.4100 O   0  0  0  0  0  0  0  0  0  0  0  0
  -25.0100  -34.1270   25.0000 H   0  0  0  0  0  0  0  0  0  0  0  0
  -24.1880  -36.8060   23.0560 C   0  0  0  0  0  1  0  0  0  0  0  0
  -25.4180  -36.4120   23.8870 C   0  0  0  0  0  3  0  0  0  0  0  0
  -27.5300  -37.3150   24.7550 C   0  0  0  0  0  1  0  0  0  0  0  0
  -26.4430  -37.4750   23.7950 N   0  0  0  0  0  0  0  0  0  0  0  0
  -26.0240  -38.3890   23.9470 H   0  0  0  0  0  0  0  0  0  0  0  0
  -26.4440  -31.8190   25.1620 C   0  0  1  0  0  0  0  0  0  0  0  0
  -25.3450  -31.5750   26.2210 C   0  0  0  0  0  1  0  0  0  0  0  0
  -27.0460  -30.4460   24.7810 C   0  0  0  0  0  1  0  0  0  0  0  0
  -27.5770  -32.6320   25.8350 C   0  0  0  0  0  1  0  0  0  0  0  0
  -30.1070  -21.3000   22.4830 C   0  0  0  0  0  2  0  0  0  0  0  0
  -32.5720  -21.3060   23.1650 C   0  0  0  0  0  1  0  0  0  0  0  0
  -30.7560  -21.5990   24.8790 C   0  0  0  0  0  1  0  0  0  0  0  0
  -31.1050  -19.3720   23.8650 C   0  0  0  0  0  1  0  0  0  0  0  0
  -31.1460  -20.8820   23.5650 C   0  0  1  0  0  0  0  0  0  0  0  0
  1 97  1  0
  2 14  1  0
  3  8  1  0
  4  5  1  0
  4  3  1  0
  6  5  1  0
  6 20  1  0
  6  7  1  0
  8  2  1  0
  8  7  1  0
  9  2  2  0
 10 15  1  0
 10  1  1  0
 11 10  2  0
 12 14  1  0
 12 15  1  0
 13 11  1  0
 13 12  2  0
 14 16  1  0
 17 18  2  0
 18 37  1  0
 19 18  1  0
 19 22  1  0
 20 21  1  0
 20 17  1  0
 21 19  2  0
 22 23  1  0
 23 24  2  0
 25 28  1  0
 25 24  1  0
 26 25  2  0
 27 26  1  0
 27 22  2  0
 28 29  1  0
 29 30  1  0
 30 31  2  0
 32 31  1  0
 32 36  1  0
 33 32  2  0
 34 29  2  0
 34 33  1  0
 35 34  1  0
 37 38  1  0
 38 41  1  0
 38 40  1  0
 39 37  2  0
 42 43  1  0
 42 17  1  0
 44 42  1  0
 45 11  1  0
 46 45  1  0
 47 45  1  0
 48 49  1  0
 48 53  1  0
 49 51  1  0
 49  1  1  0
 50 48  2  0
 53 52  2  0
 53 54  1  0
 54 55  1  0
 56 52  1  0
 57 68  2  0
 58 56  1  0
 58 63  1  0
 59 67  1  0
 59 69  1  0
 60 66  1  0
 60 62  1  0
 61 67  1  0
 62 63  2  0
 62 61  1  0
 64 65  1  0
 64 58  2  0
 65 60  2  0
 66 59  1  0
 67 57  1  0
 69 71  2  0
 70 69  1  0
 72 70  1  0
 73 82  2  0
 73 78  1  0
 74 70  1  0
 74 78  1  0
 75 74  1  0
 76 77  1  0
 76 75  1  0
 77 73  1  0
 78 79  2  0
 79 80  1  0
 81 80  2  0
 82 81  1  0
 83 57  1  0
 83 84  1  0
 83 93  1  0
 84 87  1  0
 85 89  1  0
 85 84  1  0
 86 85  2  0
 89 88  1  0
 91 89  1  0
 91 92  1  0
 91 90  1  0
 93 96  1  1
 93 94  1  0
 95 93  1  0
 97101  1  0
101 98  1  6
101100  1  0
101 99  1  0
M  ISO  4   2 100  14 100  52 101  56 101
M  END
>  <TORSDO>  (26) 
F 22

>  <SCORE>  (26) 
-13.872

>  <name>  (26) 
25

>  <ligand_id>  (26) 
25

>  <original_smiles>  (26) 
[H]OC(C(=O)N([H])C([H])(c1sc(N([H])C(=O)N2C([H])([H])C([H])([H])C([H])([H])C([H])(n3nc(-c4c([H])c([H])c(Oc5c([H])c([H])c(F)c([H])c5F)c([H])c4[H])c(C(=O)N([H])[H])c3N([H])[H])C2([H])[H])nc1N([H])[H])C([H])([H])C(C([H])([H])[H])(C([H])([H])[H])C([H])([H])[H])=C([H])Oc1c([H])c([H])c2c(c1[H])C([H])([H])N(C(=O)C([H])(N([H])C(=O)C([H])(N([H])C([H])([H])[H])C([H])([H])[H])C(C([H])([H])[H])(C([H])([H])[H])C([H])([H])[H])C([H])(C(=O)N([H])C1([H])c3c([H])c([H])c([H])c([H])c3C([H])([H])C([H])([H])C1([H])[H])C2([H])[H]

>  <smiles>  (26) 
[H]OC(C(=O)N([H])C([H])(c1sc(N([H])C(=O)N2C([H])([H])C([H])([H])C([H])([H])C([H])(n3nc(-c4c([H])c([H])c(Oc5c([H])c([H])c(F)c([H])c5F)c([H])c4[H])c(C(=O)N([H])[H])c3N([H])[H])C2([H])[H])nc1N([H])[H])C([H])([H])C(C([H])([H])[H])(C([H])([H])[H])C([H])([H])[H])=C([H])Oc1c([H])c([H])c2c(c1[H])C([H])([H])N(C(=O)C([H])(N([H])C(=O)C([H])(N([H])C([H])([H])[H])C([H])([H])[H])C(C([H])([H])[H])(C([H])([H])[H])C([H])([H])[H])C([H])(C(=O)N([H])C1([H])c3c([H])c([H])c([H])c([H])c3C([H])([H])C([H])([H])C1([H])[H])C2([H])[H]

$$$$
26:0:0
     RDKit          3D

 93101  0  0  1  0  0  0  0  0999 V2000
  -28.5820  -22.2530   20.4830 C   0  0  0  0  0  0  0  0  0  0  0  0
  -29.6240  -21.3320   20.3100 N   0  0  0  0  0  0  0  0  0  0  0  0
  -27.4560  -21.8540   20.7840 O   0  0  0  0  0  0  0  0  0  0  0  0
  -30.4650  -21.8560   20.1000 H   0  0  0  0  0  0  0  0  0  0  0  0
  -31.3420  -18.0890   20.3960 C   0  0  0  0  0  3  0  0  0  0  0  0
  -31.2210  -19.5200   20.3500 C   0  0  0  0  0  0  0  0  0  0  0  0
  -30.0750  -17.5620   20.4640 C   0  0  0  0  0  0  0  0  0  0  0  0
  -29.9130  -19.9280   20.3970 C   0  0  0  0  0  0  0  0  0  0  0  0
  -29.1570  -18.7010   20.4750 O   0  0  0  0  0  0  0  0  0  0  0  0
  -32.2730  -20.3690   20.2640 F   0  0  0  0  0  0  0  0  0  0  0  0
  -30.5500  -14.9820   20.3420 C   0  0  0  0  0  0  0  0  0  0  0  0
  -30.4050  -12.6530   19.3670 C   0  0  0  0  0  2  0  0  0  0  0  0
  -29.4580  -12.6300   18.1450 C   0  0  0  0  0  2  0  0  0  0  0  0
  -27.9990  -12.4230   18.5900 C   0  0  0  0  0  2  0  0  0  0  0  0
  -27.6060  -13.3350   19.7810 C   0  0  0  0  0  3  0  0  0  0  0  0
  -28.6730  -13.3260   20.8970 C   0  0  0  0  0  2  0  0  0  0  0  0
  -29.9420  -13.7320   20.2820 N   0  0  0  0  0  0  0  0  0  0  0  0
  -31.7490  -15.0370   20.0460 O   0  0  0  0  0  0  0  0  0  0  0  0
  -29.7730  -16.1570   20.5200 N   0  0  0  0  0  0  0  0  0  0  0  0
  -28.7980  -15.9560   20.6820 H   0  0  0  0  0  0  0  0  0  0  0  0
  -25.2310  -13.9010   20.5500 C   0  0  0  0  0  0  0  0  0  0  0  0
  -24.1730  -13.1190   20.9210 C   0  0  0  0  0  0  0  0  0  0  0  0
  -24.6410  -11.7700   20.8690 C   0  0  0  0  0  0  0  0  0  0  0  0
  -26.2740  -13.0300   20.2890 N   0  0  0  0  0  0  0  0  0  0  0  0
  -25.9290  -11.7410   20.5470 N   0  0  0  0  0  0  0  0  0  0  0  0
  -23.9180  -10.5030   21.0470 C   0  0  0  0  0  0  0  0  0  0  0  0
  -24.3420   -9.5370   21.9860 C   0  0  0  0  0  3  0  0  0  0  0  0
  -23.6170   -8.3370   22.1540 C   0  0  0  0  0  3  0  0  0  0  0  0
  -22.4570   -8.0940   21.3820 C   0  0  0  0  0  0  0  0  0  0  0  0
  -22.0550   -9.0490   20.4310 C   0  0  0  0  0  3  0  0  0  0  0  0
  -22.7790  -10.2390   20.2610 C   0  0  0  0  0  3  0  0  0  0  0  0
  -21.7060   -6.9460   21.4580 O   0  0  0  0  0  0  0  0  0  0  0  0
  -21.6160   -6.2200   22.6190 C   0  0  0  0  0  0  0  0  0  0  0  0
  -21.1010   -6.7800   23.8080 C   0  0  0  0  0  3  0  0  0  0  0  0
  -20.9610   -5.9800   24.9590 C   0  0  0  0  0  3  0  0  0  0  0  0
  -21.3260   -4.6210   24.9230 C   0  0  0  0  0  0  0  0  0  0  0  0
  -21.8340   -4.0600   23.7370 C   0  0  0  0  0  3  0  0  0  0  0  0
  -21.9750   -4.8580   22.5880 C   0  0  0  0  0  0  0  0  0  0  0  0
  -22.4460   -4.3070   21.4440 F   0  0  0  0  0  0  0  0  0  0  0  0
  -21.1830   -3.8510   26.0250 F   0  0  0  0  0  0  0  0  0  0  0  0
  -22.7770  -13.5890   21.2090 C   0  0  0  0  0  0  0  0  0  0  0  0
  -22.0590  -12.8810   22.0740 N   0  0  0  0  0  0  0  0  0  0  0  0
  -22.3320  -14.6180   20.7020 O   0  0  0  0  0  0  0  0  0  0  0  0
  -22.4340  -12.0500   22.5060 H   0  0  0  0  0  0  0  0  0  0  0  0
  -21.1230  -13.1770   22.3100 H   0  0  0  0  0  0  0  0  0  0  0  0
  -25.3880  -15.2750   20.3860 N   0  0  0  0  0  0  0  0  0  0  0  0
  -24.6150  -15.9200   20.5050 H   0  0  0  0  0  0  0  0  0  0  0  0
  -26.2130  -15.7190   20.0030 H   0  0  0  0  0  0  0  0  0  0  0  0
  -28.0320  -24.8480   20.4220 C   0  0  0  0  0  3  0  0  0  0  0  0
  -28.9140  -23.7550   20.2870 C   0  0  0  0  0  0  0  0  0  0  0  0
  -30.1820  -24.0370   19.9560 O   0  0  0  0  0  0  0  0  0  0  0  0
  -30.2390  -24.9820   19.8720 H   0  0  0  0  0  0  0  0  0  0  0  0
  -28.2730  -26.2820   20.2650 O   0  0  0  0  0  0  0  0  0  0  0  0
  -24.6170  -31.9300   23.2460 C   0  0  0  0  0  0  0  0  0  0  0  0
  -27.2090  -27.2450   20.2250 C   0  0  0  0  0  0  0  0  0  0  0  0
  -23.4250  -30.5430   21.5920 C   0  0  0  0  0  3  0  0  0  0  0  0
  -24.8800  -28.9720   20.1740 C   0  0  0  0  0  0  0  0  0  0  0  0
  -25.9780  -30.8090   21.4460 C   0  0  0  0  0  2  0  0  0  0  0  0
  -26.0530  -29.4200   20.7960 C   0  0  0  0  0  0  0  0  0  0  0  0
  -27.2180  -28.5700   20.8100 C   0  0  0  0  0  3  0  0  0  0  0  0
  -26.0160  -26.8930   19.5560 C   0  0  0  0  0  3  0  0  0  0  0  0
  -24.8730  -27.7200   19.5390 C   0  0  0  0  0  3  0  0  0  0  0  0
  -23.6540  -29.8690   20.2130 C   0  0  0  0  0  2  0  0  0  0  0  0
  -24.6920  -31.1150   22.1500 N   0  0  0  0  0  0  0  0  0  0  0  0
  -23.5290  -32.2160   23.7680 O   0  0  0  0  0  0  0  0  0  0  0  0
  -22.7380  -29.5340   22.5450 C   0  0  0  0  0  0  0  0  0  0  0  0
  -21.4090  -29.3730   22.4110 N   0  0  0  0  0  0  0  0  0  0  0  0
  -23.4010  -28.8990   23.3680 O   0  0  0  0  0  0  0  0  0  0  0  0
  -20.9300  -29.9360   21.7220 H   0  0  0  0  0  0  0  0  0  0  0  0
  -18.0120  -28.2240   22.9160 C   0  0  0  0  0  0  0  0  0  0  0  0
  -20.5760  -28.4380   23.1730 C   0  0  0  0  0  3  0  0  0  0  0  0
  -20.6500  -27.0140   22.5760 C   0  0  0  0  0  2  0  0  0  0  0  0
  -19.5370  -26.7250   21.5640 C   0  0  0  0  0  2  0  0  0  0  0  0
  -18.1620  -26.8830   22.2190 C   0  0  0  0  0  2  0  0  0  0  0  0
  -19.1460  -28.9620   23.3510 C   0  0  0  0  0  0  0  0  0  0  0  0
  -18.9510  -30.2180   23.9640 C   0  0  0  0  0  3  0  0  0  0  0  0
  -17.6550  -30.7360   24.1490 C   0  0  0  0  0  3  0  0  0  0  0  0
  -16.5360  -29.9960   23.7300 C   0  0  0  0  0  3  0  0  0  0  0  0
  -16.7150  -28.7410   23.1200 C   0  0  0  0  0  3  0  0  0  0  0  0
  -25.8930  -32.5570   23.8840 C   0  0  0  0  0  3  0  0  0  0  0  0
  -26.3860  -31.7880   25.1720 C   0  0  1  0  0  0  0  0  0  0  0  0
  -25.2730  -31.5580   26.2220 C   0  0  0  0  0  1  0  0  0  0  0  0
  -26.9710  -30.4080   24.7980 C   0  0  0  0  0  1  0  0  0  0  0  0
  -27.5260  -32.5820   25.8510 C   0  0  0  0  0  1  0  0  0  0  0  0
  -25.5880  -33.9590   24.2100 N   0  0  0  0  0  0  0  0  0  0  0  0
  -25.9200  -35.0110   23.4480 C   0  0  0  0  0  0  0  0  0  0  0  0
  -26.5820  -34.9020   22.4140 O   0  0  0  0  0  0  0  0  0  0  0  0
  -24.9970  -34.1170   25.0130 H   0  0  0  0  0  0  0  0  0  0  0  0
  -24.1920  -36.8090   23.1130 C   0  0  0  0  0  1  0  0  0  0  0  0
  -25.4440  -36.4030   23.9080 C   0  0  0  0  0  3  0  0  0  0  0  0
  -27.5850  -37.2950   24.7140 C   0  0  0  0  0  1  0  0  0  0  0  0
  -26.4790  -37.4510   23.7720 N   0  0  0  0  0  0  0  0  0  0  0  0
  -26.0770  -38.3750   23.9050 H   0  0  0  0  0  0  0  0  0  0  0  0
  1  3  2  0
  2  8  1  0
  2  1  1  0
  4  2  1  0
  5  7  2  0
  6  5  1  0
  6  8  2  0
  7  9  1  0
  7 19  1  0
  8  9  1  0
 10  6  1  0
 11 19  1  0
 12 17  1  0
 13 14  1  0
 13 12  1  0
 15 14  1  0
 15 24  1  0
 15 16  1  0
 17 11  1  0
 17 16  1  0
 18 11  2  0
 19 20  1  0
 21 22  2  0
 22 41  1  0
 23 22  1  0
 23 26  1  0
 24 25  1  0
 24 21  1  0
 25 23  2  0
 26 27  1  0
 27 28  2  0
 29 32  1  0
 29 28  1  0
 30 29  2  0
 31 30  1  0
 31 26  2  0
 32 33  1  0
 33 34  1  0
 34 35  2  0
 36 35  1  0
 36 40  1  0
 37 36  2  0
 38 33  2  0
 38 37  1  0
 39 38  1  0
 41 42  1  0
 42 45  1  0
 42 44  1  0
 43 41  2  0
 46 47  1  0
 46 21  1  0
 48 46  1  0
 50 49  2  0
 50  1  1  0
 51 50  1  0
 52 51  1  0
 53 49  1  0
 54 65  2  0
 55 53  1  0
 55 60  1  0
 56 64  1  0
 56 66  1  0
 57 63  1  0
 57 59  1  0
 58 64  1  0
 59 60  2  0
 59 58  1  0
 61 55  2  0
 62 61  1  0
 62 57  2  0
 63 56  1  0
 64 54  1  0
 66 68  2  0
 67 66  1  0
 69 67  1  0
 70 79  2  0
 70 75  1  0
 71 67  1  0
 71 75  1  0
 72 71  1  0
 73 74  1  0
 73 72  1  0
 74 70  1  0
 75 76  2  0
 76 77  1  0
 78 77  2  0
 79 78  1  0
 80 54  1  0
 80 85  1  0
 80 81  1  0
 81 84  1  1
 81 82  1  0
 83 81  1  0
 85 88  1  0
 86 90  1  0
 86 85  1  0
 87 86  2  0
 90 89  1  0
 92 93  1  0
 92 90  1  0
 92 91  1  0
M  ISO  4  11 100  19 100  49 101  53 101
M  END
>  <TORSDO>  (27) 
F 19

>  <SCORE>  (27) 
-14.496

>  <name>  (27) 
26

>  <ligand_id>  (27) 
26

>  <original_smiles>  (27) 
[H]OC(C(=O)N([H])c1oc(N([H])C(=O)N2C([H])([H])C([H])([H])C([H])([H])C([H])(n3nc(-c4c([H])c([H])c(Oc5c([H])c([H])c(F)c([H])c5F)c([H])c4[H])c(C(=O)N([H])[H])c3N([H])[H])C2([H])[H])c([H])c1F)=C([H])Oc1c([H])c([H])c2c(c1[H])C([H])([H])N(C(=O)C([H])(N([H])C(=O)C([H])(N([H])C([H])([H])[H])C([H])([H])[H])C(C([H])([H])[H])(C([H])([H])[H])C([H])([H])[H])C([H])(C(=O)N([H])C1([H])c3c([H])c([H])c([H])c([H])c3C([H])([H])C([H])([H])C1([H])[H])C2([H])[H]

>  <smiles>  (27) 
[H]OC(C(=O)N([H])c1oc(N([H])C(=O)N2C([H])([H])C([H])([H])C([H])([H])C([H])(n3nc(-c4c([H])c([H])c(Oc5c([H])c([H])c(F)c([H])c5F)c([H])c4[H])c(C(=O)N([H])[H])c3N([H])[H])C2([H])[H])c([H])c1F)=C([H])Oc1c([H])c([H])c2c(c1[H])C([H])([H])N(C(=O)C([H])(N([H])C(=O)C([H])(N([H])C([H])([H])[H])C([H])([H])[H])C(C([H])([H])[H])(C([H])([H])[H])C([H])([H])[H])C([H])(C(=O)N([H])C1([H])c3c([H])c([H])c([H])c([H])c3C([H])([H])C([H])([H])C1([H])[H])C2([H])[H]

$$$$
27:0:0
     RDKit          3D

 95103  0  0  1  0  0  0  0  0999 V2000
  -29.1600  -21.8540   20.3950 C   0  0  0  0  0  0  0  0  0  0  0  0
  -28.7600  -20.5580   20.4470 N   0  0  0  0  0  0  0  0  0  0  0  0
  -30.3390  -22.2160   20.3080 O   0  0  0  0  0  0  0  0  0  0  0  0
  -27.7880  -20.4340   20.6970 H   0  0  0  0  0  0  0  0  0  0  0  0
  -29.4100  -18.1470   20.6690 C   0  0  0  0  0  3  0  0  0  0  0  0
  -30.6870  -18.2710   18.1760 C   0  0  0  0  0  3  0  0  0  0  0  0
  -29.4620  -19.3940   19.9710 C   0  0  0  0  0  0  0  0  0  0  0  0
  -30.0110  -16.9610   20.1410 C   0  0  0  0  0  0  0  0  0  0  0  0
  -30.1130  -19.4320   18.7150 C   0  0  0  0  0  0  0  0  0  0  0  0
  -30.6200  -17.0450   18.8590 C   0  0  0  0  0  0  0  0  0  0  0  0
  -30.1300  -20.5640   17.9690 F   0  0  0  0  0  0  0  0  0  0  0  0
  -31.0930  -15.9470   18.2220 F   0  0  0  0  0  0  0  0  0  0  0  0
  -30.7210  -14.6200   20.7090 C   0  0  0  0  0  0  0  0  0  0  0  0
  -30.5460  -12.3830   19.7090 C   0  0  0  0  0  2  0  0  0  0  0  0
  -29.6730  -12.5120   18.4430 C   0  0  0  0  0  2  0  0  0  0  0  0
  -28.1790  -12.3630   18.7950 C   0  0  0  0  0  2  0  0  0  0  0  0
  -27.7540  -13.2490   19.9970 C   0  0  0  0  0  3  0  0  0  0  0  0
  -28.7490  -13.1160   21.1710 C   0  0  0  0  0  2  0  0  0  0  0  0
  -30.0950  -13.4120   20.6590 N   0  0  0  0  0  0  0  0  0  0  0  0
  -31.9230  -14.7500   20.4650 O   0  0  0  0  0  0  0  0  0  0  0  0
  -29.9060  -15.6990   20.8430 N   0  0  0  0  0  0  0  0  0  0  0  0
  -29.0110  -15.5080   21.2640 H   0  0  0  0  0  0  0  0  0  0  0  0
  -25.3210  -13.8450   20.5800 C   0  0  0  0  0  0  0  0  0  0  0  0
  -24.2420  -13.0690   20.9060 C   0  0  0  0  0  0  0  0  0  0  0  0
  -24.7140  -11.7210   20.9220 C   0  0  0  0  0  0  0  0  0  0  0  0
  -26.3830  -12.9690   20.4140 N   0  0  0  0  0  0  0  0  0  0  0  0
  -26.0200  -11.6880   20.6800 N   0  0  0  0  0  0  0  0  0  0  0  0
  -23.9900  -10.4550   21.0940 C   0  0  0  0  0  0  0  0  0  0  0  0
  -24.3860   -9.5030   22.0590 C   0  0  0  0  0  3  0  0  0  0  0  0
  -23.6630   -8.3010   22.2160 C   0  0  0  0  0  3  0  0  0  0  0  0
  -22.5290   -8.0440   21.4090 C   0  0  0  0  0  0  0  0  0  0  0  0
  -22.1520   -8.9850   20.4360 C   0  0  0  0  0  3  0  0  0  0  0  0
  -22.8760  -10.1780   20.2750 C   0  0  0  0  0  3  0  0  0  0  0  0
  -21.7810   -6.8940   21.4760 O   0  0  0  0  0  0  0  0  0  0  0  0
  -21.6840   -6.1630   22.6330 C   0  0  0  0  0  0  0  0  0  0  0  0
  -21.1810   -6.7230   23.8280 C   0  0  0  0  0  3  0  0  0  0  0  0
  -21.0340   -5.9170   24.9740 C   0  0  0  0  0  3  0  0  0  0  0  0
  -21.3800   -4.5530   24.9270 C   0  0  0  0  0  0  0  0  0  0  0  0
  -21.8770   -3.9930   23.7370 C   0  0  0  0  0  3  0  0  0  0  0  0
  -22.0250   -4.7960   22.5930 C   0  0  0  0  0  0  0  0  0  0  0  0
  -22.4840   -4.2470   21.4420 F   0  0  0  0  0  0  0  0  0  0  0  0
  -21.2320   -3.7780   26.0260 F   0  0  0  0  0  0  0  0  0  0  0  0
  -22.8290  -13.5380   21.0980 C   0  0  0  0  0  0  0  0  0  0  0  0
  -22.0610  -12.8480   21.9350 N   0  0  0  0  0  0  0  0  0  0  0  0
  -22.4110  -14.5520   20.5410 O   0  0  0  0  0  0  0  0  0  0  0  0
  -22.4110  -12.0280   22.4090 H   0  0  0  0  0  0  0  0  0  0  0  0
  -21.1120  -13.1460   22.1050 H   0  0  0  0  0  0  0  0  0  0  0  0
  -25.4840  -15.2140   20.3880 N   0  0  0  0  0  0  0  0  0  0  0  0
  -24.7070  -15.8610   20.4420 H   0  0  0  0  0  0  0  0  0  0  0  0
  -26.3410  -15.6510   20.0730 H   0  0  0  0  0  0  0  0  0  0  0  0
  -27.9770  -22.8800   20.5160 C   0  0  0  0  0  0  0  0  0  0  0  0
  -26.8110  -22.5360   20.2840 O   0  0  0  0  0  0  0  0  0  0  0  0
  -28.2660  -24.3380   20.9580 C   0  0  0  0  0  2  0  0  0  0  0  0
  -28.5240  -25.3570   19.8100 C   0  0  0  0  0  2  0  0  0  0  0  0
  -28.4490  -26.7450   20.2290 O   0  0  0  0  0  0  0  0  0  0  0  0
  -24.5620  -31.9140   23.2660 C   0  0  0  0  0  0  0  0  0  0  0  0
  -27.2510  -27.4500   20.2100 C   0  0  0  0  0  0  0  0  0  0  0  0
  -23.3770  -30.5030   21.6180 C   0  0  0  0  0  3  0  0  0  0  0  0
  -24.8470  -28.9710   20.2060 C   0  0  0  0  0  0  0  0  0  0  0  0
  -25.9060  -30.8690   21.4390 C   0  0  0  0  0  2  0  0  0  0  0  0
  -26.0020  -29.4950   20.7990 C   0  0  0  0  0  0  0  0  0  0  0  0
  -27.2030  -28.7450   20.7920 C   0  0  0  0  0  3  0  0  0  0  0  0
  -26.0660  -26.9440   19.6240 C   0  0  0  0  0  3  0  0  0  0  0  0
  -24.8780  -27.6960   19.6170 C   0  0  0  0  0  3  0  0  0  0  0  0
  -23.6000  -29.8250   20.2410 C   0  0  0  0  0  2  0  0  0  0  0  0
  -24.6340  -31.1110   22.1660 N   0  0  0  0  0  0  0  0  0  0  0  0
  -23.4750  -32.1790   23.7990 O   0  0  0  0  0  0  0  0  0  0  0  0
  -22.7250  -29.4770   22.5760 C   0  0  0  0  0  0  0  0  0  0  0  0
  -21.4020  -29.2910   22.4440 N   0  0  0  0  0  0  0  0  0  0  0  0
  -23.4090  -28.8540   23.3920 O   0  0  0  0  0  0  0  0  0  0  0  0
  -20.9120  -29.8470   21.7560 H   0  0  0  0  0  0  0  0  0  0  0  0
  -18.0300  -28.0890   22.9330 C   0  0  0  0  0  0  0  0  0  0  0  0
  -20.5860  -28.3480   23.2090 C   0  0  0  0  0  3  0  0  0  0  0  0
  -20.6920  -26.9200   22.6270 C   0  0  0  0  0  2  0  0  0  0  0  0
  -19.5910  -26.6000   21.6090 C   0  0  0  0  0  2  0  0  0  0  0  0
  -18.2080  -26.7410   22.2520 C   0  0  0  0  0  2  0  0  0  0  0  0
  -19.1470  -28.8500   23.3680 C   0  0  0  0  0  0  0  0  0  0  0  0
  -18.9250  -30.1110   23.9630 C   0  0  0  0  0  3  0  0  0  0  0  0
  -17.6210  -30.6100   24.1280 C   0  0  0  0  0  3  0  0  0  0  0  0
  -16.5180  -29.8460   23.7110 C   0  0  0  0  0  3  0  0  0  0  0  0
  -16.7230  -28.5870   23.1190 C   0  0  0  0  0  3  0  0  0  0  0  0
  -25.8390  -32.5550   23.8950 C   0  0  0  0  0  3  0  0  0  0  0  0
  -26.3380  -31.8050   25.1900 C   0  0  1  0  0  0  0  0  0  0  0  0
  -25.2310  -31.5830   26.2460 C   0  0  0  0  0  1  0  0  0  0  0  0
  -26.9270  -30.4210   24.8270 C   0  0  0  0  0  1  0  0  0  0  0  0
  -27.4790  -32.6090   25.8550 C   0  0  0  0  0  1  0  0  0  0  0  0
  -25.5270  -33.9580   24.1960 N   0  0  0  0  0  0  0  0  0  0  0  0
  -25.8730  -34.9970   23.4230 C   0  0  0  0  0  0  0  0  0  0  0  0
  -26.5590  -34.8740   22.4050 O   0  0  0  0  0  0  0  0  0  0  0  0
  -24.9190  -34.1270   24.9840 H   0  0  0  0  0  0  0  0  0  0  0  0
  -24.1600  -36.7890   23.0000 C   0  0  0  0  0  1  0  0  0  0  0  0
  -25.3790  -36.3930   23.8480 C   0  0  0  0  0  3  0  0  0  0  0  0
  -27.4930  -37.2860   24.7210 C   0  0  0  0  0  1  0  0  0  0  0  0
  -26.4190  -37.4410   23.7440 N   0  0  0  0  0  0  0  0  0  0  0  0
  -26.0120  -38.3650   23.8630 H   0  0  0  0  0  0  0  0  0  0  0  0
  1  2  1  0
  1 51  1  0
  2  4  1  0
  3  1  2  0
  6  9  2  0
  6 10  1  0
  7  2  1  0
  7  5  2  0
  8  5  1  0
  8 21  1  0
  9  7  1  0
 10  8  2  0
 11  9  1  0
 12 10  1  0
 13 21  1  0
 14 19  1  0
 15 16  1  0
 15 14  1  0
 17 16  1  0
 17 26  1  0
 17 18  1  0
 19 13  1  0
 19 18  1  0
 20 13  2  0
 21 22  1  0
 23 24  2  0
 24 25  1  0
 24 43  1  0
 25 28  1  0
 26 23  1  0
 26 27  1  0
 27 25  2  0
 28 29  1  0
 29 30  2  0
 31 34  1  0
 31 30  1  0
 32 31  2  0
 33 32  1  0
 33 28  2  0
 34 35  1  0
 35 36  1  0
 36 37  2  0
 38 37  1  0
 38 42  1  0
 39 38  2  0
 40 35  2  0
 40 39  1  0
 41 40  1  0
 43 44  1  0
 44 47  1  0
 44 46  1  0
 45 43  2  0
 48 49  1  0
 48 23  1  0
 50 48  1  0
 51 53  1  0
 52 51  2  0
 54 55  1  0
 54 53  1  0
 56 67  2  0
 57 55  1  0
 57 62  1  0
 58 66  1  0
 58 68  1  0
 59 65  1  0
 59 61  1  0
 60 66  1  0
 61 60  1  0
 62 61  2  0
 63 57  2  0
 64 63  1  0
 64 59  2  0
 65 58  1  0
 66 56  1  0
 68 70  2  0
 69 68  1  0
 71 69  1  0
 72 81  2  0
 72 77  1  0
 73 69  1  0
 73 77  1  0
 74 73  1  0
 75 76  1  0
 75 74  1  0
 76 72  1  0
 77 78  2  0
 78 79  1  0
 80 79  2  0
 81 80  1  0
 82 56  1  0
 82 87  1  0
 82 83  1  0
 83 86  1  1
 83 84  1  0
 85 83  1  0
 87 90  1  0
 88 92  1  0
 88 87  1  0
 89 88  2  0
 92 91  1  0
 94 92  1  0
 94 95  1  0
 94 93  1  0
M  ISO  4  13 100  21 100  54 101  55 101
M  END
>  <TORSDO>  (28) 
F 20

>  <SCORE>  (28) 
-13.990

>  <name>  (28) 
27

>  <ligand_id>  (28) 
27

>  <original_smiles>  (28) 
[H]c1c([H])c([H])c2c(c1[H])C([H])([H])C([H])([H])C([H])([H])C2([H])N([H])C(=O)C1([H])N(C(=O)C([H])(N([H])C(=O)C([H])(N([H])C([H])([H])[H])C([H])([H])[H])C(C([H])([H])[H])(C([H])([H])[H])C([H])([H])[H])C([H])([H])c2c([H])c(OC([H])([H])C([H])([H])C(=O)C(=O)N([H])c3c([H])c(N([H])C(=O)N4C([H])([H])C([H])([H])C([H])([H])C([H])(n5nc(-c6c([H])c([H])c(Oc7c([H])c([H])c(F)c([H])c7F)c([H])c6[H])c(C(=O)N([H])[H])c5N([H])[H])C4([H])[H])c(F)c([H])c3F)c([H])c([H])c2C1([H])[H]

>  <smiles>  (28) 
[H]c1c([H])c([H])c2c(c1[H])C([H])([H])C([H])([H])C([H])([H])C2([H])N([H])C(=O)C1([H])N(C(=O)C([H])(N([H])C(=O)C([H])(N([H])C([H])([H])[H])C([H])([H])[H])C(C([H])([H])[H])(C([H])([H])[H])C([H])([H])[H])C([H])([H])c2c([H])c(OC([H])([H])C([H])([H])C(=O)C(=O)N([H])c3c([H])c(N([H])C(=O)N4C([H])([H])C([H])([H])C([H])([H])C([H])(n5nc(-c6c([H])c([H])c(Oc7c([H])c([H])c(F)c([H])c7F)c([H])c6[H])c(C(=O)N([H])[H])c5N([H])[H])C4([H])[H])c(F)c([H])c3F)c([H])c([H])c2C1([H])[H]

$$$$
28:0:0
     RDKit          3D

 92100  0  0  1  0  0  0  0  0999 V2000
  -30.6510  -19.2760   22.1470 C   0  0  0  0  0  3  0  0  0  0  0  0
  -28.5770  -20.1320   20.4500 C   0  0  0  0  0  3  0  0  0  0  0  0
  -30.2410  -18.4430   21.0810 C   0  0  0  0  0  0  0  0  0  0  0  0
  -29.0280  -20.9900   21.4790 C   0  0  0  0  0  0  0  0  0  0  0  0
  -30.0510  -20.5360   22.3440 C   0  0  0  0  0  0  0  0  0  0  0  0
  -29.1840  -18.8730   20.2470 C   0  0  0  0  0  0  0  0  0  0  0  0
  -30.4840  -21.3300   23.3540 F   0  0  0  0  0  0  0  0  0  0  0  0
  -28.7670  -18.0920   19.2220 F   0  0  0  0  0  0  0  0  0  0  0  0
  -28.7690  -23.1930   20.8510 C   0  0  0  0  0  3  0  0  0  0  0  0
  -28.4610  -22.2600   21.6710 N   0  0  0  0  0  0  0  0  0  0  0  0
  -28.3350  -24.6450   20.9330 C   0  0  0  0  0  0  0  0  0  0  0  0
  -27.6500  -25.0750   21.8730 O   0  0  0  0  0  0  0  0  0  0  0  0
  -28.7900  -25.5720   19.7840 C   0  0  0  0  0  2  0  0  0  0  0  0
  -28.7180  -26.9710   20.1310 O   0  0  0  0  0  0  0  0  0  0  0  0
  -24.6430  -31.8790   23.2600 C   0  0  0  0  0  0  0  0  0  0  0  0
  -27.5100  -27.6420   20.0900 C   0  0  0  0  0  0  0  0  0  0  0  0
  -23.5320  -30.5120   21.5260 C   0  0  0  0  0  3  0  0  0  0  0  0
  -25.0720  -29.0820   20.0850 C   0  0  0  0  0  0  0  0  0  0  0  0
  -26.0510  -30.9540   21.4210 C   0  0  0  0  0  2  0  0  0  0  0  0
  -26.1960  -29.6150   20.7280 C   0  0  0  0  0  0  0  0  0  0  0  0
  -27.4170  -28.9030   20.7250 C   0  0  0  0  0  3  0  0  0  0  0  0
  -26.3620  -27.1220   19.4460 C   0  0  0  0  0  3  0  0  0  0  0  0
  -25.1510  -27.8360   19.4420 C   0  0  0  0  0  3  0  0  0  0  0  0
  -23.8020  -29.8990   20.1270 C   0  0  0  0  0  2  0  0  0  0  0  0
  -24.7580  -31.1280   22.1290 N   0  0  0  0  0  0  0  0  0  0  0  0
  -23.5380  -32.0930   23.7780 O   0  0  0  0  0  0  0  0  0  0  0  0
  -22.8850  -29.4320   22.4230 C   0  0  0  0  0  0  0  0  0  0  0  0
  -21.5610  -29.2510   22.2850 N   0  0  0  0  0  0  0  0  0  0  0  0
  -23.5710  -28.7610   23.2010 O   0  0  0  0  0  0  0  0  0  0  0  0
  -21.0660  -29.8470   21.6360 H   0  0  0  0  0  0  0  0  0  0  0  0
  -18.1840  -28.0620   22.7650 C   0  0  0  0  0  0  0  0  0  0  0  0
  -20.7500  -28.2660   23.0000 C   0  0  0  0  0  3  0  0  0  0  0  0
  -20.8190  -26.8830   22.3120 C   0  0  0  0  0  2  0  0  0  0  0  0
  -19.6920  -26.6550   21.3010 C   0  0  0  0  0  2  0  0  0  0  0  0
  -18.3270  -26.7670   21.9850 C   0  0  0  0  0  2  0  0  0  0  0  0
  -19.3220  -28.7740   23.2290 C   0  0  0  0  0  0  0  0  0  0  0  0
  -19.1330  -29.9920   23.9190 C   0  0  0  0  0  3  0  0  0  0  0  0
  -17.8390  -30.4970   24.1490 C   0  0  0  0  0  3  0  0  0  0  0  0
  -16.7160  -29.7790   23.7010 C   0  0  0  0  0  3  0  0  0  0  0  0
  -16.8900  -28.5650   23.0150 C   0  0  0  0  0  3  0  0  0  0  0  0
  -25.8890  -32.5230   23.9450 C   0  0  0  0  0  3  0  0  0  0  0  0
  -25.5560  -33.9220   24.2430 N   0  0  0  0  0  0  0  0  0  0  0  0
  -25.9190  -34.9680   23.4880 C   0  0  0  0  0  0  0  0  0  0  0  0
  -26.6410  -34.8580   22.4930 O   0  0  0  0  0  0  0  0  0  0  0  0
  -24.9190  -34.0790   25.0100 H   0  0  0  0  0  0  0  0  0  0  0  0
  -24.2000  -36.7440   23.0170 C   0  0  0  0  0  1  0  0  0  0  0  0
  -25.3970  -36.3590   23.9010 C   0  0  0  0  0  3  0  0  0  0  0  0
  -27.4780  -37.2690   24.8380 C   0  0  0  0  0  1  0  0  0  0  0  0
  -26.4270  -37.4190   23.8350 N   0  0  0  0  0  0  0  0  0  0  0  0
  -26.0070  -38.3370   23.9500 H   0  0  0  0  0  0  0  0  0  0  0  0
  -26.3420  -31.7650   25.2530 C   0  0  1  0  0  0  0  0  0  0  0  0
  -25.1970  -31.5260   26.2650 C   0  0  0  0  0  1  0  0  0  0  0  0
  -26.9540  -30.3890   24.9010 C   0  0  0  0  0  1  0  0  0  0  0  0
  -27.4500  -32.5720   25.9680 C   0  0  0  0  0  1  0  0  0  0  0  0
  -31.0170  -17.1690   20.7510 C   0  0  0  0  0  2  0  0  0  0  0  0
  -30.2830  -15.8230   21.0020 C   0  0  0  0  0  2  0  0  0  0  0  0
  -30.9230  -14.6410   20.2330 C   0  0  0  0  0  0  0  0  0  0  0  0
  -30.5830  -12.5040   19.0400 C   0  0  0  0  0  2  0  0  0  0  0  0
  -29.5910  -12.7130   17.8780 C   0  0  0  0  0  2  0  0  0  0  0  0
  -28.1390  -12.5520   18.3690 C   0  0  0  0  0  2  0  0  0  0  0  0
  -27.8450  -13.3830   19.6460 C   0  0  0  0  0  3  0  0  0  0  0  0
  -28.9450  -13.1700   20.7120 C   0  0  0  0  0  2  0  0  0  0  0  0
  -30.2450  -13.4710   20.0960 N   0  0  0  0  0  0  0  0  0  0  0  0
  -32.0070  -14.8300   19.6710 O   0  0  0  0  0  0  0  0  0  0  0  0
  -25.4820  -13.9650   20.4830 C   0  0  0  0  0  0  0  0  0  0  0  0
  -24.4320  -13.1800   20.8760 C   0  0  0  0  0  0  0  0  0  0  0  0
  -24.8910  -11.8300   20.7820 C   0  0  0  0  0  0  0  0  0  0  0  0
  -26.5150  -13.0930   20.1770 N   0  0  0  0  0  0  0  0  0  0  0  0
  -26.1660  -11.8010   20.4150 N   0  0  0  0  0  0  0  0  0  0  0  0
  -24.1750  -10.5610   20.9670 C   0  0  0  0  0  0  0  0  0  0  0  0
  -24.5980   -9.6060   21.9170 C   0  0  0  0  0  3  0  0  0  0  0  0
  -23.8820   -8.4020   22.0880 C   0  0  0  0  0  3  0  0  0  0  0  0
  -22.7300   -8.1430   21.3090 C   0  0  0  0  0  0  0  0  0  0  0  0
  -22.3270   -9.0870   20.3480 C   0  0  0  0  0  3  0  0  0  0  0  0
  -23.0440  -10.2840   20.1740 C   0  0  0  0  0  3  0  0  0  0  0  0
  -21.9860   -6.9900   21.3880 O   0  0  0  0  0  0  0  0  0  0  0  0
  -21.8460   -6.3040   22.5670 C   0  0  0  0  0  0  0  0  0  0  0  0
  -21.2690   -6.8990   23.7110 C   0  0  0  0  0  3  0  0  0  0  0  0
  -21.0790   -6.1370   24.8810 C   0  0  0  0  0  3  0  0  0  0  0  0
  -21.4570   -4.7820   24.9080 C   0  0  0  0  0  0  0  0  0  0  0  0
  -22.0270   -4.1870   23.7700 C   0  0  0  0  0  3  0  0  0  0  0  0
  -22.2190   -4.9450   22.6020 C   0  0  0  0  0  0  0  0  0  0  0  0
  -22.7490   -4.3610   21.5000 F   0  0  0  0  0  0  0  0  0  0  0  0
  -21.2690   -4.0470   26.0290 F   0  0  0  0  0  0  0  0  0  0  0  0
  -23.0480  -13.6450   21.2290 C   0  0  0  0  0  0  0  0  0  0  0  0
  -22.3640  -12.9230   22.1090 N   0  0  0  0  0  0  0  0  0  0  0  0
  -22.5830  -14.6830   20.7580 O   0  0  0  0  0  0  0  0  0  0  0  0
  -22.7540  -12.0820   22.5110 H   0  0  0  0  0  0  0  0  0  0  0  0
  -21.4390  -13.2160   22.3870 H   0  0  0  0  0  0  0  0  0  0  0  0
  -25.6400  -15.3410   20.3410 N   0  0  0  0  0  0  0  0  0  0  0  0
  -24.8850  -15.9960   20.5090 H   0  0  0  0  0  0  0  0  0  0  0  0
  -26.4850  -15.7900   20.0090 H   0  0  0  0  0  0  0  0  0  0  0  0
  1  5  1  0
  2  4  1  0
  3  1  2  0
  4 10  1  0
  4  5  2  0
  5  7  1  0
  6  2  2  0
  6  3  1  0
  8  6  1  0
  9 11  1  0
  9 10  2  0
 11 12  2  0
 13 14  1  0
 13 11  1  0
 15 26  2  0
 16 14  1  0
 16 21  1  0
 17 25  1  0
 17 27  1  0
 18 24  1  0
 18 20  1  0
 19 25  1  0
 20 19  1  0
 21 20  2  0
 22 16  2  0
 23 22  1  0
 23 18  2  0
 24 17  1  0
 25 15  1  0
 27 29  2  0
 28 27  1  0
 30 28  1  0
 31 40  2  0
 31 36  1  0
 32 28  1  0
 32 36  1  0
 33 32  1  0
 34 35  1  0
 34 33  1  0
 35 31  1  0
 36 37  2  0
 37 38  1  0
 39 38  2  0
 40 39  1  0
 41 15  1  0
 41 42  1  0
 41 51  1  0
 42 45  1  0
 43 47  1  0
 43 42  1  0
 44 43  2  0
 47 46  1  0
 49 47  1  0
 49 50  1  0
 49 48  1  0
 51 54  1  1
 51 52  1  0
 53 51  1  0
 55 56  1  0
 55  3  1  0
 57 56  1  0
 58 63  1  0
 59 60  1  0
 59 58  1  0
 61 60  1  0
 61 68  1  0
 61 62  1  0
 63 57  1  0
 63 62  1  0
 64 57  2  0
 65 66  2  0
 66 85  1  0
 67 66  1  0
 67 70  1  0
 68 69  1  0
 68 65  1  0
 69 67  2  0
 70 71  1  0
 71 72  2  0
 73 76  1  0
 73 72  1  0
 74 73  2  0
 75 74  1  0
 75 70  2  0
 76 77  1  0
 77 82  2  0
 77 78  1  0
 78 79  2  0
 79 80  1  0
 80 84  1  0
 81 80  2  0
 82 81  1  0
 83 82  1  0
 85 86  1  0
 86 89  1  0
 86 88  1  0
 87 85  2  0
 90 65  1  0
 90 91  1  0
 92 90  1  0
M  ISO  4  13 101  14 101  56 100  57 100
M  END
>  <TORSDO>  (29) 
F 21

>  <SCORE>  (29) 
-13.345

>  <name>  (29) 
28

>  <ligand_id>  (29) 
28

>  <original_smiles>  (29) 
[H]C(=Nc1c([H])c(F)c(C([H])([H])C([H])([H])C(=O)N2C([H])([H])C([H])([H])C([H])([H])C([H])(n3nc(-c4c([H])c([H])c(Oc5c([H])c([H])c(F)c([H])c5F)c([H])c4[H])c(C(=O)N([H])[H])c3N([H])[H])C2([H])[H])c([H])c1F)C(=O)C([H])([H])Oc1c([H])c([H])c2c(c1[H])C([H])([H])N(C(=O)C([H])(N([H])C(=O)C([H])(N([H])C([H])([H])[H])C([H])([H])[H])C(C([H])([H])[H])(C([H])([H])[H])C([H])([H])[H])C([H])(C(=O)N([H])C1([H])c3c([H])c([H])c([H])c([H])c3C([H])([H])C([H])([H])C1([H])[H])C2([H])[H]

>  <smiles>  (29) 
[H]C(=Nc1c([H])c(F)c(C([H])([H])C([H])([H])C(=O)N2C([H])([H])C([H])([H])C([H])([H])C([H])(n3nc(-c4c([H])c([H])c(Oc5c([H])c([H])c(F)c([H])c5F)c([H])c4[H])c(C(=O)N([H])[H])c3N([H])[H])C2([H])[H])c([H])c1F)C(=O)C([H])([H])Oc1c([H])c([H])c2c(c1[H])C([H])([H])N(C(=O)C([H])(N([H])C(=O)C([H])(N([H])C([H])([H])[H])C([H])([H])[H])C(C([H])([H])[H])(C([H])([H])[H])C([H])([H])[H])C([H])(C(=O)N([H])C1([H])c3c([H])c([H])c([H])c([H])c3C([H])([H])C([H])([H])C1([H])[H])C2([H])[H]

$$$$
29:0:0
     RDKit          3D

 94102  0  0  1  0  0  0  0  0999 V2000
  -29.1530  -22.6390   20.3390 C   0  0  0  0  0  3  0  0  0  0  0  0
  -30.1670  -21.7040   20.4140 C   0  0  0  0  0  0  0  0  0  0  0  0
  -28.8610  -19.4430   20.4180 C   0  0  0  0  0  3  0  0  0  0  0  0
  -31.2000  -17.9070   20.5250 C   0  0  0  0  0  3  0  0  0  0  0  0
  -30.0870  -20.1630   20.4290 C   0  0  0  0  0  0  0  0  0  0  0  0
  -29.9700  -17.2070   20.5310 C   0  0  0  0  0  0  0  0  0  0  0  0
  -28.8050  -18.0170   20.4700 C   0  0  0  0  0  0  0  0  0  0  0  0
  -31.2560  -19.3300   20.4730 C   0  0  0  0  0  0  0  0  0  0  0  0
  -27.5970  -17.4030   20.4600 F   0  0  0  0  0  0  0  0  0  0  0  0
  -32.4910  -19.8890   20.4800 F   0  0  0  0  0  0  0  0  0  0  0  0
  -30.6170  -14.7070   20.2600 C   0  0  0  0  0  0  0  0  0  0  0  0
  -30.3720  -12.4950   19.1580 C   0  0  0  0  0  2  0  0  0  0  0  0
  -29.3880  -12.6520   17.9770 C   0  0  0  0  0  2  0  0  0  0  0  0
  -27.9300  -12.4840   18.4510 C   0  0  0  0  0  2  0  0  0  0  0  0
  -27.6110  -13.3200   19.7190 C   0  0  0  0  0  3  0  0  0  0  0  0
  -28.7050  -13.1390   20.7960 C   0  0  0  0  0  2  0  0  0  0  0  0
  -29.9970  -13.4880   20.1820 N   0  0  0  0  0  0  0  0  0  0  0  0
  -31.7710  -14.8660   19.8530 O   0  0  0  0  0  0  0  0  0  0  0  0
  -29.8170  -15.7550   20.6240 N   0  0  0  0  0  0  0  0  0  0  0  0
  -28.8860  -15.4680   20.8860 H   0  0  0  0  0  0  0  0  0  0  0  0
  -25.2430  -13.9060   20.5250 C   0  0  0  0  0  0  0  0  0  0  0  0
  -24.1860  -13.1250   20.9090 C   0  0  0  0  0  0  0  0  0  0  0  0
  -24.6470  -11.7750   20.8340 C   0  0  0  0  0  0  0  0  0  0  0  0
  -26.2790  -13.0300   20.2390 N   0  0  0  0  0  0  0  0  0  0  0  0
  -25.9270  -11.7410   20.4860 N   0  0  0  0  0  0  0  0  0  0  0  0
  -23.9240  -10.5090   21.0190 C   0  0  0  0  0  0  0  0  0  0  0  0
  -24.3580   -9.5410   21.9520 C   0  0  0  0  0  3  0  0  0  0  0  0
  -23.6360   -8.3390   22.1240 C   0  0  0  0  0  3  0  0  0  0  0  0
  -22.4690   -8.0980   21.3630 C   0  0  0  0  0  0  0  0  0  0  0  0
  -22.0550   -9.0550   20.4190 C   0  0  0  0  0  3  0  0  0  0  0  0
  -22.7760  -10.2470   20.2460 C   0  0  0  0  0  3  0  0  0  0  0  0
  -21.7200   -6.9490   21.4450 O   0  0  0  0  0  0  0  0  0  0  0  0
  -21.6330   -6.2270   22.6070 C   0  0  0  0  0  0  0  0  0  0  0  0
  -21.1030   -6.7830   23.7920 C   0  0  0  0  0  3  0  0  0  0  0  0
  -20.9670   -5.9850   24.9460 C   0  0  0  0  0  3  0  0  0  0  0  0
  -21.3510   -4.6310   24.9150 C   0  0  0  0  0  0  0  0  0  0  0  0
  -21.8740   -4.0740   23.7360 C   0  0  0  0  0  3  0  0  0  0  0  0
  -22.0110   -4.8690   22.5840 C   0  0  0  0  0  0  0  0  0  0  0  0
  -22.4960   -4.3220   21.4440 F   0  0  0  0  0  0  0  0  0  0  0  0
  -21.2140   -3.8630   26.0210 F   0  0  0  0  0  0  0  0  0  0  0  0
  -22.7990  -13.5970   21.2360 C   0  0  0  0  0  0  0  0  0  0  0  0
  -22.0980  -12.8810   22.1080 N   0  0  0  0  0  0  0  0  0  0  0  0
  -22.3470  -14.6340   20.7550 O   0  0  0  0  0  0  0  0  0  0  0  0
  -22.4760  -12.0410   22.5190 H   0  0  0  0  0  0  0  0  0  0  0  0
  -21.1680  -13.1800   22.3690 H   0  0  0  0  0  0  0  0  0  0  0  0
  -25.4010  -15.2810   20.3800 N   0  0  0  0  0  0  0  0  0  0  0  0
  -24.6390  -15.9270   20.5530 H   0  0  0  0  0  0  0  0  0  0  0  0
  -26.2560  -15.7530   20.1140 H   0  0  0  0  0  0  0  0  0  0  0  0
  -29.3040  -24.1680   20.3760 C   0  0  0  0  0  0  0  0  0  0  0  0
  -30.3470  -24.7250   20.7390 O   0  0  0  0  0  0  0  0  0  0  0  0
  -28.1130  -25.1090   19.9690 C   0  0  0  0  0  2  0  0  0  0  0  0
  -28.3190  -26.5560   20.2110 O   0  0  0  0  0  0  0  0  0  0  0  0
  -24.5630  -31.9210   23.2220 C   0  0  0  0  0  0  0  0  0  0  0  0
  -27.1880  -27.3820   20.1640 C   0  0  0  0  0  0  0  0  0  0  0  0
  -23.3570  -30.5100   21.5930 C   0  0  0  0  0  3  0  0  0  0  0  0
  -24.8090  -28.9670   20.1640 C   0  0  0  0  0  0  0  0  0  0  0  0
  -25.8930  -30.8480   21.3920 C   0  0  0  0  0  2  0  0  0  0  0  0
  -25.9770  -29.4690   20.7500 C   0  0  0  0  0  0  0  0  0  0  0  0
  -27.1700  -28.6880   20.7410 C   0  0  0  0  0  3  0  0  0  0  0  0
  -25.9940  -26.9300   19.5540 C   0  0  0  0  0  3  0  0  0  0  0  0
  -24.8180  -27.7030   19.5570 C   0  0  0  0  0  3  0  0  0  0  0  0
  -23.5660  -29.8300   20.2140 C   0  0  0  0  0  2  0  0  0  0  0  0
  -24.6240  -31.1100   22.1250 N   0  0  0  0  0  0  0  0  0  0  0  0
  -23.4820  -32.1940   23.7620 O   0  0  0  0  0  0  0  0  0  0  0  0
  -22.7080  -29.4910   22.5590 C   0  0  0  0  0  0  0  0  0  0  0  0
  -21.3840  -29.2980   22.4340 N   0  0  0  0  0  0  0  0  0  0  0  0
  -23.3930  -28.8780   23.3820 O   0  0  0  0  0  0  0  0  0  0  0  0
  -20.8910  -29.8460   21.7420 H   0  0  0  0  0  0  0  0  0  0  0  0
  -18.0160  -28.0890   22.9520 C   0  0  0  0  0  0  0  0  0  0  0  0
  -20.5740  -28.3600   23.2100 C   0  0  0  0  0  3  0  0  0  0  0  0
  -20.6790  -26.9270   22.6380 C   0  0  0  0  0  2  0  0  0  0  0  0
  -19.5740  -26.5970   21.6300 C   0  0  0  0  0  2  0  0  0  0  0  0
  -18.1950  -26.7380   22.2800 C   0  0  0  0  0  2  0  0  0  0  0  0
  -19.1330  -28.8570   23.3740 C   0  0  0  0  0  0  0  0  0  0  0  0
  -18.9100  -30.1210   23.9630 C   0  0  0  0  0  3  0  0  0  0  0  0
  -17.6040  -30.6170   24.1330 C   0  0  0  0  0  3  0  0  0  0  0  0
  -16.5010  -29.8460   23.7270 C   0  0  0  0  0  3  0  0  0  0  0  0
  -16.7080  -28.5840   23.1420 C   0  0  0  0  0  3  0  0  0  0  0  0
  -25.8460  -32.5620   23.8340 C   0  0  0  0  0  3  0  0  0  0  0  0
  -26.3650  -31.8060   25.1180 C   0  0  1  0  0  0  0  0  0  0  0  0
  -25.2720  -31.5730   26.1860 C   0  0  0  0  0  1  0  0  0  0  0  0
  -26.9580  -30.4290   24.7400 C   0  0  0  0  0  1  0  0  0  0  0  0
  -27.5100  -32.6140   25.7740 C   0  0  0  0  0  1  0  0  0  0  0  0
  -25.5350  -33.9630   24.1490 N   0  0  0  0  0  0  0  0  0  0  0  0
  -25.8350  -35.0050   23.3630 C   0  0  0  0  0  0  0  0  0  0  0  0
  -26.4740  -34.8900   22.3130 O   0  0  0  0  0  0  0  0  0  0  0  0
  -24.9620  -34.1250   24.9640 H   0  0  0  0  0  0  0  0  0  0  0  0
  -24.0760  -36.7750   23.0400 C   0  0  0  0  0  1  0  0  0  0  0  0
  -25.3500  -36.3980   23.8130 C   0  0  0  0  0  3  0  0  0  0  0  0
  -27.4980  -37.3270   24.5570 C   0  0  0  0  0  1  0  0  0  0  0  0
  -26.3670  -37.4580   23.6410 N   0  0  0  0  0  0  0  0  0  0  0  0
  -25.9540  -38.3770   23.7770 H   0  0  0  0  0  0  0  0  0  0  0  0
  -31.4320  -22.1470   20.5010 O   0  0  0  0  0  0  0  0  0  0  0  0
  -32.0030  -21.3810   20.4870 H   0  0  0  0  0  0  0  0  0  0  0  0
  1 49  1  0
  1  2  2  0
  2  5  1  0
  2 93  1  0
  3  5  2  0
  3  7  1  0
  4  6  1  0
  5  8  1  0
  6 19  1  0
  7  6  2  0
  8 10  1  0
  8  4  2  0
  9  7  1  0
 11 19  1  0
 12 17  1  0
 13 14  1  0
 13 12  1  0
 15 14  1  0
 15 24  1  0
 15 16  1  0
 17 11  1  0
 17 16  1  0
 18 11  2  0
 19 20  1  0
 21 22  2  0
 22 41  1  0
 23 22  1  0
 23 26  1  0
 24 25  1  0
 24 21  1  0
 25 23  2  0
 26 27  1  0
 27 28  2  0
 29 32  1  0
 29 28  1  0
 30 29  2  0
 31 30  1  0
 31 26  2  0
 32 33  1  0
 33 34  1  0
 34 35  2  0
 36 35  1  0
 36 40  1  0
 37 36  2  0
 38 33  2  0
 38 37  1  0
 39 38  1  0
 41 42  1  0
 42 45  1  0
 42 44  1  0
 43 41  2  0
 46 21  1  0
 46 47  1  0
 48 46  1  0
 49 50  2  0
 51 52  1  0
 51 49  1  0
 53 64  2  0
 54 52  1  0
 54 59  1  0
 55 63  1  0
 55 65  1  0
 56 62  1  0
 56 58  1  0
 57 63  1  0
 58 57  1  0
 59 58  2  0
 60 61  1  0
 60 54  2  0
 61 56  2  0
 62 55  1  0
 63 53  1  0
 65 67  2  0
 66 65  1  0
 68 66  1  0
 69 78  2  0
 69 74  1  0
 70 66  1  0
 70 74  1  0
 71 70  1  0
 72 73  1  0
 72 71  1  0
 73 69  1  0
 74 75  2  0
 75 76  1  0
 77 76  2  0
 78 77  1  0
 79 53  1  0
 79 84  1  0
 79 80  1  0
 80 83  1  1
 80 81  1  0
 82 80  1  0
 84 87  1  0
 85 89  1  0
 85 84  1  0
 86 85  2  0
 89 88  1  0
 91 92  1  0
 91 89  1  0
 91 90  1  0
 94 93  1  0
M  ISO  4  11 100  19 100  51 101  52 101
M  END
>  <TORSDO>  (30) 
F 20

>  <SCORE>  (30) 
-14.457

>  <name>  (30) 
29

>  <ligand_id>  (30) 
29

>  <original_smiles>  (30) 
[H]OC(=C([H])C(=O)C([H])([H])Oc1c([H])c([H])c2c(c1[H])C([H])([H])N(C(=O)C([H])(N([H])C(=O)C([H])(N([H])C([H])([H])[H])C([H])([H])[H])C(C([H])([H])[H])(C([H])([H])[H])C([H])([H])[H])C([H])(C(=O)N([H])C1([H])c3c([H])c([H])c([H])c([H])c3C([H])([H])C([H])([H])C1([H])[H])C2([H])[H])c1c([H])c(F)c(N([H])C(=O)N2C([H])([H])C([H])([H])C([H])([H])C([H])(n3nc(-c4c([H])c([H])c(Oc5c([H])c([H])c(F)c([H])c5F)c([H])c4[H])c(C(=O)N([H])[H])c3N([H])[H])C2([H])[H])c([H])c1F

>  <smiles>  (30) 
[H]OC(=C([H])C(=O)C([H])([H])Oc1c([H])c([H])c2c(c1[H])C([H])([H])N(C(=O)C([H])(N([H])C(=O)C([H])(N([H])C([H])([H])[H])C([H])([H])[H])C(C([H])([H])[H])(C([H])([H])[H])C([H])([H])[H])C([H])(C(=O)N([H])C1([H])c3c([H])c([H])c([H])c([H])c3C([H])([H])C([H])([H])C1([H])[H])C2([H])[H])c1c([H])c(F)c(N([H])C(=O)N2C([H])([H])C([H])([H])C([H])([H])C([H])(n3nc(-c4c([H])c([H])c(Oc5c([H])c([H])c(F)c([H])c5F)c([H])c4[H])c(C(=O)N([H])[H])c3N([H])[H])C2([H])[H])c([H])c1F

$$$$
30:0:0
     RDKit          3D

 98106  0  0  1  0  0  0  0  0999 V2000
  -30.6220  -21.3760   18.0750 C   0  0  0  0  0  0  0  0  0  0  0  0
  -30.3570  -20.1230   17.6330 N   0  0  0  0  0  0  0  0  0  0  0  0
  -31.7500  -21.8790   18.0090 O   0  0  0  0  0  0  0  0  0  0  0  0
  -29.1170  -19.3910   17.9650 C   0  0  0  0  0  2  0  0  0  0  0  0
  -30.6920  -14.3620   20.5040 C   0  0  0  0  0  0  0  0  0  0  0  0
  -30.3450  -12.2580   19.2880 C   0  0  0  0  0  2  0  0  0  0  0  0
  -29.4100  -12.5320   18.0910 C   0  0  0  0  0  2  0  0  0  0  0  0
  -27.9320  -12.4180   18.5140 C   0  0  0  0  0  2  0  0  0  0  0  0
  -27.6150  -13.2270   19.7990 C   0  0  0  0  0  3  0  0  0  0  0  0
  -28.6580  -12.9360   20.9020 C   0  0  0  0  0  2  0  0  0  0  0  0
  -30.0010  -13.2040   20.3570 N   0  0  0  0  0  0  0  0  0  0  0  0
  -31.7810  -14.5820   19.9610 O   0  0  0  0  0  0  0  0  0  0  0  0
  -29.2410  -18.7500   20.4780 C   0  0  0  0  0  3  0  0  0  0  0  0
  -29.2880  -18.4660   19.1310 C   0  0  0  0  0  0  0  0  0  0  0  0
  -29.7510  -16.5490   20.5800 C   0  0  0  0  0  0  0  0  0  0  0  0
  -29.4870  -17.6410   21.3010 N   0  0  0  0  0  0  0  0  0  0  0  0
  -30.0580  -15.3190   21.1900 N   0  0  0  0  0  0  0  0  0  0  0  0
  -29.5960  -16.7790   18.8440 S   0  0  0  0  0  0  0  0  0  0  0  0
  -29.3800  -15.0060   21.8660 H   0  0  0  0  0  0  0  0  0  0  0  0
  -25.2170  -13.8670   20.4900 C   0  0  0  0  0  0  0  0  0  0  0  0
  -24.1390  -13.1060   20.8600 C   0  0  0  0  0  0  0  0  0  0  0  0
  -24.5860  -11.7500   20.8340 C   0  0  0  0  0  0  0  0  0  0  0  0
  -26.2530  -12.9730   20.2670 N   0  0  0  0  0  0  0  0  0  0  0  0
  -25.8750  -11.6960   20.5270 N   0  0  0  0  0  0  0  0  0  0  0  0
  -23.8460  -10.4960   21.0280 C   0  0  0  0  0  0  0  0  0  0  0  0
  -24.2690   -9.5280   21.9640 C   0  0  0  0  0  3  0  0  0  0  0  0
  -23.5320   -8.3360   22.1440 C   0  0  0  0  0  3  0  0  0  0  0  0
  -22.3590   -8.1060   21.3860 C   0  0  0  0  0  0  0  0  0  0  0  0
  -21.9560   -9.0630   20.4380 C   0  0  0  0  0  3  0  0  0  0  0  0
  -22.6930  -10.2450   20.2560 C   0  0  0  0  0  3  0  0  0  0  0  0
  -21.5940   -6.9690   21.4750 O   0  0  0  0  0  0  0  0  0  0  0  0
  -21.5370   -6.2280   22.6290 C   0  0  0  0  0  0  0  0  0  0  0  0
  -21.1040   -6.7860   23.8520 C   0  0  0  0  0  3  0  0  0  0  0  0
  -20.9940   -5.9710   24.9970 C   0  0  0  0  0  3  0  0  0  0  0  0
  -21.3070   -4.6010   24.9200 C   0  0  0  0  0  0  0  0  0  0  0  0
  -21.7320   -4.0430   23.7020 C   0  0  0  0  0  3  0  0  0  0  0  0
  -21.8440   -4.8550   22.5590 C   0  0  0  0  0  0  0  0  0  0  0  0
  -22.2340   -4.3070   21.3830 F   0  0  0  0  0  0  0  0  0  0  0  0
  -21.1940   -3.8170   26.0170 F   0  0  0  0  0  0  0  0  0  0  0  0
  -22.7470  -13.5980   21.1320 C   0  0  0  0  0  0  0  0  0  0  0  0
  -22.0110  -12.9110   22.0000 N   0  0  0  0  0  0  0  0  0  0  0  0
  -22.3190  -14.6270   20.6110 O   0  0  0  0  0  0  0  0  0  0  0  0
  -22.3670  -12.0770   22.4440 H   0  0  0  0  0  0  0  0  0  0  0  0
  -21.0760  -13.2240   22.2230 H   0  0  0  0  0  0  0  0  0  0  0  0
  -25.3970  -15.2340   20.3090 N   0  0  0  0  0  0  0  0  0  0  0  0
  -24.6360  -15.8970   20.4140 H   0  0  0  0  0  0  0  0  0  0  0  0
  -26.2530  -15.6650   19.9840 H   0  0  0  0  0  0  0  0  0  0  0  0
  -29.4810  -22.2210   18.6480 C   0  0  0  0  0  2  0  0  0  0  0  0
  -29.8700  -23.6980   18.8270 C   0  0  0  0  0  2  0  0  0  0  0  0
  -28.7200  -24.5520   19.3440 C   0  0  0  0  0  0  0  0  0  0  0  0
  -27.7970  -24.0660   20.0050 O   0  0  0  0  0  0  0  0  0  0  0  0
  -28.7790  -26.0410   19.0090 C   0  0  0  0  0  2  0  0  0  0  0  0
  -28.4300  -26.8100   20.1550 O   0  0  0  0  0  0  0  0  0  0  0  0
  -24.5550  -31.8680   23.2320 C   0  0  0  0  0  0  0  0  0  0  0  0
  -27.2240  -27.4650   20.1470 C   0  0  0  0  0  0  0  0  0  0  0  0
  -23.3530  -30.4670   21.5820 C   0  0  0  0  0  3  0  0  0  0  0  0
  -24.8130  -28.9290   20.1650 C   0  0  0  0  0  0  0  0  0  0  0  0
  -25.8760  -30.8310   21.3970 C   0  0  0  0  0  2  0  0  0  0  0  0
  -25.9610  -29.4600   20.7650 C   0  0  0  0  0  0  0  0  0  0  0  0
  -27.1630  -28.7270   20.7690 C   0  0  0  0  0  3  0  0  0  0  0  0
  -26.0570  -26.9290   19.5550 C   0  0  0  0  0  3  0  0  0  0  0  0
  -24.8510  -27.6570   19.5660 C   0  0  0  0  0  3  0  0  0  0  0  0
  -23.5670  -29.7820   20.2030 C   0  0  0  0  0  2  0  0  0  0  0  0
  -24.6120  -31.0700   22.1290 N   0  0  0  0  0  0  0  0  0  0  0  0
  -23.4730  -32.1420   23.7680 O   0  0  0  0  0  0  0  0  0  0  0  0
  -22.6990  -29.4460   22.5400 C   0  0  0  0  0  0  0  0  0  0  0  0
  -21.3760  -29.2680   22.4050 N   0  0  0  0  0  0  0  0  0  0  0  0
  -23.3790  -28.8190   23.3550 O   0  0  0  0  0  0  0  0  0  0  0  0
  -20.8910  -29.8270   21.7180 H   0  0  0  0  0  0  0  0  0  0  0  0
  -17.9930  -28.1030   22.8920 C   0  0  0  0  0  0  0  0  0  0  0  0
  -20.5510  -28.3330   23.1690 C   0  0  0  0  0  3  0  0  0  0  0  0
  -20.6410  -26.9060   22.5820 C   0  0  0  0  0  2  0  0  0  0  0  0
  -19.5380  -26.6010   21.5650 C   0  0  0  0  0  2  0  0  0  0  0  0
  -18.1560  -26.7560   22.2090 C   0  0  0  0  0  2  0  0  0  0  0  0
  -19.1170  -28.8500   23.3290 C   0  0  0  0  0  0  0  0  0  0  0  0
  -18.9120  -30.1130   23.9250 C   0  0  0  0  0  3  0  0  0  0  0  0
  -17.6130  -30.6280   24.0910 C   0  0  0  0  0  3  0  0  0  0  0  0
  -16.5010  -29.8760   23.6740 C   0  0  0  0  0  3  0  0  0  0  0  0
  -16.6920  -28.6160   23.0790 C   0  0  0  0  0  3  0  0  0  0  0  0
  -25.8420  -32.4930   23.8570 C   0  0  0  0  0  3  0  0  0  0  0  0
  -25.5400  -33.8940   24.1780 N   0  0  0  0  0  0  0  0  0  0  0  0
  -25.8860  -34.9400   23.4160 C   0  0  0  0  0  0  0  0  0  0  0  0
  -26.5640  -34.8280   22.3910 O   0  0  0  0  0  0  0  0  0  0  0  0
  -24.9410  -34.0560   24.9740 H   0  0  0  0  0  0  0  0  0  0  0  0
  -24.1740  -36.7410   23.0300 C   0  0  0  0  0  1  0  0  0  0  0  0
  -25.4010  -36.3330   23.8620 C   0  0  0  0  0  3  0  0  0  0  0  0
  -27.5270  -37.2070   24.7210 C   0  0  0  0  0  1  0  0  0  0  0  0
  -26.4410  -37.3790   23.7590 N   0  0  0  0  0  0  0  0  0  0  0  0
  -26.0390  -38.3020   23.8970 H   0  0  0  0  0  0  0  0  0  0  0  0
  -26.3500  -31.7230   25.1370 C   0  0  1  0  0  0  0  0  0  0  0  0
  -25.2520  -31.4930   26.2010 C   0  0  0  0  0  1  0  0  0  0  0  0
  -26.9280  -30.3420   24.7480 C   0  0  0  0  0  1  0  0  0  0  0  0
  -27.5000  -32.5140   25.8030 C   0  0  0  0  0  1  0  0  0  0  0  0
  -31.3950  -19.3230   16.9480 C   0  0  0  0  0  2  0  0  0  0  0  0
  -32.4920  -18.4570   14.8740 C   0  0  0  0  0  1  0  0  0  0  0  0
  -30.0760  -19.0890   14.7680 C   0  0  0  0  0  1  0  0  0  0  0  0
  -31.8350  -20.8650   14.9380 C   0  0  0  0  0  1  0  0  0  0  0  0
  -31.4350  -19.4480   15.3960 C   0  0  1  0  0  0  0  0  0  0  0  0
  1 48  1  0
  2  4  1  0
  2  1  1  0
  3  1  2  0
  4 14  1  0
  5 17  1  0
  6 11  1  0
  7  8  1  0
  7  6  1  0
  9  8  1  0
  9 23  1  0
  9 10  1  0
 11  5  1  0
 11 10  1  0
 12  5  2  0
 13 16  1  0
 14 13  2  0
 15 17  1  0
 15 16  2  0
 17 19  1  0
 18 14  1  0
 18 15  1  0
 20 21  2  0
 21 40  1  0
 22 21  1  0
 22 25  1  0
 23 20  1  0
 23 24  1  0
 24 22  2  0
 25 26  1  0
 26 27  2  0
 28 31  1  0
 28 27  1  0
 29 28  2  0
 30 29  1  0
 30 25  2  0
 31 32  1  0
 32 33  1  0
 33 34  2  0
 35 34  1  0
 35 39  1  0
 36 35  2  0
 37 32  2  0
 37 36  1  0
 38 37  1  0
 40 41  1  0
 41 44  1  0
 41 43  1  0
 42 40  2  0
 45 46  1  0
 45 20  1  0
 47 45  1  0
 48 49  1  0
 49 50  1  0
 50 51  2  0
 52 50  1  0
 52 53  1  0
 54 65  2  0
 55 53  1  0
 55 60  1  0
 56 64  1  0
 56 66  1  0
 57 63  1  0
 57 59  1  0
 58 64  1  0
 59 60  2  0
 59 58  1  0
 61 62  1  0
 61 55  2  0
 62 57  2  0
 63 56  1  0
 64 54  1  0
 66 68  2  0
 67 66  1  0
 69 67  1  0
 70 79  2  0
 70 75  1  0
 71 67  1  0
 71 75  1  0
 72 71  1  0
 73 74  1  0
 73 72  1  0
 74 70  1  0
 75 76  2  0
 76 77  1  0
 78 77  2  0
 79 78  1  0
 80 54  1  0
 80 81  1  0
 80 90  1  0
 81 84  1  0
 82 86  1  0
 82 81  1  0
 83 82  2  0
 86 85  1  0
 88 86  1  0
 88 89  1  0
 88 87  1  0
 90 93  1  1
 90 91  1  0
 92 90  1  0
 94  2  1  0
 98 95  1  6
 96 98  1  0
 97 98  1  0
 98 94  1  0
M  ISO  4   5 100  17 100  52 101  53 101
M  END
>  <TORSDO>  (31) 
F 23

>  <SCORE>  (31) 
-12.855

>  <name>  (31) 
30

>  <ligand_id>  (31) 
30

>  <original_smiles>  (31) 
[H]c1nc(N([H])C(=O)N2C([H])([H])C([H])([H])C([H])([H])C([H])(n3nc(-c4c([H])c([H])c(Oc5c([H])c([H])c(F)c([H])c5F)c([H])c4[H])c(C(=O)N([H])[H])c3N([H])[H])C2([H])[H])sc1C([H])([H])N(C(=O)C([H])([H])C([H])([H])C(=O)C([H])([H])Oc1c([H])c([H])c2c(c1[H])C([H])([H])N(C(=O)C([H])(N([H])C(=O)C([H])(N([H])C([H])([H])[H])C([H])([H])[H])C(C([H])([H])[H])(C([H])([H])[H])C([H])([H])[H])C([H])(C(=O)N([H])C1([H])c3c([H])c([H])c([H])c([H])c3C([H])([H])C([H])([H])C1([H])[H])C2([H])[H])C([H])([H])C(C([H])([H])[H])(C([H])([H])[H])C([H])([H])[H]

>  <smiles>  (31) 
[H]c1nc(N([H])C(=O)N2C([H])([H])C([H])([H])C([H])([H])C([H])(n3nc(-c4c([H])c([H])c(Oc5c([H])c([H])c(F)c([H])c5F)c([H])c4[H])c(C(=O)N([H])[H])c3N([H])[H])C2([H])[H])sc1C([H])([H])N(C(=O)C([H])([H])C([H])([H])C(=O)C([H])([H])Oc1c([H])c([H])c2c(c1[H])C([H])([H])N(C(=O)C([H])(N([H])C(=O)C([H])(N([H])C([H])([H])[H])C([H])([H])[H])C(C([H])([H])[H])(C([H])([H])[H])C([H])([H])[H])C([H])(C(=O)N([H])C1([H])c3c([H])c([H])c([H])c([H])c3C([H])([H])C([H])([H])C1([H])[H])C2([H])[H])C([H])([H])C(C([H])([H])[H])(C([H])([H])[H])C([H])([H])[H]

$$$$
31:0:0
     RDKit          3D

 95103  0  0  1  0  0  0  0  0999 V2000
  -30.7920  -20.7430   19.8730 C   0  0  0  0  0  0  0  0  0  0  0  0
  -29.9740  -21.8270   19.8500 N   0  0  0  0  0  0  0  0  0  0  0  0
  -32.0030  -20.8550   19.6690 O   0  0  0  0  0  0  0  0  0  0  0  0
  -28.9970  -21.6770   20.0690 H   0  0  0  0  0  0  0  0  0  0  0  0
  -28.9100  -18.9480   20.2230 C   0  0  0  0  0  0  0  0  0  0  0  0
  -28.7890  -17.5420   20.4480 C   0  0  0  0  0  0  0  0  0  0  0  0
  -30.1990  -19.3860   20.1030 C   0  0  0  0  0  0  0  0  0  0  0  0
  -29.9710  -16.8400   20.4980 C   0  0  0  0  0  0  0  0  0  0  0  0
  -27.8590  -19.7360   20.1330 F   0  0  0  0  0  0  0  0  0  0  0  0
  -27.6190  -16.9590   20.5800 F   0  0  0  0  0  0  0  0  0  0  0  0
  -31.2920  -17.9970   20.2860 S   0  0  0  0  0  0  0  0  0  0  0  0
  -30.7770  -14.5290   20.0530 C   0  0  0  0  0  0  0  0  0  0  0  0
  -30.5430  -12.2940   19.0020 C   0  0  0  0  0  2  0  0  0  0  0  0
  -29.5480  -12.4030   17.8250 C   0  0  0  0  0  2  0  0  0  0  0  0
  -28.0890  -12.2600   18.3050 C   0  0  0  0  0  2  0  0  0  0  0  0
  -27.7750  -13.1470   19.5390 C   0  0  0  0  0  3  0  0  0  0  0  0
  -28.8690  -12.9730   20.6180 C   0  0  0  0  0  2  0  0  0  0  0  0
  -30.1690  -13.3060   20.0050 N   0  0  0  0  0  0  0  0  0  0  0  0
  -31.8640  -14.7570   19.5130 O   0  0  0  0  0  0  0  0  0  0  0  0
  -30.0420  -15.4810   20.6690 N   0  0  0  0  0  0  0  0  0  0  0  0
  -29.2500  -15.0970   21.1660 H   0  0  0  0  0  0  0  0  0  0  0  0
  -25.4150  -13.7750   20.3590 C   0  0  0  0  0  0  0  0  0  0  0  0
  -24.3540  -13.0100   20.7610 C   0  0  0  0  0  0  0  0  0  0  0  0
  -24.7970  -11.6540   20.6910 C   0  0  0  0  0  0  0  0  0  0  0  0
  -26.4390  -12.8840   20.0690 N   0  0  0  0  0  0  0  0  0  0  0  0
  -26.0720  -11.6010   20.3240 N   0  0  0  0  0  0  0  0  0  0  0  0
  -24.0650  -10.3980   20.8960 C   0  0  0  0  0  0  0  0  0  0  0  0
  -24.4930   -9.4390   21.8420 C   0  0  0  0  0  3  0  0  0  0  0  0
  -23.7630   -8.2460   22.0320 C   0  0  0  0  0  3  0  0  0  0  0  0
  -22.5910   -8.0030   21.2770 C   0  0  0  0  0  0  0  0  0  0  0  0
  -22.1820   -8.9500   20.3210 C   0  0  0  0  0  3  0  0  0  0  0  0
  -22.9130  -10.1350   20.1300 C   0  0  0  0  0  3  0  0  0  0  0  0
  -21.8350   -6.8600   21.3760 O   0  0  0  0  0  0  0  0  0  0  0  0
  -21.7390   -6.1610   22.5520 C   0  0  0  0  0  0  0  0  0  0  0  0
  -21.2420   -6.7540   23.7330 C   0  0  0  0  0  3  0  0  0  0  0  0
  -21.0930   -5.9800   24.9010 C   0  0  0  0  0  3  0  0  0  0  0  0
  -21.4290   -4.6120   24.8880 C   0  0  0  0  0  0  0  0  0  0  0  0
  -21.9190   -4.0190   23.7110 C   0  0  0  0  0  3  0  0  0  0  0  0
  -22.0690   -4.7910   22.5450 C   0  0  0  0  0  0  0  0  0  0  0  0
  -22.5210   -4.2070   21.4090 F   0  0  0  0  0  0  0  0  0  0  0  0
  -21.2780   -3.8670   26.0080 F   0  0  0  0  0  0  0  0  0  0  0  0
  -22.9750  -13.5000   21.1010 C   0  0  0  0  0  0  0  0  0  0  0  0
  -22.2840  -12.8060   21.9980 N   0  0  0  0  0  0  0  0  0  0  0  0
  -22.5220  -14.5310   20.6060 O   0  0  0  0  0  0  0  0  0  0  0  0
  -22.6650  -11.9720   22.4190 H   0  0  0  0  0  0  0  0  0  0  0  0
  -21.3620  -13.1150   22.2700 H   0  0  0  0  0  0  0  0  0  0  0  0
  -25.5930  -15.1450   20.1970 N   0  0  0  0  0  0  0  0  0  0  0  0
  -24.8620  -15.8190   20.3990 H   0  0  0  0  0  0  0  0  0  0  0  0
  -26.4470  -15.5760   19.8680 H   0  0  0  0  0  0  0  0  0  0  0  0
  -30.4270  -23.3710   17.9390 C   0  0  0  0  0  1  0  0  0  0  0  0
  -30.3800  -23.2100   19.4720 C   0  0  0  0  0  3  0  0  0  0  0  0
  -29.6540  -24.3740   20.2420 C   0  0  0  0  0  0  0  0  0  0  0  0
  -29.8730  -24.5660   21.4430 O   0  0  0  0  0  0  0  0  0  0  0  0
  -28.6360  -25.3010   19.5100 C   0  0  0  0  0  2  0  0  0  0  0  0
  -28.6330  -26.6680   20.0110 O   0  0  0  0  0  0  0  0  0  0  0  0
  -24.6730  -31.7510   23.1040 C   0  0  0  0  0  0  0  0  0  0  0  0
  -27.4500  -27.4010   19.9580 C   0  0  0  0  0  0  0  0  0  0  0  0
  -23.5210  -30.3740   21.4030 C   0  0  0  0  0  3  0  0  0  0  0  0
  -25.0280  -28.8990   19.9620 C   0  0  0  0  0  0  0  0  0  0  0  0
  -26.0490  -30.7680   21.2680 C   0  0  0  0  0  2  0  0  0  0  0  0
  -26.1680  -29.4150   20.5880 C   0  0  0  0  0  0  0  0  0  0  0  0
  -27.3780  -28.6740   20.5830 C   0  0  0  0  0  3  0  0  0  0  0  0
  -26.2860  -26.9180   19.3100 C   0  0  0  0  0  3  0  0  0  0  0  0
  -25.0830  -27.6510   19.3200 C   0  0  0  0  0  3  0  0  0  0  0  0
  -23.7690  -29.7370   20.0100 C   0  0  0  0  0  2  0  0  0  0  0  0
  -24.7650  -30.9810   21.9820 N   0  0  0  0  0  0  0  0  0  0  0  0
  -23.5770  -31.9920   23.6300 O   0  0  0  0  0  0  0  0  0  0  0  0
  -22.8690  -29.3170   22.3250 C   0  0  0  0  0  0  0  0  0  0  0  0
  -21.5400  -29.1590   22.2100 N   0  0  0  0  0  0  0  0  0  0  0  0
  -23.5560  -28.6460   23.1000 O   0  0  0  0  0  0  0  0  0  0  0  0
  -21.0480  -29.7540   21.5580 H   0  0  0  0  0  0  0  0  0  0  0  0
  -18.1470  -28.0430   22.7700 C   0  0  0  0  0  0  0  0  0  0  0  0
  -20.7220  -28.1960   22.9480 C   0  0  0  0  0  3  0  0  0  0  0  0
  -20.7490  -26.8070   22.2680 C   0  0  0  0  0  2  0  0  0  0  0  0
  -19.5950  -26.5950   21.2830 C   0  0  0  0  0  2  0  0  0  0  0  0
  -18.2480  -26.7390   21.9950 C   0  0  0  0  0  2  0  0  0  0  0  0
  -19.3100  -28.7340   23.2020 C   0  0  0  0  0  0  0  0  0  0  0  0
  -19.1620  -29.9590   23.8900 C   0  0  0  0  0  3  0  0  0  0  0  0
  -17.8840  -30.4900   24.1470 C   0  0  0  0  0  3  0  0  0  0  0  0
  -16.7370  -29.7940   23.7290 C   0  0  0  0  0  3  0  0  0  0  0  0
  -16.8690  -28.5710   23.0460 C   0  0  0  0  0  3  0  0  0  0  0  0
  -25.9360  -32.3860   23.7640 C   0  0  0  0  0  3  0  0  0  0  0  0
  -26.4430  -31.5940   25.0310 C   0  0  1  0  0  0  0  0  0  0  0  0
  -25.3360  -31.3130   26.0730 C   0  0  0  0  0  1  0  0  0  0  0  0
  -27.0610  -30.2370   24.6210 C   0  0  0  0  0  1  0  0  0  0  0  0
  -27.5630  -32.3960   25.7350 C   0  0  0  0  0  1  0  0  0  0  0  0
  -25.5990  -33.7710   24.1180 N   0  0  0  0  0  0  0  0  0  0  0  0
  -25.9200  -34.8450   23.3830 C   0  0  0  0  0  0  0  0  0  0  0  0
  -26.6010  -34.7740   22.3570 O   0  0  0  0  0  0  0  0  0  0  0  0
  -24.9910  -33.8990   24.9130 H   0  0  0  0  0  0  0  0  0  0  0  0
  -24.1600  -36.6120   23.0480 C   0  0  0  0  0  1  0  0  0  0  0  0
  -25.4020  -36.2150   23.8640 C   0  0  0  0  0  3  0  0  0  0  0  0
  -27.5080  -37.1270   24.7370 C   0  0  0  0  0  1  0  0  0  0  0  0
  -26.4160  -37.2880   23.7810 N   0  0  0  0  0  0  0  0  0  0  0  0
  -25.9900  -38.1980   23.9370 H   0  0  0  0  0  0  0  0  0  0  0  0
  1  7  1  0
  2  1  1  0
  2  4  1  0
  3  1  2  0
  5  6  1  0
  6  8  2  0
  6 10  1  0
  7  5  2  0
  7 11  1  0
  8 20  1  0
  9  5  1  0
 11  8  1  0
 12 20  1  0
 13 18  1  0
 14 15  1  0
 14 13  1  0
 16 15  1  0
 16 25  1  0
 16 17  1  0
 18 12  1  0
 18 17  1  0
 19 12  2  0
 20 21  1  0
 22 23  2  0
 23 42  1  0
 24 23  1  0
 24 27  1  0
 25 26  1  0
 25 22  1  0
 26 24  2  0
 27 28  1  0
 28 29  2  0
 30 33  1  0
 30 29  1  0
 31 30  2  0
 32 31  1  0
 32 27  2  0
 33 34  1  0
 34 35  1  0
 35 36  2  0
 37 36  1  0
 37 41  1  0
 38 37  2  0
 39 34  2  0
 39 38  1  0
 40 39  1  0
 42 43  1  0
 43 46  1  0
 43 45  1  0
 44 42  2  0
 47 22  1  0
 47 48  1  0
 49 47  1  0
 51 50  1  0
 51  2  1  0
 51 52  1  0
 52 53  2  0
 54 55  1  0
 54 52  1  0
 56 67  2  0
 57 55  1  0
 57 62  1  0
 58 66  1  0
 58 68  1  0
 59 65  1  0
 59 61  1  0
 60 66  1  0
 61 60  1  0
 62 61  2  0
 63 64  1  0
 63 57  2  0
 64 59  2  0
 65 58  1  0
 66 56  1  0
 68 70  2  0
 69 68  1  0
 71 69  1  0
 72 81  2  0
 72 77  1  0
 73 69  1  0
 73 77  1  0
 74 73  1  0
 75 76  1  0
 75 74  1  0
 76 72  1  0
 77 78  2  0
 78 79  1  0
 80 79  2  0
 81 80  1  0
 82 56  1  0
 82 87  1  0
 82 83  1  0
 83 86  1  1
 83 84  1  0
 85 83  1  0
 87 90  1  0
 88 92  1  0
 88 87  1  0
 89 88  2  0
 92 91  1  0
 94 92  1  0
 94 95  1  0
 94 93  1  0
M  ISO  4  12 100  20 100  54 101  55 101
M  END
>  <TORSDO>  (32) 
F 20

>  <SCORE>  (32) 
-13.840

>  <name>  (32) 
31

>  <ligand_id>  (32) 
31

>  <original_smiles>  (32) 
[H]c1c([H])c([H])c2c(c1[H])C([H])([H])C([H])([H])C([H])([H])C2([H])N([H])C(=O)C1([H])N(C(=O)C([H])(N([H])C(=O)C([H])(N([H])C([H])([H])[H])C([H])([H])[H])C(C([H])([H])[H])(C([H])([H])[H])C([H])([H])[H])C([H])([H])c2c([H])c(OC([H])([H])C(=O)C([H])(N([H])C(=O)c3sc(N([H])C(=O)N4C([H])([H])C([H])([H])C([H])([H])C([H])(n5nc(-c6c([H])c([H])c(Oc7c([H])c([H])c(F)c([H])c7F)c([H])c6[H])c(C(=O)N([H])[H])c5N([H])[H])C4([H])[H])c(F)c3F)C([H])([H])[H])c([H])c([H])c2C1([H])[H]

>  <smiles>  (32) 
[H]c1c([H])c([H])c2c(c1[H])C([H])([H])C([H])([H])C([H])([H])C2([H])N([H])C(=O)C1([H])N(C(=O)C([H])(N([H])C(=O)C([H])(N([H])C([H])([H])[H])C([H])([H])[H])C(C([H])([H])[H])(C([H])([H])[H])C([H])([H])[H])C([H])([H])c2c([H])c(OC([H])([H])C(=O)C([H])(N([H])C(=O)c3sc(N([H])C(=O)N4C([H])([H])C([H])([H])C([H])([H])C([H])(n5nc(-c6c([H])c([H])c(Oc7c([H])c([H])c(F)c([H])c7F)c([H])c6[H])c(C(=O)N([H])[H])c5N([H])[H])C4([H])[H])c(F)c3F)C([H])([H])[H])c([H])c([H])c2C1([H])[H]

$$$$
32:0:0
     RDKit          3D

 97105  0  0  1  0  0  0  0  0999 V2000
  -29.6270  -21.8210   20.3140 C   0  0  0  0  0  0  0  0  0  0  0  0
  -29.0570  -20.6040   20.1410 N   0  0  0  0  0  0  0  0  0  0  0  0
  -30.6700  -21.9390   20.9650 O   0  0  0  0  0  0  0  0  0  0  0  0
  -28.0940  -20.6410   19.8380 H   0  0  0  0  0  0  0  0  0  0  0  0
  -29.5350  -18.1450   20.4000 C   0  0  0  0  0  3  0  0  0  0  0  0
  -30.5820  -19.4580   18.6250 C   0  0  0  0  0  3  0  0  0  0  0  0
  -29.7560  -19.4070   19.7690 C   0  0  0  0  0  0  0  0  0  0  0  0
  -30.1270  -16.9440   19.8940 C   0  0  0  0  0  0  0  0  0  0  0  0
  -31.1300  -18.2840   18.0870 C   0  0  0  0  0  0  0  0  0  0  0  0
  -30.8860  -17.0380   18.6920 C   0  0  0  0  0  0  0  0  0  0  0  0
  -31.8660  -18.3490   16.9520 F   0  0  0  0  0  0  0  0  0  0  0  0
  -31.3490  -15.9360   18.0520 F   0  0  0  0  0  0  0  0  0  0  0  0
  -30.6510  -14.5590   20.4790 C   0  0  0  0  0  0  0  0  0  0  0  0
  -30.4020  -12.3410   19.4640 C   0  0  0  0  0  2  0  0  0  0  0  0
  -29.4990  -12.4990   18.2230 C   0  0  0  0  0  2  0  0  0  0  0  0
  -28.0150  -12.3610   18.6130 C   0  0  0  0  0  2  0  0  0  0  0  0
  -27.6280  -13.2340   19.8370 C   0  0  0  0  0  3  0  0  0  0  0  0
  -28.6580  -13.0940   20.9820 C   0  0  0  0  0  2  0  0  0  0  0  0
  -29.9910  -13.3700   20.4300 N   0  0  0  0  0  0  0  0  0  0  0  0
  -31.8630  -14.6420   20.2660 O   0  0  0  0  0  0  0  0  0  0  0  0
  -29.8730  -15.6690   20.5360 N   0  0  0  0  0  0  0  0  0  0  0  0
  -28.9410  -15.5310   20.8920 H   0  0  0  0  0  0  0  0  0  0  0  0
  -25.2110  -13.8330   20.4810 C   0  0  0  0  0  0  0  0  0  0  0  0
  -24.1390  -13.0590   20.8340 C   0  0  0  0  0  0  0  0  0  0  0  0
  -24.6090  -11.7110   20.8380 C   0  0  0  0  0  0  0  0  0  0  0  0
  -26.2670  -12.9560   20.2910 N   0  0  0  0  0  0  0  0  0  0  0  0
  -25.9080  -11.6760   20.5670 N   0  0  0  0  0  0  0  0  0  0  0  0
  -23.8850  -10.4470   21.0280 C   0  0  0  0  0  0  0  0  0  0  0  0
  -24.3020   -9.4940   21.9830 C   0  0  0  0  0  3  0  0  0  0  0  0
  -23.5800   -8.2940   22.1590 C   0  0  0  0  0  3  0  0  0  0  0  0
  -22.4260   -8.0390   21.3810 C   0  0  0  0  0  0  0  0  0  0  0  0
  -22.0270   -8.9820   20.4180 C   0  0  0  0  0  3  0  0  0  0  0  0
  -22.7500  -10.1720   20.2390 C   0  0  0  0  0  3  0  0  0  0  0  0
  -21.6760   -6.8900   21.4660 O   0  0  0  0  0  0  0  0  0  0  0  0
  -21.6120   -6.1570   22.6230 C   0  0  0  0  0  0  0  0  0  0  0  0
  -21.1640   -6.7190   23.8390 C   0  0  0  0  0  3  0  0  0  0  0  0
  -21.0460   -5.9120   24.9870 C   0  0  0  0  0  3  0  0  0  0  0  0
  -21.3670   -4.5420   24.9240 C   0  0  0  0  0  0  0  0  0  0  0  0
  -21.8080   -3.9800   23.7130 C   0  0  0  0  0  3  0  0  0  0  0  0
  -21.9280   -4.7850   22.5660 C   0  0  0  0  0  0  0  0  0  0  0  0
  -22.3330   -4.2330   21.3970 F   0  0  0  0  0  0  0  0  0  0  0  0
  -21.2480   -3.7650   26.0250 F   0  0  0  0  0  0  0  0  0  0  0  0
  -22.7310  -13.5320   21.0580 C   0  0  0  0  0  0  0  0  0  0  0  0
  -21.9810  -12.8450   21.9130 N   0  0  0  0  0  0  0  0  0  0  0  0
  -22.3030  -14.5480   20.5110 O   0  0  0  0  0  0  0  0  0  0  0  0
  -22.3390  -12.0250   22.3800 H   0  0  0  0  0  0  0  0  0  0  0  0
  -21.0350  -13.1460   22.1030 H   0  0  0  0  0  0  0  0  0  0  0  0
  -25.3700  -15.2010   20.2860 N   0  0  0  0  0  0  0  0  0  0  0  0
  -24.5890  -15.8450   20.3590 H   0  0  0  0  0  0  0  0  0  0  0  0
  -26.2140  -15.6450   19.9480 H   0  0  0  0  0  0  0  0  0  0  0  0
  -28.9140  -22.9500   19.6630 C   0  0  0  0  0  0  0  0  0  0  0  0
  -29.1660  -24.2570   20.0040 C   0  0  0  0  0  0  0  0  0  0  0  0
  -27.9350  -22.5970   18.5410 C   0  0  0  0  0  1  0  0  0  0  0  0
  -29.9940  -24.6290   20.9970 O   0  0  0  0  0  0  0  0  0  0  0  0
  -30.3790  -23.8350   21.3560 H   0  0  0  0  0  0  0  0  0  0  0  0
  -28.6100  -25.5280   19.3150 C   0  0  0  0  0  2  0  0  0  0  0  0
  -28.4120  -26.6810   20.1760 O   0  0  0  0  0  0  0  0  0  0  0  0
  -24.5950  -31.8820   23.2500 C   0  0  0  0  0  0  0  0  0  0  0  0
  -27.2260  -27.4090   20.1470 C   0  0  0  0  0  0  0  0  0  0  0  0
  -23.3850  -30.4850   21.6120 C   0  0  0  0  0  3  0  0  0  0  0  0
  -24.8310  -28.9500   20.1790 C   0  0  0  0  0  0  0  0  0  0  0  0
  -25.9140  -30.8320   21.4080 C   0  0  0  0  0  2  0  0  0  0  0  0
  -25.9970  -29.4610   20.7620 C   0  0  0  0  0  0  0  0  0  0  0  0
  -27.1920  -28.6980   20.7420 C   0  0  0  0  0  3  0  0  0  0  0  0
  -26.0220  -26.9140   19.5880 C   0  0  0  0  0  3  0  0  0  0  0  0
  -24.8400  -27.6770   19.5920 C   0  0  0  0  0  3  0  0  0  0  0  0
  -23.5890  -29.8120   20.2300 C   0  0  0  0  0  2  0  0  0  0  0  0
  -24.6510  -31.0810   22.1490 N   0  0  0  0  0  0  0  0  0  0  0  0
  -23.5150  -32.1540   23.7940 O   0  0  0  0  0  0  0  0  0  0  0  0
  -22.7370  -29.4590   22.5730 C   0  0  0  0  0  0  0  0  0  0  0  0
  -21.4120  -29.2750   22.4490 N   0  0  0  0  0  0  0  0  0  0  0  0
  -23.4230  -28.8340   23.3850 O   0  0  0  0  0  0  0  0  0  0  0  0
  -20.9200  -29.8320   21.7640 H   0  0  0  0  0  0  0  0  0  0  0  0
  -18.0410  -28.0750   22.9540 C   0  0  0  0  0  0  0  0  0  0  0  0
  -20.5990  -28.3370   23.2210 C   0  0  0  0  0  3  0  0  0  0  0  0
  -20.7030  -26.9060   22.6450 C   0  0  0  0  0  2  0  0  0  0  0  0
  -19.5990  -26.5810   21.6330 C   0  0  0  0  0  2  0  0  0  0  0  0
  -18.2180  -26.7250   22.2800 C   0  0  0  0  0  2  0  0  0  0  0  0
  -19.1590  -28.8380   23.3820 C   0  0  0  0  0  0  0  0  0  0  0  0
  -18.9390  -30.1020   23.9730 C   0  0  0  0  0  3  0  0  0  0  0  0
  -17.6340  -30.6010   24.1400 C   0  0  0  0  0  3  0  0  0  0  0  0
  -16.5300  -29.8340   23.7280 C   0  0  0  0  0  3  0  0  0  0  0  0
  -16.7340  -28.5730   23.1400 C   0  0  0  0  0  3  0  0  0  0  0  0
  -25.8820  -32.5150   23.8660 C   0  0  0  0  0  3  0  0  0  0  0  0
  -26.4020  -31.7460   25.1420 C   0  0  1  0  0  0  0  0  0  0  0  0
  -25.3130  -31.5140   26.2140 C   0  0  0  0  0  1  0  0  0  0  0  0
  -26.9830  -30.3660   24.7510 C   0  0  0  0  0  1  0  0  0  0  0  0
  -27.5550  -32.5410   25.7980 C   0  0  0  0  0  1  0  0  0  0  0  0
  -25.5750  -33.9140   24.1920 N   0  0  0  0  0  0  0  0  0  0  0  0
  -25.9060  -34.9640   23.4280 C   0  0  0  0  0  0  0  0  0  0  0  0
  -26.5760  -34.8560   22.3980 O   0  0  0  0  0  0  0  0  0  0  0  0
  -24.9810  -34.0700   24.9930 H   0  0  0  0  0  0  0  0  0  0  0  0
  -24.1820  -36.7570   23.0630 C   0  0  0  0  0  1  0  0  0  0  0  0
  -25.4190  -36.3530   23.8810 C   0  0  0  0  0  3  0  0  0  0  0  0
  -27.5540  -37.2340   24.7150 C   0  0  0  0  0  1  0  0  0  0  0  0
  -26.4530  -37.4050   23.7700 N   0  0  0  0  0  0  0  0  0  0  0  0
  -26.0480  -38.3250   23.9190 H   0  0  0  0  0  0  0  0  0  0  0  0
  1  3  2  0
  2  1  1  0
  4  2  1  0
  6  7  1  0
  7  2  1  0
  7  5  2  0
  8  5  1  0
  8 21  1  0
  9  6  2  0
  9 10  1  0
 10  8  2  0
 11  9  1  0
 12 10  1  0
 13 21  1  0
 14 19  1  0
 15 16  1  0
 15 14  1  0
 17 16  1  0
 17 26  1  0
 17 18  1  0
 19 13  1  0
 19 18  1  0
 20 13  2  0
 21 22  1  0
 23 24  2  0
 24 25  1  0
 24 43  1  0
 25 28  1  0
 26 23  1  0
 26 27  1  0
 27 25  2  0
 28 29  1  0
 29 30  2  0
 31 34  1  0
 31 30  1  0
 32 31  2  0
 33 32  1  0
 33 28  2  0
 34 35  1  0
 35 36  1  0
 36 37  2  0
 38 37  1  0
 38 42  1  0
 39 38  2  0
 40 35  2  0
 40 39  1  0
 41 40  1  0
 43 44  1  0
 44 47  1  0
 44 46  1  0
 45 43  2  0
 48 49  1  0
 48 23  1  0
 50 48  1  0
 51 52  2  0
 51  1  1  0
 52 54  1  0
 53 51  1  0
 54 55  1  0
 56 52  1  0
 56 57  1  0
 58 69  2  0
 59 57  1  0
 59 64  1  0
 60 68  1  0
 60 70  1  0
 61 67  1  0
 61 63  1  0
 62 68  1  0
 63 62  1  0
 64 63  2  0
 65 66  1  0
 65 59  2  0
 66 61  2  0
 67 60  1  0
 68 58  1  0
 70 72  2  0
 71 70  1  0
 73 71  1  0
 74 83  2  0
 74 79  1  0
 75 71  1  0
 75 79  1  0
 76 75  1  0
 77 78  1  0
 77 76  1  0
 78 74  1  0
 79 80  2  0
 80 81  1  0
 82 81  2  0
 83 82  1  0
 84 58  1  0
 84 89  1  0
 84 85  1  0
 85 88  1  1
 85 86  1  0
 87 85  1  0
 89 92  1  0
 90 94  1  0
 90 89  1  0
 91 90  2  0
 94 93  1  0
 96 94  1  0
 96 97  1  0
 96 95  1  0
M  ISO  4  13 100  21 100  56 101  57 101
M  END
>  <TORSDO>  (33) 
F 20

>  <SCORE>  (33) 
-14.197

>  <name>  (33) 
32

>  <ligand_id>  (33) 
32

>  <original_smiles>  (33) 
[H]OC(=C(C(=O)N([H])c1c([H])c(F)c(F)c(N([H])C(=O)N2C([H])([H])C([H])([H])C([H])([H])C([H])(n3nc(-c4c([H])c([H])c(Oc5c([H])c([H])c(F)c([H])c5F)c([H])c4[H])c(C(=O)N([H])[H])c3N([H])[H])C2([H])[H])c1[H])C([H])([H])[H])C([H])([H])Oc1c([H])c([H])c2c(c1[H])C([H])([H])N(C(=O)C([H])(N([H])C(=O)C([H])(N([H])C([H])([H])[H])C([H])([H])[H])C(C([H])([H])[H])(C([H])([H])[H])C([H])([H])[H])C([H])(C(=O)N([H])C1([H])c3c([H])c([H])c([H])c([H])c3C([H])([H])C([H])([H])C1([H])[H])C2([H])[H]

>  <smiles>  (33) 
[H]OC(=C(C(=O)N([H])c1c([H])c(F)c(F)c(N([H])C(=O)N2C([H])([H])C([H])([H])C([H])([H])C([H])(n3nc(-c4c([H])c([H])c(Oc5c([H])c([H])c(F)c([H])c5F)c([H])c4[H])c(C(=O)N([H])[H])c3N([H])[H])C2([H])[H])c1[H])C([H])([H])[H])C([H])([H])Oc1c([H])c([H])c2c(c1[H])C([H])([H])N(C(=O)C([H])(N([H])C(=O)C([H])(N([H])C([H])([H])[H])C([H])([H])[H])C(C([H])([H])[H])(C([H])([H])[H])C([H])([H])[H])C([H])(C(=O)N([H])C1([H])c3c([H])c([H])c([H])c([H])c3C([H])([H])C([H])([H])C1([H])[H])C2([H])[H]

$$$$
33:0:0
     RDKit          3D

 94102  0  0  1  0  0  0  0  0999 V2000
  -29.0610  -21.4280   20.2930 C   0  0  0  0  0  0  0  0  0  0  0  0
  -29.1390  -20.3120   21.0640 N   0  0  0  0  0  0  0  0  0  0  0  0
  -29.2160  -21.4340   19.0670 O   0  0  0  0  0  0  0  0  0  0  0  0
  -28.8200  -20.4290   22.0170 H   0  0  0  0  0  0  0  0  0  0  0  0
  -31.2350  -17.5640   20.0820 C   0  0  0  0  0  3  0  0  0  0  0  0
  -30.9570  -18.9550   20.1780 C   0  0  0  0  0  0  0  0  0  0  0  0
  -30.1420  -16.9340   20.6380 C   0  0  0  0  0  0  0  0  0  0  0  0
  -29.7190  -19.1130   20.7360 C   0  0  0  0  0  0  0  0  0  0  0  0
  -29.2070  -17.8710   21.0650 O   0  0  0  0  0  0  0  0  0  0  0  0
  -31.8040  -19.9500   19.8180 F   0  0  0  0  0  0  0  0  0  0  0  0
  -30.6660  -14.5370   20.2860 C   0  0  0  0  0  0  0  0  0  0  0  0
  -30.3520  -12.3780   19.1230 C   0  0  0  0  0  2  0  0  0  0  0  0
  -29.3950  -12.6200   17.9380 C   0  0  0  0  0  2  0  0  0  0  0  0
  -27.9220  -12.4990   18.3820 C   0  0  0  0  0  2  0  0  0  0  0  0
  -27.6160  -13.2890   19.6840 C   0  0  0  0  0  3  0  0  0  0  0  0
  -28.6920  -13.0350   20.7620 C   0  0  0  0  0  2  0  0  0  0  0  0
  -30.0020  -13.3500   20.1740 N   0  0  0  0  0  0  0  0  0  0  0  0
  -31.8050  -14.6810   19.8340 O   0  0  0  0  0  0  0  0  0  0  0  0
  -29.9400  -15.5780   20.7790 N   0  0  0  0  0  0  0  0  0  0  0  0
  -29.0530  -15.3090   21.1780 H   0  0  0  0  0  0  0  0  0  0  0  0
  -25.2300  -13.8790   20.4360 C   0  0  0  0  0  0  0  0  0  0  0  0
  -24.1730  -13.1020   20.8200 C   0  0  0  0  0  0  0  0  0  0  0  0
  -24.6370  -11.7520   20.7800 C   0  0  0  0  0  0  0  0  0  0  0  0
  -26.2730  -13.0030   20.1830 N   0  0  0  0  0  0  0  0  0  0  0  0
  -25.9230  -11.7180   20.4470 N   0  0  0  0  0  0  0  0  0  0  0  0
  -23.9190  -10.4870   20.9810 C   0  0  0  0  0  0  0  0  0  0  0  0
  -24.3590   -9.5270   21.9180 C   0  0  0  0  0  3  0  0  0  0  0  0
  -23.6380   -8.3270   22.1050 C   0  0  0  0  0  3  0  0  0  0  0  0
  -22.4640   -8.0790   21.3570 C   0  0  0  0  0  0  0  0  0  0  0  0
  -22.0430   -9.0280   20.4070 C   0  0  0  0  0  3  0  0  0  0  0  0
  -22.7650  -10.2190   20.2180 C   0  0  0  0  0  3  0  0  0  0  0  0
  -21.7120   -6.9340   21.4550 O   0  0  0  0  0  0  0  0  0  0  0  0
  -21.6600   -6.2040   22.6150 C   0  0  0  0  0  0  0  0  0  0  0  0
  -21.2130   -6.7680   23.8300 C   0  0  0  0  0  3  0  0  0  0  0  0
  -21.1100   -5.9620   24.9830 C   0  0  0  0  0  3  0  0  0  0  0  0
  -21.4430   -4.5960   24.9200 C   0  0  0  0  0  0  0  0  0  0  0  0
  -21.8860   -4.0330   23.7100 C   0  0  0  0  0  3  0  0  0  0  0  0
  -21.9910   -4.8350   22.5610 C   0  0  0  0  0  0  0  0  0  0  0  0
  -22.3960   -4.2840   21.3910 F   0  0  0  0  0  0  0  0  0  0  0  0
  -21.3390   -3.8210   26.0260 F   0  0  0  0  0  0  0  0  0  0  0  0
  -22.7770  -13.5720   21.1180 C   0  0  0  0  0  0  0  0  0  0  0  0
  -22.0640  -12.8670   21.9900 N   0  0  0  0  0  0  0  0  0  0  0  0
  -22.3290  -14.6000   20.6100 O   0  0  0  0  0  0  0  0  0  0  0  0
  -22.4390  -12.0340   22.4180 H   0  0  0  0  0  0  0  0  0  0  0  0
  -21.1260  -13.1600   22.2270 H   0  0  0  0  0  0  0  0  0  0  0  0
  -25.3890  -15.2520   20.2640 N   0  0  0  0  0  0  0  0  0  0  0  0
  -24.6230  -15.9050   20.3940 H   0  0  0  0  0  0  0  0  0  0  0  0
  -26.2320  -15.7000   19.9280 H   0  0  0  0  0  0  0  0  0  0  0  0
  -28.7070  -22.7370   21.0960 C   0  0  0  0  0  0  0  0  0  0  0  0
  -28.7760  -22.7350   22.3310 O   0  0  0  0  0  0  0  0  0  0  0  0
  -28.3110  -24.0310   20.3060 C   0  0  0  0  0  2  0  0  0  0  0  0
  -27.2760  -25.4920   22.2360 C   0  0  0  0  0  1  0  0  0  0  0  0
  -28.3290  -25.3960   21.0980 C   0  0  0  0  0  3  0  0  0  0  0  0
  -28.3740  -26.5990   20.2560 O   0  0  0  0  0  0  0  0  0  0  0  0
  -24.5950  -31.8670   23.2320 C   0  0  0  0  0  0  0  0  0  0  0  0
  -27.2420  -27.3950   20.1830 C   0  0  0  0  0  0  0  0  0  0  0  0
  -23.3970  -30.4670   21.5820 C   0  0  0  0  0  3  0  0  0  0  0  0
  -24.8600  -28.9310   20.1590 C   0  0  0  0  0  0  0  0  0  0  0  0
  -25.9250  -30.8260   21.3920 C   0  0  0  0  0  2  0  0  0  0  0  0
  -26.0170  -29.4510   20.7530 C   0  0  0  0  0  0  0  0  0  0  0  0
  -27.2140  -28.6930   20.7580 C   0  0  0  0  0  3  0  0  0  0  0  0
  -26.0760  -26.9030   19.5650 C   0  0  0  0  0  3  0  0  0  0  0  0
  -24.8860  -27.6580   19.5610 C   0  0  0  0  0  3  0  0  0  0  0  0
  -23.6130  -29.7890   20.2030 C   0  0  0  0  0  2  0  0  0  0  0  0
  -24.6580  -31.0670   22.1280 N   0  0  0  0  0  0  0  0  0  0  0  0
  -23.5120  -32.1390   23.7690 O   0  0  0  0  0  0  0  0  0  0  0  0
  -22.7440  -29.4450   22.5400 C   0  0  0  0  0  0  0  0  0  0  0  0
  -21.4180  -29.2680   22.4150 N   0  0  0  0  0  0  0  0  0  0  0  0
  -23.4270  -28.8130   23.3510 O   0  0  0  0  0  0  0  0  0  0  0  0
  -20.9310  -29.8290   21.7280 H   0  0  0  0  0  0  0  0  0  0  0  0
  -18.0380  -28.1070   22.9260 C   0  0  0  0  0  0  0  0  0  0  0  0
  -20.6000  -28.3310   23.1810 C   0  0  0  0  0  3  0  0  0  0  0  0
  -20.6820  -26.9070   22.5870 C   0  0  0  0  0  2  0  0  0  0  0  0
  -19.5700  -26.6120   21.5740 C   0  0  0  0  0  2  0  0  0  0  0  0
  -18.1930  -26.7660   22.2280 C   0  0  0  0  0  2  0  0  0  0  0  0
  -19.1680  -28.8490   23.3580 C   0  0  0  0  0  0  0  0  0  0  0  0
  -18.9700  -30.1080   23.9650 C   0  0  0  0  0  3  0  0  0  0  0  0
  -17.6720  -30.6220   24.1490 C   0  0  0  0  0  3  0  0  0  0  0  0
  -16.5560  -29.8740   23.7350 C   0  0  0  0  0  3  0  0  0  0  0  0
  -16.7400  -28.6200   23.1270 C   0  0  0  0  0  3  0  0  0  0  0  0
  -25.8780  -32.5000   23.8570 C   0  0  0  0  0  3  0  0  0  0  0  0
  -26.3900  -31.7300   25.1380 C   0  0  1  0  0  0  0  0  0  0  0  0
  -25.2910  -31.4960   26.1990 C   0  0  0  0  0  1  0  0  0  0  0  0
  -26.9740  -30.3510   24.7470 C   0  0  0  0  0  1  0  0  0  0  0  0
  -27.5370  -32.5240   25.8060 C   0  0  0  0  0  1  0  0  0  0  0  0
  -25.5680  -33.8990   24.1840 N   0  0  0  0  0  0  0  0  0  0  0  0
  -25.9030  -34.9490   23.4210 C   0  0  0  0  0  0  0  0  0  0  0  0
  -26.5780  -34.8440   22.3930 O   0  0  0  0  0  0  0  0  0  0  0  0
  -24.9800  -34.0580   24.9890 H   0  0  0  0  0  0  0  0  0  0  0  0
  -24.1800  -36.7400   23.0440 C   0  0  0  0  0  1  0  0  0  0  0  0
  -25.4120  -36.3380   23.8710 C   0  0  0  0  0  3  0  0  0  0  0  0
  -27.5390  -37.2260   24.7230 C   0  0  0  0  0  1  0  0  0  0  0  0
  -26.4460  -37.3900   23.7690 N   0  0  0  0  0  0  0  0  0  0  0  0
  -26.0380  -38.3100   23.9100 H   0  0  0  0  0  0  0  0  0  0  0  0
  1  2  1  0
  1 49  1  0
  2  4  1  0
  3  1  2  0
  5  6  1  0
  5  7  2  0
  6  8  2  0
  7 19  1  0
  7  9  1  0
  8  2  1  0
  8  9  1  0
 10  6  1  0
 11 19  1  0
 12 17  1  0
 13 14  1  0
 13 12  1  0
 15 14  1  0
 15 24  1  0
 15 16  1  0
 17 11  1  0
 17 16  1  0
 18 11  2  0
 19 20  1  0
 21 22  2  0
 22 41  1  0
 23 22  1  0
 23 26  1  0
 24 21  1  0
 24 25  1  0
 25 23  2  0
 26 27  1  0
 27 28  2  0
 29 32  1  0
 29 28  1  0
 30 29  2  0
 31 30  1  0
 31 26  2  0
 32 33  1  0
 33 34  1  0
 34 35  2  0
 36 35  1  0
 36 40  1  0
 37 36  2  0
 38 33  2  0
 38 37  1  0
 39 38  1  0
 41 42  1  0
 42 45  1  0
 42 44  1  0
 43 41  2  0
 46 47  1  0
 46 21  1  0
 48 46  1  0
 49 50  2  0
 51 49  1  0
 51 53  1  0
 53 52  1  0
 54 53  1  0
 55 66  2  0
 56 54  1  0
 56 61  1  0
 57 65  1  0
 57 67  1  0
 58 64  1  0
 58 60  1  0
 59 65  1  0
 60 61  2  0
 60 59  1  0
 62 56  2  0
 63 62  1  0
 63 58  2  0
 64 57  1  0
 65 55  1  0
 67 69  2  0
 68 67  1  0
 70 68  1  0
 71 80  2  0
 71 76  1  0
 72 68  1  0
 72 76  1  0
 73 72  1  0
 74 75  1  0
 74 73  1  0
 75 71  1  0
 76 77  2  0
 77 78  1  0
 79 78  2  0
 80 79  1  0
 81 55  1  0
 81 86  1  0
 81 82  1  0
 82 85  1  1
 82 83  1  0
 84 82  1  0
 86 89  1  0
 87 91  1  0
 87 86  1  0
 88 87  2  0
 91 90  1  0
 93 91  1  0
 93 94  1  0
 93 92  1  0
M  ISO  4  11 100  19 100  53 101  54 101
M  END
>  <TORSDO>  (34) 
F 20

>  <SCORE>  (34) 
-14.225

>  <name>  (34) 
33

>  <ligand_id>  (34) 
33

>  <original_smiles>  (34) 
[H]c1c([H])c([H])c2c(c1[H])C([H])([H])C([H])([H])C([H])([H])C2([H])N([H])C(=O)C1([H])N(C(=O)C([H])(N([H])C(=O)C([H])(N([H])C([H])([H])[H])C([H])([H])[H])C(C([H])([H])[H])(C([H])([H])[H])C([H])([H])[H])C([H])([H])c2c([H])c(OC([H])(C([H])([H])[H])C([H])([H])C(=O)C(=O)N([H])c3oc(N([H])C(=O)N4C([H])([H])C([H])([H])C([H])([H])C([H])(n5nc(-c6c([H])c([H])c(Oc7c([H])c([H])c(F)c([H])c7F)c([H])c6[H])c(C(=O)N([H])[H])c5N([H])[H])C4([H])[H])c([H])c3F)c([H])c([H])c2C1([H])[H]

>  <smiles>  (34) 
[H]c1c([H])c([H])c2c(c1[H])C([H])([H])C([H])([H])C([H])([H])C2([H])N([H])C(=O)C1([H])N(C(=O)C([H])(N([H])C(=O)C([H])(N([H])C([H])([H])[H])C([H])([H])[H])C(C([H])([H])[H])(C([H])([H])[H])C([H])([H])[H])C([H])([H])c2c([H])c(OC([H])(C([H])([H])[H])C([H])([H])C(=O)C(=O)N([H])c3oc(N([H])C(=O)N4C([H])([H])C([H])([H])C([H])([H])C([H])(n5nc(-c6c([H])c([H])c(Oc7c([H])c([H])c(F)c([H])c7F)c([H])c6[H])c(C(=O)N([H])[H])c5N([H])[H])C4([H])[H])c([H])c3F)c([H])c([H])c2C1([H])[H]

$$$$
34:0:0
     RDKit          3D

 92100  0  0  1  0  0  0  0  0999 V2000
  -28.7650  -16.8610   18.7360 C   0  0  0  0  0  3  0  0  0  0  0  0
  -28.0640  -17.9230   18.1320 C   0  0  0  0  0  0  0  0  0  0  0  0
  -29.3560  -17.4200   19.8410 C   0  0  0  0  0  0  0  0  0  0  0  0
  -29.3300  -20.2860   20.4960 C   0  0  0  0  0  0  0  0  0  0  0  0
  -28.2100  -19.0870   18.7150 N   0  0  0  0  0  0  0  0  0  0  0  0
  -29.0340  -18.9130   19.7880 N   0  0  0  0  0  0  0  0  0  0  0  0
  -30.1460  -20.2390   21.4190 O   0  0  0  0  0  0  0  0  0  0  0  0
  -27.2840  -17.7830   17.0370 F   0  0  0  0  0  0  0  0  0  0  0  0
  -30.6650  -15.1990   20.5180 C   0  0  0  0  0  0  0  0  0  0  0  0
  -30.5370  -12.8390   19.5640 C   0  0  0  0  0  2  0  0  0  0  0  0
  -29.6430  -12.7210   18.3130 C   0  0  0  0  0  2  0  0  0  0  0  0
  -28.1730  -12.4980   18.7160 C   0  0  0  0  0  2  0  0  0  0  0  0
  -27.7210  -13.4210   19.8800 C   0  0  0  0  0  3  0  0  0  0  0  0
  -28.7550  -13.5220   21.0140 C   0  0  0  0  0  2  0  0  0  0  0  0
  -30.0090  -13.9650   20.3940 N   0  0  0  0  0  0  0  0  0  0  0  0
  -31.8850  -15.1580   20.3370 O   0  0  0  0  0  0  0  0  0  0  0  0
  -30.0460  -16.4950   20.7050 N   0  0  0  0  0  0  0  0  0  0  0  0
  -30.5870  -17.0180   21.3810 H   0  0  0  0  0  0  0  0  0  0  0  0
  -25.3290  -13.9660   20.5680 C   0  0  0  0  0  0  0  0  0  0  0  0
  -24.2620  -13.1770   20.8990 C   0  0  0  0  0  0  0  0  0  0  0  0
  -24.7470  -11.8320   20.8910 C   0  0  0  0  0  0  0  0  0  0  0  0
  -26.3870  -13.0990   20.3570 N   0  0  0  0  0  0  0  0  0  0  0  0
  -26.0470  -11.8100   20.6190 N   0  0  0  0  0  0  0  0  0  0  0  0
  -24.0340  -10.5600   21.0710 C   0  0  0  0  0  0  0  0  0  0  0  0
  -24.4490   -9.6050   22.0270 C   0  0  0  0  0  3  0  0  0  0  0  0
  -23.7330   -8.3990   22.1890 C   0  0  0  0  0  3  0  0  0  0  0  0
  -22.5910   -8.1400   21.3960 C   0  0  0  0  0  0  0  0  0  0  0  0
  -22.1930   -9.0860   20.4350 C   0  0  0  0  0  3  0  0  0  0  0  0
  -22.9080  -10.2840   20.2690 C   0  0  0  0  0  3  0  0  0  0  0  0
  -21.8500   -6.9850   21.4650 O   0  0  0  0  0  0  0  0  0  0  0  0
  -21.7710   -6.2460   22.6190 C   0  0  0  0  0  0  0  0  0  0  0  0
  -21.2760   -6.7980   23.8200 C   0  0  0  0  0  3  0  0  0  0  0  0
  -21.1430   -5.9890   24.9650 C   0  0  0  0  0  3  0  0  0  0  0  0
  -21.4940   -4.6250   24.9080 C   0  0  0  0  0  0  0  0  0  0  0  0
  -21.9830   -4.0730   23.7100 C   0  0  0  0  0  3  0  0  0  0  0  0
  -22.1210   -4.8820   22.5690 C   0  0  0  0  0  0  0  0  0  0  0  0
  -22.5760   -4.3430   21.4120 F   0  0  0  0  0  0  0  0  0  0  0  0
  -21.3630   -3.8420   26.0040 F   0  0  0  0  0  0  0  0  0  0  0  0
  -22.8510  -13.6370   21.1190 C   0  0  0  0  0  0  0  0  0  0  0  0
  -22.1070  -12.9470   21.9740 N   0  0  0  0  0  0  0  0  0  0  0  0
  -22.4150  -14.6450   20.5660 O   0  0  0  0  0  0  0  0  0  0  0  0
  -22.4870  -12.1500   22.4620 H   0  0  0  0  0  0  0  0  0  0  0  0
  -21.1510  -13.2270   22.1480 H   0  0  0  0  0  0  0  0  0  0  0  0
  -25.4850  -15.3390   20.4030 N   0  0  0  0  0  0  0  0  0  0  0  0
  -24.7120  -15.9860   20.5200 H   0  0  0  0  0  0  0  0  0  0  0  0
  -26.3650  -15.7990   20.2100 H   0  0  0  0  0  0  0  0  0  0  0  0
  -28.6250  -21.7580   20.0670 C   0  0  0  0  0  2  0  0  0  0  0  0
  -30.4390  -23.6920   20.1340 C   0  0  0  0  0  1  0  0  0  0  0  0
  -28.9900  -23.3630   20.5460 C   0  0  2  0  0  0  0  0  0  0  0  0
  -28.9940  -23.3190   21.8790 F   0  0  0  0  0  0  0  0  0  0  0  0
  -28.0310  -24.7310   20.1720 C   0  0  0  0  0  2  0  0  0  0  0  0
  -28.2770  -26.2570   20.4830 O   0  0  0  0  0  0  0  0  0  0  0  0
  -24.6340  -32.0280   23.3520 C   0  0  0  0  0  0  0  0  0  0  0  0
  -27.2390  -27.2640   20.3900 C   0  0  0  0  0  0  0  0  0  0  0  0
  -23.4550  -30.6180   21.7100 C   0  0  0  0  0  3  0  0  0  0  0  0
  -24.9220  -29.0310   20.3200 C   0  0  0  0  0  0  0  0  0  0  0  0
  -26.0180  -30.8760   21.5800 C   0  0  0  0  0  2  0  0  0  0  0  0
  -26.0980  -29.4760   20.9360 C   0  0  0  0  0  0  0  0  0  0  0  0
  -27.2590  -28.6100   20.9570 C   0  0  0  0  0  3  0  0  0  0  0  0
  -26.0400  -26.9320   19.7280 C   0  0  0  0  0  3  0  0  0  0  0  0
  -24.9080  -27.7720   19.7040 C   0  0  0  0  0  3  0  0  0  0  0  0
  -23.6960  -29.9330   20.3400 C   0  0  0  0  0  2  0  0  0  0  0  0
  -24.7220  -31.1990   22.2660 N   0  0  0  0  0  0  0  0  0  0  0  0
  -23.5410  -32.3150   23.8610 O   0  0  0  0  0  0  0  0  0  0  0  0
  -22.7620  -29.6230   22.6740 C   0  0  0  0  0  0  0  0  0  0  0  0
  -21.4360  -29.4440   22.5250 N   0  0  0  0  0  0  0  0  0  0  0  0
  -23.4190  -29.0080   23.5170 O   0  0  0  0  0  0  0  0  0  0  0  0
  -20.9610  -29.9880   21.8200 H   0  0  0  0  0  0  0  0  0  0  0  0
  -18.0440  -28.2490   22.9870 C   0  0  0  0  0  0  0  0  0  0  0  0
  -20.6000  -28.5150   23.2920 C   0  0  0  0  0  3  0  0  0  0  0  0
  -20.7090  -27.0740   22.7390 C   0  0  0  0  0  2  0  0  0  0  0  0
  -19.6230  -26.7400   21.7090 C   0  0  0  0  0  2  0  0  0  0  0  0
  -18.2310  -26.8920   22.3300 C   0  0  0  0  0  2  0  0  0  0  0  0
  -19.1560  -29.0160   23.4250 C   0  0  0  0  0  0  0  0  0  0  0  0
  -18.9270  -30.2850   24.0000 C   0  0  0  0  0  3  0  0  0  0  0  0
  -17.6180  -30.7840   24.1440 C   0  0  0  0  0  3  0  0  0  0  0  0
  -16.5210  -30.0150   23.7180 C   0  0  0  0  0  3  0  0  0  0  0  0
  -16.7350  -28.7490   23.1460 C   0  0  0  0  0  3  0  0  0  0  0  0
  -25.8990  -32.6700   23.9960 C   0  0  0  0  0  3  0  0  0  0  0  0
  -26.3840  -31.9180   25.2950 C   0  0  1  0  0  0  0  0  0  0  0  0
  -25.2660  -31.6790   26.3370 C   0  0  0  0  0  1  0  0  0  0  0  0
  -26.9940  -30.5440   24.9350 C   0  0  0  0  0  1  0  0  0  0  0  0
  -27.5120  -32.7290   25.9710 C   0  0  0  0  0  1  0  0  0  0  0  0
  -25.5800  -34.0750   24.3040 N   0  0  0  0  0  0  0  0  0  0  0  0
  -25.9100  -35.1200   23.5290 C   0  0  0  0  0  0  0  0  0  0  0  0
  -26.5730  -34.9980   22.4960 O   0  0  0  0  0  0  0  0  0  0  0  0
  -24.9750  -34.2440   25.0940 H   0  0  0  0  0  0  0  0  0  0  0  0
  -24.1560  -36.8960   23.2000 C   0  0  0  0  0  1  0  0  0  0  0  0
  -25.4280  -36.5160   23.9740 C   0  0  0  0  0  3  0  0  0  0  0  0
  -27.5790  -37.4400   24.7170 C   0  0  0  0  0  1  0  0  0  0  0  0
  -26.4470  -37.5740   23.8020 N   0  0  0  0  0  0  0  0  0  0  0  0
  -26.0360  -38.4940   23.9330 H   0  0  0  0  0  0  0  0  0  0  0  0
  1  3  2  0
  2  5  2  0
  2  1  1  0
  3 17  1  0
  4  7  2  0
  5  6  1  0
  6  3  1  0
  6  4  1  0
  8  2  1  0
  9 17  1  0
 10 15  1  0
 11 12  1  0
 11 10  1  0
 13 12  1  0
 13 22  1  0
 13 14  1  0
 15  9  1  0
 15 14  1  0
 16  9  2  0
 17 18  1  0
 19 20  2  0
 20 39  1  0
 21 20  1  0
 21 24  1  0
 22 19  1  0
 22 23  1  0
 23 21  2  0
 24 25  1  0
 25 26  2  0
 27 30  1  0
 27 26  1  0
 28 27  2  0
 29 28  1  0
 29 24  2  0
 30 31  1  0
 31 32  1  0
 32 33  2  0
 34 33  1  0
 34 38  1  0
 35 34  2  0
 36 31  2  0
 36 35  1  0
 37 36  1  0
 39 40  1  0
 40 43  1  0
 40 42  1  0
 41 39  2  0
 44 45  1  0
 44 19  1  0
 46 44  1  0
 47  4  1  0
 47 49  1  0
 49 48  1  6
 49 50  1  0
 51 52  1  0
 51 49  1  0
 53 64  2  0
 54 52  1  0
 54 59  1  0
 55 63  1  0
 55 65  1  0
 56 62  1  0
 56 58  1  0
 57 63  1  0
 58 59  2  0
 58 57  1  0
 60 54  2  0
 61 60  1  0
 61 56  2  0
 62 55  1  0
 63 53  1  0
 65 67  2  0
 66 65  1  0
 68 66  1  0
 69 78  2  0
 69 74  1  0
 70 66  1  0
 70 74  1  0
 71 70  1  0
 72 73  1  0
 72 71  1  0
 73 69  1  0
 74 75  2  0
 75 76  1  0
 77 76  2  0
 78 77  1  0
 79 53  1  0
 79 84  1  0
 79 80  1  0
 80 83  1  1
 80 81  1  0
 82 80  1  0
 84 87  1  0
 85 89  1  0
 85 84  1  0
 86 85  2  0
 89 88  1  0
 91 92  1  0
 91 89  1  0
 91 90  1  0
M  ISO  4   9 100  17 100  51 101  52 101
M  END
>  <TORSDO>  (35) 
F 19

>  <SCORE>  (35) 
-15.068

>  <name>  (35) 
34

>  <ligand_id>  (35) 
34

>  <original_smiles>  (35) 
[H]c1c([H])c([H])c2c(c1[H])C([H])([H])C([H])([H])C([H])([H])C2([H])N([H])C(=O)C1([H])N(C(=O)C([H])(N([H])C(=O)C([H])(N([H])C([H])([H])[H])C([H])([H])[H])C(C([H])([H])[H])(C([H])([H])[H])C([H])([H])[H])C([H])([H])c2c([H])c(OC([H])([H])C(F)(C([H])([H])[H])C([H])([H])C(=O)n3nc(F)c([H])c3N([H])C(=O)N3C([H])([H])C([H])([H])C([H])([H])C([H])(n4nc(-c5c([H])c([H])c(Oc6c([H])c([H])c(F)c([H])c6F)c([H])c5[H])c(C(=O)N([H])[H])c4N([H])[H])C3([H])[H])c([H])c([H])c2C1([H])[H]

>  <smiles>  (35) 
[H]c1c([H])c([H])c2c(c1[H])C([H])([H])C([H])([H])C([H])([H])C2([H])N([H])C(=O)C1([H])N(C(=O)C([H])(N([H])C(=O)C([H])(N([H])C([H])([H])[H])C([H])([H])[H])C(C([H])([H])[H])(C([H])([H])[H])C([H])([H])[H])C([H])([H])c2c([H])c(OC([H])([H])C(F)(C([H])([H])[H])C([H])([H])C(=O)n3nc(F)c([H])c3N([H])C(=O)N3C([H])([H])C([H])([H])C([H])([H])C([H])(n4nc(-c5c([H])c([H])c(Oc6c([H])c([H])c(F)c([H])c6F)c([H])c5[H])c(C(=O)N([H])[H])c4N([H])[H])C3([H])[H])c([H])c([H])c2C1([H])[H]

$$$$
35:0:0
     RDKit          3D

 96104  0  0  1  0  0  0  0  0999 V2000
  -32.0310  -19.6830   18.2420 C   0  0  0  0  0  1  0  0  0  0  0  0
  -30.6450  -19.9410   18.8630 C   0  0  0  0  0  3  0  0  0  0  0  0
  -31.1470  -14.5270   19.9760 C   0  0  0  0  0  0  0  0  0  0  0  0
  -30.7490  -12.3870   18.8070 C   0  0  0  0  0  2  0  0  0  0  0  0
  -29.7530  -12.6240   17.6520 C   0  0  0  0  0  2  0  0  0  0  0  0
  -28.2980  -12.5270   18.1470 C   0  0  0  0  0  2  0  0  0  0  0  0
  -28.0440  -13.3740   19.4230 C   0  0  0  0  0  3  0  0  0  0  0  0
  -29.1360  -13.0900   20.4790 C   0  0  0  0  0  2  0  0  0  0  0  0
  -30.4560  -13.3590   19.8700 N   0  0  0  0  0  0  0  0  0  0  0  0
  -32.1710  -14.7720   19.3280 O   0  0  0  0  0  0  0  0  0  0  0  0
  -30.1750  -18.8380   19.8030 C   0  0  0  0  0  0  0  0  0  0  0  0
  -29.1280  -18.9070   20.7060 C   0  0  0  0  0  0  0  0  0  0  0  0
  -30.2500  -16.7230   20.6780 C   0  0  0  0  0  0  0  0  0  0  0  0
  -30.7910  -17.5690   19.7900 N   0  0  0  0  0  0  0  0  0  0  0  0
  -30.6360  -15.3730   20.8790 N   0  0  0  0  0  0  0  0  0  0  0  0
  -28.9280  -17.4200   21.5920 S   0  0  0  0  0  0  0  0  0  0  0  0
  -30.0400  -14.9010   21.5400 H   0  0  0  0  0  0  0  0  0  0  0  0
  -25.7100  -14.0670   20.2700 C   0  0  0  0  0  0  0  0  0  0  0  0
  -24.6310  -13.3300   20.6770 C   0  0  0  0  0  0  0  0  0  0  0  0
  -25.0280  -11.9620   20.5850 C   0  0  0  0  0  0  0  0  0  0  0  0
  -26.7030  -13.1490   19.9590 N   0  0  0  0  0  0  0  0  0  0  0  0
  -26.2960  -11.8760   20.2020 N   0  0  0  0  0  0  0  0  0  0  0  0
  -24.2590  -10.7270   20.7850 C   0  0  0  0  0  0  0  0  0  0  0  0
  -24.6650   -9.7450   21.7140 C   0  0  0  0  0  3  0  0  0  0  0  0
  -23.9010   -8.5730   21.9000 C   0  0  0  0  0  3  0  0  0  0  0  0
  -22.7150   -8.3750   21.1540 C   0  0  0  0  0  0  0  0  0  0  0  0
  -22.3260   -9.3450   20.2140 C   0  0  0  0  0  3  0  0  0  0  0  0
  -23.0910  -10.5090   20.0270 C   0  0  0  0  0  3  0  0  0  0  0  0
  -21.9210   -7.2570   21.2480 O   0  0  0  0  0  0  0  0  0  0  0  0
  -21.8010   -6.5580   22.4220 C   0  0  0  0  0  0  0  0  0  0  0  0
  -21.3130   -7.1610   23.6020 C   0  0  0  0  0  3  0  0  0  0  0  0
  -21.1390   -6.3880   24.7670 C   0  0  0  0  0  3  0  0  0  0  0  0
  -21.4430   -5.0130   24.7530 C   0  0  0  0  0  0  0  0  0  0  0  0
  -21.9240   -4.4100   23.5770 C   0  0  0  0  0  3  0  0  0  0  0  0
  -22.0990   -5.1800   22.4150 C   0  0  0  0  0  0  0  0  0  0  0  0
  -22.5430   -4.5900   21.2780 F   0  0  0  0  0  0  0  0  0  0  0  0
  -21.2690   -4.2670   25.8690 F   0  0  0  0  0  0  0  0  0  0  0  0
  -23.2720  -13.8590   21.0410 C   0  0  0  0  0  0  0  0  0  0  0  0
  -22.5790  -13.1930   21.9580 N   0  0  0  0  0  0  0  0  0  0  0  0
  -22.8360  -14.8970   20.5450 O   0  0  0  0  0  0  0  0  0  0  0  0
  -22.9450  -12.3540   22.3830 H   0  0  0  0  0  0  0  0  0  0  0  0
  -21.6700  -13.5300   22.2420 H   0  0  0  0  0  0  0  0  0  0  0  0
  -25.9240  -15.4330   20.1210 N   0  0  0  0  0  0  0  0  0  0  0  0
  -25.1940  -16.1140   20.2950 H   0  0  0  0  0  0  0  0  0  0  0  0
  -26.7740  -15.8490   19.7620 H   0  0  0  0  0  0  0  0  0  0  0  0
  -28.2550  -19.9570   20.9780 N   0  0  0  0  0  0  0  0  0  0  0  0
  -28.2480  -20.8300   20.4580 H   0  0  0  0  0  0  0  0  0  0  0  0
  -27.4840  -19.8950   21.6360 H   0  0  0  0  0  0  0  0  0  0  0  0
  -30.0310  -22.3520   19.2120 C   0  0  0  0  0  0  0  0  0  0  0  0
  -30.6850  -21.2330   19.5530 N   0  0  0  0  0  0  0  0  0  0  0  0
  -29.3680  -22.4540   18.1790 O   0  0  0  0  0  0  0  0  0  0  0  0
  -31.1820  -21.2430   20.4330 H   0  0  0  0  0  0  0  0  0  0  0  0
  -30.1240  -23.5170   20.2070 C   0  0  0  0  0  2  0  0  0  0  0  0
  -29.9850  -24.9300   19.6010 C   0  0  0  0  0  2  0  0  0  0  0  0
  -28.5390  -25.3970   19.3550 C   0  0  0  0  0  2  0  0  0  0  0  0
  -28.5340  -26.8220   19.3530 O   0  0  0  0  0  0  0  0  0  0  0  0
  -24.5650  -31.4690   22.9690 C   0  0  0  0  0  0  0  0  0  0  0  0
  -27.3120  -27.4490   19.4460 C   0  0  0  0  0  0  0  0  0  0  0  0
  -23.3740  -30.1650   21.2370 C   0  0  0  0  0  3  0  0  0  0  0  0
  -24.8500  -28.8210   19.6530 C   0  0  0  0  0  0  0  0  0  0  0  0
  -25.8740  -30.6540   21.0120 C   0  0  0  0  0  2  0  0  0  0  0  0
  -25.9990  -29.3510   20.2520 C   0  0  0  0  0  0  0  0  0  0  0  0
  -27.2330  -28.6740   20.1420 C   0  0  0  0  0  3  0  0  0  0  0  0
  -26.1430  -26.9210   18.8530 C   0  0  0  0  0  3  0  0  0  0  0  0
  -24.9160  -27.6030   18.9520 C   0  0  0  0  0  3  0  0  0  0  0  0
  -23.5720  -29.6150   19.8000 C   0  0  0  0  0  2  0  0  0  0  0  0
  -24.6240  -30.7720   21.7990 N   0  0  0  0  0  0  0  0  0  0  0  0
  -23.4890  -31.6460   23.5550 O   0  0  0  0  0  0  0  0  0  0  0  0
  -22.7930  -29.0360   22.1190 C   0  0  0  0  0  0  0  0  0  0  0  0
  -21.4800  -28.7890   21.9860 N   0  0  0  0  0  0  0  0  0  0  0  0
  -23.5200  -28.3880   22.8760 O   0  0  0  0  0  0  0  0  0  0  0  0
  -20.9530  -29.3690   21.3490 H   0  0  0  0  0  0  0  0  0  0  0  0
  -18.1880  -27.3560   22.3790 C   0  0  0  0  0  0  0  0  0  0  0  0
  -20.7250  -27.7500   22.6840 C   0  0  0  0  0  3  0  0  0  0  0  0
  -20.9150  -26.3730   22.0080 C   0  0  0  0  0  2  0  0  0  0  0  0
  -19.8360  -26.0570   20.9670 C   0  0  0  0  0  2  0  0  0  0  0  0
  -18.4480  -26.0710   21.6120 C   0  0  0  0  0  2  0  0  0  0  0  0
  -19.2570  -28.1530   22.8690 C   0  0  0  0  0  0  0  0  0  0  0  0
  -18.9610  -29.3570   23.5430 C   0  0  0  0  0  3  0  0  0  0  0  0
  -17.6270  -29.7650   23.7350 C   0  0  0  0  0  3  0  0  0  0  0  0
  -16.5730  -28.9660   23.2620 C   0  0  0  0  0  3  0  0  0  0  0  0
  -16.8540  -27.7620   22.5910 C   0  0  0  0  0  3  0  0  0  0  0  0
  -25.8420  -32.0960   23.6130 C   0  0  0  0  0  3  0  0  0  0  0  0
  -25.5050  -33.4690   24.0110 N   0  0  0  0  0  0  0  0  0  0  0  0
  -25.8320  -34.5640   23.3110 C   0  0  0  0  0  0  0  0  0  0  0  0
  -26.5190  -34.5260   22.2870 O   0  0  0  0  0  0  0  0  0  0  0  0
  -24.8940  -33.5730   24.8080 H   0  0  0  0  0  0  0  0  0  0  0  0
  -24.0800  -36.3440   23.0190 C   0  0  0  0  0  1  0  0  0  0  0  0
  -25.3130  -35.9190   23.8320 C   0  0  0  0  0  3  0  0  0  0  0  0
  -27.4100  -36.7970   24.7570 C   0  0  0  0  0  1  0  0  0  0  0  0
  -26.3300  -36.9920   23.7950 N   0  0  0  0  0  0  0  0  0  0  0  0
  -25.9040  -37.8980   23.9730 H   0  0  0  0  0  0  0  0  0  0  0  0
  -26.3880  -31.2750   24.8450 C   0  0  1  0  0  0  0  0  0  0  0  0
  -25.3110  -30.9710   25.9140 C   0  0  0  0  0  1  0  0  0  0  0  0
  -26.9880  -29.9280   24.3810 C   0  0  0  0  0  1  0  0  0  0  0  0
  -27.5340  -32.0570   25.5300 C   0  0  0  0  0  1  0  0  0  0  0  0
  2  1  1  0
  2 50  1  0
  2 11  1  0
  3 15  1  0
  4  9  1  0
  5  6  1  0
  5  4  1  0
  7  6  1  0
  7 21  1  0
  7  8  1  0
  9  3  1  0
  9  8  1  0
 10  3  2  0
 11 12  2  0
 12 46  1  0
 12 16  1  0
 13 15  1  0
 13 16  1  0
 14 11  1  0
 14 13  2  0
 15 17  1  0
 18 19  2  0
 19 38  1  0
 20 19  1  0
 20 23  1  0
 21 22  1  0
 21 18  1  0
 22 20  2  0
 23 24  1  0
 24 25  2  0
 26 29  1  0
 26 25  1  0
 27 26  2  0
 28 27  1  0
 28 23  2  0
 29 30  1  0
 30 31  1  0
 31 32  2  0
 33 32  1  0
 33 37  1  0
 34 33  2  0
 35 30  2  0
 35 34  1  0
 36 35  1  0
 38 39  1  0
 39 42  1  0
 39 41  1  0
 40 38  2  0
 43 18  1  0
 43 44  1  0
 45 43  1  0
 46 48  1  0
 47 46  1  0
 49 50  1  0
 49 53  1  0
 50 52  1  0
 51 49  2  0
 54 53  1  0
 55 54  1  0
 56 55  1  0
 56 58  1  0
 57 68  2  0
 58 63  1  0
 59 67  1  0
 59 69  1  0
 60 66  1  0
 60 62  1  0
 61 67  1  0
 62 61  1  0
 63 62  2  0
 64 65  1  0
 64 58  2  0
 65 60  2  0
 66 59  1  0
 67 57  1  0
 69 71  2  0
 70 69  1  0
 72 70  1  0
 73 82  2  0
 73 78  1  0
 74 70  1  0
 74 78  1  0
 75 74  1  0
 76 77  1  0
 76 75  1  0
 77 73  1  0
 78 79  2  0
 79 80  1  0
 81 80  2  0
 82 81  1  0
 83 57  1  0
 83 84  1  0
 83 93  1  0
 84 87  1  0
 85 89  1  0
 85 84  1  0
 86 85  2  0
 89 88  1  0
 91 89  1  0
 91 92  1  0
 91 90  1  0
 93 96  1  1
 93 94  1  0
 95 93  1  0
M  ISO  4   3 100  15 100  55 101  56 101
M  END
>  <TORSDO>  (36) 
F 21

>  <SCORE>  (36) 
-11.453

>  <name>  (36) 
35

>  <ligand_id>  (36) 
35

>  <original_smiles>  (36) 
[H]c1c([H])c([H])c2c(c1[H])C([H])([H])C([H])([H])C([H])([H])C2([H])N([H])C(=O)C1([H])N(C(=O)C([H])(N([H])C(=O)C([H])(N([H])C([H])([H])[H])C([H])([H])[H])C(C([H])([H])[H])(C([H])([H])[H])C([H])([H])[H])C([H])([H])c2c([H])c(OC([H])([H])C([H])([H])C([H])([H])C(=O)N([H])C([H])(c3nc(N([H])C(=O)N4C([H])([H])C([H])([H])C([H])([H])C([H])(n5nc(-c6c([H])c([H])c(Oc7c([H])c([H])c(F)c([H])c7F)c([H])c6[H])c(C(=O)N([H])[H])c5N([H])[H])C4([H])[H])sc3N([H])[H])C([H])([H])[H])c([H])c([H])c2C1([H])[H]

>  <smiles>  (36) 
[H]c1c([H])c([H])c2c(c1[H])C([H])([H])C([H])([H])C([H])([H])C2([H])N([H])C(=O)C1([H])N(C(=O)C([H])(N([H])C(=O)C([H])(N([H])C([H])([H])[H])C([H])([H])[H])C(C([H])([H])[H])(C([H])([H])[H])C([H])([H])[H])C([H])([H])c2c([H])c(OC([H])([H])C([H])([H])C([H])([H])C(=O)N([H])C([H])(c3nc(N([H])C(=O)N4C([H])([H])C([H])([H])C([H])([H])C([H])(n5nc(-c6c([H])c([H])c(Oc7c([H])c([H])c(F)c([H])c7F)c([H])c6[H])c(C(=O)N([H])[H])c5N([H])[H])C4([H])[H])sc3N([H])[H])C([H])([H])[H])c([H])c([H])c2C1([H])[H]

$$$$
36:0:0
     RDKit          3D

 98106  0  0  1  0  0  0  0  0999 V2000
  -30.3900  -20.4410   21.3610 C   0  0  0  0  0  3  0  0  0  0  0  0
  -30.7180  -19.0580   21.1230 C   0  0  0  0  0  0  0  0  0  0  0  0
  -29.8110  -18.4140   20.3140 C   0  0  0  0  0  0  0  0  0  0  0  0
  -29.2590  -20.9050   20.7270 C   0  0  0  0  0  0  0  0  0  0  0  0
  -28.5800  -19.5700   19.7810 S   0  0  0  0  0  0  0  0  0  0  0  0
  -30.5780  -14.7650   20.1190 C   0  0  0  0  0  0  0  0  0  0  0  0
  -30.2840  -12.5310   19.1320 C   0  0  0  0  0  2  0  0  0  0  0  0
  -29.3240  -12.6950   17.9350 C   0  0  0  0  0  2  0  0  0  0  0  0
  -27.8660  -12.5300   18.4000 C   0  0  0  0  0  2  0  0  0  0  0  0
  -27.5390  -13.3830   19.6550 C   0  0  0  0  0  3  0  0  0  0  0  0
  -28.6280  -13.2560   20.7450 C   0  0  0  0  0  2  0  0  0  0  0  0
  -29.9270  -13.5600   20.1310 N   0  0  0  0  0  0  0  0  0  0  0  0
  -31.7270  -14.8470   19.6800 O   0  0  0  0  0  0  0  0  0  0  0  0
  -29.8980  -17.0460   19.6790 C   0  0  0  0  0  0  0  0  0  0  0  0
  -29.8690  -15.8960   20.4190 N   0  0  0  0  0  0  0  0  0  0  0  0
  -30.0370  -17.0200   18.4520 O   0  0  0  0  0  0  0  0  0  0  0  0
  -29.2730  -15.8770   21.2300 H   0  0  0  0  0  0  0  0  0  0  0  0
  -25.1600  -13.9460   20.4520 C   0  0  0  0  0  0  0  0  0  0  0  0
  -24.1130  -13.1570   20.8470 C   0  0  0  0  0  0  0  0  0  0  0  0
  -24.5890  -11.8120   20.7900 C   0  0  0  0  0  0  0  0  0  0  0  0
  -26.2070  -13.0800   20.1780 N   0  0  0  0  0  0  0  0  0  0  0  0
  -25.8710  -11.7910   20.4440 N   0  0  0  0  0  0  0  0  0  0  0  0
  -23.8810  -10.5390   20.9910 C   0  0  0  0  0  0  0  0  0  0  0  0
  -24.3450   -9.5730   21.9110 C   0  0  0  0  0  3  0  0  0  0  0  0
  -23.6370   -8.3670   22.1010 C   0  0  0  0  0  3  0  0  0  0  0  0
  -22.4510   -8.1170   21.3710 C   0  0  0  0  0  0  0  0  0  0  0  0
  -22.0060   -9.0710   20.4380 C   0  0  0  0  0  3  0  0  0  0  0  0
  -22.7150  -10.2690   20.2470 C   0  0  0  0  0  3  0  0  0  0  0  0
  -21.7130   -6.9630   21.4700 O   0  0  0  0  0  0  0  0  0  0  0  0
  -21.6940   -6.2170   22.6210 C   0  0  0  0  0  0  0  0  0  0  0  0
  -21.2780   -6.7620   23.8560 C   0  0  0  0  0  3  0  0  0  0  0  0
  -21.2090   -5.9410   25.0000 C   0  0  0  0  0  3  0  0  0  0  0  0
  -21.5430   -4.5760   24.9090 C   0  0  0  0  0  0  0  0  0  0  0  0
  -21.9520   -4.0310   23.6800 C   0  0  0  0  0  3  0  0  0  0  0  0
  -22.0230   -4.8500   22.5380 C   0  0  0  0  0  0  0  0  0  0  0  0
  -22.3970   -4.3140   21.3510 F   0  0  0  0  0  0  0  0  0  0  0  0
  -21.4690   -3.7860   26.0060 F   0  0  0  0  0  0  0  0  0  0  0  0
  -22.7190  -13.6170   21.1640 C   0  0  0  0  0  0  0  0  0  0  0  0
  -22.0210  -12.9020   22.0390 N   0  0  0  0  0  0  0  0  0  0  0  0
  -22.2580  -14.6460   20.6710 O   0  0  0  0  0  0  0  0  0  0  0  0
  -22.4070  -12.0710   22.4620 H   0  0  0  0  0  0  0  0  0  0  0  0
  -21.0860  -13.1900   22.2910 H   0  0  0  0  0  0  0  0  0  0  0  0
  -25.3040  -15.3190   20.2810 N   0  0  0  0  0  0  0  0  0  0  0  0
  -24.5320  -15.9630   20.4170 H   0  0  0  0  0  0  0  0  0  0  0  0
  -26.1380  -15.7710   19.9300 H   0  0  0  0  0  0  0  0  0  0  0  0
  -31.9620  -18.3860   21.6410 C   0  0  1  0  0  0  0  0  0  0  0  0
  -32.6460  -19.1840   22.4600 F   0  0  0  0  0  0  0  0  0  0  0  0
  -31.6720  -17.2770   22.3190 F   0  0  0  0  0  0  0  0  0  0  0  0
  -32.7760  -18.0500   20.6420 F   0  0  0  0  0  0  0  0  0  0  0  0
  -28.8750  -23.3850   20.5150 C   0  0  0  0  0  0  0  0  0  0  0  0
  -28.6320  -22.1120   20.9530 N   0  0  0  0  0  0  0  0  0  0  0  0
  -29.5050  -23.6300   19.4850 O   0  0  0  0  0  0  0  0  0  0  0  0
  -28.0420  -22.1410   21.7760 H   0  0  0  0  0  0  0  0  0  0  0  0
  -28.0630  -25.7370   21.2560 C   0  0  0  0  0  3  0  0  0  0  0  0
  -28.2730  -24.3900   21.4320 C   0  0  0  0  0  0  0  0  0  0  0  0
  -27.8690  -23.9180   22.6280 O   0  0  0  0  0  0  0  0  0  0  0  0
  -27.5010  -24.6430   23.1140 H   0  0  0  0  0  0  0  0  0  0  0  0
  -28.2560  -26.6270   20.2010 O   0  0  0  0  0  0  0  0  0  0  0  0
  -24.5740  -31.9790   23.2320 C   0  0  0  0  0  0  0  0  0  0  0  0
  -27.1960  -27.5240   20.0960 C   0  0  0  0  0  0  0  0  0  0  0  0
  -23.3610  -30.5840   21.5900 C   0  0  0  0  0  3  0  0  0  0  0  0
  -24.8130  -29.0700   20.1250 C   0  0  0  0  0  0  0  0  0  0  0  0
  -25.8870  -30.9460   21.3730 C   0  0  0  0  0  2  0  0  0  0  0  0
  -25.9790  -29.5790   20.7130 C   0  0  0  0  0  0  0  0  0  0  0  0
  -27.1780  -28.8130   20.6980 C   0  0  0  0  0  3  0  0  0  0  0  0
  -26.0180  -27.0550   19.4840 C   0  0  0  0  0  3  0  0  0  0  0  0
  -24.8310  -27.8110   19.5020 C   0  0  0  0  0  3  0  0  0  0  0  0
  -23.5620  -29.9210   20.2000 C   0  0  0  0  0  2  0  0  0  0  0  0
  -24.6270  -31.1850   22.1240 N   0  0  0  0  0  0  0  0  0  0  0  0
  -23.4960  -32.2420   23.7840 O   0  0  0  0  0  0  0  0  0  0  0  0
  -22.7220  -29.5520   22.5500 C   0  0  0  0  0  0  0  0  0  0  0  0
  -21.3970  -29.3610   22.4320 N   0  0  0  0  0  0  0  0  0  0  0  0
  -23.4160  -28.9290   23.3600 O   0  0  0  0  0  0  0  0  0  0  0  0
  -20.8970  -29.9180   21.7530 H   0  0  0  0  0  0  0  0  0  0  0  0
  -18.0400  -28.1190   22.9380 C   0  0  0  0  0  0  0  0  0  0  0  0
  -20.5950  -28.4110   23.2030 C   0  0  0  0  0  3  0  0  0  0  0  0
  -20.7130  -26.9820   22.6230 C   0  0  0  0  0  2  0  0  0  0  0  0
  -19.6120  -26.6480   21.6120 C   0  0  0  0  0  2  0  0  0  0  0  0
  -18.2330  -26.7730   22.2600 C   0  0  0  0  0  2  0  0  0  0  0  0
  -19.1490  -28.8950   23.3670 C   0  0  0  0  0  0  0  0  0  0  0  0
  -18.9140  -30.1550   23.9610 C   0  0  0  0  0  3  0  0  0  0  0  0
  -17.6040  -30.6380   24.1310 C   0  0  0  0  0  3  0  0  0  0  0  0
  -16.5090  -29.8580   23.7180 C   0  0  0  0  0  3  0  0  0  0  0  0
  -16.7280  -28.6010   23.1270 C   0  0  0  0  0  3  0  0  0  0  0  0
  -25.8620  -32.6140   23.8430 C   0  0  0  0  0  3  0  0  0  0  0  0
  -26.3900  -31.8450   25.1160 C   0  0  1  0  0  0  0  0  0  0  0  0
  -25.3060  -31.6100   26.1920 C   0  0  0  0  0  1  0  0  0  0  0  0
  -26.9700  -30.4660   24.7210 C   0  0  0  0  0  1  0  0  0  0  0  0
  -27.5410  -32.6420   25.7720 C   0  0  0  0  0  1  0  0  0  0  0  0
  -25.5540  -34.0120   24.1750 N   0  0  0  0  0  0  0  0  0  0  0  0
  -25.8840  -35.0650   23.4130 C   0  0  0  0  0  0  0  0  0  0  0  0
  -26.5550  -34.9610   22.3830 O   0  0  0  0  0  0  0  0  0  0  0  0
  -24.9640  -34.1660   24.9790 H   0  0  0  0  0  0  0  0  0  0  0  0
  -24.1610  -36.8620   23.0500 C   0  0  0  0  0  1  0  0  0  0  0  0
  -25.3950  -36.4520   23.8700 C   0  0  0  0  0  3  0  0  0  0  0  0
  -27.5270  -37.3310   24.7180 C   0  0  0  0  0  1  0  0  0  0  0  0
  -26.4310  -37.5040   23.7680 N   0  0  0  0  0  0  0  0  0  0  0  0
  -26.0250  -38.4230   23.9200 H   0  0  0  0  0  0  0  0  0  0  0  0
  2  1  1  0
  2 46  1  0
  3  2  2  0
  4 51  1  0
  4  1  2  0
  5  3  1  0
  5  4  1  0
  6 12  1  0
  6 15  1  0
  7 12  1  0
  8  9  1  0
  8  7  1  0
 10  9  1  0
 10 21  1  0
 10 11  1  0
 12 11  1  0
 13  6  2  0
 14  3  1  0
 14 15  1  0
 15 17  1  0
 16 14  2  0
 18 19  2  0
 19 38  1  0
 20 19  1  0
 20 23  1  0
 21 22  1  0
 21 18  1  0
 22 20  2  0
 23 24  1  0
 24 25  2  0
 26 29  1  0
 26 25  1  0
 27 26  2  0
 28 27  1  0
 28 23  2  0
 29 30  1  0
 30 31  1  0
 31 32  2  0
 33 32  1  0
 33 37  1  0
 34 33  2  0
 35 30  2  0
 35 34  1  0
 36 35  1  0
 38 39  1  0
 39 42  1  0
 39 41  1  0
 40 38  2  0
 43 44  1  0
 43 18  1  0
 45 43  1  0
 46 48  1  1
 46 47  1  0
 49 46  1  0
 50 51  1  0
 50 55  1  0
 51 53  1  0
 52 50  2  0
 54 55  2  0
 55 56  1  0
 56 57  1  0
 58 54  1  0
 59 70  2  0
 60 58  1  0
 60 65  1  0
 61 69  1  0
 61 71  1  0
 62 68  1  0
 62 64  1  0
 63 69  1  0
 64 63  1  0
 65 64  2  0
 66 67  1  0
 66 60  2  0
 67 62  2  0
 68 61  1  0
 69 59  1  0
 71 73  2  0
 72 71  1  0
 74 72  1  0
 75 84  2  0
 75 80  1  0
 76 72  1  0
 76 80  1  0
 77 76  1  0
 78 79  1  0
 78 77  1  0
 79 75  1  0
 80 81  2  0
 81 82  1  0
 83 82  2  0
 84 83  1  0
 85 59  1  0
 85 90  1  0
 85 86  1  0
 86 89  1  1
 86 87  1  0
 88 86  1  0
 90 93  1  0
 91 95  1  0
 91 90  1  0
 92 91  2  0
 95 94  1  0
 97 95  1  0
 97 98  1  0
 97 96  1  0
M  ISO  4   6 100  15 100  54 101  58 101
M  END
>  <TORSDO>  (37) 
F 20

>  <SCORE>  (37) 
-14.185

>  <name>  (37) 
36

>  <ligand_id>  (37) 
36

>  <original_smiles>  (37) 
[H]OC(C(=O)N([H])c1sc(C(=O)N([H])C(=O)N2C([H])([H])C([H])([H])C([H])([H])C([H])(n3nc(-c4c([H])c([H])c(Oc5c([H])c([H])c(F)c([H])c5F)c([H])c4[H])c(C(=O)N([H])[H])c3N([H])[H])C2([H])[H])c(C(F)(F)F)c1[H])=C([H])Oc1c([H])c([H])c2c(c1[H])C([H])([H])N(C(=O)C([H])(N([H])C(=O)C([H])(N([H])C([H])([H])[H])C([H])([H])[H])C(C([H])([H])[H])(C([H])([H])[H])C([H])([H])[H])C([H])(C(=O)N([H])C1([H])c3c([H])c([H])c([H])c([H])c3C([H])([H])C([H])([H])C1([H])[H])C2([H])[H]

>  <smiles>  (37) 
[H]OC(C(=O)N([H])c1sc(C(=O)N([H])C(=O)N2C([H])([H])C([H])([H])C([H])([H])C([H])(n3nc(-c4c([H])c([H])c(Oc5c([H])c([H])c(F)c([H])c5F)c([H])c4[H])c(C(=O)N([H])[H])c3N([H])[H])C2([H])[H])c(C(F)(F)F)c1[H])=C([H])Oc1c([H])c([H])c2c(c1[H])C([H])([H])N(C(=O)C([H])(N([H])C(=O)C([H])(N([H])C([H])([H])[H])C([H])([H])[H])C(C([H])([H])[H])(C([H])([H])[H])C([H])([H])[H])C([H])(C(=O)N([H])C1([H])c3c([H])c([H])c([H])c([H])c3C([H])([H])C([H])([H])C1([H])[H])C2([H])[H]

$$$$
37:0:0
     RDKit          3D

 97105  0  0  1  0  0  0  0  0999 V2000
  -30.3430  -17.3900   19.4610 C   0  0  0  0  0  0  0  0  0  0  0  0
  -30.2820  -16.8920   20.7570 C   0  0  0  0  0  0  0  0  0  0  0  0
  -30.5460  -19.3440   20.6180 C   0  0  0  0  0  0  0  0  0  0  0  0
  -30.4230  -21.7150   19.9060 C   0  0  0  0  0  0  0  0  0  0  0  0
  -30.5420  -18.7750   19.4160 N   0  0  0  0  0  0  0  0  0  0  0  0
  -30.6440  -20.7420   20.8060 N   0  0  0  0  0  0  0  0  0  0  0  0
  -30.0910  -21.5620   18.7230 O   0  0  0  0  0  0  0  0  0  0  0  0
  -30.4070  -18.1870   21.9300 S   0  0  0  0  0  0  0  0  0  0  0  0
  -30.8620  -21.0560   21.7410 H   0  0  0  0  0  0  0  0  0  0  0  0
  -30.8430  -14.5750   20.7730 C   0  0  0  0  0  0  0  0  0  0  0  0
  -30.5860  -12.4210   19.6270 C   0  0  0  0  0  2  0  0  0  0  0  0
  -29.6930  -12.6070   18.3820 C   0  0  0  0  0  2  0  0  0  0  0  0
  -28.1940  -12.5390   18.7420 C   0  0  0  0  0  2  0  0  0  0  0  0
  -27.8140  -13.3620   20.0030 C   0  0  0  0  0  3  0  0  0  0  0  0
  -28.8220  -13.1210   21.1490 C   0  0  0  0  0  2  0  0  0  0  0  0
  -30.1730  -13.4030   20.6390 N   0  0  0  0  0  0  0  0  0  0  0  0
  -32.0030  -14.7470   20.3900 O   0  0  0  0  0  0  0  0  0  0  0  0
  -30.0990  -15.6110   21.1810 N   0  0  0  0  0  0  0  0  0  0  0  0
  -29.2280  -15.3980   21.6470 H   0  0  0  0  0  0  0  0  0  0  0  0
  -25.3800  -13.9640   20.5940 C   0  0  0  0  0  0  0  0  0  0  0  0
  -24.3000  -13.1880   20.9200 C   0  0  0  0  0  0  0  0  0  0  0  0
  -24.7710  -11.8380   20.9230 C   0  0  0  0  0  0  0  0  0  0  0  0
  -26.4410  -13.0890   20.4220 N   0  0  0  0  0  0  0  0  0  0  0  0
  -26.0750  -11.8060   20.6790 N   0  0  0  0  0  0  0  0  0  0  0  0
  -24.0470  -10.5720   21.0870 C   0  0  0  0  0  0  0  0  0  0  0  0
  -24.4320   -9.6220   22.0580 C   0  0  0  0  0  3  0  0  0  0  0  0
  -23.7090   -8.4200   22.2080 C   0  0  0  0  0  3  0  0  0  0  0  0
  -22.5880   -8.1590   21.3850 C   0  0  0  0  0  0  0  0  0  0  0  0
  -22.2210   -9.0980   20.4050 C   0  0  0  0  0  3  0  0  0  0  0  0
  -22.9450  -10.2930   20.2550 C   0  0  0  0  0  3  0  0  0  0  0  0
  -21.8410   -7.0070   21.4450 O   0  0  0  0  0  0  0  0  0  0  0  0
  -21.7160   -6.2880   22.6060 C   0  0  0  0  0  0  0  0  0  0  0  0
  -21.1700   -6.8570   23.7790 C   0  0  0  0  0  3  0  0  0  0  0  0
  -20.9970   -6.0630   24.9300 C   0  0  0  0  0  3  0  0  0  0  0  0
  -21.3570   -4.7030   24.9090 C   0  0  0  0  0  0  0  0  0  0  0  0
  -21.8930   -4.1340   23.7400 C   0  0  0  0  0  3  0  0  0  0  0  0
  -22.0700   -4.9240   22.5910 C   0  0  0  0  0  0  0  0  0  0  0  0
  -22.5690   -4.3660   21.4620 F   0  0  0  0  0  0  0  0  0  0  0  0
  -21.1820   -3.9370   26.0120 F   0  0  0  0  0  0  0  0  0  0  0  0
  -22.8880  -13.6580   21.1220 C   0  0  0  0  0  0  0  0  0  0  0  0
  -22.1270  -12.9680   21.9630 N   0  0  0  0  0  0  0  0  0  0  0  0
  -22.4680  -14.6730   20.5700 O   0  0  0  0  0  0  0  0  0  0  0  0
  -22.4800  -12.1470   22.4330 H   0  0  0  0  0  0  0  0  0  0  0  0
  -21.1790  -13.2680   22.1430 H   0  0  0  0  0  0  0  0  0  0  0  0
  -25.5420  -15.3350   20.4110 N   0  0  0  0  0  0  0  0  0  0  0  0
  -24.7530  -15.9730   20.4330 H   0  0  0  0  0  0  0  0  0  0  0  0
  -26.4020  -15.7740   20.1040 H   0  0  0  0  0  0  0  0  0  0  0  0
  -30.1770  -16.6660   18.1370 C   0  0  1  0  0  0  0  0  0  0  0  0
  -29.1390  -15.8340   18.1780 F   0  0  0  0  0  0  0  0  0  0  0  0
  -29.9420  -17.5130   17.1330 F   0  0  0  0  0  0  0  0  0  0  0  0
  -31.2620  -15.9660   17.8080 F   0  0  0  0  0  0  0  0  0  0  0  0
  -30.6070  -23.1170   20.5210 C   0  0  0  0  0  0  0  0  0  0  0  0
  -31.5180  -23.3760   21.3170 O   0  0  0  0  0  0  0  0  0  0  0  0
  -29.5830  -24.1770   20.1170 C   0  0  0  0  0  2  0  0  0  0  0  0
  -30.2240  -25.4490   19.5290 C   0  0  0  0  0  2  0  0  0  0  0  0
  -29.1760  -26.5250   19.2320 C   0  0  0  0  0  2  0  0  0  0  0  0
  -28.6350  -26.9620   20.4750 O   0  0  0  0  0  0  0  0  0  0  0  0
  -24.5750  -32.0020   23.3800 C   0  0  0  0  0  0  0  0  0  0  0  0
  -27.4340  -27.6240   20.4250 C   0  0  0  0  0  0  0  0  0  0  0  0
  -23.4550  -30.5520   21.7160 C   0  0  0  0  0  3  0  0  0  0  0  0
  -24.9900  -29.0310   20.3630 C   0  0  0  0  0  0  0  0  0  0  0  0
  -25.9720  -30.9740   21.5940 C   0  0  0  0  0  2  0  0  0  0  0  0
  -26.1100  -29.5970   20.9830 C   0  0  0  0  0  0  0  0  0  0  0  0
  -27.3290  -28.8920   21.0290 C   0  0  0  0  0  3  0  0  0  0  0  0
  -26.2940  -27.0500   19.8190 C   0  0  0  0  0  3  0  0  0  0  0  0
  -25.0720  -27.7500   19.7840 C   0  0  0  0  0  3  0  0  0  0  0  0
  -23.7240  -29.8570   20.3550 C   0  0  0  0  0  2  0  0  0  0  0  0
  -24.6830  -31.1910   22.2900 N   0  0  0  0  0  0  0  0  0  0  0  0
  -23.4720  -32.2560   23.8820 O   0  0  0  0  0  0  0  0  0  0  0  0
  -22.7970  -29.5280   22.6680 C   0  0  0  0  0  0  0  0  0  0  0  0
  -21.4820  -29.3130   22.4980 N   0  0  0  0  0  0  0  0  0  0  0  0
  -23.4660  -28.9300   23.5150 O   0  0  0  0  0  0  0  0  0  0  0  0
  -21.0040  -29.8500   21.7880 H   0  0  0  0  0  0  0  0  0  0  0  0
  -18.1180  -28.0680   22.9060 C   0  0  0  0  0  0  0  0  0  0  0  0
  -20.6610  -28.3670   23.2520 C   0  0  0  0  0  3  0  0  0  0  0  0
  -20.8040  -26.9350   22.6900 C   0  0  0  0  0  2  0  0  0  0  0  0
  -19.7380  -26.5870   21.6460 C   0  0  0  0  0  2  0  0  0  0  0  0
  -18.3360  -26.7150   22.2490 C   0  0  0  0  0  2  0  0  0  0  0  0
  -19.2110  -28.8500   23.3630 C   0  0  0  0  0  0  0  0  0  0  0  0
  -18.9560  -30.1150   23.9370 C   0  0  0  0  0  3  0  0  0  0  0  0
  -17.6400  -30.5990   24.0580 C   0  0  0  0  0  3  0  0  0  0  0  0
  -16.5610  -29.8140   23.6180 C   0  0  0  0  0  3  0  0  0  0  0  0
  -16.8000  -28.5500   23.0480 C   0  0  0  0  0  3  0  0  0  0  0  0
  -25.8280  -32.6670   24.0320 C   0  0  0  0  0  3  0  0  0  0  0  0
  -25.4940  -34.0740   24.2910 N   0  0  0  0  0  0  0  0  0  0  0  0
  -25.8600  -35.0970   23.5090 C   0  0  0  0  0  0  0  0  0  0  0  0
  -26.5850  -34.9590   22.5180 O   0  0  0  0  0  0  0  0  0  0  0  0
  -24.8550  -34.2550   25.0500 H   0  0  0  0  0  0  0  0  0  0  0  0
  -24.1450  -36.8610   22.9890 C   0  0  0  0  0  1  0  0  0  0  0  0
  -25.3410  -36.4980   23.8840 C   0  0  0  0  0  3  0  0  0  0  0  0
  -27.4180  -37.4320   24.8010 C   0  0  0  0  0  1  0  0  0  0  0  0
  -26.3720  -37.5540   23.7870 N   0  0  0  0  0  0  0  0  0  0  0  0
  -25.9540  -38.4760   23.8730 H   0  0  0  0  0  0  0  0  0  0  0  0
  -26.2960  -31.9490   25.3570 C   0  0  1  0  0  0  0  0  0  0  0  0
  -25.1580  -31.7300   26.3810 C   0  0  0  0  0  1  0  0  0  0  0  0
  -26.9160  -30.5690   25.0370 C   0  0  0  0  0  1  0  0  0  0  0  0
  -27.4010  -32.7850   26.0440 C   0  0  0  0  0  1  0  0  0  0  0  0
  1  2  2  0
  2 18  1  0
  2  8  1  0
  3  6  1  0
  3  8  1  0
  4 52  1  0
  4  6  1  0
  5  1  1  0
  5  3  2  0
  6  9  1  0
  7  4  2  0
 10 18  1  0
 11 16  1  0
 12 13  1  0
 12 11  1  0
 14 13  1  0
 14 23  1  0
 14 15  1  0
 16 10  1  0
 16 15  1  0
 17 10  2  0
 18 19  1  0
 20 21  2  0
 21 22  1  0
 21 40  1  0
 22 25  1  0
 23 20  1  0
 23 24  1  0
 24 22  2  0
 25 26  1  0
 26 27  2  0
 28 31  1  0
 28 27  1  0
 29 28  2  0
 30 29  1  0
 30 25  2  0
 31 32  1  0
 32 33  1  0
 33 34  2  0
 35 34  1  0
 35 39  1  0
 36 35  2  0
 37 32  2  0
 37 36  1  0
 38 37  1  0
 40 41  1  0
 41 44  1  0
 41 43  1  0
 42 40  2  0
 45 46  1  0
 45 20  1  0
 47 45  1  0
 48 49  1  1
 48  1  1  0
 50 48  1  0
 51 48  1  0
 52 53  2  0
 54 52  1  0
 55 54  1  0
 56 55  1  0
 56 57  1  0
 58 69  2  0
 59 57  1  0
 59 64  1  0
 60 68  1  0
 60 70  1  0
 61 63  1  0
 62 68  1  0
 63 64  2  0
 63 62  1  0
 65 59  2  0
 66 65  1  0
 66 61  2  0
 67 61  1  0
 67 60  1  0
 68 58  1  0
 70 72  2  0
 71 70  1  0
 73 71  1  0
 74 83  2  0
 74 79  1  0
 75 71  1  0
 75 79  1  0
 76 75  1  0
 77 78  1  0
 77 76  1  0
 78 74  1  0
 79 80  2  0
 80 81  1  0
 82 81  2  0
 83 82  1  0
 84 58  1  0
 84 85  1  0
 84 94  1  0
 85 88  1  0
 86 90  1  0
 86 85  1  0
 87 86  2  0
 90 89  1  0
 92 93  1  0
 92 90  1  0
 92 91  1  0
 94 97  1  1
 94 95  1  0
 96 94  1  0
M  ISO  4  10 100  18 100  56 101  57 101
M  END
>  <TORSDO>  (38) 
F 21

>  <SCORE>  (38) 
-12.154

>  <name>  (38) 
37

>  <ligand_id>  (38) 
37

>  <original_smiles>  (38) 
[H]c1c([H])c([H])c2c(c1[H])C([H])([H])C([H])([H])C([H])([H])C2([H])N([H])C(=O)C1([H])N(C(=O)C([H])(N([H])C(=O)C([H])(N([H])C([H])([H])[H])C([H])([H])[H])C(C([H])([H])[H])(C([H])([H])[H])C([H])([H])[H])C([H])([H])c2c([H])c(OC([H])([H])C([H])([H])C([H])([H])C(=O)C(=O)N([H])c3nc(C(F)(F)F)c(N([H])C(=O)N4C([H])([H])C([H])([H])C([H])([H])C([H])(n5nc(-c6c([H])c([H])c(Oc7c([H])c([H])c(F)c([H])c7F)c([H])c6[H])c(C(=O)N([H])[H])c5N([H])[H])C4([H])[H])s3)c([H])c([H])c2C1([H])[H]

>  <smiles>  (38) 
[H]c1c([H])c([H])c2c(c1[H])C([H])([H])C([H])([H])C([H])([H])C2([H])N([H])C(=O)C1([H])N(C(=O)C([H])(N([H])C(=O)C([H])(N([H])C([H])([H])[H])C([H])([H])[H])C(C([H])([H])[H])(C([H])([H])[H])C([H])([H])[H])C([H])([H])c2c([H])c(OC([H])([H])C([H])([H])C([H])([H])C(=O)C(=O)N([H])c3nc(C(F)(F)F)c(N([H])C(=O)N4C([H])([H])C([H])([H])C([H])([H])C([H])(n5nc(-c6c([H])c([H])c(Oc7c([H])c([H])c(F)c([H])c7F)c([H])c6[H])c(C(=O)N([H])[H])c5N([H])[H])C4([H])[H])s3)c([H])c([H])c2C1([H])[H]

$$$$
38:0:0
     RDKit          3D

 96104  0  0  1  0  0  0  0  0999 V2000
  -29.5220  -21.4820   20.7980 C   0  0  0  0  0  3  0  0  0  0  0  0
  -30.8420  -21.4420   20.0110 C   0  0  0  0  0  0  0  0  0  0  0  0
  -32.0870  -20.9980   20.7650 C   0  0  0  0  0  1  0  0  0  0  0  0
  -30.9080  -21.6850   18.8040 O   0  0  0  0  0  0  0  0  0  0  0  0
  -28.6930  -20.2990   20.4840 N   0  0  0  0  0  0  0  0  0  0  0  0
  -27.9150  -20.5440   19.8840 H   0  0  0  0  0  0  0  0  0  0  0  0
  -30.8440  -14.7070   20.5300 C   0  0  0  0  0  0  0  0  0  0  0  0
  -30.5730  -12.5740   19.3060 C   0  0  0  0  0  2  0  0  0  0  0  0
  -29.6200  -12.8110   18.1150 C   0  0  0  0  0  2  0  0  0  0  0  0
  -28.1480  -12.6520   18.5440 C   0  0  0  0  0  2  0  0  0  0  0  0
  -27.8160  -13.4300   19.8430 C   0  0  0  0  0  3  0  0  0  0  0  0
  -28.8790  -13.1710   20.9360 C   0  0  0  0  0  2  0  0  0  0  0  0
  -30.1990  -13.5130   20.3810 N   0  0  0  0  0  0  0  0  0  0  0  0
  -31.9390  -14.9340   20.0060 O   0  0  0  0  0  0  0  0  0  0  0  0
  -28.5140  -18.1050   19.3600 C   0  0  0  0  0  0  0  0  0  0  0  0
  -29.0220  -18.9230   20.3420 C   0  0  0  0  0  0  0  0  0  0  0  0
  -29.7420  -16.8770   20.6460 C   0  0  0  0  0  0  0  0  0  0  0  0
  -29.8140  -18.1190   21.1770 N   0  0  0  0  0  0  0  0  0  0  0  0
  -30.1920  -15.6590   21.2330 N   0  0  0  0  0  0  0  0  0  0  0  0
  -28.9530  -16.8220   19.5420 O   0  0  0  0  0  0  0  0  0  0  0  0
  -29.5010  -15.2570   21.8440 H   0  0  0  0  0  0  0  0  0  0  0  0
  -25.4190  -14.0070   20.5750 C   0  0  0  0  0  0  0  0  0  0  0  0
  -24.3550  -13.2220   20.9300 C   0  0  0  0  0  0  0  0  0  0  0  0
  -24.8220  -11.8740   20.8660 C   0  0  0  0  0  0  0  0  0  0  0  0
  -26.4660  -13.1370   20.3180 N   0  0  0  0  0  0  0  0  0  0  0  0
  -26.1110  -11.8480   20.5520 N   0  0  0  0  0  0  0  0  0  0  0  0
  -24.1030  -10.6040   21.0310 C   0  0  0  0  0  0  0  0  0  0  0  0
  -24.5130   -9.6420   21.9790 C   0  0  0  0  0  3  0  0  0  0  0  0
  -23.7960   -8.4350   22.1320 C   0  0  0  0  0  3  0  0  0  0  0  0
  -22.6540   -8.1830   21.3350 C   0  0  0  0  0  0  0  0  0  0  0  0
  -22.2620   -9.1350   20.3790 C   0  0  0  0  0  3  0  0  0  0  0  0
  -22.9800  -10.3320   20.2230 C   0  0  0  0  0  3  0  0  0  0  0  0
  -21.9110   -7.0280   21.3970 O   0  0  0  0  0  0  0  0  0  0  0  0
  -21.7890   -6.3130   22.5620 C   0  0  0  0  0  0  0  0  0  0  0  0
  -21.1750   -6.8590   23.7100 C   0  0  0  0  0  3  0  0  0  0  0  0
  -21.0060   -6.0650   24.8620 C   0  0  0  0  0  3  0  0  0  0  0  0
  -21.4410   -4.7260   24.8650 C   0  0  0  0  0  0  0  0  0  0  0  0
  -22.0490   -4.1800   23.7210 C   0  0  0  0  0  3  0  0  0  0  0  0
  -22.2190   -4.9710   22.5720 C   0  0  0  0  0  0  0  0  0  0  0  0
  -22.7860   -4.4340   21.4640 F   0  0  0  0  0  0  0  0  0  0  0  0
  -21.2710   -3.9610   25.9690 F   0  0  0  0  0  0  0  0  0  0  0  0
  -22.9560  -13.6870   21.2190 C   0  0  0  0  0  0  0  0  0  0  0  0
  -22.2290  -12.9620   22.0610 N   0  0  0  0  0  0  0  0  0  0  0  0
  -22.5160  -14.7280   20.7320 O   0  0  0  0  0  0  0  0  0  0  0  0
  -22.5940  -12.1200   22.4790 H   0  0  0  0  0  0  0  0  0  0  0  0
  -21.2910  -13.2580   22.2940 H   0  0  0  0  0  0  0  0  0  0  0  0
  -25.5800  -15.3800   20.4270 N   0  0  0  0  0  0  0  0  0  0  0  0
  -24.8070  -16.0280   20.5470 H   0  0  0  0  0  0  0  0  0  0  0  0
  -26.4100  -15.8180   20.0520 H   0  0  0  0  0  0  0  0  0  0  0  0
  -26.2400  -18.9570   18.6120 C   0  0  0  0  0  1  0  0  0  0  0  0
  -27.5930  -18.3530   18.2070 C   0  0  0  0  0  2  0  0  0  0  0  0
  -28.6830  -22.7730   20.4490 C   0  0  0  0  0  2  0  0  0  0  0  0
  -29.2190  -24.2250   20.6570 C   0  0  0  0  0  0  0  0  0  0  0  0
  -30.2250  -24.4760   21.3280 O   0  0  0  0  0  0  0  0  0  0  0  0
  -28.3630  -25.3320   19.9730 C   0  0  0  0  0  2  0  0  0  0  0  0
  -28.5450  -26.7190   20.4040 O   0  0  0  0  0  0  0  0  0  0  0  0
  -24.6680  -32.0130   23.3260 C   0  0  0  0  0  0  0  0  0  0  0  0
  -27.4060  -27.5280   20.3170 C   0  0  0  0  0  0  0  0  0  0  0  0
  -23.5090  -30.5810   21.6830 C   0  0  0  0  0  3  0  0  0  0  0  0
  -25.0050  -29.0670   20.2790 C   0  0  0  0  0  0  0  0  0  0  0  0
  -26.0400  -30.9600   21.5240 C   0  0  0  0  0  2  0  0  0  0  0  0
  -26.1540  -29.5840   20.8890 C   0  0  0  0  0  0  0  0  0  0  0  0
  -27.3560  -28.8210   20.9100 C   0  0  0  0  0  3  0  0  0  0  0  0
  -26.2350  -27.0720   19.6590 C   0  0  0  0  0  3  0  0  0  0  0  0
  -25.0450  -27.8130   19.6580 C   0  0  0  0  0  3  0  0  0  0  0  0
  -23.7490  -29.9080   20.3080 C   0  0  0  0  0  2  0  0  0  0  0  0
  -24.7570  -31.2000   22.2350 N   0  0  0  0  0  0  0  0  0  0  0  0
  -23.5740  -32.2730   23.8470 O   0  0  0  0  0  0  0  0  0  0  0  0
  -22.8620  -29.5520   22.6390 C   0  0  0  0  0  0  0  0  0  0  0  0
  -21.5490  -29.3220   22.4750 N   0  0  0  0  0  0  0  0  0  0  0  0
  -23.5400  -28.9640   23.4860 O   0  0  0  0  0  0  0  0  0  0  0  0
  -21.0640  -29.8480   21.7620 H   0  0  0  0  0  0  0  0  0  0  0  0
  -18.1930  -28.0500   22.9240 C   0  0  0  0  0  0  0  0  0  0  0  0
  -20.7390  -28.3720   23.2390 C   0  0  0  0  0  3  0  0  0  0  0  0
  -20.8860  -26.9390   22.6780 C   0  0  0  0  0  2  0  0  0  0  0  0
  -19.8110  -26.5810   21.6470 C   0  0  0  0  0  2  0  0  0  0  0  0
  -18.4140  -26.6990   22.2640 C   0  0  0  0  0  2  0  0  0  0  0  0
  -19.2860  -28.8420   23.3670 C   0  0  0  0  0  0  0  0  0  0  0  0
  -19.0270  -30.1050   23.9420 C   0  0  0  0  0  3  0  0  0  0  0  0
  -17.7070  -30.5760   24.0800 C   0  0  0  0  0  3  0  0  0  0  0  0
  -16.6290  -29.7820   23.6540 C   0  0  0  0  0  3  0  0  0  0  0  0
  -16.8730  -28.5210   23.0810 C   0  0  0  0  0  3  0  0  0  0  0  0
  -25.9340  -32.6720   23.9540 C   0  0  0  0  0  3  0  0  0  0  0  0
  -25.5950  -34.0640   24.2770 N   0  0  0  0  0  0  0  0  0  0  0  0
  -25.8980  -35.1190   23.5070 C   0  0  0  0  0  0  0  0  0  0  0  0
  -26.5690  -35.0230   22.4750 O   0  0  0  0  0  0  0  0  0  0  0  0
  -24.9980  -34.2110   25.0780 H   0  0  0  0  0  0  0  0  0  0  0  0
  -24.1360  -36.8720   23.1300 C   0  0  0  0  0  1  0  0  0  0  0  0
  -25.3790  -36.4970   23.9540 C   0  0  0  0  0  3  0  0  0  0  0  0
  -27.4740  -37.4430   24.8170 C   0  0  0  0  0  1  0  0  0  0  0  0
  -26.3890  -37.5720   23.8470 N   0  0  0  0  0  0  0  0  0  0  0  0
  -25.9590  -38.4850   23.9690 H   0  0  0  0  0  0  0  0  0  0  0  0
  -26.4540  -31.9160   25.2380 C   0  0  1  0  0  0  0  0  0  0  0  0
  -25.3440  -31.6120   26.2710 C   0  0  0  0  0  1  0  0  0  0  0  0
  -27.1170  -30.5730   24.8520 C   0  0  0  0  0  1  0  0  0  0  0  0
  -27.5430  -32.7620   25.9400 C   0  0  0  0  0  1  0  0  0  0  0  0
  1 52  1  0
  2  3  1  0
  2  1  1  0
  4  2  2  0
  5  1  1  0
  6  5  1  0
  7 19  1  0
  8 13  1  0
  9 10  1  0
  9  8  1  0
 11 10  1  0
 11 25  1  0
 11 12  1  0
 13  7  1  0
 13 12  1  0
 14  7  2  0
 15 20  1  0
 15 16  2  0
 16  5  1  0
 16 18  1  0
 17 18  2  0
 17 19  1  0
 19 21  1  0
 20 17  1  0
 22 23  2  0
 23 42  1  0
 24 23  1  0
 24 27  1  0
 25 26  1  0
 25 22  1  0
 26 24  2  0
 27 28  1  0
 28 29  2  0
 30 33  1  0
 30 29  1  0
 31 30  2  0
 32 31  1  0
 32 27  2  0
 33 34  1  0
 34 39  2  0
 34 35  1  0
 35 36  2  0
 36 37  1  0
 37 41  1  0
 38 37  2  0
 39 38  1  0
 40 39  1  0
 42 43  1  0
 43 46  1  0
 43 45  1  0
 44 42  2  0
 47 48  1  0
 47 22  1  0
 49 47  1  0
 51 50  1  0
 51 15  1  0
 52 53  1  0
 53 54  2  0
 55 56  1  0
 55 53  1  0
 57 68  2  0
 58 56  1  0
 58 63  1  0
 59 67  1  0
 59 69  1  0
 60 66  1  0
 60 62  1  0
 61 67  1  0
 62 63  2  0
 62 61  1  0
 64 58  2  0
 65 64  1  0
 65 60  2  0
 66 59  1  0
 67 57  1  0
 69 71  2  0
 70 69  1  0
 72 70  1  0
 73 82  2  0
 73 78  1  0
 74 70  1  0
 74 78  1  0
 75 74  1  0
 76 77  1  0
 76 75  1  0
 77 73  1  0
 78 79  2  0
 79 80  1  0
 81 80  2  0
 82 81  1  0
 83 57  1  0
 83 84  1  0
 83 93  1  0
 84 87  1  0
 85 89  1  0
 85 84  1  0
 86 85  2  0
 89 88  1  0
 91 89  1  0
 91 92  1  0
 91 90  1  0
 93 96  1  1
 93 94  1  0
 95 93  1  0
M  ISO  4   7 100  19 100  55 101  56 101
M  END
>  <TORSDO>  (39) 
F 22

>  <SCORE>  (39) 
-13.109

>  <name>  (39) 
38

>  <ligand_id>  (39) 
38

>  <original_smiles>  (39) 
[H]c1c([H])c([H])c2c(c1[H])C([H])([H])C([H])([H])C([H])([H])C2([H])N([H])C(=O)C1([H])N(C(=O)C([H])(N([H])C(=O)C([H])(N([H])C([H])([H])[H])C([H])([H])[H])C(C([H])([H])[H])(C([H])([H])[H])C([H])([H])[H])C([H])([H])c2c([H])c(OC([H])([H])C(=O)C([H])([H])C([H])(C(=O)C([H])([H])[H])N([H])c3nc(N([H])C(=O)N4C([H])([H])C([H])([H])C([H])([H])C([H])(n5nc(-c6c([H])c([H])c(Oc7c([H])c([H])c(F)c([H])c7F)c([H])c6[H])c(C(=O)N([H])[H])c5N([H])[H])C4([H])[H])oc3C([H])([H])C([H])([H])[H])c([H])c([H])c2C1([H])[H]

>  <smiles>  (39) 
[H]c1c([H])c([H])c2c(c1[H])C([H])([H])C([H])([H])C([H])([H])C2([H])N([H])C(=O)C1([H])N(C(=O)C([H])(N([H])C(=O)C([H])(N([H])C([H])([H])[H])C([H])([H])[H])C(C([H])([H])[H])(C([H])([H])[H])C([H])([H])[H])C([H])([H])c2c([H])c(OC([H])([H])C(=O)C([H])([H])C([H])(C(=O)C([H])([H])[H])N([H])c3nc(N([H])C(=O)N4C([H])([H])C([H])([H])C([H])([H])C([H])(n5nc(-c6c([H])c([H])c(Oc7c([H])c([H])c(F)c([H])c7F)c([H])c6[H])c(C(=O)N([H])[H])c5N([H])[H])C4([H])[H])oc3C([H])([H])C([H])([H])[H])c([H])c([H])c2C1([H])[H]

$$$$
39:0:0
     RDKit          3D

 96104  0  0  1  0  0  0  0  0999 V2000
  -30.0710  -20.8190   21.4720 C   0  0  0  0  0  0  0  0  0  0  0  0
  -29.3530  -21.7310   20.7840 N   0  0  0  0  0  4  0  0  0  0  0  0
  -30.5530  -21.0510   22.5840 O   0  0  0  0  0  0  0  0  0  0  0  0
  -29.0550  -21.4230   19.8680 H   0  0  0  0  0  0  0  0  0  0  0  0
  -30.7750  -14.5780   20.0900 C   0  0  0  0  0  0  0  0  0  0  0  0
  -30.3990  -12.4410   18.9080 C   0  0  0  0  0  2  0  0  0  0  0  0
  -29.3820  -12.6740   17.7710 C   0  0  0  0  0  2  0  0  0  0  0  0
  -27.9390  -12.5210   18.2880 C   0  0  0  0  0  2  0  0  0  0  0  0
  -27.6860  -13.3280   19.5880 C   0  0  0  0  0  3  0  0  0  0  0  0
  -28.8080  -13.0780   20.6230 C   0  0  0  0  0  2  0  0  0  0  0  0
  -30.0990  -13.3970   19.9890 N   0  0  0  0  0  0  0  0  0  0  0  0
  -31.8370  -14.7800   19.4930 O   0  0  0  0  0  0  0  0  0  0  0  0
  -30.1860  -19.4480   20.8770 C   0  0  0  0  0  0  0  0  0  0  0  0
  -30.3770  -18.9680   19.5960 C   0  0  0  0  0  0  0  0  0  0  0  0
  -30.2920  -16.9570   20.6960 C   0  0  0  0  0  0  0  0  0  0  0  0
  -30.4260  -17.5670   19.5090 N   0  0  0  0  0  0  0  0  0  0  0  0
  -30.1980  -15.5350   20.8510 N   0  0  0  0  0  0  0  0  0  0  0  0
  -30.0940  -18.1070   22.0200 S   0  0  0  0  0  0  0  0  0  0  0  0
  -29.5030  -15.2160   21.5060 H   0  0  0  0  0  0  0  0  0  0  0  0
  -25.3420  -13.9240   20.4710 C   0  0  0  0  0  0  0  0  0  0  0  0
  -24.2950  -13.1450   20.8850 C   0  0  0  0  0  0  0  0  0  0  0  0
  -24.7430  -11.7920   20.7790 C   0  0  0  0  0  0  0  0  0  0  0  0
  -26.3640  -13.0450   20.1430 N   0  0  0  0  0  0  0  0  0  0  0  0
  -26.0090  -11.7560   20.3850 N   0  0  0  0  0  0  0  0  0  0  0  0
  -24.0220  -10.5290   20.9750 C   0  0  0  0  0  0  0  0  0  0  0  0
  -24.4810   -9.5510   21.8840 C   0  0  0  0  0  3  0  0  0  0  0  0
  -23.7620   -8.3510   22.0690 C   0  0  0  0  0  3  0  0  0  0  0  0
  -22.5670   -8.1210   21.3440 C   0  0  0  0  0  0  0  0  0  0  0  0
  -22.1280   -9.0880   20.4230 C   0  0  0  0  0  3  0  0  0  0  0  0
  -22.8490  -10.2790   20.2370 C   0  0  0  0  0  3  0  0  0  0  0  0
  -21.8150   -6.9760   21.4410 O   0  0  0  0  0  0  0  0  0  0  0  0
  -21.7610   -6.2450   22.6010 C   0  0  0  0  0  0  0  0  0  0  0  0
  -21.2890   -6.8010   23.8120 C   0  0  0  0  0  3  0  0  0  0  0  0
  -21.1870   -5.9950   24.9630 C   0  0  0  0  0  3  0  0  0  0  0  0
  -21.5430   -4.6340   24.9050 C   0  0  0  0  0  0  0  0  0  0  0  0
  -22.0060   -4.0780   23.6990 C   0  0  0  0  0  3  0  0  0  0  0  0
  -22.1120   -4.8810   22.5510 C   0  0  0  0  0  0  0  0  0  0  0  0
  -22.5400   -4.3360   21.3860 F   0  0  0  0  0  0  0  0  0  0  0  0
  -21.4360   -3.8570   26.0080 F   0  0  0  0  0  0  0  0  0  0  0  0
  -22.9220  -13.6200   21.2680 C   0  0  0  0  0  0  0  0  0  0  0  0
  -22.2480  -12.8950   22.1550 N   0  0  0  0  0  0  0  0  0  0  0  0
  -22.4590  -14.6660   20.8160 O   0  0  0  0  0  0  0  0  0  0  0  0
  -22.6370  -12.0490   22.5410 H   0  0  0  0  0  0  0  0  0  0  0  0
  -21.3290  -13.1910   22.4510 H   0  0  0  0  0  0  0  0  0  0  0  0
  -25.5080  -15.2970   20.3260 N   0  0  0  0  0  0  0  0  0  0  0  0
  -24.7600  -15.9580   20.5060 H   0  0  0  0  0  0  0  0  0  0  0  0
  -26.3420  -15.7370   19.9560 H   0  0  0  0  0  0  0  0  0  0  0  0
  -30.5080  -19.7190   18.4240 N   0  0  0  0  0  0  0  0  0  0  0  0
  -30.7670  -20.6970   18.4810 H   0  0  0  0  0  0  0  0  0  0  0  0
  -30.8320  -19.2610   17.5790 H   0  0  0  0  0  0  0  0  0  0  0  0
  -28.4410  -23.1180   22.7250 C   0  0  0  0  0  1  0  0  0  0  0  0
  -28.7520  -23.0230   21.2140 C   0  0  0  0  0  0  0  0  0  0  0  0
  -29.3680  -24.3320   20.6320 C   0  0  0  0  0  0  0  0  0  0  0  0
  -30.5660  -24.6170   20.7250 O   0  0  0  0  0  0  0  0  0  0  0  0
  -28.3730  -25.2850   19.9210 C   0  0  0  0  0  2  0  0  0  0  0  0
  -28.5810  -26.7040   20.1510 O   0  0  0  0  0  0  0  0  0  0  0  0
  -24.6990  -31.8090   23.2950 C   0  0  0  0  0  0  0  0  0  0  0  0
  -27.4310  -27.4850   20.0910 C   0  0  0  0  0  0  0  0  0  0  0  0
  -23.5340  -30.4610   21.5810 C   0  0  0  0  0  3  0  0  0  0  0  0
  -25.0270  -29.0040   20.1120 C   0  0  0  0  0  0  0  0  0  0  0  0
  -26.0630  -30.8440   21.4410 C   0  0  0  0  0  2  0  0  0  0  0  0
  -26.1740  -29.5000   20.7450 C   0  0  0  0  0  0  0  0  0  0  0  0
  -27.3780  -28.7500   20.7310 C   0  0  0  0  0  3  0  0  0  0  0  0
  -26.2650  -27.0350   19.4210 C   0  0  0  0  0  3  0  0  0  0  0  0
  -25.0710  -27.7740   19.4440 C   0  0  0  0  0  3  0  0  0  0  0  0
  -23.7740  -29.8470   20.1770 C   0  0  0  0  0  2  0  0  0  0  0  0
  -24.7830  -31.0510   22.1640 N   0  0  0  0  0  0  0  0  0  0  0  0
  -23.6060  -32.0490   23.8260 O   0  0  0  0  0  0  0  0  0  0  0  0
  -22.8810  -29.3930   22.4880 C   0  0  0  0  0  0  0  0  0  0  0  0
  -21.5570  -29.2140   22.3470 N   0  0  0  0  0  0  0  0  0  0  0  0
  -23.5620  -28.7320   23.2770 O   0  0  0  0  0  0  0  0  0  0  0  0
  -21.0700  -29.7980   21.6830 H   0  0  0  0  0  0  0  0  0  0  0  0
  -18.1790  -28.0110   22.7920 C   0  0  0  0  0  0  0  0  0  0  0  0
  -20.7390  -28.2410   23.0700 C   0  0  0  0  0  3  0  0  0  0  0  0
  -20.8320  -26.8420   22.4180 C   0  0  0  0  0  2  0  0  0  0  0  0
  -19.7270  -26.5790   21.3920 C   0  0  0  0  0  2  0  0  0  0  0  0
  -18.3480  -26.6970   22.0460 C   0  0  0  0  0  2  0  0  0  0  0  0
  -19.3030  -28.7430   23.2580 C   0  0  0  0  0  0  0  0  0  0  0  0
  -19.0930  -29.9760   23.9150 C   0  0  0  0  0  3  0  0  0  0  0  0
  -17.7910  -30.4750   24.1110 C   0  0  0  0  0  3  0  0  0  0  0  0
  -16.6820  -29.7380   23.6620 C   0  0  0  0  0  3  0  0  0  0  0  0
  -16.8760  -28.5070   23.0090 C   0  0  0  0  0  3  0  0  0  0  0  0
  -25.9680  -32.4300   23.9570 C   0  0  0  0  0  3  0  0  0  0  0  0
  -26.4670  -31.6270   25.2190 C   0  0  1  0  0  0  0  0  0  0  0  0
  -25.3550  -31.3450   26.2570 C   0  0  0  0  0  1  0  0  0  0  0  0
  -27.0720  -30.2670   24.7970 C   0  0  0  0  0  1  0  0  0  0  0  0
  -27.5990  -32.4100   25.9270 C   0  0  0  0  0  1  0  0  0  0  0  0
  -25.6430  -33.8170   24.3190 N   0  0  0  0  0  0  0  0  0  0  0  0
  -25.9760  -34.8910   23.5900 C   0  0  0  0  0  0  0  0  0  0  0  0
  -26.6610  -34.8190   22.5650 O   0  0  0  0  0  0  0  0  0  0  0  0
  -25.0380  -33.9470   25.1150 H   0  0  0  0  0  0  0  0  0  0  0  0
  -24.2420  -36.6810   23.2540 C   0  0  0  0  0  1  0  0  0  0  0  0
  -25.4700  -36.2630   24.0760 C   0  0  0  0  0  3  0  0  0  0  0  0
  -27.5790  -37.1420   24.9760 C   0  0  0  0  0  1  0  0  0  0  0  0
  -26.4980  -37.3250   24.0110 N   0  0  0  0  0  0  0  0  0  0  0  0
  -26.0820  -38.2380   24.1720 H   0  0  0  0  0  0  0  0  0  0  0  0
  1  3  2  0
  2 52  2  0
  2  1  1  0
  4  2  1  0
  5 17  1  0
  6 11  1  0
  7  8  1  0
  7  6  1  0
  9  8  1  0
  9 23  1  0
  9 10  1  0
 11  5  1  0
 11 10  1  0
 12  5  2  0
 13  1  1  0
 13 18  1  0
 14 13  2  0
 15 17  1  0
 15 18  1  0
 16 14  1  0
 16 15  2  0
 17 19  1  0
 20 21  2  0
 21 40  1  0
 22 21  1  0
 22 25  1  0
 23 24  1  0
 23 20  1  0
 24 22  2  0
 25 26  1  0
 26 27  2  0
 28 31  1  0
 28 27  1  0
 29 28  2  0
 30 29  1  0
 30 25  2  0
 31 32  1  0
 32 33  1  0
 33 34  2  0
 35 34  1  0
 35 39  1  0
 36 35  2  0
 37 32  2  0
 37 36  1  0
 38 37  1  0
 40 41  1  0
 41 44  1  0
 41 43  1  0
 42 40  2  0
 45 20  1  0
 45 46  1  0
 47 45  1  0
 48 49  1  0
 48 14  1  0
 50 48  1  0
 52 51  1  0
 53 54  2  0
 53 52  1  0
 55 56  1  0
 55 53  1  0
 57 68  2  0
 58 56  1  0
 58 63  1  0
 59 67  1  0
 59 69  1  0
 60 66  1  0
 60 62  1  0
 61 67  1  0
 62 61  1  0
 63 62  2  0
 64 65  1  0
 64 58  2  0
 65 60  2  0
 66 59  1  0
 67 57  1  0
 69 71  2  0
 70 69  1  0
 72 70  1  0
 73 82  2  0
 73 78  1  0
 74 70  1  0
 74 78  1  0
 75 74  1  0
 76 77  1  0
 76 75  1  0
 77 73  1  0
 78 79  2  0
 79 80  1  0
 81 80  2  0
 82 81  1  0
 83 57  1  0
 83 88  1  0
 83 84  1  0
 84 87  1  1
 84 85  1  0
 86 84  1  0
 88 91  1  0
 89 93  1  0
 89 88  1  0
 90 89  2  0
 93 92  1  0
 95 93  1  0
 95 96  1  0
 95 94  1  0
M  ISO  4   5 100  17 100  55 101  56 101
M  END
>  <TORSDO>  (40) 
F 20

>  <SCORE>  (40) 
-13.227

>  <name>  (40) 
39

>  <ligand_id>  (40) 
39

>  <original_smiles>  (40) 
[H]c1c([H])c([H])c2c(c1[H])C([H])([H])C([H])([H])C([H])([H])C2([H])N([H])C(=O)C1([H])N(C(=O)C([H])(N([H])C(=O)C([H])(N([H])C([H])([H])[H])C([H])([H])[H])C(C([H])([H])[H])(C([H])([H])[H])C([H])([H])[H])C([H])([H])c2c([H])c(OC([H])([H])C(=O)C([H])(N([H])C(=O)c3sc(N([H])C(=O)N4C([H])([H])C([H])([H])C([H])([H])C([H])(n5nc(-c6c([H])c([H])c(Oc7c([H])c([H])c(F)c([H])c7F)c([H])c6[H])c(C(=O)N([H])[H])c5N([H])[H])C4([H])[H])nc3N([H])[H])C([H])([H])[H])c([H])c([H])c2C1([H])[H]

>  <smiles>  (40) 
[H]c1c([H])c([H])c2c(c1[H])C([H])([H])C([H])([H])C([H])([H])C2([H])N([H])C(=O)C1([H])N(C(=O)C([H])(N([H])C(=O)C([H])(N([H])C([H])([H])[H])C([H])([H])[H])C(C([H])([H])[H])(C([H])([H])[H])C([H])([H])[H])C([H])([H])c2c([H])c(OC([H])([H])C(=O)C([H])(N([H])C(=O)c3sc(N([H])C(=O)N4C([H])([H])C([H])([H])C([H])([H])C([H])(n5nc(-c6c([H])c([H])c(Oc7c([H])c([H])c(F)c([H])c7F)c([H])c6[H])c(C(=O)N([H])[H])c5N([H])[H])C4([H])[H])nc3N([H])[H])C([H])([H])[H])c([H])c([H])c2C1([H])[H]

$$$$
40:0:0
     RDKit          3D

 95103  0  0  1  0  0  0  0  0999 V2000
  -29.1340  -18.2990   21.1600 C   0  0  0  0  0  3  0  0  0  0  0  0
  -29.8630  -17.4130   20.3080 C   0  0  0  0  0  0  0  0  0  0  0  0
  -30.4720  -18.1020   19.2230 C   0  0  0  0  0  0  0  0  0  0  0  0
  -30.3040  -19.5200   19.0410 C   0  0  0  0  0  0  0  0  0  0  0  0
  -29.5370  -20.3200   19.9420 C   0  0  0  0  0  0  0  0  0  0  0  0
  -28.9400  -22.9500   20.1370 C   0  0  0  0  0  0  0  0  0  0  0  0
  -28.9810  -19.6630   21.0050 N   0  0  0  0  0  0  0  0  0  0  0  0
  -29.3480  -21.7470   19.5610 N   0  0  0  0  0  0  0  0  0  0  0  0
  -28.7480  -23.0740   21.3480 O   0  0  0  0  0  0  0  0  0  0  0  0
  -31.1740  -17.4070   18.2950 F   0  0  0  0  0  0  0  0  0  0  0  0
  -30.8690  -20.1170   17.9600 F   0  0  0  0  0  0  0  0  0  0  0  0
  -29.5570  -21.9070   18.5830 H   0  0  0  0  0  0  0  0  0  0  0  0
  -30.6160  -14.8610   20.0980 C   0  0  0  0  0  0  0  0  0  0  0  0
  -30.4120  -12.5860   19.0710 C   0  0  0  0  0  2  0  0  0  0  0  0
  -29.4160  -12.6700   17.8920 C   0  0  0  0  0  2  0  0  0  0  0  0
  -27.9680  -12.4810   18.3840 C   0  0  0  0  0  2  0  0  0  0  0  0
  -27.6460  -13.3480   19.6310 C   0  0  0  0  0  3  0  0  0  0  0  0
  -28.7540  -13.2350   20.7020 C   0  0  0  0  0  2  0  0  0  0  0  0
  -30.0250  -13.6150   20.0650 N   0  0  0  0  0  0  0  0  0  0  0  0
  -31.7610  -15.0110   19.6640 O   0  0  0  0  0  0  0  0  0  0  0  0
  -29.8370  -15.9300   20.5240 N   0  0  0  0  0  0  0  0  0  0  0  0
  -29.0190  -15.6090   21.0220 H   0  0  0  0  0  0  0  0  0  0  0  0
  -25.2930  -13.9240   20.4780 C   0  0  0  0  0  0  0  0  0  0  0  0
  -24.2440  -13.1430   20.8810 C   0  0  0  0  0  0  0  0  0  0  0  0
  -24.7030  -11.7930   20.8000 C   0  0  0  0  0  0  0  0  0  0  0  0
  -26.3240  -13.0490   20.1740 N   0  0  0  0  0  0  0  0  0  0  0  0
  -25.9780  -11.7600   20.4290 N   0  0  0  0  0  0  0  0  0  0  0  0
  -23.9840  -10.5260   20.9960 C   0  0  0  0  0  0  0  0  0  0  0  0
  -24.4380   -9.5530   21.9120 C   0  0  0  0  0  3  0  0  0  0  0  0
  -23.7180   -8.3530   22.0970 C   0  0  0  0  0  3  0  0  0  0  0  0
  -22.5290   -8.1170   21.3670 C   0  0  0  0  0  0  0  0  0  0  0  0
  -22.0940   -9.0810   20.4390 C   0  0  0  0  0  3  0  0  0  0  0  0
  -22.8150  -10.2710   20.2510 C   0  0  0  0  0  3  0  0  0  0  0  0
  -21.7790   -6.9700   21.4610 O   0  0  0  0  0  0  0  0  0  0  0  0
  -21.7330   -6.2350   22.6190 C   0  0  0  0  0  0  0  0  0  0  0  0
  -21.2610   -6.7830   23.8310 C   0  0  0  0  0  3  0  0  0  0  0  0
  -21.1640   -5.9710   24.9790 C   0  0  0  0  0  3  0  0  0  0  0  0
  -21.5290   -4.6130   24.9160 C   0  0  0  0  0  0  0  0  0  0  0  0
  -21.9950   -4.0640   23.7080 C   0  0  0  0  0  3  0  0  0  0  0  0
  -22.0940   -4.8730   22.5620 C   0  0  0  0  0  0  0  0  0  0  0  0
  -22.5220   -4.3350   21.3950 F   0  0  0  0  0  0  0  0  0  0  0  0
  -21.4300   -3.8310   26.0170 F   0  0  0  0  0  0  0  0  0  0  0  0
  -22.8620  -13.6160   21.2270 C   0  0  0  0  0  0  0  0  0  0  0  0
  -22.1700  -12.8960   22.1040 N   0  0  0  0  0  0  0  0  0  0  0  0
  -22.4060  -14.6560   20.7560 O   0  0  0  0  0  0  0  0  0  0  0  0
  -22.5520  -12.0530   22.5060 H   0  0  0  0  0  0  0  0  0  0  0  0
  -21.2440  -13.1940   22.3770 H   0  0  0  0  0  0  0  0  0  0  0  0
  -25.4510  -15.2980   20.3210 N   0  0  0  0  0  0  0  0  0  0  0  0
  -24.6850  -15.9450   20.4670 H   0  0  0  0  0  0  0  0  0  0  0  0
  -26.2670  -15.7370   19.9140 H   0  0  0  0  0  0  0  0  0  0  0  0
  -28.4500  -25.4290   19.2150 C   0  0  0  0  0  3  0  0  0  0  0  0
  -28.7660  -24.0660   19.1230 C   0  0  0  0  0  0  0  0  0  0  0  0
  -28.9390  -23.6530   17.8530 O   0  0  0  0  0  0  0  0  0  0  0  0
  -28.8000  -24.4000   17.2860 H   0  0  0  0  0  0  0  0  0  0  0  0
  -28.2220  -26.3900   20.2320 O   0  0  0  0  0  0  0  0  0  0  0  0
  -24.5280  -31.8740   23.2550 C   0  0  0  0  0  0  0  0  0  0  0  0
  -27.1560  -27.3210   20.1320 C   0  0  0  0  0  0  0  0  0  0  0  0
  -23.3320  -30.4950   21.5950 C   0  0  0  0  0  3  0  0  0  0  0  0
  -24.7910  -28.9660   20.1420 C   0  0  0  0  0  0  0  0  0  0  0  0
  -25.8770  -30.8070   21.4250 C   0  0  0  0  0  2  0  0  0  0  0  0
  -25.9610  -29.4350   20.7540 C   0  0  0  0  0  0  0  0  0  0  0  0
  -27.1430  -28.6220   20.7430 C   0  0  0  0  0  3  0  0  0  0  0  0
  -25.9570  -26.9180   19.5000 C   0  0  0  0  0  3  0  0  0  0  0  0
  -24.7950  -27.7150   19.5060 C   0  0  0  0  0  3  0  0  0  0  0  0
  -23.5520  -29.8400   20.2050 C   0  0  0  0  0  2  0  0  0  0  0  0
  -24.5980  -31.0770   22.1480 N   0  0  0  0  0  0  0  0  0  0  0  0
  -23.4430  -32.1420   23.7910 O   0  0  0  0  0  0  0  0  0  0  0  0
  -22.6670  -29.4670   22.5410 C   0  0  0  0  0  0  0  0  0  0  0  0
  -21.3400  -29.2920   22.4140 N   0  0  0  0  0  0  0  0  0  0  0  0
  -23.3450  -28.8290   23.3520 O   0  0  0  0  0  0  0  0  0  0  0  0
  -20.8520  -29.8580   21.7340 H   0  0  0  0  0  0  0  0  0  0  0  0
  -17.9600  -28.0970   22.9090 C   0  0  0  0  0  0  0  0  0  0  0  0
  -20.5210  -28.3440   23.1710 C   0  0  0  0  0  3  0  0  0  0  0  0
  -20.6140  -26.9230   22.5690 C   0  0  0  0  0  2  0  0  0  0  0  0
  -19.5070  -26.6220   21.5540 C   0  0  0  0  0  2  0  0  0  0  0  0
  -18.1280  -26.7600   22.2080 C   0  0  0  0  0  2  0  0  0  0  0  0
  -19.0820  -28.8480   23.3480 C   0  0  0  0  0  0  0  0  0  0  0  0
  -18.8690  -30.1000   23.9640 C   0  0  0  0  0  3  0  0  0  0  0  0
  -17.5670  -30.6010   24.1470 C   0  0  0  0  0  3  0  0  0  0  0  0
  -16.4580  -29.8460   23.7260 C   0  0  0  0  0  3  0  0  0  0  0  0
  -16.6550  -28.5970   23.1110 C   0  0  0  0  0  3  0  0  0  0  0  0
  -25.8070  -32.5040   23.8890 C   0  0  0  0  0  3  0  0  0  0  0  0
  -25.5060  -33.9100   24.1930 N   0  0  0  0  0  0  0  0  0  0  0  0
  -25.8560  -34.9500   23.4230 C   0  0  0  0  0  0  0  0  0  0  0  0
  -26.5350  -34.8230   22.3990 O   0  0  0  0  0  0  0  0  0  0  0  0
  -24.9040  -34.0820   24.9850 H   0  0  0  0  0  0  0  0  0  0  0  0
  -24.1610  -36.7640   23.0160 C   0  0  0  0  0  1  0  0  0  0  0  0
  -25.3810  -36.3500   23.8560 C   0  0  0  0  0  3  0  0  0  0  0  0
  -27.5050  -37.2240   24.7260 C   0  0  0  0  0  1  0  0  0  0  0  0
  -26.4300  -37.3880   23.7500 N   0  0  0  0  0  0  0  0  0  0  0  0
  -26.0330  -38.3150   23.8680 H   0  0  0  0  0  0  0  0  0  0  0  0
  -26.2910  -31.7480   25.1870 C   0  0  1  0  0  0  0  0  0  0  0  0
  -25.1760  -31.5400   26.2390 C   0  0  0  0  0  1  0  0  0  0  0  0
  -26.8670  -30.3590   24.8320 C   0  0  0  0  0  1  0  0  0  0  0  0
  -27.4370  -32.5430   25.8570 C   0  0  0  0  0  1  0  0  0  0  0  0
  2 21  1  0
  2  1  2  0
  3  2  1  0
  4  3  2  0
  4  5  1  0
  5  7  2  0
  6  9  2  0
  7  1  1  0
  8  5  1  0
  8  6  1  0
 10  3  1  0
 11  4  1  0
 12  8  1  0
 13 21  1  0
 14 19  1  0
 15 16  1  0
 15 14  1  0
 17 16  1  0
 17 26  1  0
 17 18  1  0
 19 13  1  0
 19 18  1  0
 20 13  2  0
 21 22  1  0
 23 24  2  0
 24 43  1  0
 25 24  1  0
 25 28  1  0
 26 27  1  0
 26 23  1  0
 27 25  2  0
 28 29  1  0
 29 30  2  0
 31 34  1  0
 31 30  1  0
 32 31  2  0
 33 32  1  0
 33 28  2  0
 34 35  1  0
 35 36  1  0
 36 37  2  0
 38 37  1  0
 38 42  1  0
 39 38  2  0
 40 35  2  0
 40 39  1  0
 41 40  1  0
 43 44  1  0
 44 47  1  0
 44 46  1  0
 45 43  2  0
 48 49  1  0
 48 23  1  0
 50 48  1  0
 51 55  1  0
 52 51  2  0
 52  6  1  0
 53 52  1  0
 54 53  1  0
 56 67  2  0
 57 55  1  0
 57 62  1  0
 58 66  1  0
 58 68  1  0
 59 65  1  0
 59 61  1  0
 60 66  1  0
 61 60  1  0
 62 61  2  0
 63 64  1  0
 63 57  2  0
 64 59  2  0
 65 58  1  0
 66 56  1  0
 68 70  2  0
 69 68  1  0
 71 69  1  0
 72 81  2  0
 72 77  1  0
 73 69  1  0
 73 77  1  0
 74 73  1  0
 75 76  1  0
 75 74  1  0
 76 72  1  0
 77 78  2  0
 78 79  1  0
 80 79  2  0
 81 80  1  0
 82 56  1  0
 82 83  1  0
 82 92  1  0
 83 86  1  0
 84 88  1  0
 84 83  1  0
 85 84  2  0
 88 87  1  0
 90 88  1  0
 90 91  1  0
 90 89  1  0
 92 95  1  1
 92 93  1  0
 94 92  1  0
M  ISO  4  13 100  21 100  51 101  55 101
M  END
>  <TORSDO>  (41) 
F 18

>  <SCORE>  (41) 
-14.524

>  <name>  (41) 
40

>  <ligand_id>  (41) 
40

>  <original_smiles>  (41) 
[H]OC(C(=O)N([H])c1nc([H])c(N([H])C(=O)N2C([H])([H])C([H])([H])C([H])([H])C([H])(n3nc(-c4c([H])c([H])c(Oc5c([H])c([H])c(F)c([H])c5F)c([H])c4[H])c(C(=O)N([H])[H])c3N([H])[H])C2([H])[H])c(F)c1F)=C([H])Oc1c([H])c([H])c2c(c1[H])C([H])([H])N(C(=O)C([H])(N([H])C(=O)C([H])(N([H])C([H])([H])[H])C([H])([H])[H])C(C([H])([H])[H])(C([H])([H])[H])C([H])([H])[H])C([H])(C(=O)N([H])C1([H])c3c([H])c([H])c([H])c([H])c3C([H])([H])C([H])([H])C1([H])[H])C2([H])[H]

>  <smiles>  (41) 
[H]OC(C(=O)N([H])c1nc([H])c(N([H])C(=O)N2C([H])([H])C([H])([H])C([H])([H])C([H])(n3nc(-c4c([H])c([H])c(Oc5c([H])c([H])c(F)c([H])c5F)c([H])c4[H])c(C(=O)N([H])[H])c3N([H])[H])C2([H])[H])c(F)c1F)=C([H])Oc1c([H])c([H])c2c(c1[H])C([H])([H])N(C(=O)C([H])(N([H])C(=O)C([H])(N([H])C([H])([H])[H])C([H])([H])[H])C(C([H])([H])[H])(C([H])([H])[H])C([H])([H])[H])C([H])(C(=O)N([H])C1([H])c3c([H])c([H])c([H])c([H])c3C([H])([H])C([H])([H])C1([H])[H])C2([H])[H]

$$$$
41:0:0
     RDKit          3D

 98106  0  0  1  0  0  0  0  0999 V2000
  -30.1070  -18.2200   20.2250 C   0  0  0  0  0  0  0  0  0  0  0  0
  -31.2530  -18.5650   19.5180 C   0  0  0  0  0  0  0  0  0  0  0  0
  -29.7540  -20.5180   19.8820 C   0  0  0  0  0  0  0  0  0  0  0  0
  -28.9050  -22.7770   20.6910 C   0  0  0  0  0  0  0  0  0  0  0  0
  -29.2700  -19.3710   20.4340 N   0  0  0  0  0  0  0  0  0  0  0  0
  -29.0920  -21.8000   19.7670 N   0  0  0  0  0  0  0  0  0  0  0  0
  -28.8650  -22.5130   21.8950 O   0  0  0  0  0  0  0  0  0  0  0  0
  -31.2790  -20.2550   19.0580 S   0  0  0  0  0  0  0  0  0  0  0  0
  -29.1110  -22.2020   18.8380 H   0  0  0  0  0  0  0  0  0  0  0  0
  -30.7280  -14.6330   20.1540 C   0  0  0  0  0  0  0  0  0  0  0  0
  -30.3860  -12.4340   19.0690 C   0  0  0  0  0  2  0  0  0  0  0  0
  -29.4090  -12.6100   17.8880 C   0  0  0  0  0  2  0  0  0  0  0  0
  -27.9530  -12.4530   18.3740 C   0  0  0  0  0  2  0  0  0  0  0  0
  -27.6480  -13.3110   19.6330 C   0  0  0  0  0  3  0  0  0  0  0  0
  -28.7490  -13.1700   20.7070 C   0  0  0  0  0  2  0  0  0  0  0  0
  -30.0320  -13.4620   20.0630 N   0  0  0  0  0  0  0  0  0  0  0  0
  -31.9260  -14.6840   19.8720 O   0  0  0  0  0  0  0  0  0  0  0  0
  -29.8380  -16.8070   20.7930 C   0  0  0  0  0  0  0  0  0  0  0  0
  -30.0090  -15.7670   19.9340 N   0  0  0  0  0  0  0  0  0  0  0  0
  -29.4440  -16.6430   21.9530 O   0  0  0  0  0  0  0  0  0  0  0  0
  -30.2920  -16.1690   19.0550 H   0  0  0  0  0  0  0  0  0  0  0  0
  -25.2960  -13.9160   20.4610 C   0  0  0  0  0  0  0  0  0  0  0  0
  -24.2350  -13.1470   20.8530 C   0  0  0  0  0  0  0  0  0  0  0  0
  -24.6820  -11.7910   20.7840 C   0  0  0  0  0  0  0  0  0  0  0  0
  -26.3200  -13.0300   20.1720 N   0  0  0  0  0  0  0  0  0  0  0  0
  -25.9610  -11.7470   20.4300 N   0  0  0  0  0  0  0  0  0  0  0  0
  -23.9500  -10.5340   20.9780 C   0  0  0  0  0  0  0  0  0  0  0  0
  -24.3790   -9.5660   21.9140 C   0  0  0  0  0  3  0  0  0  0  0  0
  -23.6450   -8.3730   22.0960 C   0  0  0  0  0  3  0  0  0  0  0  0
  -22.4710   -8.1380   21.3400 C   0  0  0  0  0  0  0  0  0  0  0  0
  -22.0630   -9.0940   20.3950 C   0  0  0  0  0  3  0  0  0  0  0  0
  -22.7950  -10.2780   20.2120 C   0  0  0  0  0  3  0  0  0  0  0  0
  -21.7120   -6.9970   21.4290 O   0  0  0  0  0  0  0  0  0  0  0  0
  -21.6230   -6.2820   22.5970 C   0  0  0  0  0  0  0  0  0  0  0  0
  -21.1140   -6.8530   23.7830 C   0  0  0  0  0  3  0  0  0  0  0  0
  -20.9710   -6.0620   24.9390 C   0  0  0  0  0  3  0  0  0  0  0  0
  -21.3320   -4.7010   24.9120 C   0  0  0  0  0  0  0  0  0  0  0  0
  -21.8350   -4.1290   23.7300 C   0  0  0  0  0  3  0  0  0  0  0  0
  -21.9760   -4.9180   22.5760 C   0  0  0  0  0  0  0  0  0  0  0  0
  -22.4420   -4.3570   21.4330 F   0  0  0  0  0  0  0  0  0  0  0  0
  -21.1890   -3.9390   26.0220 F   0  0  0  0  0  0  0  0  0  0  0  0
  -22.8520  -13.6340   21.1820 C   0  0  0  0  0  0  0  0  0  0  0  0
  -22.1430  -12.9220   22.0500 N   0  0  0  0  0  0  0  0  0  0  0  0
  -22.4130  -14.6780   20.7050 O   0  0  0  0  0  0  0  0  0  0  0  0
  -22.5160  -12.0810   22.4640 H   0  0  0  0  0  0  0  0  0  0  0  0
  -21.2150  -13.2260   22.3060 H   0  0  0  0  0  0  0  0  0  0  0  0
  -25.4710  -15.2870   20.3050 N   0  0  0  0  0  0  0  0  0  0  0  0
  -24.7230  -15.9530   20.4670 H   0  0  0  0  0  0  0  0  0  0  0  0
  -26.3280  -15.7190   19.9830 H   0  0  0  0  0  0  0  0  0  0  0  0
  -28.7600  -24.1490   20.0960 C   0  0  0  0  0  0  0  0  0  0  0  0
  -28.4170  -25.2890   20.7860 C   0  0  0  0  0  0  0  0  0  0  0  0
  -28.0620  -25.3490   22.2680 C   0  0  0  0  0  1  0  0  0  0  0  0
  -29.0170  -24.2780   18.7830 O   0  0  0  0  0  0  0  0  0  0  0  0
  -28.9070  -25.1980   18.5750 H   0  0  0  0  0  0  0  0  0  0  0  0
  -28.4270  -26.5580   20.1800 O   0  0  0  0  0  0  0  0  0  0  0  0
  -24.6220  -31.8720   23.2070 C   0  0  0  0  0  0  0  0  0  0  0  0
  -27.2880  -27.3580   20.1940 C   0  0  0  0  0  0  0  0  0  0  0  0
  -23.4320  -30.4440   21.5780 C   0  0  0  0  0  3  0  0  0  0  0  0
  -24.8990  -28.9000   20.1670 C   0  0  0  0  0  0  0  0  0  0  0  0
  -25.9610  -30.8050   21.3850 C   0  0  0  0  0  2  0  0  0  0  0  0
  -26.0580  -29.4250   20.7550 C   0  0  0  0  0  0  0  0  0  0  0  0
  -27.2610  -28.6660   20.7560 C   0  0  0  0  0  3  0  0  0  0  0  0
  -26.1110  -26.8670   19.5960 C   0  0  0  0  0  3  0  0  0  0  0  0
  -24.9240  -27.6240   19.5770 C   0  0  0  0  0  3  0  0  0  0  0  0
  -23.6510  -29.7580   20.2040 C   0  0  0  0  0  2  0  0  0  0  0  0
  -24.6910  -31.0570   22.1160 N   0  0  0  0  0  0  0  0  0  0  0  0
  -23.5360  -32.1390   23.7410 O   0  0  0  0  0  0  0  0  0  0  0  0
  -22.7860  -29.4250   22.5470 C   0  0  0  0  0  0  0  0  0  0  0  0
  -21.4640  -29.2320   22.4190 N   0  0  0  0  0  0  0  0  0  0  0  0
  -23.4730  -28.8130   23.3680 O   0  0  0  0  0  0  0  0  0  0  0  0
  -20.9740  -29.7790   21.7250 H   0  0  0  0  0  0  0  0  0  0  0  0
  -18.0930  -28.0380   22.9480 C   0  0  0  0  0  0  0  0  0  0  0  0
  -20.6530  -28.2920   23.1940 C   0  0  0  0  0  3  0  0  0  0  0  0
  -20.7510  -26.8650   22.6100 C   0  0  0  0  0  2  0  0  0  0  0  0
  -19.6370  -26.5440   21.6080 C   0  0  0  0  0  2  0  0  0  0  0  0
  -18.2610  -26.6890   22.2650 C   0  0  0  0  0  2  0  0  0  0  0  0
  -19.2160  -28.7980   23.3670 C   0  0  0  0  0  0  0  0  0  0  0  0
  -19.0050  -30.0590   23.9650 C   0  0  0  0  0  3  0  0  0  0  0  0
  -17.7020  -30.5610   24.1460 C   0  0  0  0  0  3  0  0  0  0  0  0
  -16.5940  -29.7980   23.7410 C   0  0  0  0  0  3  0  0  0  0  0  0
  -16.7900  -28.5380   23.1490 C   0  0  0  0  0  3  0  0  0  0  0  0
  -25.9000  -32.5210   23.8240 C   0  0  0  0  0  3  0  0  0  0  0  0
  -26.4260  -31.7610   25.1020 C   0  0  1  0  0  0  0  0  0  0  0  0
  -25.3340  -31.5050   26.1660 C   0  0  0  0  0  1  0  0  0  0  0  0
  -27.0370  -30.3950   24.7100 C   0  0  0  0  0  1  0  0  0  0  0  0
  -27.5600  -32.5770   25.7670 C   0  0  0  0  0  1  0  0  0  0  0  0
  -25.5760  -33.9160   24.1510 N   0  0  0  0  0  0  0  0  0  0  0  0
  -25.9030  -34.9710   23.3940 C   0  0  0  0  0  0  0  0  0  0  0  0
  -26.5820  -34.8730   22.3670 O   0  0  0  0  0  0  0  0  0  0  0  0
  -24.9870  -34.0690   24.9570 H   0  0  0  0  0  0  0  0  0  0  0  0
  -24.1810  -36.7570   22.9960 C   0  0  0  0  0  1  0  0  0  0  0  0
  -25.3970  -36.3560   23.8440 C   0  0  0  0  0  3  0  0  0  0  0  0
  -27.4970  -37.2440   24.7560 C   0  0  0  0  0  1  0  0  0  0  0  0
  -26.4300  -37.4120   23.7730 N   0  0  0  0  0  0  0  0  0  0  0  0
  -26.0160  -38.3300   23.9100 H   0  0  0  0  0  0  0  0  0  0  0  0
  -32.3640  -17.8060   19.1420 N   0  0  0  0  0  0  0  0  0  0  0  0
  -32.5850  -16.8660   19.4660 H   0  0  0  0  0  0  0  0  0  0  0  0
  -33.1640  -18.2400   18.6880 H   0  0  0  0  0  0  0  0  0  0  0  0
  1  5  1  0
  1 18  1  0
  2  1  2  0
  3  5  2  0
  4  7  2  0
  6  3  1  0
  6  4  1  0
  8  2  1  0
  8  3  1  0
  9  6  1  0
 11 16  1  0
 12 13  1  0
 12 11  1  0
 14 13  1  0
 14 25  1  0
 14 15  1  0
 16 10  1  0
 16 15  1  0
 17 10  2  0
 18 20  2  0
 19 10  1  0
 19 18  1  0
 21 19  1  0
 22 23  2  0
 23 42  1  0
 24 23  1  0
 24 27  1  0
 25 26  1  0
 25 22  1  0
 26 24  2  0
 27 28  1  0
 28 29  2  0
 30 33  1  0
 30 29  1  0
 31 30  2  0
 32 31  1  0
 32 27  2  0
 33 34  1  0
 34 35  1  0
 35 36  2  0
 37 36  1  0
 37 41  1  0
 38 37  2  0
 39 34  2  0
 39 38  1  0
 40 39  1  0
 42 43  1  0
 43 46  1  0
 43 45  1  0
 44 42  2  0
 47 22  1  0
 47 48  1  0
 49 47  1  0
 50  4  1  0
 50 51  2  0
 51 52  1  0
 53 50  1  0
 54 53  1  0
 55 57  1  0
 55 51  1  0
 56 67  2  0
 57 62  1  0
 58 66  1  0
 58 68  1  0
 59 65  1  0
 59 61  1  0
 60 66  1  0
 61 62  2  0
 61 60  1  0
 63 57  2  0
 64 63  1  0
 64 59  2  0
 65 58  1  0
 66 56  1  0
 68 70  2  0
 69 68  1  0
 71 69  1  0
 72 81  2  0
 72 77  1  0
 73 69  1  0
 73 77  1  0
 74 73  1  0
 75 76  1  0
 75 74  1  0
 76 72  1  0
 77 78  2  0
 78 79  1  0
 80 79  2  0
 81 80  1  0
 82 56  1  0
 82 87  1  0
 82 83  1  0
 83 86  1  1
 83 84  1  0
 85 83  1  0
 87 90  1  0
 88 92  1  0
 88 87  1  0
 89 88  2  0
 92 91  1  0
 94 92  1  0
 94 95  1  0
 94 93  1  0
 96 97  1  0
 96  2  1  0
 98 96  1  0
M  ISO  4  10 100  19 100  51 101  55 101
M  END
>  <TORSDO>  (42) 
F 19

>  <SCORE>  (42) 
-14.936

>  <name>  (42) 
41

>  <ligand_id>  (42) 
41

>  <original_smiles>  (42) 
[H]OC(C(=O)N([H])c1nc(C(=O)N([H])C(=O)N2C([H])([H])C([H])([H])C([H])([H])C([H])(n3nc(-c4c([H])c([H])c(Oc5c([H])c([H])c(F)c([H])c5F)c([H])c4[H])c(C(=O)N([H])[H])c3N([H])[H])C2([H])[H])c(N([H])[H])s1)=C(Oc1c([H])c([H])c2c(c1[H])C([H])([H])N(C(=O)C([H])(N([H])C(=O)C([H])(N([H])C([H])([H])[H])C([H])([H])[H])C(C([H])([H])[H])(C([H])([H])[H])C([H])([H])[H])C([H])(C(=O)N([H])C1([H])c3c([H])c([H])c([H])c([H])c3C([H])([H])C([H])([H])C1([H])[H])C2([H])[H])C([H])([H])[H]

>  <smiles>  (42) 
[H]OC(C(=O)N([H])c1nc(C(=O)N([H])C(=O)N2C([H])([H])C([H])([H])C([H])([H])C([H])(n3nc(-c4c([H])c([H])c(Oc5c([H])c([H])c(F)c([H])c5F)c([H])c4[H])c(C(=O)N([H])[H])c3N([H])[H])C2([H])[H])c(N([H])[H])s1)=C(Oc1c([H])c([H])c2c(c1[H])C([H])([H])N(C(=O)C([H])(N([H])C(=O)C([H])(N([H])C([H])([H])[H])C([H])([H])[H])C(C([H])([H])[H])(C([H])([H])[H])C([H])([H])[H])C([H])(C(=O)N([H])C1([H])c3c([H])c([H])c([H])c([H])c3C([H])([H])C([H])([H])C1([H])[H])C2([H])[H])C([H])([H])[H]

$$$$
42:0:0
     RDKit          3D

 97105  0  0  1  0  0  0  0  0999 V2000
  -29.0890  -22.7670   19.4890 C   0  0  0  0  0  3  0  0  0  0  0  0
  -27.6790  -22.4400   18.9280 C   0  0  2  0  0  0  0  0  0  0  0  0
  -27.3600  -23.2620   17.9310 F   0  0  0  0  0  0  0  0  0  0  0  0
  -26.7650  -22.5480   19.8920 F   0  0  0  0  0  0  0  0  0  0  0  0
  -27.6230  -21.1960   18.4450 F   0  0  0  0  0  0  0  0  0  0  0  0
  -30.3520  -20.6140   19.6500 C   0  0  0  0  0  0  0  0  0  0  0  0
  -29.6260  -21.5900   20.2350 N   0  0  0  0  0  0  0  0  0  0  0  0
  -30.8550  -20.7640   18.5350 O   0  0  0  0  0  0  0  0  0  0  0  0
  -29.2330  -21.4010   21.1480 H   0  0  0  0  0  0  0  0  0  0  0  0
  -30.6900  -14.4780   20.4990 C   0  0  0  0  0  0  0  0  0  0  0  0
  -30.3600  -12.3180   19.3540 C   0  0  0  0  0  2  0  0  0  0  0  0
  -29.4240  -12.5450   18.1480 C   0  0  0  0  0  2  0  0  0  0  0  0
  -27.9470  -12.4270   18.5700 C   0  0  0  0  0  2  0  0  0  0  0  0
  -27.6170  -13.2470   19.8470 C   0  0  0  0  0  3  0  0  0  0  0  0
  -28.6730  -13.0180   20.9530 C   0  0  0  0  0  2  0  0  0  0  0  0
  -29.9990  -13.3070   20.3850 N   0  0  0  0  0  0  0  0  0  0  0  0
  -31.8120  -14.6230   20.0050 O   0  0  0  0  0  0  0  0  0  0  0  0
  -30.5560  -19.3090   20.3400 C   0  0  0  0  0  0  0  0  0  0  0  0
  -31.6700  -18.7590   20.9410 C   0  0  0  0  0  0  0  0  0  0  0  0
  -30.3540  -16.8920   20.8850 C   0  0  0  0  0  0  0  0  0  0  0  0
  -32.9790  -19.4250   21.2380 C   0  0  0  0  0  1  0  0  0  0  0  0
  -31.5290  -17.4010   21.2690 N   0  0  0  0  0  0  0  0  0  0  0  0
  -30.0280  -15.5110   21.0590 N   0  0  0  0  0  0  0  0  0  0  0  0
  -29.2820  -18.1070   20.1720 S   0  0  0  0  0  0  0  0  0  0  0  0
  -29.1050  -15.3090   21.4050 H   0  0  0  0  0  0  0  0  0  0  0  0
  -25.2120  -13.8550   20.5300 C   0  0  0  0  0  0  0  0  0  0  0  0
  -24.1400  -13.0830   20.8990 C   0  0  0  0  0  0  0  0  0  0  0  0
  -24.6000  -11.7330   20.8770 C   0  0  0  0  0  0  0  0  0  0  0  0
  -26.2590  -12.9720   20.3180 N   0  0  0  0  0  0  0  0  0  0  0  0
  -25.8940  -11.6900   20.5790 N   0  0  0  0  0  0  0  0  0  0  0  0
  -23.8710  -10.4710   21.0690 C   0  0  0  0  0  0  0  0  0  0  0  0
  -24.3070   -9.4980   21.9930 C   0  0  0  0  0  3  0  0  0  0  0  0
  -23.5770   -8.3030   22.1730 C   0  0  0  0  0  3  0  0  0  0  0  0
  -22.3960   -8.0730   21.4280 C   0  0  0  0  0  0  0  0  0  0  0  0
  -21.9780   -9.0360   20.4920 C   0  0  0  0  0  3  0  0  0  0  0  0
  -22.7090  -10.2220   20.3110 C   0  0  0  0  0  3  0  0  0  0  0  0
  -21.6370   -6.9300   21.5160 O   0  0  0  0  0  0  0  0  0  0  0  0
  -21.6090   -6.1740   22.6590 C   0  0  0  0  0  0  0  0  0  0  0  0
  -21.2180   -6.7160   23.9040 C   0  0  0  0  0  3  0  0  0  0  0  0
  -21.1370   -5.8850   25.0400 C   0  0  0  0  0  3  0  0  0  0  0  0
  -21.4340   -4.5130   24.9320 C   0  0  0  0  0  0  0  0  0  0  0  0
  -21.8170   -3.9710   23.6930 C   0  0  0  0  0  3  0  0  0  0  0  0
  -21.9000   -4.7980   22.5600 C   0  0  0  0  0  0  0  0  0  0  0  0
  -22.2490   -4.2660   21.3630 F   0  0  0  0  0  0  0  0  0  0  0  0
  -21.3490   -3.7130   26.0200 F   0  0  0  0  0  0  0  0  0  0  0  0
  -22.7420  -13.5650   21.1630 C   0  0  0  0  0  0  0  0  0  0  0  0
  -22.0100  -12.8720   22.0280 N   0  0  0  0  0  0  0  0  0  0  0  0
  -22.3090  -14.5900   20.6390 O   0  0  0  0  0  0  0  0  0  0  0  0
  -22.3720  -12.0410   22.4720 H   0  0  0  0  0  0  0  0  0  0  0  0
  -21.0720  -13.1740   22.2480 H   0  0  0  0  0  0  0  0  0  0  0  0
  -25.3740  -15.2220   20.3410 N   0  0  0  0  0  0  0  0  0  0  0  0
  -24.5900  -15.8630   20.3970 H   0  0  0  0  0  0  0  0  0  0  0  0
  -26.2120  -15.6530   19.9730 H   0  0  0  0  0  0  0  0  0  0  0  0
  -29.2760  -24.1720   20.1820 C   0  0  0  0  0  0  0  0  0  0  0  0
  -30.3660  -24.5260   20.6480 O   0  0  0  0  0  0  0  0  0  0  0  0
  -28.0610  -25.1350   20.2690 C   0  0  0  0  0  2  0  0  0  0  0  0
  -28.3450  -26.5670   20.1990 O   0  0  0  0  0  0  0  0  0  0  0  0
  -24.6090  -31.8860   23.2430 C   0  0  0  0  0  0  0  0  0  0  0  0
  -27.2100  -27.3770   20.1670 C   0  0  0  0  0  0  0  0  0  0  0  0
  -23.3940  -30.4920   21.6050 C   0  0  0  0  0  3  0  0  0  0  0  0
  -24.8350  -28.9510   20.1810 C   0  0  0  0  0  0  0  0  0  0  0  0
  -25.9320  -30.8140   21.4260 C   0  0  0  0  0  2  0  0  0  0  0  0
  -26.0040  -29.4450   20.7740 C   0  0  0  0  0  0  0  0  0  0  0  0
  -27.1900  -28.6660   20.7710 C   0  0  0  0  0  3  0  0  0  0  0  0
  -26.0130  -26.9320   19.5430 C   0  0  0  0  0  3  0  0  0  0  0  0
  -24.8370  -27.6930   19.5700 C   0  0  0  0  0  3  0  0  0  0  0  0
  -23.6030  -29.8190   20.2250 C   0  0  0  0  0  2  0  0  0  0  0  0
  -24.6620  -31.0810   22.1460 N   0  0  0  0  0  0  0  0  0  0  0  0
  -23.5290  -32.1680   23.7800 O   0  0  0  0  0  0  0  0  0  0  0  0
  -22.7380  -29.4730   22.5640 C   0  0  0  0  0  0  0  0  0  0  0  0
  -21.4140  -29.2890   22.4350 N   0  0  0  0  0  0  0  0  0  0  0  0
  -23.4190  -28.8510   23.3850 O   0  0  0  0  0  0  0  0  0  0  0  0
  -20.9260  -29.8360   21.7380 H   0  0  0  0  0  0  0  0  0  0  0  0
  -18.0420  -28.0970   22.9510 C   0  0  0  0  0  0  0  0  0  0  0  0
  -20.6000  -28.3580   23.2150 C   0  0  0  0  0  3  0  0  0  0  0  0
  -20.7030  -26.9240   22.6480 C   0  0  0  0  0  2  0  0  0  0  0  0
  -19.5990  -26.5930   21.6380 C   0  0  0  0  0  2  0  0  0  0  0  0
  -18.2180  -26.7430   22.2810 C   0  0  0  0  0  2  0  0  0  0  0  0
  -19.1610  -28.8610   23.3760 C   0  0  0  0  0  0  0  0  0  0  0  0
  -18.9430  -30.1260   23.9620 C   0  0  0  0  0  3  0  0  0  0  0  0
  -17.6390  -30.6300   24.1240 C   0  0  0  0  0  3  0  0  0  0  0  0
  -16.5340  -29.8610   23.7180 C   0  0  0  0  0  3  0  0  0  0  0  0
  -16.7360  -28.5960   23.1380 C   0  0  0  0  0  3  0  0  0  0  0  0
  -25.8990  -32.5120   23.8560 C   0  0  0  0  0  3  0  0  0  0  0  0
  -26.4340  -31.7340   25.1210 C   0  0  1  0  0  0  0  0  0  0  0  0
  -25.3510  -31.4900   26.1970 C   0  0  0  0  0  1  0  0  0  0  0  0
  -27.0190  -30.3580   24.7260 C   0  0  0  0  0  1  0  0  0  0  0  0
  -27.5930  -32.5280   25.7690 C   0  0  0  0  0  1  0  0  0  0  0  0
  -25.5950  -33.9090   24.1930 N   0  0  0  0  0  0  0  0  0  0  0  0
  -25.9200  -34.9630   23.4340 C   0  0  0  0  0  0  0  0  0  0  0  0
  -26.5780  -34.8630   22.3960 O   0  0  0  0  0  0  0  0  0  0  0  0
  -25.0080  -34.0640   25.0010 H   0  0  0  0  0  0  0  0  0  0  0  0
  -24.1830  -36.7500   23.1070 C   0  0  0  0  0  1  0  0  0  0  0  0
  -25.4340  -36.3480   23.9030 C   0  0  0  0  0  3  0  0  0  0  0  0
  -27.5780  -37.2280   24.7120 C   0  0  0  0  0  1  0  0  0  0  0  0
  -26.4630  -37.4030   23.7840 N   0  0  0  0  0  0  0  0  0  0  0  0
  -26.0600  -38.3220   23.9450 H   0  0  0  0  0  0  0  0  0  0  0  0
  1 54  1  0
  1  7  1  0
  2  1  1  0
  2  4  1  1
  3  2  1  0
  5  2  1  0
  6  7  1  0
  6 18  1  0
  7  9  1  0
  8  6  2  0
 10 23  1  0
 11 16  1  0
 12 13  1  0
 12 11  1  0
 14 13  1  0
 14 29  1  0
 14 15  1  0
 16 10  1  0
 16 15  1  0
 17 10  2  0
 18 19  2  0
 19 21  1  0
 19 22  1  0
 20 23  1  0
 20 22  2  0
 23 25  1  0
 24 18  1  0
 24 20  1  0
 26 27  2  0
 27 46  1  0
 28 27  1  0
 28 31  1  0
 29 26  1  0
 29 30  1  0
 30 28  2  0
 31 32  1  0
 32 33  2  0
 34 37  1  0
 34 33  1  0
 35 34  2  0
 36 35  1  0
 36 31  2  0
 37 38  1  0
 38 39  1  0
 39 40  2  0
 41 40  1  0
 41 45  1  0
 42 41  2  0
 43 38  2  0
 43 42  1  0
 44 43  1  0
 46 47  1  0
 47 50  1  0
 47 49  1  0
 48 46  2  0
 51 52  1  0
 51 26  1  0
 53 51  1  0
 54 56  1  0
 54 55  2  0
 57 56  1  0
 58 69  2  0
 59 57  1  0
 59 64  1  0
 60 68  1  0
 60 70  1  0
 61 67  1  0
 61 63  1  0
 62 68  1  0
 63 62  1  0
 64 63  2  0
 65 66  1  0
 65 59  2  0
 66 61  2  0
 67 60  1  0
 68 58  1  0
 70 72  2  0
 71 70  1  0
 73 71  1  0
 74 83  2  0
 74 79  1  0
 75 71  1  0
 75 79  1  0
 76 75  1  0
 77 78  1  0
 77 76  1  0
 78 74  1  0
 79 80  2  0
 80 81  1  0
 82 81  2  0
 83 82  1  0
 84 58  1  0
 84 89  1  0
 84 85  1  0
 85 88  1  1
 85 86  1  0
 87 85  1  0
 89 92  1  0
 90 94  1  0
 90 89  1  0
 91 90  2  0
 94 93  1  0
 96 94  1  0
 96 97  1  0
 96 95  1  0
M  ISO  4  10 100  23 100  56 101  57 101
M  END
>  <TORSDO>  (43) 
F 20

>  <SCORE>  (43) 
-14.360

>  <name>  (43) 
42

>  <ligand_id>  (43) 
42

>  <original_smiles>  (43) 
[H]c1c([H])c([H])c2c(c1[H])C([H])([H])C([H])([H])C([H])([H])C2([H])N([H])C(=O)C1([H])N(C(=O)C([H])(N([H])C(=O)C([H])(N([H])C([H])([H])[H])C([H])([H])[H])C(C([H])([H])[H])(C([H])([H])[H])C([H])([H])[H])C([H])([H])c2c([H])c(OC([H])([H])C(=O)C([H])(N([H])C(=O)c3sc(N([H])C(=O)N4C([H])([H])C([H])([H])C([H])([H])C([H])(n5nc(-c6c([H])c([H])c(Oc7c([H])c([H])c(F)c([H])c7F)c([H])c6[H])c(C(=O)N([H])[H])c5N([H])[H])C4([H])[H])nc3C([H])([H])[H])C(F)(F)F)c([H])c([H])c2C1([H])[H]

>  <smiles>  (43) 
[H]c1c([H])c([H])c2c(c1[H])C([H])([H])C([H])([H])C([H])([H])C2([H])N([H])C(=O)C1([H])N(C(=O)C([H])(N([H])C(=O)C([H])(N([H])C([H])([H])[H])C([H])([H])[H])C(C([H])([H])[H])(C([H])([H])[H])C([H])([H])[H])C([H])([H])c2c([H])c(OC([H])([H])C(=O)C([H])(N([H])C(=O)c3sc(N([H])C(=O)N4C([H])([H])C([H])([H])C([H])([H])C([H])(n5nc(-c6c([H])c([H])c(Oc7c([H])c([H])c(F)c([H])c7F)c([H])c6[H])c(C(=O)N([H])[H])c5N([H])[H])C4([H])[H])nc3C([H])([H])[H])C(F)(F)F)c([H])c([H])c2C1([H])[H]

$$$$
43:0:0
     RDKit          3D

 95103  0  0  1  0  0  0  0  0999 V2000
  -29.0360  -21.1870   20.3130 N   0  0  0  0  0  0  0  0  0  0  0  0
  -28.2690  -21.0240   19.6700 H   0  0  0  0  0  0  0  0  0  0  0  0
  -30.6460  -14.8940   20.3240 C   0  0  0  0  0  0  0  0  0  0  0  0
  -30.4470  -12.6140   19.2880 C   0  0  0  0  0  2  0  0  0  0  0  0
  -29.4790  -12.6480   18.0840 C   0  0  0  0  0  2  0  0  0  0  0  0
  -28.0220  -12.4520   18.5470 C   0  0  0  0  0  2  0  0  0  0  0  0
  -27.6550  -13.3490   19.7580 C   0  0  0  0  0  3  0  0  0  0  0  0
  -28.7370  -13.2890   20.8590 C   0  0  0  0  0  2  0  0  0  0  0  0
  -30.0120  -13.6690   20.2330 N   0  0  0  0  0  0  0  0  0  0  0  0
  -31.8480  -14.9680   20.0360 O   0  0  0  0  0  0  0  0  0  0  0  0
  -31.4870  -18.9340   22.1560 C   0  0  0  0  0  2  0  0  0  0  0  0
  -29.7350  -19.9860   20.7850 C   0  0  0  0  0  0  0  0  0  0  0  0
  -30.7670  -20.0790   21.7580 C   0  0  0  0  0  0  0  0  0  0  0  0
  -29.4440  -18.6190   20.3390 C   0  0  0  0  0  0  0  0  0  0  0  0
  -30.1900  -17.4450   20.7970 C   0  0  0  0  0  0  0  0  0  0  0  0
  -31.1960  -17.7030   21.6740 N   0  0  0  0  0  0  0  0  0  0  0  0
  -29.8590  -16.0340   20.4630 N   0  0  0  0  0  0  0  0  0  0  0  0
  -31.0830  -21.2560   22.3520 F   0  0  0  0  0  0  0  0  0  0  0  0
  -28.4290  -18.4330   19.4570 F   0  0  0  0  0  0  0  0  0  0  0  0
  -31.7550  -16.9210   22.0310 H   0  0  0  0  0  0  0  0  0  0  0  0
  -28.8760  -15.8600   20.3680 H   0  0  0  0  0  0  0  0  0  0  0  0
  -25.2890  -13.9270   20.5610 C   0  0  0  0  0  0  0  0  0  0  0  0
  -24.2330  -13.1440   20.9420 C   0  0  0  0  0  0  0  0  0  0  0  0
  -24.6960  -11.7950   20.8700 C   0  0  0  0  0  0  0  0  0  0  0  0
  -26.3260  -13.0520   20.2780 N   0  0  0  0  0  0  0  0  0  0  0  0
  -25.9790  -11.7650   20.5290 N   0  0  0  0  0  0  0  0  0  0  0  0
  -23.9760  -10.5280   21.0450 C   0  0  0  0  0  0  0  0  0  0  0  0
  -24.4020   -9.5590   21.9790 C   0  0  0  0  0  3  0  0  0  0  0  0
  -23.6790   -8.3570   22.1430 C   0  0  0  0  0  3  0  0  0  0  0  0
  -22.5180   -8.1160   21.3710 C   0  0  0  0  0  0  0  0  0  0  0  0
  -22.1130   -9.0740   20.4250 C   0  0  0  0  0  3  0  0  0  0  0  0
  -22.8350  -10.2670   20.2600 C   0  0  0  0  0  3  0  0  0  0  0  0
  -21.7680   -6.9670   21.4440 O   0  0  0  0  0  0  0  0  0  0  0  0
  -21.6790   -6.2390   22.6040 C   0  0  0  0  0  0  0  0  0  0  0  0
  -21.1460   -6.7890   23.7890 C   0  0  0  0  0  3  0  0  0  0  0  0
  -21.0090   -5.9850   24.9390 C   0  0  0  0  0  3  0  0  0  0  0  0
  -21.3950   -4.6320   24.9020 C   0  0  0  0  0  0  0  0  0  0  0  0
  -21.9230   -4.0820   23.7210 C   0  0  0  0  0  3  0  0  0  0  0  0
  -22.0610   -4.8830   22.5730 C   0  0  0  0  0  0  0  0  0  0  0  0
  -22.5500   -4.3410   21.4310 F   0  0  0  0  0  0  0  0  0  0  0  0
  -21.2570   -3.8560   26.0030 F   0  0  0  0  0  0  0  0  0  0  0  0
  -22.8420  -13.6140   21.2500 C   0  0  0  0  0  0  0  0  0  0  0  0
  -22.1250  -12.8890   22.1010 N   0  0  0  0  0  0  0  0  0  0  0  0
  -22.4000  -14.6580   20.7720 O   0  0  0  0  0  0  0  0  0  0  0  0
  -22.4960  -12.0420   22.5080 H   0  0  0  0  0  0  0  0  0  0  0  0
  -21.1920  -13.1840   22.3510 H   0  0  0  0  0  0  0  0  0  0  0  0
  -25.4440  -15.3020   20.4040 N   0  0  0  0  0  0  0  0  0  0  0  0
  -24.6520  -15.9260   20.5190 H   0  0  0  0  0  0  0  0  0  0  0  0
  -26.2160  -15.7410   19.9220 H   0  0  0  0  0  0  0  0  0  0  0  0
  -30.7480  -22.9660   19.8320 C   0  0  0  0  0  1  0  0  0  0  0  0
  -29.4180  -22.6490   20.5530 C   0  0  0  0  0  3  0  0  0  0  0  0
  -28.4000  -23.8450   20.1140 C   0  0  0  0  0  0  0  0  0  0  0  0
  -27.6680  -23.6940   19.1320 O   0  0  0  0  0  0  0  0  0  0  0  0
  -28.3160  -25.2260   20.9280 C   0  0  0  0  0  2  0  0  0  0  0  0
  -28.3620  -26.5350   20.1970 O   0  0  0  0  0  0  0  0  0  0  0  0
  -24.5450  -31.9350   23.2330 C   0  0  0  0  0  0  0  0  0  0  0  0
  -27.2360  -27.3800   20.2200 C   0  0  0  0  0  0  0  0  0  0  0  0
  -23.3730  -30.5180   21.5860 C   0  0  0  0  0  3  0  0  0  0  0  0
  -24.8550  -28.9740   20.1790 C   0  0  0  0  0  0  0  0  0  0  0  0
  -25.9100  -30.8650   21.4190 C   0  0  0  0  0  2  0  0  0  0  0  0
  -26.0140  -29.4810   20.7810 C   0  0  0  0  0  0  0  0  0  0  0  0
  -27.2120  -28.6990   20.7840 C   0  0  0  0  0  3  0  0  0  0  0  0
  -26.0550  -26.9250   19.6030 C   0  0  0  0  0  3  0  0  0  0  0  0
  -24.8790  -27.7030   19.5790 C   0  0  0  0  0  3  0  0  0  0  0  0
  -23.6080  -29.8370   20.2100 C   0  0  0  0  0  2  0  0  0  0  0  0
  -24.6280  -31.1250   22.1370 N   0  0  0  0  0  0  0  0  0  0  0  0
  -23.4540  -32.1980   23.7600 O   0  0  0  0  0  0  0  0  0  0  0  0
  -22.7130  -29.4980   22.5440 C   0  0  0  0  0  0  0  0  0  0  0  0
  -21.3890  -29.3070   22.4100 N   0  0  0  0  0  0  0  0  0  0  0  0
  -23.3940  -28.8780   23.3670 O   0  0  0  0  0  0  0  0  0  0  0  0
  -20.9000  -29.8590   21.7200 H   0  0  0  0  0  0  0  0  0  0  0  0
  -18.0160  -28.1050   22.9220 C   0  0  0  0  0  0  0  0  0  0  0  0
  -20.5760  -28.3600   23.1750 C   0  0  0  0  0  3  0  0  0  0  0  0
  -20.6720  -26.9360   22.5810 C   0  0  0  0  0  2  0  0  0  0  0  0
  -19.5630  -26.6270   21.5710 C   0  0  0  0  0  2  0  0  0  0  0  0
  -18.1860  -26.7640   22.2290 C   0  0  0  0  0  2  0  0  0  0  0  0
  -19.1380  -28.8620   23.3530 C   0  0  0  0  0  0  0  0  0  0  0  0
  -18.9230  -30.1170   23.9620 C   0  0  0  0  0  3  0  0  0  0  0  0
  -17.6200  -30.6160   24.1450 C   0  0  0  0  0  3  0  0  0  0  0  0
  -16.5120  -29.8550   23.7310 C   0  0  0  0  0  3  0  0  0  0  0  0
  -16.7110  -28.6030   23.1250 C   0  0  0  0  0  3  0  0  0  0  0  0
  -25.8130  -32.5860   23.8660 C   0  0  0  0  0  3  0  0  0  0  0  0
  -26.3180  -31.8340   25.1580 C   0  0  1  0  0  0  0  0  0  0  0  0
  -25.2100  -31.5920   26.2110 C   0  0  0  0  0  1  0  0  0  0  0  0
  -26.9240  -30.4600   24.7900 C   0  0  0  0  0  1  0  0  0  0  0  0
  -27.4480  -32.6470   25.8310 C   0  0  0  0  0  1  0  0  0  0  0  0
  -25.4870  -33.9850   24.1780 N   0  0  0  0  0  0  0  0  0  0  0  0
  -25.8250  -35.0340   23.4160 C   0  0  0  0  0  0  0  0  0  0  0  0
  -26.5120  -34.9270   22.3970 O   0  0  0  0  0  0  0  0  0  0  0  0
  -24.8790  -34.1410   24.9670 H   0  0  0  0  0  0  0  0  0  0  0  0
  -24.1100  -36.8270   23.0020 C   0  0  0  0  0  1  0  0  0  0  0  0
  -25.3240  -36.4240   23.8560 C   0  0  0  0  0  3  0  0  0  0  0  0
  -27.4210  -37.3200   24.7650 C   0  0  0  0  0  1  0  0  0  0  0  0
  -26.3600  -37.4770   23.7740 N   0  0  0  0  0  0  0  0  0  0  0  0
  -25.9460  -38.3980   23.8940 H   0  0  0  0  0  0  0  0  0  0  0  0
  1 51  1  0
  1 12  1  0
  2  1  1  0
  3 17  1  0
  4  9  1  0
  5  6  1  0
  5  4  1  0
  7  6  1  0
  7 25  1  0
  7  8  1  0
  9  3  1  0
  9  8  1  0
 10  3  2  0
 12 13  2  0
 13 11  1  0
 13 18  1  0
 14 12  1  0
 14 15  2  0
 15 16  1  0
 16 20  1  0
 16 11  1  0
 17 15  1  0
 19 14  1  0
 21 17  1  0
 22 23  2  0
 23 42  1  0
 24 23  1  0
 24 27  1  0
 25 26  1  0
 25 22  1  0
 26 24  2  0
 27 28  1  0
 28 29  2  0
 30 33  1  0
 30 29  1  0
 31 30  2  0
 32 31  1  0
 32 27  2  0
 33 34  1  0
 34 35  1  0
 35 36  2  0
 37 36  1  0
 37 41  1  0
 38 37  2  0
 39 34  2  0
 39 38  1  0
 40 39  1  0
 42 43  1  0
 43 46  1  0
 43 45  1  0
 44 42  2  0
 47 48  1  0
 47 22  1  0
 49 47  1  0
 51 50  1  0
 52 51  1  0
 52 54  1  0
 53 52  2  0
 55 57  1  0
 55 54  1  0
 56 67  2  0
 57 62  1  0
 58 66  1  0
 58 68  1  0
 59 65  1  0
 59 61  1  0
 60 66  1  0
 61 62  2  0
 61 60  1  0
 63 57  2  0
 64 63  1  0
 64 59  2  0
 65 58  1  0
 66 56  1  0
 68 70  2  0
 69 68  1  0
 71 69  1  0
 72 81  2  0
 72 77  1  0
 73 69  1  0
 73 77  1  0
 74 73  1  0
 75 76  1  0
 75 74  1  0
 76 72  1  0
 77 78  2  0
 78 79  1  0
 80 79  2  0
 81 80  1  0
 82 56  1  0
 82 87  1  0
 82 83  1  0
 83 86  1  1
 83 84  1  0
 85 83  1  0
 87 90  1  0
 88 92  1  0
 88 87  1  0
 89 88  2  0
 92 91  1  0
 94 92  1  0
 94 95  1  0
 94 93  1  0
M  ISO  4   3 100  17 100  54 101  55 101
M  END
>  <TORSDO>  (44) 
F 19

>  <SCORE>  (44) 
-14.615

>  <name>  (44) 
43

>  <ligand_id>  (44) 
43

>  <original_smiles>  (44) 
[H]c1c([H])c([H])c2c(c1[H])C([H])([H])C([H])([H])C([H])([H])C2([H])N([H])C(=O)C1([H])N(C(=O)C([H])(N([H])C(=O)C([H])(N([H])C([H])([H])[H])C([H])([H])[H])C(C([H])([H])[H])(C([H])([H])[H])C([H])([H])[H])C([H])([H])c2c([H])c(OC([H])([H])C(=O)C([H])(N([H])c3c(F)c([H])[n+]([H])c(N([H])C(=O)N4C([H])([H])C([H])([H])C([H])([H])C([H])(n5nc(-c6c([H])c([H])c(Oc7c([H])c([H])c(F)c([H])c7F)c([H])c6[H])c(C(=O)N([H])[H])c5N([H])[H])C4([H])[H])c3F)C([H])([H])[H])c([H])c([H])c2C1([H])[H]

>  <smiles>  (44) 
[H]c1c([H])c([H])c2c(c1[H])C([H])([H])C([H])([H])C([H])([H])C2([H])N([H])C(=O)C1([H])N(C(=O)C([H])(N([H])C(=O)C([H])(N([H])C([H])([H])[H])C([H])([H])[H])C(C([H])([H])[H])(C([H])([H])[H])C([H])([H])[H])C([H])([H])c2c([H])c(OC([H])([H])C(=O)C([H])(N([H])c3c(F)c([H])[n+]([H])c(N([H])C(=O)N4C([H])([H])C([H])([H])C([H])([H])C([H])(n5nc(-c6c([H])c([H])c(Oc7c([H])c([H])c(F)c([H])c7F)c([H])c6[H])c(C(=O)N([H])[H])c5N([H])[H])C4([H])[H])c3F)C([H])([H])[H])c([H])c([H])c2C1([H])[H]

$$$$
44:0:0
     RDKit          3D

 97105  0  0  1  0  0  0  0  0999 V2000
  -26.4720  -20.5930   19.6470 C   0  0  0  0  0  2  0  0  0  0  0  0
  -26.7480  -23.0540   19.8700 C   0  0  0  0  0  0  0  0  0  0  0  0
  -27.0010  -21.8050   20.2810 N   0  0  0  0  0  0  0  0  0  0  0  0
  -25.9960  -23.3070   18.9260 O   0  0  0  0  0  0  0  0  0  0  0  0
  -27.6330  -21.6670   21.0580 H   0  0  0  0  0  0  0  0  0  0  0  0
  -27.4280  -24.1980   20.6170 C   0  0  0  0  0  2  0  0  0  0  0  0
  -28.6320  -24.7630   19.8360 C   0  0  0  0  0  2  0  0  0  0  0  0
  -28.9540  -26.2370   20.1450 C   0  0  0  0  0  2  0  0  0  0  0  0
  -28.4810  -27.0820   19.1030 O   0  0  0  0  0  0  0  0  0  0  0  0
  -24.5660  -31.6350   22.9350 C   0  0  0  0  0  0  0  0  0  0  0  0
  -27.2740  -27.6900   19.3180 C   0  0  0  0  0  0  0  0  0  0  0  0
  -23.3460  -30.3320   21.2200 C   0  0  0  0  0  3  0  0  0  0  0  0
  -24.8020  -29.0150   19.5900 C   0  0  0  0  0  0  0  0  0  0  0  0
  -25.8300  -30.8560   20.9360 C   0  0  0  0  0  2  0  0  0  0  0  0
  -25.9550  -29.5520   20.1790 C   0  0  0  0  0  0  0  0  0  0  0  0
  -27.1960  -28.8940   20.0490 C   0  0  0  0  0  3  0  0  0  0  0  0
  -26.1130  -27.1560   18.7250 C   0  0  0  0  0  3  0  0  0  0  0  0
  -24.8730  -27.8100   18.8650 C   0  0  0  0  0  3  0  0  0  0  0  0
  -23.5190  -29.7950   19.7720 C   0  0  0  0  0  2  0  0  0  0  0  0
  -24.6010  -30.9500   21.7580 N   0  0  0  0  0  0  0  0  0  0  0  0
  -23.5050  -31.7930   23.5530 O   0  0  0  0  0  0  0  0  0  0  0  0
  -22.7990  -29.1900   22.1050 C   0  0  0  0  0  0  0  0  0  0  0  0
  -21.4770  -28.9620   22.0350 N   0  0  0  0  0  0  0  0  0  0  0  0
  -23.5560  -28.5160   22.8080 O   0  0  0  0  0  0  0  0  0  0  0  0
  -20.9210  -29.5660   21.4440 H   0  0  0  0  0  0  0  0  0  0  0  0
  -18.1900  -27.5710   22.5830 C   0  0  0  0  0  0  0  0  0  0  0  0
  -20.7490  -27.9100   22.7410 C   0  0  0  0  0  3  0  0  0  0  0  0
  -20.8740  -26.5560   22.0060 C   0  0  0  0  0  2  0  0  0  0  0  0
  -19.7260  -26.2920   21.0270 C   0  0  0  0  0  2  0  0  0  0  0  0
  -18.3760  -26.3160   21.7480 C   0  0  0  0  0  2  0  0  0  0  0  0
  -19.3040  -28.3300   23.0340 C   0  0  0  0  0  0  0  0  0  0  0  0
  -19.0740  -29.5120   23.7690 C   0  0  0  0  0  3  0  0  0  0  0  0
  -17.7640  -29.9350   24.0620 C   0  0  0  0  0  3  0  0  0  0  0  0
  -16.6670  -29.1710   23.6290 C   0  0  0  0  0  3  0  0  0  0  0  0
  -16.8820  -27.9930   22.8920 C   0  0  0  0  0  3  0  0  0  0  0  0
  -25.8510  -32.2710   23.5530 C   0  0  0  0  0  3  0  0  0  0  0  0
  -25.4970  -33.6170   24.0230 N   0  0  0  0  0  0  0  0  0  0  0  0
  -25.7520  -34.7480   23.3510 C   0  0  0  0  0  0  0  0  0  0  0  0
  -26.3840  -34.7690   22.2910 O   0  0  0  0  0  0  0  0  0  0  0  0
  -24.9360  -33.6710   24.8600 H   0  0  0  0  0  0  0  0  0  0  0  0
  -23.9360  -36.4810   23.2140 C   0  0  0  0  0  1  0  0  0  0  0  0
  -25.2200  -36.0640   23.9490 C   0  0  0  0  0  3  0  0  0  0  0  0
  -27.3390  -36.9690   24.8000 C   0  0  0  0  0  1  0  0  0  0  0  0
  -26.2030  -37.1690   23.9040 N   0  0  0  0  0  0  0  0  0  0  0  0
  -25.7630  -38.0540   24.1430 H   0  0  0  0  0  0  0  0  0  0  0  0
  -26.4700  -31.4120   24.7230 C   0  0  1  0  0  0  0  0  0  0  0  0
  -25.4500  -31.0300   25.8190 C   0  0  0  0  0  1  0  0  0  0  0  0
  -27.0850  -30.1040   24.1730 C   0  0  0  0  0  1  0  0  0  0  0  0
  -27.6250  -32.1930   25.3930 C   0  0  0  0  0  1  0  0  0  0  0  0
  -27.4790  -19.8990   18.6920 C   0  0  2  0  0  0  0  0  0  0  0  0
  -28.1640  -20.8200   18.0090 F   0  0  0  0  0  0  0  0  0  0  0  0
  -26.7260  -19.2360   17.8120 F   0  0  0  0  0  0  0  0  0  0  0  0
  -29.6790  -17.8030   21.0990 C   0  0  0  0  0  3  0  0  0  0  0  0
  -29.6170  -16.8920   18.8660 C   0  0  0  0  0  3  0  0  0  0  0  0
  -30.0290  -16.7660   20.2120 C   0  0  0  0  0  0  0  0  0  0  0  0
  -28.8940  -18.8810   20.6410 C   0  0  0  0  0  0  0  0  0  0  0  0
  -28.4610  -18.8750   19.2920 C   0  0  0  0  0  0  0  0  0  0  0  0
  -28.8480  -17.9060   18.4230 N   0  0  0  0  0  0  0  0  0  0  0  0
  -28.5570  -19.8670   21.5060 F   0  0  0  0  0  0  0  0  0  0  0  0
  -31.2640  -14.6660   19.9500 C   0  0  0  0  0  0  0  0  0  0  0  0
  -30.9450  -12.4440   18.9320 C   0  0  0  0  0  2  0  0  0  0  0  0
  -29.9290  -12.5670   17.7780 C   0  0  0  0  0  2  0  0  0  0  0  0
  -28.4780  -12.4740   18.2940 C   0  0  0  0  0  2  0  0  0  0  0  0
  -28.2160  -13.3890   19.5220 C   0  0  0  0  0  3  0  0  0  0  0  0
  -29.3260  -13.1950   20.5800 C   0  0  0  0  0  2  0  0  0  0  0  0
  -30.6270  -13.4680   19.9390 N   0  0  0  0  0  0  0  0  0  0  0  0
  -32.2650  -14.9220   19.2730 O   0  0  0  0  0  0  0  0  0  0  0  0
  -30.6820  -15.6010   20.7160 N   0  0  0  0  0  0  0  0  0  0  0  0
  -30.2400  -15.2180   21.5390 H   0  0  0  0  0  0  0  0  0  0  0  0
  -25.9200  -14.0710   20.4740 C   0  0  0  0  0  0  0  0  0  0  0  0
  -24.8420  -13.3310   20.8800 C   0  0  0  0  0  0  0  0  0  0  0  0
  -25.2150  -11.9620   20.7040 C   0  0  0  0  0  0  0  0  0  0  0  0
  -26.8870  -13.1560   20.0860 N   0  0  0  0  0  0  0  0  0  0  0  0
  -26.4680  -11.8780   20.2770 N   0  0  0  0  0  0  0  0  0  0  0  0
  -24.4340  -10.7290   20.8640 C   0  0  0  0  0  0  0  0  0  0  0  0
  -24.7820   -9.7530   21.8240 C   0  0  0  0  0  3  0  0  0  0  0  0
  -24.0050   -8.5840   21.9680 C   0  0  0  0  0  3  0  0  0  0  0  0
  -22.8670   -8.3830   21.1520 C   0  0  0  0  0  0  0  0  0  0  0  0
  -22.5390   -9.3460   20.1810 C   0  0  0  0  0  3  0  0  0  0  0  0
  -23.3160  -10.5070   20.0350 C   0  0  0  0  0  3  0  0  0  0  0  0
  -22.0680   -7.2650   21.2050 O   0  0  0  0  0  0  0  0  0  0  0  0
  -21.8090   -6.6190   22.3880 C   0  0  0  0  0  0  0  0  0  0  0  0
  -21.1890   -7.2750   23.4750 C   0  0  0  0  0  3  0  0  0  0  0  0
  -20.8790   -6.5550   24.6460 C   0  0  0  0  0  3  0  0  0  0  0  0
  -21.1790   -5.1830   24.7310 C   0  0  0  0  0  0  0  0  0  0  0  0
  -21.7910   -4.5280   23.6480 C   0  0  0  0  0  3  0  0  0  0  0  0
  -22.1020   -5.2440   22.4800 C   0  0  0  0  0  0  0  0  0  0  0  0
  -22.6740   -4.6040   21.4310 F   0  0  0  0  0  0  0  0  0  0  0  0
  -20.8740   -4.4900   25.8520 F   0  0  0  0  0  0  0  0  0  0  0  0
  -23.5040  -13.8580   21.3150 C   0  0  0  0  0  0  0  0  0  0  0  0
  -22.8340  -13.1590   22.2250 N   0  0  0  0  0  0  0  0  0  0  0  0
  -23.0650  -14.9240   20.8840 O   0  0  0  0  0  0  0  0  0  0  0  0
  -23.1990  -12.2930   22.5940 H   0  0  0  0  0  0  0  0  0  0  0  0
  -21.9410  -13.4940   22.5560 H   0  0  0  0  0  0  0  0  0  0  0  0
  -26.1530  -15.4400   20.3830 N   0  0  0  0  0  0  0  0  0  0  0  0
  -25.4310  -16.1200   20.5970 H   0  0  0  0  0  0  0  0  0  0  0  0
  -26.9740  -15.8490   19.9590 H   0  0  0  0  0  0  0  0  0  0  0  0
  1  3  1  0
  2  3  1  0
  2  6  1  0
  3  5  1  0
  4  2  2  0
  7  8  1  0
  7  6  1  0
  9 11  1  0
  9  8  1  0
 10 21  2  0
 11 16  1  0
 12 20  1  0
 12 22  1  0
 13 19  1  0
 13 15  1  0
 14 20  1  0
 15 14  1  0
 16 15  2  0
 17 18  1  0
 17 11  2  0
 18 13  2  0
 19 12  1  0
 20 10  1  0
 22 24  2  0
 23 22  1  0
 25 23  1  0
 26 35  2  0
 26 31  1  0
 27 23  1  0
 27 31  1  0
 28 27  1  0
 29 30  1  0
 29 28  1  0
 30 26  1  0
 31 32  2  0
 32 33  1  0
 34 33  2  0
 35 34  1  0
 36 10  1  0
 36 37  1  0
 36 46  1  0
 37 40  1  0
 38 42  1  0
 38 37  1  0
 39 38  2  0
 42 41  1  0
 44 42  1  0
 44 45  1  0
 44 43  1  0
 46 49  1  1
 46 47  1  0
 48 46  1  0
 50 57  1  0
 50  1  1  0
 50 51  1  6
 52 50  1  0
 54 55  1  0
 55 68  1  0
 55 53  2  0
 56 53  1  0
 56 59  1  0
 57 56  2  0
 58 54  2  0
 58 57  1  0
 60 68  1  0
 61 66  1  0
 62 63  1  0
 62 61  1  0
 64 63  1  0
 64 73  1  0
 64 65  1  0
 66 60  1  0
 66 65  1  0
 67 60  2  0
 68 69  1  0
 70 71  2  0
 71 90  1  0
 72 75  1  0
 72 71  1  0
 73 74  1  0
 73 70  1  0
 74 72  2  0
 75 76  1  0
 76 77  2  0
 78 81  1  0
 78 77  1  0
 79 78  2  0
 80 79  1  0
 80 75  2  0
 81 82  1  0
 82 87  2  0
 82 83  1  0
 83 84  2  0
 84 85  1  0
 85 89  1  0
 86 85  2  0
 87 86  1  0
 88 87  1  0
 90 91  1  0
 91 94  1  0
 91 93  1  0
 92 90  2  0
 95 70  1  0
 95 96  1  0
 97 95  1  0
M  ISO  4   8 101   9 101  60 100  68 100
M  END
>  <TORSDO>  (45) 
F 22

>  <SCORE>  (45) 
-10.562

>  <name>  (45) 
44

>  <ligand_id>  (45) 
44

>  <original_smiles>  (45) 
[H]c1nc(C(F)(F)C([H])([H])N([H])C(=O)C([H])([H])C([H])([H])C([H])([H])Oc2c([H])c([H])c3c(c2[H])C([H])([H])N(C(=O)C([H])(N([H])C(=O)C([H])(N([H])C([H])([H])[H])C([H])([H])[H])C(C([H])([H])[H])(C([H])([H])[H])C([H])([H])[H])C([H])(C(=O)N([H])C2([H])c4c([H])c([H])c([H])c([H])c4C([H])([H])C([H])([H])C2([H])[H])C3([H])[H])c(F)c([H])c1N([H])C(=O)N1C([H])([H])C([H])([H])C([H])([H])C([H])(n2nc(-c3c([H])c([H])c(Oc4c([H])c([H])c(F)c([H])c4F)c([H])c3[H])c(C(=O)N([H])[H])c2N([H])[H])C1([H])[H]

>  <smiles>  (45) 
[H]c1nc(C(F)(F)C([H])([H])N([H])C(=O)C([H])([H])C([H])([H])C([H])([H])Oc2c([H])c([H])c3c(c2[H])C([H])([H])N(C(=O)C([H])(N([H])C(=O)C([H])(N([H])C([H])([H])[H])C([H])([H])[H])C(C([H])([H])[H])(C([H])([H])[H])C([H])([H])[H])C([H])(C(=O)N([H])C2([H])c4c([H])c([H])c([H])c([H])c4C([H])([H])C([H])([H])C2([H])[H])C3([H])[H])c(F)c([H])c1N([H])C(=O)N1C([H])([H])C([H])([H])C([H])([H])C([H])(n2nc(-c3c([H])c([H])c(Oc4c([H])c([H])c(F)c([H])c4F)c([H])c3[H])c(C(=O)N([H])[H])c2N([H])[H])C1([H])[H]

$$$$
45:0:0
     RDKit          3D

 94102  0  0  1  0  0  0  0  0999 V2000
  -30.0960  -17.0480   21.1080 C   0  0  0  0  0  0  0  0  0  0  0  0
  -30.9790  -17.3550   22.1130 C   0  0  0  0  0  0  0  0  0  0  0  0
  -30.1280  -19.3690   20.9720 C   0  0  0  0  0  0  0  0  0  0  0  0
  -30.1360  -21.9160   20.7810 C   0  0  0  0  0  0  0  0  0  0  0  0
  -29.5840  -18.2210   20.4870 N   0  0  0  0  0  0  0  0  0  0  0  0
  -29.7130  -20.6570   20.4650 N   0  0  0  0  0  0  0  0  0  0  0  0
  -31.1170  -22.1400   21.4960 O   0  0  0  0  0  0  0  0  0  0  0  0
  -31.5280  -16.4360   22.9500 F   0  0  0  0  0  0  0  0  0  0  0  0
  -31.2830  -19.0680   22.2870 S   0  0  0  0  0  0  0  0  0  0  0  0
  -28.9660  -20.6140   19.7890 H   0  0  0  0  0  0  0  0  0  0  0  0
  -30.4050  -14.6970   20.2870 C   0  0  0  0  0  0  0  0  0  0  0  0
  -30.1280  -12.5610   19.0460 C   0  0  0  0  0  2  0  0  0  0  0  0
  -29.1310  -12.7940   17.8910 C   0  0  0  0  0  2  0  0  0  0  0  0
  -27.6760  -12.6030   18.3740 C   0  0  0  0  0  2  0  0  0  0  0  0
  -27.3760  -13.3560   19.6970 C   0  0  0  0  0  3  0  0  0  0  0  0
  -28.4940  -13.0990   20.7390 C   0  0  0  0  0  2  0  0  0  0  0  0
  -29.7700  -13.4970   20.1270 N   0  0  0  0  0  0  0  0  0  0  0  0
  -31.5180  -14.9100   19.7880 O   0  0  0  0  0  0  0  0  0  0  0  0
  -29.6710  -15.6970   20.8390 N   0  0  0  0  0  0  0  0  0  0  0  0
  -28.7280  -15.4620   21.1060 H   0  0  0  0  0  0  0  0  0  0  0  0
  -24.9950  -13.8710   20.5280 C   0  0  0  0  0  0  0  0  0  0  0  0
  -23.9680  -13.0630   20.9310 C   0  0  0  0  0  0  0  0  0  0  0  0
  -24.4640  -11.7250   20.8490 C   0  0  0  0  0  0  0  0  0  0  0  0
  -26.0530  -13.0280   20.2260 N   0  0  0  0  0  0  0  0  0  0  0  0
  -25.7380  -11.7300   20.4810 N   0  0  0  0  0  0  0  0  0  0  0  0
  -23.7800  -10.4410   21.0490 C   0  0  0  0  0  0  0  0  0  0  0  0
  -24.2670   -9.4830   21.9640 C   0  0  0  0  0  3  0  0  0  0  0  0
  -23.5860   -8.2600   22.1490 C   0  0  0  0  0  3  0  0  0  0  0  0
  -22.4060   -7.9870   21.4200 C   0  0  0  0  0  0  0  0  0  0  0  0
  -21.9380   -8.9340   20.4940 C   0  0  0  0  0  3  0  0  0  0  0  0
  -22.6180  -10.1500   20.3050 C   0  0  0  0  0  3  0  0  0  0  0  0
  -21.6900   -6.8180   21.5170 O   0  0  0  0  0  0  0  0  0  0  0  0
  -21.6790   -6.0760   22.6710 C   0  0  0  0  0  0  0  0  0  0  0  0
  -21.2100   -6.6090   23.8910 C   0  0  0  0  0  3  0  0  0  0  0  0
  -21.1550   -5.7930   25.0380 C   0  0  0  0  0  3  0  0  0  0  0  0
  -21.5490   -4.4430   24.9630 C   0  0  0  0  0  0  0  0  0  0  0  0
  -22.0050   -3.9080   23.7460 C   0  0  0  0  0  3  0  0  0  0  0  0
  -22.0690   -4.7240   22.6020 C   0  0  0  0  0  0  0  0  0  0  0  0
  -22.4940   -4.1980   21.4250 F   0  0  0  0  0  0  0  0  0  0  0  0
  -21.4830   -3.6570   26.0620 F   0  0  0  0  0  0  0  0  0  0  0  0
  -22.5720  -13.4960   21.2800 C   0  0  0  0  0  0  0  0  0  0  0  0
  -21.9060  -12.7680   22.1720 N   0  0  0  0  0  0  0  0  0  0  0  0
  -22.0850  -14.5190   20.7990 O   0  0  0  0  0  0  0  0  0  0  0  0
  -22.3110  -11.9400   22.5810 H   0  0  0  0  0  0  0  0  0  0  0  0
  -20.9750  -13.0480   22.4480 H   0  0  0  0  0  0  0  0  0  0  0  0
  -25.1050  -15.2510   20.3820 N   0  0  0  0  0  0  0  0  0  0  0  0
  -24.3240  -15.8660   20.5840 H   0  0  0  0  0  0  0  0  0  0  0  0
  -25.9000  -15.7420   19.9900 H   0  0  0  0  0  0  0  0  0  0  0  0
  -29.2930  -22.9750   20.1810 C   0  0  0  0  0  3  0  0  0  0  0  0
  -29.4160  -24.3360   20.3010 C   0  0  0  0  0  0  0  0  0  0  0  0
  -30.4090  -24.9760   20.9450 O   0  0  0  0  0  0  0  0  0  0  0  0
  -31.0480  -24.3320   21.2300 H   0  0  0  0  0  0  0  0  0  0  0  0
  -28.3900  -25.3440   19.7080 C   0  0  0  0  0  2  0  0  0  0  0  0
  -28.4000  -26.7170   20.2130 O   0  0  0  0  0  0  0  0  0  0  0  0
  -24.5490  -31.9690   23.2570 C   0  0  0  0  0  0  0  0  0  0  0  0
  -27.2230  -27.4780   20.1680 C   0  0  0  0  0  0  0  0  0  0  0  0
  -23.3540  -30.5660   21.6090 C   0  0  0  0  0  3  0  0  0  0  0  0
  -24.8180  -29.0240   20.1870 C   0  0  0  0  0  0  0  0  0  0  0  0
  -25.8890  -30.9060   21.4320 C   0  0  0  0  0  2  0  0  0  0  0  0
  -25.9780  -29.5320   20.7860 C   0  0  0  0  0  0  0  0  0  0  0  0
  -27.1750  -28.7650   20.7760 C   0  0  0  0  0  3  0  0  0  0  0  0
  -26.0380  -27.0120   19.5470 C   0  0  0  0  0  3  0  0  0  0  0  0
  -24.8470  -27.7660   19.5640 C   0  0  0  0  0  3  0  0  0  0  0  0
  -23.5730  -29.8830   20.2320 C   0  0  0  0  0  2  0  0  0  0  0  0
  -24.6150  -31.1640   22.1550 N   0  0  0  0  0  0  0  0  0  0  0  0
  -23.4660  -32.2420   23.7910 O   0  0  0  0  0  0  0  0  0  0  0  0
  -22.6940  -29.5500   22.5700 C   0  0  0  0  0  0  0  0  0  0  0  0
  -21.3680  -29.3700   22.4410 N   0  0  0  0  0  0  0  0  0  0  0  0
  -23.3730  -28.9260   23.3900 O   0  0  0  0  0  0  0  0  0  0  0  0
  -20.8810  -29.9220   21.7490 H   0  0  0  0  0  0  0  0  0  0  0  0
  -17.9890  -28.1810   22.9440 C   0  0  0  0  0  0  0  0  0  0  0  0
  -20.5490  -28.4300   23.2090 C   0  0  0  0  0  3  0  0  0  0  0  0
  -20.6460  -27.0020   22.6240 C   0  0  0  0  0  2  0  0  0  0  0  0
  -19.5400  -26.6890   21.6110 C   0  0  0  0  0  2  0  0  0  0  0  0
  -18.1600  -26.8350   22.2580 C   0  0  0  0  0  2  0  0  0  0  0  0
  -19.1110  -28.9370   23.3750 C   0  0  0  0  0  0  0  0  0  0  0  0
  -18.8970  -30.1970   23.9740 C   0  0  0  0  0  3  0  0  0  0  0  0
  -17.5930  -30.7020   24.1450 C   0  0  0  0  0  3  0  0  0  0  0  0
  -16.4850  -29.9410   23.7300 C   0  0  0  0  0  3  0  0  0  0  0  0
  -16.6850  -28.6820   23.1360 C   0  0  0  0  0  3  0  0  0  0  0  0
  -25.8320  -32.6030   23.8800 C   0  0  0  0  0  3  0  0  0  0  0  0
  -26.3380  -31.8420   25.1690 C   0  0  1  0  0  0  0  0  0  0  0  0
  -25.2340  -31.6110   26.2290 C   0  0  0  0  0  1  0  0  0  0  0  0
  -26.9260  -30.4620   24.7930 C   0  0  0  0  0  1  0  0  0  0  0  0
  -27.4800  -32.6450   25.8360 C   0  0  0  0  0  1  0  0  0  0  0  0
  -25.5300  -34.0050   24.1950 N   0  0  0  0  0  0  0  0  0  0  0  0
  -25.8720  -35.0490   23.4270 C   0  0  0  0  0  0  0  0  0  0  0  0
  -26.5470  -34.9310   22.4010 O   0  0  0  0  0  0  0  0  0  0  0  0
  -24.9320  -34.1710   24.9920 H   0  0  0  0  0  0  0  0  0  0  0  0
  -24.1630  -36.8520   23.0370 C   0  0  0  0  0  1  0  0  0  0  0  0
  -25.3900  -36.4440   23.8680 C   0  0  0  0  0  3  0  0  0  0  0  0
  -27.5140  -37.3280   24.7260 C   0  0  0  0  0  1  0  0  0  0  0  0
  -26.4320  -37.4900   23.7580 N   0  0  0  0  0  0  0  0  0  0  0  0
  -26.0290  -38.4150   23.8850 H   0  0  0  0  0  0  0  0  0  0  0  0
  1  2  2  0
  2  9  1  0
  2  8  1  0
  3  9  1  0
  4  7  2  0
  5  3  2  0
  5  1  1  0
  6  4  1  0
  6  3  1  0
 10  6  1  0
 11 19  1  0
 12 17  1  0
 13 14  1  0
 13 12  1  0
 15 14  1  0
 15 24  1  0
 15 16  1  0
 17 11  1  0
 17 16  1  0
 18 11  2  0
 19 20  1  0
 19  1  1  0
 21 22  2  0
 22 41  1  0
 23 22  1  0
 23 26  1  0
 24 25  1  0
 24 21  1  0
 25 23  2  0
 26 27  1  0
 27 28  2  0
 29 32  1  0
 29 28  1  0
 30 29  2  0
 31 30  1  0
 31 26  2  0
 32 33  1  0
 33 34  1  0
 34 35  2  0
 36 35  1  0
 36 40  1  0
 37 36  2  0
 38 33  2  0
 38 37  1  0
 39 38  1  0
 41 42  1  0
 42 45  1  0
 42 44  1  0
 43 41  2  0
 46 21  1  0
 46 47  1  0
 48 46  1  0
 49 50  2  0
 49  4  1  0
 50 51  1  0
 51 52  1  0
 53 54  1  0
 53 50  1  0
 55 66  2  0
 56 54  1  0
 56 61  1  0
 57 65  1  0
 57 67  1  0
 58 64  1  0
 58 60  1  0
 59 65  1  0
 60 59  1  0
 61 60  2  0
 62 63  1  0
 62 56  2  0
 63 58  2  0
 64 57  1  0
 65 55  1  0
 67 69  2  0
 68 67  1  0
 70 68  1  0
 71 80  2  0
 71 76  1  0
 72 68  1  0
 72 76  1  0
 73 72  1  0
 74 75  1  0
 74 73  1  0
 75 71  1  0
 76 77  2  0
 77 78  1  0
 79 78  2  0
 80 79  1  0
 81 55  1  0
 81 86  1  0
 81 82  1  0
 82 85  1  1
 82 83  1  0
 84 82  1  0
 86 89  1  0
 87 91  1  0
 87 86  1  0
 88 87  2  0
 91 90  1  0
 93 91  1  0
 93 94  1  0
 93 92  1  0
M  ISO  4  11 100  19 100  53 101  54 101
M  END
>  <TORSDO>  (46) 
F 19

>  <SCORE>  (46) 
-14.122

>  <name>  (46) 
45

>  <ligand_id>  (46) 
45

>  <original_smiles>  (46) 
[H]OC(=C([H])C(=O)N([H])c1nc(N([H])C(=O)N2C([H])([H])C([H])([H])C([H])([H])C([H])(n3nc(-c4c([H])c([H])c(Oc5c([H])c([H])c(F)c([H])c5F)c([H])c4[H])c(C(=O)N([H])[H])c3N([H])[H])C2([H])[H])c(F)s1)C([H])([H])Oc1c([H])c([H])c2c(c1[H])C([H])([H])N(C(=O)C([H])(N([H])C(=O)C([H])(N([H])C([H])([H])[H])C([H])([H])[H])C(C([H])([H])[H])(C([H])([H])[H])C([H])([H])[H])C([H])(C(=O)N([H])C1([H])c3c([H])c([H])c([H])c([H])c3C([H])([H])C([H])([H])C1([H])[H])C2([H])[H]

>  <smiles>  (46) 
[H]OC(=C([H])C(=O)N([H])c1nc(N([H])C(=O)N2C([H])([H])C([H])([H])C([H])([H])C([H])(n3nc(-c4c([H])c([H])c(Oc5c([H])c([H])c(F)c([H])c5F)c([H])c4[H])c(C(=O)N([H])[H])c3N([H])[H])C2([H])[H])c(F)s1)C([H])([H])Oc1c([H])c([H])c2c(c1[H])C([H])([H])N(C(=O)C([H])(N([H])C(=O)C([H])(N([H])C([H])([H])[H])C([H])([H])[H])C(C([H])([H])[H])(C([H])([H])[H])C([H])([H])[H])C([H])(C(=O)N([H])C1([H])c3c([H])c([H])c([H])c([H])c3C([H])([H])C([H])([H])C1([H])[H])C2([H])[H]

$$$$
46:0:0
     RDKit          3D

 94102  0  0  1  0  0  0  0  0999 V2000
  -30.4710  -20.1570   19.2710 C   0  0  0  0  0  0  0  0  0  0  0  0
  -30.4090  -21.5830   19.3920 C   0  0  0  0  0  0  0  0  0  0  0  0
  -29.5330  -19.5170   20.0550 C   0  0  0  0  0  0  0  0  0  0  0  0
  -29.4030  -22.0920   20.1680 C   0  0  0  0  0  0  0  0  0  0  0  0
  -31.4310  -19.4700   18.3460 C   0  0  0  0  0  1  0  0  0  0  0  0
  -31.2410  -22.3640   18.7440 F   0  0  0  0  0  0  0  0  0  0  0  0
  -28.5490  -20.7320   20.8970 S   0  0  0  0  0  0  0  0  0  0  0  0
  -28.2420  -24.1120   19.5880 C   0  0  0  0  0  0  0  0  0  0  0  0
  -29.1430  -23.4280   20.3310 N   0  0  0  0  0  0  0  0  0  0  0  0
  -27.1760  -23.5930   19.2340 O   0  0  0  0  0  0  0  0  0  0  0  0
  -29.9400  -23.9800   20.6160 H   0  0  0  0  0  0  0  0  0  0  0  0
  -29.9850  -25.6370   18.4670 C   0  0  0  0  0  1  0  0  0  0  0  0
  -28.5840  -25.5700   19.1130 C   0  0  0  0  0  3  0  0  0  0  0  0
  -28.4230  -26.6240   20.1150 O   0  0  0  0  0  0  0  0  0  0  0  0
  -24.6040  -31.8920   23.2410 C   0  0  0  0  0  0  0  0  0  0  0  0
  -27.2560  -27.3960   20.1360 C   0  0  0  0  0  0  0  0  0  0  0  0
  -23.4120  -30.4930   21.5920 C   0  0  0  0  0  3  0  0  0  0  0  0
  -24.8710  -28.9620   20.1660 C   0  0  0  0  0  0  0  0  0  0  0  0
  -25.9520  -30.8240   21.4330 C   0  0  0  0  0  2  0  0  0  0  0  0
  -26.0340  -29.4570   20.7700 C   0  0  0  0  0  0  0  0  0  0  0  0
  -27.2240  -28.6760   20.7600 C   0  0  0  0  0  3  0  0  0  0  0  0
  -26.0520  -26.9230   19.5650 C   0  0  0  0  0  3  0  0  0  0  0  0
  -24.8760  -27.6920   19.5680 C   0  0  0  0  0  3  0  0  0  0  0  0
  -23.6410  -29.8440   20.2040 C   0  0  0  0  0  2  0  0  0  0  0  0
  -24.6740  -31.0850   22.1440 N   0  0  0  0  0  0  0  0  0  0  0  0
  -23.5190  -32.1650   23.7740 O   0  0  0  0  0  0  0  0  0  0  0  0
  -22.7550  -29.4640   22.5410 C   0  0  0  0  0  0  0  0  0  0  0  0
  -21.4290  -29.2860   22.4150 N   0  0  0  0  0  0  0  0  0  0  0  0
  -23.4360  -28.8370   23.3540 O   0  0  0  0  0  0  0  0  0  0  0  0
  -20.9380  -29.8430   21.7320 H   0  0  0  0  0  0  0  0  0  0  0  0
  -18.0520  -28.0950   22.9350 C   0  0  0  0  0  0  0  0  0  0  0  0
  -20.6140  -28.3470   23.1850 C   0  0  0  0  0  3  0  0  0  0  0  0
  -20.7080  -26.9190   22.6000 C   0  0  0  0  0  2  0  0  0  0  0  0
  -19.5960  -26.6020   21.5960 C   0  0  0  0  0  2  0  0  0  0  0  0
  -18.2200  -26.7490   22.2520 C   0  0  0  0  0  2  0  0  0  0  0  0
  -19.1760  -28.8520   23.3600 C   0  0  0  0  0  0  0  0  0  0  0  0
  -18.9650  -30.1110   23.9610 C   0  0  0  0  0  3  0  0  0  0  0  0
  -17.6630  -30.6140   24.1420 C   0  0  0  0  0  3  0  0  0  0  0  0
  -16.5530  -29.8550   23.7320 C   0  0  0  0  0  3  0  0  0  0  0  0
  -16.7490  -28.5970   23.1340 C   0  0  0  0  0  3  0  0  0  0  0  0
  -25.8860  -32.5270   23.8620 C   0  0  0  0  0  3  0  0  0  0  0  0
  -26.4030  -31.7600   25.1420 C   0  0  1  0  0  0  0  0  0  0  0  0
  -25.3080  -31.5180   26.2080 C   0  0  0  0  0  1  0  0  0  0  0  0
  -26.9940  -30.3820   24.7630 C   0  0  0  0  0  1  0  0  0  0  0  0
  -27.5530  -32.5570   25.8000 C   0  0  0  0  0  1  0  0  0  0  0  0
  -25.5760  -33.9270   24.1850 N   0  0  0  0  0  0  0  0  0  0  0  0
  -25.9060  -34.9760   23.4200 C   0  0  0  0  0  0  0  0  0  0  0  0
  -26.5760  -34.8690   22.3900 O   0  0  0  0  0  0  0  0  0  0  0  0
  -24.9830  -34.0840   24.9880 H   0  0  0  0  0  0  0  0  0  0  0  0
  -24.1790  -36.7660   23.0430 C   0  0  0  0  0  1  0  0  0  0  0  0
  -25.4130  -36.3660   23.8690 C   0  0  0  0  0  3  0  0  0  0  0  0
  -27.5380  -37.2520   24.7190 C   0  0  0  0  0  1  0  0  0  0  0  0
  -26.4450  -37.4200   23.7640 N   0  0  0  0  0  0  0  0  0  0  0  0
  -26.0380  -38.3390   23.9090 H   0  0  0  0  0  0  0  0  0  0  0  0
  -29.2500  -18.0120   20.1650 C   0  0  0  0  0  2  0  0  0  0  0  0
  -30.4190  -17.0660   20.5820 C   0  0  0  0  0  2  0  0  0  0  0  0
  -30.7130  -14.5510   20.3970 C   0  0  0  0  0  0  0  0  0  0  0  0
  -30.3660  -12.3820   19.2740 C   0  0  0  0  0  2  0  0  0  0  0  0
  -29.4380  -12.6560   18.0750 C   0  0  0  0  0  2  0  0  0  0  0  0
  -27.9620  -12.5290   18.5030 C   0  0  0  0  0  2  0  0  0  0  0  0
  -27.6420  -13.3000   19.8160 C   0  0  0  0  0  3  0  0  0  0  0  0
  -28.7150  -13.0690   20.9040 C   0  0  0  0  0  2  0  0  0  0  0  0
  -30.0300  -13.3710   20.3150 N   0  0  0  0  0  0  0  0  0  0  0  0
  -31.8590  -14.6750   19.9560 O   0  0  0  0  0  0  0  0  0  0  0  0
  -30.0130  -15.6450   20.7800 N   0  0  0  0  0  0  0  0  0  0  0  0
  -29.0830  -15.4820   21.1360 H   0  0  0  0  0  0  0  0  0  0  0  0
  -25.2410  -13.8770   20.5210 C   0  0  0  0  0  0  0  0  0  0  0  0
  -24.1770  -13.0900   20.8820 C   0  0  0  0  0  0  0  0  0  0  0  0
  -24.6470  -11.7440   20.8510 C   0  0  0  0  0  0  0  0  0  0  0  0
  -26.2930  -13.0030   20.2960 N   0  0  0  0  0  0  0  0  0  0  0  0
  -25.9390  -11.7160   20.5450 N   0  0  0  0  0  0  0  0  0  0  0  0
  -23.9190  -10.4800   21.0450 C   0  0  0  0  0  0  0  0  0  0  0  0
  -24.3480   -9.5170   21.9860 C   0  0  0  0  0  3  0  0  0  0  0  0
  -23.6240   -8.3170   22.1700 C   0  0  0  0  0  3  0  0  0  0  0  0
  -22.4590   -8.0670   21.4070 C   0  0  0  0  0  0  0  0  0  0  0  0
  -22.0440   -9.0180   20.4550 C   0  0  0  0  0  3  0  0  0  0  0  0
  -22.7650  -10.2110   20.2750 C   0  0  0  0  0  3  0  0  0  0  0  0
  -21.7160   -6.9120   21.4930 O   0  0  0  0  0  0  0  0  0  0  0  0
  -21.6650   -6.1710   22.6470 C   0  0  0  0  0  0  0  0  0  0  0  0
  -21.2250   -6.7260   23.8660 C   0  0  0  0  0  3  0  0  0  0  0  0
  -21.1320   -5.9150   25.0160 C   0  0  0  0  0  3  0  0  0  0  0  0
  -21.4570   -4.5470   24.9400 C   0  0  0  0  0  0  0  0  0  0  0  0
  -21.8820   -3.9890   23.7210 C   0  0  0  0  0  3  0  0  0  0  0  0
  -21.9850   -4.8010   22.5770 C   0  0  0  0  0  0  0  0  0  0  0  0
  -22.3860   -4.2530   21.4010 F   0  0  0  0  0  0  0  0  0  0  0  0
  -21.3510   -3.7660   26.0400 F   0  0  0  0  0  0  0  0  0  0  0  0
  -22.7810  -13.5600   21.1540 C   0  0  0  0  0  0  0  0  0  0  0  0
  -22.0620  -12.8660   22.0310 N   0  0  0  0  0  0  0  0  0  0  0  0
  -22.3350  -14.5770   20.6300 O   0  0  0  0  0  0  0  0  0  0  0  0
  -22.4390  -12.0400   22.4730 H   0  0  0  0  0  0  0  0  0  0  0  0
  -21.1260  -13.1690   22.2550 H   0  0  0  0  0  0  0  0  0  0  0  0
  -25.3940  -15.2480   20.3500 N   0  0  0  0  0  0  0  0  0  0  0  0
  -24.6160  -15.8940   20.3970 H   0  0  0  0  0  0  0  0  0  0  0  0
  -26.2530  -15.6970   20.0540 H   0  0  0  0  0  0  0  0  0  0  0  0
  1  2  1  0
  1  3  2  0
  2  4  2  0
  3 55  1  0
  3  7  1  0
  4  9  1  0
  4  7  1  0
  5  1  1  0
  6  2  1  0
  8  9  1  0
  9 11  1  0
 10  8  2  0
 13 12  1  0
 13  8  1  0
 13 14  1  0
 14 16  1  0
 15 26  2  0
 16 21  1  0
 17 25  1  0
 17 27  1  0
 18 24  1  0
 18 20  1  0
 19 25  1  0
 20 19  1  0
 21 20  2  0
 22 23  1  0
 22 16  2  0
 23 18  2  0
 24 17  1  0
 25 15  1  0
 27 29  2  0
 28 27  1  0
 30 28  1  0
 31 40  2  0
 31 36  1  0
 32 28  1  0
 32 36  1  0
 33 32  1  0
 34 35  1  0
 34 33  1  0
 35 31  1  0
 36 37  2  0
 37 38  1  0
 39 38  2  0
 40 39  1  0
 41 15  1  0
 41 46  1  0
 41 42  1  0
 42 45  1  1
 42 43  1  0
 44 42  1  0
 46 49  1  0
 47 51  1  0
 47 46  1  0
 48 47  2  0
 51 50  1  0
 53 51  1  0
 53 54  1  0
 53 52  1  0
 55 56  1  0
 56 65  1  0
 57 65  1  0
 58 63  1  0
 59 60  1  0
 59 58  1  0
 61 60  1  0
 61 70  1  0
 61 62  1  0
 63 57  1  0
 63 62  1  0
 64 57  2  0
 65 66  1  0
 67 68  2  0
 68 87  1  0
 69 68  1  0
 69 72  1  0
 70 67  1  0
 70 71  1  0
 71 69  2  0
 72 73  1  0
 73 74  2  0
 75 78  1  0
 75 74  1  0
 76 75  2  0
 77 76  1  0
 77 72  2  0
 78 79  1  0
 79 80  1  0
 80 81  2  0
 82 81  1  0
 82 86  1  0
 83 82  2  0
 84 79  2  0
 84 83  1  0
 85 84  1  0
 87 88  1  0
 88 91  1  0
 88 90  1  0
 89 87  2  0
 92 93  1  0
 92 67  1  0
 94 92  1  0
M  ISO  4  13 101  14 101  57 100  65 100
M  END
>  <TORSDO>  (47) 
F 20

>  <SCORE>  (47) 
-13.917

>  <name>  (47) 
46

>  <ligand_id>  (47) 
46

>  <original_smiles>  (47) 
[H]c1c([H])c([H])c2c(c1[H])C([H])([H])C([H])([H])C([H])([H])C2([H])N([H])C(=O)C1([H])N(C(=O)C([H])(N([H])C(=O)C([H])(N([H])C([H])([H])[H])C([H])([H])[H])C(C([H])([H])[H])(C([H])([H])[H])C([H])([H])[H])C([H])([H])c2c([H])c(OC([H])(C(=O)N([H])c3sc(C([H])([H])C([H])([H])N([H])C(=O)N4C([H])([H])C([H])([H])C([H])([H])C([H])(n5nc(-c6c([H])c([H])c(Oc7c([H])c([H])c(F)c([H])c7F)c([H])c6[H])c(C(=O)N([H])[H])c5N([H])[H])C4([H])[H])c(C([H])([H])[H])c3F)C([H])([H])[H])c([H])c([H])c2C1([H])[H]

>  <smiles>  (47) 
[H]c1c([H])c([H])c2c(c1[H])C([H])([H])C([H])([H])C([H])([H])C2([H])N([H])C(=O)C1([H])N(C(=O)C([H])(N([H])C(=O)C([H])(N([H])C([H])([H])[H])C([H])([H])[H])C(C([H])([H])[H])(C([H])([H])[H])C([H])([H])[H])C([H])([H])c2c([H])c(OC([H])(C(=O)N([H])c3sc(C([H])([H])C([H])([H])N([H])C(=O)N4C([H])([H])C([H])([H])C([H])([H])C([H])(n5nc(-c6c([H])c([H])c(Oc7c([H])c([H])c(F)c([H])c7F)c([H])c6[H])c(C(=O)N([H])[H])c5N([H])[H])C4([H])[H])c(C([H])([H])[H])c3F)C([H])([H])[H])c([H])c([H])c2C1([H])[H]

$$$$
47:0:0
     RDKit          3D

 92100  0  0  1  0  0  0  0  0999 V2000
  -28.5020  -18.0310   20.3960 C   0  0  0  0  0  3  0  0  0  0  0  0
  -29.8560  -18.0980   20.6170 C   0  0  0  0  0  0  0  0  0  0  0  0
  -29.3540  -20.3490   20.4830 C   0  0  0  0  0  0  0  0  0  0  0  0
  -28.7620  -22.7700   20.6030 C   0  0  0  0  0  0  0  0  0  0  0  0
  -30.3260  -19.4320   20.6460 N   0  0  0  0  0  0  0  0  0  0  0  0
  -29.6430  -21.7490   20.4840 N   0  0  0  0  0  0  0  0  0  0  0  0
  -27.5650  -22.6240   20.8810 O   0  0  0  0  0  0  0  0  0  0  0  0
  -27.7690  -19.6090   20.2330 S   0  0  0  0  0  0  0  0  0  0  0  0
  -30.6100  -22.0200   20.3790 H   0  0  0  0  0  0  0  0  0  0  0  0
  -29.3740  -24.2030   20.3940 C   0  0  0  0  0  0  0  0  0  0  0  0
  -30.5470  -24.4800   20.6740 O   0  0  0  0  0  0  0  0  0  0  0  0
  -28.4040  -25.2430   19.7830 C   0  0  0  0  0  2  0  0  0  0  0  0
  -28.6250  -26.6360   20.1440 O   0  0  0  0  0  0  0  0  0  0  0  0
  -24.5770  -31.6790   23.2040 C   0  0  0  0  0  0  0  0  0  0  0  0
  -27.4800  -27.4220   20.0600 C   0  0  0  0  0  0  0  0  0  0  0  0
  -23.4950  -30.3270   21.4450 C   0  0  0  0  0  3  0  0  0  0  0  0
  -25.0590  -28.9120   20.0140 C   0  0  0  0  0  0  0  0  0  0  0  0
  -26.0240  -30.7480   21.3990 C   0  0  0  0  0  2  0  0  0  0  0  0
  -26.1780  -29.4160   20.6910 C   0  0  0  0  0  0  0  0  0  0  0  0
  -27.3920  -28.6800   20.7130 C   0  0  0  0  0  3  0  0  0  0  0  0
  -26.3400  -26.9690   19.3460 C   0  0  0  0  0  3  0  0  0  0  0  0
  -25.1380  -27.6900   19.3370 C   0  0  0  0  0  3  0  0  0  0  0  0
  -23.7910  -29.7360   20.0440 C   0  0  0  0  0  2  0  0  0  0  0  0
  -24.7140  -30.9320   22.0730 N   0  0  0  0  0  0  0  0  0  0  0  0
  -23.4620  -31.8960   23.7000 O   0  0  0  0  0  0  0  0  0  0  0  0
  -22.8330  -29.2360   22.3190 C   0  0  0  0  0  0  0  0  0  0  0  0
  -21.5120  -29.0530   22.1530 N   0  0  0  0  0  0  0  0  0  0  0  0
  -23.5040  -28.5640   23.1050 O   0  0  0  0  0  0  0  0  0  0  0  0
  -21.0300  -29.6530   21.4980 H   0  0  0  0  0  0  0  0  0  0  0  0
  -18.1200  -27.8830   22.5960 C   0  0  0  0  0  0  0  0  0  0  0  0
  -20.6870  -28.0630   22.8460 C   0  0  0  0  0  3  0  0  0  0  0  0
  -20.7490  -26.6910   22.1360 C   0  0  0  0  0  2  0  0  0  0  0  0
  -19.6240  -26.4860   21.1160 C   0  0  0  0  0  2  0  0  0  0  0  0
  -18.2560  -26.6000   21.7930 C   0  0  0  0  0  2  0  0  0  0  0  0
  -19.2610  -28.5770   23.0760 C   0  0  0  0  0  0  0  0  0  0  0  0
  -19.0810  -29.7840   23.7860 C   0  0  0  0  0  3  0  0  0  0  0  0
  -17.7900  -30.2960   24.0200 C   0  0  0  0  0  3  0  0  0  0  0  0
  -16.6630  -29.5950   23.5570 C   0  0  0  0  0  3  0  0  0  0  0  0
  -16.8290  -28.3910   22.8510 C   0  0  0  0  0  3  0  0  0  0  0  0
  -25.8110  -32.3190   23.9120 C   0  0  0  0  0  3  0  0  0  0  0  0
  -26.2400  -31.5530   25.2230 C   0  0  1  0  0  0  0  0  0  0  0  0
  -25.0720  -31.3030   26.2060 C   0  0  0  0  0  1  0  0  0  0  0  0
  -26.8660  -30.1810   24.8810 C   0  0  0  0  0  1  0  0  0  0  0  0
  -27.3300  -32.3610   25.9670 C   0  0  0  0  0  1  0  0  0  0  0  0
  -25.4720  -33.7150   24.2120 N   0  0  0  0  0  0  0  0  0  0  0  0
  -25.8110  -34.7620   23.4460 C   0  0  0  0  0  0  0  0  0  0  0  0
  -26.5170  -34.6550   22.4390 O   0  0  0  0  0  0  0  0  0  0  0  0
  -24.8520  -33.8720   24.9910 H   0  0  0  0  0  0  0  0  0  0  0  0
  -24.0590  -36.5150   23.0160 C   0  0  0  0  0  1  0  0  0  0  0  0
  -25.2860  -36.1490   23.8670 C   0  0  0  0  0  3  0  0  0  0  0  0
  -27.3700  -37.0990   24.7500 C   0  0  0  0  0  1  0  0  0  0  0  0
  -26.2990  -37.2230   23.7660 N   0  0  0  0  0  0  0  0  0  0  0  0
  -25.8660  -38.1350   23.8820 H   0  0  0  0  0  0  0  0  0  0  0  0
  -30.8090  -16.9340   20.8440 C   0  0  0  0  0  2  0  0  0  0  0  0
  -30.8530  -14.5400   20.0840 C   0  0  0  0  0  0  0  0  0  0  0  0
  -30.4500  -12.3890   18.9340 C   0  0  0  0  0  2  0  0  0  0  0  0
  -29.4560  -12.6240   17.7780 C   0  0  0  0  0  2  0  0  0  0  0  0
  -28.0020  -12.5000   18.2790 C   0  0  0  0  0  2  0  0  0  0  0  0
  -27.7400  -13.3130   19.5760 C   0  0  0  0  0  3  0  0  0  0  0  0
  -28.8540  -13.0850   20.6220 C   0  0  0  0  0  2  0  0  0  0  0  0
  -30.1460  -13.3790   19.9820 N   0  0  0  0  0  0  0  0  0  0  0  0
  -31.9580  -14.6820   19.5560 O   0  0  0  0  0  0  0  0  0  0  0  0
  -30.2340  -15.5800   20.6800 N   0  0  0  0  0  0  0  0  0  0  0  0
  -29.3120  -15.4180   21.0530 H   0  0  0  0  0  0  0  0  0  0  0  0
  -25.3980  -13.9250   20.4410 C   0  0  0  0  0  0  0  0  0  0  0  0
  -24.3420  -13.1590   20.8550 C   0  0  0  0  0  0  0  0  0  0  0  0
  -24.7780  -11.8020   20.7600 C   0  0  0  0  0  0  0  0  0  0  0  0
  -26.4140  -13.0370   20.1240 N   0  0  0  0  0  0  0  0  0  0  0  0
  -26.0480  -11.7520   20.3720 N   0  0  0  0  0  0  0  0  0  0  0  0
  -24.0420  -10.5460   20.9550 C   0  0  0  0  0  0  0  0  0  0  0  0
  -24.4720   -9.5740   21.8870 C   0  0  0  0  0  3  0  0  0  0  0  0
  -23.7370   -8.3840   22.0690 C   0  0  0  0  0  3  0  0  0  0  0  0
  -22.5570   -8.1540   21.3210 C   0  0  0  0  0  0  0  0  0  0  0  0
  -22.1470   -9.1140   20.3800 C   0  0  0  0  0  3  0  0  0  0  0  0
  -22.8820  -10.2970   20.1930 C   0  0  0  0  0  3  0  0  0  0  0  0
  -21.7930   -7.0160   21.4150 O   0  0  0  0  0  0  0  0  0  0  0  0
  -21.6890   -6.3130   22.5880 C   0  0  0  0  0  0  0  0  0  0  0  0
  -21.1130   -6.8780   23.7480 C   0  0  0  0  0  3  0  0  0  0  0  0
  -20.9640   -6.0980   24.9110 C   0  0  0  0  0  3  0  0  0  0  0  0
  -21.3790   -4.7520   24.9150 C   0  0  0  0  0  0  0  0  0  0  0  0
  -21.9470   -4.1860   23.7590 C   0  0  0  0  0  3  0  0  0  0  0  0
  -22.0980   -4.9640   22.5990 C   0  0  0  0  0  0  0  0  0  0  0  0
  -22.6270   -4.4080   21.4830 F   0  0  0  0  0  0  0  0  0  0  0  0
  -21.2280   -4.0000   26.0300 F   0  0  0  0  0  0  0  0  0  0  0  0
  -22.9700  -13.6490   21.2190 C   0  0  0  0  0  0  0  0  0  0  0  0
  -22.2780  -12.9400   22.1040 N   0  0  0  0  0  0  0  0  0  0  0  0
  -22.5240  -14.6980   20.7550 O   0  0  0  0  0  0  0  0  0  0  0  0
  -22.6490  -12.0920   22.5050 H   0  0  0  0  0  0  0  0  0  0  0  0
  -21.3600  -13.2520   22.3850 H   0  0  0  0  0  0  0  0  0  0  0  0
  -25.5700  -15.2960   20.2770 N   0  0  0  0  0  0  0  0  0  0  0  0
  -24.7870  -15.9320   20.3790 H   0  0  0  0  0  0  0  0  0  0  0  0
  -26.3270  -15.6870   19.7330 H   0  0  0  0  0  0  0  0  0  0  0  0
  1  2  2  0
  2  5  1  0
  2 54  1  0
  3  6  1  0
  3  5  2  0
  4  7  2  0
  6  4  1  0
  8  1  1  0
  8  3  1  0
  9  6  1  0
 10  4  1  0
 10 11  2  0
 12 13  1  0
 12 10  1  0
 14 25  2  0
 15 13  1  0
 15 20  1  0
 16 24  1  0
 16 26  1  0
 17 23  1  0
 17 19  1  0
 18 24  1  0
 19 20  2  0
 19 18  1  0
 21 15  2  0
 22 21  1  0
 22 17  2  0
 23 16  1  0
 24 14  1  0
 26 28  2  0
 27 26  1  0
 29 27  1  0
 30 39  2  0
 30 35  1  0
 31 27  1  0
 31 35  1  0
 32 31  1  0
 33 34  1  0
 33 32  1  0
 34 30  1  0
 35 36  2  0
 36 37  1  0
 38 37  2  0
 39 38  1  0
 40 14  1  0
 40 45  1  0
 40 41  1  0
 41 44  1  1
 41 42  1  0
 43 41  1  0
 45 48  1  0
 46 50  1  0
 46 45  1  0
 47 46  2  0
 50 49  1  0
 52 50  1  0
 52 53  1  0
 52 51  1  0
 55 63  1  0
 56 61  1  0
 57 58  1  0
 57 56  1  0
 59 58  1  0
 59 68  1  0
 59 60  1  0
 61 55  1  0
 61 60  1  0
 62 55  2  0
 63 54  1  0
 63 64  1  0
 65 66  2  0
 66 85  1  0
 67 66  1  0
 67 70  1  0
 68 69  1  0
 68 65  1  0
 69 67  2  0
 70 71  1  0
 71 72  2  0
 73 76  1  0
 73 72  1  0
 74 73  2  0
 75 74  1  0
 75 70  2  0
 76 77  1  0
 77 82  2  0
 77 78  1  0
 78 79  2  0
 79 80  1  0
 80 84  1  0
 81 80  2  0
 82 81  1  0
 83 82  1  0
 85 86  1  0
 86 89  1  0
 86 88  1  0
 87 85  2  0
 90 91  1  0
 90 65  1  0
 92 90  1  0
M  ISO  4  12 101  13 101  55 100  63 100
M  END
>  <TORSDO>  (48) 
F 19

>  <SCORE>  (48) 
-13.946

>  <name>  (48) 
47

>  <ligand_id>  (48) 
47

>  <original_smiles>  (48) 
[H]c1sc(N([H])C(=O)C(=O)C([H])([H])Oc2c([H])c([H])c3c(c2[H])C([H])([H])N(C(=O)C([H])(N([H])C(=O)C([H])(N([H])C([H])([H])[H])C([H])([H])[H])C(C([H])([H])[H])(C([H])([H])[H])C([H])([H])[H])C([H])(C(=O)N([H])C2([H])c4c([H])c([H])c([H])c([H])c4C([H])([H])C([H])([H])C2([H])[H])C3([H])[H])nc1C([H])([H])N([H])C(=O)N1C([H])([H])C([H])([H])C([H])([H])C([H])(n2nc(-c3c([H])c([H])c(Oc4c([H])c([H])c(F)c([H])c4F)c([H])c3[H])c(C(=O)N([H])[H])c2N([H])[H])C1([H])[H]

>  <smiles>  (48) 
[H]c1sc(N([H])C(=O)C(=O)C([H])([H])Oc2c([H])c([H])c3c(c2[H])C([H])([H])N(C(=O)C([H])(N([H])C(=O)C([H])(N([H])C([H])([H])[H])C([H])([H])[H])C(C([H])([H])[H])(C([H])([H])[H])C([H])([H])[H])C([H])(C(=O)N([H])C2([H])c4c([H])c([H])c([H])c([H])c4C([H])([H])C([H])([H])C2([H])[H])C3([H])[H])nc1C([H])([H])N([H])C(=O)N1C([H])([H])C([H])([H])C([H])([H])C([H])(n2nc(-c3c([H])c([H])c(Oc4c([H])c([H])c(F)c([H])c4F)c([H])c3[H])c(C(=O)N([H])[H])c2N([H])[H])C1([H])[H]

$$$$
48:0:0
     RDKit          3D

 95 95  0  0  1  0  0  0  0  0999 V2000
  -26.2580  -14.7210   20.5860 C   0  0  0  0  0  1  0  0  0  0  0  0
  -27.0400  -15.6270   19.6150 C   0  0  0  0  0  3  0  0  0  0  0  0
  -27.2360  -15.4170   18.0420 C   0  0  0  0  0  1  0  0  0  0  0  0
  -26.8840  -13.1810   16.5020 O   0  0  0  0  0  1  0  0  0  0  0  0
  -27.5610  -18.0000   17.6820 C   0  0  0  0  0  2  0  0  0  0  0  0
  -26.3760  -18.4010   18.1290 F   0  0  0  0  0  0  0  0  0  0  0  0
  -27.4370  -18.0750   16.3640 F   0  0  0  0  0  0  0  0  0  0  0  0
  -28.3710  -20.6860   17.5670 C   0  0  0  0  0 15  0  0  0  0  0  0
  -29.0700  -23.0380   17.9050 O   0  0  0  0  0 15  0  0  0  0  0  0
  -27.6990  -29.6720   23.5280 C   0  0  0  0  0  0  0  0  0  0  0  0
  -28.9860  -24.8680   18.5080 C   0  0  0  0  0  2  0  0  0  0  0  0
  -26.5640  -29.2660   21.4010 C   0  0  0  0  0  3  0  0  0  0  0  0
  -27.8120  -27.9360   19.4200 C   0  0  0  0  0  0  0  0  0  0  0  0
  -29.0400  -28.5460   21.4510 C   0  0  0  0  0  2  0  0  0  0  0  0
  -28.8400  -27.4320   20.2030 C   0  0  0  0  0  0  0  0  0  0  0  0
  -29.4020  -25.9850   19.7180 C   0  0  0  0  0  2  0  0  0  0  0  0
  -28.2520  -25.9290   17.8080 C   0  0  0  0  0  3  0  0  0  0  0  0
  -27.6700  -27.2340   18.2040 C   0  0  0  0  0  3  0  0  0  0  0  0
  -26.8960  -29.1340   19.8710 C   0  0  0  0  0  2  0  0  0  0  0  0
  -27.8240  -29.2110   22.2020 N   0  0  0  0  0  0  0  0  0  0  0  0
  -26.5920  -29.9620   24.0290 O   0  0  0  0  0  0  0  0  0  0  0  0
  -25.5860  -28.1500   21.8640 C   0  0  0  0  0  0  0  0  0  0  0  0
  -24.2620  -28.3170   21.6870 N   0  0  0  0  0  0  0  0  0  0  0  0
  -26.0420  -27.1270   22.3810 O   0  0  0  0  0  0  0  0  0  0  0  0
  -23.9300  -29.1760   21.2720 H   0  0  0  0  0  0  0  0  0  0  0  0
  -20.7030  -27.5620   21.6770 C   0  0  0  0  0  0  0  0  0  0  0  0
  -23.2570  -27.2770   21.9550 C   0  0  0  0  0  3  0  0  0  0  0  0
  -23.1650  -26.2930   20.7640 C   0  0  0  0  0  2  0  0  0  0  0  0
  -22.0840  -26.6820   19.7520 C   0  0  0  0  0  2  0  0  0  0  0  0
  -20.7100  -26.7070   20.4220 C   0  0  0  0  0  2  0  0  0  0  0  0
  -21.9000  -27.8470   22.3870 C   0  0  0  0  0  0  0  0  0  0  0  0
  -21.8320  -28.6700   23.5320 C   0  0  0  0  0  3  0  0  0  0  0  0
  -20.6040  -29.2040   23.9660 C   0  0  0  0  0  3  0  0  0  0  0  0
  -19.4220  -28.9110   23.2620 C   0  0  0  0  0  3  0  0  0  0  0  0
  -19.4730  -28.0890   22.1230 C   0  0  0  0  0  3  0  0  0  0  0  0
  -28.9020  -29.8710   24.5090 C   0  0  0  0  0  3  0  0  0  0  0  0
  -29.6700  -28.5260   24.8210 C   0  0  1  0  0  0  0  0  0  0  0  0
  -28.7390  -27.3250   25.1130 C   0  0  0  0  0  1  0  0  0  0  0  0
  -30.5770  -28.1070   23.6510 C   0  0  0  0  0  1  0  0  0  0  0  0
  -30.6090  -28.7230   26.0360 C   0  0  0  0  0  1  0  0  0  0  0  0
  -28.4090  -30.4370   25.7990 N   0  0  0  0  0  0  0  0  0  0  0  0
  -28.9230  -31.4780   26.4720 C   0  0  0  0  0  0  0  0  0  0  0  0
  -29.9010  -32.1050   26.0630 O   0  0  0  0  0  0  0  0  0  0  0  0
  -27.5710  -30.0100   26.1600 H   0  0  0  0  0  0  0  0  0  0  0  0
  -27.6560  -33.3090   27.6660 C   0  0  0  0  0  1  0  0  0  0  0  0
  -28.2560  -31.8990   27.8060 C   0  0  0  0  0  3  0  0  0  0  0  0
  -29.5490  -30.5310   29.3890 C   0  0  0  0  0  1  0  0  0  0  0  0
  -29.1690  -31.8780   28.9740 N   0  0  0  0  0  0  0  0  0  0  0  0
  -28.7470  -32.3450   29.7720 H   0  0  0  0  0  0  0  0  0  0  0  0
  -28.5450  -16.2890   20.5100 S   0  0  0  0  0  0  0  0  0  0  0  0
  -31.9800  -10.9430   20.3200 C   0  0  0  0  0  0  0  0  0  0  0  0
  -30.9480   -8.9060   21.4190 C   0  0  0  0  0  2  0  0  0  0  0  0
  -29.5800   -8.3690   20.8830 C   0  0  0  0  0  2  0  0  0  0  0  0
  -28.3960   -9.3090   21.1900 C   0  0  0  0  0  2  0  0  0  0  0  0
  -28.8720  -10.6950   20.6880 C   0  0  0  0  0  3  0  0  0  0  0  0
  -30.0070  -11.0780   21.6720 C   0  0  0  0  0  2  0  0  0  0  0  0
  -31.1600  -10.3570   21.2280 N   0  0  0  0  0  0  0  0  0  0  0  0
  -32.3980  -10.3410   19.3330 O   0  0  0  0  0  0  0  0  0  0  0  0
  -29.9820  -14.3080   19.1810 C   0  0  0  0  0  3  0  0  0  0  0  0
  -31.8310  -13.3550   20.1710 C   0  0  0  0  0  0  0  0  0  0  0  0
  -32.0290  -14.5630   20.9090 C   0  0  0  0  0  0  0  0  0  0  0  0
  -29.9830  -15.2970   20.1870 C   0  0  0  0  0  0  0  0  0  0  0  0
  -30.8760  -13.2960   19.1990 N   0  0  0  0  0  0  0  0  0  0  0  0
  -31.0590  -15.5110   20.9760 N   0  0  0  0  0  0  0  0  0  0  0  0
  -32.4500  -12.1700   20.6530 N   0  0  0  0  0  0  0  0  0  0  0  0
  -33.1880  -14.7850   21.5880 F   0  0  0  0  0  0  0  0  0  0  0  0
  -32.7430  -12.2780   21.6210 H   0  0  0  0  0  0  0  0  0  0  0  0
  -26.3700  -12.5150   19.0260 C   0  0  0  0  0  2  0  0  0  0  0  0
  -24.7130  -12.4810   20.1110 C   0  0  0  0  0  2  0  0  0  0  0  0
  -24.8430  -11.6570   21.8220 C   0  0  0  0  0  3  0  0  0  0  0  0
  -27.9760  -11.8120   20.5850 N   0  0  0  0  0  1  0  0  0  0  0  0
  -26.6920  -11.5580   22.2590 N   0  0  0  0  0  1  0  0  0  0  0  0
  -23.7910  -10.1780   21.9670 C   0  0  0  0  0  0  0  0  0  0  0  0
  -24.0920   -8.8250   22.4720 C   0  0  0  0  0  3  0  0  0  0  0  0
  -23.1680   -7.7270   22.8200 C   0  0  0  0  0  3  0  0  0  0  0  0
  -21.7540   -7.7930   22.6700 C   0  0  0  0  0  0  0  0  0  0  0  0
  -21.3910   -8.9720   21.9600 C   0  0  0  0  0  3  0  0  0  0  0  0
  -22.3460  -10.0370   21.6110 C   0  0  0  0  0  3  0  0  0  0  0  0
  -20.7880   -6.8220   23.0720 O   0  0  0  0  0  0  0  0  0  0  0  0
  -21.0190   -5.7110   23.9030 C   0  0  0  0  0  0  0  0  0  0  0  0
  -21.3930   -5.8630   25.2590 C   0  0  0  0  0  3  0  0  0  0  0  0
  -21.6330   -4.7430   26.0890 C   0  0  0  0  0  3  0  0  0  0  0  0
  -21.4890   -3.4350   25.5860 C   0  0  0  0  0  0  0  0  0  0  0  0
  -21.0610   -3.2590   24.2600 C   0  0  0  0  0  3  0  0  0  0  0  0
  -20.8100   -4.3760   23.4320 C   0  0  0  0  0  0  0  0  0  0  0  0
  -20.3610   -4.1460   22.1740 F   0  0  0  0  0  0  0  0  0  0  0  0
  -21.7640   -2.3620   26.3690 F   0  0  0  0  0  0  0  0  0  0  0  0
  -23.3220  -12.8370   19.9100 C   0  0  0  0  0  0  0  0  0  0  0  0
  -22.4030  -12.5330   20.8470 N   0  0  0  0  0  0  0  0  0  0  0  0
  -23.0970  -13.5090   18.9480 O   0  0  0  0  0  0  0  0  0  0  0  0
  -22.6210  -11.8850   21.5820 H   0  0  0  0  0  0  0  0  0  0  0  0
  -21.4610  -12.9020   20.8110 H   0  0  0  0  0  0  0  0  0  0  0  0
  -26.8800  -13.0360   17.9790 N   0  0  0  0  0  0  0  0  0  0  0  0
  -26.3520  -13.4340   17.2120 H   0  0  0  0  0  0  0  0  0  0  0  0
  -27.7700  -12.6550   17.6690 H   0  0  0  0  0  0  0  0  0  0  0  0
  2 50  1  0
  2  1  1  0
  3  2  1  0
  4 94  1  0
  5  6  1  0
  7  5  1  0
 10 21  2  0
 11 16  1  0
 12 22  1  0
 12 20  1  0
 13 19  1  0
 13 15  2  0
 14 20  1  0
 15 14  1  0
 16 15  1  0
 17 18  2  0
 17 11  1  0
 18 13  1  0
 19 12  1  0
 20 10  1  0
 22 24  2  0
 23 22  1  0
 25 23  1  0
 26 35  2  0
 26 31  1  0
 27 23  1  0
 27 31  1  0
 28 27  1  0
 29 30  1  0
 29 28  1  0
 30 26  1  0
 31 32  2  0
 32 33  1  0
 34 33  2  0
 35 34  1  0
 36 10  1  0
 36 37  1  0
 36 41  1  0
 37 38  1  1
 37 40  1  0
 39 37  1  0
 41 44  1  0
 41 42  1  0
 42 46  1  0
 43 42  2  0
 46 45  1  0
 46 48  1  0
 48 47  1  0
 48 49  1  0
 51 65  1  0
 51 57  1  0
 53 54  1  0
 53 52  1  0
 55 71  1  0
 55 54  1  0
 55 56  1  0
 57 52  1  0
 57 56  1  0
 58 51  2  0
 59 63  2  0
 59 62  1  0
 60 65  1  0
 60 61  2  0
 61 64  1  0
 61 66  1  0
 62 50  1  0
 62 64  2  0
 63 60  1  0
 65 67  1  0
 69 70  1  0
 70 73  1  0
 70 72  1  0
 73 74  1  0
 74 75  2  0
 76 75  1  0
 76 79  1  0
 77 76  2  0
 78 77  1  0
 78 73  2  0
 79 80  1  0
 80 81  1  0
 81 82  2  0
 83 82  1  0
 83 87  1  0
 84 83  2  0
 85 80  2  0
 85 84  1  0
 86 85  1  0
 88 69  1  0
 88 89  1  0
 89 91  1  0
 90 88  2  0
 92 89  1  0
 93 68  2  0
 95 93  1  0
M  ISO  4   8 101   9 101  51 100  65 100
M  END
>  <TORSDO>  (49) 
F 20

>  <SCORE>  (49) 
3.195

>  <name>  (49) 
48

>  <ligand_id>  (49) 
48

>  <original_smiles>  (49) 
[H]c1nc(N([H])C(=O)N2C([H])([H])C([H])([H])C([H])([H])C([H])(n3nc(-c4c([H])c([H])c(Oc5c([H])c([H])c(F)c([H])c5F)c([H])c4[H])c(C(=O)N([H])[H])c3N([H])[H])C2([H])[H])c(F)nc1SC([H])(C(=O)C(F)(F)C([H])([H])Oc1c([H])c([H])c2c(c1[H])C([H])([H])N(C(=O)C([H])(N([H])C(=O)C([H])(N([H])C([H])([H])[H])C([H])([H])[H])C(C([H])([H])[H])(C([H])([H])[H])C([H])([H])[H])C([H])(C(=O)N([H])C1([H])c3c([H])c([H])c([H])c([H])c3C([H])([H])C([H])([H])C1([H])[H])C2([H])[H])C([H])([H])[H]

>  <smiles>  (49) 
[H]c1nc(N([H])C(=O)N2C([H])([H])C([H])([H])C([H])([H])C([H])(n3nc(-c4c([H])c([H])c(Oc5c([H])c([H])c(F)c([H])c5F)c([H])c4[H])c(C(=O)N([H])[H])c3N([H])[H])C2([H])[H])c(F)nc1SC([H])(C(=O)C(F)(F)C([H])([H])Oc1c([H])c([H])c2c(c1[H])C([H])([H])N(C(=O)C([H])(N([H])C(=O)C([H])(N([H])C([H])([H])[H])C([H])([H])[H])C(C([H])([H])[H])(C([H])([H])[H])C([H])([H])[H])C([H])(C(=O)N([H])C1([H])c3c([H])c([H])c([H])c([H])c3C([H])([H])C([H])([H])C1([H])[H])C2([H])[H])C([H])([H])[H]

$$$$
49:0:0
     RDKit          3D

 95103  0  0  1  0  0  0  0  0999 V2000
  -28.9160  -21.5060   20.2260 C   0  0  0  0  0  0  0  0  0  0  0  0
  -28.8590  -20.4830   19.3490 N   0  0  0  0  0  0  0  0  0  0  0  0
  -29.3050  -21.4320   21.3990 O   0  0  0  0  0  0  0  0  0  0  0  0
  -28.5710  -20.8370   18.4440 H   0  0  0  0  0  0  0  0  0  0  0  0
  -30.7630  -14.7020   20.7310 C   0  0  0  0  0  0  0  0  0  0  0  0
  -30.5800  -12.4560   19.7620 C   0  0  0  0  0  2  0  0  0  0  0  0
  -29.7210  -12.5770   18.4850 C   0  0  0  0  0  2  0  0  0  0  0  0
  -28.2260  -12.4300   18.8230 C   0  0  0  0  0  2  0  0  0  0  0  0
  -27.7860  -13.3190   20.0200 C   0  0  0  0  0  3  0  0  0  0  0  0
  -28.7750  -13.2110   21.2020 C   0  0  0  0  0  2  0  0  0  0  0  0
  -30.1220  -13.4990   20.6950 N   0  0  0  0  0  0  0  0  0  0  0  0
  -31.9720  -14.7970   20.5100 O   0  0  0  0  0  0  0  0  0  0  0  0
  -30.7130  -16.7920   18.6370 C   0  0  0  0  0  3  0  0  0  0  0  0
  -30.7640  -17.8350   17.7090 C   0  0  0  0  0  0  0  0  0  0  0  0
  -30.1510  -19.0560   18.0180 C   0  0  0  0  0  0  0  0  0  0  0  0
  -30.0720  -16.9670   19.8880 C   0  0  0  0  0  0  0  0  0  0  0  0
  -29.5270  -19.2170   19.2700 C   0  0  0  0  0  0  0  0  0  0  0  0
  -29.4880  -18.1820   20.1820 N   0  0  0  0  0  0  0  0  0  0  0  0
  -29.9700  -15.8110   20.7550 N   0  0  0  0  0  0  0  0  0  0  0  0
  -31.3710  -17.6470   16.5100 F   0  0  0  0  0  0  0  0  0  0  0  0
  -30.1430  -20.0620   17.1080 F   0  0  0  0  0  0  0  0  0  0  0  0
  -29.0720  -15.6890   21.1970 H   0  0  0  0  0  0  0  0  0  0  0  0
  -25.3490  -13.9050   20.5870 C   0  0  0  0  0  0  0  0  0  0  0  0
  -24.2690  -13.1260   20.9050 C   0  0  0  0  0  0  0  0  0  0  0  0
  -24.7450  -11.7800   20.9250 C   0  0  0  0  0  0  0  0  0  0  0  0
  -26.4140  -13.0320   20.4290 N   0  0  0  0  0  0  0  0  0  0  0  0
  -26.0520  -11.7500   20.6920 N   0  0  0  0  0  0  0  0  0  0  0  0
  -24.0220  -10.5120   21.0930 C   0  0  0  0  0  0  0  0  0  0  0  0
  -24.4090   -9.5630   22.0630 C   0  0  0  0  0  3  0  0  0  0  0  0
  -23.6870   -8.3600   22.2180 C   0  0  0  0  0  3  0  0  0  0  0  0
  -22.5610   -8.0980   21.4020 C   0  0  0  0  0  0  0  0  0  0  0  0
  -22.1930   -9.0370   20.4210 C   0  0  0  0  0  3  0  0  0  0  0  0
  -22.9170  -10.2300   20.2650 C   0  0  0  0  0  3  0  0  0  0  0  0
  -21.8160   -6.9460   21.4620 O   0  0  0  0  0  0  0  0  0  0  0  0
  -21.7030   -6.2220   22.6220 C   0  0  0  0  0  0  0  0  0  0  0  0
  -21.1690   -6.7830   23.8020 C   0  0  0  0  0  3  0  0  0  0  0  0
  -21.0070   -5.9850   24.9510 C   0  0  0  0  0  3  0  0  0  0  0  0
  -21.3680   -4.6240   24.9210 C   0  0  0  0  0  0  0  0  0  0  0  0
  -21.8960   -4.0630   23.7450 C   0  0  0  0  0  3  0  0  0  0  0  0
  -22.0590   -4.8590   22.5990 C   0  0  0  0  0  0  0  0  0  0  0  0
  -22.5480   -4.3060   21.4620 F   0  0  0  0  0  0  0  0  0  0  0  0
  -21.2060   -3.8560   26.0230 F   0  0  0  0  0  0  0  0  0  0  0  0
  -22.8540  -13.5940   21.0870 C   0  0  0  0  0  0  0  0  0  0  0  0
  -22.0830  -12.9060   21.9210 N   0  0  0  0  0  0  0  0  0  0  0  0
  -22.4370  -14.6060   20.5230 O   0  0  0  0  0  0  0  0  0  0  0  0
  -22.4300  -12.0900   22.4020 H   0  0  0  0  0  0  0  0  0  0  0  0
  -21.1310  -13.2050   22.0840 H   0  0  0  0  0  0  0  0  0  0  0  0
  -25.5110  -15.2740   20.3970 N   0  0  0  0  0  0  0  0  0  0  0  0
  -24.7330  -15.9220   20.4470 H   0  0  0  0  0  0  0  0  0  0  0  0
  -26.3710  -15.7150   20.0980 H   0  0  0  0  0  0  0  0  0  0  0  0
  -28.3770  -22.8380   19.5600 C   0  0  0  0  0  0  0  0  0  0  0  0
  -27.9550  -22.8190   18.3950 O   0  0  0  0  0  0  0  0  0  0  0  0
  -28.3460  -24.1740   20.3610 C   0  0  0  0  0  2  0  0  0  0  0  0
  -28.5460  -25.4660   19.4930 C   0  0  0  0  0  2  0  0  0  0  0  0
  -28.4130  -26.7470   20.1720 O   0  0  0  0  0  0  0  0  0  0  0  0
  -24.5690  -31.9300   23.2660 C   0  0  0  0  0  0  0  0  0  0  0  0
  -27.2240  -27.4700   20.1540 C   0  0  0  0  0  0  0  0  0  0  0  0
  -23.3680  -30.5270   21.6240 C   0  0  0  0  0  3  0  0  0  0  0  0
  -24.8230  -28.9990   20.1870 C   0  0  0  0  0  0  0  0  0  0  0  0
  -25.8950  -30.8880   21.4210 C   0  0  0  0  0  2  0  0  0  0  0  0
  -25.9840  -29.5150   20.7730 C   0  0  0  0  0  0  0  0  0  0  0  0
  -27.1830  -28.7580   20.7530 C   0  0  0  0  0  3  0  0  0  0  0  0
  -26.0330  -26.9730   19.5750 C   0  0  0  0  0  3  0  0  0  0  0  0
  -24.8450  -27.7290   19.5850 C   0  0  0  0  0  3  0  0  0  0  0  0
  -23.5770  -29.8540   20.2410 C   0  0  0  0  0  2  0  0  0  0  0  0
  -24.6290  -31.1320   22.1610 N   0  0  0  0  0  0  0  0  0  0  0  0
  -23.4860  -32.1950   23.8080 O   0  0  0  0  0  0  0  0  0  0  0  0
  -22.7230  -29.4990   22.5830 C   0  0  0  0  0  0  0  0  0  0  0  0
  -21.4000  -29.3040   22.4530 N   0  0  0  0  0  0  0  0  0  0  0  0
  -23.4110  -28.8810   23.4000 O   0  0  0  0  0  0  0  0  0  0  0  0
  -20.9060  -29.8570   21.7670 H   0  0  0  0  0  0  0  0  0  0  0  0
  -18.0360  -28.0800   22.9490 C   0  0  0  0  0  0  0  0  0  0  0  0
  -20.5910  -28.3560   23.2190 C   0  0  0  0  0  3  0  0  0  0  0  0
  -20.7040  -26.9290   22.6360 C   0  0  0  0  0  2  0  0  0  0  0  0
  -19.6030  -26.6020   21.6210 C   0  0  0  0  0  2  0  0  0  0  0  0
  -18.2210  -26.7340   22.2670 C   0  0  0  0  0  2  0  0  0  0  0  0
  -19.1480  -28.8490   23.3820 C   0  0  0  0  0  0  0  0  0  0  0  0
  -18.9210  -30.1070   23.9780 C   0  0  0  0  0  3  0  0  0  0  0  0
  -17.6120  -30.5990   24.1460 C   0  0  0  0  0  3  0  0  0  0  0  0
  -16.5130  -29.8270   23.7300 C   0  0  0  0  0  3  0  0  0  0  0  0
  -16.7260  -28.5700   23.1380 C   0  0  0  0  0  3  0  0  0  0  0  0
  -25.8510  -32.5680   23.8850 C   0  0  0  0  0  3  0  0  0  0  0  0
  -26.3620  -31.8120   25.1720 C   0  0  1  0  0  0  0  0  0  0  0  0
  -25.2630  -31.5860   26.2380 C   0  0  0  0  0  1  0  0  0  0  0  0
  -26.9460  -30.4300   24.7970 C   0  0  0  0  0  1  0  0  0  0  0  0
  -27.5080  -32.6140   25.8310 C   0  0  0  0  0  1  0  0  0  0  0  0
  -25.5410  -33.9700   24.1960 N   0  0  0  0  0  0  0  0  0  0  0  0
  -25.8880  -35.0140   23.4290 C   0  0  0  0  0  0  0  0  0  0  0  0
  -26.5710  -34.8970   22.4080 O   0  0  0  0  0  0  0  0  0  0  0  0
  -24.9370  -34.1350   24.9870 H   0  0  0  0  0  0  0  0  0  0  0  0
  -24.1820  -36.8160   23.0180 C   0  0  0  0  0  1  0  0  0  0  0  0
  -25.3990  -36.4080   23.8640 C   0  0  0  0  0  3  0  0  0  0  0  0
  -27.5160  -37.2860   24.7480 C   0  0  0  0  0  1  0  0  0  0  0  0
  -26.4410  -37.4540   23.7730 N   0  0  0  0  0  0  0  0  0  0  0  0
  -26.0360  -38.3770   23.9040 H   0  0  0  0  0  0  0  0  0  0  0  0
  1  3  2  0
  2  1  1  0
  4  2  1  0
  5 19  1  0
  6 11  1  0
  7  8  1  0
  7  6  1  0
  9  8  1  0
  9 26  1  0
  9 10  1  0
 11  5  1  0
 11 10  1  0
 12  5  2  0
 13 16  1  0
 14 15  1  0
 14 13  2  0
 15 17  2  0
 16 18  2  0
 16 19  1  0
 17  2  1  0
 17 18  1  0
 19 22  1  0
 20 14  1  0
 21 15  1  0
 23 24  2  0
 24 25  1  0
 24 43  1  0
 25 28  1  0
 26 23  1  0
 26 27  1  0
 27 25  2  0
 28 29  1  0
 29 30  2  0
 31 34  1  0
 31 30  1  0
 32 31  2  0
 33 32  1  0
 33 28  2  0
 34 35  1  0
 35 36  1  0
 36 37  2  0
 38 37  1  0
 38 42  1  0
 39 38  2  0
 40 35  2  0
 40 39  1  0
 41 40  1  0
 43 44  1  0
 44 47  1  0
 44 46  1  0
 45 43  2  0
 48 49  1  0
 48 23  1  0
 50 48  1  0
 51  1  1  0
 51 53  1  0
 52 51  2  0
 54 55  1  0
 54 53  1  0
 56 67  2  0
 57 55  1  0
 57 62  1  0
 58 66  1  0
 58 68  1  0
 59 65  1  0
 59 61  1  0
 60 66  1  0
 61 60  1  0
 62 61  2  0
 63 64  1  0
 63 57  2  0
 64 59  2  0
 65 58  1  0
 66 56  1  0
 68 70  2  0
 69 68  1  0
 71 69  1  0
 72 81  2  0
 72 77  1  0
 73 69  1  0
 73 77  1  0
 74 73  1  0
 75 76  1  0
 75 74  1  0
 76 72  1  0
 77 78  2  0
 78 79  1  0
 80 79  2  0
 81 80  1  0
 82 56  1  0
 82 87  1  0
 82 83  1  0
 83 86  1  1
 83 84  1  0
 85 83  1  0
 87 90  1  0
 88 92  1  0
 88 87  1  0
 89 88  2  0
 92 91  1  0
 94 92  1  0
 94 95  1  0
 94 93  1  0
M  ISO  4   5 100  19 100  54 101  55 101
M  END
>  <TORSDO>  (50) 
F 19

>  <SCORE>  (50) 
-14.253

>  <name>  (50) 
49

>  <ligand_id>  (50) 
49

>  <original_smiles>  (50) 
[H]c1c([H])c([H])c2c(c1[H])C([H])([H])C([H])([H])C([H])([H])C2([H])N([H])C(=O)C1([H])N(C(=O)C([H])(N([H])C(=O)C([H])(N([H])C([H])([H])[H])C([H])([H])[H])C(C([H])([H])[H])(C([H])([H])[H])C([H])([H])[H])C([H])([H])c2c([H])c(OC([H])([H])C([H])([H])C(=O)C(=O)N([H])c3nc(N([H])C(=O)N4C([H])([H])C([H])([H])C([H])([H])C([H])(n5nc(-c6c([H])c([H])c(Oc7c([H])c([H])c(F)c([H])c7F)c([H])c6[H])c(C(=O)N([H])[H])c5N([H])[H])C4([H])[H])c([H])c(F)c3F)c([H])c([H])c2C1([H])[H]

>  <smiles>  (50) 
[H]c1c([H])c([H])c2c(c1[H])C([H])([H])C([H])([H])C([H])([H])C2([H])N([H])C(=O)C1([H])N(C(=O)C([H])(N([H])C(=O)C([H])(N([H])C([H])([H])[H])C([H])([H])[H])C(C([H])([H])[H])(C([H])([H])[H])C([H])([H])[H])C([H])([H])c2c([H])c(OC([H])([H])C([H])([H])C(=O)C(=O)N([H])c3nc(N([H])C(=O)N4C([H])([H])C([H])([H])C([H])([H])C([H])(n5nc(-c6c([H])c([H])c(Oc7c([H])c([H])c(F)c([H])c7F)c([H])c6[H])c(C(=O)N([H])[H])c5N([H])[H])C4([H])[H])c([H])c(F)c3F)c([H])c([H])c2C1([H])[H]

$$$$
50:0:0
     RDKit          3D

 95103  0  0  1  0  0  0  0  0999 V2000
  -28.9840  -22.4060   20.0160 C   0  0  0  0  0  0  0  0  0  0  0  0
  -29.4260  -21.3240   20.8120 N   0  0  0  0  0  0  0  0  0  0  0  0
  -28.6400  -22.1810   18.8530 O   0  0  0  0  0  0  0  0  0  0  0  0
  -29.5520  -21.5830   21.7800 H   0  0  0  0  0  0  0  0  0  0  0  0
  -30.3370  -19.5120   19.3450 C   0  0  0  0  0  3  0  0  0  0  0  0
  -30.5470  -18.0790   19.4140 C   0  0  0  0  0  0  0  0  0  0  0  0
  -29.7480  -19.9590   20.5030 C   0  0  0  0  0  0  0  0  0  0  0  0
  -30.1320  -17.6230   20.6590 C   0  0  0  0  0  0  0  0  0  0  0  0
  -29.6230  -18.7920   21.3320 O   0  0  0  0  0  0  0  0  0  0  0  0
  -30.8480  -15.1050   20.9720 C   0  0  0  0  0  0  0  0  0  0  0  0
  -30.8170  -12.7340   20.1090 C   0  0  0  0  0  2  0  0  0  0  0  0
  -30.0200  -12.6830   18.7840 C   0  0  0  0  0  2  0  0  0  0  0  0
  -28.5150  -12.5060   19.0570 C   0  0  0  0  0  2  0  0  0  0  0  0
  -27.9970  -13.4560   20.1680 C   0  0  0  0  0  3  0  0  0  0  0  0
  -28.9240  -13.4720   21.4030 C   0  0  0  0  0  2  0  0  0  0  0  0
  -30.2660  -13.8440   20.9350 N   0  0  0  0  0  0  0  0  0  0  0  0
  -32.0620  -15.1840   20.7500 O   0  0  0  0  0  0  0  0  0  0  0  0
  -30.0450  -16.2630   21.1230 N   0  0  0  0  0  0  0  0  0  0  0  0
  -29.1550  -16.0460   21.5440 H   0  0  0  0  0  0  0  0  0  0  0  0
  -25.5490  -14.0550   20.6240 C   0  0  0  0  0  0  0  0  0  0  0  0
  -24.4520  -13.2880   20.9090 C   0  0  0  0  0  0  0  0  0  0  0  0
  -24.9180  -11.9390   20.9770 C   0  0  0  0  0  0  0  0  0  0  0  0
  -26.6120  -13.1730   20.5280 N   0  0  0  0  0  0  0  0  0  0  0  0
  -26.2360  -11.8980   20.8090 N   0  0  0  0  0  0  0  0  0  0  0  0
  -24.1760  -10.6810   21.1350 C   0  0  0  0  0  0  0  0  0  0  0  0
  -24.5280   -9.7340   22.1220 C   0  0  0  0  0  3  0  0  0  0  0  0
  -23.7870   -8.5410   22.2660 C   0  0  0  0  0  3  0  0  0  0  0  0
  -22.6780   -8.2880   21.4230 C   0  0  0  0  0  0  0  0  0  0  0  0
  -22.3470   -9.2240   20.4270 C   0  0  0  0  0  3  0  0  0  0  0  0
  -23.0890  -10.4080   20.2810 C   0  0  0  0  0  3  0  0  0  0  0  0
  -21.9150   -7.1460   21.4740 O   0  0  0  0  0  0  0  0  0  0  0  0
  -21.7860   -6.4190   22.6300 C   0  0  0  0  0  0  0  0  0  0  0  0
  -21.2510   -6.9820   23.8100 C   0  0  0  0  0  3  0  0  0  0  0  0
  -21.0700   -6.1800   24.9540 C   0  0  0  0  0  3  0  0  0  0  0  0
  -21.4130   -4.8160   24.9190 C   0  0  0  0  0  0  0  0  0  0  0  0
  -21.9420   -4.2510   23.7440 C   0  0  0  0  0  3  0  0  0  0  0  0
  -22.1240   -5.0510   22.6020 C   0  0  0  0  0  0  0  0  0  0  0  0
  -22.6130   -4.4980   21.4660 F   0  0  0  0  0  0  0  0  0  0  0  0
  -21.2340   -4.0410   26.0160 F   0  0  0  0  0  0  0  0  0  0  0  0
  -23.0340  -13.7680   21.0100 C   0  0  0  0  0  0  0  0  0  0  0  0
  -22.2180  -13.1070   21.8240 N   0  0  0  0  0  0  0  0  0  0  0  0
  -22.6530  -14.7660   20.4010 O   0  0  0  0  0  0  0  0  0  0  0  0
  -22.5370  -12.3000   22.3400 H   0  0  0  0  0  0  0  0  0  0  0  0
  -21.2620  -13.4140   21.9350 H   0  0  0  0  0  0  0  0  0  0  0  0
  -25.7280  -15.4190   20.4130 N   0  0  0  0  0  0  0  0  0  0  0  0
  -24.9470  -16.0660   20.4050 H   0  0  0  0  0  0  0  0  0  0  0  0
  -26.6010  -15.8500   20.1330 H   0  0  0  0  0  0  0  0  0  0  0  0
  -31.0290  -17.2250   18.3040 C   0  0  0  0  0  0  0  0  0  0  0  0
  -32.1100  -17.8090   17.4080 C   0  0  0  0  0  1  0  0  0  0  0  0
  -30.5770  -16.1000   18.0770 O   0  0  0  0  0  0  0  0  0  0  0  0
  -28.5000  -24.9880   19.8660 C   0  0  0  0  0  3  0  0  0  0  0  0
  -28.9240  -23.8440   20.5780 C   0  0  0  0  0  0  0  0  0  0  0  0
  -29.3400  -24.0180   21.8390 O   0  0  0  0  0  0  0  0  0  0  0  0
  -29.2630  -24.9460   22.0250 H   0  0  0  0  0  0  0  0  0  0  0  0
  -28.5150  -26.3970   20.2390 O   0  0  0  0  0  0  0  0  0  0  0  0
  -24.6070  -31.8840   23.1250 C   0  0  0  0  0  0  0  0  0  0  0  0
  -27.4120  -27.3060   20.1160 C   0  0  0  0  0  0  0  0  0  0  0  0
  -23.4890  -30.4610   21.4500 C   0  0  0  0  0  3  0  0  0  0  0  0
  -25.0180  -28.9470   20.0450 C   0  0  0  0  0  0  0  0  0  0  0  0
  -26.0310  -30.8190   21.3400 C   0  0  0  0  0  2  0  0  0  0  0  0
  -26.1640  -29.4360   20.6860 C   0  0  0  0  0  0  0  0  0  0  0  0
  -27.3570  -28.6260   20.7110 C   0  0  0  0  0  3  0  0  0  0  0  0
  -26.2380  -26.9090   19.4370 C   0  0  0  0  0  3  0  0  0  0  0  0
  -25.0670  -27.6970   19.4080 C   0  0  0  0  0  3  0  0  0  0  0  0
  -23.7610  -29.8000   20.0720 C   0  0  0  0  0  2  0  0  0  0  0  0
  -24.7270  -31.0760   22.0290 N   0  0  0  0  0  0  0  0  0  0  0  0
  -23.5010  -32.1290   23.6310 O   0  0  0  0  0  0  0  0  0  0  0  0
  -22.8230  -29.4260   22.3910 C   0  0  0  0  0  0  0  0  0  0  0  0
  -21.4920  -29.2650   22.2790 N   0  0  0  0  0  0  0  0  0  0  0  0
  -23.5050  -28.7730   23.1840 O   0  0  0  0  0  0  0  0  0  0  0  0
  -20.9990  -29.8470   21.6170 H   0  0  0  0  0  0  0  0  0  0  0  0
  -18.1060  -28.1030   22.8340 C   0  0  0  0  0  0  0  0  0  0  0  0
  -20.6770  -28.3090   23.0330 C   0  0  0  0  0  3  0  0  0  0  0  0
  -20.7330  -26.9010   22.3940 C   0  0  0  0  0  2  0  0  0  0  0  0
  -19.5950  -26.6430   21.4010 C   0  0  0  0  0  2  0  0  0  0  0  0
  -18.2380  -26.7830   22.0930 C   0  0  0  0  0  2  0  0  0  0  0  0
  -19.2510  -28.8270   23.2620 C   0  0  0  0  0  0  0  0  0  0  0  0
  -19.0730  -30.0630   23.9190 C   0  0  0  0  0  3  0  0  0  0  0  0
  -17.7830  -30.5780   24.1480 C   0  0  0  0  0  3  0  0  0  0  0  0
  -16.6530  -29.8520   23.7330 C   0  0  0  0  0  3  0  0  0  0  0  0
  -16.8160  -28.6150   23.0830 C   0  0  0  0  0  3  0  0  0  0  0  0
  -25.8510  -32.5540   23.7860 C   0  0  0  0  0  3  0  0  0  0  0  0
  -26.3840  -31.7660   25.0450 C   0  0  1  0  0  0  0  0  0  0  0  0
  -25.2900  -31.4590   26.0950 C   0  0  0  0  0  1  0  0  0  0  0  0
  -27.0190  -30.4210   24.6230 C   0  0  0  0  0  1  0  0  0  0  0  0
  -27.5000  -32.5810   25.7410 C   0  0  0  0  0  1  0  0  0  0  0  0
  -25.4770  -33.9260   24.1590 N   0  0  0  0  0  0  0  0  0  0  0  0
  -25.8660  -35.0300   23.5060 C   0  0  0  0  0  0  0  0  0  0  0  0
  -26.6450  -34.9990   22.5490 O   0  0  0  0  0  0  0  0  0  0  0  0
  -24.7970  -34.0230   24.8990 H   0  0  0  0  0  0  0  0  0  0  0  0
  -24.1910  -36.8480   23.0380 C   0  0  0  0  0  1  0  0  0  0  0  0
  -25.3050  -36.3820   23.9880 C   0  0  0  0  0  3  0  0  0  0  0  0
  -27.2930  -37.2000   25.1780 C   0  0  0  0  0  1  0  0  0  0  0  0
  -26.3320  -37.4400   24.1030 N   0  0  0  0  0  0  0  0  0  0  0  0
  -25.9010  -38.3460   24.2630 H   0  0  0  0  0  0  0  0  0  0  0  0
  1 52  1  0
  1  2  1  0
  2  4  1  0
  3  1  2  0
  5  6  1  0
  5  7  2  0
  6  8  2  0
  7  2  1  0
  7  9  1  0
  8 18  1  0
  8  9  1  0
 10 18  1  0
 11 16  1  0
 12 13  1  0
 12 11  1  0
 14 13  1  0
 14 23  1  0
 14 15  1  0
 16 10  1  0
 16 15  1  0
 17 10  2  0
 18 19  1  0
 20 21  2  0
 21 22  1  0
 21 40  1  0
 22 25  1  0
 23 20  1  0
 23 24  1  0
 24 22  2  0
 25 26  1  0
 26 27  2  0
 28 31  1  0
 28 27  1  0
 29 28  2  0
 30 29  1  0
 30 25  2  0
 31 32  1  0
 32 33  1  0
 33 34  2  0
 35 34  1  0
 35 39  1  0
 36 35  2  0
 37 32  2  0
 37 36  1  0
 38 37  1  0
 40 41  1  0
 41 44  1  0
 41 43  1  0
 42 40  2  0
 45 20  1  0
 46 45  1  0
 47 45  1  0
 48  6  1  0
 49 48  1  0
 50 48  2  0
 51 55  1  0
 51 52  2  0
 52 53  1  0
 53 54  1  0
 56 67  2  0
 57 55  1  0
 57 62  1  0
 58 66  1  0
 58 68  1  0
 59 65  1  0
 59 61  1  0
 60 66  1  0
 61 62  2  0
 61 60  1  0
 63 57  2  0
 64 63  1  0
 64 59  2  0
 65 58  1  0
 66 56  1  0
 68 70  2  0
 69 68  1  0
 71 69  1  0
 72 81  2  0
 72 77  1  0
 73 69  1  0
 73 77  1  0
 74 73  1  0
 75 76  1  0
 75 74  1  0
 76 72  1  0
 77 78  2  0
 78 79  1  0
 80 79  2  0
 81 80  1  0
 82 56  1  0
 82 87  1  0
 82 83  1  0
 83 86  1  1
 83 84  1  0
 85 83  1  0
 87 90  1  0
 88 92  1  0
 88 87  1  0
 89 88  2  0
 92 91  1  0
 92 94  1  0
 94 95  1  0
 94 93  1  0
M  ISO  4  10 100  18 100  51 101  55 101
M  END
>  <TORSDO>  (51) 
F 20

>  <SCORE>  (51) 
-13.475

>  <name>  (51) 
50

>  <ligand_id>  (51) 
50

>  <original_smiles>  (51) 
[H]OC(C(=O)N([H])c1oc(N([H])C(=O)N2C([H])([H])C([H])([H])C([H])([H])C([H])(n3nc(-c4c([H])c([H])c(Oc5c([H])c([H])c(F)c([H])c5F)c([H])c4[H])c(C(=O)N([H])[H])c3N([H])[H])C2([H])[H])c(C(=O)C([H])([H])[H])c1[H])=C([H])Oc1c([H])c([H])c2c(c1[H])C([H])([H])N(C(=O)C([H])(N([H])C(=O)C([H])(N([H])C([H])([H])[H])C([H])([H])[H])C(C([H])([H])[H])(C([H])([H])[H])C([H])([H])[H])C([H])(C(=O)N([H])C1([H])c3c([H])c([H])c([H])c([H])c3C([H])([H])C([H])([H])C1([H])[H])C2([H])[H]

>  <smiles>  (51) 
[H]OC(C(=O)N([H])c1oc(N([H])C(=O)N2C([H])([H])C([H])([H])C([H])([H])C([H])(n3nc(-c4c([H])c([H])c(Oc5c([H])c([H])c(F)c([H])c5F)c([H])c4[H])c(C(=O)N([H])[H])c3N([H])[H])C2([H])[H])c(C(=O)C([H])([H])[H])c1[H])=C([H])Oc1c([H])c([H])c2c(c1[H])C([H])([H])N(C(=O)C([H])(N([H])C(=O)C([H])(N([H])C([H])([H])[H])C([H])([H])[H])C(C([H])([H])[H])(C([H])([H])[H])C([H])([H])[H])C([H])(C(=O)N([H])C1([H])c3c([H])c([H])c([H])c([H])c3C([H])([H])C([H])([H])C1([H])[H])C2([H])[H]

$$$$
51:0:0
     RDKit          3D

 93101  0  0  1  0  0  0  0  0999 V2000
  -29.9410  -19.9700   20.6390 C   0  0  0  0  0  0  0  0  0  0  0  0
  -29.2600  -21.1840   20.4910 N   0  0  0  0  0  0  0  0  0  0  0  0
  -31.0970  -19.9610   21.0660 O   0  0  0  0  0  0  0  0  0  0  0  0
  -28.2820  -21.0830   20.2610 H   0  0  0  0  0  0  0  0  0  0  0  0
  -28.2180  -18.8430   19.1920 C   0  0  0  0  0  3  0  0  0  0  0  0
  -29.2730  -18.6250   20.1480 C   0  0  0  0  0  0  0  0  0  0  0  0
  -29.5230  -17.2020   20.3320 C   0  0  0  0  0  0  0  0  0  0  0  0
  -27.7290  -17.7020   18.6450 C   0  0  0  0  0  0  0  0  0  0  0  0
  -26.7480  -17.6540   17.7140 F   0  0  0  0  0  0  0  0  0  0  0  0
  -28.5210  -16.2910   19.2050 S   0  0  0  0  0  0  0  0  0  0  0  0
  -30.9210  -15.1250   20.9930 C   0  0  0  0  0  0  0  0  0  0  0  0
  -30.7150  -12.7870   20.0890 C   0  0  0  0  0  2  0  0  0  0  0  0
  -29.9440  -12.7070   18.7530 C   0  0  0  0  0  2  0  0  0  0  0  0
  -28.4140  -12.8460   18.9270 C   0  0  0  0  0  2  0  0  0  0  0  0
  -27.9890  -12.9990   20.3970 C   0  0  0  0  0  3  0  0  0  0  0  0
  -28.8690  -13.7260   21.4150 C   0  0  0  0  0  2  0  0  0  0  0  0
  -30.1970  -13.9610   20.8510 N   0  0  0  0  0  0  0  0  0  0  0  0
  -32.1400  -15.0670   20.8460 O   0  0  0  0  0  0  0  0  0  0  0  0
  -30.3630  -16.4080   21.1410 N   0  0  0  0  0  0  0  0  0  0  0  0
  -31.0320  -16.9940   21.6180 H   0  0  0  0  0  0  0  0  0  0  0  0
  -25.5240  -13.9370   20.7220 C   0  0  0  0  0  0  0  0  0  0  0  0
  -24.3900  -13.2040   20.9890 C   0  0  0  0  0  0  0  0  0  0  0  0
  -24.8050  -11.8460   21.0240 C   0  0  0  0  0  0  0  0  0  0  0  0
  -26.5550  -12.9940   20.6460 N   0  0  0  0  0  0  0  0  0  0  0  0
  -26.0920  -11.7500   20.8360 N   0  0  0  0  0  0  0  0  0  0  0  0
  -24.0800  -10.5920   21.1670 C   0  0  0  0  0  0  0  0  0  0  0  0
  -24.4540   -9.6440   22.1450 C   0  0  0  0  0  3  0  0  0  0  0  0
  -23.7470   -8.4330   22.2630 C   0  0  0  0  0  3  0  0  0  0  0  0
  -22.6590   -8.1660   21.4010 C   0  0  0  0  0  0  0  0  0  0  0  0
  -22.3150   -9.1000   20.4110 C   0  0  0  0  0  3  0  0  0  0  0  0
  -23.0220  -10.3060   20.2890 C   0  0  0  0  0  3  0  0  0  0  0  0
  -21.9280   -7.0080   21.4280 O   0  0  0  0  0  0  0  0  0  0  0  0
  -21.7690   -6.2920   22.5860 C   0  0  0  0  0  0  0  0  0  0  0  0
  -21.1640   -6.8540   23.7300 C   0  0  0  0  0  3  0  0  0  0  0  0
  -20.9500   -6.0590   24.8740 C   0  0  0  0  0  3  0  0  0  0  0  0
  -21.3370   -4.7040   24.8730 C   0  0  0  0  0  0  0  0  0  0  0  0
  -21.9360   -4.1430   23.7330 C   0  0  0  0  0  3  0  0  0  0  0  0
  -22.1500   -4.9360   22.5900 C   0  0  0  0  0  0  0  0  0  0  0  0
  -22.7110   -4.3890   21.4850 F   0  0  0  0  0  0  0  0  0  0  0  0
  -21.1230   -3.9370   25.9690 F   0  0  0  0  0  0  0  0  0  0  0  0
  -22.9820  -13.6990   21.1280 C   0  0  0  0  0  0  0  0  0  0  0  0
  -22.1780  -13.0150   21.9410 N   0  0  0  0  0  0  0  0  0  0  0  0
  -22.5940  -14.7140   20.5560 O   0  0  0  0  0  0  0  0  0  0  0  0
  -22.4970  -12.1930   22.4320 H   0  0  0  0  0  0  0  0  0  0  0  0
  -21.2310  -13.3320   22.0850 H   0  0  0  0  0  0  0  0  0  0  0  0
  -25.7440  -15.2990   20.5480 N   0  0  0  0  0  0  0  0  0  0  0  0
  -24.9910  -15.9770   20.5290 H   0  0  0  0  0  0  0  0  0  0  0  0
  -26.6470  -15.6880   20.3090 H   0  0  0  0  0  0  0  0  0  0  0  0
  -29.7940  -22.6140   20.2840 C   0  0  0  0  0  2  0  0  0  0  0  0
  -28.9950  -23.9090   20.8270 C   0  0  0  0  0  0  0  0  0  0  0  0
  -28.7010  -23.9490   22.0280 O   0  0  0  0  0  0  0  0  0  0  0  0
  -28.5600  -25.1410   19.8790 C   0  0  0  0  0  2  0  0  0  0  0  0
  -28.5380  -26.5630   20.4180 O   0  0  0  0  0  0  0  0  0  0  0  0
  -24.6540  -32.0010   23.2950 C   0  0  0  0  0  0  0  0  0  0  0  0
  -27.4190  -27.4320   20.3000 C   0  0  0  0  0  0  0  0  0  0  0  0
  -23.5190  -30.5760   21.6320 C   0  0  0  0  0  3  0  0  0  0  0  0
  -25.0310  -29.0540   20.2350 C   0  0  0  0  0  0  0  0  0  0  0  0
  -26.0600  -30.9260   21.5140 C   0  0  0  0  0  2  0  0  0  0  0  0
  -26.1780  -29.5430   20.8690 C   0  0  0  0  0  0  0  0  0  0  0  0
  -27.3680  -28.7410   20.8990 C   0  0  0  0  0  3  0  0  0  0  0  0
  -26.2460  -27.0250   19.6200 C   0  0  0  0  0  3  0  0  0  0  0  0
  -25.0720  -27.8040   19.6010 C   0  0  0  0  0  3  0  0  0  0  0  0
  -23.7800  -29.9110   20.2560 C   0  0  0  0  0  2  0  0  0  0  0  0
  -24.7610  -31.1900   22.2020 N   0  0  0  0  0  0  0  0  0  0  0  0
  -23.5530  -32.2550   23.8040 O   0  0  0  0  0  0  0  0  0  0  0  0
  -22.8500  -29.5480   22.5780 C   0  0  0  0  0  0  0  0  0  0  0  0
  -21.5350  -29.3300   22.4040 N   0  0  0  0  0  0  0  0  0  0  0  0
  -23.5180  -28.9510   23.4260 O   0  0  0  0  0  0  0  0  0  0  0  0
  -21.0560  -29.8690   21.6970 H   0  0  0  0  0  0  0  0  0  0  0  0
  -18.1790  -28.0260   22.7940 C   0  0  0  0  0  0  0  0  0  0  0  0
  -20.7180  -28.3720   23.1520 C   0  0  0  0  0  3  0  0  0  0  0  0
  -20.8860  -26.9400   22.5930 C   0  0  0  0  0  2  0  0  0  0  0  0
  -19.8310  -26.5740   21.5430 C   0  0  0  0  0  2  0  0  0  0  0  0
  -18.4240  -26.6780   22.1370 C   0  0  0  0  0  2  0  0  0  0  0  0
  -19.2570  -28.8270   23.2570 C   0  0  0  0  0  0  0  0  0  0  0  0
  -18.9740  -30.0860   23.8300 C   0  0  0  0  0  3  0  0  0  0  0  0
  -17.6480  -30.5440   23.9460 C   0  0  0  0  0  3  0  0  0  0  0  0
  -16.5860  -29.7390   23.5010 C   0  0  0  0  0  3  0  0  0  0  0  0
  -16.8510  -28.4820   22.9290 C   0  0  0  0  0  3  0  0  0  0  0  0
  -25.9070  -32.6590   23.9500 C   0  0  0  0  0  3  0  0  0  0  0  0
  -26.3740  -31.9300   25.2700 C   0  0  1  0  0  0  0  0  0  0  0  0
  -25.2370  -31.7090   26.2960 C   0  0  0  0  0  1  0  0  0  0  0  0
  -26.9900  -30.5490   24.9450 C   0  0  0  0  0  1  0  0  0  0  0  0
  -27.4890  -32.7540   25.9580 C   0  0  0  0  0  1  0  0  0  0  0  0
  -25.5750  -34.0650   24.2310 N   0  0  0  0  0  0  0  0  0  0  0  0
  -25.9320  -35.1000   23.4600 C   0  0  0  0  0  0  0  0  0  0  0  0
  -26.6420  -34.9740   22.4590 O   0  0  0  0  0  0  0  0  0  0  0  0
  -24.9500  -34.2370   25.0050 H   0  0  0  0  0  0  0  0  0  0  0  0
  -24.2190  -36.8810   22.9850 C   0  0  0  0  0  1  0  0  0  0  0  0
  -25.4210  -36.4980   23.8630 C   0  0  0  0  0  3  0  0  0  0  0  0
  -27.5090  -37.4130   24.7770 C   0  0  0  0  0  1  0  0  0  0  0  0
  -26.4550  -37.5510   23.7740 N   0  0  0  0  0  0  0  0  0  0  0  0
  -26.0430  -38.4750   23.8710 H   0  0  0  0  0  0  0  0  0  0  0  0
  1  3  2  0
  2  1  1  0
  4  2  1  0
  5  6  1  0
  6  7  2  0
  6  1  1  0
  7 19  1  0
  8  5  2  0
  8 10  1  0
  9  8  1  0
 10  7  1  0
 11 19  1  0
 12 17  1  0
 13 14  1  0
 13 12  1  0
 15 14  1  0
 15 24  1  0
 15 16  1  0
 17 11  1  0
 17 16  1  0
 18 11  2  0
 19 20  1  0
 21 22  2  0
 22 23  1  0
 22 41  1  0
 23 26  1  0
 24 21  1  0
 24 25  1  0
 25 23  2  0
 26 27  1  0
 27 28  2  0
 29 32  1  0
 29 28  1  0
 30 29  2  0
 31 30  1  0
 31 26  2  0
 32 33  1  0
 33 38  2  0
 33 34  1  0
 34 35  2  0
 36 35  1  0
 36 40  1  0
 37 36  2  0
 38 37  1  0
 39 38  1  0
 41 42  1  0
 42 45  1  0
 42 44  1  0
 43 41  2  0
 46 21  1  0
 47 46  1  0
 48 46  1  0
 49  2  1  0
 49 50  1  0
 50 51  2  0
 52 53  1  0
 52 50  1  0
 54 65  2  0
 55 53  1  0
 55 60  1  0
 56 64  1  0
 56 66  1  0
 57 63  1  0
 57 59  1  0
 58 64  1  0
 59 60  2  0
 59 58  1  0
 61 55  2  0
 62 61  1  0
 62 57  2  0
 63 56  1  0
 64 54  1  0
 66 68  2  0
 67 66  1  0
 69 67  1  0
 70 79  2  0
 70 75  1  0
 71 67  1  0
 71 75  1  0
 72 71  1  0
 73 74  1  0
 73 72  1  0
 74 70  1  0
 75 76  2  0
 76 77  1  0
 78 77  2  0
 79 78  1  0
 80 54  1  0
 80 85  1  0
 80 81  1  0
 81 84  1  1
 81 82  1  0
 83 81  1  0
 85 88  1  0
 86 90  1  0
 86 85  1  0
 87 86  2  0
 90 89  1  0
 92 90  1  0
 92 93  1  0
 92 91  1  0
M  ISO  4  11 100  19 100  52 101  53 101
M  END
>  <TORSDO>  (52) 
F 20

>  <SCORE>  (52) 
-13.019

>  <name>  (52) 
51

>  <ligand_id>  (52) 
51

>  <original_smiles>  (52) 
[H]c1c([H])c([H])c2c(c1[H])C([H])([H])C([H])([H])C([H])([H])C2([H])N([H])C(=O)C1([H])N(C(=O)C([H])(N([H])C(=O)C([H])(N([H])C([H])([H])[H])C([H])([H])[H])C(C([H])([H])[H])(C([H])([H])[H])C([H])([H])[H])C([H])([H])c2c([H])c(OC([H])([H])C(=O)C([H])([H])N([H])C(=O)c3c(N([H])C(=O)N4C([H])([H])C([H])([H])C([H])([H])C([H])(n5nc(-c6c([H])c([H])c(Oc7c([H])c([H])c(F)c([H])c7F)c([H])c6[H])c(C(=O)N([H])[H])c5N([H])[H])C4([H])[H])sc(F)c3[H])c([H])c([H])c2C1([H])[H]

>  <smiles>  (52) 
[H]c1c([H])c([H])c2c(c1[H])C([H])([H])C([H])([H])C([H])([H])C2([H])N([H])C(=O)C1([H])N(C(=O)C([H])(N([H])C(=O)C([H])(N([H])C([H])([H])[H])C([H])([H])[H])C(C([H])([H])[H])(C([H])([H])[H])C([H])([H])[H])C([H])([H])c2c([H])c(OC([H])([H])C(=O)C([H])([H])N([H])C(=O)c3c(N([H])C(=O)N4C([H])([H])C([H])([H])C([H])([H])C([H])(n5nc(-c6c([H])c([H])c(Oc7c([H])c([H])c(F)c([H])c7F)c([H])c6[H])c(C(=O)N([H])[H])c5N([H])[H])C4([H])[H])sc(F)c3[H])c([H])c([H])c2C1([H])[H]

$$$$
52:0:0
     RDKit          3D

102110  0  0  1  0  0  0  0  0999 V2000
  -29.6140  -20.5290   21.2450 C   0  0  0  0  0  0  0  0  0  0  0  0
  -29.8620  -21.5870   20.4320 N   0  0  0  0  0  0  0  0  0  0  0  0
  -28.8910  -20.6710   22.2330 O   0  0  0  0  0  0  0  0  0  0  0  0
  -30.4010  -21.4590   19.5880 H   0  0  0  0  0  0  0  0  0  0  0  0
  -31.7250  -17.5350   20.7210 C   0  0  0  0  0  3  0  0  0  0  0  0
  -30.4840  -16.9380   20.8000 C   0  0  0  0  0  0  0  0  0  0  0  0
  -30.2050  -19.1490   20.9420 C   0  0  0  0  0  3  0  0  0  0  0  0
  -29.5470  -17.9590   20.9130 N   0  0  0  0  0  0  0  0  0  0  0  0
  -31.5140  -18.8950   20.8120 N   0  0  0  0  0  0  0  0  0  0  0  0
  -32.2460  -19.5930   20.8380 H   0  0  0  0  0  0  0  0  0  0  0  0
  -30.8570  -14.5110   20.1360 C   0  0  0  0  0  0  0  0  0  0  0  0
  -30.4500  -12.4510   18.8280 C   0  0  0  0  0  2  0  0  0  0  0  0
  -29.4290  -12.7700   17.7150 C   0  0  0  0  0  2  0  0  0  0  0  0
  -27.9860  -12.6090   18.2350 C   0  0  0  0  0  2  0  0  0  0  0  0
  -27.7540  -13.3300   19.5900 C   0  0  0  0  0  3  0  0  0  0  0  0
  -28.8820  -13.0010   20.5950 C   0  0  0  0  0  2  0  0  0  0  0  0
  -30.1660  -13.3460   19.9630 N   0  0  0  0  0  0  0  0  0  0  0  0
  -31.9710  -14.6880   19.6360 O   0  0  0  0  0  0  0  0  0  0  0  0
  -30.1810  -15.5170   20.7510 N   0  0  0  0  0  0  0  0  0  0  0  0
  -29.3000  -15.2350   21.1510 H   0  0  0  0  0  0  0  0  0  0  0  0
  -25.3980  -13.9020   20.4450 C   0  0  0  0  0  0  0  0  0  0  0  0
  -24.3560  -13.1240   20.8650 C   0  0  0  0  0  0  0  0  0  0  0  0
  -24.8160  -11.7750   20.7730 C   0  0  0  0  0  0  0  0  0  0  0  0
  -26.4320  -13.0340   20.1380 N   0  0  0  0  0  0  0  0  0  0  0  0
  -26.0880  -11.7450   20.3910 N   0  0  0  0  0  0  0  0  0  0  0  0
  -24.1000  -10.5100   20.9680 C   0  0  0  0  0  0  0  0  0  0  0  0
  -24.5530   -9.5430   21.8920 C   0  0  0  0  0  3  0  0  0  0  0  0
  -23.8370   -8.3410   22.0760 C   0  0  0  0  0  3  0  0  0  0  0  0
  -22.6540   -8.0980   21.3370 C   0  0  0  0  0  0  0  0  0  0  0  0
  -22.2220   -9.0560   20.4030 C   0  0  0  0  0  3  0  0  0  0  0  0
  -22.9380  -10.2490   20.2160 C   0  0  0  0  0  3  0  0  0  0  0  0
  -21.9080   -6.9490   21.4310 O   0  0  0  0  0  0  0  0  0  0  0  0
  -21.8160   -6.2460   22.6050 C   0  0  0  0  0  0  0  0  0  0  0  0
  -21.3610   -6.8460   23.7990 C   0  0  0  0  0  3  0  0  0  0  0  0
  -21.2150   -6.0700   24.9660 C   0  0  0  0  0  3  0  0  0  0  0  0
  -21.5140   -4.6950   24.9400 C   0  0  0  0  0  0  0  0  0  0  0  0
  -21.9620   -4.0940   23.7500 C   0  0  0  0  0  3  0  0  0  0  0  0
  -22.1100   -4.8670   22.5860 C   0  0  0  0  0  0  0  0  0  0  0  0
  -22.5210   -4.2790   21.4370 F   0  0  0  0  0  0  0  0  0  0  0  0
  -21.3660   -3.9470   26.0590 F   0  0  0  0  0  0  0  0  0  0  0  0
  -22.9780  -13.5960   21.2290 C   0  0  0  0  0  0  0  0  0  0  0  0
  -22.3120  -12.8960   22.1400 N   0  0  0  0  0  0  0  0  0  0  0  0
  -22.5050  -14.6210   20.7410 O   0  0  0  0  0  0  0  0  0  0  0  0
  -22.7070  -12.0670   22.5560 H   0  0  0  0  0  0  0  0  0  0  0  0
  -21.3890  -13.1950   22.4250 H   0  0  0  0  0  0  0  0  0  0  0  0
  -25.5360  -15.2710   20.2750 N   0  0  0  0  0  0  0  0  0  0  0  0
  -24.7440  -15.8890   20.3960 H   0  0  0  0  0  0  0  0  0  0  0  0
  -26.3280  -15.7340   19.8460 H   0  0  0  0  0  0  0  0  0  0  0  0
  -28.0790  -17.8140   20.9780 C   0  0  0  0  0  2  0  0  0  0  0  0
  -25.9080  -17.5720   19.6520 C   0  0  0  0  0  1  0  0  0  0  0  0
  -27.4100  -17.8840   19.5880 C   0  0  1  0  0  0  0  0  0  0  0  0
  -27.5290  -19.0950   19.0460 F   0  0  0  0  0  0  0  0  0  0  0  0
  -28.0150  -17.0150   18.7780 F   0  0  0  0  0  0  0  0  0  0  0  0
  -29.4270  -22.9880   20.7420 C   0  0  0  0  0  3  0  0  0  0  0  0
  -30.5620  -23.7710   21.4500 C   0  0  2  0  0  0  0  0  0  0  0  0
  -31.0020  -23.1290   22.5310 F   0  0  0  0  0  0  0  0  0  0  0  0
  -30.1450  -24.9770   21.8350 F   0  0  0  0  0  0  0  0  0  0  0  0
  -31.5870  -23.9370   20.6140 F   0  0  0  0  0  0  0  0  0  0  0  0
  -28.8180  -23.7870   19.5410 C   0  0  0  0  0  0  0  0  0  0  0  0
  -29.0920  -23.5220   18.3650 O   0  0  0  0  0  0  0  0  0  0  0  0
  -27.8080  -24.9250   19.8750 C   0  0  0  0  0  2  0  0  0  0  0  0
  -27.8750  -26.0780   18.9930 O   0  0  0  0  0  0  0  0  0  0  0  0
  -24.6480  -31.2410   22.7540 C   0  0  0  0  0  0  0  0  0  0  0  0
  -26.7960  -26.9340   19.1220 C   0  0  0  0  0  0  0  0  0  0  0  0
  -23.2580  -30.0870   21.0650 C   0  0  0  0  0  3  0  0  0  0  0  0
  -24.5210  -28.6040   19.4140 C   0  0  0  0  0  0  0  0  0  0  0  0
  -25.7890  -30.2970   20.7460 C   0  0  0  0  0  2  0  0  0  0  0  0
  -25.7460  -28.9890   19.9750 C   0  0  0  0  0  0  0  0  0  0  0  0
  -26.8880  -28.1640   19.8230 C   0  0  0  0  0  3  0  0  0  0  0  0
  -25.5570  -26.5790   18.5470 C   0  0  0  0  0  3  0  0  0  0  0  0
  -24.4230  -27.4010   18.6930 C   0  0  0  0  0  3  0  0  0  0  0  0
  -23.3440  -29.5330   19.6180 C   0  0  0  0  0  2  0  0  0  0  0  0
  -24.5870  -30.5500   21.5790 N   0  0  0  0  0  0  0  0  0  0  0  0
  -23.6210  -31.5270   23.3840 O   0  0  0  0  0  0  0  0  0  0  0  0
  -22.5910  -29.0210   21.9660 C   0  0  0  0  0  0  0  0  0  0  0  0
  -21.2490  -28.9580   21.9320 N   0  0  0  0  0  0  0  0  0  0  0  0
  -23.2750  -28.2580   22.6530 O   0  0  0  0  0  0  0  0  0  0  0  0
  -20.7590  -29.6230   21.3500 H   0  0  0  0  0  0  0  0  0  0  0  0
  -17.8290  -28.0070   22.6100 C   0  0  0  0  0  0  0  0  0  0  0  0
  -20.4140  -28.0080   22.6670 C   0  0  0  0  0  3  0  0  0  0  0  0
  -20.3280  -26.6540   21.9270 C   0  0  0  0  0  2  0  0  0  0  0  0
  -19.1190  -26.5540   20.9890 C   0  0  0  0  0  2  0  0  0  0  0  0
  -17.8160  -26.7390   21.7720 C   0  0  0  0  0  2  0  0  0  0  0  0
  -19.0490  -28.6110   23.0160 C   0  0  0  0  0  0  0  0  0  0  0  0
  -19.0040  -29.8090   23.7640 C   0  0  0  0  0  3  0  0  0  0  0  0
  -17.7730  -30.3980   24.1070 C   0  0  0  0  0  3  0  0  0  0  0  0
  -16.5690  -29.7860   23.7170 C   0  0  0  0  0  3  0  0  0  0  0  0
  -16.5990  -28.5920   22.9750 C   0  0  0  0  0  3  0  0  0  0  0  0
  -26.0080  -31.7260   23.3460 C   0  0  0  0  0  3  0  0  0  0  0  0
  -26.5980  -30.7460   24.4340 C   0  0  1  0  0  0  0  0  0  0  0  0
  -25.5940  -30.3850   25.5540 C   0  0  0  0  0  1  0  0  0  0  0  0
  -27.0710  -29.4270   23.7810 C   0  0  0  0  0  1  0  0  0  0  0  0
  -27.8410  -31.3840   25.0970 C   0  0  0  0  0  1  0  0  0  0  0  0
  -25.7930  -33.0630   23.9150 N   0  0  0  0  0  0  0  0  0  0  0  0
  -26.1490  -34.2090   23.3190 C   0  0  0  0  0  0  0  0  0  0  0  0
  -26.7660  -34.2470   22.2510 O   0  0  0  0  0  0  0  0  0  0  0  0
  -25.2480  -33.1110   24.7630 H   0  0  0  0  0  0  0  0  0  0  0  0
  -24.5130  -36.1190   23.3400 C   0  0  0  0  0  1  0  0  0  0  0  0
  -25.7560  -35.5250   24.0200 C   0  0  0  0  0  3  0  0  0  0  0  0
  -27.9650  -36.1510   24.8910 C   0  0  0  0  0  1  0  0  0  0  0  0
  -26.8420  -36.5290   24.0370 N   0  0  0  0  0  0  0  0  0  0  0  0
  -26.4930  -37.4310   24.3540 H   0  0  0  0  0  0  0  0  0  0  0  0
  1  3  2  0
  2 54  1  0
  2  1  1  0
  4  2  1  0
  5  6  2  0
  5  9  1  0
  6  8  1  0
  7  1  1  0
  8  7  1  0
  8 49  1  0
  9 10  1  0
  9  7  1  0
 11 19  1  0
 12 17  1  0
 13 14  1  0
 13 12  1  0
 15 14  1  0
 15 24  1  0
 15 16  1  0
 17 11  1  0
 17 16  1  0
 18 11  2  0
 19  6  1  0
 19 20  1  0
 21 22  2  0
 22 41  1  0
 23 22  1  0
 23 26  1  0
 24 25  1  0
 24 21  1  0
 25 23  2  0
 26 27  1  0
 27 28  2  0
 29 32  1  0
 29 28  1  0
 30 29  2  0
 31 30  1  0
 31 26  2  0
 32 33  1  0
 33 34  1  0
 34 35  2  0
 36 35  1  0
 36 40  1  0
 37 36  2  0
 38 33  2  0
 38 37  1  0
 39 38  1  0
 41 42  1  0
 42 45  1  0
 42 44  1  0
 43 41  2  0
 46 47  1  0
 46 21  1  0
 48 46  1  0
 51 50  1  1
 51 49  1  0
 52 51  1  0
 53 51  1  0
 54 59  1  0
 54 55  1  0
 55 57  1  1
 55 56  1  0
 58 55  1  0
 59 61  1  0
 60 59  2  0
 62 64  1  0
 62 61  1  0
 63 74  2  0
 64 69  1  0
 65 73  1  0
 65 75  1  0
 66 72  1  0
 66 68  1  0
 67 73  1  0
 68 67  1  0
 69 68  2  0
 70 71  1  0
 70 64  2  0
 71 66  2  0
 72 65  1  0
 73 63  1  0
 75 77  2  0
 76 75  1  0
 78 76  1  0
 79 88  2  0
 79 84  1  0
 80 76  1  0
 80 84  1  0
 81 80  1  0
 82 83  1  0
 82 81  1  0
 83 79  1  0
 84 85  2  0
 85 86  1  0
 87 86  2  0
 88 87  1  0
 89 63  1  0
 89 94  1  0
 89 90  1  0
 90 93  1  1
 90 91  1  0
 92 90  1  0
 94 97  1  0
 95 94  1  0
 95 99  1  0
 96 95  2  0
 99 98  1  0
 99101  1  0
101102  1  0
101100  1  0
M  ISO  4  11 100  19 100  61 101  62 101
M  END
>  <TORSDO>  (53) 
F 23

>  <SCORE>  (53) 
-11.026

>  <name>  (53) 
52

>  <ligand_id>  (53) 
52

>  <original_smiles>  (53) 
[H]c1c([H])c([H])c2c(c1[H])C([H])([H])C([H])([H])C([H])([H])C2([H])N([H])C(=O)C1([H])N(C(=O)C([H])(N([H])C(=O)C([H])(N([H])C([H])([H])[H])C([H])([H])[H])C(C([H])([H])[H])(C([H])([H])[H])C([H])([H])[H])C([H])([H])c2c([H])c(OC([H])([H])C(=O)C([H])(N([H])C(=O)c3n(C([H])([H])C(F)(F)C([H])([H])[H])c(N([H])C(=O)N4C([H])([H])C([H])([H])C([H])([H])C([H])(n5nc(-c6c([H])c([H])c(Oc7c([H])c([H])c(F)c([H])c7F)c([H])c6[H])c(C(=O)N([H])[H])c5N([H])[H])C4([H])[H])c([H])[n+]3[H])C(F)(F)F)c([H])c([H])c2C1([H])[H]

>  <smiles>  (53) 
[H]c1c([H])c([H])c2c(c1[H])C([H])([H])C([H])([H])C([H])([H])C2([H])N([H])C(=O)C1([H])N(C(=O)C([H])(N([H])C(=O)C([H])(N([H])C([H])([H])[H])C([H])([H])[H])C(C([H])([H])[H])(C([H])([H])[H])C([H])([H])[H])C([H])([H])c2c([H])c(OC([H])([H])C(=O)C([H])(N([H])C(=O)c3n(C([H])([H])C(F)(F)C([H])([H])[H])c(N([H])C(=O)N4C([H])([H])C([H])([H])C([H])([H])C([H])(n5nc(-c6c([H])c([H])c(Oc7c([H])c([H])c(F)c([H])c7F)c([H])c6[H])c(C(=O)N([H])[H])c5N([H])[H])C4([H])[H])c([H])[n+]3[H])C(F)(F)F)c([H])c([H])c2C1([H])[H]

$$$$
53:0:0
     RDKit          3D

 95103  0  0  1  0  0  0  0  0999 V2000
  -30.2200  -19.7970   20.1230 C   0  0  0  0  0  0  0  0  0  0  0  0
  -31.3650  -19.8970   19.3580 C   0  0  0  0  0  0  0  0  0  0  0  0
  -30.0650  -22.0010   19.4100 C   0  0  0  0  0  0  0  0  0  0  0  0
  -28.7460  -24.1950   19.7660 C   0  0  0  0  0  0  0  0  0  0  0  0
  -32.4430  -18.8820   19.1440 C   0  0  0  0  0  1  0  0  0  0  0  0
  -29.4990  -21.0310   20.1660 N   0  0  0  0  0  0  0  0  0  0  0  0
  -29.6680  -23.3660   19.2210 N   0  0  0  0  0  0  0  0  0  0  0  0
  -27.9010  -23.8520   20.5970 O   0  0  0  0  0  0  0  0  0  0  0  0
  -31.5140  -21.4520   18.5870 S   0  0  0  0  0  0  0  0  0  0  0  0
  -30.2570  -23.8480   18.5580 H   0  0  0  0  0  0  0  0  0  0  0  0
  -28.3700  -25.8580   17.7970 C   0  0  0  0  0  1  0  0  0  0  0  0
  -28.8380  -25.6750   19.2560 C   0  0  0  0  0  3  0  0  0  0  0  0
  -28.4340  -26.6980   20.2140 O   0  0  0  0  0  0  0  0  0  0  0  0
  -24.5770  -31.9070   23.2150 C   0  0  0  0  0  0  0  0  0  0  0  0
  -27.2410  -27.4100   20.1670 C   0  0  0  0  0  0  0  0  0  0  0  0
  -23.3820  -30.4930   21.5770 C   0  0  0  0  0  3  0  0  0  0  0  0
  -24.8410  -28.9390   20.1680 C   0  0  0  0  0  0  0  0  0  0  0  0
  -25.9110  -30.8400   21.3910 C   0  0  0  0  0  2  0  0  0  0  0  0
  -25.9990  -29.4620   20.7560 C   0  0  0  0  0  0  0  0  0  0  0  0
  -27.1950  -28.7050   20.7510 C   0  0  0  0  0  3  0  0  0  0  0  0
  -26.0500  -26.8960   19.6110 C   0  0  0  0  0  3  0  0  0  0  0  0
  -24.8630  -27.6560   19.5950 C   0  0  0  0  0  3  0  0  0  0  0  0
  -23.5980  -29.8030   20.2040 C   0  0  0  0  0  2  0  0  0  0  0  0
  -24.6420  -31.0960   22.1190 N   0  0  0  0  0  0  0  0  0  0  0  0
  -23.4920  -32.1820   23.7470 O   0  0  0  0  0  0  0  0  0  0  0  0
  -22.7240  -29.4800   22.5430 C   0  0  0  0  0  0  0  0  0  0  0  0
  -21.3990  -29.2990   22.4140 N   0  0  0  0  0  0  0  0  0  0  0  0
  -23.4030  -28.8590   23.3660 O   0  0  0  0  0  0  0  0  0  0  0  0
  -20.9130  -29.8510   21.7190 H   0  0  0  0  0  0  0  0  0  0  0  0
  -18.0190  -28.1200   22.9160 C   0  0  0  0  0  0  0  0  0  0  0  0
  -20.5780  -28.3680   23.1870 C   0  0  0  0  0  3  0  0  0  0  0  0
  -20.6750  -26.9350   22.6130 C   0  0  0  0  0  2  0  0  0  0  0  0
  -19.5710  -26.6150   21.6000 C   0  0  0  0  0  2  0  0  0  0  0  0
  -18.1910  -26.7680   22.2430 C   0  0  0  0  0  2  0  0  0  0  0  0
  -19.1420  -28.8770   23.3450 C   0  0  0  0  0  0  0  0  0  0  0  0
  -18.9300  -30.1420   23.9350 C   0  0  0  0  0  3  0  0  0  0  0  0
  -17.6280  -30.6510   24.0990 C   0  0  0  0  0  3  0  0  0  0  0  0
  -16.5200  -29.8910   23.6880 C   0  0  0  0  0  3  0  0  0  0  0  0
  -16.7160  -28.6270   23.1030 C   0  0  0  0  0  3  0  0  0  0  0  0
  -25.8600  -32.5440   23.8380 C   0  0  0  0  0  3  0  0  0  0  0  0
  -26.3750  -31.7800   25.1180 C   0  0  1  0  0  0  0  0  0  0  0  0
  -25.2800  -31.5450   26.1850 C   0  0  0  0  0  1  0  0  0  0  0  0
  -26.9630  -30.4030   24.7310 C   0  0  0  0  0  1  0  0  0  0  0  0
  -27.5210  -32.5820   25.7820 C   0  0  0  0  0  1  0  0  0  0  0  0
  -25.5480  -33.9420   24.1600 N   0  0  0  0  0  0  0  0  0  0  0  0
  -25.8890  -34.9940   23.4030 C   0  0  0  0  0  0  0  0  0  0  0  0
  -26.5720  -34.8890   22.3800 O   0  0  0  0  0  0  0  0  0  0  0  0
  -24.9470  -34.0990   24.9560 H   0  0  0  0  0  0  0  0  0  0  0  0
  -24.1720  -36.7910   23.0140 C   0  0  0  0  0  1  0  0  0  0  0  0
  -25.3940  -36.3830   23.8520 C   0  0  0  0  0  3  0  0  0  0  0  0
  -27.5110  -37.2620   24.7330 C   0  0  0  0  0  1  0  0  0  0  0  0
  -26.4310  -37.4330   23.7660 N   0  0  0  0  0  0  0  0  0  0  0  0
  -26.0230  -38.3540   23.9060 H   0  0  0  0  0  0  0  0  0  0  0  0
  -29.8370  -18.5790   20.9770 C   0  0  0  0  0  2  0  0  0  0  0  0
  -29.9430  -17.0310   18.6990 O   0  0  0  0  0  0  0  0  0  0  0  0
  -27.8390  -16.9670   20.0930 O   0  0  0  0  0  0  0  0  0  0  0  0
  -29.3090  -17.0350   20.0290 S   0  0  2  0  0  0  0  0  0  0  0  0
  -30.5850  -14.5660   20.3170 C   0  0  0  0  0  0  0  0  0  0  0  0
  -30.2970  -12.4070   19.1540 C   0  0  0  0  0  2  0  0  0  0  0  0
  -29.3240  -12.6460   17.9770 C   0  0  0  0  0  2  0  0  0  0  0  0
  -27.8610  -12.4890   18.4370 C   0  0  0  0  0  2  0  0  0  0  0  0
  -27.5540  -13.2930   19.7280 C   0  0  0  0  0  3  0  0  0  0  0  0
  -28.6370  -13.0480   20.8040 C   0  0  0  0  0  2  0  0  0  0  0  0
  -29.9480  -13.3650   20.2180 N   0  0  0  0  0  0  0  0  0  0  0  0
  -31.7020  -14.7600   19.8240 O   0  0  0  0  0  0  0  0  0  0  0  0
  -29.8870  -15.6340   20.9140 N   0  0  0  0  0  0  0  0  0  0  0  0
  -29.1330  -15.3630   21.5410 H   0  0  0  0  0  0  0  0  0  0  0  0
  -25.1720  -13.8840   20.5030 C   0  0  0  0  0  0  0  0  0  0  0  0
  -24.1150  -13.1030   20.8850 C   0  0  0  0  0  0  0  0  0  0  0  0
  -24.5810  -11.7530   20.8320 C   0  0  0  0  0  0  0  0  0  0  0  0
  -26.2140  -13.0090   20.2360 N   0  0  0  0  0  0  0  0  0  0  0  0
  -25.8640  -11.7220   20.4930 N   0  0  0  0  0  0  0  0  0  0  0  0
  -23.8630  -10.4870   21.0280 C   0  0  0  0  0  0  0  0  0  0  0  0
  -24.3150   -9.5180   21.9510 C   0  0  0  0  0  3  0  0  0  0  0  0
  -23.5990   -8.3150   22.1350 C   0  0  0  0  0  3  0  0  0  0  0  0
  -22.4170   -8.0740   21.3950 C   0  0  0  0  0  0  0  0  0  0  0  0
  -21.9850   -9.0320   20.4610 C   0  0  0  0  0  3  0  0  0  0  0  0
  -22.7020  -10.2250   20.2760 C   0  0  0  0  0  3  0  0  0  0  0  0
  -21.6700   -6.9250   21.4890 O   0  0  0  0  0  0  0  0  0  0  0  0
  -21.6380   -6.1780   22.6410 C   0  0  0  0  0  0  0  0  0  0  0  0
  -21.2130   -6.7260   23.8710 C   0  0  0  0  0  3  0  0  0  0  0  0
  -21.1290   -5.9060   25.0140 C   0  0  0  0  0  3  0  0  0  0  0  0
  -21.4600   -4.5400   24.9280 C   0  0  0  0  0  0  0  0  0  0  0  0
  -21.8770   -3.9920   23.7020 C   0  0  0  0  0  3  0  0  0  0  0  0
  -21.9630   -4.8090   22.5610 C   0  0  0  0  0  0  0  0  0  0  0  0
  -22.3460   -4.2720   21.3770 F   0  0  0  0  0  0  0  0  0  0  0  0
  -21.3710   -3.7510   26.0230 F   0  0  0  0  0  0  0  0  0  0  0  0
  -22.7220  -13.5720   21.1950 C   0  0  0  0  0  0  0  0  0  0  0  0
  -22.0150  -12.8620   22.0670 N   0  0  0  0  0  0  0  0  0  0  0  0
  -22.2690  -14.6030   20.6990 O   0  0  0  0  0  0  0  0  0  0  0  0
  -22.3930  -12.0260   22.4880 H   0  0  0  0  0  0  0  0  0  0  0  0
  -21.0830  -13.1570   22.3180 H   0  0  0  0  0  0  0  0  0  0  0  0
  -25.3270  -15.2580   20.3450 N   0  0  0  0  0  0  0  0  0  0  0  0
  -24.5640  -15.9040   20.5190 H   0  0  0  0  0  0  0  0  0  0  0  0
  -26.1860  -15.7330   20.0750 H   0  0  0  0  0  0  0  0  0  0  0  0
  1  6  1  0
  1 54  1  0
  2  1  2  0
  3  6  2  0
  4  8  2  0
  5  2  1  0
  7  3  1  0
  7  4  1  0
  9  2  1  0
  9  3  1  0
 10  7  1  0
 12 11  1  0
 12  4  1  0
 12 13  1  0
 14 25  2  0
 15 13  1  0
 15 20  1  0
 16 24  1  0
 16 26  1  0
 17 23  1  0
 17 19  1  0
 18 24  1  0
 19 18  1  0
 20 19  2  0
 21 15  2  0
 22 21  1  0
 22 17  2  0
 23 16  1  0
 24 14  1  0
 26 28  2  0
 27 26  1  0
 29 27  1  0
 30 39  2  0
 30 35  1  0
 31 27  1  0
 31 35  1  0
 32 31  1  0
 33 34  1  0
 33 32  1  0
 34 30  1  0
 35 36  2  0
 36 37  1  0
 38 37  2  0
 39 38  1  0
 40 14  1  0
 40 45  1  0
 40 41  1  0
 41 44  1  1
 41 42  1  0
 43 41  1  0
 45 48  1  0
 46 50  1  0
 46 45  1  0
 47 46  2  0
 50 49  1  0
 52 50  1  0
 52 53  1  0
 52 51  1  0
 55 57  2  0
 57 56  2  0
 57 66  1  0
 57 54  1  1
 58 66  1  0
 59 64  1  0
 60 61  1  0
 60 59  1  0
 62 61  1  0
 62 71  1  0
 62 63  1  0
 64 58  1  0
 64 63  1  0
 65 58  2  0
 66 67  1  0
 68 69  2  0
 69 88  1  0
 70 69  1  0
 70 73  1  0
 71 72  1  0
 71 68  1  0
 72 70  2  0
 73 74  1  0
 74 75  2  0
 76 79  1  0
 76 75  1  0
 77 76  2  0
 78 77  1  0
 78 73  2  0
 79 80  1  0
 80 81  1  0
 81 82  2  0
 83 82  1  0
 83 87  1  0
 84 83  2  0
 85 80  2  0
 85 84  1  0
 86 85  1  0
 88 89  1  0
 89 92  1  0
 89 91  1  0
 90 88  2  0
 93 68  1  0
 93 94  1  0
 95 93  1  0
M  ISO  4  12 101  13 101  58 100  66 100
M  END
>  <TORSDO>  (54) 
F 19

>  <SCORE>  (54) 
-14.432

>  <name>  (54) 
53

>  <ligand_id>  (54) 
53

>  <original_smiles>  (54) 
[H]c1c([H])c([H])c2c(c1[H])C([H])([H])C([H])([H])C([H])([H])C2([H])N([H])C(=O)C1([H])N(C(=O)C([H])(N([H])C(=O)C([H])(N([H])C([H])([H])[H])C([H])([H])[H])C(C([H])([H])[H])(C([H])([H])[H])C([H])([H])[H])C([H])([H])c2c([H])c(OC([H])(C(=O)N([H])c3nc(C([H])([H])S(=O)(=O)N([H])C(=O)N4C([H])([H])C([H])([H])C([H])([H])C([H])(n5nc(-c6c([H])c([H])c(Oc7c([H])c([H])c(F)c([H])c7F)c([H])c6[H])c(C(=O)N([H])[H])c5N([H])[H])C4([H])[H])c(C([H])([H])[H])s3)C([H])([H])[H])c([H])c([H])c2C1([H])[H]

>  <smiles>  (54) 
[H]c1c([H])c([H])c2c(c1[H])C([H])([H])C([H])([H])C([H])([H])C2([H])N([H])C(=O)C1([H])N(C(=O)C([H])(N([H])C(=O)C([H])(N([H])C([H])([H])[H])C([H])([H])[H])C(C([H])([H])[H])(C([H])([H])[H])C([H])([H])[H])C([H])([H])c2c([H])c(OC([H])(C(=O)N([H])c3nc(C([H])([H])S(=O)(=O)N([H])C(=O)N4C([H])([H])C([H])([H])C([H])([H])C([H])(n5nc(-c6c([H])c([H])c(Oc7c([H])c([H])c(F)c([H])c7F)c([H])c6[H])c(C(=O)N([H])[H])c5N([H])[H])C4([H])[H])c(C([H])([H])[H])s3)C([H])([H])[H])c([H])c([H])c2C1([H])[H]

$$$$
54:0:0
     RDKit          3D

 94102  0  0  1  0  0  0  0  0999 V2000
  -28.4930  -20.5970   18.6150 C   0  0  0  0  0  1  0  0  0  0  0  0
  -30.5080  -21.9610   19.1810 C   0  0  0  0  0  1  0  0  0  0  0  0
  -29.1470  -21.4630   19.7120 C   0  0  2  0  0  0  0  0  0  0  0  0
  -29.3540  -20.6130   20.9110 N   0  0  0  0  0  0  0  0  0  0  0  0
  -29.7120  -21.1960   21.6620 H   0  0  0  0  0  0  0  0  0  0  0  0
  -30.6450  -14.5990   20.2180 C   0  0  0  0  0  0  0  0  0  0  0  0
  -30.3360  -12.4100   19.0960 C   0  0  0  0  0  2  0  0  0  0  0  0
  -29.3570  -12.5880   17.9160 C   0  0  0  0  0  2  0  0  0  0  0  0
  -27.8990  -12.4370   18.3910 C   0  0  0  0  0  2  0  0  0  0  0  0
  -27.5910  -13.2760   19.6600 C   0  0  0  0  0  3  0  0  0  0  0  0
  -28.6850  -13.0900   20.7370 C   0  0  0  0  0  2  0  0  0  0  0  0
  -29.9770  -13.4100   20.1160 N   0  0  0  0  0  0  0  0  0  0  0  0
  -31.8040  -14.7190   19.8110 O   0  0  0  0  0  0  0  0  0  0  0  0
  -31.3820  -19.2250   21.2540 C   0  0  0  0  0  0  0  0  0  0  0  0
  -30.0560  -19.3630   20.9070 C   0  0  0  0  0  0  0  0  0  0  0  0
  -30.3080  -17.0550   20.7180 C   0  0  0  0  0  0  0  0  0  0  0  0
  -32.3440  -20.2960   21.6590 C   0  0  0  0  0  1  0  0  0  0  0  0
  -29.4590  -18.1070   20.6120 N   0  0  0  0  0  0  0  0  0  0  0  0
  -29.8900  -15.6830   20.5480 N   0  0  0  0  0  0  0  0  0  0  0  0
  -31.9300  -17.5620   21.1730 S   0  0  0  0  0  0  0  0  0  0  0  0
  -28.9080  -15.5050   20.6810 H   0  0  0  0  0  0  0  0  0  0  0  0
  -25.2200  -13.8710   20.4540 C   0  0  0  0  0  0  0  0  0  0  0  0
  -24.1650  -13.0950   20.8490 C   0  0  0  0  0  0  0  0  0  0  0  0
  -24.6250  -11.7440   20.7930 C   0  0  0  0  0  0  0  0  0  0  0  0
  -26.2570  -12.9920   20.1830 N   0  0  0  0  0  0  0  0  0  0  0  0
  -25.9060  -11.7080   20.4470 N   0  0  0  0  0  0  0  0  0  0  0  0
  -23.9030  -10.4800   20.9920 C   0  0  0  0  0  0  0  0  0  0  0  0
  -24.3460   -9.5160   21.9230 C   0  0  0  0  0  3  0  0  0  0  0  0
  -23.6260   -8.3170   22.1110 C   0  0  0  0  0  3  0  0  0  0  0  0
  -22.4480   -8.0720   21.3650 C   0  0  0  0  0  0  0  0  0  0  0  0
  -22.0250   -9.0240   20.4210 C   0  0  0  0  0  3  0  0  0  0  0  0
  -22.7460  -10.2160   20.2340 C   0  0  0  0  0  3  0  0  0  0  0  0
  -21.6990   -6.9240   21.4620 O   0  0  0  0  0  0  0  0  0  0  0  0
  -21.6500   -6.1930   22.6220 C   0  0  0  0  0  0  0  0  0  0  0  0
  -21.1870   -6.7470   23.8350 C   0  0  0  0  0  3  0  0  0  0  0  0
  -21.0880   -5.9400   24.9850 C   0  0  0  0  0  3  0  0  0  0  0  0
  -21.4410   -4.5780   24.9230 C   0  0  0  0  0  0  0  0  0  0  0  0
  -21.8970   -4.0230   23.7140 C   0  0  0  0  0  3  0  0  0  0  0  0
  -21.9980   -4.8280   22.5660 C   0  0  0  0  0  0  0  0  0  0  0  0
  -22.4170   -4.2830   21.3990 F   0  0  0  0  0  0  0  0  0  0  0  0
  -21.3390   -3.7990   26.0260 F   0  0  0  0  0  0  0  0  0  0  0  0
  -22.7750  -13.5700   21.1670 C   0  0  0  0  0  0  0  0  0  0  0  0
  -22.0690  -12.8590   22.0390 N   0  0  0  0  0  0  0  0  0  0  0  0
  -22.3260  -14.6040   20.6760 O   0  0  0  0  0  0  0  0  0  0  0  0
  -22.4450  -12.0200   22.4570 H   0  0  0  0  0  0  0  0  0  0  0  0
  -21.1390  -13.1590   22.2940 H   0  0  0  0  0  0  0  0  0  0  0  0
  -25.3780  -15.2430   20.2820 N   0  0  0  0  0  0  0  0  0  0  0  0
  -24.6110  -15.8920   20.4170 H   0  0  0  0  0  0  0  0  0  0  0  0
  -26.2070  -15.6860   19.9070 H   0  0  0  0  0  0  0  0  0  0  0  0
  -28.1650  -22.6930   19.9550 C   0  0  0  0  0  2  0  0  0  0  0  0
  -28.6450  -24.0820   20.4930 C   0  0  0  0  0  0  0  0  0  0  0  0
  -29.1310  -24.1890   21.6240 O   0  0  0  0  0  0  0  0  0  0  0  0
  -28.4860  -25.3300   19.5630 C   0  0  0  0  0  2  0  0  0  0  0  0
  -28.3630  -26.6130   20.2570 O   0  0  0  0  0  0  0  0  0  0  0  0
  -24.5530  -31.8960   23.2470 C   0  0  0  0  0  0  0  0  0  0  0  0
  -27.1910  -27.3700   20.2060 C   0  0  0  0  0  0  0  0  0  0  0  0
  -23.3550  -30.4920   21.6060 C   0  0  0  0  0  3  0  0  0  0  0  0
  -24.8100  -28.9380   20.1950 C   0  0  0  0  0  0  0  0  0  0  0  0
  -25.8900  -30.8220   21.4280 C   0  0  0  0  0  2  0  0  0  0  0  0
  -25.9710  -29.4430   20.7910 C   0  0  0  0  0  0  0  0  0  0  0  0
  -27.1610  -28.6670   20.7910 C   0  0  0  0  0  3  0  0  0  0  0  0
  -25.9980  -26.8930   19.6140 C   0  0  0  0  0  3  0  0  0  0  0  0
  -24.8220  -27.6650   19.6050 C   0  0  0  0  0  3  0  0  0  0  0  0
  -23.5730  -29.8090   20.2290 C   0  0  0  0  0  2  0  0  0  0  0  0
  -24.6180  -31.0860   22.1520 N   0  0  0  0  0  0  0  0  0  0  0  0
  -23.4670  -32.1760   23.7760 O   0  0  0  0  0  0  0  0  0  0  0  0
  -22.6900  -29.4770   22.5660 C   0  0  0  0  0  0  0  0  0  0  0  0
  -21.3670  -29.2930   22.4260 N   0  0  0  0  0  0  0  0  0  0  0  0
  -23.3640  -28.8580   23.3940 O   0  0  0  0  0  0  0  0  0  0  0  0
  -20.8830  -29.8450   21.7300 H   0  0  0  0  0  0  0  0  0  0  0  0
  -17.9880  -28.1000   22.8990 C   0  0  0  0  0  0  0  0  0  0  0  0
  -20.5420  -28.3600   23.1930 C   0  0  0  0  0  3  0  0  0  0  0  0
  -20.6490  -26.9250   22.6250 C   0  0  0  0  0  2  0  0  0  0  0  0
  -19.5570  -26.5980   21.6030 C   0  0  0  0  0  2  0  0  0  0  0  0
  -18.1690  -26.7470   22.2330 C   0  0  0  0  0  2  0  0  0  0  0  0
  -19.1020  -28.8650   23.3350 C   0  0  0  0  0  0  0  0  0  0  0  0
  -18.8780  -30.1310   23.9170 C   0  0  0  0  0  3  0  0  0  0  0  0
  -17.5720  -30.6350   24.0670 C   0  0  0  0  0  3  0  0  0  0  0  0
  -16.4710  -29.8670   23.6470 C   0  0  0  0  0  3  0  0  0  0  0  0
  -16.6800  -28.6020   23.0690 C   0  0  0  0  0  3  0  0  0  0  0  0
  -25.8340  -32.5290   23.8730 C   0  0  0  0  0  3  0  0  0  0  0  0
  -26.3350  -31.7710   25.1640 C   0  0  1  0  0  0  0  0  0  0  0  0
  -25.2290  -31.5520   26.2240 C   0  0  0  0  0  1  0  0  0  0  0  0
  -26.9150  -30.3860   24.7940 C   0  0  0  0  0  1  0  0  0  0  0  0
  -27.4810  -32.5680   25.8290 C   0  0  0  0  0  1  0  0  0  0  0  0
  -25.5320  -33.9330   24.1810 N   0  0  0  0  0  0  0  0  0  0  0  0
  -25.8850  -34.9730   23.4150 C   0  0  0  0  0  0  0  0  0  0  0  0
  -26.5700  -34.8520   22.3950 O   0  0  0  0  0  0  0  0  0  0  0  0
  -24.9260  -34.1010   24.9710 H   0  0  0  0  0  0  0  0  0  0  0  0
  -24.1880  -36.7820   22.9980 C   0  0  0  0  0  1  0  0  0  0  0  0
  -25.4010  -36.3710   23.8480 C   0  0  0  0  0  3  0  0  0  0  0  0
  -27.5180  -37.2410   24.7350 C   0  0  0  0  0  1  0  0  0  0  0  0
  -26.4490  -37.4110   23.7550 N   0  0  0  0  0  0  0  0  0  0  0  0
  -26.0490  -38.3370   23.8790 H   0  0  0  0  0  0  0  0  0  0  0  0
  3  1  1  6
  2  3  1  0
  3 50  1  0
  3  4  1  0
  4  5  1  0
  6 19  1  0
  7 12  1  0
  8  9  1  0
  8  7  1  0
 10  9  1  0
 10 25  1  0
 10 11  1  0
 12  6  1  0
 12 11  1  0
 13  6  2  0
 14 17  1  0
 15  4  1  0
 15 14  2  0
 16 20  1  0
 18 16  2  0
 18 15  1  0
 19 21  1  0
 19 16  1  0
 20 14  1  0
 22 23  2  0
 23 42  1  0
 24 23  1  0
 24 27  1  0
 25 26  1  0
 25 22  1  0
 26 24  2  0
 27 28  1  0
 28 29  2  0
 30 33  1  0
 30 29  1  0
 31 30  2  0
 32 31  1  0
 32 27  2  0
 33 34  1  0
 34 35  1  0
 35 36  2  0
 37 36  1  0
 37 41  1  0
 38 37  2  0
 39 34  2  0
 39 38  1  0
 40 39  1  0
 42 43  1  0
 43 46  1  0
 43 45  1  0
 44 42  2  0
 47 48  1  0
 47 22  1  0
 49 47  1  0
 50 51  1  0
 51 52  2  0
 53 54  1  0
 53 51  1  0
 55 66  2  0
 56 54  1  0
 56 61  1  0
 57 65  1  0
 57 67  1  0
 58 64  1  0
 58 60  1  0
 59 65  1  0
 60 59  1  0
 61 60  2  0
 62 56  2  0
 63 62  1  0
 63 58  2  0
 64 57  1  0
 65 55  1  0
 67 69  2  0
 68 67  1  0
 70 68  1  0
 71 80  2  0
 71 76  1  0
 72 68  1  0
 72 76  1  0
 73 72  1  0
 74 75  1  0
 74 73  1  0
 75 71  1  0
 76 77  2  0
 77 78  1  0
 79 78  2  0
 80 79  1  0
 81 55  1  0
 81 86  1  0
 81 82  1  0
 82 85  1  1
 82 83  1  0
 84 82  1  0
 86 89  1  0
 87 91  1  0
 87 86  1  0
 88 87  2  0
 91 90  1  0
 93 91  1  0
 93 94  1  0
 93 92  1  0
M  ISO  4   6 100  19 100  53 101  54 101
M  END
>  <TORSDO>  (55) 
F 20

>  <SCORE>  (55) 
-14.022

>  <name>  (55) 
54

>  <ligand_id>  (55) 
54

>  <original_smiles>  (55) 
[H]c1c([H])c([H])c2c(c1[H])C([H])([H])C([H])([H])C([H])([H])C2([H])N([H])C(=O)C1([H])N(C(=O)C([H])(N([H])C(=O)C([H])(N([H])C([H])([H])[H])C([H])([H])[H])C(C([H])([H])[H])(C([H])([H])[H])C([H])([H])[H])C([H])([H])c2c([H])c(OC([H])([H])C(=O)C([H])([H])C(N([H])c3nc(N([H])C(=O)N4C([H])([H])C([H])([H])C([H])([H])C([H])(n5nc(-c6c([H])c([H])c(Oc7c([H])c([H])c(F)c([H])c7F)c([H])c6[H])c(C(=O)N([H])[H])c5N([H])[H])C4([H])[H])sc3C([H])([H])[H])(C([H])([H])[H])C([H])([H])[H])c([H])c([H])c2C1([H])[H]

>  <smiles>  (55) 
[H]c1c([H])c([H])c2c(c1[H])C([H])([H])C([H])([H])C([H])([H])C2([H])N([H])C(=O)C1([H])N(C(=O)C([H])(N([H])C(=O)C([H])(N([H])C([H])([H])[H])C([H])([H])[H])C(C([H])([H])[H])(C([H])([H])[H])C([H])([H])[H])C([H])([H])c2c([H])c(OC([H])([H])C(=O)C([H])([H])C(N([H])c3nc(N([H])C(=O)N4C([H])([H])C([H])([H])C([H])([H])C([H])(n5nc(-c6c([H])c([H])c(Oc7c([H])c([H])c(F)c([H])c7F)c([H])c6[H])c(C(=O)N([H])[H])c5N([H])[H])C4([H])[H])sc3C([H])([H])[H])(C([H])([H])[H])C([H])([H])[H])c([H])c([H])c2C1([H])[H]

$$$$
55:0:0
     RDKit          3D

 97105  0  0  1  0  0  0  0  0999 V2000
  -28.9430  -21.5450   20.3030 C   0  0  0  0  0  0  0  0  0  0  0  0
  -28.5800  -20.4120   19.6620 N   0  0  0  0  0  0  0  0  0  0  0  0
  -29.7540  -21.6080   21.2350 O   0  0  0  0  0  0  0  0  0  0  0  0
  -27.9390  -20.6360   18.9100 H   0  0  0  0  0  0  0  0  0  0  0  0
  -30.6500  -14.6010   20.4510 C   0  0  0  0  0  0  0  0  0  0  0  0
  -30.3900  -12.3820   19.4280 C   0  0  0  0  0  2  0  0  0  0  0  0
  -29.4790  -12.5490   18.1930 C   0  0  0  0  0  2  0  0  0  0  0  0
  -27.9990  -12.4080   18.5930 C   0  0  0  0  0  2  0  0  0  0  0  0
  -27.6230  -13.2760   19.8240 C   0  0  0  0  0  3  0  0  0  0  0  0
  -28.6590  -13.1310   20.9620 C   0  0  0  0  0  2  0  0  0  0  0  0
  -29.9900  -13.4100   20.4050 N   0  0  0  0  0  0  0  0  0  0  0  0
  -31.8510  -14.6800   20.1760 O   0  0  0  0  0  0  0  0  0  0  0  0
  -30.6730  -16.9360   18.5920 C   0  0  0  0  0  3  0  0  0  0  0  0
  -30.0120  -19.2230   18.1650 C   0  0  0  0  0  0  0  0  0  0  0  0
  -30.6930  -18.0610   17.7690 C   0  0  0  0  0  0  0  0  0  0  0  0
  -29.9820  -16.9560   19.8230 C   0  0  0  0  0  0  0  0  0  0  0  0
  -29.3560  -19.2330   19.4200 C   0  0  0  0  0  0  0  0  0  0  0  0
  -29.3390  -18.1090   20.2110 N   0  0  0  0  0  0  0  0  0  0  0  0
  -29.8840  -15.7220   20.5820 N   0  0  0  0  0  0  0  0  0  0  0  0
  -31.3390  -18.0190   16.5770 F   0  0  0  0  0  0  0  0  0  0  0  0
  -29.0120  -15.5900   21.0680 H   0  0  0  0  0  0  0  0  0  0  0  0
  -25.2110  -13.8750   20.4790 C   0  0  0  0  0  0  0  0  0  0  0  0
  -24.1390  -13.1030   20.8320 C   0  0  0  0  0  0  0  0  0  0  0  0
  -24.6050  -11.7530   20.8320 C   0  0  0  0  0  0  0  0  0  0  0  0
  -26.2650  -12.9960   20.2830 N   0  0  0  0  0  0  0  0  0  0  0  0
  -25.9030  -11.7160   20.5530 N   0  0  0  0  0  0  0  0  0  0  0  0
  -23.8800  -10.4900   21.0190 C   0  0  0  0  0  0  0  0  0  0  0  0
  -24.2900   -9.5350   21.9760 C   0  0  0  0  0  3  0  0  0  0  0  0
  -23.5650   -8.3370   22.1530 C   0  0  0  0  0  3  0  0  0  0  0  0
  -22.4130   -8.0840   21.3710 C   0  0  0  0  0  0  0  0  0  0  0  0
  -22.0220   -9.0250   20.4040 C   0  0  0  0  0  3  0  0  0  0  0  0
  -22.7480  -10.2150   20.2260 C   0  0  0  0  0  3  0  0  0  0  0  0
  -21.6620   -6.9360   21.4530 O   0  0  0  0  0  0  0  0  0  0  0  0
  -21.5830   -6.2120   22.6150 C   0  0  0  0  0  0  0  0  0  0  0  0
  -21.1080   -6.7790   23.8180 C   0  0  0  0  0  3  0  0  0  0  0  0
  -20.9780   -5.9790   24.9700 C   0  0  0  0  0  3  0  0  0  0  0  0
  -21.3110   -4.6120   24.9210 C   0  0  0  0  0  0  0  0  0  0  0  0
  -21.7800   -4.0450   23.7230 C   0  0  0  0  0  3  0  0  0  0  0  0
  -21.9120   -4.8420   22.5730 C   0  0  0  0  0  0  0  0  0  0  0  0
  -22.3430   -4.2860   21.4160 F   0  0  0  0  0  0  0  0  0  0  0  0
  -21.1780   -3.8420   26.0250 F   0  0  0  0  0  0  0  0  0  0  0  0
  -22.7330  -13.5790   21.0630 C   0  0  0  0  0  0  0  0  0  0  0  0
  -21.9840  -12.8910   21.9170 N   0  0  0  0  0  0  0  0  0  0  0  0
  -22.3070  -14.5990   20.5220 O   0  0  0  0  0  0  0  0  0  0  0  0
  -22.3430  -12.0690   22.3810 H   0  0  0  0  0  0  0  0  0  0  0  0
  -21.0410  -13.1940   22.1150 H   0  0  0  0  0  0  0  0  0  0  0  0
  -25.3750  -15.2440   20.2900 N   0  0  0  0  0  0  0  0  0  0  0  0
  -24.6000  -15.8940   20.3690 H   0  0  0  0  0  0  0  0  0  0  0  0
  -26.2300  -15.6870   19.9820 H   0  0  0  0  0  0  0  0  0  0  0  0
  -29.9820  -20.3190   17.2880 N   0  0  0  0  0  0  0  0  0  0  0  0
  -30.6210  -20.2760   16.5000 H   0  0  0  0  0  0  0  0  0  0  0  0
  -29.8870  -21.2540   17.6660 H   0  0  0  0  0  0  0  0  0  0  0  0
  -28.1600  -22.8010   19.7510 C   0  0  0  0  0  0  0  0  0  0  0  0
  -27.4630  -22.7040   18.7320 O   0  0  0  0  0  0  0  0  0  0  0  0
  -28.2410  -24.1630   20.4940 C   0  0  0  0  0  3  0  0  0  0  0  0
  -28.5270  -25.4000   19.5810 C   0  0  0  0  0  3  0  0  0  0  0  0
  -28.4120  -26.7010   20.2190 O   0  0  0  0  0  0  0  0  0  0  0  0
  -24.5680  -31.9060   23.2720 C   0  0  0  0  0  0  0  0  0  0  0  0
  -27.2250  -27.4240   20.1990 C   0  0  0  0  0  0  0  0  0  0  0  0
  -23.3710  -30.5000   21.6290 C   0  0  0  0  0  3  0  0  0  0  0  0
  -24.8290  -28.9590   20.2090 C   0  0  0  0  0  0  0  0  0  0  0  0
  -25.9030  -30.8490   21.4430 C   0  0  0  0  0  2  0  0  0  0  0  0
  -25.9880  -29.4760   20.8000 C   0  0  0  0  0  0  0  0  0  0  0  0
  -27.1850  -28.7150   20.7890 C   0  0  0  0  0  3  0  0  0  0  0  0
  -26.0370  -26.9270   19.6150 C   0  0  0  0  0  3  0  0  0  0  0  0
  -24.8510  -27.6870   19.6130 C   0  0  0  0  0  3  0  0  0  0  0  0
  -23.5860  -29.8210   20.2520 C   0  0  0  0  0  2  0  0  0  0  0  0
  -24.6330  -31.1020   22.1710 N   0  0  0  0  0  0  0  0  0  0  0  0
  -23.4840  -32.1770   23.8060 O   0  0  0  0  0  0  0  0  0  0  0  0
  -22.7180  -29.4780   22.5890 C   0  0  0  0  0  0  0  0  0  0  0  0
  -21.3940  -29.2900   22.4550 N   0  0  0  0  0  0  0  0  0  0  0  0
  -23.3990  -28.8600   23.4110 O   0  0  0  0  0  0  0  0  0  0  0  0
  -20.9060  -29.8450   21.7640 H   0  0  0  0  0  0  0  0  0  0  0  0
  -18.0210  -28.0790   22.9280 C   0  0  0  0  0  0  0  0  0  0  0  0
  -20.5760  -28.3500   23.2200 C   0  0  0  0  0  3  0  0  0  0  0  0
  -20.6900  -26.9180   22.6460 C   0  0  0  0  0  2  0  0  0  0  0  0
  -19.5970  -26.5880   21.6250 C   0  0  0  0  0  2  0  0  0  0  0  0
  -18.2100  -26.7280   22.2580 C   0  0  0  0  0  2  0  0  0  0  0  0
  -19.1340  -28.8470   23.3650 C   0  0  0  0  0  0  0  0  0  0  0  0
  -18.9040  -30.1120   23.9500 C   0  0  0  0  0  3  0  0  0  0  0  0
  -17.5960  -30.6070   24.1030 C   0  0  0  0  0  3  0  0  0  0  0  0
  -16.4980  -29.8360   23.6830 C   0  0  0  0  0  3  0  0  0  0  0  0
  -16.7130  -28.5740   23.1010 C   0  0  0  0  0  3  0  0  0  0  0  0
  -25.8500  -32.5400   23.8970 C   0  0  0  0  0  3  0  0  0  0  0  0
  -26.3530  -31.7800   25.1870 C   0  0  1  0  0  0  0  0  0  0  0  0
  -25.2510  -31.5610   26.2490 C   0  0  0  0  0  1  0  0  0  0  0  0
  -26.9320  -30.3960   24.8140 C   0  0  0  0  0  1  0  0  0  0  0  0
  -27.5010  -32.5780   25.8480 C   0  0  0  0  0  1  0  0  0  0  0  0
  -25.5410  -33.9420   24.2090 N   0  0  0  0  0  0  0  0  0  0  0  0
  -25.8880  -34.9850   23.4430 C   0  0  0  0  0  0  0  0  0  0  0  0
  -26.5700  -34.8690   22.4230 O   0  0  0  0  0  0  0  0  0  0  0  0
  -24.9360  -34.1060   25.0000 H   0  0  0  0  0  0  0  0  0  0  0  0
  -24.1760  -36.7840   23.0410 C   0  0  0  0  0  1  0  0  0  0  0  0
  -25.3990  -36.3800   23.8800 C   0  0  0  0  0  3  0  0  0  0  0  0
  -27.5250  -37.2590   24.7420 C   0  0  0  0  0  1  0  0  0  0  0  0
  -26.4390  -37.4280   23.7800 N   0  0  0  0  0  0  0  0  0  0  0  0
  -26.0340  -38.3500   23.9170 H   0  0  0  0  0  0  0  0  0  0  0  0
  1  3  2  0
  2  1  1  0
  4  2  1  0
  5 19  1  0
  6 11  1  0
  7  8  1  0
  7  6  1  0
  9  8  1  0
  9 25  1  0
  9 10  1  0
 11  5  1  0
 11 10  1  0
 12  5  2  0
 13 16  1  0
 14 17  2  0
 15 14  1  0
 15 13  2  0
 16 18  2  0
 16 19  1  0
 17  2  1  0
 17 18  1  0
 19 21  1  0
 20 15  1  0
 22 23  2  0
 23 24  1  0
 23 42  1  0
 24 27  1  0
 25 22  1  0
 25 26  1  0
 26 24  2  0
 27 28  1  0
 28 29  2  0
 30 33  1  0
 30 29  1  0
 31 30  2  0
 32 31  1  0
 32 27  2  0
 33 34  1  0
 34 35  1  0
 35 36  2  0
 37 36  1  0
 37 41  1  0
 38 37  2  0
 39 34  2  0
 39 38  1  0
 40 39  1  0
 42 43  1  0
 43 46  1  0
 43 45  1  0
 44 42  2  0
 47 48  1  0
 47 22  1  0
 49 47  1  0
 50 52  1  0
 50 14  1  0
 51 50  1  0
 53  1  1  0
 53 55  1  0
 54 53  2  0
 56 57  1  0
 56 55  2  0
 58 69  2  0
 59 57  1  0
 59 64  1  0
 60 68  1  0
 60 70  1  0
 61 67  1  0
 61 63  1  0
 62 68  1  0
 63 62  1  0
 64 63  2  0
 65 59  2  0
 66 65  1  0
 66 61  2  0
 67 60  1  0
 68 58  1  0
 70 72  2  0
 71 70  1  0
 73 71  1  0
 74 83  2  0
 74 79  1  0
 75 71  1  0
 75 79  1  0
 76 75  1  0
 77 78  1  0
 77 76  1  0
 78 74  1  0
 79 80  2  0
 80 81  1  0
 82 81  2  0
 83 82  1  0
 84 58  1  0
 84 89  1  0
 84 85  1  0
 85 88  1  1
 85 86  1  0
 87 85  1  0
 89 92  1  0
 90 94  1  0
 90 89  1  0
 91 90  2  0
 94 93  1  0
 96 94  1  0
 96 97  1  0
 96 95  1  0
M  ISO  4   5 100  19 100  56 101  57 101
M  END
>  <TORSDO>  (56) 
F 20

>  <SCORE>  (56) 
-14.144

>  <name>  (56) 
55

>  <ligand_id>  (56) 
55

>  <original_smiles>  (56) 
[H]c1c([H])c([H])c2c(c1[H])C([H])([H])C([H])([H])C([H])([H])C2([H])N([H])C(=O)C1([H])N(C(=O)C([H])(N([H])C(=O)C([H])(N([H])C([H])([H])[H])C([H])([H])[H])C(C([H])([H])[H])(C([H])([H])[H])C([H])([H])[H])C([H])([H])c2c([H])c(OC([H])([H])C([H])([H])C(=O)C(=O)N([H])c3nc(N([H])C(=O)N4C([H])([H])C([H])([H])C([H])([H])C([H])(n5nc(-c6c([H])c([H])c(Oc7c([H])c([H])c(F)c([H])c7F)c([H])c6[H])c(C(=O)N([H])[H])c5N([H])[H])C4([H])[H])c([H])c(F)c3N([H])[H])c([H])c([H])c2C1([H])[H]

>  <smiles>  (56) 
[H]c1c([H])c([H])c2c(c1[H])C([H])([H])C([H])([H])C([H])([H])C2([H])N([H])C(=O)C1([H])N(C(=O)C([H])(N([H])C(=O)C([H])(N([H])C([H])([H])[H])C([H])([H])[H])C(C([H])([H])[H])(C([H])([H])[H])C([H])([H])[H])C([H])([H])c2c([H])c(OC([H])([H])C([H])([H])C(=O)C(=O)N([H])c3nc(N([H])C(=O)N4C([H])([H])C([H])([H])C([H])([H])C([H])(n5nc(-c6c([H])c([H])c(Oc7c([H])c([H])c(F)c([H])c7F)c([H])c6[H])c(C(=O)N([H])[H])c5N([H])[H])C4([H])[H])c([H])c(F)c3N([H])[H])c([H])c([H])c2C1([H])[H]

$$$$
56:0:0
     RDKit          3D

 97105  0  0  1  0  0  0  0  0999 V2000
  -30.3390  -20.6370   22.3450 C   0  0  0  0  0  0  0  0  0  0  0  0
  -29.6620  -21.5190   21.5910 N   0  0  0  0  0  0  0  0  0  0  0  0
  -30.6420  -20.8710   23.5170 O   0  0  0  0  0  0  0  0  0  0  0  0
  -29.5210  -21.3020   20.6130 H   0  0  0  0  0  0  0  0  0  0  0  0
  -30.9410  -14.6160   20.2350 C   0  0  0  0  0  0  0  0  0  0  0  0
  -30.6090  -12.4710   19.0510 C   0  0  0  0  0  2  0  0  0  0  0  0
  -29.6220  -12.6770   17.8840 C   0  0  0  0  0  2  0  0  0  0  0  0
  -28.1650  -12.5260   18.3640 C   0  0  0  0  0  2  0  0  0  0  0  0
  -27.8690  -13.3520   19.6430 C   0  0  0  0  0  3  0  0  0  0  0  0
  -28.9610  -13.1200   20.7110 C   0  0  0  0  0  2  0  0  0  0  0  0
  -30.2660  -13.4400   20.1040 N   0  0  0  0  0  0  0  0  0  0  0  0
  -32.0200  -14.8190   19.6680 O   0  0  0  0  0  0  0  0  0  0  0  0
  -30.7110  -19.3360   21.7390 C   0  0  0  0  0  0  0  0  0  0  0  0
  -31.9020  -18.8180   21.2710 C   0  0  0  0  0  0  0  0  0  0  0  0
  -30.6170  -16.9360   21.1420 C   0  0  0  0  0  0  0  0  0  0  0  0
  -31.8300  -17.4660   20.9250 N   0  0  0  0  0  0  0  0  0  0  0  0
  -30.2900  -15.5640   20.9370 N   0  0  0  0  0  0  0  0  0  0  0  0
  -29.4580  -18.1090   21.7590 S   0  0  0  0  0  0  0  0  0  0  0  0
  -29.3970  -15.2730   21.3020 H   0  0  0  0  0  0  0  0  0  0  0  0
  -25.5050  -13.9490   20.4690 C   0  0  0  0  0  0  0  0  0  0  0  0
  -24.4490  -13.1700   20.8570 C   0  0  0  0  0  0  0  0  0  0  0  0
  -24.8980  -11.8170   20.7560 C   0  0  0  0  0  0  0  0  0  0  0  0
  -26.5340  -13.0700   20.1650 N   0  0  0  0  0  0  0  0  0  0  0  0
  -26.1730  -11.7820   20.3920 N   0  0  0  0  0  0  0  0  0  0  0  0
  -24.1720  -10.5520   20.9300 C   0  0  0  0  0  0  0  0  0  0  0  0
  -24.6210   -9.5620   21.8320 C   0  0  0  0  0  3  0  0  0  0  0  0
  -23.8950   -8.3630   21.9950 C   0  0  0  0  0  3  0  0  0  0  0  0
  -22.7090   -8.1440   21.2560 C   0  0  0  0  0  0  0  0  0  0  0  0
  -22.2800   -9.1230   20.3420 C   0  0  0  0  0  3  0  0  0  0  0  0
  -23.0050  -10.3150   20.1780 C   0  0  0  0  0  3  0  0  0  0  0  0
  -21.9540   -6.9980   21.3300 O   0  0  0  0  0  0  0  0  0  0  0  0
  -21.8910   -6.2500   22.4790 C   0  0  0  0  0  0  0  0  0  0  0  0
  -21.4430   -6.7970   23.7000 C   0  0  0  0  0  3  0  0  0  0  0  0
  -21.3280   -5.9770   24.8390 C   0  0  0  0  0  3  0  0  0  0  0  0
  -21.6520   -4.6090   24.7570 C   0  0  0  0  0  0  0  0  0  0  0  0
  -22.0920   -4.0600   23.5400 C   0  0  0  0  0  3  0  0  0  0  0  0
  -22.2090   -4.8790   22.4030 C   0  0  0  0  0  0  0  0  0  0  0  0
  -22.6140   -4.3420   21.2280 F   0  0  0  0  0  0  0  0  0  0  0  0
  -21.5330   -3.8180   25.8490 F   0  0  0  0  0  0  0  0  0  0  0  0
  -23.0670  -13.6430   21.2060 C   0  0  0  0  0  0  0  0  0  0  0  0
  -22.3760  -12.9220   22.0830 N   0  0  0  0  0  0  0  0  0  0  0  0
  -22.6110  -14.6870   20.7400 O   0  0  0  0  0  0  0  0  0  0  0  0
  -22.7580  -12.0780   22.4810 H   0  0  0  0  0  0  0  0  0  0  0  0
  -21.4510  -13.2190   22.3600 H   0  0  0  0  0  0  0  0  0  0  0  0
  -25.6740  -15.3240   20.3340 N   0  0  0  0  0  0  0  0  0  0  0  0
  -24.9150  -15.9800   20.4870 H   0  0  0  0  0  0  0  0  0  0  0  0
  -26.5060  -15.7640   19.9610 H   0  0  0  0  0  0  0  0  0  0  0  0
  -33.1240  -19.4800   21.1230 N   0  0  0  0  0  0  0  0  0  0  0  0
  -33.2690  -20.4120   21.4960 H   0  0  0  0  0  0  0  0  0  0  0  0
  -33.9710  -18.9680   20.9020 H   0  0  0  0  0  0  0  0  0  0  0  0
  -27.5400  -22.6270   22.1440 C   0  0  0  0  0  1  0  0  0  0  0  0
  -29.0710  -22.7800   22.0740 C   0  0  0  0  0  3  0  0  0  0  0  0
  -29.5070  -24.0100   21.2420 C   0  0  0  0  0  0  0  0  0  0  0  0
  -30.1920  -23.9130   20.2190 O   0  0  0  0  0  0  0  0  0  0  0  0
  -29.0220  -25.3840   21.7450 C   0  0  0  0  0  2  0  0  0  0  0  0
  -29.7040  -26.6280   21.1250 C   0  0  0  0  0  2  0  0  0  0  0  0
  -29.0970  -27.0370   19.8960 O   0  0  0  0  0  0  0  0  0  0  0  0
  -24.8770  -31.7520   23.2420 C   0  0  0  0  0  0  0  0  0  0  0  0
  -27.9030  -27.7150   19.9810 C   0  0  0  0  0  0  0  0  0  0  0  0
  -23.8170  -30.3990   21.4590 C   0  0  0  0  0  3  0  0  0  0  0  0
  -25.4150  -29.0530   19.9950 C   0  0  0  0  0  0  0  0  0  0  0  0
  -26.3170  -30.9240   21.3860 C   0  0  0  0  0  2  0  0  0  0  0  0
  -26.5120  -29.6050   20.6700 C   0  0  0  0  0  0  0  0  0  0  0  0
  -27.7580  -28.9400   20.6710 C   0  0  0  0  0  3  0  0  0  0  0  0
  -26.7960  -27.1790   19.2930 C   0  0  0  0  0  3  0  0  0  0  0  0
  -25.5500  -27.8340   19.3060 C   0  0  0  0  0  3  0  0  0  0  0  0
  -24.1180  -29.8290   20.0470 C   0  0  0  0  0  2  0  0  0  0  0  0
  -25.0180  -31.0370   22.0890 N   0  0  0  0  0  0  0  0  0  0  0  0
  -23.7630  -31.9200   23.7570 O   0  0  0  0  0  0  0  0  0  0  0  0
  -23.2000  -29.2750   22.3230 C   0  0  0  0  0  0  0  0  0  0  0  0
  -21.8830  -29.0580   22.1670 N   0  0  0  0  0  0  0  0  0  0  0  0
  -23.9010  -28.6070   23.0860 O   0  0  0  0  0  0  0  0  0  0  0  0
  -21.3770  -29.6550   21.5280 H   0  0  0  0  0  0  0  0  0  0  0  0
  -18.5430  -27.7440   22.5620 C   0  0  0  0  0  0  0  0  0  0  0  0
  -21.0950  -28.0280   22.8430 C   0  0  0  0  0  3  0  0  0  0  0  0
  -21.2260  -26.6660   22.1240 C   0  0  0  0  0  2  0  0  0  0  0  0
  -20.1220  -26.4230   21.0900 C   0  0  0  0  0  2  0  0  0  0  0  0
  -18.7420  -26.4730   21.7530 C   0  0  0  0  0  2  0  0  0  0  0  0
  -19.6480  -28.4820   23.0610 C   0  0  0  0  0  0  0  0  0  0  0  0
  -19.4070  -29.6760   23.7760 C   0  0  0  0  0  3  0  0  0  0  0  0
  -18.0940  -30.1290   23.9990 C   0  0  0  0  0  3  0  0  0  0  0  0
  -17.0020  -29.3830   23.5200 C   0  0  0  0  0  3  0  0  0  0  0  0
  -17.2280  -28.1940   22.8060 C   0  0  0  0  0  3  0  0  0  0  0  0
  -26.1010  -32.4110   23.9520 C   0  0  0  0  0  3  0  0  0  0  0  0
  -25.7100  -33.7740   24.3300 N   0  0  0  0  0  0  0  0  0  0  0  0
  -26.0170  -34.8730   23.6270 C   0  0  0  0  0  0  0  0  0  0  0  0
  -26.7310  -34.8480   22.6220 O   0  0  0  0  0  0  0  0  0  0  0  0
  -25.0810  -33.8660   25.1130 H   0  0  0  0  0  0  0  0  0  0  0  0
  -24.2090  -36.5850   23.2850 C   0  0  0  0  0  1  0  0  0  0  0  0
  -25.4430  -36.2150   24.1220 C   0  0  0  0  0  3  0  0  0  0  0  0
  -27.4980  -37.1780   25.0600 C   0  0  0  0  0  1  0  0  0  0  0  0
  -26.4200  -37.3240   24.0840 N   0  0  0  0  0  0  0  0  0  0  0  0
  -25.9610  -38.2150   24.2530 H   0  0  0  0  0  0  0  0  0  0  0  0
  -26.5980  -31.6010   25.2130 C   0  0  1  0  0  0  0  0  0  0  0  0
  -25.4730  -31.2630   26.2170 C   0  0  0  0  0  1  0  0  0  0  0  0
  -27.2620  -30.2720   24.7800 C   0  0  0  0  0  1  0  0  0  0  0  0
  -27.6800  -32.4140   25.9630 C   0  0  0  0  0  1  0  0  0  0  0  0
  1  3  2  0
  2 52  1  0
  2  1  1  0
  4  2  1  0
  5 17  1  0
  6 11  1  0
  7  8  1  0
  7  6  1  0
  9  8  1  0
  9 23  1  0
  9 10  1  0
 11  5  1  0
 11 10  1  0
 12  5  2  0
 13 18  1  0
 13  1  1  0
 14 13  2  0
 15 18  1  0
 16 15  2  0
 16 14  1  0
 17 15  1  0
 17 19  1  0
 20 21  2  0
 21 40  1  0
 22 21  1  0
 22 25  1  0
 23 24  1  0
 23 20  1  0
 24 22  2  0
 25 26  1  0
 26 27  2  0
 28 31  1  0
 28 27  1  0
 29 28  2  0
 30 29  1  0
 30 25  2  0
 31 32  1  0
 32 33  1  0
 33 34  2  0
 35 34  1  0
 35 39  1  0
 36 35  2  0
 37 32  2  0
 37 36  1  0
 38 37  1  0
 40 41  1  0
 41 44  1  0
 41 43  1  0
 42 40  2  0
 45 20  1  0
 45 46  1  0
 47 45  1  0
 48 14  1  0
 48 49  1  0
 50 48  1  0
 52 51  1  0
 53 55  1  0
 53 52  1  0
 54 53  2  0
 56 55  1  0
 57 59  1  0
 57 56  1  0
 58 69  2  0
 59 64  1  0
 60 68  1  0
 60 70  1  0
 61 67  1  0
 61 63  1  0
 62 68  1  0
 63 64  2  0
 63 62  1  0
 65 66  1  0
 65 59  2  0
 66 61  2  0
 67 60  1  0
 68 58  1  0
 70 72  2  0
 71 70  1  0
 73 71  1  0
 74 83  2  0
 74 79  1  0
 75 71  1  0
 75 79  1  0
 76 75  1  0
 77 78  1  0
 77 76  1  0
 78 74  1  0
 79 80  2  0
 80 81  1  0
 82 81  2  0
 83 82  1  0
 84 58  1  0
 84 85  1  0
 84 94  1  0
 85 88  1  0
 86 90  1  0
 86 85  1  0
 87 86  2  0
 90 89  1  0
 92 90  1  0
 92 93  1  0
 92 91  1  0
 94 97  1  1
 94 95  1  0
 96 94  1  0
M  ISO  4   5 100  17 100  56 101  57 101
M  END
>  <TORSDO>  (57) 
F 21

>  <SCORE>  (57) 
-11.780

>  <name>  (57) 
56

>  <ligand_id>  (57) 
56

>  <original_smiles>  (57) 
[H]c1c([H])c([H])c2c(c1[H])C([H])([H])C([H])([H])C([H])([H])C2([H])N([H])C(=O)C1([H])N(C(=O)C([H])(N([H])C(=O)C([H])(N([H])C([H])([H])[H])C([H])([H])[H])C(C([H])([H])[H])(C([H])([H])[H])C([H])([H])[H])C([H])([H])c2c([H])c(OC([H])([H])C([H])([H])C(=O)C([H])(N([H])C(=O)c3sc(N([H])C(=O)N4C([H])([H])C([H])([H])C([H])([H])C([H])(n5nc(-c6c([H])c([H])c(Oc7c([H])c([H])c(F)c([H])c7F)c([H])c6[H])c(C(=O)N([H])[H])c5N([H])[H])C4([H])[H])nc3N([H])[H])C([H])([H])[H])c([H])c([H])c2C1([H])[H]

>  <smiles>  (57) 
[H]c1c([H])c([H])c2c(c1[H])C([H])([H])C([H])([H])C([H])([H])C2([H])N([H])C(=O)C1([H])N(C(=O)C([H])(N([H])C(=O)C([H])(N([H])C([H])([H])[H])C([H])([H])[H])C(C([H])([H])[H])(C([H])([H])[H])C([H])([H])[H])C([H])([H])c2c([H])c(OC([H])([H])C([H])([H])C(=O)C([H])(N([H])C(=O)c3sc(N([H])C(=O)N4C([H])([H])C([H])([H])C([H])([H])C([H])(n5nc(-c6c([H])c([H])c(Oc7c([H])c([H])c(F)c([H])c7F)c([H])c6[H])c(C(=O)N([H])[H])c5N([H])[H])C4([H])[H])nc3N([H])[H])C([H])([H])[H])c([H])c([H])c2C1([H])[H]

$$$$
57:0:0
     RDKit          3D

102111  0  0  1  0  0  0  0  0999 V2000
  -30.6810  -19.1150   22.4700 C   0  0  0  0  0  3  0  0  0  0  0  0
  -30.2840  -16.8190   23.0800 C   0  0  0  0  0  3  0  0  0  0  0  0
  -30.1260  -18.9490   21.1660 C   0  0  0  0  0  0  0  0  0  0  0  0
  -29.7750  -17.5990   20.7900 C   0  0  0  0  0  0  0  0  0  0  0  0
  -30.7720  -18.0810   23.4080 C   0  0  0  0  0  0  0  0  0  0  0  0
  -29.7840  -16.5860   21.7950 C   0  0  0  0  0  0  0  0  0  0  0  0
  -28.4480  -21.4300   18.4710 C   0  0  0  0  0  0  0  0  0  0  0  0
  -29.2100  -18.6950   18.4930 C   0  0  0  0  0  2  0  0  0  0  0  0
  -29.3860  -17.1820   19.3610 C   0  0  0  0  0  3  0  0  0  0  0  0
  -29.9690  -20.2840   20.3270 C   0  0  2  0  0  0  0  0  0  0  0  0
  -29.2220  -21.2680   21.2950 C   0  0  0  0  0  1  0  0  0  0  0  0
  -29.1610  -20.2400   19.0530 N   0  0  0  0  0  0  0  0  0  0  0  0
  -27.5200  -21.1080   17.7200 O   0  0  0  0  0  0  0  0  0  0  0  0
  -31.3010  -18.3160   24.6320 F   0  0  0  0  0  0  0  0  0  0  0  0
  -29.2960  -15.3490   21.5540 F   0  0  0  0  0  0  0  0  0  0  0  0
  -30.1970  -15.6630   18.9610 C   0  0  0  0  0  0  0  0  0  0  0  0
  -30.3690  -13.1190   18.4360 C   0  0  0  0  0  2  0  0  0  0  0  0
  -29.3310  -12.6560   17.3810 C   0  0  0  0  0  2  0  0  0  0  0  0
  -27.9910  -12.3000   18.0470 C   0  0  0  0  0  2  0  0  0  0  0  0
  -27.5730  -13.3630   19.0910 C   0  0  0  0  0  3  0  0  0  0  0  0
  -28.7250  -13.7770   20.0260 C   0  0  0  0  0  2  0  0  0  0  0  0
  -29.8160  -14.3060   19.1880 N   0  0  0  0  0  0  0  0  0  0  0  0
  -31.3090  -15.7310   18.4160 O   0  0  0  0  0  0  0  0  0  0  0  0
  -25.4250  -13.8210   20.3870 C   0  0  0  0  0  0  0  0  0  0  0  0
  -24.4490  -13.0030   20.8830 C   0  0  0  0  0  0  0  0  0  0  0  0
  -24.8730  -11.6670   20.6010 C   0  0  0  0  0  0  0  0  0  0  0  0
  -26.3740  -12.9850   19.8280 N   0  0  0  0  0  0  0  0  0  0  0  0
  -26.0670  -11.6750   20.0200 N   0  0  0  0  0  0  0  0  0  0  0  0
  -24.1760  -10.3880   20.7970 C   0  0  0  0  0  0  0  0  0  0  0  0
  -24.6420   -9.4230   21.7170 C   0  0  0  0  0  3  0  0  0  0  0  0
  -23.9400   -8.2120   21.9020 C   0  0  0  0  0  3  0  0  0  0  0  0
  -22.7590   -7.9560   21.1650 C   0  0  0  0  0  0  0  0  0  0  0  0
  -22.3120   -8.9100   20.2340 C   0  0  0  0  0  3  0  0  0  0  0  0
  -23.0140  -10.1120   20.0470 C   0  0  0  0  0  3  0  0  0  0  0  0
  -22.0260   -6.7970   21.2590 O   0  0  0  0  0  0  0  0  0  0  0  0
  -21.7420   -6.2210   22.4720 C   0  0  0  0  0  0  0  0  0  0  0  0
  -21.0790   -6.9300   23.4960 C   0  0  0  0  0  3  0  0  0  0  0  0
  -20.7470   -6.2790   24.7010 C   0  0  0  0  0  3  0  0  0  0  0  0
  -21.0640   -4.9200   24.8790 C   0  0  0  0  0  0  0  0  0  0  0  0
  -21.7180   -4.2100   23.8570 C   0  0  0  0  0  3  0  0  0  0  0  0
  -22.0540   -4.8590   22.6560 C   0  0  0  0  0  0  0  0  0  0  0  0
  -22.6650   -4.1640   21.6660 F   0  0  0  0  0  0  0  0  0  0  0  0
  -20.7370   -4.2920   26.0340 F   0  0  0  0  0  0  0  0  0  0  0  0
  -23.1490  -13.4400   21.4900 C   0  0  0  0  0  0  0  0  0  0  0  0
  -22.6400  -12.6840   22.4560 N   0  0  0  0  0  0  0  0  0  0  0  0
  -22.6030  -14.4870   21.1440 O   0  0  0  0  0  0  0  0  0  0  0  0
  -23.1000  -11.8370   22.7540 H   0  0  0  0  0  0  0  0  0  0  0  0
  -21.7760  -12.9560   22.9040 H   0  0  0  0  0  0  0  0  0  0  0  0
  -25.5750  -15.2050   20.3370 N   0  0  0  0  0  0  0  0  0  0  0  0
  -24.8630  -15.8370   20.6860 H   0  0  0  0  0  0  0  0  0  0  0  0
  -26.3370  -15.6850   19.8780 H   0  0  0  0  0  0  0  0  0  0  0  0
  -30.1390  -23.6510   18.4850 C   0  0  0  0  0  1  0  0  0  0  0  0
  -28.6760  -23.1980   18.3890 C   0  0  1  0  0  0  0  0  0  0  0  0
  -28.4330  -23.4020   17.0060 O   0  0  0  0  0  0  0  0  0  0  0  0
  -27.6610  -22.8730   16.8140 H   0  0  0  0  0  0  0  0  0  0  0  0
  -27.6830  -24.6050   18.9060 C   0  0  0  0  0  2  0  0  0  0  0  0
  -27.7590  -26.2250   18.6100 O   0  0  0  0  0  0  0  0  0  0  0  0
  -24.7610  -31.4220   23.1990 C   0  0  0  0  0  0  0  0  0  0  0  0
  -26.7550  -27.2710   18.9480 C   0  0  0  0  0  0  0  0  0  0  0  0
  -23.3120  -30.3530   21.5230 C   0  0  0  0  0  3  0  0  0  0  0  0
  -24.5020  -29.0770   19.6160 C   0  0  0  0  0  0  0  0  0  0  0  0
  -25.8280  -30.6310   21.0320 C   0  0  0  0  0  2  0  0  0  0  0  0
  -25.7760  -29.3770   20.1150 C   0  0  0  0  0  0  0  0  0  0  0  0
  -26.8950  -28.5000   19.7580 C   0  0  0  0  0  3  0  0  0  0  0  0
  -25.4460  -27.1240   18.4400 C   0  0  0  0  0  3  0  0  0  0  0  0
  -24.3570  -27.9750   18.7610 C   0  0  0  0  0  3  0  0  0  0  0  0
  -23.3190  -29.9540   20.0220 C   0  0  0  0  0  2  0  0  0  0  0  0
  -24.6640  -30.8190   21.9710 N   0  0  0  0  0  0  0  0  0  0  0  0
  -23.7690  -31.5900   23.9270 O   0  0  0  0  0  0  0  0  0  0  0  0
  -22.7580  -29.1790   22.3700 C   0  0  0  0  0  0  0  0  0  0  0  0
  -21.4780  -28.8150   22.1690 N   0  0  0  0  0  0  0  0  0  0  0  0
  -23.4880  -28.5980   23.1780 O   0  0  0  0  0  0  0  0  0  0  0  0
  -20.9350  -29.3430   21.4990 H   0  0  0  0  0  0  0  0  0  0  0  0
  -18.3980  -26.9010   22.2480 C   0  0  0  0  0  0  0  0  0  0  0  0
  -20.7920  -27.6950   22.8220 C   0  0  0  0  0  3  0  0  0  0  0  0
  -21.2660  -26.3420   22.2450 C   0  0  0  0  0  2  0  0  0  0  0  0
  -20.3840  -25.8310   21.1010 C   0  0  0  0  0  2  0  0  0  0  0  0
  -18.9390  -25.6500   21.5760 C   0  0  0  0  0  2  0  0  0  0  0  0
  -19.2680  -27.8680   22.8180 C   0  0  0  0  0  0  0  0  0  0  0  0
  -18.7110  -29.0260   23.4040 C   0  0  0  0  0  3  0  0  0  0  0  0
  -17.3170  -29.2250   23.4240 C   0  0  0  0  0  3  0  0  0  0  0  0
  -16.4610  -28.2580   22.8700 C   0  0  0  0  0  3  0  0  0  0  0  0
  -17.0010  -27.0980   22.2880 C   0  0  0  0  0  3  0  0  0  0  0  0
  -26.1250  -31.9480   23.7440 C   0  0  0  0  0  3  0  0  0  0  0  0
  -25.9070  -33.3070   24.2720 N   0  0  0  0  0  0  0  0  0  0  0  0
  -26.1880  -34.4400   23.6140 C   0  0  0  0  0  0  0  0  0  0  0  0
  -26.7190  -34.4480   22.5010 O   0  0  0  0  0  0  0  0  0  0  0  0
  -25.4220  -33.3750   25.1540 H   0  0  0  0  0  0  0  0  0  0  0  0
  -24.5210  -36.3260   23.6930 C   0  0  0  0  0  1  0  0  0  0  0  0
  -25.8230  -35.7750   24.2950 C   0  0  0  0  0  3  0  0  0  0  0  0
  -28.0680  -36.4860   24.9950 C   0  0  0  0  0  1  0  0  0  0  0  0
  -26.8870  -36.7990   24.1950 N   0  0  0  0  0  0  0  0  0  0  0  0
  -26.5410  -37.7090   24.4840 H   0  0  0  0  0  0  0  0  0  0  0  0
  -26.7410  -31.0220   24.8660 C   0  0  1  0  0  0  0  0  0  0  0  0
  -25.7370  -30.6420   25.9810 C   0  0  0  0  0  1  0  0  0  0  0  0
  -27.2860  -29.7090   24.2610 C   0  0  0  0  0  1  0  0  0  0  0  0
  -27.9440  -31.7330   25.5280 C   0  0  0  0  0  1  0  0  0  0  0  0
  -31.4230  -20.8090   20.0580 C   0  0  0  0  0  2  0  0  0  0  0  0
  -32.2080  -20.2300   18.8630 C   0  0  2  0  0  0  0  0  0  0  0  0
  -32.2720  -18.9020   18.9300 F   0  0  0  0  0  0  0  0  0  0  0  0
  -33.4520  -20.7060   18.9030 F   0  0  0  0  0  0  0  0  0  0  0  0
  -31.6740  -20.5940   17.6970 F   0  0  0  0  0  0  0  0  0  0  0  0
  1  5  1  0
  2  5  2  0
  3  1  2  0
  4  3  1  0
  4  6  2  0
  5 14  1  0
  6  2  1  0
  7 12  1  0
  8 12  1  0
  8  9  1  0
  9 16  1  0
  9  4  1  0
 10  3  1  0
 10 11  1  1
 12 10  1  0
 13  7  2  0
 15  6  1  0
 16 22  1  0
 17 22  1  0
 18 19  1  0
 18 17  1  0
 20 19  1  0
 20 27  1  0
 20 21  1  0
 22 21  1  0
 23 16  2  0
 24 25  2  0
 25 44  1  0
 26 29  1  0
 26 25  1  0
 27 28  1  0
 27 24  1  0
 28 26  2  0
 29 30  1  0
 30 31  2  0
 32 35  1  0
 32 31  1  0
 33 32  2  0
 34 33  1  0
 34 29  2  0
 35 36  1  0
 36 41  2  0
 36 37  1  0
 37 38  2  0
 38 39  1  0
 39 43  1  0
 40 39  2  0
 41 40  1  0
 42 41  1  0
 44 45  1  0
 45 47  1  0
 45 48  1  0
 46 44  2  0
 49 24  1  0
 49 50  1  0
 51 49  1  0
 53  7  1  0
 53 52  1  6
 53 56  1  0
 54 53  1  0
 55 54  1  0
 57 56  1  0
 57 59  1  0
 58 69  2  0
 59 64  1  0
 60 68  1  0
 60 70  1  0
 61 67  1  0
 61 63  1  0
 62 68  1  0
 63 62  1  0
 64 63  2  0
 65 66  1  0
 65 59  2  0
 66 61  2  0
 67 60  1  0
 68 58  1  0
 70 72  2  0
 71 70  1  0
 73 71  1  0
 74 83  2  0
 74 79  1  0
 75 71  1  0
 76 75  1  0
 77 78  1  0
 77 76  1  0
 78 74  1  0
 79 75  1  0
 79 80  2  0
 80 81  1  0
 82 81  2  0
 83 82  1  0
 84 58  1  0
 84 85  1  0
 84 94  1  0
 85 88  1  0
 86 85  1  0
 86 90  1  0
 87 86  2  0
 90 89  1  0
 92 90  1  0
 92 93  1  0
 92 91  1  0
 94 97  1  1
 94 95  1  0
 96 94  1  0
 98 10  1  0
 99101  1  6
 99100  1  0
 99 98  1  0
102 99  1  0
M  ISO  4   9 100  16 100  56 101  57 101
M  END
>  <TORSDO>  (58) 
F 21

>  <SCORE>  (58) 
-10.507

>  <name>  (58) 
57

>  <ligand_id>  (58) 
57

>  <original_smiles>  (58) 
[H]OC(C(=O)N1C([H])([H])C([H])(C(=O)N2C([H])([H])C([H])([H])C([H])([H])C([H])(n3nc(-c4c([H])c([H])c(Oc5c([H])c([H])c(F)c([H])c5F)c([H])c4[H])c(C(=O)N([H])[H])c3N([H])[H])C2([H])[H])c2c(F)c([H])c(F)c([H])c2C1(C([H])([H])[H])C([H])([H])C(F)(F)F)(C([H])([H])[H])C([H])([H])Oc1c([H])c([H])c2c(c1[H])C([H])([H])N(C(=O)C([H])(N([H])C(=O)C([H])(N([H])C([H])([H])[H])C([H])([H])[H])C(C([H])([H])[H])(C([H])([H])[H])C([H])([H])[H])C([H])(C(=O)N([H])C1([H])c3c([H])c([H])c([H])c([H])c3C([H])([H])C([H])([H])C1([H])[H])C2([H])[H]

>  <smiles>  (58) 
[H]OC(C(=O)N1C([H])([H])C([H])(C(=O)N2C([H])([H])C([H])([H])C([H])([H])C([H])(n3nc(-c4c([H])c([H])c(Oc5c([H])c([H])c(F)c([H])c5F)c([H])c4[H])c(C(=O)N([H])[H])c3N([H])[H])C2([H])[H])c2c(F)c([H])c(F)c([H])c2C1(C([H])([H])[H])C([H])([H])C(F)(F)F)(C([H])([H])[H])C([H])([H])Oc1c([H])c([H])c2c(c1[H])C([H])([H])N(C(=O)C([H])(N([H])C(=O)C([H])(N([H])C([H])([H])[H])C([H])([H])[H])C(C([H])([H])[H])(C([H])([H])[H])C([H])([H])[H])C([H])(C(=O)N([H])C1([H])c3c([H])c([H])c([H])c([H])c3C([H])([H])C([H])([H])C1([H])[H])C2([H])[H]

$$$$
58:0:0
     RDKit          3D

 93101  0  0  1  0  0  0  0  0999 V2000
  -29.2510  -21.6930   20.2710 C   0  0  0  0  0  0  0  0  0  0  0  0
  -30.1170  -20.8210   19.7220 N   0  0  0  0  0  0  0  0  0  0  0  0
  -28.3170  -21.4060   21.0290 O   0  0  0  0  0  0  0  0  0  0  0  0
  -30.8050  -21.3020   19.1530 H   0  0  0  0  0  0  0  0  0  0  0  0
  -30.6600  -14.5200   20.2670 C   0  0  0  0  0  0  0  0  0  0  0  0
  -30.3400  -12.3420   19.1890 C   0  0  0  0  0  2  0  0  0  0  0  0
  -29.3830  -12.5600   17.9980 C   0  0  0  0  0  2  0  0  0  0  0  0
  -27.9180  -12.4120   18.4510 C   0  0  0  0  0  2  0  0  0  0  0  0
  -27.5980  -13.2510   19.7180 C   0  0  0  0  0  3  0  0  0  0  0  0
  -28.6730  -13.0480   20.8110 C   0  0  0  0  0  2  0  0  0  0  0  0
  -29.9850  -13.3390   20.2110 N   0  0  0  0  0  0  0  0  0  0  0  0
  -31.8420  -14.6030   19.9240 O   0  0  0  0  0  0  0  0  0  0  0  0
  -31.3290  -18.7710   19.3200 C   0  0  0  0  0  0  0  0  0  0  0  0
  -30.2490  -19.4660   19.8200 C   0  0  0  0  0  0  0  0  0  0  0  0
  -30.1820  -16.9870   20.1840 C   0  0  0  0  0  0  0  0  0  0  0  0
  -32.5270  -19.3600   18.6280 C   0  0  0  0  0  1  0  0  0  0  0  0
  -31.2760  -17.3880   19.5260 N   0  0  0  0  0  0  0  0  0  0  0  0
  -29.8990  -15.6160   20.5080 N   0  0  0  0  0  0  0  0  0  0  0  0
  -29.1060  -18.3400   20.5620 S   0  0  0  0  0  0  0  0  0  0  0  0
  -28.9600  -15.4340   20.8270 H   0  0  0  0  0  0  0  0  0  0  0  0
  -25.2150  -13.8540   20.4700 C   0  0  0  0  0  0  0  0  0  0  0  0
  -24.1550  -13.0800   20.8530 C   0  0  0  0  0  0  0  0  0  0  0  0
  -24.6170  -11.7280   20.8160 C   0  0  0  0  0  0  0  0  0  0  0  0
  -26.2560  -12.9730   20.2200 N   0  0  0  0  0  0  0  0  0  0  0  0
  -25.9030  -11.6910   20.4880 N   0  0  0  0  0  0  0  0  0  0  0  0
  -23.8960  -10.4650   21.0140 C   0  0  0  0  0  0  0  0  0  0  0  0
  -24.3430   -9.4980   21.9430 C   0  0  0  0  0  3  0  0  0  0  0  0
  -23.6240   -8.2980   22.1280 C   0  0  0  0  0  3  0  0  0  0  0  0
  -22.4430   -8.0570   21.3870 C   0  0  0  0  0  0  0  0  0  0  0  0
  -22.0150   -9.0120   20.4480 C   0  0  0  0  0  3  0  0  0  0  0  0
  -22.7350  -10.2020   20.2600 C   0  0  0  0  0  3  0  0  0  0  0  0
  -21.6920   -6.9100   21.4840 O   0  0  0  0  0  0  0  0  0  0  0  0
  -21.6610   -6.1660   22.6360 C   0  0  0  0  0  0  0  0  0  0  0  0
  -21.2460   -6.7160   23.8670 C   0  0  0  0  0  3  0  0  0  0  0  0
  -21.1610   -5.8980   25.0120 C   0  0  0  0  0  3  0  0  0  0  0  0
  -21.4830   -4.5300   24.9260 C   0  0  0  0  0  0  0  0  0  0  0  0
  -21.8900   -3.9790   23.6980 C   0  0  0  0  0  3  0  0  0  0  0  0
  -21.9760   -4.7940   22.5560 C   0  0  0  0  0  0  0  0  0  0  0  0
  -22.3500   -4.2540   21.3710 F   0  0  0  0  0  0  0  0  0  0  0  0
  -21.3940   -3.7430   26.0220 F   0  0  0  0  0  0  0  0  0  0  0  0
  -22.7600  -13.5520   21.1470 C   0  0  0  0  0  0  0  0  0  0  0  0
  -22.0460  -12.8470   22.0170 N   0  0  0  0  0  0  0  0  0  0  0  0
  -22.3140  -14.5820   20.6400 O   0  0  0  0  0  0  0  0  0  0  0  0
  -22.4200  -12.0100   22.4380 H   0  0  0  0  0  0  0  0  0  0  0  0
  -21.1100  -13.1400   22.2590 H   0  0  0  0  0  0  0  0  0  0  0  0
  -25.3820  -15.2240   20.2920 N   0  0  0  0  0  0  0  0  0  0  0  0
  -24.6210  -15.8820   20.4080 H   0  0  0  0  0  0  0  0  0  0  0  0
  -26.2220  -15.6530   19.9260 H   0  0  0  0  0  0  0  0  0  0  0  0
  -29.5970  -23.1490   19.8180 C   0  0  0  0  0  0  0  0  0  0  0  0
  -30.4900  -23.3520   18.9820 O   0  0  0  0  0  0  0  0  0  0  0  0
  -28.8520  -24.3370   20.4590 C   0  0  0  0  0  2  0  0  0  0  0  0
  -28.6530  -25.5350   19.4790 C   0  0  0  0  0  2  0  0  0  0  0  0
  -28.4380  -26.7680   20.1900 O   0  0  0  0  0  0  0  0  0  0  0  0
  -24.5850  -31.8910   23.2540 C   0  0  0  0  0  0  0  0  0  0  0  0
  -27.2250  -27.4310   20.1780 C   0  0  0  0  0  0  0  0  0  0  0  0
  -23.3760  -30.4870   21.6140 C   0  0  0  0  0  3  0  0  0  0  0  0
  -24.8260  -28.9430   20.1980 C   0  0  0  0  0  0  0  0  0  0  0  0
  -25.9010  -30.8500   21.4060 C   0  0  0  0  0  2  0  0  0  0  0  0
  -25.9860  -29.4740   20.7720 C   0  0  0  0  0  0  0  0  0  0  0  0
  -27.1840  -28.7260   20.7490 C   0  0  0  0  0  3  0  0  0  0  0  0
  -26.0290  -26.8950   19.6470 C   0  0  0  0  0  3  0  0  0  0  0  0
  -24.8420  -27.6560   19.6390 C   0  0  0  0  0  3  0  0  0  0  0  0
  -23.5840  -29.8050   20.2370 C   0  0  0  0  0  2  0  0  0  0  0  0
  -24.6390  -31.0910   22.1520 N   0  0  0  0  0  0  0  0  0  0  0  0
  -23.5060  -32.1640   23.7950 O   0  0  0  0  0  0  0  0  0  0  0  0
  -22.7250  -29.4670   22.5800 C   0  0  0  0  0  0  0  0  0  0  0  0
  -21.4000  -29.2890   22.4610 N   0  0  0  0  0  0  0  0  0  0  0  0
  -23.4110  -28.8410   23.3920 O   0  0  0  0  0  0  0  0  0  0  0  0
  -20.9080  -29.8570   21.7850 H   0  0  0  0  0  0  0  0  0  0  0  0
  -18.0230  -28.0970   22.9570 C   0  0  0  0  0  0  0  0  0  0  0  0
  -20.5830  -28.3490   23.2290 C   0  0  0  0  0  3  0  0  0  0  0  0
  -20.6820  -26.9160   22.6530 C   0  0  0  0  0  2  0  0  0  0  0  0
  -19.5780  -26.5960   21.6410 C   0  0  0  0  0  2  0  0  0  0  0  0
  -18.1970  -26.7460   22.2820 C   0  0  0  0  0  2  0  0  0  0  0  0
  -19.1440  -28.8560   23.3860 C   0  0  0  0  0  0  0  0  0  0  0  0
  -18.9280  -30.1220   23.9730 C   0  0  0  0  0  3  0  0  0  0  0  0
  -17.6260  -30.6260   24.1400 C   0  0  0  0  0  3  0  0  0  0  0  0
  -16.5200  -29.8610   23.7300 C   0  0  0  0  0  3  0  0  0  0  0  0
  -16.7190  -28.6000   23.1400 C   0  0  0  0  0  3  0  0  0  0  0  0
  -25.8720  -32.5250   23.8710 C   0  0  0  0  0  3  0  0  0  0  0  0
  -26.3900  -31.7570   25.1480 C   0  0  1  0  0  0  0  0  0  0  0  0
  -25.2960  -31.5100   26.2130 C   0  0  0  0  0  1  0  0  0  0  0  0
  -26.9860  -30.3860   24.7500 C   0  0  0  0  0  1  0  0  0  0  0  0
  -27.5320  -32.5590   25.8200 C   0  0  0  0  0  1  0  0  0  0  0  0
  -25.5680  -33.9250   24.1970 N   0  0  0  0  0  0  0  0  0  0  0  0
  -25.8990  -34.9730   23.4310 C   0  0  0  0  0  0  0  0  0  0  0  0
  -26.5680  -34.8630   22.4010 O   0  0  0  0  0  0  0  0  0  0  0  0
  -24.9890  -34.0860   25.0070 H   0  0  0  0  0  0  0  0  0  0  0  0
  -24.1800  -36.7670   23.0560 C   0  0  0  0  0  1  0  0  0  0  0  0
  -25.4110  -36.3620   23.8810 C   0  0  0  0  0  3  0  0  0  0  0  0
  -27.5430  -37.2420   24.7240 C   0  0  0  0  0  1  0  0  0  0  0  0
  -26.4460  -37.4130   23.7770 N   0  0  0  0  0  0  0  0  0  0  0  0
  -26.0380  -38.3310   23.9290 H   0  0  0  0  0  0  0  0  0  0  0  0
  1  3  2  0
  2 14  1  0
  2  1  1  0
  4  2  1  0
  5 18  1  0
  6 11  1  0
  7  8  1  0
  7  6  1  0
  9  8  1  0
  9 24  1  0
  9 10  1  0
 11  5  1  0
 11 10  1  0
 12  5  2  0
 13 17  1  0
 13 14  2  0
 14 19  1  0
 15 18  1  0
 15 19  1  0
 16 13  1  0
 17 15  2  0
 18 20  1  0
 21 22  2  0
 22 41  1  0
 23 22  1  0
 23 26  1  0
 24 21  1  0
 24 25  1  0
 25 23  2  0
 26 27  1  0
 27 28  2  0
 29 32  1  0
 29 28  1  0
 30 29  2  0
 31 30  1  0
 31 26  2  0
 32 33  1  0
 33 34  1  0
 34 35  2  0
 36 35  1  0
 36 40  1  0
 37 36  2  0
 38 33  2  0
 38 37  1  0
 39 38  1  0
 41 42  1  0
 42 45  1  0
 42 44  1  0
 43 41  2  0
 46 47  1  0
 46 21  1  0
 48 46  1  0
 49  1  1  0
 49 51  1  0
 50 49  2  0
 52 53  1  0
 52 51  1  0
 54 65  2  0
 55 53  1  0
 55 60  1  0
 56 64  1  0
 56 66  1  0
 57 63  1  0
 57 59  1  0
 58 64  1  0
 59 58  1  0
 60 59  2  0
 61 55  2  0
 62 61  1  0
 62 57  2  0
 63 56  1  0
 64 54  1  0
 66 68  2  0
 67 66  1  0
 69 67  1  0
 70 79  2  0
 70 75  1  0
 71 67  1  0
 71 75  1  0
 72 71  1  0
 73 74  1  0
 73 72  1  0
 74 70  1  0
 75 76  2  0
 76 77  1  0
 78 77  2  0
 79 78  1  0
 80 54  1  0
 80 85  1  0
 80 81  1  0
 81 84  1  1
 81 82  1  0
 83 81  1  0
 85 88  1  0
 86 90  1  0
 86 85  1  0
 87 86  2  0
 90 89  1  0
 92 90  1  0
 92 93  1  0
 92 91  1  0
M  ISO  4   5 100  18 100  52 101  53 101
M  END
>  <TORSDO>  (59) 
F 19

>  <SCORE>  (59) 
-14.274

>  <name>  (59) 
58

>  <ligand_id>  (59) 
58

>  <original_smiles>  (59) 
[H]c1c([H])c([H])c2c(c1[H])C([H])([H])C([H])([H])C([H])([H])C2([H])N([H])C(=O)C1([H])N(C(=O)C([H])(N([H])C(=O)C([H])(N([H])C([H])([H])[H])C([H])([H])[H])C(C([H])([H])[H])(C([H])([H])[H])C([H])([H])[H])C([H])([H])c2c([H])c(OC([H])([H])C([H])([H])C(=O)C(=O)N([H])c3sc(N([H])C(=O)N4C([H])([H])C([H])([H])C([H])([H])C([H])(n5nc(-c6c([H])c([H])c(Oc7c([H])c([H])c(F)c([H])c7F)c([H])c6[H])c(C(=O)N([H])[H])c5N([H])[H])C4([H])[H])nc3C([H])([H])[H])c([H])c([H])c2C1([H])[H]

>  <smiles>  (59) 
[H]c1c([H])c([H])c2c(c1[H])C([H])([H])C([H])([H])C([H])([H])C2([H])N([H])C(=O)C1([H])N(C(=O)C([H])(N([H])C(=O)C([H])(N([H])C([H])([H])[H])C([H])([H])[H])C(C([H])([H])[H])(C([H])([H])[H])C([H])([H])[H])C([H])([H])c2c([H])c(OC([H])([H])C([H])([H])C(=O)C(=O)N([H])c3sc(N([H])C(=O)N4C([H])([H])C([H])([H])C([H])([H])C([H])(n5nc(-c6c([H])c([H])c(Oc7c([H])c([H])c(F)c([H])c7F)c([H])c6[H])c(C(=O)N([H])[H])c5N([H])[H])C4([H])[H])nc3C([H])([H])[H])c([H])c([H])c2C1([H])[H]

$$$$
59:0:0
     RDKit          3D

 93101  0  0  1  0  0  0  0  0999 V2000
  -29.6690  -18.6770   20.1740 C   0  0  0  0  0  0  0  0  0  0  0  0
  -29.5420  -18.8670   18.8070 C   0  0  0  0  0  0  0  0  0  0  0  0
  -29.1210  -21.0420   20.0430 C   0  0  0  0  0  0  0  0  0  0  0  0
  -29.0460  -23.6690   20.1840 C   0  0  0  0  0  0  0  0  0  0  0  0
  -29.7710  -17.8660   17.7160 C   0  0  0  0  0  1  0  0  0  0  0  0
  -29.3900  -19.9490   20.8450 N   0  0  0  0  0  0  0  0  0  0  0  0
  -28.5780  -22.3770   20.4270 N   0  0  0  0  0  0  0  0  0  0  0  0
  -30.2530  -23.9130   20.2660 O   0  0  0  0  0  0  0  0  0  0  0  0
  -29.1520  -20.5350   18.3590 S   0  0  0  0  0  0  0  0  0  0  0  0
  -27.5740  -22.3570   20.5410 H   0  0  0  0  0  0  0  0  0  0  0  0
  -30.5970  -14.8690   20.4460 C   0  0  0  0  0  0  0  0  0  0  0  0
  -30.4120  -12.5780   19.4230 C   0  0  0  0  0  2  0  0  0  0  0  0
  -29.4960  -12.5920   18.1820 C   0  0  0  0  0  2  0  0  0  0  0  0
  -28.0200  -12.4100   18.5920 C   0  0  0  0  0  2  0  0  0  0  0  0
  -27.6100  -13.3190   19.7810 C   0  0  0  0  0  3  0  0  0  0  0  0
  -28.6520  -13.2900   20.9170 C   0  0  0  0  0  2  0  0  0  0  0  0
  -29.9410  -13.6600   20.3200 N   0  0  0  0  0  0  0  0  0  0  0  0
  -31.8190  -14.8860   20.2720 O   0  0  0  0  0  0  0  0  0  0  0  0
  -30.2770  -17.3480   20.8060 C   0  0  0  0  0  0  0  0  0  0  0  0
  -29.8610  -16.0600   20.4540 N   0  0  0  0  0  0  0  0  0  0  0  0
  -31.1680  -17.4910   21.6510 O   0  0  0  0  0  0  0  0  0  0  0  0
  -28.9230  -16.0010   20.0970 H   0  0  0  0  0  0  0  0  0  0  0  0
  -25.2120  -13.9030   20.4670 C   0  0  0  0  0  0  0  0  0  0  0  0
  -24.1430  -13.1290   20.8220 C   0  0  0  0  0  0  0  0  0  0  0  0
  -24.6120  -11.7790   20.8160 C   0  0  0  0  0  0  0  0  0  0  0  0
  -26.2620  -13.0260   20.2590 N   0  0  0  0  0  0  0  0  0  0  0  0
  -25.9090  -11.7440   20.5340 N   0  0  0  0  0  0  0  0  0  0  0  0
  -23.8850  -10.5160   21.0020 C   0  0  0  0  0  0  0  0  0  0  0  0
  -24.3010   -9.5570   21.9510 C   0  0  0  0  0  3  0  0  0  0  0  0
  -23.5740   -8.3590   22.1250 C   0  0  0  0  0  3  0  0  0  0  0  0
  -22.4150   -8.1130   21.3500 C   0  0  0  0  0  0  0  0  0  0  0  0
  -22.0180   -9.0610   20.3900 C   0  0  0  0  0  3  0  0  0  0  0  0
  -22.7470  -10.2500   20.2140 C   0  0  0  0  0  3  0  0  0  0  0  0
  -21.6610   -6.9670   21.4330 O   0  0  0  0  0  0  0  0  0  0  0  0
  -21.5930   -6.2330   22.5890 C   0  0  0  0  0  0  0  0  0  0  0  0
  -21.1430   -6.7960   23.8040 C   0  0  0  0  0  3  0  0  0  0  0  0
  -21.0200   -5.9890   24.9510 C   0  0  0  0  0  3  0  0  0  0  0  0
  -21.3380   -4.6190   24.8860 C   0  0  0  0  0  0  0  0  0  0  0  0
  -21.7810   -4.0550   23.6770 C   0  0  0  0  0  3  0  0  0  0  0  0
  -21.9050   -4.8600   22.5310 C   0  0  0  0  0  0  0  0  0  0  0  0
  -22.3110   -4.3080   21.3630 F   0  0  0  0  0  0  0  0  0  0  0  0
  -21.2140   -3.8400   25.9860 F   0  0  0  0  0  0  0  0  0  0  0  0
  -22.7380  -13.6030   21.0540 C   0  0  0  0  0  0  0  0  0  0  0  0
  -21.9910  -12.9130   21.9090 N   0  0  0  0  0  0  0  0  0  0  0  0
  -22.3100  -14.6230   20.5130 O   0  0  0  0  0  0  0  0  0  0  0  0
  -22.3480  -12.0900   22.3690 H   0  0  0  0  0  0  0  0  0  0  0  0
  -21.0460  -13.2140   22.1040 H   0  0  0  0  0  0  0  0  0  0  0  0
  -25.3730  -15.2720   20.2750 N   0  0  0  0  0  0  0  0  0  0  0  0
  -24.5970  -15.9210   20.3550 H   0  0  0  0  0  0  0  0  0  0  0  0
  -26.2160  -15.7110   19.9300 H   0  0  0  0  0  0  0  0  0  0  0  0
  -28.1700  -24.9440   18.2160 C   0  0  0  0  0  1  0  0  0  0  0  0
  -28.0520  -24.8830   19.7580 C   0  0  0  0  0  3  0  0  0  0  0  0
  -28.2620  -26.3190   20.2500 O   0  0  0  0  0  0  0  0  0  0  0  0
  -24.6030  -31.9270   23.2460 C   0  0  0  0  0  0  0  0  0  0  0  0
  -27.1830  -27.2620   20.2020 C   0  0  0  0  0  0  0  0  0  0  0  0
  -23.4010  -30.5310   21.6100 C   0  0  0  0  0  3  0  0  0  0  0  0
  -24.8450  -28.9700   20.1910 C   0  0  0  0  0  0  0  0  0  0  0  0
  -25.9540  -30.8090   21.4430 C   0  0  0  0  0  2  0  0  0  0  0  0
  -26.0260  -29.4230   20.7920 C   0  0  0  0  0  0  0  0  0  0  0  0
  -27.1970  -28.5840   20.7850 C   0  0  0  0  0  3  0  0  0  0  0  0
  -25.9600  -26.8940   19.5890 C   0  0  0  0  0  3  0  0  0  0  0  0
  -24.8200  -27.7140   19.5790 C   0  0  0  0  0  3  0  0  0  0  0  0
  -23.6190  -29.8600   20.2320 C   0  0  0  0  0  2  0  0  0  0  0  0
  -24.6720  -31.1080   22.1550 N   0  0  0  0  0  0  0  0  0  0  0  0
  -23.5170  -32.2130   23.7720 O   0  0  0  0  0  0  0  0  0  0  0  0
  -22.7260  -29.5200   22.5690 C   0  0  0  0  0  0  0  0  0  0  0  0
  -21.4000  -29.3410   22.4330 N   0  0  0  0  0  0  0  0  0  0  0  0
  -23.3950  -28.9000   23.4000 O   0  0  0  0  0  0  0  0  0  0  0  0
  -20.9160  -29.8910   21.7360 H   0  0  0  0  0  0  0  0  0  0  0  0
  -18.0170  -28.1460   22.9230 C   0  0  0  0  0  0  0  0  0  0  0  0
  -20.5750  -28.4070   23.2040 C   0  0  0  0  0  3  0  0  0  0  0  0
  -20.6790  -26.9730   22.6370 C   0  0  0  0  0  2  0  0  0  0  0  0
  -19.5820  -26.6450   21.6190 C   0  0  0  0  0  2  0  0  0  0  0  0
  -18.1970  -26.7940   22.2540 C   0  0  0  0  0  2  0  0  0  0  0  0
  -19.1330  -28.9110   23.3540 C   0  0  0  0  0  0  0  0  0  0  0  0
  -18.9100  -30.1760   23.9400 C   0  0  0  0  0  3  0  0  0  0  0  0
  -17.6050  -30.6770   24.0990 C   0  0  0  0  0  3  0  0  0  0  0  0
  -16.5030  -29.9090   23.6830 C   0  0  0  0  0  3  0  0  0  0  0  0
  -16.7090  -28.6460   23.1010 C   0  0  0  0  0  3  0  0  0  0  0  0
  -25.8830  -32.5600   23.8700 C   0  0  0  0  0  3  0  0  0  0  0  0
  -25.5740  -33.9620   24.1950 N   0  0  0  0  0  0  0  0  0  0  0  0
  -25.9070  -35.0130   23.4340 C   0  0  0  0  0  0  0  0  0  0  0  0
  -26.5760  -34.9050   22.4030 O   0  0  0  0  0  0  0  0  0  0  0  0
  -24.9810  -34.1200   24.9970 H   0  0  0  0  0  0  0  0  0  0  0  0
  -24.1850  -36.8110   23.0770 C   0  0  0  0  0  1  0  0  0  0  0  0
  -25.4240  -36.4030   23.8900 C   0  0  0  0  0  3  0  0  0  0  0  0
  -27.5590  -37.2850   24.7240 C   0  0  0  0  0  1  0  0  0  0  0  0
  -26.4600  -37.4540   23.7760 N   0  0  0  0  0  0  0  0  0  0  0  0
  -26.0560  -38.3750   23.9200 H   0  0  0  0  0  0  0  0  0  0  0  0
  -26.3890  -31.7950   25.1550 C   0  0  1  0  0  0  0  0  0  0  0  0
  -25.2890  -31.5680   26.2170 C   0  0  0  0  0  1  0  0  0  0  0  0
  -26.9710  -30.4130   24.7780 C   0  0  0  0  0  1  0  0  0  0  0  0
  -27.5380  -32.5900   25.8180 C   0  0  0  0  0  1  0  0  0  0  0  0
  1 19  1  0
  1  6  1  0
  2  1  2  0
  3  7  1  0
  3  6  2  0
  4  8  2  0
  4  7  1  0
  5  2  1  0
  7 10  1  0
  9  2  1  0
  9  3  1  0
 11 20  1  0
 12 17  1  0
 13 14  1  0
 13 12  1  0
 15 14  1  0
 15 26  1  0
 15 16  1  0
 17 11  1  0
 17 16  1  0
 18 11  2  0
 19 21  2  0
 20 19  1  0
 22 20  1  0
 23 24  2  0
 24 43  1  0
 25 24  1  0
 25 28  1  0
 26 23  1  0
 26 27  1  0
 27 25  2  0
 28 29  1  0
 29 30  2  0
 31 34  1  0
 31 30  1  0
 32 31  2  0
 33 32  1  0
 33 28  2  0
 34 35  1  0
 35 36  1  0
 36 37  2  0
 38 37  1  0
 38 42  1  0
 39 38  2  0
 40 35  2  0
 40 39  1  0
 41 40  1  0
 43 44  1  0
 44 47  1  0
 44 46  1  0
 45 43  2  0
 48 49  1  0
 48 23  1  0
 50 48  1  0
 52 51  1  0
 52  4  1  0
 52 53  1  0
 54 65  2  0
 55 53  1  0
 55 60  1  0
 56 64  1  0
 56 66  1  0
 57 63  1  0
 57 59  1  0
 58 64  1  0
 59 58  1  0
 60 59  2  0
 61 55  2  0
 62 61  1  0
 62 57  2  0
 63 56  1  0
 64 54  1  0
 66 68  2  0
 67 66  1  0
 69 67  1  0
 70 79  2  0
 70 75  1  0
 71 67  1  0
 71 75  1  0
 72 71  1  0
 73 74  1  0
 73 72  1  0
 74 70  1  0
 75 76  2  0
 76 77  1  0
 78 77  2  0
 79 78  1  0
 80 54  1  0
 80 81  1  0
 80 90  1  0
 81 84  1  0
 82 86  1  0
 82 81  1  0
 83 82  2  0
 86 85  1  0
 88 86  1  0
 88 89  1  0
 88 87  1  0
 90 93  1  1
 90 91  1  0
 92 90  1  0
M  ISO  4  11 100  20 100  52 101  53 101
M  END
>  <TORSDO>  (60) 
F 17

>  <SCORE>  (60) 
-15.076

>  <name>  (60) 
59

>  <ligand_id>  (60) 
59

>  <original_smiles>  (60) 
[H]c1c([H])c([H])c2c(c1[H])C([H])([H])C([H])([H])C([H])([H])C2([H])N([H])C(=O)C1([H])N(C(=O)C([H])(N([H])C(=O)C([H])(N([H])C([H])([H])[H])C([H])([H])[H])C(C([H])([H])[H])(C([H])([H])[H])C([H])([H])[H])C([H])([H])c2c([H])c(OC([H])(C(=O)N([H])c3nc(C(=O)N([H])C(=O)N4C([H])([H])C([H])([H])C([H])([H])C([H])(n5nc(-c6c([H])c([H])c(Oc7c([H])c([H])c(F)c([H])c7F)c([H])c6[H])c(C(=O)N([H])[H])c5N([H])[H])C4([H])[H])c(C([H])([H])[H])s3)C([H])([H])[H])c([H])c([H])c2C1([H])[H]

>  <smiles>  (60) 
[H]c1c([H])c([H])c2c(c1[H])C([H])([H])C([H])([H])C([H])([H])C2([H])N([H])C(=O)C1([H])N(C(=O)C([H])(N([H])C(=O)C([H])(N([H])C([H])([H])[H])C([H])([H])[H])C(C([H])([H])[H])(C([H])([H])[H])C([H])([H])[H])C([H])([H])c2c([H])c(OC([H])(C(=O)N([H])c3nc(C(=O)N([H])C(=O)N4C([H])([H])C([H])([H])C([H])([H])C([H])(n5nc(-c6c([H])c([H])c(Oc7c([H])c([H])c(F)c([H])c7F)c([H])c6[H])c(C(=O)N([H])[H])c5N([H])[H])C4([H])[H])c(C([H])([H])[H])s3)C([H])([H])[H])c([H])c([H])c2C1([H])[H]

$$$$
60:0:0
     RDKit          3D

 96104  0  0  1  0  0  0  0  0999 V2000
  -31.7300  -20.3990   19.0290 C   0  0  0  0  0  1  0  0  0  0  0  0
  -30.3650  -20.2760   19.7280 C   0  0  0  0  0  3  0  0  0  0  0  0
  -30.7200  -14.4330   20.0230 C   0  0  0  0  0  0  0  0  0  0  0  0
  -30.3310  -12.3320   18.7650 C   0  0  0  0  0  2  0  0  0  0  0  0
  -29.2890  -12.6120   17.6600 C   0  0  0  0  0  2  0  0  0  0  0  0
  -27.8490  -12.4740   18.1980 C   0  0  0  0  0  2  0  0  0  0  0  0
  -27.6360  -13.2290   19.5400 C   0  0  0  0  0  3  0  0  0  0  0  0
  -28.7740  -12.9030   20.5340 C   0  0  0  0  0  2  0  0  0  0  0  0
  -30.0540  -13.2490   19.8840 N   0  0  0  0  0  0  0  0  0  0  0  0
  -31.7970  -14.6570   19.4600 O   0  0  0  0  0  0  0  0  0  0  0  0
  -30.3670  -19.0450   20.6580 C   0  0  0  0  0  0  0  0  0  0  0  0
  -30.4400  -18.9910   22.0390 C   0  0  0  0  0  0  0  0  0  0  0  0
  -30.3390  -16.7440   21.0040 C   0  0  0  0  0  0  0  0  0  0  0  0
  -30.2900  -17.7390   20.0930 N   0  0  0  0  0  0  0  0  0  0  0  0
  -30.0540  -15.3660   20.7390 N   0  0  0  0  0  0  0  0  0  0  0  0
  -30.4580  -17.3490   22.6450 S   0  0  0  0  0  0  0  0  0  0  0  0
  -29.2620  -14.9950   21.2380 H   0  0  0  0  0  0  0  0  0  0  0  0
  -25.3060  -13.8450   20.4430 C   0  0  0  0  0  0  0  0  0  0  0  0
  -24.2580  -13.0740   20.8710 C   0  0  0  0  0  0  0  0  0  0  0  0
  -24.6960  -11.7190   20.7670 C   0  0  0  0  0  0  0  0  0  0  0  0
  -26.3190  -12.9570   20.1100 N   0  0  0  0  0  0  0  0  0  0  0  0
  -25.9590  -11.6720   20.3610 N   0  0  0  0  0  0  0  0  0  0  0  0
  -23.9680  -10.4610   20.9790 C   0  0  0  0  0  0  0  0  0  0  0  0
  -24.4320   -9.4840   21.8870 C   0  0  0  0  0  3  0  0  0  0  0  0
  -23.7070   -8.2900   22.0880 C   0  0  0  0  0  3  0  0  0  0  0  0
  -22.5010   -8.0660   21.3790 C   0  0  0  0  0  0  0  0  0  0  0  0
  -22.0560   -9.0300   20.4600 C   0  0  0  0  0  3  0  0  0  0  0  0
  -22.7820  -10.2170   20.2580 C   0  0  0  0  0  3  0  0  0  0  0  0
  -21.7440   -6.9260   21.4900 O   0  0  0  0  0  0  0  0  0  0  0  0
  -21.6980   -6.2010   22.6530 C   0  0  0  0  0  0  0  0  0  0  0  0
  -21.2780   -6.7770   23.8720 C   0  0  0  0  0  3  0  0  0  0  0  0
  -21.1800   -5.9790   25.0300 C   0  0  0  0  0  3  0  0  0  0  0  0
  -21.4900   -4.6070   24.9690 C   0  0  0  0  0  0  0  0  0  0  0  0
  -21.9010   -4.0310   23.7530 C   0  0  0  0  0  3  0  0  0  0  0  0
  -22.0020   -4.8260   22.6000 C   0  0  0  0  0  0  0  0  0  0  0  0
  -22.3800   -4.2610   21.4260 F   0  0  0  0  0  0  0  0  0  0  0  0
  -21.3870   -3.8380   26.0790 F   0  0  0  0  0  0  0  0  0  0  0  0
  -22.8940  -13.5620   21.2640 C   0  0  0  0  0  0  0  0  0  0  0  0
  -22.2290  -12.8600   22.1770 N   0  0  0  0  0  0  0  0  0  0  0  0
  -22.4270  -14.6000   20.7980 O   0  0  0  0  0  0  0  0  0  0  0  0
  -22.6190  -12.0190   22.5770 H   0  0  0  0  0  0  0  0  0  0  0  0
  -21.3180  -13.1730   22.4810 H   0  0  0  0  0  0  0  0  0  0  0  0
  -25.4740  -15.2180   20.2910 N   0  0  0  0  0  0  0  0  0  0  0  0
  -24.7230  -15.8740   20.4790 H   0  0  0  0  0  0  0  0  0  0  0  0
  -26.2960  -15.6590   19.9000 H   0  0  0  0  0  0  0  0  0  0  0  0
  -30.4700  -20.0250   22.9700 N   0  0  0  0  0  0  0  0  0  0  0  0
  -29.8290  -20.7930   22.7980 H   0  0  0  0  0  0  0  0  0  0  0  0
  -30.4020  -19.7410   23.9430 H   0  0  0  0  0  0  0  0  0  0  0  0
  -29.2860  -22.5780   19.7450 C   0  0  0  0  0  0  0  0  0  0  0  0
  -30.0310  -21.6030   20.3290 N   0  0  0  0  0  0  0  0  0  0  0  0
  -28.6600  -22.3890   18.6970 O   0  0  0  0  0  0  0  0  0  0  0  0
  -30.5010  -21.8460   21.1930 H   0  0  0  0  0  0  0  0  0  0  0  0
  -29.2920  -24.0010   20.4500 C   0  0  0  0  0  0  0  0  0  0  0  0
  -30.1220  -24.2990   21.3190 O   0  0  0  0  0  0  0  0  0  0  0  0
  -28.1810  -25.0010   20.0020 C   0  0  0  0  0  2  0  0  0  0  0  0
  -28.3680  -26.4090   20.3720 O   0  0  0  0  0  0  0  0  0  0  0  0
  -24.6120  -31.8030   23.2590 C   0  0  0  0  0  0  0  0  0  0  0  0
  -27.2370  -27.2270   20.2900 C   0  0  0  0  0  0  0  0  0  0  0  0
  -23.4140  -30.3920   21.6230 C   0  0  0  0  0  3  0  0  0  0  0  0
  -24.8720  -28.8230   20.2350 C   0  0  0  0  0  0  0  0  0  0  0  0
  -25.9560  -30.7040   21.4620 C   0  0  0  0  0  2  0  0  0  0  0  0
  -26.0340  -29.3210   20.8370 C   0  0  0  0  0  0  0  0  0  0  0  0
  -27.2200  -28.5340   20.8560 C   0  0  0  0  0  3  0  0  0  0  0  0
  -26.0490  -26.7740   19.6640 C   0  0  0  0  0  3  0  0  0  0  0  0
  -24.8810  -27.5530   19.6420 C   0  0  0  0  0  3  0  0  0  0  0  0
  -23.6380  -29.6990   20.2540 C   0  0  0  0  0  2  0  0  0  0  0  0
  -24.6780  -30.9830   22.1720 N   0  0  0  0  0  0  0  0  0  0  0  0
  -23.5260  -32.0960   23.7800 O   0  0  0  0  0  0  0  0  0  0  0  0
  -22.7350  -29.3920   22.5880 C   0  0  0  0  0  0  0  0  0  0  0  0
  -21.4130  -29.2090   22.4350 N   0  0  0  0  0  0  0  0  0  0  0  0
  -23.3970  -28.7820   23.4310 O   0  0  0  0  0  0  0  0  0  0  0  0
  -20.9400  -29.7490   21.7230 H   0  0  0  0  0  0  0  0  0  0  0  0
  -18.0300  -28.0040   22.8580 C   0  0  0  0  0  0  0  0  0  0  0  0
  -20.5770  -28.2880   23.2070 C   0  0  0  0  0  3  0  0  0  0  0  0
  -20.7090  -26.8410   22.6790 C   0  0  0  0  0  2  0  0  0  0  0  0
  -19.6430  -26.4800   21.6400 C   0  0  0  0  0  2  0  0  0  0  0  0
  -18.2400  -26.6350   22.2310 C   0  0  0  0  0  2  0  0  0  0  0  0
  -19.1300  -28.7850   23.3030 C   0  0  0  0  0  0  0  0  0  0  0  0
  -18.8820  -30.0650   23.8460 C   0  0  0  0  0  3  0  0  0  0  0  0
  -17.5690  -30.5610   23.9530 C   0  0  0  0  0  3  0  0  0  0  0  0
  -16.4840  -29.7750   23.5270 C   0  0  0  0  0  3  0  0  0  0  0  0
  -16.7160  -28.4990   22.9830 C   0  0  0  0  0  3  0  0  0  0  0  0
  -25.8950  -32.4320   23.8860 C   0  0  0  0  0  3  0  0  0  0  0  0
  -26.3970  -31.6650   25.1710 C   0  0  1  0  0  0  0  0  0  0  0  0
  -25.2950  -31.4370   26.2310 C   0  0  0  0  0  1  0  0  0  0  0  0
  -26.9780  -30.2830   24.7920 C   0  0  0  0  0  1  0  0  0  0  0  0
  -27.5470  -32.4560   25.8390 C   0  0  0  0  0  1  0  0  0  0  0  0
  -25.5930  -33.8320   24.2070 N   0  0  0  0  0  0  0  0  0  0  0  0
  -25.9180  -34.8770   23.4350 C   0  0  0  0  0  0  0  0  0  0  0  0
  -26.5790  -34.7620   22.3990 O   0  0  0  0  0  0  0  0  0  0  0  0
  -25.0080  -33.9960   25.0140 H   0  0  0  0  0  0  0  0  0  0  0  0
  -24.1810  -36.6610   23.0890 C   0  0  0  0  0  1  0  0  0  0  0  0
  -25.4370  -36.2700   23.8830 C   0  0  0  0  0  3  0  0  0  0  0  0
  -27.5810  -37.1670   24.6680 C   0  0  0  0  0  1  0  0  0  0  0  0
  -26.4630  -37.3240   23.7420 N   0  0  0  0  0  0  0  0  0  0  0  0
  -26.0590  -38.2440   23.8910 H   0  0  0  0  0  0  0  0  0  0  0  0
  2  1  1  0
  2 50  1  0
  2 11  1  0
  3 15  1  0
  4  9  1  0
  5  6  1  0
  5  4  1  0
  7  6  1  0
  7 21  1  0
  7  8  1  0
  9  3  1  0
  9  8  1  0
 10  3  2  0
 11 12  2  0
 12 16  1  0
 12 46  1  0
 13 16  1  0
 14 11  1  0
 14 13  2  0
 15 13  1  0
 15 17  1  0
 18 19  2  0
 19 38  1  0
 20 19  1  0
 20 23  1  0
 21 22  1  0
 21 18  1  0
 22 20  2  0
 23 24  1  0
 24 25  2  0
 26 29  1  0
 26 25  1  0
 27 26  2  0
 28 27  1  0
 28 23  2  0
 29 30  1  0
 30 31  1  0
 31 32  2  0
 33 32  1  0
 33 37  1  0
 34 33  2  0
 35 30  2  0
 35 34  1  0
 36 35  1  0
 38 39  1  0
 39 42  1  0
 39 41  1  0
 40 38  2  0
 43 18  1  0
 43 44  1  0
 45 43  1  0
 46 48  1  0
 47 46  1  0
 49 50  1  0
 49 53  1  0
 50 52  1  0
 51 49  2  0
 53 54  2  0
 55 56  1  0
 55 53  1  0
 57 68  2  0
 58 56  1  0
 58 63  1  0
 59 67  1  0
 59 69  1  0
 60 66  1  0
 60 62  1  0
 61 67  1  0
 62 63  2  0
 62 61  1  0
 64 58  2  0
 65 64  1  0
 65 60  2  0
 66 59  1  0
 67 57  1  0
 69 71  2  0
 70 69  1  0
 72 70  1  0
 73 82  2  0
 73 78  1  0
 74 70  1  0
 74 78  1  0
 75 74  1  0
 76 77  1  0
 76 75  1  0
 77 73  1  0
 78 79  2  0
 79 80  1  0
 81 80  2  0
 82 81  1  0
 83 57  1  0
 83 88  1  0
 83 84  1  0
 84 87  1  1
 84 85  1  0
 86 84  1  0
 88 91  1  0
 89 93  1  0
 89 88  1  0
 90 89  2  0
 93 92  1  0
 95 93  1  0
 95 96  1  0
 95 94  1  0
M  ISO  4   3 100  15 100  55 101  56 101
M  END
>  <TORSDO>  (61) 
F 20

>  <SCORE>  (61) 
-13.379

>  <name>  (61) 
60

>  <ligand_id>  (61) 
60

>  <original_smiles>  (61) 
[H]c1c([H])c([H])c2c(c1[H])C([H])([H])C([H])([H])C([H])([H])C2([H])N([H])C(=O)C1([H])N(C(=O)C([H])(N([H])C(=O)C([H])(N([H])C([H])([H])[H])C([H])([H])[H])C(C([H])([H])[H])(C([H])([H])[H])C([H])([H])[H])C([H])([H])c2c([H])c(OC([H])([H])C(=O)C(=O)N([H])C([H])(c3nc(N([H])C(=O)N4C([H])([H])C([H])([H])C([H])([H])C([H])(n5nc(-c6c([H])c([H])c(Oc7c([H])c([H])c(F)c([H])c7F)c([H])c6[H])c(C(=O)N([H])[H])c5N([H])[H])C4([H])[H])sc3N([H])[H])C([H])([H])[H])c([H])c([H])c2C1([H])[H]

>  <smiles>  (61) 
[H]c1c([H])c([H])c2c(c1[H])C([H])([H])C([H])([H])C([H])([H])C2([H])N([H])C(=O)C1([H])N(C(=O)C([H])(N([H])C(=O)C([H])(N([H])C([H])([H])[H])C([H])([H])[H])C(C([H])([H])[H])(C([H])([H])[H])C([H])([H])[H])C([H])([H])c2c([H])c(OC([H])([H])C(=O)C(=O)N([H])C([H])(c3nc(N([H])C(=O)N4C([H])([H])C([H])([H])C([H])([H])C([H])(n5nc(-c6c([H])c([H])c(Oc7c([H])c([H])c(F)c([H])c7F)c([H])c6[H])c(C(=O)N([H])[H])c5N([H])[H])C4([H])[H])sc3N([H])[H])C([H])([H])[H])c([H])c([H])c2C1([H])[H]

$$$$
61:0:0
     RDKit          3D

 98106  0  0  1  0  0  0  0  0999 V2000
  -30.7610  -15.0330   19.8580 C   0  0  0  0  0  0  0  0  0  0  0  0
  -30.4970  -12.7180   19.0380 C   0  0  0  0  0  2  0  0  0  0  0  0
  -29.5420  -12.6940   17.8290 C   0  0  0  0  0  2  0  0  0  0  0  0
  -28.0870  -12.5330   18.3060 C   0  0  0  0  0  2  0  0  0  0  0  0
  -27.7140  -13.5260   19.4400 C   0  0  0  0  0  3  0  0  0  0  0  0
  -28.7970  -13.5720   20.5440 C   0  0  0  0  0  2  0  0  0  0  0  0
  -30.0920  -13.8430   19.9040 N   0  0  0  0  0  0  0  0  0  0  0  0
  -31.8760  -15.0980   19.3310 O   0  0  0  0  0  0  0  0  0  0  0  0
  -31.5700  -19.9650   19.9330 C   0  0  0  0  0  3  0  0  0  0  0  0
  -32.3640  -18.9060   20.3630 C   0  0  0  0  0  0  0  0  0  0  0  0
  -30.2140  -19.7240   19.6530 C   0  0  0  0  0  0  0  0  0  0  0  0
  -30.5780  -17.4700   20.2120 C   0  0  0  0  0  0  0  0  0  0  0  0
  -29.6320  -22.0640   18.8120 C   0  0  0  0  0  0  0  0  0  0  0  0
  -31.8490  -17.6770   20.5510 N   0  0  0  0  0  0  0  0  0  0  0  0
  -29.7440  -18.4480   19.8110 N   0  0  0  0  0  0  0  0  0  0  0  0
  -29.3510  -20.8010   19.2390 N   0  0  0  0  0  0  0  0  0  0  0  0
  -30.1100  -16.1600   20.2560 N   0  0  0  0  0  0  0  0  0  0  0  0
  -30.7660  -22.4760   18.5470 O   0  0  0  0  0  0  0  0  0  0  0  0
  -28.3670  -20.5830   19.2850 H   0  0  0  0  0  0  0  0  0  0  0  0
  -29.1510  -16.0460   20.5350 H   0  0  0  0  0  0  0  0  0  0  0  0
  -25.3460  -14.1060   20.2560 C   0  0  0  0  0  0  0  0  0  0  0  0
  -24.3040  -13.3240   20.6720 C   0  0  0  0  0  0  0  0  0  0  0  0
  -24.7750  -11.9760   20.6240 C   0  0  0  0  0  0  0  0  0  0  0  0
  -26.3880  -13.2350   19.9820 N   0  0  0  0  0  0  0  0  0  0  0  0
  -26.0530  -11.9500   20.2640 N   0  0  0  0  0  0  0  0  0  0  0  0
  -24.0680  -10.7090   20.8460 C   0  0  0  0  0  0  0  0  0  0  0  0
  -24.5080   -9.7740   21.8110 C   0  0  0  0  0  3  0  0  0  0  0  0
  -23.7990   -8.5720   22.0200 C   0  0  0  0  0  3  0  0  0  0  0  0
  -22.6350   -8.2940   21.2640 C   0  0  0  0  0  0  0  0  0  0  0  0
  -22.2130   -9.2170   20.2900 C   0  0  0  0  0  3  0  0  0  0  0  0
  -22.9240  -10.4110   20.0800 C   0  0  0  0  0  3  0  0  0  0  0  0
  -21.8960   -7.1410   21.3820 O   0  0  0  0  0  0  0  0  0  0  0  0
  -21.8200   -6.4520   22.5660 C   0  0  0  0  0  0  0  0  0  0  0  0
  -21.2920   -7.0370   23.7360 C   0  0  0  0  0  3  0  0  0  0  0  0
  -21.1690   -6.2720   24.9130 C   0  0  0  0  0  3  0  0  0  0  0  0
  -21.5640   -4.9200   24.9180 C   0  0  0  0  0  0  0  0  0  0  0  0
  -22.0860   -4.3340   23.7520 C   0  0  0  0  0  3  0  0  0  0  0  0
  -22.2100   -5.0970   22.5780 C   0  0  0  0  0  0  0  0  0  0  0  0
  -22.6940   -4.5220   21.4520 F   0  0  0  0  0  0  0  0  0  0  0  0
  -21.4390   -4.1810   26.0460 F   0  0  0  0  0  0  0  0  0  0  0  0
  -22.9150  -13.7900   21.0040 C   0  0  0  0  0  0  0  0  0  0  0  0
  -22.2480  -13.1180   21.9350 N   0  0  0  0  0  0  0  0  0  0  0  0
  -22.4310  -14.7880   20.4710 O   0  0  0  0  0  0  0  0  0  0  0  0
  -22.6490  -12.3100   22.3860 H   0  0  0  0  0  0  0  0  0  0  0  0
  -21.3220  -13.4180   22.2050 H   0  0  0  0  0  0  0  0  0  0  0  0
  -25.4900  -15.4780   20.0680 N   0  0  0  0  0  0  0  0  0  0  0  0
  -24.7200  -16.1240   20.2080 H   0  0  0  0  0  0  0  0  0  0  0  0
  -26.3160  -15.9260   19.6920 H   0  0  0  0  0  0  0  0  0  0  0  0
  -34.1710  -19.6620   21.9770 C   0  0  0  0  0  1  0  0  0  0  0  0
  -33.8580  -19.0700   20.5930 C   0  0  0  0  0  3  0  0  0  0  0  0
  -34.4610  -17.7490   20.4090 N   0  0  0  0  0  4  0  0  0  0  0  0
  -33.6840  -17.1360   20.6240 H   0  0  0  0  0  0  0  0  0  0  0  0
  -35.2430  -17.5880   21.0120 H   0  0  0  0  0  0  0  0  0  0  0  0
  -34.7020  -17.6060   19.4470 H   0  0  0  0  0  0  0  0  0  0  0  0
  -28.4430  -23.0320   18.6030 C   0  0  0  0  0  2  0  0  0  0  0  0
  -28.7940  -24.5550   18.4700 C   0  0  0  0  0  2  0  0  0  0  0  0
  -27.5370  -25.4580   18.5900 C   0  0  0  0  0  2  0  0  0  0  0  0
  -27.7300  -26.8950   18.6440 O   0  0  0  0  0  0  0  0  0  0  0  0
  -24.4620  -31.6010   22.9450 C   0  0  0  0  0  0  0  0  0  0  0  0
  -26.5870  -27.6480   18.9010 C   0  0  0  0  0  0  0  0  0  0  0  0
  -23.0150  -30.3990   21.3440 C   0  0  0  0  0  3  0  0  0  0  0  0
  -24.2260  -29.1170   19.5060 C   0  0  0  0  0  0  0  0  0  0  0  0
  -25.4800  -30.8420   20.7970 C   0  0  0  0  0  2  0  0  0  0  0  0
  -25.4680  -29.5730   19.9650 C   0  0  0  0  0  0  0  0  0  0  0  0
  -26.6510  -28.8500   19.6570 C   0  0  0  0  0  3  0  0  0  0  0  0
  -25.3130  -27.2280   18.4410 C   0  0  0  0  0  3  0  0  0  0  0  0
  -24.1470  -27.9460   18.7420 C   0  0  0  0  0  3  0  0  0  0  0  0
  -23.0020  -29.9270   19.8690 C   0  0  0  0  0  2  0  0  0  0  0  0
  -24.3470  -30.9560   21.7500 N   0  0  0  0  0  0  0  0  0  0  0  0
  -23.4790  -31.7670   23.6820 O   0  0  0  0  0  0  0  0  0  0  0  0
  -22.5370  -29.2360   22.2450 C   0  0  0  0  0  0  0  0  0  0  0  0
  -21.2210  -28.9620   22.2230 N   0  0  0  0  0  0  0  0  0  0  0  0
  -23.3390  -28.5870   22.9210 O   0  0  0  0  0  0  0  0  0  0  0  0
  -20.6270  -29.5430   21.6500 H   0  0  0  0  0  0  0  0  0  0  0  0
  -18.0530  -27.2870   22.6870 C   0  0  0  0  0  0  0  0  0  0  0  0
  -20.5510  -27.8910   22.9620 C   0  0  0  0  0  3  0  0  0  0  0  0
  -20.8480  -26.5100   22.3350 C   0  0  0  0  0  2  0  0  0  0  0  0
  -19.7950  -26.0700   21.3140 C   0  0  0  0  0  2  0  0  0  0  0  0
  -18.4100  -26.0000   21.9650 C   0  0  0  0  0  2  0  0  0  0  0  0
  -19.0560  -28.1830   23.1410 C   0  0  0  0  0  0  0  0  0  0  0  0
  -18.6660  -29.3810   23.7740 C   0  0  0  0  0  3  0  0  0  0  0  0
  -17.3050  -29.6900   23.9610 C   0  0  0  0  0  3  0  0  0  0  0  0
  -16.3160  -28.7910   23.5260 C   0  0  0  0  0  3  0  0  0  0  0  0
  -16.6900  -27.5920   22.8930 C   0  0  0  0  0  3  0  0  0  0  0  0
  -25.8250  -32.1810   23.4320 C   0  0  0  0  0  3  0  0  0  0  0  0
  -26.5620  -31.2480   24.4690 C   0  0  1  0  0  0  0  0  0  0  0  0
  -25.6750  -30.8280   25.6650 C   0  0  0  0  0  1  0  0  0  0  0  0
  -27.0710  -29.9610   23.7800 C   0  0  0  0  0  1  0  0  0  0  0  0
  -27.8100  -31.9710   25.0290 C   0  0  0  0  0  1  0  0  0  0  0  0
  -25.5620  -33.5010   24.0150 N   0  0  0  0  0  0  0  0  0  0  0  0
  -25.8860  -34.6670   23.4380 C   0  0  0  0  0  0  0  0  0  0  0  0
  -26.5100  -34.7370   22.3760 O   0  0  0  0  0  0  0  0  0  0  0  0
  -25.0080  -33.5220   24.8590 H   0  0  0  0  0  0  0  0  0  0  0  0
  -24.1920  -36.5240   23.4670 C   0  0  0  0  0  1  0  0  0  0  0  0
  -25.4460  -35.9580   24.1540 C   0  0  0  0  0  3  0  0  0  0  0  0
  -27.6220  -36.6380   25.0630 C   0  0  0  0  0  1  0  0  0  0  0  0
  -26.5000  -36.9940   24.1980 N   0  0  0  0  0  0  0  0  0  0  0  0
  -26.1220  -37.8820   24.5190 H   0  0  0  0  0  0  0  0  0  0  0  0
  1  7  1  0
  1 17  1  0
  2  7  1  0
  3  4  1  0
  3  2  1  0
  5  4  1  0
  5 24  1  0
  5  6  1  0
  7  6  1  0
  8  1  2  0
  9 10  2  0
 10 14  1  0
 10 50  1  0
 11 15  2  0
 11  9  1  0
 12 17  1  0
 12 14  2  0
 13 16  1  0
 15 12  1  0
 16 19  1  0
 16 11  1  0
 17 20  1  0
 18 13  2  0
 21 22  2  0
 22 41  1  0
 23 22  1  0
 23 26  1  0
 24 21  1  0
 24 25  1  0
 25 23  2  0
 26 27  1  0
 27 28  2  0
 29 32  1  0
 29 28  1  0
 30 29  2  0
 31 30  1  0
 31 26  2  0
 32 33  1  0
 33 38  2  0
 33 34  1  0
 34 35  2  0
 35 36  1  0
 36 40  1  0
 37 36  2  0
 38 37  1  0
 39 38  1  0
 41 42  1  0
 42 45  1  0
 42 44  1  0
 43 41  2  0
 46 47  1  0
 46 21  1  0
 48 46  1  0
 50 49  1  0
 51 50  1  0
 51 52  1  0
 51 53  1  0
 54 51  1  0
 55 13  1  0
 56 57  1  0
 56 55  1  0
 57 58  1  0
 58 60  1  0
 59 70  2  0
 60 65  1  0
 61 69  1  0
 61 71  1  0
 62 68  1  0
 62 64  1  0
 63 69  1  0
 64 63  1  0
 65 64  2  0
 66 67  1  0
 66 60  2  0
 67 62  2  0
 68 61  1  0
 69 59  1  0
 71 73  2  0
 72 71  1  0
 74 72  1  0
 75 84  2  0
 75 80  1  0
 76 72  1  0
 76 80  1  0
 77 76  1  0
 78 79  1  0
 78 77  1  0
 79 75  1  0
 80 81  2  0
 81 82  1  0
 83 82  2  0
 84 83  1  0
 85 59  1  0
 85 90  1  0
 85 86  1  0
 86 89  1  1
 86 87  1  0
 88 86  1  0
 90 93  1  0
 91 90  1  0
 91 95  1  0
 92 91  2  0
 95 94  1  0
 95 97  1  0
 97 98  1  0
 97 96  1  0
M  ISO  4   1 100  17 100  57 101  58 101
M  END
>  <TORSDO>  (62) 
F 20

>  <SCORE>  (62) 
-12.027

>  <name>  (62) 
61

>  <ligand_id>  (62) 
61

>  <original_smiles>  (62) 
[H]c1c(N([H])C(=O)C([H])([H])C([H])([H])C([H])([H])Oc2c([H])c([H])c3c(c2[H])C([H])([H])N(C(=O)C([H])(N([H])C(=O)C([H])(N([H])C([H])([H])[H])C([H])([H])[H])C(C([H])([H])[H])(C([H])([H])[H])C([H])([H])[H])C([H])(C(=O)N([H])C2([H])c4c([H])c([H])c([H])c([H])c4C([H])([H])C([H])([H])C2([H])[H])C3([H])[H])nc(N([H])C(=O)N2C([H])([H])C([H])([H])C([H])([H])C([H])(n3nc(-c4c([H])c([H])c(Oc5c([H])c([H])c(F)c([H])c5F)c([H])c4[H])c(C(=O)N([H])[H])c3N([H])[H])C2([H])[H])nc1C([H])(C([H])([H])[H])[N+]([H])([H])[H]

>  <smiles>  (62) 
[H]c1c(N([H])C(=O)C([H])([H])C([H])([H])C([H])([H])Oc2c([H])c([H])c3c(c2[H])C([H])([H])N(C(=O)C([H])(N([H])C(=O)C([H])(N([H])C([H])([H])[H])C([H])([H])[H])C(C([H])([H])[H])(C([H])([H])[H])C([H])([H])[H])C([H])(C(=O)N([H])C2([H])c4c([H])c([H])c([H])c([H])c4C([H])([H])C([H])([H])C2([H])[H])C3([H])[H])nc(N([H])C(=O)N2C([H])([H])C([H])([H])C([H])([H])C([H])(n3nc(-c4c([H])c([H])c(Oc5c([H])c([H])c(F)c([H])c5F)c([H])c4[H])c(C(=O)N([H])[H])c3N([H])[H])C2([H])[H])nc1C([H])(C([H])([H])[H])[N+]([H])([H])[H]

$$$$
62:0:0
     RDKit          3D

 94102  0  0  1  0  0  0  0  0999 V2000
  -28.9610  -22.8150   20.1650 C   0  0  0  0  0  0  0  0  0  0  0  0
  -29.0990  -21.5500   20.7440 N   0  0  0  0  0  0  0  0  0  0  0  0
  -29.3450  -23.0580   19.0220 O   0  0  0  0  0  0  0  0  0  0  0  0
  -28.8600  -21.5880   21.7230 H   0  0  0  0  0  0  0  0  0  0  0  0
  -30.2360  -18.2390   19.2040 C   0  0  0  0  0  0  0  0  0  0  0  0
  -29.9570  -19.6780   19.1760 C   0  0  0  0  0  0  0  0  0  0  0  0
  -30.0090  -17.5830   20.3990 C   0  0  0  0  0  0  0  0  0  0  0  0
  -29.4850  -20.2480   20.3480 C   0  0  0  0  0  0  0  0  0  0  0  0
  -30.6550  -17.6100   18.1290 F   0  0  0  0  0  0  0  0  0  0  0  0
  -30.1470  -20.3750   18.0790 F   0  0  0  0  0  0  0  0  0  0  0  0
  -29.4040  -18.8720   21.4950 S   0  0  0  0  0  0  0  0  0  0  0  0
  -30.6740  -15.9950   22.3040 C   0  0  0  0  0  1  0  0  0  0  0  0
  -30.0800  -16.0590   20.8810 C   0  0  0  0  0  3  0  0  0  0  0  0
  -30.7510  -14.8280   20.0670 C   0  0  0  0  0  0  0  0  0  0  0  0
  -30.5070  -12.5990   18.9130 C   0  0  0  0  0  2  0  0  0  0  0  0
  -29.4850  -12.7190   17.7600 C   0  0  0  0  0  2  0  0  0  0  0  0
  -28.0430  -12.5300   18.2730 C   0  0  0  0  0  2  0  0  0  0  0  0
  -27.7570  -13.3610   19.5520 C   0  0  0  0  0  3  0  0  0  0  0  0
  -28.8820  -13.1810   20.5930 C   0  0  0  0  0  2  0  0  0  0  0  0
  -30.1400  -13.5920   19.9510 N   0  0  0  0  0  0  0  0  0  0  0  0
  -31.8570  -14.9910   19.5390 O   0  0  0  0  0  0  0  0  0  0  0  0
  -25.4120  -13.9480   20.4170 C   0  0  0  0  0  0  0  0  0  0  0  0
  -24.3650  -13.1710   20.8310 C   0  0  0  0  0  0  0  0  0  0  0  0
  -24.8190  -11.8190   20.7480 C   0  0  0  0  0  0  0  0  0  0  0  0
  -26.4380  -13.0700   20.1080 N   0  0  0  0  0  0  0  0  0  0  0  0
  -26.0900  -11.7830   20.3660 N   0  0  0  0  0  0  0  0  0  0  0  0
  -24.0980  -10.5560   20.9540 C   0  0  0  0  0  0  0  0  0  0  0  0
  -24.5560   -9.5860   21.8720 C   0  0  0  0  0  3  0  0  0  0  0  0
  -23.8360   -8.3870   22.0670 C   0  0  0  0  0  3  0  0  0  0  0  0
  -22.6430   -8.1510   21.3430 C   0  0  0  0  0  0  0  0  0  0  0  0
  -22.2030   -9.1110   20.4140 C   0  0  0  0  0  3  0  0  0  0  0  0
  -22.9240  -10.2990   20.2170 C   0  0  0  0  0  3  0  0  0  0  0  0
  -21.8910   -7.0060   21.4480 O   0  0  0  0  0  0  0  0  0  0  0  0
  -21.8370   -6.2850   22.6140 C   0  0  0  0  0  0  0  0  0  0  0  0
  -21.4120   -6.8640   23.8290 C   0  0  0  0  0  3  0  0  0  0  0  0
  -21.3050   -6.0700   24.9890 C   0  0  0  0  0  3  0  0  0  0  0  0
  -21.6110   -4.6980   24.9340 C   0  0  0  0  0  0  0  0  0  0  0  0
  -22.0290   -4.1170   23.7220 C   0  0  0  0  0  3  0  0  0  0  0  0
  -22.1380   -4.9090   22.5650 C   0  0  0  0  0  0  0  0  0  0  0  0
  -22.5210   -4.3400   21.3970 F   0  0  0  0  0  0  0  0  0  0  0  0
  -21.5020   -3.9320   26.0440 F   0  0  0  0  0  0  0  0  0  0  0  0
  -22.9870  -13.6470   21.1900 C   0  0  0  0  0  0  0  0  0  0  0  0
  -22.3110  -12.9460   22.0920 N   0  0  0  0  0  0  0  0  0  0  0  0
  -22.5200  -14.6780   20.7060 O   0  0  0  0  0  0  0  0  0  0  0  0
  -22.7010  -12.1120   22.5050 H   0  0  0  0  0  0  0  0  0  0  0  0
  -21.3890  -13.2460   22.3750 H   0  0  0  0  0  0  0  0  0  0  0  0
  -25.5720  -15.3210   20.2570 N   0  0  0  0  0  0  0  0  0  0  0  0
  -24.8140  -15.9750   20.4220 H   0  0  0  0  0  0  0  0  0  0  0  0
  -26.4010  -15.7660   19.8850 H   0  0  0  0  0  0  0  0  0  0  0  0
  -28.0850  -25.2140   21.0550 C   0  0  0  0  0  3  0  0  0  0  0  0
  -28.2890  -23.8260   21.0780 C   0  0  0  0  0  0  0  0  0  0  0  0
  -27.7000  -23.2620   22.1490 O   0  0  0  0  0  0  0  0  0  0  0  0
  -27.4360  -22.3860   21.8960 H   0  0  0  0  0  0  0  0  0  0  0  0
  -28.3730  -26.3470   20.2480 O   0  0  0  0  0  0  0  0  0  0  0  0
  -24.6960  -31.8880   23.2360 C   0  0  0  0  0  0  0  0  0  0  0  0
  -27.3330  -27.3060   20.1840 C   0  0  0  0  0  0  0  0  0  0  0  0
  -23.5060  -30.4850   21.5910 C   0  0  0  0  0  3  0  0  0  0  0  0
  -24.9710  -28.9410   20.1630 C   0  0  0  0  0  0  0  0  0  0  0  0
  -26.0490  -30.8040   21.4210 C   0  0  0  0  0  2  0  0  0  0  0  0
  -26.1400  -29.4230   20.7700 C   0  0  0  0  0  0  0  0  0  0  0  0
  -27.3270  -28.6160   20.7730 C   0  0  0  0  0  3  0  0  0  0  0  0
  -26.1450  -26.8920   19.5490 C   0  0  0  0  0  3  0  0  0  0  0  0
  -24.9780  -27.6830   19.5410 C   0  0  0  0  0  3  0  0  0  0  0  0
  -23.7300  -29.8120   20.2100 C   0  0  0  0  0  2  0  0  0  0  0  0
  -24.7680  -31.0770   22.1390 N   0  0  0  0  0  0  0  0  0  0  0  0
  -23.6080  -32.1600   23.7660 O   0  0  0  0  0  0  0  0  0  0  0  0
  -22.8400  -29.4670   22.5490 C   0  0  0  0  0  0  0  0  0  0  0  0
  -21.5150  -29.2830   22.4150 N   0  0  0  0  0  0  0  0  0  0  0  0
  -23.5160  -28.8470   23.3740 O   0  0  0  0  0  0  0  0  0  0  0  0
  -21.0270  -29.8350   21.7240 H   0  0  0  0  0  0  0  0  0  0  0  0
  -18.1480  -28.0340   22.8740 C   0  0  0  0  0  0  0  0  0  0  0  0
  -20.6970  -28.3410   23.1830 C   0  0  0  0  0  3  0  0  0  0  0  0
  -20.8320  -26.9040   22.6270 C   0  0  0  0  0  2  0  0  0  0  0  0
  -19.7530  -26.5520   21.5970 C   0  0  0  0  0  2  0  0  0  0  0  0
  -18.3580  -26.6810   22.2170 C   0  0  0  0  0  2  0  0  0  0  0  0
  -19.2470  -28.8210   23.3140 C   0  0  0  0  0  0  0  0  0  0  0  0
  -18.9960  -30.0840   23.8900 C   0  0  0  0  0  3  0  0  0  0  0  0
  -17.6810  -30.5650   24.0290 C   0  0  0  0  0  3  0  0  0  0  0  0
  -16.5960  -29.7780   23.6050 C   0  0  0  0  0  3  0  0  0  0  0  0
  -16.8310  -28.5130   23.0330 C   0  0  0  0  0  3  0  0  0  0  0  0
  -25.9710  -32.5270   23.8640 C   0  0  0  0  0  3  0  0  0  0  0  0
  -26.4820  -31.7630   25.1470 C   0  0  1  0  0  0  0  0  0  0  0  0
  -25.3820  -31.5270   26.2090 C   0  0  0  0  0  1  0  0  0  0  0  0
  -27.0690  -30.3840   24.7670 C   0  0  0  0  0  1  0  0  0  0  0  0
  -27.6260  -32.5610   25.8130 C   0  0  0  0  0  1  0  0  0  0  0  0
  -25.6560  -33.9260   24.1890 N   0  0  0  0  0  0  0  0  0  0  0  0
  -25.9890  -34.9790   23.4300 C   0  0  0  0  0  0  0  0  0  0  0  0
  -26.6620  -34.8750   22.4010 O   0  0  0  0  0  0  0  0  0  0  0  0
  -25.0580  -34.0790   24.9870 H   0  0  0  0  0  0  0  0  0  0  0  0
  -24.2560  -36.7670   23.0710 C   0  0  0  0  0  1  0  0  0  0  0  0
  -25.4980  -36.3680   23.8840 C   0  0  0  0  0  3  0  0  0  0  0  0
  -27.6300  -37.2600   24.7120 C   0  0  0  0  0  1  0  0  0  0  0  0
  -26.5270  -37.4230   23.7690 N   0  0  0  0  0  0  0  0  0  0  0  0
  -26.1190  -38.3420   23.9140 H   0  0  0  0  0  0  0  0  0  0  0  0
  1  2  1  0
  1 51  1  0
  2  4  1  0
  3  1  2  0
  5  7  2  0
  6  5  1  0
  6  8  2  0
  7 13  1  0
  7 11  1  0
  8  2  1  0
  8 11  1  0
  9  5  1  0
 10  6  1  0
 13 12  1  0
 14 13  1  0
 15 20  1  0
 16 17  1  0
 16 15  1  0
 18 17  1  0
 18 25  1  0
 18 19  1  0
 20 14  1  0
 20 19  1  0
 21 14  2  0
 22 23  2  0
 23 42  1  0
 24 23  1  0
 24 27  1  0
 25 26  1  0
 25 22  1  0
 26 24  2  0
 27 28  1  0
 28 29  2  0
 30 33  1  0
 30 29  1  0
 31 30  2  0
 32 31  1  0
 32 27  2  0
 33 34  1  0
 34 35  1  0
 35 36  2  0
 37 36  1  0
 37 41  1  0
 38 37  2  0
 39 34  2  0
 39 38  1  0
 40 39  1  0
 42 43  1  0
 43 46  1  0
 43 45  1  0
 44 42  2  0
 47 22  1  0
 47 48  1  0
 49 47  1  0
 50 51  2  0
 51 52  1  0
 53 52  1  0
 54 50  1  0
 55 66  2  0
 56 54  1  0
 56 61  1  0
 57 65  1  0
 57 67  1  0
 58 64  1  0
 58 60  1  0
 59 65  1  0
 60 61  2  0
 60 59  1  0
 62 56  2  0
 63 62  1  0
 63 58  2  0
 64 57  1  0
 65 55  1  0
 67 69  2  0
 68 67  1  0
 70 68  1  0
 71 80  2  0
 71 76  1  0
 72 68  1  0
 72 76  1  0
 73 72  1  0
 74 75  1  0
 74 73  1  0
 75 71  1  0
 76 77  2  0
 77 78  1  0
 79 78  2  0
 80 79  1  0
 81 55  1  0
 81 86  1  0
 81 82  1  0
 82 85  1  1
 82 83  1  0
 84 82  1  0
 86 89  1  0
 87 91  1  0
 87 86  1  0
 88 87  2  0
 91 90  1  0
 93 91  1  0
 93 94  1  0
 93 92  1  0
M  ISO  4  13 100  14 100  50 101  54 101
M  END
>  <TORSDO>  (63) 
F 20

>  <SCORE>  (63) 
-13.321

>  <name>  (63) 
62

>  <ligand_id>  (63) 
62

>  <original_smiles>  (63) 
[H]OC(C(=O)N([H])c1sc(C([H])(C(=O)N2C([H])([H])C([H])([H])C([H])([H])C([H])(n3nc(-c4c([H])c([H])c(Oc5c([H])c([H])c(F)c([H])c5F)c([H])c4[H])c(C(=O)N([H])[H])c3N([H])[H])C2([H])[H])C([H])([H])[H])c(F)c1F)=C([H])Oc1c([H])c([H])c2c(c1[H])C([H])([H])N(C(=O)C([H])(N([H])C(=O)C([H])(N([H])C([H])([H])[H])C([H])([H])[H])C(C([H])([H])[H])(C([H])([H])[H])C([H])([H])[H])C([H])(C(=O)N([H])C1([H])c3c([H])c([H])c([H])c([H])c3C([H])([H])C([H])([H])C1([H])[H])C2([H])[H]

>  <smiles>  (63) 
[H]OC(C(=O)N([H])c1sc(C([H])(C(=O)N2C([H])([H])C([H])([H])C([H])([H])C([H])(n3nc(-c4c([H])c([H])c(Oc5c([H])c([H])c(F)c([H])c5F)c([H])c4[H])c(C(=O)N([H])[H])c3N([H])[H])C2([H])[H])C([H])([H])[H])c(F)c1F)=C([H])Oc1c([H])c([H])c2c(c1[H])C([H])([H])N(C(=O)C([H])(N([H])C(=O)C([H])(N([H])C([H])([H])[H])C([H])([H])[H])C(C([H])([H])[H])(C([H])([H])[H])C([H])([H])[H])C([H])(C(=O)N([H])C1([H])c3c([H])c([H])c([H])c([H])c3C([H])([H])C([H])([H])C1([H])[H])C2([H])[H]

$$$$
63:0:0
     RDKit          3D

 95103  0  0  1  0  0  0  0  0999 V2000
  -28.6860  -23.3750   20.6050 C   0  0  0  0  0  0  0  0  0  0  0  0
  -29.2880  -22.2380   21.0770 N   0  0  0  0  0  0  0  0  0  0  0  0
  -28.1150  -23.4210   19.5150 O   0  0  0  0  0  0  0  0  0  0  0  0
  -29.8860  -22.4220   21.8720 H   0  0  0  0  0  0  0  0  0  0  0  0
  -28.4340  -20.2120   19.8340 C   0  0  0  0  0  3  0  0  0  0  0  0
  -28.7160  -18.7920   19.7180 C   0  0  0  0  0  0  0  0  0  0  0  0
  -29.7640  -18.3650   20.5120 C   0  0  0  0  0  0  0  0  0  0  0  0
  -29.2620  -20.9130   20.6870 C   0  0  0  0  0  0  0  0  0  0  0  0
  -27.9500  -17.8980   18.7870 C   0  0  0  0  0  1  0  0  0  0  0  0
  -30.4110  -19.7690   21.3730 S   0  0  0  0  0  0  0  0  0  0  0  0
  -30.6730  -14.6710   20.1760 C   0  0  0  0  0  0  0  0  0  0  0  0
  -30.3200  -12.4700   19.0870 C   0  0  0  0  0  2  0  0  0  0  0  0
  -29.3420  -12.6150   17.9050 C   0  0  0  0  0  2  0  0  0  0  0  0
  -27.8900  -12.4510   18.3920 C   0  0  0  0  0  2  0  0  0  0  0  0
  -27.5750  -13.3100   19.6460 C   0  0  0  0  0  3  0  0  0  0  0  0
  -28.6800  -13.1910   20.7210 C   0  0  0  0  0  2  0  0  0  0  0  0
  -29.9590  -13.5070   20.0750 N   0  0  0  0  0  0  0  0  0  0  0  0
  -31.8470  -14.6940   19.8000 O   0  0  0  0  0  0  0  0  0  0  0  0
  -30.5550  -17.0680   20.6670 C   0  0  0  0  0  0  0  0  0  0  0  0
  -29.9950  -15.8340   20.4550 N   0  0  0  0  0  0  0  0  0  0  0  0
  -31.7380  -17.1890   21.0120 O   0  0  0  0  0  0  0  0  0  0  0  0
  -28.9920  -15.7910   20.4470 H   0  0  0  0  0  0  0  0  0  0  0  0
  -25.2120  -13.8760   20.4710 C   0  0  0  0  0  0  0  0  0  0  0  0
  -24.1650  -13.0910   20.8670 C   0  0  0  0  0  0  0  0  0  0  0  0
  -24.6350  -11.7430   20.8010 C   0  0  0  0  0  0  0  0  0  0  0  0
  -26.2520  -13.0080   20.1850 N   0  0  0  0  0  0  0  0  0  0  0  0
  -25.9140  -11.7190   20.4460 N   0  0  0  0  0  0  0  0  0  0  0  0
  -23.9230  -10.4740   20.9970 C   0  0  0  0  0  0  0  0  0  0  0  0
  -24.3680   -9.5140   21.9320 C   0  0  0  0  0  3  0  0  0  0  0  0
  -23.6550   -8.3110   22.1180 C   0  0  0  0  0  3  0  0  0  0  0  0
  -22.4830   -8.0570   21.3670 C   0  0  0  0  0  0  0  0  0  0  0  0
  -22.0560   -9.0040   20.4200 C   0  0  0  0  0  3  0  0  0  0  0  0
  -22.7700  -10.2010   20.2330 C   0  0  0  0  0  3  0  0  0  0  0  0
  -21.7420   -6.9040   21.4620 O   0  0  0  0  0  0  0  0  0  0  0  0
  -21.6740   -6.1850   22.6270 C   0  0  0  0  0  0  0  0  0  0  0  0
  -21.1610   -6.7430   23.8190 C   0  0  0  0  0  3  0  0  0  0  0  0
  -21.0450   -5.9470   24.9760 C   0  0  0  0  0  3  0  0  0  0  0  0
  -21.4320   -4.5950   24.9420 C   0  0  0  0  0  0  0  0  0  0  0  0
  -21.9370   -4.0350   23.7550 C   0  0  0  0  0  3  0  0  0  0  0  0
  -22.0550   -4.8280   22.6010 C   0  0  0  0  0  0  0  0  0  0  0  0
  -22.5230   -4.2800   21.4540 F   0  0  0  0  0  0  0  0  0  0  0  0
  -21.3120   -3.8270   26.0510 F   0  0  0  0  0  0  0  0  0  0  0  0
  -22.7750  -13.5550   21.1950 C   0  0  0  0  0  0  0  0  0  0  0  0
  -22.0810  -12.8390   22.0710 N   0  0  0  0  0  0  0  0  0  0  0  0
  -22.3150  -14.5870   20.7070 O   0  0  0  0  0  0  0  0  0  0  0  0
  -22.4680  -12.0040   22.4850 H   0  0  0  0  0  0  0  0  0  0  0  0
  -21.1480  -13.1290   22.3310 H   0  0  0  0  0  0  0  0  0  0  0  0
  -25.3600  -15.2500   20.3100 N   0  0  0  0  0  0  0  0  0  0  0  0
  -24.5900  -15.8930   20.4560 H   0  0  0  0  0  0  0  0  0  0  0  0
  -26.1870  -15.6990   19.9440 H   0  0  0  0  0  0  0  0  0  0  0  0
  -28.6580  -25.8540   21.3430 C   0  0  0  0  0  3  0  0  0  0  0  0
  -28.7970  -24.5070   21.5690 C   0  0  0  0  0  0  0  0  0  0  0  0
  -29.0150  -24.1690   22.8520 O   0  0  0  0  0  0  0  0  0  0  0  0
  -28.7510  -23.2620   22.9510 H   0  0  0  0  0  0  0  0  0  0  0  0
  -28.4320  -26.5780   20.1850 O   0  0  0  0  0  0  0  0  0  0  0  0
  -24.6300  -31.8930   23.2450 C   0  0  0  0  0  0  0  0  0  0  0  0
  -27.3350  -27.4280   20.1900 C   0  0  0  0  0  0  0  0  0  0  0  0
  -23.4610  -30.4910   21.5800 C   0  0  0  0  0  3  0  0  0  0  0  0
  -24.9480  -28.9680   20.1650 C   0  0  0  0  0  0  0  0  0  0  0  0
  -25.9940  -30.8520   21.4260 C   0  0  0  0  0  2  0  0  0  0  0  0
  -26.0990  -29.4800   20.7800 C   0  0  0  0  0  0  0  0  0  0  0  0
  -27.3000  -28.7170   20.7920 C   0  0  0  0  0  3  0  0  0  0  0  0
  -26.1710  -26.9520   19.5580 C   0  0  0  0  0  3  0  0  0  0  0  0
  -24.9820  -27.7070   19.5470 C   0  0  0  0  0  3  0  0  0  0  0  0
  -23.6990  -29.8240   20.1990 C   0  0  0  0  0  2  0  0  0  0  0  0
  -24.7130  -31.0960   22.1420 N   0  0  0  0  0  0  0  0  0  0  0  0
  -23.5380  -32.1560   23.7690 O   0  0  0  0  0  0  0  0  0  0  0  0
  -22.8010  -29.4610   22.5260 C   0  0  0  0  0  0  0  0  0  0  0  0
  -21.4760  -29.2840   22.3920 N   0  0  0  0  0  0  0  0  0  0  0  0
  -23.4780  -28.8250   23.3370 O   0  0  0  0  0  0  0  0  0  0  0  0
  -20.9880  -29.8500   21.7110 H   0  0  0  0  0  0  0  0  0  0  0  0
  -18.0920  -28.1130   22.8950 C   0  0  0  0  0  0  0  0  0  0  0  0
  -20.6550  -28.3370   23.1490 C   0  0  0  0  0  3  0  0  0  0  0  0
  -20.7350  -26.9180   22.5380 C   0  0  0  0  0  2  0  0  0  0  0  0
  -19.6200  -26.6320   21.5270 C   0  0  0  0  0  2  0  0  0  0  0  0
  -18.2470  -26.7770   22.1870 C   0  0  0  0  0  2  0  0  0  0  0  0
  -19.2220  -28.8520   23.3330 C   0  0  0  0  0  0  0  0  0  0  0  0
  -19.0220  -30.1040   23.9550 C   0  0  0  0  0  3  0  0  0  0  0  0
  -17.7250  -30.6160   24.1420 C   0  0  0  0  0  3  0  0  0  0  0  0
  -16.6080  -29.8730   23.7200 C   0  0  0  0  0  3  0  0  0  0  0  0
  -16.7930  -28.6220   23.1030 C   0  0  0  0  0  3  0  0  0  0  0  0
  -25.9010  -32.5330   23.8870 C   0  0  0  0  0  3  0  0  0  0  0  0
  -26.3940  -31.7730   25.1790 C   0  0  1  0  0  0  0  0  0  0  0  0
  -25.2790  -31.5370   26.2250 C   0  0  0  0  0  1  0  0  0  0  0  0
  -26.9890  -30.3940   24.8080 C   0  0  0  0  0  1  0  0  0  0  0  0
  -27.5270  -32.5750   25.8610 C   0  0  0  0  0  1  0  0  0  0  0  0
  -25.5820  -33.9330   24.2000 N   0  0  0  0  0  0  0  0  0  0  0  0
  -25.9170  -34.9790   23.4320 C   0  0  0  0  0  0  0  0  0  0  0  0
  -26.5970  -34.8680   22.4080 O   0  0  0  0  0  0  0  0  0  0  0  0
  -24.9830  -34.0940   24.9950 H   0  0  0  0  0  0  0  0  0  0  0  0
  -24.1900  -36.7630   23.0350 C   0  0  0  0  0  1  0  0  0  0  0  0
  -25.4190  -36.3700   23.8700 C   0  0  0  0  0  3  0  0  0  0  0  0
  -27.5330  -37.2750   24.7330 C   0  0  0  0  0  1  0  0  0  0  0  0
  -26.4520  -37.4240   23.7610 N   0  0  0  0  0  0  0  0  0  0  0  0
  -26.0420  -38.3470   23.8810 H   0  0  0  0  0  0  0  0  0  0  0  0
  1  2  1  0
  1 52  1  0
  2  4  1  0
  3  1  2  0
  5  8  2  0
  6  5  1  0
  6  7  2  0
  7 19  1  0
  7 10  1  0
  8  2  1  0
  8 10  1  0
  9  6  1  0
 11 20  1  0
 12 17  1  0
 13 14  1  0
 13 12  1  0
 15 14  1  0
 15 26  1  0
 15 16  1  0
 17 11  1  0
 17 16  1  0
 18 11  2  0
 19 21  2  0
 20 19  1  0
 22 20  1  0
 23 24  2  0
 24 43  1  0
 25 24  1  0
 25 28  1  0
 26 27  1  0
 26 23  1  0
 27 25  2  0
 28 29  1  0
 29 30  2  0
 31 34  1  0
 31 30  1  0
 32 31  2  0
 33 32  1  0
 33 28  2  0
 34 35  1  0
 35 36  1  0
 36 37  2  0
 38 37  1  0
 38 42  1  0
 39 38  2  0
 40 35  2  0
 40 39  1  0
 41 40  1  0
 43 44  1  0
 44 47  1  0
 44 46  1  0
 45 43  2  0
 48 49  1  0
 48 23  1  0
 50 48  1  0
 51 52  2  0
 52 53  1  0
 53 54  1  0
 55 57  1  0
 55 51  1  0
 56 67  2  0
 57 62  1  0
 58 66  1  0
 58 68  1  0
 59 65  1  0
 59 61  1  0
 60 66  1  0
 61 62  2  0
 61 60  1  0
 63 57  2  0
 64 63  1  0
 64 59  2  0
 65 58  1  0
 66 56  1  0
 68 70  2  0
 69 68  1  0
 71 69  1  0
 72 81  2  0
 72 77  1  0
 73 69  1  0
 73 77  1  0
 74 73  1  0
 75 76  1  0
 75 74  1  0
 76 72  1  0
 77 78  2  0
 78 79  1  0
 80 79  2  0
 81 80  1  0
 82 56  1  0
 82 87  1  0
 82 83  1  0
 83 86  1  1
 83 84  1  0
 85 83  1  0
 87 90  1  0
 88 92  1  0
 88 87  1  0
 89 88  2  0
 92 91  1  0
 94 92  1  0
 94 95  1  0
 94 93  1  0
M  ISO  4  11 100  20 100  51 101  55 101
M  END
>  <TORSDO>  (64) 
F 19

>  <SCORE>  (64) 
-15.023

>  <name>  (64) 
63

>  <ligand_id>  (64) 
63

>  <original_smiles>  (64) 
[H]OC(C(=O)N([H])c1sc(C(=O)N([H])C(=O)N2C([H])([H])C([H])([H])C([H])([H])C([H])(n3nc(-c4c([H])c([H])c(Oc5c([H])c([H])c(F)c([H])c5F)c([H])c4[H])c(C(=O)N([H])[H])c3N([H])[H])C2([H])[H])c(C([H])([H])[H])c1[H])=C([H])Oc1c([H])c([H])c2c(c1[H])C([H])([H])N(C(=O)C([H])(N([H])C(=O)C([H])(N([H])C([H])([H])[H])C([H])([H])[H])C(C([H])([H])[H])(C([H])([H])[H])C([H])([H])[H])C([H])(C(=O)N([H])C1([H])c3c([H])c([H])c([H])c([H])c3C([H])([H])C([H])([H])C1([H])[H])C2([H])[H]

>  <smiles>  (64) 
[H]OC(C(=O)N([H])c1sc(C(=O)N([H])C(=O)N2C([H])([H])C([H])([H])C([H])([H])C([H])(n3nc(-c4c([H])c([H])c(Oc5c([H])c([H])c(F)c([H])c5F)c([H])c4[H])c(C(=O)N([H])[H])c3N([H])[H])C2([H])[H])c(C([H])([H])[H])c1[H])=C([H])Oc1c([H])c([H])c2c(c1[H])C([H])([H])N(C(=O)C([H])(N([H])C(=O)C([H])(N([H])C([H])([H])[H])C([H])([H])[H])C(C([H])([H])[H])(C([H])([H])[H])C([H])([H])[H])C([H])(C(=O)N([H])C1([H])c3c([H])c([H])c([H])c([H])c3C([H])([H])C([H])([H])C1([H])[H])C2([H])[H]

$$$$
64:0:0
     RDKit          3D

 95103  0  0  1  0  0  0  0  0999 V2000
  -30.5360  -20.3310   19.3080 C   0  0  0  0  0  0  0  0  0  0  0  0
  -30.0240  -21.4630   19.8700 N   0  0  0  0  0  0  0  0  0  0  0  0
  -31.3330  -20.3260   18.3640 O   0  0  0  0  0  0  0  0  0  0  0  0
  -29.3700  -21.1930   20.5970 H   0  0  0  0  0  0  0  0  0  0  0  0
  -31.3400  -14.4690   19.5580 C   0  0  0  0  0  0  0  0  0  0  0  0
  -30.9770  -12.2580   18.4680 C   0  0  0  0  0  2  0  0  0  0  0  0
  -29.8670  -12.4000   17.4020 C   0  0  0  0  0  2  0  0  0  0  0  0
  -28.4640  -12.2560   18.0260 C   0  0  0  0  0  2  0  0  0  0  0  0
  -28.2920  -13.1120   19.3080 C   0  0  0  0  0  3  0  0  0  0  0  0
  -29.4880  -12.8950   20.2620 C   0  0  0  0  0  2  0  0  0  0  0  0
  -30.7240  -13.2450   19.5350 N   0  0  0  0  0  0  0  0  0  0  0  0
  -32.3150  -14.7240   18.8410 O   0  0  0  0  0  0  0  0  0  0  0  0
  -28.7890  -18.0840   21.6550 C   0  0  0  0  0  3  0  0  0  0  0  0
  -29.3690  -16.8250   21.4730 C   0  0  0  0  0  0  0  0  0  0  0  0
  -30.3560  -16.6860   20.4840 C   0  0  0  0  0  0  0  0  0  0  0  0
  -30.1100  -18.9860   20.0120 C   0  0  0  0  0  0  0  0  0  0  0  0
  -29.1620  -19.1530   20.9360 N   0  0  0  0  0  0  0  0  0  0  0  0
  -30.7210  -17.7920   19.7530 N   0  0  0  0  0  0  0  0  0  0  0  0
  -30.8370  -15.3250   20.4800 N   0  0  0  0  0  0  0  0  0  0  0  0
  -28.9910  -15.7650   22.2340 F   0  0  0  0  0  0  0  0  0  0  0  0
  -30.3110  -14.8060   21.1670 H   0  0  0  0  0  0  0  0  0  0  0  0
  -26.0910  -13.7530   20.4800 C   0  0  0  0  0  0  0  0  0  0  0  0
  -25.0380  -13.0010   20.9250 C   0  0  0  0  0  0  0  0  0  0  0  0
  -25.3770  -11.6420   20.6440 C   0  0  0  0  0  0  0  0  0  0  0  0
  -27.0130  -12.8530   19.9660 N   0  0  0  0  0  0  0  0  0  0  0  0
  -26.5940  -11.5700   20.1170 N   0  0  0  0  0  0  0  0  0  0  0  0
  -24.5920  -10.4090   20.7960 C   0  0  0  0  0  0  0  0  0  0  0  0
  -24.9700   -9.4030   21.7120 C   0  0  0  0  0  3  0  0  0  0  0  0
  -24.1890   -8.2350   21.8520 C   0  0  0  0  0  3  0  0  0  0  0  0
  -23.0190   -8.0660   21.0770 C   0  0  0  0  0  0  0  0  0  0  0  0
  -22.6600   -9.0600   20.1500 C   0  0  0  0  0  3  0  0  0  0  0  0
  -23.4400  -10.2210   20.0080 C   0  0  0  0  0  3  0  0  0  0  0  0
  -22.2130   -6.9540   21.1270 O   0  0  0  0  0  0  0  0  0  0  0  0
  -21.9620   -6.3000   22.3070 C   0  0  0  0  0  0  0  0  0  0  0  0
  -21.3620   -6.9530   23.4070 C   0  0  0  0  0  3  0  0  0  0  0  0
  -21.0560   -6.2270   24.5750 C   0  0  0  0  0  3  0  0  0  0  0  0
  -21.3400   -4.8500   24.6430 C   0  0  0  0  0  0  0  0  0  0  0  0
  -21.9320   -4.1960   23.5480 C   0  0  0  0  0  3  0  0  0  0  0  0
  -22.2380   -4.9210   22.3820 C   0  0  0  0  0  0  0  0  0  0  0  0
  -22.7900   -4.2830   21.3220 F   0  0  0  0  0  0  0  0  0  0  0  0
  -21.0380   -4.1500   25.7620 F   0  0  0  0  0  0  0  0  0  0  0  0
  -23.7460  -13.5180   21.4870 C   0  0  0  0  0  0  0  0  0  0  0  0
  -23.1520  -12.7910   22.4280 N   0  0  0  0  0  0  0  0  0  0  0  0
  -23.2770  -14.5970   21.1280 O   0  0  0  0  0  0  0  0  0  0  0  0
  -23.5470  -11.9170   22.7440 H   0  0  0  0  0  0  0  0  0  0  0  0
  -22.2900  -13.1190   22.8420 H   0  0  0  0  0  0  0  0  0  0  0  0
  -26.3280  -15.1240   20.4500 N   0  0  0  0  0  0  0  0  0  0  0  0
  -25.6290  -15.7920   20.7560 H   0  0  0  0  0  0  0  0  0  0  0  0
  -27.1350  -15.5580   20.0240 H   0  0  0  0  0  0  0  0  0  0  0  0
  -31.7320  -23.2210   19.1770 C   0  0  0  0  0  1  0  0  0  0  0  0
  -30.3370  -22.9310   19.7630 C   0  0  0  0  0  3  0  0  0  0  0  0
  -29.2500  -23.8950   19.1480 C   0  0  0  0  0  0  0  0  0  0  0  0
  -28.7250  -23.6720   18.0530 O   0  0  0  0  0  0  0  0  0  0  0  0
  -28.8390  -25.1740   19.9630 C   0  0  0  0  0  2  0  0  0  0  0  0
  -28.7780  -26.4230   19.2040 O   0  0  0  0  0  0  0  0  0  0  0  0
  -24.6800  -31.1670   22.7280 C   0  0  0  0  0  0  0  0  0  0  0  0
  -27.5850  -27.1270   19.2950 C   0  0  0  0  0  0  0  0  0  0  0  0
  -23.5540  -29.8020   21.0020 C   0  0  0  0  0  3  0  0  0  0  0  0
  -25.0930  -28.4840   19.4450 C   0  0  0  0  0  0  0  0  0  0  0  0
  -26.0470  -30.3550   20.7990 C   0  0  0  0  0  2  0  0  0  0  0  0
  -26.2250  -29.0410   20.0550 C   0  0  0  0  0  0  0  0  0  0  0  0
  -27.4770  -28.3750   19.9690 C   0  0  0  0  0  3  0  0  0  0  0  0
  -26.4350  -26.6010   18.6760 C   0  0  0  0  0  3  0  0  0  0  0  0
  -25.1960  -27.2680   18.7460 C   0  0  0  0  0  3  0  0  0  0  0  0
  -23.7890  -29.2450   19.5720 C   0  0  0  0  0  2  0  0  0  0  0  0
  -24.7790  -30.4540   21.5690 N   0  0  0  0  0  0  0  0  0  0  0  0
  -23.5900  -31.3160   23.2980 O   0  0  0  0  0  0  0  0  0  0  0  0
  -22.9950  -28.6680   21.8930 C   0  0  0  0  0  0  0  0  0  0  0  0
  -21.6790  -28.4180   21.7940 N   0  0  0  0  0  0  0  0  0  0  0  0
  -23.7420  -28.0180   22.6290 O   0  0  0  0  0  0  0  0  0  0  0  0
  -21.1330  -28.9970   21.1710 H   0  0  0  0  0  0  0  0  0  0  0  0
  -18.3910  -27.0170   22.3410 C   0  0  0  0  0  0  0  0  0  0  0  0
  -20.9460  -27.3700   22.5060 C   0  0  0  0  0  3  0  0  0  0  0  0
  -21.0770  -26.0110   21.7800 C   0  0  0  0  0  2  0  0  0  0  0  0
  -19.9350  -25.7380   20.7980 C   0  0  0  0  0  2  0  0  0  0  0  0
  -18.5860  -25.7530   21.5230 C   0  0  0  0  0  2  0  0  0  0  0  0
  -19.4990  -27.7860   22.7890 C   0  0  0  0  0  0  0  0  0  0  0  0
  -19.2600  -28.9710   23.5160 C   0  0  0  0  0  3  0  0  0  0  0  0
  -17.9460  -29.3910   23.7990 C   0  0  0  0  0  3  0  0  0  0  0  0
  -16.8540  -28.6190   23.3670 C   0  0  0  0  0  3  0  0  0  0  0  0
  -17.0770  -27.4330   22.6440 C   0  0  0  0  0  3  0  0  0  0  0  0
  -25.9240  -31.8480   23.3780 C   0  0  0  0  0  3  0  0  0  0  0  0
  -26.6010  -30.9640   24.4960 C   0  0  1  0  0  0  0  0  0  0  0  0
  -25.6070  -30.4410   25.5610 C   0  0  0  0  0  1  0  0  0  0  0  0
  -27.3100  -29.7430   23.8690 C   0  0  0  0  0  1  0  0  0  0  0  0
  -27.6940  -31.7830   25.2200 C   0  0  0  0  0  1  0  0  0  0  0  0
  -25.4860  -33.1360   23.9310 N   0  0  0  0  0  0  0  0  0  0  0  0
  -25.6560  -34.3210   23.3280 C   0  0  0  0  0  0  0  0  0  0  0  0
  -26.2690  -34.4470   22.2650 O   0  0  0  0  0  0  0  0  0  0  0  0
  -24.9270  -33.1010   24.7720 H   0  0  0  0  0  0  0  0  0  0  0  0
  -23.7290  -35.9360   23.3210 C   0  0  0  0  0  1  0  0  0  0  0  0
  -25.0500  -35.5620   24.0120 C   0  0  0  0  0  3  0  0  0  0  0  0
  -27.1130  -36.5570   24.8990 C   0  0  0  0  0  1  0  0  0  0  0  0
  -25.9580  -36.7300   24.0210 N   0  0  0  0  0  0  0  0  0  0  0  0
  -25.4620  -37.5700   24.3100 H   0  0  0  0  0  0  0  0  0  0  0  0
  1  2  1  0
  1 16  1  0
  2  4  1  0
  3  1  2  0
  5 19  1  0
  6 11  1  0
  7  8  1  0
  7  6  1  0
  9  8  1  0
  9 25  1  0
  9 10  1  0
 11  5  1  0
 11 10  1  0
 12  5  2  0
 14 13  2  0
 14 20  1  0
 15 14  1  0
 16 17  2  0
 17 13  1  0
 18 16  1  0
 18 15  2  0
 19 15  1  0
 19 21  1  0
 22 23  2  0
 23 42  1  0
 24 27  1  0
 24 23  1  0
 25 26  1  0
 25 22  1  0
 26 24  2  0
 27 28  1  0
 28 29  2  0
 30 33  1  0
 30 29  1  0
 31 30  2  0
 32 31  1  0
 32 27  2  0
 33 34  1  0
 34 39  2  0
 34 35  1  0
 35 36  2  0
 36 37  1  0
 37 41  1  0
 38 37  2  0
 39 38  1  0
 40 39  1  0
 42 43  1  0
 43 45  1  0
 43 46  1  0
 44 42  2  0
 47 22  1  0
 47 48  1  0
 49 47  1  0
 51 50  1  0
 51  2  1  0
 52 51  1  0
 52 54  1  0
 53 52  2  0
 55 57  1  0
 55 54  1  0
 56 67  2  0
 57 62  1  0
 58 66  1  0
 58 68  1  0
 59 65  1  0
 59 61  1  0
 60 66  1  0
 61 60  1  0
 62 61  2  0
 63 64  1  0
 63 57  2  0
 64 59  2  0
 65 58  1  0
 66 56  1  0
 68 70  2  0
 69 68  1  0
 71 69  1  0
 72 81  2  0
 72 77  1  0
 73 69  1  0
 73 77  1  0
 74 73  1  0
 75 76  1  0
 75 74  1  0
 76 72  1  0
 77 78  2  0
 78 79  1  0
 80 79  2  0
 81 80  1  0
 82 56  1  0
 82 87  1  0
 82 83  1  0
 83 86  1  1
 83 84  1  0
 85 83  1  0
 87 90  1  0
 88 87  1  0
 88 92  1  0
 89 88  2  0
 92 91  1  0
 92 94  1  0
 94 95  1  0
 94 93  1  0
M  ISO  4   5 100  19 100  54 101  55 101
M  END
>  <TORSDO>  (65) 
F 19

>  <SCORE>  (65) 
-8.098

>  <name>  (65) 
64

>  <ligand_id>  (65) 
64

>  <original_smiles>  (65) 
[H]c1nc(C(=O)N([H])C([H])(C(=O)C([H])([H])Oc2c([H])c([H])c3c(c2[H])C([H])([H])N(C(=O)C([H])(N([H])C(=O)C([H])(N([H])C([H])([H])[H])C([H])([H])[H])C(C([H])([H])[H])(C([H])([H])[H])C([H])([H])[H])C([H])(C(=O)N([H])C2([H])c4c([H])c([H])c([H])c([H])c4C([H])([H])C([H])([H])C2([H])[H])C3([H])[H])C([H])([H])[H])nc(N([H])C(=O)N2C([H])([H])C([H])([H])C([H])([H])C([H])(n3nc(-c4c([H])c([H])c(Oc5c([H])c([H])c(F)c([H])c5F)c([H])c4[H])c(C(=O)N([H])[H])c3N([H])[H])C2([H])[H])c1F

>  <smiles>  (65) 
[H]c1nc(C(=O)N([H])C([H])(C(=O)C([H])([H])Oc2c([H])c([H])c3c(c2[H])C([H])([H])N(C(=O)C([H])(N([H])C(=O)C([H])(N([H])C([H])([H])[H])C([H])([H])[H])C(C([H])([H])[H])(C([H])([H])[H])C([H])([H])[H])C([H])(C(=O)N([H])C2([H])c4c([H])c([H])c([H])c([H])c4C([H])([H])C([H])([H])C2([H])[H])C3([H])[H])C([H])([H])[H])nc(N([H])C(=O)N2C([H])([H])C([H])([H])C([H])([H])C([H])(n3nc(-c4c([H])c([H])c(Oc5c([H])c([H])c(F)c([H])c5F)c([H])c4[H])c(C(=O)N([H])[H])c3N([H])[H])C2([H])[H])c1F

$$$$
65:0:0
     RDKit          3D

 90 91  0  0  1  0  0  0  0  0999 V2000
  -28.2590  -19.5330   19.8620 C   0  0  0  0  0  1  0  0  0  0  0  0
  -30.0790  -15.8810   18.8460 C   0  0  0  0  0  2  0  0  0  0  0  0
  -29.0880  -14.9130   19.3530 C   0  0  0  0  0  2  0  0  0  0  0  0
  -30.1050  -16.9060   19.8200 C   0  0  2  0  0  0  0  0  0  0  0  0
  -28.3080  -16.2850   19.5820 N   0  0  0  0  0  0  0  0  0  0  0  0
  -28.9140  -17.7430   19.6620 N   0  0  0  0  0  0  0  0  0  0  0  0
  -31.1620  -15.1690   21.2700 C   0  0  0  0  0  0  0  0  0  0  0  0
  -31.1050  -13.4340   19.4570 C   0  0  0  0  0  1  0  0  0  0  0  0
  -29.8560  -13.0740   17.9410 C   0  0  0  0  0 15  0  0  0  0  0  0
  -27.8890  -13.1570   18.2310 C   0  0  0  0  0 15  0  0  0  0  0  0
  -27.2460  -13.7000   20.0540 C   0  0  0  0  0  1  0  0  0  0  0  0
  -28.6360  -14.0930   21.5300 C   0  0  0  0  0  1  0  0  0  0  0  0
  -30.4380  -14.0490   21.0760 N   0  0  0  0  0  0  0  0  0  0  0  0
  -32.3650  -15.0790   21.1000 O   0  0  0  0  0  0  0  0  0  0  0  0
  -30.5620  -16.4130   21.0640 N   0  0  0  0  0  0  0  0  0  0  0  0
  -30.9370  -17.1400   21.6510 H   0  0  0  0  0  0  0  0  0  0  0  0
  -25.0440  -13.8380   20.8320 C   0  0  0  0  0  0  0  0  0  0  0  0
  -24.0770  -12.9500   21.0780 C   0  0  0  0  0  0  0  0  0  0  0  0
  -24.6640  -11.6440   21.0220 C   0  0  0  0  0  0  0  0  0  0  0  0
  -26.1160  -13.0690   20.5440 N   0  0  0  0  0  0  0  0  0  0  0  0
  -25.9610  -11.7310   20.7260 N   0  0  0  0  0  0  0  0  0  0  0  0
  -24.0110  -10.3430   21.1590 C   0  0  0  0  0  0  0  0  0  0  0  0
  -24.4300   -9.3860   22.1080 C   0  0  0  0  0  3  0  0  0  0  0  0
  -23.7130   -8.1780   22.2620 C   0  0  0  0  0  3  0  0  0  0  0  0
  -22.5690   -7.9270   21.4660 C   0  0  0  0  0  0  0  0  0  0  0  0
  -22.1760   -8.8760   20.5070 C   0  0  0  0  0  3  0  0  0  0  0  0
  -22.8910  -10.0710   20.3520 C   0  0  0  0  0  3  0  0  0  0  0  0
  -21.8200   -6.7780   21.5270 O   0  0  0  0  0  0  0  0  0  0  0  0
  -21.7510   -6.0220   22.6690 C   0  0  0  0  0  0  0  0  0  0  0  0
  -21.3120   -6.5650   23.8960 C   0  0  0  0  0  3  0  0  0  0  0  0
  -21.1900   -5.7340   25.0270 C   0  0  0  0  0  3  0  0  0  0  0  0
  -21.4970   -4.3630   24.9320 C   0  0  0  0  0  0  0  0  0  0  0  0
  -21.9280   -3.8210   23.7090 C   0  0  0  0  0  3  0  0  0  0  0  0
  -22.0520   -4.6480   22.5790 C   0  0  0  0  0  0  0  0  0  0  0  0
  -22.4460   -4.1170   21.3970 F   0  0  0  0  0  0  0  0  0  0  0  0
  -21.3730   -3.5640   26.0180 F   0  0  0  0  0  0  0  0  0  0  0  0
  -22.6640  -13.3600   21.2400 C   0  0  0  0  0  0  0  0  0  0  0  0
  -21.9270  -12.6570   22.0800 N   0  0  0  0  0  0  0  0  0  0  0  0
  -22.2400  -14.3660   20.6680 O   0  0  0  0  0  0  0  0  0  0  0  0
  -22.3050  -11.8570   22.5660 H   0  0  0  0  0  0  0  0  0  0  0  0
  -20.9650  -12.9190   22.2440 H   0  0  0  0  0  0  0  0  0  0  0  0
  -25.0790  -15.2380   20.7740 N   0  0  0  0  0  0  0  0  0  0  0  0
  -24.2350  -15.7950   20.8380 H   0  0  0  0  0  0  0  0  0  0  0  0
  -25.8870  -15.7710   20.4690 H   0  0  0  0  0  0  0  0  0  0  0  0
  -29.0670  -12.2470   20.1090 C   0  0  0  0  0  2  0  0  0  0  0  0
  -29.8150  -11.5060   20.7840 O   0  0  0  0  0  0  0  0  0  0  0  0
  -28.5890  -21.4910   19.7790 C   0  0  0  0  0  2  0  0  0  0  0  0
  -29.8000  -21.6880   19.6250 O   0  0  0  0  0  0  0  0  0  0  0  0
  -27.6510  -23.2370   19.8690 C   0  0  0  0  0 15  0  0  0  0  0  0
  -27.9740  -25.0820   19.9950 O   0  0  0  0  0  1  0  0  0  0  0  0
  -24.6480  -31.7470   23.0020 C   0  0  0  0  0  0  0  0  0  0  0  0
  -27.0940  -26.4360   20.0170 C   0  0  0  0  0  0  0  0  0  0  0  0
  -23.4600  -30.3210   21.4040 C   0  0  0  0  0  3  0  0  0  0  0  0
  -24.8850  -28.6220   20.0040 C   0  0  0  0  0  0  0  0  0  0  0  0
  -26.0500  -30.3950   21.2780 C   0  0  0  0  0  2  0  0  0  0  0  0
  -26.1000  -28.9320   20.6270 C   0  0  0  0  0  0  0  0  0  0  0  0
  -27.1870  -27.8710   20.5950 C   0  0  0  0  0  3  0  0  0  0  0  0
  -25.8460  -26.3990   19.3470 C   0  0  0  0  0  3  0  0  0  0  0  0
  -24.8100  -27.3860   19.3420 C   0  0  0  0  0  3  0  0  0  0  0  0
  -23.6930  -29.5990   20.0460 C   0  0  0  0  0  2  0  0  0  0  0  0
  -24.7480  -30.8610   21.9450 N   0  0  0  0  0  0  0  0  0  0  0  0
  -23.5520  -32.0590   23.5040 O   0  0  0  0  0  0  0  0  0  0  0  0
  -22.7400  -29.3680   22.3970 C   0  0  0  0  0  0  0  0  0  0  0  0
  -21.4010  -29.2400   22.3040 N   0  0  0  0  0  0  0  0  0  0  0  0
  -23.4010  -28.7370   23.2250 O   0  0  0  0  0  0  0  0  0  0  0  0
  -20.9160  -29.7950   21.6140 H   0  0  0  0  0  0  0  0  0  0  0  0
  -18.0060  -28.0810   22.9110 C   0  0  0  0  0  0  0  0  0  0  0  0
  -20.5780  -28.3170   23.0970 C   0  0  0  0  0  3  0  0  0  0  0  0
  -20.6410  -26.8840   22.5200 C   0  0  0  0  0  2  0  0  0  0  0  0
  -19.5090  -26.5810   21.5340 C   0  0  0  0  0  2  0  0  0  0  0  0
  -18.1480  -26.7360   22.2190 C   0  0  0  0  0  2  0  0  0  0  0  0
  -19.1470  -28.8320   23.3080 C   0  0  0  0  0  0  0  0  0  0  0  0
  -18.9580  -30.0870   23.9230 C   0  0  0  0  0  3  0  0  0  0  0  0
  -17.6630  -30.5970   24.1380 C   0  0  0  0  0  3  0  0  0  0  0  0
  -16.5390  -29.8470   23.7530 C   0  0  0  0  0  3  0  0  0  0  0  0
  -16.7120  -28.5890   23.1460 C   0  0  0  0  0  3  0  0  0  0  0  0
  -25.9000  -32.4250   23.6360 C   0  0  0  0  0  3  0  0  0  0  0  0
  -26.4410  -31.6510   24.9030 C   0  0  1  0  0  0  0  0  0  0  0  0
  -25.3660  -31.3830   25.9830 C   0  0  0  0  0  1  0  0  0  0  0  0
  -27.0400  -30.2830   24.5090 C   0  0  0  0  0  1  0  0  0  0  0  0
  -27.5890  -32.4540   25.5570 C   0  0  0  0  0  1  0  0  0  0  0  0
  -25.5400  -33.8100   24.0170 N   0  0  0  0  0  0  0  0  0  0  0  0
  -25.8430  -34.9130   23.3180 C   0  0  0  0  0  0  0  0  0  0  0  0
  -26.5070  -34.8750   22.2800 O   0  0  0  0  0  0  0  0  0  0  0  0
  -24.9430  -33.9070   24.8250 H   0  0  0  0  0  0  0  0  0  0  0  0
  -24.0730  -36.6980   23.0760 C   0  0  0  0  0  1  0  0  0  0  0  0
  -25.3340  -36.2740   23.8470 C   0  0  0  0  0  3  0  0  0  0  0  0
  -27.4640  -37.1780   24.6810 C   0  0  0  0  0  1  0  0  0  0  0  0
  -26.3420  -37.3570   23.7650 N   0  0  0  0  0  0  0  0  0  0  0  0
  -25.9160  -38.2590   23.9570 H   0  0  0  0  0  0  0  0  0  0  0  0
  2  3  1  0
  2  4  1  0
  4 15  1  1
  5  3  1  0
  5  6  1  0
  5  4  1  0
  6  4  1  0
  6  1  1  0
  8 13  1  0
 11 20  1  0
 13  7  1  0
 13 12  1  0
 14  7  2  0
 15  7  1  0
 15 16  1  0
 17 18  2  0
 18 37  1  0
 19 18  1  0
 19 22  1  0
 20 21  1  0
 20 17  1  0
 21 19  2  0
 22 23  1  0
 23 24  2  0
 25 28  1  0
 25 24  1  0
 26 25  2  0
 27 26  1  0
 27 22  2  0
 28 29  1  0
 29 30  1  0
 30 31  2  0
 32 31  1  0
 32 36  1  0
 33 32  2  0
 34 29  2  0
 34 33  1  0
 35 34  1  0
 37 38  1  0
 38 41  1  0
 38 40  1  0
 39 37  2  0
 42 17  1  0
 42 43  1  0
 44 42  1  0
 45 46  2  0
 48 47  2  0
 50 52  1  0
 51 62  2  0
 52 57  1  0
 53 61  1  0
 53 63  1  0
 54 60  1  0
 54 56  1  0
 55 61  1  0
 56 55  1  0
 57 56  2  0
 58 52  2  0
 59 58  1  0
 59 54  2  0
 60 53  1  0
 61 51  1  0
 63 65  2  0
 64 63  1  0
 66 64  1  0
 67 76  2  0
 67 72  1  0
 68 64  1  0
 68 72  1  0
 69 68  1  0
 70 71  1  0
 70 69  1  0
 71 67  1  0
 72 73  2  0
 73 74  1  0
 75 74  2  0
 76 75  1  0
 77 51  1  0
 77 82  1  0
 77 78  1  0
 78 81  1  1
 78 79  1  0
 80 78  1  0
 82 85  1  0
 83 87  1  0
 83 82  1  0
 84 83  2  0
 87 86  1  0
 89 87  1  0
 89 90  1  0
 89 88  1  0
M  ISO  4   7 100  15 100  49 101  50 101
M  END
>  <TORSDO>  (66) 
F 20

>  <SCORE>  (66) 
-15.876

>  <name>  (66) 
65

>  <ligand_id>  (66) 
65

>  <original_smiles>  (66) 
[H]C(=O)c1nn(C([H])([H])C(=O)C([H])([H])Oc2c([H])c([H])c3c(c2[H])C([H])([H])N(C(=O)C([H])(N([H])C(=O)C([H])(N([H])C([H])([H])[H])C([H])([H])[H])C(C([H])([H])[H])(C([H])([H])[H])C([H])([H])[H])C([H])(C(=O)N([H])C2([H])c4c([H])c([H])c([H])c([H])c4C([H])([H])C([H])([H])C2([H])[H])C3([H])[H])c(N([H])C(=O)N2C([H])([H])C([H])([H])C([H])([H])C([H])(n3nc(-c4c([H])c([H])c(Oc5c([H])c([H])c(F)c([H])c5F)c([H])c4[H])c(C(=O)N([H])[H])c3N([H])[H])C2([H])[H])c1[H]

>  <smiles>  (66) 
[H]C(=O)c1nn(C([H])([H])C(=O)C([H])([H])Oc2c([H])c([H])c3c(c2[H])C([H])([H])N(C(=O)C([H])(N([H])C(=O)C([H])(N([H])C([H])([H])[H])C([H])([H])[H])C(C([H])([H])[H])(C([H])([H])[H])C([H])([H])[H])C([H])(C(=O)N([H])C2([H])c4c([H])c([H])c([H])c([H])c4C([H])([H])C([H])([H])C2([H])[H])C3([H])[H])c(N([H])C(=O)N2C([H])([H])C([H])([H])C([H])([H])C([H])(n3nc(-c4c([H])c([H])c(Oc5c([H])c([H])c(F)c([H])c5F)c([H])c4[H])c(C(=O)N([H])[H])c3N([H])[H])C2([H])[H])c1[H]

$$$$
66:0:0
     RDKit          3D

 98106  0  0  1  0  0  0  0  0999 V2000
  -30.5420  -20.5750   20.1850 C   0  0  0  0  0  0  0  0  0  0  0  0
  -29.7790  -21.6980   19.9770 N   0  0  0  0  0  0  0  0  0  0  0  0
  -31.8750  -20.6680   20.3040 N   0  0  0  0  0  4  0  0  0  0  0  0
  -28.7790  -21.5060   19.9470 H   0  0  0  0  0  0  0  0  0  0  0  0
  -32.3780  -19.8060   20.4550 H   0  0  0  0  0  0  0  0  0  0  0  0
  -32.3800  -21.5350   20.2360 H   0  0  0  0  0  0  0  0  0  0  0  0
  -31.0810  -14.6610   20.3380 C   0  0  0  0  0  0  0  0  0  0  0  0
  -30.8540  -12.4080   19.3050 C   0  0  0  0  0  2  0  0  0  0  0  0
  -29.9280  -12.5100   18.0740 C   0  0  0  0  0  2  0  0  0  0  0  0
  -28.4460  -12.3820   18.4810 C   0  0  0  0  0  2  0  0  0  0  0  0
  -28.0780  -13.2880   19.6860 C   0  0  0  0  0  3  0  0  0  0  0  0
  -29.1160  -13.1350   20.8230 C   0  0  0  0  0  2  0  0  0  0  0  0
  -30.4510  -13.4450   20.2750 N   0  0  0  0  0  0  0  0  0  0  0  0
  -32.1670  -14.8650   19.7840 O   0  0  0  0  0  0  0  0  0  0  0  0
  -29.9340  -19.2140   20.3270 C   0  0  0  0  0  0  0  0  0  0  0  0
  -28.5810  -18.9880   20.4270 C   0  0  0  0  0  0  0  0  0  0  0  0
  -29.9980  -16.9360   20.6730 C   0  0  0  0  0  0  0  0  0  0  0  0
  -30.7540  -18.0500   20.4790 N   0  0  0  0  0  0  0  0  0  0  0  0
  -30.4400  -15.6140   21.0580 N   0  0  0  0  0  0  0  0  0  0  0  0
  -28.2690  -17.2970   20.7060 S   0  0  0  0  0  0  0  0  0  0  0  0
  -29.7420  -15.1560   21.6230 H   0  0  0  0  0  0  0  0  0  0  0  0
  -25.6760  -13.9350   20.3540 C   0  0  0  0  0  0  0  0  0  0  0  0
  -24.5950  -13.1890   20.7310 C   0  0  0  0  0  0  0  0  0  0  0  0
  -25.0330  -11.8310   20.7190 C   0  0  0  0  0  0  0  0  0  0  0  0
  -26.7130  -13.0380   20.1510 N   0  0  0  0  0  0  0  0  0  0  0  0
  -26.3270  -11.7650   20.4240 N   0  0  0  0  0  0  0  0  0  0  0  0
  -24.2800  -10.5870   20.9150 C   0  0  0  0  0  0  0  0  0  0  0  0
  -24.6790   -9.6240   21.8680 C   0  0  0  0  0  3  0  0  0  0  0  0
  -23.9270   -8.4430   22.0510 C   0  0  0  0  0  3  0  0  0  0  0  0
  -22.7600   -8.2190   21.2810 C   0  0  0  0  0  0  0  0  0  0  0  0
  -22.3800   -9.1700   20.3180 C   0  0  0  0  0  3  0  0  0  0  0  0
  -23.1330  -10.3410   20.1330 C   0  0  0  0  0  3  0  0  0  0  0  0
  -21.9830   -7.0890   21.3720 O   0  0  0  0  0  0  0  0  0  0  0  0
  -21.8370   -6.4120   22.5560 C   0  0  0  0  0  0  0  0  0  0  0  0
  -21.3150   -7.0330   23.7110 C   0  0  0  0  0  3  0  0  0  0  0  0
  -21.1150   -6.2800   24.8860 C   0  0  0  0  0  3  0  0  0  0  0  0
  -21.4270   -4.9080   24.9040 C   0  0  0  0  0  0  0  0  0  0  0  0
  -21.9420   -4.2870   23.7540 C   0  0  0  0  0  3  0  0  0  0  0  0
  -22.1440   -5.0360   22.5820 C   0  0  0  0  0  0  0  0  0  0  0  0
  -22.6200   -4.4280   21.4700 F   0  0  0  0  0  0  0  0  0  0  0  0
  -21.2280   -4.1830   26.0300 F   0  0  0  0  0  0  0  0  0  0  0  0
  -23.2050  -13.7000   20.9880 C   0  0  0  0  0  0  0  0  0  0  0  0
  -22.4780  -13.0680   21.9010 N   0  0  0  0  0  0  0  0  0  0  0  0
  -22.7750  -14.6980   20.4120 O   0  0  0  0  0  0  0  0  0  0  0  0
  -22.8410  -12.2630   22.3910 H   0  0  0  0  0  0  0  0  0  0  0  0
  -21.5460  -13.3960   22.1140 H   0  0  0  0  0  0  0  0  0  0  0  0
  -25.8470  -15.2960   20.1450 N   0  0  0  0  0  0  0  0  0  0  0  0
  -25.0720  -15.9460   20.2190 H   0  0  0  0  0  0  0  0  0  0  0  0
  -26.6870  -15.7170   19.7710 H   0  0  0  0  0  0  0  0  0  0  0  0
  -27.5210  -19.8950   20.3820 N   0  0  0  0  0  0  0  0  0  0  0  0
  -27.2710  -20.2190   21.3150 H   0  0  0  0  0  0  0  0  0  0  0  0
  -26.6730  -19.4520   20.0360 H   0  0  0  0  0  0  0  0  0  0  0  0
  -30.8390  -23.4680   18.5210 C   0  0  0  0  0  1  0  0  0  0  0  0
  -30.1860  -23.1490   19.8890 C   0  0  0  0  0  3  0  0  0  0  0  0
  -29.0120  -24.1700   20.1470 C   0  0  0  0  0  0  0  0  0  0  0  0
  -27.8420  -23.8720   19.8930 O   0  0  0  0  0  0  0  0  0  0  0  0
  -29.3290  -25.5890   20.7350 C   0  0  0  0  0  2  0  0  0  0  0  0
  -28.3840  -26.6430   20.3770 O   0  0  0  0  0  0  0  0  0  0  0  0
  -27.4880  -31.8800   25.2340 C   0  0  0  0  0  0  0  0  0  0  0  0
  -27.6310  -27.2120   21.3960 C   0  0  0  0  0  0  0  0  0  0  0  0
  -25.9740  -29.9350   25.4200 C   0  0  0  0  0  3  0  0  0  0  0  0
  -25.9920  -28.3180   23.4400 C   0  0  0  0  0  0  0  0  0  0  0  0
  -26.9590  -30.6050   23.1520 C   0  0  0  0  0  2  0  0  0  0  0  0
  -26.8910  -29.1400   22.7480 C   0  0  0  0  0  0  0  0  0  0  0  0
  -27.7020  -28.5960   21.7170 C   0  0  0  0  0  3  0  0  0  0  0  0
  -26.7110  -26.4100   22.1010 C   0  0  0  0  0  3  0  0  0  0  0  0
  -25.8960  -26.9530   23.1150 C   0  0  0  0  0  3  0  0  0  0  0  0
  -25.1570  -28.9630   24.5280 C   0  0  0  0  0  2  0  0  0  0  0  0
  -26.8580  -30.8400   24.6160 N   0  0  0  0  0  0  0  0  0  0  0  0
  -27.3140  -32.1130   26.4380 O   0  0  0  0  0  0  0  0  0  0  0  0
  -26.7420  -29.1100   26.4780 C   0  0  0  0  0  0  0  0  0  0  0  0
  -26.0240  -28.6450   27.5140 N   0  0  0  0  0  0  0  0  0  0  0  0
  -27.9450  -28.8760   26.3420 O   0  0  0  0  0  0  0  0  0  0  0  0
  -25.0440  -28.8840   27.5560 H   0  0  0  0  0  0  0  0  0  0  0  0
  -25.0960  -26.9960   30.5930 C   0  0  0  0  0  0  0  0  0  0  0  0
  -26.5310  -27.8100   28.6040 C   0  0  0  0  0  3  0  0  0  0  0  0
  -26.6020  -26.3240   28.1800 C   0  0  0  0  0  2  0  0  0  0  0  0
  -25.3420  -25.5330   28.5440 C   0  0  0  0  0  2  0  0  0  0  0  0
  -25.0980  -25.5760   30.0560 C   0  0  0  0  0  2  0  0  0  0  0  0
  -25.7540  -28.0490   29.9030 C   0  0  0  0  0  0  0  0  0  0  0  0
  -25.6890  -29.3570   30.4290 C   0  0  0  0  0  3  0  0  0  0  0  0
  -24.9880  -29.6220   31.6200 C   0  0  0  0  0  3  0  0  0  0  0  0
  -24.3520  -28.5730   32.3080 C   0  0  0  0  0  3  0  0  0  0  0  0
  -24.4090  -27.2630   31.7960 C   0  0  0  0  0  3  0  0  0  0  0  0
  -28.4390  -32.8400   24.4530 C   0  0  0  0  0  3  0  0  0  0  0  0
  -29.9610  -32.6430   24.8230 C   0  0  1  0  0  0  0  0  0  0  0  0
  -30.2400  -32.6640   26.3440 C   0  0  0  0  0  1  0  0  0  0  0  0
  -30.4880  -31.3010   24.2660 C   0  0  0  0  0  1  0  0  0  0  0  0
  -30.8080  -33.7580   24.1650 C   0  0  0  0  0  1  0  0  0  0  0  0
  -28.0110  -34.2160   24.7390 N   0  0  0  0  0  0  0  0  0  0  0  0
  -27.4120  -35.0260   23.8550 C   0  0  0  0  0  0  0  0  0  0  0  0
  -27.2230  -34.7060   22.6770 O   0  0  0  0  0  0  0  0  0  0  0  0
  -28.0840  -34.5230   25.6990 H   0  0  0  0  0  0  0  0  0  0  0  0
  -25.4140  -36.4380   24.4350 C   0  0  0  0  0  1  0  0  0  0  0  0
  -26.9490  -36.4060   24.3580 C   0  0  0  0  0  3  0  0  0  0  0  0
  -28.8610  -37.7720   23.6480 C   0  0  0  0  0  1  0  0  0  0  0  0
  -27.4270  -37.5280   23.5200 N   0  0  0  0  0  0  0  0  0  0  0  0
  -26.9360  -38.3870   23.7520 H   0  0  0  0  0  0  0  0  0  0  0  0
  1  3  2  0
  1 15  1  0
  2  1  1  0
  3  5  1  0
  4  2  1  0
  6  3  1  0
  7 19  1  0
  8 13  1  0
  9 10  1  0
  9  8  1  0
 11 10  1  0
 11 25  1  0
 11 12  1  0
 13  7  1  0
 13 12  1  0
 14  7  2  0
 15 16  2  0
 15 18  1  0
 16 20  1  0
 17 20  1  0
 17 19  1  0
 18 17  2  0
 19 21  1  0
 22 23  2  0
 23 42  1  0
 24 23  1  0
 24 27  1  0
 25 22  1  0
 25 26  1  0
 26 24  2  0
 27 28  1  0
 28 29  2  0
 30 33  1  0
 30 29  1  0
 31 30  2  0
 32 31  1  0
 32 27  2  0
 33 34  1  0
 34 39  2  0
 34 35  1  0
 35 36  2  0
 36 37  1  0
 37 41  1  0
 38 37  2  0
 39 38  1  0
 40 39  1  0
 42 43  1  0
 43 46  1  0
 43 45  1  0
 44 42  2  0
 47 48  1  0
 47 22  1  0
 49 47  1  0
 50 16  1  0
 50 51  1  0
 52 50  1  0
 54 53  1  0
 54  2  1  0
 54 55  1  0
 55 57  1  0
 56 55  2  0
 58 57  1  0
 58 60  1  0
 59 70  2  0
 60 65  2  0
 60 66  1  0
 61 71  1  0
 62 68  1  0
 63 69  1  0
 64 63  1  0
 64 62  2  0
 65 64  1  0
 66 67  2  0
 67 62  1  0
 68 61  1  0
 69 59  1  0
 69 61  1  0
 71 72  1  0
 72 74  1  0
 73 71  2  0
 75 84  1  0
 76 72  1  0
 76 80  1  0
 77 78  1  0
 77 76  1  0
 78 79  1  0
 79 75  1  0
 80 81  1  0
 80 75  2  0
 81 82  2  0
 82 83  1  0
 84 83  2  0
 85 90  1  0
 85 86  1  0
 85 59  1  0
 86 87  1  1
 88 86  1  0
 89 86  1  0
 90 93  1  0
 91 95  1  0
 91 90  1  0
 92 91  2  0
 95 94  1  0
 97 96  1  0
 97 98  1  0
 97 95  1  0
M  ISO  4   7 100  19 100  57 101  58 101
M  END
>  <TORSDO>  (67) 
F 20

>  <SCORE>  (67) 
-11.327

>  <name>  (67) 
66

>  <ligand_id>  (67) 
66

>  <original_smiles>  (67) 
[H]c1c([H])c([H])c2c(c1[H])C([H])([H])C([H])([H])C([H])([H])C2([H])N([H])C(=O)C1([H])N(C(=O)C([H])(N([H])C(=O)C([H])(N([H])C([H])([H])[H])C([H])([H])[H])C(C([H])([H])[H])(C([H])([H])[H])C([H])([H])[H])C([H])([H])c2c([H])c(OC([H])([H])C(=O)C([H])(N([H])C(c3nc(N([H])C(=O)N4C([H])([H])C([H])([H])C([H])([H])C([H])(n5nc(-c6c([H])c([H])c(Oc7c([H])c([H])c(F)c([H])c7F)c([H])c6[H])c(C(=O)N([H])[H])c5N([H])[H])C4([H])[H])sc3N([H])[H])=[N+]([H])[H])C([H])([H])[H])c([H])c([H])c2C1([H])[H]

>  <smiles>  (67) 
[H]c1c([H])c([H])c2c(c1[H])C([H])([H])C([H])([H])C([H])([H])C2([H])N([H])C(=O)C1([H])N(C(=O)C([H])(N([H])C(=O)C([H])(N([H])C([H])([H])[H])C([H])([H])[H])C(C([H])([H])[H])(C([H])([H])[H])C([H])([H])[H])C([H])([H])c2c([H])c(OC([H])([H])C(=O)C([H])(N([H])C(c3nc(N([H])C(=O)N4C([H])([H])C([H])([H])C([H])([H])C([H])(n5nc(-c6c([H])c([H])c(Oc7c([H])c([H])c(F)c([H])c7F)c([H])c6[H])c(C(=O)N([H])[H])c5N([H])[H])C4([H])[H])sc3N([H])[H])=[N+]([H])[H])C([H])([H])[H])c([H])c([H])c2C1([H])[H]

$$$$
67:0:0
     RDKit          3D

 95103  0  0  1  0  0  0  0  0999 V2000
  -30.5250  -20.9870   21.4980 C   0  0  0  0  0  3  0  0  0  0  0  0
  -29.0320  -19.7950   20.1340 C   0  0  0  0  0  0  0  0  0  0  0  0
  -29.4180  -21.1150   20.6970 C   0  0  0  0  0  0  0  0  0  0  0  0
  -29.8880  -18.7180   20.4780 C   0  0  0  0  0  0  0  0  0  0  0  0
  -31.1090  -19.3290   21.5770 S   0  0  0  0  0  0  0  0  0  0  0  0
  -27.8650  -19.5840   19.1970 C   0  0  1  0  0  0  0  0  0  0  0  0
  -27.0050  -20.6050   19.2270 F   0  0  0  0  0  0  0  0  0  0  0  0
  -28.2820  -19.4450   17.9390 F   0  0  0  0  0  0  0  0  0  0  0  0
  -27.1780  -18.4860   19.5160 F   0  0  0  0  0  0  0  0  0  0  0  0
  -29.0980  -23.7500   20.6100 C   0  0  0  0  0  0  0  0  0  0  0  0
  -28.6970  -22.4150   20.5520 N   0  0  0  0  0  0  0  0  0  0  0  0
  -30.2860  -24.0540   20.4840 O   0  0  0  0  0  0  0  0  0  0  0  0
  -27.6920  -22.3220   20.4630 H   0  0  0  0  0  0  0  0  0  0  0  0
  -26.5950  -24.3540   20.8280 C   0  0  0  0  0  1  0  0  0  0  0  0
  -28.0300  -24.9400   20.8670 C   0  0  0  0  0  3  0  0  0  0  0  0
  -28.2630  -26.3110   20.2300 O   0  0  0  0  0  0  0  0  0  0  0  0
  -24.6280  -31.8790   23.2350 C   0  0  0  0  0  0  0  0  0  0  0  0
  -27.2070  -27.2600   20.1860 C   0  0  0  0  0  0  0  0  0  0  0  0
  -23.4200  -30.4780   21.6050 C   0  0  0  0  0  3  0  0  0  0  0  0
  -24.8660  -28.9330   20.1610 C   0  0  0  0  0  0  0  0  0  0  0  0
  -25.9640  -30.7770   21.4220 C   0  0  0  0  0  2  0  0  0  0  0  0
  -26.0380  -29.3940   20.7760 C   0  0  0  0  0  0  0  0  0  0  0  0
  -27.2120  -28.5660   20.7860 C   0  0  0  0  0  3  0  0  0  0  0  0
  -26.0400  -26.9190   19.4690 C   0  0  0  0  0  3  0  0  0  0  0  0
  -24.8730  -27.7020   19.4920 C   0  0  0  0  0  3  0  0  0  0  0  0
  -23.6300  -29.8080   20.2220 C   0  0  0  0  0  2  0  0  0  0  0  0
  -24.6890  -31.0640   22.1410 N   0  0  0  0  0  0  0  0  0  0  0  0
  -23.5460  -32.1590   23.7730 O   0  0  0  0  0  0  0  0  0  0  0  0
  -22.7600  -29.4610   22.5670 C   0  0  0  0  0  0  0  0  0  0  0  0
  -21.4330  -29.2820   22.4480 N   0  0  0  0  0  0  0  0  0  0  0  0
  -23.4430  -28.8380   23.3850 O   0  0  0  0  0  0  0  0  0  0  0  0
  -20.9410  -29.8380   21.7630 H   0  0  0  0  0  0  0  0  0  0  0  0
  -18.0620  -28.0660   22.9580 C   0  0  0  0  0  0  0  0  0  0  0  0
  -20.6180  -28.3440   23.2240 C   0  0  0  0  0  3  0  0  0  0  0  0
  -20.7280  -26.9080   22.6580 C   0  0  0  0  0  2  0  0  0  0  0  0
  -19.6270  -26.5740   21.6470 C   0  0  0  0  0  2  0  0  0  0  0  0
  -18.2450  -26.7140   22.2910 C   0  0  0  0  0  2  0  0  0  0  0  0
  -19.1750  -28.8390   23.3820 C   0  0  0  0  0  0  0  0  0  0  0  0
  -18.9480  -30.1040   23.9670 C   0  0  0  0  0  3  0  0  0  0  0  0
  -17.6400  -30.5960   24.1320 C   0  0  0  0  0  3  0  0  0  0  0  0
  -16.5410  -29.8220   23.7250 C   0  0  0  0  0  3  0  0  0  0  0  0
  -16.7530  -28.5580   23.1440 C   0  0  0  0  0  3  0  0  0  0  0  0
  -25.9120  -32.5160   23.8470 C   0  0  0  0  0  3  0  0  0  0  0  0
  -26.4410  -31.7450   25.1190 C   0  0  1  0  0  0  0  0  0  0  0  0
  -25.3570  -31.5050   26.1950 C   0  0  0  0  0  1  0  0  0  0  0  0
  -27.0250  -30.3680   24.7260 C   0  0  0  0  0  1  0  0  0  0  0  0
  -27.5980  -32.5420   25.7700 C   0  0  0  0  0  1  0  0  0  0  0  0
  -25.6000  -33.9120   24.1850 N   0  0  0  0  0  0  0  0  0  0  0  0
  -25.9200  -34.9710   23.4290 C   0  0  0  0  0  0  0  0  0  0  0  0
  -26.5790  -34.8770   22.3900 O   0  0  0  0  0  0  0  0  0  0  0  0
  -25.0110  -34.0580   24.9920 H   0  0  0  0  0  0  0  0  0  0  0  0
  -24.1780  -36.7590   23.1080 C   0  0  0  0  0  1  0  0  0  0  0  0
  -25.4320  -36.3550   23.9000 C   0  0  0  0  0  3  0  0  0  0  0  0
  -27.5750  -37.2430   24.7050 C   0  0  0  0  0  1  0  0  0  0  0  0
  -26.4590  -37.4130   23.7770 N   0  0  0  0  0  0  0  0  0  0  0  0
  -26.0520  -38.3310   23.9370 H   0  0  0  0  0  0  0  0  0  0  0  0
  -30.0630  -17.2730   19.8460 C   0  0  0  0  0  2  0  0  0  0  0  0
  -30.6060  -14.7690   20.3180 C   0  0  0  0  0  0  0  0  0  0  0  0
  -30.3600  -12.4990   19.3060 C   0  0  0  0  0  2  0  0  0  0  0  0
  -29.4200  -12.6010   18.0840 C   0  0  0  0  0  2  0  0  0  0  0  0
  -27.9520  -12.4390   18.5190 C   0  0  0  0  0  2  0  0  0  0  0  0
  -27.5950  -13.3150   19.7490 C   0  0  0  0  0  3  0  0  0  0  0  0
  -28.6590  -13.2120   20.8660 C   0  0  0  0  0  2  0  0  0  0  0  0
  -29.9580  -13.5530   20.2720 N   0  0  0  0  0  0  0  0  0  0  0  0
  -31.7720  -14.8470   19.9250 O   0  0  0  0  0  0  0  0  0  0  0  0
  -29.8740  -15.9280   20.5550 N   0  0  0  0  0  0  0  0  0  0  0  0
  -28.9540  -15.7720   20.9370 H   0  0  0  0  0  0  0  0  0  0  0  0
  -25.2090  -13.9120   20.4780 C   0  0  0  0  0  0  0  0  0  0  0  0
  -24.1420  -13.1410   20.8530 C   0  0  0  0  0  0  0  0  0  0  0  0
  -24.6040  -11.7890   20.8280 C   0  0  0  0  0  0  0  0  0  0  0  0
  -26.2510  -13.0300   20.2430 N   0  0  0  0  0  0  0  0  0  0  0  0
  -25.8940  -11.7480   20.5170 N   0  0  0  0  0  0  0  0  0  0  0  0
  -23.8750  -10.5280   21.0280 C   0  0  0  0  0  0  0  0  0  0  0  0
  -24.3170   -9.5570   21.9530 C   0  0  0  0  0  3  0  0  0  0  0  0
  -23.5890   -8.3630   22.1420 C   0  0  0  0  0  3  0  0  0  0  0  0
  -22.4010   -8.1320   21.4050 C   0  0  0  0  0  0  0  0  0  0  0  0
  -21.9790   -9.0920   20.4690 C   0  0  0  0  0  3  0  0  0  0  0  0
  -22.7090  -10.2780   20.2780 C   0  0  0  0  0  3  0  0  0  0  0  0
  -21.6430   -6.9900   21.5030 O   0  0  0  0  0  0  0  0  0  0  0  0
  -21.6210   -6.2380   22.6490 C   0  0  0  0  0  0  0  0  0  0  0  0
  -21.2420   -6.7870   23.8940 C   0  0  0  0  0  3  0  0  0  0  0  0
  -21.1660   -5.9620   25.0340 C   0  0  0  0  0  3  0  0  0  0  0  0
  -21.4560   -4.5880   24.9290 C   0  0  0  0  0  0  0  0  0  0  0  0
  -21.8280   -4.0370   23.6900 C   0  0  0  0  0  3  0  0  0  0  0  0
  -21.9060   -4.8610   22.5530 C   0  0  0  0  0  0  0  0  0  0  0  0
  -22.2440   -4.3220   21.3560 F   0  0  0  0  0  0  0  0  0  0  0  0
  -21.3750   -3.7930   26.0230 F   0  0  0  0  0  0  0  0  0  0  0  0
  -22.7470  -13.6220   21.1250 C   0  0  0  0  0  0  0  0  0  0  0  0
  -22.0200  -12.9320   21.9970 N   0  0  0  0  0  0  0  0  0  0  0  0
  -22.3110  -14.6450   20.6000 O   0  0  0  0  0  0  0  0  0  0  0  0
  -22.3860  -12.1020   22.4410 H   0  0  0  0  0  0  0  0  0  0  0  0
  -21.0850  -13.2390   22.2250 H   0  0  0  0  0  0  0  0  0  0  0  0
  -25.3770  -15.2810   20.2970 N   0  0  0  0  0  0  0  0  0  0  0  0
  -24.6160  -15.9390   20.4260 H   0  0  0  0  0  0  0  0  0  0  0  0
  -26.2270  -15.7220   19.9700 H   0  0  0  0  0  0  0  0  0  0  0  0
  1  5  1  0
  2  4  2  0
  2  3  1  0
  3  1  2  0
  4  5  1  0
  6  7  1  6
  6  9  1  0
  6  2  1  0
  8  6  1  0
 10 15  1  0
 11 10  1  0
 11  3  1  0
 12 10  2  0
 13 11  1  0
 15 14  1  0
 16 15  1  0
 17 28  2  0
 18 16  1  0
 18 23  1  0
 19 27  1  0
 19 29  1  0
 20 26  1  0
 20 22  1  0
 21 27  1  0
 22 23  2  0
 22 21  1  0
 24 25  1  0
 24 18  2  0
 25 20  2  0
 26 19  1  0
 27 17  1  0
 29 31  2  0
 30 29  1  0
 32 30  1  0
 33 42  2  0
 33 38  1  0
 34 30  1  0
 34 38  1  0
 35 34  1  0
 36 37  1  0
 36 35  1  0
 37 33  1  0
 38 39  2  0
 39 40  1  0
 41 40  2  0
 42 41  1  0
 43 17  1  0
 43 48  1  0
 43 44  1  0
 44 47  1  1
 44 45  1  0
 46 44  1  0
 48 51  1  0
 49 53  1  0
 49 48  1  0
 50 49  2  0
 53 52  1  0
 55 53  1  0
 55 56  1  0
 55 54  1  0
 57  4  1  0
 57 66  1  0
 58 66  1  0
 59 64  1  0
 60 61  1  0
 60 59  1  0
 62 61  1  0
 62 71  1  0
 62 63  1  0
 64 58  1  0
 64 63  1  0
 65 58  2  0
 66 67  1  0
 68 69  2  0
 69 88  1  0
 70 69  1  0
 70 73  1  0
 71 68  1  0
 71 72  1  0
 72 70  2  0
 73 74  1  0
 74 75  2  0
 76 79  1  0
 76 75  1  0
 77 76  2  0
 78 77  1  0
 78 73  2  0
 79 80  1  0
 80 81  1  0
 81 82  2  0
 83 82  1  0
 83 87  1  0
 84 83  2  0
 85 80  2  0
 85 84  1  0
 86 85  1  0
 88 89  1  0
 89 92  1  0
 89 91  1  0
 90 88  2  0
 93 94  1  0
 93 68  1  0
 95 93  1  0
M  ISO  4  15 101  16 101  58 100  66 100
M  END
>  <TORSDO>  (68) 
F 20

>  <SCORE>  (68) 
-14.312

>  <name>  (68) 
67

>  <ligand_id>  (68) 
67

>  <original_smiles>  (68) 
[H]c1sc(C([H])([H])N([H])C(=O)N2C([H])([H])C([H])([H])C([H])([H])C([H])(n3nc(-c4c([H])c([H])c(Oc5c([H])c([H])c(F)c([H])c5F)c([H])c4[H])c(C(=O)N([H])[H])c3N([H])[H])C2([H])[H])c(C(F)(F)F)c1N([H])C(=O)C([H])(Oc1c([H])c([H])c2c(c1[H])C([H])([H])N(C(=O)C([H])(N([H])C(=O)C([H])(N([H])C([H])([H])[H])C([H])([H])[H])C(C([H])([H])[H])(C([H])([H])[H])C([H])([H])[H])C([H])(C(=O)N([H])C1([H])c3c([H])c([H])c([H])c([H])c3C([H])([H])C([H])([H])C1([H])[H])C2([H])[H])C([H])([H])[H]

>  <smiles>  (68) 
[H]c1sc(C([H])([H])N([H])C(=O)N2C([H])([H])C([H])([H])C([H])([H])C([H])(n3nc(-c4c([H])c([H])c(Oc5c([H])c([H])c(F)c([H])c5F)c([H])c4[H])c(C(=O)N([H])[H])c3N([H])[H])C2([H])[H])c(C(F)(F)F)c1N([H])C(=O)C([H])(Oc1c([H])c([H])c2c(c1[H])C([H])([H])N(C(=O)C([H])(N([H])C(=O)C([H])(N([H])C([H])([H])[H])C([H])([H])[H])C(C([H])([H])[H])(C([H])([H])[H])C([H])([H])[H])C([H])(C(=O)N([H])C1([H])c3c([H])c([H])c([H])c([H])c3C([H])([H])C([H])([H])C1([H])[H])C2([H])[H])C([H])([H])[H]

$$$$
68:0:0
     RDKit          3D

 95103  0  0  1  0  0  0  0  0999 V2000
  -28.5030  -21.6090   20.1630 C   0  0  0  0  0  0  0  0  0  0  0  0
  -29.1560  -20.5420   20.6800 N   0  0  0  0  0  0  0  0  0  0  0  0
  -27.8680  -21.5660   19.1060 O   0  0  0  0  0  0  0  0  0  0  0  0
  -29.4550  -20.6300   21.6390 H   0  0  0  0  0  0  0  0  0  0  0  0
  -30.6920  -14.5630   20.4680 C   0  0  0  0  0  0  0  0  0  0  0  0
  -30.4170  -12.3700   19.4020 C   0  0  0  0  0  2  0  0  0  0  0  0
  -29.5060  -12.5760   18.1730 C   0  0  0  0  0  2  0  0  0  0  0  0
  -28.0220  -12.4480   18.5730 C   0  0  0  0  0  2  0  0  0  0  0  0
  -27.6600  -13.2910   19.8260 C   0  0  0  0  0  3  0  0  0  0  0  0
  -28.6960  -13.0950   20.9560 C   0  0  0  0  0  2  0  0  0  0  0  0
  -30.0300  -13.3740   20.4050 N   0  0  0  0  0  0  0  0  0  0  0  0
  -31.8760  -14.6710   20.1340 O   0  0  0  0  0  0  0  0  0  0  0  0
  -29.5090  -18.0780   20.6830 C   0  0  0  0  0  3  0  0  0  0  0  0
  -29.5550  -19.3350   20.0140 C   0  0  0  0  0  0  0  0  0  0  0  0
  -30.1190  -19.3650   18.7170 C   0  0  0  0  0  0  0  0  0  0  0  0
  -30.5460  -18.1560   18.1430 C   0  0  0  0  0  0  0  0  0  0  0  0
  -29.9980  -16.9020   20.0470 C   0  0  0  0  0  0  0  0  0  0  0  0
  -31.1470  -18.1340   16.7530 C   0  0  0  0  0  1  0  0  0  0  0  0
  -30.4770  -16.9700   18.7810 N   0  0  0  0  0  0  0  0  0  0  0  0
  -29.9330  -15.6500   20.7410 N   0  0  0  0  0  0  0  0  0  0  0  0
  -30.2950  -20.5280   18.0410 F   0  0  0  0  0  0  0  0  0  0  0  0
  -29.0760  -15.4740   21.2400 H   0  0  0  0  0  0  0  0  0  0  0  0
  -25.2500  -13.8980   20.4890 C   0  0  0  0  0  0  0  0  0  0  0  0
  -24.1770  -13.1260   20.8450 C   0  0  0  0  0  0  0  0  0  0  0  0
  -24.6420  -11.7750   20.8340 C   0  0  0  0  0  0  0  0  0  0  0  0
  -26.3010  -13.0170   20.2830 N   0  0  0  0  0  0  0  0  0  0  0  0
  -25.9370  -11.7350   20.5490 N   0  0  0  0  0  0  0  0  0  0  0  0
  -23.9130  -10.5130   21.0200 C   0  0  0  0  0  0  0  0  0  0  0  0
  -24.3280   -9.5550   21.9720 C   0  0  0  0  0  3  0  0  0  0  0  0
  -23.6020   -8.3580   22.1450 C   0  0  0  0  0  3  0  0  0  0  0  0
  -22.4470   -8.1090   21.3660 C   0  0  0  0  0  0  0  0  0  0  0  0
  -22.0520   -9.0550   20.4040 C   0  0  0  0  0  3  0  0  0  0  0  0
  -22.7790  -10.2450   20.2280 C   0  0  0  0  0  3  0  0  0  0  0  0
  -21.6940   -6.9630   21.4480 O   0  0  0  0  0  0  0  0  0  0  0  0
  -21.6140   -6.2340   22.6070 C   0  0  0  0  0  0  0  0  0  0  0  0
  -21.1390   -6.8000   23.8110 C   0  0  0  0  0  3  0  0  0  0  0  0
  -21.0080   -5.9970   24.9610 C   0  0  0  0  0  3  0  0  0  0  0  0
  -21.3420   -4.6300   24.9100 C   0  0  0  0  0  0  0  0  0  0  0  0
  -21.8110   -4.0640   23.7110 C   0  0  0  0  0  3  0  0  0  0  0  0
  -21.9440   -4.8640   22.5630 C   0  0  0  0  0  0  0  0  0  0  0  0
  -22.3760   -4.3100   21.4050 F   0  0  0  0  0  0  0  0  0  0  0  0
  -21.2090   -3.8570   26.0130 F   0  0  0  0  0  0  0  0  0  0  0  0
  -22.7740  -13.6030   21.0870 C   0  0  0  0  0  0  0  0  0  0  0  0
  -22.0320  -12.9150   21.9480 N   0  0  0  0  0  0  0  0  0  0  0  0
  -22.3430  -14.6210   20.5490 O   0  0  0  0  0  0  0  0  0  0  0  0
  -22.3910  -12.0910   22.4070 H   0  0  0  0  0  0  0  0  0  0  0  0
  -21.0890  -13.2160   22.1500 H   0  0  0  0  0  0  0  0  0  0  0  0
  -25.4160  -15.2670   20.3030 N   0  0  0  0  0  0  0  0  0  0  0  0
  -24.6430  -15.9180   20.3890 H   0  0  0  0  0  0  0  0  0  0  0  0
  -26.2630  -15.7030   19.9600 H   0  0  0  0  0  0  0  0  0  0  0  0
  -28.5000  -22.9090   20.9970 C   0  0  0  0  0  2  0  0  0  0  0  0
  -28.1460  -24.2160   20.2130 C   0  0  0  0  0  2  0  0  0  0  0  0
  -27.6960  -25.6530   22.3250 C   0  0  0  0  0  1  0  0  0  0  0  0
  -28.4570  -25.5300   20.9890 C   0  0  0  0  0  3  0  0  0  0  0  0
  -28.3860  -26.7360   20.1870 O   0  0  0  0  0  0  0  0  0  0  0  0
  -24.5420  -31.8890   23.2630 C   0  0  0  0  0  0  0  0  0  0  0  0
  -27.2140  -27.4640   20.1830 C   0  0  0  0  0  0  0  0  0  0  0  0
  -23.3480  -30.4880   21.6100 C   0  0  0  0  0  3  0  0  0  0  0  0
  -24.8150  -28.9620   20.1840 C   0  0  0  0  0  0  0  0  0  0  0  0
  -25.8720  -30.8600   21.4220 C   0  0  0  0  0  2  0  0  0  0  0  0
  -25.9680  -29.4910   20.7780 C   0  0  0  0  0  0  0  0  0  0  0  0
  -27.1730  -28.7510   20.7690 C   0  0  0  0  0  3  0  0  0  0  0  0
  -26.0490  -26.9500   19.5800 C   0  0  0  0  0  3  0  0  0  0  0  0
  -24.8510  -27.6910   19.5810 C   0  0  0  0  0  3  0  0  0  0  0  0
  -23.5660  -29.8140   20.2290 C   0  0  0  0  0  2  0  0  0  0  0  0
  -24.6060  -31.0950   22.1570 N   0  0  0  0  0  0  0  0  0  0  0  0
  -23.4580  -32.1550   23.8000 O   0  0  0  0  0  0  0  0  0  0  0  0
  -22.6980  -29.4620   22.5650 C   0  0  0  0  0  0  0  0  0  0  0  0
  -21.3740  -29.2790   22.4340 N   0  0  0  0  0  0  0  0  0  0  0  0
  -23.3810  -28.8310   23.3760 O   0  0  0  0  0  0  0  0  0  0  0  0
  -20.8830  -29.8390   21.7510 H   0  0  0  0  0  0  0  0  0  0  0  0
  -17.9970  -28.0950   22.9320 C   0  0  0  0  0  0  0  0  0  0  0  0
  -20.5570  -28.3360   23.1970 C   0  0  0  0  0  3  0  0  0  0  0  0
  -20.6500  -26.9110   22.6010 C   0  0  0  0  0  2  0  0  0  0  0  0
  -19.5420  -26.6080   21.5870 C   0  0  0  0  0  2  0  0  0  0  0  0
  -18.1640  -26.7530   22.2390 C   0  0  0  0  0  2  0  0  0  0  0  0
  -19.1210  -28.8450   23.3680 C   0  0  0  0  0  0  0  0  0  0  0  0
  -18.9120  -30.1020   23.9740 C   0  0  0  0  0  3  0  0  0  0  0  0
  -17.6100  -30.6100   24.1520 C   0  0  0  0  0  3  0  0  0  0  0  0
  -16.5000  -29.8550   23.7340 C   0  0  0  0  0  3  0  0  0  0  0  0
  -16.6950  -28.5990   23.1300 C   0  0  0  0  0  3  0  0  0  0  0  0
  -25.8230  -32.5220   23.8920 C   0  0  0  0  0  3  0  0  0  0  0  0
  -26.3210  -31.7650   25.1840 C   0  0  1  0  0  0  0  0  0  0  0  0
  -25.2140  -31.5460   26.2430 C   0  0  0  0  0  1  0  0  0  0  0  0
  -26.9020  -30.3800   24.8140 C   0  0  0  0  0  1  0  0  0  0  0  0
  -27.4660  -32.5640   25.8510 C   0  0  0  0  0  1  0  0  0  0  0  0
  -25.5180  -33.9270   24.1960 N   0  0  0  0  0  0  0  0  0  0  0  0
  -25.8800  -34.9660   23.4310 C   0  0  0  0  0  0  0  0  0  0  0  0
  -26.5750  -34.8420   22.4190 O   0  0  0  0  0  0  0  0  0  0  0  0
  -24.9050  -34.0980   24.9800 H   0  0  0  0  0  0  0  0  0  0  0  0
  -24.1920  -36.7780   22.9910 C   0  0  0  0  0  1  0  0  0  0  0  0
  -25.3930  -36.3650   23.8570 C   0  0  0  0  0  3  0  0  0  0  0  0
  -27.5020  -37.2300   24.7690 C   0  0  0  0  0  1  0  0  0  0  0  0
  -26.4440  -37.4020   23.7770 N   0  0  0  0  0  0  0  0  0  0  0  0
  -26.0440  -38.3290   23.8980 H   0  0  0  0  0  0  0  0  0  0  0  0
  1  2  1  0
  1 51  1  0
  2  4  1  0
  3  1  2  0
  5 20  1  0
  6 11  1  0
  7  8  1  0
  7  6  1  0
  9  8  1  0
  9 26  1  0
  9 10  1  0
 11  5  1  0
 11 10  1  0
 12  5  2  0
 14  2  1  0
 14 13  2  0
 15 14  1  0
 16 15  2  0
 16 19  1  0
 17 13  1  0
 17 20  1  0
 18 16  1  0
 19 17  2  0
 20 22  1  0
 21 15  1  0
 23 24  2  0
 24 43  1  0
 25 24  1  0
 25 28  1  0
 26 23  1  0
 26 27  1  0
 27 25  2  0
 28 29  1  0
 29 30  2  0
 31 34  1  0
 31 30  1  0
 32 31  2  0
 33 32  1  0
 33 28  2  0
 34 35  1  0
 35 36  1  0
 36 37  2  0
 38 37  1  0
 38 42  1  0
 39 38  2  0
 40 35  2  0
 40 39  1  0
 41 40  1  0
 43 44  1  0
 44 47  1  0
 44 46  1  0
 45 43  2  0
 48 49  1  0
 48 23  1  0
 50 48  1  0
 52 54  1  0
 52 51  1  0
 54 53  1  0
 55 54  1  0
 56 67  2  0
 57 55  1  0
 57 62  1  0
 58 66  1  0
 58 68  1  0
 59 65  1  0
 59 61  1  0
 60 66  1  0
 61 60  1  0
 62 61  2  0
 63 64  1  0
 63 57  2  0
 64 59  2  0
 65 58  1  0
 66 56  1  0
 68 70  2  0
 69 68  1  0
 71 69  1  0
 72 81  2  0
 72 77  1  0
 73 69  1  0
 73 77  1  0
 74 73  1  0
 75 76  1  0
 75 74  1  0
 76 72  1  0
 77 78  2  0
 78 79  1  0
 80 79  2  0
 81 80  1  0
 82 56  1  0
 82 87  1  0
 82 83  1  0
 83 86  1  1
 83 84  1  0
 85 83  1  0
 87 90  1  0
 88 92  1  0
 88 87  1  0
 89 88  2  0
 92 91  1  0
 94 92  1  0
 94 95  1  0
 94 93  1  0
M  ISO  4   5 100  20 100  54 101  55 101
M  END
>  <TORSDO>  (69) 
F 19

>  <SCORE>  (69) 
-14.537

>  <name>  (69) 
68

>  <ligand_id>  (69) 
68

>  <original_smiles>  (69) 
[H]c1c([H])c([H])c2c(c1[H])C([H])([H])C([H])([H])C([H])([H])C2([H])N([H])C(=O)C1([H])N(C(=O)C([H])(N([H])C(=O)C([H])(N([H])C([H])([H])[H])C([H])([H])[H])C(C([H])([H])[H])(C([H])([H])[H])C([H])([H])[H])C([H])([H])c2c([H])c(OC([H])(C([H])([H])[H])C([H])([H])C([H])([H])C(=O)N([H])c3c([H])c(N([H])C(=O)N4C([H])([H])C([H])([H])C([H])([H])C([H])(n5nc(-c6c([H])c([H])c(Oc7c([H])c([H])c(F)c([H])c7F)c([H])c6[H])c(C(=O)N([H])[H])c5N([H])[H])C4([H])[H])nc(C([H])([H])[H])c3F)c([H])c([H])c2C1([H])[H]

>  <smiles>  (69) 
[H]c1c([H])c([H])c2c(c1[H])C([H])([H])C([H])([H])C([H])([H])C2([H])N([H])C(=O)C1([H])N(C(=O)C([H])(N([H])C(=O)C([H])(N([H])C([H])([H])[H])C([H])([H])[H])C(C([H])([H])[H])(C([H])([H])[H])C([H])([H])[H])C([H])([H])c2c([H])c(OC([H])(C([H])([H])[H])C([H])([H])C([H])([H])C(=O)N([H])c3c([H])c(N([H])C(=O)N4C([H])([H])C([H])([H])C([H])([H])C([H])(n5nc(-c6c([H])c([H])c(Oc7c([H])c([H])c(F)c([H])c7F)c([H])c6[H])c(C(=O)N([H])[H])c5N([H])[H])C4([H])[H])nc(C([H])([H])[H])c3F)c([H])c([H])c2C1([H])[H]

$$$$
69:0:0
     RDKit          3D

 98106  0  0  1  0  0  0  0  0999 V2000
  -29.9620  -21.1660   19.9860 C   0  0  0  0  0  0  0  0  0  0  0  0
  -29.3250  -21.8320   20.9720 N   0  0  0  0  0  0  0  0  0  0  0  0
  -30.5890  -21.7550   19.1000 O   0  0  0  0  0  0  0  0  0  0  0  0
  -28.8300  -21.2080   21.5960 H   0  0  0  0  0  0  0  0  0  0  0  0
  -29.5750  -17.7510   21.4170 C   0  0  0  0  0  3  0  0  0  0  0  0
  -29.9340  -19.6380   20.0870 C   0  0  0  0  0  0  0  0  0  0  0  0
  -30.0880  -16.8830   20.4200 C   0  0  0  0  0  0  0  0  0  0  0  0
  -30.4060  -18.7570   19.0570 C   0  0  0  0  0  0  0  0  0  0  0  0
  -29.5030  -19.0990   21.2650 N   0  0  0  0  0  0  0  0  0  0  0  0
  -30.4810  -17.4140   19.2310 N   0  0  0  0  0  0  0  0  0  0  0  0
  -30.8330  -19.1610   17.7950 N   0  0  0  0  0  0  0  0  0  0  0  0
  -31.0030  -20.1490   17.6350 H   0  0  0  0  0  0  0  0  0  0  0  0
  -31.3630  -18.5280   17.2080 H   0  0  0  0  0  0  0  0  0  0  0  0
  -30.7670  -14.5030   20.0630 C   0  0  0  0  0  0  0  0  0  0  0  0
  -30.4300  -12.3460   18.9190 C   0  0  0  0  0  2  0  0  0  0  0  0
  -29.4260  -12.5760   17.7690 C   0  0  0  0  0  2  0  0  0  0  0  0
  -27.9740  -12.4380   18.2710 C   0  0  0  0  0  2  0  0  0  0  0  0
  -27.7090  -13.2490   19.5690 C   0  0  0  0  0  3  0  0  0  0  0  0
  -28.8210  -12.9940   20.6130 C   0  0  0  0  0  2  0  0  0  0  0  0
  -30.1170  -13.3090   19.9870 N   0  0  0  0  0  0  0  0  0  0  0  0
  -31.8570  -14.6990   19.5130 O   0  0  0  0  0  0  0  0  0  0  0  0
  -30.1020  -15.4810   20.7110 N   0  0  0  0  0  0  0  0  0  0  0  0
  -29.3720  -15.1640   21.3290 H   0  0  0  0  0  0  0  0  0  0  0  0
  -25.3640  -13.8570   20.4360 C   0  0  0  0  0  0  0  0  0  0  0  0
  -24.3110  -13.0850   20.8480 C   0  0  0  0  0  0  0  0  0  0  0  0
  -24.7540  -11.7300   20.7490 C   0  0  0  0  0  0  0  0  0  0  0  0
  -26.3820  -12.9730   20.1150 N   0  0  0  0  0  0  0  0  0  0  0  0
  -26.0210  -11.6880   20.3590 N   0  0  0  0  0  0  0  0  0  0  0  0
  -24.0270  -10.4690   20.9460 C   0  0  0  0  0  0  0  0  0  0  0  0
  -24.4600   -9.5060   21.8820 C   0  0  0  0  0  3  0  0  0  0  0  0
  -23.7330   -8.3100   22.0670 C   0  0  0  0  0  3  0  0  0  0  0  0
  -22.5600   -8.0690   21.3140 C   0  0  0  0  0  0  0  0  0  0  0  0
  -22.1460   -9.0220   20.3660 C   0  0  0  0  0  3  0  0  0  0  0  0
  -22.8740  -10.2090   20.1790 C   0  0  0  0  0  3  0  0  0  0  0  0
  -21.8070   -6.9240   21.4060 O   0  0  0  0  0  0  0  0  0  0  0  0
  -21.6990   -6.2260   22.5810 C   0  0  0  0  0  0  0  0  0  0  0  0
  -21.1560   -6.8090   23.7480 C   0  0  0  0  0  3  0  0  0  0  0  0
  -20.9980   -6.0350   24.9140 C   0  0  0  0  0  3  0  0  0  0  0  0
  -21.3740   -4.6790   24.9160 C   0  0  0  0  0  0  0  0  0  0  0  0
  -21.9100   -4.0950   23.7550 C   0  0  0  0  0  3  0  0  0  0  0  0
  -22.0680   -4.8660   22.5910 C   0  0  0  0  0  0  0  0  0  0  0  0
  -22.5660   -4.2930   21.4680 F   0  0  0  0  0  0  0  0  0  0  0  0
  -21.2160   -3.9330   26.0350 F   0  0  0  0  0  0  0  0  0  0  0  0
  -22.9370  -13.5670   21.2190 C   0  0  0  0  0  0  0  0  0  0  0  0
  -22.2540  -12.8520   22.1040 N   0  0  0  0  0  0  0  0  0  0  0  0
  -22.4830  -14.6140   20.7610 O   0  0  0  0  0  0  0  0  0  0  0  0
  -22.6370  -12.0070   22.5000 H   0  0  0  0  0  0  0  0  0  0  0  0
  -21.3340  -13.1570   22.3910 H   0  0  0  0  0  0  0  0  0  0  0  0
  -25.5340  -15.2310   20.2910 N   0  0  0  0  0  0  0  0  0  0  0  0
  -24.7780  -15.8880   20.4580 H   0  0  0  0  0  0  0  0  0  0  0  0
  -26.3560  -15.6700   19.8990 H   0  0  0  0  0  0  0  0  0  0  0  0
  -28.8390  -23.2810   22.8410 C   0  0  0  0  0  1  0  0  0  0  0  0
  -30.9640  -23.6010   21.5420 C   0  0  0  0  0  1  0  0  0  0  0  0
  -29.4630  -23.2390   21.4300 C   0  0  1  0  0  0  0  0  0  0  0  0
  -28.7280  -24.2750   20.5180 C   0  0  0  0  0  0  0  0  0  0  0  0
  -28.2150  -23.9440   19.4430 O   0  0  0  0  0  0  0  0  0  0  0  0
  -28.6320  -25.7390   21.0330 C   0  0  0  0  0  2  0  0  0  0  0  0
  -28.4780  -26.7050   19.9780 O   0  0  0  0  0  0  0  0  0  0  0  0
  -24.5330  -31.7880   23.1110 C   0  0  0  0  0  0  0  0  0  0  0  0
  -27.3100  -27.4300   20.0250 C   0  0  0  0  0  0  0  0  0  0  0  0
  -23.3820  -30.3890   21.4280 C   0  0  0  0  0  3  0  0  0  0  0  0
  -24.8900  -28.8920   20.0150 C   0  0  0  0  0  0  0  0  0  0  0  0
  -25.9040  -30.7930   21.2800 C   0  0  0  0  0  2  0  0  0  0  0  0
  -26.0270  -29.4290   20.6320 C   0  0  0  0  0  0  0  0  0  0  0  0
  -27.2420  -28.7030   20.6380 C   0  0  0  0  0  3  0  0  0  0  0  0
  -26.1580  -26.9040   19.4080 C   0  0  0  0  0  3  0  0  0  0  0  0
  -24.9490  -27.6280   19.4010 C   0  0  0  0  0  3  0  0  0  0  0  0
  -23.6310  -29.7300   20.0440 C   0  0  0  0  0  2  0  0  0  0  0  0
  -24.6240  -31.0040   22.0000 N   0  0  0  0  0  0  0  0  0  0  0  0
  -23.4380  -32.0340   23.6350 O   0  0  0  0  0  0  0  0  0  0  0  0
  -22.7300  -29.3440   22.3630 C   0  0  0  0  0  0  0  0  0  0  0  0
  -21.4050  -29.1650   22.2300 N   0  0  0  0  0  0  0  0  0  0  0  0
  -23.4130  -28.6990   23.1640 O   0  0  0  0  0  0  0  0  0  0  0  0
  -20.9160  -29.7370   21.5550 H   0  0  0  0  0  0  0  0  0  0  0  0
  -18.0260  -27.9860   22.7220 C   0  0  0  0  0  0  0  0  0  0  0  0
  -20.5890  -28.2100   22.9760 C   0  0  0  0  0  3  0  0  0  0  0  0
  -20.6720  -26.7990   22.3480 C   0  0  0  0  0  2  0  0  0  0  0  0
  -19.5560  -26.5230   21.3360 C   0  0  0  0  0  2  0  0  0  0  0  0
  -18.1820  -26.6600   21.9980 C   0  0  0  0  0  2  0  0  0  0  0  0
  -19.1560  -28.7210   23.1680 C   0  0  0  0  0  0  0  0  0  0  0  0
  -18.9570  -29.9650   23.8060 C   0  0  0  0  0  3  0  0  0  0  0  0
  -17.6600  -30.4740   24.0030 C   0  0  0  0  0  3  0  0  0  0  0  0
  -16.5420  -29.7350   23.5720 C   0  0  0  0  0  3  0  0  0  0  0  0
  -16.7280  -28.4930   22.9380 C   0  0  0  0  0  3  0  0  0  0  0  0
  -25.7970  -32.4320   23.7650 C   0  0  0  0  0  3  0  0  0  0  0  0
  -26.3140  -31.6410   25.0290 C   0  0  1  0  0  0  0  0  0  0  0  0
  -25.2120  -31.3540   26.0750 C   0  0  0  0  0  1  0  0  0  0  0  0
  -26.9340  -30.2880   24.6110 C   0  0  0  0  0  1  0  0  0  0  0  0
  -27.4360  -32.4470   25.7250 C   0  0  0  0  0  1  0  0  0  0  0  0
  -25.4530  -33.8140   24.1190 N   0  0  0  0  0  0  0  0  0  0  0  0
  -25.7700  -34.8890   23.3840 C   0  0  0  0  0  0  0  0  0  0  0  0
  -26.4490  -34.8210   22.3570 O   0  0  0  0  0  0  0  0  0  0  0  0
  -24.8450  -33.9380   24.9150 H   0  0  0  0  0  0  0  0  0  0  0  0
  -24.0080  -36.6530   23.0460 C   0  0  0  0  0  1  0  0  0  0  0  0
  -25.2470  -36.2570   23.8640 C   0  0  0  0  0  3  0  0  0  0  0  0
  -27.3470  -37.1730   24.7480 C   0  0  0  0  0  1  0  0  0  0  0  0
  -26.2590  -37.3330   23.7870 N   0  0  0  0  0  0  0  0  0  0  0  0
  -25.8300  -38.2410   23.9400 H   0  0  0  0  0  0  0  0  0  0  0  0
  1  6  1  0
  1  2  1  0
  2 54  1  0
  2  4  1  0
  3  1  2  0
  6  9  2  0
  7 22  1  0
  7  5  2  0
  8 10  2  0
  8  6  1  0
  9  5  1  0
 10  7  1  0
 11  8  1  0
 12 11  1  0
 13 11  1  0
 14 22  1  0
 15 20  1  0
 16 17  1  0
 16 15  1  0
 18 17  1  0
 18 27  1  0
 18 19  1  0
 20 14  1  0
 20 19  1  0
 21 14  2  0
 22 23  1  0
 24 25  2  0
 25 44  1  0
 26 25  1  0
 26 29  1  0
 27 28  1  0
 27 24  1  0
 28 26  2  0
 29 30  1  0
 30 31  2  0
 32 35  1  0
 32 31  1  0
 33 32  2  0
 34 33  1  0
 34 29  2  0
 35 36  1  0
 36 41  2  0
 36 37  1  0
 37 38  2  0
 38 39  1  0
 39 43  1  0
 40 39  2  0
 41 40  1  0
 42 41  1  0
 44 45  1  0
 45 48  1  0
 45 47  1  0
 46 44  2  0
 49 24  1  0
 49 50  1  0
 51 49  1  0
 54 53  1  1
 54 52  1  0
 55 57  1  0
 55 54  1  0
 56 55  2  0
 58 60  1  0
 58 57  1  0
 59 70  2  0
 60 65  1  0
 61 69  1  0
 61 71  1  0
 62 68  1  0
 62 64  1  0
 63 69  1  0
 64 65  2  0
 64 63  1  0
 66 60  2  0
 67 66  1  0
 67 62  2  0
 68 61  1  0
 69 59  1  0
 71 73  2  0
 72 71  1  0
 74 72  1  0
 75 84  2  0
 75 80  1  0
 76 72  1  0
 76 80  1  0
 77 76  1  0
 78 79  1  0
 78 77  1  0
 79 75  1  0
 80 81  2  0
 81 82  1  0
 83 82  2  0
 84 83  1  0
 85 59  1  0
 85 90  1  0
 85 86  1  0
 86 89  1  1
 86 87  1  0
 88 86  1  0
 90 93  1  0
 91 95  1  0
 91 90  1  0
 92 91  2  0
 95 94  1  0
 97 95  1  0
 97 98  1  0
 97 96  1  0
M  ISO  4  14 100  22 100  57 101  58 101
M  END
>  <TORSDO>  (70) 
F 20

>  <SCORE>  (70) 
-13.172

>  <name>  (70) 
69

>  <ligand_id>  (70) 
69

>  <original_smiles>  (70) 
[H]c1nc(C(=O)N([H])C(C(=O)C([H])([H])Oc2c([H])c([H])c3c(c2[H])C([H])([H])N(C(=O)C([H])(N([H])C(=O)C([H])(N([H])C([H])([H])[H])C([H])([H])[H])C(C([H])([H])[H])(C([H])([H])[H])C([H])([H])[H])C([H])(C(=O)N([H])C2([H])c4c([H])c([H])c([H])c([H])c4C([H])([H])C([H])([H])C2([H])[H])C3([H])[H])(C([H])([H])[H])C([H])([H])[H])c(N([H])[H])nc1N([H])C(=O)N1C([H])([H])C([H])([H])C([H])([H])C([H])(n2nc(-c3c([H])c([H])c(Oc4c([H])c([H])c(F)c([H])c4F)c([H])c3[H])c(C(=O)N([H])[H])c2N([H])[H])C1([H])[H]

>  <smiles>  (70) 
[H]c1nc(C(=O)N([H])C(C(=O)C([H])([H])Oc2c([H])c([H])c3c(c2[H])C([H])([H])N(C(=O)C([H])(N([H])C(=O)C([H])(N([H])C([H])([H])[H])C([H])([H])[H])C(C([H])([H])[H])(C([H])([H])[H])C([H])([H])[H])C([H])(C(=O)N([H])C2([H])c4c([H])c([H])c([H])c([H])c4C([H])([H])C([H])([H])C2([H])[H])C3([H])[H])(C([H])([H])[H])C([H])([H])[H])c(N([H])[H])nc1N([H])C(=O)N1C([H])([H])C([H])([H])C([H])([H])C([H])(n2nc(-c3c([H])c([H])c(Oc4c([H])c([H])c(F)c([H])c4F)c([H])c3[H])c(C(=O)N([H])[H])c2N([H])[H])C1([H])[H]

$$$$
70:0:0
     RDKit          3D

 98106  0  0  1  0  0  0  0  0999 V2000
  -29.4860  -16.6180   18.6970 C   0  0  0  0  0  3  0  0  0  0  0  0
  -29.3720  -18.8570   18.1520 C   0  0  0  0  0  0  0  0  0  0  0  0
  -29.8270  -16.9020   20.0420 C   0  0  0  0  0  0  0  0  0  0  0  0
  -29.6630  -19.2280   19.5030 C   0  0  0  0  0  0  0  0  0  0  0  0
  -29.3230  -21.5440   20.5900 C   0  0  0  0  0  0  0  0  0  0  0  0
  -29.2480  -17.5670   17.7760 N   0  0  0  0  0  0  0  0  0  0  0  0
  -29.8720  -18.2280   20.4420 N   0  0  0  0  0  0  0  0  0  0  0  0
  -29.8040  -20.6550   19.6870 N   0  0  0  0  0  0  0  0  0  0  0  0
  -28.8710  -21.2180   21.6910 O   0  0  0  0  0  0  0  0  0  0  0  0
  -30.1280  -21.1140   18.8460 H   0  0  0  0  0  0  0  0  0  0  0  0
  -30.7660  -14.6500   20.5890 C   0  0  0  0  0  0  0  0  0  0  0  0
  -30.5150  -12.4580   19.4770 C   0  0  0  0  0  2  0  0  0  0  0  0
  -29.5850  -12.6350   18.2590 C   0  0  0  0  0  2  0  0  0  0  0  0
  -28.1040  -12.5170   18.6720 C   0  0  0  0  0  2  0  0  0  0  0  0
  -27.7560  -13.3310   19.9490 C   0  0  0  0  0  3  0  0  0  0  0  0
  -28.8070  -13.1240   21.0630 C   0  0  0  0  0  2  0  0  0  0  0  0
  -30.1230  -13.4480   20.4990 N   0  0  0  0  0  0  0  0  0  0  0  0
  -31.9360  -14.7870   20.2180 O   0  0  0  0  0  0  0  0  0  0  0  0
  -30.0080  -15.7430   20.9020 N   0  0  0  0  0  0  0  0  0  0  0  0
  -29.2050  -15.5310   21.4730 H   0  0  0  0  0  0  0  0  0  0  0  0
  -25.3550  -13.9210   20.6550 C   0  0  0  0  0  0  0  0  0  0  0  0
  -24.2850  -13.1410   21.0010 C   0  0  0  0  0  0  0  0  0  0  0  0
  -24.7490  -11.7900   20.9570 C   0  0  0  0  0  0  0  0  0  0  0  0
  -26.4040  -13.0450   20.4190 N   0  0  0  0  0  0  0  0  0  0  0  0
  -26.0430  -11.7590   20.6640 N   0  0  0  0  0  0  0  0  0  0  0  0
  -24.0230  -10.5240   21.1200 C   0  0  0  0  0  0  0  0  0  0  0  0
  -24.4270   -9.5560   22.0680 C   0  0  0  0  0  3  0  0  0  0  0  0
  -23.7010   -8.3540   22.2180 C   0  0  0  0  0  3  0  0  0  0  0  0
  -22.5590   -8.1120   21.4190 C   0  0  0  0  0  0  0  0  0  0  0  0
  -22.1740   -9.0660   20.4610 C   0  0  0  0  0  3  0  0  0  0  0  0
  -22.9000  -10.2590   20.3090 C   0  0  0  0  0  3  0  0  0  0  0  0
  -21.8090   -6.9630   21.4790 O   0  0  0  0  0  0  0  0  0  0  0  0
  -21.7020   -6.2300   22.6350 C   0  0  0  0  0  0  0  0  0  0  0  0
  -21.1540   -6.7780   23.8150 C   0  0  0  0  0  3  0  0  0  0  0  0
  -20.9980   -5.9720   24.9600 C   0  0  0  0  0  3  0  0  0  0  0  0
  -21.3800   -4.6180   24.9260 C   0  0  0  0  0  0  0  0  0  0  0  0
  -21.9200   -4.0670   23.7500 C   0  0  0  0  0  3  0  0  0  0  0  0
  -22.0770   -4.8710   22.6070 C   0  0  0  0  0  0  0  0  0  0  0  0
  -22.5800   -4.3320   21.4690 F   0  0  0  0  0  0  0  0  0  0  0  0
  -21.2230   -3.8410   26.0220 F   0  0  0  0  0  0  0  0  0  0  0  0
  -22.8830  -13.6120   21.2600 C   0  0  0  0  0  0  0  0  0  0  0  0
  -22.1410  -12.8980   22.1000 N   0  0  0  0  0  0  0  0  0  0  0  0
  -22.4520  -14.6470   20.7530 O   0  0  0  0  0  0  0  0  0  0  0  0
  -22.5080  -12.0670   22.5390 H   0  0  0  0  0  0  0  0  0  0  0  0
  -21.1970  -13.1900   22.3110 H   0  0  0  0  0  0  0  0  0  0  0  0
  -25.5190  -15.2930   20.4940 N   0  0  0  0  0  0  0  0  0  0  0  0
  -24.7410  -15.9360   20.6020 H   0  0  0  0  0  0  0  0  0  0  0  0
  -26.3480  -15.7350   20.1230 H   0  0  0  0  0  0  0  0  0  0  0  0
  -27.7070  -20.4570   17.0370 C   0  0  0  0  0  1  0  0  0  0  0  0
  -29.1240  -19.8670   17.0130 C   0  0  2  0  0  0  0  0  0  0  0  0
  -29.2650  -19.2600   15.8300 F   0  0  0  0  0  0  0  0  0  0  0  0
  -30.0120  -20.8660   17.0280 F   0  0  0  0  0  0  0  0  0  0  0  0
  -29.4160  -22.9360   20.0850 C   0  0  0  0  0  3  0  0  0  0  0  0
  -28.9330  -24.0780   20.6710 C   0  0  0  0  0  0  0  0  0  0  0  0
  -28.3130  -24.1090   21.8620 O   0  0  0  0  0  0  0  0  0  0  0  0
  -28.2900  -23.2170   22.1950 H   0  0  0  0  0  0  0  0  0  0  0  0
  -29.0360  -25.5060   20.0500 C   0  0  0  0  0  2  0  0  0  0  0  0
  -28.7180  -26.6640   20.8870 O   0  0  0  0  0  0  0  0  0  0  0  0
  -24.6500  -32.0060   23.4000 C   0  0  0  0  0  0  0  0  0  0  0  0
  -27.5470  -27.4070   20.7190 C   0  0  0  0  0  0  0  0  0  0  0  0
  -23.5810  -30.5130   21.7460 C   0  0  0  0  0  3  0  0  0  0  0  0
  -25.1460  -28.9310   20.4950 C   0  0  0  0  0  0  0  0  0  0  0  0
  -26.1160  -30.8840   21.7100 C   0  0  0  0  0  2  0  0  0  0  0  0
  -26.2600  -29.4810   21.1410 C   0  0  0  0  0  0  0  0  0  0  0  0
  -27.4580  -28.7250   21.2490 C   0  0  0  0  0  3  0  0  0  0  0  0
  -26.4050  -26.8850   20.0700 C   0  0  0  0  0  3  0  0  0  0  0  0
  -25.2180  -27.6350   19.9580 C   0  0  0  0  0  3  0  0  0  0  0  0
  -23.8990  -29.7830   20.4140 C   0  0  0  0  0  2  0  0  0  0  0  0
  -24.7970  -31.1550   22.3450 N   0  0  0  0  0  0  0  0  0  0  0  0
  -23.5280  -32.2860   23.8500 O   0  0  0  0  0  0  0  0  0  0  0  0
  -22.8750  -29.5260   22.7050 C   0  0  0  0  0  0  0  0  0  0  0  0
  -21.5580  -29.3430   22.5200 N   0  0  0  0  0  0  0  0  0  0  0  0
  -23.5140  -28.9250   23.5750 O   0  0  0  0  0  0  0  0  0  0  0  0
  -21.1050  -29.8770   21.7910 H   0  0  0  0  0  0  0  0  0  0  0  0
  -18.1400  -28.2470   22.9640 C   0  0  0  0  0  0  0  0  0  0  0  0
  -20.6990  -28.4330   23.2780 C   0  0  0  0  0  3  0  0  0  0  0  0
  -20.7700  -26.9980   22.7070 C   0  0  0  0  0  2  0  0  0  0  0  0
  -19.6770  -26.7030   21.6760 C   0  0  0  0  0  2  0  0  0  0  0  0
  -18.2880  -26.8910   22.2950 C   0  0  0  0  0  2  0  0  0  0  0  0
  -19.2720  -28.9770   23.4110 C   0  0  0  0  0  0  0  0  0  0  0  0
  -19.0800  -30.2480   23.9970 C   0  0  0  0  0  3  0  0  0  0  0  0
  -17.7870  -30.7850   24.1420 C   0  0  0  0  0  3  0  0  0  0  0  0
  -16.6690  -30.0510   23.7120 C   0  0  0  0  0  3  0  0  0  0  0  0
  -16.8450  -28.7840   23.1280 C   0  0  0  0  0  3  0  0  0  0  0  0
  -25.8780  -32.6900   24.0780 C   0  0  0  0  0  3  0  0  0  0  0  0
  -26.3120  -31.9930   25.4270 C   0  0  1  0  0  0  0  0  0  0  0  0
  -25.1450  -31.7730   26.4180 C   0  0  0  0  0  1  0  0  0  0  0  0
  -26.9610  -30.6170   25.1460 C   0  0  0  0  0  1  0  0  0  0  0  0
  -27.3860  -32.8500   26.1380 C   0  0  0  0  0  1  0  0  0  0  0  0
  -25.5300  -34.0980   24.3140 N   0  0  0  0  0  0  0  0  0  0  0  0
  -25.8900  -35.1140   23.5190 C   0  0  0  0  0  0  0  0  0  0  0  0
  -26.6200  -34.9670   22.5350 O   0  0  0  0  0  0  0  0  0  0  0  0
  -24.8920  -34.2850   25.0740 H   0  0  0  0  0  0  0  0  0  0  0  0
  -24.1640  -36.8570   22.9580 C   0  0  0  0  0  1  0  0  0  0  0  0
  -25.3540  -36.5150   23.8690 C   0  0  0  0  0  3  0  0  0  0  0  0
  -27.4120  -37.4860   24.7960 C   0  0  0  0  0  1  0  0  0  0  0  0
  -26.3780  -37.5790   23.7680 N   0  0  0  0  0  0  0  0  0  0  0  0
  -25.9490  -38.4980   23.8320 H   0  0  0  0  0  0  0  0  0  0  0  0
  1  3  1  0
  2  4  2  0
  3  7  2  0
  3 19  1  0
  4  8  1  0
  4  7  1  0
  5  9  2  0
  6  2  1  0
  6  1  2  0
  8  5  1  0
 10  8  1  0
 11 19  1  0
 12 17  1  0
 13 14  1  0
 13 12  1  0
 15 14  1  0
 15 24  1  0
 15 16  1  0
 17 11  1  0
 17 16  1  0
 18 11  2  0
 19 20  1  0
 21 22  2  0
 22 41  1  0
 23 22  1  0
 23 26  1  0
 24 21  1  0
 24 25  1  0
 25 23  2  0
 26 27  1  0
 27 28  2  0
 29 32  1  0
 29 28  1  0
 30 29  2  0
 31 30  1  0
 31 26  2  0
 32 33  1  0
 33 34  1  0
 34 35  2  0
 36 35  1  0
 36 40  1  0
 37 36  2  0
 38 33  2  0
 38 37  1  0
 39 38  1  0
 41 42  1  0
 42 45  1  0
 42 44  1  0
 43 41  2  0
 46 47  1  0
 46 21  1  0
 48 46  1  0
 50 52  1  0
 50 49  1  1
 50  2  1  0
 51 50  1  0
 53  5  1  0
 53 54  2  0
 54 55  1  0
 55 56  1  0
 57 54  1  0
 57 58  1  0
 59 70  2  0
 60 58  1  0
 60 65  1  0
 61 69  1  0
 61 71  1  0
 62 64  1  0
 63 69  1  0
 64 65  2  0
 64 63  1  0
 66 60  2  0
 67 66  1  0
 67 62  2  0
 68 62  1  0
 68 61  1  0
 69 59  1  0
 71 73  2  0
 72 71  1  0
 74 72  1  0
 75 84  2  0
 75 80  1  0
 76 72  1  0
 76 80  1  0
 77 76  1  0
 78 79  1  0
 78 77  1  0
 79 75  1  0
 80 81  2  0
 81 82  1  0
 83 82  2  0
 84 83  1  0
 85 59  1  0
 85 90  1  0
 85 86  1  0
 86 89  1  1
 86 87  1  0
 88 86  1  0
 90 93  1  0
 91 95  1  0
 91 90  1  0
 92 91  2  0
 95 94  1  0
 97 98  1  0
 97 95  1  0
 97 96  1  0
M  ISO  4  11 100  19 100  57 101  58 101
M  END
>  <TORSDO>  (71) 
F 20

>  <SCORE>  (71) 
-13.623

>  <name>  (71) 
70

>  <ligand_id>  (71) 
70

>  <original_smiles>  (71) 
[H]OC(=C([H])C(=O)N([H])c1nc(N([H])C(=O)N2C([H])([H])C([H])([H])C([H])([H])C([H])(n3nc(-c4c([H])c([H])c(Oc5c([H])c([H])c(F)c([H])c5F)c([H])c4[H])c(C(=O)N([H])[H])c3N([H])[H])C2([H])[H])c([H])nc1C(F)(F)C([H])([H])[H])C([H])([H])Oc1c([H])c([H])c2c(c1[H])C([H])([H])N(C(=O)C([H])(N([H])C(=O)C([H])(N([H])C([H])([H])[H])C([H])([H])[H])C(C([H])([H])[H])(C([H])([H])[H])C([H])([H])[H])C([H])(C(=O)N([H])C1([H])c3c([H])c([H])c([H])c([H])c3C([H])([H])C([H])([H])C1([H])[H])C2([H])[H]

>  <smiles>  (71) 
[H]OC(=C([H])C(=O)N([H])c1nc(N([H])C(=O)N2C([H])([H])C([H])([H])C([H])([H])C([H])(n3nc(-c4c([H])c([H])c(Oc5c([H])c([H])c(F)c([H])c5F)c([H])c4[H])c(C(=O)N([H])[H])c3N([H])[H])C2([H])[H])c([H])nc1C(F)(F)C([H])([H])[H])C([H])([H])Oc1c([H])c([H])c2c(c1[H])C([H])([H])N(C(=O)C([H])(N([H])C(=O)C([H])(N([H])C([H])([H])[H])C([H])([H])[H])C(C([H])([H])[H])(C([H])([H])[H])C([H])([H])[H])C([H])(C(=O)N([H])C1([H])c3c([H])c([H])c([H])c([H])c3C([H])([H])C([H])([H])C1([H])[H])C2([H])[H]

$$$$
71:0:0
     RDKit          3D

 95102  0  0  1  0  0  0  0  0999 V2000
  -29.1640  -17.6420   20.2440 C   0  0  0  0  0  0  0  0  0  0  0  0
  -27.9640  -18.2620   19.9480 C   0  0  0  0  0  0  0  0  0  0  0  0
  -29.8060  -19.8750   20.2740 C   0  0  0  0  0  0  0  0  0  0  0  0
  -30.2100  -18.5910   20.4550 N   0  0  0  0  0  0  0  0  0  0  0  0
  -30.5720  -21.0560   20.3600 N   0  0  0  0  0  0  0  0  0  0  0  0
  -28.1150  -19.9960   19.8450 S   0  0  0  0  0  0  0  0  0  0  0  0
  -31.5100  -20.9160   20.7210 H   0  0  0  0  0  0  0  0  0  0  0  0
  -26.6160  -17.6600   19.6820 C   0  0  0  0  0  3  0  0  0  0  0  0
  -26.5540  -16.3650   19.9900 F   0  0  0  0  0 15  0  0  0  0  0  0
  -25.6700  -18.2680   20.3960 F   0  0  0  0  0  0  0  0  0  0  0  0
  -26.2830  -17.7850   18.3990 F   0  0  0  0  0  0  0  0  0  0  0  0
  -29.2920  -16.1030   20.3280 C   0  0  0  0  0  2  0  0  0  0  0  0
  -30.9300  -14.2690   19.6120 C   0  0  0  0  0  0  0  0  0  0  0  0
  -30.6950  -11.8610   19.0860 C   0  0  0  0  0  2  0  0  0  0  0  0
  -29.7080  -11.6790   17.9150 C   0  0  0  0  0  2  0  0  0  0  0  0
  -28.2590  -11.5900   18.4360 C   0  0  0  0  0  2  0  0  0  0  0  0
  -27.9190  -12.7040   19.4620 C   0  0  0  0  0  3  0  0  0  0  0  0
  -29.0280  -12.8380   20.5320 C   0  0  0  0  0  2  0  0  0  0  0  0
  -30.2860  -13.0770   19.8170 N   0  0  0  0  0  0  0  0  0  0  0  0
  -32.0850  -14.2960   19.1870 O   0  0  0  0  0  0  0  0  0  0  0  0
  -30.1990  -15.4000   19.4110 N   0  0  0  0  0  0  0  0  0  0  0  0
  -30.6910  -16.0600   18.8280 H   0  0  0  0  0  0  0  0  0  0  0  0
  -25.6270  -13.4390   20.3550 C   0  0  0  0  0  0  0  0  0  0  0  0
  -24.5550  -12.7280   20.8230 C   0  0  0  0  0  0  0  0  0  0  0  0
  -24.9420  -11.3540   20.7770 C   0  0  0  0  0  0  0  0  0  0  0  0
  -26.6030  -12.5010   20.0560 N   0  0  0  0  0  0  0  0  0  0  0  0
  -26.1990  -11.2420   20.3670 N   0  0  0  0  0  0  0  0  0  0  0  0
  -24.1680  -10.1330   21.0410 C   0  0  0  0  0  0  0  0  0  0  0  0
  -24.6120   -9.1640   21.9660 C   0  0  0  0  0  3  0  0  0  0  0  0
  -23.8410   -8.0080   22.2160 C   0  0  0  0  0  3  0  0  0  0  0  0
  -22.6120   -7.8140   21.5430 C   0  0  0  0  0  0  0  0  0  0  0  0
  -22.1850   -8.7730   20.6060 C   0  0  0  0  0  3  0  0  0  0  0  0
  -22.9560   -9.9200   20.3550 C   0  0  0  0  0  3  0  0  0  0  0  0
  -21.8090   -6.7110   21.7050 O   0  0  0  0  0  0  0  0  0  0  0  0
  -21.7540   -6.0290   22.8940 C   0  0  0  0  0  0  0  0  0  0  0  0
  -21.3700   -6.6580   24.0970 C   0  0  0  0  0  3  0  0  0  0  0  0
  -21.2610   -5.9050   25.2830 C   0  0  0  0  0  3  0  0  0  0  0  0
  -21.5260   -4.5220   25.2660 C   0  0  0  0  0  0  0  0  0  0  0  0
  -21.9030   -3.8920   24.0660 C   0  0  0  0  0  3  0  0  0  0  0  0
  -22.0140   -4.6440   22.8830 C   0  0  0  0  0  0  0  0  0  0  0  0
  -22.3580   -4.0280   21.7260 F   0  0  0  0  0  0  0  0  0  0  0  0
  -21.4130   -3.7950   26.4020 F   0  0  0  0  0  0  0  0  0  0  0  0
  -23.2110  -13.2820   21.1970 C   0  0  0  0  0  0  0  0  0  0  0  0
  -22.5370  -12.6570   22.1550 N   0  0  0  0  0  0  0  0  0  0  0  0
  -22.7730  -14.3050   20.6720 O   0  0  0  0  0  0  0  0  0  0  0  0
  -21.6390  -13.0130   22.4500 H   0  0  0  0  0  0  0  0  0  0  0  0
  -22.9060  -11.8290   22.5980 H   0  0  0  0  0  0  0  0  0  0  0  0
  -25.8440  -14.7940   20.1310 N   0  0  0  0  0  0  0  0  0  0  0  0
  -25.1070  -15.4760   20.2680 H   0  0  0  0  0  0  0  0  0  0  0  0
  -26.6390  -15.1650   19.6270 H   0  0  0  0  0  0  0  0  0  0  0  0
  -30.4070  -22.3600   19.6530 C   0  0  0  0  0  2  0  0  0  0  0  0
  -30.7210  -23.7250   20.3600 C   0  0  0  0  0  0  0  0  0  0  0  0
  -31.4340  -23.7910   21.3670 O   0  0  0  0  0  0  0  0  0  0  0  0
  -30.0700  -24.9800   19.6920 C   0  0  0  0  0  2  0  0  0  0  0  0
  -30.1250  -26.2860   20.3700 O   0  0  0  0  0  0  0  0  0  0  0  0
  -25.5200  -30.8020   23.5810 C   0  0  0  0  0  0  0  0  0  0  0  0
  -28.9480  -27.0430   20.2770 C   0  0  0  0  0  0  0  0  0  0  0  0
  -24.6770  -29.5790   21.6100 C   0  0  0  0  0  3  0  0  0  0  0  0
  -26.4430  -28.4150   20.1850 C   0  0  0  0  0  0  0  0  0  0  0  0
  -27.1710  -30.1440   21.8220 C   0  0  0  0  0  2  0  0  0  0  0  0
  -27.4720  -28.9000   21.0020 C   0  0  0  0  0  0  0  0  0  0  0  0
  -28.7260  -28.2240   21.0480 C   0  0  0  0  0  3  0  0  0  0  0  0
  -27.8910  -26.6270   19.4260 C   0  0  0  0  0  3  0  0  0  0  0  0
  -26.6530  -27.2820   19.3930 C   0  0  0  0  0  3  0  0  0  0  0  0
  -25.1240  -29.1560   20.1890 C   0  0  0  0  0  2  0  0  0  0  0  0
  -25.7990  -30.1840   22.3980 N   0  0  0  0  0  0  0  0  0  0  0  0
  -24.3560  -30.8970   23.9970 O   0  0  0  0  0  0  0  0  0  0  0  0
  -24.0190  -28.3670   22.3120 C   0  0  0  0  0  0  0  0  0  0  0  0
  -22.7470  -28.0930   21.9740 N   0  0  0  0  0  0  0  0  0  0  0  0
  -24.6540  -27.6850   23.1190 O   0  0  0  0  0  0  0  0  0  0  0  0
  -22.2920  -28.7020   21.3100 H   0  0  0  0  0  0  0  0  0  0  0  0
  -19.4750  -26.5590   21.8440 C   0  0  0  0  0  0  0  0  0  0  0  0
  -21.9430  -26.9810   22.4830 C   0  0  0  0  0  3  0  0  0  0  0  0
  -22.2570  -25.6730   21.7210 C   0  0  0  0  0  2  0  0  0  0  0  0
  -21.3200  -25.4260   20.5340 C   0  0  0  0  0  2  0  0  0  0  0  0
  -19.8640  -25.3530   21.0060 C   0  0  0  0  0  2  0  0  0  0  0  0
  -20.4520  -27.3320   22.5240 C   0  0  0  0  0  0  0  0  0  0  0  0
  -20.0380  -28.4640   23.2620 C   0  0  0  0  0  3  0  0  0  0  0  0
  -18.6790  -28.8240   23.3260 C   0  0  0  0  0  3  0  0  0  0  0  0
  -17.7140  -28.0470   22.6620 C   0  0  0  0  0  3  0  0  0  0  0  0
  -18.1120  -26.9150   21.9270 C   0  0  0  0  0  3  0  0  0  0  0  0
  -26.6440  -31.4370   24.4540 C   0  0  0  0  0  3  0  0  0  0  0  0
  -26.2200  -32.8020   24.7950 N   0  0  0  0  0  0  0  0  0  0  0  0
  -26.6480  -33.9090   24.1740 C   0  0  0  0  0  0  0  0  0  0  0  0
  -27.5060  -33.8910   23.2880 O   0  0  0  0  0  0  0  0  0  0  0  0
  -25.4790  -32.8880   25.4750 H   0  0  0  0  0  0  0  0  0  0  0  0
  -24.9430  -35.6670   23.5960 C   0  0  0  0  0  1  0  0  0  0  0  0
  -26.0250  -35.2510   24.6060 C   0  0  0  0  0  3  0  0  0  0  0  0
  -27.9220  -36.1500   25.8790 C   0  0  0  0  0  1  0  0  0  0  0  0
  -27.0150  -36.3410   24.7500 N   0  0  0  0  0  0  0  0  0  0  0  0
  -26.5500  -37.2370   24.8660 H   0  0  0  0  0  0  0  0  0  0  0  0
  -26.9590  -30.6090   25.7600 C   0  0  1  0  0  0  0  0  0  0  0  0
  -25.7050  -30.2790   26.6040 C   0  0  0  0  0  1  0  0  0  0  0  0
  -27.6540  -29.2730   25.4080 C   0  0  0  0  0  1  0  0  0  0  0  0
  -27.9440  -31.3970   26.6550 C   0  0  0  0  0  1  0  0  0  0  0  0
  1 12  1  0
  1  4  1  0
  2  1  2  0
  3  5  1  0
  3  4  2  0
  5  7  1  0
  6  2  1  0
  6  3  1  0
  8  2  1  0
  8 10  1  0
 11  8  1  0
 13 19  1  0
 14 19  1  0
 15 16  1  0
 15 14  1  0
 17 16  1  0
 17 26  1  0
 17 18  1  0
 19 18  1  0
 20 13  2  0
 21 13  1  0
 21 12  1  0
 22 21  1  0
 23 24  2  0
 24 43  1  0
 25 24  1  0
 25 28  1  0
 26 23  1  0
 26 27  1  0
 27 25  2  0
 28 29  1  0
 29 30  2  0
 31 34  1  0
 31 30  1  0
 32 31  2  0
 33 32  1  0
 33 28  2  0
 34 35  1  0
 35 36  1  0
 36 37  2  0
 38 37  1  0
 38 42  1  0
 39 38  2  0
 40 35  2  0
 40 39  1  0
 41 40  1  0
 43 44  1  0
 44 46  1  0
 44 47  1  0
 45 43  2  0
 48 49  1  0
 48 23  1  0
 50 48  1  0
 51  5  1  0
 51 52  1  0
 52 53  2  0
 54 52  1  0
 54 55  1  0
 56 67  2  0
 57 55  1  0
 57 62  1  0
 58 68  1  0
 58 66  1  0
 59 65  1  0
 59 61  1  0
 60 66  1  0
 61 62  2  0
 61 60  1  0
 63 57  2  0
 64 63  1  0
 64 59  2  0
 65 58  1  0
 66 56  1  0
 68 70  2  0
 69 68  1  0
 71 69  1  0
 72 81  2  0
 72 77  1  0
 73 69  1  0
 73 77  1  0
 74 73  1  0
 75 76  1  0
 75 74  1  0
 76 72  1  0
 77 78  2  0
 78 79  1  0
 80 79  2  0
 81 80  1  0
 82 56  1  0
 82 83  1  0
 82 92  1  0
 83 86  1  0
 84 88  1  0
 84 83  1  0
 85 84  2  0
 88 87  1  0
 88 90  1  0
 90 91  1  0
 90 89  1  0
 92 93  1  1
 92 95  1  0
 94 92  1  0
M  ISO  4  13 100  21 100  54 101  55 101
M  END
>  <TORSDO>  (72) 
F 21

>  <SCORE>  (72) 
-10.126

>  <name>  (72) 
71

>  <ligand_id>  (72) 
71

>  <original_smiles>  (72) 
[H]c1c([H])c([H])c2c(c1[H])C([H])([H])C([H])([H])C([H])([H])C2([H])N([H])C(=O)C1([H])N(C(=O)C([H])(N([H])C(=O)C([H])(N([H])C([H])([H])[H])C([H])([H])[H])C(C([H])([H])[H])(C([H])([H])[H])C([H])([H])[H])C([H])([H])c2c([H])c(OC([H])([H])C(=O)C([H])([H])N([H])c3nc(C([H])([H])N([H])C(=O)N4C([H])([H])C([H])([H])C([H])([H])C([H])(n5nc(-c6c([H])c([H])c(Oc7c([H])c([H])c(F)c([H])c7F)c([H])c6[H])c(C(=O)N([H])[H])c5N([H])[H])C4([H])[H])c(C(F)(F)F)s3)c([H])c([H])c2C1([H])[H]

>  <smiles>  (72) 
[H]c1c([H])c([H])c2c(c1[H])C([H])([H])C([H])([H])C([H])([H])C2([H])N([H])C(=O)C1([H])N(C(=O)C([H])(N([H])C(=O)C([H])(N([H])C([H])([H])[H])C([H])([H])[H])C(C([H])([H])[H])(C([H])([H])[H])C([H])([H])[H])C([H])([H])c2c([H])c(OC([H])([H])C(=O)C([H])([H])N([H])c3nc(C([H])([H])N([H])C(=O)N4C([H])([H])C([H])([H])C([H])([H])C([H])(n5nc(-c6c([H])c([H])c(Oc7c([H])c([H])c(F)c([H])c7F)c([H])c6[H])c(C(=O)N([H])[H])c5N([H])[H])C4([H])[H])c(C(F)(F)F)s3)c([H])c([H])c2C1([H])[H]

$$$$
72:0:0
     RDKit          3D

 93101  0  0  1  0  0  0  0  0999 V2000
  -28.7730  -22.2970   20.3910 C   0  0  0  0  0  0  0  0  0  0  0  0
  -29.6870  -21.3860   20.8860 N   0  0  0  0  0  0  0  0  0  0  0  0
  -27.9080  -21.9420   19.5920 O   0  0  0  0  0  0  0  0  0  0  0  0
  -30.3770  -21.8450   21.4650 H   0  0  0  0  0  0  0  0  0  0  0  0
  -30.5730  -14.8120   20.3120 C   0  0  0  0  0  0  0  0  0  0  0  0
  -30.3760  -12.5380   19.2790 C   0  0  0  0  0  2  0  0  0  0  0  0
  -29.4190  -12.6040   18.0690 C   0  0  0  0  0  2  0  0  0  0  0  0
  -27.9540  -12.4290   18.5150 C   0  0  0  0  0  2  0  0  0  0  0  0
  -27.5910  -13.3140   19.7370 C   0  0  0  0  0  3  0  0  0  0  0  0
  -28.6640  -13.2240   20.8460 C   0  0  0  0  0  2  0  0  0  0  0  0
  -29.9550  -13.5820   20.2400 N   0  0  0  0  0  0  0  0  0  0  0  0
  -31.7570  -14.9220   19.9730 O   0  0  0  0  0  0  0  0  0  0  0  0
  -31.1160  -19.3690   21.0340 C   0  0  0  0  0  0  0  0  0  0  0  0
  -29.9070  -19.9970   20.7560 C   0  0  0  0  0  0  0  0  0  0  0  0
  -29.9890  -17.3770   20.5960 C   0  0  0  0  0  0  0  0  0  0  0  0
  -32.3770  -20.0670   21.4510 C   0  0  0  0  0  1  0  0  0  0  0  0
  -31.1570  -17.9500   20.9280 N   0  0  0  0  0  0  0  0  0  0  0  0
  -29.7590  -15.9120   20.5450 N   0  0  0  0  0  0  0  0  0  0  0  0
  -28.7500  -18.6840   20.3600 S   0  0  0  0  0  0  0  0  0  0  0  0
  -28.7900  -15.6600   20.6530 H   0  0  0  0  0  0  0  0  0  0  0  0
  -25.2160  -13.9110   20.5000 C   0  0  0  0  0  0  0  0  0  0  0  0
  -24.1490  -13.1380   20.8710 C   0  0  0  0  0  0  0  0  0  0  0  0
  -24.6030  -11.7840   20.8180 C   0  0  0  0  0  0  0  0  0  0  0  0
  -26.2510  -13.0290   20.2370 N   0  0  0  0  0  0  0  0  0  0  0  0
  -25.8880  -11.7440   20.4910 N   0  0  0  0  0  0  0  0  0  0  0  0
  -23.8690  -10.5240   20.9960 C   0  0  0  0  0  0  0  0  0  0  0  0
  -24.2940   -9.5470   21.9210 C   0  0  0  0  0  3  0  0  0  0  0  0
  -23.5590   -8.3530   22.0890 C   0  0  0  0  0  3  0  0  0  0  0  0
  -22.3870   -8.1270   21.3290 C   0  0  0  0  0  0  0  0  0  0  0  0
  -21.9820   -9.0940   20.3910 C   0  0  0  0  0  3  0  0  0  0  0  0
  -22.7170  -10.2790   20.2210 C   0  0  0  0  0  3  0  0  0  0  0  0
  -21.6280   -6.9860   21.4050 O   0  0  0  0  0  0  0  0  0  0  0  0
  -21.5590   -6.2420   22.5560 C   0  0  0  0  0  0  0  0  0  0  0  0
  -21.0890   -6.7890   23.7700 C   0  0  0  0  0  3  0  0  0  0  0  0
  -20.9680   -5.9710   24.9120 C   0  0  0  0  0  3  0  0  0  0  0  0
  -21.3100   -4.6080   24.8400 C   0  0  0  0  0  0  0  0  0  0  0  0
  -21.7710   -4.0590   23.6310 C   0  0  0  0  0  3  0  0  0  0  0  0
  -21.8930   -4.8750   22.4930 C   0  0  0  0  0  0  0  0  0  0  0  0
  -22.3190   -4.3360   21.3240 F   0  0  0  0  0  0  0  0  0  0  0  0
  -21.1870   -3.8200   25.9340 F   0  0  0  0  0  0  0  0  0  0  0  0
  -22.7590  -13.6210   21.1660 C   0  0  0  0  0  0  0  0  0  0  0  0
  -22.0310  -12.9100   22.0210 N   0  0  0  0  0  0  0  0  0  0  0  0
  -22.3270  -14.6630   20.6750 O   0  0  0  0  0  0  0  0  0  0  0  0
  -22.3930  -12.0670   22.4400 H   0  0  0  0  0  0  0  0  0  0  0  0
  -21.0970  -13.2150   22.2600 H   0  0  0  0  0  0  0  0  0  0  0  0
  -25.3850  -15.2830   20.3410 N   0  0  0  0  0  0  0  0  0  0  0  0
  -24.6140  -15.9320   20.4680 H   0  0  0  0  0  0  0  0  0  0  0  0
  -26.2040  -15.7240   19.9450 H   0  0  0  0  0  0  0  0  0  0  0  0
  -30.1850  -24.2140   21.4160 C   0  0  0  0  0  1  0  0  0  0  0  0
  -27.7710  -23.9200   22.0440 C   0  0  0  0  0  1  0  0  0  0  0  0
  -28.7870  -23.8440   20.8860 C   0  0  2  0  0  0  0  0  0  0  0  0
  -28.3660  -25.0050   19.8340 C   0  0  0  0  0  2  0  0  0  0  0  0
  -28.3720  -26.4620   20.2390 O   0  0  0  0  0  0  0  0  0  0  0  0
  -24.6440  -31.8950   23.2390 C   0  0  0  0  0  0  0  0  0  0  0  0
  -27.2470  -27.3190   20.1550 C   0  0  0  0  0  0  0  0  0  0  0  0
  -23.4440  -30.5060   21.5860 C   0  0  0  0  0  3  0  0  0  0  0  0
  -24.8970  -28.9690   20.1470 C   0  0  0  0  0  0  0  0  0  0  0  0
  -25.9860  -30.8180   21.4130 C   0  0  0  0  0  2  0  0  0  0  0  0
  -26.0650  -29.4410   20.7560 C   0  0  0  0  0  0  0  0  0  0  0  0
  -27.2380  -28.6220   20.7560 C   0  0  0  0  0  3  0  0  0  0  0  0
  -26.0550  -26.9230   19.5050 C   0  0  0  0  0  3  0  0  0  0  0  0
  -24.8950  -27.7210   19.5120 C   0  0  0  0  0  3  0  0  0  0  0  0
  -23.6640  -29.8490   20.1970 C   0  0  0  0  0  2  0  0  0  0  0  0
  -24.7100  -31.0910   22.1360 N   0  0  0  0  0  0  0  0  0  0  0  0
  -23.5590  -32.1640   23.7740 O   0  0  0  0  0  0  0  0  0  0  0  0
  -22.7850  -29.4780   22.5390 C   0  0  0  0  0  0  0  0  0  0  0  0
  -21.4600  -29.2960   22.4150 N   0  0  0  0  0  0  0  0  0  0  0  0
  -23.4680  -28.8480   23.3520 O   0  0  0  0  0  0  0  0  0  0  0  0
  -20.9670  -29.8660   21.7410 H   0  0  0  0  0  0  0  0  0  0  0  0
  -18.0800  -28.0970   22.9170 C   0  0  0  0  0  0  0  0  0  0  0  0
  -20.6420  -28.3490   23.1790 C   0  0  0  0  0  3  0  0  0  0  0  0
  -20.7380  -26.9240   22.5860 C   0  0  0  0  0  2  0  0  0  0  0  0
  -19.6300  -26.6170   21.5730 C   0  0  0  0  0  2  0  0  0  0  0  0
  -18.2520  -26.7540   22.2260 C   0  0  0  0  0  2  0  0  0  0  0  0
  -19.2040  -28.8520   23.3500 C   0  0  0  0  0  0  0  0  0  0  0  0
  -18.9890  -30.1080   23.9580 C   0  0  0  0  0  3  0  0  0  0  0  0
  -17.6860  -30.6080   24.1400 C   0  0  0  0  0  3  0  0  0  0  0  0
  -16.5790  -29.8490   23.7240 C   0  0  0  0  0  3  0  0  0  0  0  0
  -16.7760  -28.5960   23.1170 C   0  0  0  0  0  3  0  0  0  0  0  0
  -25.9210  -32.5270   23.8650 C   0  0  0  0  0  3  0  0  0  0  0  0
  -25.6130  -33.9300   24.1900 N   0  0  0  0  0  0  0  0  0  0  0  0
  -25.9460  -34.9800   23.4290 C   0  0  0  0  0  0  0  0  0  0  0  0
  -26.6140  -34.8720   22.3960 O   0  0  0  0  0  0  0  0  0  0  0  0
  -25.0190  -34.0860   24.9910 H   0  0  0  0  0  0  0  0  0  0  0  0
  -24.2260  -36.7790   23.0650 C   0  0  0  0  0  1  0  0  0  0  0  0
  -25.4600  -36.3690   23.8840 C   0  0  0  0  0  3  0  0  0  0  0  0
  -27.5880  -37.2550   24.7310 C   0  0  0  0  0  1  0  0  0  0  0  0
  -26.4960  -37.4200   23.7770 N   0  0  0  0  0  0  0  0  0  0  0  0
  -26.0890  -38.3430   23.9140 H   0  0  0  0  0  0  0  0  0  0  0  0
  -26.4310  -31.7600   25.1480 C   0  0  1  0  0  0  0  0  0  0  0  0
  -25.3320  -31.5290   26.2100 C   0  0  0  0  0  1  0  0  0  0  0  0
  -27.0160  -30.3830   24.7630 C   0  0  0  0  0  1  0  0  0  0  0  0
  -27.5740  -32.5580   25.8150 C   0  0  0  0  0  1  0  0  0  0  0  0
  1 51  1  0
  1  2  1  0
  2  4  1  0
  3  1  2  0
  5 18  1  0
  6 11  1  0
  7  8  1  0
  7  6  1  0
  9  8  1  0
  9 24  1  0
  9 10  1  0
 11  5  1  0
 11 10  1  0
 12  5  2  0
 13 16  1  0
 14  2  1  0
 14 13  2  0
 15 17  2  0
 17 13  1  0
 18 15  1  0
 18 20  1  0
 19 15  1  0
 19 14  1  0
 21 22  2  0
 22 41  1  0
 23 22  1  0
 23 26  1  0
 24 25  1  0
 24 21  1  0
 25 23  2  0
 26 27  1  0
 27 28  2  0
 29 32  1  0
 29 28  1  0
 30 29  2  0
 31 30  1  0
 31 26  2  0
 32 33  1  0
 33 34  1  0
 34 35  2  0
 36 35  1  0
 36 40  1  0
 37 36  2  0
 38 33  2  0
 38 37  1  0
 39 38  1  0
 41 42  1  0
 42 45  1  0
 42 44  1  0
 43 41  2  0
 46 47  1  0
 46 21  1  0
 48 46  1  0
 51 49  1  1
 51 50  1  0
 52 53  1  0
 52 51  1  0
 54 65  2  0
 55 53  1  0
 55 60  1  0
 56 64  1  0
 56 66  1  0
 57 63  1  0
 57 59  1  0
 58 64  1  0
 59 60  2  0
 59 58  1  0
 61 62  1  0
 61 55  2  0
 62 57  2  0
 63 56  1  0
 64 54  1  0
 66 68  2  0
 67 66  1  0
 69 67  1  0
 70 79  2  0
 70 75  1  0
 71 67  1  0
 71 75  1  0
 72 71  1  0
 73 74  1  0
 73 72  1  0
 74 70  1  0
 75 76  2  0
 76 77  1  0
 78 77  2  0
 79 78  1  0
 80 54  1  0
 80 81  1  0
 80 90  1  0
 81 84  1  0
 82 86  1  0
 82 81  1  0
 83 82  2  0
 86 85  1  0
 88 86  1  0
 88 89  1  0
 88 87  1  0
 90 93  1  1
 90 91  1  0
 92 90  1  0
M  ISO  4   5 100  18 100  52 101  53 101
M  END
>  <TORSDO>  (73) 
F 18

>  <SCORE>  (73) 
-14.851

>  <name>  (73) 
72

>  <ligand_id>  (73) 
72

>  <original_smiles>  (73) 
[H]c1c([H])c([H])c2c(c1[H])C([H])([H])C([H])([H])C([H])([H])C2([H])N([H])C(=O)C1([H])N(C(=O)C([H])(N([H])C(=O)C([H])(N([H])C([H])([H])[H])C([H])([H])[H])C(C([H])([H])[H])(C([H])([H])[H])C([H])([H])[H])C([H])([H])c2c([H])c(OC([H])([H])C(C(=O)N([H])c3sc(N([H])C(=O)N4C([H])([H])C([H])([H])C([H])([H])C([H])(n5nc(-c6c([H])c([H])c(Oc7c([H])c([H])c(F)c([H])c7F)c([H])c6[H])c(C(=O)N([H])[H])c5N([H])[H])C4([H])[H])nc3C([H])([H])[H])(C([H])([H])[H])C([H])([H])[H])c([H])c([H])c2C1([H])[H]

>  <smiles>  (73) 
[H]c1c([H])c([H])c2c(c1[H])C([H])([H])C([H])([H])C([H])([H])C2([H])N([H])C(=O)C1([H])N(C(=O)C([H])(N([H])C(=O)C([H])(N([H])C([H])([H])[H])C([H])([H])[H])C(C([H])([H])[H])(C([H])([H])[H])C([H])([H])[H])C([H])([H])c2c([H])c(OC([H])([H])C(C(=O)N([H])c3sc(N([H])C(=O)N4C([H])([H])C([H])([H])C([H])([H])C([H])(n5nc(-c6c([H])c([H])c(Oc7c([H])c([H])c(F)c([H])c7F)c([H])c6[H])c(C(=O)N([H])[H])c5N([H])[H])C4([H])[H])nc3C([H])([H])[H])(C([H])([H])[H])C([H])([H])[H])c([H])c([H])c2C1([H])[H]

$$$$
73:0:0
     RDKit          3D

 94102  0  0  1  0  0  0  0  0999 V2000
  -30.4940  -20.8420   20.1650 C   0  0  0  0  0  0  0  0  0  0  0  0
  -29.6180  -21.8380   19.8780 N   0  0  0  0  0  0  0  0  0  0  0  0
  -31.6800  -21.0820   20.4060 O   0  0  0  0  0  0  0  0  0  0  0  0
  -28.6690  -21.5670   19.6470 H   0  0  0  0  0  0  0  0  0  0  0  0
  -28.6430  -17.5100   20.5040 C   0  0  0  0  0  3  0  0  0  0  0  0
  -28.7210  -18.9260   20.3470 C   0  0  0  0  0  0  0  0  0  0  0  0
  -29.9860  -19.4290   20.2080 C   0  0  0  0  0  0  0  0  0  0  0  0
  -29.8610  -16.8620   20.4900 C   0  0  0  0  0  0  0  0  0  0  0  0
  -27.6430  -19.6770   20.3760 F   0  0  0  0  0  0  0  0  0  0  0  0
  -31.1350  -18.0750   20.2680 S   0  0  0  0  0  0  0  0  0  0  0  0
  -30.7870  -14.5590   20.0990 C   0  0  0  0  0  0  0  0  0  0  0  0
  -30.5530  -12.3550   18.9820 C   0  0  0  0  0  2  0  0  0  0  0  0
  -29.5430  -12.5180   17.8250 C   0  0  0  0  0  2  0  0  0  0  0  0
  -28.0900  -12.3640   18.3230 C   0  0  0  0  0  2  0  0  0  0  0  0
  -27.8030  -13.2040   19.5940 C   0  0  0  0  0  3  0  0  0  0  0  0
  -28.9080  -12.9690   20.6500 C   0  0  0  0  0  2  0  0  0  0  0  0
  -30.1970  -13.3260   20.0290 N   0  0  0  0  0  0  0  0  0  0  0  0
  -31.8910  -14.7950   19.5970 O   0  0  0  0  0  0  0  0  0  0  0  0
  -29.9890  -15.5020   20.6630 N   0  0  0  0  0  0  0  0  0  0  0  0
  -29.1850  -15.0800   21.1030 H   0  0  0  0  0  0  0  0  0  0  0  0
  -25.4460  -13.8250   20.4250 C   0  0  0  0  0  0  0  0  0  0  0  0
  -24.3900  -13.0540   20.8380 C   0  0  0  0  0  0  0  0  0  0  0  0
  -24.8390  -11.6990   20.7600 C   0  0  0  0  0  0  0  0  0  0  0  0
  -26.4700  -12.9370   20.1290 N   0  0  0  0  0  0  0  0  0  0  0  0
  -26.1110  -11.6540   20.3870 N   0  0  0  0  0  0  0  0  0  0  0  0
  -24.1130  -10.4390   20.9610 C   0  0  0  0  0  0  0  0  0  0  0  0
  -24.5470   -9.4790   21.9010 C   0  0  0  0  0  3  0  0  0  0  0  0
  -23.8220   -8.2840   22.0910 C   0  0  0  0  0  3  0  0  0  0  0  0
  -22.6470   -8.0390   21.3410 C   0  0  0  0  0  0  0  0  0  0  0  0
  -22.2330   -8.9880   20.3890 C   0  0  0  0  0  3  0  0  0  0  0  0
  -22.9590  -10.1740   20.1970 C   0  0  0  0  0  3  0  0  0  0  0  0
  -21.8930   -6.8940   21.4400 O   0  0  0  0  0  0  0  0  0  0  0  0
  -21.8050   -6.1920   22.6150 C   0  0  0  0  0  0  0  0  0  0  0  0
  -21.2970   -6.7750   23.7980 C   0  0  0  0  0  3  0  0  0  0  0  0
  -21.1580   -5.9940   24.9620 C   0  0  0  0  0  3  0  0  0  0  0  0
  -21.5160   -4.6330   24.9460 C   0  0  0  0  0  0  0  0  0  0  0  0
  -22.0180   -4.0510   23.7700 C   0  0  0  0  0  3  0  0  0  0  0  0
  -22.1590   -4.8270   22.6060 C   0  0  0  0  0  0  0  0  0  0  0  0
  -22.6210   -4.2560   21.4680 F   0  0  0  0  0  0  0  0  0  0  0  0
  -21.3770   -3.8820   26.0630 F   0  0  0  0  0  0  0  0  0  0  0  0
  -23.0120  -13.5340   21.1880 C   0  0  0  0  0  0  0  0  0  0  0  0
  -22.3230  -12.8210   22.0730 N   0  0  0  0  0  0  0  0  0  0  0  0
  -22.5570  -14.5740   20.7150 O   0  0  0  0  0  0  0  0  0  0  0  0
  -22.7060  -11.9780   22.4750 H   0  0  0  0  0  0  0  0  0  0  0  0
  -21.4000  -13.1170   22.3540 H   0  0  0  0  0  0  0  0  0  0  0  0
  -25.6190  -15.1940   20.2520 N   0  0  0  0  0  0  0  0  0  0  0  0
  -24.8630  -15.8570   20.3920 H   0  0  0  0  0  0  0  0  0  0  0  0
  -26.4300  -15.6080   19.8090 H   0  0  0  0  0  0  0  0  0  0  0  0
  -30.7810  -23.8270   18.8880 C   0  0  0  0  0  1  0  0  0  0  0  0
  -29.8440  -23.3050   19.9960 C   0  0  0  0  0  3  0  0  0  0  0  0
  -28.5240  -24.1330   20.0070 C   0  0  0  0  0  0  0  0  0  0  0  0
  -27.5310  -23.7670   19.3690 O   0  0  0  0  0  0  0  0  0  0  0  0
  -28.4530  -25.4290   20.8680 C   0  0  0  0  0  2  0  0  0  0  0  0
  -28.4490  -26.6550   20.0990 O   0  0  0  0  0  0  0  0  0  0  0  0
  -24.5980  -31.8170   23.2340 C   0  0  0  0  0  0  0  0  0  0  0  0
  -27.2860  -27.3980   20.1400 C   0  0  0  0  0  0  0  0  0  0  0  0
  -23.4150  -30.4290   21.5610 C   0  0  0  0  0  3  0  0  0  0  0  0
  -24.8900  -28.9080   20.1400 C   0  0  0  0  0  0  0  0  0  0  0  0
  -25.9430  -30.7930   21.4010 C   0  0  0  0  0  2  0  0  0  0  0  0
  -26.0420  -29.4270   20.7470 C   0  0  0  0  0  0  0  0  0  0  0  0
  -27.2460  -28.6810   20.7380 C   0  0  0  0  0  3  0  0  0  0  0  0
  -26.1190  -26.8970   19.5310 C   0  0  0  0  0  3  0  0  0  0  0  0
  -24.9240  -27.6430   19.5290 C   0  0  0  0  0  3  0  0  0  0  0  0
  -23.6460  -29.7690   20.1760 C   0  0  0  0  0  2  0  0  0  0  0  0
  -24.6690  -31.0290   22.1230 N   0  0  0  0  0  0  0  0  0  0  0  0
  -23.5080  -32.0830   23.7610 O   0  0  0  0  0  0  0  0  0  0  0  0
  -22.7540  -29.3990   22.5050 C   0  0  0  0  0  0  0  0  0  0  0  0
  -21.4350  -29.2060   22.3490 N   0  0  0  0  0  0  0  0  0  0  0  0
  -23.4260  -28.7760   23.3330 O   0  0  0  0  0  0  0  0  0  0  0  0
  -20.9590  -29.7630   21.6540 H   0  0  0  0  0  0  0  0  0  0  0  0
  -18.0600  -27.9680   22.7460 C   0  0  0  0  0  0  0  0  0  0  0  0
  -20.6050  -28.2560   23.0900 C   0  0  0  0  0  3  0  0  0  0  0  0
  -20.7430  -26.8300   22.5120 C   0  0  0  0  0  2  0  0  0  0  0  0
  -19.6720  -26.4970   21.4680 C   0  0  0  0  0  2  0  0  0  0  0  0
  -18.2720  -26.6220   22.0740 C   0  0  0  0  0  2  0  0  0  0  0  0
  -19.1570  -28.7420   23.2080 C   0  0  0  0  0  0  0  0  0  0  0  0
  -18.9080  -30.0020   23.7950 C   0  0  0  0  0  3  0  0  0  0  0  0
  -17.5930  -30.4860   23.9330 C   0  0  0  0  0  3  0  0  0  0  0  0
  -16.5100  -29.7090   23.4870 C   0  0  0  0  0  3  0  0  0  0  0  0
  -16.7440  -28.4540   22.8980 C   0  0  0  0  0  3  0  0  0  0  0  0
  -25.8760  -32.4410   23.8780 C   0  0  0  0  0  3  0  0  0  0  0  0
  -26.3690  -31.6650   25.1620 C   0  0  1  0  0  0  0  0  0  0  0  0
  -25.2560  -31.4300   26.2110 C   0  0  0  0  0  1  0  0  0  0  0  0
  -26.9570  -30.2860   24.7790 C   0  0  0  0  0  1  0  0  0  0  0  0
  -27.5060  -32.4570   25.8490 C   0  0  0  0  0  1  0  0  0  0  0  0
  -25.5680  -33.8410   24.2020 N   0  0  0  0  0  0  0  0  0  0  0  0
  -25.9150  -34.8900   23.4450 C   0  0  0  0  0  0  0  0  0  0  0  0
  -26.5960  -34.7830   22.4210 O   0  0  0  0  0  0  0  0  0  0  0  0
  -24.9590  -33.9990   24.9900 H   0  0  0  0  0  0  0  0  0  0  0  0
  -24.1900  -36.6860   23.0730 C   0  0  0  0  0  1  0  0  0  0  0  0
  -25.4260  -36.2790   23.8930 C   0  0  0  0  0  3  0  0  0  0  0  0
  -27.5530  -37.1670   24.7430 C   0  0  0  0  0  1  0  0  0  0  0  0
  -26.4590  -37.3320   23.7880 N   0  0  0  0  0  0  0  0  0  0  0  0
  -26.0520  -38.2520   23.9300 H   0  0  0  0  0  0  0  0  0  0  0  0
  1  7  1  0
  1  3  2  0
  2 50  1  0
  2  1  1  0
  4  2  1  0
  6  9  1  0
  6  5  1  0
  7 10  1  0
  7  6  2  0
  8  5  2  0
  8 19  1  0
 10  8  1  0
 11 19  1  0
 12 17  1  0
 13 14  1  0
 13 12  1  0
 15 14  1  0
 15 24  1  0
 15 16  1  0
 17 11  1  0
 17 16  1  0
 18 11  2  0
 19 20  1  0
 21 22  2  0
 22 41  1  0
 23 22  1  0
 23 26  1  0
 24 25  1  0
 24 21  1  0
 25 23  2  0
 26 27  1  0
 27 28  2  0
 29 32  1  0
 29 28  1  0
 30 29  2  0
 31 30  1  0
 31 26  2  0
 32 33  1  0
 33 34  1  0
 34 35  2  0
 36 35  1  0
 36 40  1  0
 37 36  2  0
 38 33  2  0
 38 37  1  0
 39 38  1  0
 41 42  1  0
 42 45  1  0
 42 44  1  0
 43 41  2  0
 46 47  1  0
 46 21  1  0
 48 46  1  0
 50 49  1  0
 50 51  1  0
 51 53  1  0
 52 51  2  0
 54 56  1  0
 54 53  1  0
 55 66  2  0
 56 61  1  0
 57 65  1  0
 57 67  1  0
 58 64  1  0
 58 60  1  0
 59 65  1  0
 60 59  1  0
 61 60  2  0
 62 56  2  0
 63 62  1  0
 63 58  2  0
 64 57  1  0
 65 55  1  0
 67 69  2  0
 68 67  1  0
 70 68  1  0
 71 80  2  0
 71 76  1  0
 72 68  1  0
 72 76  1  0
 73 72  1  0
 74 75  1  0
 74 73  1  0
 75 71  1  0
 76 77  2  0
 77 78  1  0
 79 78  2  0
 80 79  1  0
 81 55  1  0
 81 86  1  0
 81 82  1  0
 82 85  1  1
 82 83  1  0
 84 82  1  0
 86 89  1  0
 87 91  1  0
 87 86  1  0
 88 87  2  0
 91 90  1  0
 93 91  1  0
 93 94  1  0
 93 92  1  0
M  ISO  4  11 100  19 100  53 101  54 101
M  END
>  <TORSDO>  (74) 
F 20

>  <SCORE>  (74) 
-13.877

>  <name>  (74) 
73

>  <ligand_id>  (74) 
73

>  <original_smiles>  (74) 
[H]c1c([H])c([H])c2c(c1[H])C([H])([H])C([H])([H])C([H])([H])C2([H])N([H])C(=O)C1([H])N(C(=O)C([H])(N([H])C(=O)C([H])(N([H])C([H])([H])[H])C([H])([H])[H])C(C([H])([H])[H])(C([H])([H])[H])C([H])([H])[H])C([H])([H])c2c([H])c(OC([H])([H])C(=O)C([H])(N([H])C(=O)c3sc(N([H])C(=O)N4C([H])([H])C([H])([H])C([H])([H])C([H])(n5nc(-c6c([H])c([H])c(Oc7c([H])c([H])c(F)c([H])c7F)c([H])c6[H])c(C(=O)N([H])[H])c5N([H])[H])C4([H])[H])c([H])c3F)C([H])([H])[H])c([H])c([H])c2C1([H])[H]

>  <smiles>  (74) 
[H]c1c([H])c([H])c2c(c1[H])C([H])([H])C([H])([H])C([H])([H])C2([H])N([H])C(=O)C1([H])N(C(=O)C([H])(N([H])C(=O)C([H])(N([H])C([H])([H])[H])C([H])([H])[H])C(C([H])([H])[H])(C([H])([H])[H])C([H])([H])[H])C([H])([H])c2c([H])c(OC([H])([H])C(=O)C([H])(N([H])C(=O)c3sc(N([H])C(=O)N4C([H])([H])C([H])([H])C([H])([H])C([H])(n5nc(-c6c([H])c([H])c(Oc7c([H])c([H])c(F)c([H])c7F)c([H])c6[H])c(C(=O)N([H])[H])c5N([H])[H])C4([H])[H])c([H])c3F)C([H])([H])[H])c([H])c([H])c2C1([H])[H]

$$$$
74:0:0
     RDKit          3D

 94102  0  0  1  0  0  0  0  0999 V2000
  -29.8660  -23.2700   19.9020 C   0  0  0  0  0  3  0  0  0  0  0  0
  -30.6940  -22.7420   18.9610 C   0  0  0  0  0  0  0  0  0  0  0  0
  -31.5100  -23.5990   17.9860 C   0  0  0  0  0  1  0  0  0  0  0  0
  -30.8770  -21.2900   18.8190 C   0  0  0  0  0  0  0  0  0  0  0  0
  -30.0560  -20.5060   19.5550 N   0  0  0  0  0  0  0  0  0  0  0  0
  -31.7400  -20.8060   18.0800 O   0  0  0  0  0  0  0  0  0  0  0  0
  -29.4410  -20.9730   20.2040 H   0  0  0  0  0  0  0  0  0  0  0  0
  -30.3350  -18.2830   18.5380 C   0  0  0  0  0  3  0  0  0  0  0  0
  -30.3180  -16.9140   18.9080 C   0  0  0  0  0  3  0  0  0  0  0  0
  -30.0570  -19.1430   19.5720 C   0  0  0  0  0  0  0  0  0  0  0  0
  -30.0220  -16.6930   20.2320 C   0  0  0  0  0  0  0  0  0  0  0  0
  -29.6550  -18.2200   21.0100 S   0  0  0  0  0  0  0  0  0  0  0  0
  -30.6980  -14.4300   20.4730 C   0  0  0  0  0  0  0  0  0  0  0  0
  -30.3750  -12.2840   19.3410 C   0  0  0  0  0  2  0  0  0  0  0  0
  -29.4470  -12.5350   18.1360 C   0  0  0  0  0  2  0  0  0  0  0  0
  -27.9700  -12.4150   18.5570 C   0  0  0  0  0  2  0  0  0  0  0  0
  -27.6400  -13.2390   19.8310 C   0  0  0  0  0  3  0  0  0  0  0  0
  -28.6870  -12.9920   20.9420 C   0  0  0  0  0  2  0  0  0  0  0  0
  -30.0200  -13.2590   20.3840 N   0  0  0  0  0  0  0  0  0  0  0  0
  -31.8460  -14.5780   20.0370 O   0  0  0  0  0  0  0  0  0  0  0  0
  -29.9780  -15.4930   20.8740 N   0  0  0  0  0  0  0  0  0  0  0  0
  -29.1660  -15.3140   21.4460 H   0  0  0  0  0  0  0  0  0  0  0  0
  -25.2410  -13.8610   20.5200 C   0  0  0  0  0  0  0  0  0  0  0  0
  -24.1660  -13.0950   20.8850 C   0  0  0  0  0  0  0  0  0  0  0  0
  -24.6190  -11.7420   20.8650 C   0  0  0  0  0  0  0  0  0  0  0  0
  -26.2810  -12.9730   20.3000 N   0  0  0  0  0  0  0  0  0  0  0  0
  -25.9100  -11.6940   20.5620 N   0  0  0  0  0  0  0  0  0  0  0  0
  -23.8870  -10.4840   21.0610 C   0  0  0  0  0  0  0  0  0  0  0  0
  -24.3260   -9.5090   21.9820 C   0  0  0  0  0  3  0  0  0  0  0  0
  -23.5950   -8.3150   22.1640 C   0  0  0  0  0  3  0  0  0  0  0  0
  -22.4100   -8.0880   21.4230 C   0  0  0  0  0  0  0  0  0  0  0  0
  -21.9900   -9.0520   20.4900 C   0  0  0  0  0  3  0  0  0  0  0  0
  -22.7210  -10.2380   20.3070 C   0  0  0  0  0  3  0  0  0  0  0  0
  -21.6490   -6.9470   21.5150 O   0  0  0  0  0  0  0  0  0  0  0  0
  -21.6260   -6.1890   22.6580 C   0  0  0  0  0  0  0  0  0  0  0  0
  -21.2430   -6.7310   23.9050 C   0  0  0  0  0  3  0  0  0  0  0  0
  -21.1660   -5.9000   25.0400 C   0  0  0  0  0  3  0  0  0  0  0  0
  -21.4580   -4.5280   24.9300 C   0  0  0  0  0  0  0  0  0  0  0  0
  -21.8320   -3.9840   23.6880 C   0  0  0  0  0  3  0  0  0  0  0  0
  -21.9120   -4.8120   22.5550 C   0  0  0  0  0  0  0  0  0  0  0  0
  -22.2550   -4.2790   21.3560 F   0  0  0  0  0  0  0  0  0  0  0  0
  -21.3740   -3.7270   26.0180 F   0  0  0  0  0  0  0  0  0  0  0  0
  -22.7700  -13.5820   21.1520 C   0  0  0  0  0  0  0  0  0  0  0  0
  -22.0380  -12.8920   22.0220 N   0  0  0  0  0  0  0  0  0  0  0  0
  -22.3370  -14.6060   20.6270 O   0  0  0  0  0  0  0  0  0  0  0  0
  -22.4030  -12.0620   22.4660 H   0  0  0  0  0  0  0  0  0  0  0  0
  -21.1010  -13.1950   22.2440 H   0  0  0  0  0  0  0  0  0  0  0  0
  -25.4180  -15.2290   20.3400 N   0  0  0  0  0  0  0  0  0  0  0  0
  -24.6590  -15.8950   20.4450 H   0  0  0  0  0  0  0  0  0  0  0  0
  -26.2810  -15.6600   20.0320 H   0  0  0  0  0  0  0  0  0  0  0  0
  -29.7290  -24.7190   20.1210 C   0  0  0  0  0  0  0  0  0  0  0  0
  -30.6890  -25.4290   20.4440 O   0  0  0  0  0  0  0  0  0  0  0  0
  -28.3410  -25.3400   19.9440 C   0  0  0  0  0  2  0  0  0  0  0  0
  -28.4050  -26.7590   20.1180 O   0  0  0  0  0  0  0  0  0  0  0  0
  -24.6030  -31.8880   23.2190 C   0  0  0  0  0  0  0  0  0  0  0  0
  -27.2140  -27.4500   20.1170 C   0  0  0  0  0  0  0  0  0  0  0  0
  -23.3790  -30.4900   21.5860 C   0  0  0  0  0  3  0  0  0  0  0  0
  -24.8180  -28.9490   20.1540 C   0  0  0  0  0  0  0  0  0  0  0  0
  -25.9040  -30.8460   21.3680 C   0  0  0  0  0  2  0  0  0  0  0  0
  -25.9810  -29.4760   20.7280 C   0  0  0  0  0  0  0  0  0  0  0  0
  -27.1810  -28.7350   20.7020 C   0  0  0  0  0  3  0  0  0  0  0  0
  -26.0290  -26.9290   19.5460 C   0  0  0  0  0  3  0  0  0  0  0  0
  -24.8360  -27.6740   19.5640 C   0  0  0  0  0  3  0  0  0  0  0  0
  -23.5770  -29.8090   20.2050 C   0  0  0  0  0  2  0  0  0  0  0  0
  -24.6470  -31.0890   22.1160 N   0  0  0  0  0  0  0  0  0  0  0  0
  -23.5270  -32.1650   23.7670 O   0  0  0  0  0  0  0  0  0  0  0  0
  -22.7350  -29.4690   22.5510 C   0  0  0  0  0  0  0  0  0  0  0  0
  -21.4090  -29.2920   22.4350 N   0  0  0  0  0  0  0  0  0  0  0  0
  -23.4240  -28.8410   23.3580 O   0  0  0  0  0  0  0  0  0  0  0  0
  -20.9150  -29.8540   21.7560 H   0  0  0  0  0  0  0  0  0  0  0  0
  -18.0330  -28.1140   22.9540 C   0  0  0  0  0  0  0  0  0  0  0  0
  -20.5950  -28.3560   23.2080 C   0  0  0  0  0  3  0  0  0  0  0  0
  -20.6860  -26.9250   22.6290 C   0  0  0  0  0  2  0  0  0  0  0  0
  -19.5750  -26.6110   21.6220 C   0  0  0  0  0  2  0  0  0  0  0  0
  -18.1980  -26.7640   22.2760 C   0  0  0  0  0  2  0  0  0  0  0  0
  -19.1600  -28.8680   23.3770 C   0  0  0  0  0  0  0  0  0  0  0  0
  -18.9550  -30.1330   23.9690 C   0  0  0  0  0  3  0  0  0  0  0  0
  -17.6550  -30.6440   24.1420 C   0  0  0  0  0  3  0  0  0  0  0  0
  -16.5420  -29.8860   23.7370 C   0  0  0  0  0  3  0  0  0  0  0  0
  -16.7330  -28.6230   23.1480 C   0  0  0  0  0  3  0  0  0  0  0  0
  -25.8970  -32.5140   23.8290 C   0  0  0  0  0  3  0  0  0  0  0  0
  -26.4330  -31.7300   25.0890 C   0  0  1  0  0  0  0  0  0  0  0  0
  -25.3550  -31.4800   26.1700 C   0  0  0  0  0  1  0  0  0  0  0  0
  -27.0110  -30.3590   24.6720 C   0  0  0  0  0  1  0  0  0  0  0  0
  -27.5910  -32.5180   25.7460 C   0  0  0  0  0  1  0  0  0  0  0  0
  -25.5900  -33.9090   24.1740 N   0  0  0  0  0  0  0  0  0  0  0  0
  -25.9100  -34.9670   23.4180 C   0  0  0  0  0  0  0  0  0  0  0  0
  -26.5660  -34.8720   22.3760 O   0  0  0  0  0  0  0  0  0  0  0  0
  -25.0050  -34.0570   24.9840 H   0  0  0  0  0  0  0  0  0  0  0  0
  -24.1680  -36.7530   23.1040 C   0  0  0  0  0  1  0  0  0  0  0  0
  -25.4240  -36.3500   23.8920 C   0  0  0  0  0  3  0  0  0  0  0  0
  -27.5730  -37.2330   24.6880 C   0  0  0  0  0  1  0  0  0  0  0  0
  -26.4500  -37.4080   23.7690 N   0  0  0  0  0  0  0  0  0  0  0  0
  -26.0450  -38.3250   23.9380 H   0  0  0  0  0  0  0  0  0  0  0  0
  1 51  1  0
  2  1  2  0
  3  2  1  0
  4  2  1  0
  4  5  1  0
  5 10  1  0
  5  7  1  0
  6  4  2  0
  8  9  1  0
  8 10  2  0
  9 11  2  0
 10 12  1  0
 11 21  1  0
 11 12  1  0
 13 21  1  0
 14 19  1  0
 15 16  1  0
 15 14  1  0
 17 16  1  0
 17 26  1  0
 17 18  1  0
 19 13  1  0
 19 18  1  0
 20 13  2  0
 21 22  1  0
 23 24  2  0
 24 43  1  0
 25 24  1  0
 25 28  1  0
 26 23  1  0
 26 27  1  0
 27 25  2  0
 28 29  1  0
 29 30  2  0
 31 34  1  0
 31 30  1  0
 32 31  2  0
 33 32  1  0
 33 28  2  0
 34 35  1  0
 35 36  1  0
 36 37  2  0
 38 37  1  0
 38 42  1  0
 39 38  2  0
 40 35  2  0
 40 39  1  0
 41 40  1  0
 43 44  1  0
 44 47  1  0
 44 46  1  0
 45 43  2  0
 48 49  1  0
 48 23  1  0
 50 48  1  0
 51 52  2  0
 53 54  1  0
 53 51  1  0
 55 66  2  0
 56 54  1  0
 56 61  1  0
 57 65  1  0
 57 67  1  0
 58 64  1  0
 58 60  1  0
 59 65  1  0
 60 59  1  0
 61 60  2  0
 62 63  1  0
 62 56  2  0
 63 58  2  0
 64 57  1  0
 65 55  1  0
 67 69  2  0
 68 67  1  0
 70 68  1  0
 71 80  2  0
 71 76  1  0
 72 68  1  0
 72 76  1  0
 73 72  1  0
 74 75  1  0
 74 73  1  0
 75 71  1  0
 76 77  2  0
 77 78  1  0
 79 78  2  0
 80 79  1  0
 81 55  1  0
 81 86  1  0
 81 82  1  0
 82 85  1  1
 82 83  1  0
 84 82  1  0
 86 89  1  0
 87 91  1  0
 87 86  1  0
 88 87  2  0
 91 90  1  0
 93 91  1  0
 93 94  1  0
 93 92  1  0
M  ISO  4  13 100  21 100  53 101  54 101
M  END
>  <TORSDO>  (75) 
F 20

>  <SCORE>  (75) 
-13.708

>  <name>  (75) 
74

>  <ligand_id>  (75) 
74

>  <original_smiles>  (75) 
[H]C(C(=O)C([H])([H])Oc1c([H])c([H])c2c(c1[H])C([H])([H])N(C(=O)C([H])(N([H])C(=O)C([H])(N([H])C([H])([H])[H])C([H])([H])[H])C(C([H])([H])[H])(C([H])([H])[H])C([H])([H])[H])C([H])(C(=O)N([H])C1([H])c3c([H])c([H])c([H])c([H])c3C([H])([H])C([H])([H])C1([H])[H])C2([H])[H])=C(C(=O)N([H])c1sc(N([H])C(=O)N2C([H])([H])C([H])([H])C([H])([H])C([H])(n3nc(-c4c([H])c([H])c(Oc5c([H])c([H])c(F)c([H])c5F)c([H])c4[H])c(C(=O)N([H])[H])c3N([H])[H])C2([H])[H])c([H])c1[H])C([H])([H])[H]

>  <smiles>  (75) 
[H]C(C(=O)C([H])([H])Oc1c([H])c([H])c2c(c1[H])C([H])([H])N(C(=O)C([H])(N([H])C(=O)C([H])(N([H])C([H])([H])[H])C([H])([H])[H])C(C([H])([H])[H])(C([H])([H])[H])C([H])([H])[H])C([H])(C(=O)N([H])C1([H])c3c([H])c([H])c([H])c([H])c3C([H])([H])C([H])([H])C1([H])[H])C2([H])[H])=C(C(=O)N([H])c1sc(N([H])C(=O)N2C([H])([H])C([H])([H])C([H])([H])C([H])(n3nc(-c4c([H])c([H])c(Oc5c([H])c([H])c(F)c([H])c5F)c([H])c4[H])c(C(=O)N([H])[H])c3N([H])[H])C2([H])[H])c([H])c1[H])C([H])([H])[H]

$$$$
75:0:0
     RDKit          3D

 95103  0  0  1  0  0  0  0  0999 V2000
  -30.9890  -17.9410   19.7960 C   0  0  0  0  0  3  0  0  0  0  0  0
  -29.9140  -17.1610   20.2890 C   0  0  0  0  0  0  0  0  0  0  0  0
  -28.7760  -17.9120   20.6660 C   0  0  0  0  0  0  0  0  0  0  0  0
  -28.7360  -19.3310   20.5550 C   0  0  0  0  0  0  0  0  0  0  0  0
  -29.8520  -20.0370   20.0300 C   0  0  0  0  0  0  0  0  0  0  0  0
  -28.9330  -22.4520   19.7210 C   0  0  0  0  0  0  0  0  0  0  0  0
  -30.9560  -19.3080   19.6800 N   0  0  0  0  0  0  0  0  0  0  0  0
  -29.8920  -21.5000   19.9690 N   0  0  0  0  0  0  0  0  0  0  0  0
  -27.8060  -22.1530   19.3140 O   0  0  0  0  0  0  0  0  0  0  0  0
  -27.6990  -17.2490   21.1580 F   0  0  0  0  0  0  0  0  0  0  0  0
  -27.6380  -19.9940   21.0020 F   0  0  0  0  0  0  0  0  0  0  0  0
  -30.8070  -21.8980   20.1170 H   0  0  0  0  0  0  0  0  0  0  0  0
  -30.6100  -14.6810   19.8960 C   0  0  0  0  0  0  0  0  0  0  0  0
  -30.3160  -12.4630   18.8090 C   0  0  0  0  0  2  0  0  0  0  0  0
  -29.2900  -12.6200   17.6630 C   0  0  0  0  0  2  0  0  0  0  0  0
  -27.8470  -12.4730   18.1870 C   0  0  0  0  0  2  0  0  0  0  0  0
  -27.5860  -13.3180   19.4620 C   0  0  0  0  0  3  0  0  0  0  0  0
  -28.7130  -13.1190   20.5000 C   0  0  0  0  0  2  0  0  0  0  0  0
  -29.9890  -13.4610   19.8470 N   0  0  0  0  0  0  0  0  0  0  0  0
  -31.7190  -14.8670   19.3890 O   0  0  0  0  0  0  0  0  0  0  0  0
  -29.8630  -15.7010   20.4180 N   0  0  0  0  0  0  0  0  0  0  0  0
  -29.0360  -15.3690   20.8960 H   0  0  0  0  0  0  0  0  0  0  0  0
  -25.2710  -13.9490   20.3860 C   0  0  0  0  0  0  0  0  0  0  0  0
  -24.2080  -13.1890   20.7920 C   0  0  0  0  0  0  0  0  0  0  0  0
  -24.6200  -11.8280   20.6520 C   0  0  0  0  0  0  0  0  0  0  0  0
  -26.2660  -13.0520   20.0270 N   0  0  0  0  0  0  0  0  0  0  0  0
  -25.8820  -11.7680   20.2440 N   0  0  0  0  0  0  0  0  0  0  0  0
  -23.8660  -10.5800   20.8250 C   0  0  0  0  0  0  0  0  0  0  0  0
  -24.3440   -9.5370   21.6500 C   0  0  0  0  0  3  0  0  0  0  0  0
  -23.5920   -8.3550   21.8170 C   0  0  0  0  0  3  0  0  0  0  0  0
  -22.3480   -8.2060   21.1580 C   0  0  0  0  0  0  0  0  0  0  0  0
  -21.8880   -9.2360   20.3210 C   0  0  0  0  0  3  0  0  0  0  0  0
  -22.6400  -10.4110   20.1510 C   0  0  0  0  0  3  0  0  0  0  0  0
  -21.5630   -7.0820   21.2400 O   0  0  0  0  0  0  0  0  0  0  0  0
  -21.6060   -6.2510   22.3310 C   0  0  0  0  0  0  0  0  0  0  0  0
  -21.3450   -6.7200   23.6370 C   0  0  0  0  0  3  0  0  0  0  0  0
  -21.3330   -5.8180   24.7200 C   0  0  0  0  0  3  0  0  0  0  0  0
  -21.5720   -4.4490   24.4990 C   0  0  0  0  0  0  0  0  0  0  0  0
  -21.8270   -3.9790   23.1990 C   0  0  0  0  0  3  0  0  0  0  0  0
  -21.8410   -4.8770   22.1170 C   0  0  0  0  0  0  0  0  0  0  0  0
  -22.0650   -4.4160   20.8630 F   0  0  0  0  0  0  0  0  0  0  0  0
  -21.5530   -3.5810   25.5380 F   0  0  0  0  0  0  0  0  0  0  0  0
  -22.8520  -13.6920   21.1950 C   0  0  0  0  0  0  0  0  0  0  0  0
  -22.1700  -12.9720   22.0800 N   0  0  0  0  0  0  0  0  0  0  0  0
  -22.4100  -14.7550   20.7640 O   0  0  0  0  0  0  0  0  0  0  0  0
  -22.5410  -12.1100   22.4490 H   0  0  0  0  0  0  0  0  0  0  0  0
  -21.2620  -13.2890   22.3910 H   0  0  0  0  0  0  0  0  0  0  0  0
  -25.4680  -15.3220   20.2700 N   0  0  0  0  0  0  0  0  0  0  0  0
  -24.7370  -15.9910   20.4840 H   0  0  0  0  0  0  0  0  0  0  0  0
  -26.3080  -15.7560   19.9100 H   0  0  0  0  0  0  0  0  0  0  0  0
  -29.5940  -24.2360   21.4050 C   0  0  0  0  0  1  0  0  0  0  0  0
  -29.2940  -23.9910   19.9170 C   0  0  1  0  0  0  0  0  0  0  0  0
  -30.4220  -24.2230   19.2430 F   0  0  0  0  0  0  0  0  0  0  0  0
  -28.2010  -25.0480   19.4190 C   0  0  0  0  0  2  0  0  0  0  0  0
  -28.3680  -26.5020   19.6860 O   0  0  0  0  0  0  0  0  0  0  0  0
  -24.5240  -31.6230   23.0190 C   0  0  0  0  0  0  0  0  0  0  0  0
  -27.2190  -27.3130   19.6890 C   0  0  0  0  0  0  0  0  0  0  0  0
  -23.3330  -30.2730   21.3300 C   0  0  0  0  0  3  0  0  0  0  0  0
  -24.8040  -28.8450   19.8010 C   0  0  0  0  0  0  0  0  0  0  0  0
  -25.8580  -30.6800   21.1210 C   0  0  0  0  0  2  0  0  0  0  0  0
  -25.9670  -29.3400   20.4030 C   0  0  0  0  0  0  0  0  0  0  0  0
  -27.1770  -28.5860   20.3380 C   0  0  0  0  0  3  0  0  0  0  0  0
  -26.0290  -26.8760   19.0620 C   0  0  0  0  0  3  0  0  0  0  0  0
  -24.8360  -27.6190   19.1220 C   0  0  0  0  0  3  0  0  0  0  0  0
  -23.5420  -29.6750   19.9130 C   0  0  0  0  0  2  0  0  0  0  0  0
  -24.5910  -30.8730   21.8800 N   0  0  0  0  0  0  0  0  0  0  0  0
  -23.4430  -31.8400   23.5850 O   0  0  0  0  0  0  0  0  0  0  0  0
  -22.7180  -29.1890   22.2470 C   0  0  0  0  0  0  0  0  0  0  0  0
  -21.3940  -28.9900   22.1440 N   0  0  0  0  0  0  0  0  0  0  0  0
  -23.4310  -28.5330   23.0100 O   0  0  0  0  0  0  0  0  0  0  0  0
  -20.8750  -29.5730   21.5020 H   0  0  0  0  0  0  0  0  0  0  0  0
  -18.0560  -27.6940   22.6580 C   0  0  0  0  0  0  0  0  0  0  0  0
  -20.6140  -27.9940   22.8800 C   0  0  0  0  0  3  0  0  0  0  0  0
  -20.7300  -26.5980   22.2240 C   0  0  0  0  0  2  0  0  0  0  0  0
  -19.6100  -26.3070   21.2210 C   0  0  0  0  0  2  0  0  0  0  0  0
  -18.2420  -26.3880   21.9050 C   0  0  0  0  0  2  0  0  0  0  0  0
  -19.1690  -28.4560   23.1020 C   0  0  0  0  0  0  0  0  0  0  0  0
  -18.9390  -29.6790   23.7680 C   0  0  0  0  0  3  0  0  0  0  0  0
  -17.6290  -30.1430   23.9930 C   0  0  0  0  0  3  0  0  0  0  0  0
  -16.5300  -29.3780   23.5640 C   0  0  0  0  0  3  0  0  0  0  0  0
  -16.7440  -28.1550   22.9020 C   0  0  0  0  0  3  0  0  0  0  0  0
  -25.7990  -32.2610   23.6520 C   0  0  0  0  0  3  0  0  0  0  0  0
  -25.4600  -33.6380   24.0390 N   0  0  0  0  0  0  0  0  0  0  0  0
  -25.7660  -34.7270   23.3220 C   0  0  0  0  0  0  0  0  0  0  0  0
  -26.4330  -34.6800   22.2840 O   0  0  0  0  0  0  0  0  0  0  0  0
  -24.8650  -33.7470   24.8480 H   0  0  0  0  0  0  0  0  0  0  0  0
  -23.9910  -36.4910   23.0560 C   0  0  0  0  0  1  0  0  0  0  0  0
  -25.2510  -36.0860   23.8370 C   0  0  0  0  0  3  0  0  0  0  0  0
  -27.3730  -36.9910   24.6800 C   0  0  0  0  0  1  0  0  0  0  0  0
  -26.2570  -37.1670   23.7530 N   0  0  0  0  0  0  0  0  0  0  0  0
  -25.8310  -38.0700   23.9380 H   0  0  0  0  0  0  0  0  0  0  0  0
  -26.3460  -31.4540   24.8930 C   0  0  1  0  0  0  0  0  0  0  0  0
  -25.2730  -31.1570   25.9650 C   0  0  0  0  0  1  0  0  0  0  0  0
  -26.9490  -30.1020   24.4430 C   0  0  0  0  0  1  0  0  0  0  0  0
  -27.4920  -32.2450   25.5680 C   0  0  0  0  0  1  0  0  0  0  0  0
  1  2  1  0
  2 21  1  0
  2  3  2  0
  3 10  1  0
  4  3  1  0
  4 11  1  0
  5  4  2  0
  6 52  1  0
  6  8  1  0
  7  1  2  0
  7  5  1  0
  8  5  1  0
  8 12  1  0
  9  6  2  0
 13 21  1  0
 14 19  1  0
 15 16  1  0
 15 14  1  0
 17 16  1  0
 17 26  1  0
 17 18  1  0
 19 13  1  0
 19 18  1  0
 20 13  2  0
 21 22  1  0
 23 24  2  0
 24 43  1  0
 25 24  1  0
 25 28  1  0
 26 27  1  0
 26 23  1  0
 27 25  2  0
 28 29  1  0
 29 30  2  0
 31 34  1  0
 31 30  1  0
 32 31  2  0
 33 32  1  0
 33 28  2  0
 34 35  1  0
 35 36  1  0
 36 37  2  0
 38 37  1  0
 38 42  1  0
 39 38  2  0
 40 35  2  0
 40 39  1  0
 41 40  1  0
 43 44  1  0
 44 47  1  0
 44 46  1  0
 45 43  2  0
 48 23  1  0
 48 49  1  0
 50 48  1  0
 52 51  1  1
 53 52  1  0
 54 55  1  0
 54 52  1  0
 55 57  1  0
 56 67  2  0
 57 62  1  0
 58 66  1  0
 58 68  1  0
 59 65  1  0
 59 61  1  0
 60 66  1  0
 61 60  1  0
 62 61  2  0
 63 64  1  0
 63 57  2  0
 64 59  2  0
 65 58  1  0
 66 56  1  0
 68 70  2  0
 69 68  1  0
 71 69  1  0
 72 81  2  0
 72 77  1  0
 73 69  1  0
 73 77  1  0
 74 73  1  0
 75 76  1  0
 75 74  1  0
 76 72  1  0
 77 78  2  0
 78 79  1  0
 80 79  2  0
 81 80  1  0
 82 56  1  0
 82 83  1  0
 82 92  1  0
 83 86  1  0
 84 88  1  0
 84 83  1  0
 85 84  2  0
 88 87  1  0
 90 88  1  0
 90 91  1  0
 90 89  1  0
 92 95  1  1
 92 93  1  0
 94 92  1  0
M  ISO  4  13 100  21 100  54 101  55 101
M  END
>  <TORSDO>  (76) 
F 18

>  <SCORE>  (76) 
-13.541

>  <name>  (76) 
75

>  <ligand_id>  (76) 
75

>  <original_smiles>  (76) 
[H]c1nc(N([H])C(=O)C(F)(C([H])([H])[H])C([H])([H])Oc2c([H])c([H])c3c(c2[H])C([H])([H])N(C(=O)C([H])(N([H])C(=O)C([H])(N([H])C([H])([H])[H])C([H])([H])[H])C(C([H])([H])[H])(C([H])([H])[H])C([H])([H])[H])C([H])(C(=O)N([H])C2([H])c4c([H])c([H])c([H])c([H])c4C([H])([H])C([H])([H])C2([H])[H])C3([H])[H])c(F)c(F)c1N([H])C(=O)N1C([H])([H])C([H])([H])C([H])([H])C([H])(n2nc(-c3c([H])c([H])c(Oc4c([H])c([H])c(F)c([H])c4F)c([H])c3[H])c(C(=O)N([H])[H])c2N([H])[H])C1([H])[H]

>  <smiles>  (76) 
[H]c1nc(N([H])C(=O)C(F)(C([H])([H])[H])C([H])([H])Oc2c([H])c([H])c3c(c2[H])C([H])([H])N(C(=O)C([H])(N([H])C(=O)C([H])(N([H])C([H])([H])[H])C([H])([H])[H])C(C([H])([H])[H])(C([H])([H])[H])C([H])([H])[H])C([H])(C(=O)N([H])C2([H])c4c([H])c([H])c([H])c([H])c4C([H])([H])C([H])([H])C2([H])[H])C3([H])[H])c(F)c(F)c1N([H])C(=O)N1C([H])([H])C([H])([H])C([H])([H])C([H])(n2nc(-c3c([H])c([H])c(Oc4c([H])c([H])c(F)c([H])c4F)c([H])c3[H])c(C(=O)N([H])[H])c2N([H])[H])C1([H])[H]

$$$$
76:0:0
     RDKit          3D

 95103  0  0  1  0  0  0  0  0999 V2000
  -29.7620  -21.2370   20.9840 C   0  0  0  0  0  0  0  0  0  0  0  0
  -29.1320  -23.7120   20.8040 C   0  0  0  0  0  0  0  0  0  0  0  0
  -28.9980  -22.3310   20.5560 N   0  0  0  0  0  0  0  0  0  0  0  0
  -30.5980  -21.3830   21.8850 O   0  0  0  0  0  0  0  0  0  0  0  0
  -30.1990  -24.1810   21.2160 O   0  0  0  0  0  0  0  0  0  0  0  0
  -28.2010  -22.0630   20.0010 H   0  0  0  0  0  0  0  0  0  0  0  0
  -30.5800  -14.8420   20.3050 C   0  0  0  0  0  0  0  0  0  0  0  0
  -30.3800  -12.5690   19.2710 C   0  0  0  0  0  2  0  0  0  0  0  0
  -29.4250  -12.6480   18.0580 C   0  0  0  0  0  2  0  0  0  0  0  0
  -27.9590  -12.4710   18.4980 C   0  0  0  0  0  2  0  0  0  0  0  0
  -27.6020  -13.3270   19.7420 C   0  0  0  0  0  3  0  0  0  0  0  0
  -28.6790  -13.2230   20.8480 C   0  0  0  0  0  2  0  0  0  0  0  0
  -29.9680  -13.6030   20.2540 N   0  0  0  0  0  0  0  0  0  0  0  0
  -31.7160  -14.9690   19.8380 O   0  0  0  0  0  0  0  0  0  0  0  0
  -29.6030  -19.7670   20.3800 C   0  0  0  0  0  0  0  0  0  0  0  0
  -29.4190  -19.4770   19.0330 C   0  0  0  0  0  0  0  0  0  0  0  0
  -29.8370  -17.3470   20.3310 C   0  0  0  0  0  0  0  0  0  0  0  0
  -29.8120  -18.5030   21.0890 N   0  0  0  0  0  0  0  0  0  0  0  0
  -29.8900  -15.9380   20.8130 N   0  0  0  0  0  0  0  0  0  0  0  0
  -29.5550  -17.7540   18.6450 S   0  0  0  0  0  0  0  0  0  0  0  0
  -29.1070  -15.6780   21.3920 H   0  0  0  0  0  0  0  0  0  0  0  0
  -25.2170  -13.8920   20.4990 C   0  0  0  0  0  0  0  0  0  0  0  0
  -24.1630  -13.1070   20.8830 C   0  0  0  0  0  0  0  0  0  0  0  0
  -24.6360  -11.7600   20.8390 C   0  0  0  0  0  0  0  0  0  0  0  0
  -26.2660  -13.0210   20.2450 N   0  0  0  0  0  0  0  0  0  0  0  0
  -25.9230  -11.7340   20.5100 N   0  0  0  0  0  0  0  0  0  0  0  0
  -23.9210  -10.4920   21.0360 C   0  0  0  0  0  0  0  0  0  0  0  0
  -24.3760   -9.5210   21.9560 C   0  0  0  0  0  3  0  0  0  0  0  0
  -23.6610   -8.3170   22.1410 C   0  0  0  0  0  3  0  0  0  0  0  0
  -22.4750   -8.0780   21.4060 C   0  0  0  0  0  0  0  0  0  0  0  0
  -22.0390   -9.0370   20.4740 C   0  0  0  0  0  3  0  0  0  0  0  0
  -22.7560  -10.2310   20.2880 C   0  0  0  0  0  3  0  0  0  0  0  0
  -21.7280   -6.9280   21.5000 O   0  0  0  0  0  0  0  0  0  0  0  0
  -21.7030   -6.1770   22.6490 C   0  0  0  0  0  0  0  0  0  0  0  0
  -21.2830   -6.7170   23.8840 C   0  0  0  0  0  3  0  0  0  0  0  0
  -21.2080   -5.8920   25.0240 C   0  0  0  0  0  3  0  0  0  0  0  0
  -21.5430   -4.5280   24.9300 C   0  0  0  0  0  0  0  0  0  0  0  0
  -21.9570   -3.9880   23.7000 C   0  0  0  0  0  3  0  0  0  0  0  0
  -22.0340   -4.8100   22.5620 C   0  0  0  0  0  0  0  0  0  0  0  0
  -22.4120   -4.2790   21.3740 F   0  0  0  0  0  0  0  0  0  0  0  0
  -21.4640   -3.7330   26.0220 F   0  0  0  0  0  0  0  0  0  0  0  0
  -22.7660  -13.5740   21.1760 C   0  0  0  0  0  0  0  0  0  0  0  0
  -22.0530  -12.8660   22.0460 N   0  0  0  0  0  0  0  0  0  0  0  0
  -22.3140  -14.5990   20.6690 O   0  0  0  0  0  0  0  0  0  0  0  0
  -22.4330  -12.0370   22.4790 H   0  0  0  0  0  0  0  0  0  0  0  0
  -21.1160  -13.1580   22.2820 H   0  0  0  0  0  0  0  0  0  0  0  0
  -25.3730  -15.2640   20.3280 N   0  0  0  0  0  0  0  0  0  0  0  0
  -24.6090  -15.9180   20.4630 H   0  0  0  0  0  0  0  0  0  0  0  0
  -26.2140  -15.7090   19.9820 H   0  0  0  0  0  0  0  0  0  0  0  0
  -29.2030  -20.3370   17.9580 N   0  0  0  0  0  0  0  0  0  0  0  0
  -29.4550  -21.3220   17.9760 H   0  0  0  0  0  0  0  0  0  0  0  0
  -29.2600  -19.9640   17.0150 H   0  0  0  0  0  0  0  0  0  0  0  0
  -26.7850  -24.1010   19.8170 C   0  0  0  0  0  1  0  0  0  0  0  0
  -27.9200  -24.7840   20.6250 C   0  0  0  0  0  3  0  0  0  0  0  0
  -28.2370  -26.2730   20.3270 O   0  0  0  0  0  0  0  0  0  0  0  0
  -24.6240  -31.9460   23.2690 C   0  0  0  0  0  0  0  0  0  0  0  0
  -27.1950  -27.2580   20.2590 C   0  0  0  0  0  0  0  0  0  0  0  0
  -23.4250  -30.5500   21.6300 C   0  0  0  0  0  3  0  0  0  0  0  0
  -24.8770  -28.9890   20.2120 C   0  0  0  0  0  0  0  0  0  0  0  0
  -25.9800  -30.8110   21.4850 C   0  0  0  0  0  2  0  0  0  0  0  0
  -26.0490  -29.4240   20.8450 C   0  0  0  0  0  0  0  0  0  0  0  0
  -27.2080  -28.5690   20.8700 C   0  0  0  0  0  3  0  0  0  0  0  0
  -26.0320  -26.9710   19.5140 C   0  0  0  0  0  3  0  0  0  0  0  0
  -24.8800  -27.7700   19.5300 C   0  0  0  0  0  3  0  0  0  0  0  0
  -23.6480  -29.8780   20.2520 C   0  0  0  0  0  2  0  0  0  0  0  0
  -24.6960  -31.1250   22.1800 N   0  0  0  0  0  0  0  0  0  0  0  0
  -23.5370  -32.2360   23.7900 O   0  0  0  0  0  0  0  0  0  0  0  0
  -22.7480  -29.5380   22.5880 C   0  0  0  0  0  0  0  0  0  0  0  0
  -21.4210  -29.3680   22.4510 N   0  0  0  0  0  0  0  0  0  0  0  0
  -23.4170  -28.9140   23.4160 O   0  0  0  0  0  0  0  0  0  0  0  0
  -20.9410  -29.9220   21.7570 H   0  0  0  0  0  0  0  0  0  0  0  0
  -18.0320  -28.1910   22.9410 C   0  0  0  0  0  0  0  0  0  0  0  0
  -20.5910  -28.4360   23.2190 C   0  0  0  0  0  3  0  0  0  0  0  0
  -20.6850  -27.0040   22.6470 C   0  0  0  0  0  2  0  0  0  0  0  0
  -19.5860  -26.6850   21.6290 C   0  0  0  0  0  2  0  0  0  0  0  0
  -18.2030  -26.8390   22.2680 C   0  0  0  0  0  2  0  0  0  0  0  0
  -19.1540  -28.9470   23.3720 C   0  0  0  0  0  0  0  0  0  0  0  0
  -18.9390  -30.2120   23.9620 C   0  0  0  0  0  3  0  0  0  0  0  0
  -17.6360  -30.7200   24.1220 C   0  0  0  0  0  3  0  0  0  0  0  0
  -16.5290  -29.9600   23.7070 C   0  0  0  0  0  3  0  0  0  0  0  0
  -16.7270  -28.6970   23.1230 C   0  0  0  0  0  3  0  0  0  0  0  0
  -25.9050  -32.5750   23.8960 C   0  0  0  0  0  3  0  0  0  0  0  0
  -25.5990  -33.9770   24.2180 N   0  0  0  0  0  0  0  0  0  0  0  0
  -25.9240  -35.0250   23.4500 C   0  0  0  0  0  0  0  0  0  0  0  0
  -26.5860  -34.9140   22.4150 O   0  0  0  0  0  0  0  0  0  0  0  0
  -25.0070  -34.1380   25.0200 H   0  0  0  0  0  0  0  0  0  0  0  0
  -24.1950  -36.8180   23.1040 C   0  0  0  0  0  1  0  0  0  0  0  0
  -25.4430  -36.4180   23.9040 C   0  0  0  0  0  3  0  0  0  0  0  0
  -27.5860  -37.3100   24.7050 C   0  0  0  0  0  1  0  0  0  0  0  0
  -26.4740  -37.4700   23.7720 N   0  0  0  0  0  0  0  0  0  0  0  0
  -26.0700  -38.3920   23.9120 H   0  0  0  0  0  0  0  0  0  0  0  0
  -26.4040  -31.8080   25.1830 C   0  0  1  0  0  0  0  0  0  0  0  0
  -25.2980  -31.5850   26.2430 C   0  0  0  0  0  1  0  0  0  0  0  0
  -26.9850  -30.4240   24.8120 C   0  0  0  0  0  1  0  0  0  0  0  0
  -27.5520  -32.6020   25.8470 C   0  0  0  0  0  1  0  0  0  0  0  0
  1  4  2  0
  2  5  2  0
  3  2  1  0
  3  1  1  0
  6  3  1  0
  7 19  1  0
  8 13  1  0
  9 10  1  0
  9  8  1  0
 11 10  1  0
 11 25  1  0
 11 12  1  0
 13  7  1  0
 13 12  1  0
 14  7  2  0
 15  1  1  0
 15 18  1  0
 16 15  2  0
 17 19  1  0
 17 18  2  0
 19 21  1  0
 20 16  1  0
 20 17  1  0
 22 23  2  0
 23 42  1  0
 24 23  1  0
 24 27  1  0
 25 22  1  0
 25 26  1  0
 26 24  2  0
 27 28  1  0
 28 29  2  0
 30 33  1  0
 30 29  1  0
 31 30  2  0
 32 31  1  0
 32 27  2  0
 33 34  1  0
 34 35  1  0
 35 36  2  0
 37 36  1  0
 37 41  1  0
 38 37  2  0
 39 34  2  0
 39 38  1  0
 40 39  1  0
 42 43  1  0
 43 46  1  0
 43 45  1  0
 44 42  2  0
 47 48  1  0
 47 22  1  0
 49 47  1  0
 50 51  1  0
 50 16  1  0
 52 50  1  0
 54 53  1  0
 54  2  1  0
 55 54  1  0
 56 67  2  0
 57 55  1  0
 57 62  1  0
 58 66  1  0
 58 68  1  0
 59 65  1  0
 59 61  1  0
 60 66  1  0
 61 62  2  0
 61 60  1  0
 63 64  1  0
 63 57  2  0
 64 59  2  0
 65 58  1  0
 66 56  1  0
 68 70  2  0
 69 68  1  0
 71 69  1  0
 72 81  2  0
 72 77  1  0
 73 69  1  0
 73 77  1  0
 74 73  1  0
 75 76  1  0
 75 74  1  0
 76 72  1  0
 77 78  2  0
 78 79  1  0
 80 79  2  0
 81 80  1  0
 82 56  1  0
 82 83  1  0
 82 92  1  0
 83 86  1  0
 84 88  1  0
 84 83  1  0
 85 84  2  0
 88 87  1  0
 90 88  1  0
 90 91  1  0
 90 89  1  0
 92 95  1  1
 92 93  1  0
 94 92  1  0
M  ISO  4   7 100  19 100  54 101  55 101
M  END
>  <TORSDO>  (77) 
F 18

>  <SCORE>  (77) 
-15.050

>  <name>  (77) 
76

>  <ligand_id>  (77) 
76

>  <original_smiles>  (77) 
[H]c1c([H])c([H])c2c(c1[H])C([H])([H])C([H])([H])C([H])([H])C2([H])N([H])C(=O)C1([H])N(C(=O)C([H])(N([H])C(=O)C([H])(N([H])C([H])([H])[H])C([H])([H])[H])C(C([H])([H])[H])(C([H])([H])[H])C([H])([H])[H])C([H])([H])c2c([H])c(OC([H])(C(=O)N([H])C(=O)c3nc(N([H])C(=O)N4C([H])([H])C([H])([H])C([H])([H])C([H])(n5nc(-c6c([H])c([H])c(Oc7c([H])c([H])c(F)c([H])c7F)c([H])c6[H])c(C(=O)N([H])[H])c5N([H])[H])C4([H])[H])sc3N([H])[H])C([H])([H])[H])c([H])c([H])c2C1([H])[H]

>  <smiles>  (77) 
[H]c1c([H])c([H])c2c(c1[H])C([H])([H])C([H])([H])C([H])([H])C2([H])N([H])C(=O)C1([H])N(C(=O)C([H])(N([H])C(=O)C([H])(N([H])C([H])([H])[H])C([H])([H])[H])C(C([H])([H])[H])(C([H])([H])[H])C([H])([H])[H])C([H])([H])c2c([H])c(OC([H])(C(=O)N([H])C(=O)c3nc(N([H])C(=O)N4C([H])([H])C([H])([H])C([H])([H])C([H])(n5nc(-c6c([H])c([H])c(Oc7c([H])c([H])c(F)c([H])c7F)c([H])c6[H])c(C(=O)N([H])[H])c5N([H])[H])C4([H])[H])sc3N([H])[H])C([H])([H])[H])c([H])c([H])c2C1([H])[H]

$$$$
77:0:0
     RDKit          3D

 95103  0  0  1  0  0  0  0  0999 V2000
  -30.4750  -22.1770   20.1960 C   0  0  0  0  0  0  0  0  0  0  0  0
  -31.1690  -21.4860   21.1120 N   0  0  0  0  0  0  0  0  0  0  0  0
  -30.3540  -21.8420   19.0130 O   0  0  0  0  0  0  0  0  0  0  0  0
  -31.0970  -21.8200   22.0640 H   0  0  0  0  0  0  0  0  0  0  0  0
  -29.8440  -23.4590   20.8130 C   0  0  0  0  0  0  0  0  0  0  0  0
  -29.3010  -23.4060   21.9220 O   0  0  0  0  0  0  0  0  0  0  0  0
  -30.9380  -24.9100   18.9020 C   0  0  0  0  0  1  0  0  0  0  0  0
  -29.9390  -24.8210   20.0790 C   0  0  0  0  0  3  0  0  0  0  0  0
  -28.5460  -25.4100   19.7460 C   0  0  0  0  0  2  0  0  0  0  0  0
  -28.5070  -26.7680   20.1920 O   0  0  0  0  0  0  0  0  0  0  0  0
  -24.6140  -31.8850   23.2330 C   0  0  0  0  0  0  0  0  0  0  0  0
  -27.3020  -27.4410   20.1840 C   0  0  0  0  0  0  0  0  0  0  0  0
  -23.4270  -30.4750   21.5860 C   0  0  0  0  0  3  0  0  0  0  0  0
  -24.8930  -28.9280   20.1880 C   0  0  0  0  0  0  0  0  0  0  0  0
  -25.9540  -30.8340   21.4110 C   0  0  0  0  0  2  0  0  0  0  0  0
  -26.0440  -29.4590   20.7830 C   0  0  0  0  0  0  0  0  0  0  0  0
  -27.2480  -28.7190   20.7840 C   0  0  0  0  0  3  0  0  0  0  0  0
  -26.1250  -26.9170   19.5960 C   0  0  0  0  0  3  0  0  0  0  0  0
  -24.9250  -27.6550   19.6000 C   0  0  0  0  0  3  0  0  0  0  0  0
  -23.6500  -29.7900   20.2130 C   0  0  0  0  0  2  0  0  0  0  0  0
  -24.6830  -31.0800   22.1360 N   0  0  0  0  0  0  0  0  0  0  0  0
  -23.5270  -32.1590   23.7600 O   0  0  0  0  0  0  0  0  0  0  0  0
  -22.7640  -29.4570   22.5430 C   0  0  0  0  0  0  0  0  0  0  0  0
  -21.4430  -29.2670   22.3940 N   0  0  0  0  0  0  0  0  0  0  0  0
  -23.4360  -28.8410   23.3740 O   0  0  0  0  0  0  0  0  0  0  0  0
  -20.9620  -29.8140   21.6940 H   0  0  0  0  0  0  0  0  0  0  0  0
  -18.0660  -28.0590   22.8280 C   0  0  0  0  0  0  0  0  0  0  0  0
  -20.6160  -28.3350   23.1580 C   0  0  0  0  0  3  0  0  0  0  0  0
  -20.7420  -26.8980   22.6000 C   0  0  0  0  0  2  0  0  0  0  0  0
  -19.6660  -26.5570   21.5640 C   0  0  0  0  0  2  0  0  0  0  0  0
  -18.2680  -26.7030   22.1740 C   0  0  0  0  0  2  0  0  0  0  0  0
  -19.1710  -28.8320   23.2770 C   0  0  0  0  0  0  0  0  0  0  0  0
  -18.9320  -30.1000   23.8470 C   0  0  0  0  0  3  0  0  0  0  0  0
  -17.6220  -30.5990   23.9740 C   0  0  0  0  0  3  0  0  0  0  0  0
  -16.5310  -29.8220   23.5460 C   0  0  0  0  0  3  0  0  0  0  0  0
  -16.7550  -28.5550   22.9780 C   0  0  0  0  0  3  0  0  0  0  0  0
  -25.8930  -32.5190   23.8640 C   0  0  0  0  0  3  0  0  0  0  0  0
  -25.5800  -33.9160   24.1890 N   0  0  0  0  0  0  0  0  0  0  0  0
  -25.9130  -34.9680   23.4280 C   0  0  0  0  0  0  0  0  0  0  0  0
  -26.5900  -34.8620   22.4010 O   0  0  0  0  0  0  0  0  0  0  0  0
  -24.9770  -34.0700   24.9830 H   0  0  0  0  0  0  0  0  0  0  0  0
  -24.1790  -36.7500   23.0600 C   0  0  0  0  0  1  0  0  0  0  0  0
  -25.4190  -36.3550   23.8780 C   0  0  0  0  0  3  0  0  0  0  0  0
  -27.5480  -37.2530   24.7100 C   0  0  0  0  0  1  0  0  0  0  0  0
  -26.4480  -37.4110   23.7620 N   0  0  0  0  0  0  0  0  0  0  0  0
  -26.0390  -38.3290   23.9060 H   0  0  0  0  0  0  0  0  0  0  0  0
  -26.4010  -31.7490   25.1430 C   0  0  1  0  0  0  0  0  0  0  0  0
  -25.2990  -31.5100   26.2020 C   0  0  0  0  0  1  0  0  0  0  0  0
  -26.9890  -30.3730   24.7530 C   0  0  0  0  0  1  0  0  0  0  0  0
  -27.5470  -32.5430   25.8150 C   0  0  0  0  0  1  0  0  0  0  0  0
  -33.2670  -20.4040   21.7790 C   0  0  0  0  0  1  0  0  0  0  0  0
  -32.0340  -20.3360   20.8640 C   0  0  0  0  0  3  0  0  0  0  0  0
  -29.8920  -17.5280   22.0470 C   0  0  0  0  0  3  0  0  0  0  0  0
  -30.5080  -16.6820   21.1510 C   0  0  0  0  0  0  0  0  0  0  0  0
  -31.2720  -19.0570   21.0710 C   0  0  0  0  0  0  0  0  0  0  0  0
  -30.3360  -18.8560   22.0040 N   0  0  0  0  0  0  0  0  0  0  0  0
  -31.6590  -17.5930   20.1830 S   0  0  0  0  0  0  0  0  0  0  0  0
  -30.8080  -14.4470   20.1910 C   0  0  0  0  0  0  0  0  0  0  0  0
  -30.4050  -12.3830   18.9090 C   0  0  0  0  0  2  0  0  0  0  0  0
  -29.4080  -12.6850   17.7720 C   0  0  0  0  0  2  0  0  0  0  0  0
  -27.9550  -12.5400   18.2670 C   0  0  0  0  0  2  0  0  0  0  0  0
  -27.6960  -13.2980   19.5960 C   0  0  0  0  0  3  0  0  0  0  0  0
  -28.7990  -12.9810   20.6330 C   0  0  0  0  0  2  0  0  0  0  0  0
  -30.1030  -13.2950   20.0250 N   0  0  0  0  0  0  0  0  0  0  0  0
  -31.8630  -14.6650   19.5920 O   0  0  0  0  0  0  0  0  0  0  0  0
  -30.2440  -15.3470   21.0230 N   0  0  0  0  0  0  0  0  0  0  0  0
  -29.4410  -15.0050   21.5280 H   0  0  0  0  0  0  0  0  0  0  0  0
  -25.3230  -13.8910   20.4020 C   0  0  0  0  0  0  0  0  0  0  0  0
  -24.2720  -13.1130   20.8050 C   0  0  0  0  0  0  0  0  0  0  0  0
  -24.7340  -11.7630   20.7400 C   0  0  0  0  0  0  0  0  0  0  0  0
  -26.3620  -13.0160   20.1210 N   0  0  0  0  0  0  0  0  0  0  0  0
  -26.0100  -11.7290   20.3770 N   0  0  0  0  0  0  0  0  0  0  0  0
  -24.0170  -10.4960   20.9440 C   0  0  0  0  0  0  0  0  0  0  0  0
  -24.4720   -9.5310   21.8700 C   0  0  0  0  0  3  0  0  0  0  0  0
  -23.7560   -8.3290   22.0600 C   0  0  0  0  0  3  0  0  0  0  0  0
  -22.5720   -8.0850   21.3260 C   0  0  0  0  0  0  0  0  0  0  0  0
  -22.1370   -9.0380   20.3890 C   0  0  0  0  0  3  0  0  0  0  0  0
  -22.8540  -10.2310   20.1960 C   0  0  0  0  0  3  0  0  0  0  0  0
  -21.8260   -6.9360   21.4280 O   0  0  0  0  0  0  0  0  0  0  0  0
  -21.7690   -6.2160   22.5950 C   0  0  0  0  0  0  0  0  0  0  0  0
  -21.3280   -6.7930   23.8070 C   0  0  0  0  0  3  0  0  0  0  0  0
  -21.2180   -5.9990   24.9650 C   0  0  0  0  0  3  0  0  0  0  0  0
  -21.5380   -4.6290   24.9140 C   0  0  0  0  0  0  0  0  0  0  0  0
  -21.9720   -4.0520   23.7090 C   0  0  0  0  0  3  0  0  0  0  0  0
  -22.0840   -4.8430   22.5520 C   0  0  0  0  0  0  0  0  0  0  0  0
  -22.4820   -4.2760   21.3870 F   0  0  0  0  0  0  0  0  0  0  0  0
  -21.4250   -3.8640   26.0260 F   0  0  0  0  0  0  0  0  0  0  0  0
  -22.8870  -13.5840   21.1430 C   0  0  0  0  0  0  0  0  0  0  0  0
  -22.1990  -12.8810   22.0370 N   0  0  0  0  0  0  0  0  0  0  0  0
  -22.4250  -14.6120   20.6510 O   0  0  0  0  0  0  0  0  0  0  0  0
  -22.5840  -12.0500   22.4620 H   0  0  0  0  0  0  0  0  0  0  0  0
  -21.2720  -13.1830   22.3060 H   0  0  0  0  0  0  0  0  0  0  0  0
  -25.4780  -15.2640   20.2330 N   0  0  0  0  0  0  0  0  0  0  0  0
  -24.7090  -15.9140   20.3610 H   0  0  0  0  0  0  0  0  0  0  0  0
  -26.3130  -15.7040   19.8650 H   0  0  0  0  0  0  0  0  0  0  0  0
  1  5  1  0
  1  2  1  0
  2  4  1  0
  3  1  2  0
  5  6  2  0
  8  7  1  0
  8  5  1  0
  9  8  1  0
  9 10  1  0
 11 22  2  0
 12 10  1  0
 12 17  1  0
 13 21  1  0
 13 23  1  0
 14 20  1  0
 14 16  1  0
 15 21  1  0
 16 17  2  0
 16 15  1  0
 18 19  1  0
 18 12  2  0
 19 14  2  0
 20 13  1  0
 21 11  1  0
 23 25  2  0
 24 23  1  0
 26 24  1  0
 27 36  2  0
 27 32  1  0
 28 24  1  0
 28 32  1  0
 29 28  1  0
 30 31  1  0
 30 29  1  0
 31 27  1  0
 32 33  2  0
 33 34  1  0
 35 34  2  0
 36 35  1  0
 37 11  1  0
 37 38  1  0
 37 47  1  0
 38 41  1  0
 39 43  1  0
 39 38  1  0
 40 39  2  0
 43 42  1  0
 45 43  1  0
 45 46  1  0
 45 44  1  0
 47 50  1  1
 47 48  1  0
 49 47  1  0
 52 55  1  0
 52  2  1  0
 52 51  1  0
 54 53  2  0
 55 56  2  0
 56 53  1  0
 57 55  1  0
 57 54  1  0
 58 66  1  0
 59 64  1  0
 60 61  1  0
 60 59  1  0
 62 61  1  0
 62 71  1  0
 62 63  1  0
 64 58  1  0
 64 63  1  0
 65 58  2  0
 66 54  1  0
 66 67  1  0
 68 69  2  0
 69 88  1  0
 70 69  1  0
 70 73  1  0
 71 72  1  0
 71 68  1  0
 72 70  2  0
 73 74  1  0
 74 75  2  0
 76 79  1  0
 76 75  1  0
 77 76  2  0
 78 77  1  0
 78 73  2  0
 79 80  1  0
 80 81  1  0
 81 82  2  0
 83 82  1  0
 83 87  1  0
 84 83  2  0
 85 80  2  0
 85 84  1  0
 86 85  1  0
 88 89  1  0
 89 92  1  0
 89 91  1  0
 90 88  2  0
 93 94  1  0
 93 68  1  0
 95 93  1  0
M  ISO  4   9 101  10 101  58 100  66 100
M  END
>  <TORSDO>  (78) 
F 21

>  <SCORE>  (78) 
-13.195

>  <name>  (78) 
77

>  <ligand_id>  (78) 
77

>  <original_smiles>  (78) 
[H]c1nc(C([H])(N([H])C(=O)C(=O)C([H])(C([H])([H])[H])C([H])([H])Oc2c([H])c([H])c3c(c2[H])C([H])([H])N(C(=O)C([H])(N([H])C(=O)C([H])(N([H])C([H])([H])[H])C([H])([H])[H])C(C([H])([H])[H])(C([H])([H])[H])C([H])([H])[H])C([H])(C(=O)N([H])C2([H])c4c([H])c([H])c([H])c([H])c4C([H])([H])C([H])([H])C2([H])[H])C3([H])[H])C([H])([H])[H])sc1N([H])C(=O)N1C([H])([H])C([H])([H])C([H])([H])C([H])(n2nc(-c3c([H])c([H])c(Oc4c([H])c([H])c(F)c([H])c4F)c([H])c3[H])c(C(=O)N([H])[H])c2N([H])[H])C1([H])[H]

>  <smiles>  (78) 
[H]c1nc(C([H])(N([H])C(=O)C(=O)C([H])(C([H])([H])[H])C([H])([H])Oc2c([H])c([H])c3c(c2[H])C([H])([H])N(C(=O)C([H])(N([H])C(=O)C([H])(N([H])C([H])([H])[H])C([H])([H])[H])C(C([H])([H])[H])(C([H])([H])[H])C([H])([H])[H])C([H])(C(=O)N([H])C2([H])c4c([H])c([H])c([H])c([H])c4C([H])([H])C([H])([H])C2([H])[H])C3([H])[H])C([H])([H])[H])sc1N([H])C(=O)N1C([H])([H])C([H])([H])C([H])([H])C([H])(n2nc(-c3c([H])c([H])c(Oc4c([H])c([H])c(F)c([H])c4F)c([H])c3[H])c(C(=O)N([H])[H])c2N([H])[H])C1([H])[H]

$$$$
78:0:0
     RDKit          3D

 95103  0  0  1  0  0  0  0  0999 V2000
  -30.4490  -22.3670   21.1980 C   0  0  0  0  0  0  0  0  0  0  0  0
  -30.6790  -21.6140   22.2790 N   0  0  0  0  0  0  0  0  0  0  0  0
  -31.1720  -22.3510   20.2010 O   0  0  0  0  0  0  0  0  0  0  0  0
  -30.0090  -21.6580   23.0340 H   0  0  0  0  0  0  0  0  0  0  0  0
  -32.2440  -20.7320   23.9340 C   0  0  0  0  0  1  0  0  0  0  0  0
  -31.7940  -20.6870   22.4670 C   0  0  0  0  0  3  0  0  0  0  0  0
  -30.9280  -14.5070   20.1800 C   0  0  0  0  0  0  0  0  0  0  0  0
  -30.5130  -12.4330   18.9120 C   0  0  0  0  0  2  0  0  0  0  0  0
  -29.5120  -12.6920   17.7690 C   0  0  0  0  0  2  0  0  0  0  0  0
  -28.0640  -12.5390   18.2690 C   0  0  0  0  0  2  0  0  0  0  0  0
  -27.7970  -13.3310   19.5770 C   0  0  0  0  0  3  0  0  0  0  0  0
  -28.9020  -13.0570   20.6220 C   0  0  0  0  0  2  0  0  0  0  0  0
  -30.2070  -13.3670   20.0070 N   0  0  0  0  0  0  0  0  0  0  0  0
  -31.9450  -14.7490   19.5220 O   0  0  0  0  0  0  0  0  0  0  0  0
  -32.3920  -18.4320   21.4290 C   0  0  0  0  0  3  0  0  0  0  0  0
  -29.9300  -17.5160   22.0390 C   0  0  0  0  0  3  0  0  0  0  0  0
  -31.4370  -19.2620   22.0580 C   0  0  0  0  0  0  0  0  0  0  0  0
  -30.8700  -16.6760   21.3900 C   0  0  0  0  0  0  0  0  0  0  0  0
  -30.2000  -18.8010   22.3740 N   0  0  0  0  0  0  0  0  0  0  0  0
  -32.1110  -17.1500   21.0990 N   0  0  0  0  0  0  0  0  0  0  0  0
  -30.4330  -15.3600   21.0900 N   0  0  0  0  0  0  0  0  0  0  0  0
  -29.5800  -15.0630   21.5350 H   0  0  0  0  0  0  0  0  0  0  0  0
  -25.4300  -13.9150   20.4090 C   0  0  0  0  0  0  0  0  0  0  0  0
  -24.3820  -13.1290   20.8090 C   0  0  0  0  0  0  0  0  0  0  0  0
  -24.8430  -11.7810   20.7210 C   0  0  0  0  0  0  0  0  0  0  0  0
  -26.4660  -13.0430   20.1080 N   0  0  0  0  0  0  0  0  0  0  0  0
  -26.1170  -11.7530   20.3510 N   0  0  0  0  0  0  0  0  0  0  0  0
  -24.1300  -10.5120   20.9140 C   0  0  0  0  0  0  0  0  0  0  0  0
  -24.5490   -9.5690   21.8780 C   0  0  0  0  0  3  0  0  0  0  0  0
  -23.8370   -8.3630   22.0580 C   0  0  0  0  0  3  0  0  0  0  0  0
  -22.6920   -8.0920   21.2730 C   0  0  0  0  0  0  0  0  0  0  0  0
  -22.2920   -9.0230   20.2990 C   0  0  0  0  0  3  0  0  0  0  0  0
  -23.0050  -10.2200   20.1180 C   0  0  0  0  0  3  0  0  0  0  0  0
  -21.9540   -6.9370   21.3600 O   0  0  0  0  0  0  0  0  0  0  0  0
  -21.7970   -6.2690   22.5490 C   0  0  0  0  0  0  0  0  0  0  0  0
  -21.2320   -6.8920   23.6830 C   0  0  0  0  0  3  0  0  0  0  0  0
  -21.0250   -6.1500   24.8640 C   0  0  0  0  0  3  0  0  0  0  0  0
  -21.3740   -4.7860   24.9090 C   0  0  0  0  0  0  0  0  0  0  0  0
  -21.9310   -4.1630   23.7790 C   0  0  0  0  0  3  0  0  0  0  0  0
  -22.1390   -4.9030   22.6000 C   0  0  0  0  0  0  0  0  0  0  0  0
  -22.6580   -4.2940   21.5070 F   0  0  0  0  0  0  0  0  0  0  0  0
  -21.1680   -4.0710   26.0390 F   0  0  0  0  0  0  0  0  0  0  0  0
  -22.9980  -13.5950   21.1630 C   0  0  0  0  0  0  0  0  0  0  0  0
  -22.3150  -12.8740   22.0450 N   0  0  0  0  0  0  0  0  0  0  0  0
  -22.5330  -14.6320   20.6910 O   0  0  0  0  0  0  0  0  0  0  0  0
  -22.7060  -12.0350   22.4470 H   0  0  0  0  0  0  0  0  0  0  0  0
  -21.3900  -13.1680   22.3240 H   0  0  0  0  0  0  0  0  0  0  0  0
  -25.5840  -15.2900   20.2590 N   0  0  0  0  0  0  0  0  0  0  0  0
  -24.8200  -15.9380   20.4170 H   0  0  0  0  0  0  0  0  0  0  0  0
  -26.4140  -15.7380   19.8930 H   0  0  0  0  0  0  0  0  0  0  0  0
  -29.2200  -23.2770   21.2540 C   0  0  0  0  0  2  0  0  0  0  0  0
  -29.4230  -24.6460   20.5630 C   0  0  0  0  0  2  0  0  0  0  0  0
  -28.5680  -26.1760   22.4180 C   0  0  0  0  0  1  0  0  0  0  0  0
  -28.3540  -25.6760   20.9740 C   0  0  0  0  0  3  0  0  0  0  0  0
  -28.3970  -26.7940   20.0810 O   0  0  0  0  0  0  0  0  0  0  0  0
  -24.5730  -31.8770   23.2170 C   0  0  0  0  0  0  0  0  0  0  0  0
  -27.2320  -27.5230   20.0680 C   0  0  0  0  0  0  0  0  0  0  0  0
  -23.3610  -30.4800   21.5720 C   0  0  0  0  0  3  0  0  0  0  0  0
  -24.8180  -28.9750   20.1150 C   0  0  0  0  0  0  0  0  0  0  0  0
  -25.8770  -30.8780   21.3470 C   0  0  0  0  0  2  0  0  0  0  0  0
  -25.9740  -29.5190   20.6900 C   0  0  0  0  0  0  0  0  0  0  0  0
  -27.1870  -28.8020   20.6600 C   0  0  0  0  0  3  0  0  0  0  0  0
  -26.0670  -26.9850   19.4840 C   0  0  0  0  0  3  0  0  0  0  0  0
  -24.8580  -27.7070   19.5080 C   0  0  0  0  0  3  0  0  0  0  0  0
  -23.5620  -29.8140   20.1840 C   0  0  0  0  0  2  0  0  0  0  0  0
  -24.6220  -31.0920   22.1040 N   0  0  0  0  0  0  0  0  0  0  0  0
  -23.4950  -32.1330   23.7730 O   0  0  0  0  0  0  0  0  0  0  0  0
  -22.7310  -29.4430   22.5290 C   0  0  0  0  0  0  0  0  0  0  0  0
  -21.4160  -29.2160   22.3800 N   0  0  0  0  0  0  0  0  0  0  0  0
  -23.4210  -28.8460   23.3590 O   0  0  0  0  0  0  0  0  0  0  0  0
  -20.9200  -29.7500   21.6800 H   0  0  0  0  0  0  0  0  0  0  0  0
  -18.0900  -27.8660   22.7760 C   0  0  0  0  0  0  0  0  0  0  0  0
  -20.6180  -28.2580   23.1430 C   0  0  0  0  0  3  0  0  0  0  0  0
  -20.8150  -26.8210   22.6070 C   0  0  0  0  0  2  0  0  0  0  0  0
  -19.7720  -26.4210   21.5580 C   0  0  0  0  0  2  0  0  0  0  0  0
  -18.3590  -26.5120   22.1430 C   0  0  0  0  0  2  0  0  0  0  0  0
  -19.1520  -28.6930   23.2310 C   0  0  0  0  0  0  0  0  0  0  0  0
  -18.8490  -29.9570   23.7790 C   0  0  0  0  0  3  0  0  0  0  0  0
  -17.5160  -30.3990   23.8790 C   0  0  0  0  0  3  0  0  0  0  0  0
  -16.4670  -29.5710   23.4420 C   0  0  0  0  0  3  0  0  0  0  0  0
  -16.7550  -28.3060   22.8970 C   0  0  0  0  0  3  0  0  0  0  0  0
  -25.8610  -32.5100   23.8310 C   0  0  0  0  0  3  0  0  0  0  0  0
  -26.3940  -31.7360   25.0990 C   0  0  1  0  0  0  0  0  0  0  0  0
  -25.3090  -31.4850   26.1720 C   0  0  0  0  0  1  0  0  0  0  0  0
  -26.9840  -30.3660   24.6910 C   0  0  0  0  0  1  0  0  0  0  0  0
  -27.5420  -32.5360   25.7580 C   0  0  0  0  0  1  0  0  0  0  0  0
  -25.5500  -33.9060   24.1660 N   0  0  0  0  0  0  0  0  0  0  0  0
  -25.8870  -34.9610   23.4110 C   0  0  0  0  0  0  0  0  0  0  0  0
  -26.5630  -34.8620   22.3840 O   0  0  0  0  0  0  0  0  0  0  0  0
  -24.9520  -34.0580   24.9650 H   0  0  0  0  0  0  0  0  0  0  0  0
  -24.1630  -36.7530   23.0440 C   0  0  0  0  0  1  0  0  0  0  0  0
  -25.3930  -36.3470   23.8700 C   0  0  0  0  0  3  0  0  0  0  0  0
  -27.5180  -37.2250   24.7330 C   0  0  0  0  0  1  0  0  0  0  0  0
  -26.4280  -37.4000   23.7780 N   0  0  0  0  0  0  0  0  0  0  0  0
  -26.0200  -38.3180   23.9290 H   0  0  0  0  0  0  0  0  0  0  0  0
  1 51  1  0
  1  2  1  0
  2  6  1  0
  2  4  1  0
  3  1  2  0
  6  5  1  0
  7 21  1  0
  8 13  1  0
  9 10  1  0
  9  8  1  0
 11 10  1  0
 11 26  1  0
 11 12  1  0
 13  7  1  0
 13 12  1  0
 14  7  2  0
 15 17  1  0
 16 19  1  0
 17 19  2  0
 17  6  1  0
 18 16  2  0
 20 18  1  0
 20 15  2  0
 21 18  1  0
 21 22  1  0
 23 24  2  0
 24 43  1  0
 25 24  1  0
 25 28  1  0
 26 27  1  0
 26 23  1  0
 27 25  2  0
 28 29  1  0
 29 30  2  0
 31 34  1  0
 31 30  1  0
 32 31  2  0
 33 32  1  0
 33 28  2  0
 34 35  1  0
 35 40  2  0
 35 36  1  0
 36 37  2  0
 37 38  1  0
 38 42  1  0
 39 38  2  0
 40 39  1  0
 41 40  1  0
 43 44  1  0
 44 47  1  0
 44 46  1  0
 45 43  2  0
 48 23  1  0
 48 49  1  0
 50 48  1  0
 52 54  1  0
 52 51  1  0
 54 53  1  0
 55 54  1  0
 56 67  2  0
 57 55  1  0
 57 62  1  0
 58 66  1  0
 58 68  1  0
 59 65  1  0
 59 61  1  0
 60 66  1  0
 61 60  1  0
 62 61  2  0
 63 64  1  0
 63 57  2  0
 64 59  2  0
 65 58  1  0
 66 56  1  0
 68 70  2  0
 69 68  1  0
 71 69  1  0
 72 81  2  0
 72 77  1  0
 73 69  1  0
 73 77  1  0
 74 73  1  0
 75 76  1  0
 75 74  1  0
 76 72  1  0
 77 78  2  0
 78 79  1  0
 80 79  2  0
 81 80  1  0
 82 56  1  0
 82 87  1  0
 82 83  1  0
 83 86  1  1
 83 84  1  0
 85 83  1  0
 87 90  1  0
 88 92  1  0
 88 87  1  0
 89 88  2  0
 92 91  1  0
 94 92  1  0
 94 95  1  0
 94 93  1  0
M  ISO  4   7 100  21 100  54 101  55 101
M  END
>  <TORSDO>  (79) 
F 20

>  <SCORE>  (79) 
-13.232

>  <name>  (79) 
78

>  <ligand_id>  (79) 
78

>  <original_smiles>  (79) 
[H]c1nc(C([H])(N([H])C(=O)C([H])([H])C([H])([H])C([H])(Oc2c([H])c([H])c3c(c2[H])C([H])([H])N(C(=O)C([H])(N([H])C(=O)C([H])(N([H])C([H])([H])[H])C([H])([H])[H])C(C([H])([H])[H])(C([H])([H])[H])C([H])([H])[H])C([H])(C(=O)N([H])C2([H])c4c([H])c([H])c([H])c([H])c4C([H])([H])C([H])([H])C2([H])[H])C3([H])[H])C([H])([H])[H])C([H])([H])[H])c([H])nc1N([H])C(=O)N1C([H])([H])C([H])([H])C([H])([H])C([H])(n2nc(-c3c([H])c([H])c(Oc4c([H])c([H])c(F)c([H])c4F)c([H])c3[H])c(C(=O)N([H])[H])c2N([H])[H])C1([H])[H]

>  <smiles>  (79) 
[H]c1nc(C([H])(N([H])C(=O)C([H])([H])C([H])([H])C([H])(Oc2c([H])c([H])c3c(c2[H])C([H])([H])N(C(=O)C([H])(N([H])C(=O)C([H])(N([H])C([H])([H])[H])C([H])([H])[H])C(C([H])([H])[H])(C([H])([H])[H])C([H])([H])[H])C([H])(C(=O)N([H])C2([H])c4c([H])c([H])c([H])c([H])c4C([H])([H])C([H])([H])C2([H])[H])C3([H])[H])C([H])([H])[H])C([H])([H])[H])c([H])nc1N([H])C(=O)N1C([H])([H])C([H])([H])C([H])([H])C([H])(n2nc(-c3c([H])c([H])c(Oc4c([H])c([H])c(F)c([H])c4F)c([H])c3[H])c(C(=O)N([H])[H])c2N([H])[H])C1([H])[H]

$$$$
79:0:0
     RDKit          3D

 94102  0  0  1  0  0  0  0  0999 V2000
  -30.0080  -18.1240   18.0570 C   0  0  0  0  0  3  0  0  0  0  0  0
  -29.8260  -19.3380   18.7270 C   0  0  0  0  0  3  0  0  0  0  0  0
  -30.0580  -16.9360   18.7980 C   0  0  0  0  0  0  0  0  0  0  0  0
  -29.7030  -19.3600   20.1310 C   0  0  0  0  0  0  0  0  0  0  0  0
  -29.9450  -16.9830   20.2120 C   0  0  0  0  0  0  0  0  0  0  0  0
  -29.8510  -21.8590   20.3830 C   0  0  0  0  0  0  0  0  0  0  0  0
  -29.7380  -18.1870   20.8390 N   0  0  0  0  0  0  0  0  0  0  0  0
  -29.4440  -20.6200   20.7600 N   0  0  0  0  0  0  0  0  0  0  0  0
  -30.7370  -22.0930   19.5510 O   0  0  0  0  0  0  0  0  0  0  0  0
  -30.1730  -15.7680   18.1260 F   0  0  0  0  0  0  0  0  0  0  0  0
  -28.8270  -20.6110   21.5610 H   0  0  0  0  0  0  0  0  0  0  0  0
  -30.7280  -14.6680   20.7020 C   0  0  0  0  0  0  0  0  0  0  0  0
  -30.5530  -12.4280   19.6910 C   0  0  0  0  0  2  0  0  0  0  0  0
  -29.6740  -12.5360   18.4260 C   0  0  0  0  0  2  0  0  0  0  0  0
  -28.1770  -12.4160   18.7790 C   0  0  0  0  0  2  0  0  0  0  0  0
  -27.7600  -13.2930   19.9910 C   0  0  0  0  0  3  0  0  0  0  0  0
  -28.7620  -13.1520   21.1590 C   0  0  0  0  0  2  0  0  0  0  0  0
  -30.1030  -13.4570   20.6420 N   0  0  0  0  0  0  0  0  0  0  0  0
  -31.9180  -14.8100   20.4020 O   0  0  0  0  0  0  0  0  0  0  0  0
  -29.9290  -15.7380   20.9350 N   0  0  0  0  0  0  0  0  0  0  0  0
  -29.0530  -15.5270   21.3840 H   0  0  0  0  0  0  0  0  0  0  0  0
  -25.3250  -13.8740   20.5910 C   0  0  0  0  0  0  0  0  0  0  0  0
  -24.2520  -13.0900   20.9210 C   0  0  0  0  0  0  0  0  0  0  0  0
  -24.7320  -11.7440   20.9220 C   0  0  0  0  0  0  0  0  0  0  0  0
  -26.3910  -13.0040   20.4150 N   0  0  0  0  0  0  0  0  0  0  0  0
  -26.0360  -11.7200   20.6740 N   0  0  0  0  0  0  0  0  0  0  0  0
  -24.0160  -10.4720   21.0880 C   0  0  0  0  0  0  0  0  0  0  0  0
  -24.4090   -9.5250   22.0590 C   0  0  0  0  0  3  0  0  0  0  0  0
  -23.6940   -8.3180   22.2120 C   0  0  0  0  0  3  0  0  0  0  0  0
  -22.5710   -8.0500   21.3930 C   0  0  0  0  0  0  0  0  0  0  0  0
  -22.1980   -8.9860   20.4130 C   0  0  0  0  0  3  0  0  0  0  0  0
  -22.9150  -10.1850   20.2580 C   0  0  0  0  0  3  0  0  0  0  0  0
  -21.8310   -6.8940   21.4540 O   0  0  0  0  0  0  0  0  0  0  0  0
  -21.7080   -6.1780   22.6180 C   0  0  0  0  0  0  0  0  0  0  0  0
  -21.1420   -6.7390   23.7830 C   0  0  0  0  0  3  0  0  0  0  0  0
  -20.9720   -5.9470   24.9350 C   0  0  0  0  0  3  0  0  0  0  0  0
  -21.3580   -4.5930   24.9230 C   0  0  0  0  0  0  0  0  0  0  0  0
  -21.9170   -4.0300   23.7620 C   0  0  0  0  0  3  0  0  0  0  0  0
  -22.0890   -4.8210   22.6120 C   0  0  0  0  0  0  0  0  0  0  0  0
  -22.6090   -4.2680   21.4890 F   0  0  0  0  0  0  0  0  0  0  0  0
  -21.1880   -3.8280   26.0280 F   0  0  0  0  0  0  0  0  0  0  0  0
  -22.8370  -13.5480   21.1230 C   0  0  0  0  0  0  0  0  0  0  0  0
  -22.0780  -12.8460   21.9580 N   0  0  0  0  0  0  0  0  0  0  0  0
  -22.4100  -14.5640   20.5760 O   0  0  0  0  0  0  0  0  0  0  0  0
  -22.4340  -12.0230   22.4200 H   0  0  0  0  0  0  0  0  0  0  0  0
  -21.1260  -13.1350   22.1360 H   0  0  0  0  0  0  0  0  0  0  0  0
  -25.4780  -15.2450   20.4070 N   0  0  0  0  0  0  0  0  0  0  0  0
  -24.6940  -15.8850   20.4760 H   0  0  0  0  0  0  0  0  0  0  0  0
  -26.3210  -15.6940   20.0750 H   0  0  0  0  0  0  0  0  0  0  0  0
  -29.1100  -23.0120   21.1360 C   0  0  0  0  0  0  0  0  0  0  0  0
  -28.2770  -22.7680   22.0180 O   0  0  0  0  0  0  0  0  0  0  0  0
  -29.4450  -24.4810   20.7610 C   0  0  0  0  0  2  0  0  0  0  0  0
  -28.2140  -25.3000   20.2890 C   0  0  0  0  0  2  0  0  0  0  0  0
  -28.4020  -26.7380   20.2740 O   0  0  0  0  0  0  0  0  0  0  0  0
  -24.5500  -31.9360   23.2850 C   0  0  0  0  0  0  0  0  0  0  0  0
  -27.2420  -27.4990   20.2180 C   0  0  0  0  0  0  0  0  0  0  0  0
  -23.3660  -30.5330   21.6300 C   0  0  0  0  0  3  0  0  0  0  0  0
  -24.8410  -29.0150   20.2070 C   0  0  0  0  0  0  0  0  0  0  0  0
  -25.8940  -30.9050   21.4540 C   0  0  0  0  0  2  0  0  0  0  0  0
  -25.9940  -29.5370   20.8050 C   0  0  0  0  0  0  0  0  0  0  0  0
  -27.1990  -28.7900   20.8030 C   0  0  0  0  0  3  0  0  0  0  0  0
  -26.0670  -27.0070   19.6020 C   0  0  0  0  0  3  0  0  0  0  0  0
  -24.8740  -27.7500   19.6000 C   0  0  0  0  0  3  0  0  0  0  0  0
  -23.5900  -29.8630   20.2480 C   0  0  0  0  0  2  0  0  0  0  0  0
  -24.6220  -31.1390   22.1800 N   0  0  0  0  0  0  0  0  0  0  0  0
  -23.4620  -32.1970   23.8180 O   0  0  0  0  0  0  0  0  0  0  0  0
  -22.7160  -29.5020   22.5810 C   0  0  0  0  0  0  0  0  0  0  0  0
  -21.3950  -29.3040   22.4360 N   0  0  0  0  0  0  0  0  0  0  0  0
  -23.3950  -28.8840   23.4050 O   0  0  0  0  0  0  0  0  0  0  0  0
  -20.9060  -29.8550   21.7440 H   0  0  0  0  0  0  0  0  0  0  0  0
  -18.0280  -28.0730   22.8980 C   0  0  0  0  0  0  0  0  0  0  0  0
  -20.5810  -28.3540   23.1940 C   0  0  0  0  0  3  0  0  0  0  0  0
  -20.7020  -26.9270   22.6130 C   0  0  0  0  0  2  0  0  0  0  0  0
  -19.6130  -26.5970   21.5880 C   0  0  0  0  0  2  0  0  0  0  0  0
  -18.2230  -26.7280   22.2190 C   0  0  0  0  0  2  0  0  0  0  0  0
  -19.1350  -28.8440   23.3410 C   0  0  0  0  0  0  0  0  0  0  0  0
  -18.9000  -30.1040   23.9340 C   0  0  0  0  0  3  0  0  0  0  0  0
  -17.5900  -30.5930   24.0890 C   0  0  0  0  0  3  0  0  0  0  0  0
  -16.4970  -29.8200   23.6630 C   0  0  0  0  0  3  0  0  0  0  0  0
  -16.7160  -28.5620   23.0730 C   0  0  0  0  0  3  0  0  0  0  0  0
  -25.8250  -32.5730   23.9170 C   0  0  0  0  0  3  0  0  0  0  0  0
  -26.3190  -31.8240   25.2160 C   0  0  1  0  0  0  0  0  0  0  0  0
  -25.2050  -31.6040   26.2670 C   0  0  0  0  0  1  0  0  0  0  0  0
  -26.9080  -30.4400   24.8580 C   0  0  0  0  0  1  0  0  0  0  0  0
  -27.4570  -32.6290   25.8860 C   0  0  0  0  0  1  0  0  0  0  0  0
  -25.5170  -33.9780   24.2150 N   0  0  0  0  0  0  0  0  0  0  0  0
  -25.8690  -35.0150   23.4420 C   0  0  0  0  0  0  0  0  0  0  0  0
  -26.5590  -34.8890   22.4270 O   0  0  0  0  0  0  0  0  0  0  0  0
  -24.9060  -34.1510   25.0000 H   0  0  0  0  0  0  0  0  0  0  0  0
  -24.1670  -36.8140   23.0040 C   0  0  0  0  0  1  0  0  0  0  0  0
  -25.3770  -36.4130   23.8640 C   0  0  0  0  0  3  0  0  0  0  0  0
  -27.4830  -37.2990   24.7610 C   0  0  0  0  0  1  0  0  0  0  0  0
  -26.4200  -37.4560   23.7710 N   0  0  0  0  0  0  0  0  0  0  0  0
  -26.0160  -38.3820   23.8840 H   0  0  0  0  0  0  0  0  0  0  0  0
  1  2  2  0
  1  3  1  0
  2  4  1  0
  3  5  2  0
  4  8  1  0
  4  7  2  0
  5  7  1  0
  5 20  1  0
  6  8  1  0
  6 50  1  0
  8 11  1  0
  9  6  2  0
 10  3  1  0
 12 20  1  0
 13 18  1  0
 14 15  1  0
 14 13  1  0
 16 15  1  0
 16 25  1  0
 16 17  1  0
 18 12  1  0
 18 17  1  0
 19 12  2  0
 20 21  1  0
 22 23  2  0
 23 24  1  0
 23 42  1  0
 24 27  1  0
 25 22  1  0
 25 26  1  0
 26 24  2  0
 27 28  1  0
 28 29  2  0
 30 33  1  0
 30 29  1  0
 31 30  2  0
 32 31  1  0
 32 27  2  0
 33 34  1  0
 34 35  1  0
 35 36  2  0
 37 36  1  0
 37 41  1  0
 38 37  2  0
 39 34  2  0
 39 38  1  0
 40 39  1  0
 42 43  1  0
 43 46  1  0
 43 45  1  0
 44 42  2  0
 47 48  1  0
 47 22  1  0
 49 47  1  0
 50 51  2  0
 52 50  1  0
 53 52  1  0
 54 53  1  0
 55 66  2  0
 56 54  1  0
 56 61  1  0
 57 65  1  0
 57 67  1  0
 58 64  1  0
 58 60  1  0
 59 65  1  0
 60 59  1  0
 61 60  2  0
 62 56  2  0
 63 62  1  0
 63 58  2  0
 64 57  1  0
 65 55  1  0
 67 69  2  0
 68 67  1  0
 70 68  1  0
 71 80  2  0
 71 76  1  0
 72 68  1  0
 72 76  1  0
 73 72  1  0
 74 75  1  0
 74 73  1  0
 75 71  1  0
 76 77  2  0
 77 78  1  0
 79 78  2  0
 80 79  1  0
 81 55  1  0
 81 86  1  0
 81 82  1  0
 82 85  1  1
 82 83  1  0
 84 82  1  0
 86 89  1  0
 87 91  1  0
 87 86  1  0
 88 87  2  0
 91 90  1  0
 93 91  1  0
 93 94  1  0
 93 92  1  0
M  ISO  4  12 100  20 100  53 101  54 101
M  END
>  <TORSDO>  (80) 
F 19

>  <SCORE>  (80) 
-13.996

>  <name>  (80) 
79

>  <ligand_id>  (80) 
79

>  <original_smiles>  (80) 
[H]c1c(N([H])C(=O)C(=O)C([H])([H])C([H])([H])Oc2c([H])c([H])c3c(c2[H])C([H])([H])N(C(=O)C([H])(N([H])C(=O)C([H])(N([H])C([H])([H])[H])C([H])([H])[H])C(C([H])([H])[H])(C([H])([H])[H])C([H])([H])[H])C([H])(C(=O)N([H])C2([H])c4c([H])c([H])c([H])c([H])c4C([H])([H])C([H])([H])C2([H])[H])C3([H])[H])nc(N([H])C(=O)N2C([H])([H])C([H])([H])C([H])([H])C([H])(n3nc(-c4c([H])c([H])c(Oc5c([H])c([H])c(F)c([H])c5F)c([H])c4[H])c(C(=O)N([H])[H])c3N([H])[H])C2([H])[H])c(F)c1[H]

>  <smiles>  (80) 
[H]c1c(N([H])C(=O)C(=O)C([H])([H])C([H])([H])Oc2c([H])c([H])c3c(c2[H])C([H])([H])N(C(=O)C([H])(N([H])C(=O)C([H])(N([H])C([H])([H])[H])C([H])([H])[H])C(C([H])([H])[H])(C([H])([H])[H])C([H])([H])[H])C([H])(C(=O)N([H])C2([H])c4c([H])c([H])c([H])c([H])c4C([H])([H])C([H])([H])C2([H])[H])C3([H])[H])nc(N([H])C(=O)N2C([H])([H])C([H])([H])C([H])([H])C([H])(n3nc(-c4c([H])c([H])c(Oc5c([H])c([H])c(F)c([H])c5F)c([H])c4[H])c(C(=O)N([H])[H])c3N([H])[H])C2([H])[H])c(F)c1[H]

$$$$
80:0:0
     RDKit          3D

 93101  0  0  1  0  0  0  0  0999 V2000
  -30.4860  -21.5890   19.6720 C   0  0  0  0  0  1  0  0  0  0  0  0
  -29.1520  -21.3480   20.3910 C   0  0  0  0  0  3  0  0  0  0  0  0
  -28.4670  -22.6950   20.8520 C   0  0  0  0  0  0  0  0  0  0  0  0
  -27.4260  -22.6400   21.5120 O   0  0  0  0  0  0  0  0  0  0  0  0
  -29.0730  -24.1100   20.5570 C   0  0  0  0  0  2  0  0  0  0  0  0
  -28.0270  -25.1640   20.0630 C   0  0  0  0  0  2  0  0  0  0  0  0
  -28.3290  -26.5980   20.1310 O   0  0  0  0  0  0  0  0  0  0  0  0
  -24.5510  -31.8840   23.1550 C   0  0  0  0  0  0  0  0  0  0  0  0
  -27.2160  -27.4380   20.0460 C   0  0  0  0  0  0  0  0  0  0  0  0
  -23.3670  -30.5090   21.4780 C   0  0  0  0  0  3  0  0  0  0  0  0
  -24.8420  -29.0080   20.0340 C   0  0  0  0  0  0  0  0  0  0  0  0
  -25.9050  -30.8590   21.3220 C   0  0  0  0  0  2  0  0  0  0  0  0
  -26.0010  -29.5010   20.6490 C   0  0  0  0  0  0  0  0  0  0  0  0
  -27.1950  -28.7270   20.6460 C   0  0  0  0  0  3  0  0  0  0  0  0
  -26.0380  -26.9970   19.3950 C   0  0  0  0  0  3  0  0  0  0  0  0
  -24.8620  -27.7610   19.3980 C   0  0  0  0  0  3  0  0  0  0  0  0
  -23.5980  -29.8650   20.0880 C   0  0  0  0  0  2  0  0  0  0  0  0
  -24.6260  -31.0970   22.0430 N   0  0  0  0  0  0  0  0  0  0  0  0
  -23.4610  -32.1420   23.6850 O   0  0  0  0  0  0  0  0  0  0  0  0
  -22.7080  -29.4640   22.4090 C   0  0  0  0  0  0  0  0  0  0  0  0
  -21.3840  -29.2830   22.2680 N   0  0  0  0  0  0  0  0  0  0  0  0
  -23.3830  -28.8240   23.2180 O   0  0  0  0  0  0  0  0  0  0  0  0
  -20.8980  -29.8520   21.5880 H   0  0  0  0  0  0  0  0  0  0  0  0
  -18.0000  -28.0980   22.7450 C   0  0  0  0  0  0  0  0  0  0  0  0
  -20.5600  -28.3300   23.0130 C   0  0  0  0  0  3  0  0  0  0  0  0
  -20.6520  -26.9140   22.4000 C   0  0  0  0  0  2  0  0  0  0  0  0
  -19.5450  -26.6260   21.3820 C   0  0  0  0  0  2  0  0  0  0  0  0
  -18.1650  -26.7670   22.0330 C   0  0  0  0  0  2  0  0  0  0  0  0
  -19.1260  -28.8400   23.1920 C   0  0  0  0  0  0  0  0  0  0  0  0
  -18.9180  -30.0890   23.8170 C   0  0  0  0  0  3  0  0  0  0  0  0
  -17.6180  -30.5960   23.9990 C   0  0  0  0  0  3  0  0  0  0  0  0
  -16.5060  -29.8510   23.5680 C   0  0  0  0  0  3  0  0  0  0  0  0
  -16.6990  -28.6040   22.9470 C   0  0  0  0  0  3  0  0  0  0  0  0
  -25.8250  -32.5110   23.7990 C   0  0  0  0  0  3  0  0  0  0  0  0
  -26.3360  -31.7200   25.0630 C   0  0  1  0  0  0  0  0  0  0  0  0
  -25.2360  -31.4500   26.1150 C   0  0  0  0  0  1  0  0  0  0  0  0
  -26.9360  -30.3550   24.6490 C   0  0  0  0  0  1  0  0  0  0  0  0
  -27.4690  -32.5120   25.7550 C   0  0  0  0  0  1  0  0  0  0  0  0
  -25.5060  -33.9010   24.1520 N   0  0  0  0  0  0  0  0  0  0  0  0
  -25.8250  -34.9670   23.4070 C   0  0  0  0  0  0  0  0  0  0  0  0
  -26.4890  -34.8850   22.3700 O   0  0  0  0  0  0  0  0  0  0  0  0
  -24.9270  -34.0430   24.9660 H   0  0  0  0  0  0  0  0  0  0  0  0
  -24.0840  -36.7530   23.0690 C   0  0  0  0  0  1  0  0  0  0  0  0
  -25.3230  -36.3440   23.8810 C   0  0  0  0  0  3  0  0  0  0  0  0
  -27.4440  -37.2340   24.7420 C   0  0  0  0  0  1  0  0  0  0  0  0
  -26.3500  -37.4060   23.7920 N   0  0  0  0  0  0  0  0  0  0  0  0
  -25.9350  -38.3200   23.9520 H   0  0  0  0  0  0  0  0  0  0  0  0
  -29.3210  -20.4130   21.5190 N   0  0  0  0  0  0  0  0  0  0  0  0
  -29.3770  -20.8840   22.4150 H   0  0  0  0  0  0  0  0  0  0  0  0
  -30.6180  -14.6040   19.9950 C   0  0  0  0  0  0  0  0  0  0  0  0
  -30.3150  -12.4190   18.8830 C   0  0  0  0  0  2  0  0  0  0  0  0
  -29.2950  -12.5840   17.7390 C   0  0  0  0  0  2  0  0  0  0  0  0
  -27.8500  -12.4190   18.2620 C   0  0  0  0  0  2  0  0  0  0  0  0
  -27.5700  -13.2650   19.5320 C   0  0  0  0  0  3  0  0  0  0  0  0
  -28.6980  -13.0940   20.5770 C   0  0  0  0  0  2  0  0  0  0  0  0
  -29.9670  -13.4160   19.9050 N   0  0  0  0  0  0  0  0  0  0  0  0
  -31.7810  -14.7540   19.6070 O   0  0  0  0  0  0  0  0  0  0  0  0
  -30.7720  -18.6670   22.4590 C   0  0  0  0  0  0  0  0  0  0  0  0
  -29.8630  -19.0950   21.5160 C   0  0  0  0  0  0  0  0  0  0  0  0
  -30.1570  -16.9050   20.8550 C   0  0  0  0  0  0  0  0  0  0  0  0
  -31.3360  -19.4510   23.6040 C   0  0  0  0  0  1  0  0  0  0  0  0
  -29.5110  -18.0700   20.6080 N   0  0  0  0  0  0  0  0  0  0  0  0
  -29.8160  -15.6740   20.2160 N   0  0  0  0  0  0  0  0  0  0  0  0
  -31.2890  -17.0160   22.1910 S   0  0  0  0  0  0  0  0  0  0  0  0
  -28.8290  -15.5030   20.1120 H   0  0  0  0  0  0  0  0  0  0  0  0
  -25.2240  -13.8560   20.4100 C   0  0  0  0  0  0  0  0  0  0  0  0
  -24.1820  -13.0760   20.8330 C   0  0  0  0  0  0  0  0  0  0  0  0
  -24.6430  -11.7270   20.7560 C   0  0  0  0  0  0  0  0  0  0  0  0
  -26.2520  -12.9820   20.0960 N   0  0  0  0  0  0  0  0  0  0  0  0
  -25.9110  -11.6960   20.3640 N   0  0  0  0  0  0  0  0  0  0  0  0
  -23.9340  -10.4600   20.9670 C   0  0  0  0  0  0  0  0  0  0  0  0
  -24.3760   -9.5110   21.9160 C   0  0  0  0  0  3  0  0  0  0  0  0
  -23.6610   -8.3110   22.1130 C   0  0  0  0  0  3  0  0  0  0  0  0
  -22.4910   -8.0490   21.3620 C   0  0  0  0  0  0  0  0  0  0  0  0
  -22.0710   -8.9860   20.4030 C   0  0  0  0  0  3  0  0  0  0  0  0
  -22.7870  -10.1770   20.2030 C   0  0  0  0  0  3  0  0  0  0  0  0
  -21.7470   -6.8970   21.4690 O   0  0  0  0  0  0  0  0  0  0  0  0
  -21.6610   -6.2060   22.6510 C   0  0  0  0  0  0  0  0  0  0  0  0
  -21.1440   -6.7960   23.8250 C   0  0  0  0  0  3  0  0  0  0  0  0
  -21.0060   -6.0270   24.9970 C   0  0  0  0  0  3  0  0  0  0  0  0
  -21.3770   -4.6690   25.0000 C   0  0  0  0  0  0  0  0  0  0  0  0
  -21.8900   -4.0810   23.8320 C   0  0  0  0  0  3  0  0  0  0  0  0
  -22.0290   -4.8450   22.6600 C   0  0  0  0  0  0  0  0  0  0  0  0
  -22.5030   -4.2650   21.5310 F   0  0  0  0  0  0  0  0  0  0  0  0
  -21.2400   -3.9300   26.1260 F   0  0  0  0  0  0  0  0  0  0  0  0
  -22.8050  -13.5490   21.1990 C   0  0  0  0  0  0  0  0  0  0  0  0
  -22.1210  -12.8390   22.0880 N   0  0  0  0  0  0  0  0  0  0  0  0
  -22.3450  -14.5870   20.7280 O   0  0  0  0  0  0  0  0  0  0  0  0
  -22.5020  -11.9970   22.4960 H   0  0  0  0  0  0  0  0  0  0  0  0
  -21.2020  -13.1510   22.3690 H   0  0  0  0  0  0  0  0  0  0  0  0
  -25.3710  -15.2320   20.2470 N   0  0  0  0  0  0  0  0  0  0  0  0
  -24.6050  -15.8730   20.4170 H   0  0  0  0  0  0  0  0  0  0  0  0
  -26.1710  -15.6880   19.8310 H   0  0  0  0  0  0  0  0  0  0  0  0
  2  1  1  0
  2  3  1  0
  2 48  1  0
  3  4  2  0
  5  3  1  0
  6  7  1  0
  6  5  1  0
  8 19  2  0
  9  7  1  0
  9 14  1  0
 10 18  1  0
 10 20  1  0
 11 17  1  0
 11 13  1  0
 12 18  1  0
 13 12  1  0
 14 13  2  0
 15 16  1  0
 15  9  2  0
 16 11  2  0
 17 10  1  0
 18  8  1  0
 20 22  2  0
 21 20  1  0
 23 21  1  0
 24 33  2  0
 24 29  1  0
 25 21  1  0
 25 29  1  0
 26 25  1  0
 27 28  1  0
 27 26  1  0
 28 24  1  0
 29 30  2  0
 30 31  1  0
 32 31  2  0
 33 32  1  0
 34  8  1  0
 34 39  1  0
 34 35  1  0
 35 38  1  1
 35 36  1  0
 37 35  1  0
 39 42  1  0
 40 44  1  0
 40 39  1  0
 41 40  2  0
 44 43  1  0
 46 44  1  0
 46 47  1  0
 46 45  1  0
 48 49  1  0
 50 63  1  0
 51 56  1  0
 52 53  1  0
 52 51  1  0
 54 53  1  0
 54 69  1  0
 54 55  1  0
 56 50  1  0
 56 55  1  0
 57 50  2  0
 58 61  1  0
 59 48  1  0
 59 58  2  0
 60 64  1  0
 62 60  2  0
 62 59  1  0
 63 60  1  0
 64 58  1  0
 65 63  1  0
 66 67  2  0
 67 86  1  0
 68 67  1  0
 68 71  1  0
 69 70  1  0
 69 66  1  0
 70 68  2  0
 71 72  1  0
 72 73  2  0
 74 77  1  0
 74 73  1  0
 75 74  2  0
 76 75  1  0
 76 71  2  0
 77 78  1  0
 78 83  2  0
 78 79  1  0
 79 80  2  0
 80 81  1  0
 81 85  1  0
 82 81  2  0
 83 82  1  0
 84 83  1  0
 86 87  1  0
 87 90  1  0
 87 89  1  0
 88 86  2  0
 91 66  1  0
 91 92  1  0
 93 91  1  0
M  ISO  4   6 101   7 101  50 100  63 100
M  END
>  <TORSDO>  (81) 
F 20

>  <SCORE>  (81) 
-13.136

>  <name>  (81) 
80

>  <ligand_id>  (81) 
80

>  <original_smiles>  (81) 
[H]c1c([H])c([H])c2c(c1[H])C([H])([H])C([H])([H])C([H])([H])C2([H])N([H])C(=O)C1([H])N(C(=O)C([H])(N([H])C(=O)C([H])(N([H])C([H])([H])[H])C([H])([H])[H])C(C([H])([H])[H])(C([H])([H])[H])C([H])([H])[H])C([H])([H])c2c([H])c(OC([H])([H])C([H])([H])C(=O)C([H])(N([H])c3nc(N([H])C(=O)N4C([H])([H])C([H])([H])C([H])([H])C([H])(n5nc(-c6c([H])c([H])c(Oc7c([H])c([H])c(F)c([H])c7F)c([H])c6[H])c(C(=O)N([H])[H])c5N([H])[H])C4([H])[H])sc3C([H])([H])[H])C([H])([H])[H])c([H])c([H])c2C1([H])[H]

>  <smiles>  (81) 
[H]c1c([H])c([H])c2c(c1[H])C([H])([H])C([H])([H])C([H])([H])C2([H])N([H])C(=O)C1([H])N(C(=O)C([H])(N([H])C(=O)C([H])(N([H])C([H])([H])[H])C([H])([H])[H])C(C([H])([H])[H])(C([H])([H])[H])C([H])([H])[H])C([H])([H])c2c([H])c(OC([H])([H])C([H])([H])C(=O)C([H])(N([H])c3nc(N([H])C(=O)N4C([H])([H])C([H])([H])C([H])([H])C([H])(n5nc(-c6c([H])c([H])c(Oc7c([H])c([H])c(F)c([H])c7F)c([H])c6[H])c(C(=O)N([H])[H])c5N([H])[H])C4([H])[H])sc3C([H])([H])[H])C([H])([H])[H])c([H])c([H])c2C1([H])[H]

$$$$
81:0:0
     RDKit          3D

 95103  0  0  1  0  0  0  0  0999 V2000
  -29.7360  -16.3350   20.9430 C   0  0  0  0  0  3  0  0  0  0  0  0
  -30.4280  -16.0980   19.7750 C   0  0  0  0  0  0  0  0  0  0  0  0
  -29.2140  -17.9600   19.1840 C   0  0  0  0  0  0  0  0  0  0  0  0
  -29.2810  -20.3300   18.5830 C   0  0  0  0  0  0  0  0  0  0  0  0
  -30.0450  -17.0090   18.7710 N   0  0  0  0  0  0  0  0  0  0  0  0
  -28.9270  -19.0550   18.3390 N   0  0  0  0  0  0  0  0  0  0  0  0
  -29.7030  -20.7570   19.6650 O   0  0  0  0  0  0  0  0  0  0  0  0
  -28.6610  -17.7160   20.8340 S   0  0  0  0  0  0  0  0  0  0  0  0
  -28.6320  -18.8450   17.3960 H   0  0  0  0  0  0  0  0  0  0  0  0
  -29.0950  -21.2570   17.3490 C   0  0  0  0  0  0  0  0  0  0  0  0
  -28.2680  -21.0090   16.4630 O   0  0  0  0  0  0  0  0  0  0  0  0
  -30.0310  -22.4760   17.2410 C   0  0  0  0  0  2  0  0  0  0  0  0
  -29.4030  -23.8600   17.5750 C   0  0  0  0  0  2  0  0  0  0  0  0
  -30.0120  -25.0130   16.7370 C   0  0  0  0  0  2  0  0  0  0  0  0
  -29.8530  -26.3270   17.2950 O   0  0  0  0  0  0  0  0  0  0  0  0
  -25.9410  -28.2870   22.8710 C   0  0  0  0  0  0  0  0  0  0  0  0
  -28.6120  -26.7770   17.6980 C   0  0  0  0  0  0  0  0  0  0  0  0
  -24.6950  -27.9380   20.7640 C   0  0  0  0  0  3  0  0  0  0  0  0
  -26.1160  -27.6980   18.6580 C   0  0  0  0  0  0  0  0  0  0  0  0
  -27.1450  -28.6680   20.7190 C   0  0  0  0  0  2  0  0  0  0  0  0
  -27.2770  -27.9340   19.4000 C   0  0  0  0  0  0  0  0  0  0  0  0
  -28.5270  -27.4890   18.9170 C   0  0  0  0  0  3  0  0  0  0  0  0
  -27.4320  -26.5630   16.9520 C   0  0  0  0  0  3  0  0  0  0  0  0
  -26.1880  -27.0200   17.4300 C   0  0  0  0  0  3  0  0  0  0  0  0
  -24.8140  -28.2030   19.2390 C   0  0  0  0  0  2  0  0  0  0  0  0
  -25.9500  -28.2790   21.5090 N   0  0  0  0  0  0  0  0  0  0  0  0
  -24.9020  -28.0580   23.5070 O   0  0  0  0  0  0  0  0  0  0  0  0
  -24.2360  -26.4780   20.9750 C   0  0  0  0  0  0  0  0  0  0  0  0
  -22.9670  -26.1990   20.6390 N   0  0  0  0  0  0  0  0  0  0  0  0
  -25.0170  -25.6230   21.4020 O   0  0  0  0  0  0  0  0  0  0  0  0
  -22.3900  -26.9580   20.3060 H   0  0  0  0  0  0  0  0  0  0  0  0
  -19.9260  -24.3950   19.8880 C   0  0  0  0  0  0  0  0  0  0  0  0
  -22.3270  -24.8850   20.7100 C   0  0  0  0  0  3  0  0  0  0  0  0
  -22.8000  -23.9690   19.5570 C   0  0  0  0  0  2  0  0  0  0  0  0
  -21.8860  -24.0260   18.3290 C   0  0  0  0  0  2  0  0  0  0  0  0
  -20.4600  -23.6100   18.7000 C   0  0  0  0  0  2  0  0  0  0  0  0
  -20.8040  -25.0080   20.8210 C   0  0  0  0  0  0  0  0  0  0  0  0
  -20.2570  -25.7570   21.8850 C   0  0  0  0  0  3  0  0  0  0  0  0
  -18.8640  -25.8950   22.0270 C   0  0  0  0  0  3  0  0  0  0  0  0
  -18.0000  -25.2730   21.1090 C   0  0  0  0  0  3  0  0  0  0  0  0
  -18.5300  -24.5220   20.0450 C   0  0  0  0  0  3  0  0  0  0  0  0
  -27.2270  -28.6060   23.6950 C   0  0  0  0  0  3  0  0  0  0  0  0
  -26.8970  -29.6910   24.6300 N   0  0  0  0  0  0  0  0  0  0  0  0
  -27.3440  -30.9490   24.5220 C   0  0  0  0  0  0  0  0  0  0  0  0
  -28.1450  -31.3020   23.6530 O   0  0  0  0  0  0  0  0  0  0  0  0
  -26.2050  -29.4870   25.3350 H   0  0  0  0  0  0  0  0  0  0  0  0
  -25.7770  -32.8850   24.8610 C   0  0  0  0  0  1  0  0  0  0  0  0
  -26.8170  -31.9800   25.5390 C   0  0  0  0  0  3  0  0  0  0  0  0
  -28.7620  -32.0560   27.0340 C   0  0  0  0  0  1  0  0  0  0  0  0
  -27.8820  -32.8090   26.1440 N   0  0  0  0  0  0  0  0  0  0  0  0
  -27.4840  -33.5810   26.6710 H   0  0  0  0  0  0  0  0  0  0  0  0
  -27.7970  -27.3540   24.4700 C   0  0  1  0  0  0  0  0  0  0  0  0
  -26.7480  -26.6360   25.3490 C   0  0  0  0  0  1  0  0  0  0  0  0
  -28.3700  -26.3160   23.4780 C   0  0  0  0  0  1  0  0  0  0  0  0
  -28.9670  -27.7910   25.3840 C   0  0  0  0  0  1  0  0  0  0  0  0
  -32.8040  -16.4710   19.9740 C   0  0  0  0  0  1  0  0  0  0  0  0
  -31.7630  -15.3810   19.5660 C   0  0  1  0  0  0  0  0  0  0  0  0
  -32.1200  -14.0780   20.3930 C   0  0  0  0  0  0  0  0  0  0  0  0
  -31.6580  -11.6740   20.5020 C   0  0  0  0  0  2  0  0  0  0  0  0
  -30.9240  -11.2370   19.2180 C   0  0  0  0  0  2  0  0  0  0  0  0
  -29.4020  -11.3630   19.4090 C   0  0  0  0  0  2  0  0  0  0  0  0
  -28.9810  -12.7340   20.0030 C   0  0  0  0  0  3  0  0  0  0  0  0
  -29.8690  -13.1360   21.1940 C   0  0  0  0  0  2  0  0  0  0  0  0
  -31.2710  -13.0750   20.7710 N   0  0  0  0  0  0  0  0  0  0  0  0
  -33.3310  -13.8490   20.3930 O   0  0  0  0  0  0  0  0  0  0  0  0
  -26.6960  -13.8280   20.4200 C   0  0  0  0  0  0  0  0  0  0  0  0
  -25.4660  -13.3000   20.7160 C   0  0  0  0  0  0  0  0  0  0  0  0
  -25.6580  -11.8890   20.8240 C   0  0  0  0  0  0  0  0  0  0  0  0
  -27.5640  -12.7510   20.3600 N   0  0  0  0  0  0  0  0  0  0  0  0
  -26.9390  -11.5840   20.6650 N   0  0  0  0  0  0  0  0  0  0  0  0
  -24.6840  -10.8040   21.0130 C   0  0  0  0  0  0  0  0  0  0  0  0
  -24.9290   -9.7400   21.9090 C   0  0  0  0  0  3  0  0  0  0  0  0
  -23.9680   -8.7200   22.0860 C   0  0  0  0  0  3  0  0  0  0  0  0
  -22.7510   -8.7590   21.3670 C   0  0  0  0  0  0  0  0  0  0  0  0
  -22.5240   -9.8080   20.4590 C   0  0  0  0  0  3  0  0  0  0  0  0
  -23.4830  -10.8200   20.2800 C   0  0  0  0  0  3  0  0  0  0  0  0
  -21.7710   -7.7980   21.4560 O   0  0  0  0  0  0  0  0  0  0  0  0
  -21.7010   -6.9350   22.5200 C   0  0  0  0  0  0  0  0  0  0  0  0
  -21.5700   -7.3980   23.8480 C   0  0  0  0  0  3  0  0  0  0  0  0
  -21.4320   -6.4770   24.9040 C   0  0  0  0  0  3  0  0  0  0  0  0
  -21.4170   -5.0950   24.6380 C   0  0  0  0  0  0  0  0  0  0  0  0
  -21.5410   -4.6310   23.3170 C   0  0  0  0  0  3  0  0  0  0  0  0
  -21.6810   -5.5500   22.2600 C   0  0  0  0  0  0  0  0  0  0  0  0
  -21.7780   -5.0990   20.9870 F   0  0  0  0  0  0  0  0  0  0  0  0
  -21.2780   -4.2090   25.6520 F   0  0  0  0  0  0  0  0  0  0  0  0
  -24.1700  -14.0520   20.7960 C   0  0  0  0  0  0  0  0  0  0  0  0
  -23.2630  -13.6150   21.6630 N   0  0  0  0  0  0  0  0  0  0  0  0
  -23.9740  -15.0640   20.1240 O   0  0  0  0  0  0  0  0  0  0  0  0
  -23.4340  -12.7980   22.2290 H   0  0  0  0  0  0  0  0  0  0  0  0
  -22.3820  -14.1020   21.7590 H   0  0  0  0  0  0  0  0  0  0  0  0
  -27.1430  -15.1210   20.1770 N   0  0  0  0  0  0  0  0  0  0  0  0
  -26.5180  -15.9200   20.1720 H   0  0  0  0  0  0  0  0  0  0  0  0
  -28.1060  -15.3690   19.9800 H   0  0  0  0  0  0  0  0  0  0  0  0
  -32.7010  -15.9800   17.1340 C   0  0  0  0  0  1  0  0  0  0  0  0
  -31.9730  -14.9720   18.0580 C   0  0  0  0  0  2  0  0  0  0  0  0
  2  1  2  0
  3  8  1  0
  4  7  2  0
  5  3  2  0
  5  2  1  0
  6  4  1  0
  6  3  1  0
  8  1  1  0
  9  6  1  0
 10  4  1  0
 11 10  2  0
 12 10  1  0
 12 13  1  0
 14 15  1  0
 14 13  1  0
 15 17  1  0
 16 27  2  0
 17 22  1  0
 18 28  1  0
 18 26  1  0
 19 25  1  0
 19 21  1  0
 20 26  1  0
 21 20  1  0
 22 21  2  0
 23 24  1  0
 23 17  2  0
 24 19  2  0
 25 18  1  0
 26 16  1  0
 28 30  2  0
 29 28  1  0
 31 29  1  0
 32 41  2  0
 32 37  1  0
 33 29  1  0
 33 37  1  0
 34 33  1  0
 35 36  1  0
 35 34  1  0
 36 32  1  0
 37 38  2  0
 38 39  1  0
 40 39  2  0
 41 40  1  0
 42 16  1  0
 42 52  1  0
 42 43  1  0
 43 46  1  0
 44 43  1  0
 44 48  1  0
 45 44  2  0
 48 47  1  0
 48 50  1  0
 50 51  1  0
 50 49  1  0
 52 53  1  1
 52 55  1  0
 54 52  1  0
 57  2  1  0
 57 56  1  1
 57 58  1  0
 58 65  2  0
 58 64  1  0
 59 64  1  0
 60 61  1  0
 60 59  1  0
 62 61  1  0
 62 69  1  0
 62 63  1  0
 64 63  1  0
 66 67  2  0
 67 86  1  0
 67 68  1  0
 68 71  1  0
 69 66  1  0
 69 70  1  0
 70 68  2  0
 71 72  1  0
 72 73  2  0
 74 77  1  0
 74 73  1  0
 75 74  2  0
 76 75  1  0
 76 71  2  0
 77 78  1  0
 78 79  1  0
 79 80  2  0
 81 80  1  0
 81 85  1  0
 82 81  2  0
 83 78  2  0
 83 82  1  0
 84 83  1  0
 86 87  1  0
 87 90  1  0
 87 89  1  0
 88 86  2  0
 91 66  1  0
 92 91  1  0
 93 91  1  0
 94 95  1  0
 95 57  1  0
M  ISO  4  14 101  15 101  57 100  58 100
M  END
>  <TORSDO>  (82) 
F 22

>  <SCORE>  (82) 
-9.313

>  <name>  (82) 
81

>  <ligand_id>  (82) 
81

>  <original_smiles>  (82) 
[H]c1sc(N([H])C(=O)C(=O)C([H])([H])C([H])([H])C([H])([H])Oc2c([H])c([H])c3c(c2[H])C([H])([H])N(C(=O)C([H])(N([H])C(=O)C([H])(N([H])C([H])([H])[H])C([H])([H])[H])C(C([H])([H])[H])(C([H])([H])[H])C([H])([H])[H])C([H])(C(=O)N([H])C2([H])c4c([H])c([H])c([H])c([H])c4C([H])([H])C([H])([H])C2([H])[H])C3([H])[H])nc1C(C(=O)N1C([H])([H])C([H])([H])C([H])([H])C([H])(n2nc(-c3c([H])c([H])c(Oc4c([H])c([H])c(F)c([H])c4F)c([H])c3[H])c(C(=O)N([H])[H])c2N([H])[H])C1([H])[H])(C([H])([H])[H])C([H])([H])C([H])([H])[H]

>  <smiles>  (82) 
[H]c1sc(N([H])C(=O)C(=O)C([H])([H])C([H])([H])C([H])([H])Oc2c([H])c([H])c3c(c2[H])C([H])([H])N(C(=O)C([H])(N([H])C(=O)C([H])(N([H])C([H])([H])[H])C([H])([H])[H])C(C([H])([H])[H])(C([H])([H])[H])C([H])([H])[H])C([H])(C(=O)N([H])C2([H])c4c([H])c([H])c([H])c([H])c4C([H])([H])C([H])([H])C2([H])[H])C3([H])[H])nc1C(C(=O)N1C([H])([H])C([H])([H])C([H])([H])C([H])(n2nc(-c3c([H])c([H])c(Oc4c([H])c([H])c(F)c([H])c4F)c([H])c3[H])c(C(=O)N([H])[H])c2N([H])[H])C1([H])[H])(C([H])([H])[H])C([H])([H])C([H])([H])[H]

$$$$
82:0:0
     RDKit          3D

 96104  0  0  1  0  0  0  0  0999 V2000
  -28.8510  -21.5420   20.1760 C   0  0  0  0  0  0  0  0  0  0  0  0
  -29.2690  -20.5990   19.2950 N   0  0  0  0  0  0  0  0  0  0  0  0
  -28.4910  -21.2930   21.3290 O   0  0  0  0  0  0  0  0  0  0  0  0
  -29.4790  -21.0050   18.3940 H   0  0  0  0  0  0  0  0  0  0  0  0
  -30.7000  -14.7170   20.6300 C   0  0  0  0  0  0  0  0  0  0  0  0
  -30.5260  -12.4690   19.6340 C   0  0  0  0  0  2  0  0  0  0  0  0
  -29.6400  -12.5810   18.3740 C   0  0  0  0  0  2  0  0  0  0  0  0
  -28.1560  -12.4070   18.7480 C   0  0  0  0  0  2  0  0  0  0  0  0
  -27.7340  -13.3000   19.9460 C   0  0  0  0  0  3  0  0  0  0  0  0
  -28.7410  -13.1900   21.1140 C   0  0  0  0  0  2  0  0  0  0  0  0
  -30.0770  -13.5020   20.5850 N   0  0  0  0  0  0  0  0  0  0  0  0
  -31.8830  -14.8430   20.2990 O   0  0  0  0  0  0  0  0  0  0  0  0
  -29.8000  -18.5600   18.1050 C   0  0  0  0  0  0  0  0  0  0  0  0
  -29.4940  -19.1640   19.3130 C   0  0  0  0  0  0  0  0  0  0  0  0
  -29.8880  -16.9850   20.0200 C   0  0  0  0  0  0  0  0  0  0  0  0
  -29.5010  -18.2370   20.4030 N   0  0  0  0  0  0  0  0  0  0  0  0
  -29.9260  -15.8150   20.8710 N   0  0  0  0  0  0  0  0  0  0  0  0
  -30.2240  -16.8790   18.2940 S   0  0  0  0  0  0  0  0  0  0  0  0
  -29.0920  -15.6520   21.4120 H   0  0  0  0  0  0  0  0  0  0  0  0
  -25.3110  -13.8870   20.5710 C   0  0  0  0  0  0  0  0  0  0  0  0
  -24.2360  -13.1080   20.8990 C   0  0  0  0  0  0  0  0  0  0  0  0
  -24.7090  -11.7600   20.9000 C   0  0  0  0  0  0  0  0  0  0  0  0
  -26.3690  -13.0130   20.3790 N   0  0  0  0  0  0  0  0  0  0  0  0
  -26.0100  -11.7290   20.6390 N   0  0  0  0  0  0  0  0  0  0  0  0
  -23.9880  -10.4940   21.0690 C   0  0  0  0  0  0  0  0  0  0  0  0
  -24.3840   -9.5420   22.0340 C   0  0  0  0  0  3  0  0  0  0  0  0
  -23.6600   -8.3400   22.1920 C   0  0  0  0  0  3  0  0  0  0  0  0
  -22.5300   -8.0790   21.3830 C   0  0  0  0  0  0  0  0  0  0  0  0
  -22.1550   -9.0200   20.4080 C   0  0  0  0  0  3  0  0  0  0  0  0
  -22.8770  -10.2140   20.2470 C   0  0  0  0  0  3  0  0  0  0  0  0
  -21.7850   -6.9260   21.4470 O   0  0  0  0  0  0  0  0  0  0  0  0
  -21.6730   -6.2070   22.6090 C   0  0  0  0  0  0  0  0  0  0  0  0
  -21.1410   -6.7720   23.7880 C   0  0  0  0  0  3  0  0  0  0  0  0
  -20.9780   -5.9760   24.9390 C   0  0  0  0  0  3  0  0  0  0  0  0
  -21.3370   -4.6150   24.9130 C   0  0  0  0  0  0  0  0  0  0  0  0
  -21.8610   -4.0500   23.7370 C   0  0  0  0  0  3  0  0  0  0  0  0
  -22.0270   -4.8420   22.5890 C   0  0  0  0  0  0  0  0  0  0  0  0
  -22.5120   -4.2850   21.4530 F   0  0  0  0  0  0  0  0  0  0  0  0
  -21.1740   -3.8500   26.0170 F   0  0  0  0  0  0  0  0  0  0  0  0
  -22.8230  -13.5740   21.1070 C   0  0  0  0  0  0  0  0  0  0  0  0
  -22.0650  -12.8790   21.9460 N   0  0  0  0  0  0  0  0  0  0  0  0
  -22.4010  -14.5910   20.5580 O   0  0  0  0  0  0  0  0  0  0  0  0
  -22.4200  -12.0580   22.4140 H   0  0  0  0  0  0  0  0  0  0  0  0
  -21.1170  -13.1770   22.1290 H   0  0  0  0  0  0  0  0  0  0  0  0
  -25.4780  -15.2590   20.4050 N   0  0  0  0  0  0  0  0  0  0  0  0
  -24.7200  -15.9190   20.5410 H   0  0  0  0  0  0  0  0  0  0  0  0
  -26.3530  -15.7090   20.1740 H   0  0  0  0  0  0  0  0  0  0  0  0
  -29.8340  -19.0900   16.7450 C   0  0  0  0  0  3  0  0  0  0  0  0
  -29.0530  -19.9640   16.2600 N   0  0  0  0  0  0  0  0  0  0  0  0
  -28.3250  -20.2540   16.9040 H   0  0  0  0  0  0  0  0  0  0  0  0
  -28.8720  -22.8940   19.5640 C   0  0  0  0  0  3  0  0  0  0  0  0
  -28.4680  -24.0830   20.1150 C   0  0  0  0  0  0  0  0  0  0  0  0
  -27.9660  -24.2140   21.3540 O   0  0  0  0  0  0  0  0  0  0  0  0
  -27.9540  -23.3500   21.7520 H   0  0  0  0  0  0  0  0  0  0  0  0
  -28.5440  -25.4580   19.3880 C   0  0  0  0  0  2  0  0  0  0  0  0
  -28.3950  -26.6780   20.1810 O   0  0  0  0  0  0  0  0  0  0  0  0
  -24.5820  -31.9220   23.2450 C   0  0  0  0  0  0  0  0  0  0  0  0
  -27.2280  -27.4390   20.1460 C   0  0  0  0  0  0  0  0  0  0  0  0
  -23.3830  -30.5210   21.6020 C   0  0  0  0  0  3  0  0  0  0  0  0
  -24.8390  -28.9940   20.1670 C   0  0  0  0  0  0  0  0  0  0  0  0
  -25.9150  -30.8720   21.4110 C   0  0  0  0  0  2  0  0  0  0  0  0
  -26.0030  -29.5000   20.7570 C   0  0  0  0  0  0  0  0  0  0  0  0
  -27.1960  -28.7310   20.7430 C   0  0  0  0  0  3  0  0  0  0  0  0
  -26.0330  -26.9590   19.5630 C   0  0  0  0  0  3  0  0  0  0  0  0
  -24.8530  -27.7250   19.5680 C   0  0  0  0  0  3  0  0  0  0  0  0
  -23.5950  -29.8530   20.2200 C   0  0  0  0  0  2  0  0  0  0  0  0
  -24.6460  -31.1210   22.1430 N   0  0  0  0  0  0  0  0  0  0  0  0
  -23.4980  -32.1880   23.7840 O   0  0  0  0  0  0  0  0  0  0  0  0
  -22.7350  -29.4930   22.5590 C   0  0  0  0  0  0  0  0  0  0  0  0
  -21.4110  -29.3070   22.4320 N   0  0  0  0  0  0  0  0  0  0  0  0
  -23.4200  -28.8690   23.3720 O   0  0  0  0  0  0  0  0  0  0  0  0
  -20.9170  -29.8630   21.7480 H   0  0  0  0  0  0  0  0  0  0  0  0
  -18.0390  -28.1060   22.9410 C   0  0  0  0  0  0  0  0  0  0  0  0
  -20.5980  -28.3620   23.1990 C   0  0  0  0  0  3  0  0  0  0  0  0
  -20.6970  -26.9350   22.6110 C   0  0  0  0  0  2  0  0  0  0  0  0
  -19.5900  -26.6230   21.5990 C   0  0  0  0  0  2  0  0  0  0  0  0
  -18.2120  -26.7620   22.2530 C   0  0  0  0  0  2  0  0  0  0  0  0
  -19.1600  -28.8650   23.3710 C   0  0  0  0  0  0  0  0  0  0  0  0
  -18.9450  -30.1230   23.9730 C   0  0  0  0  0  3  0  0  0  0  0  0
  -17.6420  -30.6240   24.1510 C   0  0  0  0  0  3  0  0  0  0  0  0
  -16.5350  -29.8610   23.7380 C   0  0  0  0  0  3  0  0  0  0  0  0
  -16.7340  -28.6050   23.1390 C   0  0  0  0  0  3  0  0  0  0  0  0
  -25.8640  -32.5590   23.8660 C   0  0  0  0  0  3  0  0  0  0  0  0
  -26.3770  -31.7980   25.1500 C   0  0  1  0  0  0  0  0  0  0  0  0
  -25.2810  -31.5670   26.2160 C   0  0  0  0  0  1  0  0  0  0  0  0
  -26.9640  -30.4180   24.7700 C   0  0  0  0  0  1  0  0  0  0  0  0
  -27.5260  -32.5970   25.8070 C   0  0  0  0  0  1  0  0  0  0  0  0
  -25.5520  -33.9600   24.1840 N   0  0  0  0  0  0  0  0  0  0  0  0
  -25.8920  -35.0080   23.4220 C   0  0  0  0  0  0  0  0  0  0  0  0
  -26.5700  -34.8980   22.3970 O   0  0  0  0  0  0  0  0  0  0  0  0
  -24.9510  -34.1210   24.9790 H   0  0  0  0  0  0  0  0  0  0  0  0
  -24.1760  -36.8050   23.0290 C   0  0  0  0  0  1  0  0  0  0  0  0
  -25.3990  -36.3990   23.8660 C   0  0  0  0  0  3  0  0  0  0  0  0
  -27.5190  -37.2770   24.7400 C   0  0  0  0  0  1  0  0  0  0  0  0
  -26.4360  -37.4500   23.7740 N   0  0  0  0  0  0  0  0  0  0  0  0
  -26.0300  -38.3700   23.9210 H   0  0  0  0  0  0  0  0  0  0  0  0
  1  3  2  0
  2 14  1  0
  2  1  1  0
  4  2  1  0
  5 17  1  0
  6 11  1  0
  7  8  1  0
  7  6  1  0
  9  8  1  0
  9 23  1  0
  9 10  1  0
 11  5  1  0
 11 10  1  0
 12  5  2  0
 13 18  1  0
 13 14  2  0
 14 16  1  0
 15 16  2  0
 15 17  1  0
 17 19  1  0
 18 15  1  0
 20 21  2  0
 21 22  1  0
 21 40  1  0
 22 25  1  0
 23 20  1  0
 23 24  1  0
 24 22  2  0
 25 26  1  0
 26 27  2  0
 28 31  1  0
 28 27  1  0
 29 28  2  0
 30 29  1  0
 30 25  2  0
 31 32  1  0
 32 33  1  0
 33 34  2  0
 35 34  1  0
 35 39  1  0
 36 35  2  0
 37 32  2  0
 37 36  1  0
 38 37  1  0
 40 41  1  0
 41 44  1  0
 41 43  1  0
 42 40  2  0
 45 46  1  0
 45 20  1  0
 47 45  1  0
 48 13  1  0
 49 48  2  0
 49 50  1  0
 51 52  2  0
 51  1  1  0
 52 53  1  0
 53 54  1  0
 55 52  1  0
 55 56  1  0
 57 68  2  0
 58 56  1  0
 58 63  1  0
 59 67  1  0
 59 69  1  0
 60 66  1  0
 60 62  1  0
 61 67  1  0
 62 61  1  0
 63 62  2  0
 64 65  1  0
 64 58  2  0
 65 60  2  0
 66 59  1  0
 67 57  1  0
 69 71  2  0
 70 69  1  0
 72 70  1  0
 73 82  2  0
 73 78  1  0
 74 70  1  0
 74 78  1  0
 75 74  1  0
 76 77  1  0
 76 75  1  0
 77 73  1  0
 78 79  2  0
 79 80  1  0
 81 80  2  0
 82 81  1  0
 83 57  1  0
 83 88  1  0
 83 84  1  0
 84 87  1  1
 84 85  1  0
 86 84  1  0
 88 91  1  0
 89 93  1  0
 89 88  1  0
 90 89  2  0
 93 92  1  0
 95 93  1  0
 95 96  1  0
 95 94  1  0
M  ISO  4   5 100  17 100  55 101  56 101
M  END
>  <TORSDO>  (83) 
F 20

>  <SCORE>  (83) 
-13.916

>  <name>  (83) 
82

>  <ligand_id>  (83) 
82

>  <original_smiles>  (83) 
[H]N=C([H])c1sc(N([H])C(=O)N2C([H])([H])C([H])([H])C([H])([H])C([H])(n3nc(-c4c([H])c([H])c(Oc5c([H])c([H])c(F)c([H])c5F)c([H])c4[H])c(C(=O)N([H])[H])c3N([H])[H])C2([H])[H])nc1N([H])C(=O)C([H])=C(O[H])C([H])([H])Oc1c([H])c([H])c2c(c1[H])C([H])([H])N(C(=O)C([H])(N([H])C(=O)C([H])(N([H])C([H])([H])[H])C([H])([H])[H])C(C([H])([H])[H])(C([H])([H])[H])C([H])([H])[H])C([H])(C(=O)N([H])C1([H])c3c([H])c([H])c([H])c([H])c3C([H])([H])C([H])([H])C1([H])[H])C2([H])[H]

>  <smiles>  (83) 
[H]N=C([H])c1sc(N([H])C(=O)N2C([H])([H])C([H])([H])C([H])([H])C([H])(n3nc(-c4c([H])c([H])c(Oc5c([H])c([H])c(F)c([H])c5F)c([H])c4[H])c(C(=O)N([H])[H])c3N([H])[H])C2([H])[H])nc1N([H])C(=O)C([H])=C(O[H])C([H])([H])Oc1c([H])c([H])c2c(c1[H])C([H])([H])N(C(=O)C([H])(N([H])C(=O)C([H])(N([H])C([H])([H])[H])C([H])([H])[H])C(C([H])([H])[H])(C([H])([H])[H])C([H])([H])[H])C([H])(C(=O)N([H])C1([H])c3c([H])c([H])c([H])c([H])c3C([H])([H])C([H])([H])C1([H])[H])C2([H])[H]

$$$$
83:0:0
     RDKit          3D

 95103  0  0  1  0  0  0  0  0999 V2000
  -28.9160  -21.5060   20.2260 C   0  0  0  0  0  0  0  0  0  0  0  0
  -28.8590  -20.4830   19.3490 N   0  0  0  0  0  0  0  0  0  0  0  0
  -29.3050  -21.4320   21.3990 O   0  0  0  0  0  0  0  0  0  0  0  0
  -28.5710  -20.8370   18.4440 H   0  0  0  0  0  0  0  0  0  0  0  0
  -30.7630  -14.7020   20.7310 C   0  0  0  0  0  0  0  0  0  0  0  0
  -30.5800  -12.4560   19.7620 C   0  0  0  0  0  2  0  0  0  0  0  0
  -29.7210  -12.5770   18.4850 C   0  0  0  0  0  2  0  0  0  0  0  0
  -28.2260  -12.4300   18.8230 C   0  0  0  0  0  2  0  0  0  0  0  0
  -27.7860  -13.3190   20.0200 C   0  0  0  0  0  3  0  0  0  0  0  0
  -28.7750  -13.2110   21.2020 C   0  0  0  0  0  2  0  0  0  0  0  0
  -30.1220  -13.4990   20.6950 N   0  0  0  0  0  0  0  0  0  0  0  0
  -31.9720  -14.7970   20.5100 O   0  0  0  0  0  0  0  0  0  0  0  0
  -30.7130  -16.7920   18.6370 C   0  0  0  0  0  3  0  0  0  0  0  0
  -30.7640  -17.8350   17.7090 C   0  0  0  0  0  0  0  0  0  0  0  0
  -30.1510  -19.0560   18.0180 C   0  0  0  0  0  0  0  0  0  0  0  0
  -30.0720  -16.9670   19.8880 C   0  0  0  0  0  0  0  0  0  0  0  0
  -29.5270  -19.2170   19.2700 C   0  0  0  0  0  0  0  0  0  0  0  0
  -29.4880  -18.1820   20.1820 N   0  0  0  0  0  0  0  0  0  0  0  0
  -29.9700  -15.8110   20.7550 N   0  0  0  0  0  0  0  0  0  0  0  0
  -31.3710  -17.6470   16.5100 F   0  0  0  0  0  0  0  0  0  0  0  0
  -30.1430  -20.0620   17.1080 F   0  0  0  0  0  0  0  0  0  0  0  0
  -29.0720  -15.6890   21.1970 H   0  0  0  0  0  0  0  0  0  0  0  0
  -25.3490  -13.9050   20.5870 C   0  0  0  0  0  0  0  0  0  0  0  0
  -24.2690  -13.1260   20.9050 C   0  0  0  0  0  0  0  0  0  0  0  0
  -24.7450  -11.7800   20.9250 C   0  0  0  0  0  0  0  0  0  0  0  0
  -26.4140  -13.0320   20.4290 N   0  0  0  0  0  0  0  0  0  0  0  0
  -26.0520  -11.7500   20.6920 N   0  0  0  0  0  0  0  0  0  0  0  0
  -24.0220  -10.5120   21.0930 C   0  0  0  0  0  0  0  0  0  0  0  0
  -24.4090   -9.5630   22.0630 C   0  0  0  0  0  3  0  0  0  0  0  0
  -23.6870   -8.3600   22.2180 C   0  0  0  0  0  3  0  0  0  0  0  0
  -22.5610   -8.0980   21.4020 C   0  0  0  0  0  0  0  0  0  0  0  0
  -22.1930   -9.0370   20.4210 C   0  0  0  0  0  3  0  0  0  0  0  0
  -22.9170  -10.2300   20.2650 C   0  0  0  0  0  3  0  0  0  0  0  0
  -21.8160   -6.9460   21.4620 O   0  0  0  0  0  0  0  0  0  0  0  0
  -21.7030   -6.2220   22.6220 C   0  0  0  0  0  0  0  0  0  0  0  0
  -21.1690   -6.7830   23.8020 C   0  0  0  0  0  3  0  0  0  0  0  0
  -21.0070   -5.9850   24.9510 C   0  0  0  0  0  3  0  0  0  0  0  0
  -21.3680   -4.6240   24.9210 C   0  0  0  0  0  0  0  0  0  0  0  0
  -21.8960   -4.0630   23.7450 C   0  0  0  0  0  3  0  0  0  0  0  0
  -22.0590   -4.8590   22.5990 C   0  0  0  0  0  0  0  0  0  0  0  0
  -22.5480   -4.3060   21.4620 F   0  0  0  0  0  0  0  0  0  0  0  0
  -21.2060   -3.8560   26.0230 F   0  0  0  0  0  0  0  0  0  0  0  0
  -22.8540  -13.5940   21.0870 C   0  0  0  0  0  0  0  0  0  0  0  0
  -22.0830  -12.9060   21.9210 N   0  0  0  0  0  0  0  0  0  0  0  0
  -22.4370  -14.6060   20.5230 O   0  0  0  0  0  0  0  0  0  0  0  0
  -22.4300  -12.0900   22.4020 H   0  0  0  0  0  0  0  0  0  0  0  0
  -21.1310  -13.2050   22.0840 H   0  0  0  0  0  0  0  0  0  0  0  0
  -25.5110  -15.2740   20.3970 N   0  0  0  0  0  0  0  0  0  0  0  0
  -24.7330  -15.9220   20.4470 H   0  0  0  0  0  0  0  0  0  0  0  0
  -26.3710  -15.7150   20.0980 H   0  0  0  0  0  0  0  0  0  0  0  0
  -28.3770  -22.8380   19.5600 C   0  0  0  0  0  0  0  0  0  0  0  0
  -27.9550  -22.8190   18.3950 O   0  0  0  0  0  0  0  0  0  0  0  0
  -28.3460  -24.1740   20.3610 C   0  0  0  0  0  2  0  0  0  0  0  0
  -28.5460  -25.4660   19.4930 C   0  0  0  0  0  2  0  0  0  0  0  0
  -28.4130  -26.7470   20.1720 O   0  0  0  0  0  0  0  0  0  0  0  0
  -24.5690  -31.9300   23.2660 C   0  0  0  0  0  0  0  0  0  0  0  0
  -27.2240  -27.4700   20.1540 C   0  0  0  0  0  0  0  0  0  0  0  0
  -23.3680  -30.5270   21.6240 C   0  0  0  0  0  3  0  0  0  0  0  0
  -24.8230  -28.9990   20.1870 C   0  0  0  0  0  0  0  0  0  0  0  0
  -25.8950  -30.8880   21.4210 C   0  0  0  0  0  2  0  0  0  0  0  0
  -25.9840  -29.5150   20.7730 C   0  0  0  0  0  0  0  0  0  0  0  0
  -27.1830  -28.7580   20.7530 C   0  0  0  0  0  3  0  0  0  0  0  0
  -26.0330  -26.9730   19.5750 C   0  0  0  0  0  3  0  0  0  0  0  0
  -24.8450  -27.7290   19.5850 C   0  0  0  0  0  3  0  0  0  0  0  0
  -23.5770  -29.8540   20.2410 C   0  0  0  0  0  2  0  0  0  0  0  0
  -24.6290  -31.1320   22.1610 N   0  0  0  0  0  0  0  0  0  0  0  0
  -23.4860  -32.1950   23.8080 O   0  0  0  0  0  0  0  0  0  0  0  0
  -22.7230  -29.4990   22.5830 C   0  0  0  0  0  0  0  0  0  0  0  0
  -21.4000  -29.3040   22.4530 N   0  0  0  0  0  0  0  0  0  0  0  0
  -23.4110  -28.8810   23.4000 O   0  0  0  0  0  0  0  0  0  0  0  0
  -20.9060  -29.8570   21.7670 H   0  0  0  0  0  0  0  0  0  0  0  0
  -18.0360  -28.0800   22.9490 C   0  0  0  0  0  0  0  0  0  0  0  0
  -20.5910  -28.3560   23.2190 C   0  0  0  0  0  3  0  0  0  0  0  0
  -20.7040  -26.9290   22.6360 C   0  0  0  0  0  2  0  0  0  0  0  0
  -19.6030  -26.6020   21.6210 C   0  0  0  0  0  2  0  0  0  0  0  0
  -18.2210  -26.7340   22.2670 C   0  0  0  0  0  2  0  0  0  0  0  0
  -19.1480  -28.8490   23.3820 C   0  0  0  0  0  0  0  0  0  0  0  0
  -18.9210  -30.1070   23.9780 C   0  0  0  0  0  3  0  0  0  0  0  0
  -17.6120  -30.5990   24.1460 C   0  0  0  0  0  3  0  0  0  0  0  0
  -16.5130  -29.8270   23.7300 C   0  0  0  0  0  3  0  0  0  0  0  0
  -16.7260  -28.5700   23.1380 C   0  0  0  0  0  3  0  0  0  0  0  0
  -25.8510  -32.5680   23.8850 C   0  0  0  0  0  3  0  0  0  0  0  0
  -26.3620  -31.8120   25.1720 C   0  0  1  0  0  0  0  0  0  0  0  0
  -25.2630  -31.5860   26.2380 C   0  0  0  0  0  1  0  0  0  0  0  0
  -26.9460  -30.4300   24.7970 C   0  0  0  0  0  1  0  0  0  0  0  0
  -27.5080  -32.6140   25.8310 C   0  0  0  0  0  1  0  0  0  0  0  0
  -25.5410  -33.9700   24.1960 N   0  0  0  0  0  0  0  0  0  0  0  0
  -25.8880  -35.0140   23.4290 C   0  0  0  0  0  0  0  0  0  0  0  0
  -26.5710  -34.8970   22.4080 O   0  0  0  0  0  0  0  0  0  0  0  0
  -24.9370  -34.1350   24.9870 H   0  0  0  0  0  0  0  0  0  0  0  0
  -24.1820  -36.8160   23.0180 C   0  0  0  0  0  1  0  0  0  0  0  0
  -25.3990  -36.4080   23.8640 C   0  0  0  0  0  3  0  0  0  0  0  0
  -27.5160  -37.2860   24.7480 C   0  0  0  0  0  1  0  0  0  0  0  0
  -26.4410  -37.4540   23.7730 N   0  0  0  0  0  0  0  0  0  0  0  0
  -26.0360  -38.3770   23.9040 H   0  0  0  0  0  0  0  0  0  0  0  0
  1  3  2  0
  2  1  1  0
  4  2  1  0
  5 19  1  0
  6 11  1  0
  7  8  1  0
  7  6  1  0
  9  8  1  0
  9 26  1  0
  9 10  1  0
 11  5  1  0
 11 10  1  0
 12  5  2  0
 13 16  1  0
 14 15  1  0
 14 13  2  0
 15 17  2  0
 16 18  2  0
 16 19  1  0
 17  2  1  0
 17 18  1  0
 19 22  1  0
 20 14  1  0
 21 15  1  0
 23 24  2  0
 24 25  1  0
 24 43  1  0
 25 28  1  0
 26 23  1  0
 26 27  1  0
 27 25  2  0
 28 29  1  0
 29 30  2  0
 31 34  1  0
 31 30  1  0
 32 31  2  0
 33 32  1  0
 33 28  2  0
 34 35  1  0
 35 36  1  0
 36 37  2  0
 38 37  1  0
 38 42  1  0
 39 38  2  0
 40 35  2  0
 40 39  1  0
 41 40  1  0
 43 44  1  0
 44 47  1  0
 44 46  1  0
 45 43  2  0
 48 49  1  0
 48 23  1  0
 50 48  1  0
 51  1  1  0
 51 53  1  0
 52 51  2  0
 54 55  1  0
 54 53  1  0
 56 67  2  0
 57 55  1  0
 57 62  1  0
 58 66  1  0
 58 68  1  0
 59 65  1  0
 59 61  1  0
 60 66  1  0
 61 60  1  0
 62 61  2  0
 63 64  1  0
 63 57  2  0
 64 59  2  0
 65 58  1  0
 66 56  1  0
 68 70  2  0
 69 68  1  0
 71 69  1  0
 72 81  2  0
 72 77  1  0
 73 69  1  0
 73 77  1  0
 74 73  1  0
 75 76  1  0
 75 74  1  0
 76 72  1  0
 77 78  2  0
 78 79  1  0
 80 79  2  0
 81 80  1  0
 82 56  1  0
 82 87  1  0
 82 83  1  0
 83 86  1  1
 83 84  1  0
 85 83  1  0
 87 90  1  0
 88 92  1  0
 88 87  1  0
 89 88  2  0
 92 91  1  0
 94 92  1  0
 94 95  1  0
 94 93  1  0
M  ISO  4   5 100  19 100  54 101  55 101
M  END
>  <TORSDO>  (84) 
F 19

>  <SCORE>  (84) 
-14.253

>  <name>  (84) 
83

>  <ligand_id>  (84) 
83

>  <original_smiles>  (84) 
[H]c1c([H])c([H])c2c(c1[H])C([H])([H])C([H])([H])C([H])([H])C2([H])N([H])C(=O)C1([H])N(C(=O)C([H])(N([H])C(=O)C([H])(N([H])C([H])([H])[H])C([H])([H])[H])C(C([H])([H])[H])(C([H])([H])[H])C([H])([H])[H])C([H])([H])c2c([H])c(OC([H])([H])C([H])([H])C(=O)C(=O)N([H])c3nc(N([H])C(=O)N4C([H])([H])C([H])([H])C([H])([H])C([H])(n5nc(-c6c([H])c([H])c(Oc7c([H])c([H])c(F)c([H])c7F)c([H])c6[H])c(C(=O)N([H])[H])c5N([H])[H])C4([H])[H])c([H])c(F)c3F)c([H])c([H])c2C1([H])[H]

>  <smiles>  (84) 
[H]c1c([H])c([H])c2c(c1[H])C([H])([H])C([H])([H])C([H])([H])C2([H])N([H])C(=O)C1([H])N(C(=O)C([H])(N([H])C(=O)C([H])(N([H])C([H])([H])[H])C([H])([H])[H])C(C([H])([H])[H])(C([H])([H])[H])C([H])([H])[H])C([H])([H])c2c([H])c(OC([H])([H])C([H])([H])C(=O)C(=O)N([H])c3nc(N([H])C(=O)N4C([H])([H])C([H])([H])C([H])([H])C([H])(n5nc(-c6c([H])c([H])c(Oc7c([H])c([H])c(F)c([H])c7F)c([H])c6[H])c(C(=O)N([H])[H])c5N([H])[H])C4([H])[H])c([H])c(F)c3F)c([H])c([H])c2C1([H])[H]

$$$$
84:0:0
     RDKit          3D

 98107  0  0  1  0  0  0  0  0999 V2000
  -29.6940  -24.4490   21.6980 C   0  0  0  0  0  0  0  0  0  0  0  0
  -28.7860  -23.8900   22.7870 C   0  0  0  0  0  2  0  0  0  0  0  0
  -29.3860  -22.5830   23.3380 C   0  0  0  0  0  2  0  0  0  0  0  0
  -29.3170  -21.3460   22.4080 C   0  0  0  0  0  2  0  0  0  0  0  0
  -29.9120  -21.4810   20.9750 C   0  0  0  0  0  3  0  0  0  0  0  0
  -29.4390  -24.0450   20.2380 C   0  0  0  0  0  3  0  0  0  0  0  0
  -29.1170  -22.5180   20.1610 N   0  0  0  0  0  4  0  0  0  0  0  0
  -30.6630  -25.1340   22.0320 O   0  0  0  0  0  0  0  0  0  0  0  0
  -28.1450  -22.3660   20.3840 H   0  0  0  0  0  0  0  0  0  0  0  0
  -29.2230  -22.2460   19.1960 H   0  0  0  0  0  0  0  0  0  0  0  0
  -29.8260  -18.7340   20.7420 C   0  0  0  0  0  3  0  0  0  0  0  0
  -31.5030  -18.1230   19.2320 C   0  0  0  0  0  3  0  0  0  0  0  0
  -30.5870  -17.6210   20.1370 C   0  0  0  0  0  0  0  0  0  0  0  0
  -30.2330  -20.0410   20.3780 C   0  0  0  0  0  0  0  0  0  0  0  0
  -31.4870  -19.8830   19.1630 S   0  0  0  0  0  0  0  0  0  0  0  0
  -31.0830  -15.0240   19.9870 C   0  0  0  0  0  0  0  0  0  0  0  0
  -30.8000  -12.7350   18.9940 C   0  0  0  0  0  2  0  0  0  0  0  0
  -29.8130  -12.8010   17.8050 C   0  0  0  0  0  2  0  0  0  0  0  0
  -28.3590  -12.6540   18.2980 C   0  0  0  0  0  2  0  0  0  0  0  0
  -28.0500  -13.5640   19.5160 C   0  0  0  0  0  3  0  0  0  0  0  0
  -29.1530  -13.4740   20.5950 C   0  0  0  0  0  2  0  0  0  0  0  0
  -30.4330  -13.8050   19.9590 N   0  0  0  0  0  0  0  0  0  0  0  0
  -32.2210  -15.1050   19.5240 O   0  0  0  0  0  0  0  0  0  0  0  0
  -30.3890  -16.1610   20.4080 N   0  0  0  0  0  0  0  0  0  0  0  0
  -29.5620  -15.9370   20.9410 H   0  0  0  0  0  0  0  0  0  0  0  0
  -25.7220  -14.1930   20.3990 C   0  0  0  0  0  0  0  0  0  0  0  0
  -24.6520  -13.4320   20.7960 C   0  0  0  0  0  0  0  0  0  0  0  0
  -25.0780  -12.0720   20.6940 C   0  0  0  0  0  0  0  0  0  0  0  0
  -26.7240  -13.2980   20.0690 N   0  0  0  0  0  0  0  0  0  0  0  0
  -26.3490  -12.0120   20.3110 N   0  0  0  0  0  0  0  0  0  0  0  0
  -24.3280  -10.8210   20.8840 C   0  0  0  0  0  0  0  0  0  0  0  0
  -24.7230   -9.8700   21.8510 C   0  0  0  0  0  3  0  0  0  0  0  0
  -23.9800   -8.6850   22.0330 C   0  0  0  0  0  3  0  0  0  0  0  0
  -22.8270   -8.4430   21.2500 C   0  0  0  0  0  0  0  0  0  0  0  0
  -22.4500   -9.3840   20.2750 C   0  0  0  0  0  3  0  0  0  0  0  0
  -23.1950  -10.5600   20.0920 C   0  0  0  0  0  3  0  0  0  0  0  0
  -22.0560   -7.3090   21.3350 O   0  0  0  0  0  0  0  0  0  0  0  0
  -21.8740   -6.6500   22.5240 C   0  0  0  0  0  0  0  0  0  0  0  0
  -21.2860   -7.2800   23.6410 C   0  0  0  0  0  3  0  0  0  0  0  0
  -21.0550   -6.5450   24.8220 C   0  0  0  0  0  3  0  0  0  0  0  0
  -21.4010   -5.1820   24.8840 C   0  0  0  0  0  0  0  0  0  0  0  0
  -21.9860   -4.5530   23.7690 C   0  0  0  0  0  3  0  0  0  0  0  0
  -22.2180   -5.2860   22.5910 C   0  0  0  0  0  0  0  0  0  0  0  0
  -22.7600   -4.6690   21.5150 F   0  0  0  0  0  0  0  0  0  0  0  0
  -21.1730   -4.4760   26.0140 F   0  0  0  0  0  0  0  0  0  0  0  0
  -23.2840  -13.9320   21.1510 C   0  0  0  0  0  0  0  0  0  0  0  0
  -22.5870  -13.2370   22.0410 N   0  0  0  0  0  0  0  0  0  0  0  0
  -22.8370  -14.9710   20.6640 O   0  0  0  0  0  0  0  0  0  0  0  0
  -22.9630  -12.3990   22.4600 H   0  0  0  0  0  0  0  0  0  0  0  0
  -21.6640  -13.5450   22.3120 H   0  0  0  0  0  0  0  0  0  0  0  0
  -25.9170  -15.5670   20.2770 N   0  0  0  0  0  0  0  0  0  0  0  0
  -25.2450  -16.2460   20.6190 H   0  0  0  0  0  0  0  0  0  0  0  0
  -26.7640  -16.0000   19.9280 H   0  0  0  0  0  0  0  0  0  0  0  0
  -28.4440  -25.1130   19.4960 C   0  0  0  0  0  3  0  0  0  0  0  0
  -28.0780  -26.1450   17.0470 C   0  0  0  0  0  1  0  0  0  0  0  0
  -28.2840  -23.6720   17.3270 C   0  0  0  0  0  1  0  0  0  0  0  0
  -28.6880  -25.0340   17.9410 C   0  0  0  0  0  3  0  0  0  0  0  0
  -28.5180  -26.5800   19.8630 O   0  0  0  0  0  0  0  0  0  0  0  0
  -24.6140  -31.7850   23.0840 C   0  0  0  0  0  0  0  0  0  0  0  0
  -27.3600  -27.4050   19.8590 C   0  0  0  0  0  0  0  0  0  0  0  0
  -23.4480  -30.3870   21.4320 C   0  0  0  0  0  3  0  0  0  0  0  0
  -24.9340  -28.9530   19.9330 C   0  0  0  0  0  0  0  0  0  0  0  0
  -25.9730  -30.8220   21.2060 C   0  0  0  0  0  2  0  0  0  0  0  0
  -26.1030  -29.4670   20.5140 C   0  0  0  0  0  0  0  0  0  0  0  0
  -27.3180  -28.7130   20.4510 C   0  0  0  0  0  3  0  0  0  0  0  0
  -26.1460  -26.9490   19.2880 C   0  0  0  0  0  3  0  0  0  0  0  0
  -24.9620  -27.7000   19.3180 C   0  0  0  0  0  3  0  0  0  0  0  0
  -23.6660  -29.7760   20.0270 C   0  0  0  0  0  2  0  0  0  0  0  0
  -24.6990  -31.0120   21.9650 N   0  0  0  0  0  0  0  0  0  0  0  0
  -23.5240  -32.0020   23.6410 O   0  0  0  0  0  0  0  0  0  0  0  0
  -22.8540  -29.3030   22.3660 C   0  0  0  0  0  0  0  0  0  0  0  0
  -21.5420  -29.0360   22.2290 N   0  0  0  0  0  0  0  0  0  0  0  0
  -23.5720  -28.7110   23.1720 O   0  0  0  0  0  0  0  0  0  0  0  0
  -21.0170  -29.5630   21.5460 H   0  0  0  0  0  0  0  0  0  0  0  0
  -18.2650  -27.5880   22.6580 C   0  0  0  0  0  0  0  0  0  0  0  0
  -20.7870  -28.0400   22.9860 C   0  0  0  0  0  3  0  0  0  0  0  0
  -21.0110  -26.6240   22.4060 C   0  0  0  0  0  2  0  0  0  0  0  0
  -19.9590  -26.2270   21.3650 C   0  0  0  0  0  2  0  0  0  0  0  0
  -18.5570  -26.2620   21.9770 C   0  0  0  0  0  2  0  0  0  0  0  0
  -19.3120  -28.4320   23.1150 C   0  0  0  0  0  0  0  0  0  0  0  0
  -18.9780  -29.6700   23.7050 C   0  0  0  0  0  3  0  0  0  0  0  0
  -17.6340  -30.0630   23.8530 C   0  0  0  0  0  3  0  0  0  0  0  0
  -16.6030  -29.2170   23.4120 C   0  0  0  0  0  3  0  0  0  0  0  0
  -16.9200  -27.9820   22.8180 C   0  0  0  0  0  3  0  0  0  0  0  0
  -25.8760  -32.4610   23.7040 C   0  0  0  0  0  3  0  0  0  0  0  0
  -26.4340  -31.6900   24.9640 C   0  0  1  0  0  0  0  0  0  0  0  0
  -25.3610  -31.3850   26.0350 C   0  0  0  0  0  1  0  0  0  0  0  0
  -27.0780  -30.3490   24.5400 C   0  0  0  0  0  1  0  0  0  0  0  0
  -27.5540  -32.5230   25.6290 C   0  0  0  0  0  1  0  0  0  0  0  0
  -25.5100  -33.8400   24.0630 N   0  0  0  0  0  0  0  0  0  0  0  0
  -25.7940  -34.9190   23.3240 C   0  0  0  0  0  0  0  0  0  0  0  0
  -26.4640  -34.8600   22.2880 O   0  0  0  0  0  0  0  0  0  0  0  0
  -24.9170  -33.9520   24.8700 H   0  0  0  0  0  0  0  0  0  0  0  0
  -23.9960  -36.6450   23.0140 C   0  0  0  0  0  1  0  0  0  0  0  0
  -25.2540  -36.2740   23.8150 C   0  0  0  0  0  3  0  0  0  0  0  0
  -27.3530  -37.2250   24.6650 C   0  0  0  0  0  1  0  0  0  0  0  0
  -26.2410  -37.3730   23.7300 N   0  0  0  0  0  0  0  0  0  0  0  0
  -25.7960  -38.2680   23.9100 H   0  0  0  0  0  0  0  0  0  0  0  0
  1  8  2  0
  1  2  1  0
  2  3  1  0
  4  3  1  0
  5 14  1  0
  5  4  1  0
  6 54  1  0
  6  1  1  0
  7  6  1  0
  7  9  1  0
  7  5  1  0
 10  7  1  0
 12 13  2  0
 13 24  1  0
 13 11  1  0
 14 11  2  0
 15 12  1  0
 15 14  1  0
 16 24  1  0
 17 22  1  0
 18 19  1  0
 18 17  1  0
 20 19  1  0
 20 29  1  0
 20 21  1  0
 22 16  1  0
 22 21  1  0
 23 16  2  0
 24 25  1  0
 26 27  2  0
 27 46  1  0
 28 27  1  0
 28 31  1  0
 29 30  1  0
 29 26  1  0
 30 28  2  0
 31 32  1  0
 32 33  2  0
 34 37  1  0
 34 33  1  0
 35 34  2  0
 36 35  1  0
 36 31  2  0
 37 38  1  0
 38 43  2  0
 38 39  1  0
 39 40  2  0
 40 41  1  0
 41 45  1  0
 42 41  2  0
 43 42  1  0
 44 43  1  0
 46 47  1  0
 47 50  1  0
 47 49  1  0
 48 46  2  0
 51 26  1  0
 51 52  1  0
 53 51  1  0
 54 57  1  0
 54 58  1  0
 55 57  1  0
 56 57  1  0
 59 70  2  0
 60 58  1  0
 60 65  1  0
 61 69  1  0
 61 71  1  0
 62 68  1  0
 62 64  1  0
 63 69  1  0
 64 63  1  0
 65 64  2  0
 66 67  1  0
 66 60  2  0
 67 62  2  0
 68 61  1  0
 69 59  1  0
 71 73  2  0
 72 71  1  0
 74 72  1  0
 75 84  2  0
 75 80  1  0
 76 72  1  0
 76 80  1  0
 77 76  1  0
 78 79  1  0
 78 77  1  0
 79 75  1  0
 80 81  2  0
 81 82  1  0
 83 82  2  0
 84 83  1  0
 85 59  1  0
 85 90  1  0
 85 86  1  0
 86 89  1  1
 86 87  1  0
 88 86  1  0
 90 93  1  0
 91 95  1  0
 91 90  1  0
 92 91  2  0
 95 94  1  0
 97 95  1  0
 97 98  1  0
 97 96  1  0
M  ISO  4  16 100  24 100  54 101  58 101
M  END
>  <TORSDO>  (85) 
F 19

>  <SCORE>  (85) 
-13.044

>  <name>  (85) 
84

>  <ligand_id>  (85) 
84

>  <original_smiles>  (85) 
[H]c1sc(C2([H])C([H])([H])C([H])([H])C([H])([H])C(=O)C([H])(C([H])(Oc3c([H])c([H])c4c(c3[H])C([H])([H])N(C(=O)C([H])(N([H])C(=O)C([H])(N([H])C([H])([H])[H])C([H])([H])[H])C(C([H])([H])[H])(C([H])([H])[H])C([H])([H])[H])C([H])(C(=O)N([H])C3([H])c5c([H])c([H])c([H])c([H])c5C([H])([H])C([H])([H])C3([H])[H])C4([H])[H])C([H])(C([H])([H])[H])C([H])([H])[H])[N+]2([H])[H])c([H])c1N([H])C(=O)N1C([H])([H])C([H])([H])C([H])([H])C([H])(n2nc(-c3c([H])c([H])c(Oc4c([H])c([H])c(F)c([H])c4F)c([H])c3[H])c(C(=O)N([H])[H])c2N([H])[H])C1([H])[H]

>  <smiles>  (85) 
[H]c1sc(C2([H])C([H])([H])C([H])([H])C([H])([H])C(=O)C([H])(C([H])(Oc3c([H])c([H])c4c(c3[H])C([H])([H])N(C(=O)C([H])(N([H])C(=O)C([H])(N([H])C([H])([H])[H])C([H])([H])[H])C(C([H])([H])[H])(C([H])([H])[H])C([H])([H])[H])C([H])(C(=O)N([H])C3([H])c5c([H])c([H])c([H])c([H])c5C([H])([H])C([H])([H])C3([H])[H])C4([H])[H])C([H])(C([H])([H])[H])C([H])([H])[H])[N+]2([H])[H])c([H])c1N([H])C(=O)N1C([H])([H])C([H])([H])C([H])([H])C([H])(n2nc(-c3c([H])c([H])c(Oc4c([H])c([H])c(F)c([H])c4F)c([H])c3[H])c(C(=O)N([H])[H])c2N([H])[H])C1([H])[H]

$$$$
85:0:0
     RDKit          3D

 92100  0  0  1  0  0  0  0  0999 V2000
  -28.6970  -23.0760   20.8390 C   0  0  0  0  0  0  0  0  0  0  0  0
  -29.3900  -22.0800   20.2530 N   0  0  0  0  0  0  0  0  0  0  0  0
  -27.9230  -22.8900   21.7820 O   0  0  0  0  0  0  0  0  0  0  0  0
  -30.0080  -22.4030   19.5180 H   0  0  0  0  0  0  0  0  0  0  0  0
  -28.8180  -18.5760   21.2830 C   0  0  0  0  0  3  0  0  0  0  0  0
  -28.5640  -19.9850   21.3320 C   0  0  0  0  0  3  0  0  0  0  0  0
  -29.8220  -18.2440   20.4120 C   0  0  0  0  0  0  0  0  0  0  0  0
  -29.3610  -20.7350   20.4920 C   0  0  0  0  0  0  0  0  0  0  0  0
  -30.4560  -19.6740   19.6320 S   0  0  0  0  0  0  0  0  0  0  0  0
  -30.3530  -16.9540   20.0640 C   0  0  0  0  0  3  0  0  0  0  0  0
  -30.0300  -15.7070   20.4850 C   0  0  0  0  0  3  0  0  0  0  0  0
  -30.7490  -14.5520   19.9330 C   0  0  0  0  0  0  0  0  0  0  0  0
  -30.3720  -12.3970   18.8060 C   0  0  0  0  0  2  0  0  0  0  0  0
  -29.3460  -12.6240   17.6760 C   0  0  0  0  0  2  0  0  0  0  0  0
  -27.9070  -12.4720   18.2070 C   0  0  0  0  0  2  0  0  0  0  0  0
  -27.6610  -13.2780   19.5120 C   0  0  0  0  0  3  0  0  0  0  0  0
  -28.7990  -13.0390   20.5290 C   0  0  0  0  0  2  0  0  0  0  0  0
  -30.0750  -13.3670   19.8750 N   0  0  0  0  0  0  0  0  0  0  0  0
  -31.8560  -14.6820   19.4010 O   0  0  0  0  0  0  0  0  0  0  0  0
  -25.3250  -13.8490   20.4260 C   0  0  0  0  0  0  0  0  0  0  0  0
  -24.2910  -13.0600   20.8530 C   0  0  0  0  0  0  0  0  0  0  0  0
  -24.7520  -11.7120   20.7440 C   0  0  0  0  0  0  0  0  0  0  0  0
  -26.3520  -12.9820   20.0860 N   0  0  0  0  0  0  0  0  0  0  0  0
  -26.0140  -11.6890   20.3330 N   0  0  0  0  0  0  0  0  0  0  0  0
  -24.0470  -10.4420   20.9510 C   0  0  0  0  0  0  0  0  0  0  0  0
  -24.5090   -9.4820   21.8790 C   0  0  0  0  0  3  0  0  0  0  0  0
  -23.8030   -8.2760   22.0730 C   0  0  0  0  0  3  0  0  0  0  0  0
  -22.6210   -8.0190   21.3400 C   0  0  0  0  0  0  0  0  0  0  0  0
  -22.1780   -8.9660   20.4010 C   0  0  0  0  0  3  0  0  0  0  0  0
  -22.8840  -10.1650   20.2040 C   0  0  0  0  0  3  0  0  0  0  0  0
  -21.8840   -6.8640   21.4440 O   0  0  0  0  0  0  0  0  0  0  0  0
  -21.7990   -6.1680   22.6230 C   0  0  0  0  0  0  0  0  0  0  0  0
  -21.3160   -6.7650   23.8080 C   0  0  0  0  0  3  0  0  0  0  0  0
  -21.1810   -5.9950   24.9800 C   0  0  0  0  0  3  0  0  0  0  0  0
  -21.5170   -4.6280   24.9670 C   0  0  0  0  0  0  0  0  0  0  0  0
  -21.9930   -4.0310   23.7880 C   0  0  0  0  0  3  0  0  0  0  0  0
  -22.1300   -4.7980   22.6180 C   0  0  0  0  0  0  0  0  0  0  0  0
  -22.5690   -4.2120   21.4780 F   0  0  0  0  0  0  0  0  0  0  0  0
  -21.3790   -3.8850   26.0920 F   0  0  0  0  0  0  0  0  0  0  0  0
  -22.9190  -13.5220   21.2510 C   0  0  0  0  0  0  0  0  0  0  0  0
  -22.2660  -12.7960   22.1520 N   0  0  0  0  0  0  0  0  0  0  0  0
  -22.4370  -14.5590   20.7980 O   0  0  0  0  0  0  0  0  0  0  0  0
  -22.6710  -11.9570   22.5390 H   0  0  0  0  0  0  0  0  0  0  0  0
  -21.3490  -13.0860   22.4610 H   0  0  0  0  0  0  0  0  0  0  0  0
  -25.4740  -15.2260   20.2800 N   0  0  0  0  0  0  0  0  0  0  0  0
  -24.7190  -15.8760   20.4720 H   0  0  0  0  0  0  0  0  0  0  0  0
  -26.3020  -15.6770   19.9130 H   0  0  0  0  0  0  0  0  0  0  0  0
  -28.2880  -25.4720   20.6560 C   0  0  0  0  0  3  0  0  0  0  0  0
  -28.9690  -24.3860   20.2310 C   0  0  0  0  0  0  0  0  0  0  0  0
  -29.8760  -24.5080   19.2480 O   0  0  0  0  0  0  0  0  0  0  0  0
  -29.8880  -25.4250   19.0020 H   0  0  0  0  0  0  0  0  0  0  0  0
  -28.4390  -26.7390   20.1330 O   0  0  0  0  0  0  0  0  0  0  0  0
  -24.6210  -31.8940   23.2380 C   0  0  0  0  0  0  0  0  0  0  0  0
  -27.2940  -27.5040   20.1190 C   0  0  0  0  0  0  0  0  0  0  0  0
  -23.4240  -30.4960   21.5860 C   0  0  0  0  0  3  0  0  0  0  0  0
  -24.8890  -28.9870   20.1420 C   0  0  0  0  0  0  0  0  0  0  0  0
  -25.9450  -30.8810   21.3850 C   0  0  0  0  0  2  0  0  0  0  0  0
  -26.0440  -29.5170   20.7330 C   0  0  0  0  0  0  0  0  0  0  0  0
  -27.2530  -28.7820   20.7180 C   0  0  0  0  0  3  0  0  0  0  0  0
  -26.1250  -26.9900   19.5160 C   0  0  0  0  0  3  0  0  0  0  0  0
  -24.9230  -27.7230   19.5300 C   0  0  0  0  0  3  0  0  0  0  0  0
  -23.6360  -29.8310   20.2000 C   0  0  0  0  0  2  0  0  0  0  0  0
  -24.6820  -31.1040   22.1280 N   0  0  0  0  0  0  0  0  0  0  0  0
  -23.5390  -32.1520   23.7820 O   0  0  0  0  0  0  0  0  0  0  0  0
  -22.7830  -29.4610   22.5380 C   0  0  0  0  0  0  0  0  0  0  0  0
  -21.4620  -29.2620   22.4060 N   0  0  0  0  0  0  0  0  0  0  0  0
  -23.4730  -28.8390   23.3520 O   0  0  0  0  0  0  0  0  0  0  0  0
  -20.9670  -29.8160   21.7200 H   0  0  0  0  0  0  0  0  0  0  0  0
  -18.1020  -28.0210   22.8790 C   0  0  0  0  0  0  0  0  0  0  0  0
  -20.6540  -28.3100   23.1670 C   0  0  0  0  0  3  0  0  0  0  0  0
  -20.7780  -26.8830   22.5850 C   0  0  0  0  0  2  0  0  0  0  0  0
  -19.6860  -26.5510   21.5630 C   0  0  0  0  0  2  0  0  0  0  0  0
  -18.3000  -26.6760   22.2000 C   0  0  0  0  0  2  0  0  0  0  0  0
  -19.2080  -28.7950   23.3190 C   0  0  0  0  0  0  0  0  0  0  0  0
  -18.9700  -30.0530   23.9130 C   0  0  0  0  0  3  0  0  0  0  0  0
  -17.6580  -30.5380   24.0730 C   0  0  0  0  0  3  0  0  0  0  0  0
  -16.5660  -29.7610   23.6500 C   0  0  0  0  0  3  0  0  0  0  0  0
  -16.7890  -28.5040   23.0590 C   0  0  0  0  0  3  0  0  0  0  0  0
  -25.9040  -32.5300   23.8600 C   0  0  0  0  0  3  0  0  0  0  0  0
  -26.4240  -31.7590   25.1360 C   0  0  1  0  0  0  0  0  0  0  0  0
  -25.3310  -31.5140   26.2020 C   0  0  0  0  0  1  0  0  0  0  0  0
  -27.0140  -30.3860   24.7400 C   0  0  0  0  0  1  0  0  0  0  0  0
  -27.5690  -32.5590   25.7990 C   0  0  0  0  0  1  0  0  0  0  0  0
  -25.5900  -33.9260   24.1880 N   0  0  0  0  0  0  0  0  0  0  0  0
  -25.9160  -34.9780   23.4250 C   0  0  0  0  0  0  0  0  0  0  0  0
  -26.5840  -34.8750   22.3930 O   0  0  0  0  0  0  0  0  0  0  0  0
  -24.9960  -34.0810   24.9900 H   0  0  0  0  0  0  0  0  0  0  0  0
  -24.1750  -36.7570   23.0720 C   0  0  0  0  0  1  0  0  0  0  0  0
  -25.4220  -36.3650   23.8790 C   0  0  0  0  0  3  0  0  0  0  0  0
  -27.5550  -37.2660   24.6950 C   0  0  0  0  0  1  0  0  0  0  0  0
  -26.4480  -37.4240   23.7560 N   0  0  0  0  0  0  0  0  0  0  0  0
  -26.0370  -38.3420   23.9010 H   0  0  0  0  0  0  0  0  0  0  0  0
  1  3  2  0
  2  8  1  0
  2  1  1  0
  4  2  1  0
  5  6  1  0
  7  5  2  0
  8  6  2  0
  9  7  1  0
  9  8  1  0
 10  7  1  0
 10 11  2  0
 12 11  1  0
 13 18  1  0
 14 15  1  0
 14 13  1  0
 16 15  1  0
 16 23  1  0
 16 17  1  0
 18 12  1  0
 18 17  1  0
 19 12  2  0
 20 21  2  0
 21 40  1  0
 22 21  1  0
 22 25  1  0
 23 24  1  0
 23 20  1  0
 24 22  2  0
 25 26  1  0
 26 27  2  0
 28 31  1  0
 28 27  1  0
 29 28  2  0
 30 29  1  0
 30 25  2  0
 31 32  1  0
 32 33  1  0
 33 34  2  0
 35 34  1  0
 35 39  1  0
 36 35  2  0
 37 32  2  0
 37 36  1  0
 38 37  1  0
 40 41  1  0
 41 44  1  0
 41 43  1  0
 42 40  2  0
 45 20  1  0
 45 46  1  0
 47 45  1  0
 49 48  2  0
 49  1  1  0
 50 49  1  0
 51 50  1  0
 52 48  1  0
 53 64  2  0
 54 52  1  0
 54 59  1  0
 55 63  1  0
 55 65  1  0
 56 62  1  0
 56 58  1  0
 57 63  1  0
 58 57  1  0
 59 58  2  0
 60 61  1  0
 60 54  2  0
 61 56  2  0
 62 55  1  0
 63 53  1  0
 65 67  2  0
 66 65  1  0
 68 66  1  0
 69 78  2  0
 69 74  1  0
 70 66  1  0
 70 74  1  0
 71 70  1  0
 72 73  1  0
 72 71  1  0
 73 69  1  0
 74 75  2  0
 75 76  1  0
 77 76  2  0
 78 77  1  0
 79 53  1  0
 79 84  1  0
 79 80  1  0
 80 83  1  1
 80 81  1  0
 82 80  1  0
 84 87  1  0
 85 89  1  0
 85 84  1  0
 86 85  2  0
 89 88  1  0
 91 89  1  0
 91 92  1  0
 91 90  1  0
M  ISO  4  11 100  12 100  48 101  52 101
M  END
>  <TORSDO>  (86) 
F 20

>  <SCORE>  (86) 
-12.623

>  <name>  (86) 
85

>  <ligand_id>  (86) 
85

>  <original_smiles>  (86) 
[H]OC(C(=O)N([H])c1sc(C([H])=C([H])C(=O)N2C([H])([H])C([H])([H])C([H])([H])C([H])(n3nc(-c4c([H])c([H])c(Oc5c([H])c([H])c(F)c([H])c5F)c([H])c4[H])c(C(=O)N([H])[H])c3N([H])[H])C2([H])[H])c([H])c1[H])=C([H])Oc1c([H])c([H])c2c(c1[H])C([H])([H])N(C(=O)C([H])(N([H])C(=O)C([H])(N([H])C([H])([H])[H])C([H])([H])[H])C(C([H])([H])[H])(C([H])([H])[H])C([H])([H])[H])C([H])(C(=O)N([H])C1([H])c3c([H])c([H])c([H])c([H])c3C([H])([H])C([H])([H])C1([H])[H])C2([H])[H]

>  <smiles>  (86) 
[H]OC(C(=O)N([H])c1sc(C([H])=C([H])C(=O)N2C([H])([H])C([H])([H])C([H])([H])C([H])(n3nc(-c4c([H])c([H])c(Oc5c([H])c([H])c(F)c([H])c5F)c([H])c4[H])c(C(=O)N([H])[H])c3N([H])[H])C2([H])[H])c([H])c1[H])=C([H])Oc1c([H])c([H])c2c(c1[H])C([H])([H])N(C(=O)C([H])(N([H])C(=O)C([H])(N([H])C([H])([H])[H])C([H])([H])[H])C(C([H])([H])[H])(C([H])([H])[H])C([H])([H])[H])C([H])(C(=O)N([H])C1([H])c3c([H])c([H])c([H])c([H])c3C([H])([H])C([H])([H])C1([H])[H])C2([H])[H]

$$$$
86:0:0
     RDKit          3D

 95103  0  0  1  0  0  0  0  0999 V2000
  -29.1340  -18.2990   21.1600 C   0  0  0  0  0  3  0  0  0  0  0  0
  -29.8630  -17.4130   20.3080 C   0  0  0  0  0  0  0  0  0  0  0  0
  -30.4720  -18.1020   19.2230 C   0  0  0  0  0  0  0  0  0  0  0  0
  -30.3040  -19.5200   19.0410 C   0  0  0  0  0  0  0  0  0  0  0  0
  -29.5370  -20.3200   19.9420 C   0  0  0  0  0  0  0  0  0  0  0  0
  -28.9400  -22.9500   20.1370 C   0  0  0  0  0  0  0  0  0  0  0  0
  -28.9810  -19.6630   21.0050 N   0  0  0  0  0  0  0  0  0  0  0  0
  -29.3480  -21.7470   19.5610 N   0  0  0  0  0  0  0  0  0  0  0  0
  -28.7480  -23.0740   21.3480 O   0  0  0  0  0  0  0  0  0  0  0  0
  -31.1740  -17.4070   18.2950 F   0  0  0  0  0  0  0  0  0  0  0  0
  -30.8690  -20.1170   17.9600 F   0  0  0  0  0  0  0  0  0  0  0  0
  -29.5570  -21.9070   18.5830 H   0  0  0  0  0  0  0  0  0  0  0  0
  -30.6160  -14.8610   20.0980 C   0  0  0  0  0  0  0  0  0  0  0  0
  -30.4120  -12.5860   19.0710 C   0  0  0  0  0  2  0  0  0  0  0  0
  -29.4160  -12.6700   17.8920 C   0  0  0  0  0  2  0  0  0  0  0  0
  -27.9680  -12.4810   18.3840 C   0  0  0  0  0  2  0  0  0  0  0  0
  -27.6460  -13.3480   19.6310 C   0  0  0  0  0  3  0  0  0  0  0  0
  -28.7540  -13.2350   20.7020 C   0  0  0  0  0  2  0  0  0  0  0  0
  -30.0250  -13.6150   20.0650 N   0  0  0  0  0  0  0  0  0  0  0  0
  -31.7610  -15.0110   19.6640 O   0  0  0  0  0  0  0  0  0  0  0  0
  -29.8370  -15.9300   20.5240 N   0  0  0  0  0  0  0  0  0  0  0  0
  -29.0190  -15.6090   21.0220 H   0  0  0  0  0  0  0  0  0  0  0  0
  -25.2930  -13.9240   20.4780 C   0  0  0  0  0  0  0  0  0  0  0  0
  -24.2440  -13.1430   20.8810 C   0  0  0  0  0  0  0  0  0  0  0  0
  -24.7030  -11.7930   20.8000 C   0  0  0  0  0  0  0  0  0  0  0  0
  -26.3240  -13.0490   20.1740 N   0  0  0  0  0  0  0  0  0  0  0  0
  -25.9780  -11.7600   20.4290 N   0  0  0  0  0  0  0  0  0  0  0  0
  -23.9840  -10.5260   20.9960 C   0  0  0  0  0  0  0  0  0  0  0  0
  -24.4380   -9.5530   21.9120 C   0  0  0  0  0  3  0  0  0  0  0  0
  -23.7180   -8.3530   22.0970 C   0  0  0  0  0  3  0  0  0  0  0  0
  -22.5290   -8.1170   21.3670 C   0  0  0  0  0  0  0  0  0  0  0  0
  -22.0940   -9.0810   20.4390 C   0  0  0  0  0  3  0  0  0  0  0  0
  -22.8150  -10.2710   20.2510 C   0  0  0  0  0  3  0  0  0  0  0  0
  -21.7790   -6.9700   21.4610 O   0  0  0  0  0  0  0  0  0  0  0  0
  -21.7330   -6.2350   22.6190 C   0  0  0  0  0  0  0  0  0  0  0  0
  -21.2610   -6.7830   23.8310 C   0  0  0  0  0  3  0  0  0  0  0  0
  -21.1640   -5.9710   24.9790 C   0  0  0  0  0  3  0  0  0  0  0  0
  -21.5290   -4.6130   24.9160 C   0  0  0  0  0  0  0  0  0  0  0  0
  -21.9950   -4.0640   23.7080 C   0  0  0  0  0  3  0  0  0  0  0  0
  -22.0940   -4.8730   22.5620 C   0  0  0  0  0  0  0  0  0  0  0  0
  -22.5220   -4.3350   21.3950 F   0  0  0  0  0  0  0  0  0  0  0  0
  -21.4300   -3.8310   26.0170 F   0  0  0  0  0  0  0  0  0  0  0  0
  -22.8620  -13.6160   21.2270 C   0  0  0  0  0  0  0  0  0  0  0  0
  -22.1700  -12.8960   22.1040 N   0  0  0  0  0  0  0  0  0  0  0  0
  -22.4060  -14.6560   20.7560 O   0  0  0  0  0  0  0  0  0  0  0  0
  -22.5520  -12.0530   22.5060 H   0  0  0  0  0  0  0  0  0  0  0  0
  -21.2440  -13.1940   22.3770 H   0  0  0  0  0  0  0  0  0  0  0  0
  -25.4510  -15.2980   20.3210 N   0  0  0  0  0  0  0  0  0  0  0  0
  -24.6850  -15.9450   20.4670 H   0  0  0  0  0  0  0  0  0  0  0  0
  -26.2670  -15.7370   19.9140 H   0  0  0  0  0  0  0  0  0  0  0  0
  -28.4500  -25.4290   19.2150 C   0  0  0  0  0  3  0  0  0  0  0  0
  -28.7660  -24.0660   19.1230 C   0  0  0  0  0  0  0  0  0  0  0  0
  -28.9390  -23.6530   17.8530 O   0  0  0  0  0  0  0  0  0  0  0  0
  -28.8000  -24.4000   17.2860 H   0  0  0  0  0  0  0  0  0  0  0  0
  -28.2220  -26.3900   20.2320 O   0  0  0  0  0  0  0  0  0  0  0  0
  -24.5280  -31.8740   23.2550 C   0  0  0  0  0  0  0  0  0  0  0  0
  -27.1560  -27.3210   20.1320 C   0  0  0  0  0  0  0  0  0  0  0  0
  -23.3320  -30.4950   21.5950 C   0  0  0  0  0  3  0  0  0  0  0  0
  -24.7910  -28.9660   20.1420 C   0  0  0  0  0  0  0  0  0  0  0  0
  -25.8770  -30.8070   21.4250 C   0  0  0  0  0  2  0  0  0  0  0  0
  -25.9610  -29.4350   20.7540 C   0  0  0  0  0  0  0  0  0  0  0  0
  -27.1430  -28.6220   20.7430 C   0  0  0  0  0  3  0  0  0  0  0  0
  -25.9570  -26.9180   19.5000 C   0  0  0  0  0  3  0  0  0  0  0  0
  -24.7950  -27.7150   19.5060 C   0  0  0  0  0  3  0  0  0  0  0  0
  -23.5520  -29.8400   20.2050 C   0  0  0  0  0  2  0  0  0  0  0  0
  -24.5980  -31.0770   22.1480 N   0  0  0  0  0  0  0  0  0  0  0  0
  -23.4430  -32.1420   23.7910 O   0  0  0  0  0  0  0  0  0  0  0  0
  -22.6670  -29.4670   22.5410 C   0  0  0  0  0  0  0  0  0  0  0  0
  -21.3400  -29.2920   22.4140 N   0  0  0  0  0  0  0  0  0  0  0  0
  -23.3450  -28.8290   23.3520 O   0  0  0  0  0  0  0  0  0  0  0  0
  -20.8520  -29.8580   21.7340 H   0  0  0  0  0  0  0  0  0  0  0  0
  -17.9600  -28.0970   22.9090 C   0  0  0  0  0  0  0  0  0  0  0  0
  -20.5210  -28.3440   23.1710 C   0  0  0  0  0  3  0  0  0  0  0  0
  -20.6140  -26.9230   22.5690 C   0  0  0  0  0  2  0  0  0  0  0  0
  -19.5070  -26.6220   21.5540 C   0  0  0  0  0  2  0  0  0  0  0  0
  -18.1280  -26.7600   22.2080 C   0  0  0  0  0  2  0  0  0  0  0  0
  -19.0820  -28.8480   23.3480 C   0  0  0  0  0  0  0  0  0  0  0  0
  -18.8690  -30.1000   23.9640 C   0  0  0  0  0  3  0  0  0  0  0  0
  -17.5670  -30.6010   24.1470 C   0  0  0  0  0  3  0  0  0  0  0  0
  -16.4580  -29.8460   23.7260 C   0  0  0  0  0  3  0  0  0  0  0  0
  -16.6550  -28.5970   23.1110 C   0  0  0  0  0  3  0  0  0  0  0  0
  -25.8070  -32.5040   23.8890 C   0  0  0  0  0  3  0  0  0  0  0  0
  -25.5060  -33.9100   24.1930 N   0  0  0  0  0  0  0  0  0  0  0  0
  -25.8560  -34.9500   23.4230 C   0  0  0  0  0  0  0  0  0  0  0  0
  -26.5350  -34.8230   22.3990 O   0  0  0  0  0  0  0  0  0  0  0  0
  -24.9040  -34.0820   24.9850 H   0  0  0  0  0  0  0  0  0  0  0  0
  -24.1610  -36.7640   23.0160 C   0  0  0  0  0  1  0  0  0  0  0  0
  -25.3810  -36.3500   23.8560 C   0  0  0  0  0  3  0  0  0  0  0  0
  -27.5050  -37.2240   24.7260 C   0  0  0  0  0  1  0  0  0  0  0  0
  -26.4300  -37.3880   23.7500 N   0  0  0  0  0  0  0  0  0  0  0  0
  -26.0330  -38.3150   23.8680 H   0  0  0  0  0  0  0  0  0  0  0  0
  -26.2910  -31.7480   25.1870 C   0  0  1  0  0  0  0  0  0  0  0  0
  -25.1760  -31.5400   26.2390 C   0  0  0  0  0  1  0  0  0  0  0  0
  -26.8670  -30.3590   24.8320 C   0  0  0  0  0  1  0  0  0  0  0  0
  -27.4370  -32.5430   25.8570 C   0  0  0  0  0  1  0  0  0  0  0  0
  2 21  1  0
  2  1  2  0
  3  2  1  0
  4  3  2  0
  4  5  1  0
  5  7  2  0
  6  9  2  0
  7  1  1  0
  8  5  1  0
  8  6  1  0
 10  3  1  0
 11  4  1  0
 12  8  1  0
 13 21  1  0
 14 19  1  0
 15 16  1  0
 15 14  1  0
 17 16  1  0
 17 26  1  0
 17 18  1  0
 19 13  1  0
 19 18  1  0
 20 13  2  0
 21 22  1  0
 23 24  2  0
 24 43  1  0
 25 24  1  0
 25 28  1  0
 26 27  1  0
 26 23  1  0
 27 25  2  0
 28 29  1  0
 29 30  2  0
 31 34  1  0
 31 30  1  0
 32 31  2  0
 33 32  1  0
 33 28  2  0
 34 35  1  0
 35 36  1  0
 36 37  2  0
 38 37  1  0
 38 42  1  0
 39 38  2  0
 40 35  2  0
 40 39  1  0
 41 40  1  0
 43 44  1  0
 44 47  1  0
 44 46  1  0
 45 43  2  0
 48 49  1  0
 48 23  1  0
 50 48  1  0
 51 55  1  0
 52 51  2  0
 52  6  1  0
 53 52  1  0
 54 53  1  0
 56 67  2  0
 57 55  1  0
 57 62  1  0
 58 66  1  0
 58 68  1  0
 59 65  1  0
 59 61  1  0
 60 66  1  0
 61 60  1  0
 62 61  2  0
 63 64  1  0
 63 57  2  0
 64 59  2  0
 65 58  1  0
 66 56  1  0
 68 70  2  0
 69 68  1  0
 71 69  1  0
 72 81  2  0
 72 77  1  0
 73 69  1  0
 73 77  1  0
 74 73  1  0
 75 76  1  0
 75 74  1  0
 76 72  1  0
 77 78  2  0
 78 79  1  0
 80 79  2  0
 81 80  1  0
 82 56  1  0
 82 83  1  0
 82 92  1  0
 83 86  1  0
 84 88  1  0
 84 83  1  0
 85 84  2  0
 88 87  1  0
 90 88  1  0
 90 91  1  0
 90 89  1  0
 92 95  1  1
 92 93  1  0
 94 92  1  0
M  ISO  4  13 100  21 100  51 101  55 101
M  END
>  <TORSDO>  (87) 
F 18

>  <SCORE>  (87) 
-14.524

>  <name>  (87) 
86

>  <ligand_id>  (87) 
86

>  <original_smiles>  (87) 
[H]OC(C(=O)N([H])c1nc([H])c(N([H])C(=O)N2C([H])([H])C([H])([H])C([H])([H])C([H])(n3nc(-c4c([H])c([H])c(Oc5c([H])c([H])c(F)c([H])c5F)c([H])c4[H])c(C(=O)N([H])[H])c3N([H])[H])C2([H])[H])c(F)c1F)=C([H])Oc1c([H])c([H])c2c(c1[H])C([H])([H])N(C(=O)C([H])(N([H])C(=O)C([H])(N([H])C([H])([H])[H])C([H])([H])[H])C(C([H])([H])[H])(C([H])([H])[H])C([H])([H])[H])C([H])(C(=O)N([H])C1([H])c3c([H])c([H])c([H])c([H])c3C([H])([H])C([H])([H])C1([H])[H])C2([H])[H]

>  <smiles>  (87) 
[H]OC(C(=O)N([H])c1nc([H])c(N([H])C(=O)N2C([H])([H])C([H])([H])C([H])([H])C([H])(n3nc(-c4c([H])c([H])c(Oc5c([H])c([H])c(F)c([H])c5F)c([H])c4[H])c(C(=O)N([H])[H])c3N([H])[H])C2([H])[H])c(F)c1F)=C([H])Oc1c([H])c([H])c2c(c1[H])C([H])([H])N(C(=O)C([H])(N([H])C(=O)C([H])(N([H])C([H])([H])[H])C([H])([H])[H])C(C([H])([H])[H])(C([H])([H])[H])C([H])([H])[H])C([H])(C(=O)N([H])C1([H])c3c([H])c([H])c([H])c([H])c3C([H])([H])C([H])([H])C1([H])[H])C2([H])[H]

$$$$
87:0:0
     RDKit          3D

 94102  0  0  1  0  0  0  0  0999 V2000
  -29.0890  -22.4880   20.3350 C   0  0  0  0  0  3  0  0  0  0  0  0
  -28.8050  -21.2030   19.8830 C   0  0  0  0  0  0  0  0  0  0  0  0
  -30.5520  -14.7500   20.3730 C   0  0  0  0  0  0  0  0  0  0  0  0
  -30.3990  -12.4710   19.3560 C   0  0  0  0  0  2  0  0  0  0  0  0
  -29.4550  -12.5500   18.1350 C   0  0  0  0  0  2  0  0  0  0  0  0
  -27.9860  -12.3690   18.5670 C   0  0  0  0  0  2  0  0  0  0  0  0
  -27.6090  -13.2550   19.7840 C   0  0  0  0  0  3  0  0  0  0  0  0
  -28.6670  -13.1450   20.9050 C   0  0  0  0  0  2  0  0  0  0  0  0
  -29.9660  -13.5070   20.3200 N   0  0  0  0  0  0  0  0  0  0  0  0
  -31.7360  -14.8930   20.0460 O   0  0  0  0  0  0  0  0  0  0  0  0
  -29.3780  -19.8450   20.1940 C   0  0  0  0  0  0  0  0  0  0  0  0
  -30.6740  -19.4410   20.5020 C   0  0  0  0  0  0  0  0  0  0  0  0
  -29.7820  -17.2820   20.4520 C   0  0  0  0  0  0  0  0  0  0  0  0
  -30.8840  -18.0360   20.6280 N   0  0  0  0  0  0  0  0  0  0  0  0
  -29.6910  -15.8120   20.5830 N   0  0  0  0  0  0  0  0  0  0  0  0
  -28.3800  -18.3610   20.1310 S   0  0  0  0  0  0  0  0  0  0  0  0
  -28.7510  -15.4910   20.7480 H   0  0  0  0  0  0  0  0  0  0  0  0
  -25.2200  -13.8540   20.5080 C   0  0  0  0  0  0  0  0  0  0  0  0
  -24.1540  -13.0810   20.8810 C   0  0  0  0  0  0  0  0  0  0  0  0
  -24.6170  -11.7290   20.8520 C   0  0  0  0  0  0  0  0  0  0  0  0
  -26.2640  -12.9720   20.2730 N   0  0  0  0  0  0  0  0  0  0  0  0
  -25.9070  -11.6900   20.5440 N   0  0  0  0  0  0  0  0  0  0  0  0
  -23.8920  -10.4660   21.0440 C   0  0  0  0  0  0  0  0  0  0  0  0
  -24.3280   -9.4990   21.9760 C   0  0  0  0  0  3  0  0  0  0  0  0
  -23.6020   -8.3020   22.1560 C   0  0  0  0  0  3  0  0  0  0  0  0
  -22.4280   -8.0620   21.4030 C   0  0  0  0  0  0  0  0  0  0  0  0
  -22.0130   -9.0180   20.4600 C   0  0  0  0  0  3  0  0  0  0  0  0
  -22.7380  -10.2080   20.2780 C   0  0  0  0  0  3  0  0  0  0  0  0
  -21.6760   -6.9160   21.4910 O   0  0  0  0  0  0  0  0  0  0  0  0
  -21.6330   -6.1700   22.6400 C   0  0  0  0  0  0  0  0  0  0  0  0
  -21.2120   -6.7210   23.8710 C   0  0  0  0  0  3  0  0  0  0  0  0
  -21.1170   -5.9020   25.0130 C   0  0  0  0  0  3  0  0  0  0  0  0
  -21.4320   -4.5330   24.9270 C   0  0  0  0  0  0  0  0  0  0  0  0
  -21.8450   -3.9810   23.7020 C   0  0  0  0  0  3  0  0  0  0  0  0
  -21.9430   -4.7980   22.5610 C   0  0  0  0  0  0  0  0  0  0  0  0
  -22.3220   -4.2560   21.3780 F   0  0  0  0  0  0  0  0  0  0  0  0
  -21.3330   -3.7440   26.0220 F   0  0  0  0  0  0  0  0  0  0  0  0
  -22.7570  -13.5570   21.1500 C   0  0  0  0  0  0  0  0  0  0  0  0
  -22.0250  -12.8600   22.0130 N   0  0  0  0  0  0  0  0  0  0  0  0
  -22.3190  -14.5820   20.6290 O   0  0  0  0  0  0  0  0  0  0  0  0
  -22.3900  -12.0300   22.4570 H   0  0  0  0  0  0  0  0  0  0  0  0
  -21.0880  -13.1620   22.2350 H   0  0  0  0  0  0  0  0  0  0  0  0
  -25.3800  -15.2250   20.3270 N   0  0  0  0  0  0  0  0  0  0  0  0
  -24.6000  -15.8650   20.4240 H   0  0  0  0  0  0  0  0  0  0  0  0
  -26.1990  -15.6630   19.9270 H   0  0  0  0  0  0  0  0  0  0  0  0
  -31.7750  -20.2860   20.6490 N   0  0  0  0  0  0  0  0  0  0  0  0
  -31.7100  -21.2410   20.3170 H   0  0  0  0  0  0  0  0  0  0  0  0
  -32.7080  -19.8910   20.5990 H   0  0  0  0  0  0  0  0  0  0  0  0
  -28.5230  -23.8360   19.8130 C   0  0  0  0  0  0  0  0  0  0  0  0
  -28.2950  -24.0000   18.6100 O   0  0  0  0  0  0  0  0  0  0  0  0
  -28.2230  -25.0860   20.7580 C   0  0  0  0  0  2  0  0  0  0  0  0
  -28.3460  -26.4620   20.1790 O   0  0  0  0  0  0  0  0  0  0  0  0
  -24.6040  -31.8810   23.2300 C   0  0  0  0  0  0  0  0  0  0  0  0
  -27.2240  -27.3080   20.1910 C   0  0  0  0  0  0  0  0  0  0  0  0
  -23.4020  -30.4760   21.5940 C   0  0  0  0  0  3  0  0  0  0  0  0
  -24.8570  -28.9190   20.1740 C   0  0  0  0  0  0  0  0  0  0  0  0
  -25.9400  -30.7990   21.4060 C   0  0  0  0  0  2  0  0  0  0  0  0
  -26.0250  -29.4160   20.7640 C   0  0  0  0  0  0  0  0  0  0  0  0
  -27.2160  -28.6250   20.7540 C   0  0  0  0  0  3  0  0  0  0  0  0
  -26.0330  -26.8590   19.5870 C   0  0  0  0  0  3  0  0  0  0  0  0
  -24.8630  -27.6480   19.5750 C   0  0  0  0  0  3  0  0  0  0  0  0
  -23.6170  -29.7910   20.2180 C   0  0  0  0  0  2  0  0  0  0  0  0
  -24.6680  -31.0700   22.1330 N   0  0  0  0  0  0  0  0  0  0  0  0
  -23.5190  -32.1580   23.7660 O   0  0  0  0  0  0  0  0  0  0  0  0
  -22.7410  -29.4620   22.5590 C   0  0  0  0  0  0  0  0  0  0  0  0
  -21.4150  -29.2870   22.4370 N   0  0  0  0  0  0  0  0  0  0  0  0
  -23.4220  -28.8360   23.3750 O   0  0  0  0  0  0  0  0  0  0  0  0
  -20.9240  -29.8450   21.7510 H   0  0  0  0  0  0  0  0  0  0  0  0
  -18.0380  -28.0950   22.9500 C   0  0  0  0  0  0  0  0  0  0  0  0
  -20.5970  -28.3500   23.2110 C   0  0  0  0  0  3  0  0  0  0  0  0
  -20.6950  -26.9180   22.6320 C   0  0  0  0  0  2  0  0  0  0  0  0
  -19.5880  -26.5980   21.6230 C   0  0  0  0  0  2  0  0  0  0  0  0
  -18.2090  -26.7460   22.2720 C   0  0  0  0  0  2  0  0  0  0  0  0
  -19.1590  -28.8540   23.3770 C   0  0  0  0  0  0  0  0  0  0  0  0
  -18.9440  -30.1170   23.9720 C   0  0  0  0  0  3  0  0  0  0  0  0
  -17.6420  -30.6200   24.1440 C   0  0  0  0  0  3  0  0  0  0  0  0
  -16.5350  -29.8560   23.7350 C   0  0  0  0  0  3  0  0  0  0  0  0
  -16.7330  -28.5970   23.1430 C   0  0  0  0  0  3  0  0  0  0  0  0
  -25.8860  -32.5190   23.8520 C   0  0  0  0  0  3  0  0  0  0  0  0
  -26.4030  -31.7540   25.1320 C   0  0  1  0  0  0  0  0  0  0  0  0
  -25.3080  -31.5200   26.2010 C   0  0  0  0  0  1  0  0  0  0  0  0
  -26.9880  -30.3760   24.7460 C   0  0  0  0  0  1  0  0  0  0  0  0
  -27.5520  -32.5520   25.7910 C   0  0  0  0  0  1  0  0  0  0  0  0
  -25.5750  -33.9190   24.1790 N   0  0  0  0  0  0  0  0  0  0  0  0
  -25.9070  -34.9700   23.4200 C   0  0  0  0  0  0  0  0  0  0  0  0
  -26.5780  -34.8660   22.3890 O   0  0  0  0  0  0  0  0  0  0  0  0
  -24.9840  -34.0740   24.9830 H   0  0  0  0  0  0  0  0  0  0  0  0
  -24.1860  -36.7660   23.0550 C   0  0  0  0  0  1  0  0  0  0  0  0
  -25.4200  -36.3590   23.8750 C   0  0  0  0  0  3  0  0  0  0  0  0
  -27.5510  -37.2390   24.7200 C   0  0  0  0  0  1  0  0  0  0  0  0
  -26.4550  -37.4110   23.7710 N   0  0  0  0  0  0  0  0  0  0  0  0
  -26.0500  -38.3310   23.9160 H   0  0  0  0  0  0  0  0  0  0  0  0
  -27.8680  -21.0850   18.9270 O   0  0  0  0  0  0  0  0  0  0  0  0
  -27.7810  -20.1650   18.7150 H   0  0  0  0  0  0  0  0  0  0  0  0
  2 11  1  0
  2  1  2  0
  3 15  1  0
  4  9  1  0
  5  6  1  0
  5  4  1  0
  7  6  1  0
  7 21  1  0
  7  8  1  0
  9  3  1  0
  9  8  1  0
 10  3  2  0
 11 12  2  0
 12 14  1  0
 12 46  1  0
 13 15  1  0
 13 14  2  0
 15 17  1  0
 16 11  1  0
 16 13  1  0
 18 19  2  0
 19 38  1  0
 20 19  1  0
 20 23  1  0
 21 18  1  0
 21 22  1  0
 22 20  2  0
 23 24  1  0
 24 25  2  0
 26 29  1  0
 26 25  1  0
 27 26  2  0
 28 27  1  0
 28 23  2  0
 29 30  1  0
 30 31  1  0
 31 32  2  0
 33 32  1  0
 33 37  1  0
 34 33  2  0
 35 30  2  0
 35 34  1  0
 36 35  1  0
 38 39  1  0
 39 42  1  0
 39 41  1  0
 40 38  2  0
 43 44  1  0
 43 18  1  0
 45 43  1  0
 47 46  1  0
 48 46  1  0
 49  1  1  0
 49 51  1  0
 50 49  2  0
 52 54  1  0
 52 51  1  0
 53 64  2  0
 54 59  1  0
 55 63  1  0
 55 65  1  0
 56 62  1  0
 56 58  1  0
 57 63  1  0
 58 57  1  0
 59 58  2  0
 60 54  2  0
 61 60  1  0
 61 56  2  0
 62 55  1  0
 63 53  1  0
 65 67  2  0
 66 65  1  0
 68 66  1  0
 69 78  2  0
 69 74  1  0
 70 66  1  0
 70 74  1  0
 71 70  1  0
 72 73  1  0
 72 71  1  0
 73 69  1  0
 74 75  2  0
 75 76  1  0
 77 76  2  0
 78 77  1  0
 79 53  1  0
 79 84  1  0
 79 80  1  0
 80 83  1  1
 80 81  1  0
 82 80  1  0
 84 87  1  0
 85 89  1  0
 85 84  1  0
 86 85  2  0
 89 88  1  0
 91 89  1  0
 91 92  1  0
 91 90  1  0
 93  2  1  0
 94 93  1  0
M  ISO  4   3 100  15 100  51 101  52 101
M  END
>  <TORSDO>  (88) 
F 20

>  <SCORE>  (88) 
-14.410

>  <name>  (88) 
87

>  <ligand_id>  (88) 
87

>  <original_smiles>  (88) 
[H]OC(=C([H])C(=O)C([H])([H])Oc1c([H])c([H])c2c(c1[H])C([H])([H])N(C(=O)C([H])(N([H])C(=O)C([H])(N([H])C([H])([H])[H])C([H])([H])[H])C(C([H])([H])[H])(C([H])([H])[H])C([H])([H])[H])C([H])(C(=O)N([H])C1([H])c3c([H])c([H])c([H])c([H])c3C([H])([H])C([H])([H])C1([H])[H])C2([H])[H])c1sc(N([H])C(=O)N2C([H])([H])C([H])([H])C([H])([H])C([H])(n3nc(-c4c([H])c([H])c(Oc5c([H])c([H])c(F)c([H])c5F)c([H])c4[H])c(C(=O)N([H])[H])c3N([H])[H])C2([H])[H])nc1N([H])[H]

>  <smiles>  (88) 
[H]OC(=C([H])C(=O)C([H])([H])Oc1c([H])c([H])c2c(c1[H])C([H])([H])N(C(=O)C([H])(N([H])C(=O)C([H])(N([H])C([H])([H])[H])C([H])([H])[H])C(C([H])([H])[H])(C([H])([H])[H])C([H])([H])[H])C([H])(C(=O)N([H])C1([H])c3c([H])c([H])c([H])c([H])c3C([H])([H])C([H])([H])C1([H])[H])C2([H])[H])c1sc(N([H])C(=O)N2C([H])([H])C([H])([H])C([H])([H])C([H])(n3nc(-c4c([H])c([H])c(Oc5c([H])c([H])c(F)c([H])c5F)c([H])c4[H])c(C(=O)N([H])[H])c3N([H])[H])C2([H])[H])nc1N([H])[H]

$$$$
88:0:0
     RDKit          3D

 98106  0  0  1  0  0  0  0  0999 V2000
  -29.6630  -21.2040   19.4340 C   0  0  0  0  0  3  0  0  0  0  0  0
  -31.0310  -19.6000   18.4250 C   0  0  0  0  0  3  0  0  0  0  0  0
  -30.0150  -19.8270   19.3090 C   0  0  0  0  0  0  0  0  0  0  0  0
  -30.3990  -22.0250   18.6080 C   0  0  0  0  0  0  0  0  0  0  0  0
  -31.5650  -21.0880   17.6940 S   0  0  0  0  0  0  0  0  0  0  0  0
  -29.6330  -24.2910   19.1110 C   0  0  0  0  0  0  0  0  0  0  0  0
  -30.2810  -23.3610   18.3860 N   0  0  0  0  0  0  0  0  0  0  0  0
  -29.2180  -24.0790   20.2530 O   0  0  0  0  0  0  0  0  0  0  0  0
  -30.6670  -23.7230   17.5230 H   0  0  0  0  0  0  0  0  0  0  0  0
  -28.9000  -26.6430   18.8790 C   0  0  0  0  0  3  0  0  0  0  0  0
  -29.5270  -25.5580   18.3740 C   0  0  0  0  0  0  0  0  0  0  0  0
  -30.0530  -25.6380   17.1360 O   0  0  0  0  0  0  0  0  0  0  0  0
  -29.8440  -26.4960   16.7900 H   0  0  0  0  0  0  0  0  0  0  0  0
  -28.3050  -26.7210   20.1110 O   0  0  0  0  0  0  0  0  0  0  0  0
  -24.6350  -31.8870   23.3790 C   0  0  0  0  0  0  0  0  0  0  0  0
  -27.1520  -27.4640   20.1750 C   0  0  0  0  0  0  0  0  0  0  0  0
  -23.3790  -30.5420   21.7240 C   0  0  0  0  0  3  0  0  0  0  0  0
  -24.7830  -28.9950   20.2600 C   0  0  0  0  0  0  0  0  0  0  0  0
  -25.9110  -30.8450   21.5140 C   0  0  0  0  0  2  0  0  0  0  0  0
  -25.9560  -29.4860   20.8470 C   0  0  0  0  0  0  0  0  0  0  0  0
  -27.1440  -28.7230   20.8100 C   0  0  0  0  0  3  0  0  0  0  0  0
  -25.9630  -26.9730   19.5960 C   0  0  0  0  0  3  0  0  0  0  0  0
  -24.7780  -27.7320   19.6370 C   0  0  0  0  0  3  0  0  0  0  0  0
  -23.5610  -29.8810   20.3310 C   0  0  0  0  0  2  0  0  0  0  0  0
  -24.6600  -31.1050   22.2640 N   0  0  0  0  0  0  0  0  0  0  0  0
  -23.5670  -32.1760   23.9360 O   0  0  0  0  0  0  0  0  0  0  0  0
  -22.7150  -29.5210   22.6740 C   0  0  0  0  0  0  0  0  0  0  0  0
  -21.3920  -29.3410   22.5290 N   0  0  0  0  0  0  0  0  0  0  0  0
  -23.3860  -28.8910   23.4970 O   0  0  0  0  0  0  0  0  0  0  0  0
  -20.9150  -29.8980   21.8340 H   0  0  0  0  0  0  0  0  0  0  0  0
  -18.0140  -28.1170   22.9370 C   0  0  0  0  0  0  0  0  0  0  0  0
  -20.5600  -28.4050   23.2850 C   0  0  0  0  0  3  0  0  0  0  0  0
  -20.6940  -26.9690   22.7290 C   0  0  0  0  0  2  0  0  0  0  0  0
  -19.6270  -26.6230   21.6860 C   0  0  0  0  0  2  0  0  0  0  0  0
  -18.2240  -26.7630   22.2840 C   0  0  0  0  0  2  0  0  0  0  0  0
  -19.1110  -28.8970   23.3910 C   0  0  0  0  0  0  0  0  0  0  0  0
  -18.8620  -30.1660   23.9590 C   0  0  0  0  0  3  0  0  0  0  0  0
  -17.5490  -30.6550   24.0780 C   0  0  0  0  0  3  0  0  0  0  0  0
  -16.4650  -29.8740   23.6410 C   0  0  0  0  0  3  0  0  0  0  0  0
  -16.6980  -28.6070   23.0760 C   0  0  0  0  0  3  0  0  0  0  0  0
  -25.9450  -32.4730   23.9960 C   0  0  0  0  0  3  0  0  0  0  0  0
  -25.6720  -33.8670   24.3650 N   0  0  0  0  0  0  0  0  0  0  0  0
  -26.0060  -34.9320   23.6210 C   0  0  0  0  0  0  0  0  0  0  0  0
  -26.6480  -34.8400   22.5710 O   0  0  0  0  0  0  0  0  0  0  0  0
  -25.1050  -34.0140   25.1880 H   0  0  0  0  0  0  0  0  0  0  0  0
  -24.3070  -36.7620   23.3450 C   0  0  0  0  0  1  0  0  0  0  0  0
  -25.5570  -36.3170   24.1210 C   0  0  0  0  0  3  0  0  0  0  0  0
  -27.7160  -37.1510   24.9370 C   0  0  0  0  0  1  0  0  0  0  0  0
  -26.6050  -37.3530   24.0100 N   0  0  0  0  0  0  0  0  0  0  0  0
  -26.2170  -38.2770   24.1760 H   0  0  0  0  0  0  0  0  0  0  0  0
  -26.4670  -31.6570   25.2420 C   0  0  1  0  0  0  0  0  0  0  0  0
  -25.3860  -31.4060   26.3210 C   0  0  0  0  0  1  0  0  0  0  0  0
  -27.0230  -30.2820   24.8040 C   0  0  0  0  0  1  0  0  0  0  0  0
  -27.6400  -32.4140   25.9080 C   0  0  0  0  0  1  0  0  0  0  0  0
  -28.0360  -19.2660   20.9370 O   0  0  0  0  0  0  0  0  0  0  0  0
  -28.7860  -17.5320   19.2300 O   0  0  0  0  0  0  0  0  0  0  0  0
  -29.1220  -18.5840   20.2080 S   0  0  1  0  0  0  0  0  0  0  0  0
  -30.3400  -17.9300   21.4330 C   0  0  0  0  0  2  0  0  0  0  0  0
  -30.4570  -15.4390   20.8430 C   0  0  0  0  0  3  0  0  0  0  0  0
  -31.0270  -16.6660   20.9240 C   0  0  0  0  0  0  0  0  0  0  0  0
  -31.1420  -14.2660   20.2980 C   0  0  0  0  0  0  0  0  0  0  0  0
  -30.8090  -12.0150   19.3530 C   0  0  0  0  0  2  0  0  0  0  0  0
  -29.8910  -12.1260   18.1210 C   0  0  0  0  0  2  0  0  0  0  0  0
  -28.4050  -12.0650   18.5360 C   0  0  0  0  0  2  0  0  0  0  0  0
  -28.0670  -13.0070   19.7230 C   0  0  0  0  0  3  0  0  0  0  0  0
  -29.1070  -12.8450   20.8560 C   0  0  0  0  0  2  0  0  0  0  0  0
  -30.4410  -13.0970   20.2780 N   0  0  0  0  0  0  0  0  0  0  0  0
  -32.2570  -14.3620   19.7700 O   0  0  0  0  0  0  0  0  0  0  0  0
  -25.6870  -13.7130   20.4150 C   0  0  0  0  0  0  0  0  0  0  0  0
  -24.5940  -12.9830   20.8010 C   0  0  0  0  0  0  0  0  0  0  0  0
  -25.0090  -11.6170   20.7970 C   0  0  0  0  0  0  0  0  0  0  0  0
  -26.7020  -12.7910   20.2040 N   0  0  0  0  0  0  0  0  0  0  0  0
  -26.2950  -11.5270   20.4860 N   0  0  0  0  0  0  0  0  0  0  0  0
  -24.2390  -10.3830   21.0130 C   0  0  0  0  0  0  0  0  0  0  0  0
  -24.6050   -9.4530   22.0100 C   0  0  0  0  0  3  0  0  0  0  0  0
  -23.8410   -8.2830   22.2110 C   0  0  0  0  0  3  0  0  0  0  0  0
  -22.6960   -8.0370   21.4160 C   0  0  0  0  0  0  0  0  0  0  0  0
  -22.3520   -8.9570   20.4090 C   0  0  0  0  0  3  0  0  0  0  0  0
  -23.1170  -10.1160   20.2060 C   0  0  0  0  0  3  0  0  0  0  0  0
  -21.9090   -6.9170   21.5220 O   0  0  0  0  0  0  0  0  0  0  0  0
  -21.7610   -6.2510   22.7140 C   0  0  0  0  0  0  0  0  0  0  0  0
  -21.1900   -6.8690   23.8480 C   0  0  0  0  0  3  0  0  0  0  0  0
  -20.9940   -6.1280   25.0310 C   0  0  0  0  0  3  0  0  0  0  0  0
  -21.3590   -4.7710   25.0810 C   0  0  0  0  0  0  0  0  0  0  0  0
  -21.9210   -4.1500   23.9510 C   0  0  0  0  0  3  0  0  0  0  0  0
  -22.1190   -4.8890   22.7710 C   0  0  0  0  0  0  0  0  0  0  0  0
  -22.6440   -4.2810   21.6790 F   0  0  0  0  0  0  0  0  0  0  0  0
  -21.1620   -4.0560   26.2140 F   0  0  0  0  0  0  0  0  0  0  0  0
  -23.2130  -13.5140   21.0720 C   0  0  0  0  0  0  0  0  0  0  0  0
  -22.4620  -12.8550   21.9460 N   0  0  0  0  0  0  0  0  0  0  0  0
  -22.8100  -14.5480   20.5390 O   0  0  0  0  0  0  0  0  0  0  0  0
  -22.7960  -12.0170   22.3990 H   0  0  0  0  0  0  0  0  0  0  0  0
  -21.5370  -13.1960   22.1670 H   0  0  0  0  0  0  0  0  0  0  0  0
  -25.9010  -15.0740   20.2100 N   0  0  0  0  0  0  0  0  0  0  0  0
  -25.1660  -15.7630   20.3130 H   0  0  0  0  0  0  0  0  0  0  0  0
  -26.7780  -15.4780   19.8940 H   0  0  0  0  0  0  0  0  0  0  0  0
  -32.2960  -16.9510   20.5770 O   0  0  0  0  0  0  0  0  0  0  0  0
  -32.6900  -16.1460   20.2410 H   0  0  0  0  0  0  0  0  0  0  0  0
  2  3  2  0
  3  1  1  0
  3 57  1  0
  4  1  2  0
  5  2  1  0
  5  4  1  0
  6  8  2  0
  7  4  1  0
  7  6  1  0
  9  7  1  0
 10 14  1  0
 11 10  2  0
 11  6  1  0
 12 11  1  0
 13 12  1  0
 14 16  1  0
 15 26  2  0
 16 21  1  0
 17 25  1  0
 17 27  1  0
 18 24  1  0
 18 20  1  0
 19 25  1  0
 20 19  1  0
 21 20  2  0
 22 23  1  0
 22 16  2  0
 23 18  2  0
 24 17  1  0
 25 15  1  0
 27 29  2  0
 28 27  1  0
 30 28  1  0
 31 40  2  0
 31 36  1  0
 32 28  1  0
 32 36  1  0
 33 32  1  0
 34 35  1  0
 34 33  1  0
 35 31  1  0
 36 37  2  0
 37 38  1  0
 39 38  2  0
 40 39  1  0
 41 15  1  0
 41 42  1  0
 41 51  1  0
 42 45  1  0
 43 47  1  0
 43 42  1  0
 44 43  2  0
 47 46  1  0
 49 47  1  0
 49 50  1  0
 49 48  1  0
 51 54  1  1
 51 52  1  0
 53 51  1  0
 56 57  2  0
 57 55  2  0
 57 58  1  1
 59 60  2  0
 60 58  1  0
 61 59  1  0
 62 67  1  0
 63 64  1  0
 63 62  1  0
 65 64  1  0
 65 72  1  0
 65 66  1  0
 67 61  1  0
 67 66  1  0
 68 61  2  0
 69 70  2  0
 70 89  1  0
 71 70  1  0
 71 74  1  0
 72 69  1  0
 72 73  1  0
 73 71  2  0
 74 75  1  0
 75 76  2  0
 77 80  1  0
 77 76  1  0
 78 77  2  0
 79 78  1  0
 79 74  2  0
 80 81  1  0
 81 86  2  0
 81 82  1  0
 82 83  2  0
 83 84  1  0
 84 88  1  0
 85 84  2  0
 86 85  1  0
 87 86  1  0
 89 90  1  0
 90 93  1  0
 90 92  1  0
 91 89  2  0
 94 95  1  0
 94 69  1  0
 96 94  1  0
 97 60  1  0
 98 97  1  0
M  ISO  4  10 101  14 101  59 100  61 100
M  END
>  <TORSDO>  (89) 
F 23

>  <SCORE>  (89) 
-12.794

>  <name>  (89) 
88

>  <ligand_id>  (89) 
88

>  <original_smiles>  (89) 
[H]OC(C(=O)N([H])c1sc([H])c(S(=O)(=O)C([H])([H])C(O[H])=C([H])C(=O)N2C([H])([H])C([H])([H])C([H])([H])C([H])(n3nc(-c4c([H])c([H])c(Oc5c([H])c([H])c(F)c([H])c5F)c([H])c4[H])c(C(=O)N([H])[H])c3N([H])[H])C2([H])[H])c1[H])=C([H])Oc1c([H])c([H])c2c(c1[H])C([H])([H])N(C(=O)C([H])(N([H])C(=O)C([H])(N([H])C([H])([H])[H])C([H])([H])[H])C(C([H])([H])[H])(C([H])([H])[H])C([H])([H])[H])C([H])(C(=O)N([H])C1([H])c3c([H])c([H])c([H])c([H])c3C([H])([H])C([H])([H])C1([H])[H])C2([H])[H]

>  <smiles>  (89) 
[H]OC(C(=O)N([H])c1sc([H])c(S(=O)(=O)C([H])([H])C(O[H])=C([H])C(=O)N2C([H])([H])C([H])([H])C([H])([H])C([H])(n3nc(-c4c([H])c([H])c(Oc5c([H])c([H])c(F)c([H])c5F)c([H])c4[H])c(C(=O)N([H])[H])c3N([H])[H])C2([H])[H])c1[H])=C([H])Oc1c([H])c([H])c2c(c1[H])C([H])([H])N(C(=O)C([H])(N([H])C(=O)C([H])(N([H])C([H])([H])[H])C([H])([H])[H])C(C([H])([H])[H])(C([H])([H])[H])C([H])([H])[H])C([H])(C(=O)N([H])C1([H])c3c([H])c([H])c([H])c([H])c3C([H])([H])C([H])([H])C1([H])[H])C2([H])[H]

$$$$
89:0:0
     RDKit          3D

 95103  0  0  1  0  0  0  0  0999 V2000
  -29.8420  -21.5650   21.0750 C   0  0  0  0  0  0  0  0  0  0  0  0
  -30.8460  -20.6720   21.1350 N   0  0  0  0  0  0  0  0  0  0  0  0
  -28.6360  -21.3070   21.1510 O   0  0  0  0  0  0  0  0  0  0  0  0
  -31.7540  -21.1220   21.1010 H   0  0  0  0  0  0  0  0  0  0  0  0
  -30.6610  -14.5520   20.1430 C   0  0  0  0  0  0  0  0  0  0  0  0
  -30.2770  -12.4530   18.9060 C   0  0  0  0  0  2  0  0  0  0  0  0
  -29.2660  -12.7030   17.7700 C   0  0  0  0  0  2  0  0  0  0  0  0
  -27.8210  -12.5410   18.2820 C   0  0  0  0  0  2  0  0  0  0  0  0
  -27.5580  -13.3240   19.5970 C   0  0  0  0  0  3  0  0  0  0  0  0
  -28.6780  -13.0650   20.6300 C   0  0  0  0  0  2  0  0  0  0  0  0
  -29.9660  -13.3920   19.9950 N   0  0  0  0  0  0  0  0  0  0  0  0
  -31.7380  -14.7500   19.5680 O   0  0  0  0  0  0  0  0  0  0  0  0
  -31.9600  -18.5400   21.3830 C   0  0  0  0  0  0  0  0  0  0  0  0
  -30.8370  -19.3110   21.1690 C   0  0  0  0  0  0  0  0  0  0  0  0
  -30.4750  -16.8570   21.0130 C   0  0  0  0  0  0  0  0  0  0  0  0
  -33.3460  -19.0340   21.6680 C   0  0  0  0  0  1  0  0  0  0  0  0
  -31.7420  -17.1620   21.3070 N   0  0  0  0  0  0  0  0  0  0  0  0
  -30.0320  -15.5190   20.8350 N   0  0  0  0  0  0  0  0  0  0  0  0
  -29.4340  -18.2740   20.9060 S   0  0  0  0  0  0  0  0  0  0  0  0
  -29.0890  -15.3140   21.1220 H   0  0  0  0  0  0  0  0  0  0  0  0
  -25.1980  -13.8840   20.4560 C   0  0  0  0  0  0  0  0  0  0  0  0
  -24.1620  -13.0890   20.8660 C   0  0  0  0  0  0  0  0  0  0  0  0
  -24.6350  -11.7430   20.7720 C   0  0  0  0  0  0  0  0  0  0  0  0
  -26.2380  -13.0220   20.1440 N   0  0  0  0  0  0  0  0  0  0  0  0
  -25.9060  -11.7280   20.3890 N   0  0  0  0  0  0  0  0  0  0  0  0
  -23.9360  -10.4680   20.9670 C   0  0  0  0  0  0  0  0  0  0  0  0
  -24.3900   -9.5110   21.9020 C   0  0  0  0  0  3  0  0  0  0  0  0
  -23.6890   -8.2990   22.0850 C   0  0  0  0  0  3  0  0  0  0  0  0
  -22.5200   -8.0360   21.3340 C   0  0  0  0  0  0  0  0  0  0  0  0
  -22.0840   -8.9820   20.3880 C   0  0  0  0  0  3  0  0  0  0  0  0
  -22.7860  -10.1850   20.2030 C   0  0  0  0  0  3  0  0  0  0  0  0
  -21.7880   -6.8760   21.4260 O   0  0  0  0  0  0  0  0  0  0  0  0
  -21.7050   -6.1700   22.5990 C   0  0  0  0  0  0  0  0  0  0  0  0
  -21.2080   -6.7520   23.7860 C   0  0  0  0  0  3  0  0  0  0  0  0
  -21.0750   -5.9700   24.9510 C   0  0  0  0  0  3  0  0  0  0  0  0
  -21.4280   -4.6080   24.9300 C   0  0  0  0  0  0  0  0  0  0  0  0
  -21.9160   -4.0250   23.7470 C   0  0  0  0  0  3  0  0  0  0  0  0
  -22.0520   -4.8040   22.5840 C   0  0  0  0  0  0  0  0  0  0  0  0
  -22.5040   -4.2330   21.4420 F   0  0  0  0  0  0  0  0  0  0  0  0
  -21.2920   -3.8540   26.0460 F   0  0  0  0  0  0  0  0  0  0  0  0
  -22.7770  -13.5400   21.2320 C   0  0  0  0  0  0  0  0  0  0  0  0
  -22.1090  -12.8110   22.1190 N   0  0  0  0  0  0  0  0  0  0  0  0
  -22.2980  -14.5730   20.7660 O   0  0  0  0  0  0  0  0  0  0  0  0
  -22.5100  -11.9750   22.5150 H   0  0  0  0  0  0  0  0  0  0  0  0
  -21.1830  -13.0950   22.4080 H   0  0  0  0  0  0  0  0  0  0  0  0
  -25.3370  -15.2610   20.3050 N   0  0  0  0  0  0  0  0  0  0  0  0
  -24.5670  -15.9010   20.4650 H   0  0  0  0  0  0  0  0  0  0  0  0
  -26.1530  -15.7160   19.9140 H   0  0  0  0  0  0  0  0  0  0  0  0
  -30.4020  -23.0090   20.9130 C   0  0  0  0  0  0  0  0  0  0  0  0
  -31.5880  -23.2040   20.6110 O   0  0  0  0  0  0  0  0  0  0  0  0
  -29.4270  -24.1810   21.1220 C   0  0  0  0  0  2  0  0  0  0  0  0
  -30.0880  -25.5800   21.0430 C   0  0  0  0  0  3  0  0  0  0  0  0
  -30.9740  -25.7170   22.0330 F   0  0  0  0  0  0  0  0  0  0  0  0
  -29.0980  -26.7560   21.1350 C   0  0  0  0  0  2  0  0  0  0  0  0
  -28.2230  -26.7360   20.0120 O   0  0  0  0  0  0  0  0  0  0  0  0
  -24.5110  -31.9590   23.2030 C   0  0  0  0  0  0  0  0  0  0  0  0
  -27.0960  -27.5220   20.0860 C   0  0  0  0  0  0  0  0  0  0  0  0
  -23.2740  -30.5680   21.5720 C   0  0  0  0  0  3  0  0  0  0  0  0
  -24.7020  -29.0220   20.1290 C   0  0  0  0  0  0  0  0  0  0  0  0
  -25.7950  -30.9160   21.3410 C   0  0  0  0  0  2  0  0  0  0  0  0
  -25.8650  -29.5420   20.7100 C   0  0  0  0  0  0  0  0  0  0  0  0
  -27.0640  -28.7970   20.6980 C   0  0  0  0  0  3  0  0  0  0  0  0
  -25.9220  -27.0180   19.4910 C   0  0  0  0  0  3  0  0  0  0  0  0
  -24.7220  -27.7540   19.5210 C   0  0  0  0  0  3  0  0  0  0  0  0
  -23.4620  -29.8850   20.1900 C   0  0  0  0  0  2  0  0  0  0  0  0
  -24.5450  -31.1610   22.0980 N   0  0  0  0  0  0  0  0  0  0  0  0
  -23.4390  -32.2380   23.7570 O   0  0  0  0  0  0  0  0  0  0  0  0
  -22.6280  -29.5510   22.5390 C   0  0  0  0  0  0  0  0  0  0  0  0
  -21.3010  -29.3820   22.4290 N   0  0  0  0  0  0  0  0  0  0  0  0
  -23.3160  -28.9160   23.3430 O   0  0  0  0  0  0  0  0  0  0  0  0
  -20.8070  -29.9450   21.7510 H   0  0  0  0  0  0  0  0  0  0  0  0
  -17.9210  -28.2210   22.9600 C   0  0  0  0  0  0  0  0  0  0  0  0
  -20.4840  -28.4510   23.2060 C   0  0  0  0  0  3  0  0  0  0  0  0
  -20.5650  -27.0210   22.6260 C   0  0  0  0  0  2  0  0  0  0  0  0
  -19.4480  -26.7120   21.6230 C   0  0  0  0  0  2  0  0  0  0  0  0
  -18.0750  -26.8710   22.2820 C   0  0  0  0  0  2  0  0  0  0  0  0
  -19.0520  -28.9710   23.3790 C   0  0  0  0  0  0  0  0  0  0  0  0
  -18.8550  -30.2350   23.9750 C   0  0  0  0  0  3  0  0  0  0  0  0
  -17.5570  -30.7520   24.1530 C   0  0  0  0  0  3  0  0  0  0  0  0
  -16.4400  -30.0000   23.7520 C   0  0  0  0  0  3  0  0  0  0  0  0
  -16.6230  -28.7370   23.1600 C   0  0  0  0  0  3  0  0  0  0  0  0
  -25.8110  -32.5770   23.8070 C   0  0  0  0  0  3  0  0  0  0  0  0
  -26.3470  -31.7910   25.0660 C   0  0  1  0  0  0  0  0  0  0  0  0
  -25.2720  -31.5470   26.1500 C   0  0  0  0  0  1  0  0  0  0  0  0
  -26.9170  -30.4160   24.6460 C   0  0  0  0  0  1  0  0  0  0  0  0
  -27.5110  -32.5740   25.7170 C   0  0  0  0  0  1  0  0  0  0  0  0
  -25.5190  -33.9750   24.1500 N   0  0  0  0  0  0  0  0  0  0  0  0
  -25.8620  -35.0290   23.3990 C   0  0  0  0  0  0  0  0  0  0  0  0
  -26.5290  -34.9270   22.3650 O   0  0  0  0  0  0  0  0  0  0  0  0
  -24.9260  -34.1290   24.9540 H   0  0  0  0  0  0  0  0  0  0  0  0
  -24.1620  -36.8480   23.0440 C   0  0  0  0  0  1  0  0  0  0  0  0
  -25.3870  -36.4190   23.8660 C   0  0  0  0  0  3  0  0  0  0  0  0
  -27.5240  -37.2630   24.7310 C   0  0  0  0  0  1  0  0  0  0  0  0
  -26.4360  -37.4590   23.7780 N   0  0  0  0  0  0  0  0  0  0  0  0
  -26.0410  -38.3820   23.9340 H   0  0  0  0  0  0  0  0  0  0  0  0
  1  2  1  0
  1  3  2  0
  2 14  1  0
  4  2  1  0
  5 18  1  0
  6 11  1  0
  7  8  1  0
  7  6  1  0
  9  8  1  0
  9 24  1  0
  9 10  1  0
 11  5  1  0
 11 10  1  0
 12  5  2  0
 13 16  1  0
 14 13  2  0
 15 17  2  0
 17 13  1  0
 18 15  1  0
 18 20  1  0
 19 15  1  0
 19 14  1  0
 21 22  2  0
 22 41  1  0
 23 22  1  0
 23 26  1  0
 24 25  1  0
 24 21  1  0
 25 23  2  0
 26 27  1  0
 27 28  2  0
 29 32  1  0
 29 28  1  0
 30 29  2  0
 31 30  1  0
 31 26  2  0
 32 33  1  0
 33 34  1  0
 34 35  2  0
 36 35  1  0
 36 40  1  0
 37 36  2  0
 38 33  2  0
 38 37  1  0
 39 38  1  0
 41 42  1  0
 42 45  1  0
 42 44  1  0
 43 41  2  0
 46 21  1  0
 46 47  1  0
 48 46  1  0
 49  1  1  0
 49 51  1  0
 50 49  2  0
 52 51  1  0
 52 54  1  0
 52 53  1  0
 55 57  1  0
 55 54  1  0
 56 67  2  0
 57 62  1  0
 58 66  1  0
 58 68  1  0
 59 65  1  0
 59 61  1  0
 60 66  1  0
 61 60  1  0
 62 61  2  0
 63 64  1  0
 63 57  2  0
 64 59  2  0
 65 58  1  0
 66 56  1  0
 68 70  2  0
 69 68  1  0
 71 69  1  0
 72 81  2  0
 72 77  1  0
 73 69  1  0
 73 77  1  0
 74 73  1  0
 75 76  1  0
 75 74  1  0
 76 72  1  0
 77 78  2  0
 78 79  1  0
 80 79  2  0
 81 80  1  0
 82 56  1  0
 82 87  1  0
 82 83  1  0
 83 86  1  1
 83 84  1  0
 85 83  1  0
 87 90  1  0
 88 92  1  0
 88 87  1  0
 89 88  2  0
 92 91  1  0
 94 92  1  0
 94 95  1  0
 94 93  1  0
M  ISO  4   5 100  18 100  54 101  55 101
M  END
>  <TORSDO>  (90) 
F 20

>  <SCORE>  (90) 
-13.715

>  <name>  (90) 
89

>  <ligand_id>  (90) 
89

>  <original_smiles>  (90) 
[H]c1c([H])c([H])c2c(c1[H])C([H])([H])C([H])([H])C([H])([H])C2([H])N([H])C(=O)C1([H])N(C(=O)C([H])(N([H])C(=O)C([H])(N([H])C([H])([H])[H])C([H])([H])[H])C(C([H])([H])[H])(C([H])([H])[H])C([H])([H])[H])C([H])([H])c2c([H])c(OC([H])([H])C([H])(F)C([H])([H])C(=O)C(=O)N([H])c3sc(N([H])C(=O)N4C([H])([H])C([H])([H])C([H])([H])C([H])(n5nc(-c6c([H])c([H])c(Oc7c([H])c([H])c(F)c([H])c7F)c([H])c6[H])c(C(=O)N([H])[H])c5N([H])[H])C4([H])[H])nc3C([H])([H])[H])c([H])c([H])c2C1([H])[H]

>  <smiles>  (90) 
[H]c1c([H])c([H])c2c(c1[H])C([H])([H])C([H])([H])C([H])([H])C2([H])N([H])C(=O)C1([H])N(C(=O)C([H])(N([H])C(=O)C([H])(N([H])C([H])([H])[H])C([H])([H])[H])C(C([H])([H])[H])(C([H])([H])[H])C([H])([H])[H])C([H])([H])c2c([H])c(OC([H])([H])C([H])(F)C([H])([H])C(=O)C(=O)N([H])c3sc(N([H])C(=O)N4C([H])([H])C([H])([H])C([H])([H])C([H])(n5nc(-c6c([H])c([H])c(Oc7c([H])c([H])c(F)c([H])c7F)c([H])c6[H])c(C(=O)N([H])[H])c5N([H])[H])C4([H])[H])nc3C([H])([H])[H])c([H])c([H])c2C1([H])[H]

$$$$
90:0:0
     RDKit          3D

 97105  0  0  1  0  0  0  0  0999 V2000
  -29.3750  -21.5290   18.5190 C   0  0  0  0  0  1  0  0  0  0  0  0
  -30.1900  -21.2470   19.7950 C   0  0  0  0  0  3  0  0  0  0  0  0
  -30.6820  -14.4870   20.2070 C   0  0  0  0  0  0  0  0  0  0  0  0
  -30.3510  -12.3280   19.0560 C   0  0  0  0  0  2  0  0  0  0  0  0
  -29.3750  -12.5510   17.8810 C   0  0  0  0  0  2  0  0  0  0  0  0
  -27.9130  -12.4130   18.3530 C   0  0  0  0  0  2  0  0  0  0  0  0
  -27.6200  -13.2330   19.6370 C   0  0  0  0  0  3  0  0  0  0  0  0
  -28.7060  -12.9950   20.7100 C   0  0  0  0  0  2  0  0  0  0  0  0
  -30.0130  -13.3020   20.1070 N   0  0  0  0  0  0  0  0  0  0  0  0
  -31.8170  -14.6290   19.7400 O   0  0  0  0  0  0  0  0  0  0  0  0
  -29.1010  -19.1470   20.8520 C   0  0  0  0  0  3  0  0  0  0  0  0
  -29.0760  -17.7460   21.0540 C   0  0  0  0  0  3  0  0  0  0  0  0
  -30.1590  -19.7300   20.1240 C   0  0  0  0  0  0  0  0  0  0  0  0
  -30.1040  -16.9280   20.5330 C   0  0  0  0  0  0  0  0  0  0  0  0
  -31.1560  -18.8400   19.6590 C   0  0  0  0  0  0  0  0  0  0  0  0
  -31.1280  -17.5070   19.8560 N   0  0  0  0  0  0  0  0  0  0  0  0
  -29.9630  -15.5110   20.7280 N   0  0  0  0  0  0  0  0  0  0  0  0
  -29.0930  -15.2240   21.1450 H   0  0  0  0  0  0  0  0  0  0  0  0
  -25.2440  -13.8430   20.4050 C   0  0  0  0  0  0  0  0  0  0  0  0
  -24.1830  -13.0720   20.8000 C   0  0  0  0  0  0  0  0  0  0  0  0
  -24.6420  -11.7190   20.7590 C   0  0  0  0  0  0  0  0  0  0  0  0
  -26.2810  -12.9590   20.1500 N   0  0  0  0  0  0  0  0  0  0  0  0
  -25.9250  -11.6780   20.4210 N   0  0  0  0  0  0  0  0  0  0  0  0
  -23.9190  -10.4580   20.9650 C   0  0  0  0  0  0  0  0  0  0  0  0
  -24.3660   -9.4950   21.8980 C   0  0  0  0  0  3  0  0  0  0  0  0
  -23.6440   -8.2980   22.0910 C   0  0  0  0  0  3  0  0  0  0  0  0
  -22.4630   -8.0530   21.3520 C   0  0  0  0  0  0  0  0  0  0  0  0
  -22.0340   -9.0060   20.4090 C   0  0  0  0  0  3  0  0  0  0  0  0
  -22.7570  -10.1950   20.2140 C   0  0  0  0  0  3  0  0  0  0  0  0
  -21.7110   -6.9070   21.4550 O   0  0  0  0  0  0  0  0  0  0  0  0
  -21.6690   -6.1780   22.6160 C   0  0  0  0  0  0  0  0  0  0  0  0
  -21.2380   -6.7420   23.8370 C   0  0  0  0  0  3  0  0  0  0  0  0
  -21.1420   -5.9380   24.9900 C   0  0  0  0  0  3  0  0  0  0  0  0
  -21.4670   -4.5700   24.9250 C   0  0  0  0  0  0  0  0  0  0  0  0
  -21.8920   -4.0040   23.7100 C   0  0  0  0  0  3  0  0  0  0  0  0
  -21.9900   -4.8050   22.5580 C   0  0  0  0  0  0  0  0  0  0  0  0
  -22.3770   -4.2490   21.3850 F   0  0  0  0  0  0  0  0  0  0  0  0
  -21.3680   -3.7960   26.0310 F   0  0  0  0  0  0  0  0  0  0  0  0
  -22.7940  -13.5510   21.1040 C   0  0  0  0  0  0  0  0  0  0  0  0
  -22.0860  -12.8590   21.9890 N   0  0  0  0  0  0  0  0  0  0  0  0
  -22.3450  -14.5760   20.5920 O   0  0  0  0  0  0  0  0  0  0  0  0
  -22.4620  -12.0320   22.4280 H   0  0  0  0  0  0  0  0  0  0  0  0
  -21.1530  -13.1630   22.2340 H   0  0  0  0  0  0  0  0  0  0  0  0
  -25.4090  -15.2130   20.2220 N   0  0  0  0  0  0  0  0  0  0  0  0
  -24.6470  -15.8700   20.3490 H   0  0  0  0  0  0  0  0  0  0  0  0
  -26.2460  -15.6440   19.8540 H   0  0  0  0  0  0  0  0  0  0  0  0
  -32.2450  -19.2710   18.9160 N   0  0  0  0  0  0  0  0  0  0  0  0
  -32.4540  -20.2560   18.8120 H   0  0  0  0  0  0  0  0  0  0  0  0
  -32.9980  -18.6330   18.6860 H   0  0  0  0  0  0  0  0  0  0  0  0
  -29.7720  -22.2200   20.9410 C   0  0  0  0  0  2  0  0  0  0  0  0
  -30.4410  -23.6220   20.8480 C   0  0  0  0  0  0  0  0  0  0  0  0
  -31.6630  -23.6270   21.0470 O   0  0  0  0  0  0  0  0  0  0  0  0
  -28.3210  -25.2650   20.3090 C   0  0  0  0  0  2  0  0  0  0  0  0
  -29.6830  -24.9580   20.5560 C   0  0  0  0  0  3  0  0  0  0  0  0
  -30.5980  -25.9570   20.5730 O   0  0  0  0  0  0  0  0  0  0  0  0
  -30.1120  -26.7540   20.3960 H   0  0  0  0  0  0  0  0  0  0  0  0
  -28.4560  -26.6430   20.1760 O   0  0  0  0  0  0  0  0  0  0  0  0
  -24.6170  -31.8420   23.2030 C   0  0  0  0  0  0  0  0  0  0  0  0
  -27.2950  -27.3930   20.1490 C   0  0  0  0  0  0  0  0  0  0  0  0
  -23.4270  -30.4400   21.5470 C   0  0  0  0  0  3  0  0  0  0  0  0
  -24.8970  -28.9070   20.1320 C   0  0  0  0  0  0  0  0  0  0  0  0
  -25.9550  -30.7990   21.3760 C   0  0  0  0  0  2  0  0  0  0  0  0
  -26.0490  -29.4280   20.7350 C   0  0  0  0  0  0  0  0  0  0  0  0
  -27.2500  -28.6780   20.7420 C   0  0  0  0  0  3  0  0  0  0  0  0
  -26.1270  -26.8960   19.5260 C   0  0  0  0  0  3  0  0  0  0  0  0
  -24.9330  -27.6410   19.5210 C   0  0  0  0  0  3  0  0  0  0  0  0
  -23.6500  -29.7610   20.1690 C   0  0  0  0  0  2  0  0  0  0  0  0
  -24.6830  -31.0430   22.1000 N   0  0  0  0  0  0  0  0  0  0  0  0
  -23.5310  -32.1150   23.7330 O   0  0  0  0  0  0  0  0  0  0  0  0
  -22.7660  -29.4200   22.5010 C   0  0  0  0  0  0  0  0  0  0  0  0
  -21.4380  -29.2610   22.3850 N   0  0  0  0  0  0  0  0  0  0  0  0
  -23.4460  -28.7740   23.3050 O   0  0  0  0  0  0  0  0  0  0  0  0
  -20.9490  -29.8360   21.7120 H   0  0  0  0  0  0  0  0  0  0  0  0
  -18.0460  -28.1290   22.9100 C   0  0  0  0  0  0  0  0  0  0  0  0
  -20.6130  -28.3260   23.1510 C   0  0  0  0  0  3  0  0  0  0  0  0
  -20.6760  -26.9030   22.5470 C   0  0  0  0  0  2  0  0  0  0  0  0
  -19.5540  -26.6260   21.5430 C   0  0  0  0  0  2  0  0  0  0  0  0
  -18.1850  -26.7890   22.2100 C   0  0  0  0  0  2  0  0  0  0  0  0
  -19.1870  -28.8590   23.3390 C   0  0  0  0  0  0  0  0  0  0  0  0
  -19.0040  -30.1170   23.9540 C   0  0  0  0  0  3  0  0  0  0  0  0
  -17.7140  -30.6440   24.1460 C   0  0  0  0  0  3  0  0  0  0  0  0
  -16.5870  -29.9090   23.7360 C   0  0  0  0  0  3  0  0  0  0  0  0
  -16.7560  -28.6550   23.1210 C   0  0  0  0  0  3  0  0  0  0  0  0
  -25.8980  -32.4730   23.8350 C   0  0  0  0  0  3  0  0  0  0  0  0
  -25.5800  -33.8630   24.1880 N   0  0  0  0  0  0  0  0  0  0  0  0
  -25.8960  -34.9290   23.4400 C   0  0  0  0  0  0  0  0  0  0  0  0
  -26.5600  -34.8470   22.4040 O   0  0  0  0  0  0  0  0  0  0  0  0
  -24.9920  -34.0010   24.9970 H   0  0  0  0  0  0  0  0  0  0  0  0
  -24.1500  -36.7090   23.1200 C   0  0  0  0  0  1  0  0  0  0  0  0
  -25.3980  -36.3050   23.9210 C   0  0  0  0  0  3  0  0  0  0  0  0
  -27.5280  -37.2000   24.7550 C   0  0  0  0  0  1  0  0  0  0  0  0
  -26.4190  -37.3710   23.8190 N   0  0  0  0  0  0  0  0  0  0  0  0
  -26.0040  -38.2840   23.9800 H   0  0  0  0  0  0  0  0  0  0  0  0
  -26.4250  -31.6830   25.0970 C   0  0  1  0  0  0  0  0  0  0  0  0
  -25.3380  -31.4160   26.1630 C   0  0  0  0  0  1  0  0  0  0  0  0
  -27.0170  -30.3180   24.6770 C   0  0  0  0  0  1  0  0  0  0  0  0
  -27.5700  -32.4750   25.7710 C   0  0  0  0  0  1  0  0  0  0  0  0
  2  1  1  0
  2 13  1  0
  2 50  1  0
  3 17  1  0
  4  9  1  0
  5  6  1  0
  5  4  1  0
  7  6  1  0
  7 22  1  0
  7  8  1  0
  9  3  1  0
  9  8  1  0
 10  3  2  0
 11 12  1  0
 13 11  2  0
 14 17  1  0
 14 12  2  0
 15 16  2  0
 15 13  1  0
 16 14  1  0
 17 18  1  0
 19 20  2  0
 20 39  1  0
 21 20  1  0
 21 24  1  0
 22 19  1  0
 22 23  1  0
 23 21  2  0
 24 25  1  0
 25 26  2  0
 27 30  1  0
 27 26  1  0
 28 27  2  0
 29 28  1  0
 29 24  2  0
 30 31  1  0
 31 32  1  0
 32 33  2  0
 34 33  1  0
 34 38  1  0
 35 34  2  0
 36 31  2  0
 36 35  1  0
 37 36  1  0
 39 40  1  0
 40 43  1  0
 40 42  1  0
 41 39  2  0
 44 45  1  0
 44 19  1  0
 46 44  1  0
 47 15  1  0
 48 47  1  0
 49 47  1  0
 51 50  1  0
 51 52  2  0
 54 53  1  0
 54 55  1  0
 54 51  1  0
 56 55  1  0
 57 53  1  0
 58 69  2  0
 59 57  1  0
 59 64  1  0
 60 68  1  0
 60 70  1  0
 61 67  1  0
 61 63  1  0
 62 68  1  0
 63 64  2  0
 63 62  1  0
 65 59  2  0
 66 65  1  0
 66 61  2  0
 67 60  1  0
 68 58  1  0
 70 72  2  0
 71 70  1  0
 73 71  1  0
 74 83  2  0
 74 79  1  0
 75 71  1  0
 75 79  1  0
 76 75  1  0
 77 78  1  0
 77 76  1  0
 78 74  1  0
 79 80  2  0
 80 81  1  0
 82 81  2  0
 83 82  1  0
 84 58  1  0
 84 85  1  0
 84 94  1  0
 85 88  1  0
 86 90  1  0
 86 85  1  0
 87 86  2  0
 90 89  1  0
 92 90  1  0
 92 93  1  0
 92 91  1  0
 94 97  1  1
 94 95  1  0
 96 94  1  0
M  ISO  4   3 100  17 100  53 101  57 101
M  END
>  <TORSDO>  (91) 
F 21

>  <SCORE>  (91) 
-13.632

>  <name>  (91) 
90

>  <ligand_id>  (91) 
90

>  <original_smiles>  (91) 
[H]OC(C(=O)C([H])([H])C([H])(c1c(N([H])[H])nc(N([H])C(=O)N2C([H])([H])C([H])([H])C([H])([H])C([H])(n3nc(-c4c([H])c([H])c(Oc5c([H])c([H])c(F)c([H])c5F)c([H])c4[H])c(C(=O)N([H])[H])c3N([H])[H])C2([H])[H])c([H])c1[H])C([H])([H])[H])=C([H])Oc1c([H])c([H])c2c(c1[H])C([H])([H])N(C(=O)C([H])(N([H])C(=O)C([H])(N([H])C([H])([H])[H])C([H])([H])[H])C(C([H])([H])[H])(C([H])([H])[H])C([H])([H])[H])C([H])(C(=O)N([H])C1([H])c3c([H])c([H])c([H])c([H])c3C([H])([H])C([H])([H])C1([H])[H])C2([H])[H]

>  <smiles>  (91) 
[H]OC(C(=O)C([H])([H])C([H])(c1c(N([H])[H])nc(N([H])C(=O)N2C([H])([H])C([H])([H])C([H])([H])C([H])(n3nc(-c4c([H])c([H])c(Oc5c([H])c([H])c(F)c([H])c5F)c([H])c4[H])c(C(=O)N([H])[H])c3N([H])[H])C2([H])[H])c([H])c1[H])C([H])([H])[H])=C([H])Oc1c([H])c([H])c2c(c1[H])C([H])([H])N(C(=O)C([H])(N([H])C(=O)C([H])(N([H])C([H])([H])[H])C([H])([H])[H])C(C([H])([H])[H])(C([H])([H])[H])C([H])([H])[H])C([H])(C(=O)N([H])C1([H])c3c([H])c([H])c([H])c([H])c3C([H])([H])C([H])([H])C1([H])[H])C2([H])[H]

$$$$
91:0:0
     RDKit          3D

 98106  0  0  1  0  0  0  0  0999 V2000
  -29.2830  -20.6080   20.8380 C   0  0  0  0  0  0  0  0  0  0  0  0
  -29.6080  -21.9140   20.6190 N   0  0  0  0  0  0  0  0  0  0  0  0
  -28.0720  -20.3700   21.3450 N   0  0  0  0  0  4  0  0  0  0  0  0
  -30.4490  -22.1130   20.0870 H   0  0  0  0  0  0  0  0  0  0  0  0
  -27.7700  -19.4080   21.4300 H   0  0  0  0  0  0  0  0  0  0  0  0
  -27.4170  -21.1110   21.5270 H   0  0  0  0  0  0  0  0  0  0  0  0
  -31.6150  -19.7170   20.7540 C   0  0  0  0  0  3  0  0  0  0  0  0
  -32.5390  -18.6530   20.7590 C   0  0  0  0  0  3  0  0  0  0  0  0
  -30.2280  -19.4670   20.6560 C   0  0  0  0  0  0  0  0  0  0  0  0
  -30.7270  -17.0240   20.5020 C   0  0  0  0  0  0  0  0  0  0  0  0
  -32.1040  -17.3170   20.6620 C   0  0  0  0  0  0  0  0  0  0  0  0
  -29.7980  -18.1060   20.5170 C   0  0  0  0  0  0  0  0  0  0  0  0
  -33.0250  -16.3280   20.7810 F   0  0  0  0  0  0  0  0  0  0  0  0
  -28.4740  -17.8130   20.4430 F   0  0  0  0  0  0  0  0  0  0  0  0
  -30.7900  -14.6690   19.6730 C   0  0  0  0  0  0  0  0  0  0  0  0
  -30.3590  -12.4970   18.5710 C   0  0  0  0  0  2  0  0  0  0  0  0
  -29.2680  -12.6600   17.4950 C   0  0  0  0  0  2  0  0  0  0  0  0
  -27.8660  -12.4890   18.1090 C   0  0  0  0  0  2  0  0  0  0  0  0
  -27.6740  -13.3360   19.3940 C   0  0  0  0  0  3  0  0  0  0  0  0
  -28.8670  -13.1700   20.3640 C   0  0  0  0  0  2  0  0  0  0  0  0
  -30.1030  -13.4910   19.6300 N   0  0  0  0  0  0  0  0  0  0  0  0
  -31.7950  -14.8580   18.9830 O   0  0  0  0  0  0  0  0  0  0  0  0
  -30.2490  -15.6660   20.4110 N   0  0  0  0  0  0  0  0  0  0  0  0
  -29.3610  -15.4750   20.8470 H   0  0  0  0  0  0  0  0  0  0  0  0
  -25.4180  -13.9060   20.4890 C   0  0  0  0  0  0  0  0  0  0  0  0
  -24.3990  -13.1180   20.9510 C   0  0  0  0  0  0  0  0  0  0  0  0
  -24.8230  -11.7680   20.7560 C   0  0  0  0  0  0  0  0  0  0  0  0
  -26.4000  -13.0350   20.0440 N   0  0  0  0  0  0  0  0  0  0  0  0
  -26.0530  -11.7390   20.2600 N   0  0  0  0  0  0  0  0  0  0  0  0
  -24.1060  -10.5010   20.9590 C   0  0  0  0  0  0  0  0  0  0  0  0
  -24.5790   -9.5220   21.8600 C   0  0  0  0  0  3  0  0  0  0  0  0
  -23.8640   -8.3200   22.0530 C   0  0  0  0  0  3  0  0  0  0  0  0
  -22.6590   -8.0900   21.3440 C   0  0  0  0  0  0  0  0  0  0  0  0
  -22.2060   -9.0570   20.4320 C   0  0  0  0  0  3  0  0  0  0  0  0
  -22.9230  -10.2510   20.2370 C   0  0  0  0  0  3  0  0  0  0  0  0
  -21.9100   -6.9430   21.4480 O   0  0  0  0  0  0  0  0  0  0  0  0
  -21.8420   -6.2300   22.6190 C   0  0  0  0  0  0  0  0  0  0  0  0
  -21.3470   -6.8000   23.8110 C   0  0  0  0  0  3  0  0  0  0  0  0
  -21.2300   -6.0140   24.9740 C   0  0  0  0  0  3  0  0  0  0  0  0
  -21.5990   -4.6560   24.9460 C   0  0  0  0  0  0  0  0  0  0  0  0
  -22.0890   -4.0830   23.7580 C   0  0  0  0  0  3  0  0  0  0  0  0
  -22.2070   -4.8690   22.5980 C   0  0  0  0  0  0  0  0  0  0  0  0
  -22.6600   -4.3080   21.4500 F   0  0  0  0  0  0  0  0  0  0  0  0
  -21.4790   -3.8970   26.0590 F   0  0  0  0  0  0  0  0  0  0  0  0
  -23.0660  -13.5860   21.4590 C   0  0  0  0  0  0  0  0  0  0  0  0
  -22.4670  -12.8410   22.3840 N   0  0  0  0  0  0  0  0  0  0  0  0
  -22.5690  -14.6420   21.0720 O   0  0  0  0  0  0  0  0  0  0  0  0
  -22.8820  -11.9800   22.7080 H   0  0  0  0  0  0  0  0  0  0  0  0
  -21.5790  -13.1310   22.7670 H   0  0  0  0  0  0  0  0  0  0  0  0
  -25.5880  -15.2840   20.3940 N   0  0  0  0  0  0  0  0  0  0  0  0
  -24.8650  -15.9410   20.6680 H   0  0  0  0  0  0  0  0  0  0  0  0
  -26.4070  -15.7380   20.0100 H   0  0  0  0  0  0  0  0  0  0  0  0
  -29.1340  -23.3040   22.6410 C   0  0  0  0  0  1  0  0  0  0  0  0
  -28.8600  -23.1120   21.1290 C   0  0  0  0  0  3  0  0  0  0  0  0
  -29.1390  -24.4520   20.3780 C   0  0  0  0  0  0  0  0  0  0  0  0
  -30.0650  -24.5890   19.5730 O   0  0  0  0  0  0  0  0  0  0  0  0
  -28.1850  -25.6260   20.7390 C   0  0  0  0  0  2  0  0  0  0  0  0
  -28.4030  -26.8650   20.0210 O   0  0  0  0  0  0  0  0  0  0  0  0
  -24.6810  -31.9610   23.3610 C   0  0  0  0  0  0  0  0  0  0  0  0
  -27.2760  -27.6640   20.0330 C   0  0  0  0  0  0  0  0  0  0  0  0
  -23.4520  -30.6480   21.6640 C   0  0  0  0  0  3  0  0  0  0  0  0
  -24.8870  -29.1840   20.1420 C   0  0  0  0  0  0  0  0  0  0  0  0
  -25.9750  -31.0100   21.4540 C   0  0  0  0  0  2  0  0  0  0  0  0
  -26.0540  -29.6720   20.7420 C   0  0  0  0  0  0  0  0  0  0  0  0
  -27.2550  -28.9210   20.6830 C   0  0  0  0  0  3  0  0  0  0  0  0
  -26.0950  -27.1980   19.4180 C   0  0  0  0  0  3  0  0  0  0  0  0
  -24.9050  -27.9480   19.4740 C   0  0  0  0  0  3  0  0  0  0  0  0
  -23.6410  -30.0370   20.2500 C   0  0  0  0  0  2  0  0  0  0  0  0
  -24.7220  -31.2170   22.2200 N   0  0  0  0  0  0  0  0  0  0  0  0
  -23.6070  -32.2090   23.9290 O   0  0  0  0  0  0  0  0  0  0  0  0
  -22.8050  -29.5840   22.5820 C   0  0  0  0  0  0  0  0  0  0  0  0
  -21.4810  -29.4020   22.4480 N   0  0  0  0  0  0  0  0  0  0  0  0
  -23.4920  -28.9270   23.3690 O   0  0  0  0  0  0  0  0  0  0  0  0
  -20.9890  -29.9900   21.7890 H   0  0  0  0  0  0  0  0  0  0  0  0
  -18.1190  -28.1390   22.8650 C   0  0  0  0  0  0  0  0  0  0  0  0
  -20.6700  -28.4240   23.1740 C   0  0  0  0  0  3  0  0  0  0  0  0
  -20.8010  -27.0170   22.5440 C   0  0  0  0  0  2  0  0  0  0  0  0
  -19.7130  -26.7160   21.5080 C   0  0  0  0  0  2  0  0  0  0  0  0
  -18.3220  -26.8180   22.1430 C   0  0  0  0  0  2  0  0  0  0  0  0
  -19.2230  -28.9010   23.3330 C   0  0  0  0  0  0  0  0  0  0  0  0
  -18.9820  -30.1390   23.9690 C   0  0  0  0  0  3  0  0  0  0  0  0
  -17.6710  -30.6180   24.1380 C   0  0  0  0  0  3  0  0  0  0  0  0
  -16.5800  -29.8530   23.6870 C   0  0  0  0  0  3  0  0  0  0  0  0
  -16.8060  -28.6160   23.0560 C   0  0  0  0  0  3  0  0  0  0  0  0
  -25.9770  -32.5550   23.9980 C   0  0  0  0  0  3  0  0  0  0  0  0
  -26.4720  -31.7560   25.2660 C   0  0  1  0  0  0  0  0  0  0  0  0
  -25.3630  -31.5140   26.3180 C   0  0  0  0  0  1  0  0  0  0  0  0
  -27.0420  -30.3790   24.8510 C   0  0  0  0  0  1  0  0  0  0  0  0
  -27.6260  -32.5220   25.9540 C   0  0  0  0  0  1  0  0  0  0  0  0
  -25.7000  -33.9560   24.3430 N   0  0  0  0  0  0  0  0  0  0  0  0
  -26.0800  -35.0090   23.6080 C   0  0  0  0  0  0  0  0  0  0  0  0
  -26.7690  -34.9010   22.5900 O   0  0  0  0  0  0  0  0  0  0  0  0
  -25.0950  -34.1160   25.1350 H   0  0  0  0  0  0  0  0  0  0  0  0
  -24.4180  -36.8590   23.2310 C   0  0  0  0  0  1  0  0  0  0  0  0
  -25.6190  -36.4030   24.0750 C   0  0  0  0  0  3  0  0  0  0  0  0
  -27.7460  -37.2090   24.9960 C   0  0  0  0  0  1  0  0  0  0  0  0
  -26.6860  -37.4260   24.0160 N   0  0  0  0  0  0  0  0  0  0  0  0
  -26.3040  -38.3550   24.1660 H   0  0  0  0  0  0  0  0  0  0  0  0
  1  3  2  0
  2  1  1  0
  2 54  1  0
  3  5  1  0
  3  6  1  0
  4  2  1  0
  7  8  1  0
  9  7  2  0
  9  1  1  0
 10 12  2  0
 10 11  1  0
 11  8  2  0
 11 13  1  0
 12  9  1  0
 14 12  1  0
 15 23  1  0
 16 21  1  0
 17 18  1  0
 17 16  1  0
 19 18  1  0
 19 28  1  0
 19 20  1  0
 21 15  1  0
 21 20  1  0
 22 15  2  0
 23 10  1  0
 23 24  1  0
 25 26  2  0
 26 45  1  0
 27 26  1  0
 27 30  1  0
 28 29  1  0
 28 25  1  0
 29 27  2  0
 30 31  1  0
 31 32  2  0
 33 36  1  0
 33 32  1  0
 34 33  2  0
 35 34  1  0
 35 30  2  0
 36 37  1  0
 37 38  1  0
 38 39  2  0
 40 39  1  0
 40 44  1  0
 41 40  2  0
 42 37  2  0
 42 41  1  0
 43 42  1  0
 45 46  1  0
 46 48  1  0
 46 49  1  0
 47 45  2  0
 50 25  1  0
 50 51  1  0
 52 50  1  0
 54 53  1  0
 55 57  1  0
 55 54  1  0
 56 55  2  0
 58 60  1  0
 58 57  1  0
 59 70  2  0
 60 65  1  0
 61 69  1  0
 61 71  1  0
 62 68  1  0
 62 64  1  0
 63 69  1  0
 64 63  1  0
 65 64  2  0
 66 67  1  0
 66 60  2  0
 67 62  2  0
 68 61  1  0
 69 59  1  0
 71 73  2  0
 72 71  1  0
 74 72  1  0
 75 84  2  0
 75 80  1  0
 76 72  1  0
 76 80  1  0
 77 76  1  0
 78 79  1  0
 78 77  1  0
 79 75  1  0
 80 81  2  0
 81 82  1  0
 83 82  2  0
 84 83  1  0
 85 59  1  0
 85 90  1  0
 85 86  1  0
 86 89  1  1
 86 87  1  0
 88 86  1  0
 90 93  1  0
 91 95  1  0
 91 90  1  0
 92 91  2  0
 95 94  1  0
 97 95  1  0
 97 98  1  0
 97 96  1  0
M  ISO  4  15 100  23 100  57 101  58 101
M  END
>  <TORSDO>  (92) 
F 20

>  <SCORE>  (92) 
-12.857

>  <name>  (92) 
91

>  <ligand_id>  (92) 
91

>  <original_smiles>  (92) 
[H]c1c([H])c([H])c2c(c1[H])C([H])([H])C([H])([H])C([H])([H])C2([H])N([H])C(=O)C1([H])N(C(=O)C([H])(N([H])C(=O)C([H])(N([H])C([H])([H])[H])C([H])([H])[H])C(C([H])([H])[H])(C([H])([H])[H])C([H])([H])[H])C([H])([H])c2c([H])c(OC([H])([H])C(=O)C([H])(N([H])C(c3c([H])c([H])c(F)c(N([H])C(=O)N4C([H])([H])C([H])([H])C([H])([H])C([H])(n5nc(-c6c([H])c([H])c(Oc7c([H])c([H])c(F)c([H])c7F)c([H])c6[H])c(C(=O)N([H])[H])c5N([H])[H])C4([H])[H])c3F)=[N+]([H])[H])C([H])([H])[H])c([H])c([H])c2C1([H])[H]

>  <smiles>  (92) 
[H]c1c([H])c([H])c2c(c1[H])C([H])([H])C([H])([H])C([H])([H])C2([H])N([H])C(=O)C1([H])N(C(=O)C([H])(N([H])C(=O)C([H])(N([H])C([H])([H])[H])C([H])([H])[H])C(C([H])([H])[H])(C([H])([H])[H])C([H])([H])[H])C([H])([H])c2c([H])c(OC([H])([H])C(=O)C([H])(N([H])C(c3c([H])c([H])c(F)c(N([H])C(=O)N4C([H])([H])C([H])([H])C([H])([H])C([H])(n5nc(-c6c([H])c([H])c(Oc7c([H])c([H])c(F)c([H])c7F)c([H])c6[H])c(C(=O)N([H])[H])c5N([H])[H])C4([H])[H])c3F)=[N+]([H])[H])C([H])([H])[H])c([H])c([H])c2C1([H])[H]

$$$$
92:0:0
     RDKit          3D

 95103  0  0  1  0  0  0  0  0999 V2000
  -29.9780  -18.1340   20.3940 C   0  0  0  0  0  0  0  0  0  0  0  0
  -28.5970  -18.1250   20.3670 C   0  0  0  0  0  0  0  0  0  0  0  0
  -29.5700  -20.4080   20.2520 C   0  0  0  0  0  0  0  0  0  0  0  0
  -29.1190  -22.8700   20.3390 C   0  0  0  0  0  0  0  0  0  0  0  0
  -30.5060  -19.4440   20.3060 N   0  0  0  0  0  0  0  0  0  0  0  0
  -29.9350  -21.7950   20.2150 N   0  0  0  0  0  0  0  0  0  0  0  0
  -27.8970  -22.8010   20.5110 O   0  0  0  0  0  0  0  0  0  0  0  0
  -27.9340  -19.7420   20.2500 S   0  0  0  0  0  0  0  0  0  0  0  0
  -30.9170  -22.0080   20.1080 H   0  0  0  0  0  0  0  0  0  0  0  0
  -27.7240  -17.0430   20.4630 N   0  0  0  0  0  0  0  0  0  0  0  0
  -27.9700  -16.2260   21.0100 H   0  0  0  0  0  0  0  0  0  0  0  0
  -26.7230  -17.2090   20.4900 H   0  0  0  0  0  0  0  0  0  0  0  0
  -29.8420  -24.2660   20.2570 C   0  0  0  0  0  0  0  0  0  0  0  0
  -30.9970  -24.4420   20.6660 O   0  0  0  0  0  0  0  0  0  0  0  0
  -29.0300  -25.3980   19.5840 C   0  0  0  0  0  2  0  0  0  0  0  0
  -29.1350  -26.7240   20.1810 O   0  0  0  0  0  0  0  0  0  0  0  0
  -24.7250  -31.4220   23.3220 C   0  0  0  0  0  0  0  0  0  0  0  0
  -27.9590  -27.4640   20.0960 C   0  0  0  0  0  0  0  0  0  0  0  0
  -23.7890  -30.1260   21.4410 C   0  0  0  0  0  3  0  0  0  0  0  0
  -25.4800  -28.8560   20.0200 C   0  0  0  0  0  0  0  0  0  0  0  0
  -26.2980  -30.6500   21.5460 C   0  0  0  0  0  2  0  0  0  0  0  0
  -26.5430  -29.3640   20.7780 C   0  0  0  0  0  0  0  0  0  0  0  0
  -27.7860  -28.6750   20.8180 C   0  0  0  0  0  3  0  0  0  0  0  0
  -26.8710  -27.0060   19.3100 C   0  0  0  0  0  3  0  0  0  0  0  0
  -25.6410  -27.6760   19.2840 C   0  0  0  0  0  3  0  0  0  0  0  0
  -24.1780  -29.6200   20.0280 C   0  0  0  0  0  2  0  0  0  0  0  0
  -24.9490  -30.7430   22.1620 N   0  0  0  0  0  0  0  0  0  0  0  0
  -23.5800  -31.5690   23.7700 O   0  0  0  0  0  0  0  0  0  0  0  0
  -23.1320  -28.9650   22.2220 C   0  0  0  0  0  0  0  0  0  0  0  0
  -21.8290  -28.7420   21.9800 N   0  0  0  0  0  0  0  0  0  0  0  0
  -23.7910  -28.2750   23.0030 O   0  0  0  0  0  0  0  0  0  0  0  0
  -21.3590  -29.3540   21.3280 H   0  0  0  0  0  0  0  0  0  0  0  0
  -18.4710  -27.4180   22.1890 C   0  0  0  0  0  0  0  0  0  0  0  0
  -21.0130  -27.6840   22.5760 C   0  0  0  0  0  3  0  0  0  0  0  0
  -21.1670  -26.3570   21.7970 C   0  0  0  0  0  2  0  0  0  0  0  0
  -20.1000  -26.1670   20.7140 C   0  0  0  0  0  2  0  0  0  0  0  0
  -18.6970  -26.1880   21.3270 C   0  0  0  0  0  2  0  0  0  0  0  0
  -19.5590  -28.1300   22.7620 C   0  0  0  0  0  0  0  0  0  0  0  0
  -19.2930  -29.2870   23.5270 C   0  0  0  0  0  3  0  0  0  0  0  0
  -17.9730  -29.7310   23.7250 C   0  0  0  0  0  3  0  0  0  0  0  0
  -16.8990  -29.0160   23.1670 C   0  0  0  0  0  3  0  0  0  0  0  0
  -17.1480  -27.8610   22.4060 C   0  0  0  0  0  3  0  0  0  0  0  0
  -25.8950  -32.0680   24.1250 C   0  0  0  0  0  3  0  0  0  0  0  0
  -26.1720  -31.3530   25.5060 C   0  0  1  0  0  0  0  0  0  0  0  0
  -24.9100  -31.1920   26.3850 C   0  0  0  0  0  1  0  0  0  0  0  0
  -26.7730  -29.9440   25.2840 C   0  0  0  0  0  1  0  0  0  0  0  0
  -27.2190  -32.1580   26.3120 C   0  0  0  0  0  1  0  0  0  0  0  0
  -25.5590  -33.4840   24.3330 N   0  0  0  0  0  0  0  0  0  0  0  0
  -26.0130  -34.4930   23.5770 C   0  0  0  0  0  0  0  0  0  0  0  0
  -26.8280  -34.3320   22.6640 O   0  0  0  0  0  0  0  0  0  0  0  0
  -24.8510  -33.6850   25.0240 H   0  0  0  0  0  0  0  0  0  0  0  0
  -24.3820  -36.2700   22.8630 C   0  0  0  0  0  1  0  0  0  0  0  0
  -25.4730  -35.9030   23.8810 C   0  0  0  0  0  3  0  0  0  0  0  0
  -27.4700  -36.8060   24.9880 C   0  0  0  0  0  1  0  0  0  0  0  0
  -26.5150  -36.9530   23.8920 N   0  0  0  0  0  0  0  0  0  0  0  0
  -26.0900  -37.8730   23.9710 H   0  0  0  0  0  0  0  0  0  0  0  0
  -30.9410  -16.9620   20.5610 C   0  0  0  0  0  2  0  0  0  0  0  0
  -31.0280  -14.5110   20.1240 C   0  0  0  0  0  0  0  0  0  0  0  0
  -30.6630  -12.2940   19.1000 C   0  0  0  0  0  2  0  0  0  0  0  0
  -29.6870  -12.4610   17.9160 C   0  0  0  0  0  2  0  0  0  0  0  0
  -28.2290  -12.3550   18.4030 C   0  0  0  0  0  2  0  0  0  0  0  0
  -27.9420  -13.2450   19.6430 C   0  0  0  0  0  3  0  0  0  0  0  0
  -29.0350  -13.0760   20.7220 C   0  0  0  0  0  2  0  0  0  0  0  0
  -30.3340  -13.3390   20.0850 N   0  0  0  0  0  0  0  0  0  0  0  0
  -32.1510  -14.6270   19.6300 O   0  0  0  0  0  0  0  0  0  0  0  0
  -30.3740  -15.5960   20.5860 N   0  0  0  0  0  0  0  0  0  0  0  0
  -29.4320  -15.4900   20.9330 H   0  0  0  0  0  0  0  0  0  0  0  0
  -25.6060  -13.9110   20.4920 C   0  0  0  0  0  0  0  0  0  0  0  0
  -24.5280  -13.1660   20.8860 C   0  0  0  0  0  0  0  0  0  0  0  0
  -24.9360  -11.7990   20.7850 C   0  0  0  0  0  0  0  0  0  0  0  0
  -26.6060  -13.0010   20.1820 N   0  0  0  0  0  0  0  0  0  0  0  0
  -26.2080  -11.7230   20.4130 N   0  0  0  0  0  0  0  0  0  0  0  0
  -24.1700  -10.5590   20.9680 C   0  0  0  0  0  0  0  0  0  0  0  0
  -24.5780   -9.5720   21.8920 C   0  0  0  0  0  3  0  0  0  0  0  0
  -23.8140   -8.3970   22.0630 C   0  0  0  0  0  3  0  0  0  0  0  0
  -22.6310   -8.2020   21.3120 C   0  0  0  0  0  0  0  0  0  0  0  0
  -22.2440   -9.1780   20.3770 C   0  0  0  0  0  3  0  0  0  0  0  0
  -23.0060  -10.3450   20.2020 C   0  0  0  0  0  3  0  0  0  0  0  0
  -21.8420   -7.0810   21.3920 O   0  0  0  0  0  0  0  0  0  0  0  0
  -21.6940   -6.3880   22.5670 C   0  0  0  0  0  0  0  0  0  0  0  0
  -21.1620   -6.9930   23.7280 C   0  0  0  0  0  3  0  0  0  0  0  0
  -20.9640   -6.2260   24.8930 C   0  0  0  0  0  3  0  0  0  0  0  0
  -21.2840   -4.8550   24.8980 C   0  0  0  0  0  0  0  0  0  0  0  0
  -21.8050   -4.2500   23.7410 C   0  0  0  0  0  3  0  0  0  0  0  0
  -22.0070   -5.0140   22.5790 C   0  0  0  0  0  0  0  0  0  0  0  0
  -22.4920   -4.4220   21.4600 F   0  0  0  0  0  0  0  0  0  0  0  0
  -21.0880   -4.1160   26.0160 F   0  0  0  0  0  0  0  0  0  0  0  0
  -23.1660  -13.6860   21.2490 C   0  0  0  0  0  0  0  0  0  0  0  0
  -22.4700  -13.0020   22.1490 N   0  0  0  0  0  0  0  0  0  0  0  0
  -22.7310  -14.7320   20.7700 O   0  0  0  0  0  0  0  0  0  0  0  0
  -22.8350  -12.1540   22.5580 H   0  0  0  0  0  0  0  0  0  0  0  0
  -21.5580  -13.3280   22.4310 H   0  0  0  0  0  0  0  0  0  0  0  0
  -25.8170  -15.2800   20.3610 N   0  0  0  0  0  0  0  0  0  0  0  0
  -25.1000  -15.9580   20.5880 H   0  0  0  0  0  0  0  0  0  0  0  0
  -26.7210  -15.7040   20.1910 H   0  0  0  0  0  0  0  0  0  0  0  0
  1 57  1  0
  2  1  2  0
  2 10  1  0
  3  5  2  0
  4  7  2  0
  5  1  1  0
  6  3  1  0
  6  4  1  0
  8  3  1  0
  8  2  1  0
  9  6  1  0
 10 12  1  0
 10 11  1  0
 13  4  1  0
 13 14  2  0
 15 16  1  0
 15 13  1  0
 17 28  2  0
 18 16  1  0
 18 23  1  0
 19 27  1  0
 19 29  1  0
 20 26  1  0
 20 22  1  0
 21 27  1  0
 22 23  2  0
 22 21  1  0
 24 18  2  0
 25 24  1  0
 25 20  2  0
 26 19  1  0
 27 17  1  0
 29 31  2  0
 30 29  1  0
 32 30  1  0
 33 42  2  0
 33 38  1  0
 34 30  1  0
 34 38  1  0
 35 34  1  0
 36 37  1  0
 36 35  1  0
 37 33  1  0
 38 39  2  0
 39 40  1  0
 41 40  2  0
 42 41  1  0
 43 17  1  0
 43 48  1  0
 43 44  1  0
 44 47  1  1
 44 45  1  0
 46 44  1  0
 48 51  1  0
 49 53  1  0
 49 48  1  0
 50 49  2  0
 53 52  1  0
 53 55  1  0
 55 56  1  0
 55 54  1  0
 57 66  1  0
 58 66  1  0
 59 64  1  0
 60 61  1  0
 60 59  1  0
 62 61  1  0
 62 71  1  0
 62 63  1  0
 64 58  1  0
 64 63  1  0
 65 58  2  0
 66 67  1  0
 68 69  2  0
 69 88  1  0
 70 69  1  0
 70 73  1  0
 71 72  1  0
 71 68  1  0
 72 70  2  0
 73 74  1  0
 74 75  2  0
 76 79  1  0
 76 75  1  0
 77 76  2  0
 78 77  1  0
 78 73  2  0
 79 80  1  0
 80 85  2  0
 80 81  1  0
 81 82  2  0
 82 83  1  0
 83 87  1  0
 84 83  2  0
 85 84  1  0
 86 85  1  0
 88 89  1  0
 89 92  1  0
 89 91  1  0
 90 88  2  0
 93 68  1  0
 93 94  1  0
 95 93  1  0
M  ISO  4  15 101  16 101  58 100  66 100
M  END
>  <TORSDO>  (93) 
F 20

>  <SCORE>  (93) 
-12.769

>  <name>  (93) 
92

>  <ligand_id>  (93) 
92

>  <original_smiles>  (93) 
[H]c1c([H])c([H])c2c(c1[H])C([H])([H])C([H])([H])C([H])([H])C2([H])N([H])C(=O)C1([H])N(C(=O)C([H])(N([H])C(=O)C([H])(N([H])C([H])([H])[H])C([H])([H])[H])C(C([H])([H])[H])(C([H])([H])[H])C([H])([H])[H])C([H])([H])c2c([H])c(OC([H])([H])C(=O)C(=O)N([H])c3nc(C([H])([H])N([H])C(=O)N4C([H])([H])C([H])([H])C([H])([H])C([H])(n5nc(-c6c([H])c([H])c(Oc7c([H])c([H])c(F)c([H])c7F)c([H])c6[H])c(C(=O)N([H])[H])c5N([H])[H])C4([H])[H])c(N([H])[H])s3)c([H])c([H])c2C1([H])[H]

>  <smiles>  (93) 
[H]c1c([H])c([H])c2c(c1[H])C([H])([H])C([H])([H])C([H])([H])C2([H])N([H])C(=O)C1([H])N(C(=O)C([H])(N([H])C(=O)C([H])(N([H])C([H])([H])[H])C([H])([H])[H])C(C([H])([H])[H])(C([H])([H])[H])C([H])([H])[H])C([H])([H])c2c([H])c(OC([H])([H])C(=O)C(=O)N([H])c3nc(C([H])([H])N([H])C(=O)N4C([H])([H])C([H])([H])C([H])([H])C([H])(n5nc(-c6c([H])c([H])c(Oc7c([H])c([H])c(F)c([H])c7F)c([H])c6[H])c(C(=O)N([H])[H])c5N([H])[H])C4([H])[H])c(N([H])[H])s3)c([H])c([H])c2C1([H])[H]

$$$$
93:0:0
     RDKit          3D

 93101  0  0  1  0  0  0  0  0999 V2000
  -29.5060  -18.0740   20.6790 C   0  0  0  0  0  3  0  0  0  0  0  0
  -30.4000  -17.0360   21.0240 C   0  0  0  0  0  0  0  0  0  0  0  0
  -29.9250  -19.4000   20.8770 C   0  0  0  0  0  0  0  0  0  0  0  0
  -31.9000  -18.6430   21.7170 C   0  0  0  0  0  0  0  0  0  0  0  0
  -31.5950  -17.3580   21.5580 N   0  0  0  0  0  0  0  0  0  0  0  0
  -31.1230  -19.6710   21.4020 N   0  0  0  0  0  0  0  0  0  0  0  0
  -29.1130  -20.4920   20.5320 N   0  0  0  0  0  0  0  0  0  0  0  0
  -33.1080  -18.9260   22.2550 F   0  0  0  0  0  0  0  0  0  0  0  0
  -28.2330  -20.3570   20.0460 H   0  0  0  0  0  0  0  0  0  0  0  0
  -30.7000  -14.6410   20.3680 C   0  0  0  0  0  0  0  0  0  0  0  0
  -30.4060  -12.4580   19.2510 C   0  0  0  0  0  2  0  0  0  0  0  0
  -29.4440  -12.6120   18.0560 C   0  0  0  0  0  2  0  0  0  0  0  0
  -27.9780  -12.4550   18.5040 C   0  0  0  0  0  2  0  0  0  0  0  0
  -27.6390  -13.3220   19.7460 C   0  0  0  0  0  3  0  0  0  0  0  0
  -28.7100  -13.1590   20.8500 C   0  0  0  0  0  2  0  0  0  0  0  0
  -30.0240  -13.4620   20.2580 N   0  0  0  0  0  0  0  0  0  0  0  0
  -31.8300  -14.7920   19.8930 O   0  0  0  0  0  0  0  0  0  0  0  0
  -29.9810  -15.6810   20.8460 N   0  0  0  0  0  0  0  0  0  0  0  0
  -29.0160  -15.4820   21.0460 H   0  0  0  0  0  0  0  0  0  0  0  0
  -25.2470  -13.9100   20.4910 C   0  0  0  0  0  0  0  0  0  0  0  0
  -24.1890  -13.1270   20.8720 C   0  0  0  0  0  0  0  0  0  0  0  0
  -24.6590  -11.7790   20.8260 C   0  0  0  0  0  0  0  0  0  0  0  0
  -26.2950  -13.0370   20.2440 N   0  0  0  0  0  0  0  0  0  0  0  0
  -25.9460  -11.7510   20.5040 N   0  0  0  0  0  0  0  0  0  0  0  0
  -23.9440  -10.5100   21.0140 C   0  0  0  0  0  0  0  0  0  0  0  0
  -24.3850   -9.5450   21.9470 C   0  0  0  0  0  3  0  0  0  0  0  0
  -23.6690   -8.3420   22.1230 C   0  0  0  0  0  3  0  0  0  0  0  0
  -22.4960   -8.0950   21.3700 C   0  0  0  0  0  0  0  0  0  0  0  0
  -22.0760   -9.0500   20.4270 C   0  0  0  0  0  3  0  0  0  0  0  0
  -22.7940  -10.2440   20.2470 C   0  0  0  0  0  3  0  0  0  0  0  0
  -21.7510   -6.9440   21.4560 O   0  0  0  0  0  0  0  0  0  0  0  0
  -21.6900   -6.2120   22.6160 C   0  0  0  0  0  0  0  0  0  0  0  0
  -21.2240   -6.7710   23.8260 C   0  0  0  0  0  3  0  0  0  0  0  0
  -21.1120   -5.9630   24.9750 C   0  0  0  0  0  3  0  0  0  0  0  0
  -21.4560   -4.5990   24.9160 C   0  0  0  0  0  0  0  0  0  0  0  0
  -21.9150   -4.0410   23.7090 C   0  0  0  0  0  3  0  0  0  0  0  0
  -22.0290   -4.8450   22.5610 C   0  0  0  0  0  0  0  0  0  0  0  0
  -22.4500   -4.2970   21.3970 F   0  0  0  0  0  0  0  0  0  0  0  0
  -21.3420   -3.8230   26.0170 F   0  0  0  0  0  0  0  0  0  0  0  0
  -22.7930  -13.5930   21.1670 C   0  0  0  0  0  0  0  0  0  0  0  0
  -22.0830  -12.8860   22.0400 N   0  0  0  0  0  0  0  0  0  0  0  0
  -22.3410  -14.6170   20.6570 O   0  0  0  0  0  0  0  0  0  0  0  0
  -22.4620  -12.0560   22.4700 H   0  0  0  0  0  0  0  0  0  0  0  0
  -21.1480  -13.1800   22.2850 H   0  0  0  0  0  0  0  0  0  0  0  0
  -25.4000  -15.2810   20.3140 N   0  0  0  0  0  0  0  0  0  0  0  0
  -24.6190  -15.9230   20.4060 H   0  0  0  0  0  0  0  0  0  0  0  0
  -26.2250  -15.7200   19.9240 H   0  0  0  0  0  0  0  0  0  0  0  0
  -29.5420  -21.8830   20.7620 C   0  0  0  0  0  2  0  0  0  0  0  0
  -28.6510  -22.9260   20.0570 C   0  0  0  0  0  0  0  0  0  0  0  0
  -27.8230  -22.5610   19.2140 O   0  0  0  0  0  0  0  0  0  0  0  0
  -28.8090  -24.4130   20.4570 C   0  0  0  0  0  2  0  0  0  0  0  0
  -28.1710  -25.4400   19.4800 C   0  0  0  0  0  2  0  0  0  0  0  0
  -28.1310  -26.7880   20.0220 O   0  0  0  0  0  0  0  0  0  0  0  0
  -24.4860  -32.0380   23.2380 C   0  0  0  0  0  0  0  0  0  0  0  0
  -26.9570  -27.5360   20.0390 C   0  0  0  0  0  0  0  0  0  0  0  0
  -23.2120  -30.6700   21.6240 C   0  0  0  0  0  3  0  0  0  0  0  0
  -24.5960  -29.1210   20.1490 C   0  0  0  0  0  0  0  0  0  0  0  0
  -25.7450  -30.9700   21.3650 C   0  0  0  0  0  2  0  0  0  0  0  0
  -25.7840  -29.6020   20.7100 C   0  0  0  0  0  0  0  0  0  0  0  0
  -26.9620  -28.8130   20.6580 C   0  0  0  0  0  3  0  0  0  0  0  0
  -25.7380  -27.0910   19.4660 C   0  0  0  0  0  3  0  0  0  0  0  0
  -24.5710  -27.8650   19.5280 C   0  0  0  0  0  3  0  0  0  0  0  0
  -23.3720  -30.0030   20.2350 C   0  0  0  0  0  2  0  0  0  0  0  0
  -24.5020  -31.2400   22.1320 N   0  0  0  0  0  0  0  0  0  0  0  0
  -23.4240  -32.3260   23.8070 O   0  0  0  0  0  0  0  0  0  0  0  0
  -22.5700  -29.6510   22.5940 C   0  0  0  0  0  0  0  0  0  0  0  0
  -21.2450  -29.4670   22.4790 N   0  0  0  0  0  0  0  0  0  0  0  0
  -23.2630  -29.0270   23.4030 O   0  0  0  0  0  0  0  0  0  0  0  0
  -20.7460  -30.0230   21.7990 H   0  0  0  0  0  0  0  0  0  0  0  0
  -17.8810  -28.2490   22.9890 C   0  0  0  0  0  0  0  0  0  0  0  0
  -20.4360  -28.5330   23.2630 C   0  0  0  0  0  3  0  0  0  0  0  0
  -20.5530  -27.0930   22.7080 C   0  0  0  0  0  2  0  0  0  0  0  0
  -19.4550  -26.7480   21.6960 C   0  0  0  0  0  2  0  0  0  0  0  0
  -18.0720  -26.8900   22.3350 C   0  0  0  0  0  2  0  0  0  0  0  0
  -18.9920  -29.0270   23.4110 C   0  0  0  0  0  0  0  0  0  0  0  0
  -18.7600  -30.2980   23.9800 C   0  0  0  0  0  3  0  0  0  0  0  0
  -17.4510  -30.7900   24.1330 C   0  0  0  0  0  3  0  0  0  0  0  0
  -16.3550  -30.0080   23.7290 C   0  0  0  0  0  3  0  0  0  0  0  0
  -16.5710  -28.7400   23.1620 C   0  0  0  0  0  3  0  0  0  0  0  0
  -25.7970  -32.6460   23.8230 C   0  0  0  0  0  3  0  0  0  0  0  0
  -26.3320  -31.8660   25.0870 C   0  0  1  0  0  0  0  0  0  0  0  0
  -25.2640  -31.6450   26.1840 C   0  0  0  0  0  1  0  0  0  0  0  0
  -26.8770  -30.4770   24.6810 C   0  0  0  0  0  1  0  0  0  0  0  0
  -27.5130  -32.6390   25.7200 C   0  0  0  0  0  1  0  0  0  0  0  0
  -25.5230  -34.0510   24.1560 N   0  0  0  0  0  0  0  0  0  0  0  0
  -25.8700  -35.0950   23.3910 C   0  0  0  0  0  0  0  0  0  0  0  0
  -26.5250  -34.9750   22.3520 O   0  0  0  0  0  0  0  0  0  0  0  0
  -24.9370  -34.2180   24.9610 H   0  0  0  0  0  0  0  0  0  0  0  0
  -24.1880  -36.9330   23.0410 C   0  0  0  0  0  1  0  0  0  0  0  0
  -25.4180  -36.4940   23.8510 C   0  0  0  0  0  3  0  0  0  0  0  0
  -27.5720  -37.3270   24.6870 C   0  0  0  0  0  1  0  0  0  0  0  0
  -26.4760  -37.5200   23.7400 N   0  0  0  0  0  0  0  0  0  0  0  0
  -26.0930  -38.4500   23.8870 H   0  0  0  0  0  0  0  0  0  0  0  0
  1  3  1  0
  1  2  2  0
  2  5  1  0
  3  6  2  0
  4  8  1  0
  5  4  2  0
  6  4  1  0
  7 48  1  0
  7  3  1  0
  9  7  1  0
 10 18  1  0
 11 16  1  0
 12 13  1  0
 12 11  1  0
 14 13  1  0
 14 23  1  0
 14 15  1  0
 16 10  1  0
 16 15  1  0
 17 10  2  0
 18  2  1  0
 18 19  1  0
 20 21  2  0
 21 40  1  0
 22 21  1  0
 22 25  1  0
 23 20  1  0
 23 24  1  0
 24 22  2  0
 25 26  1  0
 26 27  2  0
 28 31  1  0
 28 27  1  0
 29 28  2  0
 30 29  1  0
 30 25  2  0
 31 32  1  0
 32 33  1  0
 33 34  2  0
 35 34  1  0
 35 39  1  0
 36 35  2  0
 37 32  2  0
 37 36  1  0
 38 37  1  0
 40 41  1  0
 41 44  1  0
 41 43  1  0
 42 40  2  0
 45 46  1  0
 45 20  1  0
 47 45  1  0
 49 51  1  0
 49 48  1  0
 50 49  2  0
 52 53  1  0
 52 51  1  0
 53 55  1  0
 54 65  2  0
 55 60  1  0
 56 64  1  0
 56 66  1  0
 57 63  1  0
 57 59  1  0
 58 64  1  0
 59 58  1  0
 60 59  2  0
 61 62  1  0
 61 55  2  0
 62 57  2  0
 63 56  1  0
 64 54  1  0
 66 68  2  0
 67 66  1  0
 69 67  1  0
 70 79  2  0
 70 75  1  0
 71 67  1  0
 71 75  1  0
 72 71  1  0
 73 74  1  0
 73 72  1  0
 74 70  1  0
 75 76  2  0
 76 77  1  0
 78 77  2  0
 79 78  1  0
 80 54  1  0
 80 85  1  0
 80 81  1  0
 81 84  1  1
 81 82  1  0
 83 81  1  0
 85 88  1  0
 86 90  1  0
 86 85  1  0
 87 86  2  0
 90 89  1  0
 92 90  1  0
 92 93  1  0
 92 91  1  0
M  ISO  4  10 100  18 100  52 101  53 101
M  END
>  <TORSDO>  (94) 
F 20

>  <SCORE>  (94) 
-13.696

>  <name>  (94) 
93

>  <ligand_id>  (94) 
93

>  <original_smiles>  (94) 
[H]c1c(N([H])C(=O)N2C([H])([H])C([H])([H])C([H])([H])C([H])(n3nc(-c4c([H])c([H])c(Oc5c([H])c([H])c(F)c([H])c5F)c([H])c4[H])c(C(=O)N([H])[H])c3N([H])[H])C2([H])[H])nc(F)nc1N([H])C([H])([H])C(=O)C([H])([H])C([H])([H])Oc1c([H])c([H])c2c(c1[H])C([H])([H])N(C(=O)C([H])(N([H])C(=O)C([H])(N([H])C([H])([H])[H])C([H])([H])[H])C(C([H])([H])[H])(C([H])([H])[H])C([H])([H])[H])C([H])(C(=O)N([H])C1([H])c3c([H])c([H])c([H])c([H])c3C([H])([H])C([H])([H])C1([H])[H])C2([H])[H]

>  <smiles>  (94) 
[H]c1c(N([H])C(=O)N2C([H])([H])C([H])([H])C([H])([H])C([H])(n3nc(-c4c([H])c([H])c(Oc5c([H])c([H])c(F)c([H])c5F)c([H])c4[H])c(C(=O)N([H])[H])c3N([H])[H])C2([H])[H])nc(F)nc1N([H])C([H])([H])C(=O)C([H])([H])C([H])([H])Oc1c([H])c([H])c2c(c1[H])C([H])([H])N(C(=O)C([H])(N([H])C(=O)C([H])(N([H])C([H])([H])[H])C([H])([H])[H])C(C([H])([H])[H])(C([H])([H])[H])C([H])([H])[H])C([H])(C(=O)N([H])C1([H])c3c([H])c([H])c([H])c([H])c3C([H])([H])C([H])([H])C1([H])[H])C2([H])[H]

$$$$
94:0:0
     RDKit          3D

 96104  0  0  1  0  0  0  0  0999 V2000
  -29.4950  -20.8150   18.7730 C   0  0  0  0  0  0  0  0  0  0  0  0
  -28.9240  -23.1810   18.8550 C   0  0  0  0  0  0  0  0  0  0  0  0
  -29.2050  -21.9760   19.4170 N   0  0  0  0  0  0  0  0  0  0  0  0
  -29.5870  -20.7160   17.5420 O   0  0  0  0  0  0  0  0  0  0  0  0
  -28.7840  -23.3510   17.6370 O   0  0  0  0  0  0  0  0  0  0  0  0
  -29.2130  -21.9610   20.4260 H   0  0  0  0  0  0  0  0  0  0  0  0
  -28.8230  -17.7450   20.7410 C   0  0  0  0  0  3  0  0  0  0  0  0
  -29.7240  -19.5510   19.5840 C   0  0  0  0  0  0  0  0  0  0  0  0
  -29.9680  -16.9400   20.4820 C   0  0  0  0  0  0  0  0  0  0  0  0
  -30.9020  -18.7810   19.3790 C   0  0  0  0  0  0  0  0  0  0  0  0
  -28.6900  -19.0290   20.3000 N   0  0  0  0  0  0  0  0  0  0  0  0
  -31.0220  -17.5040   19.8340 N   0  0  0  0  0  0  0  0  0  0  0  0
  -31.9420  -19.2900   18.6740 F   0  0  0  0  0  0  0  0  0  0  0  0
  -30.6510  -14.5220   20.4250 C   0  0  0  0  0  0  0  0  0  0  0  0
  -30.3720  -12.3410   19.3100 C   0  0  0  0  0  2  0  0  0  0  0  0
  -29.4330  -12.5480   18.1020 C   0  0  0  0  0  2  0  0  0  0  0  0
  -27.9570  -12.4090   18.5280 C   0  0  0  0  0  2  0  0  0  0  0  0
  -27.6180  -13.2420   19.7930 C   0  0  0  0  0  3  0  0  0  0  0  0
  -28.6730  -13.0240   20.9020 C   0  0  0  0  0  2  0  0  0  0  0  0
  -29.9980  -13.3290   20.3360 N   0  0  0  0  0  0  0  0  0  0  0  0
  -31.8010  -14.6700   19.9990 O   0  0  0  0  0  0  0  0  0  0  0  0
  -29.9040  -15.5580   20.8730 N   0  0  0  0  0  0  0  0  0  0  0  0
  -29.0350  -15.2800   21.3040 H   0  0  0  0  0  0  0  0  0  0  0  0
  -25.2200  -13.8490   20.5040 C   0  0  0  0  0  0  0  0  0  0  0  0
  -24.1520  -13.0770   20.8730 C   0  0  0  0  0  0  0  0  0  0  0  0
  -24.6110  -11.7250   20.8380 C   0  0  0  0  0  0  0  0  0  0  0  0
  -26.2640  -12.9670   20.2710 N   0  0  0  0  0  0  0  0  0  0  0  0
  -25.9020  -11.6840   20.5300 N   0  0  0  0  0  0  0  0  0  0  0  0
  -23.8840  -10.4630   21.0270 C   0  0  0  0  0  0  0  0  0  0  0  0
  -24.3050   -9.5010   21.9690 C   0  0  0  0  0  3  0  0  0  0  0  0
  -23.5780   -8.3030   22.1440 C   0  0  0  0  0  3  0  0  0  0  0  0
  -22.4160   -8.0600   21.3750 C   0  0  0  0  0  0  0  0  0  0  0  0
  -22.0140   -9.0110   20.4210 C   0  0  0  0  0  3  0  0  0  0  0  0
  -22.7410  -10.2000   20.2440 C   0  0  0  0  0  3  0  0  0  0  0  0
  -21.6620   -6.9150   21.4580 O   0  0  0  0  0  0  0  0  0  0  0  0
  -21.5860   -6.1840   22.6170 C   0  0  0  0  0  0  0  0  0  0  0  0
  -21.1020   -6.7450   23.8190 C   0  0  0  0  0  3  0  0  0  0  0  0
  -20.9760   -5.9400   24.9700 C   0  0  0  0  0  3  0  0  0  0  0  0
  -21.3230   -4.5770   24.9190 C   0  0  0  0  0  0  0  0  0  0  0  0
  -21.8000   -4.0160   23.7210 C   0  0  0  0  0  3  0  0  0  0  0  0
  -21.9280   -4.8180   22.5720 C   0  0  0  0  0  0  0  0  0  0  0  0
  -22.3680   -4.2680   21.4150 F   0  0  0  0  0  0  0  0  0  0  0  0
  -21.1950   -3.8020   26.0210 F   0  0  0  0  0  0  0  0  0  0  0  0
  -22.7550  -13.5560   21.1460 C   0  0  0  0  0  0  0  0  0  0  0  0
  -22.0220  -12.8530   22.0020 N   0  0  0  0  0  0  0  0  0  0  0  0
  -22.3210  -14.5880   20.6340 O   0  0  0  0  0  0  0  0  0  0  0  0
  -22.3840  -12.0180   22.4380 H   0  0  0  0  0  0  0  0  0  0  0  0
  -21.0840  -13.1560   22.2260 H   0  0  0  0  0  0  0  0  0  0  0  0
  -25.3860  -15.2190   20.3250 N   0  0  0  0  0  0  0  0  0  0  0  0
  -24.6090  -15.8650   20.4110 H   0  0  0  0  0  0  0  0  0  0  0  0
  -26.2120  -15.6470   19.9280 H   0  0  0  0  0  0  0  0  0  0  0  0
  -28.4880  -25.5330   19.3680 C   0  0  0  0  0  3  0  0  0  0  0  0
  -28.7960  -24.2880   19.8170 C   0  0  0  0  0  0  0  0  0  0  0  0
  -28.9870  -24.0630   21.1260 O   0  0  0  0  0  0  0  0  0  0  0  0
  -28.8660  -24.8970   21.5630 H   0  0  0  0  0  0  0  0  0  0  0  0
  -28.3610  -26.6520   20.1680 O   0  0  0  0  0  0  0  0  0  0  0  0
  -24.5740  -31.8870   23.1960 C   0  0  0  0  0  0  0  0  0  0  0  0
  -27.2020  -27.4120   20.1120 C   0  0  0  0  0  0  0  0  0  0  0  0
  -23.3630  -30.4840   21.5600 C   0  0  0  0  0  3  0  0  0  0  0  0
  -24.8100  -28.9420   20.1300 C   0  0  0  0  0  0  0  0  0  0  0  0
  -25.8920  -30.8310   21.3580 C   0  0  0  0  0  2  0  0  0  0  0  0
  -25.9730  -29.4590   20.7160 C   0  0  0  0  0  0  0  0  0  0  0  0
  -27.1700  -28.7000   20.7040 C   0  0  0  0  0  3  0  0  0  0  0  0
  -26.0120  -26.9140   19.5310 C   0  0  0  0  0  3  0  0  0  0  0  0
  -24.8260  -27.6700   19.5360 C   0  0  0  0  0  3  0  0  0  0  0  0
  -23.5670  -29.8030   20.1810 C   0  0  0  0  0  2  0  0  0  0  0  0
  -24.6280  -31.0830   22.0960 N   0  0  0  0  0  0  0  0  0  0  0  0
  -23.4940  -32.1620   23.7380 O   0  0  0  0  0  0  0  0  0  0  0  0
  -22.7110  -29.4650   22.5240 C   0  0  0  0  0  0  0  0  0  0  0  0
  -21.3860  -29.2880   22.4040 N   0  0  0  0  0  0  0  0  0  0  0  0
  -23.3970  -28.8350   23.3340 O   0  0  0  0  0  0  0  0  0  0  0  0
  -20.8940  -29.8480   21.7210 H   0  0  0  0  0  0  0  0  0  0  0  0
  -18.0040  -28.1320   22.9420 C   0  0  0  0  0  0  0  0  0  0  0  0
  -20.5680  -28.3540   23.1790 C   0  0  0  0  0  3  0  0  0  0  0  0
  -20.6440  -26.9270   22.5880 C   0  0  0  0  0  2  0  0  0  0  0  0
  -19.5230  -26.6290   21.5870 C   0  0  0  0  0  2  0  0  0  0  0  0
  -18.1530  -26.7860   22.2530 C   0  0  0  0  0  2  0  0  0  0  0  0
  -19.1380  -28.8760   23.3630 C   0  0  0  0  0  0  0  0  0  0  0  0
  -18.9450  -30.1380   23.9660 C   0  0  0  0  0  3  0  0  0  0  0  0
  -17.6500  -30.6540   24.1550 C   0  0  0  0  0  3  0  0  0  0  0  0
  -16.5290  -29.9070   23.7520 C   0  0  0  0  0  3  0  0  0  0  0  0
  -16.7080  -28.6480   23.1510 C   0  0  0  0  0  3  0  0  0  0  0  0
  -25.8620  -32.5180   23.8110 C   0  0  0  0  0  3  0  0  0  0  0  0
  -26.3900  -31.7420   25.0810 C   0  0  1  0  0  0  0  0  0  0  0  0
  -25.3040  -31.4940   26.1540 C   0  0  0  0  0  1  0  0  0  0  0  0
  -26.9750  -30.3690   24.6770 C   0  0  0  0  0  1  0  0  0  0  0  0
  -27.5410  -32.5380   25.7390 C   0  0  0  0  0  1  0  0  0  0  0  0
  -25.5540  -33.9140   24.1470 N   0  0  0  0  0  0  0  0  0  0  0  0
  -25.8840  -34.9700   23.3920 C   0  0  0  0  0  0  0  0  0  0  0  0
  -26.5520  -34.8710   22.3600 O   0  0  0  0  0  0  0  0  0  0  0  0
  -24.9590  -34.0640   24.9500 H   0  0  0  0  0  0  0  0  0  0  0  0
  -24.1650  -36.7700   23.0330 C   0  0  0  0  0  1  0  0  0  0  0  0
  -25.3950  -36.3560   23.8550 C   0  0  0  0  0  3  0  0  0  0  0  0
  -27.5200  -37.2300   24.7210 C   0  0  0  0  0  1  0  0  0  0  0  0
  -26.4310  -37.4070   23.7640 N   0  0  0  0  0  0  0  0  0  0  0  0
  -26.0240  -38.3270   23.9150 H   0  0  0  0  0  0  0  0  0  0  0  0
  1  3  1  0
  1  8  1  0
  2  3  1  0
  2 53  1  0
  3  6  1  0
  4  1  2  0
  5  2  2  0
  8 11  1  0
  9  7  1  0
  9 22  1  0
 10  8  2  0
 10 12  1  0
 11  7  2  0
 12  9  2  0
 13 10  1  0
 14 22  1  0
 15 20  1  0
 16 17  1  0
 16 15  1  0
 18 17  1  0
 18 27  1  0
 18 19  1  0
 20 14  1  0
 20 19  1  0
 21 14  2  0
 22 23  1  0
 24 25  2  0
 25 44  1  0
 26 25  1  0
 26 29  1  0
 27 24  1  0
 27 28  1  0
 28 26  2  0
 29 30  1  0
 30 31  2  0
 32 35  1  0
 32 31  1  0
 33 32  2  0
 34 33  1  0
 34 29  2  0
 35 36  1  0
 36 37  1  0
 37 38  2  0
 39 38  1  0
 39 43  1  0
 40 39  2  0
 41 36  2  0
 41 40  1  0
 42 41  1  0
 44 45  1  0
 45 48  1  0
 45 47  1  0
 46 44  2  0
 49 50  1  0
 49 24  1  0
 51 49  1  0
 52 53  2  0
 52 56  1  0
 53 54  1  0
 54 55  1  0
 57 68  2  0
 58 56  1  0
 58 63  1  0
 59 67  1  0
 59 69  1  0
 60 66  1  0
 60 62  1  0
 61 67  1  0
 62 61  1  0
 63 62  2  0
 64 65  1  0
 64 58  2  0
 65 60  2  0
 66 59  1  0
 67 57  1  0
 69 71  2  0
 70 69  1  0
 72 70  1  0
 73 82  2  0
 73 78  1  0
 74 70  1  0
 74 78  1  0
 75 74  1  0
 76 77  1  0
 76 75  1  0
 77 73  1  0
 78 79  2  0
 79 80  1  0
 81 80  2  0
 82 81  1  0
 83 57  1  0
 83 88  1  0
 83 84  1  0
 84 87  1  1
 84 85  1  0
 86 84  1  0
 88 91  1  0
 89 93  1  0
 89 88  1  0
 90 89  2  0
 93 92  1  0
 95 93  1  0
 95 96  1  0
 95 94  1  0
M  ISO  4  14 100  22 100  52 101  56 101
M  END
>  <TORSDO>  (95) 
F 19

>  <SCORE>  (95) 
-14.628

>  <name>  (95) 
94

>  <ligand_id>  (95) 
94

>  <original_smiles>  (95) 
[H]OC(C(=O)N([H])C(=O)c1nc([H])c(N([H])C(=O)N2C([H])([H])C([H])([H])C([H])([H])C([H])(n3nc(-c4c([H])c([H])c(Oc5c([H])c([H])c(F)c([H])c5F)c([H])c4[H])c(C(=O)N([H])[H])c3N([H])[H])C2([H])[H])nc1F)=C([H])Oc1c([H])c([H])c2c(c1[H])C([H])([H])N(C(=O)C([H])(N([H])C(=O)C([H])(N([H])C([H])([H])[H])C([H])([H])[H])C(C([H])([H])[H])(C([H])([H])[H])C([H])([H])[H])C([H])(C(=O)N([H])C1([H])c3c([H])c([H])c([H])c([H])c3C([H])([H])C([H])([H])C1([H])[H])C2([H])[H]

>  <smiles>  (95) 
[H]OC(C(=O)N([H])C(=O)c1nc([H])c(N([H])C(=O)N2C([H])([H])C([H])([H])C([H])([H])C([H])(n3nc(-c4c([H])c([H])c(Oc5c([H])c([H])c(F)c([H])c5F)c([H])c4[H])c(C(=O)N([H])[H])c3N([H])[H])C2([H])[H])nc1F)=C([H])Oc1c([H])c([H])c2c(c1[H])C([H])([H])N(C(=O)C([H])(N([H])C(=O)C([H])(N([H])C([H])([H])[H])C([H])([H])[H])C(C([H])([H])[H])(C([H])([H])[H])C([H])([H])[H])C([H])(C(=O)N([H])C1([H])c3c([H])c([H])c([H])c([H])c3C([H])([H])C([H])([H])C1([H])[H])C2([H])[H]

$$$$
95:0:0
     RDKit          3D

 92100  0  0  1  0  0  0  0  0999 V2000
  -28.6200  -18.2990   20.7290 C   0  0  0  0  0  3  0  0  0  0  0  0
  -29.9780  -18.2750   20.5200 C   0  0  0  0  0  0  0  0  0  0  0  0
  -29.6040  -20.5380   20.3860 C   0  0  0  0  0  0  0  0  0  0  0  0
  -29.1500  -22.8800   19.7780 C   0  0  0  0  0  0  0  0  0  0  0  0
  -30.5240  -19.5640   20.3490 N   0  0  0  0  0  0  0  0  0  0  0  0
  -29.9660  -21.9100   20.2350 N   0  0  0  0  0  0  0  0  0  0  0  0
  -28.0930  -22.6100   19.1990 O   0  0  0  0  0  0  0  0  0  0  0  0
  -27.9760  -19.9220   20.6880 S   0  0  0  0  0  0  0  0  0  0  0  0
  -30.9060  -22.1740   20.5070 H   0  0  0  0  0  0  0  0  0  0  0  0
  -30.8940  -17.0730   20.4320 C   0  0  0  0  0  2  0  0  0  0  0  0
  -30.9060  -14.6310   20.1080 C   0  0  0  0  0  0  0  0  0  0  0  0
  -30.4740  -12.4950   18.9640 C   0  0  0  0  0  2  0  0  0  0  0  0
  -29.4830  -12.7370   17.8060 C   0  0  0  0  0  2  0  0  0  0  0  0
  -28.0370  -12.5870   18.3140 C   0  0  0  0  0  2  0  0  0  0  0  0
  -27.7660  -13.4140   19.5980 C   0  0  0  0  0  3  0  0  0  0  0  0
  -28.8800  -13.2160   20.6530 C   0  0  0  0  0  2  0  0  0  0  0  0
  -30.1720  -13.4910   20.0080 N   0  0  0  0  0  0  0  0  0  0  0  0
  -32.0330  -14.7280   19.6210 O   0  0  0  0  0  0  0  0  0  0  0  0
  -30.2900  -15.7340   20.5800 N   0  0  0  0  0  0  0  0  0  0  0  0
  -29.3550  -15.6570   20.9400 H   0  0  0  0  0  0  0  0  0  0  0  0
  -25.4130  -13.9990   20.4650 C   0  0  0  0  0  0  0  0  0  0  0  0
  -24.3640  -13.2190   20.8680 C   0  0  0  0  0  0  0  0  0  0  0  0
  -24.8200  -11.8680   20.7750 C   0  0  0  0  0  0  0  0  0  0  0  0
  -26.4420  -13.1250   20.1460 N   0  0  0  0  0  0  0  0  0  0  0  0
  -26.0920  -11.8360   20.3960 N   0  0  0  0  0  0  0  0  0  0  0  0
  -24.0990  -10.6020   20.9660 C   0  0  0  0  0  0  0  0  0  0  0  0
  -24.5340   -9.6390   21.9040 C   0  0  0  0  0  3  0  0  0  0  0  0
  -23.8150   -8.4380   22.0850 C   0  0  0  0  0  3  0  0  0  0  0  0
  -22.6440   -8.1900   21.3270 C   0  0  0  0  0  0  0  0  0  0  0  0
  -22.2280   -9.1420   20.3790 C   0  0  0  0  0  3  0  0  0  0  0  0
  -22.9490  -10.3360   20.1980 C   0  0  0  0  0  3  0  0  0  0  0  0
  -21.8950   -7.0430   21.4170 O   0  0  0  0  0  0  0  0  0  0  0  0
  -21.7900   -6.3420   22.5910 C   0  0  0  0  0  0  0  0  0  0  0  0
  -21.2270   -6.9130   23.7540 C   0  0  0  0  0  3  0  0  0  0  0  0
  -21.0750   -6.1350   24.9180 C   0  0  0  0  0  3  0  0  0  0  0  0
  -21.4760   -4.7860   24.9210 C   0  0  0  0  0  0  0  0  0  0  0  0
  -22.0330   -4.2140   23.7650 C   0  0  0  0  0  3  0  0  0  0  0  0
  -22.1870   -4.9880   22.6020 C   0  0  0  0  0  0  0  0  0  0  0  0
  -22.7040   -4.4260   21.4830 F   0  0  0  0  0  0  0  0  0  0  0  0
  -21.3240   -4.0360   26.0380 F   0  0  0  0  0  0  0  0  0  0  0  0
  -22.9850  -13.6900   21.2260 C   0  0  0  0  0  0  0  0  0  0  0  0
  -22.3040  -12.9740   22.1180 N   0  0  0  0  0  0  0  0  0  0  0  0
  -22.5210  -14.7260   20.7530 O   0  0  0  0  0  0  0  0  0  0  0  0
  -22.6910  -12.1330   22.5150 H   0  0  0  0  0  0  0  0  0  0  0  0
  -21.3810  -13.2700   22.3960 H   0  0  0  0  0  0  0  0  0  0  0  0
  -25.5680  -15.3750   20.3120 N   0  0  0  0  0  0  0  0  0  0  0  0
  -24.8000  -16.0170   20.4700 H   0  0  0  0  0  0  0  0  0  0  0  0
  -26.3640  -15.8120   19.8660 H   0  0  0  0  0  0  0  0  0  0  0  0
  -29.5570  -24.3720   19.9140 C   0  0  0  0  0  2  0  0  0  0  0  0
  -27.8740  -25.0810   21.7280 C   0  0  0  0  0  1  0  0  0  0  0  0
  -28.3440  -25.2920   20.2650 C   0  0  0  0  0  3  0  0  0  0  0  0
  -28.5370  -26.7140   20.0220 O   0  0  0  0  0  0  0  0  0  0  0  0
  -24.5530  -31.6990   23.2050 C   0  0  0  0  0  0  0  0  0  0  0  0
  -27.3750  -27.4760   19.9680 C   0  0  0  0  0  0  0  0  0  0  0  0
  -23.4200  -30.3370   21.4850 C   0  0  0  0  0  3  0  0  0  0  0  0
  -24.9430  -28.9320   20.0070 C   0  0  0  0  0  0  0  0  0  0  0  0
  -25.9370  -30.7890   21.3380 C   0  0  0  0  0  2  0  0  0  0  0  0
  -26.0810  -29.4520   20.6390 C   0  0  0  0  0  0  0  0  0  0  0  0
  -27.3020  -28.7310   20.6180 C   0  0  0  0  0  3  0  0  0  0  0  0
  -26.2210  -27.0060   19.2940 C   0  0  0  0  0  3  0  0  0  0  0  0
  -25.0110  -27.7100   19.3300 C   0  0  0  0  0  3  0  0  0  0  0  0
  -23.6720  -29.7410   20.0770 C   0  0  0  0  0  2  0  0  0  0  0  0
  -24.6560  -30.9530   22.0700 N   0  0  0  0  0  0  0  0  0  0  0  0
  -23.4540  -31.9090   23.7370 O   0  0  0  0  0  0  0  0  0  0  0  0
  -22.7900  -29.2440   22.3820 C   0  0  0  0  0  0  0  0  0  0  0  0
  -21.4760  -29.0160   22.2160 N   0  0  0  0  0  0  0  0  0  0  0  0
  -23.4790  -28.6080   23.1840 O   0  0  0  0  0  0  0  0  0  0  0  0
  -20.9800  -29.5840   21.5430 H   0  0  0  0  0  0  0  0  0  0  0  0
  -18.1290  -27.7210   22.6270 C   0  0  0  0  0  0  0  0  0  0  0  0
  -20.6800  -28.0160   22.9280 C   0  0  0  0  0  3  0  0  0  0  0  0
  -20.8170  -26.6260   22.2660 C   0  0  0  0  0  2  0  0  0  0  0  0
  -19.7240  -26.3440   21.2300 C   0  0  0  0  0  2  0  0  0  0  0  0
  -18.3380  -26.4170   21.8760 C   0  0  0  0  0  2  0  0  0  0  0  0
  -19.2290  -28.4800   23.1050 C   0  0  0  0  0  0  0  0  0  0  0  0
  -18.9780  -29.7050   23.7610 C   0  0  0  0  0  3  0  0  0  0  0  0
  -17.6610  -30.1650   23.9520 C   0  0  0  0  0  3  0  0  0  0  0  0
  -16.5760  -29.3980   23.4930 C   0  0  0  0  0  3  0  0  0  0  0  0
  -16.8120  -28.1800   22.8340 C   0  0  0  0  0  3  0  0  0  0  0  0
  -25.8060  -32.3430   23.8740 C   0  0  0  0  0  3  0  0  0  0  0  0
  -26.2870  -31.5660   25.1590 C   0  0  1  0  0  0  0  0  0  0  0  0
  -25.1620  -31.2960   26.1850 C   0  0  0  0  0  1  0  0  0  0  0  0
  -26.9130  -30.2070   24.7670 C   0  0  0  0  0  1  0  0  0  0  0  0
  -27.3980  -32.3730   25.8730 C   0  0  0  0  0  1  0  0  0  0  0  0
  -25.4690  -33.7320   24.2040 N   0  0  0  0  0  0  0  0  0  0  0  0
  -25.7590  -34.7870   23.4330 C   0  0  0  0  0  0  0  0  0  0  0  0
  -26.4180  -34.6950   22.3920 O   0  0  0  0  0  0  0  0  0  0  0  0
  -24.8910  -33.8810   25.0180 H   0  0  0  0  0  0  0  0  0  0  0  0
  -23.9600  -36.5160   23.1010 C   0  0  0  0  0  1  0  0  0  0  0  0
  -25.2350  -36.1640   23.8860 C   0  0  0  0  0  3  0  0  0  0  0  0
  -27.3510  -37.1350   24.6610 C   0  0  0  0  0  1  0  0  0  0  0  0
  -26.2290  -37.2500   23.7340 N   0  0  0  0  0  0  0  0  0  0  0  0
  -25.7930  -38.1590   23.8730 H   0  0  0  0  0  0  0  0  0  0  0  0
  2  1  2  0
  3  8  1  0
  4 49  1  0
  4  6  1  0
  5  3  2  0
  5  2  1  0
  6  3  1  0
  6  9  1  0
  7  4  2  0
  8  1  1  0
 10  2  1  0
 10 19  1  0
 11 19  1  0
 12 17  1  0
 13 14  1  0
 13 12  1  0
 15 14  1  0
 15 24  1  0
 15 16  1  0
 17 11  1  0
 17 16  1  0
 18 11  2  0
 19 20  1  0
 21 22  2  0
 22 41  1  0
 23 22  1  0
 23 26  1  0
 24 25  1  0
 24 21  1  0
 25 23  2  0
 26 27  1  0
 27 28  2  0
 29 32  1  0
 29 28  1  0
 30 29  2  0
 31 30  1  0
 31 26  2  0
 32 33  1  0
 33 38  2  0
 33 34  1  0
 34 35  2  0
 35 36  1  0
 36 40  1  0
 37 36  2  0
 38 37  1  0
 39 38  1  0
 41 42  1  0
 42 45  1  0
 42 44  1  0
 43 41  2  0
 46 21  1  0
 46 47  1  0
 48 46  1  0
 49 51  1  0
 51 50  1  0
 52 51  1  0
 53 64  2  0
 54 52  1  0
 54 59  1  0
 55 63  1  0
 55 65  1  0
 56 62  1  0
 56 58  1  0
 57 63  1  0
 58 57  1  0
 59 58  2  0
 60 61  1  0
 60 54  2  0
 61 56  2  0
 62 55  1  0
 63 53  1  0
 65 67  2  0
 66 65  1  0
 68 66  1  0
 69 78  2  0
 69 74  1  0
 70 66  1  0
 70 74  1  0
 71 70  1  0
 72 73  1  0
 72 71  1  0
 73 69  1  0
 74 75  2  0
 75 76  1  0
 77 76  2  0
 78 77  1  0
 79 53  1  0
 79 84  1  0
 79 80  1  0
 80 83  1  1
 80 81  1  0
 82 80  1  0
 84 87  1  0
 85 89  1  0
 85 84  1  0
 86 85  2  0
 89 88  1  0
 91 92  1  0
 91 89  1  0
 91 90  1  0
M  ISO  4  11 100  19 100  51 101  52 101
M  END
>  <TORSDO>  (96) 
F 19

>  <SCORE>  (96) 
-13.464

>  <name>  (96) 
95

>  <ligand_id>  (96) 
95

>  <original_smiles>  (96) 
[H]c1sc(N([H])C(=O)C([H])([H])C([H])(Oc2c([H])c([H])c3c(c2[H])C([H])([H])N(C(=O)C([H])(N([H])C(=O)C([H])(N([H])C([H])([H])[H])C([H])([H])[H])C(C([H])([H])[H])(C([H])([H])[H])C([H])([H])[H])C([H])(C(=O)N([H])C2([H])c4c([H])c([H])c([H])c([H])c4C([H])([H])C([H])([H])C2([H])[H])C3([H])[H])C([H])([H])[H])nc1C([H])([H])N([H])C(=O)N1C([H])([H])C([H])([H])C([H])([H])C([H])(n2nc(-c3c([H])c([H])c(Oc4c([H])c([H])c(F)c([H])c4F)c([H])c3[H])c(C(=O)N([H])[H])c2N([H])[H])C1([H])[H]

>  <smiles>  (96) 
[H]c1sc(N([H])C(=O)C([H])([H])C([H])(Oc2c([H])c([H])c3c(c2[H])C([H])([H])N(C(=O)C([H])(N([H])C(=O)C([H])(N([H])C([H])([H])[H])C([H])([H])[H])C(C([H])([H])[H])(C([H])([H])[H])C([H])([H])[H])C([H])(C(=O)N([H])C2([H])c4c([H])c([H])c([H])c([H])c4C([H])([H])C([H])([H])C2([H])[H])C3([H])[H])C([H])([H])[H])nc1C([H])([H])N([H])C(=O)N1C([H])([H])C([H])([H])C([H])([H])C([H])(n2nc(-c3c([H])c([H])c(Oc4c([H])c([H])c(F)c([H])c4F)c([H])c3[H])c(C(=O)N([H])[H])c2N([H])[H])C1([H])[H]

$$$$
