0:0:0
     RDKit          3D

 92100  0  0  1  0  0  0  0  0999 V2000
  -27.5940  -21.9580   18.9000 C   0  0  0  0  0  1  0  0  0  0  0  0
  -28.8040  -22.1790   19.8270 C   0  0  0  0  0  3  0  0  0  0  0  0
  -28.6610  -23.6250   20.5750 C   0  0  0  0  0  0  0  0  0  0  0  0
  -28.9660  -23.7180   21.7700 O   0  0  0  0  0  0  0  0  0  0  0  0
  -28.1460  -24.9480   19.7990 C   0  0  0  0  0  2  0  0  0  0  0  0
  -28.2800  -26.3800   20.2600 O   0  0  0  0  0  0  0  0  0  0  0  0
  -24.5940  -31.8730   23.2360 C   0  0  0  0  0  0  0  0  0  0  0  0
  -27.1850  -27.2740   20.1750 C   0  0  0  0  0  0  0  0  0  0  0  0
  -23.3860  -30.4790   21.5950 C   0  0  0  0  0  3  0  0  0  0  0  0
  -24.8340  -28.9260   20.1600 C   0  0  0  0  0  0  0  0  0  0  0  0
  -25.9290  -30.7830   21.4120 C   0  0  0  0  0  2  0  0  0  0  0  0
  -26.0050  -29.4020   20.7610 C   0  0  0  0  0  0  0  0  0  0  0  0
  -27.1830  -28.5870   20.7590 C   0  0  0  0  0  3  0  0  0  0  0  0
  -25.9910  -26.8680   19.5390 C   0  0  0  0  0  3  0  0  0  0  0  0
  -24.8330  -27.6690   19.5370 C   0  0  0  0  0  3  0  0  0  0  0  0
  -23.5980  -29.8060   20.2140 C   0  0  0  0  0  2  0  0  0  0  0  0
  -24.6550  -31.0640   22.1380 N   0  0  0  0  0  0  0  0  0  0  0  0
  -23.5110  -32.1530   23.7720 O   0  0  0  0  0  0  0  0  0  0  0  0
  -22.7210  -29.4640   22.5560 C   0  0  0  0  0  0  0  0  0  0  0  0
  -21.3930  -29.2900   22.4310 N   0  0  0  0  0  0  0  0  0  0  0  0
  -23.3990  -28.8360   23.3740 O   0  0  0  0  0  0  0  0  0  0  0  0
  -20.9050  -29.8480   21.7450 H   0  0  0  0  0  0  0  0  0  0  0  0
  -18.0140  -28.1010   22.9390 C   0  0  0  0  0  0  0  0  0  0  0  0
  -20.5740  -28.3530   23.2020 C   0  0  0  0  0  3  0  0  0  0  0  0
  -20.6700  -26.9230   22.6220 C   0  0  0  0  0  2  0  0  0  0  0  0
  -19.5640  -26.6060   21.6100 C   0  0  0  0  0  2  0  0  0  0  0  0
  -18.1850  -26.7530   22.2590 C   0  0  0  0  0  2  0  0  0  0  0  0
  -19.1360  -28.8590   23.3670 C   0  0  0  0  0  0  0  0  0  0  0  0
  -18.9210  -30.1210   23.9640 C   0  0  0  0  0  3  0  0  0  0  0  0
  -17.6180  -30.6250   24.1360 C   0  0  0  0  0  3  0  0  0  0  0  0
  -16.5110  -29.8630   23.7230 C   0  0  0  0  0  3  0  0  0  0  0  0
  -16.7090  -28.6040   23.1310 C   0  0  0  0  0  3  0  0  0  0  0  0
  -25.8780  -32.5050   23.8580 C   0  0  0  0  0  3  0  0  0  0  0  0
  -26.3890  -31.7340   25.1370 C   0  0  1  0  0  0  0  0  0  0  0  0
  -25.2940  -31.5040   26.2040 C   0  0  0  0  0  1  0  0  0  0  0  0
  -26.9660  -30.3520   24.7500 C   0  0  0  0  0  1  0  0  0  0  0  0
  -27.5420  -32.5250   25.7990 C   0  0  0  0  0  1  0  0  0  0  0  0
  -25.5700  -33.9040   24.1870 N   0  0  0  0  0  0  0  0  0  0  0  0
  -25.9050  -34.9560   23.4290 C   0  0  0  0  0  0  0  0  0  0  0  0
  -26.5740  -34.8510   22.3970 O   0  0  0  0  0  0  0  0  0  0  0  0
  -24.9730  -34.0590   24.9870 H   0  0  0  0  0  0  0  0  0  0  0  0
  -24.1840  -36.7580   23.0770 C   0  0  0  0  0  1  0  0  0  0  0  0
  -25.4230  -36.3470   23.8890 C   0  0  0  0  0  3  0  0  0  0  0  0
  -27.5600  -37.2240   24.7210 C   0  0  0  0  0  1  0  0  0  0  0  0
  -26.4590  -37.3960   23.7770 N   0  0  0  0  0  0  0  0  0  0  0  0
  -26.0550  -38.3180   23.9260 H   0  0  0  0  0  0  0  0  0  0  0  0
  -29.0120  -20.9180   20.6560 N   0  0  0  0  0  0  0  0  0  0  0  0
  -28.3260  -20.8210   21.3980 H   0  0  0  0  0  0  0  0  0  0  0  0
  -30.5780  -14.7390   20.3670 C   0  0  0  0  0  0  0  0  0  0  0  0
  -30.3680  -12.4630   19.3610 C   0  0  0  0  0  2  0  0  0  0  0  0
  -29.4350  -12.5580   18.1330 C   0  0  0  0  0  2  0  0  0  0  0  0
  -27.9610  -12.3990   18.5570 C   0  0  0  0  0  2  0  0  0  0  0  0
  -27.5930  -13.2750   19.7840 C   0  0  0  0  0  3  0  0  0  0  0  0
  -28.6510  -13.1640   20.9040 C   0  0  0  0  0  2  0  0  0  0  0  0
  -29.9510  -13.5130   20.3180 N   0  0  0  0  0  0  0  0  0  0  0  0
  -31.7580  -14.8280   20.0130 O   0  0  0  0  0  0  0  0  0  0  0  0
  -30.8600  -19.5540   19.5900 C   0  0  0  0  0  0  0  0  0  0  0  0
  -29.6850  -19.6640   20.3060 C   0  0  0  0  0  0  0  0  0  0  0  0
  -30.0680  -17.2930   20.3660 C   0  0  0  0  0  0  0  0  0  0  0  0
  -31.6910  -20.6470   19.0030 C   0  0  0  0  0  1  0  0  0  0  0  0
  -29.2670  -18.3480   20.7420 N   0  0  0  0  0  0  0  0  0  0  0  0
  -29.8140  -15.8620   20.6520 N   0  0  0  0  0  0  0  0  0  0  0  0
  -31.4340  -17.8920   19.4300 S   0  0  0  0  0  0  0  0  0  0  0  0
  -28.8910  -15.6610   21.0020 H   0  0  0  0  0  0  0  0  0  0  0  0
  -25.2040  -13.8700   20.5040 C   0  0  0  0  0  0  0  0  0  0  0  0
  -24.1370  -13.0970   20.8760 C   0  0  0  0  0  0  0  0  0  0  0  0
  -24.6010  -11.7450   20.8510 C   0  0  0  0  0  0  0  0  0  0  0  0
  -26.2470  -12.9900   20.2720 N   0  0  0  0  0  0  0  0  0  0  0  0
  -25.8910  -11.7070   20.5420 N   0  0  0  0  0  0  0  0  0  0  0  0
  -23.8730  -10.4840   21.0440 C   0  0  0  0  0  0  0  0  0  0  0  0
  -24.3080   -9.5150   21.9750 C   0  0  0  0  0  3  0  0  0  0  0  0
  -23.5790   -8.3190   22.1550 C   0  0  0  0  0  3  0  0  0  0  0  0
  -22.4030   -8.0840   21.4050 C   0  0  0  0  0  0  0  0  0  0  0  0
  -21.9870   -9.0420   20.4630 C   0  0  0  0  0  3  0  0  0  0  0  0
  -22.7160  -10.2290   20.2800 C   0  0  0  0  0  3  0  0  0  0  0  0
  -21.6460   -6.9410   21.4960 O   0  0  0  0  0  0  0  0  0  0  0  0
  -21.6060   -6.1930   22.6450 C   0  0  0  0  0  0  0  0  0  0  0  0
  -21.1900   -6.7420   23.8770 C   0  0  0  0  0  3  0  0  0  0  0  0
  -21.0980   -5.9200   25.0190 C   0  0  0  0  0  3  0  0  0  0  0  0
  -21.4120   -4.5510   24.9280 C   0  0  0  0  0  0  0  0  0  0  0  0
  -21.8200   -4.0010   23.7000 C   0  0  0  0  0  3  0  0  0  0  0  0
  -21.9150   -4.8210   22.5610 C   0  0  0  0  0  0  0  0  0  0  0  0
  -22.2900   -4.2810   21.3760 F   0  0  0  0  0  0  0  0  0  0  0  0
  -21.3160   -3.7590   26.0230 F   0  0  0  0  0  0  0  0  0  0  0  0
  -22.7400  -13.5770   21.1430 C   0  0  0  0  0  0  0  0  0  0  0  0
  -22.0060  -12.8830   22.0070 N   0  0  0  0  0  0  0  0  0  0  0  0
  -22.3060  -14.6020   20.6200 O   0  0  0  0  0  0  0  0  0  0  0  0
  -22.3690  -12.0550   22.4550 H   0  0  0  0  0  0  0  0  0  0  0  0
  -21.0690  -13.1890   22.2260 H   0  0  0  0  0  0  0  0  0  0  0  0
  -25.3670  -15.2400   20.3250 N   0  0  0  0  0  0  0  0  0  0  0  0
  -24.5940  -15.8880   20.4310 H   0  0  0  0  0  0  0  0  0  0  0  0
  -26.2070  -15.6850   19.9780 H   0  0  0  0  0  0  0  0  0  0  0  0
  2  1  1  0
  2  3  1  0
  2 47  1  0
  3  4  2  0
  5  6  1  0
  5  3  1  0
  7 18  2  0
  8  6  1  0
  8 13  1  0
  9 17  1  0
  9 19  1  0
 10 16  1  0
 10 12  1  0
 11 17  1  0
 12 11  1  0
 13 12  2  0
 14  8  2  0
 15 14  1  0
 15 10  2  0
 16  9  1  0
 17  7  1  0
 19 21  2  0
 20 19  1  0
 22 20  1  0
 23 32  2  0
 23 28  1  0
 24 20  1  0
 24 28  1  0
 25 24  1  0
 26 27  1  0
 26 25  1  0
 27 23  1  0
 28 29  2  0
 29 30  1  0
 31 30  2  0
 32 31  1  0
 33  7  1  0
 33 38  1  0
 33 34  1  0
 34 37  1  1
 34 35  1  0
 36 34  1  0
 38 41  1  0
 39 43  1  0
 39 38  1  0
 40 39  2  0
 43 42  1  0
 45 43  1  0
 45 46  1  0
 45 44  1  0
 47 48  1  0
 49 62  1  0
 50 55  1  0
 51 52  1  0
 51 50  1  0
 53 52  1  0
 53 68  1  0
 53 54  1  0
 55 49  1  0
 55 54  1  0
 56 49  2  0
 57 58  2  0
 58 47  1  0
 58 61  1  0
 59 62  1  0
 59 61  2  0
 60 57  1  0
 62 64  1  0
 63 57  1  0
 63 59  1  0
 65 66  2  0
 66 85  1  0
 67 66  1  0
 67 70  1  0
 68 65  1  0
 68 69  1  0
 69 67  2  0
 70 71  1  0
 71 72  2  0
 73 76  1  0
 73 72  1  0
 74 73  2  0
 75 74  1  0
 75 70  2  0
 76 77  1  0
 77 78  1  0
 78 79  2  0
 80 79  1  0
 80 84  1  0
 81 80  2  0
 82 77  2  0
 82 81  1  0
 83 82  1  0
 85 86  1  0
 86 89  1  0
 86 88  1  0
 87 85  2  0
 90 91  1  0
 90 65  1  0
 92 90  1  0
M  ISO  4   5 101   6 101  49 100  62 100
M  END
>  <TORSDO>  (1) 
F 19

>  <SCORE>  (1) 
-14.346

>  <name>  (1) 
0

>  <ligand_id>  (1) 
0

>  <original_smiles>  (1) 
[H]c1c([H])c([H])c2c(c1[H])C([H])([H])C([H])([H])C([H])([H])C2([H])N([H])C(=O)C1([H])N(C(=O)C([H])(N([H])C(=O)C([H])(N([H])C([H])([H])[H])C([H])([H])[H])C(C([H])([H])[H])(C([H])([H])[H])C([H])([H])[H])C([H])([H])c2c([H])c(OC([H])([H])C(=O)C([H])(N([H])c3nc(N([H])C(=O)N4C([H])([H])C([H])([H])C([H])([H])C([H])(n5nc(-c6c([H])c([H])c(Oc7c([H])c([H])c(F)c([H])c7F)c([H])c6[H])c(C(=O)N([H])[H])c5N([H])[H])C4([H])[H])sc3C([H])([H])[H])C([H])([H])[H])c([H])c([H])c2C1([H])[H]

>  <smiles>  (1) 
[H]c1c([H])c([H])c2c(c1[H])C([H])([H])C([H])([H])C([H])([H])C2([H])N([H])C(=O)C1([H])N(C(=O)C([H])(N([H])C(=O)C([H])(N([H])C([H])([H])[H])C([H])([H])[H])C(C([H])([H])[H])(C([H])([H])[H])C([H])([H])[H])C([H])([H])c2c([H])c(OC([H])([H])C(=O)C([H])(N([H])c3nc(N([H])C(=O)N4C([H])([H])C([H])([H])C([H])([H])C([H])(n5nc(-c6c([H])c([H])c(Oc7c([H])c([H])c(F)c([H])c7F)c([H])c6[H])c(C(=O)N([H])[H])c5N([H])[H])C4([H])[H])sc3C([H])([H])[H])C([H])([H])[H])c([H])c([H])c2C1([H])[H]

$$$$
1:0:0
     RDKit          3D

 92100  0  0  1  0  0  0  0  0999 V2000
  -28.7920  -21.2390   20.8550 C   0  0  0  0  0  0  0  0  0  0  0  0
  -28.5010  -23.7540   20.6030 C   0  0  0  0  0  0  0  0  0  0  0  0
  -28.9120  -22.4700   20.1930 N   0  0  0  0  0  0  0  0  0  0  0  0
  -28.1220  -21.1450   21.8920 O   0  0  0  0  0  0  0  0  0  0  0  0
  -28.1300  -23.9670   21.7630 O   0  0  0  0  0  0  0  0  0  0  0  0
  -29.3370  -22.4140   19.2820 H   0  0  0  0  0  0  0  0  0  0  0  0
  -30.9980  -18.0530   19.5040 C   0  0  0  0  0  3  0  0  0  0  0  0
  -29.9910  -17.4960   20.2590 C   0  0  0  0  0  0  0  0  0  0  0  0
  -29.4320  -19.8640   20.3640 C   0  0  0  0  0  0  0  0  0  0  0  0
  -29.1230  -18.5590   20.7270 N   0  0  0  0  0  0  0  0  0  0  0  0
  -30.8890  -19.8230   19.3650 S   0  0  0  0  0  0  0  0  0  0  0  0
  -30.5880  -14.8990   20.1840 C   0  0  0  0  0  0  0  0  0  0  0  0
  -30.3840  -12.6090   19.1790 C   0  0  0  0  0  2  0  0  0  0  0  0
  -29.4230  -12.6770   17.9710 C   0  0  0  0  0  2  0  0  0  0  0  0
  -27.9630  -12.4920   18.4290 C   0  0  0  0  0  2  0  0  0  0  0  0
  -27.6100  -13.3720   19.6590 C   0  0  0  0  0  3  0  0  0  0  0  0
  -28.6910  -13.2900   20.7600 C   0  0  0  0  0  2  0  0  0  0  0  0
  -29.9740  -13.6600   20.1450 N   0  0  0  0  0  0  0  0  0  0  0  0
  -31.7600  -14.9910   19.8000 O   0  0  0  0  0  0  0  0  0  0  0  0
  -29.8200  -16.0250   20.5010 N   0  0  0  0  0  0  0  0  0  0  0  0
  -28.9290  -15.7790   20.9030 H   0  0  0  0  0  0  0  0  0  0  0  0
  -25.2370  -13.9500   20.4380 C   0  0  0  0  0  0  0  0  0  0  0  0
  -24.1810  -13.1740   20.8310 C   0  0  0  0  0  0  0  0  0  0  0  0
  -24.6460  -11.8230   20.7870 C   0  0  0  0  0  0  0  0  0  0  0  0
  -26.2780  -13.0740   20.1770 N   0  0  0  0  0  0  0  0  0  0  0  0
  -25.9320  -11.7900   20.4500 N   0  0  0  0  0  0  0  0  0  0  0  0
  -23.9260  -10.5600   20.9900 C   0  0  0  0  0  0  0  0  0  0  0  0
  -24.3750   -9.5930   21.9160 C   0  0  0  0  0  3  0  0  0  0  0  0
  -23.6540   -8.3940   22.1060 C   0  0  0  0  0  3  0  0  0  0  0  0
  -22.4670   -8.1560   21.3720 C   0  0  0  0  0  0  0  0  0  0  0  0
  -22.0380   -9.1110   20.4340 C   0  0  0  0  0  3  0  0  0  0  0  0
  -22.7600  -10.3000   20.2410 C   0  0  0  0  0  3  0  0  0  0  0  0
  -21.7160   -7.0090   21.4730 O   0  0  0  0  0  0  0  0  0  0  0  0
  -21.6860   -6.2670   22.6260 C   0  0  0  0  0  0  0  0  0  0  0  0
  -21.2720   -6.8200   23.8570 C   0  0  0  0  0  3  0  0  0  0  0  0
  -21.1900   -6.0030   25.0030 C   0  0  0  0  0  3  0  0  0  0  0  0
  -21.5110   -4.6350   24.9180 C   0  0  0  0  0  0  0  0  0  0  0  0
  -21.9190   -4.0830   23.6920 C   0  0  0  0  0  3  0  0  0  0  0  0
  -22.0030   -4.8960   22.5480 C   0  0  0  0  0  0  0  0  0  0  0  0
  -22.3760   -4.3530   21.3650 F   0  0  0  0  0  0  0  0  0  0  0  0
  -21.4260   -3.8480   26.0170 F   0  0  0  0  0  0  0  0  0  0  0  0
  -22.7890  -13.6490   21.1300 C   0  0  0  0  0  0  0  0  0  0  0  0
  -22.0790  -12.9500   22.0090 N   0  0  0  0  0  0  0  0  0  0  0  0
  -22.3410  -14.6750   20.6210 O   0  0  0  0  0  0  0  0  0  0  0  0
  -22.4540  -12.1210   22.4450 H   0  0  0  0  0  0  0  0  0  0  0  0
  -21.1450  -13.2490   22.2510 H   0  0  0  0  0  0  0  0  0  0  0  0
  -25.3920  -15.3210   20.2550 N   0  0  0  0  0  0  0  0  0  0  0  0
  -24.6200  -15.9680   20.3620 H   0  0  0  0  0  0  0  0  0  0  0  0
  -26.2220  -15.7600   19.8760 H   0  0  0  0  0  0  0  0  0  0  0  0
  -29.6820  -25.1020   18.7180 C   0  0  0  0  0  1  0  0  0  0  0  0
  -28.4440  -25.0450   19.6230 C   0  0  0  0  0  3  0  0  0  0  0  0
  -28.3490  -26.4360   20.2410 O   0  0  0  0  0  0  0  0  0  0  0  0
  -24.6530  -31.9300   23.2570 C   0  0  0  0  0  0  0  0  0  0  0  0
  -27.2330  -27.3180   20.1580 C   0  0  0  0  0  0  0  0  0  0  0  0
  -23.4370  -30.5330   21.6280 C   0  0  0  0  0  3  0  0  0  0  0  0
  -24.8730  -28.9840   20.1760 C   0  0  0  0  0  0  0  0  0  0  0  0
  -25.9790  -30.8400   21.4200 C   0  0  0  0  0  2  0  0  0  0  0  0
  -26.0520  -29.4570   20.7640 C   0  0  0  0  0  0  0  0  0  0  0  0
  -27.2290  -28.6360   20.7430 C   0  0  0  0  0  3  0  0  0  0  0  0
  -26.0220  -26.9200   19.5460 C   0  0  0  0  0  3  0  0  0  0  0  0
  -24.8660  -27.7260   19.5570 C   0  0  0  0  0  3  0  0  0  0  0  0
  -23.6370  -29.8620   20.2430 C   0  0  0  0  0  2  0  0  0  0  0  0
  -24.7100  -31.1200   22.1580 N   0  0  0  0  0  0  0  0  0  0  0  0
  -23.5730  -32.2050   23.8020 O   0  0  0  0  0  0  0  0  0  0  0  0
  -22.7840  -29.5150   22.5940 C   0  0  0  0  0  0  0  0  0  0  0  0
  -21.4580  -29.3260   22.4730 N   0  0  0  0  0  0  0  0  0  0  0  0
  -23.4690  -28.8980   23.4130 O   0  0  0  0  0  0  0  0  0  0  0  0
  -20.9600  -29.8800   21.7900 H   0  0  0  0  0  0  0  0  0  0  0  0
  -18.0970  -28.0730   22.9720 C   0  0  0  0  0  0  0  0  0  0  0  0
  -20.6500  -28.3810   23.2470 C   0  0  0  0  0  3  0  0  0  0  0  0
  -20.7770  -26.9450   22.6850 C   0  0  0  0  0  2  0  0  0  0  0  0
  -19.6850  -26.5950   21.6700 C   0  0  0  0  0  2  0  0  0  0  0  0
  -18.2990  -26.7210   22.3080 C   0  0  0  0  0  2  0  0  0  0  0  0
  -19.2010  -28.8580   23.3980 C   0  0  0  0  0  0  0  0  0  0  0  0
  -18.9580  -30.1220   23.9800 C   0  0  0  0  0  3  0  0  0  0  0  0
  -17.6430  -30.6000   24.1370 C   0  0  0  0  0  3  0  0  0  0  0  0
  -16.5540  -29.8140   23.7240 C   0  0  0  0  0  3  0  0  0  0  0  0
  -16.7810  -28.5510   23.1480 C   0  0  0  0  0  3  0  0  0  0  0  0
  -25.9370  -32.5680   23.8710 C   0  0  0  0  0  3  0  0  0  0  0  0
  -25.6270  -33.9680   24.1990 N   0  0  0  0  0  0  0  0  0  0  0  0
  -25.9500  -35.0210   23.4340 C   0  0  0  0  0  0  0  0  0  0  0  0
  -26.6100  -34.9140   22.3970 O   0  0  0  0  0  0  0  0  0  0  0  0
  -25.0380  -34.1230   25.0030 H   0  0  0  0  0  0  0  0  0  0  0  0
  -24.2140  -36.8130   23.0990 C   0  0  0  0  0  1  0  0  0  0  0  0
  -25.4670  -36.4110   23.8930 C   0  0  0  0  0  3  0  0  0  0  0  0
  -27.6130  -37.3010   24.6920 C   0  0  0  0  0  1  0  0  0  0  0  0
  -26.4970  -37.4640   23.7640 N   0  0  0  0  0  0  0  0  0  0  0  0
  -26.0930  -38.3850   23.9120 H   0  0  0  0  0  0  0  0  0  0  0  0
  -26.4580  -31.8030   25.1500 C   0  0  1  0  0  0  0  0  0  0  0  0
  -25.3720  -31.5720   26.2270 C   0  0  0  0  0  1  0  0  0  0  0  0
  -27.0380  -30.4230   24.7650 C   0  0  0  0  0  1  0  0  0  0  0  0
  -27.6140  -32.6010   25.8010 C   0  0  0  0  0  1  0  0  0  0  0  0
  1  4  2  0
  2  5  2  0
  3  2  1  0
  3  1  1  0
  6  3  1  0
  7  8  2  0
  8 20  1  0
  8 10  1  0
  9 10  2  0
  9  1  1  0
 11  7  1  0
 11  9  1  0
 12 20  1  0
 13 18  1  0
 14 15  1  0
 14 13  1  0
 16 15  1  0
 16 25  1  0
 16 17  1  0
 18 12  1  0
 18 17  1  0
 19 12  2  0
 20 21  1  0
 22 23  2  0
 23 42  1  0
 24 23  1  0
 24 27  1  0
 25 22  1  0
 25 26  1  0
 26 24  2  0
 27 28  1  0
 28 29  2  0
 30 33  1  0
 30 29  1  0
 31 30  2  0
 32 31  1  0
 32 27  2  0
 33 34  1  0
 34 35  1  0
 35 36  2  0
 37 36  1  0
 37 41  1  0
 38 37  2  0
 39 34  2  0
 39 38  1  0
 40 39  1  0
 42 43  1  0
 43 46  1  0
 43 45  1  0
 44 42  2  0
 47 48  1  0
 47 22  1  0
 49 47  1  0
 51 50  1  0
 51 52  1  0
 51  2  1  0
 53 64  2  0
 54 52  1  0
 54 59  1  0
 55 63  1  0
 55 65  1  0
 56 62  1  0
 56 58  1  0
 57 63  1  0
 58 57  1  0
 59 58  2  0
 60 61  1  0
 60 54  2  0
 61 56  2  0
 62 55  1  0
 63 53  1  0
 65 67  2  0
 66 65  1  0
 68 66  1  0
 69 78  2  0
 69 74  1  0
 70 66  1  0
 70 74  1  0
 71 70  1  0
 72 73  1  0
 72 71  1  0
 73 69  1  0
 74 75  2  0
 75 76  1  0
 77 76  2  0
 78 77  1  0
 79 53  1  0
 79 80  1  0
 79 89  1  0
 80 83  1  0
 81 85  1  0
 81 80  1  0
 82 81  2  0
 85 84  1  0
 87 85  1  0
 87 88  1  0
 87 86  1  0
 89 92  1  1
 89 90  1  0
 91 89  1  0
M  ISO  4  12 100  20 100  51 101  52 101
M  END
>  <TORSDO>  (2) 
F 18

>  <SCORE>  (2) 
-14.398

>  <name>  (2) 
1

>  <ligand_id>  (2) 
1

>  <original_smiles>  (2) 
[H]c1sc(C(=O)N([H])C(=O)C([H])(Oc2c([H])c([H])c3c(c2[H])C([H])([H])N(C(=O)C([H])(N([H])C(=O)C([H])(N([H])C([H])([H])[H])C([H])([H])[H])C(C([H])([H])[H])(C([H])([H])[H])C([H])([H])[H])C([H])(C(=O)N([H])C2([H])c4c([H])c([H])c([H])c([H])c4C([H])([H])C([H])([H])C2([H])[H])C3([H])[H])C([H])([H])[H])nc1N([H])C(=O)N1C([H])([H])C([H])([H])C([H])([H])C([H])(n2nc(-c3c([H])c([H])c(Oc4c([H])c([H])c(F)c([H])c4F)c([H])c3[H])c(C(=O)N([H])[H])c2N([H])[H])C1([H])[H]

>  <smiles>  (2) 
[H]c1sc(C(=O)N([H])C(=O)C([H])(Oc2c([H])c([H])c3c(c2[H])C([H])([H])N(C(=O)C([H])(N([H])C(=O)C([H])(N([H])C([H])([H])[H])C([H])([H])[H])C(C([H])([H])[H])(C([H])([H])[H])C([H])([H])[H])C([H])(C(=O)N([H])C2([H])c4c([H])c([H])c([H])c([H])c4C([H])([H])C([H])([H])C2([H])[H])C3([H])[H])C([H])([H])[H])nc1N([H])C(=O)N1C([H])([H])C([H])([H])C([H])([H])C([H])(n2nc(-c3c([H])c([H])c(Oc4c([H])c([H])c(F)c([H])c4F)c([H])c3[H])c(C(=O)N([H])[H])c2N([H])[H])C1([H])[H]

$$$$
2:0:0
     RDKit          3D

 94102  0  0  1  0  0  0  0  0999 V2000
  -28.7250  -18.7940   20.5290 C   0  0  0  0  0  3  0  0  0  0  0  0
  -31.1940  -17.5880   20.4340 C   0  0  0  0  0  3  0  0  0  0  0  0
  -30.0710  -16.7800   20.6980 C   0  0  0  0  0  0  0  0  0  0  0  0
  -28.8210  -17.4130   20.7550 C   0  0  0  0  0  0  0  0  0  0  0  0
  -29.8960  -19.5290   20.2640 C   0  0  0  0  0  0  0  0  0  0  0  0
  -29.8550  -21.9620   20.7230 C   0  0  0  0  0  0  0  0  0  0  0  0
  -31.1060  -18.9240   20.2180 N   0  0  0  0  0  0  0  0  0  0  0  0
  -29.7560  -20.8910   19.9230 N   0  0  0  0  0  0  0  0  0  0  0  0
  -29.8650  -21.9430   21.9610 O   0  0  0  0  0  0  0  0  0  0  0  0
  -27.7100  -16.6770   20.9960 F   0  0  0  0  0  0  0  0  0  0  0  0
  -29.7600  -21.1270   18.9420 H   0  0  0  0  0  0  0  0  0  0  0  0
  -30.7120  -14.4670   20.1100 C   0  0  0  0  0  0  0  0  0  0  0  0
  -30.2880  -12.3970   18.8340 C   0  0  0  0  0  2  0  0  0  0  0  0
  -29.2780  -12.7200   17.7130 C   0  0  0  0  0  2  0  0  0  0  0  0
  -27.8310  -12.5760   18.2300 C   0  0  0  0  0  2  0  0  0  0  0  0
  -27.5990  -13.3300   19.5670 C   0  0  0  0  0  3  0  0  0  0  0  0
  -28.7190  -12.9940   20.5800 C   0  0  0  0  0  2  0  0  0  0  0  0
  -30.0180  -13.3080   19.9540 N   0  0  0  0  0  0  0  0  0  0  0  0
  -31.7680  -14.7100   19.5210 O   0  0  0  0  0  0  0  0  0  0  0  0
  -30.1110  -15.3680   20.9020 N   0  0  0  0  0  0  0  0  0  0  0  0
  -29.2980  -14.9960   21.3700 H   0  0  0  0  0  0  0  0  0  0  0  0
  -25.2510  -13.9260   20.4470 C   0  0  0  0  0  0  0  0  0  0  0  0
  -24.2050  -13.1480   20.8580 C   0  0  0  0  0  0  0  0  0  0  0  0
  -24.6590  -11.7980   20.7660 C   0  0  0  0  0  0  0  0  0  0  0  0
  -26.2770  -13.0500   20.1240 N   0  0  0  0  0  0  0  0  0  0  0  0
  -25.9260  -11.7630   20.3740 N   0  0  0  0  0  0  0  0  0  0  0  0
  -23.9420  -10.5350   20.9730 C   0  0  0  0  0  0  0  0  0  0  0  0
  -24.4100   -9.5620   21.8840 C   0  0  0  0  0  3  0  0  0  0  0  0
  -23.6930   -8.3610   22.0800 C   0  0  0  0  0  3  0  0  0  0  0  0
  -22.4940   -8.1260   21.3660 C   0  0  0  0  0  0  0  0  0  0  0  0
  -22.0450   -9.0870   20.4430 C   0  0  0  0  0  3  0  0  0  0  0  0
  -22.7620  -10.2790   20.2460 C   0  0  0  0  0  3  0  0  0  0  0  0
  -21.7450   -6.9790   21.4720 O   0  0  0  0  0  0  0  0  0  0  0  0
  -21.7130   -6.2470   22.6310 C   0  0  0  0  0  0  0  0  0  0  0  0
  -21.2670   -6.8020   23.8510 C   0  0  0  0  0  3  0  0  0  0  0  0
  -21.1850   -5.9930   25.0030 C   0  0  0  0  0  3  0  0  0  0  0  0
  -21.5340   -4.6300   24.9330 C   0  0  0  0  0  0  0  0  0  0  0  0
  -21.9710   -4.0760   23.7170 C   0  0  0  0  0  3  0  0  0  0  0  0
  -22.0570   -4.8820   22.5690 C   0  0  0  0  0  0  0  0  0  0  0  0
  -22.4600   -4.3390   21.3960 F   0  0  0  0  0  0  0  0  0  0  0  0
  -21.4460   -3.8510   26.0370 F   0  0  0  0  0  0  0  0  0  0  0  0
  -22.8330  -13.6240   21.2380 C   0  0  0  0  0  0  0  0  0  0  0  0
  -22.1600  -12.9060   22.1320 N   0  0  0  0  0  0  0  0  0  0  0  0
  -22.3660  -14.6650   20.7770 O   0  0  0  0  0  0  0  0  0  0  0  0
  -22.5530  -12.0630   22.5240 H   0  0  0  0  0  0  0  0  0  0  0  0
  -21.2400  -13.2030   22.4260 H   0  0  0  0  0  0  0  0  0  0  0  0
  -25.4080  -15.3010   20.3110 N   0  0  0  0  0  0  0  0  0  0  0  0
  -24.6820  -15.9390   20.6150 H   0  0  0  0  0  0  0  0  0  0  0  0
  -26.3110  -15.7530   20.2210 H   0  0  0  0  0  0  0  0  0  0  0  0
  -29.9140  -23.2630   19.8720 C   0  0  0  0  0  0  0  0  0  0  0  0
  -30.1730  -23.2210   18.6620 O   0  0  0  0  0  0  0  0  0  0  0  0
  -29.6680  -24.6160   20.5570 C   0  0  0  0  0  2  0  0  0  0  0  0
  -28.4500  -25.3680   19.9840 C   0  0  0  0  0  2  0  0  0  0  0  0
  -28.4580  -26.7400   20.4080 O   0  0  0  0  0  0  0  0  0  0  0  0
  -24.6040  -31.9670   23.3160 C   0  0  0  0  0  0  0  0  0  0  0  0
  -27.2750  -27.4570   20.3480 C   0  0  0  0  0  0  0  0  0  0  0  0
  -23.4210  -30.5530   21.6670 C   0  0  0  0  0  3  0  0  0  0  0  0
  -24.8910  -28.9880   20.2930 C   0  0  0  0  0  0  0  0  0  0  0  0
  -25.9560  -30.8890   21.5220 C   0  0  0  0  0  2  0  0  0  0  0  0
  -26.0420  -29.5100   20.8960 C   0  0  0  0  0  0  0  0  0  0  0  0
  -27.2320  -28.7490   20.9230 C   0  0  0  0  0  3  0  0  0  0  0  0
  -26.0980  -26.9500   19.7470 C   0  0  0  0  0  3  0  0  0  0  0  0
  -24.9120  -27.7060   19.7220 C   0  0  0  0  0  3  0  0  0  0  0  0
  -23.6520  -29.8540   20.3010 C   0  0  0  0  0  2  0  0  0  0  0  0
  -24.6770  -31.1540   22.2250 N   0  0  0  0  0  0  0  0  0  0  0  0
  -23.5130  -32.2540   23.8280 O   0  0  0  0  0  0  0  0  0  0  0  0
  -22.7460  -29.5480   22.6270 C   0  0  0  0  0  0  0  0  0  0  0  0
  -21.4240  -29.3740   22.4730 N   0  0  0  0  0  0  0  0  0  0  0  0
  -23.4090  -28.9230   23.4590 O   0  0  0  0  0  0  0  0  0  0  0  0
  -20.9510  -29.9250   21.7700 H   0  0  0  0  0  0  0  0  0  0  0  0
  -18.0240  -28.2470   22.9370 C   0  0  0  0  0  0  0  0  0  0  0  0
  -20.5820  -28.4560   23.2390 C   0  0  0  0  0  3  0  0  0  0  0  0
  -20.6630  -27.0220   22.6680 C   0  0  0  0  0  2  0  0  0  0  0  0
  -19.5670  -26.7190   21.6410 C   0  0  0  0  0  2  0  0  0  0  0  0
  -18.1810  -26.8940   22.2680 C   0  0  0  0  0  2  0  0  0  0  0  0
  -19.1510  -28.9900   23.3780 C   0  0  0  0  0  0  0  0  0  0  0  0
  -18.9500  -30.2600   23.9610 C   0  0  0  0  0  3  0  0  0  0  0  0
  -17.6540  -30.7870   24.1090 C   0  0  0  0  0  3  0  0  0  0  0  0
  -16.5410  -30.0420   23.6830 C   0  0  0  0  0  3  0  0  0  0  0  0
  -16.7250  -28.7740   23.1040 C   0  0  0  0  0  3  0  0  0  0  0  0
  -25.8820  -32.5930   23.9590 C   0  0  0  0  0  3  0  0  0  0  0  0
  -26.3790  -31.8200   25.2400 C   0  0  1  0  0  0  0  0  0  0  0  0
  -25.2670  -31.5750   26.2860 C   0  0  0  0  0  1  0  0  0  0  0  0
  -26.9720  -30.4450   24.8550 C   0  0  0  0  0  1  0  0  0  0  0  0
  -27.5160  -32.6160   25.9240 C   0  0  0  0  0  1  0  0  0  0  0  0
  -25.5720  -33.9910   24.2810 N   0  0  0  0  0  0  0  0  0  0  0  0
  -25.9160  -35.0410   23.5230 C   0  0  0  0  0  0  0  0  0  0  0  0
  -26.5990  -34.9340   22.5000 O   0  0  0  0  0  0  0  0  0  0  0  0
  -24.9650  -34.1490   25.0730 H   0  0  0  0  0  0  0  0  0  0  0  0
  -24.1960  -36.8320   23.1380 C   0  0  0  0  0  1  0  0  0  0  0  0
  -25.4220  -36.4290   23.9720 C   0  0  0  0  0  3  0  0  0  0  0  0
  -27.5400  -37.3130   24.8450 C   0  0  0  0  0  1  0  0  0  0  0  0
  -26.4580  -37.4810   23.8770 N   0  0  0  0  0  0  0  0  0  0  0  0
  -26.0500  -38.4010   24.0150 H   0  0  0  0  0  0  0  0  0  0  0  0
  1  4  1  0
  2  3  1  0
  3  4  2  0
  3 20  1  0
  4 10  1  0
  5  1  2  0
  6  9  2  0
  7  5  1  0
  7  2  2  0
  8  5  1  0
  8  6  1  0
 11  8  1  0
 12 20  1  0
 13 18  1  0
 14 15  1  0
 14 13  1  0
 16 15  1  0
 16 25  1  0
 16 17  1  0
 18 12  1  0
 18 17  1  0
 19 12  2  0
 20 21  1  0
 22 23  2  0
 23 42  1  0
 24 23  1  0
 24 27  1  0
 25 26  1  0
 25 22  1  0
 26 24  2  0
 27 28  1  0
 28 29  2  0
 30 33  1  0
 30 29  1  0
 31 30  2  0
 32 31  1  0
 32 27  2  0
 33 34  1  0
 34 35  1  0
 35 36  2  0
 37 36  1  0
 37 41  1  0
 38 37  2  0
 39 34  2  0
 39 38  1  0
 40 39  1  0
 42 43  1  0
 43 46  1  0
 43 45  1  0
 44 42  2  0
 47 22  1  0
 47 48  1  0
 49 47  1  0
 50 52  1  0
 50  6  1  0
 51 50  2  0
 53 54  1  0
 53 52  1  0
 55 66  2  0
 56 54  1  0
 56 61  1  0
 57 65  1  0
 57 67  1  0
 58 64  1  0
 58 60  1  0
 59 65  1  0
 60 61  2  0
 60 59  1  0
 62 56  2  0
 63 62  1  0
 63 58  2  0
 64 57  1  0
 65 55  1  0
 67 69  2  0
 68 67  1  0
 70 68  1  0
 71 80  2  0
 71 76  1  0
 72 68  1  0
 72 76  1  0
 73 72  1  0
 74 75  1  0
 74 73  1  0
 75 71  1  0
 76 77  2  0
 77 78  1  0
 79 78  2  0
 80 79  1  0
 81 55  1  0
 81 86  1  0
 81 82  1  0
 82 85  1  1
 82 83  1  0
 84 82  1  0
 86 89  1  0
 87 91  1  0
 87 86  1  0
 88 87  2  0
 91 90  1  0
 93 91  1  0
 93 94  1  0
 93 92  1  0
M  ISO  4  12 100  20 100  53 101  54 101
M  END
>  <TORSDO>  (3) 
F 19

>  <SCORE>  (3) 
-14.130

>  <name>  (3) 
2

>  <ligand_id>  (3) 
2

>  <original_smiles>  (3) 
[H]c1nc(N([H])C(=O)C(=O)C([H])([H])C([H])([H])Oc2c([H])c([H])c3c(c2[H])C([H])([H])N(C(=O)C([H])(N([H])C(=O)C([H])(N([H])C([H])([H])[H])C([H])([H])[H])C(C([H])([H])[H])(C([H])([H])[H])C([H])([H])[H])C([H])(C(=O)N([H])C2([H])c4c([H])c([H])c([H])c([H])c4C([H])([H])C([H])([H])C2([H])[H])C3([H])[H])c([H])c(F)c1N([H])C(=O)N1C([H])([H])C([H])([H])C([H])([H])C([H])(n2nc(-c3c([H])c([H])c(Oc4c([H])c([H])c(F)c([H])c4F)c([H])c3[H])c(C(=O)N([H])[H])c2N([H])[H])C1([H])[H]

>  <smiles>  (3) 
[H]c1nc(N([H])C(=O)C(=O)C([H])([H])C([H])([H])Oc2c([H])c([H])c3c(c2[H])C([H])([H])N(C(=O)C([H])(N([H])C(=O)C([H])(N([H])C([H])([H])[H])C([H])([H])[H])C(C([H])([H])[H])(C([H])([H])[H])C([H])([H])[H])C([H])(C(=O)N([H])C2([H])c4c([H])c([H])c([H])c([H])c4C([H])([H])C([H])([H])C2([H])[H])C3([H])[H])c([H])c(F)c1N([H])C(=O)N1C([H])([H])C([H])([H])C([H])([H])C([H])(n2nc(-c3c([H])c([H])c(Oc4c([H])c([H])c(F)c([H])c4F)c([H])c3[H])c(C(=O)N([H])[H])c2N([H])[H])C1([H])[H]

$$$$
3:0:0
     RDKit          3D

 96104  0  0  1  0  0  0  0  0999 V2000
  -29.1530  -21.8470   20.3600 C   0  0  0  0  0  0  0  0  0  0  0  0
  -28.7600  -20.5490   20.4150 N   0  0  0  0  0  0  0  0  0  0  0  0
  -30.3250  -22.2150   20.2220 O   0  0  0  0  0  0  0  0  0  0  0  0
  -27.7990  -20.4200   20.7100 H   0  0  0  0  0  0  0  0  0  0  0  0
  -29.3870  -18.1300   20.6050 C   0  0  0  0  0  3  0  0  0  0  0  0
  -29.4530  -19.3850   19.9220 C   0  0  0  0  0  0  0  0  0  0  0  0
  -29.9840  -16.9460   20.0700 C   0  0  0  0  0  0  0  0  0  0  0  0
  -30.1130  -19.4330   18.6700 C   0  0  0  0  0  0  0  0  0  0  0  0
  -30.6030  -17.0400   18.7930 C   0  0  0  0  0  0  0  0  0  0  0  0
  -30.6820  -18.2710   18.1200 C   0  0  0  0  0  0  0  0  0  0  0  0
  -30.1500  -20.5750   17.9410 F   0  0  0  0  0  0  0  0  0  0  0  0
  -31.0810  -15.9450   18.1540 F   0  0  0  0  0  0  0  0  0  0  0  0
  -31.2750  -18.3310   16.9020 F   0  0  0  0  0  0  0  0  0  0  0  0
  -30.6700  -14.5910   20.6300 C   0  0  0  0  0  0  0  0  0  0  0  0
  -30.4730  -12.3600   19.6200 C   0  0  0  0  0  2  0  0  0  0  0  0
  -29.5900  -12.5010   18.3620 C   0  0  0  0  0  2  0  0  0  0  0  0
  -28.0980  -12.3610   18.7250 C   0  0  0  0  0  2  0  0  0  0  0  0
  -27.6880  -13.2420   19.9340 C   0  0  0  0  0  3  0  0  0  0  0  0
  -28.6930  -13.0980   21.1000 C   0  0  0  0  0  2  0  0  0  0  0  0
  -30.0350  -13.3880   20.5790 N   0  0  0  0  0  0  0  0  0  0  0  0
  -31.8710  -14.7130   20.3770 O   0  0  0  0  0  0  0  0  0  0  0  0
  -29.8650  -15.6770   20.7630 N   0  0  0  0  0  0  0  0  0  0  0  0
  -28.9700  -15.4950   21.1900 H   0  0  0  0  0  0  0  0  0  0  0  0
  -25.2610  -13.8470   20.5300 C   0  0  0  0  0  0  0  0  0  0  0  0
  -24.1820  -13.0760   20.8670 C   0  0  0  0  0  0  0  0  0  0  0  0
  -24.6500  -11.7270   20.8840 C   0  0  0  0  0  0  0  0  0  0  0  0
  -26.3190  -12.9670   20.3620 N   0  0  0  0  0  0  0  0  0  0  0  0
  -25.9540  -11.6880   20.6350 N   0  0  0  0  0  0  0  0  0  0  0  0
  -23.9230  -10.4630   21.0660 C   0  0  0  0  0  0  0  0  0  0  0  0
  -24.3290   -9.5090   22.0240 C   0  0  0  0  0  3  0  0  0  0  0  0
  -23.6030   -8.3110   22.1920 C   0  0  0  0  0  3  0  0  0  0  0  0
  -22.4570   -8.0580   21.4010 C   0  0  0  0  0  0  0  0  0  0  0  0
  -22.0710   -9.0010   20.4330 C   0  0  0  0  0  3  0  0  0  0  0  0
  -22.7970  -10.1910   20.2630 C   0  0  0  0  0  3  0  0  0  0  0  0
  -21.7050   -6.9110   21.4780 O   0  0  0  0  0  0  0  0  0  0  0  0
  -21.6310   -6.1740   22.6330 C   0  0  0  0  0  0  0  0  0  0  0  0
  -21.1750   -6.7340   23.8460 C   0  0  0  0  0  3  0  0  0  0  0  0
  -21.0490   -5.9240   24.9910 C   0  0  0  0  0  3  0  0  0  0  0  0
  -21.3670   -4.5540   24.9240 C   0  0  0  0  0  0  0  0  0  0  0  0
  -21.8160   -3.9930   23.7160 C   0  0  0  0  0  3  0  0  0  0  0  0
  -21.9440   -4.8010   22.5720 C   0  0  0  0  0  0  0  0  0  0  0  0
  -22.3560   -4.2520   21.4050 F   0  0  0  0  0  0  0  0  0  0  0  0
  -21.2390   -3.7730   26.0220 F   0  0  0  0  0  0  0  0  0  0  0  0
  -22.7700  -13.5500   21.0650 C   0  0  0  0  0  0  0  0  0  0  0  0
  -22.0070  -12.8660   21.9100 N   0  0  0  0  0  0  0  0  0  0  0  0
  -22.3520  -14.5630   20.5060 O   0  0  0  0  0  0  0  0  0  0  0  0
  -22.3570  -12.0470   22.3850 H   0  0  0  0  0  0  0  0  0  0  0  0
  -21.0590  -13.1670   22.0850 H   0  0  0  0  0  0  0  0  0  0  0  0
  -25.4270  -15.2150   20.3320 N   0  0  0  0  0  0  0  0  0  0  0  0
  -24.6520  -15.8660   20.3880 H   0  0  0  0  0  0  0  0  0  0  0  0
  -26.2840  -15.6480   20.0100 H   0  0  0  0  0  0  0  0  0  0  0  0
  -27.9740  -22.8690   20.5400 C   0  0  0  0  0  0  0  0  0  0  0  0
  -26.7980  -22.5170   20.3830 O   0  0  0  0  0  0  0  0  0  0  0  0
  -28.2810  -24.3350   20.9460 C   0  0  0  0  0  2  0  0  0  0  0  0
  -28.5130  -25.3320   19.7750 C   0  0  0  0  0  2  0  0  0  0  0  0
  -28.4480  -26.7270   20.1730 O   0  0  0  0  0  0  0  0  0  0  0  0
  -24.5990  -31.8980   23.2530 C   0  0  0  0  0  0  0  0  0  0  0  0
  -27.2530  -27.4360   20.1650 C   0  0  0  0  0  0  0  0  0  0  0  0
  -23.3980  -30.4960   21.6100 C   0  0  0  0  0  3  0  0  0  0  0  0
  -24.8540  -28.9630   20.1820 C   0  0  0  0  0  0  0  0  0  0  0  0
  -25.9260  -30.8540   21.4130 C   0  0  0  0  0  2  0  0  0  0  0  0
  -26.0140  -29.4830   20.7680 C   0  0  0  0  0  0  0  0  0  0  0  0
  -27.2130  -28.7280   20.7510 C   0  0  0  0  0  3  0  0  0  0  0  0
  -26.0630  -26.9360   19.5850 C   0  0  0  0  0  3  0  0  0  0  0  0
  -24.8760  -27.6910   19.5880 C   0  0  0  0  0  3  0  0  0  0  0  0
  -23.6090  -29.8220   20.2280 C   0  0  0  0  0  2  0  0  0  0  0  0
  -24.6600  -31.0980   22.1500 N   0  0  0  0  0  0  0  0  0  0  0  0
  -23.5150  -32.1640   23.7930 O   0  0  0  0  0  0  0  0  0  0  0  0
  -22.7500  -29.4690   22.5680 C   0  0  0  0  0  0  0  0  0  0  0  0
  -21.4250  -29.2850   22.4430 N   0  0  0  0  0  0  0  0  0  0  0  0
  -23.4370  -28.8420   23.3790 O   0  0  0  0  0  0  0  0  0  0  0  0
  -20.9320  -29.8430   21.7600 H   0  0  0  0  0  0  0  0  0  0  0  0
  -18.0550  -28.0820   22.9450 C   0  0  0  0  0  0  0  0  0  0  0  0
  -20.6130  -28.3420   23.2110 C   0  0  0  0  0  3  0  0  0  0  0  0
  -20.7160  -26.9140   22.6270 C   0  0  0  0  0  2  0  0  0  0  0  0
  -19.6110  -26.5940   21.6150 C   0  0  0  0  0  2  0  0  0  0  0  0
  -18.2300  -26.7350   22.2630 C   0  0  0  0  0  2  0  0  0  0  0  0
  -19.1740  -28.8430   23.3760 C   0  0  0  0  0  0  0  0  0  0  0  0
  -18.9550  -30.1040   23.9730 C   0  0  0  0  0  3  0  0  0  0  0  0
  -17.6500  -30.6030   24.1440 C   0  0  0  0  0  3  0  0  0  0  0  0
  -16.5460  -29.8380   23.7290 C   0  0  0  0  0  3  0  0  0  0  0  0
  -16.7490  -28.5800   23.1370 C   0  0  0  0  0  3  0  0  0  0  0  0
  -25.8810  -32.5340   23.8740 C   0  0  0  0  0  3  0  0  0  0  0  0
  -26.3990  -31.7660   25.1520 C   0  0  1  0  0  0  0  0  0  0  0  0
  -25.3060  -31.5290   26.2190 C   0  0  0  0  0  1  0  0  0  0  0  0
  -26.9850  -30.3890   24.7610 C   0  0  0  0  0  1  0  0  0  0  0  0
  -27.5470  -32.5640   25.8120 C   0  0  0  0  0  1  0  0  0  0  0  0
  -25.5680  -33.9320   24.1990 N   0  0  0  0  0  0  0  0  0  0  0  0
  -25.8980  -34.9820   23.4360 C   0  0  0  0  0  0  0  0  0  0  0  0
  -26.5690  -34.8760   22.4050 O   0  0  0  0  0  0  0  0  0  0  0  0
  -24.9730  -34.0870   24.9990 H   0  0  0  0  0  0  0  0  0  0  0  0
  -24.1660  -36.7690   23.0730 C   0  0  0  0  0  1  0  0  0  0  0  0
  -25.4060  -36.3700   23.8880 C   0  0  0  0  0  3  0  0  0  0  0  0
  -27.5370  -37.2640   24.7190 C   0  0  0  0  0  1  0  0  0  0  0  0
  -26.4370  -37.4260   23.7730 N   0  0  0  0  0  0  0  0  0  0  0  0
  -26.0290  -38.3460   23.9150 H   0  0  0  0  0  0  0  0  0  0  0  0
  1  2  1  0
  1 52  1  0
  2  4  1  0
  3  1  2  0
  6  2  1  0
  6  5  2  0
  7  5  1  0
  7 22  1  0
  8  6  1  0
  9  7  2  0
 10  8  2  0
 10  9  1  0
 11  8  1  0
 12  9  1  0
 13 10  1  0
 14 22  1  0
 15 20  1  0
 16 17  1  0
 16 15  1  0
 18 17  1  0
 18 27  1  0
 18 19  1  0
 20 14  1  0
 20 19  1  0
 21 14  2  0
 22 23  1  0
 24 25  2  0
 25 26  1  0
 25 44  1  0
 26 29  1  0
 27 24  1  0
 27 28  1  0
 28 26  2  0
 29 30  1  0
 30 31  2  0
 32 35  1  0
 32 31  1  0
 33 32  2  0
 34 33  1  0
 34 29  2  0
 35 36  1  0
 36 37  1  0
 37 38  2  0
 39 38  1  0
 39 43  1  0
 40 39  2  0
 41 36  2  0
 41 40  1  0
 42 41  1  0
 44 45  1  0
 45 48  1  0
 45 47  1  0
 46 44  2  0
 49 50  1  0
 49 24  1  0
 51 49  1  0
 52 54  1  0
 53 52  2  0
 55 56  1  0
 55 54  1  0
 57 68  2  0
 58 56  1  0
 58 63  1  0
 59 67  1  0
 59 69  1  0
 60 66  1  0
 60 62  1  0
 61 67  1  0
 62 61  1  0
 63 62  2  0
 64 65  1  0
 64 58  2  0
 65 60  2  0
 66 59  1  0
 67 57  1  0
 69 71  2  0
 70 69  1  0
 72 70  1  0
 73 82  2  0
 73 78  1  0
 74 70  1  0
 74 78  1  0
 75 74  1  0
 76 77  1  0
 76 75  1  0
 77 73  1  0
 78 79  2  0
 79 80  1  0
 81 80  2  0
 82 81  1  0
 83 57  1  0
 83 88  1  0
 83 84  1  0
 84 87  1  1
 84 85  1  0
 86 84  1  0
 88 91  1  0
 89 93  1  0
 89 88  1  0
 90 89  2  0
 93 92  1  0
 95 93  1  0
 95 96  1  0
 95 94  1  0
M  ISO  4  14 100  22 100  55 101  56 101
M  END
>  <TORSDO>  (4) 
F 20

>  <SCORE>  (4) 
-14.022

>  <name>  (4) 
3

>  <ligand_id>  (4) 
3

>  <original_smiles>  (4) 
[H]c1c([H])c([H])c2c(c1[H])C([H])([H])C([H])([H])C([H])([H])C2([H])N([H])C(=O)C1([H])N(C(=O)C([H])(N([H])C(=O)C([H])(N([H])C([H])([H])[H])C([H])([H])[H])C(C([H])([H])[H])(C([H])([H])[H])C([H])([H])[H])C([H])([H])c2c([H])c(OC([H])([H])C([H])([H])C(=O)C(=O)N([H])c3c([H])c(N([H])C(=O)N4C([H])([H])C([H])([H])C([H])([H])C([H])(n5nc(-c6c([H])c([H])c(Oc7c([H])c([H])c(F)c([H])c7F)c([H])c6[H])c(C(=O)N([H])[H])c5N([H])[H])C4([H])[H])c(F)c(F)c3F)c([H])c([H])c2C1([H])[H]

>  <smiles>  (4) 
[H]c1c([H])c([H])c2c(c1[H])C([H])([H])C([H])([H])C([H])([H])C2([H])N([H])C(=O)C1([H])N(C(=O)C([H])(N([H])C(=O)C([H])(N([H])C([H])([H])[H])C([H])([H])[H])C(C([H])([H])[H])(C([H])([H])[H])C([H])([H])[H])C([H])([H])c2c([H])c(OC([H])([H])C([H])([H])C(=O)C(=O)N([H])c3c([H])c(N([H])C(=O)N4C([H])([H])C([H])([H])C([H])([H])C([H])(n5nc(-c6c([H])c([H])c(Oc7c([H])c([H])c(F)c([H])c7F)c([H])c6[H])c(C(=O)N([H])[H])c5N([H])[H])C4([H])[H])c(F)c(F)c3F)c([H])c([H])c2C1([H])[H]

$$$$
4:0:0
     RDKit          3D

 96104  0  0  1  0  0  0  0  0999 V2000
  -29.3740  -21.5480   20.6970 C   0  0  0  0  0  0  0  0  0  0  0  0
  -28.7660  -20.4980   20.0970 N   0  0  0  0  0  0  0  0  0  0  0  0
  -30.5120  -21.5120   21.1780 O   0  0  0  0  0  0  0  0  0  0  0  0
  -27.8740  -20.7360   19.6820 H   0  0  0  0  0  0  0  0  0  0  0  0
  -28.9030  -18.3510   18.9360 C   0  0  0  0  0  0  0  0  0  0  0  0
  -29.3060  -16.9950   19.1730 C   0  0  0  0  0  0  0  0  0  0  0  0
  -29.1500  -19.1840   20.0040 C   0  0  0  0  0  0  0  0  0  0  0  0
  -29.8370  -16.7210   20.4120 C   0  0  0  0  0  0  0  0  0  0  0  0
  -28.2610  -18.8050   17.6580 C   0  0  0  0  0  1  0  0  0  0  0  0
  -29.1250  -16.0740   18.2540 F   0  0  0  0  0  0  0  0  0  0  0  0
  -29.9030  -18.2510   21.3000 S   0  0  0  0  0  0  0  0  0  0  0  0
  -30.7720  -14.5330   20.1360 C   0  0  0  0  0  0  0  0  0  0  0  0
  -30.3680  -12.4190   18.9130 C   0  0  0  0  0  2  0  0  0  0  0  0
  -29.3570  -12.6440   17.7720 C   0  0  0  0  0  2  0  0  0  0  0  0
  -27.9140  -12.4840   18.2880 C   0  0  0  0  0  2  0  0  0  0  0  0
  -27.6510  -13.2900   19.5870 C   0  0  0  0  0  3  0  0  0  0  0  0
  -28.7700  -13.0580   20.6250 C   0  0  0  0  0  2  0  0  0  0  0  0
  -30.0590  -13.3790   19.9870 N   0  0  0  0  0  0  0  0  0  0  0  0
  -31.8370  -14.7310   19.5420 O   0  0  0  0  0  0  0  0  0  0  0  0
  -30.5750  -15.4320   22.3550 C   0  0  0  0  0  1  0  0  0  0  0  0
  -30.2440  -15.5070   20.9270 N   0  0  0  0  0  0  0  0  0  0  0  0
  -25.3030  -13.8820   20.4510 C   0  0  0  0  0  0  0  0  0  0  0  0
  -24.2550  -13.1020   20.8620 C   0  0  0  0  0  0  0  0  0  0  0  0
  -24.7100  -11.7510   20.7710 C   0  0  0  0  0  0  0  0  0  0  0  0
  -26.3300  -13.0050   20.1380 N   0  0  0  0  0  0  0  0  0  0  0  0
  -25.9810  -11.7170   20.3870 N   0  0  0  0  0  0  0  0  0  0  0  0
  -23.9930  -10.4850   20.9700 C   0  0  0  0  0  0  0  0  0  0  0  0
  -24.4480   -9.5140   21.8890 C   0  0  0  0  0  3  0  0  0  0  0  0
  -23.7320   -8.3130   22.0760 C   0  0  0  0  0  3  0  0  0  0  0  0
  -22.5430   -8.0740   21.3460 C   0  0  0  0  0  0  0  0  0  0  0  0
  -22.1070   -9.0340   20.4150 C   0  0  0  0  0  3  0  0  0  0  0  0
  -22.8240  -10.2260   20.2250 C   0  0  0  0  0  3  0  0  0  0  0  0
  -21.7950   -6.9270   21.4430 O   0  0  0  0  0  0  0  0  0  0  0  0
  -21.7340   -6.2040   22.6080 C   0  0  0  0  0  0  0  0  0  0  0  0
  -21.2990   -6.7820   23.8220 C   0  0  0  0  0  3  0  0  0  0  0  0
  -21.1830   -5.9860   24.9790 C   0  0  0  0  0  3  0  0  0  0  0  0
  -21.4950   -4.6140   24.9240 C   0  0  0  0  0  0  0  0  0  0  0  0
  -21.9230   -4.0370   23.7160 C   0  0  0  0  0  3  0  0  0  0  0  0
  -22.0390   -4.8290   22.5610 C   0  0  0  0  0  0  0  0  0  0  0  0
  -22.4320   -4.2630   21.3940 F   0  0  0  0  0  0  0  0  0  0  0  0
  -21.3770   -3.8480   26.0330 F   0  0  0  0  0  0  0  0  0  0  0  0
  -22.8770  -13.5740   21.2270 C   0  0  0  0  0  0  0  0  0  0  0  0
  -22.2020  -12.8610   22.1220 N   0  0  0  0  0  0  0  0  0  0  0  0
  -22.4100  -14.6080   20.7520 O   0  0  0  0  0  0  0  0  0  0  0  0
  -22.5950  -12.0240   22.5260 H   0  0  0  0  0  0  0  0  0  0  0  0
  -21.2810  -13.1590   22.4080 H   0  0  0  0  0  0  0  0  0  0  0  0
  -25.4620  -15.2550   20.2980 N   0  0  0  0  0  0  0  0  0  0  0  0
  -24.7090  -15.9140   20.4640 H   0  0  0  0  0  0  0  0  0  0  0  0
  -26.3010  -15.6940   19.9370 H   0  0  0  0  0  0  0  0  0  0  0  0
  -28.4370  -22.8220   20.7650 C   0  0  0  0  0  0  0  0  0  0  0  0
  -27.2760  -22.6430   21.1560 O   0  0  0  0  0  0  0  0  0  0  0  0
  -28.1120  -25.2780   20.6030 C   0  0  0  0  0  3  0  0  0  0  0  0
  -28.9070  -24.2030   20.3650 C   0  0  0  0  0  0  0  0  0  0  0  0
  -30.0930  -24.3470   19.7570 O   0  0  0  0  0  0  0  0  0  0  0  0
  -30.2010  -25.2750   19.5840 H   0  0  0  0  0  0  0  0  0  0  0  0
  -28.3620  -26.6000   20.2420 O   0  0  0  0  0  0  0  0  0  0  0  0
  -24.6050  -31.9070   23.2360 C   0  0  0  0  0  0  0  0  0  0  0  0
  -27.2450  -27.4200   20.1890 C   0  0  0  0  0  0  0  0  0  0  0  0
  -23.4010  -30.4900   21.6080 C   0  0  0  0  0  3  0  0  0  0  0  0
  -24.8570  -28.9530   20.1830 C   0  0  0  0  0  0  0  0  0  0  0  0
  -25.9290  -30.8470   21.4060 C   0  0  0  0  0  2  0  0  0  0  0  0
  -26.0190  -29.4710   20.7730 C   0  0  0  0  0  0  0  0  0  0  0  0
  -27.2180  -28.7110   20.7740 C   0  0  0  0  0  3  0  0  0  0  0  0
  -26.0700  -26.9410   19.5670 C   0  0  0  0  0  3  0  0  0  0  0  0
  -24.8800  -27.6890   19.5740 C   0  0  0  0  0  3  0  0  0  0  0  0
  -23.6100  -29.8090   20.2310 C   0  0  0  0  0  2  0  0  0  0  0  0
  -24.6640  -31.0970   22.1420 N   0  0  0  0  0  0  0  0  0  0  0  0
  -23.5230  -32.1790   23.7770 O   0  0  0  0  0  0  0  0  0  0  0  0
  -22.7550  -29.4720   22.5770 C   0  0  0  0  0  0  0  0  0  0  0  0
  -21.4310  -29.2780   22.4500 N   0  0  0  0  0  0  0  0  0  0  0  0
  -23.4410  -28.8590   23.3980 O   0  0  0  0  0  0  0  0  0  0  0  0
  -20.9380  -29.8240   21.7570 H   0  0  0  0  0  0  0  0  0  0  0  0
  -18.0660  -28.0550   22.9460 C   0  0  0  0  0  0  0  0  0  0  0  0
  -20.6200  -28.3430   23.2280 C   0  0  0  0  0  3  0  0  0  0  0  0
  -20.7400  -26.9050   22.6700 C   0  0  0  0  0  2  0  0  0  0  0  0
  -19.6470  -26.5590   21.6550 C   0  0  0  0  0  2  0  0  0  0  0  0
  -18.2600  -26.6990   22.2890 C   0  0  0  0  0  2  0  0  0  0  0  0
  -19.1750  -28.8340   23.3730 C   0  0  0  0  0  0  0  0  0  0  0  0
  -18.9400  -30.1030   23.9450 C   0  0  0  0  0  3  0  0  0  0  0  0
  -17.6290  -30.5940   24.0960 C   0  0  0  0  0  3  0  0  0  0  0  0
  -16.5360  -29.8120   23.6870 C   0  0  0  0  0  3  0  0  0  0  0  0
  -16.7550  -28.5450   23.1180 C   0  0  0  0  0  3  0  0  0  0  0  0
  -25.8890  -32.5480   23.8480 C   0  0  0  0  0  3  0  0  0  0  0  0
  -26.4190  -31.7830   25.1220 C   0  0  1  0  0  0  0  0  0  0  0  0
  -25.3340  -31.5400   26.1980 C   0  0  0  0  0  1  0  0  0  0  0  0
  -27.0080  -30.4070   24.7290 C   0  0  0  0  0  1  0  0  0  0  0  0
  -27.5690  -32.5850   25.7750 C   0  0  0  0  0  1  0  0  0  0  0  0
  -25.5730  -33.9450   24.1740 N   0  0  0  0  0  0  0  0  0  0  0  0
  -25.9070  -34.9970   23.4150 C   0  0  0  0  0  0  0  0  0  0  0  0
  -26.5830  -34.8940   22.3880 O   0  0  0  0  0  0  0  0  0  0  0  0
  -24.9750  -34.0980   24.9730 H   0  0  0  0  0  0  0  0  0  0  0  0
  -24.1790  -36.7860   23.0400 C   0  0  0  0  0  1  0  0  0  0  0  0
  -25.4110  -36.3840   23.8670 C   0  0  0  0  0  3  0  0  0  0  0  0
  -27.5360  -37.2710   24.7190 C   0  0  0  0  0  1  0  0  0  0  0  0
  -26.4420  -37.4400   23.7660 N   0  0  0  0  0  0  0  0  0  0  0  0
  -26.0330  -38.3590   23.9120 H   0  0  0  0  0  0  0  0  0  0  0  0
  1 50  1  0
  1  3  2  0
  2  1  1  0
  4  2  1  0
  5  6  1  0
  5  7  2  0
  6  8  2  0
  7  2  1  0
  7 11  1  0
  8 21  1  0
  8 11  1  0
  9  5  1  0
 10  6  1  0
 12 21  1  0
 13 18  1  0
 14 15  1  0
 14 13  1  0
 16 15  1  0
 16 25  1  0
 16 17  1  0
 18 12  1  0
 18 17  1  0
 19 12  2  0
 21 20  1  0
 22 23  2  0
 23 42  1  0
 24 23  1  0
 24 27  1  0
 25 26  1  0
 25 22  1  0
 26 24  2  0
 27 28  1  0
 28 29  2  0
 30 33  1  0
 30 29  1  0
 31 30  2  0
 32 31  1  0
 32 27  2  0
 33 34  1  0
 34 35  1  0
 35 36  2  0
 37 36  1  0
 37 41  1  0
 38 37  2  0
 39 34  2  0
 39 38  1  0
 40 39  1  0
 42 43  1  0
 43 46  1  0
 43 45  1  0
 44 42  2  0
 47 22  1  0
 47 48  1  0
 49 47  1  0
 50 51  2  0
 53 52  2  0
 53 50  1  0
 54 53  1  0
 55 54  1  0
 56 52  1  0
 57 68  2  0
 58 56  1  0
 58 63  1  0
 59 67  1  0
 59 69  1  0
 60 66  1  0
 60 62  1  0
 61 67  1  0
 62 63  2  0
 62 61  1  0
 64 65  1  0
 64 58  2  0
 65 60  2  0
 66 59  1  0
 67 57  1  0
 69 71  2  0
 70 69  1  0
 72 70  1  0
 73 82  2  0
 73 78  1  0
 74 70  1  0
 74 78  1  0
 75 74  1  0
 76 77  1  0
 76 75  1  0
 77 73  1  0
 78 79  2  0
 79 80  1  0
 81 80  2  0
 82 81  1  0
 83 57  1  0
 83 88  1  0
 83 84  1  0
 84 87  1  1
 84 85  1  0
 86 84  1  0
 88 91  1  0
 89 93  1  0
 89 88  1  0
 90 89  2  0
 93 92  1  0
 95 93  1  0
 95 96  1  0
 95 94  1  0
M  ISO  4  12 100  21 100  52 101  56 101
M  END
>  <TORSDO>  (5) 
F 20

>  <SCORE>  (5) 
-13.311

>  <name>  (5) 
4

>  <ligand_id>  (5) 
4

>  <original_smiles>  (5) 
[H]OC(C(=O)C(=O)N([H])c1sc(N(C(=O)N2C([H])([H])C([H])([H])C([H])([H])C([H])(n3nc(-c4c([H])c([H])c(Oc5c([H])c([H])c(F)c([H])c5F)c([H])c4[H])c(C(=O)N([H])[H])c3N([H])[H])C2([H])[H])C([H])([H])[H])c(F)c1C([H])([H])[H])=C([H])Oc1c([H])c([H])c2c(c1[H])C([H])([H])N(C(=O)C([H])(N([H])C(=O)C([H])(N([H])C([H])([H])[H])C([H])([H])[H])C(C([H])([H])[H])(C([H])([H])[H])C([H])([H])[H])C([H])(C(=O)N([H])C1([H])c3c([H])c([H])c([H])c([H])c3C([H])([H])C([H])([H])C1([H])[H])C2([H])[H]

>  <smiles>  (5) 
[H]OC(C(=O)C(=O)N([H])c1sc(N(C(=O)N2C([H])([H])C([H])([H])C([H])([H])C([H])(n3nc(-c4c([H])c([H])c(Oc5c([H])c([H])c(F)c([H])c5F)c([H])c4[H])c(C(=O)N([H])[H])c3N([H])[H])C2([H])[H])C([H])([H])[H])c(F)c1C([H])([H])[H])=C([H])Oc1c([H])c([H])c2c(c1[H])C([H])([H])N(C(=O)C([H])(N([H])C(=O)C([H])(N([H])C([H])([H])[H])C([H])([H])[H])C(C([H])([H])[H])(C([H])([H])[H])C([H])([H])[H])C([H])(C(=O)N([H])C1([H])c3c([H])c([H])c([H])c([H])c3C([H])([H])C([H])([H])C1([H])[H])C2([H])[H]

$$$$
5:0:0
     RDKit          3D

 96104  0  0  1  0  0  0  0  0999 V2000
  -29.0060  -22.4040   20.8020 C   0  0  0  0  0  0  0  0  0  0  0  0
  -29.3940  -21.2220   20.1720 N   0  0  0  0  0  0  0  0  0  0  0  0
  -28.5040  -22.3540   21.9280 O   0  0  0  0  0  0  0  0  0  0  0  0
  -29.5710  -21.3310   19.1830 H   0  0  0  0  0  0  0  0  0  0  0  0
  -30.5940  -14.9070   20.2400 C   0  0  0  0  0  0  0  0  0  0  0  0
  -30.4000  -12.6220   19.2120 C   0  0  0  0  0  2  0  0  0  0  0  0
  -29.4330  -12.6590   18.0080 C   0  0  0  0  0  2  0  0  0  0  0  0
  -27.9780  -12.4610   18.4780 C   0  0  0  0  0  2  0  0  0  0  0  0
  -27.6130  -13.3600   19.6890 C   0  0  0  0  0  3  0  0  0  0  0  0
  -28.6970  -13.3010   20.7860 C   0  0  0  0  0  2  0  0  0  0  0  0
  -29.9680  -13.6790   20.1570 N   0  0  0  0  0  0  0  0  0  0  0  0
  -31.7860  -14.9920   19.9250 O   0  0  0  0  0  0  0  0  0  0  0  0
  -31.1130  -17.5990   21.7790 C   0  0  0  0  0  3  0  0  0  0  0  0
  -31.4420  -18.8660   22.2800 C   0  0  0  0  0  0  0  0  0  0  0  0
  -30.8330  -20.0270   21.7700 C   0  0  0  0  0  0  0  0  0  0  0  0
  -30.1580  -17.4580   20.7590 C   0  0  0  0  0  0  0  0  0  0  0  0
  -29.8660  -19.9230   20.7410 C   0  0  0  0  0  0  0  0  0  0  0  0
  -29.5540  -18.6300   20.2700 N   0  0  0  0  0  0  0  0  0  0  0  0
  -29.8100  -16.0510   20.4050 N   0  0  0  0  0  0  0  0  0  0  0  0
  -32.3640  -18.9700   23.2700 F   0  0  0  0  0  0  0  0  0  0  0  0
  -31.2260  -21.2350   22.2540 F   0  0  0  0  0  0  0  0  0  0  0  0
  -28.8200  -15.8730   20.3570 H   0  0  0  0  0  0  0  0  0  0  0  0
  -25.2390  -13.9300   20.4780 C   0  0  0  0  0  0  0  0  0  0  0  0
  -24.1870  -13.1450   20.8640 C   0  0  0  0  0  0  0  0  0  0  0  0
  -24.6580  -11.7960   20.8070 C   0  0  0  0  0  0  0  0  0  0  0  0
  -26.2830  -13.0590   20.2100 N   0  0  0  0  0  0  0  0  0  0  0  0
  -25.9420  -11.7710   20.4720 N   0  0  0  0  0  0  0  0  0  0  0  0
  -23.9430  -10.5270   20.9980 C   0  0  0  0  0  0  0  0  0  0  0  0
  -24.3820   -9.5650   21.9340 C   0  0  0  0  0  3  0  0  0  0  0  0
  -23.6670   -8.3610   22.1120 C   0  0  0  0  0  3  0  0  0  0  0  0
  -22.4990   -8.1110   21.3540 C   0  0  0  0  0  0  0  0  0  0  0  0
  -22.0790   -9.0610   20.4070 C   0  0  0  0  0  3  0  0  0  0  0  0
  -22.7950  -10.2570   20.2270 C   0  0  0  0  0  3  0  0  0  0  0  0
  -21.7560   -6.9580   21.4420 O   0  0  0  0  0  0  0  0  0  0  0  0
  -21.6950   -6.2280   22.6010 C   0  0  0  0  0  0  0  0  0  0  0  0
  -21.2180   -6.7830   23.8080 C   0  0  0  0  0  3  0  0  0  0  0  0
  -21.1070   -5.9770   24.9590 C   0  0  0  0  0  3  0  0  0  0  0  0
  -21.4630   -4.6170   24.9030 C   0  0  0  0  0  0  0  0  0  0  0  0
  -21.9320   -4.0600   23.7000 C   0  0  0  0  0  3  0  0  0  0  0  0
  -22.0450   -4.8640   22.5510 C   0  0  0  0  0  0  0  0  0  0  0  0
  -22.4780   -4.3160   21.3910 F   0  0  0  0  0  0  0  0  0  0  0  0
  -21.3490   -3.8400   26.0060 F   0  0  0  0  0  0  0  0  0  0  0  0
  -22.7930  -13.6100   21.1640 C   0  0  0  0  0  0  0  0  0  0  0  0
  -22.0820  -12.8940   22.0280 N   0  0  0  0  0  0  0  0  0  0  0  0
  -22.3420  -14.6420   20.6700 O   0  0  0  0  0  0  0  0  0  0  0  0
  -22.4590  -12.0570   22.4480 H   0  0  0  0  0  0  0  0  0  0  0  0
  -21.1490  -13.1880   22.2740 H   0  0  0  0  0  0  0  0  0  0  0  0
  -25.3890  -15.3030   20.3120 N   0  0  0  0  0  0  0  0  0  0  0  0
  -24.6100  -15.9410   20.4300 H   0  0  0  0  0  0  0  0  0  0  0  0
  -26.2110  -15.7570   19.9340 H   0  0  0  0  0  0  0  0  0  0  0  0
  -29.1470  -23.8700   20.1170 C   0  0  2  0  0  0  0  0  0  0  0  0
  -29.1100  -23.6970   18.7910 F   0  0  0  0  0  0  0  0  0  0  0  0
  -31.7760  -23.7340   19.9210 C   0  0  0  0  0  1  0  0  0  0  0  0
  -30.5370  -24.4650   20.4760 C   0  0  0  0  0  2  0  0  0  0  0  0
  -28.0430  -25.0210   20.4790 C   0  0  0  0  0  2  0  0  0  0  0  0
  -28.2470  -26.4910   20.1610 O   0  0  0  0  0  0  0  0  0  0  0  0
  -24.5630  -31.9750   23.2390 C   0  0  0  0  0  0  0  0  0  0  0  0
  -27.1360  -27.3710   20.1570 C   0  0  0  0  0  0  0  0  0  0  0  0
  -23.3420  -30.5770   21.6130 C   0  0  0  0  0  3  0  0  0  0  0  0
  -24.7760  -29.0180   20.1740 C   0  0  0  0  0  0  0  0  0  0  0  0
  -25.8820  -30.8830   21.4040 C   0  0  0  0  0  2  0  0  0  0  0  0
  -25.9550  -29.4990   20.7560 C   0  0  0  0  0  0  0  0  0  0  0  0
  -27.1390  -28.6920   20.7290 C   0  0  0  0  0  3  0  0  0  0  0  0
  -25.9320  -26.9630   19.5410 C   0  0  0  0  0  3  0  0  0  0  0  0
  -24.7680  -27.7590   19.5560 C   0  0  0  0  0  3  0  0  0  0  0  0
  -23.5400  -29.8970   20.2310 C   0  0  0  0  0  2  0  0  0  0  0  0
  -24.6150  -31.1670   22.1390 N   0  0  0  0  0  0  0  0  0  0  0  0
  -23.4870  -32.2530   23.7860 O   0  0  0  0  0  0  0  0  0  0  0  0
  -22.6900  -29.5620   22.5830 C   0  0  0  0  0  0  0  0  0  0  0  0
  -21.3660  -29.3720   22.4630 N   0  0  0  0  0  0  0  0  0  0  0  0
  -23.3750  -28.9480   23.4060 O   0  0  0  0  0  0  0  0  0  0  0  0
  -20.8720  -29.9160   21.7700 H   0  0  0  0  0  0  0  0  0  0  0  0
  -18.0040  -28.1320   22.9760 C   0  0  0  0  0  0  0  0  0  0  0  0
  -20.5590  -28.4310   23.2410 C   0  0  0  0  0  3  0  0  0  0  0  0
  -20.6800  -26.9950   22.6810 C   0  0  0  0  0  2  0  0  0  0  0  0
  -19.5850  -26.6480   21.6670 C   0  0  0  0  0  2  0  0  0  0  0  0
  -18.2010  -26.7790   22.3100 C   0  0  0  0  0  2  0  0  0  0  0  0
  -19.1120  -28.9130   23.3970 C   0  0  0  0  0  0  0  0  0  0  0  0
  -18.8760  -30.1780   23.9790 C   0  0  0  0  0  3  0  0  0  0  0  0
  -17.5640  -30.6590   24.1450 C   0  0  0  0  0  3  0  0  0  0  0  0
  -16.4700  -29.8760   23.7380 C   0  0  0  0  0  3  0  0  0  0  0  0
  -16.6920  -28.6140   23.1590 C   0  0  0  0  0  3  0  0  0  0  0  0
  -25.8530  -32.6100   23.8430 C   0  0  0  0  0  3  0  0  0  0  0  0
  -26.3800  -31.8480   25.1230 C   0  0  1  0  0  0  0  0  0  0  0  0
  -25.2910  -31.6200   26.1990 C   0  0  0  0  0  1  0  0  0  0  0  0
  -26.9620  -30.4670   24.7390 C   0  0  0  0  0  1  0  0  0  0  0  0
  -27.5390  -32.6450   25.7670 C   0  0  0  0  0  1  0  0  0  0  0  0
  -25.5500  -34.0110   24.1680 N   0  0  0  0  0  0  0  0  0  0  0  0
  -25.8910  -35.0610   23.4080 C   0  0  0  0  0  0  0  0  0  0  0  0
  -26.5630  -34.9480   22.3790 O   0  0  0  0  0  0  0  0  0  0  0  0
  -24.9560  -34.1700   24.9700 H   0  0  0  0  0  0  0  0  0  0  0  0
  -24.1910  -36.8740   23.0310 C   0  0  0  0  0  1  0  0  0  0  0  0
  -25.4130  -36.4530   23.8610 C   0  0  0  0  0  3  0  0  0  0  0  0
  -27.5420  -37.3130   24.7340 C   0  0  0  0  0  1  0  0  0  0  0  0
  -26.4610  -37.4940   23.7690 N   0  0  0  0  0  0  0  0  0  0  0  0
  -26.0610  -38.4180   23.9100 H   0  0  0  0  0  0  0  0  0  0  0  0
  1  3  2  0
  2 17  1  0
  2  1  1  0
  4  2  1  0
  5 19  1  0
  6 11  1  0
  7  8  1  0
  7  6  1  0
  9  8  1  0
  9 26  1  0
  9 10  1  0
 11  5  1  0
 11 10  1  0
 12  5  2  0
 13 14  1  0
 14 20  1  0
 15 21  1  0
 15 14  2  0
 16 13  2  0
 17 15  1  0
 18 17  2  0
 18 16  1  0
 19 16  1  0
 22 19  1  0
 23 24  2  0
 24 43  1  0
 25 24  1  0
 25 28  1  0
 26 27  1  0
 26 23  1  0
 27 25  2  0
 28 29  1  0
 29 30  2  0
 31 34  1  0
 31 30  1  0
 32 31  2  0
 33 32  1  0
 33 28  2  0
 34 35  1  0
 35 36  1  0
 36 37  2  0
 38 37  1  0
 38 42  1  0
 39 38  2  0
 40 35  2  0
 40 39  1  0
 41 40  1  0
 43 44  1  0
 44 47  1  0
 44 46  1  0
 45 43  2  0
 48 49  1  0
 48 23  1  0
 50 48  1  0
 51 52  1  6
 51 54  1  0
 51 55  1  0
 51  1  1  0
 53 54  1  0
 56 55  1  0
 57 68  2  0
 58 56  1  0
 58 63  1  0
 59 67  1  0
 59 69  1  0
 60 66  1  0
 60 62  1  0
 61 67  1  0
 62 61  1  0
 63 62  2  0
 64 65  1  0
 64 58  2  0
 65 60  2  0
 66 59  1  0
 67 57  1  0
 69 71  2  0
 70 69  1  0
 72 70  1  0
 73 82  2  0
 73 78  1  0
 74 70  1  0
 74 78  1  0
 75 74  1  0
 76 77  1  0
 76 75  1  0
 77 73  1  0
 78 79  2  0
 79 80  1  0
 81 80  2  0
 82 81  1  0
 83 57  1  0
 83 88  1  0
 83 84  1  0
 84 87  1  1
 84 85  1  0
 86 84  1  0
 88 91  1  0
 89 93  1  0
 89 88  1  0
 90 89  2  0
 93 92  1  0
 95 93  1  0
 95 96  1  0
 95 94  1  0
M  ISO  4   5 100  19 100  55 101  56 101
M  END
>  <TORSDO>  (6) 
F 19

>  <SCORE>  (6) 
-14.397

>  <name>  (6) 
5

>  <ligand_id>  (6) 
5

>  <original_smiles>  (6) 
[H]c1c([H])c([H])c2c(c1[H])C([H])([H])C([H])([H])C([H])([H])C2([H])N([H])C(=O)C1([H])N(C(=O)C([H])(N([H])C(=O)C([H])(N([H])C([H])([H])[H])C([H])([H])[H])C(C([H])([H])[H])(C([H])([H])[H])C([H])([H])[H])C([H])([H])c2c([H])c(OC([H])([H])C(F)(C(=O)N([H])c3nc(N([H])C(=O)N4C([H])([H])C([H])([H])C([H])([H])C([H])(n5nc(-c6c([H])c([H])c(Oc7c([H])c([H])c(F)c([H])c7F)c([H])c6[H])c(C(=O)N([H])[H])c5N([H])[H])C4([H])[H])c([H])c(F)c3F)C([H])([H])C([H])([H])[H])c([H])c([H])c2C1([H])[H]

>  <smiles>  (6) 
[H]c1c([H])c([H])c2c(c1[H])C([H])([H])C([H])([H])C([H])([H])C2([H])N([H])C(=O)C1([H])N(C(=O)C([H])(N([H])C(=O)C([H])(N([H])C([H])([H])[H])C([H])([H])[H])C(C([H])([H])[H])(C([H])([H])[H])C([H])([H])[H])C([H])([H])c2c([H])c(OC([H])([H])C(F)(C(=O)N([H])c3nc(N([H])C(=O)N4C([H])([H])C([H])([H])C([H])([H])C([H])(n5nc(-c6c([H])c([H])c(Oc7c([H])c([H])c(F)c([H])c7F)c([H])c6[H])c(C(=O)N([H])[H])c5N([H])[H])C4([H])[H])c([H])c(F)c3F)C([H])([H])C([H])([H])[H])c([H])c([H])c2C1([H])[H]

$$$$
6:0:0
     RDKit          3D

 92 94  0  0  1  0  0  0  0  0999 V2000
  -26.2880  -21.7350   19.6380 C   0  0  0  0  0  3  0  0  0  0  0  0
  -24.8820  -21.6170   19.5270 C   0  0  0  0  0  0  0  0  0  0  0  0
  -24.6740  -24.5780   19.8940 C   0  0  0  0  0  3  0  0  0  0  0  0
  -23.0240  -27.9600   20.1440 C   0  0  0  0  0  2  0  0  0  0  0  0
  -24.2270  -20.3100   19.2310 C   0  0  0  0  0  1  0  0  0  0  0  0
  -25.9660  -23.5140   19.7690 N   0  0  0  0  0  0  0  0  0  0  0  0
  -23.8520  -26.4100   19.7420 N   0  0  0  0  0  2  0  0  0  0  0  0
  -22.4810  -28.5070   19.1840 O   0  0  0  0  0  1  0  0  0  0  0  0
  -23.6540  -23.0780   19.6780 S   0  0  0  0  0  0  0  0  0  0  0  0
  -23.7240  -26.4670   18.7400 H   0  0  0  0  0  0  0  0  0  0  0  0
  -22.2020  -29.4900   23.6100 C   0  0  0  0  0  1  0  0  0  0  0  0
  -23.0410  -29.3840   22.2480 C   0  0  0  0  0  1  0  0  0  0  0  0
  -25.3810  -28.9240   22.9380 O   0  0  0  0  0  1  0  0  0  0  0  0
  -24.6030  -31.5410   22.9520 C   0  0  0  0  0  0  0  0  0  0  0  0
  -26.6100  -28.1610   22.2220 C   0  0  0  0  0  3  0  0  0  0  0  0
  -24.5990  -29.0990   20.9800 C   0  0  0  0  0  2  0  0  0  0  0  0
  -26.2140  -28.9230   19.8100 C   0  0  0  0  0  3  0  0  0  0  0  0
  -26.2500  -31.0690   21.2140 C   0  0  0  0  0  2  0  0  0  0  0  0
  -26.9110  -29.7720   20.7530 C   0  0  0  0  0  3  0  0  0  0  0  0
  -27.5540  -29.0860   21.7780 C   0  0  0  0  0  2  0  0  0  0  0  0
  -26.5650  -27.1180   21.1840 C   0  0  0  0  0  2  0  0  0  0  0  0
  -26.3310  -27.5300   19.8700 C   0  0  0  0  0  2  0  0  0  0  0  0
  -24.8530  -29.2360   19.5240 C   0  0  0  0  0  2  0  0  0  0  0  0
  -24.9090  -30.7650   21.6930 N   0  0  0  0  0  0  0  0  0  0  0  0
  -23.4450  -31.8550   23.2850 O   0  0  0  0  0  0  0  0  0  0  0  0
  -23.9930  -27.1780   22.7660 C   0  0  0  0  0  2  0  0  0  0  0  0
  -22.4750  -26.8990   23.0460 N   0  0  0  0  0  0  0  0  0  0  0  0
  -24.1900  -27.2580   23.9690 O   0  0  0  0  0  1  0  0  0  0  0  0
  -22.4730  -26.4980   23.9730 H   0  0  0  0  0  0  0  0  0  0  0  0
  -18.3500  -27.2690   21.6480 C   0  0  0  0  0  0  0  0  0  0  0  0
  -20.8850  -26.9880   22.5590 C   0  0  0  0  0  3  0  0  0  0  0  0
  -20.8360  -25.7900   21.6750 C   0  0  0  0  0  2  0  0  0  0  0  0
  -20.0620  -25.9920   20.4020 C   0  0  0  0  0  2  0  0  0  0  0  0
  -18.6110  -26.0740   20.7700 C   0  0  0  0  0  2  0  0  0  0  0  0
  -19.4050  -27.8540   22.4680 C   0  0  0  0  0  0  0  0  0  0  0  0
  -18.8600  -28.9820   23.2020 C   0  0  0  0  0  3  0  0  0  0  0  0
  -17.5090  -29.4600   23.1000 C   0  0  0  0  0  3  0  0  0  0  0  0
  -16.5580  -28.8170   22.2980 C   0  0  0  0  0  3  0  0  0  0  0  0
  -16.9970  -27.7060   21.5780 C   0  0  0  0  0  3  0  0  0  0  0  0
  -25.5880  -32.2820   24.0460 C   0  0  0  0  0  3  0  0  0  0  0  0
  -25.2260  -33.7320   24.1990 N   0  0  0  0  0  0  0  0  0  0  0  0
  -25.8270  -34.7750   23.6000 C   0  0  0  0  0  0  0  0  0  0  0  0
  -26.7420  -34.6110   22.7940 O   0  0  0  0  0  0  0  0  0  0  0  0
  -24.4250  -33.9250   24.7820 H   0  0  0  0  0  0  0  0  0  0  0  0
  -24.2530  -36.6180   22.8790 C   0  0  0  0  0  1  0  0  0  0  0  0
  -25.3350  -36.2180   23.8960 C   0  0  0  0  0  3  0  0  0  0  0  0
  -27.3430  -37.1400   24.9880 C   0  0  0  0  0  1  0  0  0  0  0  0
  -26.4090  -37.2440   23.8730 N   0  0  0  0  0  0  0  0  0  0  0  0
  -26.0110  -38.1790   23.8820 H   0  0  0  0  0  0  0  0  0  0  0  0
  -25.6850  -31.7390   25.5700 C   0  0  1  0  0  0  0  0  0  0  0  0
  -24.3530  -31.6740   26.3640 C   0  0  0  0  0  1  0  0  0  0  0  0
  -26.3270  -30.3470   25.6340 C   0  0  0  0  0  1  0  0  0  0  0  0
  -26.6200  -32.6490   26.4230 C   0  0  0  0  0  1  0  0  0  0  0  0
  -27.7590  -20.0440   19.5550 C   0  0  0  0  0 15  0  0  0  0  0  0
  -29.4520  -16.6430   19.3830 C   0  0  0  0  0  0  0  0  0  0  0  0
  -30.1840  -13.9570   18.5900 C   0  0  0  0  0  2  0  0  0  0  0  0
  -29.3720  -13.0940   17.5450 C   0  0  0  0  0  2  0  0  0  0  0  0
  -28.0660  -12.5690   18.1500 C   0  0  0  0  0  2  0  0  0  0  0  0
  -27.5260  -13.6270   19.1220 C   0  0  0  0  0  3  0  0  0  0  0  0
  -28.5320  -14.1700   20.1430 C   0  0  0  0  0  2  0  0  0  0  0  0
  -29.3470  -15.0970   19.3440 N   0  0  0  0  0  0  0  0  0  0  0  0
  -30.7090  -16.6370   19.1150 O   0  0  0  0  0  0  0  0  0  0  0  0
  -28.3430  -18.0250   19.5560 N   0  0  0  0  0  2  0  0  0  0  0  0
  -27.4740  -17.5500   19.7600 H   0  0  0  0  0  0  0  0  0  0  0  0
  -25.3730  -14.2400   20.1900 C   0  0  0  0  0  0  0  0  0  0  0  0
  -24.3390  -13.5050   20.6770 C   0  0  0  0  0  0  0  0  0  0  0  0
  -24.7290  -12.1340   20.5460 C   0  0  0  0  0  0  0  0  0  0  0  0
  -26.3010  -13.3140   19.7750 N   0  0  0  0  0  0  0  0  0  0  0  0
  -25.9600  -12.0380   20.0610 N   0  0  0  0  0  0  0  0  0  0  0  0
  -23.9690  -10.9090   20.7820 C   0  0  0  0  0  0  0  0  0  0  0  0
  -24.4510   -9.8930   21.6340 C   0  0  0  0  0  3  0  0  0  0  0  0
  -23.6820   -8.7320   21.8630 C   0  0  0  0  0  3  0  0  0  0  0  0
  -22.4210   -8.5840   21.2370 C   0  0  0  0  0  0  0  0  0  0  0  0
  -21.9610   -9.5890   20.3670 C   0  0  0  0  0  3  0  0  0  0  0  0
  -22.7290  -10.7390   20.1370 C   0  0  0  0  0  3  0  0  0  0  0  0
  -21.6140   -7.4830   21.3810 O   0  0  0  0  0  0  0  0  0  0  0  0
  -21.6510   -6.7110   22.5130 C   0  0  0  0  0  0  0  0  0  0  0  0
  -21.3850   -7.2480   23.7920 C   0  0  0  0  0  3  0  0  0  0  0  0
  -21.3650   -6.4030   24.9190 C   0  0  0  0  0  3  0  0  0  0  0  0
  -21.6010   -5.0230   24.7700 C   0  0  0  0  0  0  0  0  0  0  0  0
  -21.8620   -4.4870   23.4960 C   0  0  0  0  0  3  0  0  0  0  0  0
  -21.8850   -5.3290   22.3710 C   0  0  0  0  0  0  0  0  0  0  0  0
  -22.1150   -4.8040   21.1430 F   0  0  0  0  0  0  0  0  0  0  0  0
  -21.5750   -4.2100   25.8510 F   0  0  0  0  0  0  0  0  0  0  0  0
  -23.0200  -14.0510   21.1180 C   0  0  0  0  0  0  0  0  0  0  0  0
  -22.3620  -13.3750   22.0500 N   0  0  0  0  0  0  0  0  0  0  0  0
  -22.5920  -15.1130   20.6690 O   0  0  0  0  0  0  0  0  0  0  0  0
  -22.7310  -12.5130   22.4280 H   0  0  0  0  0  0  0  0  0  0  0  0
  -21.4800  -13.7230   22.3930 H   0  0  0  0  0  0  0  0  0  0  0  0
  -25.5900  -15.6090   20.0200 N   0  0  0  0  0  0  0  0  0  0  0  0
  -24.8000  -16.2330   20.1500 H   0  0  0  0  0  0  0  0  0  0  0  0
  -26.2090  -15.9150   19.2820 H   0  0  0  0  0  0  0  0  0  0  0  0
  1  6  1  0
  2  1  2  0
  2  9  1  0
  5  2  1  0
  6  3  2  0
  7  4  1  0
  8  4  1  0
  9  3  1  0
 10  7  1  0
 12 11  1  0
 14 25  2  0
 15 13  1  0
 16 24  1  0
 17 23  1  0
 17 22  1  0
 17 19  1  0
 18 24  1  0
 19 18  1  0
 19 20  1  0
 20 15  1  0
 21 15  1  0
 22 21  1  0
 23 16  1  0
 24 14  1  0
 26 27  1  0
 26 28  1  0
 27 29  1  0
 30 35  1  0
 31 27  1  0
 32 31  1  0
 33 34  1  0
 33 32  1  0
 34 30  1  0
 35 31  1  0
 35 36  2  0
 37 36  1  0
 38 37  2  0
 39 30  2  0
 39 38  1  0
 40 14  1  0
 40 41  1  0
 40 50  1  0
 41 44  1  0
 42 46  1  0
 42 41  1  0
 43 42  2  0
 46 45  1  0
 48 49  1  0
 48 46  1  0
 48 47  1  0
 50 52  1  6
 50 51  1  0
 50 53  1  0
 55 63  1  0
 56 61  1  0
 57 58  1  0
 57 56  1  0
 59 58  1  0
 59 68  1  0
 59 60  1  0
 61 55  1  0
 61 60  1  0
 62 55  2  0
 63 64  1  0
 65 66  2  0
 66 85  1  0
 67 66  1  0
 67 70  1  0
 68 69  1  0
 68 65  1  0
 69 67  2  0
 70 71  1  0
 71 72  2  0
 73 76  1  0
 73 72  1  0
 74 73  2  0
 75 74  1  0
 75 70  2  0
 76 77  1  0
 77 78  1  0
 78 79  2  0
 80 79  1  0
 80 84  1  0
 81 80  2  0
 82 77  2  0
 82 81  1  0
 83 82  1  0
 85 86  1  0
 86 89  1  0
 86 88  1  0
 87 85  2  0
 90 91  1  0
 90 65  1  0
 92 90  1  0
M  ISO  4  12 101  13 101  55 100  63 100
M  END
>  <TORSDO>  (7) 
F 18

>  <SCORE>  (7) 
-9.406

>  <name>  (7) 
6

>  <ligand_id>  (7) 
6

>  <original_smiles>  (7) 
[H]c1c([H])c([H])c2c(c1[H])C([H])([H])C([H])([H])C([H])([H])C2([H])N([H])C(=O)C1([H])N(C(=O)C([H])(N([H])C(=O)C([H])(N([H])C([H])([H])[H])C([H])([H])[H])C(C([H])([H])[H])(C([H])([H])[H])C([H])([H])[H])C([H])([H])c2c([H])c(OC([H])(C(=O)N([H])c3nc(C([H])([H])N([H])C(=O)N4C([H])([H])C([H])([H])C([H])([H])C([H])(n5nc(-c6c([H])c([H])c(Oc7c([H])c([H])c(F)c([H])c7F)c([H])c6[H])c(C(=O)N([H])[H])c5N([H])[H])C4([H])[H])c(C([H])([H])[H])s3)C([H])([H])[H])c([H])c([H])c2C1([H])[H]

>  <smiles>  (7) 
[H]c1c([H])c([H])c2c(c1[H])C([H])([H])C([H])([H])C([H])([H])C2([H])N([H])C(=O)C1([H])N(C(=O)C([H])(N([H])C(=O)C([H])(N([H])C([H])([H])[H])C([H])([H])[H])C(C([H])([H])[H])(C([H])([H])[H])C([H])([H])[H])C([H])([H])c2c([H])c(OC([H])(C(=O)N([H])c3nc(C([H])([H])N([H])C(=O)N4C([H])([H])C([H])([H])C([H])([H])C([H])(n5nc(-c6c([H])c([H])c(Oc7c([H])c([H])c(F)c([H])c7F)c([H])c6[H])c(C(=O)N([H])[H])c5N([H])[H])C4([H])[H])c(C([H])([H])[H])s3)C([H])([H])[H])c([H])c([H])c2C1([H])[H]

$$$$
7:0:0
     RDKit          3D

100108  0  0  1  0  0  0  0  0999 V2000
  -29.1530  -20.8920   20.2560 C   0  0  0  0  0  3  0  0  0  0  0  0
  -29.7170  -23.4710   20.5150 C   0  0  0  0  0  0  0  0  0  0  0  0
  -29.8940  -22.0130   20.5500 N   0  0  0  0  0  0  0  0  0  0  0  0
  -27.9500  -20.8400   19.6230 N   0  0  0  0  0  0  0  0  0  0  0  0
  -30.7430  -24.1580   20.5170 O   0  0  0  0  0  0  0  0  0  0  0  0
  -30.8310  -21.6800   20.7500 H   0  0  0  0  0  0  0  0  0  0  0  0
  -27.5780  -19.9020   19.5650 H   0  0  0  0  0  0  0  0  0  0  0  0
  -30.8940  -14.6600   20.3730 C   0  0  0  0  0  0  0  0  0  0  0  0
  -30.6480  -12.4400   19.2950 C   0  0  0  0  0  2  0  0  0  0  0  0
  -29.7050  -12.5790   18.0780 C   0  0  0  0  0  2  0  0  0  0  0  0
  -28.2250  -12.4640   18.5010 C   0  0  0  0  0  2  0  0  0  0  0  0
  -27.8850  -13.3520   19.7270 C   0  0  0  0  0  3  0  0  0  0  0  0
  -28.9300  -13.1470   20.8490 C   0  0  0  0  0  2  0  0  0  0  0  0
  -30.2570  -13.4560   20.2860 N   0  0  0  0  0  0  0  0  0  0  0  0
  -32.0290  -14.8360   19.9130 O   0  0  0  0  0  0  0  0  0  0  0  0
  -29.7620  -19.5660   20.5330 C   0  0  0  0  0  0  0  0  0  0  0  0
  -31.0900  -19.2000   20.6820 C   0  0  0  0  0  0  0  0  0  0  0  0
  -30.2000  -17.0860   20.7310 C   0  0  0  0  0  0  0  0  0  0  0  0
  -31.3260  -17.8120   20.7490 N   0  0  0  0  0  0  0  0  0  0  0  0
  -30.1260  -15.6560   20.8800 N   0  0  0  0  0  0  0  0  0  0  0  0
  -28.7590  -18.1100   20.6090 S   0  0  0  0  0  0  0  0  0  0  0  0
  -29.2350  -15.3210   21.2110 H   0  0  0  0  0  0  0  0  0  0  0  0
  -25.5070  -14.0340   20.4350 C   0  0  0  0  0  0  0  0  0  0  0  0
  -24.4150  -13.2940   20.8060 C   0  0  0  0  0  0  0  0  0  0  0  0
  -24.8340  -11.9300   20.7750 C   0  0  0  0  0  0  0  0  0  0  0  0
  -26.5240  -13.1200   20.2040 N   0  0  0  0  0  0  0  0  0  0  0  0
  -26.1220  -11.8510   20.4650 N   0  0  0  0  0  0  0  0  0  0  0  0
  -24.0710  -10.6900   20.9650 C   0  0  0  0  0  0  0  0  0  0  0  0
  -24.4650   -9.7170   21.9100 C   0  0  0  0  0  3  0  0  0  0  0  0
  -23.7040   -8.5410   22.0860 C   0  0  0  0  0  3  0  0  0  0  0  0
  -22.5350   -8.3300   21.3170 C   0  0  0  0  0  0  0  0  0  0  0  0
  -22.1600   -9.2910   20.3630 C   0  0  0  0  0  3  0  0  0  0  0  0
  -22.9210  -10.4580   20.1830 C   0  0  0  0  0  3  0  0  0  0  0  0
  -21.7480   -7.2070   21.4040 O   0  0  0  0  0  0  0  0  0  0  0  0
  -21.6720   -6.4680   22.5580 C   0  0  0  0  0  0  0  0  0  0  0  0
  -21.2190   -7.0280   23.7720 C   0  0  0  0  0  3  0  0  0  0  0  0
  -21.0910   -6.2150   24.9160 C   0  0  0  0  0  3  0  0  0  0  0  0
  -21.4050   -4.8440   24.8460 C   0  0  0  0  0  0  0  0  0  0  0  0
  -21.8510   -4.2850   23.6350 C   0  0  0  0  0  3  0  0  0  0  0  0
  -21.9810   -5.0950   22.4930 C   0  0  0  0  0  0  0  0  0  0  0  0
  -22.3910   -4.5460   21.3240 F   0  0  0  0  0  0  0  0  0  0  0  0
  -21.2730   -4.0610   25.9420 F   0  0  0  0  0  0  0  0  0  0  0  0
  -23.0340  -13.8150   21.0800 C   0  0  0  0  0  0  0  0  0  0  0  0
  -22.2990  -13.1540   21.9690 N   0  0  0  0  0  0  0  0  0  0  0  0
  -22.6160  -14.8380   20.5410 O   0  0  0  0  0  0  0  0  0  0  0  0
  -22.6530  -12.3260   22.4250 H   0  0  0  0  0  0  0  0  0  0  0  0
  -21.3700  -13.4790   22.1980 H   0  0  0  0  0  0  0  0  0  0  0  0
  -25.7150  -15.3980   20.2540 N   0  0  0  0  0  0  0  0  0  0  0  0
  -24.9610  -16.0700   20.3430 H   0  0  0  0  0  0  0  0  0  0  0  0
  -26.5570  -15.7970   19.8640 H   0  0  0  0  0  0  0  0  0  0  0  0
  -32.1810  -20.0730   20.7230 N   0  0  0  0  0  0  0  0  0  0  0  0
  -32.1900  -20.6610   21.5510 H   0  0  0  0  0  0  0  0  0  0  0  0
  -33.0630  -19.5680   20.7310 H   0  0  0  0  0  0  0  0  0  0  0  0
  -25.9710  -21.0870   18.1490 C   0  0  0  0  0  1  0  0  0  0  0  0
  -28.0370  -22.4920   17.7600 C   0  0  0  0  0  1  0  0  0  0  0  0
  -27.1630  -21.7860   18.8130 C   0  0  0  0  0  3  0  0  0  0  0  0
  -28.3330  -24.1740   20.6050 C   0  0  0  0  0  2  0  0  0  0  0  0
  -27.1860  -25.7310   22.2940 C   0  0  0  0  0  1  0  0  0  0  0  0
  -28.3100  -25.6210   21.2300 C   0  0  0  0  0  3  0  0  0  0  0  0
  -28.3250  -26.7350   20.2820 O   0  0  0  0  0  0  0  0  0  0  0  0
  -24.5150  -31.9570   23.2680 C   0  0  0  0  0  0  0  0  0  0  0  0
  -27.1920  -27.5270   20.2090 C   0  0  0  0  0  0  0  0  0  0  0  0
  -23.3280  -30.5670   21.6010 C   0  0  0  0  0  3  0  0  0  0  0  0
  -24.8020  -29.0470   20.1750 C   0  0  0  0  0  0  0  0  0  0  0  0
  -25.8570  -30.9340   21.4310 C   0  0  0  0  0  2  0  0  0  0  0  0
  -25.9530  -29.5680   20.7830 C   0  0  0  0  0  0  0  0  0  0  0  0
  -27.1530  -28.8170   20.7920 C   0  0  0  0  0  3  0  0  0  0  0  0
  -26.0290  -27.0290   19.5850 C   0  0  0  0  0  3  0  0  0  0  0  0
  -24.8380  -27.7790   19.5720 C   0  0  0  0  0  3  0  0  0  0  0  0
  -23.5540  -29.9020   20.2170 C   0  0  0  0  0  2  0  0  0  0  0  0
  -24.5840  -31.1690   22.1570 N   0  0  0  0  0  0  0  0  0  0  0  0
  -23.4280  -32.2210   23.8020 O   0  0  0  0  0  0  0  0  0  0  0  0
  -22.6710  -29.5380   22.5490 C   0  0  0  0  0  0  0  0  0  0  0  0
  -21.3490  -29.3510   22.4070 N   0  0  0  0  0  0  0  0  0  0  0  0
  -23.3450  -28.9100   23.3700 O   0  0  0  0  0  0  0  0  0  0  0  0
  -20.8620  -29.9050   21.7180 H   0  0  0  0  0  0  0  0  0  0  0  0
  -17.9710  -28.1670   22.8930 C   0  0  0  0  0  0  0  0  0  0  0  0
  -20.5290  -28.4070   23.1650 C   0  0  0  0  0  3  0  0  0  0  0  0
  -20.6250  -26.9860   22.5630 C   0  0  0  0  0  2  0  0  0  0  0  0
  -19.5210  -26.6880   21.5460 C   0  0  0  0  0  2  0  0  0  0  0  0
  -18.1410  -26.8310   22.1920 C   0  0  0  0  0  2  0  0  0  0  0  0
  -19.0930  -28.9170   23.3350 C   0  0  0  0  0  0  0  0  0  0  0  0
  -18.8810  -30.1720   23.9470 C   0  0  0  0  0  3  0  0  0  0  0  0
  -17.5780  -30.6750   24.1270 C   0  0  0  0  0  3  0  0  0  0  0  0
  -16.4720  -29.9240   23.6960 C   0  0  0  0  0  3  0  0  0  0  0  0
  -16.6680  -28.6740   23.0850 C   0  0  0  0  0  3  0  0  0  0  0  0
  -25.7910  -32.5850   23.9050 C   0  0  0  0  0  3  0  0  0  0  0  0
  -26.2760  -31.8290   25.2030 C   0  0  1  0  0  0  0  0  0  0  0  0
  -25.1520  -31.6050   26.2430 C   0  0  0  0  0  1  0  0  0  0  0  0
  -26.8680  -30.4470   24.8360 C   0  0  0  0  0  1  0  0  0  0  0  0
  -27.4070  -32.6330   25.8840 C   0  0  0  0  0  1  0  0  0  0  0  0
  -25.4900  -33.9920   24.2060 N   0  0  0  0  0  0  0  0  0  0  0  0
  -25.8590  -35.0270   23.4400 C   0  0  0  0  0  0  0  0  0  0  0  0
  -26.5590  -34.8970   22.4330 O   0  0  0  0  0  0  0  0  0  0  0  0
  -24.8670  -34.1660   24.9820 H   0  0  0  0  0  0  0  0  0  0  0  0
  -24.1690  -36.8370   23.0040 C   0  0  0  0  0  1  0  0  0  0  0  0
  -25.3750  -36.4280   23.8630 C   0  0  0  0  0  3  0  0  0  0  0  0
  -27.4860  -37.3050   24.7600 C   0  0  0  0  0  1  0  0  0  0  0  0
  -26.4250  -37.4650   23.7690 N   0  0  0  0  0  0  0  0  0  0  0  0
  -26.0240  -38.3930   23.8790 H   0  0  0  0  0  0  0  0  0  0  0  0
  1  4  1  0
  1 16  1  0
  1  3  1  0
  2  5  2  0
  2  3  1  0
  2 57  1  0
  3  6  1  0
  7  4  1  0
  8 20  1  0
  9 14  1  0
 10 11  1  0
 10  9  1  0
 12 11  1  0
 12 26  1  0
 12 13  1  0
 14  8  1  0
 14 13  1  0
 15  8  2  0
 16 21  1  0
 16 17  2  0
 17 51  1  0
 17 19  1  0
 18 19  2  0
 18 20  1  0
 20 22  1  0
 21 18  1  0
 23 24  2  0
 24 43  1  0
 25 24  1  0
 25 28  1  0
 26 23  1  0
 26 27  1  0
 27 25  2  0
 28 29  1  0
 29 30  2  0
 31 34  1  0
 31 30  1  0
 32 31  2  0
 33 32  1  0
 33 28  2  0
 34 35  1  0
 35 36  1  0
 36 37  2  0
 38 37  1  0
 38 42  1  0
 39 38  2  0
 40 35  2  0
 40 39  1  0
 41 40  1  0
 43 44  1  0
 44 47  1  0
 44 46  1  0
 45 43  2  0
 48 49  1  0
 48 23  1  0
 50 48  1  0
 51 53  1  0
 51 52  1  0
 54 56  1  0
 55 56  1  0
 56  4  1  0
 57 59  1  0
 59 58  1  0
 60 59  1  0
 61 72  2  0
 62 60  1  0
 62 67  1  0
 63 71  1  0
 63 73  1  0
 64 70  1  0
 64 66  1  0
 65 71  1  0
 66 67  2  0
 66 65  1  0
 68 62  2  0
 69 68  1  0
 69 64  2  0
 70 63  1  0
 71 61  1  0
 73 75  2  0
 74 73  1  0
 76 74  1  0
 77 86  2  0
 77 82  1  0
 78 74  1  0
 78 82  1  0
 79 78  1  0
 80 81  1  0
 80 79  1  0
 81 77  1  0
 82 83  2  0
 83 84  1  0
 85 84  2  0
 86 85  1  0
 87 61  1  0
 87 92  1  0
 87 88  1  0
 88 91  1  1
 88 89  1  0
 90 88  1  0
 92 95  1  0
 93 97  1  0
 93 92  1  0
 94 93  2  0
 97 96  1  0
 99 97  1  0
 99100  1  0
 99 98  1  0
M  ISO  4   8 100  20 100  59 101  60 101
M  END
>  <TORSDO>  (8) 
F 20

>  <SCORE>  (8) 
-14.467

>  <name>  (8) 
7

>  <ligand_id>  (8) 
7

>  <original_smiles>  (8) 
[H]c1c([H])c([H])c2c(c1[H])C([H])([H])C([H])([H])C([H])([H])C2([H])N([H])C(=O)C1([H])N(C(=O)C([H])(N([H])C(=O)C([H])(N([H])C([H])([H])[H])C([H])([H])[H])C(C([H])([H])[H])(C([H])([H])[H])C([H])([H])[H])C([H])([H])c2c([H])c(OC([H])(C([H])([H])[H])C([H])([H])C(=O)N([H])C(c3sc(N([H])C(=O)N4C([H])([H])C([H])([H])C([H])([H])C([H])(n5nc(-c6c([H])c([H])c(Oc7c([H])c([H])c(F)c([H])c7F)c([H])c6[H])c(C(=O)N([H])[H])c5N([H])[H])C4([H])[H])nc3N([H])[H])=[N+]([H])C([H])(C([H])([H])[H])C([H])([H])[H])c([H])c([H])c2C1([H])[H]

>  <smiles>  (8) 
[H]c1c([H])c([H])c2c(c1[H])C([H])([H])C([H])([H])C([H])([H])C2([H])N([H])C(=O)C1([H])N(C(=O)C([H])(N([H])C(=O)C([H])(N([H])C([H])([H])[H])C([H])([H])[H])C(C([H])([H])[H])(C([H])([H])[H])C([H])([H])[H])C([H])([H])c2c([H])c(OC([H])(C([H])([H])[H])C([H])([H])C(=O)N([H])C(c3sc(N([H])C(=O)N4C([H])([H])C([H])([H])C([H])([H])C([H])(n5nc(-c6c([H])c([H])c(Oc7c([H])c([H])c(F)c([H])c7F)c([H])c6[H])c(C(=O)N([H])[H])c5N([H])[H])C4([H])[H])nc3N([H])[H])=[N+]([H])C([H])(C([H])([H])[H])C([H])([H])[H])c([H])c([H])c2C1([H])[H]

$$$$
8:0:0
     RDKit          3D

 96104  0  0  1  0  0  0  0  0999 V2000
  -28.1340  -22.9440   21.1910 C   0  0  0  0  0  0  0  0  0  0  0  0
  -29.0200  -22.1540   20.5130 N   0  0  0  0  0  0  0  0  0  0  0  0
  -27.2560  -22.4140   21.8800 O   0  0  0  0  0  0  0  0  0  0  0  0
  -29.8570  -22.5910   20.1530 H   0  0  0  0  0  0  0  0  0  0  0  0
  -29.8250  -19.7130   20.6070 C   0  0  0  0  0  3  0  0  0  0  0  0
  -28.3580  -17.9450   19.7930 C   0  0  0  0  0  3  0  0  0  0  0  0
  -27.6530  -20.2810   19.6730 C   0  0  0  0  0  3  0  0  0  0  0  0
  -29.5910  -18.3100   20.3730 C   0  0  0  0  0  0  0  0  0  0  0  0
  -28.8490  -20.7200   20.2860 C   0  0  0  0  0  0  0  0  0  0  0  0
  -27.4040  -18.9170   19.4440 C   0  0  0  0  0  0  0  0  0  0  0  0
  -26.2320  -18.5380   18.8760 F   0  0  0  0  0  0  0  0  0  0  0  0
  -30.6350  -17.1990   20.7230 C   0  0  0  0  0  2  0  0  0  0  0  0
  -30.9050  -14.6650   20.4390 C   0  0  0  0  0  0  0  0  0  0  0  0
  -30.6270  -12.4290   19.4090 C   0  0  0  0  0  2  0  0  0  0  0  0
  -29.7090  -12.5490   18.1750 C   0  0  0  0  0  2  0  0  0  0  0  0
  -28.2290  -12.4250   18.5840 C   0  0  0  0  0  2  0  0  0  0  0  0
  -27.8660  -13.3370   19.7850 C   0  0  0  0  0  3  0  0  0  0  0  0
  -28.8990  -13.2000   20.9260 C   0  0  0  0  0  2  0  0  0  0  0  0
  -30.2290  -13.4790   20.3640 N   0  0  0  0  0  0  0  0  0  0  0  0
  -32.0710  -14.7690   20.0510 O   0  0  0  0  0  0  0  0  0  0  0  0
  -30.1830  -15.7690   20.7770 N   0  0  0  0  0  0  0  0  0  0  0  0
  -29.2340  -15.5990   21.0720 H   0  0  0  0  0  0  0  0  0  0  0  0
  -25.4830  -14.0050   20.4790 C   0  0  0  0  0  0  0  0  0  0  0  0
  -24.3890  -13.2660   20.8330 C   0  0  0  0  0  0  0  0  0  0  0  0
  -24.8100  -11.9000   20.7970 C   0  0  0  0  0  0  0  0  0  0  0  0
  -26.5030  -13.0960   20.2510 N   0  0  0  0  0  0  0  0  0  0  0  0
  -26.1020  -11.8230   20.5040 N   0  0  0  0  0  0  0  0  0  0  0  0
  -24.0420  -10.6610   20.9650 C   0  0  0  0  0  0  0  0  0  0  0  0
  -24.4350   -9.6690   21.8900 C   0  0  0  0  0  3  0  0  0  0  0  0
  -23.6690   -8.4940   22.0480 C   0  0  0  0  0  3  0  0  0  0  0  0
  -22.4960   -8.3030   21.2800 C   0  0  0  0  0  0  0  0  0  0  0  0
  -22.1220   -9.2830   20.3430 C   0  0  0  0  0  3  0  0  0  0  0  0
  -22.8890  -10.4500   20.1830 C   0  0  0  0  0  3  0  0  0  0  0  0
  -21.7040   -7.1820   21.3490 O   0  0  0  0  0  0  0  0  0  0  0  0
  -21.6160   -6.4330   22.4940 C   0  0  0  0  0  0  0  0  0  0  0  0
  -21.1890   -6.9910   23.7200 C   0  0  0  0  0  3  0  0  0  0  0  0
  -21.0450   -6.1690   24.8550 C   0  0  0  0  0  3  0  0  0  0  0  0
  -21.3170   -4.7910   24.7670 C   0  0  0  0  0  0  0  0  0  0  0  0
  -21.7380   -4.2330   23.5470 C   0  0  0  0  0  3  0  0  0  0  0  0
  -21.8830   -5.0520   22.4130 C   0  0  0  0  0  0  0  0  0  0  0  0
  -22.2670   -4.5040   21.2340 F   0  0  0  0  0  0  0  0  0  0  0  0
  -21.1710   -4.0000   25.8540 F   0  0  0  0  0  0  0  0  0  0  0  0
  -23.0050  -13.7840   21.0900 C   0  0  0  0  0  0  0  0  0  0  0  0
  -22.2490  -13.1130   21.9520 N   0  0  0  0  0  0  0  0  0  0  0  0
  -22.6000  -14.8200   20.5630 O   0  0  0  0  0  0  0  0  0  0  0  0
  -22.5900  -12.2750   22.3990 H   0  0  0  0  0  0  0  0  0  0  0  0
  -21.3190  -13.4430   22.1690 H   0  0  0  0  0  0  0  0  0  0  0  0
  -25.6870  -15.3690   20.3050 N   0  0  0  0  0  0  0  0  0  0  0  0
  -24.9390  -16.0440   20.4120 H   0  0  0  0  0  0  0  0  0  0  0  0
  -26.5120  -15.7650   19.8780 H   0  0  0  0  0  0  0  0  0  0  0  0
  -28.2550  -24.4300   21.2170 C   0  0  0  0  0  0  0  0  0  0  0  0
  -28.5970  -25.2890   20.2120 C   0  0  0  0  0  0  0  0  0  0  0  0
  -29.0270  -24.8950   18.8100 C   0  0  0  0  0  1  0  0  0  0  0  0
  -27.8890  -24.9710   22.3880 O   0  0  0  0  0  0  0  0  0  0  0  0
  -27.5250  -24.2510   22.8930 H   0  0  0  0  0  0  0  0  0  0  0  0
  -28.5950  -26.6820   20.3940 O   0  0  0  0  0  0  0  0  0  0  0  0
  -24.6080  -31.9210   23.2800 C   0  0  0  0  0  0  0  0  0  0  0  0
  -27.4160  -27.4260   20.3520 C   0  0  0  0  0  0  0  0  0  0  0  0
  -23.4780  -30.4790   21.6210 C   0  0  0  0  0  3  0  0  0  0  0  0
  -25.0020  -28.9430   20.2600 C   0  0  0  0  0  0  0  0  0  0  0  0
  -26.0090  -30.8620   21.5000 C   0  0  0  0  0  2  0  0  0  0  0  0
  -26.1370  -29.4790   20.8810 C   0  0  0  0  0  0  0  0  0  0  0  0
  -27.3450  -28.7300   20.9200 C   0  0  0  0  0  3  0  0  0  0  0  0
  -26.2580  -26.9230   19.7140 C   0  0  0  0  0  3  0  0  0  0  0  0
  -25.0630  -27.6680   19.6720 C   0  0  0  0  0  3  0  0  0  0  0  0
  -23.7430  -29.7870   20.2580 C   0  0  0  0  0  2  0  0  0  0  0  0
  -24.7150  -31.1050   22.1920 N   0  0  0  0  0  0  0  0  0  0  0  0
  -23.5050  -32.1810   23.7830 O   0  0  0  0  0  0  0  0  0  0  0  0
  -22.8120  -29.4600   22.5750 C   0  0  0  0  0  0  0  0  0  0  0  0
  -21.4900  -29.2730   22.4280 N   0  0  0  0  0  0  0  0  0  0  0  0
  -23.4850  -28.8400   23.4040 O   0  0  0  0  0  0  0  0  0  0  0  0
  -21.0070  -29.8230   21.7320 H   0  0  0  0  0  0  0  0  0  0  0  0
  -18.1060  -28.0960   22.9090 C   0  0  0  0  0  0  0  0  0  0  0  0
  -20.6650  -28.3320   23.1890 C   0  0  0  0  0  3  0  0  0  0  0  0
  -20.7580  -26.9080   22.5980 C   0  0  0  0  0  2  0  0  0  0  0  0
  -19.6570  -26.6060   21.5760 C   0  0  0  0  0  2  0  0  0  0  0  0
  -18.2740  -26.7540   22.2180 C   0  0  0  0  0  2  0  0  0  0  0  0
  -19.2290  -28.8450   23.3500 C   0  0  0  0  0  0  0  0  0  0  0  0
  -19.0190  -30.1030   23.9530 C   0  0  0  0  0  3  0  0  0  0  0  0
  -17.7170  -30.6130   24.1190 C   0  0  0  0  0  3  0  0  0  0  0  0
  -16.6080  -29.8630   23.6940 C   0  0  0  0  0  3  0  0  0  0  0  0
  -16.8030  -28.6040   23.0970 C   0  0  0  0  0  3  0  0  0  0  0  0
  -25.8620  -32.5850   23.9300 C   0  0  0  0  0  3  0  0  0  0  0  0
  -26.3460  -31.8470   25.2380 C   0  0  1  0  0  0  0  0  0  0  0  0
  -25.2180  -31.5980   26.2650 C   0  0  0  0  0  1  0  0  0  0  0  0
  -26.9780  -30.4790   24.8900 C   0  0  0  0  0  1  0  0  0  0  0  0
  -27.4490  -32.6800   25.9300 C   0  0  0  0  0  1  0  0  0  0  0  0
  -25.5210  -33.9840   24.2210 N   0  0  0  0  0  0  0  0  0  0  0  0
  -25.8640  -35.0260   23.4510 C   0  0  0  0  0  0  0  0  0  0  0  0
  -26.5690  -34.9130   22.4460 O   0  0  0  0  0  0  0  0  0  0  0  0
  -24.8950  -34.1470   24.9960 H   0  0  0  0  0  0  0  0  0  0  0  0
  -24.1230  -36.7860   23.0030 C   0  0  0  0  0  1  0  0  0  0  0  0
  -25.3430  -36.4170   23.8630 C   0  0  0  0  0  3  0  0  0  0  0  0
  -27.4330  -37.3530   24.7470 C   0  0  0  0  0  1  0  0  0  0  0  0
  -26.3630  -37.4830   23.7620 N   0  0  0  0  0  0  0  0  0  0  0  0
  -25.9390  -38.4000   23.8740 H   0  0  0  0  0  0  0  0  0  0  0  0
  1 51  1  0
  1  3  2  0
  2  1  1  0
  4  2  1  0
  6  8  2  0
  7  9  1  0
  8  5  1  0
  8 12  1  0
  9  2  1  0
  9  5  2  0
 10  7  2  0
 10  6  1  0
 11 10  1  0
 12 21  1  0
 13 21  1  0
 14 19  1  0
 15 16  1  0
 15 14  1  0
 17 16  1  0
 17 26  1  0
 17 18  1  0
 19 13  1  0
 19 18  1  0
 20 13  2  0
 21 22  1  0
 23 24  2  0
 24 43  1  0
 25 24  1  0
 25 28  1  0
 26 23  1  0
 26 27  1  0
 27 25  2  0
 28 29  1  0
 29 30  2  0
 31 34  1  0
 31 30  1  0
 32 31  2  0
 33 32  1  0
 33 28  2  0
 34 35  1  0
 35 36  1  0
 36 37  2  0
 38 37  1  0
 38 42  1  0
 39 38  2  0
 40 35  2  0
 40 39  1  0
 41 40  1  0
 43 44  1  0
 44 47  1  0
 44 46  1  0
 45 43  2  0
 48 49  1  0
 48 23  1  0
 50 48  1  0
 51 54  1  0
 52 56  1  0
 52 51  2  0
 53 52  1  0
 54 55  1  0
 57 68  2  0
 58 56  1  0
 58 63  1  0
 59 67  1  0
 59 69  1  0
 60 62  1  0
 61 67  1  0
 62 63  2  0
 62 61  1  0
 64 58  2  0
 65 64  1  0
 65 60  2  0
 66 60  1  0
 66 59  1  0
 67 57  1  0
 69 71  2  0
 70 69  1  0
 72 70  1  0
 73 82  2  0
 73 78  1  0
 74 70  1  0
 74 78  1  0
 75 74  1  0
 76 77  1  0
 76 75  1  0
 77 73  1  0
 78 79  2  0
 79 80  1  0
 81 80  2  0
 82 81  1  0
 83 57  1  0
 83 88  1  0
 83 84  1  0
 84 87  1  1
 84 85  1  0
 86 84  1  0
 88 91  1  0
 89 93  1  0
 89 88  1  0
 90 89  2  0
 93 92  1  0
 95 93  1  0
 95 96  1  0
 95 94  1  0
M  ISO  4  13 100  21 100  52 101  56 101
M  END
>  <TORSDO>  (9) 
F 20

>  <SCORE>  (9) 
-14.156

>  <name>  (9) 
8

>  <ligand_id>  (9) 
8

>  <original_smiles>  (9) 
[H]OC(C(=O)N([H])c1c([H])c(F)c([H])c(C([H])([H])N([H])C(=O)N2C([H])([H])C([H])([H])C([H])([H])C([H])(n3nc(-c4c([H])c([H])c(Oc5c([H])c([H])c(F)c([H])c5F)c([H])c4[H])c(C(=O)N([H])[H])c3N([H])[H])C2([H])[H])c1[H])=C(Oc1c([H])c([H])c2c(c1[H])C([H])([H])N(C(=O)C([H])(N([H])C(=O)C([H])(N([H])C([H])([H])[H])C([H])([H])[H])C(C([H])([H])[H])(C([H])([H])[H])C([H])([H])[H])C([H])(C(=O)N([H])C1([H])c3c([H])c([H])c([H])c([H])c3C([H])([H])C([H])([H])C1([H])[H])C2([H])[H])C([H])([H])[H]

>  <smiles>  (9) 
[H]OC(C(=O)N([H])c1c([H])c(F)c([H])c(C([H])([H])N([H])C(=O)N2C([H])([H])C([H])([H])C([H])([H])C([H])(n3nc(-c4c([H])c([H])c(Oc5c([H])c([H])c(F)c([H])c5F)c([H])c4[H])c(C(=O)N([H])[H])c3N([H])[H])C2([H])[H])c1[H])=C(Oc1c([H])c([H])c2c(c1[H])C([H])([H])N(C(=O)C([H])(N([H])C(=O)C([H])(N([H])C([H])([H])[H])C([H])([H])[H])C(C([H])([H])[H])(C([H])([H])[H])C([H])([H])[H])C([H])(C(=O)N([H])C1([H])c3c([H])c([H])c([H])c([H])c3C([H])([H])C([H])([H])C1([H])[H])C2([H])[H])C([H])([H])[H]

$$$$
9:0:0
     RDKit          3D

 98106  0  0  1  0  0  0  0  0999 V2000
  -28.9850  -19.0250   19.7730 C   0  0  0  0  0  3  0  0  0  0  0  0
  -30.8790  -19.7910   21.6910 C   0  0  0  0  0  0  0  0  0  0  0  0
  -29.1220  -20.4600   20.0640 C   0  0  0  0  0  0  0  0  0  0  0  0
  -29.7710  -17.9660   20.4250 C   0  0  0  0  0  0  0  0  0  0  0  0
  -30.1080  -20.7810   21.0280 C   0  0  0  0  0  0  0  0  0  0  0  0
  -30.6990  -18.4120   21.3960 C   0  0  0  0  0  0  0  0  0  0  0  0
  -30.3510  -22.0910   21.2960 F   0  0  0  0  0  0  0  0  0  0  0  0
  -31.4030  -17.4830   22.0940 F   0  0  0  0  0  0  0  0  0  0  0  0
  -30.5000  -15.4040   20.3600 C   0  0  0  0  0  0  0  0  0  0  0  0
  -30.5750  -12.9800   19.6830 C   0  0  0  0  0  2  0  0  0  0  0  0
  -29.6880  -12.7470   18.4390 C   0  0  0  0  0  2  0  0  0  0  0  0
  -28.2250  -12.4860   18.8520 C   0  0  0  0  0  2  0  0  0  0  0  0
  -27.7110  -13.5090   19.9010 C   0  0  0  0  0  3  0  0  0  0  0  0
  -28.7230  -13.7160   21.0480 C   0  0  0  0  0  2  0  0  0  0  0  0
  -29.9920  -14.1200   20.4310 N   0  0  0  0  0  0  0  0  0  0  0  0
  -31.7020  -15.5530   20.1140 O   0  0  0  0  0  0  0  0  0  0  0  0
  -29.6050  -16.4790   20.2530 N   0  0  0  0  0  0  0  0  0  0  0  0
  -28.6490  -16.1830   20.1390 H   0  0  0  0  0  0  0  0  0  0  0  0
  -25.3130  -14.0080   20.6500 C   0  0  0  0  0  0  0  0  0  0  0  0
  -24.2720  -13.1950   21.0060 C   0  0  0  0  0  0  0  0  0  0  0  0
  -24.7760  -11.8600   20.9480 C   0  0  0  0  0  0  0  0  0  0  0  0
  -26.3810  -13.1670   20.3930 N   0  0  0  0  0  0  0  0  0  0  0  0
  -26.0680  -11.8690   20.6370 N   0  0  0  0  0  0  0  0  0  0  0  0
  -24.0880  -10.5730   21.1120 C   0  0  0  0  0  0  0  0  0  0  0  0
  -24.5230   -9.6170   22.0560 C   0  0  0  0  0  3  0  0  0  0  0  0
  -23.8330   -8.3960   22.2080 C   0  0  0  0  0  3  0  0  0  0  0  0
  -22.6930   -8.1210   21.4160 C   0  0  0  0  0  0  0  0  0  0  0  0
  -22.2780   -9.0650   20.4610 C   0  0  0  0  0  3  0  0  0  0  0  0
  -22.9700  -10.2780   20.3060 C   0  0  0  0  0  3  0  0  0  0  0  0
  -21.9750   -6.9510   21.4760 O   0  0  0  0  0  0  0  0  0  0  0  0
  -21.8690   -6.2310   22.6390 C   0  0  0  0  0  0  0  0  0  0  0  0
  -21.2840   -6.7760   23.8030 C   0  0  0  0  0  3  0  0  0  0  0  0
  -21.1330   -5.9780   24.9540 C   0  0  0  0  0  3  0  0  0  0  0  0
  -21.5580   -4.6360   24.9440 C   0  0  0  0  0  0  0  0  0  0  0  0
  -22.1360   -4.0900   23.7840 C   0  0  0  0  0  3  0  0  0  0  0  0
  -22.2890   -4.8850   22.6340 C   0  0  0  0  0  0  0  0  0  0  0  0
  -22.8270   -4.3480   21.5130 F   0  0  0  0  0  0  0  0  0  0  0  0
  -21.4060   -3.8670   26.0470 F   0  0  0  0  0  0  0  0  0  0  0  0
  -22.8610  -13.6250   21.2850 C   0  0  0  0  0  0  0  0  0  0  0  0
  -22.1580  -12.8990   22.1470 N   0  0  0  0  0  0  0  0  0  0  0  0
  -22.3890  -14.6400   20.7720 O   0  0  0  0  0  0  0  0  0  0  0  0
  -22.5520  -12.0790   22.5840 H   0  0  0  0  0  0  0  0  0  0  0  0
  -21.2120  -13.1690   22.3750 H   0  0  0  0  0  0  0  0  0  0  0  0
  -25.4300  -15.3870   20.4980 N   0  0  0  0  0  0  0  0  0  0  0  0
  -24.6370  -16.0060   20.6200 H   0  0  0  0  0  0  0  0  0  0  0  0
  -26.2470  -15.8630   20.1410 H   0  0  0  0  0  0  0  0  0  0  0  0
  -27.8000  -22.7390   19.9080 C   0  0  0  0  0  0  0  0  0  0  0  0
  -28.4520  -21.6210   19.3730 N   0  0  0  0  0  0  0  0  0  0  0  0
  -27.2970  -22.6470   21.0290 O   0  0  0  0  0  0  0  0  0  0  0  0
  -28.6600  -21.7170   18.3880 H   0  0  0  0  0  0  0  0  0  0  0  0
  -27.1820  -25.2400   19.5830 C   0  0  0  0  0  3  0  0  0  0  0  0
  -27.7000  -24.0320   19.0950 C   0  0  0  0  0  0  0  0  0  0  0  0
  -28.1760  -24.0090   17.8430 O   0  0  0  0  0  0  0  0  0  0  0  0
  -28.0640  -24.8830   17.4910 H   0  0  0  0  0  0  0  0  0  0  0  0
  -27.1640  -26.5450   18.9720 O   0  0  0  0  0  0  0  0  0  0  0  0
  -24.3730  -31.9020   23.1240 C   0  0  0  0  0  0  0  0  0  0  0  0
  -26.1560  -27.5000   19.2660 C   0  0  0  0  0  0  0  0  0  0  0  0
  -22.8450  -30.7660   21.5540 C   0  0  0  0  0  3  0  0  0  0  0  0
  -23.9540  -29.2880   19.7760 C   0  0  0  0  0  0  0  0  0  0  0  0
  -25.3520  -30.9360   21.0200 C   0  0  0  0  0  2  0  0  0  0  0  0
  -25.2360  -29.6270   20.2340 C   0  0  0  0  0  0  0  0  0  0  0  0
  -26.3390  -28.7480   19.9650 C   0  0  0  0  0  3  0  0  0  0  0  0
  -24.8530  -27.2360   18.7980 C   0  0  0  0  0  3  0  0  0  0  0  0
  -23.7680  -28.1030   19.0470 C   0  0  0  0  0  3  0  0  0  0  0  0
  -22.8090  -30.2320   20.0980 C   0  0  0  0  0  2  0  0  0  0  0  0
  -24.2190  -31.2140   21.9530 N   0  0  0  0  0  0  0  0  0  0  0  0
  -23.4010  -32.1810   23.8430 O   0  0  0  0  0  0  0  0  0  0  0  0
  -22.2530  -29.6920   22.5000 C   0  0  0  0  0  0  0  0  0  0  0  0
  -20.9260  -29.4890   22.4350 N   0  0  0  0  0  0  0  0  0  0  0  0
  -22.9860  -29.0470   23.2530 O   0  0  0  0  0  0  0  0  0  0  0  0
  -20.3900  -30.0630   21.8000 H   0  0  0  0  0  0  0  0  0  0  0  0
  -17.6370  -28.0540   22.9240 C   0  0  0  0  0  0  0  0  0  0  0  0
  -20.1710  -28.4940   23.2010 C   0  0  0  0  0  3  0  0  0  0  0  0
  -20.3740  -27.0740   22.6230 C   0  0  0  0  0  2  0  0  0  0  0  0
  -19.3010  -26.6770   21.6050 C   0  0  0  0  0  2  0  0  0  0  0  0
  -17.9110  -26.7230   22.2450 C   0  0  0  0  0  2  0  0  0  0  0  0
  -18.6990  -28.8930   23.3590 C   0  0  0  0  0  0  0  0  0  0  0  0
  -18.3890  -30.1350   23.9550 C   0  0  0  0  0  3  0  0  0  0  0  0
  -17.0520  -30.5410   24.1190 C   0  0  0  0  0  3  0  0  0  0  0  0
  -16.0050  -29.7020   23.6990 C   0  0  0  0  0  3  0  0  0  0  0  0
  -16.2990  -28.4600   23.1070 C   0  0  0  0  0  3  0  0  0  0  0  0
  -25.7740  -32.3890   23.6060 C   0  0  0  0  0  3  0  0  0  0  0  0
  -26.3930  -31.4800   24.7380 C   0  0  1  0  0  0  0  0  0  0  0  0
  -25.4400  -31.2390   25.9340 C   0  0  0  0  0  1  0  0  0  0  0  0
  -26.7930  -30.0970   24.1720 C   0  0  0  0  0  1  0  0  0  0  0  0
  -27.6880  -32.1270   25.2810 C   0  0  0  0  0  1  0  0  0  0  0  0
  -25.6250  -33.7730   24.0830 N   0  0  0  0  0  0  0  0  0  0  0  0
  -25.9790  -34.8620   23.3870 C   0  0  0  0  0  0  0  0  0  0  0  0
  -26.5350  -34.8000   22.2880 O   0  0  0  0  0  0  0  0  0  0  0  0
  -25.1250  -33.9000   24.9500 H   0  0  0  0  0  0  0  0  0  0  0  0
  -24.4140  -36.8320   23.3530 C   0  0  0  0  0  1  0  0  0  0  0  0
  -25.6700  -36.2380   24.0100 C   0  0  0  0  0  3  0  0  0  0  0  0
  -27.9360  -36.8470   24.7340 C   0  0  0  0  0  1  0  0  0  0  0  0
  -26.7890  -37.1990   23.9020 N   0  0  0  0  0  0  0  0  0  0  0  0
  -26.4860  -38.1350   24.1590 H   0  0  0  0  0  0  0  0  0  0  0  0
  -31.8790  -20.2440   22.6950 C   0  0  0  0  0  3  0  0  0  0  0  0
  -32.6680  -19.5140   23.3690 N   0  0  0  0  0  0  0  0  0  0  0  0
  -32.5360  -18.5320   23.1380 H   0  0  0  0  0  0  0  0  0  0  0  0
  1  3  2  0
  1  4  1  0
  2 96  1  0
  3  5  1  0
  4  6  2  0
  5  7  1  0
  5  2  2  0
  6  2  1  0
  6  8  1  0
  9 15  1  0
 10 15  1  0
 11 12  1  0
 11 10  1  0
 13 12  1  0
 13 22  1  0
 13 14  1  0
 15 14  1  0
 16  9  2  0
 17  9  1  0
 17  4  1  0
 18 17  1  0
 19 20  2  0
 20 39  1  0
 21 20  1  0
 21 24  1  0
 22 23  1  0
 22 19  1  0
 23 21  2  0
 24 25  1  0
 25 26  2  0
 27 30  1  0
 27 26  1  0
 28 27  2  0
 29 28  1  0
 29 24  2  0
 30 31  1  0
 31 32  1  0
 32 33  2  0
 34 33  1  0
 34 38  1  0
 35 34  2  0
 36 31  2  0
 36 35  1  0
 37 36  1  0
 39 40  1  0
 40 43  1  0
 40 42  1  0
 41 39  2  0
 44 45  1  0
 44 19  1  0
 46 44  1  0
 47 49  2  0
 48 47  1  0
 48  3  1  0
 50 48  1  0
 52 51  2  0
 52 47  1  0
 53 52  1  0
 54 53  1  0
 55 57  1  0
 55 51  1  0
 56 67  2  0
 57 62  1  0
 58 66  1  0
 58 68  1  0
 59 65  1  0
 59 61  1  0
 60 66  1  0
 61 60  1  0
 62 61  2  0
 63 64  1  0
 63 57  2  0
 64 59  2  0
 65 58  1  0
 66 56  1  0
 68 70  2  0
 69 68  1  0
 71 69  1  0
 72 81  2  0
 72 77  1  0
 73 69  1  0
 73 77  1  0
 74 73  1  0
 75 76  1  0
 75 74  1  0
 76 72  1  0
 77 78  2  0
 78 79  1  0
 80 79  2  0
 81 80  1  0
 82 56  1  0
 82 87  1  0
 82 83  1  0
 83 86  1  1
 83 84  1  0
 85 83  1  0
 87 90  1  0
 88 92  1  0
 88 87  1  0
 89 88  2  0
 92 91  1  0
 94 92  1  0
 94 95  1  0
 94 93  1  0
 96 97  2  0
 98 97  1  0
M  ISO  4   9 100  17 100  51 101  55 101
M  END
>  <TORSDO>  (10) 
F 20

>  <SCORE>  (10) 
-13.018

>  <name>  (10) 
9

>  <ligand_id>  (10) 
9

>  <original_smiles>  (10) 
[H]N=C([H])c1c(F)c(N([H])C(=O)C(O[H])=C([H])Oc2c([H])c([H])c3c(c2[H])C([H])([H])N(C(=O)C([H])(N([H])C(=O)C([H])(N([H])C([H])([H])[H])C([H])([H])[H])C(C([H])([H])[H])(C([H])([H])[H])C([H])([H])[H])C([H])(C(=O)N([H])C2([H])c4c([H])c([H])c([H])c([H])c4C([H])([H])C([H])([H])C2([H])[H])C3([H])[H])c([H])c(N([H])C(=O)N2C([H])([H])C([H])([H])C([H])([H])C([H])(n3nc(-c4c([H])c([H])c(Oc5c([H])c([H])c(F)c([H])c5F)c([H])c4[H])c(C(=O)N([H])[H])c3N([H])[H])C2([H])[H])c1F

>  <smiles>  (10) 
[H]N=C([H])c1c(F)c(N([H])C(=O)C(O[H])=C([H])Oc2c([H])c([H])c3c(c2[H])C([H])([H])N(C(=O)C([H])(N([H])C(=O)C([H])(N([H])C([H])([H])[H])C([H])([H])[H])C(C([H])([H])[H])(C([H])([H])[H])C([H])([H])[H])C([H])(C(=O)N([H])C2([H])c4c([H])c([H])c([H])c([H])c4C([H])([H])C([H])([H])C2([H])[H])C3([H])[H])c([H])c(N([H])C(=O)N2C([H])([H])C([H])([H])C([H])([H])C([H])(n3nc(-c4c([H])c([H])c(Oc5c([H])c([H])c(F)c([H])c5F)c([H])c4[H])c(C(=O)N([H])[H])c3N([H])[H])C2([H])[H])c1F

$$$$
10:0:0
     RDKit          3D

 95103  0  0  1  0  0  0  0  0999 V2000
  -29.0100  -22.6850   20.3270 C   0  0  1  0  0  0  0  0  0  0  0  0
  -30.0490  -21.5910   19.7310 C   0  0  0  0  0  0  0  0  0  0  0  0
  -31.1140  -21.9910   19.2510 O   0  0  0  0  0  0  0  0  0  0  0  0
  -30.9940  -15.0980   20.2010 C   0  0  0  0  0  0  0  0  0  0  0  0
  -30.8270  -12.7950   19.2630 C   0  0  0  0  0  2  0  0  0  0  0  0
  -29.8830  -12.8350   18.0390 C   0  0  0  0  0  2  0  0  0  0  0  0
  -28.4110  -12.6780   18.4740 C   0  0  0  0  0  2  0  0  0  0  0  0
  -28.0380  -13.6070   19.6590 C   0  0  0  0  0  3  0  0  0  0  0  0
  -29.0940  -13.5230   20.7860 C   0  0  0  0  0  2  0  0  0  0  0  0
  -30.4020  -13.8570   20.1980 N   0  0  0  0  0  0  0  0  0  0  0  0
  -32.1430  -15.2530   19.7740 O   0  0  0  0  0  0  0  0  0  0  0  0
  -29.8600  -20.0760   19.7500 C   0  0  0  0  0  0  0  0  0  0  0  0
  -29.1710  -19.2430   18.8880 C   0  0  0  0  0  0  0  0  0  0  0  0
  -30.1340  -17.5270   20.1020 C   0  0  0  0  0  0  0  0  0  0  0  0
  -29.2750  -17.8480   19.1240 N   0  0  0  0  0  0  0  0  0  0  0  0
  -30.2080  -16.1510   20.5950 N   0  0  0  0  0  0  0  0  0  0  0  0
  -28.4660  -19.6900   17.8770 F   0  0  0  0  0  0  0  0  0  0  0  0
  -30.8240  -19.0210   20.8320 S   0  0  0  0  0  0  0  0  0  0  0  0
  -29.3420  -15.8280   20.9940 H   0  0  0  0  0  0  0  0  0  0  0  0
  -25.6710  -14.2360   20.4330 C   0  0  0  0  0  0  0  0  0  0  0  0
  -24.5900  -13.4760   20.7920 C   0  0  0  0  0  0  0  0  0  0  0  0
  -25.0170  -12.1150   20.7050 C   0  0  0  0  0  0  0  0  0  0  0  0
  -26.6900  -13.3390   20.1530 N   0  0  0  0  0  0  0  0  0  0  0  0
  -26.3030  -12.0560   20.3760 N   0  0  0  0  0  0  0  0  0  0  0  0
  -24.2620  -10.8660   20.8610 C   0  0  0  0  0  0  0  0  0  0  0  0
  -24.6270   -9.8980   21.8230 C   0  0  0  0  0  3  0  0  0  0  0  0
  -23.8750   -8.7120   21.9670 C   0  0  0  0  0  3  0  0  0  0  0  0
  -22.7430   -8.4860   21.1470 C   0  0  0  0  0  0  0  0  0  0  0  0
  -22.3980   -9.4410   20.1760 C   0  0  0  0  0  3  0  0  0  0  0  0
  -23.1500  -10.6200   20.0310 C   0  0  0  0  0  3  0  0  0  0  0  0
  -21.9690   -7.3520   21.1980 O   0  0  0  0  0  0  0  0  0  0  0  0
  -21.7780   -6.6630   22.3690 C   0  0  0  0  0  0  0  0  0  0  0  0
  -21.1670   -7.2600   23.4930 C   0  0  0  0  0  3  0  0  0  0  0  0
  -20.9270   -6.4960   24.6530 C   0  0  0  0  0  3  0  0  0  0  0  0
  -21.2860   -5.1360   24.6870 C   0  0  0  0  0  0  0  0  0  0  0  0
  -21.8880   -4.5370   23.5660 C   0  0  0  0  0  3  0  0  0  0  0  0
  -22.1310   -5.2990   22.4090 C   0  0  0  0  0  0  0  0  0  0  0  0
  -22.6930   -4.7130   21.3250 F   0  0  0  0  0  0  0  0  0  0  0  0
  -21.0480   -4.3980   25.7980 F   0  0  0  0  0  0  0  0  0  0  0  0
  -23.2090  -13.9770   21.1000 C   0  0  0  0  0  0  0  0  0  0  0  0
  -22.4750  -13.2730   21.9550 N   0  0  0  0  0  0  0  0  0  0  0  0
  -22.7890  -15.0300   20.6180 O   0  0  0  0  0  0  0  0  0  0  0  0
  -22.8270  -12.4220   22.3690 H   0  0  0  0  0  0  0  0  0  0  0  0
  -21.5500  -13.5940   22.2020 H   0  0  0  0  0  0  0  0  0  0  0  0
  -25.8670  -15.6070   20.3010 N   0  0  0  0  0  0  0  0  0  0  0  0
  -25.1100  -16.2700   20.4350 H   0  0  0  0  0  0  0  0  0  0  0  0
  -26.7110  -16.0390   19.9480 H   0  0  0  0  0  0  0  0  0  0  0  0
  -29.3600  -24.2380   19.9740 C   0  0  0  0  0  0  0  0  0  0  0  0
  -30.5130  -24.6650   20.1080 O   0  0  0  0  0  0  0  0  0  0  0  0
  -28.2300  -25.2910   19.5830 C   0  0  0  0  0  2  0  0  0  0  0  0
  -28.4790  -26.7560   19.7570 O   0  0  0  0  0  0  0  0  0  0  0  0
  -24.5630  -31.7960   23.1810 C   0  0  0  0  0  0  0  0  0  0  0  0
  -27.3340  -27.5830   19.7660 C   0  0  0  0  0  0  0  0  0  0  0  0
  -23.3930  -30.4390   21.4850 C   0  0  0  0  0  3  0  0  0  0  0  0
  -24.8870  -29.0760   19.9200 C   0  0  0  0  0  0  0  0  0  0  0  0
  -25.9090  -30.9110   21.2590 C   0  0  0  0  0  2  0  0  0  0  0  0
  -26.0470  -29.5830   20.5190 C   0  0  0  0  0  0  0  0  0  0  0  0
  -27.2720  -28.8500   20.4320 C   0  0  0  0  0  3  0  0  0  0  0  0
  -26.1440  -27.1470   19.1320 C   0  0  0  0  0  3  0  0  0  0  0  0
  -24.9390  -27.8660   19.2170 C   0  0  0  0  0  3  0  0  0  0  0  0
  -23.6060  -29.8720   20.0580 C   0  0  0  0  0  2  0  0  0  0  0  0
  -24.6420  -31.0630   22.0330 N   0  0  0  0  0  0  0  0  0  0  0  0
  -23.4800  -31.9760   23.7590 O   0  0  0  0  0  0  0  0  0  0  0  0
  -22.8170  -29.3250   22.3900 C   0  0  0  0  0  0  0  0  0  0  0  0
  -21.5110  -29.0410   22.2440 N   0  0  0  0  0  0  0  0  0  0  0  0
  -23.5430  -28.7200   23.1830 O   0  0  0  0  0  0  0  0  0  0  0  0
  -20.9800  -29.5860   21.5800 H   0  0  0  0  0  0  0  0  0  0  0  0
  -18.2540  -27.5140   22.6320 C   0  0  0  0  0  0  0  0  0  0  0  0
  -20.7700  -28.0040   22.9650 C   0  0  0  0  0  3  0  0  0  0  0  0
  -21.0190  -26.6090   22.3450 C   0  0  0  0  0  2  0  0  0  0  0  0
  -19.9710  -26.2200   21.2980 C   0  0  0  0  0  2  0  0  0  0  0  0
  -18.5700  -26.2120   21.9150 C   0  0  0  0  0  2  0  0  0  0  0  0
  -19.2870  -28.3620   23.1110 C   0  0  0  0  0  0  0  0  0  0  0  0
  -18.9380  -29.5760   23.7400 C   0  0  0  0  0  3  0  0  0  0  0  0
  -17.5890  -29.9470   23.8940 C   0  0  0  0  0  3  0  0  0  0  0  0
  -16.5700  -29.0950   23.4320 C   0  0  0  0  0  3  0  0  0  0  0  0
  -16.9030  -27.8810   22.8060 C   0  0  0  0  0  3  0  0  0  0  0  0
  -25.8250  -32.4600   23.8110 C   0  0  0  0  0  3  0  0  0  0  0  0
  -25.4640  -33.8350   24.1850 N   0  0  0  0  0  0  0  0  0  0  0  0
  -25.7450  -34.9220   23.4550 C   0  0  0  0  0  0  0  0  0  0  0  0
  -26.4070  -34.8750   22.4150 O   0  0  0  0  0  0  0  0  0  0  0  0
  -24.8720  -33.9420   24.9960 H   0  0  0  0  0  0  0  0  0  0  0  0
  -23.9420  -36.6540   23.1740 C   0  0  0  0  0  1  0  0  0  0  0  0
  -25.2080  -36.2760   23.9590 C   0  0  0  0  0  3  0  0  0  0  0  0
  -27.3090  -37.2290   24.7990 C   0  0  0  0  0  1  0  0  0  0  0  0
  -26.1960  -37.3730   23.8650 N   0  0  0  0  0  0  0  0  0  0  0  0
  -25.7540  -38.2720   24.0360 H   0  0  0  0  0  0  0  0  0  0  0  0
  -26.3810  -31.6740   25.0620 C   0  0  1  0  0  0  0  0  0  0  0  0
  -25.3060  -31.3600   26.1280 C   0  0  0  0  0  1  0  0  0  0  0  0
  -27.0180  -30.3340   24.6280 C   0  0  0  0  0  1  0  0  0  0  0  0
  -27.5020  -32.4960   25.7400 C   0  0  0  0  0  1  0  0  0  0  0  0
  -26.3430  -22.9720   20.5370 C   0  0  0  0  0  1  0  0  0  0  0  0
  -27.5640  -22.3470   19.8170 C   0  0  0  0  0  2  0  0  0  0  0  0
  -29.0410  -21.2000   22.5550 C   0  0  0  0  0  1  0  0  0  0  0  0
  -29.0880  -22.5940   21.8890 C   0  0  0  0  0  2  0  0  0  0  0  0
  1 95  1  1
  2 12  1  0
  2  1  1  0
  3  2  2  0
  4 16  1  0
  5 10  1  0
  6  7  1  0
  6  5  1  0
  8  7  1  0
  8 23  1  0
  8  9  1  0
 10  4  1  0
 10  9  1  0
 11  4  2  0
 12 18  1  0
 13 15  1  0
 13 12  2  0
 14 16  1  0
 14 18  1  0
 15 14  2  0
 16 19  1  0
 17 13  1  0
 20 21  2  0
 21 40  1  0
 22 21  1  0
 22 25  1  0
 23 24  1  0
 23 20  1  0
 24 22  2  0
 25 26  1  0
 26 27  2  0
 28 31  1  0
 28 27  1  0
 29 28  2  0
 30 29  1  0
 30 25  2  0
 31 32  1  0
 32 37  2  0
 32 33  1  0
 33 34  2  0
 34 35  1  0
 35 39  1  0
 36 35  2  0
 37 36  1  0
 38 37  1  0
 40 41  1  0
 41 44  1  0
 41 43  1  0
 42 40  2  0
 45 20  1  0
 45 46  1  0
 47 45  1  0
 48 49  2  0
 48  1  1  0
 50 51  1  0
 50 48  1  0
 51 53  1  0
 52 63  2  0
 53 58  1  0
 54 62  1  0
 54 64  1  0
 55 61  1  0
 55 57  1  0
 56 62  1  0
 57 56  1  0
 58 57  2  0
 59 60  1  0
 59 53  2  0
 60 55  2  0
 61 54  1  0
 62 52  1  0
 64 66  2  0
 65 64  1  0
 67 65  1  0
 68 77  2  0
 68 73  1  0
 69 65  1  0
 69 73  1  0
 70 69  1  0
 71 72  1  0
 71 70  1  0
 72 68  1  0
 73 74  2  0
 74 75  1  0
 76 75  2  0
 77 76  1  0
 78 52  1  0
 78 79  1  0
 78 88  1  0
 79 82  1  0
 80 84  1  0
 80 79  1  0
 81 80  2  0
 84 83  1  0
 86 84  1  0
 86 87  1  0
 86 85  1  0
 88 91  1  1
 88 89  1  0
 90 88  1  0
 93  1  1  0
 93 92  1  0
 95 94  1  0
M  ISO  4   4 100  16 100  50 101  51 101
M  END
>  <TORSDO>  (11) 
F 21

>  <SCORE>  (11) 
-12.442

>  <name>  (11) 
10

>  <ligand_id>  (11) 
10

>  <original_smiles>  (11) 
[H]c1c([H])c([H])c2c(c1[H])C([H])([H])C([H])([H])C([H])([H])C2([H])N([H])C(=O)C1([H])N(C(=O)C([H])(N([H])C(=O)C([H])(N([H])C([H])([H])[H])C([H])([H])[H])C(C([H])([H])[H])(C([H])([H])[H])C([H])([H])[H])C([H])([H])c2c([H])c(OC([H])([H])C(=O)C(C(=O)c3sc(N([H])C(=O)N4C([H])([H])C([H])([H])C([H])([H])C([H])(n5nc(-c6c([H])c([H])c(Oc7c([H])c([H])c(F)c([H])c7F)c([H])c6[H])c(C(=O)N([H])[H])c5N([H])[H])C4([H])[H])nc3F)(C([H])([H])C([H])([H])[H])C([H])([H])C([H])([H])[H])c([H])c([H])c2C1([H])[H]

>  <smiles>  (11) 
[H]c1c([H])c([H])c2c(c1[H])C([H])([H])C([H])([H])C([H])([H])C2([H])N([H])C(=O)C1([H])N(C(=O)C([H])(N([H])C(=O)C([H])(N([H])C([H])([H])[H])C([H])([H])[H])C(C([H])([H])[H])(C([H])([H])[H])C([H])([H])[H])C([H])([H])c2c([H])c(OC([H])([H])C(=O)C(C(=O)c3sc(N([H])C(=O)N4C([H])([H])C([H])([H])C([H])([H])C([H])(n5nc(-c6c([H])c([H])c(Oc7c([H])c([H])c(F)c([H])c7F)c([H])c6[H])c(C(=O)N([H])[H])c5N([H])[H])C4([H])[H])nc3F)(C([H])([H])C([H])([H])[H])C([H])([H])C([H])([H])[H])c([H])c([H])c2C1([H])[H]

$$$$
11:0:0
     RDKit          3D

 93101  0  0  1  0  0  0  0  0999 V2000
  -29.1920  -21.7240   19.3780 C   0  0  0  0  0  0  0  0  0  0  0  0
  -28.5670  -20.7320   20.0330 N   0  0  0  0  0  0  0  0  0  0  0  0
  -30.3960  -21.7570   19.1040 O   0  0  0  0  0  0  0  0  0  0  0  0
  -27.5980  -20.9090   20.2540 H   0  0  0  0  0  0  0  0  0  0  0  0
  -28.8010  -18.9500   21.6170 C   0  0  0  0  0  3  0  0  0  0  0  0
  -29.4590  -17.6950   21.5480 C   0  0  0  0  0  0  0  0  0  0  0  0
  -30.0590  -17.5660   20.3240 C   0  0  0  0  0  0  0  0  0  0  0  0
  -29.0750  -19.5310   20.4120 C   0  0  0  0  0  0  0  0  0  0  0  0
  -29.8410  -18.7220   19.6100 O   0  0  0  0  0  0  0  0  0  0  0  0
  -29.4510  -16.7610   22.5300 F   0  0  0  0  0  0  0  0  0  0  0  0
  -30.7890  -16.5090   19.6320 C   0  0  0  0  0  3  0  0  0  0  0  0
  -31.2130  -15.4370   20.1880 N   0  0  0  0  0  0  0  0  0  0  0  0
  -31.7510  -14.4660   19.3550 C   0  0  0  0  0  0  0  0  0  0  0  0
  -31.1330  -12.3780   18.1750 C   0  0  0  0  0  2  0  0  0  0  0  0
  -29.9920  -12.6700   17.1810 C   0  0  0  0  0  2  0  0  0  0  0  0
  -28.6160  -12.5830   17.8730 C   0  0  0  0  0  2  0  0  0  0  0  0
  -28.5650  -13.3870   19.2000 C   0  0  0  0  0  3  0  0  0  0  0  0
  -29.7890  -13.0540   20.0800 C   0  0  0  0  0  2  0  0  0  0  0  0
  -31.0050  -13.3280   19.2910 N   0  0  0  0  0  0  0  0  0  0  0  0
  -32.7310  -14.6380   18.6240 O   0  0  0  0  0  0  0  0  0  0  0  0
  -26.4360  -14.0900   20.4680 C   0  0  0  0  0  0  0  0  0  0  0  0
  -25.3800  -13.3660   20.9530 C   0  0  0  0  0  0  0  0  0  0  0  0
  -25.6690  -11.9990   20.6540 C   0  0  0  0  0  0  0  0  0  0  0  0
  -27.3090  -13.1650   19.9130 N   0  0  0  0  0  0  0  0  0  0  0  0
  -26.8580  -11.8940   20.0780 N   0  0  0  0  0  0  0  0  0  0  0  0
  -24.8560  -10.7890   20.8330 C   0  0  0  0  0  0  0  0  0  0  0  0
  -25.2460   -9.7620   21.7210 C   0  0  0  0  0  3  0  0  0  0  0  0
  -24.4390   -8.6160   21.8880 C   0  0  0  0  0  3  0  0  0  0  0  0
  -23.2290   -8.4890   21.1670 C   0  0  0  0  0  0  0  0  0  0  0  0
  -22.8570   -9.5040   20.2680 C   0  0  0  0  0  3  0  0  0  0  0  0
  -23.6630  -10.6410   20.0980 C   0  0  0  0  0  3  0  0  0  0  0  0
  -22.3940   -7.4010   21.2460 O   0  0  0  0  0  0  0  0  0  0  0  0
  -22.1830   -6.7410   22.4300 C   0  0  0  0  0  0  0  0  0  0  0  0
  -21.6770   -7.4010   23.5710 C   0  0  0  0  0  3  0  0  0  0  0  0
  -21.4090   -6.6700   24.7470 C   0  0  0  0  0  3  0  0  0  0  0  0
  -21.6350   -5.2810   24.7800 C   0  0  0  0  0  0  0  0  0  0  0  0
  -22.1350   -4.6220   23.6430 C   0  0  0  0  0  3  0  0  0  0  0  0
  -22.4040   -5.3490   22.4700 C   0  0  0  0  0  0  0  0  0  0  0  0
  -22.8640   -4.7050   21.3710 F   0  0  0  0  0  0  0  0  0  0  0  0
  -21.3710   -4.5770   25.9060 F   0  0  0  0  0  0  0  0  0  0  0  0
  -24.1280  -13.9150   21.5750 C   0  0  0  0  0  0  0  0  0  0  0  0
  -23.5400  -13.1860   22.5180 N   0  0  0  0  0  0  0  0  0  0  0  0
  -23.6890  -15.0200   21.2610 O   0  0  0  0  0  0  0  0  0  0  0  0
  -23.9130  -12.2890   22.7930 H   0  0  0  0  0  0  0  0  0  0  0  0
  -22.7080  -13.5310   22.9740 H   0  0  0  0  0  0  0  0  0  0  0  0
  -26.7190  -15.4520   20.4350 N   0  0  0  0  0  0  0  0  0  0  0  0
  -26.0860  -16.1500   20.8090 H   0  0  0  0  0  0  0  0  0  0  0  0
  -27.5590  -15.8480   20.0330 H   0  0  0  0  0  0  0  0  0  0  0  0
  -28.2100  -22.8570   18.9890 C   0  0  0  0  0  0  0  0  0  0  0  0
  -27.3330  -22.6850   18.1350 O   0  0  0  0  0  0  0  0  0  0  0  0
  -28.3210  -24.1910   19.7380 C   0  0  0  0  0  2  0  0  0  0  0  0
  -28.5800  -25.3960   18.8060 C   0  0  0  0  0  2  0  0  0  0  0  0
  -28.4890  -26.6430   19.5060 O   0  0  0  0  0  0  0  0  0  0  0  0
  -24.7420  -31.6060   22.9590 C   0  0  0  0  0  0  0  0  0  0  0  0
  -27.2840  -27.3140   19.5820 C   0  0  0  0  0  0  0  0  0  0  0  0
  -23.4810  -30.2840   21.2920 C   0  0  0  0  0  3  0  0  0  0  0  0
  -24.8840  -28.8120   19.7550 C   0  0  0  0  0  0  0  0  0  0  0  0
  -25.9990  -30.6480   21.0320 C   0  0  0  0  0  2  0  0  0  0  0  0
  -26.0590  -29.3080   20.3290 C   0  0  0  0  0  0  0  0  0  0  0  0
  -27.2570  -28.5630   20.2430 C   0  0  0  0  0  3  0  0  0  0  0  0
  -26.0780  -26.8210   19.0250 C   0  0  0  0  0  3  0  0  0  0  0  0
  -24.8870  -27.5650   19.1060 C   0  0  0  0  0  3  0  0  0  0  0  0
  -23.6440  -29.6680   19.8770 C   0  0  0  0  0  2  0  0  0  0  0  0
  -24.7620  -30.8590   21.8200 N   0  0  0  0  0  0  0  0  0  0  0  0
  -23.6790  -31.8540   23.5450 O   0  0  0  0  0  0  0  0  0  0  0  0
  -22.8580  -29.2200   22.2240 C   0  0  0  0  0  0  0  0  0  0  0  0
  -21.5270  -29.0590   22.1420 N   0  0  0  0  0  0  0  0  0  0  0  0
  -23.5670  -28.5430   22.9730 O   0  0  0  0  0  0  0  0  0  0  0  0
  -21.0160  -29.6580   21.5090 H   0  0  0  0  0  0  0  0  0  0  0  0
  -18.1590  -27.8900   22.7250 C   0  0  0  0  0  0  0  0  0  0  0  0
  -20.7300  -28.0910   22.8950 C   0  0  0  0  0  3  0  0  0  0  0  0
  -20.7810  -26.6950   22.2320 C   0  0  0  0  0  2  0  0  0  0  0  0
  -19.6300  -26.4490   21.2530 C   0  0  0  0  0  2  0  0  0  0  0  0
  -18.2810  -26.5790   21.9670 C   0  0  0  0  0  2  0  0  0  0  0  0
  -19.3100  -28.6080   23.1470 C   0  0  0  0  0  0  0  0  0  0  0  0
  -19.1410  -29.8390   23.8170 C   0  0  0  0  0  3  0  0  0  0  0  0
  -17.8550  -30.3520   24.0680 C   0  0  0  0  0  3  0  0  0  0  0  0
  -16.7190  -29.6300   23.6630 C   0  0  0  0  0  3  0  0  0  0  0  0
  -16.8730  -28.4000   22.9970 C   0  0  0  0  0  3  0  0  0  0  0  0
  -26.0490  -32.2040   23.5670 C   0  0  0  0  0  3  0  0  0  0  0  0
  -25.7250  -33.5380   24.0870 N   0  0  0  0  0  0  0  0  0  0  0  0
  -25.9800  -34.6870   23.4450 C   0  0  0  0  0  0  0  0  0  0  0  0
  -26.5860  -34.7340   22.3710 O   0  0  0  0  0  0  0  0  0  0  0  0
  -25.1780  -33.5750   24.9360 H   0  0  0  0  0  0  0  0  0  0  0  0
  -24.1850  -36.4480   23.4140 C   0  0  0  0  0  1  0  0  0  0  0  0
  -25.4830  -35.9910   24.0980 C   0  0  0  0  0  3  0  0  0  0  0  0
  -27.6370  -36.8400   24.9140 C   0  0  0  0  0  1  0  0  0  0  0  0
  -26.4780  -37.0840   24.0600 N   0  0  0  0  0  0  0  0  0  0  0  0
  -26.0570  -37.9660   24.3400 H   0  0  0  0  0  0  0  0  0  0  0  0
  -26.6790  -31.3020   24.7000 C   0  0  1  0  0  0  0  0  0  0  0  0
  -25.6670  -30.8750   25.7870 C   0  0  0  0  0  1  0  0  0  0  0  0
  -27.2920  -30.0180   24.0940 C   0  0  0  0  0  1  0  0  0  0  0  0
  -27.8350  -32.0600   25.3920 C   0  0  0  0  0  1  0  0  0  0  0  0
  1  2  1  0
  2  4  1  0
  2  8  1  0
  3  1  2  0
  6  5  1  0
  6 10  1  0
  7  6  2  0
  8  5  2  0
  9  7  1  0
  9  8  1  0
 11 12  2  0
 11  7  1  0
 13 12  1  0
 14 19  1  0
 15 16  1  0
 15 14  1  0
 17 16  1  0
 17 24  1  0
 17 18  1  0
 19 13  1  0
 19 18  1  0
 20 13  2  0
 21 22  2  0
 22 41  1  0
 23 26  1  0
 23 22  1  0
 24 25  1  0
 24 21  1  0
 25 23  2  0
 26 27  1  0
 27 28  2  0
 29 32  1  0
 29 28  1  0
 30 29  2  0
 31 30  1  0
 31 26  2  0
 32 33  1  0
 33 38  2  0
 33 34  1  0
 34 35  2  0
 35 36  1  0
 36 40  1  0
 37 36  2  0
 38 37  1  0
 39 38  1  0
 41 42  1  0
 42 44  1  0
 42 45  1  0
 43 41  2  0
 46 21  1  0
 46 47  1  0
 48 46  1  0
 49  1  1  0
 49 51  1  0
 50 49  2  0
 52 53  1  0
 52 51  1  0
 53 55  1  0
 54 65  2  0
 55 60  1  0
 56 64  1  0
 56 66  1  0
 57 63  1  0
 57 59  1  0
 58 64  1  0
 59 58  1  0
 60 59  2  0
 61 62  1  0
 61 55  2  0
 62 57  2  0
 63 56  1  0
 64 54  1  0
 66 68  2  0
 67 66  1  0
 69 67  1  0
 70 79  2  0
 70 75  1  0
 71 67  1  0
 71 75  1  0
 72 71  1  0
 73 74  1  0
 73 72  1  0
 74 70  1  0
 75 76  2  0
 76 77  1  0
 78 77  2  0
 79 78  1  0
 80 54  1  0
 80 81  1  0
 80 90  1  0
 81 84  1  0
 82 81  1  0
 82 86  1  0
 83 82  2  0
 86 85  1  0
 88 86  1  0
 88 89  1  0
 88 87  1  0
 90 93  1  1
 90 91  1  0
 92 90  1  0
M  ISO  4  12 100  13 100  52 101  53 101
M  END
>  <TORSDO>  (12) 
F 21

>  <SCORE>  (12) 
-8.671

>  <name>  (12) 
11

>  <ligand_id>  (12) 
11

>  <original_smiles>  (12) 
[H]C(=NC(=O)N1C([H])([H])C([H])([H])C([H])([H])C([H])(n2nc(-c3c([H])c([H])c(Oc4c([H])c([H])c(F)c([H])c4F)c([H])c3[H])c(C(=O)N([H])[H])c2N([H])[H])C1([H])[H])c1oc(N([H])C(=O)C(=O)C([H])([H])C([H])([H])Oc2c([H])c([H])c3c(c2[H])C([H])([H])N(C(=O)C([H])(N([H])C(=O)C([H])(N([H])C([H])([H])[H])C([H])([H])[H])C(C([H])([H])[H])(C([H])([H])[H])C([H])([H])[H])C([H])(C(=O)N([H])C2([H])c4c([H])c([H])c([H])c([H])c4C([H])([H])C([H])([H])C2([H])[H])C3([H])[H])c([H])c1F

>  <smiles>  (12) 
[H]C(=NC(=O)N1C([H])([H])C([H])([H])C([H])([H])C([H])(n2nc(-c3c([H])c([H])c(Oc4c([H])c([H])c(F)c([H])c4F)c([H])c3[H])c(C(=O)N([H])[H])c2N([H])[H])C1([H])[H])c1oc(N([H])C(=O)C(=O)C([H])([H])C([H])([H])Oc2c([H])c([H])c3c(c2[H])C([H])([H])N(C(=O)C([H])(N([H])C(=O)C([H])(N([H])C([H])([H])[H])C([H])([H])[H])C(C([H])([H])[H])(C([H])([H])[H])C([H])([H])[H])C([H])(C(=O)N([H])C2([H])c4c([H])c([H])c([H])c([H])c4C([H])([H])C([H])([H])C2([H])[H])C3([H])[H])c([H])c1F

$$$$
12:0:0
     RDKit          3D

 96104  0  0  1  0  0  0  0  0999 V2000
  -30.1280  -22.0550   20.2400 C   0  0  0  0  0  0  0  0  0  0  0  0
  -29.6340  -20.9410   19.6590 N   0  0  0  0  0  0  0  0  0  0  0  0
  -30.6660  -22.0200   21.3510 O   0  0  0  0  0  0  0  0  0  0  0  0
  -29.1380  -21.1100   18.7940 H   0  0  0  0  0  0  0  0  0  0  0  0
  -28.8140  -18.6600   19.5100 C   0  0  0  0  0  3  0  0  0  0  0  0
  -30.7180  -19.0460   20.9320 C   0  0  0  0  0  3  0  0  0  0  0  0
  -29.7320  -19.5720   20.0630 C   0  0  0  0  0  0  0  0  0  0  0  0
  -28.8980  -17.2990   19.8470 C   0  0  0  0  0  0  0  0  0  0  0  0
  -29.9260  -16.8500   20.7060 C   0  0  0  0  0  0  0  0  0  0  0  0
  -30.8150  -17.7270   21.2430 N   0  0  0  0  0  0  0  0  0  0  0  0
  -27.9860  -16.4410   19.3360 F   0  0  0  0  0  0  0  0  0  0  0  0
  -30.6330  -14.5000   20.4780 C   0  0  0  0  0  0  0  0  0  0  0  0
  -30.3700  -12.3380   19.3160 C   0  0  0  0  0  2  0  0  0  0  0  0
  -29.4220  -12.5380   18.1140 C   0  0  0  0  0  2  0  0  0  0  0  0
  -27.9480  -12.3820   18.5450 C   0  0  0  0  0  2  0  0  0  0  0  0
  -27.6080  -13.2080   19.8100 C   0  0  0  0  0  3  0  0  0  0  0  0
  -28.6630  -12.9830   20.9170 C   0  0  0  0  0  2  0  0  0  0  0  0
  -29.9870  -13.3060   20.3550 N   0  0  0  0  0  0  0  0  0  0  0  0
  -31.7590  -14.7000   20.0090 O   0  0  0  0  0  0  0  0  0  0  0  0
  -29.9030  -15.4730   21.0550 N   0  0  0  0  0  0  0  0  0  0  0  0
  -29.0020  -15.1420   21.3590 H   0  0  0  0  0  0  0  0  0  0  0  0
  -25.2130  -13.8470   20.5090 C   0  0  0  0  0  0  0  0  0  0  0  0
  -24.1410  -13.0840   20.8850 C   0  0  0  0  0  0  0  0  0  0  0  0
  -24.5950  -11.7310   20.8620 C   0  0  0  0  0  0  0  0  0  0  0  0
  -26.2530  -12.9560   20.2850 N   0  0  0  0  0  0  0  0  0  0  0  0
  -25.8840  -11.6790   20.5550 N   0  0  0  0  0  0  0  0  0  0  0  0
  -23.8670  -10.4730   21.0590 C   0  0  0  0  0  0  0  0  0  0  0  0
  -24.3090   -9.5010   21.9830 C   0  0  0  0  0  3  0  0  0  0  0  0
  -23.5840   -8.3030   22.1650 C   0  0  0  0  0  3  0  0  0  0  0  0
  -22.4020   -8.0720   21.4210 C   0  0  0  0  0  0  0  0  0  0  0  0
  -21.9800   -9.0330   20.4850 C   0  0  0  0  0  3  0  0  0  0  0  0
  -22.7060  -10.2210   20.3020 C   0  0  0  0  0  3  0  0  0  0  0  0
  -21.6470   -6.9290   21.5150 O   0  0  0  0  0  0  0  0  0  0  0  0
  -21.6240   -6.1730   22.6600 C   0  0  0  0  0  0  0  0  0  0  0  0
  -21.2360   -6.7170   23.9030 C   0  0  0  0  0  3  0  0  0  0  0  0
  -21.1540   -5.8890   25.0410 C   0  0  0  0  0  3  0  0  0  0  0  0
  -21.4540   -4.5160   24.9360 C   0  0  0  0  0  0  0  0  0  0  0  0
  -21.8340   -3.9710   23.6970 C   0  0  0  0  0  3  0  0  0  0  0  0
  -21.9160   -4.7980   22.5610 C   0  0  0  0  0  0  0  0  0  0  0  0
  -22.2630   -4.2630   21.3650 F   0  0  0  0  0  0  0  0  0  0  0  0
  -21.3700   -3.7190   26.0250 F   0  0  0  0  0  0  0  0  0  0  0  0
  -22.7440  -13.5700   21.1540 C   0  0  0  0  0  0  0  0  0  0  0  0
  -22.0120  -12.8790   22.0210 N   0  0  0  0  0  0  0  0  0  0  0  0
  -22.3100  -14.5930   20.6290 O   0  0  0  0  0  0  0  0  0  0  0  0
  -22.3770  -12.0540   22.4720 H   0  0  0  0  0  0  0  0  0  0  0  0
  -21.0730  -13.1860   22.2390 H   0  0  0  0  0  0  0  0  0  0  0  0
  -25.3860  -15.2160   20.3200 N   0  0  0  0  0  0  0  0  0  0  0  0
  -24.6130  -15.8670   20.3820 H   0  0  0  0  0  0  0  0  0  0  0  0
  -26.2270  -15.6370   19.9360 H   0  0  0  0  0  0  0  0  0  0  0  0
  -31.4200  -24.1050   19.5560 C   0  0  0  0  0  1  0  0  0  0  0  0
  -29.7490  -23.1270   17.9420 C   0  0  0  0  0  1  0  0  0  0  0  0
  -30.0410  -23.4020   19.4440 C   0  0  1  0  0  0  0  0  0  0  0  0
  -28.9450  -24.3580   20.0180 C   0  0  0  0  0  0  0  0  0  0  0  0
  -28.2860  -24.0930   21.0310 O   0  0  0  0  0  0  0  0  0  0  0  0
  -28.6980  -25.6830   19.2610 C   0  0  0  0  0  2  0  0  0  0  0  0
  -28.4340  -26.7690   20.1650 O   0  0  0  0  0  0  0  0  0  0  0  0
  -24.5830  -31.8820   23.2380 C   0  0  0  0  0  0  0  0  0  0  0  0
  -27.2280  -27.4440   20.1410 C   0  0  0  0  0  0  0  0  0  0  0  0
  -23.3700  -30.4780   21.5990 C   0  0  0  0  0  3  0  0  0  0  0  0
  -24.8190  -28.9380   20.1720 C   0  0  0  0  0  0  0  0  0  0  0  0
  -25.8940  -30.8380   21.3930 C   0  0  0  0  0  2  0  0  0  0  0  0
  -25.9770  -29.4650   20.7540 C   0  0  0  0  0  0  0  0  0  0  0  0
  -27.1770  -28.7210   20.7440 C   0  0  0  0  0  3  0  0  0  0  0  0
  -26.0430  -26.9180   19.5720 C   0  0  0  0  0  3  0  0  0  0  0  0
  -24.8460  -27.6610   19.5850 C   0  0  0  0  0  3  0  0  0  0  0  0
  -23.5760  -29.7970   20.2190 C   0  0  0  0  0  2  0  0  0  0  0  0
  -24.6340  -31.0810   22.1350 N   0  0  0  0  0  0  0  0  0  0  0  0
  -23.5040  -32.1540   23.7830 O   0  0  0  0  0  0  0  0  0  0  0  0
  -22.7240  -29.4580   22.5630 C   0  0  0  0  0  0  0  0  0  0  0  0
  -21.3990  -29.2730   22.4410 N   0  0  0  0  0  0  0  0  0  0  0  0
  -23.4100  -28.8330   23.3770 O   0  0  0  0  0  0  0  0  0  0  0  0
  -20.9060  -29.8280   21.7540 H   0  0  0  0  0  0  0  0  0  0  0  0
  -18.0290  -28.0770   22.9450 C   0  0  0  0  0  0  0  0  0  0  0  0
  -20.5860  -28.3370   23.2150 C   0  0  0  0  0  3  0  0  0  0  0  0
  -20.6910  -26.9050   22.6410 C   0  0  0  0  0  2  0  0  0  0  0  0
  -19.5880  -26.5800   21.6290 C   0  0  0  0  0  2  0  0  0  0  0  0
  -18.2060  -26.7260   22.2720 C   0  0  0  0  0  2  0  0  0  0  0  0
  -19.1470  -28.8410   23.3730 C   0  0  0  0  0  0  0  0  0  0  0  0
  -18.9280  -30.1050   23.9610 C   0  0  0  0  0  3  0  0  0  0  0  0
  -17.6240  -30.6070   24.1250 C   0  0  0  0  0  3  0  0  0  0  0  0
  -16.5200  -29.8400   23.7140 C   0  0  0  0  0  3  0  0  0  0  0  0
  -16.7230  -28.5780   23.1300 C   0  0  0  0  0  3  0  0  0  0  0  0
  -25.8720  -32.5140   23.8510 C   0  0  0  0  0  3  0  0  0  0  0  0
  -26.3990  -31.7410   25.1220 C   0  0  1  0  0  0  0  0  0  0  0  0
  -25.3150  -31.5030   26.1980 C   0  0  0  0  0  1  0  0  0  0  0  0
  -26.9790  -30.3650   24.7220 C   0  0  0  0  0  1  0  0  0  0  0  0
  -27.5550  -32.5360   25.7760 C   0  0  0  0  0  1  0  0  0  0  0  0
  -25.5650  -33.9110   24.1830 N   0  0  0  0  0  0  0  0  0  0  0  0
  -25.8990  -34.9630   23.4220 C   0  0  0  0  0  0  0  0  0  0  0  0
  -26.5680  -34.8590   22.3900 O   0  0  0  0  0  0  0  0  0  0  0  0
  -24.9720  -34.0660   24.9850 H   0  0  0  0  0  0  0  0  0  0  0  0
  -24.1740  -36.7560   23.0650 C   0  0  0  0  0  1  0  0  0  0  0  0
  -25.4120  -36.3500   23.8790 C   0  0  0  0  0  3  0  0  0  0  0  0
  -27.5470  -37.2300   24.7140 C   0  0  0  0  0  1  0  0  0  0  0  0
  -26.4470  -37.4020   23.7700 N   0  0  0  0  0  0  0  0  0  0  0  0
  -26.0420  -38.3220   23.9210 H   0  0  0  0  0  0  0  0  0  0  0  0
  1  3  2  0
  2  7  1  0
  2  1  1  0
  4  2  1  0
  5  8  2  0
  5  7  1  0
  6 10  1  0
  7  6  2  0
  8  9  1  0
  9 20  1  0
  9 10  2  0
 11  8  1  0
 12 20  1  0
 13 18  1  0
 14 15  1  0
 14 13  1  0
 16 15  1  0
 16 25  1  0
 16 17  1  0
 18 12  1  0
 18 17  1  0
 19 12  2  0
 20 21  1  0
 22 23  2  0
 23 42  1  0
 24 23  1  0
 24 27  1  0
 25 22  1  0
 25 26  1  0
 26 24  2  0
 27 28  1  0
 28 29  2  0
 30 33  1  0
 30 29  1  0
 31 30  2  0
 32 31  1  0
 32 27  2  0
 33 34  1  0
 34 35  1  0
 35 36  2  0
 37 36  1  0
 37 41  1  0
 38 37  2  0
 39 34  2  0
 39 38  1  0
 40 39  1  0
 42 43  1  0
 43 46  1  0
 43 45  1  0
 44 42  2  0
 47 48  1  0
 47 22  1  0
 49 47  1  0
 52 51  1  6
 52 50  1  0
 52 53  1  0
 52  1  1  0
 53 54  2  0
 55 53  1  0
 55 56  1  0
 57 68  2  0
 58 56  1  0
 58 63  1  0
 59 67  1  0
 59 69  1  0
 60 66  1  0
 60 62  1  0
 61 67  1  0
 62 61  1  0
 63 62  2  0
 64 65  1  0
 64 58  2  0
 65 60  2  0
 66 59  1  0
 67 57  1  0
 69 71  2  0
 70 69  1  0
 72 70  1  0
 73 82  2  0
 73 78  1  0
 74 70  1  0
 74 78  1  0
 75 74  1  0
 76 77  1  0
 76 75  1  0
 77 73  1  0
 78 79  2  0
 79 80  1  0
 81 80  2  0
 82 81  1  0
 83 57  1  0
 83 88  1  0
 83 84  1  0
 84 87  1  1
 84 85  1  0
 86 84  1  0
 88 91  1  0
 89 93  1  0
 89 88  1  0
 90 89  2  0
 93 92  1  0
 95 93  1  0
 95 96  1  0
 95 94  1  0
M  ISO  4  12 100  20 100  55 101  56 101
M  END
>  <TORSDO>  (13) 
F 20

>  <SCORE>  (13) 
-14.282

>  <name>  (13) 
12

>  <ligand_id>  (13) 
12

>  <original_smiles>  (13) 
[H]c1nc(N([H])C(=O)N2C([H])([H])C([H])([H])C([H])([H])C([H])(n3nc(-c4c([H])c([H])c(Oc5c([H])c([H])c(F)c([H])c5F)c([H])c4[H])c(C(=O)N([H])[H])c3N([H])[H])C2([H])[H])c(F)c([H])c1N([H])C(=O)C(C(=O)C([H])([H])Oc1c([H])c([H])c2c(c1[H])C([H])([H])N(C(=O)C([H])(N([H])C(=O)C([H])(N([H])C([H])([H])[H])C([H])([H])[H])C(C([H])([H])[H])(C([H])([H])[H])C([H])([H])[H])C([H])(C(=O)N([H])C1([H])c3c([H])c([H])c([H])c([H])c3C([H])([H])C([H])([H])C1([H])[H])C2([H])[H])(C([H])([H])[H])C([H])([H])[H]

>  <smiles>  (13) 
[H]c1nc(N([H])C(=O)N2C([H])([H])C([H])([H])C([H])([H])C([H])(n3nc(-c4c([H])c([H])c(Oc5c([H])c([H])c(F)c([H])c5F)c([H])c4[H])c(C(=O)N([H])[H])c3N([H])[H])C2([H])[H])c(F)c([H])c1N([H])C(=O)C(C(=O)C([H])([H])Oc1c([H])c([H])c2c(c1[H])C([H])([H])N(C(=O)C([H])(N([H])C(=O)C([H])(N([H])C([H])([H])[H])C([H])([H])[H])C(C([H])([H])[H])(C([H])([H])[H])C([H])([H])[H])C([H])(C(=O)N([H])C1([H])c3c([H])c([H])c([H])c([H])c3C([H])([H])C([H])([H])C1([H])[H])C2([H])[H])(C([H])([H])[H])C([H])([H])[H]

$$$$
13:0:0
     RDKit          3D

 96104  0  0  1  0  0  0  0  0999 V2000
  -29.2630  -16.5520   18.3410 C   0  0  0  0  0  3  0  0  0  0  0  0
  -30.0490  -16.6160   19.4730 C   0  0  0  0  0  0  0  0  0  0  0  0
  -29.6550  -18.8860   19.0630 C   0  0  0  0  0  0  0  0  0  0  0  0
  -30.0880  -21.2790   19.9700 C   0  0  0  0  0  0  0  0  0  0  0  0
  -30.2650  -17.9830   19.8730 N   0  0  0  0  0  0  0  0  0  0  0  0
  -29.6340  -20.3270   19.1210 N   0  0  0  0  0  0  0  0  0  0  0  0
  -30.7060  -21.0710   21.0210 O   0  0  0  0  0  0  0  0  0  0  0  0
  -28.7810  -18.1160   17.7490 S   0  0  0  0  0  0  0  0  0  0  0  0
  -29.1440  -20.7630   18.3480 H   0  0  0  0  0  0  0  0  0  0  0  0
  -30.9980  -14.3510   19.3260 C   0  0  0  0  0  0  0  0  0  0  0  0
  -30.3510  -12.2960   18.0970 C   0  0  0  0  0  2  0  0  0  0  0  0
  -29.2250  -12.6420   17.1000 C   0  0  0  0  0  2  0  0  0  0  0  0
  -27.8430  -12.5480   17.7750 C   0  0  0  0  0  2  0  0  0  0  0  0
  -27.7930  -13.2520   19.1570 C   0  0  0  0  0  3  0  0  0  0  0  0
  -29.0190  -12.9000   20.0180 C   0  0  0  0  0  2  0  0  0  0  0  0
  -30.2330  -13.2140   19.2480 N   0  0  0  0  0  0  0  0  0  0  0  0
  -32.0110  -14.4820   18.6340 O   0  0  0  0  0  0  0  0  0  0  0  0
  -30.7840  -15.3450   21.4600 C   0  0  0  0  0  0  0  0  0  0  0  0
  -30.5680  -15.3930   20.1110 N   0  0  0  0  0  0  0  0  0  0  0  0
  -30.2590  -16.1480   22.2400 O   0  0  0  0  0  0  0  0  0  0  0  0
  -25.6320  -13.8800   20.3950 C   0  0  0  0  0  0  0  0  0  0  0  0
  -24.6020  -13.1210   20.8850 C   0  0  0  0  0  0  0  0  0  0  0  0
  -24.9540  -11.7610   20.6210 C   0  0  0  0  0  0  0  0  0  0  0  0
  -26.5460  -12.9820   19.8660 N   0  0  0  0  0  0  0  0  0  0  0  0
  -26.1550  -11.6970   20.0570 N   0  0  0  0  0  0  0  0  0  0  0  0
  -24.1900  -10.5220   20.8190 C   0  0  0  0  0  0  0  0  0  0  0  0
  -24.6720   -9.4770   21.6390 C   0  0  0  0  0  3  0  0  0  0  0  0
  -23.9120   -8.3020   21.8220 C   0  0  0  0  0  3  0  0  0  0  0  0
  -22.6530   -8.1660   21.1900 C   0  0  0  0  0  0  0  0  0  0  0  0
  -22.1890   -9.1990   20.3570 C   0  0  0  0  0  3  0  0  0  0  0  0
  -22.9500  -10.3650   20.1700 C   0  0  0  0  0  3  0  0  0  0  0  0
  -21.8560   -7.0540   21.2890 O   0  0  0  0  0  0  0  0  0  0  0  0
  -21.8110   -6.3010   22.4350 C   0  0  0  0  0  0  0  0  0  0  0  0
  -21.4480   -6.8600   23.6810 C   0  0  0  0  0  3  0  0  0  0  0  0
  -21.3500   -6.0340   24.8180 C   0  0  0  0  0  3  0  0  0  0  0  0
  -21.6020   -4.6550   24.7130 C   0  0  0  0  0  0  0  0  0  0  0  0
  -21.9540   -4.0970   23.4710 C   0  0  0  0  0  3  0  0  0  0  0  0
  -22.0560   -4.9180   22.3350 C   0  0  0  0  0  0  0  0  0  0  0  0
  -22.3770   -4.3710   21.1370 F   0  0  0  0  0  0  0  0  0  0  0  0
  -21.5000   -3.8600   25.8050 F   0  0  0  0  0  0  0  0  0  0  0  0
  -23.3180  -13.6310   21.4740 C   0  0  0  0  0  0  0  0  0  0  0  0
  -22.7310  -12.8850   22.4040 N   0  0  0  0  0  0  0  0  0  0  0  0
  -22.8520  -14.7210   21.1460 O   0  0  0  0  0  0  0  0  0  0  0  0
  -23.1240  -11.9990   22.6860 H   0  0  0  0  0  0  0  0  0  0  0  0
  -21.8790  -13.2030   22.8420 H   0  0  0  0  0  0  0  0  0  0  0  0
  -25.8520  -15.2510   20.3360 N   0  0  0  0  0  0  0  0  0  0  0  0
  -25.1550  -15.9150   20.6530 H   0  0  0  0  0  0  0  0  0  0  0  0
  -26.6640  -15.6950   19.9250 H   0  0  0  0  0  0  0  0  0  0  0  0
  -30.8530  -13.0560   22.6680 C   0  0  0  0  0  1  0  0  0  0  0  0
  -31.6640  -14.2420   22.1110 C   0  0  0  0  0  2  0  0  0  0  0  0
  -29.7200  -22.7380   19.4460 C   0  0  0  0  0  0  0  0  0  0  0  0
  -29.2460  -22.8750   18.3100 O   0  0  0  0  0  0  0  0  0  0  0  0
  -29.9230  -23.9850   20.3670 C   0  0  0  0  0  2  0  0  0  0  0  0
  -29.7850  -25.4020   19.6900 C   0  0  0  0  0  3  0  0  0  0  0  0
  -31.0080  -25.7500   19.2100 F   0  0  0  0  0  0  0  0  0  0  0  0
  -29.3520  -26.4130   20.5380 O   0  0  0  0  0  0  0  0  0  0  0  0
  -24.8920  -31.2760   23.3510 C   0  0  0  0  0  0  0  0  0  0  0  0
  -28.1280  -27.0780   20.4040 C   0  0  0  0  0  0  0  0  0  0  0  0
  -23.9380  -29.8280   21.5890 C   0  0  0  0  0  3  0  0  0  0  0  0
  -25.6180  -28.4340   20.2650 C   0  0  0  0  0  0  0  0  0  0  0  0
  -26.4430  -30.3690   21.6120 C   0  0  0  0  0  2  0  0  0  0  0  0
  -26.6890  -29.0220   20.9490 C   0  0  0  0  0  0  0  0  0  0  0  0
  -27.9410  -28.3540   21.0120 C   0  0  0  0  0  3  0  0  0  0  0  0
  -27.0150  -26.5100   19.7400 C   0  0  0  0  0  3  0  0  0  0  0  0
  -25.7800  -27.1780   19.6600 C   0  0  0  0  0  3  0  0  0  0  0  0
  -24.3130  -29.1960   20.2220 C   0  0  0  0  0  2  0  0  0  0  0  0
  -25.1050  -30.5070   22.2430 N   0  0  0  0  0  0  0  0  0  0  0  0
  -23.7510  -31.4520   23.8020 O   0  0  0  0  0  0  0  0  0  0  0  0
  -23.2880  -28.7390   22.4770 C   0  0  0  0  0  0  0  0  0  0  0  0
  -22.0150  -28.4160   22.1970 N   0  0  0  0  0  0  0  0  0  0  0  0
  -23.9340  -28.1870   23.3710 O   0  0  0  0  0  0  0  0  0  0  0  0
  -21.5500  -28.9230   21.4550 H   0  0  0  0  0  0  0  0  0  0  0  0
  -18.7660  -26.8340   22.2830 C   0  0  0  0  0  0  0  0  0  0  0  0
  -21.2190  -27.3900   22.8740 C   0  0  0  0  0  3  0  0  0  0  0  0
  -21.5600  -25.9800   22.3420 C   0  0  0  0  0  2  0  0  0  0  0  0
  -20.6450  -25.5270   21.2010 C   0  0  0  0  0  2  0  0  0  0  0  0
  -19.1840  -25.5120   21.6580 C   0  0  0  0  0  2  0  0  0  0  0  0
  -19.7240  -27.7230   22.8390 C   0  0  0  0  0  0  0  0  0  0  0  0
  -19.2860  -28.9520   23.3760 C   0  0  0  0  0  3  0  0  0  0  0  0
  -17.9230  -29.2990   23.3630 C   0  0  0  0  0  3  0  0  0  0  0  0
  -16.9760  -28.4100   22.8260 C   0  0  0  0  0  3  0  0  0  0  0  0
  -17.3980  -27.1780   22.2930 C   0  0  0  0  0  3  0  0  0  0  0  0
  -26.0690  -31.9900   24.0870 C   0  0  0  0  0  3  0  0  0  0  0  0
  -26.4470  -31.3120   25.4600 C   0  0  1  0  0  0  0  0  0  0  0  0
  -25.2350  -31.0840   26.3940 C   0  0  0  0  0  1  0  0  0  0  0  0
  -27.1250  -29.9420   25.2240 C   0  0  0  0  0  1  0  0  0  0  0  0
  -27.4710  -32.1890   26.2170 C   0  0  0  0  0  1  0  0  0  0  0  0
  -25.6760  -33.3910   24.2930 N   0  0  0  0  0  0  0  0  0  0  0  0
  -26.0690  -34.4150   23.5240 C   0  0  0  0  0  0  0  0  0  0  0  0
  -26.8680  -34.2830   22.5920 O   0  0  0  0  0  0  0  0  0  0  0  0
  -24.9760  -33.5620   24.9990 H   0  0  0  0  0  0  0  0  0  0  0  0
  -24.3540  -36.1260   22.8440 C   0  0  0  0  0  1  0  0  0  0  0  0
  -25.4820  -35.8050   23.8380 C   0  0  0  0  0  3  0  0  0  0  0  0
  -27.4560  -36.8050   24.9030 C   0  0  0  0  0  1  0  0  0  0  0  0
  -26.4870  -36.8890   23.8120 N   0  0  0  0  0  0  0  0  0  0  0  0
  -26.0360  -37.7990   23.8590 H   0  0  0  0  0  0  0  0  0  0  0  0
  1  2  2  0
  2  5  1  0
  2 19  1  0
  3  6  1  0
  3  5  2  0
  4  7  2  0
  6  4  1  0
  8  1  1  0
  8  3  1  0
  9  6  1  0
 10 19  1  0
 11 16  1  0
 12 13  1  0
 12 11  1  0
 14 13  1  0
 14 24  1  0
 14 15  1  0
 16 10  1  0
 16 15  1  0
 17 10  2  0
 18 50  1  0
 18 20  2  0
 19 18  1  0
 21 22  2  0
 22 41  1  0
 23 26  1  0
 23 22  1  0
 24 25  1  0
 24 21  1  0
 25 23  2  0
 26 27  1  0
 27 28  2  0
 29 32  1  0
 29 28  1  0
 30 29  2  0
 31 30  1  0
 31 26  2  0
 32 33  1  0
 33 34  1  0
 34 35  2  0
 36 35  1  0
 36 40  1  0
 37 36  2  0
 38 33  2  0
 38 37  1  0
 39 38  1  0
 41 42  1  0
 42 44  1  0
 42 45  1  0
 43 41  2  0
 46 21  1  0
 46 47  1  0
 48 46  1  0
 50 49  1  0
 51  4  1  0
 51 53  1  0
 52 51  2  0
 54 55  1  0
 54 53  1  0
 54 56  1  0
 57 68  2  0
 58 56  1  0
 58 63  1  0
 59 67  1  0
 59 69  1  0
 60 62  1  0
 61 67  1  0
 62 63  2  0
 62 61  1  0
 64 58  2  0
 65 64  1  0
 65 60  2  0
 66 60  1  0
 66 59  1  0
 67 57  1  0
 69 71  2  0
 70 69  1  0
 72 70  1  0
 73 82  2  0
 73 78  1  0
 74 70  1  0
 75 74  1  0
 76 77  1  0
 76 75  1  0
 77 73  1  0
 78 74  1  0
 78 79  2  0
 80 79  1  0
 81 80  2  0
 82 81  1  0
 83 57  1  0
 83 88  1  0
 83 84  1  0
 84 87  1  1
 84 85  1  0
 86 84  1  0
 88 91  1  0
 89 93  1  0
 89 88  1  0
 90 89  2  0
 93 92  1  0
 95 93  1  0
 95 96  1  0
 95 94  1  0
M  ISO  4  10 100  19 100  54 101  56 101
M  END
>  <TORSDO>  (14) 
F 20

>  <SCORE>  (14) 
-8.197

>  <name>  (14) 
13

>  <ligand_id>  (14) 
13

>  <original_smiles>  (14) 
[H]c1sc(N([H])C(=O)C(=O)C([H])([H])C([H])(F)Oc2c([H])c([H])c3c(c2[H])C([H])([H])N(C(=O)C([H])(N([H])C(=O)C([H])(N([H])C([H])([H])[H])C([H])([H])[H])C(C([H])([H])[H])(C([H])([H])[H])C([H])([H])[H])C([H])(C(=O)N([H])C2([H])c4c([H])c([H])c([H])c([H])c4C([H])([H])C([H])([H])C2([H])[H])C3([H])[H])nc1N(C(=O)N1C([H])([H])C([H])([H])C([H])([H])C([H])(n2nc(-c3c([H])c([H])c(Oc4c([H])c([H])c(F)c([H])c4F)c([H])c3[H])c(C(=O)N([H])[H])c2N([H])[H])C1([H])[H])C(=O)C([H])([H])C([H])([H])[H]

>  <smiles>  (14) 
[H]c1sc(N([H])C(=O)C(=O)C([H])([H])C([H])(F)Oc2c([H])c([H])c3c(c2[H])C([H])([H])N(C(=O)C([H])(N([H])C(=O)C([H])(N([H])C([H])([H])[H])C([H])([H])[H])C(C([H])([H])[H])(C([H])([H])[H])C([H])([H])[H])C([H])(C(=O)N([H])C2([H])c4c([H])c([H])c([H])c([H])c4C([H])([H])C([H])([H])C2([H])[H])C3([H])[H])nc1N(C(=O)N1C([H])([H])C([H])([H])C([H])([H])C([H])(n2nc(-c3c([H])c([H])c(Oc4c([H])c([H])c(F)c([H])c4F)c([H])c3[H])c(C(=O)N([H])[H])c2N([H])[H])C1([H])[H])C(=O)C([H])([H])C([H])([H])[H]

$$$$
14:0:0
     RDKit          3D

 97105  0  0  1  0  0  0  0  0999 V2000
  -29.6900  -21.9700   20.4930 C   0  0  0  0  0  0  0  0  0  0  0  0
  -30.2850  -20.7950   20.8240 N   0  0  0  0  0  0  0  0  0  0  0  0
  -28.7030  -22.0320   19.7510 O   0  0  0  0  0  0  0  0  0  0  0  0
  -30.8260  -20.8210   21.6770 H   0  0  0  0  0  0  0  0  0  0  0  0
  -30.7320  -14.6440   20.2190 C   0  0  0  0  0  0  0  0  0  0  0  0
  -30.3630  -12.4080   19.2560 C   0  0  0  0  0  2  0  0  0  0  0  0
  -29.4120  -12.5420   18.0520 C   0  0  0  0  0  2  0  0  0  0  0  0
  -27.9500  -12.4010   18.5160 C   0  0  0  0  0  2  0  0  0  0  0  0
  -27.6150  -13.2940   19.7370 C   0  0  0  0  0  3  0  0  0  0  0  0
  -28.7040  -13.2050   20.8310 C   0  0  0  0  0  2  0  0  0  0  0  0
  -30.0130  -13.4740   20.2110 N   0  0  0  0  0  0  0  0  0  0  0  0
  -31.9200  -14.6640   19.8960 O   0  0  0  0  0  0  0  0  0  0  0  0
  -30.1820  -18.2930   20.5800 C   0  0  0  0  0  3  0  0  0  0  0  0
  -30.4190  -19.5950   20.0280 C   0  0  0  0  0  0  0  0  0  0  0  0
  -30.9370  -19.6550   18.7190 C   0  0  0  0  0  0  0  0  0  0  0  0
  -30.4050  -17.1070   19.8150 C   0  0  0  0  0  0  0  0  0  0  0  0
  -31.1130  -18.4460   18.0160 C   0  0  0  0  0  0  0  0  0  0  0  0
  -30.8590  -17.2150   18.5440 N   0  0  0  0  0  0  0  0  0  0  0  0
  -30.0680  -15.8200   20.3990 N   0  0  0  0  0  0  0  0  0  0  0  0
  -31.3040  -20.8420   18.1580 F   0  0  0  0  0  0  0  0  0  0  0  0
  -31.5770  -18.4940   16.7390 F   0  0  0  0  0  0  0  0  0  0  0  0
  -29.1760  -15.7930   20.8550 H   0  0  0  0  0  0  0  0  0  0  0  0
  -25.2300  -13.8860   20.4910 C   0  0  0  0  0  0  0  0  0  0  0  0
  -24.1680  -13.1080   20.8720 C   0  0  0  0  0  0  0  0  0  0  0  0
  -24.6310  -11.7570   20.8400 C   0  0  0  0  0  0  0  0  0  0  0  0
  -26.2760  -13.0060   20.2540 N   0  0  0  0  0  0  0  0  0  0  0  0
  -25.9220  -11.7240   20.5180 N   0  0  0  0  0  0  0  0  0  0  0  0
  -23.9070  -10.4920   21.0330 C   0  0  0  0  0  0  0  0  0  0  0  0
  -24.3480   -9.5240   21.9600 C   0  0  0  0  0  3  0  0  0  0  0  0
  -23.6230   -8.3250   22.1440 C   0  0  0  0  0  3  0  0  0  0  0  0
  -22.4420   -8.0850   21.3990 C   0  0  0  0  0  0  0  0  0  0  0  0
  -22.0190   -9.0460   20.4580 C   0  0  0  0  0  3  0  0  0  0  0  0
  -22.7470  -10.2370   20.2740 C   0  0  0  0  0  3  0  0  0  0  0  0
  -21.6880   -6.9440   21.4920 O   0  0  0  0  0  0  0  0  0  0  0  0
  -21.6520   -6.1970   22.6420 C   0  0  0  0  0  0  0  0  0  0  0  0
  -21.2400   -6.7460   23.8760 C   0  0  0  0  0  3  0  0  0  0  0  0
  -21.1540   -5.9250   25.0160 C   0  0  0  0  0  3  0  0  0  0  0  0
  -21.4690   -4.5570   24.9260 C   0  0  0  0  0  0  0  0  0  0  0  0
  -21.8750   -4.0070   23.7000 C   0  0  0  0  0  3  0  0  0  0  0  0
  -21.9650   -4.8240   22.5590 C   0  0  0  0  0  0  0  0  0  0  0  0
  -22.3350   -4.2850   21.3730 F   0  0  0  0  0  0  0  0  0  0  0  0
  -21.3780   -3.7660   26.0230 F   0  0  0  0  0  0  0  0  0  0  0  0
  -22.7680  -13.5780   21.1560 C   0  0  0  0  0  0  0  0  0  0  0  0
  -22.0480  -12.8780   22.0220 N   0  0  0  0  0  0  0  0  0  0  0  0
  -22.3260  -14.6060   20.6380 O   0  0  0  0  0  0  0  0  0  0  0  0
  -22.4160  -12.0470   22.4600 H   0  0  0  0  0  0  0  0  0  0  0  0
  -21.1110  -13.1780   22.2520 H   0  0  0  0  0  0  0  0  0  0  0  0
  -25.3840  -15.2510   20.3040 N   0  0  0  0  0  0  0  0  0  0  0  0
  -24.6040  -15.8930   20.3750 H   0  0  0  0  0  0  0  0  0  0  0  0
  -26.2150  -15.6840   19.9190 H   0  0  0  0  0  0  0  0  0  0  0  0
  -30.2620  -23.2620   21.1630 C   0  0  0  0  0  3  0  0  0  0  0  0
  -30.4070  -23.1080   22.5730 O   0  0  0  0  0  0  0  0  0  0  0  0
  -29.5670  -23.2370   23.0010 H   0  0  0  0  0  0  0  0  0  0  0  0
  -29.7870  -24.7050   20.7380 C   0  0  0  0  0  2  0  0  0  0  0  0
  -27.4840  -24.9120   21.9310 C   0  0  0  0  0  1  0  0  0  0  0  0
  -28.2940  -25.1980   20.6450 C   0  0  0  0  0  3  0  0  0  0  0  0
  -28.3830  -26.6240   20.3290 O   0  0  0  0  0  0  0  0  0  0  0  0
  -24.5760  -31.8800   23.2530 C   0  0  0  0  0  0  0  0  0  0  0  0
  -27.2270  -27.3900   20.2370 C   0  0  0  0  0  0  0  0  0  0  0  0
  -23.4060  -30.4840   21.6010 C   0  0  0  0  0  3  0  0  0  0  0  0
  -24.8520  -28.9490   20.1920 C   0  0  0  0  0  0  0  0  0  0  0  0
  -25.9340  -30.8280   21.4430 C   0  0  0  0  0  2  0  0  0  0  0  0
  -26.0150  -29.4670   20.7800 C   0  0  0  0  0  0  0  0  0  0  0  0
  -27.2050  -28.7000   20.7790 C   0  0  0  0  0  3  0  0  0  0  0  0
  -26.0460  -26.8990   19.6390 C   0  0  0  0  0  3  0  0  0  0  0  0
  -24.8700  -27.6650   19.6180 C   0  0  0  0  0  3  0  0  0  0  0  0
  -23.6260  -29.8220   20.2260 C   0  0  0  0  0  2  0  0  0  0  0  0
  -24.6550  -31.0920   22.1460 N   0  0  0  0  0  0  0  0  0  0  0  0
  -23.4860  -32.1670   23.7670 O   0  0  0  0  0  0  0  0  0  0  0  0
  -22.7380  -29.4610   22.5520 C   0  0  0  0  0  0  0  0  0  0  0  0
  -21.4080  -29.2820   22.4110 N   0  0  0  0  0  0  0  0  0  0  0  0
  -23.4080  -28.8240   23.3710 O   0  0  0  0  0  0  0  0  0  0  0  0
  -20.9080  -29.8450   21.7330 H   0  0  0  0  0  0  0  0  0  0  0  0
  -18.0230  -28.1050   22.9020 C   0  0  0  0  0  0  0  0  0  0  0  0
  -20.5850  -28.3450   23.1810 C   0  0  0  0  0  3  0  0  0  0  0  0
  -20.6740  -26.9140   22.6040 C   0  0  0  0  0  2  0  0  0  0  0  0
  -19.5730  -26.6050   21.5900 C   0  0  0  0  0  2  0  0  0  0  0  0
  -18.1890  -26.7580   22.2240 C   0  0  0  0  0  2  0  0  0  0  0  0
  -19.1460  -28.8540   23.3450 C   0  0  0  0  0  0  0  0  0  0  0  0
  -18.9370  -30.1160   23.9390 C   0  0  0  0  0  3  0  0  0  0  0  0
  -17.6360  -30.6230   24.1080 C   0  0  0  0  0  3  0  0  0  0  0  0
  -16.5240  -29.8680   23.6990 C   0  0  0  0  0  3  0  0  0  0  0  0
  -16.7220  -28.6100   23.1020 C   0  0  0  0  0  3  0  0  0  0  0  0
  -25.8530  -32.5300   23.8800 C   0  0  0  0  0  3  0  0  0  0  0  0
  -26.3510  -31.7800   25.1770 C   0  0  1  0  0  0  0  0  0  0  0  0
  -25.2440  -31.5590   26.2380 C   0  0  0  0  0  1  0  0  0  0  0  0
  -26.9510  -30.3910   24.8310 C   0  0  0  0  0  1  0  0  0  0  0  0
  -27.4940  -32.5870   25.8480 C   0  0  0  0  0  1  0  0  0  0  0  0
  -25.5500  -33.9300   24.1920 N   0  0  0  0  0  0  0  0  0  0  0  0
  -25.8990  -34.9720   23.4270 C   0  0  0  0  0  0  0  0  0  0  0  0
  -26.5910  -34.8520   22.4120 O   0  0  0  0  0  0  0  0  0  0  0  0
  -24.9390  -34.1030   24.9750 H   0  0  0  0  0  0  0  0  0  0  0  0
  -24.1820  -36.7630   23.0300 C   0  0  0  0  0  1  0  0  0  0  0  0
  -25.4040  -36.3640   23.8680 C   0  0  0  0  0  3  0  0  0  0  0  0
  -27.5260  -37.2350   24.7330 C   0  0  0  0  0  1  0  0  0  0  0  0
  -26.4410  -37.4100   23.7670 N   0  0  0  0  0  0  0  0  0  0  0  0
  -26.0430  -38.3360   23.9030 H   0  0  0  0  0  0  0  0  0  0  0  0
  1  2  1  0
  1 51  1  0
  2  4  1  0
  3  1  2  0
  5 19  1  0
  6 11  1  0
  7  8  1  0
  7  6  1  0
  9  8  1  0
  9 26  1  0
  9 10  1  0
 11  5  1  0
 11 10  1  0
 12  5  2  0
 14 13  1  0
 14  2  1  0
 15 14  2  0
 16 19  1  0
 16 13  2  0
 17 18  2  0
 17 15  1  0
 18 16  1  0
 19 22  1  0
 20 15  1  0
 21 17  1  0
 23 24  2  0
 24 43  1  0
 25 24  1  0
 25 28  1  0
 26 23  1  0
 26 27  1  0
 27 25  2  0
 28 29  1  0
 29 30  2  0
 31 34  1  0
 31 30  1  0
 32 31  2  0
 33 32  1  0
 33 28  2  0
 34 35  1  0
 35 36  1  0
 36 37  2  0
 38 37  1  0
 38 42  1  0
 39 38  2  0
 40 35  2  0
 40 39  1  0
 41 40  1  0
 43 44  1  0
 44 47  1  0
 44 46  1  0
 45 43  2  0
 48 49  1  0
 48 23  1  0
 50 48  1  0
 51 54  1  0
 51 52  1  0
 52 53  1  0
 56 54  1  0
 56 55  1  0
 57 56  1  0
 58 69  2  0
 59 57  1  0
 59 64  1  0
 60 68  1  0
 60 70  1  0
 61 67  1  0
 61 63  1  0
 62 68  1  0
 63 62  1  0
 64 63  2  0
 65 59  2  0
 66 65  1  0
 66 61  2  0
 67 60  1  0
 68 58  1  0
 70 72  2  0
 71 70  1  0
 73 71  1  0
 74 83  2  0
 74 79  1  0
 75 71  1  0
 75 79  1  0
 76 75  1  0
 77 78  1  0
 77 76  1  0
 78 74  1  0
 79 80  2  0
 80 81  1  0
 82 81  2  0
 83 82  1  0
 84 58  1  0
 84 89  1  0
 84 85  1  0
 85 88  1  1
 85 86  1  0
 87 85  1  0
 89 92  1  0
 90 94  1  0
 90 89  1  0
 91 90  2  0
 94 93  1  0
 96 94  1  0
 96 97  1  0
 96 95  1  0
M  ISO  4   5 100  19 100  56 101  57 101
M  END
>  <TORSDO>  (15) 
F 20

>  <SCORE>  (15) 
-14.476

>  <name>  (15) 
14

>  <ligand_id>  (15) 
14

>  <original_smiles>  (15) 
[H]OC([H])(C(=O)N([H])c1c([H])c(N([H])C(=O)N2C([H])([H])C([H])([H])C([H])([H])C([H])(n3nc(-c4c([H])c([H])c(Oc5c([H])c([H])c(F)c([H])c5F)c([H])c4[H])c(C(=O)N([H])[H])c3N([H])[H])C2([H])[H])nc(F)c1F)C([H])([H])C([H])(Oc1c([H])c([H])c2c(c1[H])C([H])([H])N(C(=O)C([H])(N([H])C(=O)C([H])(N([H])C([H])([H])[H])C([H])([H])[H])C(C([H])([H])[H])(C([H])([H])[H])C([H])([H])[H])C([H])(C(=O)N([H])C1([H])c3c([H])c([H])c([H])c([H])c3C([H])([H])C([H])([H])C1([H])[H])C2([H])[H])C([H])([H])[H]

>  <smiles>  (15) 
[H]OC([H])(C(=O)N([H])c1c([H])c(N([H])C(=O)N2C([H])([H])C([H])([H])C([H])([H])C([H])(n3nc(-c4c([H])c([H])c(Oc5c([H])c([H])c(F)c([H])c5F)c([H])c4[H])c(C(=O)N([H])[H])c3N([H])[H])C2([H])[H])nc(F)c1F)C([H])([H])C([H])(Oc1c([H])c([H])c2c(c1[H])C([H])([H])N(C(=O)C([H])(N([H])C(=O)C([H])(N([H])C([H])([H])[H])C([H])([H])[H])C(C([H])([H])[H])(C([H])([H])[H])C([H])([H])[H])C([H])(C(=O)N([H])C1([H])c3c([H])c([H])c([H])c([H])c3C([H])([H])C([H])([H])C1([H])[H])C2([H])[H])C([H])([H])[H]

$$$$
15:0:0
     RDKit          3D

100108  0  0  1  0  0  0  0  0999 V2000
  -31.7280  -17.9310   18.8710 C   0  0  0  0  0  3  0  0  0  0  0  0
  -29.7770  -19.3640   20.2160 C   0  0  0  0  0  0  0  0  0  0  0  0
  -30.9350  -17.2330   19.8090 C   0  0  0  0  0  0  0  0  0  0  0  0
  -29.9630  -17.9860   20.4900 C   0  0  0  0  0  0  0  0  0  0  0  0
  -30.6080  -19.9910   19.2440 C   0  0  0  0  0  0  0  0  0  0  0  0
  -31.1920  -22.4150   18.7470 C   0  0  0  0  0  0  0  0  0  0  0  0
  -31.5670  -19.2590   18.6060 N   0  0  0  0  0  0  0  0  0  0  0  0
  -30.3420  -21.3700   18.8990 N   0  0  0  0  0  0  0  0  0  0  0  0
  -32.4170  -22.3430   18.8960 O   0  0  0  0  0  0  0  0  0  0  0  0
  -29.1950  -17.3360   21.4020 F   0  0  0  0  0  0  0  0  0  0  0  0
  -29.3660  -21.6230   18.8210 H   0  0  0  0  0  0  0  0  0  0  0  0
  -31.5980  -14.7960   19.4600 C   0  0  0  0  0  0  0  0  0  0  0  0
  -31.1790  -12.5370   18.5310 C   0  0  0  0  0  2  0  0  0  0  0  0
  -30.1290  -12.6640   17.4060 C   0  0  0  0  0  2  0  0  0  0  0  0
  -28.6940  -12.6260   17.9680 C   0  0  0  0  0  2  0  0  0  0  0  0
  -28.5050  -13.5800   19.1780 C   0  0  0  0  0  3  0  0  0  0  0  0
  -29.6430  -13.3830   20.2070 C   0  0  0  0  0  2  0  0  0  0  0  0
  -30.9240  -13.6100   19.5080 N   0  0  0  0  0  0  0  0  0  0  0  0
  -32.6540  -14.9420   18.8350 O   0  0  0  0  0  0  0  0  0  0  0  0
  -30.9790  -15.8180   20.0880 N   0  0  0  0  0  0  0  0  0  0  0  0
  -30.2530  -15.5110   20.7190 H   0  0  0  0  0  0  0  0  0  0  0  0
  -26.2980  -14.3900   20.2260 C   0  0  0  0  0  0  0  0  0  0  0  0
  -25.1840  -13.7160   20.6500 C   0  0  0  0  0  0  0  0  0  0  0  0
  -25.4580  -12.3300   20.4350 C   0  0  0  0  0  0  0  0  0  0  0  0
  -27.1860  -13.4190   19.7890 N   0  0  0  0  0  0  0  0  0  0  0  0
  -26.6890  -12.1700   19.9680 N   0  0  0  0  0  0  0  0  0  0  0  0
  -24.5990  -11.1510   20.5920 C   0  0  0  0  0  0  0  0  0  0  0  0
  -25.0140  -10.0260   21.3390 C   0  0  0  0  0  3  0  0  0  0  0  0
  -24.1610   -8.9110   21.4900 C   0  0  0  0  0  3  0  0  0  0  0  0
  -22.8770   -8.9150   20.8950 C   0  0  0  0  0  0  0  0  0  0  0  0
  -22.4780  -10.0250   20.1300 C   0  0  0  0  0  3  0  0  0  0  0  0
  -23.3310  -11.1300   19.9760 C   0  0  0  0  0  3  0  0  0  0  0  0
  -21.9920   -7.8660   20.9680 O   0  0  0  0  0  0  0  0  0  0  0  0
  -22.0300   -6.9640   22.0000 C   0  0  0  0  0  0  0  0  0  0  0  0
  -21.9000   -7.3630   23.3480 C   0  0  0  0  0  3  0  0  0  0  0  0
  -21.8730   -6.3950   24.3720 C   0  0  0  0  0  3  0  0  0  0  0  0
  -21.9690   -5.0280   24.0510 C   0  0  0  0  0  0  0  0  0  0  0  0
  -22.0930   -4.6270   22.7090 C   0  0  0  0  0  3  0  0  0  0  0  0
  -22.1210   -5.5930   21.6870 C   0  0  0  0  0  0  0  0  0  0  0  0
  -22.2190   -5.1990   20.3940 F   0  0  0  0  0  0  0  0  0  0  0  0
  -21.9360   -4.0970   25.0330 F   0  0  0  0  0  0  0  0  0  0  0  0
  -23.8990  -14.3230   21.1370 C   0  0  0  0  0  0  0  0  0  0  0  0
  -23.1960  -13.6350   22.0300 N   0  0  0  0  0  0  0  0  0  0  0  0
  -23.5340  -15.4360   20.7600 O   0  0  0  0  0  0  0  0  0  0  0  0
  -23.5050  -12.7300   22.3540 H   0  0  0  0  0  0  0  0  0  0  0  0
  -22.3370  -14.0160   22.3960 H   0  0  0  0  0  0  0  0  0  0  0  0
  -26.6230  -15.7420   20.1590 N   0  0  0  0  0  0  0  0  0  0  0  0
  -25.9730  -16.4750   20.4220 H   0  0  0  0  0  0  0  0  0  0  0  0
  -27.4800  -16.0990   19.7550 H   0  0  0  0  0  0  0  0  0  0  0  0
  -28.7170  -20.1620   20.9760 C   0  0  1  0  0  0  0  0  0  0  0  0
  -27.7690  -19.4160   21.5410 F   0  0  0  0  0  0  0  0  0  0  0  0
  -29.3210  -20.8610   21.9380 F   0  0  0  0  0  0  0  0  0  0  0  0
  -28.1090  -21.0170   20.1500 F   0  0  0  0  0  0  0  0  0  0  0  0
  -30.4880  -23.7830   18.3410 C   0  0  0  0  0  0  0  0  0  0  0  0
  -30.2270  -23.9840   17.1500 O   0  0  0  0  0  0  0  0  0  0  0  0
  -29.3940  -25.9160   19.2700 C   0  0  0  0  0  3  0  0  0  0  0  0
  -30.1590  -24.7930   19.4130 C   0  0  0  0  0  0  0  0  0  0  0  0
  -30.6640  -24.5350   20.6320 O   0  0  0  0  0  0  0  0  0  0  0  0
  -30.3850  -25.2320   21.2120 H   0  0  0  0  0  0  0  0  0  0  0  0
  -28.7890  -26.4260   18.1360 O   0  0  0  0  0  0  0  0  0  0  0  0
  -24.7280  -30.6100   22.3280 C   0  0  0  0  0  0  0  0  0  0  0  0
  -27.6010  -27.1070   18.3430 C   0  0  0  0  0  0  0  0  0  0  0  0
  -23.5680  -29.4310   20.4890 C   0  0  0  0  0  3  0  0  0  0  0  0
  -25.0810  -28.3440   18.7430 C   0  0  0  0  0  0  0  0  0  0  0  0
  -26.0370  -30.0720   20.2730 C   0  0  0  0  0  2  0  0  0  0  0  0
  -26.2180  -28.8620   19.3750 C   0  0  0  0  0  0  0  0  0  0  0  0
  -27.4840  -28.2520   19.1750 C   0  0  0  0  0  3  0  0  0  0  0  0
  -26.4470  -26.6140   17.7060 C   0  0  0  0  0  3  0  0  0  0  0  0
  -25.1920  -27.2200   17.9040 C   0  0  0  0  0  3  0  0  0  0  0  0
  -23.7650  -29.0430   19.0000 C   0  0  0  0  0  2  0  0  0  0  0  0
  -24.7970  -30.0430   21.0890 N   0  0  0  0  0  0  0  0  0  0  0  0
  -23.6580  -30.6600   22.9530 O   0  0  0  0  0  0  0  0  0  0  0  0
  -23.0640  -28.1880   21.2610 C   0  0  0  0  0  0  0  0  0  0  0  0
  -21.7530  -27.9070   21.1640 N   0  0  0  0  0  0  0  0  0  0  0  0
  -23.8500  -27.4840   21.9000 O   0  0  0  0  0  0  0  0  0  0  0  0
  -21.1730  -28.5340   20.6230 H   0  0  0  0  0  0  0  0  0  0  0  0
  -18.5320  -26.3300   21.6150 C   0  0  0  0  0  0  0  0  0  0  0  0
  -21.0760  -26.7630   21.7740 C   0  0  0  0  0  3  0  0  0  0  0  0
  -21.2440  -25.4920   20.9110 C   0  0  0  0  0  2  0  0  0  0  0  0
  -20.0940  -25.2790   19.9200 C   0  0  0  0  0  2  0  0  0  0  0  0
  -18.7590  -25.1660   20.6630 C   0  0  0  0  0  2  0  0  0  0  0  0
  -19.6200  -27.0890   22.1240 C   0  0  0  0  0  0  0  0  0  0  0  0
  -19.3540  -28.1800   22.9780 C   0  0  0  0  0  3  0  0  0  0  0  0
  -18.0320  -28.5190   23.3230 C   0  0  0  0  0  3  0  0  0  0  0  0
  -16.9590  -27.7550   22.8300 C   0  0  0  0  0  3  0  0  0  0  0  0
  -17.2120  -26.6620   21.9820 C   0  0  0  0  0  3  0  0  0  0  0  0
  -25.9810  -31.2440   23.0090 C   0  0  0  0  0  3  0  0  0  0  0  0
  -26.7160  -30.2590   23.9980 C   0  0  1  0  0  0  0  0  0  0  0  0
  -25.7760  -29.6090   25.0390 C   0  0  0  0  0  1  0  0  0  0  0  0
  -27.4190  -29.1180   23.2250 C   0  0  0  0  0  1  0  0  0  0  0  0
  -27.8250  -31.0170   24.7660 C   0  0  0  0  0  1  0  0  0  0  0  0
  -25.5350  -32.4520   23.7150 N   0  0  0  0  0  0  0  0  0  0  0  0
  -25.7690  -33.7070   23.3030 C   0  0  0  0  0  0  0  0  0  0  0  0
  -26.4590  -33.9680   22.3130 O   0  0  0  0  0  0  0  0  0  0  0  0
  -24.9250  -32.3140   24.5070 H   0  0  0  0  0  0  0  0  0  0  0  0
  -23.9020  -35.3890   23.3970 C   0  0  0  0  0  1  0  0  0  0  0  0
  -25.1460  -34.8530   24.1220 C   0  0  0  0  0  3  0  0  0  0  0  0
  -27.1700  -35.6050   25.2900 C   0  0  0  0  0  1  0  0  0  0  0  0
  -26.0820  -35.9670   24.3860 N   0  0  0  0  0  0  0  0  0  0  0  0
  -25.5910  -36.7620   24.7830 H   0  0  0  0  0  0  0  0  0  0  0  0
  1  3  1  0
  2  4  1  0
  2 50  1  0
  3 20  1  0
  3  4  2  0
  4 10  1  0
  5  2  2  0
  6  9  2  0
  6  8  1  0
  7  1  2  0
  7  5  1  0
  8  5  1  0
 11  8  1  0
 12 18  1  0
 12 20  1  0
 13 18  1  0
 14 15  1  0
 14 13  1  0
 16 15  1  0
 16 25  1  0
 16 17  1  0
 18 17  1  0
 19 12  2  0
 20 21  1  0
 22 23  2  0
 23 42  1  0
 24 27  1  0
 24 23  1  0
 25 26  1  0
 25 22  1  0
 26 24  2  0
 27 28  1  0
 28 29  2  0
 30 33  1  0
 30 29  1  0
 31 30  2  0
 32 31  1  0
 32 27  2  0
 33 34  1  0
 34 35  1  0
 35 36  2  0
 37 36  1  0
 37 41  1  0
 38 37  2  0
 39 34  2  0
 39 38  1  0
 40 39  1  0
 42 43  1  0
 43 45  1  0
 43 46  1  0
 44 42  2  0
 47 22  1  0
 47 48  1  0
 49 47  1  0
 50 51  1  1
 50 52  1  0
 53 50  1  0
 54  6  1  0
 54 57  1  0
 55 54  2  0
 56 57  2  0
 57 58  1  0
 58 59  1  0
 60 62  1  0
 60 56  1  0
 61 72  2  0
 62 67  1  0
 63 71  1  0
 63 73  1  0
 64 70  1  0
 64 66  1  0
 65 71  1  0
 66 65  1  0
 67 66  2  0
 68 69  1  0
 68 62  2  0
 69 64  2  0
 70 63  1  0
 71 61  1  0
 73 75  2  0
 74 73  1  0
 76 74  1  0
 77 86  2  0
 77 82  1  0
 78 74  1  0
 78 82  1  0
 79 78  1  0
 80 81  1  0
 80 79  1  0
 81 77  1  0
 82 83  2  0
 83 84  1  0
 85 84  2  0
 86 85  1  0
 87 61  1  0
 87 92  1  0
 87 88  1  0
 88 91  1  1
 88 89  1  0
 90 88  1  0
 92 95  1  0
 93 92  1  0
 93 97  1  0
 94 93  2  0
 97 96  1  0
 97 99  1  0
 99100  1  0
 99 98  1  0
M  ISO  4  12 100  20 100  56 101  60 101
M  END
>  <TORSDO>  (16) 
F 20

>  <SCORE>  (16) 
-8.197

>  <name>  (16) 
15

>  <ligand_id>  (16) 
15

>  <original_smiles>  (16) 
[H]OC(C(=O)C(=O)N([H])c1nc([H])c(N([H])C(=O)N2C([H])([H])C([H])([H])C([H])([H])C([H])(n3nc(-c4c([H])c([H])c(Oc5c([H])c([H])c(F)c([H])c5F)c([H])c4[H])c(C(=O)N([H])[H])c3N([H])[H])C2([H])[H])c(F)c1C(F)(F)F)=C([H])Oc1c([H])c([H])c2c(c1[H])C([H])([H])N(C(=O)C([H])(N([H])C(=O)C([H])(N([H])C([H])([H])[H])C([H])([H])[H])C(C([H])([H])[H])(C([H])([H])[H])C([H])([H])[H])C([H])(C(=O)N([H])C1([H])c3c([H])c([H])c([H])c([H])c3C([H])([H])C([H])([H])C1([H])[H])C2([H])[H]

>  <smiles>  (16) 
[H]OC(C(=O)C(=O)N([H])c1nc([H])c(N([H])C(=O)N2C([H])([H])C([H])([H])C([H])([H])C([H])(n3nc(-c4c([H])c([H])c(Oc5c([H])c([H])c(F)c([H])c5F)c([H])c4[H])c(C(=O)N([H])[H])c3N([H])[H])C2([H])[H])c(F)c1C(F)(F)F)=C([H])Oc1c([H])c([H])c2c(c1[H])C([H])([H])N(C(=O)C([H])(N([H])C(=O)C([H])(N([H])C([H])([H])[H])C([H])([H])[H])C(C([H])([H])[H])(C([H])([H])[H])C([H])([H])[H])C([H])(C(=O)N([H])C1([H])c3c([H])c([H])c([H])c([H])c3C([H])([H])C([H])([H])C1([H])[H])C2([H])[H]

$$$$
16:0:0
     RDKit          3D

 96104  0  0  1  0  0  0  0  0999 V2000
  -28.7760  -22.9380   20.5900 C   0  0  0  0  0  0  0  0  0  0  0  0
  -29.6090  -22.0240   20.0410 N   0  0  0  0  0  0  0  0  0  0  0  0
  -27.8270  -22.6190   21.3110 O   0  0  0  0  0  0  0  0  0  0  0  0
  -30.3700  -22.4410   19.5190 H   0  0  0  0  0  0  0  0  0  0  0  0
  -28.5620  -19.7770   20.3920 C   0  0  0  0  0  3  0  0  0  0  0  0
  -28.9550  -18.3980   20.4830 C   0  0  0  0  0  0  0  0  0  0  0  0
  -30.2970  -18.1870   20.2820 C   0  0  0  0  0  0  0  0  0  0  0  0
  -29.5990  -20.6540   20.1450 C   0  0  0  0  0  0  0  0  0  0  0  0
  -31.0770  -19.7270   19.9440 S   0  0  0  0  0  0  0  0  0  0  0  0
  -28.0150  -17.4060   20.7960 N   0  0  0  0  0  0  0  0  0  0  0  0
  -27.1140  -17.7130   21.1480 H   0  0  0  0  0  0  0  0  0  0  0  0
  -28.3460  -16.5800   21.2810 H   0  0  0  0  0  0  0  0  0  0  0  0
  -31.1410  -16.9280   20.4290 C   0  0  0  0  0  2  0  0  0  0  0  0
  -31.0950  -14.4900   19.8650 C   0  0  0  0  0  0  0  0  0  0  0  0
  -30.7450  -12.1990   19.0070 C   0  0  0  0  0  2  0  0  0  0  0  0
  -29.7870  -12.2350   17.8000 C   0  0  0  0  0  2  0  0  0  0  0  0
  -28.3220  -12.1550   18.2710 C   0  0  0  0  0  2  0  0  0  0  0  0
  -28.0040  -13.1550   19.4160 C   0  0  0  0  0  3  0  0  0  0  0  0
  -29.0800  -13.1070   20.5230 C   0  0  0  0  0  2  0  0  0  0  0  0
  -30.3880  -13.3250   19.8900 N   0  0  0  0  0  0  0  0  0  0  0  0
  -32.2190  -14.5580   19.3630 O   0  0  0  0  0  0  0  0  0  0  0  0
  -30.4770  -15.6080   20.3100 N   0  0  0  0  0  0  0  0  0  0  0  0
  -29.5310  -15.5260   20.6480 H   0  0  0  0  0  0  0  0  0  0  0  0
  -25.6660  -13.8700   20.2090 C   0  0  0  0  0  0  0  0  0  0  0  0
  -24.5800  -13.1500   20.6260 C   0  0  0  0  0  0  0  0  0  0  0  0
  -24.9810  -11.7780   20.5990 C   0  0  0  0  0  0  0  0  0  0  0  0
  -26.6620  -12.9420   19.9530 N   0  0  0  0  0  0  0  0  0  0  0  0
  -26.2560  -11.6790   20.2460 N   0  0  0  0  0  0  0  0  0  0  0  0
  -24.2070  -10.5510   20.8340 C   0  0  0  0  0  0  0  0  0  0  0  0
  -24.5790   -9.6220   21.8300 C   0  0  0  0  0  3  0  0  0  0  0  0
  -23.8070   -8.4600   22.0490 C   0  0  0  0  0  3  0  0  0  0  0  0
  -22.6490   -8.2210   21.2720 C   0  0  0  0  0  0  0  0  0  0  0  0
  -22.2960   -9.1380   20.2680 C   0  0  0  0  0  3  0  0  0  0  0  0
  -23.0670  -10.2910   20.0460 C   0  0  0  0  0  3  0  0  0  0  0  0
  -21.8540   -7.1070   21.3970 O   0  0  0  0  0  0  0  0  0  0  0  0
  -21.6800   -6.4780   22.6040 C   0  0  0  0  0  0  0  0  0  0  0  0
  -21.1660   -7.1560   23.7300 C   0  0  0  0  0  3  0  0  0  0  0  0
  -20.9390   -6.4540   24.9310 C   0  0  0  0  0  3  0  0  0  0  0  0
  -21.2150   -5.0760   25.0040 C   0  0  0  0  0  0  0  0  0  0  0  0
  -21.7230   -4.3980   23.8830 C   0  0  0  0  0  3  0  0  0  0  0  0
  -21.9520   -5.0970   22.6840 C   0  0  0  0  0  0  0  0  0  0  0  0
  -22.4210   -4.4350   21.5990 F   0  0  0  0  0  0  0  0  0  0  0  0
  -20.9890   -4.4000   26.1550 F   0  0  0  0  0  0  0  0  0  0  0  0
  -23.2170  -13.6930   20.9440 C   0  0  0  0  0  0  0  0  0  0  0  0
  -22.4990  -13.0500   21.8600 N   0  0  0  0  0  0  0  0  0  0  0  0
  -22.7980  -14.7220   20.4150 O   0  0  0  0  0  0  0  0  0  0  0  0
  -22.8490  -12.2150   22.3080 H   0  0  0  0  0  0  0  0  0  0  0  0
  -21.5870  -13.3960   22.1170 H   0  0  0  0  0  0  0  0  0  0  0  0
  -25.8850  -15.2290   20.0070 N   0  0  0  0  0  0  0  0  0  0  0  0
  -25.1650  -15.9250   20.1680 H   0  0  0  0  0  0  0  0  0  0  0  0
  -26.7680  -15.6360   19.7270 H   0  0  0  0  0  0  0  0  0  0  0  0
  -28.3440  -25.3530   20.6920 C   0  0  0  0  0  3  0  0  0  0  0  0
  -29.1190  -24.3330   20.2450 C   0  0  0  0  0  0  0  0  0  0  0  0
  -30.1910  -24.5940   19.4810 O   0  0  0  0  0  0  0  0  0  0  0  0
  -30.2280  -25.5370   19.3750 H   0  0  0  0  0  0  0  0  0  0  0  0
  -28.5530  -26.6960   20.4180 O   0  0  0  0  0  0  0  0  0  0  0  0
  -24.5970  -31.8880   23.3350 C   0  0  0  0  0  0  0  0  0  0  0  0
  -27.4120  -27.4730   20.3550 C   0  0  0  0  0  0  0  0  0  0  0  0
  -23.4690  -30.4590   21.6620 C   0  0  0  0  0  3  0  0  0  0  0  0
  -24.9960  -28.9500   20.2810 C   0  0  0  0  0  0  0  0  0  0  0  0
  -25.9950  -30.8640   21.5400 C   0  0  0  0  0  2  0  0  0  0  0  0
  -26.1280  -29.4930   20.9040 C   0  0  0  0  0  0  0  0  0  0  0  0
  -27.3430  -28.7630   20.9360 C   0  0  0  0  0  3  0  0  0  0  0  0
  -26.2650  -26.9560   19.7140 C   0  0  0  0  0  3  0  0  0  0  0  0
  -25.0610  -27.6820   19.6800 C   0  0  0  0  0  3  0  0  0  0  0  0
  -23.7340  -29.7830   20.2900 C   0  0  0  0  0  2  0  0  0  0  0  0
  -24.7030  -31.0850   22.2370 N   0  0  0  0  0  0  0  0  0  0  0  0
  -23.4950  -32.1380   23.8420 O   0  0  0  0  0  0  0  0  0  0  0  0
  -22.8090  -29.4260   22.6050 C   0  0  0  0  0  0  0  0  0  0  0  0
  -21.4910  -29.2240   22.4450 N   0  0  0  0  0  0  0  0  0  0  0  0
  -23.4830  -28.8100   23.4350 O   0  0  0  0  0  0  0  0  0  0  0  0
  -21.0090  -29.7740   21.7470 H   0  0  0  0  0  0  0  0  0  0  0  0
  -18.1250  -27.9700   22.8510 C   0  0  0  0  0  0  0  0  0  0  0  0
  -20.6700  -28.2720   23.1940 C   0  0  0  0  0  3  0  0  0  0  0  0
  -20.8130  -26.8420   22.6230 C   0  0  0  0  0  2  0  0  0  0  0  0
  -19.7470  -26.5000   21.5780 C   0  0  0  0  0  2  0  0  0  0  0  0
  -18.3440  -26.6230   22.1820 C   0  0  0  0  0  2  0  0  0  0  0  0
  -19.2190  -28.7510   23.3120 C   0  0  0  0  0  0  0  0  0  0  0  0
  -18.9620  -30.0110   23.8940 C   0  0  0  0  0  3  0  0  0  0  0  0
  -17.6460  -30.4920   24.0220 C   0  0  0  0  0  3  0  0  0  0  0  0
  -16.5660  -29.7070   23.5790 C   0  0  0  0  0  3  0  0  0  0  0  0
  -16.8060  -28.4490   22.9990 C   0  0  0  0  0  3  0  0  0  0  0  0
  -25.8500  -32.5460   23.9900 C   0  0  0  0  0  3  0  0  0  0  0  0
  -25.5180  -33.9500   24.2660 N   0  0  0  0  0  0  0  0  0  0  0  0
  -25.8730  -34.9830   23.4890 C   0  0  0  0  0  0  0  0  0  0  0  0
  -26.5850  -34.8550   22.4890 O   0  0  0  0  0  0  0  0  0  0  0  0
  -24.8920  -34.1240   25.0390 H   0  0  0  0  0  0  0  0  0  0  0  0
  -24.1420  -36.7440   23.0170 C   0  0  0  0  0  1  0  0  0  0  0  0
  -25.3570  -36.3790   23.8850 C   0  0  0  0  0  3  0  0  0  0  0  0
  -27.4550  -37.3060   24.7600 C   0  0  0  0  0  1  0  0  0  0  0  0
  -26.3830  -37.4390   23.7780 N   0  0  0  0  0  0  0  0  0  0  0  0
  -25.9630  -38.3580   23.8900 H   0  0  0  0  0  0  0  0  0  0  0  0
  -26.3200  -31.8140   25.3070 C   0  0  1  0  0  0  0  0  0  0  0  0
  -25.1820  -31.5780   26.3260 C   0  0  0  0  0  1  0  0  0  0  0  0
  -26.9480  -30.4400   24.9730 C   0  0  0  0  0  1  0  0  0  0  0  0
  -27.4210  -32.6470   26.0050 C   0  0  0  0  0  1  0  0  0  0  0  0
  1  3  2  0
  2  8  1  0
  2  1  1  0
  4  2  1  0
  5  6  1  0
  6 10  1  0
  7 13  1  0
  7  6  2  0
  8  5  2  0
  9  8  1  0
  9  7  1  0
 10 11  1  0
 10 12  1  0
 14 20  1  0
 14 22  1  0
 15 20  1  0
 16 17  1  0
 16 15  1  0
 18 17  1  0
 18 27  1  0
 18 19  1  0
 20 19  1  0
 21 14  2  0
 22 13  1  0
 22 23  1  0
 24 25  2  0
 25 44  1  0
 26 25  1  0
 26 29  1  0
 27 24  1  0
 27 28  1  0
 28 26  2  0
 29 30  1  0
 30 31  2  0
 32 35  1  0
 32 31  1  0
 33 32  2  0
 34 33  1  0
 34 29  2  0
 35 36  1  0
 36 41  2  0
 36 37  1  0
 37 38  2  0
 38 39  1  0
 39 43  1  0
 40 39  2  0
 41 40  1  0
 42 41  1  0
 44 45  1  0
 45 48  1  0
 45 47  1  0
 46 44  2  0
 49 50  1  0
 49 24  1  0
 51 49  1  0
 53  1  1  0
 53 52  2  0
 54 53  1  0
 55 54  1  0
 56 52  1  0
 57 68  2  0
 58 56  1  0
 58 63  1  0
 59 67  1  0
 59 69  1  0
 60 66  1  0
 60 62  1  0
 61 67  1  0
 62 63  2  0
 62 61  1  0
 64 58  2  0
 65 64  1  0
 65 60  2  0
 66 59  1  0
 67 57  1  0
 69 71  2  0
 70 69  1  0
 72 70  1  0
 73 82  2  0
 73 78  1  0
 74 70  1  0
 74 78  1  0
 75 74  1  0
 76 77  1  0
 76 75  1  0
 77 73  1  0
 78 79  2  0
 79 80  1  0
 81 80  2  0
 82 81  1  0
 83 57  1  0
 83 84  1  0
 83 93  1  0
 84 87  1  0
 85 89  1  0
 85 84  1  0
 86 85  2  0
 89 88  1  0
 91 89  1  0
 91 92  1  0
 91 90  1  0
 93 96  1  1
 93 94  1  0
 95 93  1  0
M  ISO  4  14 100  22 100  52 101  56 101
M  END
>  <TORSDO>  (17) 
F 21

>  <SCORE>  (17) 
-13.528

>  <name>  (17) 
16

>  <ligand_id>  (17) 
16

>  <original_smiles>  (17) 
[H]OC(C(=O)N([H])c1sc(C([H])([H])N([H])C(=O)N2C([H])([H])C([H])([H])C([H])([H])C([H])(n3nc(-c4c([H])c([H])c(Oc5c([H])c([H])c(F)c([H])c5F)c([H])c4[H])c(C(=O)N([H])[H])c3N([H])[H])C2([H])[H])c(N([H])[H])c1[H])=C([H])Oc1c([H])c([H])c2c(c1[H])C([H])([H])N(C(=O)C([H])(N([H])C(=O)C([H])(N([H])C([H])([H])[H])C([H])([H])[H])C(C([H])([H])[H])(C([H])([H])[H])C([H])([H])[H])C([H])(C(=O)N([H])C1([H])c3c([H])c([H])c([H])c([H])c3C([H])([H])C([H])([H])C1([H])[H])C2([H])[H]

>  <smiles>  (17) 
[H]OC(C(=O)N([H])c1sc(C([H])([H])N([H])C(=O)N2C([H])([H])C([H])([H])C([H])([H])C([H])(n3nc(-c4c([H])c([H])c(Oc5c([H])c([H])c(F)c([H])c5F)c([H])c4[H])c(C(=O)N([H])[H])c3N([H])[H])C2([H])[H])c(N([H])[H])c1[H])=C([H])Oc1c([H])c([H])c2c(c1[H])C([H])([H])N(C(=O)C([H])(N([H])C(=O)C([H])(N([H])C([H])([H])[H])C([H])([H])[H])C(C([H])([H])[H])(C([H])([H])[H])C([H])([H])[H])C([H])(C(=O)N([H])C1([H])c3c([H])c([H])c([H])c([H])c3C([H])([H])C([H])([H])C1([H])[H])C2([H])[H]

$$$$
17:0:0
     RDKit          3D

 93101  0  0  1  0  0  0  0  0999 V2000
  -31.1940  -17.7160   19.4630 C   0  0  0  0  0  3  0  0  0  0  0  0
  -30.1060  -17.4080   20.2990 C   0  0  0  0  0  0  0  0  0  0  0  0
  -31.4360  -19.0380   19.0810 C   0  0  0  0  0  0  0  0  0  0  0  0
  -29.6440  -19.7950   20.2660 C   0  0  0  0  0  0  0  0  0  0  0  0
  -29.3380  -18.5190   20.6890 N   0  0  0  0  0  0  0  0  0  0  0  0
  -30.6650  -20.0610   19.4770 N   0  0  0  0  0  0  0  0  0  0  0  0
  -28.9000  -20.9690   20.6410 N   0  0  0  0  0  0  0  0  0  0  0  0
  -32.4880  -19.3080   18.2710 F   0  0  0  0  0  0  0  0  0  0  0  0
  -28.1410  -20.8060   21.2950 H   0  0  0  0  0  0  0  0  0  0  0  0
  -30.5920  -14.7940   20.4150 C   0  0  0  0  0  0  0  0  0  0  0  0
  -30.3860  -12.5060   19.4250 C   0  0  0  0  0  2  0  0  0  0  0  0
  -29.4700  -12.5610   18.1830 C   0  0  0  0  0  2  0  0  0  0  0  0
  -27.9960  -12.3930   18.5920 C   0  0  0  0  0  2  0  0  0  0  0  0
  -27.6050  -13.2890   19.7980 C   0  0  0  0  0  3  0  0  0  0  0  0
  -28.6460  -13.2280   20.9370 C   0  0  0  0  0  2  0  0  0  0  0  0
  -29.9470  -13.5760   20.3550 N   0  0  0  0  0  0  0  0  0  0  0  0
  -31.7910  -14.8240   20.1200 O   0  0  0  0  0  0  0  0  0  0  0  0
  -29.8480  -15.9640   20.6340 N   0  0  0  0  0  0  0  0  0  0  0  0
  -28.9250  -15.7850   20.9920 H   0  0  0  0  0  0  0  0  0  0  0  0
  -25.2110  -13.8790   20.4940 C   0  0  0  0  0  0  0  0  0  0  0  0
  -24.1430  -13.1070   20.8590 C   0  0  0  0  0  0  0  0  0  0  0  0
  -24.6090  -11.7550   20.8460 C   0  0  0  0  0  0  0  0  0  0  0  0
  -26.2580  -12.9990   20.2760 N   0  0  0  0  0  0  0  0  0  0  0  0
  -25.9040  -11.7170   20.5530 N   0  0  0  0  0  0  0  0  0  0  0  0
  -23.8800  -10.4940   21.0360 C   0  0  0  0  0  0  0  0  0  0  0  0
  -24.3040   -9.5300   21.9770 C   0  0  0  0  0  3  0  0  0  0  0  0
  -23.5740   -8.3350   22.1540 C   0  0  0  0  0  3  0  0  0  0  0  0
  -22.4080   -8.0950   21.3880 C   0  0  0  0  0  0  0  0  0  0  0  0
  -22.0040   -9.0470   20.4360 C   0  0  0  0  0  3  0  0  0  0  0  0
  -22.7340  -10.2340   20.2570 C   0  0  0  0  0  3  0  0  0  0  0  0
  -21.6510   -6.9500   21.4740 O   0  0  0  0  0  0  0  0  0  0  0  0
  -21.5910   -6.2110   22.6290 C   0  0  0  0  0  0  0  0  0  0  0  0
  -21.1600   -6.7720   23.8510 C   0  0  0  0  0  3  0  0  0  0  0  0
  -21.0480   -5.9610   24.9970 C   0  0  0  0  0  3  0  0  0  0  0  0
  -21.3550   -4.5890   24.9210 C   0  0  0  0  0  0  0  0  0  0  0  0
  -21.7810   -4.0270   23.7040 C   0  0  0  0  0  3  0  0  0  0  0  0
  -21.8950   -4.8370   22.5600 C   0  0  0  0  0  0  0  0  0  0  0  0
  -22.2830   -4.2870   21.3840 F   0  0  0  0  0  0  0  0  0  0  0  0
  -21.2400   -3.8070   26.0200 F   0  0  0  0  0  0  0  0  0  0  0  0
  -22.7430  -13.5840   21.1090 C   0  0  0  0  0  0  0  0  0  0  0  0
  -22.0010  -12.8930   21.9670 N   0  0  0  0  0  0  0  0  0  0  0  0
  -22.3140  -14.6080   20.5780 O   0  0  0  0  0  0  0  0  0  0  0  0
  -22.3610  -12.0670   22.4190 H   0  0  0  0  0  0  0  0  0  0  0  0
  -21.0610  -13.1970   22.1770 H   0  0  0  0  0  0  0  0  0  0  0  0
  -25.3760  -15.2480   20.3060 N   0  0  0  0  0  0  0  0  0  0  0  0
  -24.5990  -15.8950   20.3890 H   0  0  0  0  0  0  0  0  0  0  0  0
  -26.2160  -15.6820   19.9460 H   0  0  0  0  0  0  0  0  0  0  0  0
  -27.7690  -22.1340   18.7430 C   0  0  0  0  0  1  0  0  0  0  0  0
  -28.8260  -22.2810   19.8560 C   0  0  0  0  0  3  0  0  0  0  0  0
  -28.5710  -23.7220   20.5850 C   0  0  0  0  0  0  0  0  0  0  0  0
  -28.4520  -23.7970   21.8110 O   0  0  0  0  0  0  0  0  0  0  0  0
  -28.4630  -25.0660   19.6970 C   0  0  0  0  0  2  0  0  0  0  0  0
  -28.3560  -26.4210   20.3490 O   0  0  0  0  0  0  0  0  0  0  0  0
  -24.6010  -31.8920   23.2310 C   0  0  0  0  0  0  0  0  0  0  0  0
  -27.2350  -27.2800   20.2270 C   0  0  0  0  0  0  0  0  0  0  0  0
  -23.4080  -30.4800   21.5930 C   0  0  0  0  0  3  0  0  0  0  0  0
  -24.8710  -28.9200   20.1810 C   0  0  0  0  0  0  0  0  0  0  0  0
  -25.9510  -30.7960   21.4200 C   0  0  0  0  0  2  0  0  0  0  0  0
  -26.0370  -29.4090   20.7820 C   0  0  0  0  0  0  0  0  0  0  0  0
  -27.2180  -28.6010   20.7920 C   0  0  0  0  0  3  0  0  0  0  0  0
  -26.0420  -26.8550   19.5970 C   0  0  0  0  0  3  0  0  0  0  0  0
  -24.8810  -27.6540   19.5740 C   0  0  0  0  0  3  0  0  0  0  0  0
  -23.6320  -29.7960   20.2190 C   0  0  0  0  0  2  0  0  0  0  0  0
  -24.6730  -31.0750   22.1380 N   0  0  0  0  0  0  0  0  0  0  0  0
  -23.5140  -32.1710   23.7580 O   0  0  0  0  0  0  0  0  0  0  0  0
  -22.7420  -29.4720   22.5590 C   0  0  0  0  0  0  0  0  0  0  0  0
  -21.4160  -29.2910   22.4270 N   0  0  0  0  0  0  0  0  0  0  0  0
  -23.4160  -28.8550   23.3860 O   0  0  0  0  0  0  0  0  0  0  0  0
  -20.9300  -29.8390   21.7310 H   0  0  0  0  0  0  0  0  0  0  0  0
  -18.0400  -28.0860   22.9210 C   0  0  0  0  0  0  0  0  0  0  0  0
  -20.5960  -28.3570   23.2010 C   0  0  0  0  0  3  0  0  0  0  0  0
  -20.7060  -26.9220   22.6360 C   0  0  0  0  0  2  0  0  0  0  0  0
  -19.6100  -26.5880   21.6210 C   0  0  0  0  0  2  0  0  0  0  0  0
  -18.2250  -26.7320   22.2560 C   0  0  0  0  0  2  0  0  0  0  0  0
  -19.1540  -28.8560   23.3510 C   0  0  0  0  0  0  0  0  0  0  0  0
  -18.9270  -30.1220   23.9340 C   0  0  0  0  0  3  0  0  0  0  0  0
  -17.6190  -30.6180   24.0910 C   0  0  0  0  0  3  0  0  0  0  0  0
  -16.5190  -29.8460   23.6760 C   0  0  0  0  0  3  0  0  0  0  0  0
  -16.7320  -28.5820   23.0980 C   0  0  0  0  0  3  0  0  0  0  0  0
  -25.8790  -32.5330   23.8560 C   0  0  0  0  0  3  0  0  0  0  0  0
  -26.3890  -31.7740   25.1410 C   0  0  1  0  0  0  0  0  0  0  0  0
  -25.2900  -31.5470   26.2050 C   0  0  0  0  0  1  0  0  0  0  0  0
  -26.9760  -30.3930   24.7670 C   0  0  0  0  0  1  0  0  0  0  0  0
  -27.5360  -32.5750   25.8030 C   0  0  0  0  0  1  0  0  0  0  0  0
  -25.5660  -33.9350   24.1750 N   0  0  0  0  0  0  0  0  0  0  0  0
  -25.9010  -34.9840   23.4120 C   0  0  0  0  0  0  0  0  0  0  0  0
  -26.5770  -34.8750   22.3850 O   0  0  0  0  0  0  0  0  0  0  0  0
  -24.9690  -34.0940   24.9730 H   0  0  0  0  0  0  0  0  0  0  0  0
  -24.1780  -36.7780   23.0350 C   0  0  0  0  0  1  0  0  0  0  0  0
  -25.4100  -36.3750   23.8600 C   0  0  0  0  0  3  0  0  0  0  0  0
  -27.5380  -37.2620   24.7080 C   0  0  0  0  0  1  0  0  0  0  0  0
  -26.4440  -37.4280   23.7540 N   0  0  0  0  0  0  0  0  0  0  0  0
  -26.0360  -38.3470   23.8990 H   0  0  0  0  0  0  0  0  0  0  0  0
  1  2  2  0
  2 18  1  0
  2  5  1  0
  3  1  1  0
  3  6  2  0
  4  7  1  0
  4  5  2  0
  6  4  1  0
  7  9  1  0
  8  3  1  0
 10 18  1  0
 11 16  1  0
 12 13  1  0
 12 11  1  0
 14 13  1  0
 14 23  1  0
 14 15  1  0
 16 10  1  0
 16 15  1  0
 17 10  2  0
 18 19  1  0
 20 21  2  0
 21 40  1  0
 22 21  1  0
 22 25  1  0
 23 20  1  0
 23 24  1  0
 24 22  2  0
 25 26  1  0
 26 27  2  0
 28 31  1  0
 28 27  1  0
 29 28  2  0
 30 29  1  0
 30 25  2  0
 31 32  1  0
 32 33  1  0
 33 34  2  0
 35 34  1  0
 35 39  1  0
 36 35  2  0
 37 32  2  0
 37 36  1  0
 38 37  1  0
 40 41  1  0
 41 44  1  0
 41 43  1  0
 42 40  2  0
 45 46  1  0
 45 20  1  0
 47 45  1  0
 49 48  1  0
 49 50  1  0
 49  7  1  0
 50 51  2  0
 52 53  1  0
 52 50  1  0
 54 65  2  0
 55 53  1  0
 55 60  1  0
 56 64  1  0
 56 66  1  0
 57 63  1  0
 57 59  1  0
 58 64  1  0
 59 60  2  0
 59 58  1  0
 61 55  2  0
 62 61  1  0
 62 57  2  0
 63 56  1  0
 64 54  1  0
 66 68  2  0
 67 66  1  0
 69 67  1  0
 70 79  2  0
 70 75  1  0
 71 67  1  0
 71 75  1  0
 72 71  1  0
 73 74  1  0
 73 72  1  0
 74 70  1  0
 75 76  2  0
 76 77  1  0
 78 77  2  0
 79 78  1  0
 80 54  1  0
 80 85  1  0
 80 81  1  0
 81 84  1  1
 81 82  1  0
 83 81  1  0
 85 88  1  0
 86 90  1  0
 86 85  1  0
 87 86  2  0
 90 89  1  0
 92 90  1  0
 92 93  1  0
 92 91  1  0
M  ISO  4  10 100  18 100  52 101  53 101
M  END
>  <TORSDO>  (18) 
F 19

>  <SCORE>  (18) 
-14.384

>  <name>  (18) 
17

>  <ligand_id>  (18) 
17

>  <original_smiles>  (18) 
[H]c1c(F)nc(N([H])C([H])(C(=O)C([H])([H])Oc2c([H])c([H])c3c(c2[H])C([H])([H])N(C(=O)C([H])(N([H])C(=O)C([H])(N([H])C([H])([H])[H])C([H])([H])[H])C(C([H])([H])[H])(C([H])([H])[H])C([H])([H])[H])C([H])(C(=O)N([H])C2([H])c4c([H])c([H])c([H])c([H])c4C([H])([H])C([H])([H])C2([H])[H])C3([H])[H])C([H])([H])[H])nc1N([H])C(=O)N1C([H])([H])C([H])([H])C([H])([H])C([H])(n2nc(-c3c([H])c([H])c(Oc4c([H])c([H])c(F)c([H])c4F)c([H])c3[H])c(C(=O)N([H])[H])c2N([H])[H])C1([H])[H]

>  <smiles>  (18) 
[H]c1c(F)nc(N([H])C([H])(C(=O)C([H])([H])Oc2c([H])c([H])c3c(c2[H])C([H])([H])N(C(=O)C([H])(N([H])C(=O)C([H])(N([H])C([H])([H])[H])C([H])([H])[H])C(C([H])([H])[H])(C([H])([H])[H])C([H])([H])[H])C([H])(C(=O)N([H])C2([H])c4c([H])c([H])c([H])c([H])c4C([H])([H])C([H])([H])C2([H])[H])C3([H])[H])C([H])([H])[H])nc1N([H])C(=O)N1C([H])([H])C([H])([H])C([H])([H])C([H])(n2nc(-c3c([H])c([H])c(Oc4c([H])c([H])c(F)c([H])c4F)c([H])c3[H])c(C(=O)N([H])[H])c2N([H])[H])C1([H])[H]

$$$$
18:0:0
     RDKit          3D

 98106  0  0  1  0  0  0  0  0999 V2000
  -30.2910  -21.0870   21.5900 C   0  0  0  0  0  0  0  0  0  0  0  0
  -30.2920  -20.5760   20.3510 N   0  0  0  0  0  0  0  0  0  0  0  0
  -30.0080  -20.4890   22.6360 O   0  0  0  0  0  0  0  0  0  0  0  0
  -30.4490  -21.2530   19.6160 H   0  0  0  0  0  0  0  0  0  0  0  0
  -30.6650  -14.6780   20.1720 C   0  0  0  0  0  0  0  0  0  0  0  0
  -30.3200  -12.5880   18.9270 C   0  0  0  0  0  2  0  0  0  0  0  0
  -29.3120  -12.8810   17.7960 C   0  0  0  0  0  2  0  0  0  0  0  0
  -27.8620  -12.7180   18.2960 C   0  0  0  0  0  2  0  0  0  0  0  0
  -27.5960  -13.4620   19.6320 C   0  0  0  0  0  3  0  0  0  0  0  0
  -28.7100  -13.1630   20.6620 C   0  0  0  0  0  2  0  0  0  0  0  0
  -30.0050  -13.4940   20.0440 N   0  0  0  0  0  0  0  0  0  0  0  0
  -31.7900  -14.8720   19.7000 O   0  0  0  0  0  0  0  0  0  0  0  0
  -29.1940  -16.8940   18.7270 C   0  0  0  0  0  3  0  0  0  0  0  0
  -29.0290  -18.0750   17.9900 C   0  0  0  0  0  0  0  0  0  0  0  0
  -29.4240  -19.2880   18.5770 C   0  0  0  0  0  0  0  0  0  0  0  0
  -29.7730  -16.9330   20.0130 C   0  0  0  0  0  0  0  0  0  0  0  0
  -29.9400  -19.2840   19.8900 C   0  0  0  0  0  0  0  0  0  0  0  0
  -28.4450  -18.0340   16.5920 C   0  0  0  0  0  1  0  0  0  0  0  0
  -30.1050  -18.1220   20.5900 N   0  0  0  0  0  0  0  0  0  0  0  0
  -29.9290  -15.6870   20.6790 N   0  0  0  0  0  0  0  0  0  0  0  0
  -29.2980  -20.4520   17.8910 F   0  0  0  0  0  0  0  0  0  0  0  0
  -29.0990  -15.3700   21.1530 H   0  0  0  0  0  0  0  0  0  0  0  0
  -25.2260  -14.0330   20.4550 C   0  0  0  0  0  0  0  0  0  0  0  0
  -24.1820  -13.2390   20.8480 C   0  0  0  0  0  0  0  0  0  0  0  0
  -24.6560  -11.8930   20.7690 C   0  0  0  0  0  0  0  0  0  0  0  0
  -26.2690  -13.1650   20.1600 N   0  0  0  0  0  0  0  0  0  0  0  0
  -25.9320  -11.8740   20.4050 N   0  0  0  0  0  0  0  0  0  0  0  0
  -23.9530  -10.6200   20.9660 C   0  0  0  0  0  0  0  0  0  0  0  0
  -24.4100   -9.6630   21.8980 C   0  0  0  0  0  3  0  0  0  0  0  0
  -23.7090   -8.4530   22.0840 C   0  0  0  0  0  3  0  0  0  0  0  0
  -22.5350   -8.1920   21.3370 C   0  0  0  0  0  0  0  0  0  0  0  0
  -22.0960   -9.1380   20.3930 C   0  0  0  0  0  3  0  0  0  0  0  0
  -22.8000  -10.3410   20.2060 C   0  0  0  0  0  3  0  0  0  0  0  0
  -21.8030   -7.0330   21.4300 O   0  0  0  0  0  0  0  0  0  0  0  0
  -21.7410   -6.3130   22.5960 C   0  0  0  0  0  0  0  0  0  0  0  0
  -21.2750   -6.8840   23.8010 C   0  0  0  0  0  3  0  0  0  0  0  0
  -21.1630   -6.0890   24.9600 C   0  0  0  0  0  3  0  0  0  0  0  0
  -21.5040   -4.7240   24.9140 C   0  0  0  0  0  0  0  0  0  0  0  0
  -21.9610   -4.1520   23.7140 C   0  0  0  0  0  3  0  0  0  0  0  0
  -22.0760   -4.9440   22.5570 C   0  0  0  0  0  0  0  0  0  0  0  0
  -22.4970   -4.3830   21.3980 F   0  0  0  0  0  0  0  0  0  0  0  0
  -21.3910   -3.9580   26.0250 F   0  0  0  0  0  0  0  0  0  0  0  0
  -22.7920  -13.6940   21.1920 C   0  0  0  0  0  0  0  0  0  0  0  0
  -22.1110  -12.9710   22.0730 N   0  0  0  0  0  0  0  0  0  0  0  0
  -22.3180  -14.7240   20.7150 O   0  0  0  0  0  0  0  0  0  0  0  0
  -22.5080  -12.1380   22.4810 H   0  0  0  0  0  0  0  0  0  0  0  0
  -21.1790  -13.2560   22.3460 H   0  0  0  0  0  0  0  0  0  0  0  0
  -25.3670  -15.4090   20.3050 N   0  0  0  0  0  0  0  0  0  0  0  0
  -24.6000  -16.0500   20.4810 H   0  0  0  0  0  0  0  0  0  0  0  0
  -26.2000  -15.8750   19.9670 H   0  0  0  0  0  0  0  0  0  0  0  0
  -30.7080  -22.5760   21.5750 C   0  0  0  0  0  0  0  0  0  0  0  0
  -31.8630  -22.9220   21.2990 O   0  0  0  0  0  0  0  0  0  0  0  0
  -29.6230  -23.6100   21.9080 C   0  0  0  0  0  2  0  0  0  0  0  0
  -29.4100  -24.6690   20.8000 C   0  0  0  0  0  3  0  0  0  0  0  0
  -28.8360  -24.0350   19.6680 O   0  0  0  0  0  0  0  0  0  0  0  0
  -28.7010  -24.7110   19.0110 H   0  0  0  0  0  0  0  0  0  0  0  0
  -28.4370  -25.7880   21.2270 C   0  0  0  0  0  2  0  0  0  0  0  0
  -28.4740  -26.8670   20.2850 O   0  0  0  0  0  0  0  0  0  0  0  0
  -24.5640  -31.9880   23.2760 C   0  0  0  0  0  0  0  0  0  0  0  0
  -27.3090  -27.5910   20.2550 C   0  0  0  0  0  0  0  0  0  0  0  0
  -23.3970  -30.5600   21.6290 C   0  0  0  0  0  3  0  0  0  0  0  0
  -24.8890  -29.0370   20.2310 C   0  0  0  0  0  0  0  0  0  0  0  0
  -25.9170  -30.9670   21.4490 C   0  0  0  0  0  2  0  0  0  0  0  0
  -26.0320  -29.5940   20.8200 C   0  0  0  0  0  0  0  0  0  0  0  0
  -27.2510  -28.8810   20.8220 C   0  0  0  0  0  3  0  0  0  0  0  0
  -26.1550  -27.0400   19.6600 C   0  0  0  0  0  3  0  0  0  0  0  0
  -24.9440  -27.7590   19.6470 C   0  0  0  0  0  3  0  0  0  0  0  0
  -23.6290  -29.8730   20.2580 C   0  0  0  0  0  2  0  0  0  0  0  0
  -24.6440  -31.1860   22.1770 N   0  0  0  0  0  0  0  0  0  0  0  0
  -23.4730  -32.2450   23.8050 O   0  0  0  0  0  0  0  0  0  0  0  0
  -22.7520  -29.5350   22.5870 C   0  0  0  0  0  0  0  0  0  0  0  0
  -21.4330  -29.3220   22.4350 N   0  0  0  0  0  0  0  0  0  0  0  0
  -23.4320  -28.9320   23.4230 O   0  0  0  0  0  0  0  0  0  0  0  0
  -20.9450  -29.8580   21.7320 H   0  0  0  0  0  0  0  0  0  0  0  0
  -18.0790  -28.0540   22.8690 C   0  0  0  0  0  0  0  0  0  0  0  0
  -20.6220  -28.3760   23.1990 C   0  0  0  0  0  3  0  0  0  0  0  0
  -20.7720  -26.9390   22.6460 C   0  0  0  0  0  2  0  0  0  0  0  0
  -19.7040  -26.5770   21.6100 C   0  0  0  0  0  2  0  0  0  0  0  0
  -18.3030  -26.7000   22.2180 C   0  0  0  0  0  2  0  0  0  0  0  0
  -19.1680  -28.8490   23.3150 C   0  0  0  0  0  0  0  0  0  0  0  0
  -18.9040  -30.1160   23.8790 C   0  0  0  0  0  3  0  0  0  0  0  0
  -17.5850  -30.5880   24.0050 C   0  0  0  0  0  3  0  0  0  0  0  0
  -16.5100  -29.7910   23.5760 C   0  0  0  0  0  3  0  0  0  0  0  0
  -16.7570  -28.5260   23.0140 C   0  0  0  0  0  3  0  0  0  0  0  0
  -25.8340  -32.6420   23.9060 C   0  0  0  0  0  3  0  0  0  0  0  0
  -25.5040  -34.0410   24.2120 N   0  0  0  0  0  0  0  0  0  0  0  0
  -25.8430  -35.0860   23.4460 C   0  0  0  0  0  0  0  0  0  0  0  0
  -26.5360  -34.9770   22.4300 O   0  0  0  0  0  0  0  0  0  0  0  0
  -24.8910  -34.1990   24.9990 H   0  0  0  0  0  0  0  0  0  0  0  0
  -24.1040  -36.8560   23.0290 C   0  0  0  0  0  1  0  0  0  0  0  0
  -25.3310  -36.4760   23.8730 C   0  0  0  0  0  3  0  0  0  0  0  0
  -27.4400  -37.3900   24.7390 C   0  0  0  0  0  1  0  0  0  0  0  0
  -26.3570  -37.5390   23.7710 N   0  0  0  0  0  0  0  0  0  0  0  0
  -25.9360  -38.4550   23.9060 H   0  0  0  0  0  0  0  0  0  0  0  0
  -26.3420  -31.8940   25.1980 C   0  0  1  0  0  0  0  0  0  0  0  0
  -25.2340  -31.6420   26.2490 C   0  0  0  0  0  1  0  0  0  0  0  0
  -26.9580  -30.5250   24.8250 C   0  0  0  0  0  1  0  0  0  0  0  0
  -27.4650  -32.7150   25.8740 C   0  0  0  0  0  1  0  0  0  0  0  0
  1  3  2  0
  2  1  1  0
  4  2  1  0
  5 20  1  0
  6 11  1  0
  7  8  1  0
  7  6  1  0
  9  8  1  0
  9 26  1  0
  9 10  1  0
 11  5  1  0
 11 10  1  0
 12  5  2  0
 13 16  1  0
 14 15  1  0
 14 13  2  0
 15 17  2  0
 16 19  2  0
 16 20  1  0
 17  2  1  0
 17 19  1  0
 18 14  1  0
 20 22  1  0
 21 15  1  0
 23 24  2  0
 24 43  1  0
 25 24  1  0
 25 28  1  0
 26 27  1  0
 26 23  1  0
 27 25  2  0
 28 29  1  0
 29 30  2  0
 31 34  1  0
 31 30  1  0
 32 31  2  0
 33 32  1  0
 33 28  2  0
 34 35  1  0
 35 36  1  0
 36 37  2  0
 38 37  1  0
 38 42  1  0
 39 38  2  0
 40 35  2  0
 40 39  1  0
 41 40  1  0
 43 44  1  0
 44 47  1  0
 44 46  1  0
 45 43  2  0
 48 23  1  0
 48 49  1  0
 50 48  1  0
 51  1  1  0
 51 53  1  0
 52 51  2  0
 54 57  1  0
 54 53  1  0
 55 54  1  0
 56 55  1  0
 58 57  1  0
 59 70  2  0
 60 58  1  0
 60 65  1  0
 61 69  1  0
 61 71  1  0
 62 68  1  0
 62 64  1  0
 63 69  1  0
 64 65  2  0
 64 63  1  0
 66 60  2  0
 67 66  1  0
 67 62  2  0
 68 61  1  0
 69 59  1  0
 71 73  2  0
 72 71  1  0
 74 72  1  0
 75 84  2  0
 75 80  1  0
 76 72  1  0
 76 80  1  0
 77 76  1  0
 78 79  1  0
 78 77  1  0
 79 75  1  0
 80 81  2  0
 81 82  1  0
 83 82  2  0
 84 83  1  0
 85 59  1  0
 85 86  1  0
 85 95  1  0
 86 89  1  0
 87 91  1  0
 87 86  1  0
 88 87  2  0
 91 90  1  0
 93 91  1  0
 93 94  1  0
 93 92  1  0
 95 98  1  1
 95 96  1  0
 97 95  1  0
M  ISO  4   5 100  20 100  57 101  58 101
M  END
>  <TORSDO>  (19) 
F 21

>  <SCORE>  (19) 
-13.000

>  <name>  (19) 
18

>  <ligand_id>  (19) 
18

>  <original_smiles>  (19) 
[H]OC([H])(C([H])([H])Oc1c([H])c([H])c2c(c1[H])C([H])([H])N(C(=O)C([H])(N([H])C(=O)C([H])(N([H])C([H])([H])[H])C([H])([H])[H])C(C([H])([H])[H])(C([H])([H])[H])C([H])([H])[H])C([H])(C(=O)N([H])C1([H])c3c([H])c([H])c([H])c([H])c3C([H])([H])C([H])([H])C1([H])[H])C2([H])[H])C([H])([H])C(=O)C(=O)N([H])c1nc(N([H])C(=O)N2C([H])([H])C([H])([H])C([H])([H])C([H])(n3nc(-c4c([H])c([H])c(Oc5c([H])c([H])c(F)c([H])c5F)c([H])c4[H])c(C(=O)N([H])[H])c3N([H])[H])C2([H])[H])c([H])c(C([H])([H])[H])c1F

>  <smiles>  (19) 
[H]OC([H])(C([H])([H])Oc1c([H])c([H])c2c(c1[H])C([H])([H])N(C(=O)C([H])(N([H])C(=O)C([H])(N([H])C([H])([H])[H])C([H])([H])[H])C(C([H])([H])[H])(C([H])([H])[H])C([H])([H])[H])C([H])(C(=O)N([H])C1([H])c3c([H])c([H])c([H])c([H])c3C([H])([H])C([H])([H])C1([H])[H])C2([H])[H])C([H])([H])C(=O)C(=O)N([H])c1nc(N([H])C(=O)N2C([H])([H])C([H])([H])C([H])([H])C([H])(n3nc(-c4c([H])c([H])c(Oc5c([H])c([H])c(F)c([H])c5F)c([H])c4[H])c(C(=O)N([H])[H])c3N([H])[H])C2([H])[H])c([H])c(C([H])([H])[H])c1F

$$$$
19:0:0
     RDKit          3D

100 97  0  0  1  0  0  0  0  0999 V2000
  -27.4520  -17.7180   20.2080 C   0  0  0  0  0  2  0  0  0  0  0  0
  -29.6670  -15.1560   19.5190 C   0  0  0  0  0  2  0  0  0  0  0  0
  -29.8600  -13.6480   18.7510 C   0  0  0  0  0  2  0  0  0  0  0  0
  -28.9250  -12.5530   19.2390 C   0  0  0  0  0  2  0  0  0  0  0  0
  -27.8610  -13.4400   19.8460 C   0  0  0  0  0  3  0  0  0  0  0  0
  -28.2050  -14.6350   20.8510 C   0  0  0  0  0  2  0  0  0  0  0  0
  -28.1910  -16.0190   20.0690 N   0  0  0  0  0  0  0  0  0  0  0  0
  -28.8230  -17.7830   20.2210 O   0  0  0  0  0  1  0  0  0  0  0  0
  -20.7970  -24.0750   20.2210 C   0  0  0  0  0  3  0  0  0  0  0  0
  -21.5480  -24.5450   20.9750 C   0  0  0  0  0  3  0  0  0  0  0  0
  -23.8470  -21.2510   20.3100 C   0  0  0  0  0  1  0  0  0  0  0  0
  -22.2080  -22.3640   19.9240 N   0  0  0  0  0  1  0  0  0  0  0  0
  -25.6690  -19.1940   20.1780 N   0  0  0  0  0  1  0  0  0  0  0  0
  -23.2520  -23.0750   21.4170 S   0  0  0  0  0  3  0  0  0  0  0  0
  -25.0620  -18.4530   19.8520 H   0  0  0  0  0  0  0  0  0  0  0  0
  -16.6350  -29.3420   21.5590 C   0  0  0  0  0 15  0  0  0  0  0  0
  -16.0620  -29.6670   19.6590 C   0  0  0  0  0 15  0  0  0  0  0  0
  -17.9850  -27.9290   22.0240 C   0  0  0  0  0 15  0  0  0  0  0  0
  -16.7460  -28.6660   18.0200 C   0  0  0  0  0  1  0  0  0  0  0  0
  -18.8330  -26.4480   19.3020 C   0  0  0  0  0  1  0  0  0  0  0  0
  -17.9360  -27.2740   17.9320 N   0  0  0  0  0  4  0  0  0  0  0  0
  -18.7110  -27.6040   17.3640 H   0  0  0  0  0  0  0  0  0  0  0  0
  -17.4830  -26.5510   17.3980 H   0  0  0  0  0  0  0  0  0  0  0  0
  -25.5780  -13.6670   20.4830 C   0  0  0  0  0  0  0  0  0  0  0  0
  -24.6240  -12.8160   20.8810 C   0  0  0  0  0  0  0  0  0  0  0  0
  -25.1960  -11.5060   20.8090 C   0  0  0  0  0  0  0  0  0  0  0  0
  -26.6650  -12.8720   20.2500 N   0  0  0  0  0  0  0  0  0  0  0  0
  -26.4820  -11.5560   20.4760 N   0  0  0  0  0  0  0  0  0  0  0  0
  -24.5440  -10.2150   20.9630 C   0  0  0  0  0  0  0  0  0  0  0  0
  -24.9780   -9.2700   21.9140 C   0  0  0  0  0  3  0  0  0  0  0  0
  -24.2880   -8.0500   22.0610 C   0  0  0  0  0  3  0  0  0  0  0  0
  -23.1560   -7.7770   21.2560 C   0  0  0  0  0  0  0  0  0  0  0  0
  -22.7470   -8.7140   20.2950 C   0  0  0  0  0  3  0  0  0  0  0  0
  -23.4380   -9.9230   20.1430 C   0  0  0  0  0  3  0  0  0  0  0  0
  -22.4330   -6.6130   21.3150 O   0  0  0  0  0  0  0  0  0  0  0  0
  -22.2350   -5.9550   22.5000 C   0  0  0  0  0  0  0  0  0  0  0  0
  -21.6100   -6.5750   23.6030 C   0  0  0  0  0  3  0  0  0  0  0  0
  -21.3630   -5.8360   24.7780 C   0  0  0  0  0  3  0  0  0  0  0  0
  -21.7360   -4.4800   24.8470 C   0  0  0  0  0  0  0  0  0  0  0  0
  -22.3560   -3.8610   23.7470 C   0  0  0  0  0  3  0  0  0  0  0  0
  -22.6040   -4.5980   22.5770 C   0  0  0  0  0  0  0  0  0  0  0  0
  -23.1820   -3.9950   21.5100 F   0  0  0  0  0  0  0  0  0  0  0  0
  -21.4920   -3.7670   25.9710 F   0  0  0  0  0  0  0  0  0  0  0  0
  -23.2330  -13.2390   21.1910 C   0  0  0  0  0  0  0  0  0  0  0  0
  -22.5690  -12.5220   22.0810 N   0  0  0  0  0  0  0  0  0  0  0  0
  -22.7630  -14.2630   20.6910 O   0  0  0  0  0  0  0  0  0  0  0  0
  -22.9780  -11.7010   22.5000 H   0  0  0  0  0  0  0  0  0  0  0  0
  -21.6340  -12.7930   22.3480 H   0  0  0  0  0  0  0  0  0  0  0  0
  -25.5980  -15.0500   20.2840 N   0  0  0  0  0  0  0  0  0  0  0  0
  -24.7280  -15.5690   20.2340 H   0  0  0  0  0  0  0  0  0  0  0  0
  -26.3650  -15.4730   19.7750 H   0  0  0  0  0  0  0  0  0  0  0  0
  -20.9020  -26.6790   18.3330 C   0  0  0  0  0  2  0  0  0  0  0  0
  -20.6560  -25.3580   19.7630 N   0  0  0  0  0  2  0  0  0  0  0  0
  -20.3280  -27.7480   18.1160 O   0  0  0  0  0  1  0  0  0  0  0  0
  -19.7040  -25.3980   20.0990 H   0  0  0  0  0  0  0  0  0  0  0  0
  -22.0960  -26.6680   17.0380 C   0  0  0  0  0  2  0  0  0  0  0  0
  -23.6410  -27.3970   16.7380 C   0  0  0  0  0  2  0  0  0  0  0  0
  -25.6210  -28.1980   15.2910 C   0  0  0  0  0  1  0  0  0  0  0  0
  -25.2500  -26.9620   16.1270 C   0  0  0  0  0  3  0  0  0  0  0  0
  -26.7880  -26.7180   16.6300 O   0  0  0  0  0  0  0  0  0  0  0  0
  -25.4320  -29.5890   22.8920 C   0  0  0  0  0  0  0  0  0  0  0  0
  -27.1340  -26.6990   17.9510 C   0  0  0  0  0  3  0  0  0  0  0  0
  -23.9930  -28.8890   21.1120 C   0  0  0  0  0  3  0  0  0  0  0  0
  -25.1290  -28.1170   19.1090 C   0  0  0  0  0  3  0  0  0  0  0  0
  -26.4910  -29.4640   20.5900 C   0  0  0  0  0  2  0  0  0  0  0  0
  -26.4030  -28.5200   19.4040 C   0  0  0  0  0  3  0  0  0  0  0  0
  -27.4650  -27.8760   18.7050 C   0  0  0  0  0  2  0  0  0  0  0  0
  -26.0780  -25.9810   18.3990 C   0  0  0  0  0  2  0  0  0  0  0  0
  -25.0430  -26.7720   18.8850 C   0  0  0  0  0  2  0  0  0  0  0  0
  -23.9500  -28.9100   19.5790 C   0  0  0  0  0  2  0  0  0  0  0  0
  -25.3270  -29.3680   21.5580 N   0  0  0  0  0  0  0  0  0  0  0  0
  -24.4390  -29.5640   23.6430 O   0  0  0  0  0  0  0  0  0  0  0  0
  -23.8610  -27.4460   21.6560 C   0  0  0  0  0  0  0  0  0  0  0  0
  -22.8680  -26.7620   21.2880 N   0  0  0  0  0  0  0  0  0  0  0  0
  -24.7270  -26.8160   22.2360 O   0  0  0  0  0  0  0  0  0  0  0  0
  -22.1670  -27.2080   20.7020 H   0  0  0  0  0  0  0  0  0  0  0  0
  -19.7450  -23.6640   22.2320 C   0  0  0  0  0  1  0  0  0  0  0  0
  -22.9050  -25.2950   21.1800 C   0  0  0  0  0  3  0  0  0  0  0  0
  -22.7790  -24.4570   18.6830 C   0  0  0  0  0 15  0  0  0  0  0  0
  -20.0680  -24.0360   18.3340 C   0  0  0  0  0 15  0  0  0  0  0  0
  -19.0020  -23.3640   20.3080 C   0  0  0  0  0  1  0  0  0  0  0  0
  -21.3430  -24.8480   22.4920 C   0  0  0  0  0  2  0  0  0  0  0  0
  -21.0660  -26.3660   22.9530 C   0  0  0  0  0  3  0  0  0  0  0  0
  -19.6800  -26.9010   22.9810 C   0  0  0  0  0  3  0  0  0  0  0  0
  -18.1380  -25.8500   22.7990 C   0  0  0  0  0  3  0  0  0  0  0  0
  -18.2300  -24.3200   22.5560 C   0  0  0  0  0  3  0  0  0  0  0  0
  -26.8120  -29.8660   23.5170 C   0  0  0  0  0  3  0  0  0  0  0  0
  -27.3800  -28.6540   24.3520 C   0  0  1  0  0  0  0  0  0  0  0  0
  -26.3880  -28.0600   25.3800 C   0  0  0  0  0  1  0  0  0  0  0  0
  -27.8450  -27.5110   23.4230 C   0  0  0  0  0  1  0  0  0  0  0  0
  -28.6410  -29.1080   25.1220 C   0  0  0  0  0  1  0  0  0  0  0  0
  -26.6120  -31.0400   24.3590 N   0  0  0  0  0  0  0  0  0  0  0  0
  -27.0080  -32.2660   24.0080 C   0  0  0  0  0  0  0  0  0  0  0  0
  -27.6730  -32.4860   22.9910 O   0  0  0  0  0  0  0  0  0  0  0  0
  -26.0410  -30.9210   25.1840 H   0  0  0  0  0  0  0  0  0  0  0  0
  -25.5130  -34.2600   24.3130 C   0  0  0  0  0  1  0  0  0  0  0  0
  -26.6290  -33.4190   24.9520 C   0  0  0  0  0  3  0  0  0  0  0  0
  -28.7830  -33.6070   26.1190 C   0  0  0  0  0  1  0  0  0  0  0  0
  -27.7770  -34.2830   25.3020 N   0  0  0  0  0  0  0  0  0  0  0  0
  -27.4680  -35.1160   25.7970 H   0  0  0  0  0  0  0  0  0  0  0  0
  1  8  1  0
  2  7  1  0
  3  4  1  0
  3  2  1  0
  5  4  1  0
  5 27  1  0
  5  6  1  0
  7  1  1  0
  7  6  1  0
  9 81  1  0
  9 10  1  0
 10 78  1  0
 10 82  1  0
 12 14  1  0
 14 11  1  6
 15 13  1  0
 21 19  1  0
 21 20  1  0
 22 21  1  0
 23 21  1  0
 24 25  2  0
 25 44  1  0
 26 25  1  0
 26 29  1  0
 27 28  1  0
 27 24  1  0
 28 26  2  0
 29 30  1  0
 30 31  2  0
 32 35  1  0
 32 31  1  0
 33 32  2  0
 34 33  1  0
 34 29  2  0
 35 36  1  0
 36 41  2  0
 36 37  1  0
 37 38  2  0
 38 39  1  0
 39 43  1  0
 40 39  2  0
 41 40  1  0
 42 41  1  0
 44 45  1  0
 45 48  1  0
 45 47  1  0
 46 44  2  0
 49 24  1  0
 50 49  1  0
 51 49  1  0
 53 55  1  0
 53  9  1  0
 54 52  1  0
 56 52  1  0
 57 56  1  0
 59 58  1  0
 59 60  1  0
 59 57  1  0
 61 72  2  0
 62 60  1  0
 62 68  1  0
 62 67  1  0
 63 71  1  0
 63 73  1  0
 64 69  1  0
 64 66  1  0
 64 70  1  0
 65 71  1  0
 66 67  1  0
 66 65  1  0
 68 69  1  0
 70 63  1  0
 71 61  1  0
 73 75  2  0
 74 73  1  0
 76 74  1  0
 77 86  1  0
 78 74  1  0
 78 14  1  0
 82 83  1  0
 83 84  2  0
 85 84  1  0
 86 85  2  0
 87 61  1  0
 87 88  1  0
 87 92  1  0
 88 91  1  1
 88 89  1  0
 90 88  1  0
 92 95  1  0
 93 92  1  0
 93 97  1  0
 94 93  2  0
 97 96  1  0
 97 99  1  0
 99100  1  0
 99 98  1  0
M  ISO  4   1 100  13 100  59 101  60 101
M  END
>  <TORSDO>  (20) 
F 20

>  <SCORE>  (20) 
6.301

>  <name>  (20) 
19

>  <ligand_id>  (20) 
19

>  <original_smiles>  (20) 
[H]c1c([H])c([H])c2c(c1[H])C([H])([H])C([H])([H])C([H])([H])C2([H])N([H])C(=O)C1([H])N(C(=O)C([H])(N([H])C(=O)C([H])(N([H])C([H])([H])[H])C([H])([H])[H])C(C([H])([H])[H])(C([H])([H])[H])C([H])([H])[H])C([H])([H])c2c([H])c(OC([H])(C([H])([H])[H])C([H])([H])C([H])([H])C(=O)N([H])c3sc(N([H])C(=O)N4C([H])([H])C([H])([H])C([H])([H])C([H])(n5nc(-c6c([H])c([H])c(Oc7c([H])c([H])c(F)c([H])c7F)c([H])c6[H])c(C(=O)N([H])[H])c5N([H])[H])C4([H])[H])nc3C3([H])C([H])([H])C([H])([H])C([H])([H])C([H])([H])[N+]3([H])[H])c([H])c([H])c2C1([H])[H]

>  <smiles>  (20) 
[H]c1c([H])c([H])c2c(c1[H])C([H])([H])C([H])([H])C([H])([H])C2([H])N([H])C(=O)C1([H])N(C(=O)C([H])(N([H])C(=O)C([H])(N([H])C([H])([H])[H])C([H])([H])[H])C(C([H])([H])[H])(C([H])([H])[H])C([H])([H])[H])C([H])([H])c2c([H])c(OC([H])(C([H])([H])[H])C([H])([H])C([H])([H])C(=O)N([H])c3sc(N([H])C(=O)N4C([H])([H])C([H])([H])C([H])([H])C([H])(n5nc(-c6c([H])c([H])c(Oc7c([H])c([H])c(F)c([H])c7F)c([H])c6[H])c(C(=O)N([H])[H])c5N([H])[H])C4([H])[H])nc3C3([H])C([H])([H])C([H])([H])C([H])([H])C([H])([H])[N+]3([H])[H])c([H])c([H])c2C1([H])[H]

$$$$
20:0:0
     RDKit          3D

 94102  0  0  1  0  0  0  0  0999 V2000
  -29.3700  -24.0750   20.3030 C   0  0  0  0  0  0  0  0  0  0  0  0
  -29.1630  -22.6540   20.2660 N   0  0  0  0  0  0  0  0  0  0  0  0
  -30.5060  -24.5610   20.3140 O   0  0  0  0  0  0  0  0  0  0  0  0
  -28.1980  -22.3290   20.2430 H   0  0  0  0  0  0  0  0  0  0  0  0
  -31.5380  -21.8270   20.9880 O   0  0  0  0  0  0  0  0  0  0  0  0
  -29.5570  -21.3970   22.5120 O   0  0  0  0  0  0  0  0  0  0  0  0
  -30.1220  -21.4560   21.1520 S   0  0  1  0  0  0  0  0  0  0  0  0
  -30.4970  -19.2470   19.2960 C   0  0  0  0  0  3  0  0  0  0  0  0
  -30.5250  -17.8060   19.2200 C   0  0  0  0  0  0  0  0  0  0  0  0
  -30.0890  -17.1130   20.3340 C   0  0  0  0  0  0  0  0  0  0  0  0
  -30.0330  -19.7280   20.4960 C   0  0  0  0  0  0  0  0  0  0  0  0
  -30.9330  -17.2040   18.1270 F   0  0  0  0  0  0  0  0  0  0  0  0
  -29.5610  -18.3440   21.5050 S   0  0  0  0  0  0  0  0  0  0  0  0
  -30.6990  -14.6940   20.0760 C   0  0  0  0  0  0  0  0  0  0  0  0
  -30.4300  -12.4720   18.9970 C   0  0  0  0  0  2  0  0  0  0  0  0
  -29.4350  -12.6260   17.8260 C   0  0  0  0  0  2  0  0  0  0  0  0
  -27.9820  -12.4570   18.3170 C   0  0  0  0  0  2  0  0  0  0  0  0
  -27.6810  -13.2970   19.5870 C   0  0  0  0  0  3  0  0  0  0  0  0
  -28.7890  -13.1280   20.6510 C   0  0  0  0  0  2  0  0  0  0  0  0
  -30.0730  -13.4750   20.0220 N   0  0  0  0  0  0  0  0  0  0  0  0
  -31.8330  -14.8470   19.6140 O   0  0  0  0  0  0  0  0  0  0  0  0
  -29.9670  -15.7460   20.5630 N   0  0  0  0  0  0  0  0  0  0  0  0
  -29.1500  -15.4730   21.0860 H   0  0  0  0  0  0  0  0  0  0  0  0
  -25.3210  -13.8780   20.4210 C   0  0  0  0  0  0  0  0  0  0  0  0
  -24.2730  -13.0970   20.8270 C   0  0  0  0  0  0  0  0  0  0  0  0
  -24.7350  -11.7470   20.7520 C   0  0  0  0  0  0  0  0  0  0  0  0
  -26.3550  -13.0040   20.1250 N   0  0  0  0  0  0  0  0  0  0  0  0
  -26.0100  -11.7160   20.3850 N   0  0  0  0  0  0  0  0  0  0  0  0
  -24.0190  -10.4810   20.9550 C   0  0  0  0  0  0  0  0  0  0  0  0
  -24.4690   -9.5180   21.8860 C   0  0  0  0  0  3  0  0  0  0  0  0
  -23.7520   -8.3170   22.0770 C   0  0  0  0  0  3  0  0  0  0  0  0
  -22.5730   -8.0690   21.3350 C   0  0  0  0  0  0  0  0  0  0  0  0
  -22.1430   -9.0190   20.3920 C   0  0  0  0  0  3  0  0  0  0  0  0
  -22.8600  -10.2120   20.2000 C   0  0  0  0  0  3  0  0  0  0  0  0
  -21.8280   -6.9180   21.4340 O   0  0  0  0  0  0  0  0  0  0  0  0
  -21.7640   -6.1990   22.6010 C   0  0  0  0  0  0  0  0  0  0  0  0
  -21.3010   -6.7730   23.8050 C   0  0  0  0  0  3  0  0  0  0  0  0
  -21.1860   -5.9800   24.9640 C   0  0  0  0  0  3  0  0  0  0  0  0
  -21.5250   -4.6140   24.9200 C   0  0  0  0  0  0  0  0  0  0  0  0
  -21.9830   -4.0410   23.7210 C   0  0  0  0  0  3  0  0  0  0  0  0
  -22.0990   -4.8310   22.5630 C   0  0  0  0  0  0  0  0  0  0  0  0
  -22.5200   -4.2680   21.4050 F   0  0  0  0  0  0  0  0  0  0  0  0
  -21.4090   -3.8500   26.0310 F   0  0  0  0  0  0  0  0  0  0  0  0
  -22.8890  -13.5670   21.1690 C   0  0  0  0  0  0  0  0  0  0  0  0
  -22.2000  -12.8560   22.0550 N   0  0  0  0  0  0  0  0  0  0  0  0
  -22.4260  -14.6000   20.6870 O   0  0  0  0  0  0  0  0  0  0  0  0
  -22.5880  -12.0200   22.4680 H   0  0  0  0  0  0  0  0  0  0  0  0
  -21.2740  -13.1520   22.3260 H   0  0  0  0  0  0  0  0  0  0  0  0
  -25.4760  -15.2520   20.2590 N   0  0  0  0  0  0  0  0  0  0  0  0
  -24.7110  -15.9020   20.4080 H   0  0  0  0  0  0  0  0  0  0  0  0
  -26.3040  -15.6970   19.8840 H   0  0  0  0  0  0  0  0  0  0  0  0
  -27.3970  -24.7710   21.7360 C   0  0  0  0  0  1  0  0  0  0  0  0
  -28.1090  -25.0250   20.3880 C   0  0  0  0  0  3  0  0  0  0  0  0
  -28.3760  -26.4890   20.2440 O   0  0  0  0  0  0  0  0  0  0  0  0
  -24.6200  -31.8910   23.2160 C   0  0  0  0  0  0  0  0  0  0  0  0
  -27.2660  -27.3520   20.1640 C   0  0  0  0  0  0  0  0  0  0  0  0
  -23.4270  -30.4810   21.5780 C   0  0  0  0  0  3  0  0  0  0  0  0
  -24.8900  -28.9470   20.1510 C   0  0  0  0  0  0  0  0  0  0  0  0
  -25.9650  -30.8200   21.3960 C   0  0  0  0  0  2  0  0  0  0  0  0
  -26.0560  -29.4430   20.7480 C   0  0  0  0  0  0  0  0  0  0  0  0
  -27.2470  -28.6570   20.7450 C   0  0  0  0  0  3  0  0  0  0  0  0
  -26.0810  -26.9210   19.5230 C   0  0  0  0  0  3  0  0  0  0  0  0
  -24.9060  -27.6920   19.5270 C   0  0  0  0  0  3  0  0  0  0  0  0
  -23.6450  -29.8080   20.1990 C   0  0  0  0  0  2  0  0  0  0  0  0
  -24.6890  -31.0810   22.1200 N   0  0  0  0  0  0  0  0  0  0  0  0
  -23.5350  -32.1610   23.7500 O   0  0  0  0  0  0  0  0  0  0  0  0
  -22.7740  -29.4590   22.5390 C   0  0  0  0  0  0  0  0  0  0  0  0
  -21.4470  -29.2810   22.4210 N   0  0  0  0  0  0  0  0  0  0  0  0
  -23.4590  -28.8300   23.3510 O   0  0  0  0  0  0  0  0  0  0  0  0
  -20.9540  -29.8400   21.7390 H   0  0  0  0  0  0  0  0  0  0  0  0
  -18.0720  -28.0890   22.9470 C   0  0  0  0  0  0  0  0  0  0  0  0
  -20.6330  -28.3410   23.1950 C   0  0  0  0  0  3  0  0  0  0  0  0
  -20.7270  -26.9130   22.6130 C   0  0  0  0  0  2  0  0  0  0  0  0
  -19.6140  -26.5970   21.6070 C   0  0  0  0  0  2  0  0  0  0  0  0
  -18.2390  -26.7430   22.2640 C   0  0  0  0  0  2  0  0  0  0  0  0
  -19.1960  -28.8480   23.3700 C   0  0  0  0  0  0  0  0  0  0  0  0
  -18.9850  -30.1080   23.9690 C   0  0  0  0  0  3  0  0  0  0  0  0
  -17.6830  -30.6110   24.1490 C   0  0  0  0  0  3  0  0  0  0  0  0
  -16.5730  -29.8500   23.7410 C   0  0  0  0  0  3  0  0  0  0  0  0
  -16.7690  -28.5910   23.1460 C   0  0  0  0  0  3  0  0  0  0  0  0
  -25.8990  -32.5320   23.8370 C   0  0  0  0  0  3  0  0  0  0  0  0
  -26.4210  -31.7680   25.1160 C   0  0  1  0  0  0  0  0  0  0  0  0
  -25.3270  -31.5230   26.1830 C   0  0  0  0  0  1  0  0  0  0  0  0
  -27.0150  -30.3940   24.7280 C   0  0  0  0  0  1  0  0  0  0  0  0
  -27.5640  -32.5720   25.7770 C   0  0  0  0  0  1  0  0  0  0  0  0
  -25.5790  -33.9290   24.1650 N   0  0  0  0  0  0  0  0  0  0  0  0
  -25.9130  -34.9850   23.4090 C   0  0  0  0  0  0  0  0  0  0  0  0
  -26.5930  -34.8840   22.3850 O   0  0  0  0  0  0  0  0  0  0  0  0
  -24.9760  -34.0800   24.9600 H   0  0  0  0  0  0  0  0  0  0  0  0
  -24.1880  -36.7760   23.0310 C   0  0  0  0  0  1  0  0  0  0  0  0
  -25.4150  -36.3700   23.8630 C   0  0  0  0  0  3  0  0  0  0  0  0
  -27.5320  -37.2570   24.7360 C   0  0  0  0  0  1  0  0  0  0  0  0
  -26.4480  -37.4250   23.7720 N   0  0  0  0  0  0  0  0  0  0  0  0
  -26.0380  -38.3450   23.9130 H   0  0  0  0  0  0  0  0  0  0  0  0
  1  3  2  0
  1 53  1  0
  2  1  1  0
  7  2  1  6
  4  2  1  0
  5  7  2  0
  7  6  2  0
  8 11  2  0
  9  8  1  0
  9 10  2  0
 10 22  1  0
 10 13  1  0
 11  7  1  0
 11 13  1  0
 12  9  1  0
 14 22  1  0
 15 20  1  0
 16 17  1  0
 16 15  1  0
 18 17  1  0
 18 27  1  0
 18 19  1  0
 20 14  1  0
 20 19  1  0
 21 14  2  0
 22 23  1  0
 24 25  2  0
 25 44  1  0
 26 25  1  0
 26 29  1  0
 27 28  1  0
 27 24  1  0
 28 26  2  0
 29 30  1  0
 30 31  2  0
 32 35  1  0
 32 31  1  0
 33 32  2  0
 34 33  1  0
 34 29  2  0
 35 36  1  0
 36 37  1  0
 37 38  2  0
 39 38  1  0
 39 43  1  0
 40 39  2  0
 41 36  2  0
 41 40  1  0
 42 41  1  0
 44 45  1  0
 45 48  1  0
 45 47  1  0
 46 44  2  0
 49 50  1  0
 49 24  1  0
 51 49  1  0
 53 52  1  0
 54 53  1  0
 55 66  2  0
 56 54  1  0
 56 61  1  0
 57 65  1  0
 57 67  1  0
 58 64  1  0
 58 60  1  0
 59 65  1  0
 60 59  1  0
 61 60  2  0
 62 63  1  0
 62 56  2  0
 63 58  2  0
 64 57  1  0
 65 55  1  0
 67 69  2  0
 68 67  1  0
 70 68  1  0
 71 80  2  0
 71 76  1  0
 72 68  1  0
 72 76  1  0
 73 72  1  0
 74 75  1  0
 74 73  1  0
 75 71  1  0
 76 77  2  0
 77 78  1  0
 79 78  2  0
 80 79  1  0
 81 55  1  0
 81 86  1  0
 81 82  1  0
 82 85  1  1
 82 83  1  0
 84 82  1  0
 86 89  1  0
 87 91  1  0
 87 86  1  0
 88 87  2  0
 91 90  1  0
 93 91  1  0
 93 94  1  0
 93 92  1  0
M  ISO  4  14 100  22 100  53 101  54 101
M  END
>  <TORSDO>  (21) 
F 19

>  <SCORE>  (21) 
-13.937

>  <name>  (21) 
20

>  <ligand_id>  (21) 
20

>  <original_smiles>  (21) 
[H]c1c([H])c([H])c2c(c1[H])C([H])([H])C([H])([H])C([H])([H])C2([H])N([H])C(=O)C1([H])N(C(=O)C([H])(N([H])C(=O)C([H])(N([H])C([H])([H])[H])C([H])([H])[H])C(C([H])([H])[H])(C([H])([H])[H])C([H])([H])[H])C([H])([H])c2c([H])c(OC([H])(C(=O)N([H])S(=O)(=O)c3sc(N([H])C(=O)N4C([H])([H])C([H])([H])C([H])([H])C([H])(n5nc(-c6c([H])c([H])c(Oc7c([H])c([H])c(F)c([H])c7F)c([H])c6[H])c(C(=O)N([H])[H])c5N([H])[H])C4([H])[H])c(F)c3[H])C([H])([H])[H])c([H])c([H])c2C1([H])[H]

>  <smiles>  (21) 
[H]c1c([H])c([H])c2c(c1[H])C([H])([H])C([H])([H])C([H])([H])C2([H])N([H])C(=O)C1([H])N(C(=O)C([H])(N([H])C(=O)C([H])(N([H])C([H])([H])[H])C([H])([H])[H])C(C([H])([H])[H])(C([H])([H])[H])C([H])([H])[H])C([H])([H])c2c([H])c(OC([H])(C(=O)N([H])S(=O)(=O)c3sc(N([H])C(=O)N4C([H])([H])C([H])([H])C([H])([H])C([H])(n5nc(-c6c([H])c([H])c(Oc7c([H])c([H])c(F)c([H])c7F)c([H])c6[H])c(C(=O)N([H])[H])c5N([H])[H])C4([H])[H])c(F)c3[H])C([H])([H])[H])c([H])c([H])c2C1([H])[H]

$$$$
21:0:0
     RDKit          3D

 98106  0  0  1  0  0  0  0  0999 V2000
  -28.8720  -20.2690   20.1320 N   0  0  0  0  0  0  0  0  0  0  0  0
  -28.0040  -19.8580   19.8200 H   0  0  0  0  0  0  0  0  0  0  0  0
  -30.6450  -14.5610   20.3120 C   0  0  0  0  0  0  0  0  0  0  0  0
  -30.3190  -12.3870   19.1780 C   0  0  0  0  0  2  0  0  0  0  0  0
  -29.3480  -12.5830   17.9970 C   0  0  0  0  0  2  0  0  0  0  0  0
  -27.8880  -12.4330   18.4680 C   0  0  0  0  0  2  0  0  0  0  0  0
  -27.5780  -13.2690   19.7380 C   0  0  0  0  0  3  0  0  0  0  0  0
  -28.6660  -13.0700   20.8190 C   0  0  0  0  0  2  0  0  0  0  0  0
  -29.9660  -13.3810   20.2080 N   0  0  0  0  0  0  0  0  0  0  0  0
  -31.7810  -14.6880   19.8460 O   0  0  0  0  0  0  0  0  0  0  0  0
  -31.6390  -17.3310   21.2420 C   0  0  0  0  0  3  0  0  0  0  0  0
  -31.1660  -19.6860   20.8680 C   0  0  0  0  0  0  0  0  0  0  0  0
  -32.0610  -18.6660   21.2490 C   0  0  0  0  0  0  0  0  0  0  0  0
  -30.3290  -17.0090   20.8280 C   0  0  0  0  0  0  0  0  0  0  0  0
  -29.8390  -19.3200   20.5420 C   0  0  0  0  0  0  0  0  0  0  0  0
  -29.4470  -18.0150   20.5250 N   0  0  0  0  0  0  0  0  0  0  0  0
  -29.9360  -15.6240   20.7800 N   0  0  0  0  0  0  0  0  0  0  0  0
  -33.3400  -18.9720   21.5820 F   0  0  0  0  0  0  0  0  0  0  0  0
  -28.9700  -15.4360   20.9900 H   0  0  0  0  0  0  0  0  0  0  0  0
  -25.2030  -13.8640   20.5230 C   0  0  0  0  0  0  0  0  0  0  0  0
  -24.1470  -13.0860   20.9140 C   0  0  0  0  0  0  0  0  0  0  0  0
  -24.6070  -11.7350   20.8560 C   0  0  0  0  0  0  0  0  0  0  0  0
  -26.2410  -12.9860   20.2540 N   0  0  0  0  0  0  0  0  0  0  0  0
  -25.8890  -11.7000   20.5130 N   0  0  0  0  0  0  0  0  0  0  0  0
  -23.8880  -10.4700   21.0530 C   0  0  0  0  0  0  0  0  0  0  0  0
  -24.3450   -9.4930   21.9640 C   0  0  0  0  0  3  0  0  0  0  0  0
  -23.6240   -8.2930   22.1490 C   0  0  0  0  0  3  0  0  0  0  0  0
  -22.4320   -8.0620   21.4220 C   0  0  0  0  0  0  0  0  0  0  0  0
  -21.9940   -9.0280   20.4990 C   0  0  0  0  0  3  0  0  0  0  0  0
  -22.7150  -10.2190   20.3120 C   0  0  0  0  0  3  0  0  0  0  0  0
  -21.6810   -6.9160   21.5170 O   0  0  0  0  0  0  0  0  0  0  0  0
  -21.6640   -6.1580   22.6620 C   0  0  0  0  0  0  0  0  0  0  0  0
  -21.2640   -6.6960   23.9040 C   0  0  0  0  0  3  0  0  0  0  0  0
  -21.1950   -5.8640   25.0400 C   0  0  0  0  0  3  0  0  0  0  0  0
  -21.5170   -4.4980   24.9350 C   0  0  0  0  0  0  0  0  0  0  0  0
  -21.9120   -3.9620   23.6960 C   0  0  0  0  0  3  0  0  0  0  0  0
  -21.9820   -4.7890   22.5630 C   0  0  0  0  0  0  0  0  0  0  0  0
  -22.3420   -4.2620   21.3670 F   0  0  0  0  0  0  0  0  0  0  0  0
  -21.4430   -3.6970   26.0230 F   0  0  0  0  0  0  0  0  0  0  0  0
  -22.7580  -13.5590   21.2300 C   0  0  0  0  0  0  0  0  0  0  0  0
  -22.0530  -12.8510   22.1070 N   0  0  0  0  0  0  0  0  0  0  0  0
  -22.3060  -14.5910   20.7360 O   0  0  0  0  0  0  0  0  0  0  0  0
  -22.4320  -12.0160   22.5290 H   0  0  0  0  0  0  0  0  0  0  0  0
  -21.1210  -13.1490   22.3610 H   0  0  0  0  0  0  0  0  0  0  0  0
  -25.3620  -15.2360   20.3550 N   0  0  0  0  0  0  0  0  0  0  0  0
  -24.5940  -15.8850   20.4890 H   0  0  0  0  0  0  0  0  0  0  0  0
  -26.1960  -15.6830   19.9950 H   0  0  0  0  0  0  0  0  0  0  0  0
  -31.6320  -20.9980   20.7520 N   0  0  0  0  0  0  0  0  0  0  0  0
  -32.6390  -21.0960   20.6740 H   0  0  0  0  0  0  0  0  0  0  0  0
  -31.1390  -21.5570   20.0630 H   0  0  0  0  0  0  0  0  0  0  0  0
  -28.6930  -21.5850   20.7920 C   0  0  0  0  0  2  0  0  0  0  0  0
  -28.7040  -22.8090   19.8110 C   0  0  2  0  0  0  0  0  0  0  0  0
  -27.7710  -22.5960   18.8820 F   0  0  0  0  0  0  0  0  0  0  0  0
  -29.8890  -22.8400   19.1990 F   0  0  0  0  0  0  0  0  0  0  0  0
  -28.4420  -24.2020   20.4590 C   0  0  0  0  0  0  0  0  0  0  0  0
  -28.1770  -24.3170   21.6620 O   0  0  0  0  0  0  0  0  0  0  0  0
  -28.5300  -25.4490   19.5340 C   0  0  0  0  0  2  0  0  0  0  0  0
  -28.3850  -26.7150   20.2300 O   0  0  0  0  0  0  0  0  0  0  0  0
  -24.5720  -31.9390   23.2440 C   0  0  0  0  0  0  0  0  0  0  0  0
  -27.1980  -27.4340   20.1950 C   0  0  0  0  0  0  0  0  0  0  0  0
  -23.3620  -30.5330   21.6080 C   0  0  0  0  0  3  0  0  0  0  0  0
  -24.8090  -28.9760   20.1950 C   0  0  0  0  0  0  0  0  0  0  0  0
  -25.8920  -30.8700   21.4130 C   0  0  0  0  0  2  0  0  0  0  0  0
  -25.9700  -29.4910   20.7810 C   0  0  0  0  0  0  0  0  0  0  0  0
  -27.1630  -28.7270   20.7780 C   0  0  0  0  0  3  0  0  0  0  0  0
  -26.0090  -26.9350   19.6120 C   0  0  0  0  0  3  0  0  0  0  0  0
  -24.8260  -27.6990   19.6090 C   0  0  0  0  0  3  0  0  0  0  0  0
  -23.5710  -29.8440   20.2330 C   0  0  0  0  0  2  0  0  0  0  0  0
  -24.6280  -31.1300   22.1470 N   0  0  0  0  0  0  0  0  0  0  0  0
  -23.4920  -32.2180   23.7820 O   0  0  0  0  0  0  0  0  0  0  0  0
  -22.7040  -29.5220   22.5750 C   0  0  0  0  0  0  0  0  0  0  0  0
  -21.3790  -29.3420   22.4440 N   0  0  0  0  0  0  0  0  0  0  0  0
  -23.3830  -28.9000   23.3970 O   0  0  0  0  0  0  0  0  0  0  0  0
  -20.8920  -29.8940   21.7530 H   0  0  0  0  0  0  0  0  0  0  0  0
  -18.0000  -28.1590   22.9420 C   0  0  0  0  0  0  0  0  0  0  0  0
  -20.5590  -28.4110   23.2190 C   0  0  0  0  0  3  0  0  0  0  0  0
  -20.6580  -26.9750   22.6510 C   0  0  0  0  0  2  0  0  0  0  0  0
  -19.5590  -26.6510   21.6360 C   0  0  0  0  0  2  0  0  0  0  0  0
  -18.1750  -26.8050   22.2750 C   0  0  0  0  0  2  0  0  0  0  0  0
  -19.1210  -28.9200   23.3710 C   0  0  0  0  0  0  0  0  0  0  0  0
  -18.9050  -30.1880   23.9530 C   0  0  0  0  0  3  0  0  0  0  0  0
  -17.6020  -30.6960   24.1110 C   0  0  0  0  0  3  0  0  0  0  0  0
  -16.4960  -29.9320   23.6970 C   0  0  0  0  0  3  0  0  0  0  0  0
  -16.6960  -28.6660   23.1210 C   0  0  0  0  0  3  0  0  0  0  0  0
  -25.8610  -32.5690   23.8610 C   0  0  0  0  0  3  0  0  0  0  0  0
  -25.5590  -33.9730   24.1740 N   0  0  0  0  0  0  0  0  0  0  0  0
  -25.9020  -35.0150   23.4030 C   0  0  0  0  0  0  0  0  0  0  0  0
  -26.5740  -34.8940   22.3760 O   0  0  0  0  0  0  0  0  0  0  0  0
  -24.9630  -34.1400   24.9720 H   0  0  0  0  0  0  0  0  0  0  0  0
  -24.1890  -36.8150   23.0190 C   0  0  0  0  0  1  0  0  0  0  0  0
  -25.4210  -36.4110   23.8430 C   0  0  0  0  0  3  0  0  0  0  0  0
  -27.5560  -37.2900   24.6800 C   0  0  0  0  0  1  0  0  0  0  0  0
  -26.4620  -37.4560   23.7260 N   0  0  0  0  0  0  0  0  0  0  0  0
  -26.0620  -38.3800   23.8600 H   0  0  0  0  0  0  0  0  0  0  0  0
  -26.3700  -31.8090   25.1460 C   0  0  1  0  0  0  0  0  0  0  0  0
  -25.2740  -31.5880   26.2130 C   0  0  0  0  0  1  0  0  0  0  0  0
  -26.9450  -30.4240   24.7680 C   0  0  0  0  0  1  0  0  0  0  0  0
  -27.5240  -32.6030   25.8040 C   0  0  0  0  0  1  0  0  0  0  0  0
  1 15  1  0
  1 51  1  0
  2  1  1  0
  3 17  1  0
  4  9  1  0
  5  6  1  0
  5  4  1  0
  7  6  1  0
  7 23  1  0
  7  8  1  0
  9  3  1  0
  9  8  1  0
 10  3  2  0
 11 13  1  0
 12 13  2  0
 13 18  1  0
 14 11  2  0
 15 12  1  0
 16 15  2  0
 16 14  1  0
 17 14  1  0
 17 19  1  0
 20 21  2  0
 21 40  1  0
 22 21  1  0
 22 25  1  0
 23 24  1  0
 23 20  1  0
 24 22  2  0
 25 26  1  0
 26 27  2  0
 28 31  1  0
 28 27  1  0
 29 28  2  0
 30 29  1  0
 30 25  2  0
 31 32  1  0
 32 33  1  0
 33 34  2  0
 35 34  1  0
 35 39  1  0
 36 35  2  0
 37 32  2  0
 37 36  1  0
 38 37  1  0
 40 41  1  0
 41 44  1  0
 41 43  1  0
 42 40  2  0
 45 46  1  0
 45 20  1  0
 47 45  1  0
 48 12  1  0
 49 48  1  0
 50 48  1  0
 52 55  1  0
 52 51  1  0
 52 53  1  6
 54 52  1  0
 55 56  2  0
 57 58  1  0
 57 55  1  0
 59 70  2  0
 60 58  1  0
 60 65  1  0
 61 69  1  0
 61 71  1  0
 62 68  1  0
 62 64  1  0
 63 69  1  0
 64 63  1  0
 65 64  2  0
 66 60  2  0
 67 66  1  0
 67 62  2  0
 68 61  1  0
 69 59  1  0
 71 73  2  0
 72 71  1  0
 74 72  1  0
 75 84  2  0
 75 80  1  0
 76 72  1  0
 76 80  1  0
 77 76  1  0
 78 79  1  0
 78 77  1  0
 79 75  1  0
 80 81  2  0
 81 82  1  0
 83 82  2  0
 84 83  1  0
 85 59  1  0
 85 86  1  0
 85 95  1  0
 86 89  1  0
 87 91  1  0
 87 86  1  0
 88 87  2  0
 91 90  1  0
 93 91  1  0
 93 94  1  0
 93 92  1  0
 95 98  1  1
 95 96  1  0
 97 95  1  0
M  ISO  4   3 100  17 100  57 101  58 101
M  END
>  <TORSDO>  (22) 
F 21

>  <SCORE>  (22) 
-14.150

>  <name>  (22) 
21

>  <ligand_id>  (22) 
21

>  <original_smiles>  (22) 
[H]c1c([H])c([H])c2c(c1[H])C([H])([H])C([H])([H])C([H])([H])C2([H])N([H])C(=O)C1([H])N(C(=O)C([H])(N([H])C(=O)C([H])(N([H])C([H])([H])[H])C([H])([H])[H])C(C([H])([H])[H])(C([H])([H])[H])C([H])([H])[H])C([H])([H])c2c([H])c(OC([H])([H])C(=O)C(F)(F)C([H])([H])N([H])c3nc(N([H])C(=O)N4C([H])([H])C([H])([H])C([H])([H])C([H])(n5nc(-c6c([H])c([H])c(Oc7c([H])c([H])c(F)c([H])c7F)c([H])c6[H])c(C(=O)N([H])[H])c5N([H])[H])C4([H])[H])c([H])c(F)c3N([H])[H])c([H])c([H])c2C1([H])[H]

>  <smiles>  (22) 
[H]c1c([H])c([H])c2c(c1[H])C([H])([H])C([H])([H])C([H])([H])C2([H])N([H])C(=O)C1([H])N(C(=O)C([H])(N([H])C(=O)C([H])(N([H])C([H])([H])[H])C([H])([H])[H])C(C([H])([H])[H])(C([H])([H])[H])C([H])([H])[H])C([H])([H])c2c([H])c(OC([H])([H])C(=O)C(F)(F)C([H])([H])N([H])c3nc(N([H])C(=O)N4C([H])([H])C([H])([H])C([H])([H])C([H])(n5nc(-c6c([H])c([H])c(Oc7c([H])c([H])c(F)c([H])c7F)c([H])c6[H])c(C(=O)N([H])[H])c5N([H])[H])C4([H])[H])c([H])c(F)c3N([H])[H])c([H])c([H])c2C1([H])[H]

$$$$
22:0:0
     RDKit          3D

 95103  0  0  1  0  0  0  0  0999 V2000
  -29.2140  -23.9200   21.0890 C   0  0  0  0  0  0  0  0  0  0  0  0
  -29.0990  -23.8590   19.8620 O   0  0  0  0  0  0  0  0  0  0  0  0
  -30.1350  -21.8500   21.4450 C   0  0  0  0  0  3  0  0  0  0  0  0
  -29.7280  -22.9540   21.9450 N   0  0  0  0  0  0  0  0  0  0  0  0
  -30.6920  -20.7340   22.3200 C   0  0  0  0  0  2  0  0  0  0  0  0
  -31.8970  -17.7460   20.2730 C   0  0  0  0  0  3  0  0  0  0  0  0
  -31.8560  -19.1200   20.6510 C   0  0  0  0  0  0  0  0  0  0  0  0
  -30.9520  -19.4200   21.6330 C   0  0  0  0  0  0  0  0  0  0  0  0
  -31.0070  -16.9640   20.9790 C   0  0  0  0  0  0  0  0  0  0  0  0
  -32.6440  -20.0150   20.1020 F   0  0  0  0  0  0  0  0  0  0  0  0
  -30.1070  -17.9650   22.1050 S   0  0  0  0  0  0  0  0  0  0  0  0
  -31.3380  -14.6740   20.1700 C   0  0  0  0  0  0  0  0  0  0  0  0
  -30.9370  -12.5370   19.0030 C   0  0  0  0  0  2  0  0  0  0  0  0
  -29.9730  -12.7720   17.8230 C   0  0  0  0  0  2  0  0  0  0  0  0
  -28.5050  -12.6930   18.2840 C   0  0  0  0  0  2  0  0  0  0  0  0
  -28.2290  -13.5480   19.5510 C   0  0  0  0  0  3  0  0  0  0  0  0
  -29.2950  -13.2690   20.6350 C   0  0  0  0  0  2  0  0  0  0  0  0
  -30.6240  -13.5240   20.0470 N   0  0  0  0  0  0  0  0  0  0  0  0
  -32.4200  -14.8530   19.5990 O   0  0  0  0  0  0  0  0  0  0  0  0
  -30.7440  -15.6270   20.9130 N   0  0  0  0  0  0  0  0  0  0  0  0
  -29.9070  -15.3210   21.3860 H   0  0  0  0  0  0  0  0  0  0  0  0
  -25.8810  -14.2650   20.3290 C   0  0  0  0  0  0  0  0  0  0  0  0
  -24.7850  -13.5390   20.7130 C   0  0  0  0  0  0  0  0  0  0  0  0
  -25.1760  -12.1670   20.6450 C   0  0  0  0  0  0  0  0  0  0  0  0
  -26.8750  -13.3360   20.0560 N   0  0  0  0  0  0  0  0  0  0  0  0
  -26.4540  -12.0680   20.3000 N   0  0  0  0  0  0  0  0  0  0  0  0
  -24.3920  -10.9390   20.8320 C   0  0  0  0  0  0  0  0  0  0  0  0
  -24.7630   -9.9660   21.7870 C   0  0  0  0  0  3  0  0  0  0  0  0
  -23.9840   -8.8020   21.9600 C   0  0  0  0  0  3  0  0  0  0  0  0
  -22.8200   -8.6030   21.1790 C   0  0  0  0  0  0  0  0  0  0  0  0
  -22.4690   -9.5640   20.2140 C   0  0  0  0  0  3  0  0  0  0  0  0
  -23.2490  -10.7200   20.0390 C   0  0  0  0  0  3  0  0  0  0  0  0
  -22.0170   -7.4910   21.2610 O   0  0  0  0  0  0  0  0  0  0  0  0
  -21.8470   -6.8110   22.4400 C   0  0  0  0  0  0  0  0  0  0  0  0
  -21.3530   -7.4440   23.6010 C   0  0  0  0  0  3  0  0  0  0  0  0
  -21.1280   -6.6920   24.7720 C   0  0  0  0  0  3  0  0  0  0  0  0
  -21.3870   -5.3090   24.7820 C   0  0  0  0  0  0  0  0  0  0  0  0
  -21.8750   -4.6760   23.6250 C   0  0  0  0  0  3  0  0  0  0  0  0
  -22.1010   -5.4250   22.4560 C   0  0  0  0  0  0  0  0  0  0  0  0
  -22.5500   -4.8060   21.3380 F   0  0  0  0  0  0  0  0  0  0  0  0
  -21.1650   -4.5850   25.9030 F   0  0  0  0  0  0  0  0  0  0  0  0
  -23.4210  -14.0810   21.0340 C   0  0  0  0  0  0  0  0  0  0  0  0
  -22.6900  -13.4150   21.9220 N   0  0  0  0  0  0  0  0  0  0  0  0
  -23.0140  -15.1290   20.5330 O   0  0  0  0  0  0  0  0  0  0  0  0
  -23.0310  -12.5670   22.3490 H   0  0  0  0  0  0  0  0  0  0  0  0
  -21.7760  -13.7590   22.1780 H   0  0  0  0  0  0  0  0  0  0  0  0
  -26.1120  -15.6280   20.1720 N   0  0  0  0  0  0  0  0  0  0  0  0
  -25.3850  -16.3210   20.3100 H   0  0  0  0  0  0  0  0  0  0  0  0
  -26.9770  -16.0250   19.8270 H   0  0  0  0  0  0  0  0  0  0  0  0
  -28.7250  -25.1720   21.8450 C   0  0  0  0  0  2  0  0  0  0  0  0
  -28.9920  -26.5530   21.1800 C   0  0  0  0  0  3  0  0  0  0  0  0
  -30.4770  -26.8020   20.8600 C   0  0  0  0  0  0  0  0  0  0  0  0
  -31.4230  -26.9880   22.0390 C   0  0  0  0  0  1  0  0  0  0  0  0
  -30.9020  -26.8600   19.7030 O   0  0  0  0  0  0  0  0  0  0  0  0
  -28.2150  -26.6950   19.9850 O   0  0  0  0  0  0  0  0  0  0  0  0
  -24.4690  -31.9050   23.1430 C   0  0  0  0  0  0  0  0  0  0  0  0
  -27.0700  -27.4510   20.0700 C   0  0  0  0  0  0  0  0  0  0  0  0
  -23.2360  -30.4970   21.5210 C   0  0  0  0  0  3  0  0  0  0  0  0
  -24.6710  -28.9410   20.0970 C   0  0  0  0  0  0  0  0  0  0  0  0
  -25.7570  -30.8510   21.2900 C   0  0  0  0  0  2  0  0  0  0  0  0
  -25.8320  -29.4720   20.6730 C   0  0  0  0  0  0  0  0  0  0  0  0
  -27.0350  -28.7340   20.6640 C   0  0  0  0  0  3  0  0  0  0  0  0
  -25.8980  -26.9340   19.4830 C   0  0  0  0  0  3  0  0  0  0  0  0
  -24.6960  -27.6670   19.5020 C   0  0  0  0  0  3  0  0  0  0  0  0
  -23.4280  -29.8020   20.1460 C   0  0  0  0  0  2  0  0  0  0  0  0
  -24.5060  -31.1000   22.0430 N   0  0  0  0  0  0  0  0  0  0  0  0
  -23.3960  -32.1850   23.6950 O   0  0  0  0  0  0  0  0  0  0  0  0
  -22.5930  -29.4860   22.4960 C   0  0  0  0  0  0  0  0  0  0  0  0
  -21.2730  -29.2780   22.3580 N   0  0  0  0  0  0  0  0  0  0  0  0
  -23.2780  -28.8900   23.3320 O   0  0  0  0  0  0  0  0  0  0  0  0
  -20.7830  -29.8150   21.6570 H   0  0  0  0  0  0  0  0  0  0  0  0
  -17.9260  -27.9950   22.7910 C   0  0  0  0  0  0  0  0  0  0  0  0
  -20.4630  -28.3430   23.1360 C   0  0  0  0  0  3  0  0  0  0  0  0
  -20.6290  -26.8960   22.6170 C   0  0  0  0  0  2  0  0  0  0  0  0
  -19.5730  -26.5010   21.5810 C   0  0  0  0  0  2  0  0  0  0  0  0
  -18.1660  -26.6270   22.1740 C   0  0  0  0  0  2  0  0  0  0  0  0
  -19.0060  -28.8060   23.2280 C   0  0  0  0  0  0  0  0  0  0  0  0
  -18.7300  -30.0840   23.7630 C   0  0  0  0  0  3  0  0  0  0  0  0
  -17.4070  -30.5520   23.8640 C   0  0  0  0  0  3  0  0  0  0  0  0
  -16.3400  -29.7370   23.4450 C   0  0  0  0  0  3  0  0  0  0  0  0
  -16.6000  -28.4610   22.9140 C   0  0  0  0  0  3  0  0  0  0  0  0
  -25.7680  -32.5310   23.7440 C   0  0  0  0  0  3  0  0  0  0  0  0
  -25.4670  -33.9260   24.0900 N   0  0  0  0  0  0  0  0  0  0  0  0
  -25.8090  -34.9840   23.3430 C   0  0  0  0  0  0  0  0  0  0  0  0
  -26.4840  -34.8880   22.3130 O   0  0  0  0  0  0  0  0  0  0  0  0
  -24.8710  -34.0740   24.8910 H   0  0  0  0  0  0  0  0  0  0  0  0
  -24.1010  -36.7930   22.9920 C   0  0  0  0  0  1  0  0  0  0  0  0
  -25.3280  -36.3690   23.8130 C   0  0  0  0  0  3  0  0  0  0  0  0
  -27.4600  -37.2250   24.6790 C   0  0  0  0  0  1  0  0  0  0  0  0
  -26.3700  -37.4150   23.7260 N   0  0  0  0  0  0  0  0  0  0  0  0
  -25.9690  -38.3360   23.8840 H   0  0  0  0  0  0  0  0  0  0  0  0
  -26.3120  -31.7470   25.0000 C   0  0  1  0  0  0  0  0  0  0  0  0
  -25.2420  -31.4990   26.0880 C   0  0  0  0  0  1  0  0  0  0  0  0
  -26.8890  -30.3760   24.5760 C   0  0  0  0  0  1  0  0  0  0  0  0
  -27.4730  -32.5380   25.6470 C   0  0  0  0  0  1  0  0  0  0  0  0
  1 50  1  0
  1  4  1  0
  2  1  2  0
  3  4  2  0
  3  5  1  0
  6  7  1  0
  6  9  2  0
  7  8  2  0
  8 11  1  0
  8  5  1  0
  9 11  1  0
 10  7  1  0
 12 20  1  0
 13 18  1  0
 14 15  1  0
 14 13  1  0
 16 15  1  0
 16 25  1  0
 16 17  1  0
 18 12  1  0
 18 17  1  0
 19 12  2  0
 20  9  1  0
 20 21  1  0
 22 23  2  0
 23 42  1  0
 24 23  1  0
 24 27  1  0
 25 26  1  0
 25 22  1  0
 26 24  2  0
 27 28  1  0
 28 29  2  0
 30 33  1  0
 30 29  1  0
 31 30  2  0
 32 31  1  0
 32 27  2  0
 33 34  1  0
 34 39  2  0
 34 35  1  0
 35 36  2  0
 36 37  1  0
 37 41  1  0
 38 37  2  0
 39 38  1  0
 40 39  1  0
 42 43  1  0
 43 46  1  0
 43 45  1  0
 44 42  2  0
 47 48  1  0
 47 22  1  0
 49 47  1  0
 51 50  1  0
 52 51  1  0
 52 53  1  0
 54 52  2  0
 55 57  1  0
 55 51  1  0
 56 67  2  0
 57 62  1  0
 58 66  1  0
 58 68  1  0
 59 65  1  0
 59 61  1  0
 60 66  1  0
 61 60  1  0
 62 61  2  0
 63 64  1  0
 63 57  2  0
 64 59  2  0
 65 58  1  0
 66 56  1  0
 68 70  2  0
 69 68  1  0
 71 69  1  0
 72 81  2  0
 72 77  1  0
 73 69  1  0
 73 77  1  0
 74 73  1  0
 75 76  1  0
 75 74  1  0
 76 72  1  0
 77 78  2  0
 78 79  1  0
 80 79  2  0
 81 80  1  0
 82 56  1  0
 82 83  1  0
 82 92  1  0
 83 86  1  0
 84 88  1  0
 84 83  1  0
 85 84  2  0
 88 87  1  0
 90 88  1  0
 90 91  1  0
 90 89  1  0
 92 95  1  1
 92 93  1  0
 94 92  1  0
M  ISO  4  12 100  20 100  51 101  55 101
M  END
>  <TORSDO>  (23) 
F 22

>  <SCORE>  (23) 
-12.402

>  <name>  (23) 
22

>  <ligand_id>  (23) 
22

>  <original_smiles>  (23) 
[H]C(=NC(=O)C([H])([H])C([H])(Oc1c([H])c([H])c2c(c1[H])C([H])([H])N(C(=O)C([H])(N([H])C(=O)C([H])(N([H])C([H])([H])[H])C([H])([H])[H])C(C([H])([H])[H])(C([H])([H])[H])C([H])([H])[H])C([H])(C(=O)N([H])C1([H])c3c([H])c([H])c([H])c([H])c3C([H])([H])C([H])([H])C1([H])[H])C2([H])[H])C(=O)C([H])([H])[H])C([H])([H])c1sc(N([H])C(=O)N2C([H])([H])C([H])([H])C([H])([H])C([H])(n3nc(-c4c([H])c([H])c(Oc5c([H])c([H])c(F)c([H])c5F)c([H])c4[H])c(C(=O)N([H])[H])c3N([H])[H])C2([H])[H])c([H])c1F

>  <smiles>  (23) 
[H]C(=NC(=O)C([H])([H])C([H])(Oc1c([H])c([H])c2c(c1[H])C([H])([H])N(C(=O)C([H])(N([H])C(=O)C([H])(N([H])C([H])([H])[H])C([H])([H])[H])C(C([H])([H])[H])(C([H])([H])[H])C([H])([H])[H])C([H])(C(=O)N([H])C1([H])c3c([H])c([H])c([H])c([H])c3C([H])([H])C([H])([H])C1([H])[H])C2([H])[H])C(=O)C([H])([H])[H])C([H])([H])c1sc(N([H])C(=O)N2C([H])([H])C([H])([H])C([H])([H])C([H])(n3nc(-c4c([H])c([H])c(Oc5c([H])c([H])c(F)c([H])c5F)c([H])c4[H])c(C(=O)N([H])[H])c3N([H])[H])C2([H])[H])c([H])c1F

$$$$
23:0:0
     RDKit          3D

 94102  0  0  1  0  0  0  0  0999 V2000
  -29.1690  -22.6360   20.2510 C   0  0  0  0  0  3  0  0  0  0  0  0
  -30.1590  -21.6820   20.3780 C   0  0  0  0  0  0  0  0  0  0  0  0
  -31.1510  -17.8810   20.2550 C   0  0  0  0  0  3  0  0  0  0  0  0
  -28.7880  -18.0000   20.6170 C   0  0  0  0  0  3  0  0  0  0  0  0
  -30.0500  -20.1410   20.3710 C   0  0  0  0  0  0  0  0  0  0  0  0
  -29.9410  -17.1800   20.4780 C   0  0  0  0  0  0  0  0  0  0  0  0
  -31.2020  -19.3040   20.2020 C   0  0  0  0  0  0  0  0  0  0  0  0
  -28.8330  -19.4270   20.5620 C   0  0  0  0  0  0  0  0  0  0  0  0
  -32.4200  -19.8650   19.9980 F   0  0  0  0  0  0  0  0  0  0  0  0
  -27.6720  -20.1070   20.7290 F   0  0  0  0  0  0  0  0  0  0  0  0
  -30.6070  -14.6790   20.1840 C   0  0  0  0  0  0  0  0  0  0  0  0
  -30.3500  -12.4700   19.0790 C   0  0  0  0  0  2  0  0  0  0  0  0
  -29.3620  -12.6360   17.9020 C   0  0  0  0  0  2  0  0  0  0  0  0
  -27.9040  -12.4720   18.3810 C   0  0  0  0  0  2  0  0  0  0  0  0
  -27.5950  -13.3080   19.6520 C   0  0  0  0  0  3  0  0  0  0  0  0
  -28.6920  -13.1170   20.7240 C   0  0  0  0  0  2  0  0  0  0  0  0
  -29.9840  -13.4620   20.1090 N   0  0  0  0  0  0  0  0  0  0  0  0
  -31.7550  -14.8390   19.7610 O   0  0  0  0  0  0  0  0  0  0  0  0
  -29.8110  -15.7230   20.5790 N   0  0  0  0  0  0  0  0  0  0  0  0
  -28.9090  -15.4040   20.8990 H   0  0  0  0  0  0  0  0  0  0  0  0
  -25.2320  -13.9040   20.4660 C   0  0  0  0  0  0  0  0  0  0  0  0
  -24.1760  -13.1280   20.8580 C   0  0  0  0  0  0  0  0  0  0  0  0
  -24.6300  -11.7760   20.7840 C   0  0  0  0  0  0  0  0  0  0  0  0
  -26.2630  -13.0230   20.1770 N   0  0  0  0  0  0  0  0  0  0  0  0
  -25.9080  -11.7370   20.4280 N   0  0  0  0  0  0  0  0  0  0  0  0
  -23.9040  -10.5130   20.9730 C   0  0  0  0  0  0  0  0  0  0  0  0
  -24.3400   -9.5440   21.9030 C   0  0  0  0  0  3  0  0  0  0  0  0
  -23.6170   -8.3450   22.0810 C   0  0  0  0  0  3  0  0  0  0  0  0
  -22.4430   -8.1070   21.3260 C   0  0  0  0  0  0  0  0  0  0  0  0
  -22.0260   -9.0640   20.3850 C   0  0  0  0  0  3  0  0  0  0  0  0
  -22.7500  -10.2550   20.2060 C   0  0  0  0  0  3  0  0  0  0  0  0
  -21.6910   -6.9600   21.4130 O   0  0  0  0  0  0  0  0  0  0  0  0
  -21.6070   -6.2410   22.5780 C   0  0  0  0  0  0  0  0  0  0  0  0
  -21.1250   -6.8140   23.7750 C   0  0  0  0  0  3  0  0  0  0  0  0
  -20.9880   -6.0210   24.9310 C   0  0  0  0  0  3  0  0  0  0  0  0
  -21.3240   -4.6540   24.8920 C   0  0  0  0  0  0  0  0  0  0  0  0
  -21.7990   -4.0800   23.6990 C   0  0  0  0  0  3  0  0  0  0  0  0
  -21.9360   -4.8710   22.5460 C   0  0  0  0  0  0  0  0  0  0  0  0
  -22.3740   -4.3080   21.3940 F   0  0  0  0  0  0  0  0  0  0  0  0
  -21.1870   -3.8900   26.0000 F   0  0  0  0  0  0  0  0  0  0  0  0
  -22.7900  -13.6050   21.1890 C   0  0  0  0  0  0  0  0  0  0  0  0
  -22.0890  -12.8930   22.0640 N   0  0  0  0  0  0  0  0  0  0  0  0
  -22.3390  -14.6430   20.7060 O   0  0  0  0  0  0  0  0  0  0  0  0
  -22.4670  -12.0530   22.4760 H   0  0  0  0  0  0  0  0  0  0  0  0
  -21.1610  -13.1940   22.3270 H   0  0  0  0  0  0  0  0  0  0  0  0
  -25.3980  -15.2780   20.3110 N   0  0  0  0  0  0  0  0  0  0  0  0
  -24.6340  -15.9290   20.4540 H   0  0  0  0  0  0  0  0  0  0  0  0
  -26.2190  -15.7120   19.9110 H   0  0  0  0  0  0  0  0  0  0  0  0
  -29.3360  -24.1610   20.3170 C   0  0  0  0  0  0  0  0  0  0  0  0
  -30.3810  -24.7040   20.6960 O   0  0  0  0  0  0  0  0  0  0  0  0
  -28.1570  -25.1130   19.9100 C   0  0  0  0  0  2  0  0  0  0  0  0
  -28.3590  -26.5510   20.1930 O   0  0  0  0  0  0  0  0  0  0  0  0
  -24.6120  -31.8880   23.2610 C   0  0  0  0  0  0  0  0  0  0  0  0
  -27.2300  -27.3790   20.1550 C   0  0  0  0  0  0  0  0  0  0  0  0
  -23.4060  -30.5020   21.6110 C   0  0  0  0  0  3  0  0  0  0  0  0
  -24.8560  -28.9700   20.1690 C   0  0  0  0  0  0  0  0  0  0  0  0
  -25.9430  -30.8320   21.4250 C   0  0  0  0  0  2  0  0  0  0  0  0
  -26.0240  -29.4600   20.7660 C   0  0  0  0  0  0  0  0  0  0  0  0
  -27.2130  -28.6760   20.7500 C   0  0  0  0  0  3  0  0  0  0  0  0
  -26.0350  -26.9390   19.5360 C   0  0  0  0  0  3  0  0  0  0  0  0
  -24.8620  -27.7140   19.5460 C   0  0  0  0  0  3  0  0  0  0  0  0
  -23.6170  -29.8390   20.2250 C   0  0  0  0  0  2  0  0  0  0  0  0
  -24.6720  -31.0900   22.1560 N   0  0  0  0  0  0  0  0  0  0  0  0
  -23.5280  -32.1600   23.8000 O   0  0  0  0  0  0  0  0  0  0  0  0
  -22.7480  -29.4750   22.5620 C   0  0  0  0  0  0  0  0  0  0  0  0
  -21.4220  -29.2960   22.4340 N   0  0  0  0  0  0  0  0  0  0  0  0
  -23.4280  -28.8430   23.3740 O   0  0  0  0  0  0  0  0  0  0  0  0
  -20.9320  -29.8590   21.7520 H   0  0  0  0  0  0  0  0  0  0  0  0
  -18.0450  -28.1030   22.9290 C   0  0  0  0  0  0  0  0  0  0  0  0
  -20.6030  -28.3530   23.1970 C   0  0  0  0  0  3  0  0  0  0  0  0
  -20.7010  -26.9270   22.6070 C   0  0  0  0  0  2  0  0  0  0  0  0
  -19.5970  -26.6170   21.5920 C   0  0  0  0  0  2  0  0  0  0  0  0
  -18.2170  -26.7590   22.2420 C   0  0  0  0  0  2  0  0  0  0  0  0
  -19.1660  -28.8570   23.3640 C   0  0  0  0  0  0  0  0  0  0  0  0
  -18.9500  -30.1160   23.9680 C   0  0  0  0  0  3  0  0  0  0  0  0
  -17.6470  -30.6180   24.1420 C   0  0  0  0  0  3  0  0  0  0  0  0
  -16.5400  -29.8590   23.7230 C   0  0  0  0  0  3  0  0  0  0  0  0
  -16.7410  -28.6030   23.1220 C   0  0  0  0  0  3  0  0  0  0  0  0
  -25.8950  -32.5150   23.8870 C   0  0  0  0  0  3  0  0  0  0  0  0
  -26.4070  -31.7390   25.1610 C   0  0  1  0  0  0  0  0  0  0  0  0
  -25.3120  -31.5010   26.2270 C   0  0  0  0  0  1  0  0  0  0  0  0
  -26.9900  -30.3630   24.7670 C   0  0  0  0  0  1  0  0  0  0  0  0
  -27.5570  -32.5310   25.8280 C   0  0  0  0  0  1  0  0  0  0  0  0
  -25.5870  -33.9130   24.2210 N   0  0  0  0  0  0  0  0  0  0  0  0
  -25.8970  -34.9650   23.4520 C   0  0  0  0  0  0  0  0  0  0  0  0
  -26.5420  -34.8630   22.4050 O   0  0  0  0  0  0  0  0  0  0  0  0
  -25.0110  -34.0660   25.0350 H   0  0  0  0  0  0  0  0  0  0  0  0
  -24.1410  -36.7420   23.1550 C   0  0  0  0  0  1  0  0  0  0  0  0
  -25.4150  -36.3530   23.9200 C   0  0  0  0  0  3  0  0  0  0  0  0
  -27.5700  -37.2640   24.6660 C   0  0  0  0  0  1  0  0  0  0  0  0
  -26.4340  -37.4140   23.7610 N   0  0  0  0  0  0  0  0  0  0  0  0
  -26.0240  -38.3320   23.9170 H   0  0  0  0  0  0  0  0  0  0  0  0
  -31.4230  -22.0950   20.5750 O   0  0  0  0  0  0  0  0  0  0  0  0
  -31.9910  -21.3330   20.4840 H   0  0  0  0  0  0  0  0  0  0  0  0
  1 49  1  0
  1  2  2  0
  2 93  1  0
  3  6  1  0
  5  2  1  0
  5  8  2  0
  6 19  1  0
  6  4  2  0
  7  3  2  0
  7  5  1  0
  8  4  1  0
  8 10  1  0
  9  7  1  0
 11 19  1  0
 12 17  1  0
 13 14  1  0
 13 12  1  0
 15 14  1  0
 15 24  1  0
 15 16  1  0
 17 11  1  0
 17 16  1  0
 18 11  2  0
 19 20  1  0
 21 22  2  0
 22 41  1  0
 23 22  1  0
 23 26  1  0
 24 25  1  0
 24 21  1  0
 25 23  2  0
 26 27  1  0
 27 28  2  0
 29 32  1  0
 29 28  1  0
 30 29  2  0
 31 30  1  0
 31 26  2  0
 32 33  1  0
 33 34  1  0
 34 35  2  0
 36 35  1  0
 36 40  1  0
 37 36  2  0
 38 33  2  0
 38 37  1  0
 39 38  1  0
 41 42  1  0
 42 45  1  0
 42 44  1  0
 43 41  2  0
 46 47  1  0
 46 21  1  0
 48 46  1  0
 49 50  2  0
 51 52  1  0
 51 49  1  0
 53 64  2  0
 54 52  1  0
 54 59  1  0
 55 63  1  0
 55 65  1  0
 56 62  1  0
 56 58  1  0
 57 63  1  0
 58 57  1  0
 59 58  2  0
 60 61  1  0
 60 54  2  0
 61 56  2  0
 62 55  1  0
 63 53  1  0
 65 67  2  0
 66 65  1  0
 68 66  1  0
 69 78  2  0
 69 74  1  0
 70 66  1  0
 70 74  1  0
 71 70  1  0
 72 73  1  0
 72 71  1  0
 73 69  1  0
 74 75  2  0
 75 76  1  0
 77 76  2  0
 78 77  1  0
 79 53  1  0
 79 84  1  0
 79 80  1  0
 80 83  1  1
 80 81  1  0
 82 80  1  0
 84 87  1  0
 85 89  1  0
 85 84  1  0
 86 85  2  0
 89 88  1  0
 91 92  1  0
 91 89  1  0
 91 90  1  0
 94 93  1  0
M  ISO  4  11 100  19 100  51 101  52 101
M  END
>  <TORSDO>  (24) 
F 20

>  <SCORE>  (24) 
-14.229

>  <name>  (24) 
23

>  <ligand_id>  (24) 
23

>  <original_smiles>  (24) 
[H]OC(=C([H])C(=O)C([H])([H])Oc1c([H])c([H])c2c(c1[H])C([H])([H])N(C(=O)C([H])(N([H])C(=O)C([H])(N([H])C([H])([H])[H])C([H])([H])[H])C(C([H])([H])[H])(C([H])([H])[H])C([H])([H])[H])C([H])(C(=O)N([H])C1([H])c3c([H])c([H])c([H])c([H])c3C([H])([H])C([H])([H])C1([H])[H])C2([H])[H])c1c(F)c([H])c(N([H])C(=O)N2C([H])([H])C([H])([H])C([H])([H])C([H])(n3nc(-c4c([H])c([H])c(Oc5c([H])c([H])c(F)c([H])c5F)c([H])c4[H])c(C(=O)N([H])[H])c3N([H])[H])C2([H])[H])c([H])c1F

>  <smiles>  (24) 
[H]OC(=C([H])C(=O)C([H])([H])Oc1c([H])c([H])c2c(c1[H])C([H])([H])N(C(=O)C([H])(N([H])C(=O)C([H])(N([H])C([H])([H])[H])C([H])([H])[H])C(C([H])([H])[H])(C([H])([H])[H])C([H])([H])[H])C([H])(C(=O)N([H])C1([H])c3c([H])c([H])c([H])c([H])c3C([H])([H])C([H])([H])C1([H])[H])C2([H])[H])c1c(F)c([H])c(N([H])C(=O)N2C([H])([H])C([H])([H])C([H])([H])C([H])(n3nc(-c4c([H])c([H])c(Oc5c([H])c([H])c(F)c([H])c5F)c([H])c4[H])c(C(=O)N([H])[H])c3N([H])[H])C2([H])[H])c([H])c1F

$$$$
24:0:0
     RDKit          3D

100108  0  0  1  0  0  0  0  0999 V2000
  -32.0200  -21.7780   19.9810 C   0  0  0  0  0  1  0  0  0  0  0  0
  -30.5220  -21.4070   20.0100 C   0  0  0  0  0  3  0  0  0  0  0  0
  -31.2690  -19.1140   21.0130 C   0  0  0  0  0  3  0  0  0  0  0  0
  -30.2770  -19.8970   20.3600 C   0  0  0  0  0  0  0  0  0  0  0  0
  -29.1090  -19.2000   19.9420 C   0  0  0  0  0  0  0  0  0  0  0  0
  -30.0020  -17.0190   20.7140 C   0  0  0  0  0  0  0  0  0  0  0  0
  -31.1450  -17.7090   21.1810 C   0  0  0  0  0  0  0  0  0  0  0  0
  -28.9720  -17.7970   20.1350 C   0  0  0  0  0  0  0  0  0  0  0  0
  -32.1280  -17.0380   21.8260 F   0  0  0  0  0  0  0  0  0  0  0  0
  -27.8240  -17.1850   19.7450 F   0  0  0  0  0  0  0  0  0  0  0  0
  -30.5590  -14.5860   20.3790 C   0  0  0  0  0  0  0  0  0  0  0  0
  -30.2990  -12.4120   19.2220 C   0  0  0  0  0  2  0  0  0  0  0  0
  -29.3430  -12.5940   18.0240 C   0  0  0  0  0  2  0  0  0  0  0  0
  -27.8720  -12.4420   18.4630 C   0  0  0  0  0  2  0  0  0  0  0  0
  -27.5390  -13.2750   19.7290 C   0  0  0  0  0  3  0  0  0  0  0  0
  -28.5990  -13.0600   20.8300 C   0  0  0  0  0  2  0  0  0  0  0  0
  -29.9150  -13.3890   20.2570 N   0  0  0  0  0  0  0  0  0  0  0  0
  -31.6920  -14.7670   19.9270 O   0  0  0  0  0  0  0  0  0  0  0  0
  -29.8050  -15.5960   20.8740 N   0  0  0  0  0  0  0  0  0  0  0  0
  -28.8600  -15.3210   21.0920 H   0  0  0  0  0  0  0  0  0  0  0  0
  -25.1470  -13.8870   20.4460 C   0  0  0  0  0  0  0  0  0  0  0  0
  -24.0800  -13.1200   20.8280 C   0  0  0  0  0  0  0  0  0  0  0  0
  -24.5380  -11.7660   20.8030 C   0  0  0  0  0  0  0  0  0  0  0  0
  -26.1900  -13.0030   20.2160 N   0  0  0  0  0  0  0  0  0  0  0  0
  -25.8280  -11.7220   20.4900 N   0  0  0  0  0  0  0  0  0  0  0  0
  -23.8110  -10.5070   21.0070 C   0  0  0  0  0  0  0  0  0  0  0  0
  -24.2540   -9.5430   21.9390 C   0  0  0  0  0  3  0  0  0  0  0  0
  -23.5320   -8.3460   22.1290 C   0  0  0  0  0  3  0  0  0  0  0  0
  -22.3530   -8.1020   21.3830 C   0  0  0  0  0  0  0  0  0  0  0  0
  -21.9290   -9.0550   20.4390 C   0  0  0  0  0  3  0  0  0  0  0  0
  -22.6510  -10.2440   20.2490 C   0  0  0  0  0  3  0  0  0  0  0  0
  -21.5990   -6.9570   21.4810 O   0  0  0  0  0  0  0  0  0  0  0  0
  -21.5690   -6.2120   22.6330 C   0  0  0  0  0  0  0  0  0  0  0  0
  -21.1740   -6.7670   23.8700 C   0  0  0  0  0  3  0  0  0  0  0  0
  -21.0910   -5.9480   25.0140 C   0  0  0  0  0  3  0  0  0  0  0  0
  -21.3900   -4.5760   24.9220 C   0  0  0  0  0  0  0  0  0  0  0  0
  -21.7790   -4.0200   23.6910 C   0  0  0  0  0  3  0  0  0  0  0  0
  -21.8650   -4.8360   22.5500 C   0  0  0  0  0  0  0  0  0  0  0  0
  -22.2170   -4.2920   21.3590 F   0  0  0  0  0  0  0  0  0  0  0  0
  -21.3040   -3.7870   26.0190 F   0  0  0  0  0  0  0  0  0  0  0  0
  -22.6830  -13.5990   21.1050 C   0  0  0  0  0  0  0  0  0  0  0  0
  -21.9580  -12.9070   21.9760 N   0  0  0  0  0  0  0  0  0  0  0  0
  -22.2440  -14.6240   20.5840 O   0  0  0  0  0  0  0  0  0  0  0  0
  -22.3260  -12.0820   22.4230 H   0  0  0  0  0  0  0  0  0  0  0  0
  -21.0200  -13.2090   22.1980 H   0  0  0  0  0  0  0  0  0  0  0  0
  -25.3140  -15.2570   20.2620 N   0  0  0  0  0  0  0  0  0  0  0  0
  -24.5460  -15.9100   20.3770 H   0  0  0  0  0  0  0  0  0  0  0  0
  -26.1600  -15.7010   19.9270 H   0  0  0  0  0  0  0  0  0  0  0  0
  -28.0650  -19.8780   19.3120 N   0  0  0  0  0  0  0  0  0  0  0  0
  -28.0130  -20.8790   19.4580 H   0  0  0  0  0  0  0  0  0  0  0  0
  -27.1630  -19.4220   19.3850 H   0  0  0  0  0  0  0  0  0  0  0  0
  -29.4150  -23.6800   20.3780 C   0  0  0  0  0  0  0  0  0  0  0  0
  -29.7960  -22.4400   20.7980 N   0  0  0  0  0  0  0  0  0  0  0  0
  -29.4910  -24.0160   19.1970 O   0  0  0  0  0  0  0  0  0  0  0  0
  -29.6990  -22.2870   21.7960 H   0  0  0  0  0  0  0  0  0  0  0  0
  -28.4920  -25.8350   21.3390 C   0  0  0  0  0  3  0  0  0  0  0  0
  -28.9530  -24.5540   21.4750 C   0  0  0  0  0  0  0  0  0  0  0  0
  -28.9880  -24.0440   22.7200 O   0  0  0  0  0  0  0  0  0  0  0  0
  -28.6520  -24.7050   23.3110 H   0  0  0  0  0  0  0  0  0  0  0  0
  -28.3530  -26.6080   20.1970 O   0  0  0  0  0  0  0  0  0  0  0  0
  -24.5820  -31.8970   23.2360 C   0  0  0  0  0  0  0  0  0  0  0  0
  -27.2350  -27.4270   20.1710 C   0  0  0  0  0  0  0  0  0  0  0  0
  -23.3790  -30.4890   21.5960 C   0  0  0  0  0  3  0  0  0  0  0  0
  -24.8390  -28.9480   20.1670 C   0  0  0  0  0  0  0  0  0  0  0  0
  -25.9060  -30.8470   21.3960 C   0  0  0  0  0  2  0  0  0  0  0  0
  -25.9970  -29.4700   20.7600 C   0  0  0  0  0  0  0  0  0  0  0  0
  -27.1980  -28.7160   20.7620 C   0  0  0  0  0  3  0  0  0  0  0  0
  -26.0650  -26.9320   19.5600 C   0  0  0  0  0  3  0  0  0  0  0  0
  -24.8690  -27.6790   19.5610 C   0  0  0  0  0  3  0  0  0  0  0  0
  -23.5910  -29.8050   20.2170 C   0  0  0  0  0  2  0  0  0  0  0  0
  -24.6410  -31.0930   22.1350 N   0  0  0  0  0  0  0  0  0  0  0  0
  -23.5010  -32.1690   23.7770 O   0  0  0  0  0  0  0  0  0  0  0  0
  -22.7280  -29.4700   22.5610 C   0  0  0  0  0  0  0  0  0  0  0  0
  -21.4030  -29.2840   22.4340 N   0  0  0  0  0  0  0  0  0  0  0  0
  -23.4110  -28.8510   23.3800 O   0  0  0  0  0  0  0  0  0  0  0  0
  -20.9140  -29.8360   21.7420 H   0  0  0  0  0  0  0  0  0  0  0  0
  -18.0330  -28.0710   22.9280 C   0  0  0  0  0  0  0  0  0  0  0  0
  -20.5890  -28.3450   23.2070 C   0  0  0  0  0  3  0  0  0  0  0  0
  -20.7020  -26.9130   22.6370 C   0  0  0  0  0  2  0  0  0  0  0  0
  -19.6040  -26.5800   21.6220 C   0  0  0  0  0  2  0  0  0  0  0  0
  -18.2190  -26.7200   22.2600 C   0  0  0  0  0  2  0  0  0  0  0  0
  -19.1460  -28.8410   23.3580 C   0  0  0  0  0  0  0  0  0  0  0  0
  -18.9180  -30.1070   23.9410 C   0  0  0  0  0  3  0  0  0  0  0  0
  -17.6090  -30.5990   24.1030 C   0  0  0  0  0  3  0  0  0  0  0  0
  -16.5110  -29.8270   23.6880 C   0  0  0  0  0  3  0  0  0  0  0  0
  -16.7240  -28.5650   23.1050 C   0  0  0  0  0  3  0  0  0  0  0  0
  -25.8670  -32.5310   23.8550 C   0  0  0  0  0  3  0  0  0  0  0  0
  -25.5580  -33.9310   24.1770 N   0  0  0  0  0  0  0  0  0  0  0  0
  -25.8930  -34.9790   23.4140 C   0  0  0  0  0  0  0  0  0  0  0  0
  -26.5670  -34.8690   22.3850 O   0  0  0  0  0  0  0  0  0  0  0  0
  -24.9610  -34.0920   24.9740 H   0  0  0  0  0  0  0  0  0  0  0  0
  -24.1710  -36.7730   23.0400 C   0  0  0  0  0  1  0  0  0  0  0  0
  -25.4060  -36.3700   23.8600 C   0  0  0  0  0  3  0  0  0  0  0  0
  -27.5400  -37.2540   24.6950 C   0  0  0  0  0  1  0  0  0  0  0  0
  -26.4420  -37.4200   23.7480 N   0  0  0  0  0  0  0  0  0  0  0  0
  -26.0390  -38.3430   23.8850 H   0  0  0  0  0  0  0  0  0  0  0  0
  -26.3850  -31.7650   25.1320 C   0  0  1  0  0  0  0  0  0  0  0  0
  -25.2940  -31.5320   26.2050 C   0  0  0  0  0  1  0  0  0  0  0  0
  -26.9680  -30.3840   24.7430 C   0  0  0  0  0  1  0  0  0  0  0  0
  -27.5390  -32.5610   25.7860 C   0  0  0  0  0  1  0  0  0  0  0  0
  2  1  1  0
  2  4  1  0
  2 53  1  0
  3  7  1  0
  4  3  2  0
  5  8  2  0
  5  4  1  0
  6 19  1  0
  6  7  2  0
  7  9  1  0
  8  6  1  0
 10  8  1  0
 11 19  1  0
 12 17  1  0
 13 14  1  0
 13 12  1  0
 15 14  1  0
 15 24  1  0
 15 16  1  0
 17 11  1  0
 17 16  1  0
 18 11  2  0
 19 20  1  0
 21 22  2  0
 22 41  1  0
 23 22  1  0
 23 26  1  0
 24 21  1  0
 24 25  1  0
 25 23  2  0
 26 27  1  0
 27 28  2  0
 29 32  1  0
 29 28  1  0
 30 29  2  0
 31 30  1  0
 31 26  2  0
 32 33  1  0
 33 34  1  0
 34 35  2  0
 36 35  1  0
 36 40  1  0
 37 36  2  0
 38 33  2  0
 38 37  1  0
 39 38  1  0
 41 42  1  0
 42 45  1  0
 42 44  1  0
 43 41  2  0
 46 47  1  0
 46 21  1  0
 48 46  1  0
 49 51  1  0
 49 50  1  0
 49  5  1  0
 52 53  1  0
 52 57  1  0
 53 55  1  0
 54 52  2  0
 56 57  2  0
 57 58  1  0
 58 59  1  0
 60 56  1  0
 61 72  2  0
 62 60  1  0
 62 67  1  0
 63 71  1  0
 63 73  1  0
 64 70  1  0
 64 66  1  0
 65 71  1  0
 66 67  2  0
 66 65  1  0
 68 69  1  0
 68 62  2  0
 69 64  2  0
 70 63  1  0
 71 61  1  0
 73 75  2  0
 74 73  1  0
 76 74  1  0
 77 86  2  0
 77 82  1  0
 78 74  1  0
 78 82  1  0
 79 78  1  0
 80 81  1  0
 80 79  1  0
 81 77  1  0
 82 83  2  0
 83 84  1  0
 85 84  2  0
 86 85  1  0
 87 61  1  0
 87 88  1  0
 87 97  1  0
 88 91  1  0
 89 93  1  0
 89 88  1  0
 90 89  2  0
 93 92  1  0
 95 93  1  0
 95 96  1  0
 95 94  1  0
 97100  1  1
 97 98  1  0
 99 97  1  0
M  ISO  4  11 100  19 100  56 101  60 101
M  END
>  <TORSDO>  (25) 
F 21

>  <SCORE>  (25) 
-14.216

>  <name>  (25) 
24

>  <ligand_id>  (25) 
24

>  <original_smiles>  (25) 
[H]OC(C(=O)N([H])C([H])(c1c([H])c(F)c(N([H])C(=O)N2C([H])([H])C([H])([H])C([H])([H])C([H])(n3nc(-c4c([H])c([H])c(Oc5c([H])c([H])c(F)c([H])c5F)c([H])c4[H])c(C(=O)N([H])[H])c3N([H])[H])C2([H])[H])c(F)c1N([H])[H])C([H])([H])[H])=C([H])Oc1c([H])c([H])c2c(c1[H])C([H])([H])N(C(=O)C([H])(N([H])C(=O)C([H])(N([H])C([H])([H])[H])C([H])([H])[H])C(C([H])([H])[H])(C([H])([H])[H])C([H])([H])[H])C([H])(C(=O)N([H])C1([H])c3c([H])c([H])c([H])c([H])c3C([H])([H])C([H])([H])C1([H])[H])C2([H])[H]

>  <smiles>  (25) 
[H]OC(C(=O)N([H])C([H])(c1c([H])c(F)c(N([H])C(=O)N2C([H])([H])C([H])([H])C([H])([H])C([H])(n3nc(-c4c([H])c([H])c(Oc5c([H])c([H])c(F)c([H])c5F)c([H])c4[H])c(C(=O)N([H])[H])c3N([H])[H])C2([H])[H])c(F)c1N([H])[H])C([H])([H])[H])=C([H])Oc1c([H])c([H])c2c(c1[H])C([H])([H])N(C(=O)C([H])(N([H])C(=O)C([H])(N([H])C([H])([H])[H])C([H])([H])[H])C(C([H])([H])[H])(C([H])([H])[H])C([H])([H])[H])C([H])(C(=O)N([H])C1([H])c3c([H])c([H])c([H])c([H])c3C([H])([H])C([H])([H])C1([H])[H])C2([H])[H]

$$$$
25:0:0
     RDKit          3D

 92100  0  0  1  0  0  0  0  0999 V2000
  -29.2840  -22.3790   19.9490 C   0  0  0  0  0  0  0  0  0  0  0  0
  -29.1780  -21.1730   20.6250 N   0  0  0  0  0  0  0  0  0  0  0  0
  -29.6540  -22.3970   18.7740 O   0  0  0  0  0  0  0  0  0  0  0  0
  -28.7470  -21.2650   21.5360 H   0  0  0  0  0  0  0  0  0  0  0  0
  -30.5360  -19.4050   19.4090 C   0  0  0  0  0  3  0  0  0  0  0  0
  -30.7710  -17.9690   19.4000 C   0  0  0  0  0  3  0  0  0  0  0  0
  -29.5890  -19.8650   20.3060 C   0  0  0  0  0  0  0  0  0  0  0  0
  -30.0060  -17.2190   20.2730 C   0  0  0  0  0  0  0  0  0  0  0  0
  -28.9780  -18.4020   21.1370 S   0  0  0  0  0  0  0  0  0  0  0  0
  -30.6750  -14.7650   20.0050 C   0  0  0  0  0  0  0  0  0  0  0  0
  -30.4190  -12.5260   18.9260 C   0  0  0  0  0  2  0  0  0  0  0  0
  -29.4000  -12.6570   17.7720 C   0  0  0  0  0  2  0  0  0  0  0  0
  -27.9580  -12.4750   18.2900 C   0  0  0  0  0  2  0  0  0  0  0  0
  -27.6750  -13.3130   19.5650 C   0  0  0  0  0  3  0  0  0  0  0  0
  -28.8030  -13.1560   20.6100 C   0  0  0  0  0  2  0  0  0  0  0  0
  -30.0670  -13.5300   19.9570 N   0  0  0  0  0  0  0  0  0  0  0  0
  -31.8050  -14.9170   19.5300 O   0  0  0  0  0  0  0  0  0  0  0  0
  -29.9250  -15.8290   20.4740 N   0  0  0  0  0  0  0  0  0  0  0  0
  -29.0990  -15.5320   20.9710 H   0  0  0  0  0  0  0  0  0  0  0  0
  -25.3380  -13.8890   20.4580 C   0  0  0  0  0  0  0  0  0  0  0  0
  -24.2950  -13.1050   20.8730 C   0  0  0  0  0  0  0  0  0  0  0  0
  -24.7510  -11.7550   20.7720 C   0  0  0  0  0  0  0  0  0  0  0  0
  -26.3610  -13.0140   20.1290 N   0  0  0  0  0  0  0  0  0  0  0  0
  -26.0180  -11.7250   20.3790 N   0  0  0  0  0  0  0  0  0  0  0  0
  -24.0340  -10.4880   20.9710 C   0  0  0  0  0  0  0  0  0  0  0  0
  -24.4900   -9.5180   21.8900 C   0  0  0  0  0  3  0  0  0  0  0  0
  -23.7720   -8.3170   22.0790 C   0  0  0  0  0  3  0  0  0  0  0  0
  -22.5840   -8.0780   21.3480 C   0  0  0  0  0  0  0  0  0  0  0  0
  -22.1470   -9.0380   20.4180 C   0  0  0  0  0  3  0  0  0  0  0  0
  -22.8650  -10.2290   20.2270 C   0  0  0  0  0  3  0  0  0  0  0  0
  -21.8370   -6.9290   21.4460 O   0  0  0  0  0  0  0  0  0  0  0  0
  -21.7720   -6.2100   22.6120 C   0  0  0  0  0  0  0  0  0  0  0  0
  -21.2940   -6.7780   23.8130 C   0  0  0  0  0  3  0  0  0  0  0  0
  -21.1790   -5.9830   24.9710 C   0  0  0  0  0  3  0  0  0  0  0  0
  -21.5320   -4.6210   24.9290 C   0  0  0  0  0  0  0  0  0  0  0  0
  -22.0040   -4.0530   23.7320 C   0  0  0  0  0  3  0  0  0  0  0  0
  -22.1200   -4.8440   22.5770 C   0  0  0  0  0  0  0  0  0  0  0  0
  -22.5550   -4.2860   21.4220 F   0  0  0  0  0  0  0  0  0  0  0  0
  -21.4150   -3.8560   26.0390 F   0  0  0  0  0  0  0  0  0  0  0  0
  -22.9200  -13.5770   21.2500 C   0  0  0  0  0  0  0  0  0  0  0  0
  -22.2480  -12.8560   22.1400 N   0  0  0  0  0  0  0  0  0  0  0  0
  -22.4530  -14.6170   20.7900 O   0  0  0  0  0  0  0  0  0  0  0  0
  -22.6400  -12.0130   22.5340 H   0  0  0  0  0  0  0  0  0  0  0  0
  -21.3280  -13.1520   22.4350 H   0  0  0  0  0  0  0  0  0  0  0  0
  -25.4950  -15.2640   20.3100 N   0  0  0  0  0  0  0  0  0  0  0  0
  -24.7360  -15.9140   20.4870 H   0  0  0  0  0  0  0  0  0  0  0  0
  -26.3150  -15.7110   19.9210 H   0  0  0  0  0  0  0  0  0  0  0  0
  -30.3200  -24.3120   21.1930 C   0  0  0  0  0  1  0  0  0  0  0  0
  -28.0160  -23.5690   21.8570 C   0  0  0  0  0  1  0  0  0  0  0  0
  -28.9670  -23.7960   20.6630 C   0  0  2  0  0  0  0  0  0  0  0  0
  -28.3400  -24.9860   19.7520 C   0  0  0  0  0  2  0  0  0  0  0  0
  -28.3550  -26.4220   20.2160 O   0  0  0  0  0  0  0  0  0  0  0  0
  -24.5960  -31.8610   23.1870 C   0  0  0  0  0  0  0  0  0  0  0  0
  -27.2340  -27.2830   20.1270 C   0  0  0  0  0  0  0  0  0  0  0  0
  -23.4070  -30.4630   21.5380 C   0  0  0  0  0  3  0  0  0  0  0  0
  -24.8690  -28.9230   20.1080 C   0  0  0  0  0  0  0  0  0  0  0  0
  -25.9490  -30.7780   21.3730 C   0  0  0  0  0  2  0  0  0  0  0  0
  -26.0340  -29.4000   20.7200 C   0  0  0  0  0  0  0  0  0  0  0  0
  -27.2140  -28.5900   20.7240 C   0  0  0  0  0  3  0  0  0  0  0  0
  -26.0470  -26.8840   19.4670 C   0  0  0  0  0  3  0  0  0  0  0  0
  -24.8810  -27.6740   19.4730 C   0  0  0  0  0  3  0  0  0  0  0  0
  -23.6300  -29.7950   20.1560 C   0  0  0  0  0  2  0  0  0  0  0  0
  -24.6690  -31.0530   22.0890 N   0  0  0  0  0  0  0  0  0  0  0  0
  -23.5090  -32.1330   23.7160 O   0  0  0  0  0  0  0  0  0  0  0  0
  -22.7420  -29.4400   22.4910 C   0  0  0  0  0  0  0  0  0  0  0  0
  -21.4140  -29.2740   22.3720 N   0  0  0  0  0  0  0  0  0  0  0  0
  -23.4210  -28.8020   23.2990 O   0  0  0  0  0  0  0  0  0  0  0  0
  -20.9240  -29.8400   21.6930 H   0  0  0  0  0  0  0  0  0  0  0  0
  -18.0270  -28.1160   22.9090 C   0  0  0  0  0  0  0  0  0  0  0  0
  -20.5940  -28.3340   23.1390 C   0  0  0  0  0  3  0  0  0  0  0  0
  -20.6650  -26.9120   22.5360 C   0  0  0  0  0  2  0  0  0  0  0  0
  -19.5410  -26.6230   21.5360 C   0  0  0  0  0  2  0  0  0  0  0  0
  -18.1730  -26.7760   22.2050 C   0  0  0  0  0  2  0  0  0  0  0  0
  -19.1650  -28.8530   23.3330 C   0  0  0  0  0  0  0  0  0  0  0  0
  -18.9730  -30.1080   23.9520 C   0  0  0  0  0  3  0  0  0  0  0  0
  -17.6790  -30.6240   24.1500 C   0  0  0  0  0  3  0  0  0  0  0  0
  -16.5570  -29.8830   23.7410 C   0  0  0  0  0  3  0  0  0  0  0  0
  -16.7320  -28.6300   23.1250 C   0  0  0  0  0  3  0  0  0  0  0  0
  -25.8730  -32.4980   23.8170 C   0  0  0  0  0  3  0  0  0  0  0  0
  -26.3960  -31.7150   25.0830 C   0  0  1  0  0  0  0  0  0  0  0  0
  -25.3050  -31.4500   26.1450 C   0  0  0  0  0  1  0  0  0  0  0  0
  -26.9970  -30.3500   24.6740 C   0  0  0  0  0  1  0  0  0  0  0  0
  -27.5370  -32.5140   25.7570 C   0  0  0  0  0  1  0  0  0  0  0  0
  -25.5470  -33.8880   24.1680 N   0  0  0  0  0  0  0  0  0  0  0  0
  -25.8570  -34.9560   23.4190 C   0  0  0  0  0  0  0  0  0  0  0  0
  -26.5130  -34.8750   22.3780 O   0  0  0  0  0  0  0  0  0  0  0  0
  -24.9620  -34.0250   24.9790 H   0  0  0  0  0  0  0  0  0  0  0  0
  -24.1010  -36.7320   23.1140 C   0  0  0  0  0  1  0  0  0  0  0  0
  -25.3580  -36.3320   23.9030 C   0  0  0  0  0  3  0  0  0  0  0  0
  -27.4900  -37.2380   24.7200 C   0  0  0  0  0  1  0  0  0  0  0  0
  -26.3760  -37.4000   23.7890 N   0  0  0  0  0  0  0  0  0  0  0  0
  -25.9590  -38.3140   23.9490 H   0  0  0  0  0  0  0  0  0  0  0  0
  1  2  1  0
  1 50  1  0
  2  4  1  0
  3  1  2  0
  5  7  2  0
  6  5  1  0
  6  8  2  0
  7  2  1  0
  7  9  1  0
  8 18  1  0
  8  9  1  0
 10 18  1  0
 11 16  1  0
 12 13  1  0
 12 11  1  0
 14 13  1  0
 14 23  1  0
 14 15  1  0
 16 10  1  0
 16 15  1  0
 17 10  2  0
 18 19  1  0
 20 21  2  0
 21 40  1  0
 22 21  1  0
 22 25  1  0
 23 24  1  0
 23 20  1  0
 24 22  2  0
 25 26  1  0
 26 27  2  0
 28 31  1  0
 28 27  1  0
 29 28  2  0
 30 29  1  0
 30 25  2  0
 31 32  1  0
 32 33  1  0
 33 34  2  0
 35 34  1  0
 35 39  1  0
 36 35  2  0
 37 32  2  0
 37 36  1  0
 38 37  1  0
 40 41  1  0
 41 44  1  0
 41 43  1  0
 42 40  2  0
 45 20  1  0
 45 46  1  0
 47 45  1  0
 50 48  1  1
 50 49  1  0
 51 52  1  0
 51 50  1  0
 53 64  2  0
 54 52  1  0
 54 59  1  0
 55 63  1  0
 55 65  1  0
 56 62  1  0
 56 58  1  0
 57 63  1  0
 58 59  2  0
 58 57  1  0
 60 61  1  0
 60 54  2  0
 61 56  2  0
 62 55  1  0
 63 53  1  0
 65 67  2  0
 66 65  1  0
 68 66  1  0
 69 78  2  0
 69 74  1  0
 70 66  1  0
 70 74  1  0
 71 70  1  0
 72 73  1  0
 72 71  1  0
 73 69  1  0
 74 75  2  0
 75 76  1  0
 77 76  2  0
 78 77  1  0
 79 53  1  0
 79 84  1  0
 79 80  1  0
 80 83  1  1
 80 81  1  0
 82 80  1  0
 84 87  1  0
 85 89  1  0
 85 84  1  0
 86 85  2  0
 89 88  1  0
 91 89  1  0
 91 92  1  0
 91 90  1  0
M  ISO  4  10 100  18 100  51 101  52 101
M  END
>  <TORSDO>  (26) 
F 19

>  <SCORE>  (26) 
-13.647

>  <name>  (26) 
25

>  <ligand_id>  (26) 
25

>  <original_smiles>  (26) 
[H]c1c(N([H])C(=O)N2C([H])([H])C([H])([H])C([H])([H])C([H])(n3nc(-c4c([H])c([H])c(Oc5c([H])c([H])c(F)c([H])c5F)c([H])c4[H])c(C(=O)N([H])[H])c3N([H])[H])C2([H])[H])sc(N([H])C(=O)C(C([H])([H])[H])(C([H])([H])[H])C([H])([H])Oc2c([H])c([H])c3c(c2[H])C([H])([H])N(C(=O)C([H])(N([H])C(=O)C([H])(N([H])C([H])([H])[H])C([H])([H])[H])C(C([H])([H])[H])(C([H])([H])[H])C([H])([H])[H])C([H])(C(=O)N([H])C2([H])c4c([H])c([H])c([H])c([H])c4C([H])([H])C([H])([H])C2([H])[H])C3([H])[H])c1[H]

>  <smiles>  (26) 
[H]c1c(N([H])C(=O)N2C([H])([H])C([H])([H])C([H])([H])C([H])(n3nc(-c4c([H])c([H])c(Oc5c([H])c([H])c(F)c([H])c5F)c([H])c4[H])c(C(=O)N([H])[H])c3N([H])[H])C2([H])[H])sc(N([H])C(=O)C(C([H])([H])[H])(C([H])([H])[H])C([H])([H])Oc2c([H])c([H])c3c(c2[H])C([H])([H])N(C(=O)C([H])(N([H])C(=O)C([H])(N([H])C([H])([H])[H])C([H])([H])[H])C(C([H])([H])[H])(C([H])([H])[H])C([H])([H])[H])C([H])(C(=O)N([H])C2([H])c4c([H])c([H])c([H])c([H])c4C([H])([H])C([H])([H])C2([H])[H])C3([H])[H])c1[H]

$$$$
26:0:0
     RDKit          3D

 95103  0  0  1  0  0  0  0  0999 V2000
  -29.9780  -18.1340   20.3940 C   0  0  0  0  0  0  0  0  0  0  0  0
  -28.5970  -18.1250   20.3670 C   0  0  0  0  0  0  0  0  0  0  0  0
  -29.5700  -20.4080   20.2520 C   0  0  0  0  0  0  0  0  0  0  0  0
  -29.1190  -22.8700   20.3390 C   0  0  0  0  0  0  0  0  0  0  0  0
  -30.5060  -19.4440   20.3060 N   0  0  0  0  0  0  0  0  0  0  0  0
  -29.9350  -21.7950   20.2150 N   0  0  0  0  0  0  0  0  0  0  0  0
  -27.8970  -22.8010   20.5110 O   0  0  0  0  0  0  0  0  0  0  0  0
  -27.9340  -19.7420   20.2500 S   0  0  0  0  0  0  0  0  0  0  0  0
  -30.9170  -22.0080   20.1080 H   0  0  0  0  0  0  0  0  0  0  0  0
  -27.7240  -17.0430   20.4630 N   0  0  0  0  0  0  0  0  0  0  0  0
  -27.9700  -16.2260   21.0100 H   0  0  0  0  0  0  0  0  0  0  0  0
  -26.7230  -17.2090   20.4900 H   0  0  0  0  0  0  0  0  0  0  0  0
  -29.8420  -24.2660   20.2570 C   0  0  0  0  0  0  0  0  0  0  0  0
  -30.9970  -24.4420   20.6660 O   0  0  0  0  0  0  0  0  0  0  0  0
  -29.0300  -25.3980   19.5840 C   0  0  0  0  0  2  0  0  0  0  0  0
  -29.1350  -26.7240   20.1810 O   0  0  0  0  0  0  0  0  0  0  0  0
  -24.7250  -31.4220   23.3220 C   0  0  0  0  0  0  0  0  0  0  0  0
  -27.9590  -27.4640   20.0960 C   0  0  0  0  0  0  0  0  0  0  0  0
  -23.7890  -30.1260   21.4410 C   0  0  0  0  0  3  0  0  0  0  0  0
  -25.4800  -28.8560   20.0200 C   0  0  0  0  0  0  0  0  0  0  0  0
  -26.2980  -30.6500   21.5460 C   0  0  0  0  0  2  0  0  0  0  0  0
  -26.5430  -29.3640   20.7780 C   0  0  0  0  0  0  0  0  0  0  0  0
  -27.7860  -28.6750   20.8180 C   0  0  0  0  0  3  0  0  0  0  0  0
  -26.8710  -27.0060   19.3100 C   0  0  0  0  0  3  0  0  0  0  0  0
  -25.6410  -27.6760   19.2840 C   0  0  0  0  0  3  0  0  0  0  0  0
  -24.1780  -29.6200   20.0280 C   0  0  0  0  0  2  0  0  0  0  0  0
  -24.9490  -30.7430   22.1620 N   0  0  0  0  0  0  0  0  0  0  0  0
  -23.5800  -31.5690   23.7700 O   0  0  0  0  0  0  0  0  0  0  0  0
  -23.1320  -28.9650   22.2220 C   0  0  0  0  0  0  0  0  0  0  0  0
  -21.8290  -28.7420   21.9800 N   0  0  0  0  0  0  0  0  0  0  0  0
  -23.7910  -28.2750   23.0030 O   0  0  0  0  0  0  0  0  0  0  0  0
  -21.3590  -29.3540   21.3280 H   0  0  0  0  0  0  0  0  0  0  0  0
  -18.4710  -27.4180   22.1890 C   0  0  0  0  0  0  0  0  0  0  0  0
  -21.0130  -27.6840   22.5760 C   0  0  0  0  0  3  0  0  0  0  0  0
  -21.1670  -26.3570   21.7970 C   0  0  0  0  0  2  0  0  0  0  0  0
  -20.1000  -26.1670   20.7140 C   0  0  0  0  0  2  0  0  0  0  0  0
  -18.6970  -26.1880   21.3270 C   0  0  0  0  0  2  0  0  0  0  0  0
  -19.5590  -28.1300   22.7620 C   0  0  0  0  0  0  0  0  0  0  0  0
  -19.2930  -29.2870   23.5270 C   0  0  0  0  0  3  0  0  0  0  0  0
  -17.9730  -29.7310   23.7250 C   0  0  0  0  0  3  0  0  0  0  0  0
  -16.8990  -29.0160   23.1670 C   0  0  0  0  0  3  0  0  0  0  0  0
  -17.1480  -27.8610   22.4060 C   0  0  0  0  0  3  0  0  0  0  0  0
  -25.8950  -32.0680   24.1250 C   0  0  0  0  0  3  0  0  0  0  0  0
  -26.1720  -31.3530   25.5060 C   0  0  1  0  0  0  0  0  0  0  0  0
  -24.9100  -31.1920   26.3850 C   0  0  0  0  0  1  0  0  0  0  0  0
  -26.7730  -29.9440   25.2840 C   0  0  0  0  0  1  0  0  0  0  0  0
  -27.2190  -32.1580   26.3120 C   0  0  0  0  0  1  0  0  0  0  0  0
  -25.5590  -33.4840   24.3330 N   0  0  0  0  0  0  0  0  0  0  0  0
  -26.0130  -34.4930   23.5770 C   0  0  0  0  0  0  0  0  0  0  0  0
  -26.8280  -34.3320   22.6640 O   0  0  0  0  0  0  0  0  0  0  0  0
  -24.8510  -33.6850   25.0240 H   0  0  0  0  0  0  0  0  0  0  0  0
  -24.3820  -36.2700   22.8630 C   0  0  0  0  0  1  0  0  0  0  0  0
  -25.4730  -35.9030   23.8810 C   0  0  0  0  0  3  0  0  0  0  0  0
  -27.4700  -36.8060   24.9880 C   0  0  0  0  0  1  0  0  0  0  0  0
  -26.5150  -36.9530   23.8920 N   0  0  0  0  0  0  0  0  0  0  0  0
  -26.0900  -37.8730   23.9710 H   0  0  0  0  0  0  0  0  0  0  0  0
  -30.9410  -16.9620   20.5610 C   0  0  0  0  0  2  0  0  0  0  0  0
  -31.0280  -14.5110   20.1240 C   0  0  0  0  0  0  0  0  0  0  0  0
  -30.6630  -12.2940   19.1000 C   0  0  0  0  0  2  0  0  0  0  0  0
  -29.6870  -12.4610   17.9160 C   0  0  0  0  0  2  0  0  0  0  0  0
  -28.2290  -12.3550   18.4030 C   0  0  0  0  0  2  0  0  0  0  0  0
  -27.9420  -13.2450   19.6430 C   0  0  0  0  0  3  0  0  0  0  0  0
  -29.0350  -13.0760   20.7220 C   0  0  0  0  0  2  0  0  0  0  0  0
  -30.3340  -13.3390   20.0850 N   0  0  0  0  0  0  0  0  0  0  0  0
  -32.1510  -14.6270   19.6300 O   0  0  0  0  0  0  0  0  0  0  0  0
  -30.3740  -15.5960   20.5860 N   0  0  0  0  0  0  0  0  0  0  0  0
  -29.4320  -15.4900   20.9330 H   0  0  0  0  0  0  0  0  0  0  0  0
  -25.6060  -13.9110   20.4920 C   0  0  0  0  0  0  0  0  0  0  0  0
  -24.5280  -13.1660   20.8860 C   0  0  0  0  0  0  0  0  0  0  0  0
  -24.9360  -11.7990   20.7850 C   0  0  0  0  0  0  0  0  0  0  0  0
  -26.6060  -13.0010   20.1820 N   0  0  0  0  0  0  0  0  0  0  0  0
  -26.2080  -11.7230   20.4130 N   0  0  0  0  0  0  0  0  0  0  0  0
  -24.1700  -10.5590   20.9680 C   0  0  0  0  0  0  0  0  0  0  0  0
  -24.5780   -9.5720   21.8920 C   0  0  0  0  0  3  0  0  0  0  0  0
  -23.8140   -8.3970   22.0630 C   0  0  0  0  0  3  0  0  0  0  0  0
  -22.6310   -8.2020   21.3120 C   0  0  0  0  0  0  0  0  0  0  0  0
  -22.2440   -9.1780   20.3770 C   0  0  0  0  0  3  0  0  0  0  0  0
  -23.0060  -10.3450   20.2020 C   0  0  0  0  0  3  0  0  0  0  0  0
  -21.8420   -7.0810   21.3920 O   0  0  0  0  0  0  0  0  0  0  0  0
  -21.6940   -6.3880   22.5670 C   0  0  0  0  0  0  0  0  0  0  0  0
  -21.1620   -6.9930   23.7280 C   0  0  0  0  0  3  0  0  0  0  0  0
  -20.9640   -6.2260   24.8930 C   0  0  0  0  0  3  0  0  0  0  0  0
  -21.2840   -4.8550   24.8980 C   0  0  0  0  0  0  0  0  0  0  0  0
  -21.8050   -4.2500   23.7410 C   0  0  0  0  0  3  0  0  0  0  0  0
  -22.0070   -5.0140   22.5790 C   0  0  0  0  0  0  0  0  0  0  0  0
  -22.4920   -4.4220   21.4600 F   0  0  0  0  0  0  0  0  0  0  0  0
  -21.0880   -4.1160   26.0160 F   0  0  0  0  0  0  0  0  0  0  0  0
  -23.1660  -13.6860   21.2490 C   0  0  0  0  0  0  0  0  0  0  0  0
  -22.4700  -13.0020   22.1490 N   0  0  0  0  0  0  0  0  0  0  0  0
  -22.7310  -14.7320   20.7700 O   0  0  0  0  0  0  0  0  0  0  0  0
  -22.8350  -12.1540   22.5580 H   0  0  0  0  0  0  0  0  0  0  0  0
  -21.5580  -13.3280   22.4310 H   0  0  0  0  0  0  0  0  0  0  0  0
  -25.8170  -15.2800   20.3610 N   0  0  0  0  0  0  0  0  0  0  0  0
  -25.1000  -15.9580   20.5880 H   0  0  0  0  0  0  0  0  0  0  0  0
  -26.7210  -15.7040   20.1910 H   0  0  0  0  0  0  0  0  0  0  0  0
  1 57  1  0
  2  1  2  0
  2 10  1  0
  3  5  2  0
  4  7  2  0
  5  1  1  0
  6  3  1  0
  6  4  1  0
  8  3  1  0
  8  2  1  0
  9  6  1  0
 10 12  1  0
 10 11  1  0
 13  4  1  0
 13 14  2  0
 15 16  1  0
 15 13  1  0
 17 28  2  0
 18 16  1  0
 18 23  1  0
 19 27  1  0
 19 29  1  0
 20 26  1  0
 20 22  1  0
 21 27  1  0
 22 23  2  0
 22 21  1  0
 24 18  2  0
 25 24  1  0
 25 20  2  0
 26 19  1  0
 27 17  1  0
 29 31  2  0
 30 29  1  0
 32 30  1  0
 33 42  2  0
 33 38  1  0
 34 30  1  0
 34 38  1  0
 35 34  1  0
 36 37  1  0
 36 35  1  0
 37 33  1  0
 38 39  2  0
 39 40  1  0
 41 40  2  0
 42 41  1  0
 43 17  1  0
 43 48  1  0
 43 44  1  0
 44 47  1  1
 44 45  1  0
 46 44  1  0
 48 51  1  0
 49 53  1  0
 49 48  1  0
 50 49  2  0
 53 52  1  0
 53 55  1  0
 55 56  1  0
 55 54  1  0
 57 66  1  0
 58 66  1  0
 59 64  1  0
 60 61  1  0
 60 59  1  0
 62 61  1  0
 62 71  1  0
 62 63  1  0
 64 58  1  0
 64 63  1  0
 65 58  2  0
 66 67  1  0
 68 69  2  0
 69 88  1  0
 70 69  1  0
 70 73  1  0
 71 72  1  0
 71 68  1  0
 72 70  2  0
 73 74  1  0
 74 75  2  0
 76 79  1  0
 76 75  1  0
 77 76  2  0
 78 77  1  0
 78 73  2  0
 79 80  1  0
 80 85  2  0
 80 81  1  0
 81 82  2  0
 82 83  1  0
 83 87  1  0
 84 83  2  0
 85 84  1  0
 86 85  1  0
 88 89  1  0
 89 92  1  0
 89 91  1  0
 90 88  2  0
 93 68  1  0
 93 94  1  0
 95 93  1  0
M  ISO  4  15 101  16 101  58 100  66 100
M  END
>  <TORSDO>  (27) 
F 20

>  <SCORE>  (27) 
-12.769

>  <name>  (27) 
26

>  <ligand_id>  (27) 
26

>  <original_smiles>  (27) 
[H]c1c([H])c([H])c2c(c1[H])C([H])([H])C([H])([H])C([H])([H])C2([H])N([H])C(=O)C1([H])N(C(=O)C([H])(N([H])C(=O)C([H])(N([H])C([H])([H])[H])C([H])([H])[H])C(C([H])([H])[H])(C([H])([H])[H])C([H])([H])[H])C([H])([H])c2c([H])c(OC([H])([H])C(=O)C(=O)N([H])c3nc(C([H])([H])N([H])C(=O)N4C([H])([H])C([H])([H])C([H])([H])C([H])(n5nc(-c6c([H])c([H])c(Oc7c([H])c([H])c(F)c([H])c7F)c([H])c6[H])c(C(=O)N([H])[H])c5N([H])[H])C4([H])[H])c(N([H])[H])s3)c([H])c([H])c2C1([H])[H]

>  <smiles>  (27) 
[H]c1c([H])c([H])c2c(c1[H])C([H])([H])C([H])([H])C([H])([H])C2([H])N([H])C(=O)C1([H])N(C(=O)C([H])(N([H])C(=O)C([H])(N([H])C([H])([H])[H])C([H])([H])[H])C(C([H])([H])[H])(C([H])([H])[H])C([H])([H])[H])C([H])([H])c2c([H])c(OC([H])([H])C(=O)C(=O)N([H])c3nc(C([H])([H])N([H])C(=O)N4C([H])([H])C([H])([H])C([H])([H])C([H])(n5nc(-c6c([H])c([H])c(Oc7c([H])c([H])c(F)c([H])c7F)c([H])c6[H])c(C(=O)N([H])[H])c5N([H])[H])C4([H])[H])c(N([H])[H])s3)c([H])c([H])c2C1([H])[H]

$$$$
27:0:0
     RDKit          3D

 95103  0  0  1  0  0  0  0  0999 V2000
  -29.1210  -22.6580   20.5500 C   0  0  0  0  0  0  0  0  0  0  0  0
  -29.7460  -21.6320   19.8610 N   0  0  0  0  0  0  0  0  0  0  0  0
  -28.5560  -22.4270   21.6220 O   0  0  0  0  0  0  0  0  0  0  0  0
  -30.0740  -21.9190   18.9470 H   0  0  0  0  0  0  0  0  0  0  0  0
  -30.3960  -19.7290   21.3900 C   0  0  0  0  0  3  0  0  0  0  0  0
  -30.5180  -18.2780   21.4400 C   0  0  0  0  0  0  0  0  0  0  0  0
  -30.1820  -17.6280   20.2610 C   0  0  0  0  0  0  0  0  0  0  0  0
  -29.9640  -20.2850   20.2010 C   0  0  0  0  0  0  0  0  0  0  0  0
  -29.7790  -18.9070   19.0760 S   0  0  0  0  0  0  0  0  0  0  0  0
  -30.8820  -17.5540   22.7100 C   0  0  1  0  0  0  0  0  0  0  0  0
  -31.4700  -18.3620   23.5930 F   0  0  0  0  0  0  0  0  0  0  0  0
  -29.7960  -17.0440   23.2920 F   0  0  0  0  0  0  0  0  0  0  0  0
  -31.7220  -16.5460   22.4770 F   0  0  0  0  0  0  0  0  0  0  0  0
  -29.8090  -16.1060   20.0550 C   0  0  0  0  0  2  0  0  0  0  0  0
  -30.7660  -14.8090   19.9620 C   0  0  0  0  0  0  0  0  0  0  0  0
  -30.5380  -12.5420   18.9380 C   0  0  0  0  0  2  0  0  0  0  0  0
  -29.5410  -12.6800   17.7600 C   0  0  0  0  0  2  0  0  0  0  0  0
  -28.0790  -12.5510   18.2380 C   0  0  0  0  0  2  0  0  0  0  0  0
  -27.7880  -13.4130   19.4920 C   0  0  0  0  0  3  0  0  0  0  0  0
  -28.8880  -13.2220   20.5600 C   0  0  0  0  0  2  0  0  0  0  0  0
  -30.1820  -13.5610   19.9480 N   0  0  0  0  0  0  0  0  0  0  0  0
  -31.9520  -14.9350   19.6350 O   0  0  0  0  0  0  0  0  0  0  0  0
  -25.4510  -14.1000   20.3070 C   0  0  0  0  0  0  0  0  0  0  0  0
  -24.3710  -13.3650   20.7160 C   0  0  0  0  0  0  0  0  0  0  0  0
  -24.7850  -11.9980   20.6680 C   0  0  0  0  0  0  0  0  0  0  0  0
  -26.4530  -13.1810   20.0300 N   0  0  0  0  0  0  0  0  0  0  0  0
  -26.0600  -11.9130   20.3100 N   0  0  0  0  0  0  0  0  0  0  0  0
  -24.0220  -10.7630   20.8840 C   0  0  0  0  0  0  0  0  0  0  0  0
  -24.4470   -9.7860   21.8120 C   0  0  0  0  0  3  0  0  0  0  0  0
  -23.6860   -8.6150   22.0150 C   0  0  0  0  0  3  0  0  0  0  0  0
  -22.4880   -8.4130   21.2920 C   0  0  0  0  0  0  0  0  0  0  0  0
  -22.0810   -9.3760   20.3530 C   0  0  0  0  0  3  0  0  0  0  0  0
  -22.8420  -10.5400   20.1470 C   0  0  0  0  0  3  0  0  0  0  0  0
  -21.6990   -7.2930   21.4040 O   0  0  0  0  0  0  0  0  0  0  0  0
  -21.6450   -6.5650   22.5640 C   0  0  0  0  0  0  0  0  0  0  0  0
  -21.2720   -7.1500   23.7950 C   0  0  0  0  0  3  0  0  0  0  0  0
  -21.1630   -6.3500   24.9500 C   0  0  0  0  0  3  0  0  0  0  0  0
  -21.4160   -4.9660   24.8760 C   0  0  0  0  0  0  0  0  0  0  0  0
  -21.7820   -4.3820   23.6510 C   0  0  0  0  0  3  0  0  0  0  0  0
  -21.8930   -5.1790   22.4980 C   0  0  0  0  0  0  0  0  0  0  0  0
  -22.2240   -4.6070   21.3150 F   0  0  0  0  0  0  0  0  0  0  0  0
  -21.3030   -4.1960   25.9830 F   0  0  0  0  0  0  0  0  0  0  0  0
  -23.0030  -13.8920   21.0390 C   0  0  0  0  0  0  0  0  0  0  0  0
  -22.2950  -13.2380   21.9540 N   0  0  0  0  0  0  0  0  0  0  0  0
  -22.5710  -14.9180   20.5140 O   0  0  0  0  0  0  0  0  0  0  0  0
  -22.6580  -12.4080   22.4000 H   0  0  0  0  0  0  0  0  0  0  0  0
  -21.3780  -13.5710   22.2120 H   0  0  0  0  0  0  0  0  0  0  0  0
  -25.6560  -15.4650   20.1250 N   0  0  0  0  0  0  0  0  0  0  0  0
  -24.9140  -16.1420   20.2680 H   0  0  0  0  0  0  0  0  0  0  0  0
  -26.5010  -15.8820   19.7580 H   0  0  0  0  0  0  0  0  0  0  0  0
  -28.5420  -25.1460   20.4980 C   0  0  0  0  0  3  0  0  0  0  0  0
  -29.1660  -24.0410   19.9380 C   0  0  0  0  0  0  0  0  0  0  0  0
  -29.8650  -24.2070   18.8050 O   0  0  0  0  0  0  0  0  0  0  0  0
  -29.7970  -25.1260   18.5740 H   0  0  0  0  0  0  0  0  0  0  0  0
  -28.5990  -26.4970   20.0570 O   0  0  0  0  0  0  0  0  0  0  0  0
  -24.6730  -31.7550   23.1930 C   0  0  0  0  0  0  0  0  0  0  0  0
  -27.4510  -27.3120   20.0940 C   0  0  0  0  0  0  0  0  0  0  0  0
  -23.5180  -30.3290   21.5390 C   0  0  0  0  0  3  0  0  0  0  0  0
  -25.0250  -28.8400   20.1000 C   0  0  0  0  0  0  0  0  0  0  0  0
  -26.0440  -30.7400   21.3550 C   0  0  0  0  0  2  0  0  0  0  0  0
  -26.1770  -29.3690   20.6990 C   0  0  0  0  0  0  0  0  0  0  0  0
  -27.3940  -28.6160   20.6850 C   0  0  0  0  0  3  0  0  0  0  0  0
  -26.2750  -26.8370   19.4770 C   0  0  0  0  0  3  0  0  0  0  0  0
  -25.0770  -27.5800   19.4800 C   0  0  0  0  0  3  0  0  0  0  0  0
  -23.7560  -29.6700   20.1550 C   0  0  0  0  0  2  0  0  0  0  0  0
  -24.7630  -30.9610   22.0850 N   0  0  0  0  0  0  0  0  0  0  0  0
  -23.5810  -31.9870   23.7330 O   0  0  0  0  0  0  0  0  0  0  0  0
  -22.8940  -29.2830   22.4920 C   0  0  0  0  0  0  0  0  0  0  0  0
  -21.5800  -29.0340   22.3440 N   0  0  0  0  0  0  0  0  0  0  0  0
  -23.5900  -28.6950   23.3240 O   0  0  0  0  0  0  0  0  0  0  0  0
  -21.0740  -29.5630   21.6470 H   0  0  0  0  0  0  0  0  0  0  0  0
  -18.2900  -27.5760   22.7130 C   0  0  0  0  0  0  0  0  0  0  0  0
  -20.8000  -28.0550   23.1040 C   0  0  0  0  0  3  0  0  0  0  0  0
  -21.0500  -26.6210   22.5820 C   0  0  0  0  0  2  0  0  0  0  0  0
  -20.0330  -26.1790   21.5250 C   0  0  0  0  0  2  0  0  0  0  0  0
  -18.6110  -26.2270   22.0930 C   0  0  0  0  0  2  0  0  0  0  0  0
  -19.3190  -28.4400   23.1740 C   0  0  0  0  0  0  0  0  0  0  0  0
  -18.9660  -29.6960   23.7140 C   0  0  0  0  0  3  0  0  0  0  0  0
  -17.6170  -30.0910   23.7990 C   0  0  0  0  0  3  0  0  0  0  0  0
  -16.6030  -29.2260   23.3550 C   0  0  0  0  0  3  0  0  0  0  0  0
  -16.9400  -27.9690   22.8170 C   0  0  0  0  0  3  0  0  0  0  0  0
  -25.9330  -32.4280   23.8200 C   0  0  0  0  0  3  0  0  0  0  0  0
  -25.5800  -33.8180   24.1440 N   0  0  0  0  0  0  0  0  0  0  0  0
  -25.9250  -34.8820   23.4080 C   0  0  0  0  0  0  0  0  0  0  0  0
  -26.6400  -34.8000   22.4060 O   0  0  0  0  0  0  0  0  0  0  0  0
  -24.9490  -33.9550   24.9200 H   0  0  0  0  0  0  0  0  0  0  0  0
  -24.1770  -36.6440   22.9920 C   0  0  0  0  0  1  0  0  0  0  0  0
  -25.3910  -36.2580   23.8520 C   0  0  0  0  0  3  0  0  0  0  0  0
  -27.4760  -37.1740   24.7710 C   0  0  0  0  0  1  0  0  0  0  0  0
  -26.4050  -37.3320   23.7890 N   0  0  0  0  0  0  0  0  0  0  0  0
  -25.9760  -38.2430   23.9360 H   0  0  0  0  0  0  0  0  0  0  0  0
  -26.4630  -31.6790   25.1040 C   0  0  1  0  0  0  0  0  0  0  0  0
  -25.3680  -31.4070   26.1640 C   0  0  0  0  0  1  0  0  0  0  0  0
  -27.0950  -30.3200   24.7240 C   0  0  0  0  0  1  0  0  0  0  0  0
  -27.5800  -32.5130   25.7750 C   0  0  0  0  0  1  0  0  0  0  0  0
  1  3  2  0
  2  8  1  0
  2  1  1  0
  4  2  1  0
  5  6  1  0
  6 10  1  0
  7  6  2  0
  8  5  2  0
  9  8  1  0
  9  7  1  0
 10 12  1  1
 10 11  1  0
 13 10  1  0
 14  7  1  0
 15 14  1  0
 16 21  1  0
 17 18  1  0
 17 16  1  0
 19 18  1  0
 19 26  1  0
 19 20  1  0
 21 15  1  0
 21 20  1  0
 22 15  2  0
 23 24  2  0
 24 43  1  0
 25 24  1  0
 25 28  1  0
 26 23  1  0
 26 27  1  0
 27 25  2  0
 28 29  1  0
 29 30  2  0
 31 34  1  0
 31 30  1  0
 32 31  2  0
 33 32  1  0
 33 28  2  0
 34 35  1  0
 35 36  1  0
 36 37  2  0
 38 37  1  0
 38 42  1  0
 39 38  2  0
 40 35  2  0
 40 39  1  0
 41 40  1  0
 43 44  1  0
 44 47  1  0
 44 46  1  0
 45 43  2  0
 48 49  1  0
 48 23  1  0
 50 48  1  0
 52 51  2  0
 52  1  1  0
 53 52  1  0
 54 53  1  0
 55 57  1  0
 55 51  1  0
 56 67  2  0
 57 62  1  0
 58 66  1  0
 58 68  1  0
 59 65  1  0
 59 61  1  0
 60 66  1  0
 61 60  1  0
 62 61  2  0
 63 64  1  0
 63 57  2  0
 64 59  2  0
 65 58  1  0
 66 56  1  0
 68 70  2  0
 69 68  1  0
 71 69  1  0
 72 81  2  0
 72 77  1  0
 73 69  1  0
 73 77  1  0
 74 73  1  0
 75 76  1  0
 75 74  1  0
 76 72  1  0
 77 78  2  0
 78 79  1  0
 80 79  2  0
 81 80  1  0
 82 56  1  0
 82 83  1  0
 82 92  1  0
 83 86  1  0
 84 88  1  0
 84 83  1  0
 85 84  2  0
 88 87  1  0
 90 88  1  0
 90 91  1  0
 90 89  1  0
 92 95  1  1
 92 93  1  0
 94 92  1  0
M  ISO  4  14 100  15 100  51 101  55 101
M  END
>  <TORSDO>  (28) 
F 21

>  <SCORE>  (28) 
-12.150

>  <name>  (28) 
27

>  <ligand_id>  (28) 
27

>  <original_smiles>  (28) 
[H]OC(C(=O)N([H])c1sc(C([H])([H])C(=O)N2C([H])([H])C([H])([H])C([H])([H])C([H])(n3nc(-c4c([H])c([H])c(Oc5c([H])c([H])c(F)c([H])c5F)c([H])c4[H])c(C(=O)N([H])[H])c3N([H])[H])C2([H])[H])c(C(F)(F)F)c1[H])=C([H])Oc1c([H])c([H])c2c(c1[H])C([H])([H])N(C(=O)C([H])(N([H])C(=O)C([H])(N([H])C([H])([H])[H])C([H])([H])[H])C(C([H])([H])[H])(C([H])([H])[H])C([H])([H])[H])C([H])(C(=O)N([H])C1([H])c3c([H])c([H])c([H])c([H])c3C([H])([H])C([H])([H])C1([H])[H])C2([H])[H]

>  <smiles>  (28) 
[H]OC(C(=O)N([H])c1sc(C([H])([H])C(=O)N2C([H])([H])C([H])([H])C([H])([H])C([H])(n3nc(-c4c([H])c([H])c(Oc5c([H])c([H])c(F)c([H])c5F)c([H])c4[H])c(C(=O)N([H])[H])c3N([H])[H])C2([H])[H])c(C(F)(F)F)c1[H])=C([H])Oc1c([H])c([H])c2c(c1[H])C([H])([H])N(C(=O)C([H])(N([H])C(=O)C([H])(N([H])C([H])([H])[H])C([H])([H])[H])C(C([H])([H])[H])(C([H])([H])[H])C([H])([H])[H])C([H])(C(=O)N([H])C1([H])c3c([H])c([H])c([H])c([H])c3C([H])([H])C([H])([H])C1([H])[H])C2([H])[H]

$$$$
28:0:0
     RDKit          3D

 93101  0  0  1  0  0  0  0  0999 V2000
  -29.1090  -22.2600   20.8200 C   0  0  0  0  0  0  0  0  0  0  0  0
  -29.4440  -21.0800   20.1540 N   0  0  0  0  0  0  0  0  0  0  0  0
  -28.7080  -22.1990   21.9860 O   0  0  0  0  0  0  0  0  0  0  0  0
  -29.5060  -21.1890   19.1500 H   0  0  0  0  0  0  0  0  0  0  0  0
  -30.5770  -14.7960   20.2210 C   0  0  0  0  0  0  0  0  0  0  0  0
  -30.3580  -12.5300   19.1760 C   0  0  0  0  0  2  0  0  0  0  0  0
  -29.3800  -12.6000   17.9820 C   0  0  0  0  0  2  0  0  0  0  0  0
  -27.9240  -12.4220   18.4570 C   0  0  0  0  0  2  0  0  0  0  0  0
  -27.5800  -13.3130   19.6790 C   0  0  0  0  0  3  0  0  0  0  0  0
  -28.6690  -13.2180   20.7700 C   0  0  0  0  0  2  0  0  0  0  0  0
  -29.9450  -13.5750   20.1370 N   0  0  0  0  0  0  0  0  0  0  0  0
  -31.7820  -14.8830   19.9660 O   0  0  0  0  0  0  0  0  0  0  0  0
  -30.8080  -19.5170   21.6210 C   0  0  0  0  0  0  0  0  0  0  0  0
  -29.8460  -19.7260   20.6400 C   0  0  0  0  0  0  0  0  0  0  0  0
  -30.0890  -17.3380   20.5700 C   0  0  0  0  0  0  0  0  0  0  0  0
  -31.5260  -20.5070   22.4890 C   0  0  0  0  0  1  0  0  0  0  0  0
  -29.4530  -18.4530   20.0650 N   0  0  0  0  0  0  0  0  0  0  0  0
  -29.7780  -15.9280   20.2530 N   0  0  0  0  0  0  0  0  0  0  0  0
  -31.2560  -17.8150   21.7930 S   0  0  0  0  0  0  0  0  0  0  0  0
  -28.7990  -15.7440   20.1010 H   0  0  0  0  0  0  0  0  0  0  0  0
  -25.2060  -13.9130   20.4560 C   0  0  0  0  0  0  0  0  0  0  0  0
  -24.1440  -13.1390   20.8380 C   0  0  0  0  0  0  0  0  0  0  0  0
  -24.6050  -11.7860   20.7970 C   0  0  0  0  0  0  0  0  0  0  0  0
  -26.2450  -13.0320   20.2000 N   0  0  0  0  0  0  0  0  0  0  0  0
  -25.8910  -11.7480   20.4690 N   0  0  0  0  0  0  0  0  0  0  0  0
  -23.8790  -10.5250   20.9920 C   0  0  0  0  0  0  0  0  0  0  0  0
  -24.3160   -9.5590   21.9260 C   0  0  0  0  0  3  0  0  0  0  0  0
  -23.5900   -8.3640   22.1120 C   0  0  0  0  0  3  0  0  0  0  0  0
  -22.4120   -8.1250   21.3650 C   0  0  0  0  0  0  0  0  0  0  0  0
  -21.9930   -9.0790   20.4200 C   0  0  0  0  0  3  0  0  0  0  0  0
  -22.7210  -10.2660   20.2330 C   0  0  0  0  0  3  0  0  0  0  0  0
  -21.6580   -6.9810   21.4590 O   0  0  0  0  0  0  0  0  0  0  0  0
  -21.6090   -6.2450   22.6160 C   0  0  0  0  0  0  0  0  0  0  0  0
  -21.1680   -6.8040   23.8350 C   0  0  0  0  0  3  0  0  0  0  0  0
  -21.0670   -5.9940   24.9840 C   0  0  0  0  0  3  0  0  0  0  0  0
  -21.3960   -4.6260   24.9150 C   0  0  0  0  0  0  0  0  0  0  0  0
  -21.8280   -4.0670   23.6990 C   0  0  0  0  0  3  0  0  0  0  0  0
  -21.9310   -4.8740   22.5530 C   0  0  0  0  0  0  0  0  0  0  0  0
  -22.3280   -4.3260   21.3790 F   0  0  0  0  0  0  0  0  0  0  0  0
  -21.2910   -3.8460   26.0150 F   0  0  0  0  0  0  0  0  0  0  0  0
  -22.7510  -13.6180   21.1320 C   0  0  0  0  0  0  0  0  0  0  0  0
  -22.0330  -12.9160   22.0020 N   0  0  0  0  0  0  0  0  0  0  0  0
  -22.3090  -14.6480   20.6260 O   0  0  0  0  0  0  0  0  0  0  0  0
  -22.4010  -12.0760   22.4250 H   0  0  0  0  0  0  0  0  0  0  0  0
  -21.1040  -13.2250   22.2520 H   0  0  0  0  0  0  0  0  0  0  0  0
  -25.3650  -15.2840   20.2830 N   0  0  0  0  0  0  0  0  0  0  0  0
  -24.5980  -15.9280   20.4420 H   0  0  0  0  0  0  0  0  0  0  0  0
  -26.1980  -15.7450   19.9430 H   0  0  0  0  0  0  0  0  0  0  0  0
  -29.4090  -23.5950   18.6210 C   0  0  0  0  0  1  0  0  0  0  0  0
  -30.5530  -24.3180   20.7430 C   0  0  0  0  0  1  0  0  0  0  0  0
  -29.2410  -23.7440   20.1560 C   0  0  2  0  0  0  0  0  0  0  0  0
  -28.0850  -24.8790   20.4470 C   0  0  0  0  0  2  0  0  0  0  0  0
  -28.3110  -26.3760   20.2580 O   0  0  0  0  0  0  0  0  0  0  0  0
  -24.5820  -31.9040   23.2440 C   0  0  0  0  0  0  0  0  0  0  0  0
  -27.2080  -27.2760   20.2260 C   0  0  0  0  0  0  0  0  0  0  0  0
  -23.3930  -30.5000   21.6070 C   0  0  0  0  0  3  0  0  0  0  0  0
  -24.8540  -28.9490   20.1860 C   0  0  0  0  0  0  0  0  0  0  0  0
  -25.9400  -30.8070   21.4380 C   0  0  0  0  0  2  0  0  0  0  0  0
  -26.0250  -29.4190   20.7980 C   0  0  0  0  0  0  0  0  0  0  0  0
  -27.2030  -28.5960   20.8030 C   0  0  0  0  0  3  0  0  0  0  0  0
  -26.0110  -26.8860   19.5780 C   0  0  0  0  0  3  0  0  0  0  0  0
  -24.8560  -27.6940   19.5640 C   0  0  0  0  0  3  0  0  0  0  0  0
  -23.6260  -29.8390   20.2220 C   0  0  0  0  0  2  0  0  0  0  0  0
  -24.6590  -31.0870   22.1570 N   0  0  0  0  0  0  0  0  0  0  0  0
  -23.4930  -32.1840   23.7710 O   0  0  0  0  0  0  0  0  0  0  0  0
  -22.7280  -29.4770   22.5630 C   0  0  0  0  0  0  0  0  0  0  0  0
  -21.4010  -29.3010   22.4420 N   0  0  0  0  0  0  0  0  0  0  0  0
  -23.4080  -28.8530   23.3800 O   0  0  0  0  0  0  0  0  0  0  0  0
  -20.9120  -29.8570   21.7560 H   0  0  0  0  0  0  0  0  0  0  0  0
  -18.0300  -28.0880   22.9350 C   0  0  0  0  0  0  0  0  0  0  0  0
  -20.5850  -28.3610   23.2160 C   0  0  0  0  0  3  0  0  0  0  0  0
  -20.7030  -26.9290   22.6440 C   0  0  0  0  0  2  0  0  0  0  0  0
  -19.6050  -26.5910   21.6300 C   0  0  0  0  0  2  0  0  0  0  0  0
  -18.2180  -26.7370   22.2650 C   0  0  0  0  0  2  0  0  0  0  0  0
  -19.1430  -28.8570   23.3670 C   0  0  0  0  0  0  0  0  0  0  0  0
  -18.9180  -30.1170   23.9560 C   0  0  0  0  0  3  0  0  0  0  0  0
  -17.6110  -30.6170   24.1120 C   0  0  0  0  0  3  0  0  0  0  0  0
  -16.5120  -29.8470   23.6980 C   0  0  0  0  0  3  0  0  0  0  0  0
  -16.7210  -28.5850   23.1140 C   0  0  0  0  0  3  0  0  0  0  0  0
  -25.8580  -32.5500   23.8690 C   0  0  0  0  0  3  0  0  0  0  0  0
  -25.5460  -33.9490   24.1850 N   0  0  0  0  0  0  0  0  0  0  0  0
  -25.8910  -34.9950   23.4240 C   0  0  0  0  0  0  0  0  0  0  0  0
  -26.5710  -34.8820   22.3980 O   0  0  0  0  0  0  0  0  0  0  0  0
  -24.9560  -34.1170   24.9870 H   0  0  0  0  0  0  0  0  0  0  0  0
  -24.1810  -36.7910   23.0270 C   0  0  0  0  0  1  0  0  0  0  0  0
  -25.4040  -36.3890   23.8660 C   0  0  0  0  0  3  0  0  0  0  0  0
  -27.5250  -37.2650   24.7330 C   0  0  0  0  0  1  0  0  0  0  0  0
  -26.4430  -37.4360   23.7670 N   0  0  0  0  0  0  0  0  0  0  0  0
  -26.0400  -38.3580   23.9050 H   0  0  0  0  0  0  0  0  0  0  0  0
  -26.3620  -31.7960   25.1600 C   0  0  1  0  0  0  0  0  0  0  0  0
  -25.2570  -31.5750   26.2200 C   0  0  0  0  0  1  0  0  0  0  0  0
  -26.9530  -30.4200   24.7810 C   0  0  0  0  0  1  0  0  0  0  0  0
  -27.5080  -32.5960   25.8220 C   0  0  0  0  0  1  0  0  0  0  0  0
  1  3  2  0
  2 14  1  0
  2  1  1  0
  4  2  1  0
  5 18  1  0
  6 11  1  0
  7  8  1  0
  7  6  1  0
  9  8  1  0
  9 24  1  0
  9 10  1  0
 11  5  1  0
 11 10  1  0
 12  5  2  0
 13 19  1  0
 13 16  1  0
 14 13  2  0
 15 19  1  0
 17 15  2  0
 17 14  1  0
 18 15  1  0
 20 18  1  0
 21 22  2  0
 22 41  1  0
 23 22  1  0
 23 26  1  0
 24 21  1  0
 24 25  1  0
 25 23  2  0
 26 27  1  0
 27 28  2  0
 29 32  1  0
 29 28  1  0
 30 29  2  0
 31 30  1  0
 31 26  2  0
 32 33  1  0
 33 34  1  0
 34 35  2  0
 36 35  1  0
 36 40  1  0
 37 36  2  0
 38 33  2  0
 38 37  1  0
 39 38  1  0
 41 42  1  0
 42 45  1  0
 42 44  1  0
 43 41  2  0
 46 47  1  0
 46 21  1  0
 48 46  1  0
 51 49  1  6
 51 52  1  0
 51 50  1  0
 51  1  1  0
 53 52  1  0
 54 65  2  0
 55 53  1  0
 55 60  1  0
 56 64  1  0
 56 66  1  0
 57 63  1  0
 57 59  1  0
 58 64  1  0
 59 60  2  0
 59 58  1  0
 61 55  2  0
 62 61  1  0
 62 57  2  0
 63 56  1  0
 64 54  1  0
 66 68  2  0
 67 66  1  0
 69 67  1  0
 70 79  2  0
 70 75  1  0
 71 67  1  0
 71 75  1  0
 72 71  1  0
 73 74  1  0
 73 72  1  0
 74 70  1  0
 75 76  2  0
 76 77  1  0
 78 77  2  0
 79 78  1  0
 80 54  1  0
 80 81  1  0
 80 90  1  0
 81 84  1  0
 82 86  1  0
 82 81  1  0
 83 82  2  0
 86 85  1  0
 88 86  1  0
 88 89  1  0
 88 87  1  0
 90 93  1  1
 90 91  1  0
 92 90  1  0
M  ISO  4   5 100  18 100  52 101  53 101
M  END
>  <TORSDO>  (29) 
F 18

>  <SCORE>  (29) 
-14.961

>  <name>  (29) 
28

>  <ligand_id>  (29) 
28

>  <original_smiles>  (29) 
[H]c1c([H])c([H])c2c(c1[H])C([H])([H])C([H])([H])C([H])([H])C2([H])N([H])C(=O)C1([H])N(C(=O)C([H])(N([H])C(=O)C([H])(N([H])C([H])([H])[H])C([H])([H])[H])C(C([H])([H])[H])(C([H])([H])[H])C([H])([H])[H])C([H])([H])c2c([H])c(OC([H])([H])C(C(=O)N([H])c3nc(N([H])C(=O)N4C([H])([H])C([H])([H])C([H])([H])C([H])(n5nc(-c6c([H])c([H])c(Oc7c([H])c([H])c(F)c([H])c7F)c([H])c6[H])c(C(=O)N([H])[H])c5N([H])[H])C4([H])[H])sc3C([H])([H])[H])(C([H])([H])[H])C([H])([H])[H])c([H])c([H])c2C1([H])[H]

>  <smiles>  (29) 
[H]c1c([H])c([H])c2c(c1[H])C([H])([H])C([H])([H])C([H])([H])C2([H])N([H])C(=O)C1([H])N(C(=O)C([H])(N([H])C(=O)C([H])(N([H])C([H])([H])[H])C([H])([H])[H])C(C([H])([H])[H])(C([H])([H])[H])C([H])([H])[H])C([H])([H])c2c([H])c(OC([H])([H])C(C(=O)N([H])c3nc(N([H])C(=O)N4C([H])([H])C([H])([H])C([H])([H])C([H])(n5nc(-c6c([H])c([H])c(Oc7c([H])c([H])c(F)c([H])c7F)c([H])c6[H])c(C(=O)N([H])[H])c5N([H])[H])C4([H])[H])sc3C([H])([H])[H])(C([H])([H])[H])C([H])([H])[H])c([H])c([H])c2C1([H])[H]

$$$$
29:0:0
     RDKit          3D

 95103  0  0  1  0  0  0  0  0999 V2000
  -28.8800  -22.8380   20.1310 C   0  0  0  0  0  0  0  0  0  0  0  0
  -28.8390  -21.5250   19.6280 N   0  0  0  0  0  0  0  0  0  0  0  0
  -29.3490  -23.0890   21.2410 O   0  0  0  0  0  0  0  0  0  0  0  0
  -28.2990  -21.5250   18.7710 H   0  0  0  0  0  0  0  0  0  0  0  0
  -30.8930  -18.4330   20.6060 C   0  0  0  0  0  0  0  0  0  0  0  0
  -30.5910  -19.8710   20.5030 C   0  0  0  0  0  0  0  0  0  0  0  0
  -29.9020  -17.5640   20.1370 C   0  0  0  0  0  0  0  0  0  0  0  0
  -29.3770  -20.2510   19.9620 C   0  0  0  0  0  0  0  0  0  0  0  0
  -31.4630  -20.7760   20.8880 F   0  0  0  0  0  0  0  0  0  0  0  0
  -28.5900  -18.6760   19.5720 S   0  0  0  0  0  0  0  0  0  0  0  0
  -30.5850  -15.0300   19.9410 C   0  0  0  0  0  0  0  0  0  0  0  0
  -30.4160  -12.7140   18.9720 C   0  0  0  0  0  2  0  0  0  0  0  0
  -29.4010  -12.7120   17.8060 C   0  0  0  0  0  2  0  0  0  0  0  0
  -27.9650  -12.5010   18.3270 C   0  0  0  0  0  2  0  0  0  0  0  0
  -27.6360  -13.4060   19.5440 C   0  0  0  0  0  3  0  0  0  0  0  0
  -28.7620  -13.3760   20.6000 C   0  0  0  0  0  2  0  0  0  0  0  0
  -30.0030  -13.7760   19.9220 N   0  0  0  0  0  0  0  0  0  0  0  0
  -31.7590  -15.1540   19.5790 O   0  0  0  0  0  0  0  0  0  0  0  0
  -29.7530  -16.1420   20.1470 N   0  0  0  0  0  0  0  0  0  0  0  0
  -28.7940  -15.8480   20.2470 H   0  0  0  0  0  0  0  0  0  0  0  0
  -25.3100  -13.9680   20.4620 C   0  0  0  0  0  0  0  0  0  0  0  0
  -24.2700  -13.1810   20.8770 C   0  0  0  0  0  0  0  0  0  0  0  0
  -24.7260  -11.8320   20.7640 C   0  0  0  0  0  0  0  0  0  0  0  0
  -26.3310  -13.0980   20.1200 N   0  0  0  0  0  0  0  0  0  0  0  0
  -25.9920  -11.8060   20.3640 N   0  0  0  0  0  0  0  0  0  0  0  0
  -24.0090  -10.5650   20.9560 C   0  0  0  0  0  0  0  0  0  0  0  0
  -24.4520   -9.6000   21.8870 C   0  0  0  0  0  3  0  0  0  0  0  0
  -23.7350   -8.3970   22.0660 C   0  0  0  0  0  3  0  0  0  0  0  0
  -22.5610   -8.1510   21.3160 C   0  0  0  0  0  0  0  0  0  0  0  0
  -22.1370   -9.1060   20.3740 C   0  0  0  0  0  3  0  0  0  0  0  0
  -22.8550  -10.2990   20.1920 C   0  0  0  0  0  3  0  0  0  0  0  0
  -21.8140   -7.0010   21.4050 O   0  0  0  0  0  0  0  0  0  0  0  0
  -21.7250   -6.2910   22.5750 C   0  0  0  0  0  0  0  0  0  0  0  0
  -21.1900   -6.8570   23.7520 C   0  0  0  0  0  3  0  0  0  0  0  0
  -21.0520   -6.0690   24.9130 C   0  0  0  0  0  3  0  0  0  0  0  0
  -21.4400   -4.7170   24.8980 C   0  0  0  0  0  0  0  0  0  0  0  0
  -21.9700   -4.1500   23.7250 C   0  0  0  0  0  3  0  0  0  0  0  0
  -22.1090   -4.9340   22.5660 C   0  0  0  0  0  0  0  0  0  0  0  0
  -22.6000   -4.3770   21.4330 F   0  0  0  0  0  0  0  0  0  0  0  0
  -21.3020   -3.9580   26.0100 F   0  0  0  0  0  0  0  0  0  0  0  0
  -22.8950  -13.6500   21.2590 C   0  0  0  0  0  0  0  0  0  0  0  0
  -22.2210  -12.9170   22.1380 N   0  0  0  0  0  0  0  0  0  0  0  0
  -22.4320  -14.7000   20.8170 O   0  0  0  0  0  0  0  0  0  0  0  0
  -22.6110  -12.0670   22.5170 H   0  0  0  0  0  0  0  0  0  0  0  0
  -21.3020  -13.2100   22.4350 H   0  0  0  0  0  0  0  0  0  0  0  0
  -25.4620  -15.3450   20.3230 N   0  0  0  0  0  0  0  0  0  0  0  0
  -24.6960  -15.9850   20.5020 H   0  0  0  0  0  0  0  0  0  0  0  0
  -26.2620  -15.7990   19.9020 H   0  0  0  0  0  0  0  0  0  0  0  0
  -32.1380  -17.9490   21.1940 C   0  0  0  0  0  3  0  0  0  0  0  0
  -33.1280  -18.6220   21.5010 O   0  0  0  0  0  0  0  0  0  0  0  0
  -27.9760  -25.2660   19.2650 C   0  0  0  0  0  3  0  0  0  0  0  0
  -28.2830  -23.8870   19.1950 C   0  0  0  0  0  0  0  0  0  0  0  0
  -27.9830  -23.3650   17.9910 O   0  0  0  0  0  0  0  0  0  0  0  0
  -27.6320  -24.0610   17.4520 H   0  0  0  0  0  0  0  0  0  0  0  0
  -28.0020  -26.3740   20.1780 O   0  0  0  0  0  0  0  0  0  0  0  0
  -24.5480  -32.0360   23.3010 C   0  0  0  0  0  0  0  0  0  0  0  0
  -26.9640  -27.3610   20.1360 C   0  0  0  0  0  0  0  0  0  0  0  0
  -23.2750  -30.6790   21.6860 C   0  0  0  0  0  3  0  0  0  0  0  0
  -24.6530  -29.1060   20.2050 C   0  0  0  0  0  0  0  0  0  0  0  0
  -25.8250  -30.9160   21.4450 C   0  0  0  0  0  2  0  0  0  0  0  0
  -25.8570  -29.5360   20.7770 C   0  0  0  0  0  0  0  0  0  0  0  0
  -27.0130  -28.6770   20.7330 C   0  0  0  0  0  3  0  0  0  0  0  0
  -25.7200  -27.0140   19.5540 C   0  0  0  0  0  3  0  0  0  0  0  0
  -24.5920  -27.8550   19.5810 C   0  0  0  0  0  3  0  0  0  0  0  0
  -23.4420  -30.0160   20.2940 C   0  0  0  0  0  2  0  0  0  0  0  0
  -24.5710  -31.2290   22.1990 N   0  0  0  0  0  0  0  0  0  0  0  0
  -23.4830  -32.3350   23.8630 O   0  0  0  0  0  0  0  0  0  0  0  0
  -22.6100  -29.6700   22.6550 C   0  0  0  0  0  0  0  0  0  0  0  0
  -21.2870  -29.4680   22.5150 N   0  0  0  0  0  0  0  0  0  0  0  0
  -23.2850  -29.0730   23.4970 O   0  0  0  0  0  0  0  0  0  0  0  0
  -20.7990  -30.0030   21.8100 H   0  0  0  0  0  0  0  0  0  0  0  0
  -17.9340  -28.1740   22.9570 C   0  0  0  0  0  0  0  0  0  0  0  0
  -20.4740  -28.5310   23.2930 C   0  0  0  0  0  3  0  0  0  0  0  0
  -20.6400  -27.0840   22.7730 C   0  0  0  0  0  2  0  0  0  0  0  0
  -19.5820  -26.6890   21.7380 C   0  0  0  0  0  2  0  0  0  0  0  0
  -18.1760  -26.8090   22.3340 C   0  0  0  0  0  2  0  0  0  0  0  0
  -19.0140  -28.9890   23.3920 C   0  0  0  0  0  0  0  0  0  0  0  0
  -18.7330  -30.2620   23.9340 C   0  0  0  0  0  3  0  0  0  0  0  0
  -17.4080  -30.7220   24.0450 C   0  0  0  0  0  3  0  0  0  0  0  0
  -16.3430  -29.9060   23.6250 C   0  0  0  0  0  3  0  0  0  0  0  0
  -16.6070  -28.6340   23.0870 C   0  0  0  0  0  3  0  0  0  0  0  0
  -25.8570  -32.6420   23.8940 C   0  0  0  0  0  3  0  0  0  0  0  0
  -26.3800  -31.8590   25.1620 C   0  0  1  0  0  0  0  0  0  0  0  0
  -25.2960  -31.6210   26.2390 C   0  0  0  0  0  1  0  0  0  0  0  0
  -26.9530  -30.4820   24.7600 C   0  0  0  0  0  1  0  0  0  0  0  0
  -27.5410  -32.6450   25.8170 C   0  0  0  0  0  1  0  0  0  0  0  0
  -25.5840  -34.0460   24.2330 N   0  0  0  0  0  0  0  0  0  0  0  0
  -25.9030  -35.0930   23.4610 C   0  0  0  0  0  0  0  0  0  0  0  0
  -26.5250  -34.9770   22.4020 O   0  0  0  0  0  0  0  0  0  0  0  0
  -25.0270  -34.2120   25.0590 H   0  0  0  0  0  0  0  0  0  0  0  0
  -24.1900  -36.9170   23.1890 C   0  0  0  0  0  1  0  0  0  0  0  0
  -25.4630  -36.4920   23.9380 C   0  0  0  0  0  3  0  0  0  0  0  0
  -27.6450  -37.3520   24.6690 C   0  0  0  0  0  1  0  0  0  0  0  0
  -26.5070  -37.5270   23.7690 N   0  0  0  0  0  0  0  0  0  0  0  0
  -26.1220  -38.4550   23.9210 H   0  0  0  0  0  0  0  0  0  0  0  0
  1  3  2  0
  2  8  1  0
  2  1  1  0
  4  2  1  0
  5 49  1  0
  6  5  1  0
  6  9  1  0
  7 19  1  0
  7  5  2  0
  8  6  2  0
 10  8  1  0
 10  7  1  0
 11 19  1  0
 12 17  1  0
 13 14  1  0
 13 12  1  0
 15 14  1  0
 15 24  1  0
 15 16  1  0
 17 11  1  0
 17 16  1  0
 18 11  2  0
 19 20  1  0
 21 22  2  0
 22 41  1  0
 23 22  1  0
 23 26  1  0
 24 25  1  0
 24 21  1  0
 25 23  2  0
 26 27  1  0
 27 28  2  0
 29 32  1  0
 29 28  1  0
 30 29  2  0
 31 30  1  0
 31 26  2  0
 32 33  1  0
 33 34  1  0
 34 35  2  0
 36 35  1  0
 36 40  1  0
 37 36  2  0
 38 33  2  0
 38 37  1  0
 39 38  1  0
 41 42  1  0
 42 45  1  0
 42 44  1  0
 43 41  2  0
 46 21  1  0
 46 47  1  0
 48 46  1  0
 49 50  2  0
 51 55  1  0
 52 51  2  0
 52  1  1  0
 53 52  1  0
 54 53  1  0
 56 67  2  0
 57 55  1  0
 57 62  1  0
 58 66  1  0
 58 68  1  0
 59 65  1  0
 59 61  1  0
 60 66  1  0
 61 60  1  0
 62 61  2  0
 63 64  1  0
 63 57  2  0
 64 59  2  0
 65 58  1  0
 66 56  1  0
 68 70  2  0
 69 68  1  0
 71 69  1  0
 72 81  2  0
 72 77  1  0
 73 69  1  0
 73 77  1  0
 74 73  1  0
 75 76  1  0
 75 74  1  0
 76 72  1  0
 77 78  2  0
 78 79  1  0
 80 79  2  0
 81 80  1  0
 82 56  1  0
 82 87  1  0
 82 83  1  0
 83 86  1  1
 83 84  1  0
 85 83  1  0
 87 90  1  0
 88 92  1  0
 88 87  1  0
 89 88  2  0
 92 91  1  0
 94 95  1  0
 94 92  1  0
 94 93  1  0
M  ISO  4  11 100  19 100  51 101  55 101
M  END
>  <TORSDO>  (30) 
F 20

>  <SCORE>  (30) 
-13.972

>  <name>  (30) 
29

>  <ligand_id>  (30) 
29

>  <original_smiles>  (30) 
[H]OC(C(=O)N([H])c1sc(N([H])C(=O)N2C([H])([H])C([H])([H])C([H])([H])C([H])(n3nc(-c4c([H])c([H])c(Oc5c([H])c([H])c(F)c([H])c5F)c([H])c4[H])c(C(=O)N([H])[H])c3N([H])[H])C2([H])[H])c(C([H])=O)c1F)=C([H])Oc1c([H])c([H])c2c(c1[H])C([H])([H])N(C(=O)C([H])(N([H])C(=O)C([H])(N([H])C([H])([H])[H])C([H])([H])[H])C(C([H])([H])[H])(C([H])([H])[H])C([H])([H])[H])C([H])(C(=O)N([H])C1([H])c3c([H])c([H])c([H])c([H])c3C([H])([H])C([H])([H])C1([H])[H])C2([H])[H]

>  <smiles>  (30) 
[H]OC(C(=O)N([H])c1sc(N([H])C(=O)N2C([H])([H])C([H])([H])C([H])([H])C([H])(n3nc(-c4c([H])c([H])c(Oc5c([H])c([H])c(F)c([H])c5F)c([H])c4[H])c(C(=O)N([H])[H])c3N([H])[H])C2([H])[H])c(C([H])=O)c1F)=C([H])Oc1c([H])c([H])c2c(c1[H])C([H])([H])N(C(=O)C([H])(N([H])C(=O)C([H])(N([H])C([H])([H])[H])C([H])([H])[H])C(C([H])([H])[H])(C([H])([H])[H])C([H])([H])[H])C([H])(C(=O)N([H])C1([H])c3c([H])c([H])c([H])c([H])c3C([H])([H])C([H])([H])C1([H])[H])C2([H])[H]

$$$$
30:0:0
     RDKit          3D

 93101  0  0  1  0  0  0  0  0999 V2000
  -28.9600  -22.5970   19.9340 C   0  0  0  0  0  0  0  0  0  0  0  0
  -28.7800  -21.2150   20.2100 N   0  0  0  0  0  0  0  0  0  0  0  0
  -29.7700  -22.9960   19.0980 O   0  0  0  0  0  0  0  0  0  0  0  0
  -28.0620  -21.1400   20.9190 H   0  0  0  0  0  0  0  0  0  0  0  0
  -30.5180  -14.8870   20.2300 C   0  0  0  0  0  0  0  0  0  0  0  0
  -30.3940  -12.5490   19.3160 C   0  0  0  0  0  2  0  0  0  0  0  0
  -29.4440  -12.5790   18.0970 C   0  0  0  0  0  2  0  0  0  0  0  0
  -27.9840  -12.3720   18.5430 C   0  0  0  0  0  2  0  0  0  0  0  0
  -27.6000  -13.2750   19.7470 C   0  0  0  0  0  3  0  0  0  0  0  0
  -28.6710  -13.2210   20.8570 C   0  0  0  0  0  2  0  0  0  0  0  0
  -29.9450  -13.6210   20.2450 N   0  0  0  0  0  0  0  0  0  0  0  0
  -31.7040  -14.9830   19.8960 O   0  0  0  0  0  0  0  0  0  0  0  0
  -30.1340  -19.6390   18.6490 C   0  0  0  0  0  0  0  0  0  0  0  0
  -29.3750  -19.8780   19.7950 C   0  0  0  0  0  0  0  0  0  0  0  0
  -29.8300  -17.4670   19.9820 C   0  0  0  0  0  0  0  0  0  0  0  0
  -30.5110  -20.5560   17.5220 C   0  0  0  0  0  1  0  0  0  0  0  0
  -29.1790  -18.5900   20.4840 N   0  0  0  0  0  0  0  0  0  0  0  0
  -29.7170  -16.0290   20.4480 N   0  0  0  0  0  0  0  0  0  0  0  0
  -30.7150  -17.9580   18.5390 S   0  0  0  0  0  0  0  0  0  0  0  0
  -28.8330  -15.8060   20.8730 H   0  0  0  0  0  0  0  0  0  0  0  0
  -25.2200  -13.8540   20.5110 C   0  0  0  0  0  0  0  0  0  0  0  0
  -24.1560  -13.0730   20.8770 C   0  0  0  0  0  0  0  0  0  0  0  0
  -24.6270  -11.7250   20.8390 C   0  0  0  0  0  0  0  0  0  0  0  0
  -26.2620  -12.9780   20.2540 N   0  0  0  0  0  0  0  0  0  0  0  0
  -25.9150  -11.6910   20.5200 N   0  0  0  0  0  0  0  0  0  0  0  0
  -23.9050  -10.4610   21.0310 C   0  0  0  0  0  0  0  0  0  0  0  0
  -24.3470   -9.4930   21.9610 C   0  0  0  0  0  3  0  0  0  0  0  0
  -23.6240   -8.2940   22.1430 C   0  0  0  0  0  3  0  0  0  0  0  0
  -22.4470   -8.0530   21.3980 C   0  0  0  0  0  0  0  0  0  0  0  0
  -22.0260   -9.0100   20.4550 C   0  0  0  0  0  3  0  0  0  0  0  0
  -22.7470  -10.2010   20.2710 C   0  0  0  0  0  3  0  0  0  0  0  0
  -21.6960   -6.9040   21.4930 O   0  0  0  0  0  0  0  0  0  0  0  0
  -21.6640   -6.1560   22.6420 C   0  0  0  0  0  0  0  0  0  0  0  0
  -21.2450   -6.7050   23.8740 C   0  0  0  0  0  3  0  0  0  0  0  0
  -21.1590   -5.8850   25.0150 C   0  0  0  0  0  3  0  0  0  0  0  0
  -21.4750   -4.5160   24.9280 C   0  0  0  0  0  0  0  0  0  0  0  0
  -21.8840   -3.9660   23.7000 C   0  0  0  0  0  3  0  0  0  0  0  0
  -21.9750   -4.7820   22.5600 C   0  0  0  0  0  0  0  0  0  0  0  0
  -22.3500   -4.2440   21.3740 F   0  0  0  0  0  0  0  0  0  0  0  0
  -21.3800   -3.7260   26.0230 F   0  0  0  0  0  0  0  0  0  0  0  0
  -22.7590  -13.5450   21.1550 C   0  0  0  0  0  0  0  0  0  0  0  0
  -22.0350  -12.8460   22.0190 N   0  0  0  0  0  0  0  0  0  0  0  0
  -22.3190  -14.5750   20.6420 O   0  0  0  0  0  0  0  0  0  0  0  0
  -22.4040  -12.0120   22.4530 H   0  0  0  0  0  0  0  0  0  0  0  0
  -21.0990  -13.1490   22.2560 H   0  0  0  0  0  0  0  0  0  0  0  0
  -25.3810  -15.2270   20.3610 N   0  0  0  0  0  0  0  0  0  0  0  0
  -24.6330  -15.8780   20.5760 H   0  0  0  0  0  0  0  0  0  0  0  0
  -26.2570  -15.6870   20.1560 H   0  0  0  0  0  0  0  0  0  0  0  0
  -27.8660  -24.9540   20.8290 C   0  0  0  0  0  3  0  0  0  0  0  0
  -28.1060  -23.5500   20.7740 C   0  0  0  0  0  0  0  0  0  0  0  0
  -27.4230  -22.8800   21.7180 O   0  0  0  0  0  0  0  0  0  0  0  0
  -26.9710  -23.5120   22.2600 H   0  0  0  0  0  0  0  0  0  0  0  0
  -28.2300  -26.2070   20.2090 O   0  0  0  0  0  0  0  0  0  0  0  0
  -24.6190  -31.8740   23.2370 C   0  0  0  0  0  0  0  0  0  0  0  0
  -27.2120  -27.2180   20.1810 C   0  0  0  0  0  0  0  0  0  0  0  0
  -23.4210  -30.4720   21.6000 C   0  0  0  0  0  3  0  0  0  0  0  0
  -24.8710  -28.9170   20.1600 C   0  0  0  0  0  0  0  0  0  0  0  0
  -25.9670  -30.7580   21.4290 C   0  0  0  0  0  2  0  0  0  0  0  0
  -26.0490  -29.3730   20.7760 C   0  0  0  0  0  0  0  0  0  0  0  0
  -27.2250  -28.5360   20.7790 C   0  0  0  0  0  3  0  0  0  0  0  0
  -26.0150  -26.8560   19.5310 C   0  0  0  0  0  3  0  0  0  0  0  0
  -24.8650  -27.6710   19.5230 C   0  0  0  0  0  3  0  0  0  0  0  0
  -23.6360  -29.8010   20.2170 C   0  0  0  0  0  2  0  0  0  0  0  0
  -24.6880  -31.0550   22.1440 N   0  0  0  0  0  0  0  0  0  0  0  0
  -23.5320  -32.1560   23.7710 O   0  0  0  0  0  0  0  0  0  0  0  0
  -22.7530  -29.4580   22.5620 C   0  0  0  0  0  0  0  0  0  0  0  0
  -21.4240  -29.2840   22.4360 N   0  0  0  0  0  0  0  0  0  0  0  0
  -23.4270  -28.8330   23.3820 O   0  0  0  0  0  0  0  0  0  0  0  0
  -20.9370  -29.8400   21.7480 H   0  0  0  0  0  0  0  0  0  0  0  0
  -18.0450  -28.0830   22.9420 C   0  0  0  0  0  0  0  0  0  0  0  0
  -20.6040  -28.3460   23.2090 C   0  0  0  0  0  3  0  0  0  0  0  0
  -20.7050  -26.9130   22.6370 C   0  0  0  0  0  2  0  0  0  0  0  0
  -19.6050  -26.5880   21.6220 C   0  0  0  0  0  2  0  0  0  0  0  0
  -18.2240  -26.7310   22.2680 C   0  0  0  0  0  2  0  0  0  0  0  0
  -19.1640  -28.8460   23.3670 C   0  0  0  0  0  0  0  0  0  0  0  0
  -18.9460  -30.1090   23.9620 C   0  0  0  0  0  3  0  0  0  0  0  0
  -17.6420  -30.6060   24.1360 C   0  0  0  0  0  3  0  0  0  0  0  0
  -16.5380  -29.8410   23.7220 C   0  0  0  0  0  3  0  0  0  0  0  0
  -16.7380  -28.5790   23.1320 C   0  0  0  0  0  3  0  0  0  0  0  0
  -25.8990  -32.5090   23.8590 C   0  0  0  0  0  3  0  0  0  0  0  0
  -25.5880  -33.9100   24.1870 N   0  0  0  0  0  0  0  0  0  0  0  0
  -25.9130  -34.9630   23.4240 C   0  0  0  0  0  0  0  0  0  0  0  0
  -26.5830  -34.8560   22.3920 O   0  0  0  0  0  0  0  0  0  0  0  0
  -24.9950  -34.0630   24.9890 H   0  0  0  0  0  0  0  0  0  0  0  0
  -24.1820  -36.7530   23.0720 C   0  0  0  0  0  1  0  0  0  0  0  0
  -25.4260  -36.3500   23.8790 C   0  0  0  0  0  3  0  0  0  0  0  0
  -27.5590  -37.2450   24.7030 C   0  0  0  0  0  1  0  0  0  0  0  0
  -26.4550  -37.4040   23.7580 N   0  0  0  0  0  0  0  0  0  0  0  0
  -26.0480  -38.3250   23.8970 H   0  0  0  0  0  0  0  0  0  0  0  0
  -26.4060  -31.7460   25.1430 C   0  0  1  0  0  0  0  0  0  0  0  0
  -25.3050  -31.5250   26.2060 C   0  0  0  0  0  1  0  0  0  0  0  0
  -26.9930  -30.3650   24.7730 C   0  0  0  0  0  1  0  0  0  0  0  0
  -27.5570  -32.5410   25.8020 C   0  0  0  0  0  1  0  0  0  0  0  0
  1  2  1  0
  1 50  1  0
  2  4  1  0
  3  1  2  0
  5 11  1  0
  5 18  1  0
  6 11  1  0
  7  8  1  0
  7  6  1  0
  9  8  1  0
  9 24  1  0
  9 10  1  0
 11 10  1  0
 12  5  2  0
 13 14  2  0
 14  2  1  0
 14 17  1  0
 15 18  1  0
 15 17  2  0
 16 13  1  0
 18 20  1  0
 19 13  1  0
 19 15  1  0
 21 22  2  0
 22 41  1  0
 23 22  1  0
 23 26  1  0
 24 21  1  0
 24 25  1  0
 25 23  2  0
 26 27  1  0
 27 28  2  0
 29 32  1  0
 29 28  1  0
 30 29  2  0
 31 30  1  0
 31 26  2  0
 32 33  1  0
 33 34  1  0
 34 35  2  0
 36 35  1  0
 36 40  1  0
 37 36  2  0
 38 33  2  0
 38 37  1  0
 39 38  1  0
 41 42  1  0
 42 45  1  0
 42 44  1  0
 43 41  2  0
 46 21  1  0
 46 47  1  0
 48 46  1  0
 50 49  2  0
 50 51  1  0
 51 52  1  0
 53 49  1  0
 54 65  2  0
 55 53  1  0
 55 60  1  0
 56 64  1  0
 56 66  1  0
 57 63  1  0
 57 59  1  0
 58 64  1  0
 59 60  2  0
 59 58  1  0
 61 55  2  0
 62 61  1  0
 62 57  2  0
 63 56  1  0
 64 54  1  0
 66 68  2  0
 67 66  1  0
 69 67  1  0
 70 79  2  0
 70 75  1  0
 71 67  1  0
 71 75  1  0
 72 71  1  0
 73 74  1  0
 73 72  1  0
 74 70  1  0
 75 76  2  0
 76 77  1  0
 78 77  2  0
 79 78  1  0
 80 54  1  0
 80 81  1  0
 80 90  1  0
 81 84  1  0
 82 86  1  0
 82 81  1  0
 83 82  2  0
 86 85  1  0
 88 86  1  0
 88 89  1  0
 88 87  1  0
 90 93  1  1
 90 91  1  0
 92 90  1  0
M  ISO  4   5 100  18 100  49 101  53 101
M  END
>  <TORSDO>  (31) 
F 18

>  <SCORE>  (31) 
-15.078

>  <name>  (31) 
30

>  <ligand_id>  (31) 
30

>  <original_smiles>  (31) 
[H]OC(C(=O)N([H])c1nc(N([H])C(=O)N2C([H])([H])C([H])([H])C([H])([H])C([H])(n3nc(-c4c([H])c([H])c(Oc5c([H])c([H])c(F)c([H])c5F)c([H])c4[H])c(C(=O)N([H])[H])c3N([H])[H])C2([H])[H])sc1C([H])([H])[H])=C([H])Oc1c([H])c([H])c2c(c1[H])C([H])([H])N(C(=O)C([H])(N([H])C(=O)C([H])(N([H])C([H])([H])[H])C([H])([H])[H])C(C([H])([H])[H])(C([H])([H])[H])C([H])([H])[H])C([H])(C(=O)N([H])C1([H])c3c([H])c([H])c([H])c([H])c3C([H])([H])C([H])([H])C1([H])[H])C2([H])[H]

>  <smiles>  (31) 
[H]OC(C(=O)N([H])c1nc(N([H])C(=O)N2C([H])([H])C([H])([H])C([H])([H])C([H])(n3nc(-c4c([H])c([H])c(Oc5c([H])c([H])c(F)c([H])c5F)c([H])c4[H])c(C(=O)N([H])[H])c3N([H])[H])C2([H])[H])sc1C([H])([H])[H])=C([H])Oc1c([H])c([H])c2c(c1[H])C([H])([H])N(C(=O)C([H])(N([H])C(=O)C([H])(N([H])C([H])([H])[H])C([H])([H])[H])C(C([H])([H])[H])(C([H])([H])[H])C([H])([H])[H])C([H])(C(=O)N([H])C1([H])c3c([H])c([H])c([H])c([H])c3C([H])([H])C([H])([H])C1([H])[H])C2([H])[H]

$$$$
31:0:0
     RDKit          3D

 93101  0  0  1  0  0  0  0  0999 V2000
  -29.0280  -23.0350   21.0740 C   0  0  0  0  0  0  0  0  0  0  0  0
  -29.7530  -21.9160   20.8330 N   0  0  0  0  0  0  0  0  0  0  0  0
  -28.1570  -23.0820   21.9500 O   0  0  0  0  0  0  0  0  0  0  0  0
  -30.4610  -21.9340   20.1120 H   0  0  0  0  0  0  0  0  0  0  0  0
  -29.3800  -24.3080   20.2200 C   0  0  0  0  0  0  0  0  0  0  0  0
  -30.5400  -24.5670   19.8740 O   0  0  0  0  0  0  0  0  0  0  0  0
  -28.1900  -25.2160   19.8190 C   0  0  0  0  0  2  0  0  0  0  0  0
  -28.4070  -26.6450   19.9980 O   0  0  0  0  0  0  0  0  0  0  0  0
  -24.5960  -31.7750   23.2220 C   0  0  0  0  0  0  0  0  0  0  0  0
  -27.2560  -27.4260   19.9820 C   0  0  0  0  0  0  0  0  0  0  0  0
  -23.3970  -30.4220   21.5400 C   0  0  0  0  0  3  0  0  0  0  0  0
  -24.8560  -28.9530   20.0520 C   0  0  0  0  0  0  0  0  0  0  0  0
  -25.9250  -30.7950   21.3490 C   0  0  0  0  0  2  0  0  0  0  0  0
  -26.0180  -29.4480   20.6580 C   0  0  0  0  0  0  0  0  0  0  0  0
  -27.2200  -28.6940   20.6190 C   0  0  0  0  0  3  0  0  0  0  0  0
  -26.0690  -26.9700   19.3540 C   0  0  0  0  0  3  0  0  0  0  0  0
  -24.8790  -27.7130   19.3970 C   0  0  0  0  0  3  0  0  0  0  0  0
  -23.6070  -29.8000   20.1360 C   0  0  0  0  0  2  0  0  0  0  0  0
  -24.6580  -31.0100   22.0960 N   0  0  0  0  0  0  0  0  0  0  0  0
  -23.5140  -32.0200   23.7730 O   0  0  0  0  0  0  0  0  0  0  0  0
  -22.7570  -29.3600   22.4650 C   0  0  0  0  0  0  0  0  0  0  0  0
  -21.4390  -29.1450   22.3130 N   0  0  0  0  0  0  0  0  0  0  0  0
  -23.4440  -28.7350   23.2770 O   0  0  0  0  0  0  0  0  0  0  0  0
  -20.9440  -29.7040   21.6310 H   0  0  0  0  0  0  0  0  0  0  0  0
  -18.0960  -27.8300   22.7070 C   0  0  0  0  0  0  0  0  0  0  0  0
  -20.6360  -28.1690   23.0490 C   0  0  0  0  0  3  0  0  0  0  0  0
  -20.8020  -26.7510   22.4550 C   0  0  0  0  0  2  0  0  0  0  0  0
  -19.7370  -26.4060   21.4100 C   0  0  0  0  0  2  0  0  0  0  0  0
  -18.3350  -26.4970   22.0190 C   0  0  0  0  0  2  0  0  0  0  0  0
  -19.1770  -28.6220   23.1760 C   0  0  0  0  0  0  0  0  0  0  0  0
  -18.9010  -29.8700   23.7770 C   0  0  0  0  0  3  0  0  0  0  0  0
  -17.5760  -30.3260   23.9130 C   0  0  0  0  0  3  0  0  0  0  0  0
  -16.5090  -29.5300   23.4620 C   0  0  0  0  0  3  0  0  0  0  0  0
  -16.7700  -28.2830   22.8630 C   0  0  0  0  0  3  0  0  0  0  0  0
  -25.8780  -32.3970   23.8580 C   0  0  0  0  0  3  0  0  0  0  0  0
  -26.4010  -31.5950   25.1130 C   0  0  1  0  0  0  0  0  0  0  0  0
  -25.3080  -31.3170   26.1710 C   0  0  0  0  0  1  0  0  0  0  0  0
  -26.9970  -30.2360   24.6810 C   0  0  0  0  0  1  0  0  0  0  0  0
  -27.5410  -32.3820   25.7990 C   0  0  0  0  0  1  0  0  0  0  0  0
  -25.5620  -33.7840   24.2230 N   0  0  0  0  0  0  0  0  0  0  0  0
  -25.9210  -34.8590   23.5080 C   0  0  0  0  0  0  0  0  0  0  0  0
  -26.6230  -34.7870   22.4950 O   0  0  0  0  0  0  0  0  0  0  0  0
  -24.9430  -33.9150   25.0100 H   0  0  0  0  0  0  0  0  0  0  0  0
  -24.2360  -36.6880   23.1260 C   0  0  0  0  0  1  0  0  0  0  0  0
  -25.4210  -36.2330   23.9940 C   0  0  0  0  0  3  0  0  0  0  0  0
  -27.5080  -37.0550   24.9930 C   0  0  0  0  0  1  0  0  0  0  0  0
  -26.4700  -37.2760   23.9890 N   0  0  0  0  0  0  0  0  0  0  0  0
  -26.0650  -38.1950   24.1490 H   0  0  0  0  0  0  0  0  0  0  0  0
  -29.6850  -20.7380   21.7270 C   0  0  0  0  0  2  0  0  0  0  0  0
  -30.9500  -17.7960   19.7680 C   0  0  0  0  0  0  0  0  0  0  0  0
  -30.3320  -16.9340   20.6590 C   0  0  0  0  0  0  0  0  0  0  0  0
  -30.0210  -19.3970   21.1030 C   0  0  0  0  0  0  0  0  0  0  0  0
  -30.7810  -19.1710   20.0240 N   0  0  0  0  0  0  0  0  0  0  0  0
  -31.6280  -17.3930   18.7210 F   0  0  0  0  0  0  0  0  0  0  0  0
  -29.4680  -17.8900   21.8460 S   0  0  0  0  0  0  0  0  0  0  0  0
  -30.9270  -14.6080   20.0550 C   0  0  0  0  0  0  0  0  0  0  0  0
  -30.5850  -12.4430   18.9080 C   0  0  0  0  0  2  0  0  0  0  0  0
  -29.5490  -12.6460   17.7800 C   0  0  0  0  0  2  0  0  0  0  0  0
  -28.1120  -12.4970   18.3170 C   0  0  0  0  0  2  0  0  0  0  0  0
  -27.8680  -13.3210   19.6090 C   0  0  0  0  0  3  0  0  0  0  0  0
  -29.0010  -13.0780   20.6310 C   0  0  0  0  0  2  0  0  0  0  0  0
  -30.2810  -13.4090   19.9760 N   0  0  0  0  0  0  0  0  0  0  0  0
  -32.0090  -14.8160   19.5020 O   0  0  0  0  0  0  0  0  0  0  0  0
  -30.2470  -15.5670   20.7190 N   0  0  0  0  0  0  0  0  0  0  0  0
  -29.4620  -15.2130   21.2440 H   0  0  0  0  0  0  0  0  0  0  0  0
  -25.5510  -13.9330   20.5500 C   0  0  0  0  0  0  0  0  0  0  0  0
  -24.4980  -13.1600   20.9630 C   0  0  0  0  0  0  0  0  0  0  0  0
  -24.9220  -11.8040   20.8150 C   0  0  0  0  0  0  0  0  0  0  0  0
  -26.5520  -13.0460   20.1810 N   0  0  0  0  0  0  0  0  0  0  0  0
  -26.1800  -11.7590   20.3960 N   0  0  0  0  0  0  0  0  0  0  0  0
  -24.1850  -10.5470   20.9920 C   0  0  0  0  0  0  0  0  0  0  0  0
  -24.6010   -9.5720   21.9240 C   0  0  0  0  0  3  0  0  0  0  0  0
  -23.8650   -8.3780   22.0890 C   0  0  0  0  0  3  0  0  0  0  0  0
  -22.6980   -8.1530   21.3210 C   0  0  0  0  0  0  0  0  0  0  0  0
  -22.3010   -9.1180   20.3780 C   0  0  0  0  0  3  0  0  0  0  0  0
  -23.0370  -10.3020   20.2120 C   0  0  0  0  0  3  0  0  0  0  0  0
  -21.9340   -7.0130   21.3940 O   0  0  0  0  0  0  0  0  0  0  0  0
  -21.7760   -6.3290   22.5720 C   0  0  0  0  0  0  0  0  0  0  0  0
  -21.2230   -6.9370   23.7210 C   0  0  0  0  0  3  0  0  0  0  0  0
  -21.0150   -6.1780   24.8890 C   0  0  0  0  0  3  0  0  0  0  0  0
  -21.3470   -4.8100   24.9090 C   0  0  0  0  0  0  0  0  0  0  0  0
  -21.8930   -4.2010   23.7650 C   0  0  0  0  0  3  0  0  0  0  0  0
  -22.1040   -4.9580   22.5990 C   0  0  0  0  0  0  0  0  0  0  0  0
  -22.6100   -4.3620   21.4930 F   0  0  0  0  0  0  0  0  0  0  0  0
  -21.1400   -4.0780   26.0280 F   0  0  0  0  0  0  0  0  0  0  0  0
  -23.1410  -13.6470   21.3810 C   0  0  0  0  0  0  0  0  0  0  0  0
  -22.4750  -12.9190   22.2710 N   0  0  0  0  0  0  0  0  0  0  0  0
  -22.6820  -14.7080   20.9570 O   0  0  0  0  0  0  0  0  0  0  0  0
  -22.8590  -12.0600   22.6340 H   0  0  0  0  0  0  0  0  0  0  0  0
  -21.5680  -13.2260   22.5930 H   0  0  0  0  0  0  0  0  0  0  0  0
  -25.7330  -15.3080   20.4370 N   0  0  0  0  0  0  0  0  0  0  0  0
  -24.9910  -15.9680   20.6400 H   0  0  0  0  0  0  0  0  0  0  0  0
  -26.5600  -15.7470   20.0520 H   0  0  0  0  0  0  0  0  0  0  0  0
  1  3  2  0
  2  1  1  0
  2 49  1  0
  4  2  1  0
  5  1  1  0
  6  5  2  0
  7  8  1  0
  7  5  1  0
  9 20  2  0
 10  8  1  0
 10 15  1  0
 11 19  1  0
 11 21  1  0
 12 18  1  0
 12 14  1  0
 13 19  1  0
 14 13  1  0
 15 14  2  0
 16 17  1  0
 16 10  2  0
 17 12  2  0
 18 11  1  0
 19  9  1  0
 21 23  2  0
 22 21  1  0
 24 22  1  0
 25 34  2  0
 25 30  1  0
 26 22  1  0
 26 30  1  0
 27 26  1  0
 28 29  1  0
 28 27  1  0
 29 25  1  0
 30 31  2  0
 31 32  1  0
 33 32  2  0
 34 33  1  0
 35  9  1  0
 35 40  1  0
 35 36  1  0
 36 39  1  1
 36 37  1  0
 38 36  1  0
 40 43  1  0
 41 45  1  0
 41 40  1  0
 42 41  2  0
 45 44  1  0
 47 45  1  0
 47 48  1  0
 47 46  1  0
 50 53  1  0
 50 51  2  0
 51 64  1  0
 51 55  1  0
 52 49  1  0
 52 55  1  0
 53 52  2  0
 54 50  1  0
 56 64  1  0
 57 62  1  0
 58 59  1  0
 58 57  1  0
 60 59  1  0
 60 69  1  0
 60 61  1  0
 62 56  1  0
 62 61  1  0
 63 56  2  0
 64 65  1  0
 66 67  2  0
 67 86  1  0
 68 67  1  0
 68 71  1  0
 69 70  1  0
 69 66  1  0
 70 68  2  0
 71 72  1  0
 72 73  2  0
 74 77  1  0
 74 73  1  0
 75 74  2  0
 76 75  1  0
 76 71  2  0
 77 78  1  0
 78 83  2  0
 78 79  1  0
 79 80  2  0
 80 81  1  0
 81 85  1  0
 82 81  2  0
 83 82  1  0
 84 83  1  0
 86 87  1  0
 87 90  1  0
 87 89  1  0
 88 86  2  0
 91 66  1  0
 91 92  1  0
 93 91  1  0
M  ISO  4   7 101   8 101  56 100  64 100
M  END
>  <TORSDO>  (32) 
F 20

>  <SCORE>  (32) 
-12.418

>  <name>  (32) 
31

>  <ligand_id>  (32) 
31

>  <original_smiles>  (32) 
[H]c1c([H])c([H])c2c(c1[H])C([H])([H])C([H])([H])C([H])([H])C2([H])N([H])C(=O)C1([H])N(C(=O)C([H])(N([H])C(=O)C([H])(N([H])C([H])([H])[H])C([H])([H])[H])C(C([H])([H])[H])(C([H])([H])[H])C([H])([H])[H])C([H])([H])c2c([H])c(OC([H])([H])C(=O)C(=O)N([H])C([H])([H])c3nc(F)c(N([H])C(=O)N4C([H])([H])C([H])([H])C([H])([H])C([H])(n5nc(-c6c([H])c([H])c(Oc7c([H])c([H])c(F)c([H])c7F)c([H])c6[H])c(C(=O)N([H])[H])c5N([H])[H])C4([H])[H])s3)c([H])c([H])c2C1([H])[H]

>  <smiles>  (32) 
[H]c1c([H])c([H])c2c(c1[H])C([H])([H])C([H])([H])C([H])([H])C2([H])N([H])C(=O)C1([H])N(C(=O)C([H])(N([H])C(=O)C([H])(N([H])C([H])([H])[H])C([H])([H])[H])C(C([H])([H])[H])(C([H])([H])[H])C([H])([H])[H])C([H])([H])c2c([H])c(OC([H])([H])C(=O)C(=O)N([H])C([H])([H])c3nc(F)c(N([H])C(=O)N4C([H])([H])C([H])([H])C([H])([H])C([H])(n5nc(-c6c([H])c([H])c(Oc7c([H])c([H])c(F)c([H])c7F)c([H])c6[H])c(C(=O)N([H])[H])c5N([H])[H])C4([H])[H])s3)c([H])c([H])c2C1([H])[H]

$$$$
32:0:0
     RDKit          3D

 99107  0  0  1  0  0  0  0  0999 V2000
  -31.5740  -17.6510   21.2580 C   0  0  0  0  0  3  0  0  0  0  0  0
  -31.6640  -19.0650   21.2210 C   0  0  0  0  0  0  0  0  0  0  0  0
  -30.3320  -17.0180   21.0440 C   0  0  0  0  0  0  0  0  0  0  0  0
  -30.4630  -19.7820   20.9510 C   0  0  0  0  0  0  0  0  0  0  0  0
  -29.2150  -17.8200   20.7750 C   0  0  0  0  0  0  0  0  0  0  0  0
  -29.2810  -19.1640   20.7190 N   0  0  0  0  0  0  0  0  0  0  0  0
  -30.4160  -21.1870   20.9070 N   0  0  0  0  0  0  0  0  0  0  0  0
  -28.0170  -17.2230   20.5640 F   0  0  0  0  0  0  0  0  0  0  0  0
  -31.2850  -21.6570   21.1560 H   0  0  0  0  0  0  0  0  0  0  0  0
  -30.8300  -14.6820   20.4620 C   0  0  0  0  0  0  0  0  0  0  0  0
  -30.6180  -12.4620   19.4080 C   0  0  0  0  0  2  0  0  0  0  0  0
  -29.6710  -12.5400   18.1930 C   0  0  0  0  0  2  0  0  0  0  0  0
  -28.2000  -12.3820   18.6250 C   0  0  0  0  0  2  0  0  0  0  0  0
  -27.8230  -13.3000   19.8180 C   0  0  0  0  0  3  0  0  0  0  0  0
  -28.8720  -13.1680   20.9450 C   0  0  0  0  0  2  0  0  0  0  0  0
  -30.1980  -13.4820   20.3770 N   0  0  0  0  0  0  0  0  0  0  0  0
  -31.9060  -14.9290   19.9080 O   0  0  0  0  0  0  0  0  0  0  0  0
  -30.1530  -15.6140   21.1420 N   0  0  0  0  0  0  0  0  0  0  0  0
  -29.2470  -15.3080   21.4670 H   0  0  0  0  0  0  0  0  0  0  0  0
  -25.4280  -13.9020   20.5540 C   0  0  0  0  0  0  0  0  0  0  0  0
  -24.3620  -13.1240   20.9190 C   0  0  0  0  0  0  0  0  0  0  0  0
  -24.8210  -11.7740   20.8630 C   0  0  0  0  0  0  0  0  0  0  0  0
  -26.4720  -13.0240   20.3020 N   0  0  0  0  0  0  0  0  0  0  0  0
  -26.1090  -11.7370   20.5420 N   0  0  0  0  0  0  0  0  0  0  0  0
  -24.0970  -10.5080   21.0410 C   0  0  0  0  0  0  0  0  0  0  0  0
  -24.5240   -9.5390   21.9750 C   0  0  0  0  0  3  0  0  0  0  0  0
  -23.8020   -8.3380   22.1410 C   0  0  0  0  0  3  0  0  0  0  0  0
  -22.6390   -8.0970   21.3710 C   0  0  0  0  0  0  0  0  0  0  0  0
  -22.2320   -9.0560   20.4260 C   0  0  0  0  0  3  0  0  0  0  0  0
  -22.9550  -10.2480   20.2600 C   0  0  0  0  0  3  0  0  0  0  0  0
  -21.8890   -6.9490   21.4460 O   0  0  0  0  0  0  0  0  0  0  0  0
  -21.7900   -6.2270   22.6090 C   0  0  0  0  0  0  0  0  0  0  0  0
  -21.2580   -6.7880   23.7900 C   0  0  0  0  0  3  0  0  0  0  0  0
  -21.1110   -5.9910   24.9430 C   0  0  0  0  0  3  0  0  0  0  0  0
  -21.4840   -4.6330   24.9150 C   0  0  0  0  0  0  0  0  0  0  0  0
  -22.0090   -4.0720   23.7360 C   0  0  0  0  0  3  0  0  0  0  0  0
  -22.1590   -4.8670   22.5860 C   0  0  0  0  0  0  0  0  0  0  0  0
  -22.6450   -4.3160   21.4480 F   0  0  0  0  0  0  0  0  0  0  0  0
  -21.3350   -3.8660   26.0190 F   0  0  0  0  0  0  0  0  0  0  0  0
  -22.9670  -13.5970   21.2140 C   0  0  0  0  0  0  0  0  0  0  0  0
  -22.2490  -12.8880   22.0800 N   0  0  0  0  0  0  0  0  0  0  0  0
  -22.5210  -14.6290   20.7140 O   0  0  0  0  0  0  0  0  0  0  0  0
  -22.6210  -12.0530   22.5070 H   0  0  0  0  0  0  0  0  0  0  0  0
  -21.3130  -13.1860   22.3170 H   0  0  0  0  0  0  0  0  0  0  0  0
  -25.5920  -15.2750   20.4010 N   0  0  0  0  0  0  0  0  0  0  0  0
  -24.8320  -15.9300   20.5480 H   0  0  0  0  0  0  0  0  0  0  0  0
  -26.4600  -15.7310   20.1460 H   0  0  0  0  0  0  0  0  0  0  0  0
  -32.9850  -19.7080   21.4910 C   0  0  0  0  0  0  0  0  0  0  0  0
  -35.2830  -19.8030   21.9290 C   0  0  0  0  0  1  0  0  0  0  0  0
  -34.0680  -19.0560   21.6660 N   0  0  0  0  0  0  0  0  0  0  0  0
  -33.0340  -21.0530   21.5530 F   0  0  0  0  0  0  0  0  0  0  0  0
  -29.2050  -21.8630   21.3690 C   0  0  0  0  0  2  0  0  0  0  0  0
  -29.5190  -23.1500   22.1590 C   0  0  0  0  0  3  0  0  0  0  0  0
  -30.4710  -22.8670   23.0520 F   0  0  0  0  0  0  0  0  0  0  0  0
  -29.9750  -24.3670   21.3260 C   0  0  0  0  0  2  0  0  0  0  0  0
  -28.8320  -25.1170   20.6320 C   0  0  0  0  0  0  0  0  0  0  0  0
  -27.9030  -24.5120   20.0860 O   0  0  0  0  0  0  0  0  0  0  0  0
  -28.8900  -26.6520   20.6330 C   0  0  0  0  0  2  0  0  0  0  0  0
  -28.1970  -27.1460   19.4910 O   0  0  0  0  0  0  0  0  0  0  0  0
  -24.4840  -31.9930   23.2250 C   0  0  0  0  0  0  0  0  0  0  0  0
  -27.0330  -27.8350   19.7180 C   0  0  0  0  0  0  0  0  0  0  0  0
  -23.2120  -30.6850   21.5520 C   0  0  0  0  0  3  0  0  0  0  0  0
  -24.6140  -29.2670   19.9610 C   0  0  0  0  0  0  0  0  0  0  0  0
  -25.7150  -31.1030   21.2510 C   0  0  0  0  0  2  0  0  0  0  0  0
  -25.7890  -29.7740   20.5310 C   0  0  0  0  0  0  0  0  0  0  0  0
  -27.0020  -29.0600   20.4200 C   0  0  0  0  0  3  0  0  0  0  0  0
  -25.8460  -27.3370   19.1460 C   0  0  0  0  0  3  0  0  0  0  0  0
  -24.6330  -28.0420   19.2720 C   0  0  0  0  0  3  0  0  0  0  0  0
  -23.3600  -30.1000   20.1220 C   0  0  0  0  0  2  0  0  0  0  0  0
  -24.4920  -31.2710   22.0690 N   0  0  0  0  0  0  0  0  0  0  0  0
  -23.4310  -32.2100   23.8380 O   0  0  0  0  0  0  0  0  0  0  0  0
  -22.6230  -29.5910   22.4740 C   0  0  0  0  0  0  0  0  0  0  0  0
  -21.3030  -29.3720   22.3720 N   0  0  0  0  0  0  0  0  0  0  0  0
  -23.3510  -28.9450   23.2330 O   0  0  0  0  0  0  0  0  0  0  0  0
  -20.7760  -29.9490   21.7320 H   0  0  0  0  0  0  0  0  0  0  0  0
  -17.9940  -28.0010   22.8450 C   0  0  0  0  0  0  0  0  0  0  0  0
  -20.5390  -28.3660   23.1090 C   0  0  0  0  0  3  0  0  0  0  0  0
  -20.7030  -26.9660   22.4710 C   0  0  0  0  0  2  0  0  0  0  0  0
  -19.6080  -26.6350   21.4540 C   0  0  0  0  0  2  0  0  0  0  0  0
  -18.2270  -26.6890   22.1140 C   0  0  0  0  0  2  0  0  0  0  0  0
  -19.0810  -28.7960   23.2980 C   0  0  0  0  0  0  0  0  0  0  0  0
  -18.8110  -30.0230   23.9400 C   0  0  0  0  0  3  0  0  0  0  0  0
  -17.4870  -30.4580   24.1350 C   0  0  0  0  0  3  0  0  0  0  0  0
  -16.4150  -29.6600   23.7000 C   0  0  0  0  0  3  0  0  0  0  0  0
  -16.6680  -28.4340   23.0610 C   0  0  0  0  0  3  0  0  0  0  0  0
  -25.7950  -32.5970   23.8200 C   0  0  0  0  0  3  0  0  0  0  0  0
  -25.5210  -33.9990   24.1600 N   0  0  0  0  0  0  0  0  0  0  0  0
  -25.8680  -35.0470   23.4010 C   0  0  0  0  0  0  0  0  0  0  0  0
  -26.5250  -34.9350   22.3620 O   0  0  0  0  0  0  0  0  0  0  0  0
  -24.9380  -34.1620   24.9690 H   0  0  0  0  0  0  0  0  0  0  0  0
  -24.1810  -36.8800   23.0560 C   0  0  0  0  0  1  0  0  0  0  0  0
  -25.4110  -36.4420   23.8670 C   0  0  0  0  0  3  0  0  0  0  0  0
  -27.5590  -37.2780   24.7120 C   0  0  0  0  0  1  0  0  0  0  0  0
  -26.4670  -37.4730   23.7620 N   0  0  0  0  0  0  0  0  0  0  0  0
  -26.0820  -38.4010   23.9090 H   0  0  0  0  0  0  0  0  0  0  0  0
  -26.3270  -31.8110   25.0790 C   0  0  1  0  0  0  0  0  0  0  0  0
  -25.2570  -31.5930   26.1740 C   0  0  0  0  0  1  0  0  0  0  0  0
  -26.8700  -30.4240   24.6630 C   0  0  0  0  0  1  0  0  0  0  0  0
  -27.5110  -32.5770   25.7140 C   0  0  0  0  0  1  0  0  0  0  0  0
  2  1  1  0
  2 48  1  0
  3 18  1  0
  3  1  2  0
  4  2  2  0
  5  3  1  0
  6  5  2  0
  6  4  1  0
  7  4  1  0
  7  9  1  0
  7 52  1  0
  8  5  1  0
 10 18  1  0
 11 16  1  0
 12 13  1  0
 12 11  1  0
 14 13  1  0
 14 23  1  0
 14 15  1  0
 16 10  1  0
 16 15  1  0
 17 10  2  0
 18 19  1  0
 20 21  2  0
 21 40  1  0
 22 21  1  0
 22 25  1  0
 23 24  1  0
 23 20  1  0
 24 22  2  0
 25 26  1  0
 26 27  2  0
 28 31  1  0
 28 27  1  0
 29 28  2  0
 30 29  1  0
 30 25  2  0
 31 32  1  0
 32 33  1  0
 33 34  2  0
 35 34  1  0
 35 39  1  0
 36 35  2  0
 37 32  2  0
 37 36  1  0
 38 37  1  0
 40 41  1  0
 41 44  1  0
 41 43  1  0
 42 40  2  0
 45 46  1  0
 45 20  1  0
 47 45  1  0
 48 51  1  0
 48 50  2  0
 50 49  1  0
 52 53  1  0
 53 54  1  0
 55 53  1  0
 56 58  1  0
 56 55  1  0
 57 56  2  0
 59 61  1  0
 59 58  1  0
 60 71  2  0
 61 66  1  0
 62 70  1  0
 62 72  1  0
 63 69  1  0
 63 65  1  0
 64 70  1  0
 65 64  1  0
 66 65  2  0
 67 68  1  0
 67 61  2  0
 68 63  2  0
 69 62  1  0
 70 60  1  0
 72 74  2  0
 73 72  1  0
 75 73  1  0
 76 85  2  0
 76 81  1  0
 77 73  1  0
 77 81  1  0
 78 77  1  0
 79 80  1  0
 79 78  1  0
 80 76  1  0
 81 82  2  0
 82 83  1  0
 84 83  2  0
 85 84  1  0
 86 60  1  0
 86 87  1  0
 86 96  1  0
 87 90  1  0
 88 92  1  0
 88 87  1  0
 89 88  2  0
 92 91  1  0
 94 92  1  0
 94 95  1  0
 94 93  1  0
 96 99  1  1
 96 97  1  0
 98 96  1  0
M  ISO  4  10 100  18 100  58 101  59 101
M  END
>  <TORSDO>  (33) 
F 22

>  <SCORE>  (33) 
-13.667

>  <name>  (33) 
32

>  <ligand_id>  (33) 
32

>  <original_smiles>  (33) 
[H]c1c([H])c([H])c2c(c1[H])C([H])([H])C([H])([H])C([H])([H])C2([H])N([H])C(=O)C1([H])N(C(=O)C([H])(N([H])C(=O)C([H])(N([H])C([H])([H])[H])C([H])([H])[H])C(C([H])([H])[H])(C([H])([H])[H])C([H])([H])[H])C([H])([H])c2c([H])c(OC([H])([H])C(=O)C([H])([H])C([H])(F)C([H])([H])N([H])c3nc(F)c(N([H])C(=O)N4C([H])([H])C([H])([H])C([H])([H])C([H])(n5nc(-c6c([H])c([H])c(Oc7c([H])c([H])c(F)c([H])c7F)c([H])c6[H])c(C(=O)N([H])[H])c5N([H])[H])C4([H])[H])c([H])c3C(F)=NC([H])([H])[H])c([H])c([H])c2C1([H])[H]

>  <smiles>  (33) 
[H]c1c([H])c([H])c2c(c1[H])C([H])([H])C([H])([H])C([H])([H])C2([H])N([H])C(=O)C1([H])N(C(=O)C([H])(N([H])C(=O)C([H])(N([H])C([H])([H])[H])C([H])([H])[H])C(C([H])([H])[H])(C([H])([H])[H])C([H])([H])[H])C([H])([H])c2c([H])c(OC([H])([H])C(=O)C([H])([H])C([H])(F)C([H])([H])N([H])c3nc(F)c(N([H])C(=O)N4C([H])([H])C([H])([H])C([H])([H])C([H])(n5nc(-c6c([H])c([H])c(Oc7c([H])c([H])c(F)c([H])c7F)c([H])c6[H])c(C(=O)N([H])[H])c5N([H])[H])C4([H])[H])c([H])c3C(F)=NC([H])([H])[H])c([H])c([H])c2C1([H])[H]

$$$$
33:0:0
     RDKit          3D

 92100  0  0  1  0  0  0  0  0999 V2000
  -31.0630  -17.2910   19.3070 C   0  0  0  0  0  3  0  0  0  0  0  0
  -30.2390  -16.9620   20.3620 C   0  0  0  0  0  0  0  0  0  0  0  0
  -30.0130  -19.2520   20.3590 C   0  0  0  0  0  0  0  0  0  0  0  0
  -29.8270  -21.7500   20.3370 C   0  0  0  0  0  0  0  0  0  0  0  0
  -29.6240  -18.0960   20.9410 N   0  0  0  0  0  0  0  0  0  0  0  0
  -29.5160  -20.5160   20.7990 N   0  0  0  0  0  0  0  0  0  0  0  0
  -30.6360  -21.9930   19.4340 O   0  0  0  0  0  0  0  0  0  0  0  0
  -31.1520  -19.0060   19.0340 S   0  0  0  0  0  0  0  0  0  0  0  0
  -28.8340  -20.5090   21.5450 H   0  0  0  0  0  0  0  0  0  0  0  0
  -30.6830  -14.5020   20.4440 C   0  0  0  0  0  0  0  0  0  0  0  0
  -30.3550  -12.3230   19.3540 C   0  0  0  0  0  2  0  0  0  0  0  0
  -29.4260  -12.5310   18.1390 C   0  0  0  0  0  2  0  0  0  0  0  0
  -27.9500  -12.4060   18.5630 C   0  0  0  0  0  2  0  0  0  0  0  0
  -27.6110  -13.2520   19.8210 C   0  0  0  0  0  3  0  0  0  0  0  0
  -28.6660  -13.0570   20.9370 C   0  0  0  0  0  2  0  0  0  0  0  0
  -29.9900  -13.3320   20.3630 N   0  0  0  0  0  0  0  0  0  0  0  0
  -31.8540  -14.5860   20.0640 O   0  0  0  0  0  0  0  0  0  0  0  0
  -29.9740  -15.6090   20.7800 N   0  0  0  0  0  0  0  0  0  0  0  0
  -29.0870  -15.4470   21.2290 H   0  0  0  0  0  0  0  0  0  0  0  0
  -25.2130  -13.8630   20.5180 C   0  0  0  0  0  0  0  0  0  0  0  0
  -24.1420  -13.0950   20.8840 C   0  0  0  0  0  0  0  0  0  0  0  0
  -24.6010  -11.7420   20.8650 C   0  0  0  0  0  0  0  0  0  0  0  0
  -26.2580  -12.9790   20.2980 N   0  0  0  0  0  0  0  0  0  0  0  0
  -25.8940  -11.6990   20.5670 N   0  0  0  0  0  0  0  0  0  0  0  0
  -23.8700  -10.4820   21.0570 C   0  0  0  0  0  0  0  0  0  0  0  0
  -24.3070   -9.5100   21.9840 C   0  0  0  0  0  3  0  0  0  0  0  0
  -23.5790   -8.3130   22.1640 C   0  0  0  0  0  3  0  0  0  0  0  0
  -22.3990   -8.0810   21.4170 C   0  0  0  0  0  0  0  0  0  0  0  0
  -21.9800   -9.0430   20.4800 C   0  0  0  0  0  3  0  0  0  0  0  0
  -22.7090  -10.2310   20.2980 C   0  0  0  0  0  3  0  0  0  0  0  0
  -21.6420   -6.9390   21.5070 O   0  0  0  0  0  0  0  0  0  0  0  0
  -21.6100   -6.1840   22.6520 C   0  0  0  0  0  0  0  0  0  0  0  0
  -21.2190   -6.7310   23.8940 C   0  0  0  0  0  3  0  0  0  0  0  0
  -21.1370   -5.9030   25.0320 C   0  0  0  0  0  3  0  0  0  0  0  0
  -21.4320   -4.5310   24.9290 C   0  0  0  0  0  0  0  0  0  0  0  0
  -21.8150   -3.9840   23.6910 C   0  0  0  0  0  3  0  0  0  0  0  0
  -21.9010   -4.8090   22.5560 C   0  0  0  0  0  0  0  0  0  0  0  0
  -22.2500   -4.2730   21.3610 F   0  0  0  0  0  0  0  0  0  0  0  0
  -21.3440   -3.7340   26.0190 F   0  0  0  0  0  0  0  0  0  0  0  0
  -22.7430  -13.5750   21.1450 C   0  0  0  0  0  0  0  0  0  0  0  0
  -22.0080  -12.8860   22.0110 N   0  0  0  0  0  0  0  0  0  0  0  0
  -22.3100  -14.5980   20.6160 O   0  0  0  0  0  0  0  0  0  0  0  0
  -22.3710  -12.0600   22.4650 H   0  0  0  0  0  0  0  0  0  0  0  0
  -21.0710  -13.1930   22.2290 H   0  0  0  0  0  0  0  0  0  0  0  0
  -25.3800  -15.2320   20.3330 N   0  0  0  0  0  0  0  0  0  0  0  0
  -24.6090  -15.8850   20.4290 H   0  0  0  0  0  0  0  0  0  0  0  0
  -26.2320  -15.6720   20.0050 H   0  0  0  0  0  0  0  0  0  0  0  0
  -29.0450  -22.8890   21.0670 C   0  0  0  0  0  0  0  0  0  0  0  0
  -28.1680  -22.6300   21.9020 O   0  0  0  0  0  0  0  0  0  0  0  0
  -29.4050  -24.3630   20.7460 C   0  0  0  0  0  2  0  0  0  0  0  0
  -28.2050  -25.1940   20.2250 C   0  0  0  0  0  2  0  0  0  0  0  0
  -28.4000  -26.6290   20.2580 O   0  0  0  0  0  0  0  0  0  0  0  0
  -24.6050  -31.8850   23.2400 C   0  0  0  0  0  0  0  0  0  0  0  0
  -27.2460  -27.3990   20.1990 C   0  0  0  0  0  0  0  0  0  0  0  0
  -23.4040  -30.4760   21.6030 C   0  0  0  0  0  3  0  0  0  0  0  0
  -24.8600  -28.9340   20.1860 C   0  0  0  0  0  0  0  0  0  0  0  0
  -25.9340  -30.8250   21.4130 C   0  0  0  0  0  2  0  0  0  0  0  0
  -26.0200  -29.4500   20.7770 C   0  0  0  0  0  0  0  0  0  0  0  0
  -27.2170  -28.6930   20.7770 C   0  0  0  0  0  3  0  0  0  0  0  0
  -26.0650  -26.9130   19.5880 C   0  0  0  0  0  3  0  0  0  0  0  0
  -24.8800  -27.6670   19.5840 C   0  0  0  0  0  3  0  0  0  0  0  0
  -23.6170  -29.7940   20.2260 C   0  0  0  0  0  2  0  0  0  0  0  0
  -24.6660  -31.0760   22.1430 N   0  0  0  0  0  0  0  0  0  0  0  0
  -23.5210  -32.1600   23.7730 O   0  0  0  0  0  0  0  0  0  0  0  0
  -22.7490  -29.4580   22.5650 C   0  0  0  0  0  0  0  0  0  0  0  0
  -21.4230  -29.2820   22.4400 N   0  0  0  0  0  0  0  0  0  0  0  0
  -23.4290  -28.8300   23.3800 O   0  0  0  0  0  0  0  0  0  0  0  0
  -20.9360  -29.8390   21.7520 H   0  0  0  0  0  0  0  0  0  0  0  0
  -18.0400  -28.1160   22.9480 C   0  0  0  0  0  0  0  0  0  0  0  0
  -20.6010  -28.3520   23.2120 C   0  0  0  0  0  3  0  0  0  0  0  0
  -20.6890  -26.9190   22.6350 C   0  0  0  0  0  2  0  0  0  0  0  0
  -19.5810  -26.6070   21.6240 C   0  0  0  0  0  2  0  0  0  0  0  0
  -18.2020  -26.7650   22.2720 C   0  0  0  0  0  2  0  0  0  0  0  0
  -19.1670  -28.8680   23.3750 C   0  0  0  0  0  0  0  0  0  0  0  0
  -18.9600  -30.1340   23.9650 C   0  0  0  0  0  3  0  0  0  0  0  0
  -17.6610  -30.6460   24.1350 C   0  0  0  0  0  3  0  0  0  0  0  0
  -16.5480  -29.8910   23.7240 C   0  0  0  0  0  3  0  0  0  0  0  0
  -16.7400  -28.6280   23.1370 C   0  0  0  0  0  3  0  0  0  0  0  0
  -25.8890  -32.5170   23.8610 C   0  0  0  0  0  3  0  0  0  0  0  0
  -26.4090  -31.7440   25.1330 C   0  0  1  0  0  0  0  0  0  0  0  0
  -25.3180  -31.5000   26.2020 C   0  0  0  0  0  1  0  0  0  0  0  0
  -26.9950  -30.3690   24.7330 C   0  0  0  0  0  1  0  0  0  0  0  0
  -27.5600  -32.5380   25.7950 C   0  0  0  0  0  1  0  0  0  0  0  0
  -25.5770  -33.9140   24.1930 N   0  0  0  0  0  0  0  0  0  0  0  0
  -25.9040  -34.9660   23.4320 C   0  0  0  0  0  0  0  0  0  0  0  0
  -26.5710  -34.8650   22.3980 O   0  0  0  0  0  0  0  0  0  0  0  0
  -24.9860  -34.0670   24.9960 H   0  0  0  0  0  0  0  0  0  0  0  0
  -24.1670  -36.7500   23.0830 C   0  0  0  0  0  1  0  0  0  0  0  0
  -25.4120  -36.3530   23.8900 C   0  0  0  0  0  3  0  0  0  0  0  0
  -27.5490  -37.2440   24.7100 C   0  0  0  0  0  1  0  0  0  0  0  0
  -26.4410  -37.4100   23.7720 N   0  0  0  0  0  0  0  0  0  0  0  0
  -26.0330  -38.3280   23.9230 H   0  0  0  0  0  0  0  0  0  0  0  0
  1  2  2  0
  2 18  1  0
  2  5  1  0
  3  6  1  0
  3  5  2  0
  4  6  1  0
  4 48  1  0
  6  9  1  0
  7  4  2  0
  8  1  1  0
  8  3  1  0
 10 18  1  0
 11 16  1  0
 12 13  1  0
 12 11  1  0
 14 13  1  0
 14 23  1  0
 14 15  1  0
 16 10  1  0
 16 15  1  0
 17 10  2  0
 18 19  1  0
 20 21  2  0
 21 40  1  0
 22 21  1  0
 22 25  1  0
 23 20  1  0
 23 24  1  0
 24 22  2  0
 25 26  1  0
 26 27  2  0
 28 31  1  0
 28 27  1  0
 29 28  2  0
 30 29  1  0
 30 25  2  0
 31 32  1  0
 32 33  1  0
 33 34  2  0
 35 34  1  0
 35 39  1  0
 36 35  2  0
 37 32  2  0
 37 36  1  0
 38 37  1  0
 40 41  1  0
 41 44  1  0
 41 43  1  0
 42 40  2  0
 45 46  1  0
 45 20  1  0
 47 45  1  0
 48 49  2  0
 50 48  1  0
 51 52  1  0
 51 50  1  0
 53 64  2  0
 54 52  1  0
 54 59  1  0
 55 63  1  0
 55 65  1  0
 56 62  1  0
 56 58  1  0
 57 63  1  0
 58 59  2  0
 58 57  1  0
 60 54  2  0
 61 60  1  0
 61 56  2  0
 62 55  1  0
 63 53  1  0
 65 67  2  0
 66 65  1  0
 68 66  1  0
 69 78  2  0
 69 74  1  0
 70 66  1  0
 70 74  1  0
 71 70  1  0
 72 73  1  0
 72 71  1  0
 73 69  1  0
 74 75  2  0
 75 76  1  0
 77 76  2  0
 78 77  1  0
 79 53  1  0
 79 84  1  0
 79 80  1  0
 80 83  1  1
 80 81  1  0
 82 80  1  0
 84 87  1  0
 85 89  1  0
 85 84  1  0
 86 85  2  0
 89 88  1  0
 91 89  1  0
 91 92  1  0
 91 90  1  0
M  ISO  4  10 100  18 100  51 101  52 101
M  END
>  <TORSDO>  (34) 
F 19

>  <SCORE>  (34) 
-14.362

>  <name>  (34) 
33

>  <ligand_id>  (34) 
33

>  <original_smiles>  (34) 
[H]c1sc(N([H])C(=O)C(=O)C([H])([H])C([H])([H])Oc2c([H])c([H])c3c(c2[H])C([H])([H])N(C(=O)C([H])(N([H])C(=O)C([H])(N([H])C([H])([H])[H])C([H])([H])[H])C(C([H])([H])[H])(C([H])([H])[H])C([H])([H])[H])C([H])(C(=O)N([H])C2([H])c4c([H])c([H])c([H])c([H])c4C([H])([H])C([H])([H])C2([H])[H])C3([H])[H])nc1N([H])C(=O)N1C([H])([H])C([H])([H])C([H])([H])C([H])(n2nc(-c3c([H])c([H])c(Oc4c([H])c([H])c(F)c([H])c4F)c([H])c3[H])c(C(=O)N([H])[H])c2N([H])[H])C1([H])[H]

>  <smiles>  (34) 
[H]c1sc(N([H])C(=O)C(=O)C([H])([H])C([H])([H])Oc2c([H])c([H])c3c(c2[H])C([H])([H])N(C(=O)C([H])(N([H])C(=O)C([H])(N([H])C([H])([H])[H])C([H])([H])[H])C(C([H])([H])[H])(C([H])([H])[H])C([H])([H])[H])C([H])(C(=O)N([H])C2([H])c4c([H])c([H])c([H])c([H])c4C([H])([H])C([H])([H])C2([H])[H])C3([H])[H])nc1N([H])C(=O)N1C([H])([H])C([H])([H])C([H])([H])C([H])(n2nc(-c3c([H])c([H])c(Oc4c([H])c([H])c(F)c([H])c4F)c([H])c3[H])c(C(=O)N([H])[H])c2N([H])[H])C1([H])[H]

$$$$
34:0:0
     RDKit          3D

 95103  0  0  1  0  0  0  0  0999 V2000
  -28.7510  -21.1930   20.5370 C   0  0  0  0  0  0  0  0  0  0  0  0
  -28.3090  -23.7920   20.3190 C   0  0  0  0  0  0  0  0  0  0  0  0
  -29.0290  -22.4850   20.0410 N   0  0  0  0  0  0  0  0  0  0  0  0
  -27.6960  -21.0560   21.3600 N   0  0  0  0  0  4  0  0  0  0  0  0
  -27.3630  -23.8070   21.1180 O   0  0  0  0  0  0  0  0  0  0  0  0
  -29.8140  -22.4840   19.4100 H   0  0  0  0  0  0  0  0  0  0  0  0
  -27.1420  -21.8660   21.6190 H   0  0  0  0  0  0  0  0  0  0  0  0
  -27.4270  -20.1420   21.6980 H   0  0  0  0  0  0  0  0  0  0  0  0
  -31.3070  -18.0930   19.7850 C   0  0  0  0  0  3  0  0  0  0  0  0
  -30.1480  -17.4910   20.2160 C   0  0  0  0  0  0  0  0  0  0  0  0
  -29.1410  -18.5350   20.4820 C   0  0  0  0  0  0  0  0  0  0  0  0
  -29.5020  -19.8870   20.2800 C   0  0  0  0  0  0  0  0  0  0  0  0
  -27.9510  -18.1970   20.9280 F   0  0  0  0  0  0  0  0  0  0  0  0
  -31.1680  -19.8640   19.7220 S   0  0  0  0  0  0  0  0  0  0  0  0
  -30.7330  -14.9050   20.0520 C   0  0  0  0  0  0  0  0  0  0  0  0
  -30.5120  -12.6480   18.9910 C   0  0  0  0  0  2  0  0  0  0  0  0
  -29.5130  -12.7470   17.8160 C   0  0  0  0  0  2  0  0  0  0  0  0
  -28.0670  -12.5510   18.3120 C   0  0  0  0  0  2  0  0  0  0  0  0
  -27.7490  -13.3990   19.5730 C   0  0  0  0  0  3  0  0  0  0  0  0
  -28.8610  -13.2810   20.6380 C   0  0  0  0  0  2  0  0  0  0  0  0
  -30.1250  -13.6670   19.9960 N   0  0  0  0  0  0  0  0  0  0  0  0
  -31.8990  -15.0200   19.6590 O   0  0  0  0  0  0  0  0  0  0  0  0
  -29.9510  -16.0140   20.3740 N   0  0  0  0  0  0  0  0  0  0  0  0
  -29.0360  -15.7640   20.7160 H   0  0  0  0  0  0  0  0  0  0  0  0
  -25.3970  -13.9590   20.4270 C   0  0  0  0  0  0  0  0  0  0  0  0
  -24.3540  -13.1710   20.8290 C   0  0  0  0  0  0  0  0  0  0  0  0
  -24.8210  -11.8230   20.7440 C   0  0  0  0  0  0  0  0  0  0  0  0
  -26.4320  -13.0920   20.1200 N   0  0  0  0  0  0  0  0  0  0  0  0
  -26.0960  -11.8000   20.3740 N   0  0  0  0  0  0  0  0  0  0  0  0
  -24.1100  -10.5530   20.9380 C   0  0  0  0  0  0  0  0  0  0  0  0
  -24.5400   -9.6030   21.8910 C   0  0  0  0  0  3  0  0  0  0  0  0
  -23.8260   -8.3990   22.0720 C   0  0  0  0  0  3  0  0  0  0  0  0
  -22.6700   -8.1340   21.2990 C   0  0  0  0  0  0  0  0  0  0  0  0
  -22.2600   -9.0730   20.3370 C   0  0  0  0  0  3  0  0  0  0  0  0
  -22.9740  -10.2690   20.1540 C   0  0  0  0  0  3  0  0  0  0  0  0
  -21.9300   -6.9800   21.3890 O   0  0  0  0  0  0  0  0  0  0  0  0
  -21.8140   -6.2890   22.5690 C   0  0  0  0  0  0  0  0  0  0  0  0
  -21.2570   -6.8780   23.7250 C   0  0  0  0  0  3  0  0  0  0  0  0
  -21.0920   -6.1100   24.8950 C   0  0  0  0  0  3  0  0  0  0  0  0
  -21.4740   -4.7550   24.9090 C   0  0  0  0  0  0  0  0  0  0  0  0
  -22.0220   -4.1660   23.7580 C   0  0  0  0  0  3  0  0  0  0  0  0
  -22.1890   -4.9300   22.5890 C   0  0  0  0  0  0  0  0  0  0  0  0
  -22.6990   -4.3520   21.4750 F   0  0  0  0  0  0  0  0  0  0  0  0
  -21.3080   -4.0160   26.0310 F   0  0  0  0  0  0  0  0  0  0  0  0
  -22.9680  -13.6340   21.1750 C   0  0  0  0  0  0  0  0  0  0  0  0
  -22.2810  -12.9090   22.0510 N   0  0  0  0  0  0  0  0  0  0  0  0
  -22.5070  -14.6740   20.7060 O   0  0  0  0  0  0  0  0  0  0  0  0
  -22.6680  -12.0680   22.4510 H   0  0  0  0  0  0  0  0  0  0  0  0
  -21.3540  -13.2010   22.3260 H   0  0  0  0  0  0  0  0  0  0  0  0
  -25.5460  -15.3350   20.2750 N   0  0  0  0  0  0  0  0  0  0  0  0
  -24.7800  -15.9780   20.4450 H   0  0  0  0  0  0  0  0  0  0  0  0
  -26.3690  -15.7920   19.9050 H   0  0  0  0  0  0  0  0  0  0  0  0
  -28.4640  -25.1220   18.0620 C   0  0  0  0  0  1  0  0  0  0  0  0
  -28.7460  -25.1550   19.5760 C   0  0  0  0  0  3  0  0  0  0  0  0
  -28.4680  -26.5120   20.2070 O   0  0  0  0  0  0  0  0  0  0  0  0
  -24.6560  -31.9040   23.2010 C   0  0  0  0  0  0  0  0  0  0  0  0
  -27.3160  -27.3360   20.1230 C   0  0  0  0  0  0  0  0  0  0  0  0
  -23.4670  -30.5000   21.5550 C   0  0  0  0  0  3  0  0  0  0  0  0
  -24.9330  -28.9610   20.1200 C   0  0  0  0  0  0  0  0  0  0  0  0
  -26.0070  -30.8330   21.3730 C   0  0  0  0  0  2  0  0  0  0  0  0
  -26.0980  -29.4530   20.7160 C   0  0  0  0  0  0  0  0  0  0  0  0
  -27.2870  -28.6530   20.7030 C   0  0  0  0  0  3  0  0  0  0  0  0
  -26.1150  -26.9000   19.5230 C   0  0  0  0  0  3  0  0  0  0  0  0
  -24.9460  -27.6930   19.5140 C   0  0  0  0  0  3  0  0  0  0  0  0
  -23.6890  -29.8280   20.1720 C   0  0  0  0  0  2  0  0  0  0  0  0
  -24.7290  -31.0980   22.0990 N   0  0  0  0  0  0  0  0  0  0  0  0
  -23.5690  -32.1680   23.7360 O   0  0  0  0  0  0  0  0  0  0  0  0
  -22.8130  -29.4760   22.5140 C   0  0  0  0  0  0  0  0  0  0  0  0
  -21.4860  -29.2990   22.4000 N   0  0  0  0  0  0  0  0  0  0  0  0
  -23.4990  -28.8420   23.3200 O   0  0  0  0  0  0  0  0  0  0  0  0
  -20.9900  -29.8620   21.7220 H   0  0  0  0  0  0  0  0  0  0  0  0
  -18.1130  -28.1030   22.9370 C   0  0  0  0  0  0  0  0  0  0  0  0
  -20.6760  -28.3530   23.1690 C   0  0  0  0  0  3  0  0  0  0  0  0
  -20.7640  -26.9300   22.5690 C   0  0  0  0  0  2  0  0  0  0  0  0
  -19.6450  -26.6260   21.5680 C   0  0  0  0  0  2  0  0  0  0  0  0
  -18.2750  -26.7650   22.2360 C   0  0  0  0  0  2  0  0  0  0  0  0
  -19.2400  -28.8560   23.3610 C   0  0  0  0  0  0  0  0  0  0  0  0
  -19.0330  -30.1090   23.9780 C   0  0  0  0  0  3  0  0  0  0  0  0
  -17.7330  -30.6100   24.1740 C   0  0  0  0  0  3  0  0  0  0  0  0
  -16.6200  -29.8530   23.7640 C   0  0  0  0  0  3  0  0  0  0  0  0
  -16.8110  -28.6020   23.1530 C   0  0  0  0  0  3  0  0  0  0  0  0
  -25.9290  -32.5500   23.8270 C   0  0  0  0  0  3  0  0  0  0  0  0
  -25.6010  -33.9410   24.1740 N   0  0  0  0  0  0  0  0  0  0  0  0
  -25.9210  -35.0080   23.4320 C   0  0  0  0  0  0  0  0  0  0  0  0
  -26.5940  -34.9280   22.4000 O   0  0  0  0  0  0  0  0  0  0  0  0
  -25.0020  -34.0770   24.9760 H   0  0  0  0  0  0  0  0  0  0  0  0
  -24.1830  -36.7950   23.0880 C   0  0  0  0  0  1  0  0  0  0  0  0
  -25.4170  -36.3850   23.9080 C   0  0  0  0  0  3  0  0  0  0  0  0
  -27.5300  -37.2760   24.7880 C   0  0  0  0  0  1  0  0  0  0  0  0
  -26.4430  -37.4480   23.8270 N   0  0  0  0  0  0  0  0  0  0  0  0
  -26.0270  -38.3620   23.9790 H   0  0  0  0  0  0  0  0  0  0  0  0
  -26.4590  -31.7740   25.0980 C   0  0  1  0  0  0  0  0  0  0  0  0
  -25.3690  -31.5090   26.1620 C   0  0  0  0  0  1  0  0  0  0  0  0
  -27.0640  -30.4110   24.6930 C   0  0  0  0  0  1  0  0  0  0  0  0
  -27.5960  -32.5810   25.7680 C   0  0  0  0  0  1  0  0  0  0  0  0
  1  4  2  0
  2  5  2  0
  3  2  1  0
  3  1  1  0
  4  7  1  0
  4  8  1  0
  6  3  1  0
  9 10  2  0
 10 23  1  0
 10 11  1  0
 11 13  1  0
 12 11  2  0
 12  1  1  0
 14  9  1  0
 14 12  1  0
 15 23  1  0
 16 21  1  0
 17 18  1  0
 17 16  1  0
 19 18  1  0
 19 28  1  0
 19 20  1  0
 21 15  1  0
 21 20  1  0
 22 15  2  0
 23 24  1  0
 25 26  2  0
 26 45  1  0
 27 26  1  0
 27 30  1  0
 28 29  1  0
 28 25  1  0
 29 27  2  0
 30 31  1  0
 31 32  2  0
 33 36  1  0
 33 32  1  0
 34 33  2  0
 35 34  1  0
 35 30  2  0
 36 37  1  0
 37 42  2  0
 37 38  1  0
 38 39  2  0
 39 40  1  0
 40 44  1  0
 41 40  2  0
 42 41  1  0
 43 42  1  0
 45 46  1  0
 46 49  1  0
 46 48  1  0
 47 45  2  0
 50 25  1  0
 50 51  1  0
 52 50  1  0
 54 53  1  0
 54 55  1  0
 54  2  1  0
 56 67  2  0
 57 55  1  0
 57 62  1  0
 58 66  1  0
 58 68  1  0
 59 65  1  0
 59 61  1  0
 60 66  1  0
 61 60  1  0
 62 61  2  0
 63 57  2  0
 64 63  1  0
 64 59  2  0
 65 58  1  0
 66 56  1  0
 68 70  2  0
 69 68  1  0
 71 69  1  0
 72 81  2  0
 72 77  1  0
 73 69  1  0
 73 77  1  0
 74 73  1  0
 75 76  1  0
 75 74  1  0
 76 72  1  0
 77 78  2  0
 78 79  1  0
 80 79  2  0
 81 80  1  0
 82 56  1  0
 82 83  1  0
 82 92  1  0
 83 86  1  0
 84 88  1  0
 84 83  1  0
 85 84  2  0
 88 87  1  0
 90 88  1  0
 90 91  1  0
 90 89  1  0
 92 95  1  1
 92 93  1  0
 94 92  1  0
M  ISO  4  15 100  23 100  54 101  55 101
M  END
>  <TORSDO>  (35) 
F 18

>  <SCORE>  (35) 
-14.575

>  <name>  (35) 
34

>  <ligand_id>  (35) 
34

>  <original_smiles>  (35) 
[H]c1sc(C(N([H])C(=O)C([H])(Oc2c([H])c([H])c3c(c2[H])C([H])([H])N(C(=O)C([H])(N([H])C(=O)C([H])(N([H])C([H])([H])[H])C([H])([H])[H])C(C([H])([H])[H])(C([H])([H])[H])C([H])([H])[H])C([H])(C(=O)N([H])C2([H])c4c([H])c([H])c([H])c([H])c4C([H])([H])C([H])([H])C2([H])[H])C3([H])[H])C([H])([H])[H])=[N+]([H])[H])c(F)c1N([H])C(=O)N1C([H])([H])C([H])([H])C([H])([H])C([H])(n2nc(-c3c([H])c([H])c(Oc4c([H])c([H])c(F)c([H])c4F)c([H])c3[H])c(C(=O)N([H])[H])c2N([H])[H])C1([H])[H]

>  <smiles>  (35) 
[H]c1sc(C(N([H])C(=O)C([H])(Oc2c([H])c([H])c3c(c2[H])C([H])([H])N(C(=O)C([H])(N([H])C(=O)C([H])(N([H])C([H])([H])[H])C([H])([H])[H])C(C([H])([H])[H])(C([H])([H])[H])C([H])([H])[H])C([H])(C(=O)N([H])C2([H])c4c([H])c([H])c([H])c([H])c4C([H])([H])C([H])([H])C2([H])[H])C3([H])[H])C([H])([H])[H])=[N+]([H])[H])c(F)c1N([H])C(=O)N1C([H])([H])C([H])([H])C([H])([H])C([H])(n2nc(-c3c([H])c([H])c(Oc4c([H])c([H])c(F)c([H])c4F)c([H])c3[H])c(C(=O)N([H])[H])c2N([H])[H])C1([H])[H]

$$$$
35:0:0
     RDKit          3D

 96104  0  0  1  0  0  0  0  0999 V2000
  -29.0850  -22.4500   20.9530 C   0  0  0  0  0  0  0  0  0  0  0  0
  -29.1050  -21.2380   20.2660 N   0  0  0  0  0  0  0  0  0  0  0  0
  -29.4210  -22.4830   22.1400 O   0  0  0  0  0  0  0  0  0  0  0  0
  -28.6310  -21.2440   19.3730 H   0  0  0  0  0  0  0  0  0  0  0  0
  -31.1120  -20.1180   21.2160 C   0  0  0  0  0  3  0  0  0  0  0  0
  -31.4830  -17.6940   21.2480 C   0  0  0  0  0  3  0  0  0  0  0  0
  -29.8380  -19.9830   20.6170 C   0  0  0  0  0  0  0  0  0  0  0  0
  -30.2340  -17.4350   20.6390 C   0  0  0  0  0  0  0  0  0  0  0  0
  -31.9140  -19.0030   21.5260 C   0  0  0  0  0  0  0  0  0  0  0  0
  -29.4180  -18.6110   20.3300 C   0  0  0  0  0  0  0  0  0  0  0  0
  -33.1240  -19.1960   22.1030 F   0  0  0  0  0  0  0  0  0  0  0  0
  -28.2090  -18.4150   19.7500 F   0  0  0  0  0  0  0  0  0  0  0  0
  -30.5950  -14.8710   20.2340 C   0  0  0  0  0  0  0  0  0  0  0  0
  -30.3720  -12.6000   19.2080 C   0  0  0  0  0  2  0  0  0  0  0  0
  -29.4020  -12.6610   18.0080 C   0  0  0  0  0  2  0  0  0  0  0  0
  -27.9460  -12.4770   18.4780 C   0  0  0  0  0  2  0  0  0  0  0  0
  -27.5960  -13.3630   19.7020 C   0  0  0  0  0  3  0  0  0  0  0  0
  -28.6840  -13.2910   20.7940 C   0  0  0  0  0  2  0  0  0  0  0  0
  -29.9560  -13.6540   20.1610 N   0  0  0  0  0  0  0  0  0  0  0  0
  -31.7800  -14.9550   19.9000 O   0  0  0  0  0  0  0  0  0  0  0  0
  -29.8290  -16.0170   20.4270 N   0  0  0  0  0  0  0  0  0  0  0  0
  -28.8320  -15.8570   20.4310 H   0  0  0  0  0  0  0  0  0  0  0  0
  -25.2330  -13.9390   20.5190 C   0  0  0  0  0  0  0  0  0  0  0  0
  -24.1790  -13.1570   20.9040 C   0  0  0  0  0  0  0  0  0  0  0  0
  -24.6400  -11.8060   20.8280 C   0  0  0  0  0  0  0  0  0  0  0  0
  -26.2690  -13.0650   20.2290 N   0  0  0  0  0  0  0  0  0  0  0  0
  -25.9220  -11.7760   20.4800 N   0  0  0  0  0  0  0  0  0  0  0  0
  -23.9190  -10.5400   21.0110 C   0  0  0  0  0  0  0  0  0  0  0  0
  -24.3460   -9.5760   21.9510 C   0  0  0  0  0  3  0  0  0  0  0  0
  -23.6240   -8.3750   22.1220 C   0  0  0  0  0  3  0  0  0  0  0  0
  -22.4620   -8.1300   21.3530 C   0  0  0  0  0  0  0  0  0  0  0  0
  -22.0550   -9.0820   20.4020 C   0  0  0  0  0  3  0  0  0  0  0  0
  -22.7770  -10.2750   20.2290 C   0  0  0  0  0  3  0  0  0  0  0  0
  -21.7130   -6.9800   21.4330 O   0  0  0  0  0  0  0  0  0  0  0  0
  -21.6240   -6.2590   22.5950 C   0  0  0  0  0  0  0  0  0  0  0  0
  -21.1020   -6.8190   23.7820 C   0  0  0  0  0  3  0  0  0  0  0  0
  -20.9630   -6.0220   24.9360 C   0  0  0  0  0  3  0  0  0  0  0  0
  -21.3370   -4.6650   24.9030 C   0  0  0  0  0  0  0  0  0  0  0  0
  -21.8510   -4.1030   23.7210 C   0  0  0  0  0  3  0  0  0  0  0  0
  -21.9920   -4.8980   22.5710 C   0  0  0  0  0  0  0  0  0  0  0  0
  -22.4680   -4.3470   21.4280 F   0  0  0  0  0  0  0  0  0  0  0  0
  -21.1960   -3.8960   26.0100 F   0  0  0  0  0  0  0  0  0  0  0  0
  -22.7910  -13.6270   21.2240 C   0  0  0  0  0  0  0  0  0  0  0  0
  -22.0810  -12.9050   22.0840 N   0  0  0  0  0  0  0  0  0  0  0  0
  -22.3430  -14.6700   20.7480 O   0  0  0  0  0  0  0  0  0  0  0  0
  -22.4580  -12.0610   22.4920 H   0  0  0  0  0  0  0  0  0  0  0  0
  -21.1500  -13.2000   22.3390 H   0  0  0  0  0  0  0  0  0  0  0  0
  -25.3880  -15.3130   20.3660 N   0  0  0  0  0  0  0  0  0  0  0  0
  -24.6190  -15.9550   20.5140 H   0  0  0  0  0  0  0  0  0  0  0  0
  -26.2100  -15.7670   19.9860 H   0  0  0  0  0  0  0  0  0  0  0  0
  -28.5880  -23.8390   20.2020 C   0  0  0  0  0  0  0  0  0  0  0  0
  -28.3980  -23.8230   18.9810 O   0  0  0  0  0  0  0  0  0  0  0  0
  -29.4870  -25.5590   21.9540 C   0  0  0  0  0  1  0  0  0  0  0  0
  -27.0260  -25.0490   21.8480 C   0  0  0  0  0  1  0  0  0  0  0  0
  -28.3160  -25.2270   21.0070 C   0  0  2  0  0  0  0  0  0  0  0  0
  -28.2940  -26.4980   20.1820 O   0  0  0  0  0  0  0  0  0  0  0  0
  -24.5250  -31.9340   23.2360 C   0  0  0  0  0  0  0  0  0  0  0  0
  -27.1960  -27.3850   20.1920 C   0  0  0  0  0  0  0  0  0  0  0  0
  -23.3540  -30.5410   21.5680 C   0  0  0  0  0  3  0  0  0  0  0  0
  -24.8340  -29.0080   20.1480 C   0  0  0  0  0  0  0  0  0  0  0  0
  -25.8950  -30.8690   21.4240 C   0  0  0  0  0  2  0  0  0  0  0  0
  -25.9920  -29.4910   20.7710 C   0  0  0  0  0  0  0  0  0  0  0  0
  -27.1800  -28.6920   20.7860 C   0  0  0  0  0  3  0  0  0  0  0  0
  -26.0250  -26.9720   19.5260 C   0  0  0  0  0  3  0  0  0  0  0  0
  -24.8550  -27.7560   19.5130 C   0  0  0  0  0  3  0  0  0  0  0  0
  -23.5920  -29.8790   20.1850 C   0  0  0  0  0  2  0  0  0  0  0  0
  -24.6090  -31.1340   22.1320 N   0  0  0  0  0  0  0  0  0  0  0  0
  -23.4320  -32.2000   23.7590 O   0  0  0  0  0  0  0  0  0  0  0  0
  -22.6840  -29.5130   22.5110 C   0  0  0  0  0  0  0  0  0  0  0  0
  -21.3580  -29.3390   22.3780 N   0  0  0  0  0  0  0  0  0  0  0  0
  -23.3580  -28.8750   23.3230 O   0  0  0  0  0  0  0  0  0  0  0  0
  -20.8710  -29.9070   21.6970 H   0  0  0  0  0  0  0  0  0  0  0  0
  -17.9710  -28.1740   22.8870 C   0  0  0  0  0  0  0  0  0  0  0  0
  -20.5350  -28.3920   23.1330 C   0  0  0  0  0  3  0  0  0  0  0  0
  -20.6120  -26.9760   22.5170 C   0  0  0  0  0  2  0  0  0  0  0  0
  -19.4930  -26.6950   21.5080 C   0  0  0  0  0  2  0  0  0  0  0  0
  -18.1210  -26.8410   22.1720 C   0  0  0  0  0  2  0  0  0  0  0  0
  -19.1050  -28.9090   23.3240 C   0  0  0  0  0  0  0  0  0  0  0  0
  -18.9100  -30.1570   23.9530 C   0  0  0  0  0  3  0  0  0  0  0  0
  -17.6140  -30.6700   24.1490 C   0  0  0  0  0  3  0  0  0  0  0  0
  -16.4950  -29.9330   23.7280 C   0  0  0  0  0  3  0  0  0  0  0  0
  -16.6740  -28.6850   23.1020 C   0  0  0  0  0  3  0  0  0  0  0  0
  -25.7930  -32.5720   23.8800 C   0  0  0  0  0  3  0  0  0  0  0  0
  -26.2830  -31.8100   25.1720 C   0  0  1  0  0  0  0  0  0  0  0  0
  -25.1660  -31.5740   26.2150 C   0  0  0  0  0  1  0  0  0  0  0  0
  -26.8820  -30.4330   24.8030 C   0  0  0  0  0  1  0  0  0  0  0  0
  -27.4130  -32.6130   25.8570 C   0  0  0  0  0  1  0  0  0  0  0  0
  -25.4760  -33.9730   24.1960 N   0  0  0  0  0  0  0  0  0  0  0  0
  -25.8350  -35.0240   23.4460 C   0  0  0  0  0  0  0  0  0  0  0  0
  -26.5360  -34.9170   22.4370 O   0  0  0  0  0  0  0  0  0  0  0  0
  -24.8570  -34.1290   24.9770 H   0  0  0  0  0  0  0  0  0  0  0  0
  -24.1400  -36.8330   23.0200 C   0  0  0  0  0  1  0  0  0  0  0  0
  -25.3380  -36.4150   23.8870 C   0  0  0  0  0  3  0  0  0  0  0  0
  -27.4330  -37.2840   24.8290 C   0  0  0  0  0  1  0  0  0  0  0  0
  -26.3830  -37.4600   23.8290 N   0  0  0  0  0  0  0  0  0  0  0  0
  -25.9780  -38.3840   23.9530 H   0  0  0  0  0  0  0  0  0  0  0  0
  1  3  2  0
  2  7  1  0
  2  1  1  0
  4  2  1  0
  5  9  1  0
  6  9  2  0
  7  5  2  0
  8  6  1  0
  9 11  1  0
 10  7  1  0
 10  8  2  0
 12 10  1  0
 13 21  1  0
 14 19  1  0
 15 16  1  0
 15 14  1  0
 17 16  1  0
 17 26  1  0
 17 18  1  0
 19 13  1  0
 19 18  1  0
 20 13  2  0
 21 22  1  0
 21  8  1  0
 23 24  2  0
 24 43  1  0
 25 24  1  0
 25 28  1  0
 26 27  1  0
 26 23  1  0
 27 25  2  0
 28 29  1  0
 29 30  2  0
 31 34  1  0
 31 30  1  0
 32 31  2  0
 33 32  1  0
 33 28  2  0
 34 35  1  0
 35 36  1  0
 36 37  2  0
 38 37  1  0
 38 42  1  0
 39 38  2  0
 40 35  2  0
 40 39  1  0
 41 40  1  0
 43 44  1  0
 44 47  1  0
 44 46  1  0
 45 43  2  0
 48 49  1  0
 48 23  1  0
 50 48  1  0
 51  1  1  0
 51 55  1  0
 52 51  2  0
 55 54  1  1
 55 53  1  0
 56 58  1  0
 56 55  1  0
 57 68  2  0
 58 63  1  0
 59 67  1  0
 59 69  1  0
 60 66  1  0
 60 62  1  0
 61 67  1  0
 62 63  2  0
 62 61  1  0
 64 58  2  0
 65 64  1  0
 65 60  2  0
 66 59  1  0
 67 57  1  0
 69 71  2  0
 70 69  1  0
 72 70  1  0
 73 82  2  0
 73 78  1  0
 74 70  1  0
 74 78  1  0
 75 74  1  0
 76 77  1  0
 76 75  1  0
 77 73  1  0
 78 79  2  0
 79 80  1  0
 81 80  2  0
 82 81  1  0
 83 57  1  0
 83 88  1  0
 83 84  1  0
 84 87  1  1
 84 85  1  0
 86 84  1  0
 88 91  1  0
 89 93  1  0
 89 88  1  0
 90 89  2  0
 93 92  1  0
 95 93  1  0
 95 96  1  0
 95 94  1  0
M  ISO  4  13 100  21 100  55 101  56 101
M  END
>  <TORSDO>  (36) 
F 19

>  <SCORE>  (36) 
-14.866

>  <name>  (36) 
35

>  <ligand_id>  (36) 
35

>  <original_smiles>  (36) 
[H]c1c([H])c([H])c2c(c1[H])C([H])([H])C([H])([H])C([H])([H])C2([H])N([H])C(=O)C1([H])N(C(=O)C([H])(N([H])C(=O)C([H])(N([H])C([H])([H])[H])C([H])([H])[H])C(C([H])([H])[H])(C([H])([H])[H])C([H])([H])[H])C([H])([H])c2c([H])c(OC(C(=O)C(=O)N([H])c3c([H])c(F)c([H])c(N([H])C(=O)N4C([H])([H])C([H])([H])C([H])([H])C([H])(n5nc(-c6c([H])c([H])c(Oc7c([H])c([H])c(F)c([H])c7F)c([H])c6[H])c(C(=O)N([H])[H])c5N([H])[H])C4([H])[H])c3F)(C([H])([H])[H])C([H])([H])[H])c([H])c([H])c2C1([H])[H]

>  <smiles>  (36) 
[H]c1c([H])c([H])c2c(c1[H])C([H])([H])C([H])([H])C([H])([H])C2([H])N([H])C(=O)C1([H])N(C(=O)C([H])(N([H])C(=O)C([H])(N([H])C([H])([H])[H])C([H])([H])[H])C(C([H])([H])[H])(C([H])([H])[H])C([H])([H])[H])C([H])([H])c2c([H])c(OC(C(=O)C(=O)N([H])c3c([H])c(F)c([H])c(N([H])C(=O)N4C([H])([H])C([H])([H])C([H])([H])C([H])(n5nc(-c6c([H])c([H])c(Oc7c([H])c([H])c(F)c([H])c7F)c([H])c6[H])c(C(=O)N([H])[H])c5N([H])[H])C4([H])[H])c3F)(C([H])([H])[H])C([H])([H])[H])c([H])c([H])c2C1([H])[H]

$$$$
36:0:0
     RDKit          3D

 98106  0  0  1  0  0  0  0  0999 V2000
  -29.0970  -21.6320   20.3220 C   0  0  0  0  0  0  0  0  0  0  0  0
  -29.8250  -20.7980   21.0980 N   0  0  0  0  0  0  0  0  0  0  0  0
  -28.6760  -21.3320   19.1990 O   0  0  0  0  0  0  0  0  0  0  0  0
  -30.1320  -21.2080   21.9720 H   0  0  0  0  0  0  0  0  0  0  0  0
  -30.7290  -14.5670   20.1520 C   0  0  0  0  0  0  0  0  0  0  0  0
  -30.4070  -12.4150   18.9830 C   0  0  0  0  0  2  0  0  0  0  0  0
  -29.4090  -12.6310   17.8240 C   0  0  0  0  0  2  0  0  0  0  0  0
  -27.9570  -12.4740   18.3160 C   0  0  0  0  0  2  0  0  0  0  0  0
  -27.6700  -13.2850   19.6090 C   0  0  0  0  0  3  0  0  0  0  0  0
  -28.7750  -13.0500   20.6640 C   0  0  0  0  0  2  0  0  0  0  0  0
  -30.0690  -13.3790   20.0420 N   0  0  0  0  0  0  0  0  0  0  0  0
  -31.8520  -14.7370   19.6670 O   0  0  0  0  0  0  0  0  0  0  0  0
  -31.4350  -18.9550   20.6930 C   0  0  0  0  0  0  0  0  0  0  0  0
  -30.1660  -19.4940   20.8570 C   0  0  0  0  0  0  0  0  0  0  0  0
  -30.2370  -16.9910   20.6740 C   0  0  0  0  0  0  0  0  0  0  0  0
  -31.4490  -17.5470   20.5870 N   0  0  0  0  0  0  0  0  0  0  0  0
  -29.9920  -15.5790   20.6670 N   0  0  0  0  0  0  0  0  0  0  0  0
  -28.9640  -18.2010   20.8620 S   0  0  0  0  0  0  0  0  0  0  0  0
  -29.0720  -15.3050   20.9710 H   0  0  0  0  0  0  0  0  0  0  0  0
  -25.3020  -13.8690   20.4300 C   0  0  0  0  0  0  0  0  0  0  0  0
  -24.2550  -13.0850   20.8330 C   0  0  0  0  0  0  0  0  0  0  0  0
  -24.7200  -11.7360   20.7590 C   0  0  0  0  0  0  0  0  0  0  0  0
  -26.3400  -12.9950   20.1400 N   0  0  0  0  0  0  0  0  0  0  0  0
  -25.9950  -11.7080   20.3960 N   0  0  0  0  0  0  0  0  0  0  0  0
  -24.0070  -10.4670   20.9590 C   0  0  0  0  0  0  0  0  0  0  0  0
  -24.4610   -9.5050   21.8870 C   0  0  0  0  0  3  0  0  0  0  0  0
  -23.7500   -8.3000   22.0750 C   0  0  0  0  0  3  0  0  0  0  0  0
  -22.5700   -8.0490   21.3350 C   0  0  0  0  0  0  0  0  0  0  0  0
  -22.1350   -9.0020   20.3970 C   0  0  0  0  0  3  0  0  0  0  0  0
  -22.8470  -10.1980   20.2060 C   0  0  0  0  0  3  0  0  0  0  0  0
  -21.8290   -6.8970   21.4320 O   0  0  0  0  0  0  0  0  0  0  0  0
  -21.7750   -6.1720   22.5940 C   0  0  0  0  0  0  0  0  0  0  0  0
  -21.2820   -6.7270   23.7970 C   0  0  0  0  0  3  0  0  0  0  0  0
  -21.1800   -5.9250   24.9510 C   0  0  0  0  0  3  0  0  0  0  0  0
  -21.5590   -4.5700   24.9040 C   0  0  0  0  0  0  0  0  0  0  0  0
  -22.0450   -4.0150   23.7080 C   0  0  0  0  0  3  0  0  0  0  0  0
  -22.1490   -4.8140   22.5550 C   0  0  0  0  0  0  0  0  0  0  0  0
  -22.5980   -4.2690   21.3990 F   0  0  0  0  0  0  0  0  0  0  0  0
  -21.4540   -3.7980   26.0120 F   0  0  0  0  0  0  0  0  0  0  0  0
  -22.8680  -13.5510   21.1720 C   0  0  0  0  0  0  0  0  0  0  0  0
  -22.1790  -12.8330   22.0510 N   0  0  0  0  0  0  0  0  0  0  0  0
  -22.4060  -14.5850   20.6910 O   0  0  0  0  0  0  0  0  0  0  0  0
  -22.5660  -11.9970   22.4620 H   0  0  0  0  0  0  0  0  0  0  0  0
  -21.2500  -13.1260   22.3210 H   0  0  0  0  0  0  0  0  0  0  0  0
  -25.4530  -15.2430   20.2660 N   0  0  0  0  0  0  0  0  0  0  0  0
  -24.6820  -15.8860   20.4040 H   0  0  0  0  0  0  0  0  0  0  0  0
  -26.2690  -15.6880   19.8670 H   0  0  0  0  0  0  0  0  0  0  0  0
  -32.7650  -19.6790   20.6260 C   0  0  1  0  0  0  0  0  0  0  0  0
  -32.6370  -21.0010   20.7510 F   0  0  0  0  0  0  0  0  0  0  0  0
  -33.5840  -19.2690   21.5950 F   0  0  0  0  0  0  0  0  0  0  0  0
  -33.3770  -19.4520   19.4620 F   0  0  0  0  0  0  0  0  0  0  0  0
  -28.7960  -23.0150   21.0280 C   0  0  0  0  0  0  0  0  0  0  0  0
  -28.4610  -22.9910   22.2190 O   0  0  0  0  0  0  0  0  0  0  0  0
  -28.4030  -25.4640   20.8100 C   0  0  0  0  0  3  0  0  0  0  0  0
  -28.9130  -24.3210   20.2860 C   0  0  0  0  0  0  0  0  0  0  0  0
  -29.5380  -24.3490   19.0990 O   0  0  0  0  0  0  0  0  0  0  0  0
  -29.5140  -25.2480   18.7990 H   0  0  0  0  0  0  0  0  0  0  0  0
  -28.4860  -26.7090   20.2150 O   0  0  0  0  0  0  0  0  0  0  0  0
  -24.6110  -31.8990   23.2580 C   0  0  0  0  0  0  0  0  0  0  0  0
  -27.3340  -27.4680   20.2170 C   0  0  0  0  0  0  0  0  0  0  0  0
  -23.4400  -30.4860   21.5990 C   0  0  0  0  0  3  0  0  0  0  0  0
  -24.9280  -28.9620   20.1960 C   0  0  0  0  0  0  0  0  0  0  0  0
  -25.9660  -30.8670   21.4360 C   0  0  0  0  0  2  0  0  0  0  0  0
  -26.0750  -29.4950   20.7980 C   0  0  0  0  0  0  0  0  0  0  0  0
  -27.2850  -28.7570   20.8030 C   0  0  0  0  0  3  0  0  0  0  0  0
  -26.1700  -26.9530   19.6100 C   0  0  0  0  0  3  0  0  0  0  0  0
  -24.9700  -27.6890   19.5990 C   0  0  0  0  0  3  0  0  0  0  0  0
  -23.6750  -29.8090   20.2240 C   0  0  0  0  0  2  0  0  0  0  0  0
  -24.6890  -31.0990   22.1570 N   0  0  0  0  0  0  0  0  0  0  0  0
  -23.5210  -32.1610   23.7850 O   0  0  0  0  0  0  0  0  0  0  0  0
  -22.7840  -29.4600   22.5510 C   0  0  0  0  0  0  0  0  0  0  0  0
  -21.4600  -29.2770   22.4170 N   0  0  0  0  0  0  0  0  0  0  0  0
  -23.4640  -28.8300   23.3670 O   0  0  0  0  0  0  0  0  0  0  0  0
  -20.9730  -29.8390   21.7340 H   0  0  0  0  0  0  0  0  0  0  0  0
  -18.0790  -28.1020   22.9190 C   0  0  0  0  0  0  0  0  0  0  0  0
  -20.6400  -28.3340   23.1780 C   0  0  0  0  0  3  0  0  0  0  0  0
  -20.7270  -26.9120   22.5770 C   0  0  0  0  0  2  0  0  0  0  0  0
  -19.6150  -26.6150   21.5650 C   0  0  0  0  0  2  0  0  0  0  0  0
  -18.2390  -26.7620   22.2210 C   0  0  0  0  0  2  0  0  0  0  0  0
  -19.2070  -28.8470   23.3540 C   0  0  0  0  0  0  0  0  0  0  0  0
  -19.0040  -30.1030   23.9670 C   0  0  0  0  0  3  0  0  0  0  0  0
  -17.7050  -30.6140   24.1480 C   0  0  0  0  0  3  0  0  0  0  0  0
  -16.5910  -29.8650   23.7290 C   0  0  0  0  0  3  0  0  0  0  0  0
  -16.7790  -28.6120   23.1210 C   0  0  0  0  0  3  0  0  0  0  0  0
  -25.8830  -32.5410   23.8960 C   0  0  0  0  0  3  0  0  0  0  0  0
  -26.3850  -31.7820   25.1850 C   0  0  1  0  0  0  0  0  0  0  0  0
  -25.2760  -31.5420   26.2350 C   0  0  0  0  0  1  0  0  0  0  0  0
  -26.9840  -30.4060   24.8100 C   0  0  0  0  0  1  0  0  0  0  0  0
  -27.5180  -32.5890   25.8610 C   0  0  0  0  0  1  0  0  0  0  0  0
  -25.5620  -33.9400   24.2070 N   0  0  0  0  0  0  0  0  0  0  0  0
  -25.9030  -34.9860   23.4420 C   0  0  0  0  0  0  0  0  0  0  0  0
  -26.5900  -34.8770   22.4230 O   0  0  0  0  0  0  0  0  0  0  0  0
  -24.9550  -34.1000   24.9960 H   0  0  0  0  0  0  0  0  0  0  0  0
  -24.1810  -36.7730   23.0300 C   0  0  0  0  0  1  0  0  0  0  0  0
  -25.4000  -36.3760   23.8780 C   0  0  0  0  0  3  0  0  0  0  0  0
  -27.5070  -37.2710   24.7650 C   0  0  0  0  0  1  0  0  0  0  0  0
  -26.4320  -37.4320   23.7910 N   0  0  0  0  0  0  0  0  0  0  0  0
  -26.0180  -38.3500   23.9270 H   0  0  0  0  0  0  0  0  0  0  0  0
  1 52  1  0
  1  2  1  0
  2  4  1  0
  3  1  2  0
  5 17  1  0
  6 11  1  0
  7  8  1  0
  7  6  1  0
  9  8  1  0
  9 23  1  0
  9 10  1  0
 11  5  1  0
 11 10  1  0
 12  5  2  0
 13 14  2  0
 14 18  1  0
 14  2  1  0
 15 18  1  0
 16 15  2  0
 16 13  1  0
 17 15  1  0
 17 19  1  0
 20 21  2  0
 21 40  1  0
 22 21  1  0
 22 25  1  0
 23 24  1  0
 23 20  1  0
 24 22  2  0
 25 26  1  0
 26 27  2  0
 28 31  1  0
 28 27  1  0
 29 28  2  0
 30 29  1  0
 30 25  2  0
 31 32  1  0
 32 33  1  0
 33 34  2  0
 35 34  1  0
 35 39  1  0
 36 35  2  0
 37 32  2  0
 37 36  1  0
 38 37  1  0
 40 41  1  0
 41 44  1  0
 41 43  1  0
 42 40  2  0
 45 46  1  0
 45 20  1  0
 47 45  1  0
 48 13  1  0
 48 49  1  1
 48 50  1  0
 51 48  1  0
 52 53  2  0
 55 54  2  0
 55 52  1  0
 56 55  1  0
 57 56  1  0
 58 60  1  0
 58 54  1  0
 59 70  2  0
 60 65  1  0
 61 69  1  0
 61 71  1  0
 62 68  1  0
 62 64  1  0
 63 69  1  0
 64 65  2  0
 64 63  1  0
 66 60  2  0
 67 66  1  0
 67 62  2  0
 68 61  1  0
 69 59  1  0
 71 73  2  0
 72 71  1  0
 74 72  1  0
 75 84  2  0
 75 80  1  0
 76 72  1  0
 76 80  1  0
 77 76  1  0
 78 79  1  0
 78 77  1  0
 79 75  1  0
 80 81  2  0
 81 82  1  0
 83 82  2  0
 84 83  1  0
 85 59  1  0
 85 90  1  0
 85 86  1  0
 86 89  1  1
 86 87  1  0
 88 86  1  0
 90 93  1  0
 91 95  1  0
 91 90  1  0
 92 91  2  0
 95 94  1  0
 97 95  1  0
 97 98  1  0
 97 96  1  0
M  ISO  4   5 100  17 100  54 101  58 101
M  END
>  <TORSDO>  (37) 
F 20

>  <SCORE>  (37) 
-14.203

>  <name>  (37) 
36

>  <ligand_id>  (37) 
36

>  <original_smiles>  (37) 
[H]OC(C(=O)C(=O)N([H])c1sc(N([H])C(=O)N2C([H])([H])C([H])([H])C([H])([H])C([H])(n3nc(-c4c([H])c([H])c(Oc5c([H])c([H])c(F)c([H])c5F)c([H])c4[H])c(C(=O)N([H])[H])c3N([H])[H])C2([H])[H])nc1C(F)(F)F)=C([H])Oc1c([H])c([H])c2c(c1[H])C([H])([H])N(C(=O)C([H])(N([H])C(=O)C([H])(N([H])C([H])([H])[H])C([H])([H])[H])C(C([H])([H])[H])(C([H])([H])[H])C([H])([H])[H])C([H])(C(=O)N([H])C1([H])c3c([H])c([H])c([H])c([H])c3C([H])([H])C([H])([H])C1([H])[H])C2([H])[H]

>  <smiles>  (37) 
[H]OC(C(=O)C(=O)N([H])c1sc(N([H])C(=O)N2C([H])([H])C([H])([H])C([H])([H])C([H])(n3nc(-c4c([H])c([H])c(Oc5c([H])c([H])c(F)c([H])c5F)c([H])c4[H])c(C(=O)N([H])[H])c3N([H])[H])C2([H])[H])nc1C(F)(F)F)=C([H])Oc1c([H])c([H])c2c(c1[H])C([H])([H])N(C(=O)C([H])(N([H])C(=O)C([H])(N([H])C([H])([H])[H])C([H])([H])[H])C(C([H])([H])[H])(C([H])([H])[H])C([H])([H])[H])C([H])(C(=O)N([H])C1([H])c3c([H])c([H])c([H])c([H])c3C([H])([H])C([H])([H])C1([H])[H])C2([H])[H]

$$$$
37:0:0
     RDKit          3D

 95103  0  0  1  0  0  0  0  0999 V2000
  -29.7790  -21.0200   19.5590 C   0  0  0  0  0  0  0  0  0  0  0  0
  -29.0650  -23.4110   20.0510 C   0  0  0  0  0  0  0  0  0  0  0  0
  -30.1710  -21.1910   18.3410 N   0  0  0  0  0  0  0  0  0  0  0  0
  -29.2400  -22.0760   20.3480 N   0  0  0  0  0  0  0  0  0  0  0  0
  -29.2970  -23.9140   18.9480 O   0  0  0  0  0  0  0  0  0  0  0  0
  -30.5820  -20.3070   18.0370 H   0  0  0  0  0  0  0  0  0  0  0  0
  -28.9900  -21.8580   21.3030 H   0  0  0  0  0  0  0  0  0  0  0  0
  -31.3580  -17.6640   20.1210 C   0  0  0  0  0  3  0  0  0  0  0  0
  -30.1540  -17.0550   20.4160 C   0  0  0  0  0  0  0  0  0  0  0  0
  -30.0810  -19.6010   20.0160 C   0  0  0  0  0  0  0  0  0  0  0  0
  -31.2960  -19.0490   19.8780 N   0  0  0  0  0  0  0  0  0  0  0  0
  -28.9130  -18.3350   20.5040 S   0  0  0  0  0  0  0  0  0  0  0  0
  -30.6210  -14.6170   20.2440 C   0  0  0  0  0  0  0  0  0  0  0  0
  -30.3220  -12.4260   19.1310 C   0  0  0  0  0  2  0  0  0  0  0  0
  -29.3530  -12.6170   17.9440 C   0  0  0  0  0  2  0  0  0  0  0  0
  -27.8910  -12.4630   18.4070 C   0  0  0  0  0  2  0  0  0  0  0  0
  -27.5770  -13.2910   19.6830 C   0  0  0  0  0  3  0  0  0  0  0  0
  -28.6620  -13.0980   20.7660 C   0  0  0  0  0  2  0  0  0  0  0  0
  -29.9610  -13.4220   20.1580 N   0  0  0  0  0  0  0  0  0  0  0  0
  -31.7800  -14.7340   19.8380 O   0  0  0  0  0  0  0  0  0  0  0  0
  -29.8780  -15.7080   20.6090 N   0  0  0  0  0  0  0  0  0  0  0  0
  -28.9430  -15.4890   20.9170 H   0  0  0  0  0  0  0  0  0  0  0  0
  -25.2000  -13.8840   20.4620 C   0  0  0  0  0  0  0  0  0  0  0  0
  -24.1410  -13.1070   20.8490 C   0  0  0  0  0  0  0  0  0  0  0  0
  -24.6020  -11.7550   20.7930 C   0  0  0  0  0  0  0  0  0  0  0  0
  -26.2390  -13.0050   20.1950 N   0  0  0  0  0  0  0  0  0  0  0  0
  -25.8850  -11.7200   20.4550 N   0  0  0  0  0  0  0  0  0  0  0  0
  -23.8800  -10.4920   20.9870 C   0  0  0  0  0  0  0  0  0  0  0  0
  -24.3110   -9.5310   21.9290 C   0  0  0  0  0  3  0  0  0  0  0  0
  -23.5890   -8.3320   22.1100 C   0  0  0  0  0  3  0  0  0  0  0  0
  -22.4220   -8.0840   21.3490 C   0  0  0  0  0  0  0  0  0  0  0  0
  -22.0110   -9.0340   20.3970 C   0  0  0  0  0  3  0  0  0  0  0  0
  -22.7330  -10.2230   20.2130 C   0  0  0  0  0  3  0  0  0  0  0  0
  -21.6720   -6.9370   21.4390 O   0  0  0  0  0  0  0  0  0  0  0  0
  -21.5970   -6.2150   22.6030 C   0  0  0  0  0  0  0  0  0  0  0  0
  -21.0950   -6.7770   23.7970 C   0  0  0  0  0  3  0  0  0  0  0  0
  -20.9690   -5.9820   24.9520 C   0  0  0  0  0  3  0  0  0  0  0  0
  -21.3340   -4.6220   24.9150 C   0  0  0  0  0  0  0  0  0  0  0  0
  -21.8290   -4.0590   23.7260 C   0  0  0  0  0  3  0  0  0  0  0  0
  -21.9570   -4.8530   22.5720 C   0  0  0  0  0  0  0  0  0  0  0  0
  -22.4140   -4.2990   21.4230 F   0  0  0  0  0  0  0  0  0  0  0  0
  -21.2070   -3.8550   26.0230 F   0  0  0  0  0  0  0  0  0  0  0  0
  -22.7500  -13.5810   21.1570 C   0  0  0  0  0  0  0  0  0  0  0  0
  -22.0380  -12.8690   22.0230 N   0  0  0  0  0  0  0  0  0  0  0  0
  -22.3050  -14.6180   20.6670 O   0  0  0  0  0  0  0  0  0  0  0  0
  -22.4110  -12.0300   22.4410 H   0  0  0  0  0  0  0  0  0  0  0  0
  -21.1060  -13.1680   22.2720 H   0  0  0  0  0  0  0  0  0  0  0  0
  -25.3600  -15.2560   20.2940 N   0  0  0  0  0  0  0  0  0  0  0  0
  -24.5910  -15.9040   20.4230 H   0  0  0  0  0  0  0  0  0  0  0  0
  -26.1920  -15.7000   19.9280 H   0  0  0  0  0  0  0  0  0  0  0  0
  -28.2860  -25.5430   21.2310 C   0  0  0  0  0  3  0  0  0  0  0  0
  -28.5710  -24.1980   21.2050 C   0  0  0  0  0  0  0  0  0  0  0  0
  -28.3780  -23.5220   22.3520 O   0  0  0  0  0  0  0  0  0  0  0  0
  -28.0670  -24.1390   23.0010 H   0  0  0  0  0  0  0  0  0  0  0  0
  -28.3700  -26.5330   20.2540 O   0  0  0  0  0  0  0  0  0  0  0  0
  -24.5950  -31.8840   23.2400 C   0  0  0  0  0  0  0  0  0  0  0  0
  -27.2750  -27.3900   20.2050 C   0  0  0  0  0  0  0  0  0  0  0  0
  -23.4140  -30.4730   21.5910 C   0  0  0  0  0  3  0  0  0  0  0  0
  -24.8900  -28.9380   20.1770 C   0  0  0  0  0  0  0  0  0  0  0  0
  -25.9460  -30.8270   21.4220 C   0  0  0  0  0  2  0  0  0  0  0  0
  -26.0470  -29.4510   20.7810 C   0  0  0  0  0  0  0  0  0  0  0  0
  -27.2460  -28.6860   20.7910 C   0  0  0  0  0  3  0  0  0  0  0  0
  -26.1050  -26.9110   19.5850 C   0  0  0  0  0  3  0  0  0  0  0  0
  -24.9180  -27.6690   19.5700 C   0  0  0  0  0  3  0  0  0  0  0  0
  -23.6430  -29.7950   20.2140 C   0  0  0  0  0  2  0  0  0  0  0  0
  -24.6700  -31.0770   22.1420 N   0  0  0  0  0  0  0  0  0  0  0  0
  -23.5060  -32.1530   23.7680 O   0  0  0  0  0  0  0  0  0  0  0  0
  -22.7530  -29.4520   22.5470 C   0  0  0  0  0  0  0  0  0  0  0  0
  -21.4270  -29.2780   22.4190 N   0  0  0  0  0  0  0  0  0  0  0  0
  -23.4320  -28.8200   23.3600 O   0  0  0  0  0  0  0  0  0  0  0  0
  -20.9390  -29.8380   21.7360 H   0  0  0  0  0  0  0  0  0  0  0  0
  -18.0430  -28.1100   22.9300 C   0  0  0  0  0  0  0  0  0  0  0  0
  -20.6050  -28.3400   23.1860 C   0  0  0  0  0  3  0  0  0  0  0  0
  -20.6900  -26.9140   22.5940 C   0  0  0  0  0  2  0  0  0  0  0  0
  -19.5780  -26.6130   21.5840 C   0  0  0  0  0  2  0  0  0  0  0  0
  -18.2010  -26.7660   22.2390 C   0  0  0  0  0  2  0  0  0  0  0  0
  -19.1730  -28.8550   23.3600 C   0  0  0  0  0  0  0  0  0  0  0  0
  -18.9700  -30.1150   23.9660 C   0  0  0  0  0  3  0  0  0  0  0  0
  -17.6710  -30.6270   24.1450 C   0  0  0  0  0  3  0  0  0  0  0  0
  -16.5570  -29.8770   23.7320 C   0  0  0  0  0  3  0  0  0  0  0  0
  -16.7440  -28.6200   23.1290 C   0  0  0  0  0  3  0  0  0  0  0  0
  -25.8710  -32.5230   23.8710 C   0  0  0  0  0  3  0  0  0  0  0  0
  -26.3770  -31.7590   25.1580 C   0  0  1  0  0  0  0  0  0  0  0  0
  -25.2750  -31.5200   26.2140 C   0  0  0  0  0  1  0  0  0  0  0  0
  -26.9730  -30.3840   24.7770 C   0  0  0  0  0  1  0  0  0  0  0  0
  -27.5160  -32.5630   25.8290 C   0  0  0  0  0  1  0  0  0  0  0  0
  -25.5540  -33.9220   24.1910 N   0  0  0  0  0  0  0  0  0  0  0  0
  -25.8870  -34.9710   23.4270 C   0  0  0  0  0  0  0  0  0  0  0  0
  -26.5640  -34.8630   22.4010 O   0  0  0  0  0  0  0  0  0  0  0  0
  -24.9560  -34.0790   24.9890 H   0  0  0  0  0  0  0  0  0  0  0  0
  -24.1640  -36.7610   23.0390 C   0  0  0  0  0  1  0  0  0  0  0  0
  -25.3910  -36.3600   23.8730 C   0  0  0  0  0  3  0  0  0  0  0  0
  -27.5070  -37.2540   24.7410 C   0  0  0  0  0  1  0  0  0  0  0  0
  -26.4250  -37.4130   23.7730 N   0  0  0  0  0  0  0  0  0  0  0  0
  -26.0140  -38.3330   23.9060 H   0  0  0  0  0  0  0  0  0  0  0  0
  1 10  1  0
  1  4  1  0
  2  4  1  0
  2 52  1  0
  3  1  2  0
  4  7  1  0
  5  2  2  0
  6  3  1  0
  8  9  2  0
  9 12  1  0
  9 21  1  0
 10 12  1  0
 11 10  2  0
 11  8  1  0
 13 21  1  0
 14 19  1  0
 15 16  1  0
 15 14  1  0
 17 16  1  0
 17 26  1  0
 17 18  1  0
 19 13  1  0
 19 18  1  0
 20 13  2  0
 21 22  1  0
 23 24  2  0
 24 43  1  0
 25 24  1  0
 25 28  1  0
 26 27  1  0
 26 23  1  0
 27 25  2  0
 28 29  1  0
 29 30  2  0
 31 34  1  0
 31 30  1  0
 32 31  2  0
 33 32  1  0
 33 28  2  0
 34 35  1  0
 35 36  1  0
 36 37  2  0
 38 37  1  0
 38 42  1  0
 39 38  2  0
 40 35  2  0
 40 39  1  0
 41 40  1  0
 43 44  1  0
 44 47  1  0
 44 46  1  0
 45 43  2  0
 48 49  1  0
 48 23  1  0
 50 48  1  0
 52 51  2  0
 52 53  1  0
 53 54  1  0
 55 51  1  0
 56 67  2  0
 57 55  1  0
 57 62  1  0
 58 66  1  0
 58 68  1  0
 59 65  1  0
 59 61  1  0
 60 66  1  0
 61 62  2  0
 61 60  1  0
 63 57  2  0
 64 63  1  0
 64 59  2  0
 65 58  1  0
 66 56  1  0
 68 70  2  0
 69 68  1  0
 71 69  1  0
 72 81  2  0
 72 77  1  0
 73 69  1  0
 73 77  1  0
 74 73  1  0
 75 76  1  0
 75 74  1  0
 76 72  1  0
 77 78  2  0
 78 79  1  0
 80 79  2  0
 81 80  1  0
 82 56  1  0
 82 87  1  0
 82 83  1  0
 83 86  1  1
 83 84  1  0
 85 83  1  0
 87 90  1  0
 88 92  1  0
 88 87  1  0
 89 88  2  0
 92 91  1  0
 94 92  1  0
 94 95  1  0
 94 93  1  0
M  ISO  4  13 100  21 100  51 101  55 101
M  END
>  <TORSDO>  (38) 
F 19

>  <SCORE>  (38) 
-14.620

>  <name>  (38) 
37

>  <ligand_id>  (38) 
37

>  <original_smiles>  (38) 
[H]N=C(c1nc([H])c(N([H])C(=O)N2C([H])([H])C([H])([H])C([H])([H])C([H])(n3nc(-c4c([H])c([H])c(Oc5c([H])c([H])c(F)c([H])c5F)c([H])c4[H])c(C(=O)N([H])[H])c3N([H])[H])C2([H])[H])s1)N([H])C(=O)C(O[H])=C([H])Oc1c([H])c([H])c2c(c1[H])C([H])([H])N(C(=O)C([H])(N([H])C(=O)C([H])(N([H])C([H])([H])[H])C([H])([H])[H])C(C([H])([H])[H])(C([H])([H])[H])C([H])([H])[H])C([H])(C(=O)N([H])C1([H])c3c([H])c([H])c([H])c([H])c3C([H])([H])C([H])([H])C1([H])[H])C2([H])[H]

>  <smiles>  (38) 
[H]N=C(c1nc([H])c(N([H])C(=O)N2C([H])([H])C([H])([H])C([H])([H])C([H])(n3nc(-c4c([H])c([H])c(Oc5c([H])c([H])c(F)c([H])c5F)c([H])c4[H])c(C(=O)N([H])[H])c3N([H])[H])C2([H])[H])s1)N([H])C(=O)C(O[H])=C([H])Oc1c([H])c([H])c2c(c1[H])C([H])([H])N(C(=O)C([H])(N([H])C(=O)C([H])(N([H])C([H])([H])[H])C([H])([H])[H])C(C([H])([H])[H])(C([H])([H])[H])C([H])([H])[H])C([H])(C(=O)N([H])C1([H])c3c([H])c([H])c([H])c([H])c3C([H])([H])C([H])([H])C1([H])[H])C2([H])[H]

$$$$
38:0:0
     RDKit          3D

 92100  0  0  1  0  0  0  0  0999 V2000
  -31.1750  -21.4860   21.4080 C   0  0  0  0  0  1  0  0  0  0  0  0
  -29.7920  -21.1320   20.8040 C   0  0  0  0  0  3  0  0  0  0  0  0
  -30.8570  -18.7920   18.0600 C   0  0  0  0  0  3  0  0  0  0  0  0
  -30.7050  -17.4740   18.6290 C   0  0  0  0  0  3  0  0  0  0  0  0
  -30.5020  -19.8690   18.7800 C   0  0  0  0  0  3  0  0  0  0  0  0
  -30.1900  -17.2780   19.8680 C   0  0  0  0  0  0  0  0  0  0  0  0
  -29.7500  -18.5090   20.6430 C   0  0  0  0  0  0  0  0  0  0  0  0
  -29.9510  -19.7840   20.0740 N   0  0  0  0  0  0  0  0  0  0  0  0
  -29.2370  -18.3980   21.7620 O   0  0  0  0  0  0  0  0  0  0  0  0
  -30.6980  -14.7670   20.0440 C   0  0  0  0  0  0  0  0  0  0  0  0
  -30.3930  -12.5280   19.0060 C   0  0  0  0  0  2  0  0  0  0  0  0
  -29.4030  -12.6510   17.8270 C   0  0  0  0  0  2  0  0  0  0  0  0
  -27.9480  -12.5100   18.3160 C   0  0  0  0  0  2  0  0  0  0  0  0
  -27.6500  -13.3600   19.5820 C   0  0  0  0  0  3  0  0  0  0  0  0
  -28.7590  -13.2240   20.6480 C   0  0  0  0  0  2  0  0  0  0  0  0
  -30.0390  -13.5590   20.0060 N   0  0  0  0  0  0  0  0  0  0  0  0
  -31.8530  -14.8440   19.6110 O   0  0  0  0  0  0  0  0  0  0  0  0
  -29.9930  -15.9150   20.3600 N   0  0  0  0  0  0  0  0  0  0  0  0
  -29.1500  -15.7910   20.9010 H   0  0  0  0  0  0  0  0  0  0  0  0
  -25.2930  -13.9500   20.4170 C   0  0  0  0  0  0  0  0  0  0  0  0
  -24.2400  -13.1750   20.8240 C   0  0  0  0  0  0  0  0  0  0  0  0
  -24.6980  -11.8240   20.7600 C   0  0  0  0  0  0  0  0  0  0  0  0
  -26.3240  -13.0700   20.1260 N   0  0  0  0  0  0  0  0  0  0  0  0
  -25.9760  -11.7850   20.3990 N   0  0  0  0  0  0  0  0  0  0  0  0
  -23.9730  -10.5600   20.9670 C   0  0  0  0  0  0  0  0  0  0  0  0
  -24.4310   -9.5840   21.8810 C   0  0  0  0  0  3  0  0  0  0  0  0
  -23.7070   -8.3890   22.0770 C   0  0  0  0  0  3  0  0  0  0  0  0
  -22.5060   -8.1650   21.3600 C   0  0  0  0  0  0  0  0  0  0  0  0
  -22.0650   -9.1280   20.4350 C   0  0  0  0  0  3  0  0  0  0  0  0
  -22.7920  -10.3140   20.2380 C   0  0  0  0  0  3  0  0  0  0  0  0
  -21.7470   -7.0250   21.4690 O   0  0  0  0  0  0  0  0  0  0  0  0
  -21.7230   -6.2820   22.6210 C   0  0  0  0  0  0  0  0  0  0  0  0
  -21.3360   -6.8380   23.8610 C   0  0  0  0  0  3  0  0  0  0  0  0
  -21.2610   -6.0210   25.0050 C   0  0  0  0  0  3  0  0  0  0  0  0
  -21.5640   -4.6500   24.9130 C   0  0  0  0  0  0  0  0  0  0  0  0
  -21.9470   -4.0940   23.6800 C   0  0  0  0  0  3  0  0  0  0  0  0
  -22.0230   -4.9070   22.5370 C   0  0  0  0  0  0  0  0  0  0  0  0
  -22.3720   -4.3620   21.3470 F   0  0  0  0  0  0  0  0  0  0  0  0
  -21.4830   -3.8640   26.0130 F   0  0  0  0  0  0  0  0  0  0  0  0
  -22.8570  -13.6580   21.1520 C   0  0  0  0  0  0  0  0  0  0  0  0
  -22.1550  -12.9640   22.0410 N   0  0  0  0  0  0  0  0  0  0  0  0
  -22.4060  -14.6910   20.6570 O   0  0  0  0  0  0  0  0  0  0  0  0
  -22.5330  -12.1410   22.4810 H   0  0  0  0  0  0  0  0  0  0  0  0
  -21.2290  -13.2820   22.2980 H   0  0  0  0  0  0  0  0  0  0  0  0
  -25.4490  -15.3230   20.2440 N   0  0  0  0  0  0  0  0  0  0  0  0
  -24.6910  -15.9740   20.4150 H   0  0  0  0  0  0  0  0  0  0  0  0
  -26.2700  -15.7640   19.8510 H   0  0  0  0  0  0  0  0  0  0  0  0
  -29.1590  -22.3990   19.9910 C   0  0  0  0  0  2  0  0  0  0  0  0
  -29.0020  -23.8710   20.6140 C   0  0  0  0  0  0  0  0  0  0  0  0
  -29.4270  -24.1180   21.7460 O   0  0  0  0  0  0  0  0  0  0  0  0
  -28.2510  -25.0160   19.7950 C   0  0  0  0  0  2  0  0  0  0  0  0
  -28.3610  -26.4350   20.2680 O   0  0  0  0  0  0  0  0  0  0  0  0
  -24.6250  -31.8770   23.2310 C   0  0  0  0  0  0  0  0  0  0  0  0
  -27.2490  -27.3050   20.1750 C   0  0  0  0  0  0  0  0  0  0  0  0
  -23.4280  -30.4840   21.5830 C   0  0  0  0  0  3  0  0  0  0  0  0
  -24.8840  -28.9400   20.1530 C   0  0  0  0  0  0  0  0  0  0  0  0
  -25.9680  -30.7980   21.4090 C   0  0  0  0  0  2  0  0  0  0  0  0
  -26.0500  -29.4180   20.7630 C   0  0  0  0  0  0  0  0  0  0  0  0
  -27.2300  -28.6120   20.7670 C   0  0  0  0  0  3  0  0  0  0  0  0
  -26.0580  -26.9000   19.5240 C   0  0  0  0  0  3  0  0  0  0  0  0
  -24.8920  -27.6880   19.5260 C   0  0  0  0  0  3  0  0  0  0  0  0
  -23.6490  -29.8170   20.2000 C   0  0  0  0  0  2  0  0  0  0  0  0
  -24.6930  -31.0710   22.1310 N   0  0  0  0  0  0  0  0  0  0  0  0
  -23.5390  -32.1490   23.7650 O   0  0  0  0  0  0  0  0  0  0  0  0
  -22.7640  -29.4610   22.5350 C   0  0  0  0  0  0  0  0  0  0  0  0
  -21.4380  -29.2890   22.4090 N   0  0  0  0  0  0  0  0  0  0  0  0
  -23.4420  -28.8290   23.3500 O   0  0  0  0  0  0  0  0  0  0  0  0
  -20.9500  -29.8480   21.7220 H   0  0  0  0  0  0  0  0  0  0  0  0
  -18.0570  -28.1010   22.9150 C   0  0  0  0  0  0  0  0  0  0  0  0
  -20.6170  -28.3500   23.1760 C   0  0  0  0  0  3  0  0  0  0  0  0
  -20.7130  -26.9230   22.5910 C   0  0  0  0  0  2  0  0  0  0  0  0
  -19.6040  -26.6100   21.5790 C   0  0  0  0  0  2  0  0  0  0  0  0
  -18.2250  -26.7570   22.2290 C   0  0  0  0  0  2  0  0  0  0  0  0
  -19.1800  -28.8560   23.3460 C   0  0  0  0  0  0  0  0  0  0  0  0
  -18.9680  -30.1140   23.9490 C   0  0  0  0  0  3  0  0  0  0  0  0
  -17.6660  -30.6180   24.1260 C   0  0  0  0  0  3  0  0  0  0  0  0
  -16.5570  -29.8610   23.7080 C   0  0  0  0  0  3  0  0  0  0  0  0
  -16.7530  -28.6040   23.1090 C   0  0  0  0  0  3  0  0  0  0  0  0
  -25.9030  -32.5100   23.8590 C   0  0  0  0  0  3  0  0  0  0  0  0
  -26.4130  -31.7390   25.1380 C   0  0  1  0  0  0  0  0  0  0  0  0
  -25.3150  -31.5070   26.2020 C   0  0  0  0  0  1  0  0  0  0  0  0
  -26.9980  -30.3610   24.7500 C   0  0  0  0  0  1  0  0  0  0  0  0
  -27.5610  -32.5330   25.8060 C   0  0  0  0  0  1  0  0  0  0  0  0
  -25.5920  -33.9080   24.1890 N   0  0  0  0  0  0  0  0  0  0  0  0
  -25.9210  -34.9620   23.4300 C   0  0  0  0  0  0  0  0  0  0  0  0
  -26.5870  -34.8590   22.3960 O   0  0  0  0  0  0  0  0  0  0  0  0
  -25.0030  -34.0630   24.9930 H   0  0  0  0  0  0  0  0  0  0  0  0
  -24.1870  -36.7520   23.0850 C   0  0  0  0  0  1  0  0  0  0  0  0
  -25.4340  -36.3490   23.8870 C   0  0  0  0  0  3  0  0  0  0  0  0
  -27.5710  -37.2410   24.7020 C   0  0  0  0  0  1  0  0  0  0  0  0
  -26.4630  -37.4050   23.7670 N   0  0  0  0  0  0  0  0  0  0  0  0
  -26.0540  -38.3240   23.9170 H   0  0  0  0  0  0  0  0  0  0  0  0
  2  1  1  0
  3  4  1  0
  3  5  2  0
  4  6  2  0
  5  8  1  0
  6 18  1  0
  6  7  1  0
  7  9  2  0
  8  7  1  0
  8  2  1  0
 10 18  1  0
 11 16  1  0
 12 13  1  0
 12 11  1  0
 14 13  1  0
 14 23  1  0
 14 15  1  0
 16 10  1  0
 16 15  1  0
 17 10  2  0
 18 19  1  0
 20 21  2  0
 21 40  1  0
 22 21  1  0
 22 25  1  0
 23 24  1  0
 23 20  1  0
 24 22  2  0
 25 26  1  0
 26 27  2  0
 28 31  1  0
 28 27  1  0
 29 28  2  0
 30 29  1  0
 30 25  2  0
 31 32  1  0
 32 33  1  0
 33 34  2  0
 35 34  1  0
 35 39  1  0
 36 35  2  0
 37 32  2  0
 37 36  1  0
 38 37  1  0
 40 41  1  0
 41 44  1  0
 41 43  1  0
 42 40  2  0
 45 46  1  0
 45 20  1  0
 47 45  1  0
 48 49  1  0
 48  2  1  0
 49 50  2  0
 51 52  1  0
 51 49  1  0
 53 64  2  0
 54 52  1  0
 54 59  1  0
 55 63  1  0
 55 65  1  0
 56 62  1  0
 56 58  1  0
 57 63  1  0
 58 59  2  0
 58 57  1  0
 60 61  1  0
 60 54  2  0
 61 56  2  0
 62 55  1  0
 63 53  1  0
 65 67  2  0
 66 65  1  0
 68 66  1  0
 69 78  2  0
 69 74  1  0
 70 66  1  0
 70 74  1  0
 71 70  1  0
 72 73  1  0
 72 71  1  0
 73 69  1  0
 74 75  2  0
 75 76  1  0
 77 76  2  0
 78 77  1  0
 79 53  1  0
 79 84  1  0
 79 80  1  0
 80 83  1  1
 80 81  1  0
 82 80  1  0
 84 87  1  0
 85 89  1  0
 85 84  1  0
 86 85  2  0
 89 88  1  0
 91 89  1  0
 91 92  1  0
 91 90  1  0
M  ISO  4  10 100  18 100  51 101  52 101
M  END
>  <TORSDO>  (39) 
F 20

>  <SCORE>  (39) 
-13.375

>  <name>  (39) 
38

>  <ligand_id>  (39) 
38

>  <original_smiles>  (39) 
[H]c1c([H])c([H])c2c(c1[H])C([H])([H])C([H])([H])C([H])([H])C2([H])N([H])C(=O)C1([H])N(C(=O)C([H])(N([H])C(=O)C([H])(N([H])C([H])([H])[H])C([H])([H])[H])C(C([H])([H])[H])(C([H])([H])[H])C([H])([H])[H])C([H])([H])c2c([H])c(OC([H])([H])C(=O)C([H])([H])C([H])(n3c([H])c([H])c([H])c(N([H])C(=O)N4C([H])([H])C([H])([H])C([H])([H])C([H])(n5nc(-c6c([H])c([H])c(Oc7c([H])c([H])c(F)c([H])c7F)c([H])c6[H])c(C(=O)N([H])[H])c5N([H])[H])C4([H])[H])c3=O)C([H])([H])[H])c([H])c([H])c2C1([H])[H]

>  <smiles>  (39) 
[H]c1c([H])c([H])c2c(c1[H])C([H])([H])C([H])([H])C([H])([H])C2([H])N([H])C(=O)C1([H])N(C(=O)C([H])(N([H])C(=O)C([H])(N([H])C([H])([H])[H])C([H])([H])[H])C(C([H])([H])[H])(C([H])([H])[H])C([H])([H])[H])C([H])([H])c2c([H])c(OC([H])([H])C(=O)C([H])([H])C([H])(n3c([H])c([H])c([H])c(N([H])C(=O)N4C([H])([H])C([H])([H])C([H])([H])C([H])(n5nc(-c6c([H])c([H])c(Oc7c([H])c([H])c(F)c([H])c7F)c([H])c6[H])c(C(=O)N([H])[H])c5N([H])[H])C4([H])[H])c3=O)C([H])([H])[H])c([H])c([H])c2C1([H])[H]

$$$$
39:0:0
     RDKit          3D

 95103  0  0  1  0  0  0  0  0999 V2000
  -29.1530  -21.8930   20.3080 C   0  0  0  0  0  0  0  0  0  0  0  0
  -28.8500  -20.5820   20.5020 N   0  0  0  0  0  0  0  0  0  0  0  0
  -30.2500  -22.3100   19.9170 O   0  0  0  0  0  0  0  0  0  0  0  0
  -27.9660  -20.4300   20.9730 H   0  0  0  0  0  0  0  0  0  0  0  0
  -29.4090  -18.1370   20.6240 C   0  0  0  0  0  3  0  0  0  0  0  0
  -30.2670  -19.4970   18.7900 C   0  0  0  0  0  3  0  0  0  0  0  0
  -29.5320  -19.4150   19.9950 C   0  0  0  0  0  0  0  0  0  0  0  0
  -30.0080  -16.9610   20.0700 C   0  0  0  0  0  0  0  0  0  0  0  0
  -30.8230  -18.3470   18.2090 C   0  0  0  0  0  0  0  0  0  0  0  0
  -30.6770  -17.0900   18.8200 C   0  0  0  0  0  0  0  0  0  0  0  0
  -31.4760  -18.4470   17.0250 F   0  0  0  0  0  0  0  0  0  0  0  0
  -31.1440  -16.0080   18.1510 F   0  0  0  0  0  0  0  0  0  0  0  0
  -30.6540  -14.5830   20.5930 C   0  0  0  0  0  0  0  0  0  0  0  0
  -30.4520  -12.3550   19.5780 C   0  0  0  0  0  2  0  0  0  0  0  0
  -29.5630  -12.4970   18.3240 C   0  0  0  0  0  2  0  0  0  0  0  0
  -28.0720  -12.3550   18.6950 C   0  0  0  0  0  2  0  0  0  0  0  0
  -27.6680  -13.2370   19.9060 C   0  0  0  0  0  3  0  0  0  0  0  0
  -28.6790  -13.0910   21.0680 C   0  0  0  0  0  2  0  0  0  0  0  0
  -30.0180  -13.3810   20.5390 N   0  0  0  0  0  0  0  0  0  0  0  0
  -31.8570  -14.6990   20.3480 O   0  0  0  0  0  0  0  0  0  0  0  0
  -29.8500  -15.6720   20.7170 N   0  0  0  0  0  0  0  0  0  0  0  0
  -28.9440  -15.4920   21.1200 H   0  0  0  0  0  0  0  0  0  0  0  0
  -25.2450  -13.8430   20.5130 C   0  0  0  0  0  0  0  0  0  0  0  0
  -24.1660  -13.0720   20.8520 C   0  0  0  0  0  0  0  0  0  0  0  0
  -24.6330  -11.7230   20.8660 C   0  0  0  0  0  0  0  0  0  0  0  0
  -26.3010  -12.9620   20.3390 N   0  0  0  0  0  0  0  0  0  0  0  0
  -25.9360  -11.6840   20.6130 N   0  0  0  0  0  0  0  0  0  0  0  0
  -23.9060  -10.4610   21.0490 C   0  0  0  0  0  0  0  0  0  0  0  0
  -24.3130   -9.5050   22.0070 C   0  0  0  0  0  3  0  0  0  0  0  0
  -23.5870   -8.3070   22.1770 C   0  0  0  0  0  3  0  0  0  0  0  0
  -22.4400   -8.0550   21.3880 C   0  0  0  0  0  0  0  0  0  0  0  0
  -22.0510   -8.9990   20.4210 C   0  0  0  0  0  3  0  0  0  0  0  0
  -22.7780  -10.1890   20.2500 C   0  0  0  0  0  3  0  0  0  0  0  0
  -21.6880   -6.9080   21.4640 O   0  0  0  0  0  0  0  0  0  0  0  0
  -21.6140   -6.1720   22.6200 C   0  0  0  0  0  0  0  0  0  0  0  0
  -21.1580   -6.7330   23.8330 C   0  0  0  0  0  3  0  0  0  0  0  0
  -21.0300   -5.9240   24.9800 C   0  0  0  0  0  3  0  0  0  0  0  0
  -21.3490   -4.5540   24.9150 C   0  0  0  0  0  0  0  0  0  0  0  0
  -21.7990   -3.9920   23.7060 C   0  0  0  0  0  3  0  0  0  0  0  0
  -21.9270   -4.7990   22.5610 C   0  0  0  0  0  0  0  0  0  0  0  0
  -22.3390   -4.2490   21.3950 F   0  0  0  0  0  0  0  0  0  0  0  0
  -21.2200   -3.7740   26.0120 F   0  0  0  0  0  0  0  0  0  0  0  0
  -22.7560  -13.5480   21.0570 C   0  0  0  0  0  0  0  0  0  0  0  0
  -21.9950  -12.8630   21.9040 N   0  0  0  0  0  0  0  0  0  0  0  0
  -22.3360  -14.5610   20.5010 O   0  0  0  0  0  0  0  0  0  0  0  0
  -22.3460  -12.0430   22.3770 H   0  0  0  0  0  0  0  0  0  0  0  0
  -21.0480  -13.1660   22.0840 H   0  0  0  0  0  0  0  0  0  0  0  0
  -25.4130  -15.2110   20.3150 N   0  0  0  0  0  0  0  0  0  0  0  0
  -24.6390  -15.8640   20.3740 H   0  0  0  0  0  0  0  0  0  0  0  0
  -26.2680  -15.6400   19.9900 H   0  0  0  0  0  0  0  0  0  0  0  0
  -27.9810  -22.8720   20.6650 C   0  0  0  0  0  0  0  0  0  0  0  0
  -26.8100  -22.4740   20.7060 O   0  0  0  0  0  0  0  0  0  0  0  0
  -28.2960  -24.3530   21.0030 C   0  0  0  0  0  2  0  0  0  0  0  0
  -28.4960  -25.3140   19.7960 C   0  0  0  0  0  2  0  0  0  0  0  0
  -28.4410  -26.7190   20.1620 O   0  0  0  0  0  0  0  0  0  0  0  0
  -24.6030  -31.8930   23.2490 C   0  0  0  0  0  0  0  0  0  0  0  0
  -27.2480  -27.4290   20.1570 C   0  0  0  0  0  0  0  0  0  0  0  0
  -23.3980  -30.4940   21.6050 C   0  0  0  0  0  3  0  0  0  0  0  0
  -24.8510  -28.9600   20.1760 C   0  0  0  0  0  0  0  0  0  0  0  0
  -25.9280  -30.8490   21.4080 C   0  0  0  0  0  2  0  0  0  0  0  0
  -26.0120  -29.4770   20.7620 C   0  0  0  0  0  0  0  0  0  0  0  0
  -27.2110  -28.7220   20.7450 C   0  0  0  0  0  3  0  0  0  0  0  0
  -26.0570  -26.9310   19.5770 C   0  0  0  0  0  3  0  0  0  0  0  0
  -24.8710  -27.6890   19.5810 C   0  0  0  0  0  3  0  0  0  0  0  0
  -23.6080  -29.8200   20.2240 C   0  0  0  0  0  2  0  0  0  0  0  0
  -24.6620  -31.0950   22.1450 N   0  0  0  0  0  0  0  0  0  0  0  0
  -23.5210  -32.1620   23.7900 O   0  0  0  0  0  0  0  0  0  0  0  0
  -22.7510  -29.4680   22.5630 C   0  0  0  0  0  0  0  0  0  0  0  0
  -21.4260  -29.2820   22.4350 N   0  0  0  0  0  0  0  0  0  0  0  0
  -23.4360  -28.8420   23.3770 O   0  0  0  0  0  0  0  0  0  0  0  0
  -20.9350  -29.8390   21.7510 H   0  0  0  0  0  0  0  0  0  0  0  0
  -18.0560  -28.0720   22.9280 C   0  0  0  0  0  0  0  0  0  0  0  0
  -20.6130  -28.3390   23.2040 C   0  0  0  0  0  3  0  0  0  0  0  0
  -20.7210  -26.9100   22.6240 C   0  0  0  0  0  2  0  0  0  0  0  0
  -19.6220  -26.5840   21.6090 C   0  0  0  0  0  2  0  0  0  0  0  0
  -18.2390  -26.7240   22.2510 C   0  0  0  0  0  2  0  0  0  0  0  0
  -19.1720  -28.8370   23.3610 C   0  0  0  0  0  0  0  0  0  0  0  0
  -18.9480  -30.1000   23.9540 C   0  0  0  0  0  3  0  0  0  0  0  0
  -17.6410  -30.5960   24.1190 C   0  0  0  0  0  3  0  0  0  0  0  0
  -16.5410  -29.8270   23.7020 C   0  0  0  0  0  3  0  0  0  0  0  0
  -16.7490  -28.5680   23.1130 C   0  0  0  0  0  3  0  0  0  0  0  0
  -25.8860  -32.5270   23.8690 C   0  0  0  0  0  3  0  0  0  0  0  0
  -26.4020  -31.7590   25.1480 C   0  0  1  0  0  0  0  0  0  0  0  0
  -25.3090  -31.5260   26.2170 C   0  0  0  0  0  1  0  0  0  0  0  0
  -26.9850  -30.3800   24.7600 C   0  0  0  0  0  1  0  0  0  0  0  0
  -27.5530  -32.5550   25.8070 C   0  0  0  0  0  1  0  0  0  0  0  0
  -25.5770  -33.9260   24.1940 N   0  0  0  0  0  0  0  0  0  0  0  0
  -25.9120  -34.9760   23.4310 C   0  0  0  0  0  0  0  0  0  0  0  0
  -26.5870  -34.8690   22.4030 O   0  0  0  0  0  0  0  0  0  0  0  0
  -24.9790  -34.0830   24.9920 H   0  0  0  0  0  0  0  0  0  0  0  0
  -24.1900  -36.7700   23.0560 C   0  0  0  0  0  1  0  0  0  0  0  0
  -25.4230  -36.3660   23.8810 C   0  0  0  0  0  3  0  0  0  0  0  0
  -27.5510  -37.2480   24.7300 C   0  0  0  0  0  1  0  0  0  0  0  0
  -26.4590  -37.4170   23.7760 N   0  0  0  0  0  0  0  0  0  0  0  0
  -26.0520  -38.3380   23.9180 H   0  0  0  0  0  0  0  0  0  0  0  0
  1  2  1  0
  1 51  1  0
  2  4  1  0
  3  1  2  0
  6  7  1  0
  7  2  1  0
  7  5  2  0
  8  5  1  0
  8 21  1  0
  9  6  2  0
  9 10  1  0
 10  8  2  0
 11  9  1  0
 12 10  1  0
 13 21  1  0
 14 19  1  0
 15 16  1  0
 15 14  1  0
 17 16  1  0
 17 26  1  0
 17 18  1  0
 19 13  1  0
 19 18  1  0
 20 13  2  0
 21 22  1  0
 23 24  2  0
 24 25  1  0
 24 43  1  0
 25 28  1  0
 26 23  1  0
 26 27  1  0
 27 25  2  0
 28 29  1  0
 29 30  2  0
 31 34  1  0
 31 30  1  0
 32 31  2  0
 33 32  1  0
 33 28  2  0
 34 35  1  0
 35 36  1  0
 36 37  2  0
 38 37  1  0
 38 42  1  0
 39 38  2  0
 40 35  2  0
 40 39  1  0
 41 40  1  0
 43 44  1  0
 44 47  1  0
 44 46  1  0
 45 43  2  0
 48 49  1  0
 48 23  1  0
 50 48  1  0
 51 52  2  0
 51 53  1  0
 54 55  1  0
 54 53  1  0
 56 67  2  0
 57 55  1  0
 57 62  1  0
 58 66  1  0
 58 68  1  0
 59 65  1  0
 59 61  1  0
 60 66  1  0
 61 60  1  0
 62 61  2  0
 63 64  1  0
 63 57  2  0
 64 59  2  0
 65 58  1  0
 66 56  1  0
 68 70  2  0
 69 68  1  0
 71 69  1  0
 72 81  2  0
 72 77  1  0
 73 69  1  0
 73 77  1  0
 74 73  1  0
 75 76  1  0
 75 74  1  0
 76 72  1  0
 77 78  2  0
 78 79  1  0
 80 79  2  0
 81 80  1  0
 82 56  1  0
 82 87  1  0
 82 83  1  0
 83 86  1  1
 83 84  1  0
 85 83  1  0
 87 90  1  0
 88 92  1  0
 88 87  1  0
 89 88  2  0
 92 91  1  0
 94 92  1  0
 94 95  1  0
 94 93  1  0
M  ISO  4  13 100  21 100  54 101  55 101
M  END
>  <TORSDO>  (40) 
F 20

>  <SCORE>  (40) 
-13.944

>  <name>  (40) 
39

>  <ligand_id>  (40) 
39

>  <original_smiles>  (40) 
[H]c1c([H])c([H])c2c(c1[H])C([H])([H])C([H])([H])C([H])([H])C2([H])N([H])C(=O)C1([H])N(C(=O)C([H])(N([H])C(=O)C([H])(N([H])C([H])([H])[H])C([H])([H])[H])C(C([H])([H])[H])(C([H])([H])[H])C([H])([H])[H])C([H])([H])c2c([H])c(OC([H])([H])C([H])([H])C(=O)C(=O)N([H])c3c([H])c(F)c(F)c(N([H])C(=O)N4C([H])([H])C([H])([H])C([H])([H])C([H])(n5nc(-c6c([H])c([H])c(Oc7c([H])c([H])c(F)c([H])c7F)c([H])c6[H])c(C(=O)N([H])[H])c5N([H])[H])C4([H])[H])c3[H])c([H])c([H])c2C1([H])[H]

>  <smiles>  (40) 
[H]c1c([H])c([H])c2c(c1[H])C([H])([H])C([H])([H])C([H])([H])C2([H])N([H])C(=O)C1([H])N(C(=O)C([H])(N([H])C(=O)C([H])(N([H])C([H])([H])[H])C([H])([H])[H])C(C([H])([H])[H])(C([H])([H])[H])C([H])([H])[H])C([H])([H])c2c([H])c(OC([H])([H])C([H])([H])C(=O)C(=O)N([H])c3c([H])c(F)c(F)c(N([H])C(=O)N4C([H])([H])C([H])([H])C([H])([H])C([H])(n5nc(-c6c([H])c([H])c(Oc7c([H])c([H])c(F)c([H])c7F)c([H])c6[H])c(C(=O)N([H])[H])c5N([H])[H])C4([H])[H])c3[H])c([H])c([H])c2C1([H])[H]

$$$$
40:0:0
     RDKit          3D

 95103  0  0  1  0  0  0  0  0999 V2000
  -28.9120  -20.6530   21.0560 C   0  0  0  0  0  0  0  0  0  0  0  0
  -28.5370  -23.0750   20.9300 C   0  0  0  0  0  0  0  0  0  0  0  0
  -29.0820  -21.8910   20.5010 N   0  0  0  0  0  0  0  0  0  0  0  0
  -28.1870  -20.4410   22.0390 O   0  0  0  0  0  0  0  0  0  0  0  0
  -27.7790  -23.1370   21.9060 O   0  0  0  0  0  0  0  0  0  0  0  0
  -29.6560  -21.8950   19.6720 H   0  0  0  0  0  0  0  0  0  0  0  0
  -29.4410  -18.0950   20.9070 C   0  0  0  0  0  3  0  0  0  0  0  0
  -29.6310  -19.4570   20.4530 C   0  0  0  0  0  0  0  0  0  0  0  0
  -30.1970  -17.1180   20.2730 C   0  0  0  0  0  0  0  0  0  0  0  0
  -30.5560  -19.4750   19.4460 C   0  0  0  0  0  0  0  0  0  0  0  0
  -30.9600  -20.5980   18.8000 F   0  0  0  0  0  0  0  0  0  0  0  0
  -31.1910  -17.8960   19.0410 S   0  0  0  0  0  0  0  0  0  0  0  0
  -30.8680  -14.7410   19.9980 C   0  0  0  0  0  0  0  0  0  0  0  0
  -30.5720  -12.5300   18.9280 C   0  0  0  0  0  2  0  0  0  0  0  0
  -29.5570  -12.6800   17.7740 C   0  0  0  0  0  2  0  0  0  0  0  0
  -28.1120  -12.5330   18.2890 C   0  0  0  0  0  2  0  0  0  0  0  0
  -27.8340  -13.3850   19.5560 C   0  0  0  0  0  3  0  0  0  0  0  0
  -28.9550  -13.2020   20.6040 C   0  0  0  0  0  2  0  0  0  0  0  0
  -30.2360  -13.5310   19.9570 N   0  0  0  0  0  0  0  0  0  0  0  0
  -31.9780  -14.9140   19.4880 O   0  0  0  0  0  0  0  0  0  0  0  0
  -30.1440  -15.7640   20.5250 N   0  0  0  0  0  0  0  0  0  0  0  0
  -29.3440  -15.4550   21.0580 H   0  0  0  0  0  0  0  0  0  0  0  0
  -25.4880  -13.9670   20.4360 C   0  0  0  0  0  0  0  0  0  0  0  0
  -24.4420  -13.1840   20.8460 C   0  0  0  0  0  0  0  0  0  0  0  0
  -24.8960  -11.8340   20.7410 C   0  0  0  0  0  0  0  0  0  0  0  0
  -26.5140  -13.0930   20.1120 N   0  0  0  0  0  0  0  0  0  0  0  0
  -26.1650  -11.8030   20.3550 N   0  0  0  0  0  0  0  0  0  0  0  0
  -24.1770  -10.5670   20.9320 C   0  0  0  0  0  0  0  0  0  0  0  0
  -24.6110   -9.6060   21.8730 C   0  0  0  0  0  3  0  0  0  0  0  0
  -23.8910   -8.4060   22.0520 C   0  0  0  0  0  3  0  0  0  0  0  0
  -22.7250   -8.1550   21.2910 C   0  0  0  0  0  0  0  0  0  0  0  0
  -22.3110   -9.1060   20.3410 C   0  0  0  0  0  3  0  0  0  0  0  0
  -23.0300  -10.2990   20.1590 C   0  0  0  0  0  3  0  0  0  0  0  0
  -21.9790   -7.0060   21.3790 O   0  0  0  0  0  0  0  0  0  0  0  0
  -21.8590   -6.3140   22.5570 C   0  0  0  0  0  0  0  0  0  0  0  0
  -21.3040   -6.9050   23.7140 C   0  0  0  0  0  3  0  0  0  0  0  0
  -21.1330   -6.1380   24.8830 C   0  0  0  0  0  3  0  0  0  0  0  0
  -21.5100   -4.7810   24.8960 C   0  0  0  0  0  0  0  0  0  0  0  0
  -22.0600   -4.1920   23.7440 C   0  0  0  0  0  3  0  0  0  0  0  0
  -22.2310   -4.9560   22.5770 C   0  0  0  0  0  0  0  0  0  0  0  0
  -22.7410   -4.3780   21.4630 F   0  0  0  0  0  0  0  0  0  0  0  0
  -21.3400   -4.0400   26.0160 F   0  0  0  0  0  0  0  0  0  0  0  0
  -23.0670  -13.6570   21.2250 C   0  0  0  0  0  0  0  0  0  0  0  0
  -22.3910  -12.9310   22.1080 N   0  0  0  0  0  0  0  0  0  0  0  0
  -22.6050  -14.7060   20.7770 O   0  0  0  0  0  0  0  0  0  0  0  0
  -22.7790  -12.0830   22.4930 H   0  0  0  0  0  0  0  0  0  0  0  0
  -21.4700  -13.2270   22.4030 H   0  0  0  0  0  0  0  0  0  0  0  0
  -25.6470  -15.3410   20.2930 N   0  0  0  0  0  0  0  0  0  0  0  0
  -24.8850  -15.9880   20.4670 H   0  0  0  0  0  0  0  0  0  0  0  0
  -26.4680  -15.7910   19.9080 H   0  0  0  0  0  0  0  0  0  0  0  0
  -28.2200  -25.4620   20.4390 C   0  0  0  0  0  3  0  0  0  0  0  0
  -28.8890  -24.3020   20.1690 C   0  0  0  0  0  0  0  0  0  0  0  0
  -29.8640  -24.2810   19.2480 O   0  0  0  0  0  0  0  0  0  0  0  0
  -30.4240  -23.5420   19.4420 H   0  0  0  0  0  0  0  0  0  0  0  0
  -28.4090  -26.7120   19.8490 O   0  0  0  0  0  0  0  0  0  0  0  0
  -24.7380  -31.8900   23.1780 C   0  0  0  0  0  0  0  0  0  0  0  0
  -27.3000  -27.5470   19.8620 C   0  0  0  0  0  0  0  0  0  0  0  0
  -23.5000  -30.5620   21.5030 C   0  0  0  0  0  3  0  0  0  0  0  0
  -24.9230  -29.0940   19.9750 C   0  0  0  0  0  0  0  0  0  0  0  0
  -26.0270  -30.9210   21.2700 C   0  0  0  0  0  2  0  0  0  0  0  0
  -26.0990  -29.5780   20.5640 C   0  0  0  0  0  0  0  0  0  0  0  0
  -27.2950  -28.8150   20.4990 C   0  0  0  0  0  3  0  0  0  0  0  0
  -26.1090  -27.0960   19.2540 C   0  0  0  0  0  3  0  0  0  0  0  0
  -24.9270  -27.8560   19.3120 C   0  0  0  0  0  3  0  0  0  0  0  0
  -23.6800  -29.9500   20.0890 C   0  0  0  0  0  2  0  0  0  0  0  0
  -24.7750  -31.1370   22.0420 N   0  0  0  0  0  0  0  0  0  0  0  0
  -23.6660  -32.1370   23.7500 O   0  0  0  0  0  0  0  0  0  0  0  0
  -22.8660  -29.4980   22.4300 C   0  0  0  0  0  0  0  0  0  0  0  0
  -21.5390  -29.3180   22.3190 N   0  0  0  0  0  0  0  0  0  0  0  0
  -23.5650  -28.8390   23.2050 O   0  0  0  0  0  0  0  0  0  0  0  0
  -21.0370  -29.9050   21.6670 H   0  0  0  0  0  0  0  0  0  0  0  0
  -18.1720  -28.1040   22.8330 C   0  0  0  0  0  0  0  0  0  0  0  0
  -20.7360  -28.3470   23.0610 C   0  0  0  0  0  3  0  0  0  0  0  0
  -20.8220  -26.9440   22.4160 C   0  0  0  0  0  2  0  0  0  0  0  0
  -19.6980  -26.6710   21.4120 C   0  0  0  0  0  2  0  0  0  0  0  0
  -18.3310  -26.7870   22.0930 C   0  0  0  0  0  2  0  0  0  0  0  0
  -19.3020  -28.8450   23.2740 C   0  0  0  0  0  0  0  0  0  0  0  0
  -19.0980  -30.0800   23.9270 C   0  0  0  0  0  3  0  0  0  0  0  0
  -17.7990  -30.5740   24.1440 C   0  0  0  0  0  3  0  0  0  0  0  0
  -16.6840  -29.8300   23.7210 C   0  0  0  0  0  3  0  0  0  0  0  0
  -16.8710  -28.5960   23.0710 C   0  0  0  0  0  3  0  0  0  0  0  0
  -26.0350  -32.4940   23.8000 C   0  0  0  0  0  3  0  0  0  0  0  0
  -26.5720  -31.6740   25.0360 C   0  0  1  0  0  0  0  0  0  0  0  0
  -25.4980  -31.3960   26.1140 C   0  0  0  0  0  1  0  0  0  0  0  0
  -27.1470  -30.3110   24.5800 C   0  0  0  0  0  1  0  0  0  0  0  0
  -27.7350  -32.4410   25.7100 C   0  0  0  0  0  1  0  0  0  0  0  0
  -25.7380  -33.8790   24.1880 N   0  0  0  0  0  0  0  0  0  0  0  0
  -26.0570  -34.9570   23.4580 C   0  0  0  0  0  0  0  0  0  0  0  0
  -26.7030  -34.8880   22.4100 O   0  0  0  0  0  0  0  0  0  0  0  0
  -25.1650  -34.0080   25.0080 H   0  0  0  0  0  0  0  0  0  0  0  0
  -24.3320  -36.7670   23.1910 C   0  0  0  0  0  1  0  0  0  0  0  0
  -25.5820  -36.3300   23.9730 C   0  0  0  0  0  3  0  0  0  0  0  0
  -27.7290  -37.1760   24.8110 C   0  0  0  0  0  1  0  0  0  0  0  0
  -26.6190  -37.3830   23.8850 N   0  0  0  0  0  0  0  0  0  0  0  0
  -26.2180  -38.2980   24.0700 H   0  0  0  0  0  0  0  0  0  0  0  0
  1  4  2  0
  2  5  2  0
  3  2  1  0
  3  1  1  0
  6  3  1  0
  8  7  1  0
  8  1  1  0
  9 21  1  0
  9  7  2  0
 10  8  2  0
 11 10  1  0
 12 10  1  0
 12  9  1  0
 13 21  1  0
 14 19  1  0
 15 16  1  0
 15 14  1  0
 17 16  1  0
 17 26  1  0
 17 18  1  0
 19 13  1  0
 19 18  1  0
 20 13  2  0
 21 22  1  0
 23 24  2  0
 24 43  1  0
 25 24  1  0
 25 28  1  0
 26 27  1  0
 26 23  1  0
 27 25  2  0
 28 29  1  0
 29 30  2  0
 31 34  1  0
 31 30  1  0
 32 31  2  0
 33 32  1  0
 33 28  2  0
 34 35  1  0
 35 40  2  0
 35 36  1  0
 36 37  2  0
 37 38  1  0
 38 42  1  0
 39 38  2  0
 40 39  1  0
 41 40  1  0
 43 44  1  0
 44 47  1  0
 44 46  1  0
 45 43  2  0
 48 23  1  0
 48 49  1  0
 50 48  1  0
 52 51  2  0
 52  2  1  0
 53 54  1  0
 53 52  1  0
 55 57  1  0
 55 51  1  0
 56 67  2  0
 57 62  1  0
 58 66  1  0
 58 68  1  0
 59 65  1  0
 59 61  1  0
 60 66  1  0
 61 60  1  0
 62 61  2  0
 63 64  1  0
 63 57  2  0
 64 59  2  0
 65 58  1  0
 66 56  1  0
 68 70  2  0
 69 68  1  0
 71 69  1  0
 72 81  2  0
 72 77  1  0
 73 69  1  0
 73 77  1  0
 74 73  1  0
 75 76  1  0
 75 74  1  0
 76 72  1  0
 77 78  2  0
 78 79  1  0
 80 79  2  0
 81 80  1  0
 82 56  1  0
 82 87  1  0
 82 83  1  0
 83 86  1  1
 83 84  1  0
 85 83  1  0
 87 90  1  0
 88 92  1  0
 88 87  1  0
 89 88  2  0
 92 91  1  0
 94 92  1  0
 94 95  1  0
 94 93  1  0
M  ISO  4  13 100  21 100  51 101  55 101
M  END
>  <TORSDO>  (41) 
F 19

>  <SCORE>  (41) 
-12.874

>  <name>  (41) 
40

>  <ligand_id>  (41) 
40

>  <original_smiles>  (41) 
[H]OC(C(=O)N([H])C(=O)c1c(F)sc(N([H])C(=O)N2C([H])([H])C([H])([H])C([H])([H])C([H])(n3nc(-c4c([H])c([H])c(Oc5c([H])c([H])c(F)c([H])c5F)c([H])c4[H])c(C(=O)N([H])[H])c3N([H])[H])C2([H])[H])c1[H])=C([H])Oc1c([H])c([H])c2c(c1[H])C([H])([H])N(C(=O)C([H])(N([H])C(=O)C([H])(N([H])C([H])([H])[H])C([H])([H])[H])C(C([H])([H])[H])(C([H])([H])[H])C([H])([H])[H])C([H])(C(=O)N([H])C1([H])c3c([H])c([H])c([H])c([H])c3C([H])([H])C([H])([H])C1([H])[H])C2([H])[H]

>  <smiles>  (41) 
[H]OC(C(=O)N([H])C(=O)c1c(F)sc(N([H])C(=O)N2C([H])([H])C([H])([H])C([H])([H])C([H])(n3nc(-c4c([H])c([H])c(Oc5c([H])c([H])c(F)c([H])c5F)c([H])c4[H])c(C(=O)N([H])[H])c3N([H])[H])C2([H])[H])c1[H])=C([H])Oc1c([H])c([H])c2c(c1[H])C([H])([H])N(C(=O)C([H])(N([H])C(=O)C([H])(N([H])C([H])([H])[H])C([H])([H])[H])C(C([H])([H])[H])(C([H])([H])[H])C([H])([H])[H])C([H])(C(=O)N([H])C1([H])c3c([H])c([H])c([H])c([H])c3C([H])([H])C([H])([H])C1([H])[H])C2([H])[H]

$$$$
41:0:0
     RDKit          3D

 94102  0  0  1  0  0  0  0  0999 V2000
  -28.8730  -23.4320   20.5980 C   0  0  0  0  0  0  0  0  0  0  0  0
  -29.2210  -22.2510   21.1910 N   0  0  0  0  0  0  0  0  0  0  0  0
  -28.5730  -23.5200   19.4050 O   0  0  0  0  0  0  0  0  0  0  0  0
  -29.4590  -22.4100   22.1630 H   0  0  0  0  0  0  0  0  0  0  0  0
  -28.9100  -20.2920   19.6210 C   0  0  0  0  0  3  0  0  0  0  0  0
  -29.2670  -18.8930   19.5720 C   0  0  0  0  0  0  0  0  0  0  0  0
  -29.9760  -18.4150   20.6500 C   0  0  0  0  0  0  0  0  0  0  0  0
  -29.3410  -20.9430   20.7590 C   0  0  0  0  0  0  0  0  0  0  0  0
  -28.9640  -18.1470   18.5340 F   0  0  0  0  0  0  0  0  0  0  0  0
  -30.1650  -19.7560   21.7800 S   0  0  0  0  0  0  0  0  0  0  0  0
  -30.6950  -17.0760   20.9180 C   0  0  0  0  0  2  0  0  0  0  0  0
  -30.7320  -14.6480   20.1710 C   0  0  0  0  0  0  0  0  0  0  0  0
  -30.4100  -12.4330   19.1020 C   0  0  0  0  0  2  0  0  0  0  0  0
  -29.4360  -12.5680   17.9140 C   0  0  0  0  0  2  0  0  0  0  0  0
  -27.9770  -12.4260   18.3910 C   0  0  0  0  0  2  0  0  0  0  0  0
  -27.6640  -13.3010   19.6340 C   0  0  0  0  0  3  0  0  0  0  0  0
  -28.7550  -13.1600   20.7180 C   0  0  0  0  0  2  0  0  0  0  0  0
  -30.0460  -13.4680   20.0900 N   0  0  0  0  0  0  0  0  0  0  0  0
  -31.8810  -14.7490   19.7350 O   0  0  0  0  0  0  0  0  0  0  0  0
  -30.0630  -15.7520   20.6150 N   0  0  0  0  0  0  0  0  0  0  0  0
  -29.1040  -15.6220   20.9000 H   0  0  0  0  0  0  0  0  0  0  0  0
  -25.3040  -13.9110   20.4420 C   0  0  0  0  0  0  0  0  0  0  0  0
  -24.2430  -13.1430   20.8390 C   0  0  0  0  0  0  0  0  0  0  0  0
  -24.6920  -11.7880   20.7780 C   0  0  0  0  0  0  0  0  0  0  0  0
  -26.3320  -13.0250   20.1630 N   0  0  0  0  0  0  0  0  0  0  0  0
  -25.9710  -11.7420   20.4260 N   0  0  0  0  0  0  0  0  0  0  0  0
  -23.9610  -10.5300   20.9780 C   0  0  0  0  0  0  0  0  0  0  0  0
  -24.3990   -9.5600   21.9070 C   0  0  0  0  0  3  0  0  0  0  0  0
  -23.6680   -8.3670   22.0950 C   0  0  0  0  0  3  0  0  0  0  0  0
  -22.4850   -8.1360   21.3550 C   0  0  0  0  0  0  0  0  0  0  0  0
  -22.0660   -9.0940   20.4150 C   0  0  0  0  0  3  0  0  0  0  0  0
  -22.7960  -10.2780   20.2250 C   0  0  0  0  0  3  0  0  0  0  0  0
  -21.7250   -6.9950   21.4520 O   0  0  0  0  0  0  0  0  0  0  0  0
  -21.6640   -6.2680   22.6140 C   0  0  0  0  0  0  0  0  0  0  0  0
  -21.1960   -6.8310   23.8210 C   0  0  0  0  0  3  0  0  0  0  0  0
  -21.0850   -6.0300   24.9760 C   0  0  0  0  0  3  0  0  0  0  0  0
  -21.4290   -4.6660   24.9220 C   0  0  0  0  0  0  0  0  0  0  0  0
  -21.8890   -4.1020   23.7190 C   0  0  0  0  0  3  0  0  0  0  0  0
  -22.0030   -4.9010   22.5680 C   0  0  0  0  0  0  0  0  0  0  0  0
  -22.4270   -4.3470   21.4060 F   0  0  0  0  0  0  0  0  0  0  0  0
  -21.3150   -3.8940   26.0280 F   0  0  0  0  0  0  0  0  0  0  0  0
  -22.8590  -13.6290   21.1610 C   0  0  0  0  0  0  0  0  0  0  0  0
  -22.1530  -12.9290   22.0410 N   0  0  0  0  0  0  0  0  0  0  0  0
  -22.4130  -14.6640   20.6670 O   0  0  0  0  0  0  0  0  0  0  0  0
  -22.5260  -12.0900   22.4610 H   0  0  0  0  0  0  0  0  0  0  0  0
  -21.2270  -13.2360   22.3000 H   0  0  0  0  0  0  0  0  0  0  0  0
  -25.4730  -15.2820   20.2730 N   0  0  0  0  0  0  0  0  0  0  0  0
  -24.7150  -15.9410   20.4120 H   0  0  0  0  0  0  0  0  0  0  0  0
  -26.3090  -15.7160   19.9030 H   0  0  0  0  0  0  0  0  0  0  0  0
  -28.7150  -25.8980   21.3450 C   0  0  0  0  0  3  0  0  0  0  0  0
  -28.9060  -24.5570   21.5750 C   0  0  0  0  0  0  0  0  0  0  0  0
  -29.1480  -24.2230   22.8580 O   0  0  0  0  0  0  0  0  0  0  0  0
  -29.1420  -25.0220   23.3690 H   0  0  0  0  0  0  0  0  0  0  0  0
  -28.4780  -26.6030   20.1760 O   0  0  0  0  0  0  0  0  0  0  0  0
  -24.6420  -31.8910   23.2330 C   0  0  0  0  0  0  0  0  0  0  0  0
  -27.3750  -27.4470   20.1740 C   0  0  0  0  0  0  0  0  0  0  0  0
  -23.4840  -30.4930   21.5560 C   0  0  0  0  0  3  0  0  0  0  0  0
  -24.9820  -28.9790   20.1430 C   0  0  0  0  0  0  0  0  0  0  0  0
  -26.0150  -30.8620   21.4150 C   0  0  0  0  0  2  0  0  0  0  0  0
  -26.1290  -29.4920   20.7660 C   0  0  0  0  0  0  0  0  0  0  0  0
  -27.3310  -28.7340   20.7830 C   0  0  0  0  0  3  0  0  0  0  0  0
  -26.2160  -26.9710   19.5340 C   0  0  0  0  0  3  0  0  0  0  0  0
  -25.0240  -27.7200   19.5200 C   0  0  0  0  0  3  0  0  0  0  0  0
  -23.7300  -29.8300   20.1750 C   0  0  0  0  0  2  0  0  0  0  0  0
  -24.7310  -31.0990   22.1260 N   0  0  0  0  0  0  0  0  0  0  0  0
  -23.5470  -32.1480   23.7530 O   0  0  0  0  0  0  0  0  0  0  0  0
  -22.8210  -29.4580   22.4960 C   0  0  0  0  0  0  0  0  0  0  0  0
  -21.4970  -29.2800   22.3580 N   0  0  0  0  0  0  0  0  0  0  0  0
  -23.4970  -28.8190   23.3060 O   0  0  0  0  0  0  0  0  0  0  0  0
  -21.0100  -29.8500   21.6790 H   0  0  0  0  0  0  0  0  0  0  0  0
  -18.1140  -28.0960   22.8360 C   0  0  0  0  0  0  0  0  0  0  0  0
  -20.6750  -28.3290   23.1070 C   0  0  0  0  0  3  0  0  0  0  0  0
  -20.7650  -26.9110   22.4950 C   0  0  0  0  0  2  0  0  0  0  0  0
  -19.6570  -26.6230   21.4760 C   0  0  0  0  0  2  0  0  0  0  0  0
  -18.2780  -26.7620   22.1270 C   0  0  0  0  0  2  0  0  0  0  0  0
  -19.2390  -28.8390   23.2820 C   0  0  0  0  0  0  0  0  0  0  0  0
  -19.0310  -30.0890   23.9050 C   0  0  0  0  0  3  0  0  0  0  0  0
  -17.7300  -30.5960   24.0870 C   0  0  0  0  0  3  0  0  0  0  0  0
  -16.6200  -29.8490   23.6570 C   0  0  0  0  0  3  0  0  0  0  0  0
  -16.8120  -28.6000   23.0370 C   0  0  0  0  0  3  0  0  0  0  0  0
  -25.9080  -32.5330   23.8820 C   0  0  0  0  0  3  0  0  0  0  0  0
  -26.4030  -31.7640   25.1690 C   0  0  1  0  0  0  0  0  0  0  0  0
  -25.2890  -31.5130   26.2100 C   0  0  0  0  0  1  0  0  0  0  0  0
  -27.0070  -30.3930   24.7860 C   0  0  0  0  0  1  0  0  0  0  0  0
  -27.5300  -32.5670   25.8570 C   0  0  0  0  0  1  0  0  0  0  0  0
  -25.5830  -33.9280   24.2060 N   0  0  0  0  0  0  0  0  0  0  0  0
  -25.9090  -34.9820   23.4470 C   0  0  0  0  0  0  0  0  0  0  0  0
  -26.5890  -34.8820   22.4200 O   0  0  0  0  0  0  0  0  0  0  0  0
  -24.9820  -34.0790   25.0030 H   0  0  0  0  0  0  0  0  0  0  0  0
  -24.1660  -36.7550   23.0740 C   0  0  0  0  0  1  0  0  0  0  0  0
  -25.4050  -36.3660   23.8950 C   0  0  0  0  0  3  0  0  0  0  0  0
  -27.5200  -37.2800   24.7440 C   0  0  0  0  0  1  0  0  0  0  0  0
  -26.4270  -37.4310   23.7880 N   0  0  0  0  0  0  0  0  0  0  0  0
  -26.0090  -38.3470   23.9260 H   0  0  0  0  0  0  0  0  0  0  0  0
  1  2  1  0
  1 51  1  0
  2  4  1  0
  3  1  2  0
  5  8  2  0
  6  5  1  0
  6  7  2  0
  7 11  1  0
  7 10  1  0
  8  2  1  0
  8 10  1  0
  9  6  1  0
 12 20  1  0
 13 18  1  0
 14 15  1  0
 14 13  1  0
 16 15  1  0
 16 25  1  0
 16 17  1  0
 18 12  1  0
 18 17  1  0
 19 12  2  0
 20 21  1  0
 20 11  1  0
 22 23  2  0
 23 42  1  0
 24 23  1  0
 24 27  1  0
 25 26  1  0
 25 22  1  0
 26 24  2  0
 27 28  1  0
 28 29  2  0
 30 33  1  0
 30 29  1  0
 31 30  2  0
 32 31  1  0
 32 27  2  0
 33 34  1  0
 34 35  1  0
 35 36  2  0
 37 36  1  0
 37 41  1  0
 38 37  2  0
 39 34  2  0
 39 38  1  0
 40 39  1  0
 42 43  1  0
 43 46  1  0
 43 45  1  0
 44 42  2  0
 47 48  1  0
 47 22  1  0
 49 47  1  0
 50 51  2  0
 51 52  1  0
 52 53  1  0
 54 50  1  0
 55 66  2  0
 56 54  1  0
 56 61  1  0
 57 65  1  0
 57 67  1  0
 58 64  1  0
 58 60  1  0
 59 65  1  0
 60 61  2  0
 60 59  1  0
 62 56  2  0
 63 62  1  0
 63 58  2  0
 64 57  1  0
 65 55  1  0
 67 69  2  0
 68 67  1  0
 70 68  1  0
 71 80  2  0
 71 76  1  0
 72 68  1  0
 72 76  1  0
 73 72  1  0
 74 75  1  0
 74 73  1  0
 75 71  1  0
 76 77  2  0
 77 78  1  0
 79 78  2  0
 80 79  1  0
 81 55  1  0
 81 86  1  0
 81 82  1  0
 82 85  1  1
 82 83  1  0
 84 82  1  0
 86 89  1  0
 87 91  1  0
 87 86  1  0
 88 87  2  0
 91 90  1  0
 93 91  1  0
 93 94  1  0
 93 92  1  0
M  ISO  4  12 100  20 100  50 101  54 101
M  END
>  <TORSDO>  (42) 
F 20

>  <SCORE>  (42) 
-14.178

>  <name>  (42) 
41

>  <ligand_id>  (42) 
41

>  <original_smiles>  (42) 
[H]OC(C(=O)N([H])c1sc(C([H])([H])N([H])C(=O)N2C([H])([H])C([H])([H])C([H])([H])C([H])(n3nc(-c4c([H])c([H])c(Oc5c([H])c([H])c(F)c([H])c5F)c([H])c4[H])c(C(=O)N([H])[H])c3N([H])[H])C2([H])[H])c(F)c1[H])=C([H])Oc1c([H])c([H])c2c(c1[H])C([H])([H])N(C(=O)C([H])(N([H])C(=O)C([H])(N([H])C([H])([H])[H])C([H])([H])[H])C(C([H])([H])[H])(C([H])([H])[H])C([H])([H])[H])C([H])(C(=O)N([H])C1([H])c3c([H])c([H])c([H])c([H])c3C([H])([H])C([H])([H])C1([H])[H])C2([H])[H]

>  <smiles>  (42) 
[H]OC(C(=O)N([H])c1sc(C([H])([H])N([H])C(=O)N2C([H])([H])C([H])([H])C([H])([H])C([H])(n3nc(-c4c([H])c([H])c(Oc5c([H])c([H])c(F)c([H])c5F)c([H])c4[H])c(C(=O)N([H])[H])c3N([H])[H])C2([H])[H])c(F)c1[H])=C([H])Oc1c([H])c([H])c2c(c1[H])C([H])([H])N(C(=O)C([H])(N([H])C(=O)C([H])(N([H])C([H])([H])[H])C([H])([H])[H])C(C([H])([H])[H])(C([H])([H])[H])C([H])([H])[H])C([H])(C(=O)N([H])C1([H])c3c([H])c([H])c([H])c([H])c3C([H])([H])C([H])([H])C1([H])[H])C2([H])[H]

$$$$
42:0:0
     RDKit          3D

 97105  0  0  1  0  0  0  0  0999 V2000
  -30.4320  -17.5580   21.4750 C   0  0  0  0  0  0  0  0  0  0  0  0
  -30.4230  -17.1100   20.1680 C   0  0  0  0  0  0  0  0  0  0  0  0
  -29.9180  -19.3450   19.8280 C   0  0  0  0  0  0  0  0  0  0  0  0
  -29.3830  -21.7980   19.6370 C   0  0  0  0  0  0  0  0  0  0  0  0
  -30.1150  -18.1370   19.2290 N   0  0  0  0  0  0  0  0  0  0  0  0
  -29.4780  -20.5310   19.1340 N   0  0  0  0  0  0  0  0  0  0  0  0
  -29.8490  -22.1520   20.7250 O   0  0  0  0  0  0  0  0  0  0  0  0
  -30.1560  -19.2740   21.5730 S   0  0  0  0  0  0  0  0  0  0  0  0
  -29.1230  -20.4100   18.1950 H   0  0  0  0  0  0  0  0  0  0  0  0
  -31.1510  -14.8210   19.1330 C   0  0  0  0  0  0  0  0  0  0  0  0
  -30.7820  -12.5890   18.0850 C   0  0  0  0  0  2  0  0  0  0  0  0
  -29.6100  -12.7220   17.0850 C   0  0  0  0  0  2  0  0  0  0  0  0
  -28.2410  -12.5790   17.7880 C   0  0  0  0  0  2  0  0  0  0  0  0
  -28.1410  -13.4660   19.0580 C   0  0  0  0  0  3  0  0  0  0  0  0
  -29.3790  -13.2290   19.9480 C   0  0  0  0  0  2  0  0  0  0  0  0
  -30.5730  -13.5820   19.1520 N   0  0  0  0  0  0  0  0  0  0  0  0
  -32.1280  -15.0930   18.4220 O   0  0  0  0  0  0  0  0  0  0  0  0
  -30.5090  -15.6870   19.9600 N   0  0  0  0  0  0  0  0  0  0  0  0
  -29.8660  -15.1700   20.5410 H   0  0  0  0  0  0  0  0  0  0  0  0
  -26.0530  -14.1580   20.3970 C   0  0  0  0  0  0  0  0  0  0  0  0
  -25.0040  -13.4320   20.8930 C   0  0  0  0  0  0  0  0  0  0  0  0
  -25.2760  -12.0700   20.5580 C   0  0  0  0  0  0  0  0  0  0  0  0
  -26.8990  -13.2390   19.7940 N   0  0  0  0  0  0  0  0  0  0  0  0
  -26.4480  -11.9690   19.9450 N   0  0  0  0  0  0  0  0  0  0  0  0
  -24.4640  -10.8600   20.7370 C   0  0  0  0  0  0  0  0  0  0  0  0
  -24.9210   -9.7690   21.5100 C   0  0  0  0  0  3  0  0  0  0  0  0
  -24.1170   -8.6220   21.6740 C   0  0  0  0  0  3  0  0  0  0  0  0
  -22.8390   -8.5590   21.0720 C   0  0  0  0  0  0  0  0  0  0  0  0
  -22.3980   -9.6370   20.2840 C   0  0  0  0  0  3  0  0  0  0  0  0
  -23.2020  -10.7770   20.1150 C   0  0  0  0  0  3  0  0  0  0  0  0
  -21.9950   -7.4780   21.1610 O   0  0  0  0  0  0  0  0  0  0  0  0
  -21.9320   -6.7080   22.2950 C   0  0  0  0  0  0  0  0  0  0  0  0
  -21.5710   -7.2530   23.5470 C   0  0  0  0  0  3  0  0  0  0  0  0
  -21.4470   -6.4110   24.6720 C   0  0  0  0  0  3  0  0  0  0  0  0
  -21.6760   -5.0290   24.5450 C   0  0  0  0  0  0  0  0  0  0  0  0
  -22.0320   -4.4840   23.2980 C   0  0  0  0  0  3  0  0  0  0  0  0
  -22.1570   -5.3220   22.1760 C   0  0  0  0  0  0  0  0  0  0  0  0
  -22.4810   -4.7890   20.9730 F   0  0  0  0  0  0  0  0  0  0  0  0
  -21.5500   -4.2200   25.6220 F   0  0  0  0  0  0  0  0  0  0  0  0
  -23.7690  -13.9740   21.5540 C   0  0  0  0  0  0  0  0  0  0  0  0
  -23.1810  -13.2170   22.4740 N   0  0  0  0  0  0  0  0  0  0  0  0
  -23.3460  -15.0990   21.2910 O   0  0  0  0  0  0  0  0  0  0  0  0
  -23.5380  -12.3030   22.7090 H   0  0  0  0  0  0  0  0  0  0  0  0
  -22.3600  -13.5600   22.9540 H   0  0  0  0  0  0  0  0  0  0  0  0
  -26.3460  -15.5170   20.3960 N   0  0  0  0  0  0  0  0  0  0  0  0
  -25.7460  -16.1960   20.8520 H   0  0  0  0  0  0  0  0  0  0  0  0
  -27.1470  -15.9360   19.9420 H   0  0  0  0  0  0  0  0  0  0  0  0
  -30.6080  -16.7720   22.7430 C   0  0  1  0  0  0  0  0  0  0  0  0
  -29.6510  -15.8530   22.8720 F   0  0  0  0  0  0  0  0  0  0  0  0
  -31.7770  -16.1340   22.7600 F   0  0  0  0  0  0  0  0  0  0  0  0
  -30.5630  -17.5430   23.8310 F   0  0  0  0  0  0  0  0  0  0  0  0
  -28.6480  -22.8500   18.7190 C   0  0  0  0  0  0  0  0  0  0  0  0
  -28.2150  -22.5340   17.6050 O   0  0  0  0  0  0  0  0  0  0  0  0
  -28.4540  -24.2970   19.2920 C   0  0  0  0  0  2  0  0  0  0  0  0
  -29.1790  -25.7160   17.2390 C   0  0  0  0  0  1  0  0  0  0  0  0
  -28.1010  -25.4800   18.3100 C   0  0  0  0  0  3  0  0  0  0  0  0
  -28.0030  -26.7790   18.9700 O   0  0  0  0  0  0  0  0  0  0  0  0
  -24.4730  -31.5340   22.9880 C   0  0  0  0  0  0  0  0  0  0  0  0
  -26.8100  -27.4740   19.1510 C   0  0  0  0  0  0  0  0  0  0  0  0
  -23.1110  -30.2930   21.3410 C   0  0  0  0  0  3  0  0  0  0  0  0
  -24.4140  -28.9490   19.6050 C   0  0  0  0  0  0  0  0  0  0  0  0
  -25.6010  -30.7170   20.9120 C   0  0  0  0  0  2  0  0  0  0  0  0
  -25.6290  -29.4230   20.1150 C   0  0  0  0  0  0  0  0  0  0  0  0
  -26.8230  -28.6920   19.8850 C   0  0  0  0  0  3  0  0  0  0  0  0
  -25.5650  -27.0200   18.6560 C   0  0  0  0  0  3  0  0  0  0  0  0
  -24.3800  -27.7480   18.8790 C   0  0  0  0  0  3  0  0  0  0  0  0
  -23.1750  -29.7720   19.8810 C   0  0  0  0  0  2  0  0  0  0  0  0
  -24.4200  -30.8570   21.8050 N   0  0  0  0  0  0  0  0  0  0  0  0
  -23.4540  -31.7180   23.6700 O   0  0  0  0  0  0  0  0  0  0  0  0
  -22.5770  -29.1600   22.2470 C   0  0  0  0  0  0  0  0  0  0  0  0
  -21.2660  -28.8830   22.1520 N   0  0  0  0  0  0  0  0  0  0  0  0
  -23.3380  -28.5370   22.9910 O   0  0  0  0  0  0  0  0  0  0  0  0
  -20.7070  -29.4450   21.5260 H   0  0  0  0  0  0  0  0  0  0  0  0
  -18.0420  -27.3070   22.5780 C   0  0  0  0  0  0  0  0  0  0  0  0
  -20.5560  -27.8310   22.8790 C   0  0  0  0  0  3  0  0  0  0  0  0
  -20.8170  -26.4450   22.2450 C   0  0  0  0  0  2  0  0  0  0  0  0
  -19.7600  -26.0470   21.2090 C   0  0  0  0  0  2  0  0  0  0  0  0
  -18.3690  -26.0130   21.8510 C   0  0  0  0  0  2  0  0  0  0  0  0
  -19.0700  -28.1670   23.0480 C   0  0  0  0  0  0  0  0  0  0  0  0
  -18.7140  -29.3730   23.6890 C   0  0  0  0  0  3  0  0  0  0  0  0
  -17.3620  -29.7250   23.8610 C   0  0  0  0  0  3  0  0  0  0  0  0
  -16.3490  -28.8630   23.4080 C   0  0  0  0  0  3  0  0  0  0  0  0
  -16.6890  -27.6550   22.7740 C   0  0  0  0  0  3  0  0  0  0  0  0
  -25.8100  -32.1240   23.5340 C   0  0  0  0  0  3  0  0  0  0  0  0
  -26.4320  -31.2730   24.7070 C   0  0  1  0  0  0  0  0  0  0  0  0
  -25.4370  -30.9760   25.8540 C   0  0  0  0  0  1  0  0  0  0  0  0
  -26.9590  -29.9180   24.1780 C   0  0  0  0  0  1  0  0  0  0  0  0
  -27.6490  -32.0150   25.3070 C   0  0  0  0  0  1  0  0  0  0  0  0
  -25.5380  -33.4970   23.9790 N   0  0  0  0  0  0  0  0  0  0  0  0
  -25.8560  -34.5980   23.2850 C   0  0  0  0  0  0  0  0  0  0  0  0
  -26.4780  -34.5630   22.2200 O   0  0  0  0  0  0  0  0  0  0  0  0
  -24.9680  -33.5990   24.8040 H   0  0  0  0  0  0  0  0  0  0  0  0
  -24.1350  -36.4260   23.1520 C   0  0  0  0  0  1  0  0  0  0  0  0
  -25.4120  -35.9550   23.8650 C   0  0  0  0  0  3  0  0  0  0  0  0
  -27.5960  -36.7520   24.6500 C   0  0  0  0  0  1  0  0  0  0  0  0
  -26.4530  -37.0030   23.7780 N   0  0  0  0  0  0  0  0  0  0  0  0
  -26.0680  -37.9130   24.0200 H   0  0  0  0  0  0  0  0  0  0  0  0
  1  8  1  0
  1 48  1  0
  2  1  2  0
  3  8  1  0
  4  7  2  0
  5  3  2  0
  5  2  1  0
  6  4  1  0
  6  3  1  0
  9  6  1  0
 10 16  1  0
 10 18  1  0
 11 16  1  0
 12 13  1  0
 12 11  1  0
 14 13  1  0
 14 23  1  0
 14 15  1  0
 16 15  1  0
 17 10  2  0
 18  2  1  0
 18 19  1  0
 20 21  2  0
 21 40  1  0
 22 25  1  0
 22 21  1  0
 23 24  1  0
 23 20  1  0
 24 22  2  0
 25 26  1  0
 26 27  2  0
 28 31  1  0
 28 27  1  0
 29 28  2  0
 30 29  1  0
 30 25  2  0
 31 32  1  0
 32 33  1  0
 33 34  2  0
 35 34  1  0
 35 39  1  0
 36 35  2  0
 37 32  2  0
 37 36  1  0
 38 37  1  0
 40 41  1  0
 41 43  1  0
 41 44  1  0
 42 40  2  0
 45 20  1  0
 45 46  1  0
 47 45  1  0
 48 50  1  6
 48 49  1  0
 48 51  1  0
 52 54  1  0
 52  4  1  0
 53 52  2  0
 56 55  1  0
 56 57  1  0
 56 54  1  0
 57 59  1  0
 58 69  2  0
 59 64  1  0
 60 68  1  0
 60 70  1  0
 61 67  1  0
 61 63  1  0
 62 68  1  0
 63 62  1  0
 64 63  2  0
 65 66  1  0
 65 59  2  0
 66 61  2  0
 67 60  1  0
 68 58  1  0
 70 72  2  0
 71 70  1  0
 73 71  1  0
 74 83  2  0
 74 79  1  0
 75 71  1  0
 75 79  1  0
 76 75  1  0
 77 78  1  0
 77 76  1  0
 78 74  1  0
 79 80  2  0
 80 81  1  0
 82 81  2  0
 83 82  1  0
 84 58  1  0
 84 89  1  0
 84 85  1  0
 85 88  1  1
 85 86  1  0
 87 85  1  0
 89 92  1  0
 90 94  1  0
 90 89  1  0
 91 90  2  0
 94 93  1  0
 96 94  1  0
 96 97  1  0
 96 95  1  0
M  ISO  4  10 100  18 100  56 101  57 101
M  END
>  <TORSDO>  (43) 
F 20

>  <SCORE>  (43) 
-8.314

>  <name>  (43) 
42

>  <ligand_id>  (43) 
42

>  <original_smiles>  (43) 
[H]c1c([H])c([H])c2c(c1[H])C([H])([H])C([H])([H])C([H])([H])C2([H])N([H])C(=O)C1([H])N(C(=O)C([H])(N([H])C(=O)C([H])(N([H])C([H])([H])[H])C([H])([H])[H])C(C([H])([H])[H])(C([H])([H])[H])C([H])([H])[H])C([H])([H])c2c([H])c(OC([H])(C([H])([H])[H])C([H])([H])C(=O)C(=O)N([H])c3nc(N([H])C(=O)N4C([H])([H])C([H])([H])C([H])([H])C([H])(n5nc(-c6c([H])c([H])c(Oc7c([H])c([H])c(F)c([H])c7F)c([H])c6[H])c(C(=O)N([H])[H])c5N([H])[H])C4([H])[H])c(C(F)(F)F)s3)c([H])c([H])c2C1([H])[H]

>  <smiles>  (43) 
[H]c1c([H])c([H])c2c(c1[H])C([H])([H])C([H])([H])C([H])([H])C2([H])N([H])C(=O)C1([H])N(C(=O)C([H])(N([H])C(=O)C([H])(N([H])C([H])([H])[H])C([H])([H])[H])C(C([H])([H])[H])(C([H])([H])[H])C([H])([H])[H])C([H])([H])c2c([H])c(OC([H])(C([H])([H])[H])C([H])([H])C(=O)C(=O)N([H])c3nc(N([H])C(=O)N4C([H])([H])C([H])([H])C([H])([H])C([H])(n5nc(-c6c([H])c([H])c(Oc7c([H])c([H])c(F)c([H])c7F)c([H])c6[H])c(C(=O)N([H])[H])c5N([H])[H])C4([H])[H])c(C(F)(F)F)s3)c([H])c([H])c2C1([H])[H]

$$$$
43:0:0
     RDKit          3D

 95103  0  0  1  0  0  0  0  0999 V2000
  -29.8870  -22.0360   20.2750 C   0  0  0  0  0  0  0  0  0  0  0  0
  -29.5670  -20.7350   20.4860 N   0  0  0  0  0  0  0  0  0  0  0  0
  -31.0270  -22.4500   20.0380 O   0  0  0  0  0  0  0  0  0  0  0  0
  -28.5710  -20.5520   20.5260 H   0  0  0  0  0  0  0  0  0  0  0  0
  -31.8010  -19.7600   21.0080 C   0  0  0  0  0  3  0  0  0  0  0  0
  -32.1170  -17.3430   21.0460 C   0  0  0  0  0  3  0  0  0  0  0  0
  -30.4380  -19.6020   20.6560 C   0  0  0  0  0  0  0  0  0  0  0  0
  -30.7610  -17.1400   20.6920 C   0  0  0  0  0  0  0  0  0  0  0  0
  -32.6290  -18.6420   21.2020 C   0  0  0  0  0  0  0  0  0  0  0  0
  -29.9230  -18.2790   20.5240 C   0  0  0  0  0  0  0  0  0  0  0  0
  -33.9270  -18.8160   21.5490 F   0  0  0  0  0  0  0  0  0  0  0  0
  -28.6150  -18.1000   20.2180 F   0  0  0  0  0  0  0  0  0  0  0  0
  -30.8870  -14.7590   19.9880 C   0  0  0  0  0  0  0  0  0  0  0  0
  -30.5430  -12.5590   18.9220 C   0  0  0  0  0  2  0  0  0  0  0  0
  -29.5230  -12.6900   17.7730 C   0  0  0  0  0  2  0  0  0  0  0  0
  -28.0870  -12.5240   18.3060 C   0  0  0  0  0  2  0  0  0  0  0  0
  -27.8060  -13.4050   19.5530 C   0  0  0  0  0  3  0  0  0  0  0  0
  -28.9360  -13.2710   20.5990 C   0  0  0  0  0  2  0  0  0  0  0  0
  -30.2090  -13.5810   19.9280 N   0  0  0  0  0  0  0  0  0  0  0  0
  -31.9790  -14.9150   19.4340 O   0  0  0  0  0  0  0  0  0  0  0  0
  -30.2400  -15.8090   20.5410 N   0  0  0  0  0  0  0  0  0  0  0  0
  -29.2690  -15.6690   20.7770 H   0  0  0  0  0  0  0  0  0  0  0  0
  -25.4830  -13.9820   20.4940 C   0  0  0  0  0  0  0  0  0  0  0  0
  -24.4410  -13.1960   20.9050 C   0  0  0  0  0  0  0  0  0  0  0  0
  -24.8830  -11.8450   20.7600 C   0  0  0  0  0  0  0  0  0  0  0  0
  -26.4960  -13.1100   20.1290 N   0  0  0  0  0  0  0  0  0  0  0  0
  -26.1430  -11.8160   20.3450 N   0  0  0  0  0  0  0  0  0  0  0  0
  -24.1600  -10.5790   20.9380 C   0  0  0  0  0  0  0  0  0  0  0  0
  -24.5720   -9.6200   21.8890 C   0  0  0  0  0  3  0  0  0  0  0  0
  -23.8500   -8.4190   22.0540 C   0  0  0  0  0  3  0  0  0  0  0  0
  -22.7020   -8.1660   21.2660 C   0  0  0  0  0  0  0  0  0  0  0  0
  -22.3110   -9.1140   20.3030 C   0  0  0  0  0  3  0  0  0  0  0  0
  -23.0340  -10.3070   20.1370 C   0  0  0  0  0  3  0  0  0  0  0  0
  -21.9550   -7.0160   21.3380 O   0  0  0  0  0  0  0  0  0  0  0  0
  -21.7880   -6.3400   22.5190 C   0  0  0  0  0  0  0  0  0  0  0  0
  -21.1570   -6.9310   23.6350 C   0  0  0  0  0  3  0  0  0  0  0  0
  -20.9440   -6.1760   24.8070 C   0  0  0  0  0  3  0  0  0  0  0  0
  -21.3520   -4.8310   24.8610 C   0  0  0  0  0  0  0  0  0  0  0  0
  -21.9770   -4.2380   23.7500 C   0  0  0  0  0  3  0  0  0  0  0  0
  -22.1910   -4.9900   22.5810 C   0  0  0  0  0  0  0  0  0  0  0  0
  -22.7740   -4.4080   21.5050 F   0  0  0  0  0  0  0  0  0  0  0  0
  -21.1420   -4.1030   25.9830 F   0  0  0  0  0  0  0  0  0  0  0  0
  -23.0750  -13.6660   21.3190 C   0  0  0  0  0  0  0  0  0  0  0  0
  -22.4030  -12.9130   22.1830 N   0  0  0  0  0  0  0  0  0  0  0  0
  -22.6170  -14.7330   20.9130 O   0  0  0  0  0  0  0  0  0  0  0  0
  -22.7890  -12.0480   22.5330 H   0  0  0  0  0  0  0  0  0  0  0  0
  -21.4910  -13.2070   22.5010 H   0  0  0  0  0  0  0  0  0  0  0  0
  -25.6480  -15.3600   20.3820 N   0  0  0  0  0  0  0  0  0  0  0  0
  -24.9000  -16.0120   20.5920 H   0  0  0  0  0  0  0  0  0  0  0  0
  -26.4740  -15.8140   20.0110 H   0  0  0  0  0  0  0  0  0  0  0  0
  -28.6560  -23.0000   20.3250 C   0  0  0  0  0  0  0  0  0  0  0  0
  -27.5550  -22.6100   20.7370 O   0  0  0  0  0  0  0  0  0  0  0  0
  -28.8520  -24.4550   19.8210 C   0  0  0  0  0  2  0  0  0  0  0  0
  -27.8410  -25.4820   20.4020 C   0  0  0  0  0  2  0  0  0  0  0  0
  -28.0380  -26.8440   19.9450 O   0  0  0  0  0  0  0  0  0  0  0  0
  -24.5190  -32.0400   23.3590 C   0  0  0  0  0  0  0  0  0  0  0  0
  -26.9130  -27.6470   20.0020 C   0  0  0  0  0  0  0  0  0  0  0  0
  -23.2110  -30.7330   21.7180 C   0  0  0  0  0  3  0  0  0  0  0  0
  -24.5660  -29.2260   20.1690 C   0  0  0  0  0  0  0  0  0  0  0  0
  -25.7380  -31.0370   21.4270 C   0  0  0  0  0  2  0  0  0  0  0  0
  -25.7630  -29.6920   20.7280 C   0  0  0  0  0  0  0  0  0  0  0  0
  -26.9420  -28.9110   20.6400 C   0  0  0  0  0  3  0  0  0  0  0  0
  -25.7020  -27.2150   19.4150 C   0  0  0  0  0  3  0  0  0  0  0  0
  -24.5320  -27.9870   19.5080 C   0  0  0  0  0  3  0  0  0  0  0  0
  -23.3460  -30.1100   20.3040 C   0  0  0  0  0  2  0  0  0  0  0  0
  -24.5110  -31.2820   22.2250 N   0  0  0  0  0  0  0  0  0  0  0  0
  -23.4690  -32.3150   23.9550 O   0  0  0  0  0  0  0  0  0  0  0  0
  -22.5770  -29.6880   22.6630 C   0  0  0  0  0  0  0  0  0  0  0  0
  -21.2570  -29.4810   22.5300 N   0  0  0  0  0  0  0  0  0  0  0  0
  -23.2700  -29.0660   23.4730 O   0  0  0  0  0  0  0  0  0  0  0  0
  -20.7580  -30.0360   21.8480 H   0  0  0  0  0  0  0  0  0  0  0  0
  -17.9180  -28.1610   22.9460 C   0  0  0  0  0  0  0  0  0  0  0  0
  -20.4560  -28.5200   23.2870 C   0  0  0  0  0  3  0  0  0  0  0  0
  -20.6300  -27.0880   22.7280 C   0  0  0  0  0  2  0  0  0  0  0  0
  -19.5700  -26.7150   21.6870 C   0  0  0  0  0  2  0  0  0  0  0  0
  -18.1660  -26.8130   22.2910 C   0  0  0  0  0  2  0  0  0  0  0  0
  -18.9950  -28.9690   23.4000 C   0  0  0  0  0  0  0  0  0  0  0  0
  -18.7110  -30.2290   23.9700 C   0  0  0  0  0  3  0  0  0  0  0  0
  -17.3850  -30.6820   24.0930 C   0  0  0  0  0  3  0  0  0  0  0  0
  -16.3220  -29.8710   23.6570 C   0  0  0  0  0  3  0  0  0  0  0  0
  -16.5890  -28.6120   23.0890 C   0  0  0  0  0  3  0  0  0  0  0  0
  -25.8440  -32.6170   23.9460 C   0  0  0  0  0  3  0  0  0  0  0  0
  -26.3700  -31.8160   25.1990 C   0  0  1  0  0  0  0  0  0  0  0  0
  -25.2910  -31.5770   26.2820 C   0  0  0  0  0  1  0  0  0  0  0  0
  -26.9230  -30.4370   24.7720 C   0  0  0  0  0  1  0  0  0  0  0  0
  -27.5450  -32.5800   25.8550 C   0  0  0  0  0  1  0  0  0  0  0  0
  -25.5980  -34.0230   24.2950 N   0  0  0  0  0  0  0  0  0  0  0  0
  -25.9710  -35.0690   23.5440 C   0  0  0  0  0  0  0  0  0  0  0  0
  -26.6290  -34.9470   22.5070 O   0  0  0  0  0  0  0  0  0  0  0  0
  -25.0160  -34.1940   25.1010 H   0  0  0  0  0  0  0  0  0  0  0  0
  -24.3290  -36.9430   23.2080 C   0  0  0  0  0  1  0  0  0  0  0  0
  -25.5460  -36.4710   24.0200 C   0  0  0  0  0  3  0  0  0  0  0  0
  -27.7120  -37.2460   24.8770 C   0  0  0  0  0  1  0  0  0  0  0  0
  -26.6270  -37.4760   23.9270 N   0  0  0  0  0  0  0  0  0  0  0  0
  -26.2630  -38.4130   24.0820 H   0  0  0  0  0  0  0  0  0  0  0  0
  1 51  1  0
  1  2  1  0
  2  4  1  0
  2  7  1  0
  3  1  2  0
  5  9  1  0
  6  9  2  0
  7  5  2  0
  8  6  1  0
  9 11  1  0
 10  7  1  0
 10  8  2  0
 12 10  1  0
 13 21  1  0
 14 19  1  0
 15 16  1  0
 15 14  1  0
 17 16  1  0
 17 26  1  0
 17 18  1  0
 19 13  1  0
 19 18  1  0
 20 13  2  0
 21  8  1  0
 21 22  1  0
 23 24  2  0
 24 43  1  0
 25 24  1  0
 25 28  1  0
 26 27  1  0
 26 23  1  0
 27 25  2  0
 28 29  1  0
 29 30  2  0
 31 34  1  0
 31 30  1  0
 32 31  2  0
 33 32  1  0
 33 28  2  0
 34 35  1  0
 35 40  2  0
 35 36  1  0
 36 37  2  0
 37 38  1  0
 38 42  1  0
 39 38  2  0
 40 39  1  0
 41 40  1  0
 43 44  1  0
 44 47  1  0
 44 46  1  0
 45 43  2  0
 48 23  1  0
 48 49  1  0
 50 48  1  0
 51 52  2  0
 53 51  1  0
 53 54  1  0
 55 57  1  0
 55 54  1  0
 56 67  2  0
 57 62  1  0
 58 66  1  0
 58 68  1  0
 59 65  1  0
 59 61  1  0
 60 66  1  0
 61 60  1  0
 62 61  2  0
 63 64  1  0
 63 57  2  0
 64 59  2  0
 65 58  1  0
 66 56  1  0
 68 70  2  0
 69 68  1  0
 71 69  1  0
 72 81  2  0
 72 77  1  0
 73 69  1  0
 73 77  1  0
 74 73  1  0
 75 76  1  0
 75 74  1  0
 76 72  1  0
 77 78  2  0
 78 79  1  0
 80 79  2  0
 81 80  1  0
 82 56  1  0
 82 87  1  0
 82 83  1  0
 83 86  1  1
 83 84  1  0
 85 83  1  0
 87 90  1  0
 88 92  1  0
 88 87  1  0
 89 88  2  0
 92 91  1  0
 94 92  1  0
 94 95  1  0
 94 93  1  0
M  ISO  4  13 100  21 100  54 101  55 101
M  END
>  <TORSDO>  (44) 
F 20

>  <SCORE>  (44) 
-13.343

>  <name>  (44) 
43

>  <ligand_id>  (44) 
43

>  <original_smiles>  (44) 
[H]c1c([H])c([H])c2c(c1[H])C([H])([H])C([H])([H])C([H])([H])C2([H])N([H])C(=O)C1([H])N(C(=O)C([H])(N([H])C(=O)C([H])(N([H])C([H])([H])[H])C([H])([H])[H])C(C([H])([H])[H])(C([H])([H])[H])C([H])([H])[H])C([H])([H])c2c([H])c(OC([H])([H])C([H])([H])C(=O)C(=O)N([H])c3c([H])c(F)c([H])c(N([H])C(=O)N4C([H])([H])C([H])([H])C([H])([H])C([H])(n5nc(-c6c([H])c([H])c(Oc7c([H])c([H])c(F)c([H])c7F)c([H])c6[H])c(C(=O)N([H])[H])c5N([H])[H])C4([H])[H])c3F)c([H])c([H])c2C1([H])[H]

>  <smiles>  (44) 
[H]c1c([H])c([H])c2c(c1[H])C([H])([H])C([H])([H])C([H])([H])C2([H])N([H])C(=O)C1([H])N(C(=O)C([H])(N([H])C(=O)C([H])(N([H])C([H])([H])[H])C([H])([H])[H])C(C([H])([H])[H])(C([H])([H])[H])C([H])([H])[H])C([H])([H])c2c([H])c(OC([H])([H])C([H])([H])C(=O)C(=O)N([H])c3c([H])c(F)c([H])c(N([H])C(=O)N4C([H])([H])C([H])([H])C([H])([H])C([H])(n5nc(-c6c([H])c([H])c(Oc7c([H])c([H])c(F)c([H])c7F)c([H])c6[H])c(C(=O)N([H])[H])c5N([H])[H])C4([H])[H])c3F)c([H])c([H])c2C1([H])[H]

$$$$
44:0:0
     RDKit          3D

 96104  0  0  1  0  0  0  0  0999 V2000
  -29.2370  -23.1360   20.8070 C   0  0  0  0  0  0  0  0  0  0  0  0
  -28.3270  -24.1600   20.7440 C   0  0  0  0  0  0  0  0  0  0  0  0
  -28.9110  -21.7210   20.4840 C   0  0  0  0  0  0  0  0  0  0  0  0
  -30.0000  -20.9230   20.5390 N   0  0  0  0  0  0  0  0  0  0  0  0
  -27.7900  -21.2980   20.1900 O   0  0  0  0  0  0  0  0  0  0  0  0
  -30.8400  -21.4630   20.7060 H   0  0  0  0  0  0  0  0  0  0  0  0
  -31.3070  -17.6040   19.7370 C   0  0  0  0  0  3  0  0  0  0  0  0
  -31.2890  -19.0350   19.7360 C   0  0  0  0  0  0  0  0  0  0  0  0
  -30.2260  -16.9970   20.3410 C   0  0  0  0  0  0  0  0  0  0  0  0
  -30.1740  -19.5790   20.3280 C   0  0  0  0  0  0  0  0  0  0  0  0
  -32.3940  -19.8590   19.1410 C   0  0  0  0  0  1  0  0  0  0  0  0
  -29.1090  -18.2700   20.8560 S   0  0  0  0  0  0  0  0  0  0  0  0
  -30.7060  -14.5810   20.1350 C   0  0  0  0  0  0  0  0  0  0  0  0
  -30.3850  -12.4180   19.0000 C   0  0  0  0  0  2  0  0  0  0  0  0
  -29.4010  -12.6420   17.8320 C   0  0  0  0  0  2  0  0  0  0  0  0
  -27.9440  -12.4900   18.3130 C   0  0  0  0  0  2  0  0  0  0  0  0
  -27.6490  -13.2980   19.6060 C   0  0  0  0  0  3  0  0  0  0  0  0
  -28.7490  -13.0750   20.6680 C   0  0  0  0  0  2  0  0  0  0  0  0
  -30.0440  -13.3940   20.0490 N   0  0  0  0  0  0  0  0  0  0  0  0
  -31.8610  -14.7040   19.7160 O   0  0  0  0  0  0  0  0  0  0  0  0
  -29.9650  -15.6550   20.5240 N   0  0  0  0  0  0  0  0  0  0  0  0
  -29.0520  -15.4280   20.8910 H   0  0  0  0  0  0  0  0  0  0  0  0
  -25.2780  -13.8790   20.4110 C   0  0  0  0  0  0  0  0  0  0  0  0
  -24.2280  -13.0970   20.8100 C   0  0  0  0  0  0  0  0  0  0  0  0
  -24.6960  -11.7480   20.7480 C   0  0  0  0  0  0  0  0  0  0  0  0
  -26.3180  -13.0070   20.1320 N   0  0  0  0  0  0  0  0  0  0  0  0
  -25.9740  -11.7200   20.3930 N   0  0  0  0  0  0  0  0  0  0  0  0
  -23.9820  -10.4800   20.9490 C   0  0  0  0  0  0  0  0  0  0  0  0
  -24.4290   -9.5210   21.8850 C   0  0  0  0  0  3  0  0  0  0  0  0
  -23.7160   -8.3170   22.0710 C   0  0  0  0  0  3  0  0  0  0  0  0
  -22.5440   -8.0620   21.3220 C   0  0  0  0  0  0  0  0  0  0  0  0
  -22.1150   -9.0100   20.3760 C   0  0  0  0  0  3  0  0  0  0  0  0
  -22.8280  -10.2070   20.1880 C   0  0  0  0  0  3  0  0  0  0  0  0
  -21.8010   -6.9100   21.4190 O   0  0  0  0  0  0  0  0  0  0  0  0
  -21.7380   -6.1900   22.5860 C   0  0  0  0  0  0  0  0  0  0  0  0
  -21.2590   -6.7570   23.7860 C   0  0  0  0  0  3  0  0  0  0  0  0
  -21.1450   -5.9630   24.9450 C   0  0  0  0  0  3  0  0  0  0  0  0
  -21.5020   -4.6010   24.9030 C   0  0  0  0  0  0  0  0  0  0  0  0
  -21.9740   -4.0330   23.7060 C   0  0  0  0  0  3  0  0  0  0  0  0
  -22.0890   -4.8250   22.5510 C   0  0  0  0  0  0  0  0  0  0  0  0
  -22.5250   -4.2690   21.3960 F   0  0  0  0  0  0  0  0  0  0  0  0
  -21.3850   -3.8360   26.0120 F   0  0  0  0  0  0  0  0  0  0  0  0
  -22.8390  -13.5630   21.1360 C   0  0  0  0  0  0  0  0  0  0  0  0
  -22.1420  -12.8540   22.0170 N   0  0  0  0  0  0  0  0  0  0  0  0
  -22.3790  -14.5940   20.6450 O   0  0  0  0  0  0  0  0  0  0  0  0
  -22.5250  -12.0210   22.4400 H   0  0  0  0  0  0  0  0  0  0  0  0
  -21.2110  -13.1500   22.2740 H   0  0  0  0  0  0  0  0  0  0  0  0
  -25.4300  -15.2530   20.2430 N   0  0  0  0  0  0  0  0  0  0  0  0
  -24.6620  -15.9000   20.3790 H   0  0  0  0  0  0  0  0  0  0  0  0
  -26.2570  -15.6950   19.8620 H   0  0  0  0  0  0  0  0  0  0  0  0
  -30.4940  -23.4050   21.2020 O   0  0  0  0  0  0  0  0  0  0  0  0
  -30.5530  -24.3350   21.3630 H   0  0  0  0  0  0  0  0  0  0  0  0
  -27.0590  -23.9940   20.3350 O   0  0  0  0  0  0  0  0  0  0  0  0
  -26.9510  -23.0720   20.1210 H   0  0  0  0  0  0  0  0  0  0  0  0
  -28.5370  -25.6360   21.1800 C   0  0  0  0  0  2  0  0  0  0  0  0
  -28.4250  -26.6460   20.1500 O   0  0  0  0  0  0  0  0  0  0  0  0
  -24.6150  -31.8850   23.2420 C   0  0  0  0  0  0  0  0  0  0  0  0
  -27.2830  -27.4240   20.1830 C   0  0  0  0  0  0  0  0  0  0  0  0
  -23.4270  -30.4830   21.5870 C   0  0  0  0  0  3  0  0  0  0  0  0
  -24.8950  -28.9490   20.1700 C   0  0  0  0  0  0  0  0  0  0  0  0
  -25.9560  -30.8390   21.4140 C   0  0  0  0  0  2  0  0  0  0  0  0
  -26.0490  -29.4660   20.7750 C   0  0  0  0  0  0  0  0  0  0  0  0
  -27.2500  -28.7090   20.7800 C   0  0  0  0  0  3  0  0  0  0  0  0
  -26.1170  -26.9370   19.5610 C   0  0  0  0  0  3  0  0  0  0  0  0
  -24.9250  -27.6830   19.5610 C   0  0  0  0  0  3  0  0  0  0  0  0
  -23.6500  -29.8090   20.2070 C   0  0  0  0  0  2  0  0  0  0  0  0
  -24.6840  -31.0850   22.1390 N   0  0  0  0  0  0  0  0  0  0  0  0
  -23.5290  -32.1520   23.7760 O   0  0  0  0  0  0  0  0  0  0  0  0
  -22.7700  -29.4570   22.5400 C   0  0  0  0  0  0  0  0  0  0  0  0
  -21.4460  -29.2750   22.4070 N   0  0  0  0  0  0  0  0  0  0  0  0
  -23.4490  -28.8280   23.3550 O   0  0  0  0  0  0  0  0  0  0  0  0
  -20.9580  -29.8360   21.7240 H   0  0  0  0  0  0  0  0  0  0  0  0
  -18.0650  -28.1010   22.9090 C   0  0  0  0  0  0  0  0  0  0  0  0
  -20.6260  -28.3350   23.1710 C   0  0  0  0  0  3  0  0  0  0  0  0
  -20.7130  -26.9100   22.5750 C   0  0  0  0  0  2  0  0  0  0  0  0
  -19.6020  -26.6110   21.5620 C   0  0  0  0  0  2  0  0  0  0  0  0
  -18.2260  -26.7590   22.2160 C   0  0  0  0  0  2  0  0  0  0  0  0
  -19.1920  -28.8480   23.3440 C   0  0  0  0  0  0  0  0  0  0  0  0
  -18.9860  -30.1040   23.9520 C   0  0  0  0  0  3  0  0  0  0  0  0
  -17.6870  -30.6140   24.1320 C   0  0  0  0  0  3  0  0  0  0  0  0
  -16.5740  -29.8640   23.7150 C   0  0  0  0  0  3  0  0  0  0  0  0
  -16.7630  -28.6090   23.1090 C   0  0  0  0  0  3  0  0  0  0  0  0
  -25.8940  -32.5170   23.8720 C   0  0  0  0  0  3  0  0  0  0  0  0
  -25.5820  -33.9140   24.1970 N   0  0  0  0  0  0  0  0  0  0  0  0
  -25.9190  -34.9660   23.4370 C   0  0  0  0  0  0  0  0  0  0  0  0
  -26.5960  -34.8600   22.4100 O   0  0  0  0  0  0  0  0  0  0  0  0
  -24.9830  -34.0710   24.9940 H   0  0  0  0  0  0  0  0  0  0  0  0
  -24.1950  -36.7580   23.0570 C   0  0  0  0  0  1  0  0  0  0  0  0
  -25.4250  -36.3550   23.8860 C   0  0  0  0  0  3  0  0  0  0  0  0
  -27.5490  -37.2420   24.7420 C   0  0  0  0  0  1  0  0  0  0  0  0
  -26.4590  -37.4080   23.7850 N   0  0  0  0  0  0  0  0  0  0  0  0
  -26.0510  -38.3280   23.9260 H   0  0  0  0  0  0  0  0  0  0  0  0
  -26.4030  -31.7460   25.1530 C   0  0  1  0  0  0  0  0  0  0  0  0
  -25.3020  -31.5080   26.2120 C   0  0  0  0  0  1  0  0  0  0  0  0
  -26.9910  -30.3690   24.7650 C   0  0  0  0  0  1  0  0  0  0  0  0
  -27.5470  -32.5420   25.8240 C   0  0  0  0  0  1  0  0  0  0  0  0
  1 51  1  0
  2  1  2  0
  2 55  1  0
  3  4  1  0
  3  1  1  0
  4  6  1  0
  5  3  2  0
  7  9  2  0
  8  7  1  0
  8 10  2  0
  9 21  1  0
  9 12  1  0
 10  4  1  0
 10 12  1  0
 11  8  1  0
 13 21  1  0
 14 19  1  0
 15 16  1  0
 15 14  1  0
 17 16  1  0
 17 26  1  0
 17 18  1  0
 19 13  1  0
 19 18  1  0
 20 13  2  0
 21 22  1  0
 23 24  2  0
 24 43  1  0
 25 24  1  0
 25 28  1  0
 26 27  1  0
 26 23  1  0
 27 25  2  0
 28 29  1  0
 29 30  2  0
 31 34  1  0
 31 30  1  0
 32 31  2  0
 33 32  1  0
 33 28  2  0
 34 35  1  0
 35 36  1  0
 36 37  2  0
 38 37  1  0
 38 42  1  0
 39 38  2  0
 40 35  2  0
 40 39  1  0
 41 40  1  0
 43 44  1  0
 44 47  1  0
 44 46  1  0
 45 43  2  0
 48 49  1  0
 48 23  1  0
 50 48  1  0
 51 52  1  0
 53  2  1  0
 54 53  1  0
 56 58  1  0
 56 55  1  0
 57 68  2  0
 58 63  1  0
 59 67  1  0
 59 69  1  0
 60 66  1  0
 60 62  1  0
 61 67  1  0
 62 63  2  0
 62 61  1  0
 64 65  1  0
 64 58  2  0
 65 60  2  0
 66 59  1  0
 67 57  1  0
 69 71  2  0
 70 69  1  0
 72 70  1  0
 73 82  2  0
 73 78  1  0
 74 70  1  0
 74 78  1  0
 75 74  1  0
 76 77  1  0
 76 75  1  0
 77 73  1  0
 78 79  2  0
 79 80  1  0
 81 80  2  0
 82 81  1  0
 83 57  1  0
 83 84  1  0
 83 93  1  0
 84 87  1  0
 85 89  1  0
 85 84  1  0
 86 85  2  0
 89 88  1  0
 91 89  1  0
 91 92  1  0
 91 90  1  0
 93 96  1  1
 93 94  1  0
 95 93  1  0
M  ISO  4  13 100  21 100  55 101  56 101
M  END
>  <TORSDO>  (45) 
F 21

>  <SCORE>  (45) 
-13.822

>  <name>  (45) 
44

>  <ligand_id>  (45) 
44

>  <original_smiles>  (45) 
[H]OC(C(=O)N([H])c1sc(N([H])C(=O)N2C([H])([H])C([H])([H])C([H])([H])C([H])(n3nc(-c4c([H])c([H])c(Oc5c([H])c([H])c(F)c([H])c5F)c([H])c4[H])c(C(=O)N([H])[H])c3N([H])[H])C2([H])[H])c([H])c1C([H])([H])[H])=C(O[H])C([H])([H])Oc1c([H])c([H])c2c(c1[H])C([H])([H])N(C(=O)C([H])(N([H])C(=O)C([H])(N([H])C([H])([H])[H])C([H])([H])[H])C(C([H])([H])[H])(C([H])([H])[H])C([H])([H])[H])C([H])(C(=O)N([H])C1([H])c3c([H])c([H])c([H])c([H])c3C([H])([H])C([H])([H])C1([H])[H])C2([H])[H]

>  <smiles>  (45) 
[H]OC(C(=O)N([H])c1sc(N([H])C(=O)N2C([H])([H])C([H])([H])C([H])([H])C([H])(n3nc(-c4c([H])c([H])c(Oc5c([H])c([H])c(F)c([H])c5F)c([H])c4[H])c(C(=O)N([H])[H])c3N([H])[H])C2([H])[H])c([H])c1C([H])([H])[H])=C(O[H])C([H])([H])Oc1c([H])c([H])c2c(c1[H])C([H])([H])N(C(=O)C([H])(N([H])C(=O)C([H])(N([H])C([H])([H])[H])C([H])([H])[H])C(C([H])([H])[H])(C([H])([H])[H])C([H])([H])[H])C([H])(C(=O)N([H])C1([H])c3c([H])c([H])c([H])c([H])c3C([H])([H])C([H])([H])C1([H])[H])C2([H])[H]

$$$$
45:0:0
     RDKit          3D

 94102  0  0  1  0  0  0  0  0999 V2000
  -30.2780  -18.5510   17.9450 C   0  0  0  0  0  3  0  0  0  0  0  0
  -29.8020  -19.7430   18.5140 C   0  0  0  0  0  0  0  0  0  0  0  0
  -30.3010  -17.3530   18.6750 C   0  0  0  0  0  0  0  0  0  0  0  0
  -29.4010  -19.7730   19.8740 C   0  0  0  0  0  0  0  0  0  0  0  0
  -29.8670  -17.3330   20.0230 C   0  0  0  0  0  0  0  0  0  0  0  0
  -29.2660  -22.3950   20.1050 C   0  0  0  0  0  0  0  0  0  0  0  0
  -29.4120  -18.5490   20.5750 N   0  0  0  0  0  0  0  0  0  0  0  0
  -28.8850  -21.0800   20.3890 N   0  0  0  0  0  0  0  0  0  0  0  0
  -30.3640  -22.6150   19.5890 O   0  0  0  0  0  0  0  0  0  0  0  0
  -29.6840  -20.8260   17.7070 F   0  0  0  0  0  0  0  0  0  0  0  0
  -30.6740  -16.2230   18.0270 F   0  0  0  0  0  0  0  0  0  0  0  0
  -28.1040  -20.9960   21.0220 H   0  0  0  0  0  0  0  0  0  0  0  0
  -30.6070  -14.8600   20.5040 C   0  0  0  0  0  0  0  0  0  0  0  0
  -30.4970  -12.5570   19.5540 C   0  0  0  0  0  2  0  0  0  0  0  0
  -29.6060  -12.5870   18.2930 C   0  0  0  0  0  2  0  0  0  0  0  0
  -28.1220  -12.4000   18.6660 C   0  0  0  0  0  2  0  0  0  0  0  0
  -27.6850  -13.2980   19.8540 C   0  0  0  0  0  3  0  0  0  0  0  0
  -28.6990  -13.2500   21.0180 C   0  0  0  0  0  2  0  0  0  0  0  0
  -30.0120  -13.6160   20.4720 N   0  0  0  0  0  0  0  0  0  0  0  0
  -31.8140  -14.9510   20.2510 O   0  0  0  0  0  0  0  0  0  0  0  0
  -29.8060  -15.9910   20.6740 N   0  0  0  0  0  0  0  0  0  0  0  0
  -28.9250  -15.8010   21.1190 H   0  0  0  0  0  0  0  0  0  0  0  0
  -25.2650  -13.8650   20.4850 C   0  0  0  0  0  0  0  0  0  0  0  0
  -24.1950  -13.0820   20.8280 C   0  0  0  0  0  0  0  0  0  0  0  0
  -24.6780  -11.7380   20.8340 C   0  0  0  0  0  0  0  0  0  0  0  0
  -26.3270  -12.9980   20.2980 N   0  0  0  0  0  0  0  0  0  0  0  0
  -25.9800  -11.7140   20.5730 N   0  0  0  0  0  0  0  0  0  0  0  0
  -23.9600  -10.4690   21.0160 C   0  0  0  0  0  0  0  0  0  0  0  0
  -24.3650   -9.5240   21.9860 C   0  0  0  0  0  3  0  0  0  0  0  0
  -23.6480   -8.3200   22.1550 C   0  0  0  0  0  3  0  0  0  0  0  0
  -22.5130   -8.0510   21.3550 C   0  0  0  0  0  0  0  0  0  0  0  0
  -22.1280   -8.9840   20.3760 C   0  0  0  0  0  3  0  0  0  0  0  0
  -22.8460  -10.1810   20.2050 C   0  0  0  0  0  3  0  0  0  0  0  0
  -21.7710   -6.8980   21.4300 O   0  0  0  0  0  0  0  0  0  0  0  0
  -21.6720   -6.1790   22.5940 C   0  0  0  0  0  0  0  0  0  0  0  0
  -21.1550   -6.7480   23.7780 C   0  0  0  0  0  3  0  0  0  0  0  0
  -21.0060   -5.9560   24.9340 C   0  0  0  0  0  3  0  0  0  0  0  0
  -21.3640   -4.5940   24.9050 C   0  0  0  0  0  0  0  0  0  0  0  0
  -21.8750   -4.0250   23.7250 C   0  0  0  0  0  3  0  0  0  0  0  0
  -22.0240   -4.8150   22.5730 C   0  0  0  0  0  0  0  0  0  0  0  0
  -22.4950   -4.2560   21.4320 F   0  0  0  0  0  0  0  0  0  0  0  0
  -21.2150   -3.8310   26.0130 F   0  0  0  0  0  0  0  0  0  0  0  0
  -22.7830  -13.5450   21.0380 C   0  0  0  0  0  0  0  0  0  0  0  0
  -22.0290  -12.8500   21.8830 N   0  0  0  0  0  0  0  0  0  0  0  0
  -22.3540  -14.5590   20.4890 O   0  0  0  0  0  0  0  0  0  0  0  0
  -22.3870  -12.0320   22.3530 H   0  0  0  0  0  0  0  0  0  0  0  0
  -21.0800  -13.1440   22.0640 H   0  0  0  0  0  0  0  0  0  0  0  0
  -25.4140  -15.2360   20.2920 N   0  0  0  0  0  0  0  0  0  0  0  0
  -24.6300  -15.8750   20.3680 H   0  0  0  0  0  0  0  0  0  0  0  0
  -26.2530  -15.6820   19.9460 H   0  0  0  0  0  0  0  0  0  0  0  0
  -28.4050  -23.7010   20.5100 C   0  0  0  0  0  2  0  0  0  0  0  0
  -28.3730  -25.0420   18.2400 C   0  0  0  0  0  1  0  0  0  0  0  0
  -28.6720  -25.1250   19.7480 C   0  0  0  0  0  3  0  0  0  0  0  0
  -28.4190  -26.5090   20.3080 O   0  0  0  0  0  0  0  0  0  0  0  0
  -24.6130  -31.9160   23.2520 C   0  0  0  0  0  0  0  0  0  0  0  0
  -27.2640  -27.3230   20.2190 C   0  0  0  0  0  0  0  0  0  0  0  0
  -23.4250  -30.5050   21.6100 C   0  0  0  0  0  3  0  0  0  0  0  0
  -24.8890  -28.9480   20.1960 C   0  0  0  0  0  0  0  0  0  0  0  0
  -25.9640  -30.8300   21.4350 C   0  0  0  0  0  2  0  0  0  0  0  0
  -26.0540  -29.4440   20.7910 C   0  0  0  0  0  0  0  0  0  0  0  0
  -27.2380  -28.6440   20.7880 C   0  0  0  0  0  3  0  0  0  0  0  0
  -26.0650  -26.8810   19.6220 C   0  0  0  0  0  3  0  0  0  0  0  0
  -24.8990  -27.6740   19.6030 C   0  0  0  0  0  3  0  0  0  0  0  0
  -23.6500  -29.8220   20.2340 C   0  0  0  0  0  2  0  0  0  0  0  0
  -24.6870  -31.1040   22.1550 N   0  0  0  0  0  0  0  0  0  0  0  0
  -23.5260  -32.1890   23.7820 O   0  0  0  0  0  0  0  0  0  0  0  0
  -22.7620  -29.4920   22.5740 C   0  0  0  0  0  0  0  0  0  0  0  0
  -21.4370  -29.3070   22.4440 N   0  0  0  0  0  0  0  0  0  0  0  0
  -23.4400  -28.8740   23.3980 O   0  0  0  0  0  0  0  0  0  0  0  0
  -20.9490  -29.8580   21.7520 H   0  0  0  0  0  0  0  0  0  0  0  0
  -18.0640  -28.0930   22.9410 C   0  0  0  0  0  0  0  0  0  0  0  0
  -20.6210  -28.3670   23.2130 C   0  0  0  0  0  3  0  0  0  0  0  0
  -20.7300  -26.9350   22.6390 C   0  0  0  0  0  2  0  0  0  0  0  0
  -19.6320  -26.6050   21.6240 C   0  0  0  0  0  2  0  0  0  0  0  0
  -18.2490  -26.7440   22.2650 C   0  0  0  0  0  2  0  0  0  0  0  0
  -19.1780  -28.8620   23.3720 C   0  0  0  0  0  0  0  0  0  0  0  0
  -18.9520  -30.1220   23.9650 C   0  0  0  0  0  3  0  0  0  0  0  0
  -17.6430  -30.6160   24.1290 C   0  0  0  0  0  3  0  0  0  0  0  0
  -16.5430  -29.8460   23.7120 C   0  0  0  0  0  3  0  0  0  0  0  0
  -16.7550  -28.5860   23.1250 C   0  0  0  0  0  3  0  0  0  0  0  0
  -25.8880  -32.5600   23.8800 C   0  0  0  0  0  3  0  0  0  0  0  0
  -25.5710  -33.9610   24.1970 N   0  0  0  0  0  0  0  0  0  0  0  0
  -25.9050  -35.0090   23.4330 C   0  0  0  0  0  0  0  0  0  0  0  0
  -26.5800  -34.8990   22.4070 O   0  0  0  0  0  0  0  0  0  0  0  0
  -24.9710  -34.1190   24.9940 H   0  0  0  0  0  0  0  0  0  0  0  0
  -24.1820  -36.8040   23.0490 C   0  0  0  0  0  1  0  0  0  0  0  0
  -25.4120  -36.4000   23.8780 C   0  0  0  0  0  3  0  0  0  0  0  0
  -27.5350  -37.2930   24.7350 C   0  0  0  0  0  1  0  0  0  0  0  0
  -26.4460  -37.4530   23.7740 N   0  0  0  0  0  0  0  0  0  0  0  0
  -26.0370  -38.3740   23.9100 H   0  0  0  0  0  0  0  0  0  0  0  0
  -26.3950  -31.8040   25.1710 C   0  0  1  0  0  0  0  0  0  0  0  0
  -25.2930  -31.5790   26.2320 C   0  0  0  0  0  1  0  0  0  0  0  0
  -26.9820  -30.4220   24.8020 C   0  0  0  0  0  1  0  0  0  0  0  0
  -27.5390  -32.6070   25.8340 C   0  0  0  0  0  1  0  0  0  0  0  0
  1  2  2  0
  1  3  1  0
  2  4  1  0
  3  5  2  0
  4  8  1  0
  4  7  2  0
  5  7  1  0
  5 21  1  0
  6  8  1  0
  6 51  1  0
  8 12  1  0
  9  6  2  0
 10  2  1  0
 11  3  1  0
 13 21  1  0
 14 19  1  0
 15 16  1  0
 15 14  1  0
 17 16  1  0
 17 26  1  0
 17 18  1  0
 19 13  1  0
 19 18  1  0
 20 13  2  0
 21 22  1  0
 23 24  2  0
 24 25  1  0
 24 43  1  0
 25 28  1  0
 26 23  1  0
 26 27  1  0
 27 25  2  0
 28 29  1  0
 29 30  2  0
 31 34  1  0
 31 30  1  0
 32 31  2  0
 33 32  1  0
 33 28  2  0
 34 35  1  0
 35 36  1  0
 36 37  2  0
 38 37  1  0
 38 42  1  0
 39 38  2  0
 40 35  2  0
 40 39  1  0
 41 40  1  0
 43 44  1  0
 44 47  1  0
 44 46  1  0
 45 43  2  0
 48 49  1  0
 48 23  1  0
 50 48  1  0
 53 52  1  0
 53 54  1  0
 53 51  1  0
 55 66  2  0
 56 54  1  0
 56 61  1  0
 57 65  1  0
 57 67  1  0
 58 64  1  0
 58 60  1  0
 59 65  1  0
 60 59  1  0
 61 60  2  0
 62 56  2  0
 63 62  1  0
 63 58  2  0
 64 57  1  0
 65 55  1  0
 67 69  2  0
 68 67  1  0
 70 68  1  0
 71 80  2  0
 71 76  1  0
 72 68  1  0
 72 76  1  0
 73 72  1  0
 74 75  1  0
 74 73  1  0
 75 71  1  0
 76 77  2  0
 77 78  1  0
 79 78  2  0
 80 79  1  0
 81 55  1  0
 81 82  1  0
 81 91  1  0
 82 85  1  0
 83 87  1  0
 83 82  1  0
 84 83  2  0
 87 86  1  0
 89 87  1  0
 89 90  1  0
 89 88  1  0
 91 94  1  1
 91 92  1  0
 93 91  1  0
M  ISO  4  13 100  21 100  53 101  54 101
M  END
>  <TORSDO>  (46) 
F 18

>  <SCORE>  (46) 
-14.540

>  <name>  (46) 
45

>  <ligand_id>  (46) 
45

>  <original_smiles>  (46) 
[H]c1c([H])c([H])c2c(c1[H])C([H])([H])C([H])([H])C([H])([H])C2([H])N([H])C(=O)C1([H])N(C(=O)C([H])(N([H])C(=O)C([H])(N([H])C([H])([H])[H])C([H])([H])[H])C(C([H])([H])[H])(C([H])([H])[H])C([H])([H])[H])C([H])([H])c2c([H])c(OC([H])(C([H])([H])[H])C([H])([H])C(=O)N([H])c3nc(N([H])C(=O)N4C([H])([H])C([H])([H])C([H])([H])C([H])(n5nc(-c6c([H])c([H])c(Oc7c([H])c([H])c(F)c([H])c7F)c([H])c6[H])c(C(=O)N([H])[H])c5N([H])[H])C4([H])[H])c(F)c([H])c3F)c([H])c([H])c2C1([H])[H]

>  <smiles>  (46) 
[H]c1c([H])c([H])c2c(c1[H])C([H])([H])C([H])([H])C([H])([H])C2([H])N([H])C(=O)C1([H])N(C(=O)C([H])(N([H])C(=O)C([H])(N([H])C([H])([H])[H])C([H])([H])[H])C(C([H])([H])[H])(C([H])([H])[H])C([H])([H])[H])C([H])([H])c2c([H])c(OC([H])(C([H])([H])[H])C([H])([H])C(=O)N([H])c3nc(N([H])C(=O)N4C([H])([H])C([H])([H])C([H])([H])C([H])(n5nc(-c6c([H])c([H])c(Oc7c([H])c([H])c(F)c([H])c7F)c([H])c6[H])c(C(=O)N([H])[H])c5N([H])[H])C4([H])[H])c(F)c([H])c3F)c([H])c([H])c2C1([H])[H]

$$$$
46:0:0
     RDKit          3D

 94102  0  0  1  0  0  0  0  0999 V2000
  -29.4600  -20.9000   19.7620 C   0  0  0  0  0  0  0  0  0  0  0  0
  -30.0030  -21.6680   18.9610 O   0  0  0  0  0  0  0  0  0  0  0  0
  -30.6430  -14.5330   20.2180 C   0  0  0  0  0  0  0  0  0  0  0  0
  -30.3440  -12.3480   19.1180 C   0  0  0  0  0  2  0  0  0  0  0  0
  -29.3790  -12.5610   17.9310 C   0  0  0  0  0  2  0  0  0  0  0  0
  -27.9140  -12.4220   18.3900 C   0  0  0  0  0  2  0  0  0  0  0  0
  -27.6030  -13.2430   19.6700 C   0  0  0  0  0  3  0  0  0  0  0  0
  -28.6860  -13.0310   20.7530 C   0  0  0  0  0  2  0  0  0  0  0  0
  -29.9910  -13.3370   20.1510 N   0  0  0  0  0  0  0  0  0  0  0  0
  -31.8030  -14.6580   19.8120 O   0  0  0  0  0  0  0  0  0  0  0  0
  -29.8460  -19.4560   19.7990 C   0  0  0  0  0  0  0  0  0  0  0  0
  -30.8380  -18.8000   19.0890 C   0  0  0  0  0  0  0  0  0  0  0  0
  -30.0240  -16.9860   20.2370 C   0  0  0  0  0  0  0  0  0  0  0  0
  -30.9210  -17.4270   19.3470 N   0  0  0  0  0  0  0  0  0  0  0  0
  -29.8860  -15.5960   20.6010 N   0  0  0  0  0  0  0  0  0  0  0  0
  -28.9830  -18.3040   20.8260 S   0  0  0  0  0  0  0  0  0  0  0  0
  -29.0110  -15.3570   21.0380 H   0  0  0  0  0  0  0  0  0  0  0  0
  -25.2240  -13.8440   20.4340 C   0  0  0  0  0  0  0  0  0  0  0  0
  -24.1650  -13.0700   20.8260 C   0  0  0  0  0  0  0  0  0  0  0  0
  -24.6260  -11.7190   20.7820 C   0  0  0  0  0  0  0  0  0  0  0  0
  -26.2630  -12.9640   20.1780 N   0  0  0  0  0  0  0  0  0  0  0  0
  -25.9100  -11.6810   20.4480 N   0  0  0  0  0  0  0  0  0  0  0  0
  -23.9060  -10.4560   20.9870 C   0  0  0  0  0  0  0  0  0  0  0  0
  -24.3530   -9.4910   21.9160 C   0  0  0  0  0  3  0  0  0  0  0  0
  -23.6340   -8.2930   22.1050 C   0  0  0  0  0  3  0  0  0  0  0  0
  -22.4530   -8.0480   21.3670 C   0  0  0  0  0  0  0  0  0  0  0  0
  -22.0240   -9.0010   20.4250 C   0  0  0  0  0  3  0  0  0  0  0  0
  -22.7430  -10.1920   20.2340 C   0  0  0  0  0  3  0  0  0  0  0  0
  -21.7030   -6.9020   21.4650 O   0  0  0  0  0  0  0  0  0  0  0  0
  -21.6670   -6.1640   22.6210 C   0  0  0  0  0  0  0  0  0  0  0  0
  -21.2370   -6.7170   23.8460 C   0  0  0  0  0  3  0  0  0  0  0  0
  -21.1500   -5.9050   24.9940 C   0  0  0  0  0  3  0  0  0  0  0  0
  -21.4810   -4.5390   24.9180 C   0  0  0  0  0  0  0  0  0  0  0  0
  -21.9040   -3.9840   23.6970 C   0  0  0  0  0  3  0  0  0  0  0  0
  -21.9940   -4.7940   22.5510 C   0  0  0  0  0  0  0  0  0  0  0  0
  -22.3810   -4.2500   21.3720 F   0  0  0  0  0  0  0  0  0  0  0  0
  -21.3900   -3.7550   26.0190 F   0  0  0  0  0  0  0  0  0  0  0  0
  -22.7750  -13.5450   21.1280 C   0  0  0  0  0  0  0  0  0  0  0  0
  -22.0650  -12.8440   22.0050 N   0  0  0  0  0  0  0  0  0  0  0  0
  -22.3260  -14.5730   20.6220 O   0  0  0  0  0  0  0  0  0  0  0  0
  -22.4420  -12.0130   22.4340 H   0  0  0  0  0  0  0  0  0  0  0  0
  -21.1320  -13.1430   22.2510 H   0  0  0  0  0  0  0  0  0  0  0  0
  -25.3850  -15.2150   20.2540 N   0  0  0  0  0  0  0  0  0  0  0  0
  -24.6090  -15.8610   20.3530 H   0  0  0  0  0  0  0  0  0  0  0  0
  -26.2150  -15.6490   19.8680 H   0  0  0  0  0  0  0  0  0  0  0  0
  -31.7420  -19.3390   18.1680 N   0  0  0  0  0  0  0  0  0  0  0  0
  -31.7570  -20.3350   17.9640 H   0  0  0  0  0  0  0  0  0  0  0  0
  -32.4590  -18.7810   17.7190 H   0  0  0  0  0  0  0  0  0  0  0  0
  -28.4050  -21.5180   20.7070 C   0  0  0  0  0  2  0  0  0  0  0  0
  -27.7490  -22.8400   20.1620 C   0  0  0  0  0  2  0  0  0  0  0  0
  -28.3010  -24.1830   20.6960 C   0  0  0  0  0  0  0  0  0  0  0  0
  -28.5530  -24.3260   21.8980 O   0  0  0  0  0  0  0  0  0  0  0  0
  -28.5360  -25.3360   19.6800 C   0  0  0  0  0  2  0  0  0  0  0  0
  -28.4480  -26.6640   20.2600 O   0  0  0  0  0  0  0  0  0  0  0  0
  -24.6090  -31.8910   23.2390 C   0  0  0  0  0  0  0  0  0  0  0  0
  -27.2620  -27.3850   20.2190 C   0  0  0  0  0  0  0  0  0  0  0  0
  -23.4090  -30.4720   21.6080 C   0  0  0  0  0  3  0  0  0  0  0  0
  -24.8690  -28.9160   20.2070 C   0  0  0  0  0  0  0  0  0  0  0  0
  -25.9390  -30.8210   21.4160 C   0  0  0  0  0  2  0  0  0  0  0  0
  -26.0260  -29.4400   20.7930 C   0  0  0  0  0  0  0  0  0  0  0  0
  -27.2220  -28.6810   20.7960 C   0  0  0  0  0  3  0  0  0  0  0  0
  -26.0790  -26.8830   19.6300 C   0  0  0  0  0  3  0  0  0  0  0  0
  -24.8920  -27.6390   19.6240 C   0  0  0  0  0  3  0  0  0  0  0  0
  -23.6240  -29.7760   20.2380 C   0  0  0  0  0  2  0  0  0  0  0  0
  -24.6710  -31.0780   22.1460 N   0  0  0  0  0  0  0  0  0  0  0  0
  -23.5250  -32.1700   23.7720 O   0  0  0  0  0  0  0  0  0  0  0  0
  -22.7520  -29.4630   22.5790 C   0  0  0  0  0  0  0  0  0  0  0  0
  -21.4290  -29.2760   22.4460 N   0  0  0  0  0  0  0  0  0  0  0  0
  -23.4330  -28.8490   23.4060 O   0  0  0  0  0  0  0  0  0  0  0  0
  -20.9410  -29.8200   21.7480 H   0  0  0  0  0  0  0  0  0  0  0  0
  -18.0570  -28.0740   22.9410 C   0  0  0  0  0  0  0  0  0  0  0  0
  -20.6120  -28.3450   23.2240 C   0  0  0  0  0  3  0  0  0  0  0  0
  -20.7240  -26.9080   22.6650 C   0  0  0  0  0  2  0  0  0  0  0  0
  -19.6290  -26.5700   21.6480 C   0  0  0  0  0  2  0  0  0  0  0  0
  -18.2420  -26.7180   22.2810 C   0  0  0  0  0  2  0  0  0  0  0  0
  -19.1700  -28.8450   23.3680 C   0  0  0  0  0  0  0  0  0  0  0  0
  -18.9450  -30.1140   23.9440 C   0  0  0  0  0  3  0  0  0  0  0  0
  -17.6370  -30.6140   24.0930 C   0  0  0  0  0  3  0  0  0  0  0  0
  -16.5390  -29.8420   23.6810 C   0  0  0  0  0  3  0  0  0  0  0  0
  -16.7480  -28.5740   23.1120 C   0  0  0  0  0  3  0  0  0  0  0  0
  -25.8910  -32.5310   23.8580 C   0  0  0  0  0  3  0  0  0  0  0  0
  -25.5780  -33.9310   24.1740 N   0  0  0  0  0  0  0  0  0  0  0  0
  -25.9110  -34.9770   23.4070 C   0  0  0  0  0  0  0  0  0  0  0  0
  -26.5840  -34.8660   22.3780 O   0  0  0  0  0  0  0  0  0  0  0  0
  -24.9800  -34.0920   24.9710 H   0  0  0  0  0  0  0  0  0  0  0  0
  -24.1820  -36.7650   23.0230 C   0  0  0  0  0  1  0  0  0  0  0  0
  -25.4160  -36.3670   23.8490 C   0  0  0  0  0  3  0  0  0  0  0  0
  -27.5460  -37.2540   24.6880 C   0  0  0  0  0  1  0  0  0  0  0  0
  -26.4450  -37.4250   23.7440 N   0  0  0  0  0  0  0  0  0  0  0  0
  -26.0330  -38.3410   23.9040 H   0  0  0  0  0  0  0  0  0  0  0  0
  -26.4080  -31.7700   25.1410 C   0  0  1  0  0  0  0  0  0  0  0  0
  -25.3130  -31.5360   26.2090 C   0  0  0  0  0  1  0  0  0  0  0  0
  -26.9970  -30.3920   24.7600 C   0  0  0  0  0  1  0  0  0  0  0  0
  -27.5560  -32.5740   25.7990 C   0  0  0  0  0  1  0  0  0  0  0  0
  1 11  1  0
  1 49  1  0
  2  1  2  0
  3 15  1  0
  4  9  1  0
  5  6  1  0
  5  4  1  0
  7  6  1  0
  7 21  1  0
  7  8  1  0
  9  3  1  0
  9  8  1  0
 10  3  2  0
 11 16  1  0
 12 14  1  0
 12 11  2  0
 13 15  1  0
 13 16  1  0
 14 13  2  0
 15 17  1  0
 18 19  2  0
 19 38  1  0
 20 19  1  0
 20 23  1  0
 21 18  1  0
 21 22  1  0
 22 20  2  0
 23 24  1  0
 24 25  2  0
 26 29  1  0
 26 25  1  0
 27 26  2  0
 28 27  1  0
 28 23  2  0
 29 30  1  0
 30 31  1  0
 31 32  2  0
 33 32  1  0
 33 37  1  0
 34 33  2  0
 35 30  2  0
 35 34  1  0
 36 35  1  0
 38 39  1  0
 39 42  1  0
 39 41  1  0
 40 38  2  0
 43 44  1  0
 43 18  1  0
 45 43  1  0
 46 12  1  0
 47 46  1  0
 48 46  1  0
 50 51  1  0
 50 49  1  0
 51 52  2  0
 53 54  1  0
 53 51  1  0
 55 66  2  0
 56 54  1  0
 56 61  1  0
 57 65  1  0
 57 67  1  0
 58 64  1  0
 58 60  1  0
 59 65  1  0
 60 61  2  0
 60 59  1  0
 62 56  2  0
 63 62  1  0
 63 58  2  0
 64 57  1  0
 65 55  1  0
 67 69  2  0
 68 67  1  0
 70 68  1  0
 71 80  2  0
 71 76  1  0
 72 68  1  0
 72 76  1  0
 73 72  1  0
 74 75  1  0
 74 73  1  0
 75 71  1  0
 76 77  2  0
 77 78  1  0
 79 78  2  0
 80 79  1  0
 81 55  1  0
 81 82  1  0
 81 91  1  0
 82 85  1  0
 83 87  1  0
 83 82  1  0
 84 83  2  0
 87 86  1  0
 89 87  1  0
 89 90  1  0
 89 88  1  0
 91 94  1  1
 91 92  1  0
 93 91  1  0
M  ISO  4   3 100  15 100  53 101  54 101
M  END
>  <TORSDO>  (47) 
F 21

>  <SCORE>  (47) 
-13.607

>  <name>  (47) 
46

>  <ligand_id>  (47) 
46

>  <original_smiles>  (47) 
[H]c1c([H])c([H])c2c(c1[H])C([H])([H])C([H])([H])C([H])([H])C2([H])N([H])C(=O)C1([H])N(C(=O)C([H])(N([H])C(=O)C([H])(N([H])C([H])([H])[H])C([H])([H])[H])C(C([H])([H])[H])(C([H])([H])[H])C([H])([H])[H])C([H])([H])c2c([H])c(OC([H])([H])C(=O)C([H])([H])C([H])([H])C(=O)c3sc(N([H])C(=O)N4C([H])([H])C([H])([H])C([H])([H])C([H])(n5nc(-c6c([H])c([H])c(Oc7c([H])c([H])c(F)c([H])c7F)c([H])c6[H])c(C(=O)N([H])[H])c5N([H])[H])C4([H])[H])nc3N([H])[H])c([H])c([H])c2C1([H])[H]

>  <smiles>  (47) 
[H]c1c([H])c([H])c2c(c1[H])C([H])([H])C([H])([H])C([H])([H])C2([H])N([H])C(=O)C1([H])N(C(=O)C([H])(N([H])C(=O)C([H])(N([H])C([H])([H])[H])C([H])([H])[H])C(C([H])([H])[H])(C([H])([H])[H])C([H])([H])[H])C([H])([H])c2c([H])c(OC([H])([H])C(=O)C([H])([H])C([H])([H])C(=O)c3sc(N([H])C(=O)N4C([H])([H])C([H])([H])C([H])([H])C([H])(n5nc(-c6c([H])c([H])c(Oc7c([H])c([H])c(F)c([H])c7F)c([H])c6[H])c(C(=O)N([H])[H])c5N([H])[H])C4([H])[H])nc3N([H])[H])c([H])c([H])c2C1([H])[H]

$$$$
47:0:0
     RDKit          3D

 97105  0  0  1  0  0  0  0  0999 V2000
  -30.0300  -21.9610   20.4080 C   0  0  0  0  0  0  0  0  0  0  0  0
  -29.6210  -20.6990   20.7020 N   0  0  0  0  0  0  0  0  0  0  0  0
  -31.1130  -22.1960   19.8590 O   0  0  0  0  0  0  0  0  0  0  0  0
  -28.8230  -20.6550   21.3240 H   0  0  0  0  0  0  0  0  0  0  0  0
  -29.8670  -18.1980   20.7490 C   0  0  0  0  0  3  0  0  0  0  0  0
  -30.6020  -19.4670   18.7980 C   0  0  0  0  0  3  0  0  0  0  0  0
  -30.0610  -19.4610   20.1050 C   0  0  0  0  0  0  0  0  0  0  0  0
  -30.2100  -16.9670   20.1040 C   0  0  0  0  0  0  0  0  0  0  0  0
  -30.9330  -18.2680   18.1470 C   0  0  0  0  0  0  0  0  0  0  0  0
  -30.7250  -17.0320   18.7800 C   0  0  0  0  0  0  0  0  0  0  0  0
  -31.4150  -18.3040   16.8820 F   0  0  0  0  0  0  0  0  0  0  0  0
  -30.9780  -15.9100   18.0640 F   0  0  0  0  0  0  0  0  0  0  0  0
  -30.6830  -14.5550   20.5610 C   0  0  0  0  0  0  0  0  0  0  0  0
  -30.4060  -12.3460   19.5160 C   0  0  0  0  0  2  0  0  0  0  0  0
  -29.5160  -12.5140   18.2680 C   0  0  0  0  0  2  0  0  0  0  0  0
  -28.0280  -12.3780   18.6450 C   0  0  0  0  0  2  0  0  0  0  0  0
  -27.6380  -13.2490   19.8700 C   0  0  0  0  0  3  0  0  0  0  0  0
  -28.6570  -13.1060   21.0240 C   0  0  0  0  0  2  0  0  0  0  0  0
  -29.9970  -13.3780   20.4850 N   0  0  0  0  0  0  0  0  0  0  0  0
  -31.8820  -14.6340   20.2940 O   0  0  0  0  0  0  0  0  0  0  0  0
  -29.9450  -15.6830   20.7270 N   0  0  0  0  0  0  0  0  0  0  0  0
  -29.0150  -15.5550   21.0910 H   0  0  0  0  0  0  0  0  0  0  0  0
  -25.2160  -13.8520   20.4910 C   0  0  0  0  0  0  0  0  0  0  0  0
  -24.1370  -13.0810   20.8360 C   0  0  0  0  0  0  0  0  0  0  0  0
  -24.6060  -11.7330   20.8490 C   0  0  0  0  0  0  0  0  0  0  0  0
  -26.2710  -12.9720   20.3120 N   0  0  0  0  0  0  0  0  0  0  0  0
  -25.9080  -11.6930   20.5890 N   0  0  0  0  0  0  0  0  0  0  0  0
  -23.8780  -10.4710   21.0380 C   0  0  0  0  0  0  0  0  0  0  0  0
  -24.2870   -9.5190   21.9970 C   0  0  0  0  0  3  0  0  0  0  0  0
  -23.5620   -8.3200   22.1710 C   0  0  0  0  0  3  0  0  0  0  0  0
  -22.4120   -8.0650   21.3870 C   0  0  0  0  0  0  0  0  0  0  0  0
  -22.0210   -9.0070   20.4190 C   0  0  0  0  0  3  0  0  0  0  0  0
  -22.7460  -10.1970   20.2430 C   0  0  0  0  0  3  0  0  0  0  0  0
  -21.6610   -6.9180   21.4710 O   0  0  0  0  0  0  0  0  0  0  0  0
  -21.5900   -6.1860   22.6290 C   0  0  0  0  0  0  0  0  0  0  0  0
  -21.1330   -6.7510   23.8400 C   0  0  0  0  0  3  0  0  0  0  0  0
  -21.0120   -5.9440   24.9910 C   0  0  0  0  0  3  0  0  0  0  0  0
  -21.3320   -4.5760   24.9290 C   0  0  0  0  0  0  0  0  0  0  0  0
  -21.7790   -4.0100   23.7210 C   0  0  0  0  0  3  0  0  0  0  0  0
  -21.9060   -4.8140   22.5750 C   0  0  0  0  0  0  0  0  0  0  0  0
  -22.3170   -4.2590   21.4090 F   0  0  0  0  0  0  0  0  0  0  0  0
  -21.2060   -3.7990   26.0310 F   0  0  0  0  0  0  0  0  0  0  0  0
  -22.7280  -13.5580   21.0450 C   0  0  0  0  0  0  0  0  0  0  0  0
  -21.9700  -12.8780   21.8970 N   0  0  0  0  0  0  0  0  0  0  0  0
  -22.3080  -14.5700   20.4870 O   0  0  0  0  0  0  0  0  0  0  0  0
  -22.3190  -12.0590   22.3720 H   0  0  0  0  0  0  0  0  0  0  0  0
  -21.0240  -13.1810   22.0780 H   0  0  0  0  0  0  0  0  0  0  0  0
  -25.3820  -15.2200   20.2900 N   0  0  0  0  0  0  0  0  0  0  0  0
  -24.6080  -15.8710   20.3510 H   0  0  0  0  0  0  0  0  0  0  0  0
  -26.2420  -15.6580   19.9850 H   0  0  0  0  0  0  0  0  0  0  0  0
  -29.0830  -23.0080   20.8320 C   0  0  0  0  0  0  0  0  0  0  0  0
  -29.2660  -24.3400   20.5840 C   0  0  0  0  0  0  0  0  0  0  0  0
  -27.9640  -22.6300   21.4770 F   0  0  0  0  0  0  0  0  0  0  0  0
  -30.3390  -24.8610   19.9590 O   0  0  0  0  0  0  0  0  0  0  0  0
  -30.9240  -24.1360   19.7530 H   0  0  0  0  0  0  0  0  0  0  0  0
  -28.2810  -25.4580   20.9680 C   0  0  0  0  0  2  0  0  0  0  0  0
  -28.3720  -26.6660   20.1770 O   0  0  0  0  0  0  0  0  0  0  0  0
  -24.5870  -31.8850   23.2410 C   0  0  0  0  0  0  0  0  0  0  0  0
  -27.2200  -27.4320   20.1680 C   0  0  0  0  0  0  0  0  0  0  0  0
  -23.3750  -30.4860   21.5990 C   0  0  0  0  0  3  0  0  0  0  0  0
  -24.8260  -28.9460   20.1690 C   0  0  0  0  0  0  0  0  0  0  0  0
  -25.9000  -30.8440   21.3920 C   0  0  0  0  0  2  0  0  0  0  0  0
  -25.9850  -29.4700   20.7560 C   0  0  0  0  0  0  0  0  0  0  0  0
  -27.1880  -28.7220   20.7490 C   0  0  0  0  0  3  0  0  0  0  0  0
  -26.0470  -26.9290   19.5650 C   0  0  0  0  0  3  0  0  0  0  0  0
  -24.8530  -27.6760   19.5650 C   0  0  0  0  0  3  0  0  0  0  0  0
  -23.5800  -29.8040   20.2180 C   0  0  0  0  0  2  0  0  0  0  0  0
  -24.6410  -31.0860   22.1370 N   0  0  0  0  0  0  0  0  0  0  0  0
  -23.5080  -32.1560   23.7860 O   0  0  0  0  0  0  0  0  0  0  0  0
  -22.7250  -29.4670   22.5610 C   0  0  0  0  0  0  0  0  0  0  0  0
  -21.4000  -29.2860   22.4380 N   0  0  0  0  0  0  0  0  0  0  0  0
  -23.4090  -28.8410   23.3760 O   0  0  0  0  0  0  0  0  0  0  0  0
  -20.9080  -29.8410   21.7510 H   0  0  0  0  0  0  0  0  0  0  0  0
  -18.0280  -28.0910   22.9410 C   0  0  0  0  0  0  0  0  0  0  0  0
  -20.5870  -28.3480   23.2110 C   0  0  0  0  0  3  0  0  0  0  0  0
  -20.6880  -26.9170   22.6350 C   0  0  0  0  0  2  0  0  0  0  0  0
  -19.5860  -26.5940   21.6220 C   0  0  0  0  0  2  0  0  0  0  0  0
  -18.2040  -26.7410   22.2660 C   0  0  0  0  0  2  0  0  0  0  0  0
  -19.1470  -28.8530   23.3710 C   0  0  0  0  0  0  0  0  0  0  0  0
  -18.9300  -30.1160   23.9620 C   0  0  0  0  0  3  0  0  0  0  0  0
  -17.6270  -30.6190   24.1280 C   0  0  0  0  0  3  0  0  0  0  0  0
  -16.5220  -29.8540   23.7160 C   0  0  0  0  0  3  0  0  0  0  0  0
  -16.7230  -28.5930   23.1280 C   0  0  0  0  0  3  0  0  0  0  0  0
  -25.8760  -32.5150   23.8570 C   0  0  0  0  0  3  0  0  0  0  0  0
  -26.3940  -31.7440   25.1330 C   0  0  1  0  0  0  0  0  0  0  0  0
  -25.3060  -31.5120   26.2070 C   0  0  0  0  0  1  0  0  0  0  0  0
  -26.9720  -30.3640   24.7390 C   0  0  0  0  0  1  0  0  0  0  0  0
  -27.5500  -32.5350   25.7890 C   0  0  0  0  0  1  0  0  0  0  0  0
  -25.5720  -33.9140   24.1840 N   0  0  0  0  0  0  0  0  0  0  0  0
  -25.9120  -34.9620   23.4220 C   0  0  0  0  0  0  0  0  0  0  0  0
  -26.5840  -34.8530   22.3930 O   0  0  0  0  0  0  0  0  0  0  0  0
  -24.9760  -34.0730   24.9820 H   0  0  0  0  0  0  0  0  0  0  0  0
  -24.1980  -36.7660   23.0480 C   0  0  0  0  0  1  0  0  0  0  0  0
  -25.4280  -36.3550   23.8730 C   0  0  0  0  0  3  0  0  0  0  0  0
  -27.5610  -37.2260   24.7230 C   0  0  0  0  0  1  0  0  0  0  0  0
  -26.4670  -37.4030   23.7710 N   0  0  0  0  0  0  0  0  0  0  0  0
  -26.0640  -38.3240   23.9180 H   0  0  0  0  0  0  0  0  0  0  0  0
  1  2  1  0
  1 51  1  0
  2  4  1  0
  3  1  2  0
  6  7  2  0
  7  2  1  0
  7  5  1  0
  8 21  1  0
  8  5  2  0
  9 10  2  0
  9  6  1  0
 10  8  1  0
 11  9  1  0
 12 10  1  0
 13 21  1  0
 14 19  1  0
 15 16  1  0
 15 14  1  0
 17 16  1  0
 17 26  1  0
 17 18  1  0
 19 13  1  0
 19 18  1  0
 20 13  2  0
 21 22  1  0
 23 24  2  0
 24 25  1  0
 24 43  1  0
 25 28  1  0
 26 23  1  0
 26 27  1  0
 27 25  2  0
 28 29  1  0
 29 30  2  0
 31 34  1  0
 31 30  1  0
 32 31  2  0
 33 32  1  0
 33 28  2  0
 34 35  1  0
 35 36  1  0
 36 37  2  0
 38 37  1  0
 38 42  1  0
 39 38  2  0
 40 35  2  0
 40 39  1  0
 41 40  1  0
 43 44  1  0
 44 47  1  0
 44 46  1  0
 45 43  2  0
 48 49  1  0
 48 23  1  0
 50 48  1  0
 51 53  1  0
 52 51  2  0
 52 56  1  0
 54 52  1  0
 55 54  1  0
 57 56  1  0
 58 69  2  0
 59 57  1  0
 59 64  1  0
 60 68  1  0
 60 70  1  0
 61 67  1  0
 61 63  1  0
 62 68  1  0
 63 62  1  0
 64 63  2  0
 65 66  1  0
 65 59  2  0
 66 61  2  0
 67 60  1  0
 68 58  1  0
 70 72  2  0
 71 70  1  0
 73 71  1  0
 74 83  2  0
 74 79  1  0
 75 71  1  0
 75 79  1  0
 76 75  1  0
 77 78  1  0
 77 76  1  0
 78 74  1  0
 79 80  2  0
 80 81  1  0
 82 81  2  0
 83 82  1  0
 84 58  1  0
 84 89  1  0
 84 85  1  0
 85 88  1  1
 85 86  1  0
 87 85  1  0
 89 92  1  0
 90 94  1  0
 90 89  1  0
 91 90  2  0
 94 93  1  0
 96 94  1  0
 96 97  1  0
 96 95  1  0
M  ISO  4  13 100  21 100  56 101  57 101
M  END
>  <TORSDO>  (48) 
F 20

>  <SCORE>  (48) 
-14.166

>  <name>  (48) 
47

>  <ligand_id>  (48) 
47

>  <original_smiles>  (48) 
[H]OC(=C(F)C(=O)N([H])c1c([H])c(F)c(F)c(N([H])C(=O)N2C([H])([H])C([H])([H])C([H])([H])C([H])(n3nc(-c4c([H])c([H])c(Oc5c([H])c([H])c(F)c([H])c5F)c([H])c4[H])c(C(=O)N([H])[H])c3N([H])[H])C2([H])[H])c1[H])C([H])([H])Oc1c([H])c([H])c2c(c1[H])C([H])([H])N(C(=O)C([H])(N([H])C(=O)C([H])(N([H])C([H])([H])[H])C([H])([H])[H])C(C([H])([H])[H])(C([H])([H])[H])C([H])([H])[H])C([H])(C(=O)N([H])C1([H])c3c([H])c([H])c([H])c([H])c3C([H])([H])C([H])([H])C1([H])[H])C2([H])[H]

>  <smiles>  (48) 
[H]OC(=C(F)C(=O)N([H])c1c([H])c(F)c(F)c(N([H])C(=O)N2C([H])([H])C([H])([H])C([H])([H])C([H])(n3nc(-c4c([H])c([H])c(Oc5c([H])c([H])c(F)c([H])c5F)c([H])c4[H])c(C(=O)N([H])[H])c3N([H])[H])C2([H])[H])c1[H])C([H])([H])Oc1c([H])c([H])c2c(c1[H])C([H])([H])N(C(=O)C([H])(N([H])C(=O)C([H])(N([H])C([H])([H])[H])C([H])([H])[H])C(C([H])([H])[H])(C([H])([H])[H])C([H])([H])[H])C([H])(C(=O)N([H])C1([H])c3c([H])c([H])c([H])c([H])c3C([H])([H])C([H])([H])C1([H])[H])C2([H])[H]

$$$$
48:0:0
     RDKit          3D

 94102  0  0  1  0  0  0  0  0999 V2000
  -29.0060  -22.1930   20.4510 C   0  0  0  0  0  0  0  0  0  0  0  0
  -29.6180  -21.2200   19.6740 N   0  0  0  0  0  0  0  0  0  0  0  0
  -28.3230  -21.8970   21.4310 O   0  0  0  0  0  0  0  0  0  0  0  0
  -30.0830  -21.6780   18.8970 H   0  0  0  0  0  0  0  0  0  0  0  0
  -30.5770  -14.8180   20.2660 C   0  0  0  0  0  0  0  0  0  0  0  0
  -30.3470  -12.5320   19.2840 C   0  0  0  0  0  2  0  0  0  0  0  0
  -29.4020  -12.6050   18.0640 C   0  0  0  0  0  2  0  0  0  0  0  0
  -27.9370  -12.4270   18.5070 C   0  0  0  0  0  2  0  0  0  0  0  0
  -27.5720  -13.3110   19.7280 C   0  0  0  0  0  3  0  0  0  0  0  0
  -28.6450  -13.2430   20.8390 C   0  0  0  0  0  2  0  0  0  0  0  0
  -29.9330  -13.5980   20.2290 N   0  0  0  0  0  0  0  0  0  0  0  0
  -31.7690  -14.8600   19.9420 O   0  0  0  0  0  0  0  0  0  0  0  0
  -30.9500  -19.3910   18.7690 C   0  0  0  0  0  0  0  0  0  0  0  0
  -29.9750  -19.7620   19.6810 C   0  0  0  0  0  0  0  0  0  0  0  0
  -30.1450  -17.3850   20.0410 C   0  0  0  0  0  0  0  0  0  0  0  0
  -29.5080  -18.5740   20.3960 N   0  0  0  0  0  0  0  0  0  0  0  0
  -29.8520  -15.9920   20.4980 N   0  0  0  0  0  0  0  0  0  0  0  0
  -31.3670  -17.6940   18.8130 S   0  0  0  0  0  0  0  0  0  0  0  0
  -28.9350  -15.8560   20.8890 H   0  0  0  0  0  0  0  0  0  0  0  0
  -25.1970  -13.8900   20.5000 C   0  0  0  0  0  0  0  0  0  0  0  0
  -24.1360  -13.1140   20.8760 C   0  0  0  0  0  0  0  0  0  0  0  0
  -24.5970  -11.7620   20.8250 C   0  0  0  0  0  0  0  0  0  0  0  0
  -26.2360  -13.0140   20.2360 N   0  0  0  0  0  0  0  0  0  0  0  0
  -25.8840  -11.7280   20.4940 N   0  0  0  0  0  0  0  0  0  0  0  0
  -23.8690  -10.4990   21.0080 C   0  0  0  0  0  0  0  0  0  0  0  0
  -24.3010   -9.5270   21.9380 C   0  0  0  0  0  3  0  0  0  0  0  0
  -23.5730   -8.3290   22.1110 C   0  0  0  0  0  3  0  0  0  0  0  0
  -22.4000   -8.0970   21.3550 C   0  0  0  0  0  0  0  0  0  0  0  0
  -21.9900   -9.0560   20.4130 C   0  0  0  0  0  3  0  0  0  0  0  0
  -22.7180  -10.2450   20.2380 C   0  0  0  0  0  3  0  0  0  0  0  0
  -21.6450   -6.9520   21.4370 O   0  0  0  0  0  0  0  0  0  0  0  0
  -21.5790   -6.2140   22.5920 C   0  0  0  0  0  0  0  0  0  0  0  0
  -21.1140   -6.7660   23.8040 C   0  0  0  0  0  3  0  0  0  0  0  0
  -20.9990   -5.9530   24.9510 C   0  0  0  0  0  3  0  0  0  0  0  0
  -21.3380   -4.5880   24.8830 C   0  0  0  0  0  0  0  0  0  0  0  0
  -21.7970   -4.0350   23.6740 C   0  0  0  0  0  3  0  0  0  0  0  0
  -21.9140   -4.8460   22.5310 C   0  0  0  0  0  0  0  0  0  0  0  0
  -22.3350   -4.3040   21.3630 F   0  0  0  0  0  0  0  0  0  0  0  0
  -21.2210   -3.8050   25.9810 F   0  0  0  0  0  0  0  0  0  0  0  0
  -22.7420  -13.5910   21.1710 C   0  0  0  0  0  0  0  0  0  0  0  0
  -22.0220  -12.8850   22.0350 N   0  0  0  0  0  0  0  0  0  0  0  0
  -22.3020  -14.6250   20.6710 O   0  0  0  0  0  0  0  0  0  0  0  0
  -22.3910  -12.0510   22.4670 H   0  0  0  0  0  0  0  0  0  0  0  0
  -21.0880  -13.1880   22.2750 H   0  0  0  0  0  0  0  0  0  0  0  0
  -25.3590  -15.2620   20.3340 N   0  0  0  0  0  0  0  0  0  0  0  0
  -24.5930  -15.9140   20.4560 H   0  0  0  0  0  0  0  0  0  0  0  0
  -26.1950  -15.7030   19.9720 H   0  0  0  0  0  0  0  0  0  0  0  0
  -31.6940  -20.1510   17.7670 C   0  0  0  0  0  3  0  0  0  0  0  0
  -31.4290  -21.3230   17.4830 O   0  0  0  0  0  0  0  0  0  0  0  0
  -29.2020  -23.7650   20.0600 C   0  0  0  0  0  3  0  0  0  0  0  0
  -31.8090  -23.7530   19.8100 C   0  0  0  0  0  1  0  0  0  0  0  0
  -30.5760  -24.2680   20.5720 C   0  0  0  0  0  2  0  0  0  0  0  0
  -28.0880  -24.8870   20.4730 C   0  0  0  0  0  2  0  0  0  0  0  0
  -28.3060  -26.3750   20.2360 O   0  0  0  0  0  0  0  0  0  0  0  0
  -24.5980  -31.8960   23.2490 C   0  0  0  0  0  0  0  0  0  0  0  0
  -27.2060  -27.2720   20.2160 C   0  0  0  0  0  0  0  0  0  0  0  0
  -23.4040  -30.5000   21.6020 C   0  0  0  0  0  3  0  0  0  0  0  0
  -24.8590  -28.9390   20.1860 C   0  0  0  0  0  0  0  0  0  0  0  0
  -25.9510  -30.7940   21.4440 C   0  0  0  0  0  2  0  0  0  0  0  0
  -26.0300  -29.4110   20.7940 C   0  0  0  0  0  0  0  0  0  0  0  0
  -27.2070  -28.5900   20.7950 C   0  0  0  0  0  3  0  0  0  0  0  0
  -26.0140  -26.8800   19.5700 C   0  0  0  0  0  3  0  0  0  0  0  0
  -24.8570  -27.6850   19.5620 C   0  0  0  0  0  3  0  0  0  0  0  0
  -23.6280  -29.8250   20.2240 C   0  0  0  0  0  2  0  0  0  0  0  0
  -24.6710  -31.0830   22.1540 N   0  0  0  0  0  0  0  0  0  0  0  0
  -23.5100  -32.1770   23.7740 O   0  0  0  0  0  0  0  0  0  0  0  0
  -22.7290  -29.4860   22.5580 C   0  0  0  0  0  0  0  0  0  0  0  0
  -21.4010  -29.3170   22.4280 N   0  0  0  0  0  0  0  0  0  0  0  0
  -23.3990  -28.8560   23.3800 O   0  0  0  0  0  0  0  0  0  0  0  0
  -20.9170  -29.8790   21.7410 H   0  0  0  0  0  0  0  0  0  0  0  0
  -18.0120  -28.1490   22.9310 C   0  0  0  0  0  0  0  0  0  0  0  0
  -20.5750  -28.3830   23.1950 C   0  0  0  0  0  3  0  0  0  0  0  0
  -20.6610  -26.9540   22.6090 C   0  0  0  0  0  2  0  0  0  0  0  0
  -19.5540  -26.6490   21.5950 C   0  0  0  0  0  2  0  0  0  0  0  0
  -18.1750  -26.8030   22.2440 C   0  0  0  0  0  2  0  0  0  0  0  0
  -19.1390  -28.8980   23.3630 C   0  0  0  0  0  0  0  0  0  0  0  0
  -18.9350  -30.1570   23.9670 C   0  0  0  0  0  3  0  0  0  0  0  0
  -17.6340  -30.6700   24.1410 C   0  0  0  0  0  3  0  0  0  0  0  0
  -16.5210  -29.9170   23.7250 C   0  0  0  0  0  3  0  0  0  0  0  0
  -16.7120  -28.6590   23.1260 C   0  0  0  0  0  3  0  0  0  0  0  0
  -25.8750  -32.5290   23.8810 C   0  0  0  0  0  3  0  0  0  0  0  0
  -26.3700  -31.7690   25.1740 C   0  0  1  0  0  0  0  0  0  0  0  0
  -25.2610  -31.5480   26.2290 C   0  0  0  0  0  1  0  0  0  0  0  0
  -26.9500  -30.3830   24.8080 C   0  0  0  0  0  1  0  0  0  0  0  0
  -27.5150  -32.5640   25.8420 C   0  0  0  0  0  1  0  0  0  0  0  0
  -25.5680  -33.9330   24.1960 N   0  0  0  0  0  0  0  0  0  0  0  0
  -25.9130  -34.9780   23.4330 C   0  0  0  0  0  0  0  0  0  0  0  0
  -26.5900  -34.8630   22.4070 O   0  0  0  0  0  0  0  0  0  0  0  0
  -24.9690  -34.0970   24.9920 H   0  0  0  0  0  0  0  0  0  0  0  0
  -24.2040  -36.7860   23.0450 C   0  0  0  0  0  1  0  0  0  0  0  0
  -25.4310  -36.3740   23.8760 C   0  0  0  0  0  3  0  0  0  0  0  0
  -27.5600  -37.2490   24.7340 C   0  0  0  0  0  1  0  0  0  0  0  0
  -26.4740  -37.4170   23.7710 N   0  0  0  0  0  0  0  0  0  0  0  0
  -26.0730  -38.3420   23.9050 H   0  0  0  0  0  0  0  0  0  0  0  0
  1  3  2  0
  2 14  1  0
  2  1  1  0
  4  2  1  0
  5 17  1  0
  6 11  1  0
  7  8  1  0
  7  6  1  0
  9  8  1  0
  9 23  1  0
  9 10  1  0
 11  5  1  0
 11 10  1  0
 12  5  2  0
 13 18  1  0
 13 14  2  0
 14 16  1  0
 15 16  2  0
 15 17  1  0
 17 19  1  0
 18 15  1  0
 20 21  2  0
 21 40  1  0
 22 21  1  0
 22 25  1  0
 23 24  1  0
 23 20  1  0
 24 22  2  0
 25 26  1  0
 26 27  2  0
 28 31  1  0
 28 27  1  0
 29 28  2  0
 30 29  1  0
 30 25  2  0
 31 32  1  0
 32 33  1  0
 33 34  2  0
 35 34  1  0
 35 39  1  0
 36 35  2  0
 37 32  2  0
 37 36  1  0
 38 37  1  0
 40 41  1  0
 41 44  1  0
 41 43  1  0
 42 40  2  0
 45 46  1  0
 45 20  1  0
 47 45  1  0
 48 13  1  0
 49 48  2  0
 50  1  1  0
 50 53  1  0
 50 52  1  0
 51 52  1  0
 54 53  1  0
 55 66  2  0
 56 54  1  0
 56 61  1  0
 57 65  1  0
 57 67  1  0
 58 64  1  0
 58 60  1  0
 59 65  1  0
 60 61  2  0
 60 59  1  0
 62 56  2  0
 63 62  1  0
 63 58  2  0
 64 57  1  0
 65 55  1  0
 67 69  2  0
 68 67  1  0
 70 68  1  0
 71 80  2  0
 71 76  1  0
 72 68  1  0
 72 76  1  0
 73 72  1  0
 74 75  1  0
 74 73  1  0
 75 71  1  0
 76 77  2  0
 77 78  1  0
 79 78  2  0
 80 79  1  0
 81 55  1  0
 81 86  1  0
 81 82  1  0
 82 85  1  1
 82 83  1  0
 84 82  1  0
 86 89  1  0
 87 91  1  0
 87 86  1  0
 88 87  2  0
 91 90  1  0
 93 91  1  0
 93 94  1  0
 93 92  1  0
M  ISO  4   5 100  17 100  53 101  54 101
M  END
>  <TORSDO>  (49) 
F 20

>  <SCORE>  (49) 
-14.015

>  <name>  (49) 
48

>  <ligand_id>  (49) 
48

>  <original_smiles>  (49) 
[H]C(=O)c1sc(N([H])C(=O)N2C([H])([H])C([H])([H])C([H])([H])C([H])(n3nc(-c4c([H])c([H])c(Oc5c([H])c([H])c(F)c([H])c5F)c([H])c4[H])c(C(=O)N([H])[H])c3N([H])[H])C2([H])[H])nc1N([H])C(=O)C([H])(C([H])([H])Oc1c([H])c([H])c2c(c1[H])C([H])([H])N(C(=O)C([H])(N([H])C(=O)C([H])(N([H])C([H])([H])[H])C([H])([H])[H])C(C([H])([H])[H])(C([H])([H])[H])C([H])([H])[H])C([H])(C(=O)N([H])C1([H])c3c([H])c([H])c([H])c([H])c3C([H])([H])C([H])([H])C1([H])[H])C2([H])[H])C([H])([H])C([H])([H])[H]

>  <smiles>  (49) 
[H]C(=O)c1sc(N([H])C(=O)N2C([H])([H])C([H])([H])C([H])([H])C([H])(n3nc(-c4c([H])c([H])c(Oc5c([H])c([H])c(F)c([H])c5F)c([H])c4[H])c(C(=O)N([H])[H])c3N([H])[H])C2([H])[H])nc1N([H])C(=O)C([H])(C([H])([H])Oc1c([H])c([H])c2c(c1[H])C([H])([H])N(C(=O)C([H])(N([H])C(=O)C([H])(N([H])C([H])([H])[H])C([H])([H])[H])C(C([H])([H])[H])(C([H])([H])[H])C([H])([H])[H])C([H])(C(=O)N([H])C1([H])c3c([H])c([H])c([H])c([H])c3C([H])([H])C([H])([H])C1([H])[H])C2([H])[H])C([H])([H])C([H])([H])[H]

$$$$
49:0:0
     RDKit          3D

 95103  0  0  1  0  0  0  0  0999 V2000
  -29.9440  -21.8110   20.6770 C   0  0  0  0  0  0  0  0  0  0  0  0
  -29.4480  -20.5470   20.7040 N   0  0  0  0  0  0  0  0  0  0  0  0
  -31.1500  -22.0870   20.6480 O   0  0  0  0  0  0  0  0  0  0  0  0
  -28.4370  -20.5230   20.7390 H   0  0  0  0  0  0  0  0  0  0  0  0
  -31.5000  -19.1490   20.7470 C   0  0  0  0  0  3  0  0  0  0  0  0
  -29.4490  -18.0070   20.7150 C   0  0  0  0  0  0  0  0  0  0  0  0
  -30.1360  -19.2800   20.7180 C   0  0  0  0  0  0  0  0  0  0  0  0
  -30.3100  -16.9160   20.6990 C   0  0  0  0  0  0  0  0  0  0  0  0
  -27.9530  -17.8640   20.7010 C   0  0  0  0  0  1  0  0  0  0  0  0
  -31.9760  -17.4800   20.7640 S   0  0  0  0  0  0  0  0  0  0  0  0
  -30.6530  -14.5400   20.1400 C   0  0  0  0  0  0  0  0  0  0  0  0
  -30.2820  -12.4060   18.9580 C   0  0  0  0  0  2  0  0  0  0  0  0
  -29.2800  -12.6420   17.8090 C   0  0  0  0  0  2  0  0  0  0  0  0
  -27.8320  -12.4870   18.3120 C   0  0  0  0  0  2  0  0  0  0  0  0
  -27.5600  -13.2870   19.6160 C   0  0  0  0  0  3  0  0  0  0  0  0
  -28.6760  -13.0510   20.6600 C   0  0  0  0  0  2  0  0  0  0  0  0
  -29.9650  -13.3700   20.0250 N   0  0  0  0  0  0  0  0  0  0  0  0
  -31.7720  -14.6800   19.6400 O   0  0  0  0  0  0  0  0  0  0  0  0
  -29.9620  -15.5850   20.6640 N   0  0  0  0  0  0  0  0  0  0  0  0
  -29.0240  -15.3600   20.9520 H   0  0  0  0  0  0  0  0  0  0  0  0
  -25.2010  -13.8600   20.4610 C   0  0  0  0  0  0  0  0  0  0  0  0
  -24.1570  -13.0730   20.8690 C   0  0  0  0  0  0  0  0  0  0  0  0
  -24.6220  -11.7250   20.7850 C   0  0  0  0  0  0  0  0  0  0  0  0
  -26.2360  -12.9910   20.1580 N   0  0  0  0  0  0  0  0  0  0  0  0
  -25.8960  -11.7010   20.4110 N   0  0  0  0  0  0  0  0  0  0  0  0
  -23.9130  -10.4550   20.9830 C   0  0  0  0  0  0  0  0  0  0  0  0
  -24.3660   -9.4930   21.9130 C   0  0  0  0  0  3  0  0  0  0  0  0
  -23.6560   -8.2870   22.0980 C   0  0  0  0  0  3  0  0  0  0  0  0
  -22.4790   -8.0350   21.3550 C   0  0  0  0  0  0  0  0  0  0  0  0
  -22.0450   -8.9860   20.4150 C   0  0  0  0  0  3  0  0  0  0  0  0
  -22.7560  -10.1830   20.2270 C   0  0  0  0  0  3  0  0  0  0  0  0
  -21.7390   -6.8820   21.4510 O   0  0  0  0  0  0  0  0  0  0  0  0
  -21.6680   -6.1670   22.6200 C   0  0  0  0  0  0  0  0  0  0  0  0
  -21.1940   -6.7440   23.8180 C   0  0  0  0  0  3  0  0  0  0  0  0
  -21.0720   -5.9540   24.9790 C   0  0  0  0  0  3  0  0  0  0  0  0
  -21.4130   -4.5900   24.9430 C   0  0  0  0  0  0  0  0  0  0  0  0
  -21.8810   -4.0120   23.7490 C   0  0  0  0  0  3  0  0  0  0  0  0
  -22.0040   -4.7980   22.5900 C   0  0  0  0  0  0  0  0  0  0  0  0
  -22.4340   -4.2320   21.4370 F   0  0  0  0  0  0  0  0  0  0  0  0
  -21.2890   -3.8290   26.0550 F   0  0  0  0  0  0  0  0  0  0  0  0
  -22.7730  -13.5370   21.2210 C   0  0  0  0  0  0  0  0  0  0  0  0
  -22.0920  -12.8170   22.1060 N   0  0  0  0  0  0  0  0  0  0  0  0
  -22.3050  -14.5710   20.7480 O   0  0  0  0  0  0  0  0  0  0  0  0
  -22.4850  -11.9790   22.5110 H   0  0  0  0  0  0  0  0  0  0  0  0
  -21.1660  -13.1070   22.3830 H   0  0  0  0  0  0  0  0  0  0  0  0
  -25.3470  -15.2340   20.3000 N   0  0  0  0  0  0  0  0  0  0  0  0
  -24.5750  -15.8740   20.4440 H   0  0  0  0  0  0  0  0  0  0  0  0
  -26.1530  -15.6740   19.8780 H   0  0  0  0  0  0  0  0  0  0  0  0
  -28.8170  -22.9210   20.7480 C   0  0  0  0  0  0  0  0  0  0  0  0
  -27.7090  -22.5930   21.1940 O   0  0  0  0  0  0  0  0  0  0  0  0
  -28.2070  -25.3330   20.5780 C   0  0  0  0  0  3  0  0  0  0  0  0
  -29.0820  -24.3400   20.2970 C   0  0  0  0  0  0  0  0  0  0  0  0
  -30.1920  -24.6200   19.5960 O   0  0  0  0  0  0  0  0  0  0  0  0
  -30.1680  -25.5500   19.4110 H   0  0  0  0  0  0  0  0  0  0  0  0
  -28.3680  -26.6560   20.1890 O   0  0  0  0  0  0  0  0  0  0  0  0
  -24.5830  -31.9020   23.2280 C   0  0  0  0  0  0  0  0  0  0  0  0
  -27.2270  -27.4370   20.1670 C   0  0  0  0  0  0  0  0  0  0  0  0
  -23.3810  -30.4980   21.5860 C   0  0  0  0  0  3  0  0  0  0  0  0
  -24.8390  -28.9610   20.1620 C   0  0  0  0  0  0  0  0  0  0  0  0
  -25.9090  -30.8520   21.3960 C   0  0  0  0  0  2  0  0  0  0  0  0
  -25.9980  -29.4790   20.7560 C   0  0  0  0  0  0  0  0  0  0  0  0
  -27.1970  -28.7250   20.7560 C   0  0  0  0  0  3  0  0  0  0  0  0
  -26.0540  -26.9450   19.5540 C   0  0  0  0  0  3  0  0  0  0  0  0
  -24.8630  -27.6930   19.5570 C   0  0  0  0  0  3  0  0  0  0  0  0
  -23.5950  -29.8190   20.2070 C   0  0  0  0  0  2  0  0  0  0  0  0
  -24.6430  -31.0980   22.1290 N   0  0  0  0  0  0  0  0  0  0  0  0
  -23.4990  -32.1740   23.7660 O   0  0  0  0  0  0  0  0  0  0  0  0
  -22.7270  -29.4760   22.5460 C   0  0  0  0  0  0  0  0  0  0  0  0
  -21.4020  -29.2990   22.4210 N   0  0  0  0  0  0  0  0  0  0  0  0
  -23.4100  -28.8470   23.3590 O   0  0  0  0  0  0  0  0  0  0  0  0
  -20.9120  -29.8590   21.7360 H   0  0  0  0  0  0  0  0  0  0  0  0
  -18.0210  -28.1290   22.9350 C   0  0  0  0  0  0  0  0  0  0  0  0
  -20.5830  -28.3640   23.1910 C   0  0  0  0  0  3  0  0  0  0  0  0
  -20.6700  -26.9350   22.6040 C   0  0  0  0  0  2  0  0  0  0  0  0
  -19.5580  -26.6280   21.5960 C   0  0  0  0  0  2  0  0  0  0  0  0
  -18.1820  -26.7820   22.2500 C   0  0  0  0  0  2  0  0  0  0  0  0
  -19.1490  -28.8790   23.3630 C   0  0  0  0  0  0  0  0  0  0  0  0
  -18.9460  -30.1400   23.9620 C   0  0  0  0  0  3  0  0  0  0  0  0
  -17.6460  -30.6520   24.1390 C   0  0  0  0  0  3  0  0  0  0  0  0
  -16.5340  -29.9000   23.7290 C   0  0  0  0  0  3  0  0  0  0  0  0
  -16.7210  -28.6390   23.1330 C   0  0  0  0  0  3  0  0  0  0  0  0
  -25.8660  -32.5330   23.8500 C   0  0  0  0  0  3  0  0  0  0  0  0
  -26.3890  -31.7580   25.1210 C   0  0  1  0  0  0  0  0  0  0  0  0
  -25.3000  -31.5080   26.1890 C   0  0  0  0  0  1  0  0  0  0  0  0
  -26.9790  -30.3860   24.7170 C   0  0  0  0  0  1  0  0  0  0  0  0
  -27.5370  -32.5530   25.7850 C   0  0  0  0  0  1  0  0  0  0  0  0
  -25.5540  -33.9290   24.1870 N   0  0  0  0  0  0  0  0  0  0  0  0
  -25.8780  -34.9850   23.4270 C   0  0  0  0  0  0  0  0  0  0  0  0
  -26.5430  -34.8860   22.3920 O   0  0  0  0  0  0  0  0  0  0  0  0
  -24.9630  -34.0800   24.9910 H   0  0  0  0  0  0  0  0  0  0  0  0
  -24.1390  -36.7690   23.0870 C   0  0  0  0  0  1  0  0  0  0  0  0
  -25.3870  -36.3700   23.8900 C   0  0  0  0  0  3  0  0  0  0  0  0
  -27.5200  -37.2640   24.7110 C   0  0  0  0  0  1  0  0  0  0  0  0
  -26.4130  -37.4280   23.7730 N   0  0  0  0  0  0  0  0  0  0  0  0
  -26.0030  -38.3460   23.9240 H   0  0  0  0  0  0  0  0  0  0  0  0
  1  2  1  0
  1 49  1  0
  2  7  1  0
  2  4  1  0
  3  1  2  0
  5 10  1  0
  6  7  1  0
  7  5  2  0
  8  6  2  0
  8 10  1  0
  9  6  1  0
 11 19  1  0
 12 17  1  0
 13 14  1  0
 13 12  1  0
 15 14  1  0
 15 24  1  0
 15 16  1  0
 17 11  1  0
 17 16  1  0
 18 11  2  0
 19  8  1  0
 19 20  1  0
 21 22  2  0
 22 41  1  0
 23 22  1  0
 23 26  1  0
 24 25  1  0
 24 21  1  0
 25 23  2  0
 26 27  1  0
 27 28  2  0
 29 32  1  0
 29 28  1  0
 30 29  2  0
 31 30  1  0
 31 26  2  0
 32 33  1  0
 33 34  1  0
 34 35  2  0
 36 35  1  0
 36 40  1  0
 37 36  2  0
 38 33  2  0
 38 37  1  0
 39 38  1  0
 41 42  1  0
 42 45  1  0
 42 44  1  0
 43 41  2  0
 46 47  1  0
 46 21  1  0
 48 46  1  0
 49 50  2  0
 52 51  2  0
 52 49  1  0
 53 52  1  0
 54 53  1  0
 55 51  1  0
 56 67  2  0
 57 55  1  0
 57 62  1  0
 58 66  1  0
 58 68  1  0
 59 65  1  0
 59 61  1  0
 60 66  1  0
 61 62  2  0
 61 60  1  0
 63 64  1  0
 63 57  2  0
 64 59  2  0
 65 58  1  0
 66 56  1  0
 68 70  2  0
 69 68  1  0
 71 69  1  0
 72 81  2  0
 72 77  1  0
 73 69  1  0
 73 77  1  0
 74 73  1  0
 75 76  1  0
 75 74  1  0
 76 72  1  0
 77 78  2  0
 78 79  1  0
 80 79  2  0
 81 80  1  0
 82 56  1  0
 82 87  1  0
 82 83  1  0
 83 86  1  1
 83 84  1  0
 85 83  1  0
 87 90  1  0
 88 92  1  0
 88 87  1  0
 89 88  2  0
 92 91  1  0
 94 92  1  0
 94 95  1  0
 94 93  1  0
M  ISO  4  11 100  19 100  51 101  55 101
M  END
>  <TORSDO>  (50) 
F 20

>  <SCORE>  (50) 
-14.033

>  <name>  (50) 
49

>  <ligand_id>  (50) 
49

>  <original_smiles>  (50) 
[H]OC(C(=O)C(=O)N([H])c1c([H])sc(N([H])C(=O)N2C([H])([H])C([H])([H])C([H])([H])C([H])(n3nc(-c4c([H])c([H])c(Oc5c([H])c([H])c(F)c([H])c5F)c([H])c4[H])c(C(=O)N([H])[H])c3N([H])[H])C2([H])[H])c1C([H])([H])[H])=C([H])Oc1c([H])c([H])c2c(c1[H])C([H])([H])N(C(=O)C([H])(N([H])C(=O)C([H])(N([H])C([H])([H])[H])C([H])([H])[H])C(C([H])([H])[H])(C([H])([H])[H])C([H])([H])[H])C([H])(C(=O)N([H])C1([H])c3c([H])c([H])c([H])c([H])c3C([H])([H])C([H])([H])C1([H])[H])C2([H])[H]

>  <smiles>  (50) 
[H]OC(C(=O)C(=O)N([H])c1c([H])sc(N([H])C(=O)N2C([H])([H])C([H])([H])C([H])([H])C([H])(n3nc(-c4c([H])c([H])c(Oc5c([H])c([H])c(F)c([H])c5F)c([H])c4[H])c(C(=O)N([H])[H])c3N([H])[H])C2([H])[H])c1C([H])([H])[H])=C([H])Oc1c([H])c([H])c2c(c1[H])C([H])([H])N(C(=O)C([H])(N([H])C(=O)C([H])(N([H])C([H])([H])[H])C([H])([H])[H])C(C([H])([H])[H])(C([H])([H])[H])C([H])([H])[H])C([H])(C(=O)N([H])C1([H])c3c([H])c([H])c([H])c([H])c3C([H])([H])C([H])([H])C1([H])[H])C2([H])[H]

$$$$
50:0:0
     RDKit          3D

 96104  0  0  1  0  0  0  0  0999 V2000
  -29.3280  -20.8610   21.0530 C   0  0  0  0  0  0  0  0  0  0  0  0
  -29.8750  -22.0370   20.6710 N   0  0  0  0  0  0  0  0  0  0  0  0
  -28.3040  -20.8510   21.7430 O   0  0  0  0  0  0  0  0  0  0  0  0
  -30.6690  -22.0220   20.0460 H   0  0  0  0  0  0  0  0  0  0  0  0
  -30.9260  -14.6910   19.9420 C   0  0  0  0  0  0  0  0  0  0  0  0
  -30.5780  -12.5190   18.8100 C   0  0  0  0  0  2  0  0  0  0  0  0
  -29.5520  -12.7210   17.6750 C   0  0  0  0  0  2  0  0  0  0  0  0
  -28.1100  -12.5820   18.2030 C   0  0  0  0  0  2  0  0  0  0  0  0
  -27.8600  -13.4140   19.4890 C   0  0  0  0  0  3  0  0  0  0  0  0
  -28.9880  -13.1780   20.5190 C   0  0  0  0  0  2  0  0  0  0  0  0
  -30.2730  -13.4950   19.8690 N   0  0  0  0  0  0  0  0  0  0  0  0
  -32.0100  -14.8860   19.3800 O   0  0  0  0  0  0  0  0  0  0  0  0
  -29.9660  -19.5580   20.6580 C   0  0  0  0  0  0  0  0  0  0  0  0
  -31.1130  -19.1740   19.9800 C   0  0  0  0  0  0  0  0  0  0  0  0
  -30.3280  -17.0860   20.5080 C   0  0  0  0  0  0  0  0  0  0  0  0
  -31.2860  -17.7830   19.8830 N   0  0  0  0  0  0  0  0  0  0  0  0
  -30.2430  -15.6590   20.5880 N   0  0  0  0  0  0  0  0  0  0  0  0
  -29.1120  -18.1260   21.2330 S   0  0  0  0  0  0  0  0  0  0  0  0
  -29.4250  -15.3170   21.0670 H   0  0  0  0  0  0  0  0  0  0  0  0
  -25.5350  -14.0350   20.4040 C   0  0  0  0  0  0  0  0  0  0  0  0
  -24.4820  -13.2660   20.8220 C   0  0  0  0  0  0  0  0  0  0  0  0
  -24.9100  -11.9100   20.6980 C   0  0  0  0  0  0  0  0  0  0  0  0
  -26.5400  -13.1460   20.0570 N   0  0  0  0  0  0  0  0  0  0  0  0
  -26.1710  -11.8600   20.2890 N   0  0  0  0  0  0  0  0  0  0  0  0
  -24.1730  -10.6540   20.8900 C   0  0  0  0  0  0  0  0  0  0  0  0
  -24.5950   -9.6870   21.8290 C   0  0  0  0  0  3  0  0  0  0  0  0
  -23.8600   -8.4950   22.0080 C   0  0  0  0  0  3  0  0  0  0  0  0
  -22.6900   -8.2620   21.2480 C   0  0  0  0  0  0  0  0  0  0  0  0
  -22.2870   -9.2170   20.2990 C   0  0  0  0  0  3  0  0  0  0  0  0
  -23.0220  -10.4000   20.1170 C   0  0  0  0  0  3  0  0  0  0  0  0
  -21.9270   -7.1230   21.3370 O   0  0  0  0  0  0  0  0  0  0  0  0
  -21.7870   -6.4410   22.5190 C   0  0  0  0  0  0  0  0  0  0  0  0
  -21.2180   -7.0420   23.6640 C   0  0  0  0  0  3  0  0  0  0  0  0
  -21.0290   -6.2830   24.8370 C   0  0  0  0  0  3  0  0  0  0  0  0
  -21.3970   -4.9250   24.8650 C   0  0  0  0  0  0  0  0  0  0  0  0
  -21.9590   -4.3240   23.7240 C   0  0  0  0  0  3  0  0  0  0  0  0
  -22.1500   -5.0790   22.5540 C   0  0  0  0  0  0  0  0  0  0  0  0
  -22.6720   -4.4890   21.4520 F   0  0  0  0  0  0  0  0  0  0  0  0
  -21.2090   -4.1950   25.9880 F   0  0  0  0  0  0  0  0  0  0  0  0
  -23.1200  -13.7570   21.2240 C   0  0  0  0  0  0  0  0  0  0  0  0
  -22.4490  -13.0380   22.1160 N   0  0  0  0  0  0  0  0  0  0  0  0
  -22.6640  -14.8100   20.7810 O   0  0  0  0  0  0  0  0  0  0  0  0
  -22.8320  -12.1860   22.4950 H   0  0  0  0  0  0  0  0  0  0  0  0
  -21.5380  -13.3470   22.4260 H   0  0  0  0  0  0  0  0  0  0  0  0
  -25.7150  -15.4090   20.2700 N   0  0  0  0  0  0  0  0  0  0  0  0
  -24.9670  -16.0680   20.4570 H   0  0  0  0  0  0  0  0  0  0  0  0
  -26.5340  -15.8450   19.8680 H   0  0  0  0  0  0  0  0  0  0  0  0
  -32.0810  -19.9960   19.3970 N   0  0  0  0  0  0  0  0  0  0  0  0
  -32.9390  -19.5590   19.0780 H   0  0  0  0  0  0  0  0  0  0  0  0
  -32.2310  -20.9270   19.7660 H   0  0  0  0  0  0  0  0  0  0  0  0
  -29.9810  -23.6950   22.5130 C   0  0  0  0  0  1  0  0  0  0  0  0
  -29.4000  -23.3670   21.1240 C   0  0  0  0  0  3  0  0  0  0  0  0
  -29.6600  -24.5270   20.1200 C   0  0  0  0  0  0  0  0  0  0  0  0
  -30.7850  -24.7660   19.6690 O   0  0  0  0  0  0  0  0  0  0  0  0
  -28.4470  -25.3820   19.6880 C   0  0  0  0  0  2  0  0  0  0  0  0
  -28.6240  -26.8090   19.8750 O   0  0  0  0  0  0  0  0  0  0  0  0
  -24.6560  -31.7600   23.1650 C   0  0  0  0  0  0  0  0  0  0  0  0
  -27.4490  -27.5480   19.8680 C   0  0  0  0  0  0  0  0  0  0  0  0
  -23.5040  -30.4140   21.4440 C   0  0  0  0  0  3  0  0  0  0  0  0
  -25.0120  -29.0070   19.9450 C   0  0  0  0  0  0  0  0  0  0  0  0
  -26.0250  -30.8520   21.2870 C   0  0  0  0  0  2  0  0  0  0  0  0
  -26.1560  -29.5220   20.5690 C   0  0  0  0  0  0  0  0  0  0  0  0
  -27.3760  -28.8020   20.5270 C   0  0  0  0  0  3  0  0  0  0  0  0
  -26.2810  -27.0660   19.2250 C   0  0  0  0  0  3  0  0  0  0  0  0
  -25.0710  -27.7790   19.2690 C   0  0  0  0  0  3  0  0  0  0  0  0
  -23.7430  -29.8240   20.0300 C   0  0  0  0  0  2  0  0  0  0  0  0
  -24.7460  -31.0210   22.0230 N   0  0  0  0  0  0  0  0  0  0  0  0
  -23.5630  -31.9690   23.7100 O   0  0  0  0  0  0  0  0  0  0  0  0
  -22.8790  -29.3200   22.3410 C   0  0  0  0  0  0  0  0  0  0  0  0
  -21.5610  -29.1070   22.1970 N   0  0  0  0  0  0  0  0  0  0  0  0
  -23.5780  -28.6710   23.1230 O   0  0  0  0  0  0  0  0  0  0  0  0
  -21.0560  -29.6870   21.5390 H   0  0  0  0  0  0  0  0  0  0  0  0
  -18.2160  -27.8090   22.6310 C   0  0  0  0  0  0  0  0  0  0  0  0
  -20.7690  -28.1050   22.9090 C   0  0  0  0  0  3  0  0  0  0  0  0
  -20.9000  -26.7150   22.2430 C   0  0  0  0  0  2  0  0  0  0  0  0
  -19.8000  -26.4330   21.2150 C   0  0  0  0  0  2  0  0  0  0  0  0
  -18.4180  -26.5080   21.8730 C   0  0  0  0  0  2  0  0  0  0  0  0
  -19.3200  -28.5660   23.1040 C   0  0  0  0  0  0  0  0  0  0  0  0
  -19.0770  -29.7850   23.7730 C   0  0  0  0  0  3  0  0  0  0  0  0
  -17.7640  -30.2480   23.9730 C   0  0  0  0  0  3  0  0  0  0  0  0
  -16.6740  -29.4860   23.5170 C   0  0  0  0  0  3  0  0  0  0  0  0
  -16.9000  -28.2680   22.8520 C   0  0  0  0  0  3  0  0  0  0  0  0
  -25.9170  -32.3970   23.8270 C   0  0  0  0  0  3  0  0  0  0  0  0
  -26.4260  -31.5990   25.0900 C   0  0  1  0  0  0  0  0  0  0  0  0
  -25.3180  -31.3050   26.1270 C   0  0  0  0  0  1  0  0  0  0  0  0
  -27.0480  -30.2480   24.6670 C   0  0  0  0  0  1  0  0  0  0  0  0
  -27.5450  -32.3990   25.7990 C   0  0  0  0  0  1  0  0  0  0  0  0
  -25.5760  -33.7800   24.1900 N   0  0  0  0  0  0  0  0  0  0  0  0
  -25.9020  -34.8580   23.4640 C   0  0  0  0  0  0  0  0  0  0  0  0
  -26.5920  -34.7950   22.4430 O   0  0  0  0  0  0  0  0  0  0  0  0
  -24.9630  -33.9010   24.9820 H   0  0  0  0  0  0  0  0  0  0  0  0
  -24.1500  -36.6300   23.1190 C   0  0  0  0  0  1  0  0  0  0  0  0
  -25.3790  -36.2230   23.9490 C   0  0  0  0  0  3  0  0  0  0  0  0
  -27.4700  -37.1260   24.8640 C   0  0  0  0  0  1  0  0  0  0  0  0
  -26.3940  -37.2970   23.8910 N   0  0  0  0  0  0  0  0  0  0  0  0
  -25.9670  -38.2070   24.0460 H   0  0  0  0  0  0  0  0  0  0  0  0
  1  3  2  0
  2  1  1  0
  2 52  1  0
  4  2  1  0
  5 17  1  0
  6 11  1  0
  7  8  1  0
  7  6  1  0
  9  8  1  0
  9 23  1  0
  9 10  1  0
 11  5  1  0
 11 10  1  0
 12  5  2  0
 13  1  1  0
 13 18  1  0
 14 13  2  0
 15 17  1  0
 15 18  1  0
 16 14  1  0
 16 15  2  0
 17 19  1  0
 20 21  2  0
 21 40  1  0
 22 21  1  0
 22 25  1  0
 23 24  1  0
 23 20  1  0
 24 22  2  0
 25 26  1  0
 26 27  2  0
 28 31  1  0
 28 27  1  0
 29 28  2  0
 30 29  1  0
 30 25  2  0
 31 32  1  0
 32 37  2  0
 32 33  1  0
 33 34  2  0
 34 35  1  0
 35 39  1  0
 36 35  2  0
 37 36  1  0
 38 37  1  0
 40 41  1  0
 41 44  1  0
 41 43  1  0
 42 40  2  0
 45 20  1  0
 45 46  1  0
 47 45  1  0
 48 50  1  0
 48 14  1  0
 49 48  1  0
 52 51  1  0
 53 52  1  0
 54 53  2  0
 55 56  1  0
 55 53  1  0
 57 68  2  0
 58 56  1  0
 58 63  1  0
 59 67  1  0
 59 69  1  0
 60 66  1  0
 60 62  1  0
 61 67  1  0
 62 61  1  0
 63 62  2  0
 64 65  1  0
 64 58  2  0
 65 60  2  0
 66 59  1  0
 67 57  1  0
 69 71  2  0
 70 69  1  0
 72 70  1  0
 73 82  2  0
 73 78  1  0
 74 70  1  0
 74 78  1  0
 75 74  1  0
 76 77  1  0
 76 75  1  0
 77 73  1  0
 78 79  2  0
 79 80  1  0
 81 80  2  0
 82 81  1  0
 83 57  1  0
 83 88  1  0
 83 84  1  0
 84 87  1  1
 84 85  1  0
 86 84  1  0
 88 91  1  0
 89 93  1  0
 89 88  1  0
 90 89  2  0
 93 92  1  0
 95 93  1  0
 95 96  1  0
 95 94  1  0
M  ISO  4   5 100  17 100  55 101  56 101
M  END
>  <TORSDO>  (51) 
F 20

>  <SCORE>  (51) 
-12.780

>  <name>  (51) 
50

>  <ligand_id>  (51) 
50

>  <original_smiles>  (51) 
[H]c1c([H])c([H])c2c(c1[H])C([H])([H])C([H])([H])C([H])([H])C2([H])N([H])C(=O)C1([H])N(C(=O)C([H])(N([H])C(=O)C([H])(N([H])C([H])([H])[H])C([H])([H])[H])C(C([H])([H])[H])(C([H])([H])[H])C([H])([H])[H])C([H])([H])c2c([H])c(OC([H])([H])C(=O)C([H])(N([H])C(=O)c3sc(N([H])C(=O)N4C([H])([H])C([H])([H])C([H])([H])C([H])(n5nc(-c6c([H])c([H])c(Oc7c([H])c([H])c(F)c([H])c7F)c([H])c6[H])c(C(=O)N([H])[H])c5N([H])[H])C4([H])[H])nc3N([H])[H])C([H])([H])[H])c([H])c([H])c2C1([H])[H]

>  <smiles>  (51) 
[H]c1c([H])c([H])c2c(c1[H])C([H])([H])C([H])([H])C([H])([H])C2([H])N([H])C(=O)C1([H])N(C(=O)C([H])(N([H])C(=O)C([H])(N([H])C([H])([H])[H])C([H])([H])[H])C(C([H])([H])[H])(C([H])([H])[H])C([H])([H])[H])C([H])([H])c2c([H])c(OC([H])([H])C(=O)C([H])(N([H])C(=O)c3sc(N([H])C(=O)N4C([H])([H])C([H])([H])C([H])([H])C([H])(n5nc(-c6c([H])c([H])c(Oc7c([H])c([H])c(F)c([H])c7F)c([H])c6[H])c(C(=O)N([H])[H])c5N([H])[H])C4([H])[H])nc3N([H])[H])C([H])([H])[H])c([H])c([H])c2C1([H])[H]

$$$$
51:0:0
     RDKit          3D

 95103  0  0  1  0  0  0  0  0999 V2000
  -28.0950  -21.2490   20.0350 C   0  0  0  0  0  0  0  0  0  0  0  0
  -29.3010  -20.6630   20.2760 N   0  0  0  0  0  0  0  0  0  0  0  0
  -27.1740  -20.4940   19.6930 O   0  0  0  0  0  0  0  0  0  0  0  0
  -30.0160  -21.2000   20.7440 H   0  0  0  0  0  0  0  0  0  0  0  0
  -30.0850  -17.5200   18.7400 C   0  0  0  0  0  3  0  0  0  0  0  0
  -29.7590  -18.9190   18.6390 C   0  0  0  0  0  0  0  0  0  0  0  0
  -30.0810  -17.1820   20.0730 C   0  0  0  0  0  0  0  0  0  0  0  0
  -29.6090  -19.3550   19.9350 C   0  0  0  0  0  0  0  0  0  0  0  0
  -29.5730  -19.7520   17.3800 C   0  0  0  0  0  1  0  0  0  0  0  0
  -29.7800  -18.3080   20.8330 O   0  0  0  0  0  0  0  0  0  0  0  0
  -30.8890  -14.8290   20.1510 C   0  0  0  0  0  0  0  0  0  0  0  0
  -30.6470  -12.5890   19.1240 C   0  0  0  0  0  2  0  0  0  0  0  0
  -29.6780  -12.7470   17.9330 C   0  0  0  0  0  2  0  0  0  0  0  0
  -28.2170  -12.5850   18.3960 C   0  0  0  0  0  2  0  0  0  0  0  0
  -27.8910  -13.4590   19.6360 C   0  0  0  0  0  3  0  0  0  0  0  0
  -28.9680  -13.2820   20.7310 C   0  0  0  0  0  2  0  0  0  0  0  0
  -30.2770  -13.6010   20.1370 N   0  0  0  0  0  0  0  0  0  0  0  0
  -32.0240  -14.9840   19.6840 O   0  0  0  0  0  0  0  0  0  0  0  0
  -30.1440  -15.8920   20.5840 N   0  0  0  0  0  0  0  0  0  0  0  0
  -29.3630  -15.6430   21.1680 H   0  0  0  0  0  0  0  0  0  0  0  0
  -25.5210  -14.0840   20.4040 C   0  0  0  0  0  0  0  0  0  0  0  0
  -24.4550  -13.3140   20.7980 C   0  0  0  0  0  0  0  0  0  0  0  0
  -24.9070  -11.9610   20.7520 C   0  0  0  0  0  0  0  0  0  0  0  0
  -26.5490  -13.1910   20.1440 N   0  0  0  0  0  0  0  0  0  0  0  0
  -26.1880  -11.9110   20.4140 N   0  0  0  0  0  0  0  0  0  0  0  0
  -24.1730  -10.7030   20.9570 C   0  0  0  0  0  0  0  0  0  0  0  0
  -24.5890   -9.7540   21.9150 C   0  0  0  0  0  3  0  0  0  0  0  0
  -23.8610   -8.5590   22.1010 C   0  0  0  0  0  3  0  0  0  0  0  0
  -22.7030   -8.3080   21.3270 C   0  0  0  0  0  0  0  0  0  0  0  0
  -22.3080   -9.2460   20.3560 C   0  0  0  0  0  3  0  0  0  0  0  0
  -23.0370  -10.4330   20.1690 C   0  0  0  0  0  3  0  0  0  0  0  0
  -21.9470   -7.1650   21.4190 O   0  0  0  0  0  0  0  0  0  0  0  0
  -21.8490   -6.4600   22.5920 C   0  0  0  0  0  0  0  0  0  0  0  0
  -21.2960   -7.0310   23.7600 C   0  0  0  0  0  3  0  0  0  0  0  0
  -21.1520   -6.2510   24.9240 C   0  0  0  0  0  3  0  0  0  0  0  0
  -21.5480   -4.9000   24.9200 C   0  0  0  0  0  0  0  0  0  0  0  0
  -22.0930   -4.3280   23.7560 C   0  0  0  0  0  3  0  0  0  0  0  0
  -22.2400   -5.1060   22.5950 C   0  0  0  0  0  0  0  0  0  0  0  0
  -22.7460   -4.5460   21.4700 F   0  0  0  0  0  0  0  0  0  0  0  0
  -21.4020   -4.1480   26.0350 F   0  0  0  0  0  0  0  0  0  0  0  0
  -23.0680  -13.8020   21.1020 C   0  0  0  0  0  0  0  0  0  0  0  0
  -22.3540  -13.1080   21.9830 N   0  0  0  0  0  0  0  0  0  0  0  0
  -22.6200  -14.8240   20.5850 O   0  0  0  0  0  0  0  0  0  0  0  0
  -22.7260  -12.2750   22.4100 H   0  0  0  0  0  0  0  0  0  0  0  0
  -21.4260  -13.4170   22.2340 H   0  0  0  0  0  0  0  0  0  0  0  0
  -25.6970  -15.4520   20.2360 N   0  0  0  0  0  0  0  0  0  0  0  0
  -24.9380  -16.1140   20.3650 H   0  0  0  0  0  0  0  0  0  0  0  0
  -26.5350  -15.8890   19.8700 H   0  0  0  0  0  0  0  0  0  0  0  0
  -26.8230  -23.0960   18.9750 C   0  0  0  0  0  1  0  0  0  0  0  0
  -26.7980  -22.8380   21.4980 C   0  0  0  0  0  1  0  0  0  0  0  0
  -27.6850  -22.7890   20.2270 C   0  0  1  0  0  0  0  0  0  0  0  0
  -28.7540  -23.9680   20.2660 C   0  0  0  0  0  0  0  0  0  0  0  0
  -29.8700  -23.8110   19.7580 O   0  0  0  0  0  0  0  0  0  0  0  0
  -28.3790  -25.3590   20.9640 C   0  0  0  0  0  2  0  0  0  0  0  0
  -28.5580  -26.6310   20.2190 O   0  0  0  0  0  0  0  0  0  0  0  0
  -24.6100  -31.8680   23.2850 C   0  0  0  0  0  0  0  0  0  0  0  0
  -27.4390  -27.4750   20.1890 C   0  0  0  0  0  0  0  0  0  0  0  0
  -23.4930  -30.4800   21.5790 C   0  0  0  0  0  3  0  0  0  0  0  0
  -25.0280  -29.0100   20.1610 C   0  0  0  0  0  0  0  0  0  0  0  0
  -26.0260  -30.8760   21.4730 C   0  0  0  0  0  2  0  0  0  0  0  0
  -26.1670  -29.5190   20.7990 C   0  0  0  0  0  0  0  0  0  0  0  0
  -27.3790  -28.7640   20.8040 C   0  0  0  0  0  3  0  0  0  0  0  0
  -26.2840  -27.0230   19.5220 C   0  0  0  0  0  3  0  0  0  0  0  0
  -25.0870  -27.7650   19.5140 C   0  0  0  0  0  3  0  0  0  0  0  0
  -23.7660  -29.8510   20.1890 C   0  0  0  0  0  2  0  0  0  0  0  0
  -24.7280  -31.0900   22.1720 N   0  0  0  0  0  0  0  0  0  0  0  0
  -23.5050  -32.0960   23.7960 O   0  0  0  0  0  0  0  0  0  0  0  0
  -22.8340  -29.4180   22.4920 C   0  0  0  0  0  0  0  0  0  0  0  0
  -21.5260  -29.1830   22.3120 N   0  0  0  0  0  0  0  0  0  0  0  0
  -23.5100  -28.8030   23.3220 O   0  0  0  0  0  0  0  0  0  0  0  0
  -21.0340  -29.7270   21.6140 H   0  0  0  0  0  0  0  0  0  0  0  0
  -18.1920  -27.8410   22.6710 C   0  0  0  0  0  0  0  0  0  0  0  0
  -20.7270  -28.1920   23.0350 C   0  0  0  0  0  3  0  0  0  0  0  0
  -20.9070  -26.7830   22.4250 C   0  0  0  0  0  2  0  0  0  0  0  0
  -19.8500  -26.4400   21.3710 C   0  0  0  0  0  2  0  0  0  0  0  0
  -18.4520  -26.5080   21.9870 C   0  0  0  0  0  2  0  0  0  0  0  0
  -19.2640  -28.6360   23.1580 C   0  0  0  0  0  0  0  0  0  0  0  0
  -18.9770  -29.8710   23.7750 C   0  0  0  0  0  3  0  0  0  0  0  0
  -17.6460  -30.3140   23.9080 C   0  0  0  0  0  3  0  0  0  0  0  0
  -16.5870  -29.5200   23.4320 C   0  0  0  0  0  3  0  0  0  0  0  0
  -16.8610  -28.2820   22.8200 C   0  0  0  0  0  3  0  0  0  0  0  0
  -25.8540  -32.5250   23.9540 C   0  0  0  0  0  3  0  0  0  0  0  0
  -26.3070  -31.7900   25.2730 C   0  0  1  0  0  0  0  0  0  0  0  0
  -25.1580  -31.5660   26.2850 C   0  0  0  0  0  1  0  0  0  0  0  0
  -26.9260  -30.4120   24.9480 C   0  0  0  0  0  1  0  0  0  0  0  0
  -27.4090  -32.6150   25.9780 C   0  0  0  0  0  1  0  0  0  0  0  0
  -25.5170  -33.9280   24.2350 N   0  0  0  0  0  0  0  0  0  0  0  0
  -25.8770  -34.9670   23.4700 C   0  0  0  0  0  0  0  0  0  0  0  0
  -26.5970  -34.8450   22.4740 O   0  0  0  0  0  0  0  0  0  0  0  0
  -24.8810  -34.0950   25.0010 H   0  0  0  0  0  0  0  0  0  0  0  0
  -24.1730  -36.7500   22.9750 C   0  0  0  0  0  1  0  0  0  0  0  0
  -25.3590  -36.3640   23.8730 C   0  0  0  0  0  3  0  0  0  0  0  0
  -27.4260  -37.2800   24.8350 C   0  0  0  0  0  1  0  0  0  0  0  0
  -26.3960  -37.4170   23.8070 N   0  0  0  0  0  0  0  0  0  0  0  0
  -25.9780  -38.3390   23.8960 H   0  0  0  0  0  0  0  0  0  0  0  0
  1 51  1  0
  1  2  1  0
  2  4  1  0
  3  1  2  0
  5  7  2  0
  6  5  1  0
  6  8  2  0
  7 19  1  0
  7 10  1  0
  8  2  1  0
  8 10  1  0
  9  6  1  0
 11 19  1  0
 12 17  1  0
 13 14  1  0
 13 12  1  0
 15 14  1  0
 15 24  1  0
 15 16  1  0
 17 11  1  0
 17 16  1  0
 18 11  2  0
 19 20  1  0
 21 22  2  0
 22 41  1  0
 23 22  1  0
 23 26  1  0
 24 21  1  0
 24 25  1  0
 25 23  2  0
 26 27  1  0
 27 28  2  0
 29 32  1  0
 29 28  1  0
 30 29  2  0
 31 30  1  0
 31 26  2  0
 32 33  1  0
 33 38  2  0
 33 34  1  0
 34 35  2  0
 36 35  1  0
 36 40  1  0
 37 36  2  0
 38 37  1  0
 39 38  1  0
 41 42  1  0
 42 45  1  0
 42 44  1  0
 43 41  2  0
 46 47  1  0
 46 21  1  0
 48 46  1  0
 51 49  1  6
 51 52  1  0
 51 50  1  0
 52 54  1  0
 53 52  2  0
 55 54  1  0
 56 67  2  0
 57 55  1  0
 57 62  1  0
 58 66  1  0
 58 68  1  0
 59 65  1  0
 59 61  1  0
 60 66  1  0
 61 62  2  0
 61 60  1  0
 63 57  2  0
 64 63  1  0
 64 59  2  0
 65 58  1  0
 66 56  1  0
 68 70  2  0
 69 68  1  0
 71 69  1  0
 72 81  2  0
 72 77  1  0
 73 69  1  0
 73 77  1  0
 74 73  1  0
 75 76  1  0
 75 74  1  0
 76 72  1  0
 77 78  2  0
 78 79  1  0
 80 79  2  0
 81 80  1  0
 82 56  1  0
 82 87  1  0
 82 83  1  0
 83 86  1  1
 83 84  1  0
 85 83  1  0
 87 90  1  0
 88 92  1  0
 88 87  1  0
 89 88  2  0
 92 91  1  0
 94 92  1  0
 94 95  1  0
 94 93  1  0
M  ISO  4  11 100  19 100  54 101  55 101
M  END
>  <TORSDO>  (52) 
F 20

>  <SCORE>  (52) 
-13.679

>  <name>  (52) 
51

>  <ligand_id>  (52) 
51

>  <original_smiles>  (52) 
[H]c1c([H])c([H])c2c(c1[H])C([H])([H])C([H])([H])C([H])([H])C2([H])N([H])C(=O)C1([H])N(C(=O)C([H])(N([H])C(=O)C([H])(N([H])C([H])([H])[H])C([H])([H])[H])C(C([H])([H])[H])(C([H])([H])[H])C([H])([H])[H])C([H])([H])c2c([H])c(OC([H])([H])C(=O)C(C(=O)N([H])c3oc(N([H])C(=O)N4C([H])([H])C([H])([H])C([H])([H])C([H])(n5nc(-c6c([H])c([H])c(Oc7c([H])c([H])c(F)c([H])c7F)c([H])c6[H])c(C(=O)N([H])[H])c5N([H])[H])C4([H])[H])c([H])c3C([H])([H])[H])(C([H])([H])[H])C([H])([H])[H])c([H])c([H])c2C1([H])[H]

>  <smiles>  (52) 
[H]c1c([H])c([H])c2c(c1[H])C([H])([H])C([H])([H])C([H])([H])C2([H])N([H])C(=O)C1([H])N(C(=O)C([H])(N([H])C(=O)C([H])(N([H])C([H])([H])[H])C([H])([H])[H])C(C([H])([H])[H])(C([H])([H])[H])C([H])([H])[H])C([H])([H])c2c([H])c(OC([H])([H])C(=O)C(C(=O)N([H])c3oc(N([H])C(=O)N4C([H])([H])C([H])([H])C([H])([H])C([H])(n5nc(-c6c([H])c([H])c(Oc7c([H])c([H])c(F)c([H])c7F)c([H])c6[H])c(C(=O)N([H])[H])c5N([H])[H])C4([H])[H])c([H])c3C([H])([H])[H])(C([H])([H])[H])C([H])([H])[H])c([H])c([H])c2C1([H])[H]

$$$$
52:0:0
     RDKit          3D

 94102  0  0  1  0  0  0  0  0999 V2000
  -29.3720  -23.4300   20.8100 C   0  0  0  0  0  3  0  0  0  0  0  0
  -30.4140  -22.6900   21.2600 C   0  0  0  0  0  0  0  0  0  0  0  0
  -31.3440  -20.3810   21.4450 C   0  0  0  0  0  3  0  0  0  0  0  0
  -30.3560  -21.2420   21.1280 C   0  0  0  0  0  3  0  0  0  0  0  0
  -30.5270  -14.5560   19.6270 C   0  0  0  0  0  0  0  0  0  0  0  0
  -29.9660  -12.5320   18.3340 C   0  0  0  0  0  2  0  0  0  0  0  0
  -28.8350  -12.8230   17.3300 C   0  0  0  0  0  2  0  0  0  0  0  0
  -27.4580  -12.6350   17.9940 C   0  0  0  0  0  2  0  0  0  0  0  0
  -27.3440  -13.3780   19.3520 C   0  0  0  0  0  3  0  0  0  0  0  0
  -28.5690  -13.0850   20.2480 C   0  0  0  0  0  2  0  0  0  0  0  0
  -29.7880  -13.4250   19.4890 N   0  0  0  0  0  0  0  0  0  0  0  0
  -31.4510  -14.8500   18.8590 O   0  0  0  0  0  0  0  0  0  0  0  0
  -31.3270  -18.9510   21.3380 C   0  0  0  0  0  0  0  0  0  0  0  0
  -32.3840  -18.0760   21.4800 C   0  0  0  0  0  0  0  0  0  0  0  0
  -30.7410  -16.6080   20.9290 C   0  0  0  0  0  0  0  0  0  0  0  0
  -33.8080  -18.3910   21.8310 C   0  0  0  0  0  1  0  0  0  0  0  0
  -32.0290  -16.7410   21.2570 N   0  0  0  0  0  0  0  0  0  0  0  0
  -30.1630  -15.3570   20.6350 N   0  0  0  0  0  0  0  0  0  0  0  0
  -29.8430  -18.1110   20.9270 S   0  0  0  0  0  0  0  0  0  0  0  0
  -29.3090  -15.1230   21.1120 H   0  0  0  0  0  0  0  0  0  0  0  0
  -25.0990  -13.9020   20.4980 C   0  0  0  0  0  0  0  0  0  0  0  0
  -24.1090  -13.0900   20.9840 C   0  0  0  0  0  0  0  0  0  0  0  0
  -24.5590  -11.7490   20.7740 C   0  0  0  0  0  0  0  0  0  0  0  0
  -26.0910  -13.0530   20.0290 N   0  0  0  0  0  0  0  0  0  0  0  0
  -25.7770  -11.7500   20.2480 N   0  0  0  0  0  0  0  0  0  0  0  0
  -23.8760  -10.4670   20.9880 C   0  0  0  0  0  0  0  0  0  0  0  0
  -24.3940   -9.4930   21.8690 C   0  0  0  0  0  3  0  0  0  0  0  0
  -23.7090   -8.2750   22.0730 C   0  0  0  0  0  3  0  0  0  0  0  0
  -22.4930   -8.0230   21.3950 C   0  0  0  0  0  0  0  0  0  0  0  0
  -21.9930   -8.9860   20.5030 C   0  0  0  0  0  3  0  0  0  0  0  0
  -22.6780  -10.1960   20.2970 C   0  0  0  0  0  3  0  0  0  0  0  0
  -21.7730   -6.8580   21.5120 O   0  0  0  0  0  0  0  0  0  0  0  0
  -21.7450   -6.1430   22.6830 C   0  0  0  0  0  0  0  0  0  0  0  0
  -21.3000   -6.7150   23.8950 C   0  0  0  0  0  3  0  0  0  0  0  0
  -21.2220   -5.9250   25.0590 C   0  0  0  0  0  3  0  0  0  0  0  0
  -21.5770   -4.5640   25.0120 C   0  0  0  0  0  0  0  0  0  0  0  0
  -22.0150   -3.9910   23.8060 C   0  0  0  0  0  3  0  0  0  0  0  0
  -22.0950   -4.7790   22.6430 C   0  0  0  0  0  0  0  0  0  0  0  0
  -22.4980   -4.2170   21.4780 F   0  0  0  0  0  0  0  0  0  0  0  0
  -21.4950   -3.8030   26.1280 F   0  0  0  0  0  0  0  0  0  0  0  0
  -22.7790  -13.5250   21.5260 C   0  0  0  0  0  0  0  0  0  0  0  0
  -22.2210  -12.7660   22.4630 N   0  0  0  0  0  0  0  0  0  0  0  0
  -22.2480  -14.5710   21.1550 O   0  0  0  0  0  0  0  0  0  0  0  0
  -22.6650  -11.9170   22.7810 H   0  0  0  0  0  0  0  0  0  0  0  0
  -21.3370  -13.0390   22.8690 H   0  0  0  0  0  0  0  0  0  0  0  0
  -25.2340  -15.2830   20.3970 N   0  0  0  0  0  0  0  0  0  0  0  0
  -24.5000  -15.9250   20.6770 H   0  0  0  0  0  0  0  0  0  0  0  0
  -26.0170  -15.7490   19.9530 H   0  0  0  0  0  0  0  0  0  0  0  0
  -29.2390  -24.9040   20.8520 C   0  0  0  0  0  0  0  0  0  0  0  0
  -29.9790  -25.6550   21.5010 O   0  0  0  0  0  0  0  0  0  0  0  0
  -28.0770  -25.5050   20.0490 C   0  0  0  0  0  2  0  0  0  0  0  0
  -28.1460  -26.9330   20.0780 O   0  0  0  0  0  0  0  0  0  0  0  0
  -24.3360  -31.9850   23.2660 C   0  0  0  0  0  0  0  0  0  0  0  0
  -26.9500  -27.6090   20.0950 C   0  0  0  0  0  0  0  0  0  0  0  0
  -23.1020  -30.5800   21.6450 C   0  0  0  0  0  3  0  0  0  0  0  0
  -24.5340  -29.0680   20.1750 C   0  0  0  0  0  0  0  0  0  0  0  0
  -25.6150  -30.9720   21.3850 C   0  0  0  0  0  2  0  0  0  0  0  0
  -25.6980  -29.6080   20.7360 C   0  0  0  0  0  0  0  0  0  0  0  0
  -26.9070  -28.8860   20.6920 C   0  0  0  0  0  3  0  0  0  0  0  0
  -25.7710  -27.0740   19.5260 C   0  0  0  0  0  3  0  0  0  0  0  0
  -24.5640  -27.7980   19.5680 C   0  0  0  0  0  3  0  0  0  0  0  0
  -23.2840  -29.9120   20.2560 C   0  0  0  0  0  2  0  0  0  0  0  0
  -24.3700  -31.1930   22.1570 N   0  0  0  0  0  0  0  0  0  0  0  0
  -23.2650  -32.2430   23.8340 O   0  0  0  0  0  0  0  0  0  0  0  0
  -22.4870  -29.5440   22.6130 C   0  0  0  0  0  0  0  0  0  0  0  0
  -21.1800  -29.2840   22.4590 N   0  0  0  0  0  0  0  0  0  0  0  0
  -23.1840  -28.9770   23.4590 O   0  0  0  0  0  0  0  0  0  0  0  0
  -20.6780  -29.8010   21.7500 H   0  0  0  0  0  0  0  0  0  0  0  0
  -17.8820  -27.8590   22.8380 C   0  0  0  0  0  0  0  0  0  0  0  0
  -20.3950  -28.3210   23.2300 C   0  0  0  0  0  3  0  0  0  0  0  0
  -20.6340  -26.8800   22.7280 C   0  0  0  0  0  2  0  0  0  0  0  0
  -19.6170  -26.4290   21.6750 C   0  0  0  0  0  2  0  0  0  0  0  0
  -18.1940  -26.4980   22.2390 C   0  0  0  0  0  2  0  0  0  0  0  0
  -18.9170  -28.7210   23.2880 C   0  0  0  0  0  0  0  0  0  0  0  0
  -18.5750  -29.9880   23.8070 C   0  0  0  0  0  3  0  0  0  0  0  0
  -17.2320  -30.3980   23.8780 C   0  0  0  0  0  3  0  0  0  0  0  0
  -16.2110  -29.5350   23.4470 C   0  0  0  0  0  3  0  0  0  0  0  0
  -16.5350  -28.2670   22.9330 C   0  0  0  0  0  3  0  0  0  0  0  0
  -25.6310  -32.6240   23.8570 C   0  0  0  0  0  3  0  0  0  0  0  0
  -26.1760  -31.8620   25.1270 C   0  0  1  0  0  0  0  0  0  0  0  0
  -25.0990  -31.6000   26.2070 C   0  0  0  0  0  1  0  0  0  0  0  0
  -26.7800  -30.4970   24.7230 C   0  0  0  0  0  1  0  0  0  0  0  0
  -27.3180  -32.6770   25.7770 C   0  0  0  0  0  1  0  0  0  0  0  0
  -25.3280  -34.0240   24.1790 N   0  0  0  0  0  0  0  0  0  0  0  0
  -25.6250  -35.0650   23.3920 C   0  0  0  0  0  0  0  0  0  0  0  0
  -26.2570  -34.9510   22.3380 O   0  0  0  0  0  0  0  0  0  0  0  0
  -24.7650  -34.1870   25.0020 H   0  0  0  0  0  0  0  0  0  0  0  0
  -23.8660  -36.8330   23.0750 C   0  0  0  0  0  1  0  0  0  0  0  0
  -25.1430  -36.4570   23.8450 C   0  0  0  0  0  3  0  0  0  0  0  0
  -27.3020  -37.3720   24.5730 C   0  0  0  0  0  1  0  0  0  0  0  0
  -26.1600  -37.5180   23.6740 N   0  0  0  0  0  0  0  0  0  0  0  0
  -25.7530  -38.4380   23.8250 H   0  0  0  0  0  0  0  0  0  0  0  0
  -31.4980  -23.2530   21.8190 O   0  0  0  0  0  0  0  0  0  0  0  0
  -32.0950  -22.5570   22.0570 H   0  0  0  0  0  0  0  0  0  0  0  0
  1 49  1  0
  1  2  2  0
  2 93  1  0
  4  2  1  0
  4  3  2  0
  5 18  1  0
  6 11  1  0
  7  8  1  0
  7  6  1  0
  9  8  1  0
  9 24  1  0
  9 10  1  0
 11  5  1  0
 11 10  1  0
 12  5  2  0
 13  3  1  0
 13 14  2  0
 14 16  1  0
 15 17  2  0
 17 14  1  0
 18 15  1  0
 18 20  1  0
 19 15  1  0
 19 13  1  0
 21 22  2  0
 22 41  1  0
 23 22  1  0
 23 26  1  0
 24 25  1  0
 24 21  1  0
 25 23  2  0
 26 27  1  0
 27 28  2  0
 29 32  1  0
 29 28  1  0
 30 29  2  0
 31 30  1  0
 31 26  2  0
 32 33  1  0
 33 34  1  0
 34 35  2  0
 36 35  1  0
 36 40  1  0
 37 36  2  0
 38 33  2  0
 38 37  1  0
 39 38  1  0
 41 42  1  0
 42 44  1  0
 42 45  1  0
 43 41  2  0
 46 21  1  0
 46 47  1  0
 48 46  1  0
 49 50  2  0
 51 52  1  0
 51 49  1  0
 52 54  1  0
 53 64  2  0
 54 59  1  0
 55 63  1  0
 55 65  1  0
 56 62  1  0
 56 58  1  0
 57 63  1  0
 58 57  1  0
 59 58  2  0
 60 61  1  0
 60 54  2  0
 61 56  2  0
 62 55  1  0
 63 53  1  0
 65 67  2  0
 66 65  1  0
 68 66  1  0
 69 78  2  0
 69 74  1  0
 70 66  1  0
 70 74  1  0
 71 70  1  0
 72 73  1  0
 72 71  1  0
 73 69  1  0
 74 75  2  0
 75 76  1  0
 77 76  2  0
 78 77  1  0
 79 53  1  0
 79 84  1  0
 79 80  1  0
 80 83  1  1
 80 81  1  0
 82 80  1  0
 84 87  1  0
 85 89  1  0
 85 84  1  0
 86 85  2  0
 89 88  1  0
 91 92  1  0
 91 89  1  0
 91 90  1  0
 93 94  1  0
M  ISO  4   5 100  18 100  51 101  52 101
M  END
>  <TORSDO>  (53) 
F 20

>  <SCORE>  (53) 
-10.644

>  <name>  (53) 
52

>  <ligand_id>  (53) 
52

>  <original_smiles>  (53) 
[H]OC(=C([H])C(=O)C([H])([H])Oc1c([H])c([H])c2c(c1[H])C([H])([H])N(C(=O)C([H])(N([H])C(=O)C([H])(N([H])C([H])([H])[H])C([H])([H])[H])C(C([H])([H])[H])(C([H])([H])[H])C([H])([H])[H])C([H])(C(=O)N([H])C1([H])c3c([H])c([H])c([H])c([H])c3C([H])([H])C([H])([H])C1([H])[H])C2([H])[H])C([H])=C([H])c1sc(N([H])C(=O)N2C([H])([H])C([H])([H])C([H])([H])C([H])(n3nc(-c4c([H])c([H])c(Oc5c([H])c([H])c(F)c([H])c5F)c([H])c4[H])c(C(=O)N([H])[H])c3N([H])[H])C2([H])[H])nc1C([H])([H])[H]

>  <smiles>  (53) 
[H]OC(=C([H])C(=O)C([H])([H])Oc1c([H])c([H])c2c(c1[H])C([H])([H])N(C(=O)C([H])(N([H])C(=O)C([H])(N([H])C([H])([H])[H])C([H])([H])[H])C(C([H])([H])[H])(C([H])([H])[H])C([H])([H])[H])C([H])(C(=O)N([H])C1([H])c3c([H])c([H])c([H])c([H])c3C([H])([H])C([H])([H])C1([H])[H])C2([H])[H])C([H])=C([H])c1sc(N([H])C(=O)N2C([H])([H])C([H])([H])C([H])([H])C([H])(n3nc(-c4c([H])c([H])c(Oc5c([H])c([H])c(F)c([H])c5F)c([H])c4[H])c(C(=O)N([H])[H])c3N([H])[H])C2([H])[H])nc1C([H])([H])[H]

$$$$
53:0:0
     RDKit          3D

 94102  0  0  1  0  0  0  0  0999 V2000
  -30.4170  -22.4650   21.2930 C   0  0  0  0  0  0  0  0  0  0  0  0
  -30.0400  -21.2340   21.6650 N   0  0  0  0  0  0  0  0  0  0  0  0
  -31.4350  -23.0390   21.6950 O   0  0  0  0  0  0  0  0  0  0  0  0
  -29.1830  -20.8980   21.2460 H   0  0  0  0  0  0  0  0  0  0  0  0
  -29.4170  -23.1000   20.2920 C   0  0  0  0  0  0  0  0  0  0  0  0
  -28.5440  -22.4290   19.7280 O   0  0  0  0  0  0  0  0  0  0  0  0
  -29.5310  -24.6070   20.0370 C   0  0  0  0  0  2  0  0  0  0  0  0
  -28.3650  -25.4700   22.1590 C   0  0  0  0  0  1  0  0  0  0  0  0
  -28.3490  -25.4060   20.6180 C   0  0  0  0  0  3  0  0  0  0  0  0
  -28.4120  -26.7400   20.1010 O   0  0  0  0  0  0  0  0  0  0  0  0
  -24.5990  -31.8540   23.2230 C   0  0  0  0  0  0  0  0  0  0  0  0
  -27.2320  -27.4490   20.1080 C   0  0  0  0  0  0  0  0  0  0  0  0
  -23.3810  -30.4500   21.5900 C   0  0  0  0  0  3  0  0  0  0  0  0
  -24.8260  -28.9260   20.1470 C   0  0  0  0  0  0  0  0  0  0  0  0
  -25.9000  -30.8280   21.3620 C   0  0  0  0  0  2  0  0  0  0  0  0
  -25.9860  -29.4610   20.7210 C   0  0  0  0  0  0  0  0  0  0  0  0
  -27.1940  -28.7310   20.6950 C   0  0  0  0  0  3  0  0  0  0  0  0
  -26.0570  -26.9260   19.5210 C   0  0  0  0  0  3  0  0  0  0  0  0
  -24.8550  -27.6560   19.5440 C   0  0  0  0  0  3  0  0  0  0  0  0
  -23.5780  -29.7750   20.2070 C   0  0  0  0  0  2  0  0  0  0  0  0
  -24.6460  -31.0590   22.1180 N   0  0  0  0  0  0  0  0  0  0  0  0
  -23.5230  -32.1190   23.7760 O   0  0  0  0  0  0  0  0  0  0  0  0
  -22.7460  -29.4230   22.5540 C   0  0  0  0  0  0  0  0  0  0  0  0
  -21.4290  -29.2050   22.4120 N   0  0  0  0  0  0  0  0  0  0  0  0
  -23.4360  -28.8240   23.3850 O   0  0  0  0  0  0  0  0  0  0  0  0
  -20.9340  -29.7400   21.7130 H   0  0  0  0  0  0  0  0  0  0  0  0
  -18.0910  -27.8910   22.8350 C   0  0  0  0  0  0  0  0  0  0  0  0
  -20.6260  -28.2570   23.1840 C   0  0  0  0  0  3  0  0  0  0  0  0
  -20.8050  -26.8170   22.6520 C   0  0  0  0  0  2  0  0  0  0  0  0
  -19.7500  -26.4220   21.6130 C   0  0  0  0  0  2  0  0  0  0  0  0
  -18.3430  -26.5310   22.2080 C   0  0  0  0  0  2  0  0  0  0  0  0
  -19.1640  -28.7080   23.2800 C   0  0  0  0  0  0  0  0  0  0  0  0
  -18.8770  -29.9780   23.8250 C   0  0  0  0  0  3  0  0  0  0  0  0
  -17.5490  -30.4330   23.9320 C   0  0  0  0  0  3  0  0  0  0  0  0
  -16.4900  -29.6130   23.5050 C   0  0  0  0  0  3  0  0  0  0  0  0
  -16.7620  -28.3440   22.9620 C   0  0  0  0  0  3  0  0  0  0  0  0
  -25.8900  -32.4860   23.8300 C   0  0  0  0  0  3  0  0  0  0  0  0
  -26.4300  -31.7090   25.0940 C   0  0  1  0  0  0  0  0  0  0  0  0
  -25.3540  -31.4520   26.1740 C   0  0  0  0  0  1  0  0  0  0  0  0
  -27.0190  -30.3390   24.6800 C   0  0  0  0  0  1  0  0  0  0  0  0
  -27.5810  -32.5090   25.7490 C   0  0  0  0  0  1  0  0  0  0  0  0
  -25.5800  -33.8810   24.1700 N   0  0  0  0  0  0  0  0  0  0  0  0
  -25.9110  -34.9380   23.4170 C   0  0  0  0  0  0  0  0  0  0  0  0
  -26.5830  -34.8420   22.3860 O   0  0  0  0  0  0  0  0  0  0  0  0
  -24.9800  -34.0290   24.9690 H   0  0  0  0  0  0  0  0  0  0  0  0
  -24.1850  -36.7320   23.0640 C   0  0  0  0  0  1  0  0  0  0  0  0
  -25.4210  -36.3220   23.8810 C   0  0  0  0  0  3  0  0  0  0  0  0
  -27.5490  -37.2020   24.7330 C   0  0  0  0  0  1  0  0  0  0  0  0
  -26.4540  -37.3760   23.7830 N   0  0  0  0  0  0  0  0  0  0  0  0
  -26.0460  -38.2950   23.9350 H   0  0  0  0  0  0  0  0  0  0  0  0
  -30.7390  -20.3530   22.5950 C   0  0  0  0  0  2  0  0  0  0  0  0
  -31.0670  -14.4490   20.1090 C   0  0  0  0  0  0  0  0  0  0  0  0
  -30.6170  -12.3920   18.8180 C   0  0  0  0  0  2  0  0  0  0  0  0
  -29.6070  -12.6840   17.6890 C   0  0  0  0  0  2  0  0  0  0  0  0
  -28.1600  -12.5550   18.2020 C   0  0  0  0  0  2  0  0  0  0  0  0
  -27.9230  -13.3380   19.5210 C   0  0  0  0  0  3  0  0  0  0  0  0
  -29.0320  -13.0190   20.5490 C   0  0  0  0  0  2  0  0  0  0  0  0
  -30.3380  -13.3150   19.9290 N   0  0  0  0  0  0  0  0  0  0  0  0
  -32.0970  -14.6810   19.4660 O   0  0  0  0  0  0  0  0  0  0  0  0
  -32.0370  -18.6130   21.2120 C   0  0  0  0  0  3  0  0  0  0  0  0
  -30.9830  -19.0010   22.0030 C   0  0  0  0  0  0  0  0  0  0  0  0
  -30.8910  -16.6490   21.2810 C   0  0  0  0  0  0  0  0  0  0  0  0
  -31.9760  -17.2740   20.8080 N   0  0  0  0  0  0  0  0  0  0  0  0
  -30.5600  -15.2950   21.0190 N   0  0  0  0  0  0  0  0  0  0  0  0
  -29.8740  -17.6780   22.2800 S   0  0  0  0  0  0  0  0  0  0  0  0
  -29.7350  -14.9570   21.4880 H   0  0  0  0  0  0  0  0  0  0  0  0
  -25.5760  -13.9680   20.3750 C   0  0  0  0  0  0  0  0  0  0  0  0
  -24.5150  -13.2030   20.7820 C   0  0  0  0  0  0  0  0  0  0  0  0
  -24.9490  -11.8450   20.6870 C   0  0  0  0  0  0  0  0  0  0  0  0
  -26.5910  -13.0760   20.0630 N   0  0  0  0  0  0  0  0  0  0  0  0
  -26.2180  -11.7920   20.3040 N   0  0  0  0  0  0  0  0  0  0  0  0
  -24.2120  -10.5900   20.8820 C   0  0  0  0  0  0  0  0  0  0  0  0
  -24.6280   -9.6310   21.8320 C   0  0  0  0  0  3  0  0  0  0  0  0
  -23.8920   -8.4400   22.0150 C   0  0  0  0  0  3  0  0  0  0  0  0
  -22.7280   -8.1990   21.2470 C   0  0  0  0  0  0  0  0  0  0  0  0
  -22.3330   -9.1480   20.2860 C   0  0  0  0  0  3  0  0  0  0  0  0
  -23.0690  -10.3300   20.1030 C   0  0  0  0  0  3  0  0  0  0  0  0
  -21.9660   -7.0600   21.3360 O   0  0  0  0  0  0  0  0  0  0  0  0
  -21.8120   -6.3900   22.5230 C   0  0  0  0  0  0  0  0  0  0  0  0
  -21.2740   -7.0150   23.6680 C   0  0  0  0  0  3  0  0  0  0  0  0
  -21.0690   -6.2700   24.8460 C   0  0  0  0  0  3  0  0  0  0  0  0
  -21.3900   -4.9000   24.8790 C   0  0  0  0  0  0  0  0  0  0  0  0
  -21.9210   -4.2730   23.7380 C   0  0  0  0  0  3  0  0  0  0  0  0
  -22.1290   -5.0160   22.5630 C   0  0  0  0  0  0  0  0  0  0  0  0
  -22.6200   -4.4030   21.4590 F   0  0  0  0  0  0  0  0  0  0  0  0
  -21.1860   -4.1830   26.0080 F   0  0  0  0  0  0  0  0  0  0  0  0
  -23.1450  -13.6950   21.1490 C   0  0  0  0  0  0  0  0  0  0  0  0
  -22.4600  -12.9920   22.0430 N   0  0  0  0  0  0  0  0  0  0  0  0
  -22.6930  -14.7380   20.6780 O   0  0  0  0  0  0  0  0  0  0  0  0
  -22.8400  -12.1470   22.4450 H   0  0  0  0  0  0  0  0  0  0  0  0
  -21.5430  -13.3030   22.3320 H   0  0  0  0  0  0  0  0  0  0  0  0
  -25.7550  -15.3400   20.2280 N   0  0  0  0  0  0  0  0  0  0  0  0
  -25.0080  -16.0040   20.3970 H   0  0  0  0  0  0  0  0  0  0  0  0
  -26.5940  -15.7740   19.8610 H   0  0  0  0  0  0  0  0  0  0  0  0
  1  2  1  0
  1  3  2  0
  2 51  1  0
  4  2  1  0
  5  1  1  0
  6  5  2  0
  7  5  1  0
  7  9  1  0
  9  8  1  0
 10 12  1  0
 10  9  1  0
 11 22  2  0
 12 17  1  0
 13 21  1  0
 13 23  1  0
 14 20  1  0
 14 16  1  0
 15 21  1  0
 16 15  1  0
 17 16  2  0
 18 19  1  0
 18 12  2  0
 19 14  2  0
 20 13  1  0
 21 11  1  0
 23 25  2  0
 24 23  1  0
 26 24  1  0
 27 36  2  0
 27 32  1  0
 28 24  1  0
 28 32  1  0
 29 28  1  0
 30 31  1  0
 30 29  1  0
 31 27  1  0
 32 33  2  0
 33 34  1  0
 35 34  2  0
 36 35  1  0
 37 11  1  0
 37 42  1  0
 37 38  1  0
 38 41  1  1
 38 39  1  0
 40 38  1  0
 42 45  1  0
 43 47  1  0
 43 42  1  0
 44 43  2  0
 47 46  1  0
 49 47  1  0
 49 50  1  0
 49 48  1  0
 52 64  1  0
 53 58  1  0
 54 55  1  0
 54 53  1  0
 56 55  1  0
 56 70  1  0
 56 57  1  0
 58 52  1  0
 58 57  1  0
 59 52  2  0
 60 61  2  0
 61 65  1  0
 61 51  1  0
 62 65  1  0
 63 60  1  0
 63 62  2  0
 64 62  1  0
 64 66  1  0
 67 68  2  0
 68 87  1  0
 69 68  1  0
 69 72  1  0
 70 71  1  0
 70 67  1  0
 71 69  2  0
 72 73  1  0
 73 74  2  0
 75 78  1  0
 75 74  1  0
 76 75  2  0
 77 76  1  0
 77 72  2  0
 78 79  1  0
 79 84  2  0
 79 80  1  0
 80 81  2  0
 81 82  1  0
 82 86  1  0
 83 82  2  0
 84 83  1  0
 85 84  1  0
 87 88  1  0
 88 91  1  0
 88 90  1  0
 89 87  2  0
 92 67  1  0
 92 93  1  0
 94 92  1  0
M  ISO  4   9 101  10 101  52 100  64 100
M  END
>  <TORSDO>  (54) 
F 20

>  <SCORE>  (54) 
-12.872

>  <name>  (54) 
53

>  <ligand_id>  (54) 
53

>  <original_smiles>  (54) 
[H]c1nc(N([H])C(=O)N2C([H])([H])C([H])([H])C([H])([H])C([H])(n3nc(-c4c([H])c([H])c(Oc5c([H])c([H])c(F)c([H])c5F)c([H])c4[H])c(C(=O)N([H])[H])c3N([H])[H])C2([H])[H])sc1C([H])([H])N([H])C(=O)C(=O)C([H])([H])C([H])(Oc1c([H])c([H])c2c(c1[H])C([H])([H])N(C(=O)C([H])(N([H])C(=O)C([H])(N([H])C([H])([H])[H])C([H])([H])[H])C(C([H])([H])[H])(C([H])([H])[H])C([H])([H])[H])C([H])(C(=O)N([H])C1([H])c3c([H])c([H])c([H])c([H])c3C([H])([H])C([H])([H])C1([H])[H])C2([H])[H])C([H])([H])[H]

>  <smiles>  (54) 
[H]c1nc(N([H])C(=O)N2C([H])([H])C([H])([H])C([H])([H])C([H])(n3nc(-c4c([H])c([H])c(Oc5c([H])c([H])c(F)c([H])c5F)c([H])c4[H])c(C(=O)N([H])[H])c3N([H])[H])C2([H])[H])sc1C([H])([H])N([H])C(=O)C(=O)C([H])([H])C([H])(Oc1c([H])c([H])c2c(c1[H])C([H])([H])N(C(=O)C([H])(N([H])C(=O)C([H])(N([H])C([H])([H])[H])C([H])([H])[H])C(C([H])([H])[H])(C([H])([H])[H])C([H])([H])[H])C([H])(C(=O)N([H])C1([H])c3c([H])c([H])c([H])c([H])c3C([H])([H])C([H])([H])C1([H])[H])C2([H])[H])C([H])([H])[H]

$$$$
54:0:0
     RDKit          3D

 93101  0  0  1  0  0  0  0  0999 V2000
  -30.0780  -20.3610   19.5050 C   0  0  0  0  0  0  0  0  0  0  0  0
  -29.4660  -21.4380   20.0750 N   0  0  0  0  0  0  0  0  0  0  0  0
  -30.3980  -20.3610   18.3130 O   0  0  0  0  0  0  0  0  0  0  0  0
  -29.2730  -21.4020   21.0670 H   0  0  0  0  0  0  0  0  0  0  0  0
  -30.5780  -17.4600   22.1810 C   0  0  0  0  0  3  0  0  0  0  0  0
  -30.5810  -16.8670   20.9440 C   0  0  0  0  0  0  0  0  0  0  0  0
  -30.3070  -19.0940   20.3330 C   0  0  0  0  0  0  0  0  0  0  0  0
  -30.4430  -17.8090   19.8950 N   0  0  0  0  0  0  0  0  0  0  0  0
  -30.4140  -19.2000   22.0920 S   0  0  0  0  0  0  0  0  0  0  0  0
  -31.1800  -14.5100   20.0920 C   0  0  0  0  0  0  0  0  0  0  0  0
  -30.8130  -12.3500   18.9180 C   0  0  0  0  0  2  0  0  0  0  0  0
  -29.8120  -12.5780   17.7620 C   0  0  0  0  0  2  0  0  0  0  0  0
  -28.3550  -12.4800   18.2610 C   0  0  0  0  0  2  0  0  0  0  0  0
  -28.1080  -13.3100   19.5470 C   0  0  0  0  0  3  0  0  0  0  0  0
  -29.2030  -13.0190   20.5980 C   0  0  0  0  0  2  0  0  0  0  0  0
  -30.5110  -13.3210   19.9850 N   0  0  0  0  0  0  0  0  0  0  0  0
  -32.2510  -14.7210   19.5100 O   0  0  0  0  0  0  0  0  0  0  0  0
  -30.5640  -15.4280   20.8790 N   0  0  0  0  0  0  0  0  0  0  0  0
  -29.8560  -15.0050   21.4570 H   0  0  0  0  0  0  0  0  0  0  0  0
  -25.7760  -14.0140   20.3820 C   0  0  0  0  0  0  0  0  0  0  0  0
  -24.6910  -13.2840   20.7870 C   0  0  0  0  0  0  0  0  0  0  0  0
  -25.0850  -11.9140   20.7050 C   0  0  0  0  0  0  0  0  0  0  0  0
  -26.7660  -13.0890   20.0830 N   0  0  0  0  0  0  0  0  0  0  0  0
  -26.3550  -11.8200   20.3320 N   0  0  0  0  0  0  0  0  0  0  0  0
  -24.3080  -10.6830   20.9050 C   0  0  0  0  0  0  0  0  0  0  0  0
  -24.6930   -9.7140   21.8570 C   0  0  0  0  0  3  0  0  0  0  0  0
  -23.9210   -8.5470   22.0440 C   0  0  0  0  0  3  0  0  0  0  0  0
  -22.7500   -8.3410   21.2770 C   0  0  0  0  0  0  0  0  0  0  0  0
  -22.3830   -9.2970   20.3150 C   0  0  0  0  0  3  0  0  0  0  0  0
  -23.1560  -10.4560   20.1260 C   0  0  0  0  0  3  0  0  0  0  0  0
  -21.9530   -7.2250   21.3720 O   0  0  0  0  0  0  0  0  0  0  0  0
  -21.7990   -6.5480   22.5560 C   0  0  0  0  0  0  0  0  0  0  0  0
  -21.2870   -7.1770   23.7110 C   0  0  0  0  0  3  0  0  0  0  0  0
  -21.0780   -6.4290   24.8860 C   0  0  0  0  0  3  0  0  0  0  0  0
  -21.3720   -5.0520   24.9070 C   0  0  0  0  0  0  0  0  0  0  0  0
  -21.8780   -4.4230   23.7550 C   0  0  0  0  0  3  0  0  0  0  0  0
  -22.0880   -5.1690   22.5820 C   0  0  0  0  0  0  0  0  0  0  0  0
  -22.5550   -4.5540   21.4690 F   0  0  0  0  0  0  0  0  0  0  0  0
  -21.1650   -4.3310   26.0330 F   0  0  0  0  0  0  0  0  0  0  0  0
  -23.3320  -13.8210   21.1390 C   0  0  0  0  0  0  0  0  0  0  0  0
  -22.6190  -13.1470   22.0340 N   0  0  0  0  0  0  0  0  0  0  0  0
  -22.9140  -14.8720   20.6550 O   0  0  0  0  0  0  0  0  0  0  0  0
  -22.9700  -12.2970   22.4490 H   0  0  0  0  0  0  0  0  0  0  0  0
  -21.7100  -13.4890   22.3110 H   0  0  0  0  0  0  0  0  0  0  0  0
  -26.0000  -15.3780   20.2260 N   0  0  0  0  0  0  0  0  0  0  0  0
  -25.2740  -16.0690   20.3830 H   0  0  0  0  0  0  0  0  0  0  0  0
  -26.8590  -15.7810   19.8710 H   0  0  0  0  0  0  0  0  0  0  0  0
  -27.6860  -22.2940   18.5760 C   0  0  0  0  0  1  0  0  0  0  0  0
  -28.9730  -22.6520   19.3470 C   0  0  0  0  0  3  0  0  0  0  0  0
  -28.7730  -23.9540   20.2170 C   0  0  0  0  0  0  0  0  0  0  0  0
  -28.7390  -23.9140   21.4520 O   0  0  0  0  0  0  0  0  0  0  0  0
  -28.6020  -25.3220   19.4660 C   0  0  0  0  0  2  0  0  0  0  0  0
  -28.3870  -26.4960   20.3130 O   0  0  0  0  0  0  0  0  0  0  0  0
  -24.5820  -31.8110   23.2450 C   0  0  0  0  0  0  0  0  0  0  0  0
  -27.2160  -27.2520   20.2450 C   0  0  0  0  0  0  0  0  0  0  0  0
  -23.3840  -30.3980   21.6100 C   0  0  0  0  0  3  0  0  0  0  0  0
  -24.8380  -28.8240   20.2160 C   0  0  0  0  0  0  0  0  0  0  0  0
  -25.9210  -30.7150   21.4400 C   0  0  0  0  0  2  0  0  0  0  0  0
  -25.9980  -29.3310   20.8140 C   0  0  0  0  0  0  0  0  0  0  0  0
  -27.1840  -28.5520   20.8240 C   0  0  0  0  0  3  0  0  0  0  0  0
  -26.0270  -26.7710   19.6510 C   0  0  0  0  0  3  0  0  0  0  0  0
  -24.8510  -27.5470   19.6330 C   0  0  0  0  0  3  0  0  0  0  0  0
  -23.6040  -29.7010   20.2410 C   0  0  0  0  0  2  0  0  0  0  0  0
  -24.6470  -30.9920   22.1560 N   0  0  0  0  0  0  0  0  0  0  0  0
  -23.4960  -32.1000   23.7680 O   0  0  0  0  0  0  0  0  0  0  0  0
  -22.7100  -29.3960   22.5770 C   0  0  0  0  0  0  0  0  0  0  0  0
  -21.3920  -29.1910   22.4110 N   0  0  0  0  0  0  0  0  0  0  0  0
  -23.3720  -28.8050   23.4340 O   0  0  0  0  0  0  0  0  0  0  0  0
  -20.9180  -29.7210   21.6920 H   0  0  0  0  0  0  0  0  0  0  0  0
  -18.0290  -27.9210   22.7960 C   0  0  0  0  0  0  0  0  0  0  0  0
  -20.5630  -28.2630   23.1800 C   0  0  0  0  0  3  0  0  0  0  0  0
  -20.7310  -26.8120   22.6700 C   0  0  0  0  0  2  0  0  0  0  0  0
  -19.6910  -26.4190   21.6170 C   0  0  0  0  0  2  0  0  0  0  0  0
  -18.2760  -26.5510   22.1870 C   0  0  0  0  0  2  0  0  0  0  0  0
  -19.1040  -28.7310   23.2470 C   0  0  0  0  0  0  0  0  0  0  0  0
  -18.8230  -30.0100   23.7740 C   0  0  0  0  0  3  0  0  0  0  0  0
  -17.4990  -30.4820   23.8530 C   0  0  0  0  0  3  0  0  0  0  0  0
  -16.4370  -29.6690   23.4180 C   0  0  0  0  0  3  0  0  0  0  0  0
  -16.7030  -28.3900   22.8960 C   0  0  0  0  0  3  0  0  0  0  0  0
  -25.8640  -32.4430   23.8710 C   0  0  0  0  0  3  0  0  0  0  0  0
  -26.3840  -31.6650   25.1420 C   0  0  1  0  0  0  0  0  0  0  0  0
  -25.2900  -31.4080   26.2050 C   0  0  0  0  0  1  0  0  0  0  0  0
  -26.9780  -30.2960   24.7380 C   0  0  0  0  0  1  0  0  0  0  0  0
  -27.5270  -32.4620   25.8140 C   0  0  0  0  0  1  0  0  0  0  0  0
  -25.5520  -33.8370   24.2100 N   0  0  0  0  0  0  0  0  0  0  0  0
  -25.8680  -34.8940   23.4510 C   0  0  0  0  0  0  0  0  0  0  0  0
  -26.5220  -34.7980   22.4080 O   0  0  0  0  0  0  0  0  0  0  0  0
  -24.9680  -33.9860   25.0210 H   0  0  0  0  0  0  0  0  0  0  0  0
  -24.1150  -36.6720   23.1400 C   0  0  0  0  0  1  0  0  0  0  0  0
  -25.3790  -36.2780   23.9200 C   0  0  0  0  0  3  0  0  0  0  0  0
  -27.5230  -37.1850   24.7020 C   0  0  0  0  0  1  0  0  0  0  0  0
  -26.3990  -37.3400   23.7820 N   0  0  0  0  0  0  0  0  0  0  0  0
  -25.9880  -38.2570   23.9360 H   0  0  0  0  0  0  0  0  0  0  0  0
  1  2  1  0
  1  7  1  0
  2  4  1  0
  3  1  2  0
  6  5  2  0
  7  9  1  0
  8  7  2  0
  8  6  1  0
  9  5  1  0
 10 18  1  0
 11 16  1  0
 12 13  1  0
 12 11  1  0
 14 13  1  0
 14 23  1  0
 14 15  1  0
 16 10  1  0
 16 15  1  0
 17 10  2  0
 18  6  1  0
 18 19  1  0
 20 21  2  0
 21 40  1  0
 22 21  1  0
 22 25  1  0
 23 24  1  0
 23 20  1  0
 24 22  2  0
 25 26  1  0
 26 27  2  0
 28 31  1  0
 28 27  1  0
 29 28  2  0
 30 29  1  0
 30 25  2  0
 31 32  1  0
 32 37  2  0
 32 33  1  0
 33 34  2  0
 34 35  1  0
 35 39  1  0
 36 35  2  0
 37 36  1  0
 38 37  1  0
 40 41  1  0
 41 44  1  0
 41 43  1  0
 42 40  2  0
 45 20  1  0
 45 46  1  0
 47 45  1  0
 49 48  1  0
 49  2  1  0
 49 50  1  0
 50 51  2  0
 52 50  1  0
 52 53  1  0
 54 65  2  0
 55 53  1  0
 55 60  1  0
 56 64  1  0
 56 66  1  0
 57 63  1  0
 57 59  1  0
 58 64  1  0
 59 60  2  0
 59 58  1  0
 61 55  2  0
 62 61  1  0
 62 57  2  0
 63 56  1  0
 64 54  1  0
 66 68  2  0
 67 66  1  0
 69 67  1  0
 70 79  2  0
 70 75  1  0
 71 67  1  0
 71 75  1  0
 72 71  1  0
 73 74  1  0
 73 72  1  0
 74 70  1  0
 75 76  2  0
 76 77  1  0
 78 77  2  0
 79 78  1  0
 80 54  1  0
 80 85  1  0
 80 81  1  0
 81 84  1  1
 81 82  1  0
 83 81  1  0
 85 88  1  0
 86 90  1  0
 86 85  1  0
 87 86  2  0
 90 89  1  0
 92 90  1  0
 92 93  1  0
 92 91  1  0
M  ISO  4  10 100  18 100  52 101  53 101
M  END
>  <TORSDO>  (55) 
F 20

>  <SCORE>  (55) 
-13.169

>  <name>  (55) 
54

>  <ligand_id>  (55) 
54

>  <original_smiles>  (55) 
[H]c1sc(C(=O)N([H])C([H])(C(=O)C([H])([H])Oc2c([H])c([H])c3c(c2[H])C([H])([H])N(C(=O)C([H])(N([H])C(=O)C([H])(N([H])C([H])([H])[H])C([H])([H])[H])C(C([H])([H])[H])(C([H])([H])[H])C([H])([H])[H])C([H])(C(=O)N([H])C2([H])c4c([H])c([H])c([H])c([H])c4C([H])([H])C([H])([H])C2([H])[H])C3([H])[H])C([H])([H])[H])nc1N([H])C(=O)N1C([H])([H])C([H])([H])C([H])([H])C([H])(n2nc(-c3c([H])c([H])c(Oc4c([H])c([H])c(F)c([H])c4F)c([H])c3[H])c(C(=O)N([H])[H])c2N([H])[H])C1([H])[H]

>  <smiles>  (55) 
[H]c1sc(C(=O)N([H])C([H])(C(=O)C([H])([H])Oc2c([H])c([H])c3c(c2[H])C([H])([H])N(C(=O)C([H])(N([H])C(=O)C([H])(N([H])C([H])([H])[H])C([H])([H])[H])C(C([H])([H])[H])(C([H])([H])[H])C([H])([H])[H])C([H])(C(=O)N([H])C2([H])c4c([H])c([H])c([H])c([H])c4C([H])([H])C([H])([H])C2([H])[H])C3([H])[H])C([H])([H])[H])nc1N([H])C(=O)N1C([H])([H])C([H])([H])C([H])([H])C([H])(n2nc(-c3c([H])c([H])c(Oc4c([H])c([H])c(F)c([H])c4F)c([H])c3[H])c(C(=O)N([H])[H])c2N([H])[H])C1([H])[H]

$$$$
55:0:0
     RDKit          3D

100108  0  0  1  0  0  0  0  0999 V2000
  -30.2320  -20.4140   20.5880 C   0  0  0  0  0  0  0  0  0  0  0  0
  -31.4610  -19.9200   20.3690 N   0  0  0  0  0  0  0  0  0  0  0  0
  -29.2120  -19.7260   20.6470 O   0  0  0  0  0  0  0  0  0  0  0  0
  -32.1560  -20.6550   20.3960 H   0  0  0  0  0  0  0  0  0  0  0  0
  -33.0140  -16.0320   19.6320 C   0  0  0  0  0  3  0  0  0  0  0  0
  -31.0930  -17.4670   20.0580 C   0  0  0  0  0  3  0  0  0  0  0  0
  -33.8980  -17.1260   19.7640 C   0  0  0  0  0  0  0  0  0  0  0  0
  -33.3600  -18.4190   20.0380 C   0  0  0  0  0  0  0  0  0  0  0  0
  -31.6220  -16.1930   19.7600 C   0  0  0  0  0  0  0  0  0  0  0  0
  -31.9520  -18.5910   20.1780 C   0  0  0  0  0  0  0  0  0  0  0  0
  -34.3030  -19.6190   20.1780 C   0  0  0  0  0  1  0  0  0  0  0  0
  -31.0850  -14.0140   18.8040 C   0  0  0  0  0  0  0  0  0  0  0  0
  -30.4320  -11.7700   18.0180 C   0  0  0  0  0  2  0  0  0  0  0  0
  -29.2640  -11.8620   17.0190 C   0  0  0  0  0  2  0  0  0  0  0  0
  -27.9170  -11.8480   17.7670 C   0  0  0  0  0  2  0  0  0  0  0  0
  -27.8730  -12.8690   18.9360 C   0  0  0  0  0  3  0  0  0  0  0  0
  -29.1350  -12.7620   19.8200 C   0  0  0  0  0  2  0  0  0  0  0  0
  -30.3170  -12.9020   18.9500 N   0  0  0  0  0  0  0  0  0  0  0  0
  -31.9980  -14.0880   17.9760 O   0  0  0  0  0  0  0  0  0  0  0  0
  -30.7700  -15.0700   19.5720 N   0  0  0  0  0  0  0  0  0  0  0  0
  -29.9200  -15.0220   20.1120 H   0  0  0  0  0  0  0  0  0  0  0  0
  -25.8410  -13.6970   20.2840 C   0  0  0  0  0  0  0  0  0  0  0  0
  -24.7880  -13.0340   20.8550 C   0  0  0  0  0  0  0  0  0  0  0  0
  -25.0120  -11.6460   20.6010 C   0  0  0  0  0  0  0  0  0  0  0  0
  -26.6500  -12.7200   19.7240 N   0  0  0  0  0  0  0  0  0  0  0  0
  -26.1650  -11.4740   19.9660 N   0  0  0  0  0  0  0  0  0  0  0  0
  -24.1680  -10.4760   20.8730 C   0  0  0  0  0  0  0  0  0  0  0  0
  -24.5960   -9.4390   21.7310 C   0  0  0  0  0  3  0  0  0  0  0  0
  -23.7570   -8.3330   21.9910 C   0  0  0  0  0  3  0  0  0  0  0  0
  -22.4760   -8.2580   21.3940 C   0  0  0  0  0  0  0  0  0  0  0  0
  -22.0650   -9.2820   20.5230 C   0  0  0  0  0  3  0  0  0  0  0  0
  -22.9020  -10.3780   20.2600 C   0  0  0  0  0  3  0  0  0  0  0  0
  -21.6040   -7.2110   21.5690 O   0  0  0  0  0  0  0  0  0  0  0  0
  -21.5670   -6.4910   22.7370 C   0  0  0  0  0  0  0  0  0  0  0  0
  -21.2800   -7.1000   23.9790 C   0  0  0  0  0  3  0  0  0  0  0  0
  -21.1840   -6.3110   25.1430 C   0  0  0  0  0  3  0  0  0  0  0  0
  -21.3650   -4.9160   25.0670 C   0  0  0  0  0  0  0  0  0  0  0  0
  -21.6460   -4.3090   23.8320 C   0  0  0  0  0  3  0  0  0  0  0  0
  -21.7440   -5.0940   22.6700 C   0  0  0  0  0  0  0  0  0  0  0  0
  -21.9920   -4.5010   21.4770 F   0  0  0  0  0  0  0  0  0  0  0  0
  -21.2660   -4.1560   26.1840 F   0  0  0  0  0  0  0  0  0  0  0  0
  -23.5910  -13.6540   21.5160 C   0  0  0  0  0  0  0  0  0  0  0  0
  -23.0370  -12.9930   22.5270 N   0  0  0  0  0  0  0  0  0  0  0  0
  -23.1690  -14.7570   21.1700 O   0  0  0  0  0  0  0  0  0  0  0  0
  -23.3920  -12.0960   22.8240 H   0  0  0  0  0  0  0  0  0  0  0  0
  -22.2430  -13.3880   23.0110 H   0  0  0  0  0  0  0  0  0  0  0  0
  -26.1700  -15.0460   20.1760 N   0  0  0  0  0  0  0  0  0  0  0  0
  -25.5680  -15.7810   20.5270 H   0  0  0  0  0  0  0  0  0  0  0  0
  -26.9800  -15.3990   19.6810 H   0  0  0  0  0  0  0  0  0  0  0  0
  -35.3590  -16.8890   19.5870 C   0  0  0  0  0  3  0  0  0  0  0  0
  -35.8940  -15.7870   19.2660 N   0  0  0  0  0  0  0  0  0  0  0  0
  -35.2000  -15.0590   19.1410 H   0  0  0  0  0  0  0  0  0  0  0  0
  -29.1980  -22.6160   20.4210 C   0  0  0  0  0  3  0  0  0  0  0  0
  -30.2820  -21.8720   20.7580 C   0  0  0  0  0  0  0  0  0  0  0  0
  -29.1050  -24.0920   20.5460 C   0  0  0  0  0  0  0  0  0  0  0  0
  -29.9590  -24.7720   21.1320 O   0  0  0  0  0  0  0  0  0  0  0  0
  -27.8870  -24.7780   19.9070 C   0  0  0  0  0  2  0  0  0  0  0  0
  -28.0630  -26.2010   19.7940 O   0  0  0  0  0  0  0  0  0  0  0  0
  -24.6290  -31.5430   22.9940 C   0  0  0  0  0  0  0  0  0  0  0  0
  -26.9090  -26.9600   19.8310 C   0  0  0  0  0  0  0  0  0  0  0  0
  -23.2640  -30.1450   21.4780 C   0  0  0  0  0  3  0  0  0  0  0  0
  -24.5630  -28.5390   19.9840 C   0  0  0  0  0  0  0  0  0  0  0  0
  -25.7790  -30.4240   21.0890 C   0  0  0  0  0  2  0  0  0  0  0  0
  -25.7770  -29.0400   20.4700 C   0  0  0  0  0  0  0  0  0  0  0  0
  -26.9520  -28.2600   20.3880 C   0  0  0  0  0  3  0  0  0  0  0  0
  -25.6740  -26.4770   19.3370 C   0  0  0  0  0  3  0  0  0  0  0  0
  -24.5070  -27.2580   19.4150 C   0  0  0  0  0  3  0  0  0  0  0  0
  -23.3510  -29.4320   20.1020 C   0  0  0  0  0  2  0  0  0  0  0  0
  -24.5790  -30.7190   21.9100 N   0  0  0  0  0  0  0  0  0  0  0  0
  -23.5980  -31.8580   23.6070 O   0  0  0  0  0  0  0  0  0  0  0  0
  -22.6580  -29.1620   22.5060 C   0  0  0  0  0  0  0  0  0  0  0  0
  -21.3560  -28.8680   22.3580 N   0  0  0  0  0  0  0  0  0  0  0  0
  -23.3580  -28.6630   23.3910 O   0  0  0  0  0  0  0  0  0  0  0  0
  -20.8520  -29.3220   21.6090 H   0  0  0  0  0  0  0  0  0  0  0  0
  -18.0860  -27.3940   22.7970 C   0  0  0  0  0  0  0  0  0  0  0  0
  -20.5830  -27.9420   23.1850 C   0  0  0  0  0  3  0  0  0  0  0  0
  -20.8610  -26.4740   22.7850 C   0  0  0  0  0  2  0  0  0  0  0  0
  -19.8680  -25.9310   21.7530 C   0  0  0  0  0  2  0  0  0  0  0  0
  -18.4360  -26.0040   22.2930 C   0  0  0  0  0  2  0  0  0  0  0  0
  -19.0940  -28.3100   23.1990 C   0  0  0  0  0  0  0  0  0  0  0  0
  -18.7160  -29.6020   23.6230 C   0  0  0  0  0  3  0  0  0  0  0  0
  -17.3610  -29.9820   23.6520 C   0  0  0  0  0  3  0  0  0  0  0  0
  -16.3650  -29.0660   23.2690 C   0  0  0  0  0  3  0  0  0  0  0  0
  -16.7280  -27.7750   22.8460 C   0  0  0  0  0  3  0  0  0  0  0  0
  -25.9740  -32.1450   23.5040 C   0  0  0  0  0  3  0  0  0  0  0  0
  -25.6980  -33.5110   23.9690 N   0  0  0  0  0  0  0  0  0  0  0  0
  -26.0590  -34.6240   23.3140 C   0  0  0  0  0  0  0  0  0  0  0  0
  -26.7290  -34.6040   22.2780 O   0  0  0  0  0  0  0  0  0  0  0  0
  -25.1060  -33.6030   24.7810 H   0  0  0  0  0  0  0  0  0  0  0  0
  -24.4030  -36.5030   23.0990 C   0  0  0  0  0  1  0  0  0  0  0  0
  -25.6000  -35.9720   23.9030 C   0  0  0  0  0  3  0  0  0  0  0  0
  -27.7380  -36.6720   24.8830 C   0  0  0  0  0  1  0  0  0  0  0  0
  -26.6700  -36.9920   23.9390 N   0  0  0  0  0  0  0  0  0  0  0  0
  -26.2910  -37.9030   24.1870 H   0  0  0  0  0  0  0  0  0  0  0  0
  -26.6470  -31.2920   24.6480 C   0  0  1  0  0  0  0  0  0  0  0  0
  -25.6680  -30.8730   25.7700 C   0  0  0  0  0  1  0  0  0  0  0  0
  -27.2770  -30.0040   24.0700 C   0  0  0  0  0  1  0  0  0  0  0  0
  -27.8010  -32.0960   25.2940 C   0  0  0  0  0  1  0  0  0  0  0  0
  -31.4060  -22.4320   21.2510 O   0  0  0  0  0  0  0  0  0  0  0  0
  -31.2550  -23.3740   21.2820 H   0  0  0  0  0  0  0  0  0  0  0  0
  1  3  2  0
  1 54  1  0
  2  4  1  0
  2  1  1  0
  5  9  2  0
  5  7  1  0
  6 10  2  0
  7  8  2  0
  8 11  1  0
  8 10  1  0
  9  6  1  0
 10  2  1  0
 12 18  1  0
 12 20  1  0
 13 18  1  0
 14 15  1  0
 14 13  1  0
 16 15  1  0
 16 25  1  0
 16 17  1  0
 18 17  1  0
 19 12  2  0
 20  9  1  0
 20 21  1  0
 22 23  2  0
 23 42  1  0
 24 23  1  0
 24 27  1  0
 25 26  1  0
 25 22  1  0
 26 24  2  0
 27 28  1  0
 28 29  2  0
 30 33  1  0
 30 29  1  0
 31 30  2  0
 32 31  1  0
 32 27  2  0
 33 34  1  0
 34 35  1  0
 35 36  2  0
 37 36  1  0
 37 41  1  0
 38 37  2  0
 39 34  2  0
 39 38  1  0
 40 39  1  0
 42 43  1  0
 43 45  1  0
 43 46  1  0
 44 42  2  0
 47 22  1  0
 47 48  1  0
 49 47  1  0
 50  7  1  0
 51 50  2  0
 52 51  1  0
 53 55  1  0
 53 54  2  0
 54 99  1  0
 55 56  2  0
 57 55  1  0
 58 60  1  0
 58 57  1  0
 59 70  2  0
 60 65  1  0
 61 69  1  0
 61 71  1  0
 62 68  1  0
 62 64  1  0
 63 69  1  0
 64 63  1  0
 65 64  2  0
 66 67  1  0
 66 60  2  0
 67 62  2  0
 68 61  1  0
 69 59  1  0
 71 73  2  0
 72 71  1  0
 74 72  1  0
 75 84  2  0
 75 80  1  0
 76 72  1  0
 76 80  1  0
 77 76  1  0
 78 79  1  0
 78 77  1  0
 79 75  1  0
 80 81  2  0
 81 82  1  0
 83 82  2  0
 84 83  1  0
 85 59  1  0
 85 86  1  0
 85 95  1  0
 86 89  1  0
 87 91  1  0
 87 86  1  0
 88 87  2  0
 91 90  1  0
 91 93  1  0
 93 94  1  0
 93 92  1  0
 95 98  1  1
 95 96  1  0
 97 95  1  0
 99100  1  0
M  ISO  4  12 100  20 100  57 101  58 101
M  END
>  <TORSDO>  (56) 
F 22

>  <SCORE>  (56) 
-10.216

>  <name>  (56) 
55

>  <ligand_id>  (56) 
55

>  <original_smiles>  (56) 
[H]N=C([H])c1c([H])c(N([H])C(=O)N2C([H])([H])C([H])([H])C([H])([H])C([H])(n3nc(-c4c([H])c([H])c(Oc5c([H])c([H])c(F)c([H])c5F)c([H])c4[H])c(C(=O)N([H])[H])c3N([H])[H])C2([H])[H])c([H])c(N([H])C(=O)C(O[H])=C([H])C(=O)C([H])([H])Oc2c([H])c([H])c3c(c2[H])C([H])([H])N(C(=O)C([H])(N([H])C(=O)C([H])(N([H])C([H])([H])[H])C([H])([H])[H])C(C([H])([H])[H])(C([H])([H])[H])C([H])([H])[H])C([H])(C(=O)N([H])C2([H])c4c([H])c([H])c([H])c([H])c4C([H])([H])C([H])([H])C2([H])[H])C3([H])[H])c1C([H])([H])[H]

>  <smiles>  (56) 
[H]N=C([H])c1c([H])c(N([H])C(=O)N2C([H])([H])C([H])([H])C([H])([H])C([H])(n3nc(-c4c([H])c([H])c(Oc5c([H])c([H])c(F)c([H])c5F)c([H])c4[H])c(C(=O)N([H])[H])c3N([H])[H])C2([H])[H])c([H])c(N([H])C(=O)C(O[H])=C([H])C(=O)C([H])([H])Oc2c([H])c([H])c3c(c2[H])C([H])([H])N(C(=O)C([H])(N([H])C(=O)C([H])(N([H])C([H])([H])[H])C([H])([H])[H])C(C([H])([H])[H])(C([H])([H])[H])C([H])([H])[H])C([H])(C(=O)N([H])C2([H])c4c([H])c([H])c([H])c([H])c4C([H])([H])C([H])([H])C2([H])[H])C3([H])[H])c1C([H])([H])[H]

$$$$
56:0:0
     RDKit          3D

 97105  0  0  1  0  0  0  0  0999 V2000
  -30.9860  -17.8820   19.9160 C   0  0  0  0  0  3  0  0  0  0  0  0
  -29.8720  -17.0630   20.2430 C   0  0  0  0  0  0  0  0  0  0  0  0
  -28.6380  -17.7420   20.4330 C   0  0  0  0  0  0  0  0  0  0  0  0
  -29.6250  -19.9830   19.9640 C   0  0  0  0  0  0  0  0  0  0  0  0
  -30.8590  -19.2980   19.7770 C   0  0  0  0  0  0  0  0  0  0  0  0
  -28.5090  -19.1600   20.2890 C   0  0  0  0  0  0  0  0  0  0  0  0
  -31.9570  -20.0220   19.4430 F   0  0  0  0  0  0  0  0  0  0  0  0
  -27.2700  -19.6930   20.4190 F   0  0  0  0  0  0  0  0  0  0  0  0
  -30.6010  -14.5960   19.8390 C   0  0  0  0  0  0  0  0  0  0  0  0
  -30.2780  -12.4000   18.7150 C   0  0  0  0  0  2  0  0  0  0  0  0
  -29.2250  -12.5750   17.5950 C   0  0  0  0  0  2  0  0  0  0  0  0
  -27.7970  -12.4170   18.1500 C   0  0  0  0  0  2  0  0  0  0  0  0
  -27.5630  -13.2430   19.4410 C   0  0  0  0  0  3  0  0  0  0  0  0
  -28.7120  -13.0280   20.4530 C   0  0  0  0  0  2  0  0  0  0  0  0
  -29.9740  -13.3780   19.7790 N   0  0  0  0  0  0  0  0  0  0  0  0
  -31.7030  -14.7790   19.3140 O   0  0  0  0  0  0  0  0  0  0  0  0
  -29.8700  -15.6080   20.3940 N   0  0  0  0  0  0  0  0  0  0  0  0
  -29.0520  -15.2860   20.8900 H   0  0  0  0  0  0  0  0  0  0  0  0
  -25.2480  -13.8460   20.3790 C   0  0  0  0  0  0  0  0  0  0  0  0
  -24.2120  -13.0740   20.8330 C   0  0  0  0  0  0  0  0  0  0  0  0
  -24.6530  -11.7190   20.7210 C   0  0  0  0  0  0  0  0  0  0  0  0
  -26.2570  -12.9620   20.0320 N   0  0  0  0  0  0  0  0  0  0  0  0
  -25.9090  -11.6760   20.2940 N   0  0  0  0  0  0  0  0  0  0  0  0
  -23.9300  -10.4590   20.9340 C   0  0  0  0  0  0  0  0  0  0  0  0
  -24.4090   -9.4740   21.8260 C   0  0  0  0  0  3  0  0  0  0  0  0
  -23.6870   -8.2780   22.0270 C   0  0  0  0  0  3  0  0  0  0  0  0
  -22.4720   -8.0580   21.3370 C   0  0  0  0  0  0  0  0  0  0  0  0
  -22.0120   -9.0300   20.4320 C   0  0  0  0  0  3  0  0  0  0  0  0
  -22.7340  -10.2170   20.2270 C   0  0  0  0  0  3  0  0  0  0  0  0
  -21.7170   -6.9160   21.4520 O   0  0  0  0  0  0  0  0  0  0  0  0
  -21.6890   -6.1840   22.6120 C   0  0  0  0  0  0  0  0  0  0  0  0
  -21.2880   -6.7510   23.8410 C   0  0  0  0  0  3  0  0  0  0  0  0
  -21.2100   -5.9460   24.9940 C   0  0  0  0  0  3  0  0  0  0  0  0
  -21.5230   -4.5750   24.9210 C   0  0  0  0  0  0  0  0  0  0  0  0
  -21.9190   -4.0080   23.6970 C   0  0  0  0  0  3  0  0  0  0  0  0
  -22.0000   -4.8110   22.5440 C   0  0  0  0  0  0  0  0  0  0  0  0
  -22.3600   -4.2550   21.3630 F   0  0  0  0  0  0  0  0  0  0  0  0
  -21.4410   -3.7990   26.0270 F   0  0  0  0  0  0  0  0  0  0  0  0
  -22.8510  -13.5560   21.2420 C   0  0  0  0  0  0  0  0  0  0  0  0
  -22.1970  -12.8430   22.1530 N   0  0  0  0  0  0  0  0  0  0  0  0
  -22.3790  -14.5970   20.7860 O   0  0  0  0  0  0  0  0  0  0  0  0
  -22.5930  -11.9990   22.5370 H   0  0  0  0  0  0  0  0  0  0  0  0
  -21.2880  -13.1480   22.4710 H   0  0  0  0  0  0  0  0  0  0  0  0
  -25.4080  -15.2140   20.1940 N   0  0  0  0  0  0  0  0  0  0  0  0
  -24.5640  -15.7730   20.2650 H   0  0  0  0  0  0  0  0  0  0  0  0
  -25.9720  -15.5020   19.4060 H   0  0  0  0  0  0  0  0  0  0  0  0
  -28.8490  -22.4330   20.3300 C   0  0  0  0  0  0  0  0  0  0  0  0
  -29.5800  -21.4360   19.7390 N   0  0  0  0  0  0  0  0  0  0  0  0
  -28.0840  -22.2400   21.2780 O   0  0  0  0  0  0  0  0  0  0  0  0
  -30.2570  -21.7800   19.0690 H   0  0  0  0  0  0  0  0  0  0  0  0
  -29.0730  -23.9250   19.7650 C   0  0  0  0  0  0  0  0  0  0  0  0
  -29.9510  -24.1640   18.9250 O   0  0  0  0  0  0  0  0  0  0  0  0
  -28.1440  -25.0800   20.3110 C   0  0  0  0  0  2  0  0  0  0  0  0
  -28.3240  -26.4400   19.7460 O   0  0  0  0  0  0  0  0  0  0  0  0
  -24.5550  -31.6580   23.0170 C   0  0  0  0  0  0  0  0  0  0  0  0
  -27.1940  -27.2670   19.7690 C   0  0  0  0  0  0  0  0  0  0  0  0
  -23.3490  -30.3030   21.3410 C   0  0  0  0  0  3  0  0  0  0  0  0
  -24.8040  -28.8260   19.8430 C   0  0  0  0  0  0  0  0  0  0  0  0
  -25.8790  -30.6710   21.1380 C   0  0  0  0  0  2  0  0  0  0  0  0
  -25.9720  -29.3180   20.4410 C   0  0  0  0  0  0  0  0  0  0  0  0
  -27.1720  -28.5520   20.3900 C   0  0  0  0  0  3  0  0  0  0  0  0
  -26.0060  -26.8230   19.1490 C   0  0  0  0  0  3  0  0  0  0  0  0
  -24.8210  -27.5850   19.1870 C   0  0  0  0  0  3  0  0  0  0  0  0
  -23.5550  -29.6780   19.9360 C   0  0  0  0  0  2  0  0  0  0  0  0
  -24.6140  -30.8930   21.8890 N   0  0  0  0  0  0  0  0  0  0  0  0
  -23.4740  -31.9000   23.5750 O   0  0  0  0  0  0  0  0  0  0  0  0
  -22.7120  -29.2460   22.2730 C   0  0  0  0  0  0  0  0  0  0  0  0
  -21.3850  -29.0640   22.1620 N   0  0  0  0  0  0  0  0  0  0  0  0
  -23.4100  -28.5920   23.0520 O   0  0  0  0  0  0  0  0  0  0  0  0
  -20.8810  -29.6430   21.5050 H   0  0  0  0  0  0  0  0  0  0  0  0
  -18.0200  -27.8580   22.7080 C   0  0  0  0  0  0  0  0  0  0  0  0
  -20.5870  -28.0930   22.9110 C   0  0  0  0  0  3  0  0  0  0  0  0
  -20.6640  -26.6920   22.2600 C   0  0  0  0  0  2  0  0  0  0  0  0
  -19.5290  -26.4260   21.2670 C   0  0  0  0  0  2  0  0  0  0  0  0
  -18.1680  -26.5440   21.9590 C   0  0  0  0  0  2  0  0  0  0  0  0
  -19.1550  -28.5930   23.1410 C   0  0  0  0  0  0  0  0  0  0  0  0
  -18.9600  -29.8260   23.8000 C   0  0  0  0  0  3  0  0  0  0  0  0
  -17.6630  -30.3230   24.0320 C   0  0  0  0  0  3  0  0  0  0  0  0
  -16.5440  -29.5850   23.6120 C   0  0  0  0  0  3  0  0  0  0  0  0
  -16.7220  -28.3540   22.9560 C   0  0  0  0  0  3  0  0  0  0  0  0
  -25.8370  -32.2830   23.6470 C   0  0  0  0  0  3  0  0  0  0  0  0
  -26.3880  -31.4630   24.8780 C   0  0  1  0  0  0  0  0  0  0  0  0
  -25.3190  -31.1700   25.9570 C   0  0  0  0  0  1  0  0  0  0  0  0
  -26.9770  -30.1110   24.4150 C   0  0  0  0  0  1  0  0  0  0  0  0
  -27.5420  -32.2430   25.5530 C   0  0  0  0  0  1  0  0  0  0  0  0
  -25.5100  -33.6590   24.0490 N   0  0  0  0  0  0  0  0  0  0  0  0
  -25.8010  -34.7510   23.3310 C   0  0  0  0  0  0  0  0  0  0  0  0
  -26.4430  -34.7090   22.2770 O   0  0  0  0  0  0  0  0  0  0  0  0
  -24.9330  -33.7650   24.8720 H   0  0  0  0  0  0  0  0  0  0  0  0
  -24.0220  -36.5170   23.1130 C   0  0  0  0  0  1  0  0  0  0  0  0
  -25.3000  -36.1070   23.8640 C   0  0  0  0  0  3  0  0  0  0  0  0
  -27.4410  -37.0050   24.6620 C   0  0  0  0  0  1  0  0  0  0  0  0
  -26.3040  -37.1880   23.7630 N   0  0  0  0  0  0  0  0  0  0  0  0
  -25.8820  -38.0890   23.9660 H   0  0  0  0  0  0  0  0  0  0  0  0
  -27.4990  -17.0000   20.7610 N   0  0  0  0  0  0  0  0  0  0  0  0
  -27.2470  -16.2590   20.1150 H   0  0  0  0  0  0  0  0  0  0  0  0
  -26.6850  -17.5940   20.8800 H   0  0  0  0  0  0  0  0  0  0  0  0
  1  2  1  0
  2 17  1  0
  2  3  2  0
  3 95  1  0
  4  6  2  0
  5  1  2  0
  5  4  1  0
  6  8  1  0
  6  3  1  0
  7  5  1  0
  9 17  1  0
 10 15  1  0
 11 12  1  0
 11 10  1  0
 13 12  1  0
 13 22  1  0
 13 14  1  0
 15  9  1  0
 15 14  1  0
 16  9  2  0
 17 18  1  0
 19 20  2  0
 20 39  1  0
 21 20  1  0
 21 24  1  0
 22 23  1  0
 22 19  1  0
 23 21  2  0
 24 25  1  0
 25 26  2  0
 27 30  1  0
 27 26  1  0
 28 27  2  0
 29 28  1  0
 29 24  2  0
 30 31  1  0
 31 32  1  0
 32 33  2  0
 34 33  1  0
 34 38  1  0
 35 34  2  0
 36 31  2  0
 36 35  1  0
 37 36  1  0
 39 40  1  0
 40 43  1  0
 40 42  1  0
 41 39  2  0
 44 45  1  0
 44 19  1  0
 46 44  1  0
 47 49  2  0
 48  4  1  0
 48 47  1  0
 50 48  1  0
 51 53  1  0
 51 47  1  0
 52 51  2  0
 54 56  1  0
 54 53  1  0
 55 66  2  0
 56 61  1  0
 57 65  1  0
 57 67  1  0
 58 64  1  0
 58 60  1  0
 59 65  1  0
 60 59  1  0
 61 60  2  0
 62 63  1  0
 62 56  2  0
 63 58  2  0
 64 57  1  0
 65 55  1  0
 67 69  2  0
 68 67  1  0
 70 68  1  0
 71 80  2  0
 71 76  1  0
 72 68  1  0
 72 76  1  0
 73 72  1  0
 74 75  1  0
 74 73  1  0
 75 71  1  0
 76 77  2  0
 77 78  1  0
 79 78  2  0
 80 79  1  0
 81 55  1  0
 81 86  1  0
 81 82  1  0
 82 85  1  1
 82 83  1  0
 84 82  1  0
 86 89  1  0
 87 91  1  0
 87 86  1  0
 88 87  2  0
 91 90  1  0
 93 91  1  0
 93 94  1  0
 93 92  1  0
 95 97  1  0
 96 95  1  0
M  ISO  4   9 100  17 100  53 101  54 101
M  END
>  <TORSDO>  (57) 
F 20

>  <SCORE>  (57) 
-13.244

>  <name>  (57) 
56

>  <ligand_id>  (57) 
56

>  <original_smiles>  (57) 
[H]c1c([H])c([H])c2c(c1[H])C([H])([H])C([H])([H])C([H])([H])C2([H])N([H])C(=O)C1([H])N(C(=O)C([H])(N([H])C(=O)C([H])(N([H])C([H])([H])[H])C([H])([H])[H])C(C([H])([H])[H])(C([H])([H])[H])C([H])([H])[H])C([H])([H])c2c([H])c(OC([H])([H])C(=O)C(=O)N([H])c3c(F)c([H])c(N([H])C(=O)N4C([H])([H])C([H])([H])C([H])([H])C([H])(n5nc(-c6c([H])c([H])c(Oc7c([H])c([H])c(F)c([H])c7F)c([H])c6[H])c(C(=O)N([H])[H])c5N([H])[H])C4([H])[H])c(N([H])[H])c3F)c([H])c([H])c2C1([H])[H]

>  <smiles>  (57) 
[H]c1c([H])c([H])c2c(c1[H])C([H])([H])C([H])([H])C([H])([H])C2([H])N([H])C(=O)C1([H])N(C(=O)C([H])(N([H])C(=O)C([H])(N([H])C([H])([H])[H])C([H])([H])[H])C(C([H])([H])[H])(C([H])([H])[H])C([H])([H])[H])C([H])([H])c2c([H])c(OC([H])([H])C(=O)C(=O)N([H])c3c(F)c([H])c(N([H])C(=O)N4C([H])([H])C([H])([H])C([H])([H])C([H])(n5nc(-c6c([H])c([H])c(Oc7c([H])c([H])c(F)c([H])c7F)c([H])c6[H])c(C(=O)N([H])[H])c5N([H])[H])C4([H])[H])c(N([H])[H])c3F)c([H])c([H])c2C1([H])[H]

$$$$
57:0:0
     RDKit          3D

 95103  0  0  1  0  0  0  0  0999 V2000
  -29.0510  -21.8820   20.4060 C   0  0  0  0  0  0  0  0  0  0  0  0
  -28.7970  -20.5690   20.6640 N   0  0  0  0  0  0  0  0  0  0  0  0
  -30.0700  -22.3010   19.8480 O   0  0  0  0  0  0  0  0  0  0  0  0
  -28.0010  -20.4140   21.2710 H   0  0  0  0  0  0  0  0  0  0  0  0
  -29.9730  -19.4480   18.8000 C   0  0  0  0  0  3  0  0  0  0  0  0
  -29.4400  -18.1490   20.7930 C   0  0  0  0  0  3  0  0  0  0  0  0
  -30.5270  -18.3020   18.2030 C   0  0  0  0  0  0  0  0  0  0  0  0
  -29.4300  -19.4010   20.1040 C   0  0  0  0  0  0  0  0  0  0  0  0
  -30.0180  -16.9760   20.2150 C   0  0  0  0  0  0  0  0  0  0  0  0
  -30.5480  -17.0740   18.8990 C   0  0  0  0  0  0  0  0  0  0  0  0
  -31.0680  -18.3860   16.7840 C   0  0  0  0  0  1  0  0  0  0  0  0
  -31.0250  -15.9840   18.2530 F   0  0  0  0  0  0  0  0  0  0  0  0
  -30.7690  -14.6340   20.7520 C   0  0  0  0  0  0  0  0  0  0  0  0
  -30.5890  -12.4040   19.7470 C   0  0  0  0  0  2  0  0  0  0  0  0
  -29.7180  -12.5480   18.4810 C   0  0  0  0  0  2  0  0  0  0  0  0
  -28.2210  -12.4080   18.8220 C   0  0  0  0  0  2  0  0  0  0  0  0
  -27.7950  -13.2870   20.0270 C   0  0  0  0  0  3  0  0  0  0  0  0
  -28.7860  -13.1390   21.2060 C   0  0  0  0  0  2  0  0  0  0  0  0
  -30.1380  -13.4280   20.7030 N   0  0  0  0  0  0  0  0  0  0  0  0
  -31.9660  -14.7670   20.4950 O   0  0  0  0  0  0  0  0  0  0  0  0
  -29.9560  -15.7080   20.9150 N   0  0  0  0  0  0  0  0  0  0  0  0
  -29.0680  -15.4950   21.3360 H   0  0  0  0  0  0  0  0  0  0  0  0
  -25.3630  -13.9040   20.5790 C   0  0  0  0  0  0  0  0  0  0  0  0
  -24.2720  -13.1380   20.8990 C   0  0  0  0  0  0  0  0  0  0  0  0
  -24.7360  -11.7860   20.9260 C   0  0  0  0  0  0  0  0  0  0  0  0
  -26.4180  -13.0200   20.4330 N   0  0  0  0  0  0  0  0  0  0  0  0
  -26.0430  -11.7430   20.7010 N   0  0  0  0  0  0  0  0  0  0  0  0
  -23.9990  -10.5280   21.0990 C   0  0  0  0  0  0  0  0  0  0  0  0
  -24.3850   -9.5740   22.0660 C   0  0  0  0  0  3  0  0  0  0  0  0
  -23.6530   -8.3770   22.2200 C   0  0  0  0  0  3  0  0  0  0  0  0
  -22.5190   -8.1280   21.4110 C   0  0  0  0  0  0  0  0  0  0  0  0
  -22.1520   -9.0710   20.4350 C   0  0  0  0  0  3  0  0  0  0  0  0
  -22.8850  -10.2600   20.2790 C   0  0  0  0  0  3  0  0  0  0  0  0
  -21.7610   -6.9840   21.4760 O   0  0  0  0  0  0  0  0  0  0  0  0
  -21.6600   -6.2500   22.6320 C   0  0  0  0  0  0  0  0  0  0  0  0
  -21.1800   -6.8160   23.8340 C   0  0  0  0  0  3  0  0  0  0  0  0
  -21.0310   -6.0090   24.9790 C   0  0  0  0  0  3  0  0  0  0  0  0
  -21.3480   -4.6380   24.9210 C   0  0  0  0  0  0  0  0  0  0  0  0
  -21.8200   -4.0730   23.7230 C   0  0  0  0  0  3  0  0  0  0  0  0
  -21.9730   -4.8770   22.5810 C   0  0  0  0  0  0  0  0  0  0  0  0
  -22.4100   -4.3240   21.4230 F   0  0  0  0  0  0  0  0  0  0  0  0
  -21.1950   -3.8590   26.0170 F   0  0  0  0  0  0  0  0  0  0  0  0
  -22.8620  -13.6190   21.0730 C   0  0  0  0  0  0  0  0  0  0  0  0
  -22.0820  -12.9470   21.9130 N   0  0  0  0  0  0  0  0  0  0  0  0
  -22.4570  -14.6300   20.5010 O   0  0  0  0  0  0  0  0  0  0  0  0
  -22.4180  -12.1280   22.4010 H   0  0  0  0  0  0  0  0  0  0  0  0
  -21.1340  -13.2560   22.0690 H   0  0  0  0  0  0  0  0  0  0  0  0
  -25.5390  -15.2710   20.3860 N   0  0  0  0  0  0  0  0  0  0  0  0
  -24.7670  -15.9290   20.4190 H   0  0  0  0  0  0  0  0  0  0  0  0
  -26.4060  -15.6940   20.0830 H   0  0  0  0  0  0  0  0  0  0  0  0
  -27.9280  -22.8590   20.9160 C   0  0  0  0  0  0  0  0  0  0  0  0
  -26.7990  -22.4270   21.1850 O   0  0  0  0  0  0  0  0  0  0  0  0
  -28.2330  -24.3700   21.1420 C   0  0  0  0  0  2  0  0  0  0  0  0
  -28.4220  -25.2710   19.8830 C   0  0  0  0  0  2  0  0  0  0  0  0
  -28.3940  -26.7040   20.1590 O   0  0  0  0  0  0  0  0  0  0  0  0
  -24.5760  -31.9040   23.2420 C   0  0  0  0  0  0  0  0  0  0  0  0
  -27.2110  -27.4340   20.1430 C   0  0  0  0  0  0  0  0  0  0  0  0
  -23.3700  -30.5090   21.5950 C   0  0  0  0  0  3  0  0  0  0  0  0
  -24.8220  -28.9810   20.1590 C   0  0  0  0  0  0  0  0  0  0  0  0
  -25.8980  -30.8670   21.3920 C   0  0  0  0  0  2  0  0  0  0  0  0
  -25.9840  -29.4930   20.7470 C   0  0  0  0  0  0  0  0  0  0  0  0
  -27.1790  -28.7280   20.7300 C   0  0  0  0  0  3  0  0  0  0  0  0
  -26.0210  -26.9500   19.5500 C   0  0  0  0  0  3  0  0  0  0  0  0
  -24.8380  -27.7120   19.5590 C   0  0  0  0  0  3  0  0  0  0  0  0
  -23.5780  -29.8400   20.2100 C   0  0  0  0  0  2  0  0  0  0  0  0
  -24.6340  -31.1080   22.1360 N   0  0  0  0  0  0  0  0  0  0  0  0
  -23.4950  -32.1700   23.7860 O   0  0  0  0  0  0  0  0  0  0  0  0
  -22.7220  -29.4790   22.5520 C   0  0  0  0  0  0  0  0  0  0  0  0
  -21.3970  -29.2960   22.4310 N   0  0  0  0  0  0  0  0  0  0  0  0
  -23.4110  -28.8490   23.3600 O   0  0  0  0  0  0  0  0  0  0  0  0
  -20.9040  -29.8610   21.7540 H   0  0  0  0  0  0  0  0  0  0  0  0
  -18.0250  -28.0980   22.9350 C   0  0  0  0  0  0  0  0  0  0  0  0
  -20.5840  -28.3510   23.1980 C   0  0  0  0  0  3  0  0  0  0  0  0
  -20.6820  -26.9250   22.6080 C   0  0  0  0  0  2  0  0  0  0  0  0
  -19.5740  -26.6130   21.5960 C   0  0  0  0  0  2  0  0  0  0  0  0
  -18.1960  -26.7540   22.2480 C   0  0  0  0  0  2  0  0  0  0  0  0
  -19.1460  -28.8550   23.3660 C   0  0  0  0  0  0  0  0  0  0  0  0
  -18.9320  -30.1140   23.9690 C   0  0  0  0  0  3  0  0  0  0  0  0
  -17.6290  -30.6140   24.1470 C   0  0  0  0  0  3  0  0  0  0  0  0
  -16.5210  -29.8530   23.7320 C   0  0  0  0  0  3  0  0  0  0  0  0
  -16.7210  -28.5970   23.1330 C   0  0  0  0  0  3  0  0  0  0  0  0
  -25.8590  -32.5360   23.8620 C   0  0  0  0  0  3  0  0  0  0  0  0
  -26.3750  -31.7650   25.1400 C   0  0  1  0  0  0  0  0  0  0  0  0
  -25.2860  -31.5350   26.2130 C   0  0  0  0  0  1  0  0  0  0  0  0
  -26.9490  -30.3850   24.7440 C   0  0  0  0  0  1  0  0  0  0  0  0
  -27.5310  -32.5550   25.7970 C   0  0  0  0  0  1  0  0  0  0  0  0
  -25.5520  -33.9360   24.1870 N   0  0  0  0  0  0  0  0  0  0  0  0
  -25.8960  -34.9850   23.4270 C   0  0  0  0  0  0  0  0  0  0  0  0
  -26.5740  -34.8750   22.4020 O   0  0  0  0  0  0  0  0  0  0  0  0
  -24.9490  -34.0950   24.9810 H   0  0  0  0  0  0  0  0  0  0  0  0
  -24.1830  -36.7880   23.0440 C   0  0  0  0  0  1  0  0  0  0  0  0
  -25.4090  -36.3770   23.8760 C   0  0  0  0  0  3  0  0  0  0  0  0
  -27.5370  -37.2490   24.7370 C   0  0  0  0  0  1  0  0  0  0  0  0
  -26.4490  -37.4240   23.7790 N   0  0  0  0  0  0  0  0  0  0  0  0
  -26.0460  -38.3460   23.9220 H   0  0  0  0  0  0  0  0  0  0  0  0
  1  2  1  0
  1 51  1  0
  2  4  1  0
  3  1  2  0
  5  8  1  0
  7  5  2  0
  7 10  1  0
  8  2  1  0
  8  6  2  0
  9  6  1  0
  9 21  1  0
 10  9  2  0
 11  7  1  0
 12 10  1  0
 13 21  1  0
 14 19  1  0
 15 16  1  0
 15 14  1  0
 17 16  1  0
 17 26  1  0
 17 18  1  0
 19 13  1  0
 19 18  1  0
 20 13  2  0
 21 22  1  0
 23 24  2  0
 24 25  1  0
 24 43  1  0
 25 28  1  0
 26 23  1  0
 26 27  1  0
 27 25  2  0
 28 29  1  0
 29 30  2  0
 31 34  1  0
 31 30  1  0
 32 31  2  0
 33 32  1  0
 33 28  2  0
 34 35  1  0
 35 36  1  0
 36 37  2  0
 38 37  1  0
 38 42  1  0
 39 38  2  0
 40 35  2  0
 40 39  1  0
 41 40  1  0
 43 44  1  0
 44 47  1  0
 44 46  1  0
 45 43  2  0
 48 49  1  0
 48 23  1  0
 50 48  1  0
 51 53  1  0
 51 52  2  0
 54 55  1  0
 54 53  1  0
 56 67  2  0
 57 55  1  0
 57 62  1  0
 58 66  1  0
 58 68  1  0
 59 65  1  0
 59 61  1  0
 60 66  1  0
 61 60  1  0
 62 61  2  0
 63 64  1  0
 63 57  2  0
 64 59  2  0
 65 58  1  0
 66 56  1  0
 68 70  2  0
 69 68  1  0
 71 69  1  0
 72 81  2  0
 72 77  1  0
 73 69  1  0
 73 77  1  0
 74 73  1  0
 75 76  1  0
 75 74  1  0
 76 72  1  0
 77 78  2  0
 78 79  1  0
 80 79  2  0
 81 80  1  0
 82 56  1  0
 82 87  1  0
 82 83  1  0
 83 86  1  1
 83 84  1  0
 85 83  1  0
 87 90  1  0
 88 92  1  0
 88 87  1  0
 89 88  2  0
 92 91  1  0
 94 92  1  0
 94 95  1  0
 94 93  1  0
M  ISO  4  13 100  21 100  54 101  55 101
M  END
>  <TORSDO>  (58) 
F 20

>  <SCORE>  (58) 
-13.961

>  <name>  (58) 
57

>  <ligand_id>  (58) 
57

>  <original_smiles>  (58) 
[H]c1c([H])c([H])c2c(c1[H])C([H])([H])C([H])([H])C([H])([H])C2([H])N([H])C(=O)C1([H])N(C(=O)C([H])(N([H])C(=O)C([H])(N([H])C([H])([H])[H])C([H])([H])[H])C(C([H])([H])[H])(C([H])([H])[H])C([H])([H])[H])C([H])([H])c2c([H])c(OC([H])([H])C([H])([H])C(=O)C(=O)N([H])c3c([H])c(N([H])C(=O)N4C([H])([H])C([H])([H])C([H])([H])C([H])(n5nc(-c6c([H])c([H])c(Oc7c([H])c([H])c(F)c([H])c7F)c([H])c6[H])c(C(=O)N([H])[H])c5N([H])[H])C4([H])[H])c(F)c(C([H])([H])[H])c3[H])c([H])c([H])c2C1([H])[H]

>  <smiles>  (58) 
[H]c1c([H])c([H])c2c(c1[H])C([H])([H])C([H])([H])C([H])([H])C2([H])N([H])C(=O)C1([H])N(C(=O)C([H])(N([H])C(=O)C([H])(N([H])C([H])([H])[H])C([H])([H])[H])C(C([H])([H])[H])(C([H])([H])[H])C([H])([H])[H])C([H])([H])c2c([H])c(OC([H])([H])C([H])([H])C(=O)C(=O)N([H])c3c([H])c(N([H])C(=O)N4C([H])([H])C([H])([H])C([H])([H])C([H])(n5nc(-c6c([H])c([H])c(Oc7c([H])c([H])c(F)c([H])c7F)c([H])c6[H])c(C(=O)N([H])[H])c5N([H])[H])C4([H])[H])c(F)c(C([H])([H])[H])c3[H])c([H])c([H])c2C1([H])[H]

$$$$
58:0:0
     RDKit          3D

 94102  0  0  1  0  0  0  0  0999 V2000
  -29.5290  -23.3980   19.0580 C   0  0  0  0  0  0  0  0  0  0  0  0
  -29.2020  -23.3580   17.8670 O   0  0  0  0  0  0  0  0  0  0  0  0
  -28.6110  -25.6370   19.4050 C   0  0  0  0  0  3  0  0  0  0  0  0
  -29.2940  -24.5800   19.8930 C   0  0  0  0  0  0  0  0  0  0  0  0
  -29.7600  -24.6310   21.1520 O   0  0  0  0  0  0  0  0  0  0  0  0
  -29.4980  -25.4720   21.5050 H   0  0  0  0  0  0  0  0  0  0  0  0
  -28.4140  -26.7630   20.1620 O   0  0  0  0  0  0  0  0  0  0  0  0
  -24.5910  -31.8780   23.2400 C   0  0  0  0  0  0  0  0  0  0  0  0
  -27.2210  -27.4520   20.1240 C   0  0  0  0  0  0  0  0  0  0  0  0
  -23.3710  -30.4780   21.6020 C   0  0  0  0  0  3  0  0  0  0  0  0
  -24.8150  -28.9430   20.1630 C   0  0  0  0  0  0  0  0  0  0  0  0
  -25.8960  -30.8370   21.3910 C   0  0  0  0  0  2  0  0  0  0  0  0
  -25.9740  -29.4700   20.7440 C   0  0  0  0  0  0  0  0  0  0  0  0
  -27.1760  -28.7300   20.7240 C   0  0  0  0  0  3  0  0  0  0  0  0
  -26.0370  -26.9230   19.5580 C   0  0  0  0  0  3  0  0  0  0  0  0
  -24.8410  -27.6670   19.5690 C   0  0  0  0  0  3  0  0  0  0  0  0
  -23.5690  -29.7970   20.2220 C   0  0  0  0  0  2  0  0  0  0  0  0
  -24.6370  -31.0790   22.1360 N   0  0  0  0  0  0  0  0  0  0  0  0
  -23.5140  -32.1510   23.7880 O   0  0  0  0  0  0  0  0  0  0  0  0
  -22.7270  -29.4580   22.5650 C   0  0  0  0  0  0  0  0  0  0  0  0
  -21.4020  -29.2760   22.4400 N   0  0  0  0  0  0  0  0  0  0  0  0
  -23.4120  -28.8320   23.3770 O   0  0  0  0  0  0  0  0  0  0  0  0
  -20.9120  -29.8320   21.7540 H   0  0  0  0  0  0  0  0  0  0  0  0
  -18.0330  -28.0710   22.9300 C   0  0  0  0  0  0  0  0  0  0  0  0
  -20.5880  -28.3390   23.2110 C   0  0  0  0  0  3  0  0  0  0  0  0
  -20.6970  -26.9050   22.6420 C   0  0  0  0  0  2  0  0  0  0  0  0
  -19.6000  -26.5730   21.6250 C   0  0  0  0  0  2  0  0  0  0  0  0
  -18.2150  -26.7190   22.2630 C   0  0  0  0  0  2  0  0  0  0  0  0
  -19.1470  -28.8380   23.3620 C   0  0  0  0  0  0  0  0  0  0  0  0
  -18.9210  -30.1050   23.9440 C   0  0  0  0  0  3  0  0  0  0  0  0
  -17.6130  -30.6010   24.1030 C   0  0  0  0  0  3  0  0  0  0  0  0
  -16.5140  -29.8300   23.6880 C   0  0  0  0  0  3  0  0  0  0  0  0
  -16.7240  -28.5670   23.1070 C   0  0  0  0  0  3  0  0  0  0  0  0
  -25.8840  -32.5030   23.8530 C   0  0  0  0  0  3  0  0  0  0  0  0
  -25.5820  -33.9000   24.1880 N   0  0  0  0  0  0  0  0  0  0  0  0
  -25.9140  -34.9530   23.4290 C   0  0  0  0  0  0  0  0  0  0  0  0
  -26.5800  -34.8500   22.3940 O   0  0  0  0  0  0  0  0  0  0  0  0
  -24.9920  -34.0560   24.9910 H   0  0  0  0  0  0  0  0  0  0  0  0
  -24.1930  -36.7520   23.0810 C   0  0  0  0  0  1  0  0  0  0  0  0
  -25.4320  -36.3410   23.8910 C   0  0  0  0  0  3  0  0  0  0  0  0
  -27.5730  -37.2140   24.7180 C   0  0  0  0  0  1  0  0  0  0  0  0
  -26.4680  -37.3910   23.7800 N   0  0  0  0  0  0  0  0  0  0  0  0
  -26.0650  -38.3120   23.9350 H   0  0  0  0  0  0  0  0  0  0  0  0
  -26.4100  -31.7280   25.1220 C   0  0  1  0  0  0  0  0  0  0  0  0
  -25.3260  -31.4970   26.2010 C   0  0  0  0  0  1  0  0  0  0  0  0
  -26.9830  -30.3480   24.7220 C   0  0  0  0  0  1  0  0  0  0  0  0
  -27.5700  -32.5170   25.7740 C   0  0  0  0  0  1  0  0  0  0  0  0
  -30.5830  -21.3660   19.1200 C   0  0  0  0  0  3  0  0  0  0  0  0
  -30.1580  -22.3790   19.7710 N   0  0  0  0  0  0  0  0  0  0  0  0
  -31.2310  -20.1550   19.7800 C   0  0  0  0  0  2  0  0  0  0  0  0
  -30.7190  -17.7530   20.6190 C   0  0  0  0  0  3  0  0  0  0  0  0
  -30.4150  -18.8790   19.7770 C   0  0  0  0  0  0  0  0  0  0  0  0
  -29.8900  -16.6670   20.4440 C   0  0  0  0  0  0  0  0  0  0  0  0
  -29.3260  -18.5880   18.9910 C   0  0  0  0  0  0  0  0  0  0  0  0
  -28.7920  -19.4150   18.0570 F   0  0  0  0  0  0  0  0  0  0  0  0
  -28.6510  -17.0170   19.2630 S   0  0  0  0  0  0  0  0  0  0  0  0
  -30.6690  -14.4470   20.5210 C   0  0  0  0  0  0  0  0  0  0  0  0
  -30.3760  -12.3030   19.3580 C   0  0  0  0  0  2  0  0  0  0  0  0
  -29.4440  -12.5380   18.1510 C   0  0  0  0  0  2  0  0  0  0  0  0
  -27.9650  -12.3990   18.5660 C   0  0  0  0  0  2  0  0  0  0  0  0
  -27.6220  -13.2220   19.8360 C   0  0  0  0  0  3  0  0  0  0  0  0
  -28.6660  -12.9750   20.9500 C   0  0  0  0  0  2  0  0  0  0  0  0
  -30.0020  -13.2690   20.4010 N   0  0  0  0  0  0  0  0  0  0  0  0
  -31.7990  -14.6400   20.0630 O   0  0  0  0  0  0  0  0  0  0  0  0
  -29.9460  -15.4500   21.0440 N   0  0  0  0  0  0  0  0  0  0  0  0
  -29.0670  -15.1200   21.4160 H   0  0  0  0  0  0  0  0  0  0  0  0
  -25.2150  -13.8400   20.5090 C   0  0  0  0  0  0  0  0  0  0  0  0
  -24.1430  -13.0710   20.8720 C   0  0  0  0  0  0  0  0  0  0  0  0
  -24.6040  -11.7200   20.8580 C   0  0  0  0  0  0  0  0  0  0  0  0
  -26.2630  -12.9540   20.2980 N   0  0  0  0  0  0  0  0  0  0  0  0
  -25.8970  -11.6750   20.5640 N   0  0  0  0  0  0  0  0  0  0  0  0
  -23.8740  -10.4590   21.0510 C   0  0  0  0  0  0  0  0  0  0  0  0
  -24.3090   -9.4930   21.9840 C   0  0  0  0  0  3  0  0  0  0  0  0
  -23.5860   -8.2950   22.1610 C   0  0  0  0  0  3  0  0  0  0  0  0
  -22.4140   -8.0540   21.4060 C   0  0  0  0  0  0  0  0  0  0  0  0
  -21.9980   -9.0100   20.4620 C   0  0  0  0  0  3  0  0  0  0  0  0
  -22.7220  -10.2010   20.2830 C   0  0  0  0  0  3  0  0  0  0  0  0
  -21.6610   -6.9100   21.4950 O   0  0  0  0  0  0  0  0  0  0  0  0
  -21.6210   -6.1590   22.6420 C   0  0  0  0  0  0  0  0  0  0  0  0
  -21.2090   -6.7090   23.8760 C   0  0  0  0  0  3  0  0  0  0  0  0
  -21.1170   -5.8860   25.0180 C   0  0  0  0  0  3  0  0  0  0  0  0
  -21.4240   -4.5160   24.9250 C   0  0  0  0  0  0  0  0  0  0  0  0
  -21.8270   -3.9650   23.6960 C   0  0  0  0  0  3  0  0  0  0  0  0
  -21.9220   -4.7850   22.5580 C   0  0  0  0  0  0  0  0  0  0  0  0
  -22.2920   -4.2460   21.3710 F   0  0  0  0  0  0  0  0  0  0  0  0
  -21.3260   -3.7240   26.0180 F   0  0  0  0  0  0  0  0  0  0  0  0
  -22.7430  -13.5510   21.1270 C   0  0  0  0  0  0  0  0  0  0  0  0
  -22.0030  -12.8640   21.9890 N   0  0  0  0  0  0  0  0  0  0  0  0
  -22.3120  -14.5730   20.5960 O   0  0  0  0  0  0  0  0  0  0  0  0
  -22.3610  -12.0390   22.4480 H   0  0  0  0  0  0  0  0  0  0  0  0
  -21.0630  -13.1710   22.1980 H   0  0  0  0  0  0  0  0  0  0  0  0
  -25.3850  -15.2080   20.3240 N   0  0  0  0  0  0  0  0  0  0  0  0
  -24.6190  -15.8680   20.4130 H   0  0  0  0  0  0  0  0  0  0  0  0
  -26.2420  -15.6390   20.0030 H   0  0  0  0  0  0  0  0  0  0  0  0
  1 49  1  0
  1  4  1  0
  2  1  2  0
  3  4  2  0
  3  7  1  0
  4  5  1  0
  5  6  1  0
  8 19  2  0
  9  7  1  0
  9 14  1  0
 10 18  1  0
 10 20  1  0
 11 17  1  0
 11 13  1  0
 12 18  1  0
 13 12  1  0
 14 13  2  0
 15 16  1  0
 15  9  2  0
 16 11  2  0
 17 10  1  0
 18  8  1  0
 20 22  2  0
 21 20  1  0
 23 21  1  0
 24 33  2  0
 24 29  1  0
 25 21  1  0
 25 29  1  0
 26 25  1  0
 27 28  1  0
 27 26  1  0
 28 24  1  0
 29 30  2  0
 30 31  1  0
 32 31  2  0
 33 32  1  0
 34  8  1  0
 34 35  1  0
 34 44  1  0
 35 38  1  0
 36 40  1  0
 36 35  1  0
 37 36  2  0
 40 39  1  0
 42 40  1  0
 42 43  1  0
 42 41  1  0
 44 47  1  1
 44 45  1  0
 46 44  1  0
 48 49  2  0
 48 50  1  0
 52 50  1  0
 52 51  1  0
 53 51  2  0
 53 65  1  0
 54 56  1  0
 54 52  2  0
 55 54  1  0
 56 53  1  0
 57 65  1  0
 58 63  1  0
 59 60  1  0
 59 58  1  0
 61 60  1  0
 61 70  1  0
 61 62  1  0
 63 57  1  0
 63 62  1  0
 64 57  2  0
 65 66  1  0
 67 68  2  0
 68 87  1  0
 69 68  1  0
 69 72  1  0
 70 67  1  0
 70 71  1  0
 71 69  2  0
 72 73  1  0
 73 74  2  0
 75 78  1  0
 75 74  1  0
 76 75  2  0
 77 76  1  0
 77 72  2  0
 78 79  1  0
 79 80  1  0
 80 81  2  0
 82 81  1  0
 82 86  1  0
 83 82  2  0
 84 79  2  0
 84 83  1  0
 85 84  1  0
 87 88  1  0
 88 91  1  0
 88 90  1  0
 89 87  2  0
 92 93  1  0
 92 67  1  0
 94 92  1  0
M  ISO  4   3 101   7 101  57 100  65 100
M  END
>  <TORSDO>  (59) 
F 21

>  <SCORE>  (59) 
-13.760

>  <name>  (59) 
58

>  <ligand_id>  (59) 
58

>  <original_smiles>  (59) 
[H]OC(C(=O)N=C([H])C([H])([H])c1c(F)sc(N([H])C(=O)N2C([H])([H])C([H])([H])C([H])([H])C([H])(n3nc(-c4c([H])c([H])c(Oc5c([H])c([H])c(F)c([H])c5F)c([H])c4[H])c(C(=O)N([H])[H])c3N([H])[H])C2([H])[H])c1[H])=C([H])Oc1c([H])c([H])c2c(c1[H])C([H])([H])N(C(=O)C([H])(N([H])C(=O)C([H])(N([H])C([H])([H])[H])C([H])([H])[H])C(C([H])([H])[H])(C([H])([H])[H])C([H])([H])[H])C([H])(C(=O)N([H])C1([H])c3c([H])c([H])c([H])c([H])c3C([H])([H])C([H])([H])C1([H])[H])C2([H])[H]

>  <smiles>  (59) 
[H]OC(C(=O)N=C([H])C([H])([H])c1c(F)sc(N([H])C(=O)N2C([H])([H])C([H])([H])C([H])([H])C([H])(n3nc(-c4c([H])c([H])c(Oc5c([H])c([H])c(F)c([H])c5F)c([H])c4[H])c(C(=O)N([H])[H])c3N([H])[H])C2([H])[H])c1[H])=C([H])Oc1c([H])c([H])c2c(c1[H])C([H])([H])N(C(=O)C([H])(N([H])C(=O)C([H])(N([H])C([H])([H])[H])C([H])([H])[H])C(C([H])([H])[H])(C([H])([H])[H])C([H])([H])[H])C([H])(C(=O)N([H])C1([H])c3c([H])c([H])c([H])c([H])c3C([H])([H])C([H])([H])C1([H])[H])C2([H])[H]

$$$$
59:0:0
     RDKit          3D

 98106  0  0  1  0  0  0  0  0999 V2000
  -29.4320  -21.4170   19.5950 C   0  0  0  0  0  0  0  0  0  0  0  0
  -30.5460  -20.8120   20.0360 N   0  0  0  0  0  0  0  0  0  0  0  0
  -28.3060  -20.9220   19.6990 O   0  0  0  0  0  0  0  0  0  0  0  0
  -31.3990  -21.3480   19.9410 H   0  0  0  0  0  0  0  0  0  0  0  0
  -30.1440  -18.3950   20.4700 C   0  0  0  0  0  3  0  0  0  0  0  0
  -30.6250  -19.6660   20.8680 C   0  0  0  0  0  0  0  0  0  0  0  0
  -30.2520  -17.2950   21.3520 C   0  0  0  0  0  0  0  0  0  0  0  0
  -31.2410  -19.8150   22.1300 C   0  0  0  0  0  0  0  0  0  0  0  0
  -30.8210  -17.4650   22.6310 C   0  0  0  0  0  0  0  0  0  0  0  0
  -31.3250  -18.7230   23.0160 C   0  0  0  0  0  0  0  0  0  0  0  0
  -31.7300  -21.0250   22.5030 F   0  0  0  0  0  0  0  0  0  0  0  0
  -30.8930  -16.4150   23.4860 F   0  0  0  0  0  0  0  0  0  0  0  0
  -31.8870  -18.8820   24.2370 F   0  0  0  0  0  0  0  0  0  0  0  0
  -30.3150  -15.2350   20.0540 C   0  0  0  0  0  0  0  0  0  0  0  0
  -30.1770  -13.0650   18.8910 C   0  0  0  0  0  2  0  0  0  0  0  0
  -29.1280  -13.1330   17.7640 C   0  0  0  0  0  2  0  0  0  0  0  0
  -27.7210  -12.8140   18.3030 C   0  0  0  0  0  2  0  0  0  0  0  0
  -27.3720  -13.6240   19.5800 C   0  0  0  0  0  3  0  0  0  0  0  0
  -28.5230  -13.5470   20.6090 C   0  0  0  0  0  2  0  0  0  0  0  0
  -29.7650  -13.9970   19.9500 N   0  0  0  0  0  0  0  0  0  0  0  0
  -31.2480  -15.6270   19.3460 O   0  0  0  0  0  0  0  0  0  0  0  0
  -29.7640  -16.0210   20.9850 N   0  0  0  0  0  0  0  0  0  0  0  0
  -29.0770  -15.5900   21.5840 H   0  0  0  0  0  0  0  0  0  0  0  0
  -24.9950  -13.9430   20.5200 C   0  0  0  0  0  0  0  0  0  0  0  0
  -24.0490  -13.0440   20.9370 C   0  0  0  0  0  0  0  0  0  0  0  0
  -24.6400  -11.7530   20.7890 C   0  0  0  0  0  0  0  0  0  0  0  0
  -26.1000  -13.1890   20.1560 N   0  0  0  0  0  0  0  0  0  0  0  0
  -25.8940  -11.8650   20.3690 N   0  0  0  0  0  0  0  0  0  0  0  0
  -24.0680  -10.4120   20.9660 C   0  0  0  0  0  0  0  0  0  0  0  0
  -24.4510   -9.5810   22.0430 C   0  0  0  0  0  3  0  0  0  0  0  0
  -23.8720   -8.3040   22.2020 C   0  0  0  0  0  3  0  0  0  0  0  0
  -22.8960   -7.8460   21.2840 C   0  0  0  0  0  0  0  0  0  0  0  0
  -22.5340   -8.6680   20.2030 C   0  0  0  0  0  3  0  0  0  0  0  0
  -23.1150   -9.9370   20.0430 C   0  0  0  0  0  3  0  0  0  0  0  0
  -22.2970   -6.6110   21.3470 O   0  0  0  0  0  0  0  0  0  0  0  0
  -21.8840   -6.0700   22.5390 C   0  0  0  0  0  0  0  0  0  0  0  0
  -20.9090   -6.6970   23.3450 C   0  0  0  0  0  3  0  0  0  0  0  0
  -20.4650   -6.0730   24.5280 C   0  0  0  0  0  3  0  0  0  0  0  0
  -20.9840   -4.8190   24.8990 C   0  0  0  0  0  0  0  0  0  0  0  0
  -21.9500   -4.1890   24.0950 C   0  0  0  0  0  3  0  0  0  0  0  0
  -22.3960   -4.8130   22.9160 C   0  0  0  0  0  0  0  0  0  0  0  0
  -23.3110   -4.1920   22.1340 F   0  0  0  0  0  0  0  0  0  0  0  0
  -20.5520   -4.2140   26.0310 F   0  0  0  0  0  0  0  0  0  0  0  0
  -22.6410  -13.3580   21.3560 C   0  0  0  0  0  0  0  0  0  0  0  0
  -22.0730  -12.5600   22.2550 N   0  0  0  0  0  0  0  0  0  0  0  0
  -22.0510  -14.3470   20.9250 O   0  0  0  0  0  0  0  0  0  0  0  0
  -22.5590  -11.7620   22.6350 H   0  0  0  0  0  0  0  0  0  0  0  0
  -21.1330  -12.7540   22.5700 H   0  0  0  0  0  0  0  0  0  0  0  0
  -25.0020  -15.3300   20.4050 N   0  0  0  0  0  0  0  0  0  0  0  0
  -24.1890  -15.8970   20.6190 H   0  0  0  0  0  0  0  0  0  0  0  0
  -25.7750  -15.8700   20.0350 H   0  0  0  0  0  0  0  0  0  0  0  0
  -29.6200  -22.7850   18.9250 C   0  0  0  0  0  3  0  0  0  0  0  0
  -29.6990  -22.6160   17.6010 F   0  0  0  0  0  0  0  0  0  0  0  0
  -28.4920  -23.7770   19.2700 C   0  0  0  0  0  2  0  0  0  0  0  0
  -28.8530  -25.2430   19.0070 C   0  0  0  0  0  0  0  0  0  0  0  0
  -29.9930  -25.6750   19.2140 O   0  0  0  0  0  0  0  0  0  0  0  0
  -27.7140  -26.1480   18.5240 C   0  0  0  0  0  2  0  0  0  0  0  0
  -27.8800  -27.5140   18.9530 O   0  0  0  0  0  0  0  0  0  0  0  0
  -24.4780  -31.9790   23.3410 C   0  0  0  0  0  0  0  0  0  0  0  0
  -26.7160  -28.2170   19.2010 C   0  0  0  0  0  0  0  0  0  0  0  0
  -23.0800  -30.8690   21.6320 C   0  0  0  0  0  3  0  0  0  0  0  0
  -24.3450  -29.6520   19.7860 C   0  0  0  0  0  0  0  0  0  0  0  0
  -25.5680  -31.3070   21.2030 C   0  0  0  0  0  2  0  0  0  0  0  0
  -25.5690  -30.0800   20.3150 C   0  0  0  0  0  0  0  0  0  0  0  0
  -26.7580  -29.3700   20.0200 C   0  0  0  0  0  3  0  0  0  0  0  0
  -25.4670  -27.8180   18.6640 C   0  0  0  0  0  3  0  0  0  0  0  0
  -24.2890  -28.5200   18.9620 C   0  0  0  0  0  3  0  0  0  0  0  0
  -23.1160  -30.4590   20.1370 C   0  0  0  0  0  2  0  0  0  0  0  0
  -24.4000  -31.3900   22.1140 N   0  0  0  0  0  0  0  0  0  0  0  0
  -23.4700  -32.1260   24.0460 O   0  0  0  0  0  0  0  0  0  0  0  0
  -22.5530  -29.6750   22.4590 C   0  0  0  0  0  0  0  0  0  0  0  0
  -21.2460  -29.3910   22.3330 N   0  0  0  0  0  0  0  0  0  0  0  0
  -23.3130  -29.0140   23.1710 O   0  0  0  0  0  0  0  0  0  0  0  0
  -20.6910  -29.9860   21.7350 H   0  0  0  0  0  0  0  0  0  0  0  0
  -18.0480  -27.7240   22.5780 C   0  0  0  0  0  0  0  0  0  0  0  0
  -20.5370  -28.2910   22.9850 C   0  0  0  0  0  3  0  0  0  0  0  0
  -20.8520  -26.9420   22.3010 C   0  0  0  0  0  2  0  0  0  0  0  0
  -19.8370  -26.5640   21.2160 C   0  0  0  0  0  2  0  0  0  0  0  0
  -18.4270  -26.4730   21.8050 C   0  0  0  0  0  2  0  0  0  0  0  0
  -19.0390  -28.5860   23.1180 C   0  0  0  0  0  0  0  0  0  0  0  0
  -18.6320  -29.7570   23.7940 C   0  0  0  0  0  3  0  0  0  0  0  0
  -17.2660  -30.0680   23.9400 C   0  0  0  0  0  3  0  0  0  0  0  0
  -16.2910  -29.2010   23.4180 C   0  0  0  0  0  3  0  0  0  0  0  0
  -16.6820  -28.0310   22.7430 C   0  0  0  0  0  3  0  0  0  0  0  0
  -25.8300  -32.5150   23.9050 C   0  0  0  0  0  3  0  0  0  0  0  0
  -25.6310  -33.9270   24.2580 N   0  0  0  0  0  0  0  0  0  0  0  0
  -26.0110  -34.9620   23.4980 C   0  0  0  0  0  0  0  0  0  0  0  0
  -26.6420  -34.8250   22.4470 O   0  0  0  0  0  0  0  0  0  0  0  0
  -25.0730  -34.1130   25.0780 H   0  0  0  0  0  0  0  0  0  0  0  0
  -24.4010  -36.8730   23.2100 C   0  0  0  0  0  1  0  0  0  0  0  0
  -25.6330  -36.3760   23.9820 C   0  0  0  0  0  3  0  0  0  0  0  0
  -27.8350  -37.1130   24.7790 C   0  0  0  0  0  1  0  0  0  0  0  0
  -26.7340  -37.3560   23.8510 N   0  0  0  0  0  0  0  0  0  0  0  0
  -26.3920  -38.3020   24.0060 H   0  0  0  0  0  0  0  0  0  0  0  0
  -26.3530  -31.6970   25.1500 C   0  0  1  0  0  0  0  0  0  0  0  0
  -25.3000  -31.5220   26.2690 C   0  0  0  0  0  1  0  0  0  0  0  0
  -26.8210  -30.2870   24.7220 C   0  0  0  0  0  1  0  0  0  0  0  0
  -27.5860  -32.4040   25.7590 C   0  0  0  0  0  1  0  0  0  0  0  0
  1  3  2  0
  1  2  1  0
  2  6  1  0
  4  2  1  0
  5  6  2  0
  5  7  1  0
  6  8  1  0
  7  9  2  0
  8 11  1  0
  8 10  2  0
  9 10  1  0
  9 12  1  0
 10 13  1  0
 14 22  1  0
 15 20  1  0
 16 17  1  0
 16 15  1  0
 18 17  1  0
 18 27  1  0
 18 19  1  0
 20 14  1  0
 20 19  1  0
 21 14  2  0
 22  7  1  0
 22 23  1  0
 24 25  2  0
 25 44  1  0
 26 25  1  0
 26 29  1  0
 27 28  1  0
 27 24  1  0
 28 26  2  0
 29 30  1  0
 30 31  2  0
 32 35  1  0
 32 31  1  0
 33 32  2  0
 34 33  1  0
 34 29  2  0
 35 36  1  0
 36 41  2  0
 36 37  1  0
 37 38  2  0
 38 39  1  0
 39 43  1  0
 40 39  2  0
 41 40  1  0
 42 41  1  0
 44 45  1  0
 45 48  1  0
 45 47  1  0
 46 44  2  0
 49 24  1  0
 49 50  1  0
 51 49  1  0
 52 53  1  0
 52 54  1  0
 52  1  1  0
 55 56  2  0
 55 54  1  0
 57 58  1  0
 57 55  1  0
 58 60  1  0
 59 70  2  0
 60 65  1  0
 61 69  1  0
 61 71  1  0
 62 68  1  0
 62 64  1  0
 63 69  1  0
 64 63  1  0
 65 64  2  0
 66 67  1  0
 66 60  2  0
 67 62  2  0
 68 61  1  0
 69 59  1  0
 71 73  2  0
 72 71  1  0
 74 72  1  0
 75 84  2  0
 75 80  1  0
 76 72  1  0
 76 80  1  0
 77 76  1  0
 78 79  1  0
 78 77  1  0
 79 75  1  0
 80 81  2  0
 81 82  1  0
 83 82  2  0
 84 83  1  0
 85 59  1  0
 85 86  1  0
 85 95  1  0
 86 89  1  0
 87 91  1  0
 87 86  1  0
 88 87  2  0
 91 90  1  0
 93 91  1  0
 93 94  1  0
 93 92  1  0
 95 98  1  1
 95 96  1  0
 97 95  1  0
M  ISO  4  14 100  22 100  57 101  58 101
M  END
>  <TORSDO>  (60) 
F 21

>  <SCORE>  (60) 
-10.459

>  <name>  (60) 
59

>  <ligand_id>  (60) 
59

>  <original_smiles>  (60) 
[H]c1c([H])c([H])c2c(c1[H])C([H])([H])C([H])([H])C([H])([H])C2([H])N([H])C(=O)C1([H])N(C(=O)C([H])(N([H])C(=O)C([H])(N([H])C([H])([H])[H])C([H])([H])[H])C(C([H])([H])[H])(C([H])([H])[H])C([H])([H])[H])C([H])([H])c2c([H])c(OC([H])([H])C(=O)C([H])([H])C([H])(F)C(=O)N([H])c3c([H])c(N([H])C(=O)N4C([H])([H])C([H])([H])C([H])([H])C([H])(n5nc(-c6c([H])c([H])c(Oc7c([H])c([H])c(F)c([H])c7F)c([H])c6[H])c(C(=O)N([H])[H])c5N([H])[H])C4([H])[H])c(F)c(F)c3F)c([H])c([H])c2C1([H])[H]

>  <smiles>  (60) 
[H]c1c([H])c([H])c2c(c1[H])C([H])([H])C([H])([H])C([H])([H])C2([H])N([H])C(=O)C1([H])N(C(=O)C([H])(N([H])C(=O)C([H])(N([H])C([H])([H])[H])C([H])([H])[H])C(C([H])([H])[H])(C([H])([H])[H])C([H])([H])[H])C([H])([H])c2c([H])c(OC([H])([H])C(=O)C([H])([H])C([H])(F)C(=O)N([H])c3c([H])c(N([H])C(=O)N4C([H])([H])C([H])([H])C([H])([H])C([H])(n5nc(-c6c([H])c([H])c(Oc7c([H])c([H])c(F)c([H])c7F)c([H])c6[H])c(C(=O)N([H])[H])c5N([H])[H])C4([H])[H])c(F)c(F)c3F)c([H])c([H])c2C1([H])[H]

$$$$
60:0:0
     RDKit          3D

 96104  0  0  1  0  0  0  0  0999 V2000
  -31.7300  -20.3990   19.0290 C   0  0  0  0  0  1  0  0  0  0  0  0
  -30.3650  -20.2760   19.7280 C   0  0  0  0  0  3  0  0  0  0  0  0
  -30.7200  -14.4330   20.0230 C   0  0  0  0  0  0  0  0  0  0  0  0
  -30.3310  -12.3320   18.7650 C   0  0  0  0  0  2  0  0  0  0  0  0
  -29.2890  -12.6120   17.6600 C   0  0  0  0  0  2  0  0  0  0  0  0
  -27.8490  -12.4740   18.1980 C   0  0  0  0  0  2  0  0  0  0  0  0
  -27.6360  -13.2290   19.5400 C   0  0  0  0  0  3  0  0  0  0  0  0
  -28.7740  -12.9030   20.5340 C   0  0  0  0  0  2  0  0  0  0  0  0
  -30.0540  -13.2490   19.8840 N   0  0  0  0  0  0  0  0  0  0  0  0
  -31.7970  -14.6570   19.4600 O   0  0  0  0  0  0  0  0  0  0  0  0
  -30.3670  -19.0450   20.6580 C   0  0  0  0  0  0  0  0  0  0  0  0
  -30.4400  -18.9910   22.0390 C   0  0  0  0  0  0  0  0  0  0  0  0
  -30.3390  -16.7440   21.0040 C   0  0  0  0  0  0  0  0  0  0  0  0
  -30.2900  -17.7390   20.0930 N   0  0  0  0  0  0  0  0  0  0  0  0
  -30.0540  -15.3660   20.7390 N   0  0  0  0  0  0  0  0  0  0  0  0
  -30.4580  -17.3490   22.6450 S   0  0  0  0  0  0  0  0  0  0  0  0
  -29.2620  -14.9950   21.2380 H   0  0  0  0  0  0  0  0  0  0  0  0
  -25.3060  -13.8450   20.4430 C   0  0  0  0  0  0  0  0  0  0  0  0
  -24.2580  -13.0740   20.8710 C   0  0  0  0  0  0  0  0  0  0  0  0
  -24.6960  -11.7190   20.7670 C   0  0  0  0  0  0  0  0  0  0  0  0
  -26.3190  -12.9570   20.1100 N   0  0  0  0  0  0  0  0  0  0  0  0
  -25.9590  -11.6720   20.3610 N   0  0  0  0  0  0  0  0  0  0  0  0
  -23.9680  -10.4610   20.9790 C   0  0  0  0  0  0  0  0  0  0  0  0
  -24.4320   -9.4840   21.8870 C   0  0  0  0  0  3  0  0  0  0  0  0
  -23.7070   -8.2900   22.0880 C   0  0  0  0  0  3  0  0  0  0  0  0
  -22.5010   -8.0660   21.3790 C   0  0  0  0  0  0  0  0  0  0  0  0
  -22.0560   -9.0300   20.4600 C   0  0  0  0  0  3  0  0  0  0  0  0
  -22.7820  -10.2170   20.2580 C   0  0  0  0  0  3  0  0  0  0  0  0
  -21.7440   -6.9260   21.4900 O   0  0  0  0  0  0  0  0  0  0  0  0
  -21.6980   -6.2010   22.6530 C   0  0  0  0  0  0  0  0  0  0  0  0
  -21.2780   -6.7770   23.8720 C   0  0  0  0  0  3  0  0  0  0  0  0
  -21.1800   -5.9790   25.0300 C   0  0  0  0  0  3  0  0  0  0  0  0
  -21.4900   -4.6070   24.9690 C   0  0  0  0  0  0  0  0  0  0  0  0
  -21.9010   -4.0310   23.7530 C   0  0  0  0  0  3  0  0  0  0  0  0
  -22.0020   -4.8260   22.6000 C   0  0  0  0  0  0  0  0  0  0  0  0
  -22.3800   -4.2610   21.4260 F   0  0  0  0  0  0  0  0  0  0  0  0
  -21.3870   -3.8380   26.0790 F   0  0  0  0  0  0  0  0  0  0  0  0
  -22.8940  -13.5620   21.2640 C   0  0  0  0  0  0  0  0  0  0  0  0
  -22.2290  -12.8600   22.1770 N   0  0  0  0  0  0  0  0  0  0  0  0
  -22.4270  -14.6000   20.7980 O   0  0  0  0  0  0  0  0  0  0  0  0
  -22.6190  -12.0190   22.5770 H   0  0  0  0  0  0  0  0  0  0  0  0
  -21.3180  -13.1730   22.4810 H   0  0  0  0  0  0  0  0  0  0  0  0
  -25.4740  -15.2180   20.2910 N   0  0  0  0  0  0  0  0  0  0  0  0
  -24.7230  -15.8740   20.4790 H   0  0  0  0  0  0  0  0  0  0  0  0
  -26.2960  -15.6590   19.9000 H   0  0  0  0  0  0  0  0  0  0  0  0
  -30.4700  -20.0250   22.9700 N   0  0  0  0  0  0  0  0  0  0  0  0
  -29.8290  -20.7930   22.7980 H   0  0  0  0  0  0  0  0  0  0  0  0
  -30.4020  -19.7410   23.9430 H   0  0  0  0  0  0  0  0  0  0  0  0
  -29.2860  -22.5780   19.7450 C   0  0  0  0  0  0  0  0  0  0  0  0
  -30.0310  -21.6030   20.3290 N   0  0  0  0  0  0  0  0  0  0  0  0
  -28.6600  -22.3890   18.6970 O   0  0  0  0  0  0  0  0  0  0  0  0
  -30.5010  -21.8460   21.1930 H   0  0  0  0  0  0  0  0  0  0  0  0
  -29.2920  -24.0010   20.4500 C   0  0  0  0  0  0  0  0  0  0  0  0
  -30.1220  -24.2990   21.3190 O   0  0  0  0  0  0  0  0  0  0  0  0
  -28.1810  -25.0010   20.0020 C   0  0  0  0  0  2  0  0  0  0  0  0
  -28.3680  -26.4090   20.3720 O   0  0  0  0  0  0  0  0  0  0  0  0
  -24.6120  -31.8030   23.2590 C   0  0  0  0  0  0  0  0  0  0  0  0
  -27.2370  -27.2270   20.2900 C   0  0  0  0  0  0  0  0  0  0  0  0
  -23.4140  -30.3920   21.6230 C   0  0  0  0  0  3  0  0  0  0  0  0
  -24.8720  -28.8230   20.2350 C   0  0  0  0  0  0  0  0  0  0  0  0
  -25.9560  -30.7040   21.4620 C   0  0  0  0  0  2  0  0  0  0  0  0
  -26.0340  -29.3210   20.8370 C   0  0  0  0  0  0  0  0  0  0  0  0
  -27.2200  -28.5340   20.8560 C   0  0  0  0  0  3  0  0  0  0  0  0
  -26.0490  -26.7740   19.6640 C   0  0  0  0  0  3  0  0  0  0  0  0
  -24.8810  -27.5530   19.6420 C   0  0  0  0  0  3  0  0  0  0  0  0
  -23.6380  -29.6990   20.2540 C   0  0  0  0  0  2  0  0  0  0  0  0
  -24.6780  -30.9830   22.1720 N   0  0  0  0  0  0  0  0  0  0  0  0
  -23.5260  -32.0960   23.7800 O   0  0  0  0  0  0  0  0  0  0  0  0
  -22.7350  -29.3920   22.5880 C   0  0  0  0  0  0  0  0  0  0  0  0
  -21.4130  -29.2090   22.4350 N   0  0  0  0  0  0  0  0  0  0  0  0
  -23.3970  -28.7820   23.4310 O   0  0  0  0  0  0  0  0  0  0  0  0
  -20.9400  -29.7490   21.7230 H   0  0  0  0  0  0  0  0  0  0  0  0
  -18.0300  -28.0040   22.8580 C   0  0  0  0  0  0  0  0  0  0  0  0
  -20.5770  -28.2880   23.2070 C   0  0  0  0  0  3  0  0  0  0  0  0
  -20.7090  -26.8410   22.6790 C   0  0  0  0  0  2  0  0  0  0  0  0
  -19.6430  -26.4800   21.6400 C   0  0  0  0  0  2  0  0  0  0  0  0
  -18.2400  -26.6350   22.2310 C   0  0  0  0  0  2  0  0  0  0  0  0
  -19.1300  -28.7850   23.3030 C   0  0  0  0  0  0  0  0  0  0  0  0
  -18.8820  -30.0650   23.8460 C   0  0  0  0  0  3  0  0  0  0  0  0
  -17.5690  -30.5610   23.9530 C   0  0  0  0  0  3  0  0  0  0  0  0
  -16.4840  -29.7750   23.5270 C   0  0  0  0  0  3  0  0  0  0  0  0
  -16.7160  -28.4990   22.9830 C   0  0  0  0  0  3  0  0  0  0  0  0
  -25.8950  -32.4320   23.8860 C   0  0  0  0  0  3  0  0  0  0  0  0
  -26.3970  -31.6650   25.1710 C   0  0  1  0  0  0  0  0  0  0  0  0
  -25.2950  -31.4370   26.2310 C   0  0  0  0  0  1  0  0  0  0  0  0
  -26.9780  -30.2830   24.7920 C   0  0  0  0  0  1  0  0  0  0  0  0
  -27.5470  -32.4560   25.8390 C   0  0  0  0  0  1  0  0  0  0  0  0
  -25.5930  -33.8320   24.2070 N   0  0  0  0  0  0  0  0  0  0  0  0
  -25.9180  -34.8770   23.4350 C   0  0  0  0  0  0  0  0  0  0  0  0
  -26.5790  -34.7620   22.3990 O   0  0  0  0  0  0  0  0  0  0  0  0
  -25.0080  -33.9960   25.0140 H   0  0  0  0  0  0  0  0  0  0  0  0
  -24.1810  -36.6610   23.0890 C   0  0  0  0  0  1  0  0  0  0  0  0
  -25.4370  -36.2700   23.8830 C   0  0  0  0  0  3  0  0  0  0  0  0
  -27.5810  -37.1670   24.6680 C   0  0  0  0  0  1  0  0  0  0  0  0
  -26.4630  -37.3240   23.7420 N   0  0  0  0  0  0  0  0  0  0  0  0
  -26.0590  -38.2440   23.8910 H   0  0  0  0  0  0  0  0  0  0  0  0
  2  1  1  0
  2 50  1  0
  2 11  1  0
  3 15  1  0
  4  9  1  0
  5  6  1  0
  5  4  1  0
  7  6  1  0
  7 21  1  0
  7  8  1  0
  9  3  1  0
  9  8  1  0
 10  3  2  0
 11 12  2  0
 12 16  1  0
 12 46  1  0
 13 16  1  0
 14 11  1  0
 14 13  2  0
 15 13  1  0
 15 17  1  0
 18 19  2  0
 19 38  1  0
 20 19  1  0
 20 23  1  0
 21 22  1  0
 21 18  1  0
 22 20  2  0
 23 24  1  0
 24 25  2  0
 26 29  1  0
 26 25  1  0
 27 26  2  0
 28 27  1  0
 28 23  2  0
 29 30  1  0
 30 31  1  0
 31 32  2  0
 33 32  1  0
 33 37  1  0
 34 33  2  0
 35 30  2  0
 35 34  1  0
 36 35  1  0
 38 39  1  0
 39 42  1  0
 39 41  1  0
 40 38  2  0
 43 18  1  0
 43 44  1  0
 45 43  1  0
 46 48  1  0
 47 46  1  0
 49 50  1  0
 49 53  1  0
 50 52  1  0
 51 49  2  0
 53 54  2  0
 55 56  1  0
 55 53  1  0
 57 68  2  0
 58 56  1  0
 58 63  1  0
 59 67  1  0
 59 69  1  0
 60 66  1  0
 60 62  1  0
 61 67  1  0
 62 63  2  0
 62 61  1  0
 64 58  2  0
 65 64  1  0
 65 60  2  0
 66 59  1  0
 67 57  1  0
 69 71  2  0
 70 69  1  0
 72 70  1  0
 73 82  2  0
 73 78  1  0
 74 70  1  0
 74 78  1  0
 75 74  1  0
 76 77  1  0
 76 75  1  0
 77 73  1  0
 78 79  2  0
 79 80  1  0
 81 80  2  0
 82 81  1  0
 83 57  1  0
 83 88  1  0
 83 84  1  0
 84 87  1  1
 84 85  1  0
 86 84  1  0
 88 91  1  0
 89 93  1  0
 89 88  1  0
 90 89  2  0
 93 92  1  0
 95 93  1  0
 95 96  1  0
 95 94  1  0
M  ISO  4   3 100  15 100  55 101  56 101
M  END
>  <TORSDO>  (61) 
F 20

>  <SCORE>  (61) 
-13.379

>  <name>  (61) 
60

>  <ligand_id>  (61) 
60

>  <original_smiles>  (61) 
[H]c1c([H])c([H])c2c(c1[H])C([H])([H])C([H])([H])C([H])([H])C2([H])N([H])C(=O)C1([H])N(C(=O)C([H])(N([H])C(=O)C([H])(N([H])C([H])([H])[H])C([H])([H])[H])C(C([H])([H])[H])(C([H])([H])[H])C([H])([H])[H])C([H])([H])c2c([H])c(OC([H])([H])C(=O)C(=O)N([H])C([H])(c3nc(N([H])C(=O)N4C([H])([H])C([H])([H])C([H])([H])C([H])(n5nc(-c6c([H])c([H])c(Oc7c([H])c([H])c(F)c([H])c7F)c([H])c6[H])c(C(=O)N([H])[H])c5N([H])[H])C4([H])[H])sc3N([H])[H])C([H])([H])[H])c([H])c([H])c2C1([H])[H]

>  <smiles>  (61) 
[H]c1c([H])c([H])c2c(c1[H])C([H])([H])C([H])([H])C([H])([H])C2([H])N([H])C(=O)C1([H])N(C(=O)C([H])(N([H])C(=O)C([H])(N([H])C([H])([H])[H])C([H])([H])[H])C(C([H])([H])[H])(C([H])([H])[H])C([H])([H])[H])C([H])([H])c2c([H])c(OC([H])([H])C(=O)C(=O)N([H])C([H])(c3nc(N([H])C(=O)N4C([H])([H])C([H])([H])C([H])([H])C([H])(n5nc(-c6c([H])c([H])c(Oc7c([H])c([H])c(F)c([H])c7F)c([H])c6[H])c(C(=O)N([H])[H])c5N([H])[H])C4([H])[H])sc3N([H])[H])C([H])([H])[H])c([H])c([H])c2C1([H])[H]

$$$$
61:0:0
     RDKit          3D

 99107  0  0  1  0  0  0  0  0999 V2000
  -28.9980  -21.4480   20.2540 C   0  0  0  0  0  3  0  0  0  0  0  0
  -32.4710  -19.2600   21.0040 C   0  0  0  0  0  3  0  0  0  0  0  0
  -30.1950  -18.0770   20.2290 C   0  0  0  0  0  0  0  0  0  0  0  0
  -31.2670  -17.3240   20.7430 C   0  0  0  0  0  0  0  0  0  0  0  0
  -30.3860  -19.4610   20.1220 C   0  0  0  0  0  0  0  0  0  0  0  0
  -32.4020  -17.9390   21.1460 N   0  0  0  0  0  0  0  0  0  0  0  0
  -31.5260  -20.0550   20.5080 N   0  0  0  0  0  0  0  0  0  0  0  0
  -29.4020  -20.2440   19.5270 N   0  0  0  0  0  0  0  0  0  0  0  0
  -29.0390  -17.4890   19.8290 F   0  0  0  0  0  0  0  0  0  0  0  0
  -28.6050  -19.6740   19.2760 H   0  0  0  0  0  0  0  0  0  0  0  0
  -31.6660  -14.9870   20.1320 C   0  0  0  0  0  0  0  0  0  0  0  0
  -31.3170  -12.8090   19.0290 C   0  0  0  0  0  2  0  0  0  0  0  0
  -30.3610  -12.9790   17.8310 C   0  0  0  0  0  2  0  0  0  0  0  0
  -28.8910  -12.8760   18.2840 C   0  0  0  0  0  2  0  0  0  0  0  0
  -28.5790  -13.7720   19.5120 C   0  0  0  0  0  3  0  0  0  0  0  0
  -29.6390  -13.5620   20.6170 C   0  0  0  0  0  2  0  0  0  0  0  0
  -30.9700  -13.8230   20.0340 N   0  0  0  0  0  0  0  0  0  0  0  0
  -32.7440  -15.1730   19.5560 O   0  0  0  0  0  0  0  0  0  0  0  0
  -31.0530  -15.9350   20.8510 N   0  0  0  0  0  0  0  0  0  0  0  0
  -30.1380  -15.6750   21.1800 H   0  0  0  0  0  0  0  0  0  0  0  0
  -26.2160  -14.4520   20.2790 C   0  0  0  0  0  0  0  0  0  0  0  0
  -25.1280  -13.7100   20.6550 C   0  0  0  0  0  0  0  0  0  0  0  0
  -25.5420  -12.3440   20.5930 C   0  0  0  0  0  0  0  0  0  0  0  0
  -27.2260  -13.5400   20.0140 N   0  0  0  0  0  0  0  0  0  0  0  0
  -26.8230  -12.2660   20.2560 N   0  0  0  0  0  0  0  0  0  0  0  0
  -24.7790  -11.1030   20.7790 C   0  0  0  0  0  0  0  0  0  0  0  0
  -25.1270  -10.1640   21.7760 C   0  0  0  0  0  3  0  0  0  0  0  0
  -24.3670   -8.9870   21.9470 C   0  0  0  0  0  3  0  0  0  0  0  0
  -23.2460   -8.7400   21.1210 C   0  0  0  0  0  0  0  0  0  0  0  0
  -22.9170   -9.6660   20.1150 C   0  0  0  0  0  3  0  0  0  0  0  0
  -23.6770  -10.8360   19.9430 C   0  0  0  0  0  3  0  0  0  0  0  0
  -22.4640   -7.6120   21.1980 O   0  0  0  0  0  0  0  0  0  0  0  0
  -22.1870   -7.0100   22.3990 C   0  0  0  0  0  0  0  0  0  0  0  0
  -21.5290   -7.6960   23.4420 C   0  0  0  0  0  3  0  0  0  0  0  0
  -21.2010   -7.0180   24.6340 C   0  0  0  0  0  3  0  0  0  0  0  0
  -21.5200   -5.6540   24.7800 C   0  0  0  0  0  0  0  0  0  0  0  0
  -22.1690   -4.9680   23.7380 C   0  0  0  0  0  3  0  0  0  0  0  0
  -22.4990   -5.6430   22.5500 C   0  0  0  0  0  0  0  0  0  0  0  0
  -23.1070   -4.9720   21.5430 F   0  0  0  0  0  0  0  0  0  0  0  0
  -21.1990   -5.0010   25.9210 F   0  0  0  0  0  0  0  0  0  0  0  0
  -23.7550  -14.2300   20.9680 C   0  0  0  0  0  0  0  0  0  0  0  0
  -23.0350  -13.5620   21.8650 N   0  0  0  0  0  0  0  0  0  0  0  0
  -23.3280  -15.2610   20.4530 O   0  0  0  0  0  0  0  0  0  0  0  0
  -23.3890  -12.7260   22.3060 H   0  0  0  0  0  0  0  0  0  0  0  0
  -22.1150  -13.8970   22.1160 H   0  0  0  0  0  0  0  0  0  0  0  0
  -26.4270  -15.8190   20.1280 N   0  0  0  0  0  0  0  0  0  0  0  0
  -25.6900  -16.4970   20.2800 H   0  0  0  0  0  0  0  0  0  0  0  0
  -27.3180  -16.2510   19.9090 H   0  0  0  0  0  0  0  0  0  0  0  0
  -27.6950  -21.1970   21.0540 C   0  0  2  0  0  0  0  0  0  0  0  0
  -27.1600  -22.3420   21.4790 F   0  0  0  0  0  0  0  0  0  0  0  0
  -27.9720  -20.4480   22.1220 F   0  0  0  0  0  0  0  0  0  0  0  0
  -26.7960  -20.5430   20.3170 F   0  0  0  0  0  0  0  0  0  0  0  0
  -28.9310  -22.6700   19.3330 C   0  0  0  0  0  0  0  0  0  0  0  0
  -28.4120  -22.3870   17.9180 C   0  0  0  0  0  1  0  0  0  0  0  0
  -29.3110  -23.8040   19.8000 N   0  0  0  0  0  0  0  0  0  0  0  0
  -29.4220  -24.9280   18.9950 C   0  0  0  0  0  0  0  0  0  0  0  0
  -29.6210  -24.9750   17.7780 O   0  0  0  0  0  0  0  0  0  0  0  0
  -29.2890  -26.2280   19.8040 C   0  0  0  0  0  2  0  0  0  0  0  0
  -28.9590  -27.3390   18.9670 O   0  0  0  0  0  0  0  0  0  0  0  0
  -24.6140  -31.3530   22.9070 C   0  0  0  0  0  0  0  0  0  0  0  0
  -27.6940  -27.8410   19.1380 C   0  0  0  0  0  0  0  0  0  0  0  0
  -23.5320  -30.0250   21.1220 C   0  0  0  0  0  3  0  0  0  0  0  0
  -25.1110  -28.9270   19.4490 C   0  0  0  0  0  0  0  0  0  0  0  0
  -25.9610  -30.7860   20.8910 C   0  0  0  0  0  2  0  0  0  0  0  0
  -26.2080  -29.5440   20.0630 C   0  0  0  0  0  0  0  0  0  0  0  0
  -27.5040  -29.0110   19.9030 C   0  0  0  0  0  3  0  0  0  0  0  0
  -26.5810  -27.2230   18.5290 C   0  0  0  0  0  3  0  0  0  0  0  0
  -25.2900  -27.7640   18.6810 C   0  0  0  0  0  3  0  0  0  0  0  0
  -23.7600  -29.5740   19.6540 C   0  0  0  0  0  2  0  0  0  0  0  0
  -24.7210  -30.7300   21.7000 N   0  0  0  0  0  0  0  0  0  0  0  0
  -23.5370  -31.3840   23.5170 O   0  0  0  0  0  0  0  0  0  0  0  0
  -23.0880  -28.7960   21.9470 C   0  0  0  0  0  0  0  0  0  0  0  0
  -21.8080  -28.4140   21.8080 N   0  0  0  0  0  0  0  0  0  0  0  0
  -23.8880  -28.1950   22.6670 O   0  0  0  0  0  0  0  0  0  0  0  0
  -21.2120  -28.9670   21.2070 H   0  0  0  0  0  0  0  0  0  0  0  0
  -18.7090  -26.5850   22.1100 C   0  0  0  0  0  0  0  0  0  0  0  0
  -21.1780  -27.2640   22.4550 C   0  0  0  0  0  3  0  0  0  0  0  0
  -21.5340  -25.9470   21.7240 C   0  0  0  0  0  2  0  0  0  0  0  0
  -20.5060  -25.5530   20.6580 C   0  0  0  0  0  2  0  0  0  0  0  0
  -19.1220  -25.3750   21.2890 C   0  0  0  0  0  2  0  0  0  0  0  0
  -19.6730  -27.4810   22.6430 C   0  0  0  0  0  0  0  0  0  0  0  0
  -19.2330  -28.6120   23.3640 C   0  0  0  0  0  3  0  0  0  0  0  0
  -17.8590  -28.8530   23.5570 C   0  0  0  0  0  3  0  0  0  0  0  0
  -16.9100  -27.9520   23.0430 C   0  0  0  0  0  3  0  0  0  0  0  0
  -17.3340  -26.8210   22.3260 C   0  0  0  0  0  3  0  0  0  0  0  0
  -25.8310  -32.0750   23.5660 C   0  0  0  0  0  3  0  0  0  0  0  0
  -25.3790  -33.4070   23.9850 N   0  0  0  0  0  0  0  0  0  0  0  0
  -25.6310  -34.5400   23.3150 C   0  0  0  0  0  0  0  0  0  0  0  0
  -26.3400  -34.5780   22.3050 O   0  0  0  0  0  0  0  0  0  0  0  0
  -24.7490  -33.4450   24.7730 H   0  0  0  0  0  0  0  0  0  0  0  0
  -23.7480  -36.1790   23.0230 C   0  0  0  0  0  1  0  0  0  0  0  0
  -24.9970  -35.8370   23.8500 C   0  0  0  0  0  3  0  0  0  0  0  0
  -27.0050  -36.8590   24.8260 C   0  0  0  0  0  1  0  0  0  0  0  0
  -25.9250  -36.9880   23.8520 N   0  0  0  0  0  0  0  0  0  0  0  0
  -25.4260  -37.8530   24.0440 H   0  0  0  0  0  0  0  0  0  0  0  0
  -26.4380  -31.2800   24.7860 C   0  0  1  0  0  0  0  0  0  0  0  0
  -25.3890  -30.8670   25.8450 C   0  0  0  0  0  1  0  0  0  0  0  0
  -27.1520  -29.9970   24.3000 C   0  0  0  0  0  1  0  0  0  0  0  0
  -27.5130  -32.1420   25.4910 C   0  0  0  0  0  1  0  0  0  0  0  0
  1 53  1  0
  1 49  1  0
  2  6  1  0
  3  4  1  0
  4 19  1  0
  4  6  2  0
  5  3  2  0
  5  7  1  0
  7  2  2  0
  8  5  1  0
  8  1  1  0
  9  3  1  0
 10  8  1  0
 11 19  1  0
 12 17  1  0
 13 14  1  0
 13 12  1  0
 15 14  1  0
 15 24  1  0
 15 16  1  0
 17 11  1  0
 17 16  1  0
 18 11  2  0
 19 20  1  0
 21 22  2  0
 22 41  1  0
 23 22  1  0
 23 26  1  0
 24 25  1  0
 24 21  1  0
 25 23  2  0
 26 27  1  0
 27 28  2  0
 29 32  1  0
 29 28  1  0
 30 29  2  0
 31 30  1  0
 31 26  2  0
 32 33  1  0
 33 38  2  0
 33 34  1  0
 34 35  2  0
 35 36  1  0
 36 40  1  0
 37 36  2  0
 38 37  1  0
 39 38  1  0
 41 42  1  0
 42 45  1  0
 42 44  1  0
 43 41  2  0
 46 21  1  0
 46 47  1  0
 48 46  1  0
 49 50  1  1
 49 51  1  0
 52 49  1  0
 53 55  2  0
 54 53  1  0
 56 55  1  0
 56 58  1  0
 57 56  2  0
 59 61  1  0
 59 58  1  0
 60 71  2  0
 61 66  1  0
 62 70  1  0
 62 72  1  0
 63 69  1  0
 63 65  1  0
 64 70  1  0
 65 64  1  0
 66 65  2  0
 67 68  1  0
 67 61  2  0
 68 63  2  0
 69 62  1  0
 70 60  1  0
 72 74  2  0
 73 72  1  0
 75 73  1  0
 76 85  2  0
 76 81  1  0
 77 73  1  0
 77 81  1  0
 78 77  1  0
 79 80  1  0
 79 78  1  0
 80 76  1  0
 81 82  2  0
 82 83  1  0
 84 83  2  0
 85 84  1  0
 86 60  1  0
 86 87  1  0
 86 96  1  0
 87 90  1  0
 88 92  1  0
 88 87  1  0
 89 88  2  0
 92 91  1  0
 92 94  1  0
 94 95  1  0
 94 93  1  0
 96 99  1  1
 96 97  1  0
 98 96  1  0
M  ISO  4  11 100  19 100  58 101  59 101
M  END
>  <TORSDO>  (62) 
F 21

>  <SCORE>  (62) 
-8.412

>  <name>  (62) 
61

>  <ligand_id>  (62) 
61

>  <original_smiles>  (62) 
[H]c1nc(N([H])C(=O)N2C([H])([H])C([H])([H])C([H])([H])C([H])(n3nc(-c4c([H])c([H])c(Oc5c([H])c([H])c(F)c([H])c5F)c([H])c4[H])c(C(=O)N([H])[H])c3N([H])[H])C2([H])[H])c(F)c(N([H])C([H])(C(=NC(=O)C([H])([H])Oc2c([H])c([H])c3c(c2[H])C([H])([H])N(C(=O)C([H])(N([H])C(=O)C([H])(N([H])C([H])([H])[H])C([H])([H])[H])C(C([H])([H])[H])(C([H])([H])[H])C([H])([H])[H])C([H])(C(=O)N([H])C2([H])c4c([H])c([H])c([H])c([H])c4C([H])([H])C([H])([H])C2([H])[H])C3([H])[H])C([H])([H])[H])C(F)(F)F)n1

>  <smiles>  (62) 
[H]c1nc(N([H])C(=O)N2C([H])([H])C([H])([H])C([H])([H])C([H])(n3nc(-c4c([H])c([H])c(Oc5c([H])c([H])c(F)c([H])c5F)c([H])c4[H])c(C(=O)N([H])[H])c3N([H])[H])C2([H])[H])c(F)c(N([H])C([H])(C(=NC(=O)C([H])([H])Oc2c([H])c([H])c3c(c2[H])C([H])([H])N(C(=O)C([H])(N([H])C(=O)C([H])(N([H])C([H])([H])[H])C([H])([H])[H])C(C([H])([H])[H])(C([H])([H])[H])C([H])([H])[H])C([H])(C(=O)N([H])C2([H])c4c([H])c([H])c([H])c([H])c4C([H])([H])C([H])([H])C2([H])[H])C3([H])[H])C([H])([H])[H])C(F)(F)F)n1

$$$$
62:0:0
     RDKit          3D

 96105  0  0  1  0  0  0  0  0999 V2000
  -30.3160  -23.1710   21.8950 C   0  0  0  0  0  2  0  0  0  0  0  0
  -31.5830  -22.3170   22.1020 C   0  0  0  0  0  2  0  0  0  0  0  0
  -30.7030  -20.7240   20.2790 C   0  0  0  0  0  3  0  0  0  0  0  0
  -29.8300  -23.0580   20.4320 C   0  0  0  0  0  3  0  0  0  0  0  0
  -31.3970  -20.8430   21.6690 C   0  0  0  0  0  3  0  0  0  0  0  0
  -32.7560  -20.1150   21.6940 C   0  0  0  0  0  1  0  0  0  0  0  0
  -29.5090  -21.6170   20.1190 N   0  0  0  0  0  4  0  0  0  0  0  0
  -28.7670  -21.2890   20.7150 H   0  0  0  0  0  0  0  0  0  0  0  0
  -29.1780  -21.5690   19.1690 H   0  0  0  0  0  0  0  0  0  0  0  0
  -30.4590  -17.0910   18.6730 C   0  0  0  0  0  3  0  0  0  0  0  0
  -30.1190  -16.9770   20.0000 C   0  0  0  0  0  0  0  0  0  0  0  0
  -30.3850  -19.2810   19.8490 C   0  0  0  0  0  0  0  0  0  0  0  0
  -29.9780  -18.2440   20.6310 N   0  0  0  0  0  0  0  0  0  0  0  0
  -30.7800  -18.7410   18.2140 S   0  0  0  0  0  0  0  0  0  0  0  0
  -30.6210  -14.5670   20.3800 C   0  0  0  0  0  0  0  0  0  0  0  0
  -30.3330  -12.3530   19.3570 C   0  0  0  0  0  2  0  0  0  0  0  0
  -29.4100  -12.5350   18.1380 C   0  0  0  0  0  2  0  0  0  0  0  0
  -27.9340  -12.3840   18.5540 C   0  0  0  0  0  2  0  0  0  0  0  0
  -27.5780  -13.2370   19.8010 C   0  0  0  0  0  3  0  0  0  0  0  0
  -28.6310  -13.0900   20.9220 C   0  0  0  0  0  2  0  0  0  0  0  0
  -29.9540  -13.3780   20.3440 N   0  0  0  0  0  0  0  0  0  0  0  0
  -31.7950  -14.6550   20.0130 O   0  0  0  0  0  0  0  0  0  0  0  0
  -29.8900  -15.6920   20.6210 N   0  0  0  0  0  0  0  0  0  0  0  0
  -29.0160  -15.5720   21.1090 H   0  0  0  0  0  0  0  0  0  0  0  0
  -25.1790  -13.8330   20.5150 C   0  0  0  0  0  0  0  0  0  0  0  0
  -24.1120  -13.0560   20.8830 C   0  0  0  0  0  0  0  0  0  0  0  0
  -24.5760  -11.7080   20.8600 C   0  0  0  0  0  0  0  0  0  0  0  0
  -26.2270  -12.9540   20.2820 N   0  0  0  0  0  0  0  0  0  0  0  0
  -25.8670  -11.6700   20.5470 N   0  0  0  0  0  0  0  0  0  0  0  0
  -23.8520  -10.4450   21.0570 C   0  0  0  0  0  0  0  0  0  0  0  0
  -24.2970   -9.4720   21.9820 C   0  0  0  0  0  3  0  0  0  0  0  0
  -23.5730   -8.2750   22.1660 C   0  0  0  0  0  3  0  0  0  0  0  0
  -22.3880   -8.0410   21.4290 C   0  0  0  0  0  0  0  0  0  0  0  0
  -21.9600   -9.0010   20.4960 C   0  0  0  0  0  3  0  0  0  0  0  0
  -22.6850  -10.1900   20.3100 C   0  0  0  0  0  3  0  0  0  0  0  0
  -21.6380   -6.8930   21.5220 O   0  0  0  0  0  0  0  0  0  0  0  0
  -21.6240   -6.1320   22.6610 C   0  0  0  0  0  0  0  0  0  0  0  0
  -21.2470   -6.6710   23.9110 C   0  0  0  0  0  3  0  0  0  0  0  0
  -21.1770   -5.8370   25.0440 C   0  0  0  0  0  3  0  0  0  0  0  0
  -21.4730   -4.4660   24.9320 C   0  0  0  0  0  0  0  0  0  0  0  0
  -21.8420   -3.9270   23.6870 C   0  0  0  0  0  3  0  0  0  0  0  0
  -21.9120   -4.7570   22.5540 C   0  0  0  0  0  0  0  0  0  0  0  0
  -22.2490   -4.2280   21.3530 F   0  0  0  0  0  0  0  0  0  0  0  0
  -21.3970   -3.6640   26.0190 F   0  0  0  0  0  0  0  0  0  0  0  0
  -22.7130  -13.5350   21.1520 C   0  0  0  0  0  0  0  0  0  0  0  0
  -21.9820  -12.8490   22.0230 N   0  0  0  0  0  0  0  0  0  0  0  0
  -22.2770  -14.5600   20.6270 O   0  0  0  0  0  0  0  0  0  0  0  0
  -22.3400  -12.0180   22.4730 H   0  0  0  0  0  0  0  0  0  0  0  0
  -21.0480  -13.1620   22.2420 H   0  0  0  0  0  0  0  0  0  0  0  0
  -25.3400  -15.2030   20.3370 N   0  0  0  0  0  0  0  0  0  0  0  0
  -24.5690  -15.8520   20.4510 H   0  0  0  0  0  0  0  0  0  0  0  0
  -26.1780  -15.6530   19.9930 H   0  0  0  0  0  0  0  0  0  0  0  0
  -28.6820  -24.0550   19.9770 C   0  0  0  0  0  0  0  0  0  0  0  0
  -28.0790  -23.8550   18.9180 O   0  0  0  0  0  0  0  0  0  0  0  0
  -28.2900  -25.3180   20.8240 C   0  0  0  0  0  2  0  0  0  0  0  0
  -28.3550  -26.5980   20.1210 O   0  0  0  0  0  0  0  0  0  0  0  0
  -24.5980  -31.8870   23.2240 C   0  0  0  0  0  0  0  0  0  0  0  0
  -27.2070  -27.3800   20.1550 C   0  0  0  0  0  0  0  0  0  0  0  0
  -23.3810  -30.4820   21.5930 C   0  0  0  0  0  3  0  0  0  0  0  0
  -24.8240  -28.9290   20.1670 C   0  0  0  0  0  0  0  0  0  0  0  0
  -25.9110  -30.8240   21.3820 C   0  0  0  0  0  2  0  0  0  0  0  0
  -25.9910  -29.4430   20.7480 C   0  0  0  0  0  0  0  0  0  0  0  0
  -27.1890  -28.6790   20.7320 C   0  0  0  0  0  3  0  0  0  0  0  0
  -26.0190  -26.8910   19.5740 C   0  0  0  0  0  3  0  0  0  0  0  0
  -24.8370  -27.6560   19.5740 C   0  0  0  0  0  3  0  0  0  0  0  0
  -23.5830  -29.7960   20.2140 C   0  0  0  0  0  2  0  0  0  0  0  0
  -24.6490  -31.0800   22.1240 N   0  0  0  0  0  0  0  0  0  0  0  0
  -23.5190  -32.1640   23.7680 O   0  0  0  0  0  0  0  0  0  0  0  0
  -22.7290  -29.4710   22.5620 C   0  0  0  0  0  0  0  0  0  0  0  0
  -21.4030  -29.2890   22.4380 N   0  0  0  0  0  0  0  0  0  0  0  0
  -23.4120  -28.8470   23.3800 O   0  0  0  0  0  0  0  0  0  0  0  0
  -20.9120  -29.8400   21.7480 H   0  0  0  0  0  0  0  0  0  0  0  0
  -18.0300  -28.0920   22.9440 C   0  0  0  0  0  0  0  0  0  0  0  0
  -20.5880  -28.3560   23.2160 C   0  0  0  0  0  3  0  0  0  0  0  0
  -20.6930  -26.9220   22.6490 C   0  0  0  0  0  2  0  0  0  0  0  0
  -19.5930  -26.5920   21.6350 C   0  0  0  0  0  2  0  0  0  0  0  0
  -18.2110  -26.7380   22.2780 C   0  0  0  0  0  2  0  0  0  0  0  0
  -19.1480  -28.8580   23.3720 C   0  0  0  0  0  0  0  0  0  0  0  0
  -18.9280  -30.1240   23.9580 C   0  0  0  0  0  3  0  0  0  0  0  0
  -17.6230  -30.6240   24.1190 C   0  0  0  0  0  3  0  0  0  0  0  0
  -16.5190  -29.8570   23.7080 C   0  0  0  0  0  3  0  0  0  0  0  0
  -16.7240  -28.5910   23.1280 C   0  0  0  0  0  3  0  0  0  0  0  0
  -25.8870  -32.5190   23.8380 C   0  0  0  0  0  3  0  0  0  0  0  0
  -26.4140  -31.7450   25.1080 C   0  0  1  0  0  0  0  0  0  0  0  0
  -25.3300  -31.5130   26.1870 C   0  0  0  0  0  1  0  0  0  0  0  0
  -26.9860  -30.3650   24.7060 C   0  0  0  0  0  1  0  0  0  0  0  0
  -27.5710  -32.5370   25.7610 C   0  0  0  0  0  1  0  0  0  0  0  0
  -25.5760  -33.9150   24.1730 N   0  0  0  0  0  0  0  0  0  0  0  0
  -25.9050  -34.9710   23.4170 C   0  0  0  0  0  0  0  0  0  0  0  0
  -26.5710  -34.8730   22.3830 O   0  0  0  0  0  0  0  0  0  0  0  0
  -24.9790  -34.0630   24.9730 H   0  0  0  0  0  0  0  0  0  0  0  0
  -24.1730  -36.7640   23.0840 C   0  0  0  0  0  1  0  0  0  0  0  0
  -25.4200  -36.3560   23.8850 C   0  0  0  0  0  3  0  0  0  0  0  0
  -27.5650  -37.2350   24.6960 C   0  0  0  0  0  1  0  0  0  0  0  0
  -26.4490  -37.4130   23.7710 N   0  0  0  0  0  0  0  0  0  0  0  0
  -26.0410  -38.3280   23.9410 H   0  0  0  0  0  0  0  0  0  0  0  0
  1  2  1  0
  3 12  1  0
  3  5  1  0
  4 53  1  0
  4  1  1  0
  5  6  1  0
  5  2  1  0
  7  3  1  0
  7  4  1  0
  7  8  1  0
  9  7  1  0
 10 11  2  0
 11 23  1  0
 11 13  1  0
 12 13  2  0
 14 10  1  0
 14 12  1  0
 15 23  1  0
 16 21  1  0
 17 18  1  0
 17 16  1  0
 19 18  1  0
 19 28  1  0
 19 20  1  0
 21 15  1  0
 21 20  1  0
 22 15  2  0
 23 24  1  0
 25 26  2  0
 26 45  1  0
 27 26  1  0
 27 30  1  0
 28 25  1  0
 28 29  1  0
 29 27  2  0
 30 31  1  0
 31 32  2  0
 33 36  1  0
 33 32  1  0
 34 33  2  0
 35 34  1  0
 35 30  2  0
 36 37  1  0
 37 38  1  0
 38 39  2  0
 40 39  1  0
 40 44  1  0
 41 40  2  0
 42 37  2  0
 42 41  1  0
 43 42  1  0
 45 46  1  0
 46 49  1  0
 46 48  1  0
 47 45  2  0
 50 51  1  0
 50 25  1  0
 52 50  1  0
 53 55  1  0
 54 53  2  0
 56 58  1  0
 56 55  1  0
 57 68  2  0
 58 63  1  0
 59 67  1  0
 59 69  1  0
 60 66  1  0
 60 62  1  0
 61 67  1  0
 62 61  1  0
 63 62  2  0
 64 65  1  0
 64 58  2  0
 65 60  2  0
 66 59  1  0
 67 57  1  0
 69 71  2  0
 70 69  1  0
 72 70  1  0
 73 82  2  0
 73 78  1  0
 74 70  1  0
 74 78  1  0
 75 74  1  0
 76 77  1  0
 76 75  1  0
 77 73  1  0
 78 79  2  0
 79 80  1  0
 81 80  2  0
 82 81  1  0
 83 57  1  0
 83 88  1  0
 83 84  1  0
 84 87  1  1
 84 85  1  0
 86 84  1  0
 88 91  1  0
 89 93  1  0
 89 88  1  0
 90 89  2  0
 93 92  1  0
 95 93  1  0
 95 96  1  0
 95 94  1  0
M  ISO  4  15 100  23 100  55 101  56 101
M  END
>  <TORSDO>  (63) 
F 19

>  <SCORE>  (63) 
-14.204

>  <name>  (63) 
62

>  <ligand_id>  (63) 
62

>  <original_smiles>  (63) 
[H]c1sc(C2([H])C([H])(C([H])([H])[H])C([H])([H])C([H])([H])C([H])(C(=O)C([H])([H])Oc3c([H])c([H])c4c(c3[H])C([H])([H])N(C(=O)C([H])(N([H])C(=O)C([H])(N([H])C([H])([H])[H])C([H])([H])[H])C(C([H])([H])[H])(C([H])([H])[H])C([H])([H])[H])C([H])(C(=O)N([H])C3([H])c5c([H])c([H])c([H])c([H])c5C([H])([H])C([H])([H])C3([H])[H])C4([H])[H])[N+]2([H])[H])nc1N([H])C(=O)N1C([H])([H])C([H])([H])C([H])([H])C([H])(n2nc(-c3c([H])c([H])c(Oc4c([H])c([H])c(F)c([H])c4F)c([H])c3[H])c(C(=O)N([H])[H])c2N([H])[H])C1([H])[H]

>  <smiles>  (63) 
[H]c1sc(C2([H])C([H])(C([H])([H])[H])C([H])([H])C([H])([H])C([H])(C(=O)C([H])([H])Oc3c([H])c([H])c4c(c3[H])C([H])([H])N(C(=O)C([H])(N([H])C(=O)C([H])(N([H])C([H])([H])[H])C([H])([H])[H])C(C([H])([H])[H])(C([H])([H])[H])C([H])([H])[H])C([H])(C(=O)N([H])C3([H])c5c([H])c([H])c([H])c([H])c5C([H])([H])C([H])([H])C3([H])[H])C4([H])[H])[N+]2([H])[H])nc1N([H])C(=O)N1C([H])([H])C([H])([H])C([H])([H])C([H])(n2nc(-c3c([H])c([H])c(Oc4c([H])c([H])c(F)c([H])c4F)c([H])c3[H])c(C(=O)N([H])[H])c2N([H])[H])C1([H])[H]

$$$$
63:0:0
     RDKit          3D

 99107  0  0  1  0  0  0  0  0999 V2000
  -30.5130  -22.4700   21.3460 C   0  0  0  0  0  0  0  0  0  0  0  0
  -30.0080  -21.2520   21.0810 N   0  0  0  0  0  0  0  0  0  0  0  0
  -31.7020  -22.7350   21.5570 O   0  0  0  0  0  0  0  0  0  0  0  0
  -28.9980  -21.2400   21.0100 H   0  0  0  0  0  0  0  0  0  0  0  0
  -32.0460  -19.8000   20.9010 C   0  0  0  0  0  3  0  0  0  0  0  0
  -31.7520  -17.3690   20.9120 C   0  0  0  0  0  0  0  0  0  0  0  0
  -30.6470  -19.9830   21.0090 C   0  0  0  0  0  0  0  0  0  0  0  0
  -32.5940  -18.5030   20.8620 C   0  0  0  0  0  0  0  0  0  0  0  0
  -30.3550  -17.5510   21.0040 C   0  0  0  0  0  0  0  0  0  0  0  0
  -29.8090  -18.8490   21.0470 C   0  0  0  0  0  0  0  0  0  0  0  0
  -33.9380  -18.3580   20.7820 F   0  0  0  0  0  0  0  0  0  0  0  0
  -29.5280  -16.4780   21.0680 F   0  0  0  0  0  0  0  0  0  0  0  0
  -28.4660  -19.0110   21.1430 F   0  0  0  0  0  0  0  0  0  0  0  0
  -32.3500  -15.9690   20.9140 C   0  0  0  0  0  2  0  0  0  0  0  0
  -31.4660  -14.1990   19.4000 C   0  0  0  0  0  0  0  0  0  0  0  0
  -30.8300  -12.0210   18.4380 C   0  0  0  0  0  2  0  0  0  0  0  0
  -29.7550  -12.1240   17.3430 C   0  0  0  0  0  2  0  0  0  0  0  0
  -28.3470  -12.1070   17.9650 C   0  0  0  0  0  2  0  0  0  0  0  0
  -28.1990  -13.1370   19.1150 C   0  0  0  0  0  3  0  0  0  0  0  0
  -29.3640  -13.0140   20.1210 C   0  0  0  0  0  2  0  0  0  0  0  0
  -30.6430  -13.1220   19.3910 N   0  0  0  0  0  0  0  0  0  0  0  0
  -32.3150  -14.4180   18.5310 O   0  0  0  0  0  0  0  0  0  0  0  0
  -31.4130  -14.9180   20.5250 N   0  0  0  0  0  0  0  0  0  0  0  0
  -30.7290  -14.6350   21.2110 H   0  0  0  0  0  0  0  0  0  0  0  0
  -26.0280  -13.9970   20.2010 C   0  0  0  0  0  0  0  0  0  0  0  0
  -24.9280  -13.3440   20.6880 C   0  0  0  0  0  0  0  0  0  0  0  0
  -25.1920  -11.9500   20.5230 C   0  0  0  0  0  0  0  0  0  0  0  0
  -26.9010  -13.0080   19.7760 N   0  0  0  0  0  0  0  0  0  0  0  0
  -26.4060  -11.7680   20.0220 N   0  0  0  0  0  0  0  0  0  0  0  0
  -24.3350  -10.7790   20.7580 C   0  0  0  0  0  0  0  0  0  0  0  0
  -24.7050   -9.7650   21.6670 C   0  0  0  0  0  3  0  0  0  0  0  0
  -23.8570   -8.6590   21.8890 C   0  0  0  0  0  3  0  0  0  0  0  0
  -22.6230   -8.5620   21.2040 C   0  0  0  0  0  0  0  0  0  0  0  0
  -22.2710   -9.5640   20.2830 C   0  0  0  0  0  3  0  0  0  0  0  0
  -23.1180  -10.6610   20.0580 C   0  0  0  0  0  3  0  0  0  0  0  0
  -21.7480   -7.5110   21.3370 O   0  0  0  0  0  0  0  0  0  0  0  0
  -21.6010   -6.8420   22.5250 C   0  0  0  0  0  0  0  0  0  0  0  0
  -21.2290   -7.5070   23.7140 C   0  0  0  0  0  3  0  0  0  0  0  0
  -21.0220   -6.7710   24.8980 C   0  0  0  0  0  3  0  0  0  0  0  0
  -21.1770   -5.3710   24.8930 C   0  0  0  0  0  0  0  0  0  0  0  0
  -21.5420   -4.7070   23.7090 C   0  0  0  0  0  3  0  0  0  0  0  0
  -21.7510   -5.4400   22.5280 C   0  0  0  0  0  0  0  0  0  0  0  0
  -22.0820   -4.7930   21.3850 F   0  0  0  0  0  0  0  0  0  0  0  0
  -20.9710   -4.6630   26.0280 F   0  0  0  0  0  0  0  0  0  0  0  0
  -23.6610  -13.9750   21.1930 C   0  0  0  0  0  0  0  0  0  0  0  0
  -22.9930  -13.3320   22.1430 N   0  0  0  0  0  0  0  0  0  0  0  0
  -23.2830  -15.0710   20.7790 O   0  0  0  0  0  0  0  0  0  0  0  0
  -23.3130  -12.4420   22.4960 H   0  0  0  0  0  0  0  0  0  0  0  0
  -22.1470  -13.7340   22.5230 H   0  0  0  0  0  0  0  0  0  0  0  0
  -26.3510  -15.3450   20.0680 N   0  0  0  0  0  0  0  0  0  0  0  0
  -25.7110  -16.0870   20.3310 H   0  0  0  0  0  0  0  0  0  0  0  0
  -27.2130  -15.6890   19.6640 H   0  0  0  0  0  0  0  0  0  0  0  0
  -29.3750  -23.5270   21.4180 C   0  0  0  0  0  0  0  0  0  0  0  0
  -28.4290  -23.3220   22.1890 O   0  0  0  0  0  0  0  0  0  0  0  0
  -28.5180  -25.7050   20.6900 C   0  0  0  0  0  3  0  0  0  0  0  0
  -29.4350  -24.7340   20.5460 C   0  0  0  0  0  0  0  0  0  0  0  0
  -30.3940  -24.8440   19.6130 O   0  0  0  0  0  0  0  0  0  0  0  0
  -30.2520  -25.6760   19.1780 H   0  0  0  0  0  0  0  0  0  0  0  0
  -28.5120  -26.8360   19.9180 O   0  0  0  0  0  0  0  0  0  0  0  0
  -24.5900  -31.7710   23.1870 C   0  0  0  0  0  0  0  0  0  0  0  0
  -27.3400  -27.5410   19.9440 C   0  0  0  0  0  0  0  0  0  0  0  0
  -23.4150  -30.4010   21.4940 C   0  0  0  0  0  3  0  0  0  0  0  0
  -24.9040  -28.9510   20.0170 C   0  0  0  0  0  0  0  0  0  0  0  0
  -25.9270  -30.8360   21.3060 C   0  0  0  0  0  2  0  0  0  0  0  0
  -26.0470  -29.4930   20.6210 C   0  0  0  0  0  0  0  0  0  0  0  0
  -27.2710  -28.7930   20.5840 C   0  0  0  0  0  3  0  0  0  0  0  0
  -26.1880  -26.9980   19.3420 C   0  0  0  0  0  3  0  0  0  0  0  0
  -24.9660  -27.6990   19.3760 C   0  0  0  0  0  3  0  0  0  0  0  0
  -23.6370  -29.7710   20.0930 C   0  0  0  0  0  2  0  0  0  0  0  0
  -24.6620  -31.0150   22.0560 N   0  0  0  0  0  0  0  0  0  0  0  0
  -23.5050  -31.9980   23.7380 O   0  0  0  0  0  0  0  0  0  0  0  0
  -22.7890  -29.3320   22.4190 C   0  0  0  0  0  0  0  0  0  0  0  0
  -21.4720  -29.1140   22.2720 N   0  0  0  0  0  0  0  0  0  0  0  0
  -23.4850  -28.7030   23.2200 O   0  0  0  0  0  0  0  0  0  0  0  0
  -20.9720  -29.6770   21.5990 H   0  0  0  0  0  0  0  0  0  0  0  0
  -18.1340  -27.7980   22.6850 C   0  0  0  0  0  0  0  0  0  0  0  0
  -20.6770  -28.1290   23.0040 C   0  0  0  0  0  3  0  0  0  0  0  0
  -20.8340  -26.7180   22.3900 C   0  0  0  0  0  2  0  0  0  0  0  0
  -19.7590  -26.3890   21.3510 C   0  0  0  0  0  2  0  0  0  0  0  0
  -18.3630  -26.4740   21.9770 C   0  0  0  0  0  2  0  0  0  0  0  0
  -19.2210  -28.5830   23.1530 C   0  0  0  0  0  0  0  0  0  0  0  0
  -18.9540  -29.8240   23.7730 C   0  0  0  0  0  3  0  0  0  0  0  0
  -17.6330  -30.2800   23.9300 C   0  0  0  0  0  3  0  0  0  0  0  0
  -16.5590  -29.4920   23.4810 C   0  0  0  0  0  3  0  0  0  0  0  0
  -16.8100  -28.2530   22.8640 C   0  0  0  0  0  3  0  0  0  0  0  0
  -25.8640  -32.4060   23.8280 C   0  0  0  0  0  3  0  0  0  0  0  0
  -25.5400  -33.7970   24.1740 N   0  0  0  0  0  0  0  0  0  0  0  0
  -25.8610  -34.8600   23.4250 C   0  0  0  0  0  0  0  0  0  0  0  0
  -26.5340  -34.7750   22.3940 O   0  0  0  0  0  0  0  0  0  0  0  0
  -24.9430  -33.9360   24.9760 H   0  0  0  0  0  0  0  0  0  0  0  0
  -24.1030  -36.6260   23.0890 C   0  0  0  0  0  1  0  0  0  0  0  0
  -25.3530  -36.2360   23.8940 C   0  0  0  0  0  3  0  0  0  0  0  0
  -27.4800  -37.1430   24.7200 C   0  0  0  0  0  1  0  0  0  0  0  0
  -26.3690  -37.3060   23.7860 N   0  0  0  0  0  0  0  0  0  0  0  0
  -25.9500  -38.2180   23.9480 H   0  0  0  0  0  0  0  0  0  0  0  0
  -26.3800  -31.6210   25.0970 C   0  0  1  0  0  0  0  0  0  0  0  0
  -25.2770  -31.3340   26.1420 C   0  0  0  0  0  1  0  0  0  0  0  0
  -27.0020  -30.2670   24.6830 C   0  0  0  0  0  1  0  0  0  0  0  0
  -27.5000  -32.4280   25.7950 C   0  0  0  0  0  1  0  0  0  0  0  0
  1 53  1  0
  1  3  2  0
  2  1  1  0
  4  2  1  0
  5  7  1  0
  6 14  1  0
  6  9  2  0
  7 10  2  0
  7  2  1  0
  8  5  2  0
  8  6  1  0
  9 10  1  0
  9 12  1  0
 10 13  1  0
 11  8  1  0
 15 23  1  0
 16 21  1  0
 17 18  1  0
 17 16  1  0
 19 18  1  0
 19 28  1  0
 19 20  1  0
 21 15  1  0
 21 20  1  0
 22 15  2  0
 23 14  1  0
 23 24  1  0
 25 26  2  0
 26 45  1  0
 27 26  1  0
 27 30  1  0
 28 29  1  0
 28 25  1  0
 29 27  2  0
 30 31  1  0
 31 32  2  0
 33 36  1  0
 33 32  1  0
 34 33  2  0
 35 34  1  0
 35 30  2  0
 36 37  1  0
 37 42  2  0
 37 38  1  0
 38 39  2  0
 40 39  1  0
 40 44  1  0
 41 40  2  0
 42 41  1  0
 43 42  1  0
 45 46  1  0
 46 48  1  0
 46 49  1  0
 47 45  2  0
 50 25  1  0
 50 51  1  0
 52 50  1  0
 53 54  2  0
 56 55  2  0
 56 53  1  0
 57 56  1  0
 58 57  1  0
 59 61  1  0
 59 55  1  0
 60 71  2  0
 61 66  1  0
 62 70  1  0
 62 72  1  0
 63 69  1  0
 63 65  1  0
 64 70  1  0
 65 64  1  0
 66 65  2  0
 67 68  1  0
 67 61  2  0
 68 63  2  0
 69 62  1  0
 70 60  1  0
 72 74  2  0
 73 72  1  0
 75 73  1  0
 76 85  2  0
 76 81  1  0
 77 73  1  0
 77 81  1  0
 78 77  1  0
 79 80  1  0
 79 78  1  0
 80 76  1  0
 81 82  2  0
 82 83  1  0
 84 83  2  0
 85 84  1  0
 86 60  1  0
 86 87  1  0
 86 96  1  0
 87 90  1  0
 88 92  1  0
 88 87  1  0
 89 88  2  0
 92 91  1  0
 94 92  1  0
 94 95  1  0
 94 93  1  0
 96 99  1  1
 96 97  1  0
 98 96  1  0
M  ISO  4  15 100  23 100  55 101  59 101
M  END
>  <TORSDO>  (64) 
F 21

>  <SCORE>  (64) 
-11.954

>  <name>  (64) 
63

>  <ligand_id>  (64) 
63

>  <original_smiles>  (64) 
[H]OC(C(=O)C(=O)N([H])c1c([H])c(F)c(C([H])([H])N([H])C(=O)N2C([H])([H])C([H])([H])C([H])([H])C([H])(n3nc(-c4c([H])c([H])c(Oc5c([H])c([H])c(F)c([H])c5F)c([H])c4[H])c(C(=O)N([H])[H])c3N([H])[H])C2([H])[H])c(F)c1F)=C([H])Oc1c([H])c([H])c2c(c1[H])C([H])([H])N(C(=O)C([H])(N([H])C(=O)C([H])(N([H])C([H])([H])[H])C([H])([H])[H])C(C([H])([H])[H])(C([H])([H])[H])C([H])([H])[H])C([H])(C(=O)N([H])C1([H])c3c([H])c([H])c([H])c([H])c3C([H])([H])C([H])([H])C1([H])[H])C2([H])[H]

>  <smiles>  (64) 
[H]OC(C(=O)C(=O)N([H])c1c([H])c(F)c(C([H])([H])N([H])C(=O)N2C([H])([H])C([H])([H])C([H])([H])C([H])(n3nc(-c4c([H])c([H])c(Oc5c([H])c([H])c(F)c([H])c5F)c([H])c4[H])c(C(=O)N([H])[H])c3N([H])[H])C2([H])[H])c(F)c1F)=C([H])Oc1c([H])c([H])c2c(c1[H])C([H])([H])N(C(=O)C([H])(N([H])C(=O)C([H])(N([H])C([H])([H])[H])C([H])([H])[H])C(C([H])([H])[H])(C([H])([H])[H])C([H])([H])[H])C([H])(C(=O)N([H])C1([H])c3c([H])c([H])c([H])c([H])c3C([H])([H])C([H])([H])C1([H])[H])C2([H])[H]

$$$$
64:0:0
     RDKit          3D

 96104  0  0  1  0  0  0  0  0999 V2000
  -31.0220  -19.8330   21.5440 C   0  0  0  0  0  3  0  0  0  0  0  0
  -31.3150  -17.4390   21.7110 C   0  0  0  0  0  3  0  0  0  0  0  0
  -31.7330  -18.7340   22.0400 C   0  0  0  0  0  0  0  0  0  0  0  0
  -29.8840  -19.6290   20.7360 C   0  0  0  0  0  0  0  0  0  0  0  0
  -30.1960  -17.2560   20.8770 C   0  0  0  0  0  0  0  0  0  0  0  0
  -29.0750  -22.0390   20.7020 C   0  0  0  0  0  0  0  0  0  0  0  0
  -29.5020  -18.3490   20.4200 N   0  0  0  0  0  0  0  0  0  0  0  0
  -29.2170  -20.7850   20.1830 N   0  0  0  0  0  0  0  0  0  0  0  0
  -29.2770  -22.2690   21.9000 O   0  0  0  0  0  0  0  0  0  0  0  0
  -32.8210  -18.9230   22.8250 F   0  0  0  0  0  0  0  0  0  0  0  0
  -28.8530  -20.6690   19.2490 H   0  0  0  0  0  0  0  0  0  0  0  0
  -30.5070  -14.8780   20.1040 C   0  0  0  0  0  0  0  0  0  0  0  0
  -30.2290  -12.7040   18.9520 C   0  0  0  0  0  2  0  0  0  0  0  0
  -29.1990  -12.8450   17.8120 C   0  0  0  0  0  2  0  0  0  0  0  0
  -27.7690  -12.6240   18.3410 C   0  0  0  0  0  2  0  0  0  0  0  0
  -27.4710  -13.4450   19.6230 C   0  0  0  0  0  3  0  0  0  0  0  0
  -28.6100  -13.2990   20.6600 C   0  0  0  0  0  2  0  0  0  0  0  0
  -29.8680  -13.6760   19.9970 N   0  0  0  0  0  0  0  0  0  0  0  0
  -31.6220  -15.0640   19.6040 O   0  0  0  0  0  0  0  0  0  0  0  0
  -29.7740  -15.9060   20.6070 N   0  0  0  0  0  0  0  0  0  0  0  0
  -28.8070  -15.7010   20.7950 H   0  0  0  0  0  0  0  0  0  0  0  0
  -25.1250  -13.9350   20.5540 C   0  0  0  0  0  0  0  0  0  0  0  0
  -24.1110  -13.1100   20.9610 C   0  0  0  0  0  0  0  0  0  0  0  0
  -24.6080  -11.7770   20.8230 C   0  0  0  0  0  0  0  0  0  0  0  0
  -26.1720  -13.1000   20.1940 N   0  0  0  0  0  0  0  0  0  0  0  0
  -25.8700  -11.7960   20.4160 N   0  0  0  0  0  0  0  0  0  0  0  0
  -23.9350  -10.4840   20.9990 C   0  0  0  0  0  0  0  0  0  0  0  0
  -24.4010   -9.5270   21.9280 C   0  0  0  0  0  3  0  0  0  0  0  0
  -23.7240   -8.3000   22.0910 C   0  0  0  0  0  3  0  0  0  0  0  0
  -22.5670   -8.0200   21.3240 C   0  0  0  0  0  0  0  0  0  0  0  0
  -22.1230   -8.9660   20.3840 C   0  0  0  0  0  3  0  0  0  0  0  0
  -22.8000  -10.1840   20.2180 C   0  0  0  0  0  3  0  0  0  0  0  0
  -21.8600   -6.8440   21.3980 O   0  0  0  0  0  0  0  0  0  0  0  0
  -21.7600   -6.1350   22.5690 C   0  0  0  0  0  0  0  0  0  0  0  0
  -21.1530   -6.6830   23.7200 C   0  0  0  0  0  3  0  0  0  0  0  0
  -21.0090   -5.8970   24.8810 C   0  0  0  0  0  3  0  0  0  0  0  0
  -21.4610   -4.5630   24.8900 C   0  0  0  0  0  0  0  0  0  0  0  0
  -22.0600   -4.0160   23.7420 C   0  0  0  0  0  3  0  0  0  0  0  0
  -22.2070   -4.7990   22.5830 C   0  0  0  0  0  0  0  0  0  0  0  0
  -22.7660   -4.2590   21.4740 F   0  0  0  0  0  0  0  0  0  0  0  0
  -21.3160   -3.8050   26.0000 F   0  0  0  0  0  0  0  0  0  0  0  0
  -22.7270  -13.5270   21.3620 C   0  0  0  0  0  0  0  0  0  0  0  0
  -22.0810  -12.7540   22.2280 N   0  0  0  0  0  0  0  0  0  0  0  0
  -22.2270  -14.5730   20.9480 O   0  0  0  0  0  0  0  0  0  0  0  0
  -22.5010  -11.9070   22.5810 H   0  0  0  0  0  0  0  0  0  0  0  0
  -21.1560  -13.0120   22.5420 H   0  0  0  0  0  0  0  0  0  0  0  0
  -25.2360  -15.3170   20.4400 N   0  0  0  0  0  0  0  0  0  0  0  0
  -24.4600  -15.9360   20.6510 H   0  0  0  0  0  0  0  0  0  0  0  0
  -26.0340  -15.8050   20.0530 H   0  0  0  0  0  0  0  0  0  0  0  0
  -28.6410  -23.0870   19.7360 C   0  0  0  0  0  0  0  0  0  0  0  0
  -28.5530  -24.4150   20.0930 C   0  0  0  0  0  0  0  0  0  0  0  0
  -28.3190  -22.6340   18.3120 C   0  0  0  0  0  1  0  0  0  0  0  0
  -28.8110  -24.8830   21.3280 O   0  0  0  0  0  0  0  0  0  0  0  0
  -29.0610  -24.1360   21.8660 H   0  0  0  0  0  0  0  0  0  0  0  0
  -28.1740  -25.6030   19.1690 C   0  0  0  0  0  2  0  0  0  0  0  0
  -28.1100  -26.9200   19.7960 O   0  0  0  0  0  0  0  0  0  0  0  0
  -24.5440  -32.0470   23.2950 C   0  0  0  0  0  0  0  0  0  0  0  0
  -26.9300  -27.6570   19.8750 C   0  0  0  0  0  0  0  0  0  0  0  0
  -23.2180  -30.7110   21.6940 C   0  0  0  0  0  3  0  0  0  0  0  0
  -24.5570  -29.2180   20.1180 C   0  0  0  0  0  0  0  0  0  0  0  0
  -25.7350  -31.0490   21.3400 C   0  0  0  0  0  2  0  0  0  0  0  0
  -25.7620  -29.7020   20.6390 C   0  0  0  0  0  0  0  0  0  0  0  0
  -26.9460  -28.9300   20.5120 C   0  0  0  0  0  3  0  0  0  0  0  0
  -25.6890  -27.1990   19.3670 C   0  0  0  0  0  3  0  0  0  0  0  0
  -24.5180  -27.9680   19.4840 C   0  0  0  0  0  3  0  0  0  0  0  0
  -23.3270  -30.0840   20.2810 C   0  0  0  0  0  2  0  0  0  0  0  0
  -24.5220  -31.2830   22.1650 N   0  0  0  0  0  0  0  0  0  0  0  0
  -23.5030  -32.3060   23.9160 O   0  0  0  0  0  0  0  0  0  0  0  0
  -22.6260  -29.6580   22.6600 C   0  0  0  0  0  0  0  0  0  0  0  0
  -21.3140  -29.4000   22.5360 N   0  0  0  0  0  0  0  0  0  0  0  0
  -23.3440  -29.0770   23.4790 O   0  0  0  0  0  0  0  0  0  0  0  0
  -20.7930  -29.9230   21.8470 H   0  0  0  0  0  0  0  0  0  0  0  0
  -18.0280  -27.9660   22.9920 C   0  0  0  0  0  0  0  0  0  0  0  0
  -20.5520  -28.4210   23.3120 C   0  0  0  0  0  3  0  0  0  0  0  0
  -20.7740  -26.9890   22.7710 C   0  0  0  0  0  2  0  0  0  0  0  0
  -19.7230  -26.5630   21.7410 C   0  0  0  0  0  2  0  0  0  0  0  0
  -18.3190  -26.6200   22.3490 C   0  0  0  0  0  2  0  0  0  0  0  0
  -19.0760  -28.8180   23.4280 C   0  0  0  0  0  0  0  0  0  0  0  0
  -18.7520  -30.0750   23.9840 C   0  0  0  0  0  3  0  0  0  0  0  0
  -17.4110  -30.4810   24.1120 C   0  0  0  0  0  3  0  0  0  0  0  0
  -16.3750  -29.6260   23.6940 C   0  0  0  0  0  3  0  0  0  0  0  0
  -16.6850  -28.3700   23.1400 C   0  0  0  0  0  3  0  0  0  0  0  0
  -25.8730  -32.6500   23.8460 C   0  0  0  0  0  3  0  0  0  0  0  0
  -26.4390  -31.8660   25.0930 C   0  0  1  0  0  0  0  0  0  0  0  0
  -25.3880  -31.6160   26.2000 C   0  0  0  0  0  1  0  0  0  0  0  0
  -27.0070  -30.4930   24.6650 C   0  0  0  0  0  1  0  0  0  0  0  0
  -27.6140  -32.6550   25.7180 C   0  0  0  0  0  1  0  0  0  0  0  0
  -25.6110  -34.0540   24.1920 N   0  0  0  0  0  0  0  0  0  0  0  0
  -25.9360  -35.1000   23.4220 C   0  0  0  0  0  0  0  0  0  0  0  0
  -26.5600  -34.9850   22.3630 O   0  0  0  0  0  0  0  0  0  0  0  0
  -25.0550  -34.2220   25.0180 H   0  0  0  0  0  0  0  0  0  0  0  0
  -24.2500  -36.9420   23.1260 C   0  0  0  0  0  1  0  0  0  0  0  0
  -25.5000  -36.4980   23.9020 C   0  0  0  0  0  3  0  0  0  0  0  0
  -27.6730  -37.3240   24.6930 C   0  0  0  0  0  1  0  0  0  0  0  0
  -26.5580  -37.5240   23.7710 N   0  0  0  0  0  0  0  0  0  0  0  0
  -26.1780  -38.4540   23.9290 H   0  0  0  0  0  0  0  0  0  0  0  0
  1  3  1  0
  2  3  2  0
  3 10  1  0
  4  1  2  0
  5  2  1  0
  6  9  2  0
  7  4  1  0
  7  5  2  0
  8  6  1  0
  8  4  1  0
 11  8  1  0
 12 20  1  0
 13 18  1  0
 14 15  1  0
 14 13  1  0
 16 15  1  0
 16 25  1  0
 16 17  1  0
 18 12  1  0
 18 17  1  0
 19 12  2  0
 20 21  1  0
 20  5  1  0
 22 23  2  0
 23 42  1  0
 24 23  1  0
 24 27  1  0
 25 26  1  0
 25 22  1  0
 26 24  2  0
 27 28  1  0
 28 29  2  0
 30 33  1  0
 30 29  1  0
 31 30  2  0
 32 31  1  0
 32 27  2  0
 33 34  1  0
 34 39  2  0
 34 35  1  0
 35 36  2  0
 36 37  1  0
 37 41  1  0
 38 37  2  0
 39 38  1  0
 40 39  1  0
 42 43  1  0
 43 46  1  0
 43 45  1  0
 44 42  2  0
 47 22  1  0
 47 48  1  0
 49 47  1  0
 50 51  2  0
 50  6  1  0
 51 53  1  0
 52 50  1  0
 53 54  1  0
 55 56  1  0
 55 51  1  0
 56 58  1  0
 57 68  2  0
 58 63  1  0
 59 67  1  0
 59 69  1  0
 60 66  1  0
 60 62  1  0
 61 67  1  0
 62 61  1  0
 63 62  2  0
 64 65  1  0
 64 58  2  0
 65 60  2  0
 66 59  1  0
 67 57  1  0
 69 71  2  0
 70 69  1  0
 72 70  1  0
 73 82  2  0
 73 78  1  0
 74 70  1  0
 74 78  1  0
 75 74  1  0
 76 77  1  0
 76 75  1  0
 77 73  1  0
 78 79  2  0
 79 80  1  0
 81 80  2  0
 82 81  1  0
 83 57  1  0
 83 88  1  0
 83 84  1  0
 84 87  1  1
 84 85  1  0
 86 84  1  0
 88 91  1  0
 89 93  1  0
 89 88  1  0
 90 89  2  0
 93 92  1  0
 95 93  1  0
 95 96  1  0
 95 94  1  0
M  ISO  4  12 100  20 100  55 101  56 101
M  END
>  <TORSDO>  (65) 
F 19

>  <SCORE>  (65) 
-13.943

>  <name>  (65) 
64

>  <ligand_id>  (65) 
64

>  <original_smiles>  (65) 
[H]OC(=C(C(=O)N([H])c1nc(N([H])C(=O)N2C([H])([H])C([H])([H])C([H])([H])C([H])(n3nc(-c4c([H])c([H])c(Oc5c([H])c([H])c(F)c([H])c5F)c([H])c4[H])c(C(=O)N([H])[H])c3N([H])[H])C2([H])[H])c([H])c(F)c1[H])C([H])([H])[H])C([H])([H])Oc1c([H])c([H])c2c(c1[H])C([H])([H])N(C(=O)C([H])(N([H])C(=O)C([H])(N([H])C([H])([H])[H])C([H])([H])[H])C(C([H])([H])[H])(C([H])([H])[H])C([H])([H])[H])C([H])(C(=O)N([H])C1([H])c3c([H])c([H])c([H])c([H])c3C([H])([H])C([H])([H])C1([H])[H])C2([H])[H]

>  <smiles>  (65) 
[H]OC(=C(C(=O)N([H])c1nc(N([H])C(=O)N2C([H])([H])C([H])([H])C([H])([H])C([H])(n3nc(-c4c([H])c([H])c(Oc5c([H])c([H])c(F)c([H])c5F)c([H])c4[H])c(C(=O)N([H])[H])c3N([H])[H])C2([H])[H])c([H])c(F)c1[H])C([H])([H])[H])C([H])([H])Oc1c([H])c([H])c2c(c1[H])C([H])([H])N(C(=O)C([H])(N([H])C(=O)C([H])(N([H])C([H])([H])[H])C([H])([H])[H])C(C([H])([H])[H])(C([H])([H])[H])C([H])([H])[H])C([H])(C(=O)N([H])C1([H])c3c([H])c([H])c([H])c([H])c3C([H])([H])C([H])([H])C1([H])[H])C2([H])[H]

$$$$
65:0:0
     RDKit          3D

 96104  0  0  1  0  0  0  0  0999 V2000
  -28.6110  -22.9560   20.7300 C   0  0  0  0  0  0  0  0  0  0  0  0
  -29.4920  -22.0240   20.3140 N   0  0  0  0  0  0  0  0  0  0  0  0
  -27.6140  -22.6670   21.3980 O   0  0  0  0  0  0  0  0  0  0  0  0
  -30.3420  -22.4010   19.9170 H   0  0  0  0  0  0  0  0  0  0  0  0
  -28.4940  -18.4700   19.9810 C   0  0  0  0  0  0  0  0  0  0  0  0
  -28.2760  -19.8860   19.9600 C   0  0  0  0  0  0  0  0  0  0  0  0
  -29.7600  -18.1350   20.4060 C   0  0  0  0  0  0  0  0  0  0  0  0
  -29.3490  -20.6640   20.3320 C   0  0  0  0  0  0  0  0  0  0  0  0
  -27.1390  -20.3810   19.5200 F   0  0  0  0  0  0  0  0  0  0  0  0
  -30.6790  -19.5970   20.7490 S   0  0  0  0  0  0  0  0  0  0  0  0
  -27.4930  -17.5990   19.5150 N   0  0  0  0  0  0  0  0  0  0  0  0
  -26.7470  -18.0750   19.0190 H   0  0  0  0  0  0  0  0  0  0  0  0
  -27.8550  -16.8180   18.9820 H   0  0  0  0  0  0  0  0  0  0  0  0
  -30.4450  -16.8380   20.5090 C   0  0  0  0  0  3  0  0  0  0  0  0
  -29.9180  -15.6700   20.6640 N   0  0  0  0  0  0  0  0  0  0  0  0
  -30.7330  -14.5540   20.4170 C   0  0  0  0  0  0  0  0  0  0  0  0
  -30.4560  -12.3230   19.4140 C   0  0  0  0  0  2  0  0  0  0  0  0
  -29.5430  -12.4840   18.1800 C   0  0  0  0  0  2  0  0  0  0  0  0
  -28.0600  -12.3610   18.5820 C   0  0  0  0  0  2  0  0  0  0  0  0
  -27.6930  -13.2450   19.8050 C   0  0  0  0  0  3  0  0  0  0  0  0
  -28.7340  -13.0960   20.9360 C   0  0  0  0  0  2  0  0  0  0  0  0
  -30.0700  -13.3630   20.3810 N   0  0  0  0  0  0  0  0  0  0  0  0
  -31.9120  -14.6140   20.0580 O   0  0  0  0  0  0  0  0  0  0  0  0
  -25.2900  -13.8540   20.4990 C   0  0  0  0  0  0  0  0  0  0  0  0
  -24.2150  -13.0850   20.8500 C   0  0  0  0  0  0  0  0  0  0  0  0
  -24.6730  -11.7330   20.8270 C   0  0  0  0  0  0  0  0  0  0  0  0
  -26.3360  -12.9730   20.2780 N   0  0  0  0  0  0  0  0  0  0  0  0
  -25.9670  -11.6900   20.5350 N   0  0  0  0  0  0  0  0  0  0  0  0
  -23.9390  -10.4760   21.0120 C   0  0  0  0  0  0  0  0  0  0  0  0
  -24.3460   -9.5140   21.9630 C   0  0  0  0  0  3  0  0  0  0  0  0
  -23.6130   -8.3210   22.1360 C   0  0  0  0  0  3  0  0  0  0  0  0
  -22.4550   -8.0810   21.3570 C   0  0  0  0  0  0  0  0  0  0  0  0
  -22.0660   -9.0310   20.3970 C   0  0  0  0  0  3  0  0  0  0  0  0
  -22.8010  -10.2160   20.2230 C   0  0  0  0  0  3  0  0  0  0  0  0
  -21.6940   -6.9390   21.4380 O   0  0  0  0  0  0  0  0  0  0  0  0
  -21.6030   -6.2160   22.6000 C   0  0  0  0  0  0  0  0  0  0  0  0
  -21.0930   -6.7800   23.7900 C   0  0  0  0  0  3  0  0  0  0  0  0
  -20.9510   -5.9810   24.9430 C   0  0  0  0  0  3  0  0  0  0  0  0
  -21.3100   -4.6190   24.9050 C   0  0  0  0  0  0  0  0  0  0  0  0
  -21.8130   -4.0560   23.7190 C   0  0  0  0  0  3  0  0  0  0  0  0
  -21.9560   -4.8520   22.5690 C   0  0  0  0  0  0  0  0  0  0  0  0
  -22.4220   -4.2990   21.4230 F   0  0  0  0  0  0  0  0  0  0  0  0
  -21.1670   -3.8500   26.0090 F   0  0  0  0  0  0  0  0  0  0  0  0
  -22.8180  -13.5700   21.1090 C   0  0  0  0  0  0  0  0  0  0  0  0
  -22.0810  -12.8840   21.9760 N   0  0  0  0  0  0  0  0  0  0  0  0
  -22.3870  -14.5930   20.5790 O   0  0  0  0  0  0  0  0  0  0  0  0
  -22.4430  -12.0560   22.4270 H   0  0  0  0  0  0  0  0  0  0  0  0
  -21.1440  -13.1910   22.1910 H   0  0  0  0  0  0  0  0  0  0  0  0
  -25.4490  -15.2260   20.3400 N   0  0  0  0  0  0  0  0  0  0  0  0
  -24.6800  -15.8660   20.4980 H   0  0  0  0  0  0  0  0  0  0  0  0
  -26.3320  -15.7170   20.2240 H   0  0  0  0  0  0  0  0  0  0  0  0
  -28.1690  -25.3560   20.6650 C   0  0  0  0  0  3  0  0  0  0  0  0
  -28.9820  -24.3260   20.3380 C   0  0  0  0  0  0  0  0  0  0  0  0
  -30.1070  -24.5550   19.6420 O   0  0  0  0  0  0  0  0  0  0  0  0
  -30.1470  -25.4920   19.4900 H   0  0  0  0  0  0  0  0  0  0  0  0
  -28.3710  -26.6770   20.3030 O   0  0  0  0  0  0  0  0  0  0  0  0
  -24.5210  -31.8880   23.2950 C   0  0  0  0  0  0  0  0  0  0  0  0
  -27.2330  -27.4580   20.2530 C   0  0  0  0  0  0  0  0  0  0  0  0
  -23.3490  -30.4800   21.6350 C   0  0  0  0  0  3  0  0  0  0  0  0
  -24.8340  -28.9600   20.2240 C   0  0  0  0  0  0  0  0  0  0  0  0
  -25.8760  -30.8550   21.4750 C   0  0  0  0  0  2  0  0  0  0  0  0
  -25.9810  -29.4850   20.8330 C   0  0  0  0  0  0  0  0  0  0  0  0
  -27.1860  -28.7420   20.8460 C   0  0  0  0  0  3  0  0  0  0  0  0
  -26.0720  -26.9580   19.6210 C   0  0  0  0  0  3  0  0  0  0  0  0
  -24.8740  -27.6960   19.6140 C   0  0  0  0  0  3  0  0  0  0  0  0
  -23.5830  -29.8080   20.2560 C   0  0  0  0  0  2  0  0  0  0  0  0
  -24.5990  -31.0900   22.1930 N   0  0  0  0  0  0  0  0  0  0  0  0
  -23.4310  -32.1520   23.8200 O   0  0  0  0  0  0  0  0  0  0  0  0
  -22.6900  -29.4530   22.5830 C   0  0  0  0  0  0  0  0  0  0  0  0
  -21.3680  -29.2650   22.4400 N   0  0  0  0  0  0  0  0  0  0  0  0
  -23.3670  -28.8270   23.4040 O   0  0  0  0  0  0  0  0  0  0  0  0
  -20.8830  -29.8220   21.7500 H   0  0  0  0  0  0  0  0  0  0  0  0
  -17.9870  -28.0820   22.9190 C   0  0  0  0  0  0  0  0  0  0  0  0
  -20.5460  -28.3230   23.1980 C   0  0  0  0  0  3  0  0  0  0  0  0
  -20.6420  -26.8980   22.6050 C   0  0  0  0  0  2  0  0  0  0  0  0
  -19.5390  -26.5950   21.5840 C   0  0  0  0  0  2  0  0  0  0  0  0
  -18.1570  -26.7400   22.2280 C   0  0  0  0  0  2  0  0  0  0  0  0
  -19.1090  -28.8320   23.3610 C   0  0  0  0  0  0  0  0  0  0  0  0
  -18.8970  -30.0910   23.9660 C   0  0  0  0  0  3  0  0  0  0  0  0
  -17.5950  -30.5970   24.1350 C   0  0  0  0  0  3  0  0  0  0  0  0
  -16.4880  -29.8440   23.7110 C   0  0  0  0  0  3  0  0  0  0  0  0
  -16.6840  -28.5870   23.1090 C   0  0  0  0  0  3  0  0  0  0  0  0
  -25.7940  -32.5270   23.9330 C   0  0  0  0  0  3  0  0  0  0  0  0
  -25.4820  -33.9300   24.2320 N   0  0  0  0  0  0  0  0  0  0  0  0
  -25.8190  -34.9670   23.4530 C   0  0  0  0  0  0  0  0  0  0  0  0
  -26.4960  -34.8420   22.4290 O   0  0  0  0  0  0  0  0  0  0  0  0
  -24.8820  -34.1020   25.0260 H   0  0  0  0  0  0  0  0  0  0  0  0
  -24.0890  -36.7460   23.0480 C   0  0  0  0  0  1  0  0  0  0  0  0
  -25.3260  -36.3630   23.8770 C   0  0  0  0  0  3  0  0  0  0  0  0
  -27.4480  -37.2740   24.7080 C   0  0  0  0  0  1  0  0  0  0  0  0
  -26.3570  -37.4160   23.7480 N   0  0  0  0  0  0  0  0  0  0  0  0
  -25.9470  -38.3390   23.8670 H   0  0  0  0  0  0  0  0  0  0  0  0
  -26.2830  -31.7740   25.2310 C   0  0  1  0  0  0  0  0  0  0  0  0
  -25.1670  -31.5470   26.2760 C   0  0  0  0  0  1  0  0  0  0  0  0
  -26.8810  -30.3950   24.8690 C   0  0  0  0  0  1  0  0  0  0  0  0
  -27.4160  -32.5820   25.9090 C   0  0  0  0  0  1  0  0  0  0  0  0
  1  3  2  0
  2  8  1  0
  2  1  1  0
  4  2  1  0
  5  7  2  0
  6  5  1  0
  6  8  2  0
  7 14  1  0
  7 10  1  0
  8 10  1  0
  9  6  1  0
 11  5  1  0
 12 11  1  0
 13 11  1  0
 14 15  2  0
 16 15  1  0
 17 22  1  0
 18 19  1  0
 18 17  1  0
 20 19  1  0
 20 27  1  0
 20 21  1  0
 22 16  1  0
 22 21  1  0
 23 16  2  0
 24 25  2  0
 25 44  1  0
 26 25  1  0
 26 29  1  0
 27 24  1  0
 27 28  1  0
 28 26  2  0
 29 30  1  0
 30 31  2  0
 32 35  1  0
 32 31  1  0
 33 32  2  0
 34 33  1  0
 34 29  2  0
 35 36  1  0
 36 37  1  0
 37 38  2  0
 39 38  1  0
 39 43  1  0
 40 39  2  0
 41 36  2  0
 41 40  1  0
 42 41  1  0
 44 45  1  0
 45 48  1  0
 45 47  1  0
 46 44  2  0
 49 50  1  0
 49 24  1  0
 51 49  1  0
 53 52  2  0
 53  1  1  0
 54 53  1  0
 55 54  1  0
 56 52  1  0
 57 68  2  0
 58 56  1  0
 58 63  1  0
 59 67  1  0
 59 69  1  0
 60 66  1  0
 60 62  1  0
 61 67  1  0
 62 63  2  0
 62 61  1  0
 64 58  2  0
 65 64  1  0
 65 60  2  0
 66 59  1  0
 67 57  1  0
 69 71  2  0
 70 69  1  0
 72 70  1  0
 73 82  2  0
 73 78  1  0
 74 70  1  0
 74 78  1  0
 75 74  1  0
 76 77  1  0
 76 75  1  0
 77 73  1  0
 78 79  2  0
 79 80  1  0
 81 80  2  0
 82 81  1  0
 83 57  1  0
 83 84  1  0
 83 93  1  0
 84 87  1  0
 85 89  1  0
 85 84  1  0
 86 85  2  0
 89 88  1  0
 91 92  1  0
 91 89  1  0
 91 90  1  0
 93 96  1  1
 93 94  1  0
 95 93  1  0
M  ISO  4  15 100  16 100  52 101  56 101
M  END
>  <TORSDO>  (66) 
F 21

>  <SCORE>  (66) 
-14.139

>  <name>  (66) 
65

>  <ligand_id>  (66) 
65

>  <original_smiles>  (66) 
[H]OC(C(=O)N([H])c1sc(C([H])=NC(=O)N2C([H])([H])C([H])([H])C([H])([H])C([H])(n3nc(-c4c([H])c([H])c(Oc5c([H])c([H])c(F)c([H])c5F)c([H])c4[H])c(C(=O)N([H])[H])c3N([H])[H])C2([H])[H])c(N([H])[H])c1F)=C([H])Oc1c([H])c([H])c2c(c1[H])C([H])([H])N(C(=O)C([H])(N([H])C(=O)C([H])(N([H])C([H])([H])[H])C([H])([H])[H])C(C([H])([H])[H])(C([H])([H])[H])C([H])([H])[H])C([H])(C(=O)N([H])C1([H])c3c([H])c([H])c([H])c([H])c3C([H])([H])C([H])([H])C1([H])[H])C2([H])[H]

>  <smiles>  (66) 
[H]OC(C(=O)N([H])c1sc(C([H])=NC(=O)N2C([H])([H])C([H])([H])C([H])([H])C([H])(n3nc(-c4c([H])c([H])c(Oc5c([H])c([H])c(F)c([H])c5F)c([H])c4[H])c(C(=O)N([H])[H])c3N([H])[H])C2([H])[H])c(N([H])[H])c1F)=C([H])Oc1c([H])c([H])c2c(c1[H])C([H])([H])N(C(=O)C([H])(N([H])C(=O)C([H])(N([H])C([H])([H])[H])C([H])([H])[H])C(C([H])([H])[H])(C([H])([H])[H])C([H])([H])[H])C([H])(C(=O)N([H])C1([H])c3c([H])c([H])c([H])c([H])c3C([H])([H])C([H])([H])C1([H])[H])C2([H])[H]

$$$$
66:0:0
     RDKit          3D

 93101  0  0  1  0  0  0  0  0999 V2000
  -29.8050  -21.6800   20.2150 C   0  0  0  0  0  0  0  0  0  0  0  0
  -29.2630  -20.4810   20.5500 N   0  0  0  0  0  0  0  0  0  0  0  0
  -30.8040  -21.8320   19.5030 O   0  0  0  0  0  0  0  0  0  0  0  0
  -28.5390  -20.5440   21.2530 H   0  0  0  0  0  0  0  0  0  0  0  0
  -30.6920  -14.5660   20.4480 C   0  0  0  0  0  0  0  0  0  0  0  0
  -30.4040  -12.3630   19.3790 C   0  0  0  0  0  2  0  0  0  0  0  0
  -29.4880  -12.5720   18.1560 C   0  0  0  0  0  2  0  0  0  0  0  0
  -28.0060  -12.4400   18.5570 C   0  0  0  0  0  2  0  0  0  0  0  0
  -27.6520  -13.2620   19.8270 C   0  0  0  0  0  3  0  0  0  0  0  0
  -28.7020  -13.0790   20.9480 C   0  0  0  0  0  2  0  0  0  0  0  0
  -30.0300  -13.3710   20.3870 N   0  0  0  0  0  0  0  0  0  0  0  0
  -31.8240  -14.7100   19.9800 O   0  0  0  0  0  0  0  0  0  0  0  0
  -29.7540  -18.8490   18.7430 C   0  0  0  0  0  0  0  0  0  0  0  0
  -29.5970  -19.1700   20.0780 C   0  0  0  0  0  0  0  0  0  0  0  0
  -29.9630  -16.9090   20.2790 C   0  0  0  0  0  0  0  0  0  0  0  0
  -29.6030  -19.7120   17.5280 C   0  0  0  0  0  1  0  0  0  0  0  0
  -29.6440  -18.0440   20.9330 N   0  0  0  0  0  0  0  0  0  0  0  0
  -30.0060  -15.6290   20.9210 N   0  0  0  0  0  0  0  0  0  0  0  0
  -30.1610  -17.1580   18.5440 S   0  0  0  0  0  0  0  0  0  0  0  0
  -29.2400  -15.4350   21.5450 H   0  0  0  0  0  0  0  0  0  0  0  0
  -25.2480  -13.8440   20.5280 C   0  0  0  0  0  0  0  0  0  0  0  0
  -24.1820  -13.0670   20.8930 C   0  0  0  0  0  0  0  0  0  0  0  0
  -24.6500  -11.7180   20.8600 C   0  0  0  0  0  0  0  0  0  0  0  0
  -26.2990  -12.9710   20.2960 N   0  0  0  0  0  0  0  0  0  0  0  0
  -25.9420  -11.6840   20.5500 N   0  0  0  0  0  0  0  0  0  0  0  0
  -23.9260  -10.4530   21.0460 C   0  0  0  0  0  0  0  0  0  0  0  0
  -24.3530   -9.4900   21.9850 C   0  0  0  0  0  3  0  0  0  0  0  0
  -23.6310   -8.2890   22.1610 C   0  0  0  0  0  3  0  0  0  0  0  0
  -22.4680   -8.0410   21.3920 C   0  0  0  0  0  0  0  0  0  0  0  0
  -22.0590   -8.9950   20.4440 C   0  0  0  0  0  3  0  0  0  0  0  0
  -22.7820  -10.1870   20.2680 C   0  0  0  0  0  3  0  0  0  0  0  0
  -21.7210   -6.8910   21.4690 O   0  0  0  0  0  0  0  0  0  0  0  0
  -21.6550   -6.1550   22.6250 C   0  0  0  0  0  0  0  0  0  0  0  0
  -21.1700   -6.7050   23.8310 C   0  0  0  0  0  3  0  0  0  0  0  0
  -21.0530   -5.8940   24.9770 C   0  0  0  0  0  3  0  0  0  0  0  0
  -21.4060   -4.5320   24.9190 C   0  0  0  0  0  0  0  0  0  0  0  0
  -21.8820   -3.9830   23.7160 C   0  0  0  0  0  3  0  0  0  0  0  0
  -22.0040   -4.7910   22.5730 C   0  0  0  0  0  0  0  0  0  0  0  0
  -22.4420   -4.2490   21.4130 F   0  0  0  0  0  0  0  0  0  0  0  0
  -21.2870   -3.7530   26.0190 F   0  0  0  0  0  0  0  0  0  0  0  0
  -22.7830  -13.5410   21.1610 C   0  0  0  0  0  0  0  0  0  0  0  0
  -22.0460  -12.8420   22.0130 N   0  0  0  0  0  0  0  0  0  0  0  0
  -22.3490  -14.5720   20.6470 O   0  0  0  0  0  0  0  0  0  0  0  0
  -22.4060  -12.0100   22.4560 H   0  0  0  0  0  0  0  0  0  0  0  0
  -21.1070  -13.1490   22.2250 H   0  0  0  0  0  0  0  0  0  0  0  0
  -25.4040  -15.2150   20.3500 N   0  0  0  0  0  0  0  0  0  0  0  0
  -24.6290  -15.8600   20.4510 H   0  0  0  0  0  0  0  0  0  0  0  0
  -26.2360  -15.6560   19.9810 H   0  0  0  0  0  0  0  0  0  0  0  0
  -29.0430  -22.8910   20.8600 C   0  0  0  0  0  0  0  0  0  0  0  0
  -28.1750  -22.6980   21.7220 O   0  0  0  0  0  0  0  0  0  0  0  0
  -29.4050  -24.3420   20.4380 C   0  0  0  0  0  2  0  0  0  0  0  0
  -28.1630  -25.2260   20.1250 C   0  0  0  0  0  2  0  0  0  0  0  0
  -28.3610  -26.6610   20.2040 O   0  0  0  0  0  0  0  0  0  0  0  0
  -24.5490  -31.8890   23.2550 C   0  0  0  0  0  0  0  0  0  0  0  0
  -27.2060  -27.4350   20.1660 C   0  0  0  0  0  0  0  0  0  0  0  0
  -23.3560  -30.4950   21.6000 C   0  0  0  0  0  3  0  0  0  0  0  0
  -24.8170  -28.9740   20.1710 C   0  0  0  0  0  0  0  0  0  0  0  0
  -25.8850  -30.8510   21.4230 C   0  0  0  0  0  2  0  0  0  0  0  0
  -25.9750  -29.4830   20.7720 C   0  0  0  0  0  0  0  0  0  0  0  0
  -27.1740  -28.7240   20.7640 C   0  0  0  0  0  3  0  0  0  0  0  0
  -26.0220  -26.9590   19.5540 C   0  0  0  0  0  3  0  0  0  0  0  0
  -24.8380  -27.7150   19.5560 C   0  0  0  0  0  3  0  0  0  0  0  0
  -23.5730  -29.8310   20.2170 C   0  0  0  0  0  2  0  0  0  0  0  0
  -24.6150  -31.0930   22.1510 N   0  0  0  0  0  0  0  0  0  0  0  0
  -23.4640  -32.1590   23.7890 O   0  0  0  0  0  0  0  0  0  0  0  0
  -22.7010  -29.4650   22.5500 C   0  0  0  0  0  0  0  0  0  0  0  0
  -21.3810  -29.2770   22.4050 N   0  0  0  0  0  0  0  0  0  0  0  0
  -23.3790  -28.8400   23.3690 O   0  0  0  0  0  0  0  0  0  0  0  0
  -20.8990  -29.8270   21.7090 H   0  0  0  0  0  0  0  0  0  0  0  0
  -18.0010  -28.0820   22.8600 C   0  0  0  0  0  0  0  0  0  0  0  0
  -20.5550  -28.3350   23.1620 C   0  0  0  0  0  3  0  0  0  0  0  0
  -20.6640  -26.9090   22.5770 C   0  0  0  0  0  2  0  0  0  0  0  0
  -19.5700  -26.5920   21.5520 C   0  0  0  0  0  2  0  0  0  0  0  0
  -18.1820  -26.7360   22.1800 C   0  0  0  0  0  2  0  0  0  0  0  0
  -19.1140  -28.8400   23.3050 C   0  0  0  0  0  0  0  0  0  0  0  0
  -18.8880  -30.1020   23.8960 C   0  0  0  0  0  3  0  0  0  0  0  0
  -17.5820  -30.6020   24.0530 C   0  0  0  0  0  3  0  0  0  0  0  0
  -16.4820  -29.8380   23.6250 C   0  0  0  0  0  3  0  0  0  0  0  0
  -16.6920  -28.5800   23.0320 C   0  0  0  0  0  3  0  0  0  0  0  0
  -25.8330  -32.5150   23.8850 C   0  0  0  0  0  3  0  0  0  0  0  0
  -26.3260  -31.7520   25.1730 C   0  0  1  0  0  0  0  0  0  0  0  0
  -25.2150  -31.5240   26.2250 C   0  0  0  0  0  1  0  0  0  0  0  0
  -26.9040  -30.3700   24.7920 C   0  0  0  0  0  1  0  0  0  0  0  0
  -27.4740  -32.5440   25.8420 C   0  0  0  0  0  1  0  0  0  0  0  0
  -25.5310  -33.9200   24.1990 N   0  0  0  0  0  0  0  0  0  0  0  0
  -25.8870  -34.9600   23.4330 C   0  0  0  0  0  0  0  0  0  0  0  0
  -26.5720  -34.8400   22.4140 O   0  0  0  0  0  0  0  0  0  0  0  0
  -24.9330  -34.0880   24.9930 H   0  0  0  0  0  0  0  0  0  0  0  0
  -24.1890  -36.7610   23.0170 C   0  0  0  0  0  1  0  0  0  0  0  0
  -25.4050  -36.3570   23.8660 C   0  0  0  0  0  3  0  0  0  0  0  0
  -27.5230  -37.2220   24.7540 C   0  0  0  0  0  1  0  0  0  0  0  0
  -26.4520  -37.3970   23.7740 N   0  0  0  0  0  0  0  0  0  0  0  0
  -26.0540  -38.3240   23.9040 H   0  0  0  0  0  0  0  0  0  0  0  0
  1  2  1  0
  1 49  1  0
  2  4  1  0
  3  1  2  0
  5 18  1  0
  6 11  1  0
  7  8  1  0
  7  6  1  0
  9  8  1  0
  9 24  1  0
  9 10  1  0
 11  5  1  0
 11 10  1  0
 12  5  2  0
 13 14  2  0
 14  2  1  0
 14 17  1  0
 15 18  1  0
 15 17  2  0
 16 13  1  0
 18 20  1  0
 19 13  1  0
 19 15  1  0
 21 22  2  0
 22 41  1  0
 23 22  1  0
 23 26  1  0
 24 21  1  0
 24 25  1  0
 25 23  2  0
 26 27  1  0
 27 28  2  0
 29 32  1  0
 29 28  1  0
 30 29  2  0
 31 30  1  0
 31 26  2  0
 32 33  1  0
 33 34  1  0
 34 35  2  0
 36 35  1  0
 36 40  1  0
 37 36  2  0
 38 33  2  0
 38 37  1  0
 39 38  1  0
 41 42  1  0
 42 45  1  0
 42 44  1  0
 43 41  2  0
 46 47  1  0
 46 21  1  0
 48 46  1  0
 49 50  2  0
 51 49  1  0
 52 53  1  0
 52 51  1  0
 54 65  2  0
 55 53  1  0
 55 60  1  0
 56 64  1  0
 56 66  1  0
 57 63  1  0
 57 59  1  0
 58 64  1  0
 59 58  1  0
 60 59  2  0
 61 62  1  0
 61 55  2  0
 62 57  2  0
 63 56  1  0
 64 54  1  0
 66 68  2  0
 67 66  1  0
 69 67  1  0
 70 79  2  0
 70 75  1  0
 71 67  1  0
 71 75  1  0
 72 71  1  0
 73 74  1  0
 73 72  1  0
 74 70  1  0
 75 76  2  0
 76 77  1  0
 78 77  2  0
 79 78  1  0
 80 54  1  0
 80 85  1  0
 80 81  1  0
 81 84  1  1
 81 82  1  0
 83 81  1  0
 85 88  1  0
 86 90  1  0
 86 85  1  0
 87 86  2  0
 90 89  1  0
 92 90  1  0
 92 93  1  0
 92 91  1  0
M  ISO  4   5 100  18 100  52 101  53 101
M  END
>  <TORSDO>  (67) 
F 19

>  <SCORE>  (67) 
-14.288

>  <name>  (67) 
66

>  <ligand_id>  (67) 
66

>  <original_smiles>  (67) 
[H]c1c([H])c([H])c2c(c1[H])C([H])([H])C([H])([H])C([H])([H])C2([H])N([H])C(=O)C1([H])N(C(=O)C([H])(N([H])C(=O)C([H])(N([H])C([H])([H])[H])C([H])([H])[H])C(C([H])([H])[H])(C([H])([H])[H])C([H])([H])[H])C([H])([H])c2c([H])c(OC([H])([H])C([H])([H])C(=O)C(=O)N([H])c3nc(N([H])C(=O)N4C([H])([H])C([H])([H])C([H])([H])C([H])(n5nc(-c6c([H])c([H])c(Oc7c([H])c([H])c(F)c([H])c7F)c([H])c6[H])c(C(=O)N([H])[H])c5N([H])[H])C4([H])[H])sc3C([H])([H])[H])c([H])c([H])c2C1([H])[H]

>  <smiles>  (67) 
[H]c1c([H])c([H])c2c(c1[H])C([H])([H])C([H])([H])C([H])([H])C2([H])N([H])C(=O)C1([H])N(C(=O)C([H])(N([H])C(=O)C([H])(N([H])C([H])([H])[H])C([H])([H])[H])C(C([H])([H])[H])(C([H])([H])[H])C([H])([H])[H])C([H])([H])c2c([H])c(OC([H])([H])C([H])([H])C(=O)C(=O)N([H])c3nc(N([H])C(=O)N4C([H])([H])C([H])([H])C([H])([H])C([H])(n5nc(-c6c([H])c([H])c(Oc7c([H])c([H])c(F)c([H])c7F)c([H])c6[H])c(C(=O)N([H])[H])c5N([H])[H])C4([H])[H])sc3C([H])([H])[H])c([H])c([H])c2C1([H])[H]

$$$$
67:0:0
     RDKit          3D

 93101  0  0  1  0  0  0  0  0999 V2000
  -30.4460  -21.3610   19.8680 C   0  0  0  0  0  0  0  0  0  0  0  0
  -31.0670  -20.2930   20.3970 N   0  0  0  0  0  0  0  0  0  0  0  0
  -29.3360  -21.3020   19.3320 O   0  0  0  0  0  0  0  0  0  0  0  0
  -32.0350  -20.4110   20.6750 H   0  0  0  0  0  0  0  0  0  0  0  0
  -29.2230  -18.7550   20.9340 C   0  0  0  0  0  3  0  0  0  0  0  0
  -29.0010  -17.3640   21.1410 C   0  0  0  0  0  3  0  0  0  0  0  0
  -30.5200  -19.0680   20.6070 C   0  0  0  0  0  0  0  0  0  0  0  0
  -30.1130  -16.5900   20.9340 C   0  0  0  0  0  0  0  0  0  0  0  0
  -31.4890  -17.6130   20.5510 S   0  0  0  0  0  0  0  0  0  0  0  0
  -30.7280  -14.3730   20.1910 C   0  0  0  0  0  0  0  0  0  0  0  0
  -30.3470  -12.3010   18.9100 C   0  0  0  0  0  2  0  0  0  0  0  0
  -29.3500  -12.6040   17.7720 C   0  0  0  0  0  2  0  0  0  0  0  0
  -27.8930  -12.4590   18.2580 C   0  0  0  0  0  2  0  0  0  0  0  0
  -27.6320  -13.2180   19.5860 C   0  0  0  0  0  3  0  0  0  0  0  0
  -28.7300  -12.8960   20.6230 C   0  0  0  0  0  2  0  0  0  0  0  0
  -30.0430  -13.2100   20.0240 N   0  0  0  0  0  0  0  0  0  0  0  0
  -31.7780  -14.6330   19.5930 O   0  0  0  0  0  0  0  0  0  0  0  0
  -30.1350  -15.2360   21.0290 N   0  0  0  0  0  0  0  0  0  0  0  0
  -29.3530  -14.8270   21.5190 H   0  0  0  0  0  0  0  0  0  0  0  0
  -25.2540  -13.8110   20.3810 C   0  0  0  0  0  0  0  0  0  0  0  0
  -24.2020  -13.0320   20.7850 C   0  0  0  0  0  0  0  0  0  0  0  0
  -24.6720  -11.6830   20.7350 C   0  0  0  0  0  0  0  0  0  0  0  0
  -26.2950  -12.9360   20.1090 N   0  0  0  0  0  0  0  0  0  0  0  0
  -25.9480  -11.6520   20.3760 N   0  0  0  0  0  0  0  0  0  0  0  0
  -23.9620  -10.4150   20.9560 C   0  0  0  0  0  0  0  0  0  0  0  0
  -24.4160   -9.4710   21.9030 C   0  0  0  0  0  3  0  0  0  0  0  0
  -23.7100   -8.2660   22.1080 C   0  0  0  0  0  3  0  0  0  0  0  0
  -22.5340   -7.9970   21.3680 C   0  0  0  0  0  0  0  0  0  0  0  0
  -22.0990   -8.9300   20.4090 C   0  0  0  0  0  3  0  0  0  0  0  0
  -22.8060  -10.1270   20.2020 C   0  0  0  0  0  3  0  0  0  0  0  0
  -21.7990   -6.8420   21.4830 O   0  0  0  0  0  0  0  0  0  0  0  0
  -21.7360   -6.1430   22.6610 C   0  0  0  0  0  0  0  0  0  0  0  0
  -21.2740   -6.7350   23.8580 C   0  0  0  0  0  3  0  0  0  0  0  0
  -21.1590   -5.9600   25.0290 C   0  0  0  0  0  3  0  0  0  0  0  0
  -21.4970   -4.5930   25.0050 C   0  0  0  0  0  0  0  0  0  0  0  0
  -21.9510   -4.0010   23.8130 C   0  0  0  0  0  3  0  0  0  0  0  0
  -22.0670   -4.7730   22.6450 C   0  0  0  0  0  0  0  0  0  0  0  0
  -22.4860   -4.1920   21.4940 F   0  0  0  0  0  0  0  0  0  0  0  0
  -21.3780   -3.8450   26.1270 F   0  0  0  0  0  0  0  0  0  0  0  0
  -22.8130  -13.4990   21.1150 C   0  0  0  0  0  0  0  0  0  0  0  0
  -22.1260  -12.7950   22.0080 N   0  0  0  0  0  0  0  0  0  0  0  0
  -22.3470  -14.5240   20.6190 O   0  0  0  0  0  0  0  0  0  0  0  0
  -22.5160  -11.9670   22.4310 H   0  0  0  0  0  0  0  0  0  0  0  0
  -21.1950  -13.0880   22.2750 H   0  0  0  0  0  0  0  0  0  0  0  0
  -25.4090  -15.1840   20.2070 N   0  0  0  0  0  0  0  0  0  0  0  0
  -24.6600  -15.8450   20.3800 H   0  0  0  0  0  0  0  0  0  0  0  0
  -26.2670  -15.6290   19.9030 H   0  0  0  0  0  0  0  0  0  0  0  0
  -31.1680  -22.7070   19.9250 C   0  0  0  0  0  2  0  0  0  0  0  0
  -30.2510  -23.7990   20.5290 C   0  0  0  0  0  2  0  0  0  0  0  0
  -29.9850  -24.9840   19.6020 C   0  0  0  0  0  0  0  0  0  0  0  0
  -30.8940  -25.5050   18.9480 O   0  0  0  0  0  0  0  0  0  0  0  0
  -28.5520  -25.5150   19.5340 C   0  0  0  0  0  2  0  0  0  0  0  0
  -28.4950  -26.7940   20.1590 O   0  0  0  0  0  0  0  0  0  0  0  0
  -24.6100  -31.8810   23.2430 C   0  0  0  0  0  0  0  0  0  0  0  0
  -27.2860  -27.4550   20.1670 C   0  0  0  0  0  0  0  0  0  0  0  0
  -23.4140  -30.4770   21.5950 C   0  0  0  0  0  3  0  0  0  0  0  0
  -24.8760  -28.9350   20.1870 C   0  0  0  0  0  0  0  0  0  0  0  0
  -25.9400  -30.8370   21.4150 C   0  0  0  0  0  2  0  0  0  0  0  0
  -26.0280  -29.4670   20.7780 C   0  0  0  0  0  0  0  0  0  0  0  0
  -27.2330  -28.7310   20.7700 C   0  0  0  0  0  3  0  0  0  0  0  0
  -26.1070  -26.9260   19.5890 C   0  0  0  0  0  3  0  0  0  0  0  0
  -24.9080  -27.6610   19.5980 C   0  0  0  0  0  3  0  0  0  0  0  0
  -23.6310  -29.7910   20.2210 C   0  0  0  0  0  2  0  0  0  0  0  0
  -24.6720  -31.0800   22.1420 N   0  0  0  0  0  0  0  0  0  0  0  0
  -23.5250  -32.1540   23.7750 O   0  0  0  0  0  0  0  0  0  0  0  0
  -22.7570  -29.4560   22.5520 C   0  0  0  0  0  0  0  0  0  0  0  0
  -21.4360  -29.2690   22.4080 N   0  0  0  0  0  0  0  0  0  0  0  0
  -23.4330  -28.8360   23.3770 O   0  0  0  0  0  0  0  0  0  0  0  0
  -20.9520  -29.8180   21.7110 H   0  0  0  0  0  0  0  0  0  0  0  0
  -18.0600  -28.0690   22.8680 C   0  0  0  0  0  0  0  0  0  0  0  0
  -20.6130  -28.3330   23.1730 C   0  0  0  0  0  3  0  0  0  0  0  0
  -20.7270  -26.9010   22.6030 C   0  0  0  0  0  2  0  0  0  0  0  0
  -19.6370  -26.5720   21.5760 C   0  0  0  0  0  2  0  0  0  0  0  0
  -18.2480  -26.7170   22.2020 C   0  0  0  0  0  2  0  0  0  0  0  0
  -19.1710  -28.8340   23.3110 C   0  0  0  0  0  0  0  0  0  0  0  0
  -18.9430  -30.1010   23.8910 C   0  0  0  0  0  3  0  0  0  0  0  0
  -17.6350  -30.6020   24.0350 C   0  0  0  0  0  3  0  0  0  0  0  0
  -16.5380  -29.8340   23.6100 C   0  0  0  0  0  3  0  0  0  0  0  0
  -16.7510  -28.5690   23.0330 C   0  0  0  0  0  3  0  0  0  0  0  0
  -25.8920  -32.5080   23.8720 C   0  0  0  0  0  3  0  0  0  0  0  0
  -25.5860  -33.9080   24.1960 N   0  0  0  0  0  0  0  0  0  0  0  0
  -25.9230  -34.9560   23.4330 C   0  0  0  0  0  0  0  0  0  0  0  0
  -26.6000  -34.8470   22.4060 O   0  0  0  0  0  0  0  0  0  0  0  0
  -24.9920  -34.0670   24.9960 H   0  0  0  0  0  0  0  0  0  0  0  0
  -24.1990  -36.7450   23.0530 C   0  0  0  0  0  1  0  0  0  0  0  0
  -25.4320  -36.3460   23.8790 C   0  0  0  0  0  3  0  0  0  0  0  0
  -27.5600  -37.2300   24.7280 C   0  0  0  0  0  1  0  0  0  0  0  0
  -26.4670  -37.3970   23.7730 N   0  0  0  0  0  0  0  0  0  0  0  0
  -26.0600  -38.3180   23.9160 H   0  0  0  0  0  0  0  0  0  0  0  0
  -26.4010  -31.7370   25.1520 C   0  0  1  0  0  0  0  0  0  0  0  0
  -25.3020  -31.5000   26.2120 C   0  0  0  0  0  1  0  0  0  0  0  0
  -26.9830  -30.3590   24.7620 C   0  0  0  0  0  1  0  0  0  0  0  0
  -27.5500  -32.5310   25.8200 C   0  0  0  0  0  1  0  0  0  0  0  0
  1 48  1  0
  1  2  1  0
  2  7  1  0
  2  4  1  0
  3  1  2  0
  5  6  1  0
  7  5  2  0
  8 18  1  0
  8  6  2  0
  9  7  1  0
  9  8  1  0
 10 18  1  0
 11 16  1  0
 12 13  1  0
 12 11  1  0
 14 13  1  0
 14 23  1  0
 14 15  1  0
 16 10  1  0
 16 15  1  0
 17 10  2  0
 18 19  1  0
 20 21  2  0
 21 40  1  0
 22 21  1  0
 22 25  1  0
 23 24  1  0
 23 20  1  0
 24 22  2  0
 25 26  1  0
 26 27  2  0
 28 31  1  0
 28 27  1  0
 29 28  2  0
 30 29  1  0
 30 25  2  0
 31 32  1  0
 32 33  1  0
 33 34  2  0
 35 34  1  0
 35 39  1  0
 36 35  2  0
 37 32  2  0
 37 36  1  0
 38 37  1  0
 40 41  1  0
 41 44  1  0
 41 43  1  0
 42 40  2  0
 45 46  1  0
 45 20  1  0
 47 45  1  0
 48 49  1  0
 50 49  1  0
 51 50  2  0
 52 50  1  0
 52 53  1  0
 53 55  1  0
 54 65  2  0
 55 60  1  0
 56 64  1  0
 56 66  1  0
 57 63  1  0
 57 59  1  0
 58 64  1  0
 59 58  1  0
 60 59  2  0
 61 62  1  0
 61 55  2  0
 62 57  2  0
 63 56  1  0
 64 54  1  0
 66 68  2  0
 67 66  1  0
 69 67  1  0
 70 79  2  0
 70 75  1  0
 71 67  1  0
 71 75  1  0
 72 71  1  0
 73 74  1  0
 73 72  1  0
 74 70  1  0
 75 76  2  0
 76 77  1  0
 78 77  2  0
 79 78  1  0
 80 54  1  0
 80 81  1  0
 80 90  1  0
 81 84  1  0
 82 86  1  0
 82 81  1  0
 83 82  2  0
 86 85  1  0
 88 86  1  0
 88 89  1  0
 88 87  1  0
 90 93  1  1
 90 91  1  0
 92 90  1  0
M  ISO  4  10 100  18 100  52 101  53 101
M  END
>  <TORSDO>  (68) 
F 21

>  <SCORE>  (68) 
-13.163

>  <name>  (68) 
67

>  <ligand_id>  (68) 
67

>  <original_smiles>  (68) 
[H]c1c(N([H])C(=O)N2C([H])([H])C([H])([H])C([H])([H])C([H])(n3nc(-c4c([H])c([H])c(Oc5c([H])c([H])c(F)c([H])c5F)c([H])c4[H])c(C(=O)N([H])[H])c3N([H])[H])C2([H])[H])sc(N([H])C(=O)C([H])([H])C([H])([H])C(=O)C([H])([H])Oc2c([H])c([H])c3c(c2[H])C([H])([H])N(C(=O)C([H])(N([H])C(=O)C([H])(N([H])C([H])([H])[H])C([H])([H])[H])C(C([H])([H])[H])(C([H])([H])[H])C([H])([H])[H])C([H])(C(=O)N([H])C2([H])c4c([H])c([H])c([H])c([H])c4C([H])([H])C([H])([H])C2([H])[H])C3([H])[H])c1[H]

>  <smiles>  (68) 
[H]c1c(N([H])C(=O)N2C([H])([H])C([H])([H])C([H])([H])C([H])(n3nc(-c4c([H])c([H])c(Oc5c([H])c([H])c(F)c([H])c5F)c([H])c4[H])c(C(=O)N([H])[H])c3N([H])[H])C2([H])[H])sc(N([H])C(=O)C([H])([H])C([H])([H])C(=O)C([H])([H])Oc2c([H])c([H])c3c(c2[H])C([H])([H])N(C(=O)C([H])(N([H])C(=O)C([H])(N([H])C([H])([H])[H])C([H])([H])[H])C(C([H])([H])[H])(C([H])([H])[H])C([H])([H])[H])C([H])(C(=O)N([H])C2([H])c4c([H])c([H])c([H])c([H])c4C([H])([H])C([H])([H])C2([H])[H])C3([H])[H])c1[H]

$$$$
68:0:0
     RDKit          3D

 94102  0  0  1  0  0  0  0  0999 V2000
  -28.9940  -19.0800   21.1740 C   0  0  0  0  0  3  0  0  0  0  0  0
  -29.8760  -18.6990   20.1730 C   0  0  0  0  0  0  0  0  0  0  0  0
  -29.2010  -21.2100   20.2190 C   0  0  0  0  0  0  0  0  0  0  0  0
  -29.0910  -23.8490   19.9610 C   0  0  0  0  0  0  0  0  0  0  0  0
  -28.6060  -20.4510   21.1620 N   0  0  0  0  0  0  0  0  0  0  0  0
  -28.6470  -22.5380   19.9060 N   0  0  0  0  0  0  0  0  0  0  0  0
  -30.2870  -24.1520   20.0480 O   0  0  0  0  0  0  0  0  0  0  0  0
  -30.3210  -20.1910   19.2600 S   0  0  0  0  0  0  0  0  0  0  0  0
  -27.6410  -22.5010   19.8070 H   0  0  0  0  0  0  0  0  0  0  0  0
  -30.7940  -14.8930   19.8240 C   0  0  0  0  0  0  0  0  0  0  0  0
  -30.4430  -12.6110   18.8820 C   0  0  0  0  0  2  0  0  0  0  0  0
  -29.4230  -12.6570   17.7280 C   0  0  0  0  0  2  0  0  0  0  0  0
  -27.9930  -12.4950   18.2700 C   0  0  0  0  0  2  0  0  0  0  0  0
  -27.7090  -13.4040   19.4950 C   0  0  0  0  0  3  0  0  0  0  0  0
  -28.8550  -13.3700   20.5330 C   0  0  0  0  0  2  0  0  0  0  0  0
  -30.1010  -13.7020   19.8320 N   0  0  0  0  0  0  0  0  0  0  0  0
  -31.9580  -14.8720   19.4140 O   0  0  0  0  0  0  0  0  0  0  0  0
  -30.6070  -17.3870   19.8000 C   0  0  0  0  0  0  0  0  0  0  0  0
  -30.1440  -16.0990   20.0850 N   0  0  0  0  0  0  0  0  0  0  0  0
  -31.6540  -17.5580   19.1610 O   0  0  0  0  0  0  0  0  0  0  0  0
  -29.2210  -16.0360   20.4760 H   0  0  0  0  0  0  0  0  0  0  0  0
  -25.3990  -13.9760   20.4540 C   0  0  0  0  0  0  0  0  0  0  0  0
  -24.3600  -13.1950   20.8800 C   0  0  0  0  0  0  0  0  0  0  0  0
  -24.8040  -11.8430   20.7560 C   0  0  0  0  0  0  0  0  0  0  0  0
  -26.4100  -13.1030   20.0930 N   0  0  0  0  0  0  0  0  0  0  0  0
  -26.0660  -11.8120   20.3370 N   0  0  0  0  0  0  0  0  0  0  0  0
  -24.0830  -10.5780   20.9520 C   0  0  0  0  0  0  0  0  0  0  0  0
  -24.5400   -9.5980   21.8630 C   0  0  0  0  0  3  0  0  0  0  0  0
  -23.8160   -8.4020   22.0520 C   0  0  0  0  0  3  0  0  0  0  0  0
  -22.6220   -8.1740   21.3290 C   0  0  0  0  0  0  0  0  0  0  0  0
  -22.1830   -9.1400   20.4080 C   0  0  0  0  0  3  0  0  0  0  0  0
  -22.9070  -10.3280   20.2180 C   0  0  0  0  0  3  0  0  0  0  0  0
  -21.8680   -7.0280   21.4280 O   0  0  0  0  0  0  0  0  0  0  0  0
  -21.8050   -6.3060   22.5910 C   0  0  0  0  0  0  0  0  0  0  0  0
  -21.2680   -6.8530   23.7790 C   0  0  0  0  0  3  0  0  0  0  0  0
  -21.1570   -6.0540   24.9350 C   0  0  0  0  0  3  0  0  0  0  0  0
  -21.5740   -4.7090   24.9040 C   0  0  0  0  0  0  0  0  0  0  0  0
  -22.1040   -4.1630   23.7240 C   0  0  0  0  0  3  0  0  0  0  0  0
  -22.2170   -4.9590   22.5690 C   0  0  0  0  0  0  0  0  0  0  0  0
  -22.7080   -4.4200   21.4270 F   0  0  0  0  0  0  0  0  0  0  0  0
  -21.4610   -3.9390   26.0140 F   0  0  0  0  0  0  0  0  0  0  0  0
  -22.9960  -13.6700   21.2910 C   0  0  0  0  0  0  0  0  0  0  0  0
  -22.3420  -12.9500   22.1940 N   0  0  0  0  0  0  0  0  0  0  0  0
  -22.5230  -14.7140   20.8430 O   0  0  0  0  0  0  0  0  0  0  0  0
  -22.7410  -12.1030   22.5740 H   0  0  0  0  0  0  0  0  0  0  0  0
  -21.4330  -13.2500   22.5130 H   0  0  0  0  0  0  0  0  0  0  0  0
  -25.5660  -15.3500   20.3160 N   0  0  0  0  0  0  0  0  0  0  0  0
  -24.8360  -16.0170   20.5440 H   0  0  0  0  0  0  0  0  0  0  0  0
  -26.3870  -15.7870   19.9170 H   0  0  0  0  0  0  0  0  0  0  0  0
  -27.9500  -24.9830   19.8980 C   0  0  0  0  0  3  0  0  0  0  0  0
  -28.2930  -26.4660   19.8790 O   0  0  0  0  0  0  0  0  0  0  0  0
  -24.6020  -31.7980   23.1560 C   0  0  0  0  0  0  0  0  0  0  0  0
  -27.2190  -27.3970   19.8200 C   0  0  0  0  0  0  0  0  0  0  0  0
  -23.3980  -30.4880   21.4500 C   0  0  0  0  0  3  0  0  0  0  0  0
  -24.8480  -29.0380   19.9180 C   0  0  0  0  0  0  0  0  0  0  0  0
  -25.9380  -30.8220   21.2690 C   0  0  0  0  0  2  0  0  0  0  0  0
  -26.0240  -29.4840   20.5350 C   0  0  0  0  0  0  0  0  0  0  0  0
  -27.2110  -28.6780   20.4760 C   0  0  0  0  0  3  0  0  0  0  0  0
  -26.0180  -27.0450   19.1540 C   0  0  0  0  0  3  0  0  0  0  0  0
  -24.8520  -27.8260   19.2170 C   0  0  0  0  0  3  0  0  0  0  0  0
  -23.6040  -29.8950   20.0330 C   0  0  0  0  0  2  0  0  0  0  0  0
  -24.6670  -31.0510   22.0150 N   0  0  0  0  0  0  0  0  0  0  0  0
  -23.5210  -32.0370   23.7130 O   0  0  0  0  0  0  0  0  0  0  0  0
  -22.7450  -29.4130   22.3550 C   0  0  0  0  0  0  0  0  0  0  0  0
  -21.4230  -29.2230   22.2170 N   0  0  0  0  0  0  0  0  0  0  0  0
  -23.4320  -28.7570   23.1430 O   0  0  0  0  0  0  0  0  0  0  0  0
  -20.9260  -29.8060   21.5610 H   0  0  0  0  0  0  0  0  0  0  0  0
  -18.0590  -27.9610   22.6660 C   0  0  0  0  0  0  0  0  0  0  0  0
  -20.6170  -28.2330   22.9390 C   0  0  0  0  0  3  0  0  0  0  0  0
  -20.7330  -26.8390   22.2810 C   0  0  0  0  0  2  0  0  0  0  0  0
  -19.6270  -26.5620   21.2570 C   0  0  0  0  0  2  0  0  0  0  0  0
  -18.2460  -26.6540   21.9130 C   0  0  0  0  0  2  0  0  0  0  0  0
  -19.1720  -28.7100   23.1330 C   0  0  0  0  0  0  0  0  0  0  0  0
  -18.9410  -29.9340   23.7980 C   0  0  0  0  0  3  0  0  0  0  0  0
  -17.6320  -30.4090   24.0020 C   0  0  0  0  0  3  0  0  0  0  0  0
  -16.5350  -29.6540   23.5560 C   0  0  0  0  0  3  0  0  0  0  0  0
  -16.7490  -28.4330   22.8920 C   0  0  0  0  0  3  0  0  0  0  0  0
  -25.8830  -32.4060   23.8050 C   0  0  0  0  0  3  0  0  0  0  0  0
  -26.3740  -31.6090   25.0770 C   0  0  1  0  0  0  0  0  0  0  0  0
  -25.2630  -31.3630   26.1250 C   0  0  0  0  0  1  0  0  0  0  0  0
  -26.9550  -30.2330   24.6750 C   0  0  0  0  0  1  0  0  0  0  0  0
  -27.5180  -32.3840   25.7710 C   0  0  0  0  0  1  0  0  0  0  0  0
  -25.5890  -33.8010   24.1530 N   0  0  0  0  0  0  0  0  0  0  0  0
  -25.9100  -34.8610   23.3990 C   0  0  0  0  0  0  0  0  0  0  0  0
  -26.5540  -34.7640   22.3490 O   0  0  0  0  0  0  0  0  0  0  0  0
  -25.0140  -33.9500   24.9710 H   0  0  0  0  0  0  0  0  0  0  0  0
  -24.1740  -36.6630   23.1210 C   0  0  0  0  0  1  0  0  0  0  0  0
  -25.4420  -36.2460   23.8840 C   0  0  0  0  0  3  0  0  0  0  0  0
  -27.5950  -37.1310   24.6640 C   0  0  0  0  0  1  0  0  0  0  0  0
  -26.4720  -37.2980   23.7450 N   0  0  0  0  0  0  0  0  0  0  0  0
  -26.0690  -38.2170   23.9040 H   0  0  0  0  0  0  0  0  0  0  0  0
  -26.9450  -24.6640   21.0510 C   0  0  0  0  0  2  0  0  0  0  0  0
  -25.8490  -23.8900   20.5780 O   0  0  0  0  0  0  0  0  0  0  0  0
  -25.1600  -23.9340   21.2370 H   0  0  0  0  0  0  0  0  0  0  0  0
  2  1  2  0
  3  5  2  0
  4  7  2  0
  5  1  1  0
  6  4  1  0
  6  3  1  0
  8  2  1  0
  8  3  1  0
  9  6  1  0
 10 16  1  0
 10 19  1  0
 11 16  1  0
 12 13  1  0
 12 11  1  0
 14 13  1  0
 14 25  1  0
 14 15  1  0
 16 15  1  0
 17 10  2  0
 18 19  1  0
 18  2  1  0
 19 21  1  0
 20 18  2  0
 22 23  2  0
 23 42  1  0
 24 23  1  0
 24 27  1  0
 25 26  1  0
 25 22  1  0
 26 24  2  0
 27 28  1  0
 28 29  2  0
 30 33  1  0
 30 29  1  0
 31 30  2  0
 32 31  1  0
 32 27  2  0
 33 34  1  0
 34 35  1  0
 35 36  2  0
 37 36  1  0
 37 41  1  0
 38 37  2  0
 39 34  2  0
 39 38  1  0
 40 39  1  0
 42 43  1  0
 43 46  1  0
 43 45  1  0
 44 42  2  0
 47 22  1  0
 47 48  1  0
 49 47  1  0
 50  4  1  0
 50 92  1  0
 51 50  1  0
 52 63  2  0
 53 51  1  0
 53 58  1  0
 54 62  1  0
 54 64  1  0
 55 61  1  0
 55 57  1  0
 56 62  1  0
 57 56  1  0
 58 57  2  0
 59 60  1  0
 59 53  2  0
 60 55  2  0
 61 54  1  0
 62 52  1  0
 64 66  2  0
 65 64  1  0
 67 65  1  0
 68 77  2  0
 68 73  1  0
 69 65  1  0
 69 73  1  0
 70 69  1  0
 71 72  1  0
 71 70  1  0
 72 68  1  0
 73 74  2  0
 74 75  1  0
 76 75  2  0
 77 76  1  0
 78 52  1  0
 78 83  1  0
 78 79  1  0
 79 82  1  1
 79 80  1  0
 81 79  1  0
 83 86  1  0
 84 88  1  0
 84 83  1  0
 85 84  2  0
 88 87  1  0
 90 88  1  0
 90 91  1  0
 90 89  1  0
 93 92  1  0
 93 94  1  0
M  ISO  4  10 100  19 100  50 101  51 101
M  END
>  <TORSDO>  (69) 
F 19

>  <SCORE>  (69) 
-13.639

>  <name>  (69) 
68

>  <ligand_id>  (69) 
68

>  <original_smiles>  (69) 
[H]OC([H])([H])C([H])(Oc1c([H])c([H])c2c(c1[H])C([H])([H])N(C(=O)C([H])(N([H])C(=O)C([H])(N([H])C([H])([H])[H])C([H])([H])[H])C(C([H])([H])[H])(C([H])([H])[H])C([H])([H])[H])C([H])(C(=O)N([H])C1([H])c3c([H])c([H])c([H])c([H])c3C([H])([H])C([H])([H])C1([H])[H])C2([H])[H])C(=O)N([H])c1nc([H])c(C(=O)N([H])C(=O)N2C([H])([H])C([H])([H])C([H])([H])C([H])(n3nc(-c4c([H])c([H])c(Oc5c([H])c([H])c(F)c([H])c5F)c([H])c4[H])c(C(=O)N([H])[H])c3N([H])[H])C2([H])[H])s1

>  <smiles>  (69) 
[H]OC([H])([H])C([H])(Oc1c([H])c([H])c2c(c1[H])C([H])([H])N(C(=O)C([H])(N([H])C(=O)C([H])(N([H])C([H])([H])[H])C([H])([H])[H])C(C([H])([H])[H])(C([H])([H])[H])C([H])([H])[H])C([H])(C(=O)N([H])C1([H])c3c([H])c([H])c([H])c([H])c3C([H])([H])C([H])([H])C1([H])[H])C2([H])[H])C(=O)N([H])c1nc([H])c(C(=O)N([H])C(=O)N2C([H])([H])C([H])([H])C([H])([H])C([H])(n3nc(-c4c([H])c([H])c(Oc5c([H])c([H])c(F)c([H])c5F)c([H])c4[H])c(C(=O)N([H])[H])c3N([H])[H])C2([H])[H])s1

$$$$
69:0:0
     RDKit          3D

 95103  0  0  1  0  0  0  0  0999 V2000
  -30.7920  -20.7430   19.8730 C   0  0  0  0  0  0  0  0  0  0  0  0
  -29.9740  -21.8270   19.8500 N   0  0  0  0  0  0  0  0  0  0  0  0
  -32.0030  -20.8550   19.6690 O   0  0  0  0  0  0  0  0  0  0  0  0
  -28.9970  -21.6770   20.0690 H   0  0  0  0  0  0  0  0  0  0  0  0
  -28.9100  -18.9480   20.2230 C   0  0  0  0  0  0  0  0  0  0  0  0
  -28.7890  -17.5420   20.4480 C   0  0  0  0  0  0  0  0  0  0  0  0
  -30.1990  -19.3860   20.1030 C   0  0  0  0  0  0  0  0  0  0  0  0
  -29.9710  -16.8400   20.4980 C   0  0  0  0  0  0  0  0  0  0  0  0
  -27.8590  -19.7360   20.1330 F   0  0  0  0  0  0  0  0  0  0  0  0
  -27.6190  -16.9590   20.5800 F   0  0  0  0  0  0  0  0  0  0  0  0
  -31.2920  -17.9970   20.2860 S   0  0  0  0  0  0  0  0  0  0  0  0
  -30.7770  -14.5290   20.0530 C   0  0  0  0  0  0  0  0  0  0  0  0
  -30.5430  -12.2940   19.0020 C   0  0  0  0  0  2  0  0  0  0  0  0
  -29.5480  -12.4030   17.8250 C   0  0  0  0  0  2  0  0  0  0  0  0
  -28.0890  -12.2600   18.3050 C   0  0  0  0  0  2  0  0  0  0  0  0
  -27.7750  -13.1470   19.5390 C   0  0  0  0  0  3  0  0  0  0  0  0
  -28.8690  -12.9730   20.6180 C   0  0  0  0  0  2  0  0  0  0  0  0
  -30.1690  -13.3060   20.0050 N   0  0  0  0  0  0  0  0  0  0  0  0
  -31.8640  -14.7570   19.5130 O   0  0  0  0  0  0  0  0  0  0  0  0
  -30.0420  -15.4810   20.6690 N   0  0  0  0  0  0  0  0  0  0  0  0
  -29.2500  -15.0970   21.1660 H   0  0  0  0  0  0  0  0  0  0  0  0
  -25.4150  -13.7750   20.3590 C   0  0  0  0  0  0  0  0  0  0  0  0
  -24.3540  -13.0100   20.7610 C   0  0  0  0  0  0  0  0  0  0  0  0
  -24.7970  -11.6540   20.6910 C   0  0  0  0  0  0  0  0  0  0  0  0
  -26.4390  -12.8840   20.0690 N   0  0  0  0  0  0  0  0  0  0  0  0
  -26.0720  -11.6010   20.3240 N   0  0  0  0  0  0  0  0  0  0  0  0
  -24.0650  -10.3980   20.8960 C   0  0  0  0  0  0  0  0  0  0  0  0
  -24.4930   -9.4390   21.8420 C   0  0  0  0  0  3  0  0  0  0  0  0
  -23.7630   -8.2460   22.0320 C   0  0  0  0  0  3  0  0  0  0  0  0
  -22.5910   -8.0030   21.2770 C   0  0  0  0  0  0  0  0  0  0  0  0
  -22.1820   -8.9500   20.3210 C   0  0  0  0  0  3  0  0  0  0  0  0
  -22.9130  -10.1350   20.1300 C   0  0  0  0  0  3  0  0  0  0  0  0
  -21.8350   -6.8600   21.3760 O   0  0  0  0  0  0  0  0  0  0  0  0
  -21.7390   -6.1610   22.5520 C   0  0  0  0  0  0  0  0  0  0  0  0
  -21.2420   -6.7540   23.7330 C   0  0  0  0  0  3  0  0  0  0  0  0
  -21.0930   -5.9800   24.9010 C   0  0  0  0  0  3  0  0  0  0  0  0
  -21.4290   -4.6120   24.8880 C   0  0  0  0  0  0  0  0  0  0  0  0
  -21.9190   -4.0190   23.7110 C   0  0  0  0  0  3  0  0  0  0  0  0
  -22.0690   -4.7910   22.5450 C   0  0  0  0  0  0  0  0  0  0  0  0
  -22.5210   -4.2070   21.4090 F   0  0  0  0  0  0  0  0  0  0  0  0
  -21.2780   -3.8670   26.0080 F   0  0  0  0  0  0  0  0  0  0  0  0
  -22.9750  -13.5000   21.1010 C   0  0  0  0  0  0  0  0  0  0  0  0
  -22.2840  -12.8060   21.9980 N   0  0  0  0  0  0  0  0  0  0  0  0
  -22.5220  -14.5310   20.6060 O   0  0  0  0  0  0  0  0  0  0  0  0
  -22.6650  -11.9720   22.4190 H   0  0  0  0  0  0  0  0  0  0  0  0
  -21.3620  -13.1150   22.2700 H   0  0  0  0  0  0  0  0  0  0  0  0
  -25.5930  -15.1450   20.1970 N   0  0  0  0  0  0  0  0  0  0  0  0
  -24.8620  -15.8190   20.3990 H   0  0  0  0  0  0  0  0  0  0  0  0
  -26.4470  -15.5760   19.8680 H   0  0  0  0  0  0  0  0  0  0  0  0
  -30.4270  -23.3710   17.9390 C   0  0  0  0  0  1  0  0  0  0  0  0
  -30.3800  -23.2100   19.4720 C   0  0  0  0  0  3  0  0  0  0  0  0
  -29.6540  -24.3740   20.2420 C   0  0  0  0  0  0  0  0  0  0  0  0
  -29.8730  -24.5660   21.4430 O   0  0  0  0  0  0  0  0  0  0  0  0
  -28.6360  -25.3010   19.5100 C   0  0  0  0  0  2  0  0  0  0  0  0
  -28.6330  -26.6680   20.0110 O   0  0  0  0  0  0  0  0  0  0  0  0
  -24.6730  -31.7510   23.1040 C   0  0  0  0  0  0  0  0  0  0  0  0
  -27.4500  -27.4010   19.9580 C   0  0  0  0  0  0  0  0  0  0  0  0
  -23.5210  -30.3740   21.4030 C   0  0  0  0  0  3  0  0  0  0  0  0
  -25.0280  -28.8990   19.9620 C   0  0  0  0  0  0  0  0  0  0  0  0
  -26.0490  -30.7680   21.2680 C   0  0  0  0  0  2  0  0  0  0  0  0
  -26.1680  -29.4150   20.5880 C   0  0  0  0  0  0  0  0  0  0  0  0
  -27.3780  -28.6740   20.5830 C   0  0  0  0  0  3  0  0  0  0  0  0
  -26.2860  -26.9180   19.3100 C   0  0  0  0  0  3  0  0  0  0  0  0
  -25.0830  -27.6510   19.3200 C   0  0  0  0  0  3  0  0  0  0  0  0
  -23.7690  -29.7370   20.0100 C   0  0  0  0  0  2  0  0  0  0  0  0
  -24.7650  -30.9810   21.9820 N   0  0  0  0  0  0  0  0  0  0  0  0
  -23.5770  -31.9920   23.6300 O   0  0  0  0  0  0  0  0  0  0  0  0
  -22.8690  -29.3170   22.3250 C   0  0  0  0  0  0  0  0  0  0  0  0
  -21.5400  -29.1590   22.2100 N   0  0  0  0  0  0  0  0  0  0  0  0
  -23.5560  -28.6460   23.1000 O   0  0  0  0  0  0  0  0  0  0  0  0
  -21.0480  -29.7540   21.5580 H   0  0  0  0  0  0  0  0  0  0  0  0
  -18.1470  -28.0430   22.7700 C   0  0  0  0  0  0  0  0  0  0  0  0
  -20.7220  -28.1960   22.9480 C   0  0  0  0  0  3  0  0  0  0  0  0
  -20.7490  -26.8070   22.2680 C   0  0  0  0  0  2  0  0  0  0  0  0
  -19.5950  -26.5950   21.2830 C   0  0  0  0  0  2  0  0  0  0  0  0
  -18.2480  -26.7390   21.9950 C   0  0  0  0  0  2  0  0  0  0  0  0
  -19.3100  -28.7340   23.2020 C   0  0  0  0  0  0  0  0  0  0  0  0
  -19.1620  -29.9590   23.8900 C   0  0  0  0  0  3  0  0  0  0  0  0
  -17.8840  -30.4900   24.1470 C   0  0  0  0  0  3  0  0  0  0  0  0
  -16.7370  -29.7940   23.7290 C   0  0  0  0  0  3  0  0  0  0  0  0
  -16.8690  -28.5710   23.0460 C   0  0  0  0  0  3  0  0  0  0  0  0
  -25.9360  -32.3860   23.7640 C   0  0  0  0  0  3  0  0  0  0  0  0
  -26.4430  -31.5940   25.0310 C   0  0  1  0  0  0  0  0  0  0  0  0
  -25.3360  -31.3130   26.0730 C   0  0  0  0  0  1  0  0  0  0  0  0
  -27.0610  -30.2370   24.6210 C   0  0  0  0  0  1  0  0  0  0  0  0
  -27.5630  -32.3960   25.7350 C   0  0  0  0  0  1  0  0  0  0  0  0
  -25.5990  -33.7710   24.1180 N   0  0  0  0  0  0  0  0  0  0  0  0
  -25.9200  -34.8450   23.3830 C   0  0  0  0  0  0  0  0  0  0  0  0
  -26.6010  -34.7740   22.3570 O   0  0  0  0  0  0  0  0  0  0  0  0
  -24.9910  -33.8990   24.9130 H   0  0  0  0  0  0  0  0  0  0  0  0
  -24.1600  -36.6120   23.0480 C   0  0  0  0  0  1  0  0  0  0  0  0
  -25.4020  -36.2150   23.8640 C   0  0  0  0  0  3  0  0  0  0  0  0
  -27.5080  -37.1270   24.7370 C   0  0  0  0  0  1  0  0  0  0  0  0
  -26.4160  -37.2880   23.7810 N   0  0  0  0  0  0  0  0  0  0  0  0
  -25.9900  -38.1980   23.9370 H   0  0  0  0  0  0  0  0  0  0  0  0
  1  7  1  0
  2  1  1  0
  2  4  1  0
  3  1  2  0
  5  6  1  0
  6  8  2  0
  6 10  1  0
  7  5  2  0
  7 11  1  0
  8 20  1  0
  9  5  1  0
 11  8  1  0
 12 20  1  0
 13 18  1  0
 14 15  1  0
 14 13  1  0
 16 15  1  0
 16 25  1  0
 16 17  1  0
 18 12  1  0
 18 17  1  0
 19 12  2  0
 20 21  1  0
 22 23  2  0
 23 42  1  0
 24 23  1  0
 24 27  1  0
 25 26  1  0
 25 22  1  0
 26 24  2  0
 27 28  1  0
 28 29  2  0
 30 33  1  0
 30 29  1  0
 31 30  2  0
 32 31  1  0
 32 27  2  0
 33 34  1  0
 34 35  1  0
 35 36  2  0
 37 36  1  0
 37 41  1  0
 38 37  2  0
 39 34  2  0
 39 38  1  0
 40 39  1  0
 42 43  1  0
 43 46  1  0
 43 45  1  0
 44 42  2  0
 47 22  1  0
 47 48  1  0
 49 47  1  0
 51 50  1  0
 51  2  1  0
 51 52  1  0
 52 53  2  0
 54 55  1  0
 54 52  1  0
 56 67  2  0
 57 55  1  0
 57 62  1  0
 58 66  1  0
 58 68  1  0
 59 65  1  0
 59 61  1  0
 60 66  1  0
 61 60  1  0
 62 61  2  0
 63 64  1  0
 63 57  2  0
 64 59  2  0
 65 58  1  0
 66 56  1  0
 68 70  2  0
 69 68  1  0
 71 69  1  0
 72 81  2  0
 72 77  1  0
 73 69  1  0
 73 77  1  0
 74 73  1  0
 75 76  1  0
 75 74  1  0
 76 72  1  0
 77 78  2  0
 78 79  1  0
 80 79  2  0
 81 80  1  0
 82 56  1  0
 82 87  1  0
 82 83  1  0
 83 86  1  1
 83 84  1  0
 85 83  1  0
 87 90  1  0
 88 92  1  0
 88 87  1  0
 89 88  2  0
 92 91  1  0
 94 92  1  0
 94 95  1  0
 94 93  1  0
M  ISO  4  12 100  20 100  54 101  55 101
M  END
>  <TORSDO>  (70) 
F 20

>  <SCORE>  (70) 
-13.840

>  <name>  (70) 
69

>  <ligand_id>  (70) 
69

>  <original_smiles>  (70) 
[H]c1c([H])c([H])c2c(c1[H])C([H])([H])C([H])([H])C([H])([H])C2([H])N([H])C(=O)C1([H])N(C(=O)C([H])(N([H])C(=O)C([H])(N([H])C([H])([H])[H])C([H])([H])[H])C(C([H])([H])[H])(C([H])([H])[H])C([H])([H])[H])C([H])([H])c2c([H])c(OC([H])([H])C(=O)C([H])(N([H])C(=O)c3sc(N([H])C(=O)N4C([H])([H])C([H])([H])C([H])([H])C([H])(n5nc(-c6c([H])c([H])c(Oc7c([H])c([H])c(F)c([H])c7F)c([H])c6[H])c(C(=O)N([H])[H])c5N([H])[H])C4([H])[H])c(F)c3F)C([H])([H])[H])c([H])c([H])c2C1([H])[H]

>  <smiles>  (70) 
[H]c1c([H])c([H])c2c(c1[H])C([H])([H])C([H])([H])C([H])([H])C2([H])N([H])C(=O)C1([H])N(C(=O)C([H])(N([H])C(=O)C([H])(N([H])C([H])([H])[H])C([H])([H])[H])C(C([H])([H])[H])(C([H])([H])[H])C([H])([H])[H])C([H])([H])c2c([H])c(OC([H])([H])C(=O)C([H])(N([H])C(=O)c3sc(N([H])C(=O)N4C([H])([H])C([H])([H])C([H])([H])C([H])(n5nc(-c6c([H])c([H])c(Oc7c([H])c([H])c(F)c([H])c7F)c([H])c6[H])c(C(=O)N([H])[H])c5N([H])[H])C4([H])[H])c(F)c3F)C([H])([H])[H])c([H])c([H])c2C1([H])[H]

$$$$
70:0:0
     RDKit          3D

 95103  0  0  1  0  0  0  0  0999 V2000
  -28.5130  -22.8990   20.6140 C   0  0  0  0  0  0  0  0  0  0  0  0
  -29.4060  -21.9560   20.2490 N   0  0  0  0  0  0  0  0  0  0  0  0
  -27.4480  -22.6170   21.1700 O   0  0  0  0  0  0  0  0  0  0  0  0
  -30.2680  -22.3400   19.8820 H   0  0  0  0  0  0  0  0  0  0  0  0
  -28.2280  -19.7480   20.3240 C   0  0  0  0  0  3  0  0  0  0  0  0
  -28.5720  -18.3590   20.4070 C   0  0  0  0  0  0  0  0  0  0  0  0
  -29.9130  -18.1010   20.5060 C   0  0  0  0  0  0  0  0  0  0  0  0
  -29.3220  -20.5920   20.3490 C   0  0  0  0  0  0  0  0  0  0  0  0
  -27.6600  -17.4130   20.3820 F   0  0  0  0  0  0  0  0  0  0  0  0
  -30.7820  -19.6310   20.4940 S   0  0  0  0  0  0  0  0  0  0  0  0
  -30.8110  -14.5090   20.1410 C   0  0  0  0  0  0  0  0  0  0  0  0
  -30.4090  -12.3050   19.1070 C   0  0  0  0  0  2  0  0  0  0  0  0
  -29.4450  -12.4550   17.9150 C   0  0  0  0  0  2  0  0  0  0  0  0
  -27.9870  -12.3390   18.3930 C   0  0  0  0  0  2  0  0  0  0  0  0
  -27.6830  -13.2380   19.6240 C   0  0  0  0  0  3  0  0  0  0  0  0
  -28.7740  -13.1100   20.7110 C   0  0  0  0  0  2  0  0  0  0  0  0
  -30.0730  -13.3650   20.0740 N   0  0  0  0  0  0  0  0  0  0  0  0
  -31.9600  -14.5370   19.6910 O   0  0  0  0  0  0  0  0  0  0  0  0
  -30.7460  -16.8700   20.6490 C   0  0  0  0  0  0  0  0  0  0  0  0
  -30.1670  -15.6480   20.5080 N   0  0  0  0  0  0  0  0  0  0  0  0
  -31.9550  -17.0180   20.8700 O   0  0  0  0  0  0  0  0  0  0  0  0
  -29.1640  -15.6080   20.5780 H   0  0  0  0  0  0  0  0  0  0  0  0
  -25.3310  -13.8710   20.4420 C   0  0  0  0  0  0  0  0  0  0  0  0
  -24.2620  -13.1110   20.8360 C   0  0  0  0  0  0  0  0  0  0  0  0
  -24.6960  -11.7520   20.7680 C   0  0  0  0  0  0  0  0  0  0  0  0
  -26.3490  -12.9750   20.1580 N   0  0  0  0  0  0  0  0  0  0  0  0
  -25.9750  -11.6940   20.4120 N   0  0  0  0  0  0  0  0  0  0  0  0
  -23.9530  -10.5010   20.9640 C   0  0  0  0  0  0  0  0  0  0  0  0
  -24.3770   -9.5260   21.8950 C   0  0  0  0  0  3  0  0  0  0  0  0
  -23.6330   -8.3410   22.0800 C   0  0  0  0  0  3  0  0  0  0  0  0
  -22.4520   -8.1210   21.3340 C   0  0  0  0  0  0  0  0  0  0  0  0
  -22.0450   -9.0840   20.3940 C   0  0  0  0  0  3  0  0  0  0  0  0
  -22.7890  -10.2600   20.2060 C   0  0  0  0  0  3  0  0  0  0  0  0
  -21.6790   -6.9880   21.4290 O   0  0  0  0  0  0  0  0  0  0  0  0
  -21.6010   -6.2670   22.5930 C   0  0  0  0  0  0  0  0  0  0  0  0
  -21.1540   -6.8460   23.8000 C   0  0  0  0  0  3  0  0  0  0  0  0
  -21.0210   -6.0510   24.9570 C   0  0  0  0  0  3  0  0  0  0  0  0
  -21.3250   -4.6780   24.9060 C   0  0  0  0  0  0  0  0  0  0  0  0
  -21.7640   -4.0970   23.7030 C   0  0  0  0  0  3  0  0  0  0  0  0
  -21.8980   -4.8890   22.5490 C   0  0  0  0  0  0  0  0  0  0  0  0
  -22.3020   -4.3210   21.3870 F   0  0  0  0  0  0  0  0  0  0  0  0
  -21.1910   -3.9110   26.0140 F   0  0  0  0  0  0  0  0  0  0  0  0
  -22.8860  -13.6110   21.1680 C   0  0  0  0  0  0  0  0  0  0  0  0
  -22.1780  -12.9140   22.0510 N   0  0  0  0  0  0  0  0  0  0  0  0
  -22.4500  -14.6540   20.6820 O   0  0  0  0  0  0  0  0  0  0  0  0
  -22.5440  -12.0710   22.4660 H   0  0  0  0  0  0  0  0  0  0  0  0
  -21.2560  -13.2310   22.3160 H   0  0  0  0  0  0  0  0  0  0  0  0
  -25.5130  -15.2400   20.2860 N   0  0  0  0  0  0  0  0  0  0  0  0
  -24.7700  -15.9050   20.4690 H   0  0  0  0  0  0  0  0  0  0  0  0
  -26.3810  -15.6900   20.0230 H   0  0  0  0  0  0  0  0  0  0  0  0
  -28.1490  -25.3180   20.6070 C   0  0  0  0  0  3  0  0  0  0  0  0
  -28.9420  -24.2710   20.2810 C   0  0  0  0  0  0  0  0  0  0  0  0
  -30.1060  -24.4830   19.6450 O   0  0  0  0  0  0  0  0  0  0  0  0
  -30.1820  -25.4210   19.5220 H   0  0  0  0  0  0  0  0  0  0  0  0
  -28.4000  -26.6490   20.3010 O   0  0  0  0  0  0  0  0  0  0  0  0
  -24.5880  -31.9110   23.2700 C   0  0  0  0  0  0  0  0  0  0  0  0
  -27.2770  -27.4560   20.2380 C   0  0  0  0  0  0  0  0  0  0  0  0
  -23.4100  -30.5030   21.6160 C   0  0  0  0  0  3  0  0  0  0  0  0
  -24.8890  -28.9760   20.2040 C   0  0  0  0  0  0  0  0  0  0  0  0
  -25.9410  -30.8660   21.4540 C   0  0  0  0  0  2  0  0  0  0  0  0
  -26.0400  -29.4950   20.8140 C   0  0  0  0  0  0  0  0  0  0  0  0
  -27.2410  -28.7410   20.8300 C   0  0  0  0  0  3  0  0  0  0  0  0
  -26.1160  -26.9690   19.5990 C   0  0  0  0  0  3  0  0  0  0  0  0
  -24.9230  -27.7130   19.5920 C   0  0  0  0  0  3  0  0  0  0  0  0
  -23.6420  -29.8290   20.2380 C   0  0  0  0  0  2  0  0  0  0  0  0
  -24.6640  -31.1080   22.1710 N   0  0  0  0  0  0  0  0  0  0  0  0
  -23.4980  -32.1800   23.7950 O   0  0  0  0  0  0  0  0  0  0  0  0
  -22.7510  -29.4780   22.5670 C   0  0  0  0  0  0  0  0  0  0  0  0
  -21.4280  -29.2900   22.4230 N   0  0  0  0  0  0  0  0  0  0  0  0
  -23.4260  -28.8570   23.3910 O   0  0  0  0  0  0  0  0  0  0  0  0
  -20.9450  -29.8440   21.7300 H   0  0  0  0  0  0  0  0  0  0  0  0
  -18.0490  -28.0940   22.8900 C   0  0  0  0  0  0  0  0  0  0  0  0
  -20.6050  -28.3500   23.1850 C   0  0  0  0  0  3  0  0  0  0  0  0
  -20.7130  -26.9210   22.6050 C   0  0  0  0  0  2  0  0  0  0  0  0
  -19.6200  -26.6010   21.5800 C   0  0  0  0  0  2  0  0  0  0  0  0
  -18.2320  -26.7460   22.2130 C   0  0  0  0  0  2  0  0  0  0  0  0
  -19.1650  -28.8540   23.3320 C   0  0  0  0  0  0  0  0  0  0  0  0
  -18.9410  -30.1170   23.9230 C   0  0  0  0  0  3  0  0  0  0  0  0
  -17.6360  -30.6180   24.0790 C   0  0  0  0  0  3  0  0  0  0  0  0
  -16.5350  -29.8550   23.6530 C   0  0  0  0  0  3  0  0  0  0  0  0
  -16.7420  -28.5950   23.0650 C   0  0  0  0  0  3  0  0  0  0  0  0
  -25.8630  -32.5490   23.9060 C   0  0  0  0  0  3  0  0  0  0  0  0
  -26.3600  -31.7900   25.1970 C   0  0  1  0  0  0  0  0  0  0  0  0
  -25.2490  -31.5580   26.2480 C   0  0  0  0  0  1  0  0  0  0  0  0
  -26.9540  -30.4110   24.8260 C   0  0  0  0  0  1  0  0  0  0  0  0
  -27.4960  -32.5940   25.8720 C   0  0  0  0  0  1  0  0  0  0  0  0
  -25.5490  -33.9500   24.2140 N   0  0  0  0  0  0  0  0  0  0  0  0
  -25.8950  -34.9930   23.4480 C   0  0  0  0  0  0  0  0  0  0  0  0
  -26.5820  -34.8780   22.4300 O   0  0  0  0  0  0  0  0  0  0  0  0
  -24.9420  -34.1150   25.0040 H   0  0  0  0  0  0  0  0  0  0  0  0
  -24.1750  -36.7810   23.0380 C   0  0  0  0  0  1  0  0  0  0  0  0
  -25.3990  -36.3870   23.8790 C   0  0  0  0  0  3  0  0  0  0  0  0
  -27.5150  -37.2800   24.7440 C   0  0  0  0  0  1  0  0  0  0  0  0
  -26.4340  -37.4370   23.7750 N   0  0  0  0  0  0  0  0  0  0  0  0
  -26.0250  -38.3600   23.9040 H   0  0  0  0  0  0  0  0  0  0  0  0
  1  3  2  0
  2  8  1  0
  2  1  1  0
  4  2  1  0
  5  8  2  0
  5  6  1  0
  6  7  2  0
  7 19  1  0
  8 10  1  0
  9  6  1  0
 10  7  1  0
 11 20  1  0
 12 17  1  0
 13 14  1  0
 13 12  1  0
 15 14  1  0
 15 26  1  0
 15 16  1  0
 17 11  1  0
 17 16  1  0
 18 11  2  0
 19 21  2  0
 20 22  1  0
 20 19  1  0
 23 24  2  0
 24 43  1  0
 25 24  1  0
 25 28  1  0
 26 27  1  0
 26 23  1  0
 27 25  2  0
 28 29  1  0
 29 30  2  0
 31 34  1  0
 31 30  1  0
 32 31  2  0
 33 32  1  0
 33 28  2  0
 34 35  1  0
 35 36  1  0
 36 37  2  0
 38 37  1  0
 38 42  1  0
 39 38  2  0
 40 35  2  0
 40 39  1  0
 41 40  1  0
 43 44  1  0
 44 47  1  0
 44 46  1  0
 45 43  2  0
 48 23  1  0
 48 49  1  0
 50 48  1  0
 52 51  2  0
 52  1  1  0
 53 52  1  0
 54 53  1  0
 55 51  1  0
 56 67  2  0
 57 55  1  0
 57 62  1  0
 58 66  1  0
 58 68  1  0
 59 65  1  0
 59 61  1  0
 60 66  1  0
 61 62  2  0
 61 60  1  0
 63 57  2  0
 64 63  1  0
 64 59  2  0
 65 58  1  0
 66 56  1  0
 68 70  2  0
 69 68  1  0
 71 69  1  0
 72 81  2  0
 72 77  1  0
 73 69  1  0
 73 77  1  0
 74 73  1  0
 75 76  1  0
 75 74  1  0
 76 72  1  0
 77 78  2  0
 78 79  1  0
 80 79  2  0
 81 80  1  0
 82 56  1  0
 82 87  1  0
 82 83  1  0
 83 86  1  1
 83 84  1  0
 85 83  1  0
 87 90  1  0
 88 92  1  0
 88 87  1  0
 89 88  2  0
 92 91  1  0
 94 92  1  0
 94 95  1  0
 94 93  1  0
M  ISO  4  11 100  20 100  51 101  55 101
M  END
>  <TORSDO>  (71) 
F 19

>  <SCORE>  (71) 
-14.921

>  <name>  (71) 
70

>  <ligand_id>  (71) 
70

>  <original_smiles>  (71) 
[H]OC(C(=O)N([H])c1sc(C(=O)N([H])C(=O)N2C([H])([H])C([H])([H])C([H])([H])C([H])(n3nc(-c4c([H])c([H])c(Oc5c([H])c([H])c(F)c([H])c5F)c([H])c4[H])c(C(=O)N([H])[H])c3N([H])[H])C2([H])[H])c(F)c1[H])=C([H])Oc1c([H])c([H])c2c(c1[H])C([H])([H])N(C(=O)C([H])(N([H])C(=O)C([H])(N([H])C([H])([H])[H])C([H])([H])[H])C(C([H])([H])[H])(C([H])([H])[H])C([H])([H])[H])C([H])(C(=O)N([H])C1([H])c3c([H])c([H])c([H])c([H])c3C([H])([H])C([H])([H])C1([H])[H])C2([H])[H]

>  <smiles>  (71) 
[H]OC(C(=O)N([H])c1sc(C(=O)N([H])C(=O)N2C([H])([H])C([H])([H])C([H])([H])C([H])(n3nc(-c4c([H])c([H])c(Oc5c([H])c([H])c(F)c([H])c5F)c([H])c4[H])c(C(=O)N([H])[H])c3N([H])[H])C2([H])[H])c(F)c1[H])=C([H])Oc1c([H])c([H])c2c(c1[H])C([H])([H])N(C(=O)C([H])(N([H])C(=O)C([H])(N([H])C([H])([H])[H])C([H])([H])[H])C(C([H])([H])[H])(C([H])([H])[H])C([H])([H])[H])C([H])(C(=O)N([H])C1([H])c3c([H])c([H])c([H])c([H])c3C([H])([H])C([H])([H])C1([H])[H])C2([H])[H]

$$$$
71:0:0
     RDKit          3D

101109  0  0  1  0  0  0  0  0999 V2000
  -30.1480  -20.7970   19.6880 C   0  0  0  0  0  3  0  0  0  0  0  0
  -30.2250  -18.1760   20.4810 C   0  0  0  0  0  3  0  0  0  0  0  0
  -29.5890  -19.3340   19.8350 C   0  0  0  0  0  0  0  0  0  0  0  0
  -29.5890  -16.9440   20.3260 C   0  0  0  0  0  0  0  0  0  0  0  0
  -28.4210  -18.9310   19.2320 C   0  0  0  0  0  0  0  0  0  0  0  0
  -28.1280  -17.2130   19.4070 S   0  0  0  0  0  0  0  0  0  0  0  0
  -30.5900  -14.6610   20.3800 C   0  0  0  0  0  0  0  0  0  0  0  0
  -30.3870  -12.4310   19.3030 C   0  0  0  0  0  2  0  0  0  0  0  0
  -29.4410  -12.5900   18.0920 C   0  0  0  0  0  2  0  0  0  0  0  0
  -27.9710  -12.4110   18.5240 C   0  0  0  0  0  2  0  0  0  0  0  0
  -27.6150  -13.2530   19.7780 C   0  0  0  0  0  3  0  0  0  0  0  0
  -28.6770  -13.0820   20.8900 C   0  0  0  0  0  2  0  0  0  0  0  0
  -29.9860  -13.4310   20.3130 N   0  0  0  0  0  0  0  0  0  0  0  0
  -31.7290  -14.8440   19.9400 O   0  0  0  0  0  0  0  0  0  0  0  0
  -29.8260  -15.6850   20.8640 N   0  0  0  0  0  0  0  0  0  0  0  0
  -29.0020  -15.2950   21.2980 H   0  0  0  0  0  0  0  0  0  0  0  0
  -25.2160  -13.8460   20.4840 C   0  0  0  0  0  0  0  0  0  0  0  0
  -24.1510  -13.0700   20.8510 C   0  0  0  0  0  0  0  0  0  0  0  0
  -24.6180  -11.7210   20.8240 C   0  0  0  0  0  0  0  0  0  0  0  0
  -26.2650  -12.9690   20.2570 N   0  0  0  0  0  0  0  0  0  0  0  0
  -25.9100  -11.6860   20.5190 N   0  0  0  0  0  0  0  0  0  0  0  0
  -23.8960  -10.4580   21.0160 C   0  0  0  0  0  0  0  0  0  0  0  0
  -24.3210   -9.5020   21.9660 C   0  0  0  0  0  3  0  0  0  0  0  0
  -23.6000   -8.3030   22.1460 C   0  0  0  0  0  3  0  0  0  0  0  0
  -22.4430   -8.0490   21.3730 C   0  0  0  0  0  0  0  0  0  0  0  0
  -22.0360   -8.9920   20.4130 C   0  0  0  0  0  3  0  0  0  0  0  0
  -22.7570  -10.1840   20.2310 C   0  0  0  0  0  3  0  0  0  0  0  0
  -21.6970   -6.8980   21.4590 O   0  0  0  0  0  0  0  0  0  0  0  0
  -21.6270   -6.1680   22.6180 C   0  0  0  0  0  0  0  0  0  0  0  0
  -21.1450   -6.7260   23.8230 C   0  0  0  0  0  3  0  0  0  0  0  0
  -21.0260   -5.9230   24.9740 C   0  0  0  0  0  3  0  0  0  0  0  0
  -21.3810   -4.5610   24.9230 C   0  0  0  0  0  0  0  0  0  0  0  0
  -21.8550   -4.0010   23.7240 C   0  0  0  0  0  3  0  0  0  0  0  0
  -21.9760   -4.8020   22.5740 C   0  0  0  0  0  0  0  0  0  0  0  0
  -22.4160   -4.2540   21.4160 F   0  0  0  0  0  0  0  0  0  0  0  0
  -21.2570   -3.7860   26.0260 F   0  0  0  0  0  0  0  0  0  0  0  0
  -22.7510  -13.5450   21.1180 C   0  0  0  0  0  0  0  0  0  0  0  0
  -22.0220  -12.8460   21.9790 N   0  0  0  0  0  0  0  0  0  0  0  0
  -22.3150  -14.5730   20.6000 O   0  0  0  0  0  0  0  0  0  0  0  0
  -22.3870  -12.0170   22.4240 H   0  0  0  0  0  0  0  0  0  0  0  0
  -21.0820  -13.1480   22.1990 H   0  0  0  0  0  0  0  0  0  0  0  0
  -25.3750  -15.2170   20.3060 N   0  0  0  0  0  0  0  0  0  0  0  0
  -24.6020  -15.8670   20.4010 H   0  0  0  0  0  0  0  0  0  0  0  0
  -26.2230  -15.6560   19.9730 H   0  0  0  0  0  0  0  0  0  0  0  0
  -27.5170  -19.6880   18.4970 N   0  0  0  0  0  0  0  0  0  0  0  0
  -27.6140  -20.6870   18.3400 H   0  0  0  0  0  0  0  0  0  0  0  0
  -26.7070  -19.2970   18.0210 H   0  0  0  0  0  0  0  0  0  0  0  0
  -29.0940  -23.2030   19.9730 C   0  0  0  0  0  0  0  0  0  0  0  0
  -29.3910  -21.9140   20.3670 N   0  0  0  0  0  0  0  0  0  0  0  0
  -29.3680  -23.6240   18.8480 O   0  0  0  0  0  0  0  0  0  0  0  0
  -29.0660  -21.7140   21.3040 H   0  0  0  0  0  0  0  0  0  0  0  0
  -28.1020  -25.3440   21.0850 C   0  0  0  0  0  3  0  0  0  0  0  0
  -28.4040  -23.9960   21.0310 C   0  0  0  0  0  0  0  0  0  0  0  0
  -28.0060  -23.2870   22.1070 O   0  0  0  0  0  0  0  0  0  0  0  0
  -27.5700  -23.8820   22.7000 H   0  0  0  0  0  0  0  0  0  0  0  0
  -28.3110  -26.4490   20.2440 O   0  0  0  0  0  0  0  0  0  0  0  0
  -24.5710  -31.8760   23.2520 C   0  0  0  0  0  0  0  0  0  0  0  0
  -27.2390  -27.3490   20.1990 C   0  0  0  0  0  0  0  0  0  0  0  0
  -23.3940  -30.4740   21.5960 C   0  0  0  0  0  3  0  0  0  0  0  0
  -24.8680  -28.9330   20.1820 C   0  0  0  0  0  0  0  0  0  0  0  0
  -25.9330  -30.8050   21.4430 C   0  0  0  0  0  2  0  0  0  0  0  0
  -26.0280  -29.4300   20.7920 C   0  0  0  0  0  0  0  0  0  0  0  0
  -27.2230  -28.6480   20.7920 C   0  0  0  0  0  3  0  0  0  0  0  0
  -26.0590  -26.9010   19.5730 C   0  0  0  0  0  3  0  0  0  0  0  0
  -24.8830  -27.6740   19.5630 C   0  0  0  0  0  3  0  0  0  0  0  0
  -23.6260  -29.7990   20.2190 C   0  0  0  0  0  2  0  0  0  0  0  0
  -24.6520  -31.0680   22.1550 N   0  0  0  0  0  0  0  0  0  0  0  0
  -23.4790  -32.1490   23.7730 O   0  0  0  0  0  0  0  0  0  0  0  0
  -22.7200  -29.4540   22.5470 C   0  0  0  0  0  0  0  0  0  0  0  0
  -21.3940  -29.2800   22.4090 N   0  0  0  0  0  0  0  0  0  0  0  0
  -23.3900  -28.8190   23.3670 O   0  0  0  0  0  0  0  0  0  0  0  0
  -20.9110  -29.8450   21.7230 H   0  0  0  0  0  0  0  0  0  0  0  0
  -18.0060  -28.1140   22.8940 C   0  0  0  0  0  0  0  0  0  0  0  0
  -20.5650  -28.3430   23.1690 C   0  0  0  0  0  3  0  0  0  0  0  0
  -20.6530  -26.9180   22.5750 C   0  0  0  0  0  2  0  0  0  0  0  0
  -19.5470  -26.6170   21.5580 C   0  0  0  0  0  2  0  0  0  0  0  0
  -18.1670  -26.7700   22.2040 C   0  0  0  0  0  2  0  0  0  0  0  0
  -19.1320  -28.8590   23.3330 C   0  0  0  0  0  0  0  0  0  0  0  0
  -18.9250  -30.1180   23.9390 C   0  0  0  0  0  3  0  0  0  0  0  0
  -17.6250  -30.6290   24.1110 C   0  0  0  0  0  3  0  0  0  0  0  0
  -16.5130  -29.8790   23.6890 C   0  0  0  0  0  3  0  0  0  0  0  0
  -16.7040  -28.6230   23.0860 C   0  0  0  0  0  3  0  0  0  0  0  0
  -25.8430  -32.5120   23.8920 C   0  0  0  0  0  3  0  0  0  0  0  0
  -25.5360  -33.9160   24.1980 N   0  0  0  0  0  0  0  0  0  0  0  0
  -25.8880  -34.9570   23.4310 C   0  0  0  0  0  0  0  0  0  0  0  0
  -26.5760  -34.8360   22.4140 O   0  0  0  0  0  0  0  0  0  0  0  0
  -24.9320  -34.0840   24.9890 H   0  0  0  0  0  0  0  0  0  0  0  0
  -24.1890  -36.7620   23.0060 C   0  0  0  0  0  1  0  0  0  0  0  0
  -25.4010  -36.3550   23.8590 C   0  0  0  0  0  3  0  0  0  0  0  0
  -27.5160  -37.2310   24.7490 C   0  0  0  0  0  1  0  0  0  0  0  0
  -26.4460  -37.3980   23.7680 N   0  0  0  0  0  0  0  0  0  0  0  0
  -26.0440  -38.3230   23.8920 H   0  0  0  0  0  0  0  0  0  0  0  0
  -26.3300  -31.7570   25.1880 C   0  0  1  0  0  0  0  0  0  0  0  0
  -25.2140  -31.5420   26.2380 C   0  0  0  0  0  1  0  0  0  0  0  0
  -26.9130  -30.3710   24.8270 C   0  0  0  0  0  1  0  0  0  0  0  0
  -27.4730  -32.5540   25.8610 C   0  0  0  0  0  1  0  0  0  0  0  0
  -31.6720  -20.8300   20.0140 C   0  0  0  0  0  2  0  0  0  0  0  0
  -32.5530  -21.6370   17.7350 C   0  0  0  0  0  1  0  0  0  0  0  0
  -34.0260  -21.7080   19.7750 C   0  0  0  0  0  1  0  0  0  0  0  0
  -32.5830  -21.8330   19.2630 C   0  0  2  0  0  0  0  0  0  0  0  0
  -32.2210  -23.0830   19.5370 F   0  0  0  0  0  0  0  0  0  0  0  0
  1  3  1  0
  1 97  1  0
  1 49  1  0
  3  2  1  0
  4  2  2  0
  4 15  1  0
  5  6  1  0
  5  3  2  0
  6  4  1  0
  7 15  1  0
  8 13  1  0
  9 10  1  0
  9  8  1  0
 11 10  1  0
 11 20  1  0
 11 12  1  0
 13  7  1  0
 13 12  1  0
 14  7  2  0
 15 16  1  0
 17 18  2  0
 18 37  1  0
 19 18  1  0
 19 22  1  0
 20 17  1  0
 20 21  1  0
 21 19  2  0
 22 23  1  0
 23 24  2  0
 25 28  1  0
 25 24  1  0
 26 25  2  0
 27 26  1  0
 27 22  2  0
 28 29  1  0
 29 30  1  0
 30 31  2  0
 32 31  1  0
 32 36  1  0
 33 32  2  0
 34 29  2  0
 34 33  1  0
 35 34  1  0
 37 38  1  0
 38 41  1  0
 38 40  1  0
 39 37  2  0
 42 43  1  0
 42 17  1  0
 44 42  1  0
 45  5  1  0
 46 45  1  0
 47 45  1  0
 48 49  1  0
 48 53  1  0
 49 51  1  0
 50 48  2  0
 53 52  2  0
 53 54  1  0
 54 55  1  0
 56 52  1  0
 57 68  2  0
 58 56  1  0
 58 63  1  0
 59 67  1  0
 59 69  1  0
 60 66  1  0
 60 62  1  0
 61 67  1  0
 62 63  2  0
 62 61  1  0
 64 58  2  0
 65 64  1  0
 65 60  2  0
 66 59  1  0
 67 57  1  0
 69 71  2  0
 70 69  1  0
 72 70  1  0
 73 82  2  0
 73 78  1  0
 74 70  1  0
 74 78  1  0
 75 74  1  0
 76 77  1  0
 76 75  1  0
 77 73  1  0
 78 79  2  0
 79 80  1  0
 81 80  2  0
 82 81  1  0
 83 57  1  0
 83 84  1  0
 83 93  1  0
 84 87  1  0
 85 89  1  0
 85 84  1  0
 86 85  2  0
 89 88  1  0
 91 89  1  0
 91 92  1  0
 91 90  1  0
 93 96  1  1
 93 94  1  0
 95 93  1  0
100 98  1  6
100101  1  0
100 99  1  0
100 97  1  0
M  ISO  4   7 100  15 100  52 101  56 101
M  END
>  <TORSDO>  (72) 
F 23

>  <SCORE>  (72) 
-13.666

>  <name>  (72) 
71

>  <ligand_id>  (72) 
71

>  <original_smiles>  (72) 
[H]OC(C(=O)N([H])C([H])(c1c(N([H])[H])sc(N([H])C(=O)N2C([H])([H])C([H])([H])C([H])([H])C([H])(n3nc(-c4c([H])c([H])c(Oc5c([H])c([H])c(F)c([H])c5F)c([H])c4[H])c(C(=O)N([H])[H])c3N([H])[H])C2([H])[H])c1[H])C([H])([H])C(F)(C([H])([H])[H])C([H])([H])[H])=C([H])Oc1c([H])c([H])c2c(c1[H])C([H])([H])N(C(=O)C([H])(N([H])C(=O)C([H])(N([H])C([H])([H])[H])C([H])([H])[H])C(C([H])([H])[H])(C([H])([H])[H])C([H])([H])[H])C([H])(C(=O)N([H])C1([H])c3c([H])c([H])c([H])c([H])c3C([H])([H])C([H])([H])C1([H])[H])C2([H])[H]

>  <smiles>  (72) 
[H]OC(C(=O)N([H])C([H])(c1c(N([H])[H])sc(N([H])C(=O)N2C([H])([H])C([H])([H])C([H])([H])C([H])(n3nc(-c4c([H])c([H])c(Oc5c([H])c([H])c(F)c([H])c5F)c([H])c4[H])c(C(=O)N([H])[H])c3N([H])[H])C2([H])[H])c1[H])C([H])([H])C(F)(C([H])([H])[H])C([H])([H])[H])=C([H])Oc1c([H])c([H])c2c(c1[H])C([H])([H])N(C(=O)C([H])(N([H])C(=O)C([H])(N([H])C([H])([H])[H])C([H])([H])[H])C(C([H])([H])[H])(C([H])([H])[H])C([H])([H])[H])C([H])(C(=O)N([H])C1([H])c3c([H])c([H])c([H])c([H])c3C([H])([H])C([H])([H])C1([H])[H])C2([H])[H]

$$$$
72:0:0
     RDKit          3D

 99107  0  0  1  0  0  0  0  0999 V2000
  -29.2010  -23.4250   20.4490 C   0  0  0  0  0  3  0  0  0  0  0  0
  -30.4120  -21.2180   20.4930 C   0  0  0  0  0  0  0  0  0  0  0  0
  -29.6230  -22.1200   19.8700 N   0  0  0  0  0  0  0  0  0  0  0  0
  -31.2300  -21.5650   21.3470 O   0  0  0  0  0  0  0  0  0  0  0  0
  -29.0710  -21.7910   19.0880 H   0  0  0  0  0  0  0  0  0  0  0  0
  -29.5400  -19.0820   19.2210 C   0  0  0  0  0  0  0  0  0  0  0  0
  -29.5370  -17.6630   19.4000 C   0  0  0  0  0  0  0  0  0  0  0  0
  -30.1950  -19.7670   20.2110 C   0  0  0  0  0  0  0  0  0  0  0  0
  -30.1950  -17.2160   20.5210 C   0  0  0  0  0  0  0  0  0  0  0  0
  -28.9250  -19.6650   18.2150 F   0  0  0  0  0  0  0  0  0  0  0  0
  -28.8980  -16.8570   18.5800 F   0  0  0  0  0  0  0  0  0  0  0  0
  -30.8860  -18.6060   21.3520 S   0  0  0  0  0  0  0  0  0  0  0  0
  -30.9550  -14.9360   20.4700 C   0  0  0  0  0  0  0  0  0  0  0  0
  -30.7490  -12.6960   19.4560 C   0  0  0  0  0  2  0  0  0  0  0  0
  -29.8450  -12.8210   18.2120 C   0  0  0  0  0  2  0  0  0  0  0  0
  -28.3600  -12.6750   18.5930 C   0  0  0  0  0  2  0  0  0  0  0  0
  -27.9650  -13.5750   19.7960 C   0  0  0  0  0  3  0  0  0  0  0  0
  -28.9830  -13.4330   20.9510 C   0  0  0  0  0  2  0  0  0  0  0  0
  -30.3270  -13.7280   20.4200 N   0  0  0  0  0  0  0  0  0  0  0  0
  -32.0740  -15.1350   19.9880 O   0  0  0  0  0  0  0  0  0  0  0  0
  -30.2400  -15.9410   21.0100 N   0  0  0  0  0  0  0  0  0  0  0  0
  -29.4020  -15.6350   21.4810 H   0  0  0  0  0  0  0  0  0  0  0  0
  -25.5570  -14.1950   20.4580 C   0  0  0  0  0  0  0  0  0  0  0  0
  -24.4740  -13.4290   20.7960 C   0  0  0  0  0  0  0  0  0  0  0  0
  -24.9220  -12.0720   20.7550 C   0  0  0  0  0  0  0  0  0  0  0  0
  -26.5990  -13.3070   20.2390 N   0  0  0  0  0  0  0  0  0  0  0  0
  -26.2180  -12.0240   20.4710 N   0  0  0  0  0  0  0  0  0  0  0  0
  -24.1790  -10.8150   20.9080 C   0  0  0  0  0  0  0  0  0  0  0  0
  -24.5630   -9.8430   21.8590 C   0  0  0  0  0  3  0  0  0  0  0  0
  -23.8210   -8.6500   22.0020 C   0  0  0  0  0  3  0  0  0  0  0  0
  -22.6820   -8.4200   21.1930 C   0  0  0  0  0  0  0  0  0  0  0  0
  -22.3190   -9.3810   20.2330 C   0  0  0  0  0  3  0  0  0  0  0  0
  -23.0610  -10.5640   20.0880 C   0  0  0  0  0  3  0  0  0  0  0  0
  -21.9160   -7.2810   21.2440 O   0  0  0  0  0  0  0  0  0  0  0  0
  -21.7800   -6.5570   22.4020 C   0  0  0  0  0  0  0  0  0  0  0  0
  -21.2570   -7.1290   23.5810 C   0  0  0  0  0  3  0  0  0  0  0  0
  -21.0700   -6.3300   24.7280 C   0  0  0  0  0  3  0  0  0  0  0  0
  -21.3970   -4.9620   24.6940 C   0  0  0  0  0  0  0  0  0  0  0  0
  -21.9140   -4.3900   23.5170 C   0  0  0  0  0  3  0  0  0  0  0  0
  -22.1030   -5.1860   22.3740 C   0  0  0  0  0  0  0  0  0  0  0  0
  -22.5800   -4.6260   21.2370 F   0  0  0  0  0  0  0  0  0  0  0  0
  -21.2120   -4.1910   25.7920 F   0  0  0  0  0  0  0  0  0  0  0  0
  -23.0760  -13.9160   21.0470 C   0  0  0  0  0  0  0  0  0  0  0  0
  -22.3270  -13.2160   21.8930 N   0  0  0  0  0  0  0  0  0  0  0  0
  -22.6550  -14.9490   20.5300 O   0  0  0  0  0  0  0  0  0  0  0  0
  -22.6770  -12.3770   22.3310 H   0  0  0  0  0  0  0  0  0  0  0  0
  -21.3870  -13.5210   22.1030 H   0  0  0  0  0  0  0  0  0  0  0  0
  -25.7440  -15.5660   20.3010 N   0  0  0  0  0  0  0  0  0  0  0  0
  -24.9810  -16.2280   20.3750 H   0  0  0  0  0  0  0  0  0  0  0  0
  -26.5980  -15.9810   19.9520 H   0  0  0  0  0  0  0  0  0  0  0  0
  -29.2760  -24.6410   19.4690 C   0  0  0  0  0  0  0  0  0  0  0  0
  -29.5830  -24.5230   18.2770 O   0  0  0  0  0  0  0  0  0  0  0  0
  -28.9300  -26.0340   20.0660 C   0  0  0  0  0  2  0  0  0  0  0  0
  -28.6430  -27.0470   19.0810 O   0  0  0  0  0  0  0  0  0  0  0  0
  -24.6410  -31.6080   22.8770 C   0  0  0  0  0  0  0  0  0  0  0  0
  -27.4320  -27.6870   19.2510 C   0  0  0  0  0  0  0  0  0  0  0  0
  -23.4480  -30.2710   21.1700 C   0  0  0  0  0  3  0  0  0  0  0  0
  -24.9300  -28.9840   19.5370 C   0  0  0  0  0  0  0  0  0  0  0  0
  -25.9260  -30.8470   20.8770 C   0  0  0  0  0  2  0  0  0  0  0  0
  -26.0800  -29.5490   20.1060 C   0  0  0  0  0  0  0  0  0  0  0  0
  -27.3350  -28.9100   19.9600 C   0  0  0  0  0  3  0  0  0  0  0  0
  -26.2650  -27.1320   18.6870 C   0  0  0  0  0  3  0  0  0  0  0  0
  -25.0190  -27.7760   18.8230 C   0  0  0  0  0  3  0  0  0  0  0  0
  -23.6290  -29.7330   19.7240 C   0  0  0  0  0  2  0  0  0  0  0  0
  -24.6920  -30.9190   21.7000 N   0  0  0  0  0  0  0  0  0  0  0  0
  -23.5760  -31.7430   23.4950 O   0  0  0  0  0  0  0  0  0  0  0  0
  -22.9290  -29.1220   22.0620 C   0  0  0  0  0  0  0  0  0  0  0  0
  -21.6170  -28.8430   21.9810 N   0  0  0  0  0  0  0  0  0  0  0  0
  -23.7000  -28.4860   22.7860 O   0  0  0  0  0  0  0  0  0  0  0  0
  -21.0490  -29.4160   21.3710 H   0  0  0  0  0  0  0  0  0  0  0  0
  -18.3720  -27.3500   22.5300 C   0  0  0  0  0  0  0  0  0  0  0  0
  -20.9160  -27.7770   22.6960 C   0  0  0  0  0  3  0  0  0  0  0  0
  -21.0880  -26.4180   21.9790 C   0  0  0  0  0  2  0  0  0  0  0  0
  -19.9570  -26.1090   20.9940 C   0  0  0  0  0  2  0  0  0  0  0  0
  -18.6070  -26.0880   21.7160 C   0  0  0  0  0  2  0  0  0  0  0  0
  -19.4560  -28.1520   22.9750 C   0  0  0  0  0  0  0  0  0  0  0  0
  -19.1800  -29.3340   23.6960 C   0  0  0  0  0  3  0  0  0  0  0  0
  -17.8550  -29.7170   23.9760 C   0  0  0  0  0  3  0  0  0  0  0  0
  -16.7870  -28.9090   23.5490 C   0  0  0  0  0  3  0  0  0  0  0  0
  -17.0460  -27.7280   22.8290 C   0  0  0  0  0  3  0  0  0  0  0  0
  -25.9100  -32.2790   23.4890 C   0  0  0  0  0  3  0  0  0  0  0  0
  -25.5210  -33.6100   23.9720 N   0  0  0  0  0  0  0  0  0  0  0  0
  -25.7640  -34.7560   23.3220 C   0  0  0  0  0  0  0  0  0  0  0  0
  -26.4120  -34.8070   22.2720 O   0  0  0  0  0  0  0  0  0  0  0  0
  -24.9420  -33.6410   24.7980 H   0  0  0  0  0  0  0  0  0  0  0  0
  -23.9230  -36.4630   23.1780 C   0  0  0  0  0  1  0  0  0  0  0  0
  -25.1990  -36.0530   23.9310 C   0  0  0  0  0  3  0  0  0  0  0  0
  -27.2840  -36.9760   24.8410 C   0  0  0  0  0  1  0  0  0  0  0  0
  -26.1610  -37.1760   23.9270 N   0  0  0  0  0  0  0  0  0  0  0  0
  -25.6980  -38.0460   24.1780 H   0  0  0  0  0  0  0  0  0  0  0  0
  -26.5620  -31.4340   24.6520 C   0  0  1  0  0  0  0  0  0  0  0  0
  -25.5590  -31.0130   25.7520 C   0  0  0  0  0  1  0  0  0  0  0  0
  -27.2130  -30.1480   24.0910 C   0  0  0  0  0  1  0  0  0  0  0  0
  -27.6950  -32.2480   25.3210 C   0  0  0  0  0  1  0  0  0  0  0  0
  -27.7880  -23.2460   21.0820 C   0  0  0  0  0  2  0  0  0  0  0  0
  -28.2930  -24.0370   23.4660 C   0  0  0  0  0  1  0  0  0  0  0  0
  -27.4110  -25.6840   21.7820 C   0  0  0  0  0  1  0  0  0  0  0  0
  -25.9440  -23.8640   22.6570 C   0  0  0  0  0  1  0  0  0  0  0  0
  -27.3840  -24.2110   22.2350 C   0  0  1  0  0  0  0  0  0  0  0  0
  1 95  1  0
  2  4  2  0
  3  1  1  0
  3  2  1  0
  5  3  1  0
  6  7  1  0
  6  8  2  0
  7  9  2  0
  8  2  1  0
  8 12  1  0
  9 21  1  0
  9 12  1  0
 10  6  1  0
 11  7  1  0
 13 21  1  0
 14 19  1  0
 15 16  1  0
 15 14  1  0
 17 16  1  0
 17 26  1  0
 17 18  1  0
 19 13  1  0
 19 18  1  0
 20 13  2  0
 21 22  1  0
 23 24  2  0
 24 43  1  0
 25 24  1  0
 25 28  1  0
 26 23  1  0
 26 27  1  0
 27 25  2  0
 28 29  1  0
 29 30  2  0
 31 34  1  0
 31 30  1  0
 32 31  2  0
 33 32  1  0
 33 28  2  0
 34 35  1  0
 35 36  1  0
 36 37  2  0
 38 37  1  0
 38 42  1  0
 39 38  2  0
 40 35  2  0
 40 39  1  0
 41 40  1  0
 43 44  1  0
 44 47  1  0
 44 46  1  0
 45 43  2  0
 48 49  1  0
 48 23  1  0
 50 48  1  0
 51 53  1  0
 51  1  1  0
 52 51  2  0
 54 56  1  0
 54 53  1  0
 55 66  2  0
 56 61  1  0
 57 65  1  0
 57 67  1  0
 58 64  1  0
 58 60  1  0
 59 65  1  0
 60 59  1  0
 61 60  2  0
 62 63  1  0
 62 56  2  0
 63 58  2  0
 64 57  1  0
 65 55  1  0
 67 69  2  0
 68 67  1  0
 70 68  1  0
 71 80  2  0
 71 76  1  0
 72 68  1  0
 72 76  1  0
 73 72  1  0
 74 75  1  0
 74 73  1  0
 75 71  1  0
 76 77  2  0
 77 78  1  0
 79 78  2  0
 80 79  1  0
 81 55  1  0
 81 82  1  0
 81 91  1  0
 82 85  1  0
 83 87  1  0
 83 82  1  0
 84 83  2  0
 87 86  1  0
 89 87  1  0
 89 90  1  0
 89 88  1  0
 91 94  1  1
 91 92  1  0
 93 91  1  0
 95 99  1  0
 99 97  1  6
 99 98  1  0
 99 96  1  0
M  ISO  4  13 100  21 100  53 101  54 101
M  END
>  <TORSDO>  (73) 
F 22

>  <SCORE>  (73) 
-10.412

>  <name>  (73) 
72

>  <ligand_id>  (73) 
72

>  <original_smiles>  (73) 
[H]c1c([H])c([H])c2c(c1[H])C([H])([H])C([H])([H])C([H])([H])C2([H])N([H])C(=O)C1([H])N(C(=O)C([H])(N([H])C(=O)C([H])(N([H])C([H])([H])[H])C([H])([H])[H])C(C([H])([H])[H])(C([H])([H])[H])C([H])([H])[H])C([H])([H])c2c([H])c(OC([H])([H])C(=O)C([H])(N([H])C(=O)c3sc(N([H])C(=O)N4C([H])([H])C([H])([H])C([H])([H])C([H])(n5nc(-c6c([H])c([H])c(Oc7c([H])c([H])c(F)c([H])c7F)c([H])c6[H])c(C(=O)N([H])[H])c5N([H])[H])C4([H])[H])c(F)c3F)C([H])([H])C(C([H])([H])[H])(C([H])([H])[H])C([H])([H])[H])c([H])c([H])c2C1([H])[H]

>  <smiles>  (73) 
[H]c1c([H])c([H])c2c(c1[H])C([H])([H])C([H])([H])C([H])([H])C2([H])N([H])C(=O)C1([H])N(C(=O)C([H])(N([H])C(=O)C([H])(N([H])C([H])([H])[H])C([H])([H])[H])C(C([H])([H])[H])(C([H])([H])[H])C([H])([H])[H])C([H])([H])c2c([H])c(OC([H])([H])C(=O)C([H])(N([H])C(=O)c3sc(N([H])C(=O)N4C([H])([H])C([H])([H])C([H])([H])C([H])(n5nc(-c6c([H])c([H])c(Oc7c([H])c([H])c(F)c([H])c7F)c([H])c6[H])c(C(=O)N([H])[H])c5N([H])[H])C4([H])[H])c(F)c3F)C([H])([H])C(C([H])([H])[H])(C([H])([H])[H])C([H])([H])[H])c([H])c([H])c2C1([H])[H]

$$$$
73:0:0
     RDKit          3D

 95103  0  0  1  0  0  0  0  0999 V2000
  -29.4350  -21.6810   19.8580 C   0  0  0  0  0  0  0  0  0  0  0  0
  -28.9470  -20.4580   20.1580 N   0  0  0  0  0  0  0  0  0  0  0  0
  -30.5750  -21.9080   19.4370 O   0  0  0  0  0  0  0  0  0  0  0  0
  -27.9680  -20.4730   20.4200 H   0  0  0  0  0  0  0  0  0  0  0  0
  -30.9020  -18.9460   19.9540 C   0  0  0  0  0  3  0  0  0  0  0  0
  -31.2350  -17.5540   20.0700 C   0  0  0  0  0  0  0  0  0  0  0  0
  -29.5750  -19.2430   20.1340 C   0  0  0  0  0  0  0  0  0  0  0  0
  -30.1230  -16.7440   20.2790 C   0  0  0  0  0  0  0  0  0  0  0  0
  -28.6980  -17.7580   20.4330 S   0  0  0  0  0  0  0  0  0  0  0  0
  -30.5650  -14.4030   19.7040 C   0  0  0  0  0  0  0  0  0  0  0  0
  -30.1260  -12.2550   18.5740 C   0  0  0  0  0  2  0  0  0  0  0  0
  -29.0530  -12.4940   17.4920 C   0  0  0  0  0  2  0  0  0  0  0  0
  -27.6360  -12.3580   18.0840 C   0  0  0  0  0  2  0  0  0  0  0  0
  -27.4580  -13.1670   19.3970 C   0  0  0  0  0  3  0  0  0  0  0  0
  -28.6320  -12.9200   20.3700 C   0  0  0  0  0  2  0  0  0  0  0  0
  -29.8870  -13.2220   19.6590 N   0  0  0  0  0  0  0  0  0  0  0  0
  -31.5910  -14.6000   19.0470 O   0  0  0  0  0  0  0  0  0  0  0  0
  -29.9770  -15.3850   20.4230 N   0  0  0  0  0  0  0  0  0  0  0  0
  -29.1270  -15.0830   20.8750 H   0  0  0  0  0  0  0  0  0  0  0  0
  -25.1650  -13.7740   20.3980 C   0  0  0  0  0  0  0  0  0  0  0  0
  -24.1410  -13.0020   20.8780 C   0  0  0  0  0  0  0  0  0  0  0  0
  -24.5810  -11.6480   20.7600 C   0  0  0  0  0  0  0  0  0  0  0  0
  -26.1680  -12.8900   20.0260 N   0  0  0  0  0  0  0  0  0  0  0  0
  -25.8250  -11.6050   20.3000 N   0  0  0  0  0  0  0  0  0  0  0  0
  -23.8680  -10.3870   21.0100 C   0  0  0  0  0  0  0  0  0  0  0  0
  -24.3470   -9.4410   21.9440 C   0  0  0  0  0  3  0  0  0  0  0  0
  -23.6380   -8.2430   22.1790 C   0  0  0  0  0  3  0  0  0  0  0  0
  -22.4350   -7.9830   21.4820 C   0  0  0  0  0  0  0  0  0  0  0  0
  -21.9730   -8.9170   20.5370 C   0  0  0  0  0  3  0  0  0  0  0  0
  -22.6840  -10.1060   20.3010 C   0  0  0  0  0  3  0  0  0  0  0  0
  -21.6910   -6.8360   21.6290 O   0  0  0  0  0  0  0  0  0  0  0  0
  -21.6400   -6.1570   22.8180 C   0  0  0  0  0  0  0  0  0  0  0  0
  -21.1900   -6.7720   24.0070 C   0  0  0  0  0  3  0  0  0  0  0  0
  -21.0880   -6.0180   25.1940 C   0  0  0  0  0  3  0  0  0  0  0  0
  -21.4240   -4.6510   25.1910 C   0  0  0  0  0  0  0  0  0  0  0  0
  -21.8670   -4.0360   24.0070 C   0  0  0  0  0  3  0  0  0  0  0  0
  -21.9720   -4.7870   22.8240 C   0  0  0  0  0  0  0  0  0  0  0  0
  -22.3790   -4.1860   21.6810 F   0  0  0  0  0  0  0  0  0  0  0  0
  -21.3190   -3.9250   26.3290 F   0  0  0  0  0  0  0  0  0  0  0  0
  -22.7930  -13.4830   21.3290 C   0  0  0  0  0  0  0  0  0  0  0  0
  -22.1700  -12.7820   22.2720 N   0  0  0  0  0  0  0  0  0  0  0  0
  -22.3010  -14.5180   20.8790 O   0  0  0  0  0  0  0  0  0  0  0  0
  -22.5790  -11.9450   22.6590 H   0  0  0  0  0  0  0  0  0  0  0  0
  -21.2710  -13.0900   22.6150 H   0  0  0  0  0  0  0  0  0  0  0  0
  -25.3260  -15.1460   20.2280 N   0  0  0  0  0  0  0  0  0  0  0  0
  -24.5870  -15.8100   20.4300 H   0  0  0  0  0  0  0  0  0  0  0  0
  -26.1330  -15.5780   19.7960 H   0  0  0  0  0  0  0  0  0  0  0  0
  -32.6310  -17.1040   20.0610 C   0  0  0  0  0  0  0  0  0  0  0  0
  -33.6150  -17.9630   19.2670 C   0  0  0  0  0  1  0  0  0  0  0  0
  -33.0630  -16.1060   20.6440 O   0  0  0  0  0  0  0  0  0  0  0  0
  -28.3750  -22.8080   20.0900 C   0  0  0  0  0  0  0  0  0  0  0  0
  -27.2330  -22.5410   20.4920 O   0  0  0  0  0  0  0  0  0  0  0  0
  -28.7710  -24.2680   19.7750 C   0  0  0  0  0  2  0  0  0  0  0  0
  -28.1760  -25.3070   20.7560 C   0  0  0  0  0  2  0  0  0  0  0  0
  -28.3240  -26.6680   20.2980 O   0  0  0  0  0  0  0  0  0  0  0  0
  -24.5090  -31.9120   23.2420 C   0  0  0  0  0  0  0  0  0  0  0  0
  -27.1650  -27.4160   20.2620 C   0  0  0  0  0  0  0  0  0  0  0  0
  -23.3100  -30.4770   21.6230 C   0  0  0  0  0  3  0  0  0  0  0  0
  -24.7700  -28.9210   20.2260 C   0  0  0  0  0  0  0  0  0  0  0  0
  -25.8340  -30.8440   21.4190 C   0  0  0  0  0  2  0  0  0  0  0  0
  -25.9260  -29.4590   20.8080 C   0  0  0  0  0  0  0  0  0  0  0  0
  -27.1280  -28.7140   20.8230 C   0  0  0  0  0  3  0  0  0  0  0  0
  -25.9960  -26.9000   19.6610 C   0  0  0  0  0  3  0  0  0  0  0  0
  -24.8000  -27.6410   19.6480 C   0  0  0  0  0  3  0  0  0  0  0  0
  -23.5240  -29.7780   20.2540 C   0  0  0  0  0  2  0  0  0  0  0  0
  -24.5700  -31.0950   22.1520 N   0  0  0  0  0  0  0  0  0  0  0  0
  -23.4270  -32.1850   23.7780 O   0  0  0  0  0  0  0  0  0  0  0  0
  -22.6620  -29.4670   22.5990 C   0  0  0  0  0  0  0  0  0  0  0  0
  -21.3400  -29.2690   22.4680 N   0  0  0  0  0  0  0  0  0  0  0  0
  -23.3470  -28.8660   23.4310 O   0  0  0  0  0  0  0  0  0  0  0  0
  -20.8480  -29.8060   21.7670 H   0  0  0  0  0  0  0  0  0  0  0  0
  -17.9770  -28.0440   22.9520 C   0  0  0  0  0  0  0  0  0  0  0  0
  -20.5270  -28.3440   23.2550 C   0  0  0  0  0  3  0  0  0  0  0  0
  -20.6570  -26.8980   22.7200 C   0  0  0  0  0  2  0  0  0  0  0  0
  -19.5750  -26.5330   21.6990 C   0  0  0  0  0  2  0  0  0  0  0  0
  -18.1810  -26.6790   22.3180 C   0  0  0  0  0  2  0  0  0  0  0  0
  -19.0790  -28.8320   23.3780 C   0  0  0  0  0  0  0  0  0  0  0  0
  -18.8330  -30.1090   23.9270 C   0  0  0  0  0  3  0  0  0  0  0  0
  -17.5190  -30.5970   24.0600 C   0  0  0  0  0  3  0  0  0  0  0  0
  -16.4320  -29.8050   23.6510 C   0  0  0  0  0  3  0  0  0  0  0  0
  -16.6610  -28.5310   23.1030 C   0  0  0  0  0  3  0  0  0  0  0  0
  -25.7930  -32.5580   23.8490 C   0  0  0  0  0  3  0  0  0  0  0  0
  -25.4760  -33.9550   24.1710 N   0  0  0  0  0  0  0  0  0  0  0  0
  -25.7970  -35.0040   23.4010 C   0  0  0  0  0  0  0  0  0  0  0  0
  -26.4620  -34.8970   22.3660 O   0  0  0  0  0  0  0  0  0  0  0  0
  -24.8860  -34.1100   24.9760 H   0  0  0  0  0  0  0  0  0  0  0  0
  -24.0560  -36.7820   23.0260 C   0  0  0  0  0  1  0  0  0  0  0  0
  -25.2970  -36.3920   23.8450 C   0  0  0  0  0  3  0  0  0  0  0  0
  -27.4260  -37.2940   24.6710 C   0  0  0  0  0  1  0  0  0  0  0  0
  -26.3210  -37.4530   23.7290 N   0  0  0  0  0  0  0  0  0  0  0  0
  -25.9070  -38.3690   23.8790 H   0  0  0  0  0  0  0  0  0  0  0  0
  -26.3280  -31.7980   25.1250 C   0  0  1  0  0  0  0  0  0  0  0  0
  -25.2430  -31.5390   26.1950 C   0  0  0  0  0  1  0  0  0  0  0  0
  -26.9330  -30.4300   24.7310 C   0  0  0  0  0  1  0  0  0  0  0  0
  -27.4670  -32.6100   25.7850 C   0  0  0  0  0  1  0  0  0  0  0  0
  1 51  1  0
  1  2  1  0
  2  4  1  0
  3  1  2  0
  5  6  1  0
  5  7  2  0
  6  8  2  0
  7  2  1  0
  7  9  1  0
  8 18  1  0
  8  9  1  0
 10 18  1  0
 11 16  1  0
 12 13  1  0
 12 11  1  0
 14 13  1  0
 14 23  1  0
 14 15  1  0
 16 10  1  0
 16 15  1  0
 17 10  2  0
 18 19  1  0
 20 21  2  0
 21 40  1  0
 22 21  1  0
 22 25  1  0
 23 24  1  0
 23 20  1  0
 24 22  2  0
 25 26  1  0
 26 27  2  0
 28 31  1  0
 28 27  1  0
 29 28  2  0
 30 29  1  0
 30 25  2  0
 31 32  1  0
 32 37  2  0
 32 33  1  0
 33 34  2  0
 35 34  1  0
 35 39  1  0
 36 35  2  0
 37 36  1  0
 38 37  1  0
 40 41  1  0
 41 44  1  0
 41 43  1  0
 42 40  2  0
 45 20  1  0
 45 46  1  0
 47 45  1  0
 48  6  1  0
 48 50  2  0
 49 48  1  0
 51 52  2  0
 53 51  1  0
 53 54  1  0
 55 54  1  0
 56 67  2  0
 57 55  1  0
 57 62  1  0
 58 66  1  0
 58 68  1  0
 59 65  1  0
 59 61  1  0
 60 66  1  0
 61 62  2  0
 61 60  1  0
 63 57  2  0
 64 63  1  0
 64 59  2  0
 65 58  1  0
 66 56  1  0
 68 70  2  0
 69 68  1  0
 71 69  1  0
 72 81  2  0
 72 77  1  0
 73 69  1  0
 73 77  1  0
 74 73  1  0
 75 76  1  0
 75 74  1  0
 76 72  1  0
 77 78  2  0
 78 79  1  0
 80 79  2  0
 81 80  1  0
 82 56  1  0
 82 83  1  0
 82 92  1  0
 83 86  1  0
 84 88  1  0
 84 83  1  0
 85 84  2  0
 88 87  1  0
 90 88  1  0
 90 91  1  0
 90 89  1  0
 92 95  1  1
 92 93  1  0
 94 92  1  0
M  ISO  4  10 100  18 100  54 101  55 101
M  END
>  <TORSDO>  (74) 
F 21

>  <SCORE>  (74) 
-12.781

>  <name>  (74) 
73

>  <ligand_id>  (74) 
73

>  <original_smiles>  (74) 
[H]c1c([H])c([H])c2c(c1[H])C([H])([H])C([H])([H])C([H])([H])C2([H])N([H])C(=O)C1([H])N(C(=O)C([H])(N([H])C(=O)C([H])(N([H])C([H])([H])[H])C([H])([H])[H])C(C([H])([H])[H])(C([H])([H])[H])C([H])([H])[H])C([H])([H])c2c([H])c(OC([H])([H])C([H])([H])C(=O)C(=O)N([H])c3sc(N([H])C(=O)N4C([H])([H])C([H])([H])C([H])([H])C([H])(n5nc(-c6c([H])c([H])c(Oc7c([H])c([H])c(F)c([H])c7F)c([H])c6[H])c(C(=O)N([H])[H])c5N([H])[H])C4([H])[H])c(C(=O)C([H])([H])[H])c3[H])c([H])c([H])c2C1([H])[H]

>  <smiles>  (74) 
[H]c1c([H])c([H])c2c(c1[H])C([H])([H])C([H])([H])C([H])([H])C2([H])N([H])C(=O)C1([H])N(C(=O)C([H])(N([H])C(=O)C([H])(N([H])C([H])([H])[H])C([H])([H])[H])C(C([H])([H])[H])(C([H])([H])[H])C([H])([H])[H])C([H])([H])c2c([H])c(OC([H])([H])C([H])([H])C(=O)C(=O)N([H])c3sc(N([H])C(=O)N4C([H])([H])C([H])([H])C([H])([H])C([H])(n5nc(-c6c([H])c([H])c(Oc7c([H])c([H])c(F)c([H])c7F)c([H])c6[H])c(C(=O)N([H])[H])c5N([H])[H])C4([H])[H])c(C(=O)C([H])([H])[H])c3[H])c([H])c([H])c2C1([H])[H]

$$$$
74:0:0
     RDKit          3D

 99107  0  0  1  0  0  0  0  0999 V2000
  -30.4020  -21.0860   20.4520 C   0  0  0  0  0  0  0  0  0  0  0  0
  -29.2850  -21.8570   20.4790 N   0  0  0  0  0  0  0  0  0  0  0  0
  -31.4780  -21.6030   20.1480 O   0  0  0  0  0  0  0  0  0  0  0  0
  -28.4030  -21.4450   20.7480 H   0  0  0  0  0  0  0  0  0  0  0  0
  -30.6170  -14.6310   20.4130 C   0  0  0  0  0  0  0  0  0  0  0  0
  -30.3780  -12.4210   19.3200 C   0  0  0  0  0  2  0  0  0  0  0  0
  -29.4360  -12.5770   18.1070 C   0  0  0  0  0  2  0  0  0  0  0  0
  -27.9590  -12.4290   18.5290 C   0  0  0  0  0  2  0  0  0  0  0  0
  -27.6050  -13.2730   19.7840 C   0  0  0  0  0  3  0  0  0  0  0  0
  -28.6650  -13.1010   20.8950 C   0  0  0  0  0  2  0  0  0  0  0  0
  -29.9740  -13.4300   20.3120 N   0  0  0  0  0  0  0  0  0  0  0  0
  -31.7970  -14.7600   20.0700 O   0  0  0  0  0  0  0  0  0  0  0  0
  -30.4270  -19.6170   20.8290 C   0  0  0  0  0  0  0  0  0  0  0  0
  -31.3930  -18.8950   21.5180 C   0  0  0  0  0  0  0  0  0  0  0  0
  -30.1680  -17.1020   20.7860 C   0  0  0  0  0  0  0  0  0  0  0  0
  -31.2280  -17.5040   21.4960 N   0  0  0  0  0  0  0  0  0  0  0  0
  -29.8170  -15.7080   20.6500 N   0  0  0  0  0  0  0  0  0  0  0  0
  -29.2370  -18.4930   20.1550 S   0  0  0  0  0  0  0  0  0  0  0  0
  -28.8300  -15.5080   20.6570 H   0  0  0  0  0  0  0  0  0  0  0  0
  -25.2090  -13.8650   20.5020 C   0  0  0  0  0  0  0  0  0  0  0  0
  -24.1450  -13.0880   20.8700 C   0  0  0  0  0  0  0  0  0  0  0  0
  -24.6120  -11.7390   20.8370 C   0  0  0  0  0  0  0  0  0  0  0  0
  -26.2570  -12.9870   20.2680 N   0  0  0  0  0  0  0  0  0  0  0  0
  -25.9040  -11.7040   20.5310 N   0  0  0  0  0  0  0  0  0  0  0  0
  -23.8900  -10.4730   21.0260 C   0  0  0  0  0  0  0  0  0  0  0  0
  -24.3150   -9.5120   21.9700 C   0  0  0  0  0  3  0  0  0  0  0  0
  -23.5920   -8.3140   22.1430 C   0  0  0  0  0  3  0  0  0  0  0  0
  -22.4310   -8.0670   21.3740 C   0  0  0  0  0  0  0  0  0  0  0  0
  -22.0260   -9.0160   20.4190 C   0  0  0  0  0  3  0  0  0  0  0  0
  -22.7500  -10.2070   20.2430 C   0  0  0  0  0  3  0  0  0  0  0  0
  -21.6780   -6.9190   21.4580 O   0  0  0  0  0  0  0  0  0  0  0  0
  -21.6100   -6.1850   22.6150 C   0  0  0  0  0  0  0  0  0  0  0  0
  -21.1360   -6.7420   23.8230 C   0  0  0  0  0  3  0  0  0  0  0  0
  -21.0160   -5.9340   24.9720 C   0  0  0  0  0  3  0  0  0  0  0  0
  -21.3630   -4.5710   24.9130 C   0  0  0  0  0  0  0  0  0  0  0  0
  -21.8320   -4.0140   23.7100 C   0  0  0  0  0  3  0  0  0  0  0  0
  -21.9530   -4.8190   22.5650 C   0  0  0  0  0  0  0  0  0  0  0  0
  -22.3830   -4.2730   21.4010 F   0  0  0  0  0  0  0  0  0  0  0  0
  -21.2430   -3.7920   26.0130 F   0  0  0  0  0  0  0  0  0  0  0  0
  -22.7460  -13.5610   21.1390 C   0  0  0  0  0  0  0  0  0  0  0  0
  -22.0150  -12.8540   21.9950 N   0  0  0  0  0  0  0  0  0  0  0  0
  -22.3080  -14.5890   20.6260 O   0  0  0  0  0  0  0  0  0  0  0  0
  -22.3820  -12.0200   22.4300 H   0  0  0  0  0  0  0  0  0  0  0  0
  -21.0760  -13.1500   22.2170 H   0  0  0  0  0  0  0  0  0  0  0  0
  -25.3680  -15.2370   20.3250 N   0  0  0  0  0  0  0  0  0  0  0  0
  -24.5910  -15.8800   20.4370 H   0  0  0  0  0  0  0  0  0  0  0  0
  -26.1960  -15.6830   19.9560 H   0  0  0  0  0  0  0  0  0  0  0  0
  -32.5020  -19.4010   22.2030 N   0  0  0  0  0  0  0  0  0  0  0  0
  -32.8040  -20.3530   22.0160 H   0  0  0  0  0  0  0  0  0  0  0  0
  -33.2490  -18.7690   22.4750 H   0  0  0  0  0  0  0  0  0  0  0  0
  -29.2580  -23.2950   20.0320 C   0  0  0  0  0  3  0  0  0  0  0  0
  -29.0460  -23.3830   18.5030 C   0  0  2  0  0  0  0  0  0  0  0  0
  -30.0260  -22.7720   17.8370 F   0  0  0  0  0  0  0  0  0  0  0  0
  -29.0130  -24.6540   18.0990 F   0  0  0  0  0  0  0  0  0  0  0  0
  -27.8880  -22.8130   18.1650 F   0  0  0  0  0  0  0  0  0  0  0  0
  -28.2740  -24.2300   20.8140 C   0  0  0  0  0  0  0  0  0  0  0  0
  -27.1720  -23.8260   21.2040 O   0  0  0  0  0  0  0  0  0  0  0  0
  -28.7060  -25.6920   21.1680 C   0  0  0  0  0  2  0  0  0  0  0  0
  -28.4630  -26.6810   20.1360 O   0  0  0  0  0  0  0  0  0  0  0  0
  -24.6040  -31.9000   23.2370 C   0  0  0  0  0  0  0  0  0  0  0  0
  -27.3030  -27.4300   20.2130 C   0  0  0  0  0  0  0  0  0  0  0  0
  -23.4280  -30.4940   21.5780 C   0  0  0  0  0  3  0  0  0  0  0  0
  -24.9090  -28.9520   20.1810 C   0  0  0  0  0  0  0  0  0  0  0  0
  -25.9550  -30.8560   21.4150 C   0  0  0  0  0  2  0  0  0  0  0  0
  -26.0570  -29.4750   20.7890 C   0  0  0  0  0  0  0  0  0  0  0  0
  -27.2590  -28.7190   20.8060 C   0  0  0  0  0  3  0  0  0  0  0  0
  -26.1390  -26.9330   19.5950 C   0  0  0  0  0  3  0  0  0  0  0  0
  -24.9450  -27.6820   19.5810 C   0  0  0  0  0  3  0  0  0  0  0  0
  -23.6610  -29.8080   20.2040 C   0  0  0  0  0  2  0  0  0  0  0  0
  -24.6800  -31.0990   22.1360 N   0  0  0  0  0  0  0  0  0  0  0  0
  -23.5140  -32.1710   23.7610 O   0  0  0  0  0  0  0  0  0  0  0  0
  -22.7620  -29.4750   22.5310 C   0  0  0  0  0  0  0  0  0  0  0  0
  -21.4400  -29.2900   22.3810 N   0  0  0  0  0  0  0  0  0  0  0  0
  -23.4320  -28.8490   23.3560 O   0  0  0  0  0  0  0  0  0  0  0  0
  -20.9590  -29.8470   21.6890 H   0  0  0  0  0  0  0  0  0  0  0  0
  -18.0560  -28.1000   22.8420 C   0  0  0  0  0  0  0  0  0  0  0  0
  -20.6130  -28.3480   23.1360 C   0  0  0  0  0  3  0  0  0  0  0  0
  -20.7180  -26.9220   22.5500 C   0  0  0  0  0  2  0  0  0  0  0  0
  -19.6230  -26.6090   21.5240 C   0  0  0  0  0  2  0  0  0  0  0  0
  -18.2350  -26.7540   22.1570 C   0  0  0  0  0  2  0  0  0  0  0  0
  -19.1730  -28.8550   23.2880 C   0  0  0  0  0  0  0  0  0  0  0  0
  -18.9550  -30.1150   23.8850 C   0  0  0  0  0  3  0  0  0  0  0  0
  -17.6500  -30.6210   24.0410 C   0  0  0  0  0  3  0  0  0  0  0  0
  -16.5470  -29.8610   23.6130 C   0  0  0  0  0  3  0  0  0  0  0  0
  -16.7520  -28.6030   23.0220 C   0  0  0  0  0  3  0  0  0  0  0  0
  -25.8780  -32.5350   23.8760 C   0  0  0  0  0  3  0  0  0  0  0  0
  -25.5680  -33.9350   24.1920 N   0  0  0  0  0  0  0  0  0  0  0  0
  -25.9160  -34.9810   23.4300 C   0  0  0  0  0  0  0  0  0  0  0  0
  -26.6030  -34.8670   22.4120 O   0  0  0  0  0  0  0  0  0  0  0  0
  -24.9620  -34.0980   24.9820 H   0  0  0  0  0  0  0  0  0  0  0  0
  -24.2060  -36.7760   23.0180 C   0  0  0  0  0  1  0  0  0  0  0  0
  -25.4210  -36.3710   23.8690 C   0  0  0  0  0  3  0  0  0  0  0  0
  -27.5290  -37.2550   24.7610 C   0  0  0  0  0  1  0  0  0  0  0  0
  -26.4580  -37.4200   23.7810 N   0  0  0  0  0  0  0  0  0  0  0  0
  -26.0520  -38.3430   23.9130 H   0  0  0  0  0  0  0  0  0  0  0  0
  -26.3730  -31.7710   25.1660 C   0  0  1  0  0  0  0  0  0  0  0  0
  -25.2600  -31.5380   26.2150 C   0  0  0  0  0  1  0  0  0  0  0  0
  -26.9650  -30.3920   24.7880 C   0  0  0  0  0  1  0  0  0  0  0  0
  -27.5110  -32.5690   25.8440 C   0  0  0  0  0  1  0  0  0  0  0  0
  1  2  1  0
  1 13  1  0
  2  4  1  0
  3  1  2  0
  5 17  1  0
  6 11  1  0
  7  8  1  0
  7  6  1  0
  9  8  1  0
  9 23  1  0
  9 10  1  0
 11  5  1  0
 11 10  1  0
 12  5  2  0
 13 14  2  0
 14 48  1  0
 15 16  2  0
 16 14  1  0
 17 19  1  0
 17 15  1  0
 18 15  1  0
 18 13  1  0
 20 21  2  0
 21 40  1  0
 22 21  1  0
 22 25  1  0
 23 20  1  0
 23 24  1  0
 24 22  2  0
 25 26  1  0
 26 27  2  0
 28 31  1  0
 28 27  1  0
 29 28  2  0
 30 29  1  0
 30 25  2  0
 31 32  1  0
 32 33  1  0
 33 34  2  0
 35 34  1  0
 35 39  1  0
 36 35  2  0
 37 32  2  0
 37 36  1  0
 38 37  1  0
 40 41  1  0
 41 44  1  0
 41 43  1  0
 42 40  2  0
 45 46  1  0
 45 20  1  0
 47 45  1  0
 48 50  1  0
 49 48  1  0
 51  2  1  0
 51 56  1  0
 52 51  1  0
 52 53  1  6
 54 52  1  0
 55 52  1  0
 56 58  1  0
 56 57  2  0
 59 61  1  0
 59 58  1  0
 60 71  2  0
 61 66  1  0
 62 70  1  0
 62 72  1  0
 63 69  1  0
 63 65  1  0
 64 70  1  0
 65 66  2  0
 65 64  1  0
 67 61  2  0
 68 67  1  0
 68 63  2  0
 69 62  1  0
 70 60  1  0
 72 74  2  0
 73 72  1  0
 75 73  1  0
 76 85  2  0
 76 81  1  0
 77 73  1  0
 77 81  1  0
 78 77  1  0
 79 80  1  0
 79 78  1  0
 80 76  1  0
 81 82  2  0
 82 83  1  0
 84 83  2  0
 85 84  1  0
 86 60  1  0
 86 87  1  0
 86 96  1  0
 87 90  1  0
 88 92  1  0
 88 87  1  0
 89 88  2  0
 92 91  1  0
 94 92  1  0
 94 95  1  0
 94 93  1  0
 96 99  1  1
 96 97  1  0
 98 96  1  0
M  ISO  4   5 100  17 100  58 101  59 101
M  END
>  <TORSDO>  (75) 
F 21

>  <SCORE>  (75) 
-14.055

>  <name>  (75) 
74

>  <ligand_id>  (75) 
74

>  <original_smiles>  (75) 
[H]c1c([H])c([H])c2c(c1[H])C([H])([H])C([H])([H])C([H])([H])C2([H])N([H])C(=O)C1([H])N(C(=O)C([H])(N([H])C(=O)C([H])(N([H])C([H])([H])[H])C([H])([H])[H])C(C([H])([H])[H])(C([H])([H])[H])C([H])([H])[H])C([H])([H])c2c([H])c(OC([H])([H])C(=O)C([H])(N([H])C(=O)c3sc(N([H])C(=O)N4C([H])([H])C([H])([H])C([H])([H])C([H])(n5nc(-c6c([H])c([H])c(Oc7c([H])c([H])c(F)c([H])c7F)c([H])c6[H])c(C(=O)N([H])[H])c5N([H])[H])C4([H])[H])nc3N([H])[H])C(F)(F)F)c([H])c([H])c2C1([H])[H]

>  <smiles>  (75) 
[H]c1c([H])c([H])c2c(c1[H])C([H])([H])C([H])([H])C([H])([H])C2([H])N([H])C(=O)C1([H])N(C(=O)C([H])(N([H])C(=O)C([H])(N([H])C([H])([H])[H])C([H])([H])[H])C(C([H])([H])[H])(C([H])([H])[H])C([H])([H])[H])C([H])([H])c2c([H])c(OC([H])([H])C(=O)C([H])(N([H])C(=O)c3sc(N([H])C(=O)N4C([H])([H])C([H])([H])C([H])([H])C([H])(n5nc(-c6c([H])c([H])c(Oc7c([H])c([H])c(F)c([H])c7F)c([H])c6[H])c(C(=O)N([H])[H])c5N([H])[H])C4([H])[H])nc3N([H])[H])C(F)(F)F)c([H])c([H])c2C1([H])[H]

$$$$
75:0:0
     RDKit          3D

 95103  0  0  1  0  0  0  0  0999 V2000
  -29.9780  -18.1340   20.3940 C   0  0  0  0  0  0  0  0  0  0  0  0
  -28.5970  -18.1250   20.3670 C   0  0  0  0  0  0  0  0  0  0  0  0
  -29.5700  -20.4080   20.2520 C   0  0  0  0  0  0  0  0  0  0  0  0
  -29.1190  -22.8700   20.3390 C   0  0  0  0  0  0  0  0  0  0  0  0
  -30.5060  -19.4440   20.3060 N   0  0  0  0  0  0  0  0  0  0  0  0
  -29.9350  -21.7950   20.2150 N   0  0  0  0  0  0  0  0  0  0  0  0
  -27.8970  -22.8010   20.5110 O   0  0  0  0  0  0  0  0  0  0  0  0
  -27.9340  -19.7420   20.2500 S   0  0  0  0  0  0  0  0  0  0  0  0
  -30.9170  -22.0080   20.1080 H   0  0  0  0  0  0  0  0  0  0  0  0
  -27.7240  -17.0430   20.4630 N   0  0  0  0  0  0  0  0  0  0  0  0
  -27.9700  -16.2260   21.0100 H   0  0  0  0  0  0  0  0  0  0  0  0
  -26.7230  -17.2090   20.4900 H   0  0  0  0  0  0  0  0  0  0  0  0
  -29.8420  -24.2660   20.2570 C   0  0  0  0  0  0  0  0  0  0  0  0
  -30.9970  -24.4420   20.6660 O   0  0  0  0  0  0  0  0  0  0  0  0
  -29.0300  -25.3980   19.5840 C   0  0  0  0  0  2  0  0  0  0  0  0
  -29.1350  -26.7240   20.1810 O   0  0  0  0  0  0  0  0  0  0  0  0
  -24.7250  -31.4220   23.3220 C   0  0  0  0  0  0  0  0  0  0  0  0
  -27.9590  -27.4640   20.0960 C   0  0  0  0  0  0  0  0  0  0  0  0
  -23.7890  -30.1260   21.4410 C   0  0  0  0  0  3  0  0  0  0  0  0
  -25.4800  -28.8560   20.0200 C   0  0  0  0  0  0  0  0  0  0  0  0
  -26.2980  -30.6500   21.5460 C   0  0  0  0  0  2  0  0  0  0  0  0
  -26.5430  -29.3640   20.7780 C   0  0  0  0  0  0  0  0  0  0  0  0
  -27.7860  -28.6750   20.8180 C   0  0  0  0  0  3  0  0  0  0  0  0
  -26.8710  -27.0060   19.3100 C   0  0  0  0  0  3  0  0  0  0  0  0
  -25.6410  -27.6760   19.2840 C   0  0  0  0  0  3  0  0  0  0  0  0
  -24.1780  -29.6200   20.0280 C   0  0  0  0  0  2  0  0  0  0  0  0
  -24.9490  -30.7430   22.1620 N   0  0  0  0  0  0  0  0  0  0  0  0
  -23.5800  -31.5690   23.7700 O   0  0  0  0  0  0  0  0  0  0  0  0
  -23.1320  -28.9650   22.2220 C   0  0  0  0  0  0  0  0  0  0  0  0
  -21.8290  -28.7420   21.9800 N   0  0  0  0  0  0  0  0  0  0  0  0
  -23.7910  -28.2750   23.0030 O   0  0  0  0  0  0  0  0  0  0  0  0
  -21.3590  -29.3540   21.3280 H   0  0  0  0  0  0  0  0  0  0  0  0
  -18.4710  -27.4180   22.1890 C   0  0  0  0  0  0  0  0  0  0  0  0
  -21.0130  -27.6840   22.5760 C   0  0  0  0  0  3  0  0  0  0  0  0
  -21.1670  -26.3570   21.7970 C   0  0  0  0  0  2  0  0  0  0  0  0
  -20.1000  -26.1670   20.7140 C   0  0  0  0  0  2  0  0  0  0  0  0
  -18.6970  -26.1880   21.3270 C   0  0  0  0  0  2  0  0  0  0  0  0
  -19.5590  -28.1300   22.7620 C   0  0  0  0  0  0  0  0  0  0  0  0
  -19.2930  -29.2870   23.5270 C   0  0  0  0  0  3  0  0  0  0  0  0
  -17.9730  -29.7310   23.7250 C   0  0  0  0  0  3  0  0  0  0  0  0
  -16.8990  -29.0160   23.1670 C   0  0  0  0  0  3  0  0  0  0  0  0
  -17.1480  -27.8610   22.4060 C   0  0  0  0  0  3  0  0  0  0  0  0
  -25.8950  -32.0680   24.1250 C   0  0  0  0  0  3  0  0  0  0  0  0
  -26.1720  -31.3530   25.5060 C   0  0  1  0  0  0  0  0  0  0  0  0
  -24.9100  -31.1920   26.3850 C   0  0  0  0  0  1  0  0  0  0  0  0
  -26.7730  -29.9440   25.2840 C   0  0  0  0  0  1  0  0  0  0  0  0
  -27.2190  -32.1580   26.3120 C   0  0  0  0  0  1  0  0  0  0  0  0
  -25.5590  -33.4840   24.3330 N   0  0  0  0  0  0  0  0  0  0  0  0
  -26.0130  -34.4930   23.5770 C   0  0  0  0  0  0  0  0  0  0  0  0
  -26.8280  -34.3320   22.6640 O   0  0  0  0  0  0  0  0  0  0  0  0
  -24.8510  -33.6850   25.0240 H   0  0  0  0  0  0  0  0  0  0  0  0
  -24.3820  -36.2700   22.8630 C   0  0  0  0  0  1  0  0  0  0  0  0
  -25.4730  -35.9030   23.8810 C   0  0  0  0  0  3  0  0  0  0  0  0
  -27.4700  -36.8060   24.9880 C   0  0  0  0  0  1  0  0  0  0  0  0
  -26.5150  -36.9530   23.8920 N   0  0  0  0  0  0  0  0  0  0  0  0
  -26.0900  -37.8730   23.9710 H   0  0  0  0  0  0  0  0  0  0  0  0
  -30.9410  -16.9620   20.5610 C   0  0  0  0  0  2  0  0  0  0  0  0
  -31.0280  -14.5110   20.1240 C   0  0  0  0  0  0  0  0  0  0  0  0
  -30.6630  -12.2940   19.1000 C   0  0  0  0  0  2  0  0  0  0  0  0
  -29.6870  -12.4610   17.9160 C   0  0  0  0  0  2  0  0  0  0  0  0
  -28.2290  -12.3550   18.4030 C   0  0  0  0  0  2  0  0  0  0  0  0
  -27.9420  -13.2450   19.6430 C   0  0  0  0  0  3  0  0  0  0  0  0
  -29.0350  -13.0760   20.7220 C   0  0  0  0  0  2  0  0  0  0  0  0
  -30.3340  -13.3390   20.0850 N   0  0  0  0  0  0  0  0  0  0  0  0
  -32.1510  -14.6270   19.6300 O   0  0  0  0  0  0  0  0  0  0  0  0
  -30.3740  -15.5960   20.5860 N   0  0  0  0  0  0  0  0  0  0  0  0
  -29.4320  -15.4900   20.9330 H   0  0  0  0  0  0  0  0  0  0  0  0
  -25.6060  -13.9110   20.4920 C   0  0  0  0  0  0  0  0  0  0  0  0
  -24.5280  -13.1660   20.8860 C   0  0  0  0  0  0  0  0  0  0  0  0
  -24.9360  -11.7990   20.7850 C   0  0  0  0  0  0  0  0  0  0  0  0
  -26.6060  -13.0010   20.1820 N   0  0  0  0  0  0  0  0  0  0  0  0
  -26.2080  -11.7230   20.4130 N   0  0  0  0  0  0  0  0  0  0  0  0
  -24.1700  -10.5590   20.9680 C   0  0  0  0  0  0  0  0  0  0  0  0
  -24.5780   -9.5720   21.8920 C   0  0  0  0  0  3  0  0  0  0  0  0
  -23.8140   -8.3970   22.0630 C   0  0  0  0  0  3  0  0  0  0  0  0
  -22.6310   -8.2020   21.3120 C   0  0  0  0  0  0  0  0  0  0  0  0
  -22.2440   -9.1780   20.3770 C   0  0  0  0  0  3  0  0  0  0  0  0
  -23.0060  -10.3450   20.2020 C   0  0  0  0  0  3  0  0  0  0  0  0
  -21.8420   -7.0810   21.3920 O   0  0  0  0  0  0  0  0  0  0  0  0
  -21.6940   -6.3880   22.5670 C   0  0  0  0  0  0  0  0  0  0  0  0
  -21.1620   -6.9930   23.7280 C   0  0  0  0  0  3  0  0  0  0  0  0
  -20.9640   -6.2260   24.8930 C   0  0  0  0  0  3  0  0  0  0  0  0
  -21.2840   -4.8550   24.8980 C   0  0  0  0  0  0  0  0  0  0  0  0
  -21.8050   -4.2500   23.7410 C   0  0  0  0  0  3  0  0  0  0  0  0
  -22.0070   -5.0140   22.5790 C   0  0  0  0  0  0  0  0  0  0  0  0
  -22.4920   -4.4220   21.4600 F   0  0  0  0  0  0  0  0  0  0  0  0
  -21.0880   -4.1160   26.0160 F   0  0  0  0  0  0  0  0  0  0  0  0
  -23.1660  -13.6860   21.2490 C   0  0  0  0  0  0  0  0  0  0  0  0
  -22.4700  -13.0020   22.1490 N   0  0  0  0  0  0  0  0  0  0  0  0
  -22.7310  -14.7320   20.7700 O   0  0  0  0  0  0  0  0  0  0  0  0
  -22.8350  -12.1540   22.5580 H   0  0  0  0  0  0  0  0  0  0  0  0
  -21.5580  -13.3280   22.4310 H   0  0  0  0  0  0  0  0  0  0  0  0
  -25.8170  -15.2800   20.3610 N   0  0  0  0  0  0  0  0  0  0  0  0
  -25.1000  -15.9580   20.5880 H   0  0  0  0  0  0  0  0  0  0  0  0
  -26.7210  -15.7040   20.1910 H   0  0  0  0  0  0  0  0  0  0  0  0
  1 57  1  0
  2  1  2  0
  2 10  1  0
  3  5  2  0
  4  7  2  0
  5  1  1  0
  6  3  1  0
  6  4  1  0
  8  3  1  0
  8  2  1  0
  9  6  1  0
 10 12  1  0
 10 11  1  0
 13  4  1  0
 13 14  2  0
 15 16  1  0
 15 13  1  0
 17 28  2  0
 18 16  1  0
 18 23  1  0
 19 27  1  0
 19 29  1  0
 20 26  1  0
 20 22  1  0
 21 27  1  0
 22 23  2  0
 22 21  1  0
 24 18  2  0
 25 24  1  0
 25 20  2  0
 26 19  1  0
 27 17  1  0
 29 31  2  0
 30 29  1  0
 32 30  1  0
 33 42  2  0
 33 38  1  0
 34 30  1  0
 34 38  1  0
 35 34  1  0
 36 37  1  0
 36 35  1  0
 37 33  1  0
 38 39  2  0
 39 40  1  0
 41 40  2  0
 42 41  1  0
 43 17  1  0
 43 48  1  0
 43 44  1  0
 44 47  1  1
 44 45  1  0
 46 44  1  0
 48 51  1  0
 49 53  1  0
 49 48  1  0
 50 49  2  0
 53 52  1  0
 53 55  1  0
 55 56  1  0
 55 54  1  0
 57 66  1  0
 58 66  1  0
 59 64  1  0
 60 61  1  0
 60 59  1  0
 62 61  1  0
 62 71  1  0
 62 63  1  0
 64 58  1  0
 64 63  1  0
 65 58  2  0
 66 67  1  0
 68 69  2  0
 69 88  1  0
 70 69  1  0
 70 73  1  0
 71 72  1  0
 71 68  1  0
 72 70  2  0
 73 74  1  0
 74 75  2  0
 76 79  1  0
 76 75  1  0
 77 76  2  0
 78 77  1  0
 78 73  2  0
 79 80  1  0
 80 85  2  0
 80 81  1  0
 81 82  2  0
 82 83  1  0
 83 87  1  0
 84 83  2  0
 85 84  1  0
 86 85  1  0
 88 89  1  0
 89 92  1  0
 89 91  1  0
 90 88  2  0
 93 68  1  0
 93 94  1  0
 95 93  1  0
M  ISO  4  15 101  16 101  58 100  66 100
M  END
>  <TORSDO>  (76) 
F 20

>  <SCORE>  (76) 
-12.769

>  <name>  (76) 
75

>  <ligand_id>  (76) 
75

>  <original_smiles>  (76) 
[H]c1c([H])c([H])c2c(c1[H])C([H])([H])C([H])([H])C([H])([H])C2([H])N([H])C(=O)C1([H])N(C(=O)C([H])(N([H])C(=O)C([H])(N([H])C([H])([H])[H])C([H])([H])[H])C(C([H])([H])[H])(C([H])([H])[H])C([H])([H])[H])C([H])([H])c2c([H])c(OC([H])([H])C(=O)C(=O)N([H])c3nc(C([H])([H])N([H])C(=O)N4C([H])([H])C([H])([H])C([H])([H])C([H])(n5nc(-c6c([H])c([H])c(Oc7c([H])c([H])c(F)c([H])c7F)c([H])c6[H])c(C(=O)N([H])[H])c5N([H])[H])C4([H])[H])c(N([H])[H])s3)c([H])c([H])c2C1([H])[H]

>  <smiles>  (76) 
[H]c1c([H])c([H])c2c(c1[H])C([H])([H])C([H])([H])C([H])([H])C2([H])N([H])C(=O)C1([H])N(C(=O)C([H])(N([H])C(=O)C([H])(N([H])C([H])([H])[H])C([H])([H])[H])C(C([H])([H])[H])(C([H])([H])[H])C([H])([H])[H])C([H])([H])c2c([H])c(OC([H])([H])C(=O)C(=O)N([H])c3nc(C([H])([H])N([H])C(=O)N4C([H])([H])C([H])([H])C([H])([H])C([H])(n5nc(-c6c([H])c([H])c(Oc7c([H])c([H])c(F)c([H])c7F)c([H])c6[H])c(C(=O)N([H])[H])c5N([H])[H])C4([H])[H])c(N([H])[H])s3)c([H])c([H])c2C1([H])[H]

$$$$
76:0:0
     RDKit          3D

 98106  0  0  1  0  0  0  0  0999 V2000
  -28.6240  -21.1370   19.5350 C   0  0  0  0  0  2  0  0  0  0  0  0
  -28.1830  -22.3420   19.3820 N   0  0  0  0  0  2  0  0  0  0  0  0
  -28.8750  -23.4980   19.7580 C   0  0  0  0  0  0  0  0  0  0  0  0
  -29.4980  -23.6460   20.8090 O   0  0  0  0  0  0  0  0  0  0  0  0
  -28.6100  -25.8700   18.8980 C   0  0  0  0  0  3  0  0  0  0  0  0
  -28.7800  -24.5310   18.7120 C   0  0  0  0  0  0  0  0  0  0  0  0
  -28.8510  -24.0810   17.4490 O   0  0  0  0  0  0  0  0  0  0  0  0
  -28.8640  -23.1330   17.5180 H   0  0  0  0  0  0  0  0  0  0  0  0
  -28.4040  -26.5780   20.0690 O   0  0  0  0  0  0  0  0  0  0  0  0
  -24.6420  -31.8570   23.2210 C   0  0  0  0  0  0  0  0  0  0  0  0
  -27.2650  -27.3740   20.1070 C   0  0  0  0  0  0  0  0  0  0  0  0
  -23.4280  -30.4550   21.5920 C   0  0  0  0  0  3  0  0  0  0  0  0
  -24.8720  -28.9120   20.1580 C   0  0  0  0  0  0  0  0  0  0  0  0
  -25.9590  -30.7890   21.3880 C   0  0  0  0  0  2  0  0  0  0  0  0
  -26.0390  -29.4140   20.7490 C   0  0  0  0  0  0  0  0  0  0  0  0
  -27.2370  -28.6520   20.7290 C   0  0  0  0  0  3  0  0  0  0  0  0
  -26.0680  -26.8950   19.5230 C   0  0  0  0  0  3  0  0  0  0  0  0
  -24.8850  -27.6540   19.5360 C   0  0  0  0  0  3  0  0  0  0  0  0
  -23.6300  -29.7750   20.2110 C   0  0  0  0  0  2  0  0  0  0  0  0
  -24.6960  -31.0470   22.1270 N   0  0  0  0  0  0  0  0  0  0  0  0
  -23.5640  -32.1400   23.7600 O   0  0  0  0  0  0  0  0  0  0  0  0
  -22.7770  -29.4330   22.5530 C   0  0  0  0  0  0  0  0  0  0  0  0
  -21.4550  -29.2410   22.4200 N   0  0  0  0  0  0  0  0  0  0  0  0
  -23.4610  -28.8150   23.3710 O   0  0  0  0  0  0  0  0  0  0  0  0
  -20.9680  -29.7610   21.7030 H   0  0  0  0  0  0  0  0  0  0  0  0
  -18.0770  -28.0810   22.9570 C   0  0  0  0  0  0  0  0  0  0  0  0
  -20.6360  -28.3230   23.2130 C   0  0  0  0  0  3  0  0  0  0  0  0
  -20.7230  -26.8800   22.6680 C   0  0  0  0  0  2  0  0  0  0  0  0
  -19.6260  -26.5560   21.6500 C   0  0  0  0  0  2  0  0  0  0  0  0
  -18.2410  -26.7250   22.2850 C   0  0  0  0  0  2  0  0  0  0  0  0
  -19.2020  -28.8400   23.3750 C   0  0  0  0  0  0  0  0  0  0  0  0
  -19.0010  -30.1100   23.9540 C   0  0  0  0  0  3  0  0  0  0  0  0
  -17.6990  -30.6150   24.1320 C   0  0  0  0  0  3  0  0  0  0  0  0
  -16.5870  -29.8510   23.7380 C   0  0  0  0  0  3  0  0  0  0  0  0
  -16.7760  -28.5860   23.1550 C   0  0  0  0  0  3  0  0  0  0  0  0
  -25.9320  -32.4870   23.8340 C   0  0  0  0  0  3  0  0  0  0  0  0
  -25.6200  -33.8800   24.1810 N   0  0  0  0  0  0  0  0  0  0  0  0
  -25.9300  -34.9420   23.4260 C   0  0  0  0  0  0  0  0  0  0  0  0
  -26.5870  -34.8540   22.3840 O   0  0  0  0  0  0  0  0  0  0  0  0
  -25.0360  -34.0230   24.9910 H   0  0  0  0  0  0  0  0  0  0  0  0
  -24.1810  -36.7190   23.1250 C   0  0  0  0  0  1  0  0  0  0  0  0
  -25.4420  -36.3220   23.9070 C   0  0  0  0  0  3  0  0  0  0  0  0
  -27.5890  -37.2180   24.6960 C   0  0  0  0  0  1  0  0  0  0  0  0
  -26.4630  -37.3860   23.7790 N   0  0  0  0  0  0  0  0  0  0  0  0
  -26.0540  -38.3030   23.9380 H   0  0  0  0  0  0  0  0  0  0  0  0
  -26.4670  -31.7010   25.0930 C   0  0  1  0  0  0  0  0  0  0  0  0
  -25.3880  -31.4440   26.1700 C   0  0  0  0  0  1  0  0  0  0  0  0
  -27.0530  -30.3310   24.6750 C   0  0  0  0  0  1  0  0  0  0  0  0
  -27.6240  -32.4910   25.7490 C   0  0  0  0  0  1  0  0  0  0  0  0
  -30.0440  -20.5640   19.7200 C   0  0  0  0  0  2  0  0  0  0  0  0
  -30.6970  -14.5010   20.0800 C   0  0  0  0  0  0  0  0  0  0  0  0
  -30.3720  -12.3500   18.9000 C   0  0  0  0  0  2  0  0  0  0  0  0
  -29.3450  -12.5910   17.7720 C   0  0  0  0  0  2  0  0  0  0  0  0
  -27.8980  -12.4450   18.2920 C   0  0  0  0  0  2  0  0  0  0  0  0
  -27.6510  -13.2330   19.6050 C   0  0  0  0  0  3  0  0  0  0  0  0
  -28.7820  -12.9680   20.6270 C   0  0  0  0  0  2  0  0  0  0  0  0
  -30.0550  -13.3020   19.9730 N   0  0  0  0  0  0  0  0  0  0  0  0
  -31.8480  -14.6810   19.6720 O   0  0  0  0  0  0  0  0  0  0  0  0
  -30.0110  -17.9630   20.0330 C   0  0  0  0  0  3  0  0  0  0  0  0
  -30.1270  -19.2780   20.5720 C   0  0  0  0  0  0  0  0  0  0  0  0
  -30.3660  -19.3860   21.9540 C   0  0  0  0  0  0  0  0  0  0  0  0
  -30.1450  -16.8210   20.8750 C   0  0  0  0  0  0  0  0  0  0  0  0
  -30.4720  -18.2070   22.7170 C   0  0  0  0  0  0  0  0  0  0  0  0
  -30.3590  -16.9680   22.2070 N   0  0  0  0  0  0  0  0  0  0  0  0
  -29.8600  -15.5300   20.3500 N   0  0  0  0  0  0  0  0  0  0  0  0
  -30.4940  -20.5990   22.5470 F   0  0  0  0  0  0  0  0  0  0  0  0
  -28.8980  -15.2570   20.4230 H   0  0  0  0  0  0  0  0  0  0  0  0
  -25.3080  -13.8390   20.4770 C   0  0  0  0  0  0  0  0  0  0  0  0
  -24.2620  -13.0630   20.9010 C   0  0  0  0  0  0  0  0  0  0  0  0
  -24.7140  -11.7110   20.8150 C   0  0  0  0  0  0  0  0  0  0  0  0
  -26.3320  -12.9550   20.1650 N   0  0  0  0  0  0  0  0  0  0  0  0
  -25.9810  -11.6700   20.4260 N   0  0  0  0  0  0  0  0  0  0  0  0
  -23.9950  -10.4480   21.0240 C   0  0  0  0  0  0  0  0  0  0  0  0
  -24.4540   -9.4820   21.9460 C   0  0  0  0  0  3  0  0  0  0  0  0
  -23.7380   -8.2820   22.1440 C   0  0  0  0  0  3  0  0  0  0  0  0
  -22.5460   -8.0410   21.4200 C   0  0  0  0  0  0  0  0  0  0  0  0
  -22.1020   -8.9960   20.4870 C   0  0  0  0  0  3  0  0  0  0  0  0
  -22.8210  -10.1890   20.2890 C   0  0  0  0  0  3  0  0  0  0  0  0
  -21.7980   -6.8940   21.5270 O   0  0  0  0  0  0  0  0  0  0  0  0
  -21.7460   -6.1770   22.6930 C   0  0  0  0  0  0  0  0  0  0  0  0
  -21.3240   -6.7590   23.9090 C   0  0  0  0  0  3  0  0  0  0  0  0
  -21.2210   -5.9680   25.0710 C   0  0  0  0  0  3  0  0  0  0  0  0
  -21.5260   -4.5940   25.0170 C   0  0  0  0  0  0  0  0  0  0  0  0
  -21.9420   -4.0120   23.8070 C   0  0  0  0  0  3  0  0  0  0  0  0
  -22.0490   -4.8010   22.6480 C   0  0  0  0  0  0  0  0  0  0  0  0
  -22.4290   -4.2290   21.4810 F   0  0  0  0  0  0  0  0  0  0  0  0
  -21.4170   -3.8330   26.1320 F   0  0  0  0  0  0  0  0  0  0  0  0
  -22.8860  -13.5390   21.2680 C   0  0  0  0  0  0  0  0  0  0  0  0
  -22.2140  -12.8410   22.1780 N   0  0  0  0  0  0  0  0  0  0  0  0
  -22.4130  -14.5650   20.7800 O   0  0  0  0  0  0  0  0  0  0  0  0
  -22.6080  -12.0130   22.5980 H   0  0  0  0  0  0  0  0  0  0  0  0
  -21.2950  -13.1450   22.4670 H   0  0  0  0  0  0  0  0  0  0  0  0
  -25.4620  -15.2120   20.3110 N   0  0  0  0  0  0  0  0  0  0  0  0
  -24.6930  -15.8570   20.4650 H   0  0  0  0  0  0  0  0  0  0  0  0
  -26.2590  -15.6550   19.8710 H   0  0  0  0  0  0  0  0  0  0  0  0
  -30.6930  -18.2870   24.0840 N   0  0  0  0  0  0  0  0  0  0  0  0
  -30.6600  -17.4730   24.6870 H   0  0  0  0  0  0  0  0  0  0  0  0
  -30.6820  -19.1900   24.5410 H   0  0  0  0  0  0  0  0  0  0  0  0
  1 50  1  0
  2  1  1  0
  2  3  1  0
  3  4  2  0
  5  9  1  0
  6  5  2  0
  6  3  1  0
  7  8  1  0
  7  6  1  0
  9 11  1  0
 10 21  2  0
 11 16  1  0
 12 20  1  0
 12 22  1  0
 13 19  1  0
 13 15  1  0
 14 20  1  0
 15 14  1  0
 16 15  2  0
 17 18  1  0
 17 11  2  0
 18 13  2  0
 19 12  1  0
 20 10  1  0
 22 24  2  0
 23 22  1  0
 25 23  1  0
 26 35  2  0
 26 31  1  0
 27 23  1  0
 27 31  1  0
 28 27  1  0
 29 30  1  0
 29 28  1  0
 30 26  1  0
 31 32  2  0
 32 33  1  0
 34 33  2  0
 35 34  1  0
 36 10  1  0
 36 37  1  0
 36 46  1  0
 37 40  1  0
 38 42  1  0
 38 37  1  0
 39 38  2  0
 42 41  1  0
 44 42  1  0
 44 45  1  0
 44 43  1  0
 46 49  1  1
 46 47  1  0
 48 46  1  0
 50 60  1  0
 51 65  1  0
 52 57  1  0
 53 54  1  0
 53 52  1  0
 55 54  1  0
 55 71  1  0
 55 56  1  0
 57 51  1  0
 57 56  1  0
 58 51  2  0
 59 60  2  0
 59 62  1  0
 60 61  1  0
 61 66  1  0
 61 63  2  0
 62 64  2  0
 63 96  1  0
 64 63  1  0
 65 67  1  0
 65 62  1  0
 68 69  2  0
 69 88  1  0
 70 69  1  0
 70 73  1  0
 71 72  1  0
 71 68  1  0
 72 70  2  0
 73 74  1  0
 74 75  2  0
 76 79  1  0
 76 75  1  0
 77 76  2  0
 78 77  1  0
 78 73  2  0
 79 80  1  0
 80 81  1  0
 81 82  2  0
 83 82  1  0
 83 87  1  0
 84 83  2  0
 85 80  2  0
 85 84  1  0
 86 85  1  0
 88 89  1  0
 89 92  1  0
 89 91  1  0
 90 88  2  0
 93 94  1  0
 93 68  1  0
 95 93  1  0
 96 98  1  0
 96 97  1  0
M  ISO  4   5 101   9 101  51 100  65 100
M  END
>  <TORSDO>  (77) 
F 21

>  <SCORE>  (77) 
-13.535

>  <name>  (77) 
76

>  <ligand_id>  (77) 
76

>  <original_smiles>  (77) 
[H]OC(C(=O)N=C([H])C([H])([H])c1c([H])c(N([H])C(=O)N2C([H])([H])C([H])([H])C([H])([H])C([H])(n3nc(-c4c([H])c([H])c(Oc5c([H])c([H])c(F)c([H])c5F)c([H])c4[H])c(C(=O)N([H])[H])c3N([H])[H])C2([H])[H])nc(N([H])[H])c1F)=C([H])Oc1c([H])c([H])c2c(c1[H])C([H])([H])N(C(=O)C([H])(N([H])C(=O)C([H])(N([H])C([H])([H])[H])C([H])([H])[H])C(C([H])([H])[H])(C([H])([H])[H])C([H])([H])[H])C([H])(C(=O)N([H])C1([H])c3c([H])c([H])c([H])c([H])c3C([H])([H])C([H])([H])C1([H])[H])C2([H])[H]

>  <smiles>  (77) 
[H]OC(C(=O)N=C([H])C([H])([H])c1c([H])c(N([H])C(=O)N2C([H])([H])C([H])([H])C([H])([H])C([H])(n3nc(-c4c([H])c([H])c(Oc5c([H])c([H])c(F)c([H])c5F)c([H])c4[H])c(C(=O)N([H])[H])c3N([H])[H])C2([H])[H])nc(N([H])[H])c1F)=C([H])Oc1c([H])c([H])c2c(c1[H])C([H])([H])N(C(=O)C([H])(N([H])C(=O)C([H])(N([H])C([H])([H])[H])C([H])([H])[H])C(C([H])([H])[H])(C([H])([H])[H])C([H])([H])[H])C([H])(C(=O)N([H])C1([H])c3c([H])c([H])c([H])c([H])c3C([H])([H])C([H])([H])C1([H])[H])C2([H])[H]

$$$$
77:0:0
     RDKit          3D

 97105  0  0  1  0  0  0  0  0999 V2000
  -29.2750  -21.3760   21.4820 C   0  0  0  0  0  0  0  0  0  0  0  0
  -30.4290  -20.6890   21.5410 N   0  0  0  0  0  0  0  0  0  0  0  0
  -28.1770  -20.9280   21.1340 O   0  0  0  0  0  0  0  0  0  0  0  0
  -31.2330  -21.2410   21.8050 H   0  0  0  0  0  0  0  0  0  0  0  0
  -31.7930  -17.4860   20.4490 C   0  0  0  0  0  3  0  0  0  0  0  0
  -31.8480  -18.8940   20.7000 C   0  0  0  0  0  0  0  0  0  0  0  0
  -30.6080  -16.8830   20.7960 C   0  0  0  0  0  0  0  0  0  0  0  0
  -30.6700  -19.3870   21.2190 C   0  0  0  0  0  0  0  0  0  0  0  0
  -29.5230  -18.0750   21.4600 S   0  0  0  0  0  0  0  0  0  0  0  0
  -30.8610  -14.5960   20.0140 C   0  0  0  0  0  0  0  0  0  0  0  0
  -30.5250  -12.4010   18.9370 C   0  0  0  0  0  2  0  0  0  0  0  0
  -29.5200  -12.5430   17.7770 C   0  0  0  0  0  2  0  0  0  0  0  0
  -28.0730  -12.3970   18.2870 C   0  0  0  0  0  2  0  0  0  0  0  0
  -27.7830  -13.2820   19.5270 C   0  0  0  0  0  3  0  0  0  0  0  0
  -28.8930  -13.1190   20.5900 C   0  0  0  0  0  2  0  0  0  0  0  0
  -30.1860  -13.4160   19.9480 N   0  0  0  0  0  0  0  0  0  0  0  0
  -31.9230  -14.7870   19.4150 O   0  0  0  0  0  0  0  0  0  0  0  0
  -30.2380  -15.5760   20.6960 N   0  0  0  0  0  0  0  0  0  0  0  0
  -29.3310  -15.3340   21.0660 H   0  0  0  0  0  0  0  0  0  0  0  0
  -25.4300  -13.8850   20.3850 C   0  0  0  0  0  0  0  0  0  0  0  0
  -24.3840  -13.1100   20.8070 C   0  0  0  0  0  0  0  0  0  0  0  0
  -24.8400  -11.7580   20.7290 C   0  0  0  0  0  0  0  0  0  0  0  0
  -26.4590  -13.0060   20.0820 N   0  0  0  0  0  0  0  0  0  0  0  0
  -26.1090  -11.7200   20.3450 N   0  0  0  0  0  0  0  0  0  0  0  0
  -24.1240  -10.4940   20.9460 C   0  0  0  0  0  0  0  0  0  0  0  0
  -24.5490   -9.5610   21.9180 C   0  0  0  0  0  3  0  0  0  0  0  0
  -23.8340   -8.3610   22.1200 C   0  0  0  0  0  3  0  0  0  0  0  0
  -22.6780   -8.0860   21.3480 C   0  0  0  0  0  0  0  0  0  0  0  0
  -22.2730   -9.0070   20.3660 C   0  0  0  0  0  3  0  0  0  0  0  0
  -22.9900  -10.1980   20.1640 C   0  0  0  0  0  3  0  0  0  0  0  0
  -21.9340   -6.9350   21.4580 O   0  0  0  0  0  0  0  0  0  0  0  0
  -21.7810   -6.2890   22.6580 C   0  0  0  0  0  0  0  0  0  0  0  0
  -21.2250   -6.9310   23.7850 C   0  0  0  0  0  3  0  0  0  0  0  0
  -21.0210   -6.2090   24.9770 C   0  0  0  0  0  3  0  0  0  0  0  0
  -21.3640   -4.8460   25.0430 C   0  0  0  0  0  0  0  0  0  0  0  0
  -21.9140   -4.2030   23.9200 C   0  0  0  0  0  3  0  0  0  0  0  0
  -22.1190   -4.9220   22.7300 C   0  0  0  0  0  0  0  0  0  0  0  0
  -22.6290   -4.2920   21.6440 F   0  0  0  0  0  0  0  0  0  0  0  0
  -21.1620   -4.1490   26.1860 F   0  0  0  0  0  0  0  0  0  0  0  0
  -23.0070  -13.5850   21.1740 C   0  0  0  0  0  0  0  0  0  0  0  0
  -22.3370  -12.8800   22.0790 N   0  0  0  0  0  0  0  0  0  0  0  0
  -22.5370  -14.6150   20.6930 O   0  0  0  0  0  0  0  0  0  0  0  0
  -22.7320  -12.0460   22.4880 H   0  0  0  0  0  0  0  0  0  0  0  0
  -21.4170  -13.1810   22.3690 H   0  0  0  0  0  0  0  0  0  0  0  0
  -25.5880  -15.2580   20.2150 N   0  0  0  0  0  0  0  0  0  0  0  0
  -24.8340  -15.9170   20.3740 H   0  0  0  0  0  0  0  0  0  0  0  0
  -26.4210  -15.6970   19.8400 H   0  0  0  0  0  0  0  0  0  0  0  0
  -33.0840  -20.1270   18.8990 C   0  0  0  0  0  1  0  0  0  0  0  0
  -34.3790  -19.0470   20.7860 C   0  0  0  0  0  1  0  0  0  0  0  0
  -33.0640  -19.7350   20.3830 C   0  0  0  0  0  3  0  0  0  0  0  0
  -29.4610  -22.8460   21.9200 C   0  0  0  0  0  0  0  0  0  0  0  0
  -29.1260  -23.2440   23.0420 O   0  0  0  0  0  0  0  0  0  0  0  0
  -30.1260  -23.7810   20.9100 C   0  0  0  0  0  2  0  0  0  0  0  0
  -29.0730  -24.5930   20.1560 C   0  0  0  0  0  0  0  0  0  0  0  0
  -28.7600  -24.3020   18.9960 O   0  0  0  0  0  0  0  0  0  0  0  0
  -28.4520  -25.8010   20.8700 C   0  0  0  0  0  2  0  0  0  0  0  0
  -28.3830  -26.9120   19.9740 O   0  0  0  0  0  0  0  0  0  0  0  0
  -24.5770  -31.9680   23.2180 C   0  0  0  0  0  0  0  0  0  0  0  0
  -27.2080  -27.6130   20.0380 C   0  0  0  0  0  0  0  0  0  0  0  0
  -23.3540  -30.5830   21.5700 C   0  0  0  0  0  3  0  0  0  0  0  0
  -24.7980  -29.0730   20.1070 C   0  0  0  0  0  0  0  0  0  0  0  0
  -25.8700  -30.9700   21.3390 C   0  0  0  0  0  2  0  0  0  0  0  0
  -25.9570  -29.6070   20.6850 C   0  0  0  0  0  0  0  0  0  0  0  0
  -27.1680  -28.8840   20.6470 C   0  0  0  0  0  3  0  0  0  0  0  0
  -26.0360  -27.0790   19.4640 C   0  0  0  0  0  3  0  0  0  0  0  0
  -24.8300  -27.8050   19.4970 C   0  0  0  0  0  3  0  0  0  0  0  0
  -23.5470  -29.9200   20.1780 C   0  0  0  0  0  2  0  0  0  0  0  0
  -24.6200  -31.1870   22.1010 N   0  0  0  0  0  0  0  0  0  0  0  0
  -23.5030  -32.2240   23.7790 O   0  0  0  0  0  0  0  0  0  0  0  0
  -22.7250  -29.5440   22.5250 C   0  0  0  0  0  0  0  0  0  0  0  0
  -21.4050  -29.3330   22.3900 N   0  0  0  0  0  0  0  0  0  0  0  0
  -23.4190  -28.9310   23.3400 O   0  0  0  0  0  0  0  0  0  0  0  0
  -20.9080  -29.8810   21.7010 H   0  0  0  0  0  0  0  0  0  0  0  0
  -18.0660  -28.0230   22.8160 C   0  0  0  0  0  0  0  0  0  0  0  0
  -20.6040  -28.3750   23.1500 C   0  0  0  0  0  3  0  0  0  0  0  0
  -20.7740  -26.9420   22.5950 C   0  0  0  0  0  2  0  0  0  0  0  0
  -19.7100  -26.5670   21.5570 C   0  0  0  0  0  2  0  0  0  0  0  0
  -18.3080  -26.6710   22.1630 C   0  0  0  0  0  2  0  0  0  0  0  0
  -19.1460  -28.8280   23.2650 C   0  0  0  0  0  0  0  0  0  0  0  0
  -18.8680  -30.0910   23.8340 C   0  0  0  0  0  3  0  0  0  0  0  0
  -17.5430  -30.5490   23.9580 C   0  0  0  0  0  3  0  0  0  0  0  0
  -16.4780  -29.7390   23.5290 C   0  0  0  0  0  3  0  0  0  0  0  0
  -16.7400  -28.4790   22.9630 C   0  0  0  0  0  3  0  0  0  0  0  0
  -25.8700  -32.5940   23.8280 C   0  0  0  0  0  3  0  0  0  0  0  0
  -25.5670  -33.9880   24.1720 N   0  0  0  0  0  0  0  0  0  0  0  0
  -25.8960  -35.0470   23.4190 C   0  0  0  0  0  0  0  0  0  0  0  0
  -26.5600  -34.9510   22.3830 O   0  0  0  0  0  0  0  0  0  0  0  0
  -24.9800  -34.1390   24.9800 H   0  0  0  0  0  0  0  0  0  0  0  0
  -24.1700  -36.8410   23.0810 C   0  0  0  0  0  1  0  0  0  0  0  0
  -25.4110  -36.4310   23.8890 C   0  0  0  0  0  3  0  0  0  0  0  0
  -27.5480  -37.3040   24.7260 C   0  0  0  0  0  1  0  0  0  0  0  0
  -26.4440  -37.4840   23.7860 N   0  0  0  0  0  0  0  0  0  0  0  0
  -26.0400  -38.4030   23.9470 H   0  0  0  0  0  0  0  0  0  0  0  0
  -26.4060  -31.8110   25.0890 C   0  0  1  0  0  0  0  0  0  0  0  0
  -25.3280  -31.5580   26.1670 C   0  0  0  0  0  1  0  0  0  0  0  0
  -26.9910  -30.4420   24.6700 C   0  0  0  0  0  1  0  0  0  0  0  0
  -27.5600  -32.6030   25.7470 C   0  0  0  0  0  1  0  0  0  0  0  0
  1  2  1  0
  1 51  1  0
  2  4  1  0
  3  1  2  0
  5  6  1  0
  5  7  2  0
  6  8  2  0
  7  9  1  0
  8  9  1  0
  8  2  1  0
 10 18  1  0
 11 16  1  0
 12 13  1  0
 12 11  1  0
 14 13  1  0
 14 23  1  0
 14 15  1  0
 16 10  1  0
 16 15  1  0
 17 10  2  0
 18  7  1  0
 18 19  1  0
 20 21  2  0
 21 40  1  0
 22 21  1  0
 22 25  1  0
 23 24  1  0
 23 20  1  0
 24 22  2  0
 25 26  1  0
 26 27  2  0
 28 31  1  0
 28 27  1  0
 29 28  2  0
 30 29  1  0
 30 25  2  0
 31 32  1  0
 32 37  2  0
 32 33  1  0
 33 34  2  0
 34 35  1  0
 35 39  1  0
 36 35  2  0
 37 36  1  0
 38 37  1  0
 40 41  1  0
 41 44  1  0
 41 43  1  0
 42 40  2  0
 45 46  1  0
 45 20  1  0
 47 45  1  0
 48 50  1  0
 50  6  1  0
 50 49  1  0
 51 52  2  0
 53 51  1  0
 54 56  1  0
 54 53  1  0
 55 54  2  0
 57 59  1  0
 57 56  1  0
 58 69  2  0
 59 64  1  0
 60 68  1  0
 60 70  1  0
 61 67  1  0
 61 63  1  0
 62 68  1  0
 63 62  1  0
 64 63  2  0
 65 66  1  0
 65 59  2  0
 66 61  2  0
 67 60  1  0
 68 58  1  0
 70 72  2  0
 71 70  1  0
 73 71  1  0
 74 83  2  0
 74 79  1  0
 75 71  1  0
 75 79  1  0
 76 75  1  0
 77 78  1  0
 77 76  1  0
 78 74  1  0
 79 80  2  0
 80 81  1  0
 82 81  2  0
 83 82  1  0
 84 58  1  0
 84 85  1  0
 84 94  1  0
 85 88  1  0
 86 90  1  0
 86 85  1  0
 87 86  2  0
 90 89  1  0
 92 90  1  0
 92 93  1  0
 92 91  1  0
 94 97  1  1
 94 95  1  0
 96 94  1  0
M  ISO  4  10 100  18 100  56 101  57 101
M  END
>  <TORSDO>  (78) 
F 22

>  <SCORE>  (78) 
-12.792

>  <name>  (78) 
77

>  <ligand_id>  (78) 
77

>  <original_smiles>  (78) 
[H]c1c([H])c([H])c2c(c1[H])C([H])([H])C([H])([H])C([H])([H])C2([H])N([H])C(=O)C1([H])N(C(=O)C([H])(N([H])C(=O)C([H])(N([H])C([H])([H])[H])C([H])([H])[H])C(C([H])([H])[H])(C([H])([H])[H])C([H])([H])[H])C([H])([H])c2c([H])c(OC([H])([H])C(=O)C([H])([H])C(=O)C(=O)N([H])c3sc(N([H])C(=O)N4C([H])([H])C([H])([H])C([H])([H])C([H])(n5nc(-c6c([H])c([H])c(Oc7c([H])c([H])c(F)c([H])c7F)c([H])c6[H])c(C(=O)N([H])[H])c5N([H])[H])C4([H])[H])c([H])c3C([H])(C([H])([H])[H])C([H])([H])[H])c([H])c([H])c2C1([H])[H]

>  <smiles>  (78) 
[H]c1c([H])c([H])c2c(c1[H])C([H])([H])C([H])([H])C([H])([H])C2([H])N([H])C(=O)C1([H])N(C(=O)C([H])(N([H])C(=O)C([H])(N([H])C([H])([H])[H])C([H])([H])[H])C(C([H])([H])[H])(C([H])([H])[H])C([H])([H])[H])C([H])([H])c2c([H])c(OC([H])([H])C(=O)C([H])([H])C(=O)C(=O)N([H])c3sc(N([H])C(=O)N4C([H])([H])C([H])([H])C([H])([H])C([H])(n5nc(-c6c([H])c([H])c(Oc7c([H])c([H])c(F)c([H])c7F)c([H])c6[H])c(C(=O)N([H])[H])c5N([H])[H])C4([H])[H])c([H])c3C([H])(C([H])([H])[H])C([H])([H])[H])c([H])c([H])c2C1([H])[H]

$$$$
78:0:0
     RDKit          3D

 97105  0  0  1  0  0  0  0  0999 V2000
  -28.2100  -21.5050   20.7170 C   0  0  0  0  0  0  0  0  0  0  0  0
  -28.9050  -20.5160   20.1230 N   0  0  0  0  0  0  0  0  0  0  0  0
  -28.1730  -21.6870   21.9350 O   0  0  0  0  0  0  0  0  0  0  0  0
  -28.6980  -20.3840   19.1450 H   0  0  0  0  0  0  0  0  0  0  0  0
  -31.0700  -14.8180   20.0520 C   0  0  0  0  0  0  0  0  0  0  0  0
  -30.7750  -12.6100   18.9680 C   0  0  0  0  0  2  0  0  0  0  0  0
  -29.7810  -12.7570   17.7950 C   0  0  0  0  0  2  0  0  0  0  0  0
  -28.3230  -12.6240   18.2850 C   0  0  0  0  0  2  0  0  0  0  0  0
  -28.0370  -13.5110   19.5200 C   0  0  0  0  0  3  0  0  0  0  0  0
  -29.1310  -13.3170   20.5940 C   0  0  0  0  0  2  0  0  0  0  0  0
  -30.4220  -13.6240   19.9640 N   0  0  0  0  0  0  0  0  0  0  0  0
  -32.2160  -14.9850   19.6160 O   0  0  0  0  0  0  0  0  0  0  0  0
  -31.5830  -18.7470   22.1140 C   0  0  0  0  0  3  0  0  0  0  0  0
  -29.7640  -19.5200   20.7030 C   0  0  0  0  0  0  0  0  0  0  0  0
  -30.7870  -19.8040   21.6360 C   0  0  0  0  0  0  0  0  0  0  0  0
  -29.6330  -18.1760   20.2750 C   0  0  0  0  0  0  0  0  0  0  0  0
  -30.5120  -17.1750   20.7750 C   0  0  0  0  0  0  0  0  0  0  0  0
  -31.4640  -17.4620   21.6980 N   0  0  0  0  0  0  0  0  0  0  0  0
  -30.2450  -15.8440   20.3570 N   0  0  0  0  0  0  0  0  0  0  0  0
  -31.0480  -21.0660   22.0520 F   0  0  0  0  0  0  0  0  0  0  0  0
  -28.6560  -17.8480   19.3900 F   0  0  0  0  0  0  0  0  0  0  0  0
  -29.2650  -15.6300   20.2750 H   0  0  0  0  0  0  0  0  0  0  0  0
  -25.7020  -14.1800   20.3540 C   0  0  0  0  0  0  0  0  0  0  0  0
  -24.6280  -13.4380   20.7600 C   0  0  0  0  0  0  0  0  0  0  0  0
  -25.0440  -12.0710   20.6850 C   0  0  0  0  0  0  0  0  0  0  0  0
  -26.7050  -13.2690   20.0600 N   0  0  0  0  0  0  0  0  0  0  0  0
  -26.3150  -11.9950   20.3160 N   0  0  0  0  0  0  0  0  0  0  0  0
  -24.2900  -10.8300   20.8900 C   0  0  0  0  0  0  0  0  0  0  0  0
  -24.6790   -9.8790   21.8600 C   0  0  0  0  0  3  0  0  0  0  0  0
  -23.9280   -8.7000   22.0460 C   0  0  0  0  0  3  0  0  0  0  0  0
  -22.7700   -8.4650   21.2660 C   0  0  0  0  0  0  0  0  0  0  0  0
  -22.4010   -9.4040   20.2860 C   0  0  0  0  0  3  0  0  0  0  0  0
  -23.1530  -10.5750   20.0980 C   0  0  0  0  0  3  0  0  0  0  0  0
  -21.9870   -7.3430   21.3660 O   0  0  0  0  0  0  0  0  0  0  0  0
  -21.8420   -6.6720   22.5530 C   0  0  0  0  0  0  0  0  0  0  0  0
  -21.2790   -7.2870   23.6940 C   0  0  0  0  0  3  0  0  0  0  0  0
  -21.0860   -6.5390   24.8720 C   0  0  0  0  0  3  0  0  0  0  0  0
  -21.4420   -5.1780   24.9090 C   0  0  0  0  0  0  0  0  0  0  0  0
  -21.9960   -4.5630   23.7730 C   0  0  0  0  0  3  0  0  0  0  0  0
  -22.1940   -5.3090   22.5970 C   0  0  0  0  0  0  0  0  0  0  0  0
  -22.7090   -4.7050   21.4990 F   0  0  0  0  0  0  0  0  0  0  0  0
  -21.2480   -4.4570   26.0390 F   0  0  0  0  0  0  0  0  0  0  0  0
  -23.2610  -13.9520   21.1050 C   0  0  0  0  0  0  0  0  0  0  0  0
  -22.5600  -13.2690   22.0040 N   0  0  0  0  0  0  0  0  0  0  0  0
  -22.8280  -14.9970   20.6170 O   0  0  0  0  0  0  0  0  0  0  0  0
  -22.9270  -12.4270   22.4210 H   0  0  0  0  0  0  0  0  0  0  0  0
  -21.6440  -13.5940   22.2830 H   0  0  0  0  0  0  0  0  0  0  0  0
  -25.9120  -15.5460   20.1810 N   0  0  0  0  0  0  0  0  0  0  0  0
  -25.1680  -16.2180   20.3240 H   0  0  0  0  0  0  0  0  0  0  0  0
  -26.7340  -15.9520   19.7560 H   0  0  0  0  0  0  0  0  0  0  0  0
  -27.5100  -23.5880   19.5280 C   0  0  0  0  0  3  0  0  0  0  0  0
  -27.4000  -22.2470   19.7450 C   0  0  0  0  0  0  0  0  0  0  0  0
  -26.3490  -21.4540   18.9720 C   0  0  0  0  0  1  0  0  0  0  0  0
  -28.3960  -24.5910   20.1640 C   0  0  0  0  0  0  0  0  0  0  0  0
  -28.8140  -24.5120   21.3240 O   0  0  0  0  0  0  0  0  0  0  0  0
  -28.7920  -25.8180   19.3150 C   0  0  0  0  0  2  0  0  0  0  0  0
  -28.6400  -27.0600   20.0280 O   0  0  0  0  0  0  0  0  0  0  0  0
  -24.6190  -31.9690   23.2560 C   0  0  0  0  0  0  0  0  0  0  0  0
  -27.4260  -27.7230   20.0250 C   0  0  0  0  0  0  0  0  0  0  0  0
  -23.4670  -30.5840   21.5570 C   0  0  0  0  0  3  0  0  0  0  0  0
  -24.9800  -29.1560   20.0850 C   0  0  0  0  0  0  0  0  0  0  0  0
  -25.9850  -31.0370   21.3870 C   0  0  0  0  0  2  0  0  0  0  0  0
  -26.1170  -29.6920   20.6990 C   0  0  0  0  0  0  0  0  0  0  0  0
  -27.3390  -28.9800   20.6690 C   0  0  0  0  0  3  0  0  0  0  0  0
  -26.2630  -27.1980   19.4190 C   0  0  0  0  0  3  0  0  0  0  0  0
  -25.0460  -27.9060   19.4480 C   0  0  0  0  0  3  0  0  0  0  0  0
  -23.7110  -29.9700   20.1540 C   0  0  0  0  0  2  0  0  0  0  0  0
  -24.7080  -31.2070   22.1270 N   0  0  0  0  0  0  0  0  0  0  0  0
  -23.5270  -32.1850   23.7980 O   0  0  0  0  0  0  0  0  0  0  0  0
  -22.8500  -29.5080   22.4790 C   0  0  0  0  0  0  0  0  0  0  0  0
  -21.5330  -29.2750   22.3360 N   0  0  0  0  0  0  0  0  0  0  0  0
  -23.5510  -28.8800   23.2770 O   0  0  0  0  0  0  0  0  0  0  0  0
  -21.0190  -29.8490   21.6800 H   0  0  0  0  0  0  0  0  0  0  0  0
  -18.2170  -27.9100   22.7440 C   0  0  0  0  0  0  0  0  0  0  0  0
  -20.7520  -28.2720   23.0610 C   0  0  0  0  0  3  0  0  0  0  0  0
  -20.9280  -26.8650   22.4480 C   0  0  0  0  0  2  0  0  0  0  0  0
  -19.8610  -26.5230   21.4060 C   0  0  0  0  0  2  0  0  0  0  0  0
  -18.4630  -26.5920   22.0320 C   0  0  0  0  0  2  0  0  0  0  0  0
  -19.2930  -28.7080   23.2120 C   0  0  0  0  0  0  0  0  0  0  0  0
  -19.0110  -29.9460   23.8300 C   0  0  0  0  0  3  0  0  0  0  0  0
  -17.6840  -30.3900   23.9800 C   0  0  0  0  0  3  0  0  0  0  0  0
  -16.6200  -29.5900   23.5310 C   0  0  0  0  0  3  0  0  0  0  0  0
  -16.8870  -28.3510   22.9180 C   0  0  0  0  0  3  0  0  0  0  0  0
  -25.8810  -32.6260   23.8990 C   0  0  0  0  0  3  0  0  0  0  0  0
  -26.3900  -31.8580   25.1790 C   0  0  1  0  0  0  0  0  0  0  0  0
  -25.2800  -31.5790   26.2180 C   0  0  0  0  0  1  0  0  0  0  0  0
  -27.0290  -30.5030   24.7920 C   0  0  0  0  0  1  0  0  0  0  0  0
  -27.4920  -32.6850   25.8810 C   0  0  0  0  0  1  0  0  0  0  0  0
  -25.5400  -34.0160   24.2240 N   0  0  0  0  0  0  0  0  0  0  0  0
  -25.8650  -35.0720   23.4670 C   0  0  0  0  0  0  0  0  0  0  0  0
  -26.5550  -34.9830   22.4470 O   0  0  0  0  0  0  0  0  0  0  0  0
  -24.9310  -34.1610   25.0140 H   0  0  0  0  0  0  0  0  0  0  0  0
  -24.1180  -36.8380   23.0700 C   0  0  0  0  0  1  0  0  0  0  0  0
  -25.3440  -36.4500   23.9120 C   0  0  0  0  0  3  0  0  0  0  0  0
  -27.4330  -37.3790   24.8070 C   0  0  0  0  0  1  0  0  0  0  0  0
  -26.3590  -37.5220   23.8290 N   0  0  0  0  0  0  0  0  0  0  0  0
  -25.9280  -38.4330   23.9650 H   0  0  0  0  0  0  0  0  0  0  0  0
  1  3  2  0
  2 14  1  0
  2  1  1  0
  4  2  1  0
  5 19  1  0
  6 11  1  0
  7  8  1  0
  7  6  1  0
  9  8  1  0
  9 26  1  0
  9 10  1  0
 11  5  1  0
 11 10  1  0
 12  5  2  0
 14 15  1  0
 15 20  1  0
 15 13  2  0
 16 14  2  0
 16 17  1  0
 17 18  2  0
 18 13  1  0
 19 17  1  0
 21 16  1  0
 22 19  1  0
 23 24  2  0
 24 43  1  0
 25 24  1  0
 25 28  1  0
 26 27  1  0
 26 23  1  0
 27 25  2  0
 28 29  1  0
 29 30  2  0
 31 34  1  0
 31 30  1  0
 32 31  2  0
 33 32  1  0
 33 28  2  0
 34 35  1  0
 35 40  2  0
 35 36  1  0
 36 37  2  0
 37 38  1  0
 38 42  1  0
 39 38  2  0
 40 39  1  0
 41 40  1  0
 43 44  1  0
 44 47  1  0
 44 46  1  0
 45 43  2  0
 48 49  1  0
 48 23  1  0
 50 48  1  0
 51 52  2  0
 51 54  1  0
 52  1  1  0
 53 52  1  0
 54 55  2  0
 56 57  1  0
 56 54  1  0
 58 69  2  0
 59 57  1  0
 59 64  1  0
 60 68  1  0
 60 70  1  0
 61 67  1  0
 61 63  1  0
 62 68  1  0
 63 62  1  0
 64 63  2  0
 65 66  1  0
 65 59  2  0
 66 61  2  0
 67 60  1  0
 68 58  1  0
 70 72  2  0
 71 70  1  0
 73 71  1  0
 74 83  2  0
 74 79  1  0
 75 71  1  0
 75 79  1  0
 76 75  1  0
 77 78  1  0
 77 76  1  0
 78 74  1  0
 79 80  2  0
 80 81  1  0
 82 81  2  0
 83 82  1  0
 84 58  1  0
 84 89  1  0
 84 85  1  0
 85 88  1  1
 85 86  1  0
 87 85  1  0
 89 92  1  0
 90 94  1  0
 90 89  1  0
 91 90  2  0
 94 93  1  0
 96 94  1  0
 96 97  1  0
 96 95  1  0
M  ISO  4   5 100  19 100  56 101  57 101
M  END
>  <TORSDO>  (79) 
F 19

>  <SCORE>  (79) 
-13.960

>  <name>  (79) 
78

>  <ligand_id>  (79) 
78

>  <original_smiles>  (79) 
[H]C(C(=O)C([H])([H])Oc1c([H])c([H])c2c(c1[H])C([H])([H])N(C(=O)C([H])(N([H])C(=O)C([H])(N([H])C([H])([H])[H])C([H])([H])[H])C(C([H])([H])[H])(C([H])([H])[H])C([H])([H])[H])C([H])(C(=O)N([H])C1([H])c3c([H])c([H])c([H])c([H])c3C([H])([H])C([H])([H])C1([H])[H])C2([H])[H])=C(C(=O)N([H])c1c(F)c([H])nc(N([H])C(=O)N2C([H])([H])C([H])([H])C([H])([H])C([H])(n3nc(-c4c([H])c([H])c(Oc5c([H])c([H])c(F)c([H])c5F)c([H])c4[H])c(C(=O)N([H])[H])c3N([H])[H])C2([H])[H])c1F)C([H])([H])[H]

>  <smiles>  (79) 
[H]C(C(=O)C([H])([H])Oc1c([H])c([H])c2c(c1[H])C([H])([H])N(C(=O)C([H])(N([H])C(=O)C([H])(N([H])C([H])([H])[H])C([H])([H])[H])C(C([H])([H])[H])(C([H])([H])[H])C([H])([H])[H])C([H])(C(=O)N([H])C1([H])c3c([H])c([H])c([H])c([H])c3C([H])([H])C([H])([H])C1([H])[H])C2([H])[H])=C(C(=O)N([H])c1c(F)c([H])nc(N([H])C(=O)N2C([H])([H])C([H])([H])C([H])([H])C([H])(n3nc(-c4c([H])c([H])c(Oc5c([H])c([H])c(F)c([H])c5F)c([H])c4[H])c(C(=O)N([H])[H])c3N([H])[H])C2([H])[H])c1F)C([H])([H])[H]

$$$$
79:0:0
     RDKit          3D

 94102  0  0  1  0  0  0  0  0999 V2000
  -29.0890  -22.4880   20.3350 C   0  0  0  0  0  3  0  0  0  0  0  0
  -28.8050  -21.2030   19.8830 C   0  0  0  0  0  0  0  0  0  0  0  0
  -30.5520  -14.7500   20.3730 C   0  0  0  0  0  0  0  0  0  0  0  0
  -30.3990  -12.4710   19.3560 C   0  0  0  0  0  2  0  0  0  0  0  0
  -29.4550  -12.5500   18.1350 C   0  0  0  0  0  2  0  0  0  0  0  0
  -27.9860  -12.3690   18.5670 C   0  0  0  0  0  2  0  0  0  0  0  0
  -27.6090  -13.2550   19.7840 C   0  0  0  0  0  3  0  0  0  0  0  0
  -28.6670  -13.1450   20.9050 C   0  0  0  0  0  2  0  0  0  0  0  0
  -29.9660  -13.5070   20.3200 N   0  0  0  0  0  0  0  0  0  0  0  0
  -31.7360  -14.8930   20.0460 O   0  0  0  0  0  0  0  0  0  0  0  0
  -29.3780  -19.8450   20.1940 C   0  0  0  0  0  0  0  0  0  0  0  0
  -30.6740  -19.4410   20.5020 C   0  0  0  0  0  0  0  0  0  0  0  0
  -29.7820  -17.2820   20.4520 C   0  0  0  0  0  0  0  0  0  0  0  0
  -30.8840  -18.0360   20.6280 N   0  0  0  0  0  0  0  0  0  0  0  0
  -29.6910  -15.8120   20.5830 N   0  0  0  0  0  0  0  0  0  0  0  0
  -28.3800  -18.3610   20.1310 S   0  0  0  0  0  0  0  0  0  0  0  0
  -28.7510  -15.4910   20.7480 H   0  0  0  0  0  0  0  0  0  0  0  0
  -25.2200  -13.8540   20.5080 C   0  0  0  0  0  0  0  0  0  0  0  0
  -24.1540  -13.0810   20.8810 C   0  0  0  0  0  0  0  0  0  0  0  0
  -24.6170  -11.7290   20.8520 C   0  0  0  0  0  0  0  0  0  0  0  0
  -26.2640  -12.9720   20.2730 N   0  0  0  0  0  0  0  0  0  0  0  0
  -25.9070  -11.6900   20.5440 N   0  0  0  0  0  0  0  0  0  0  0  0
  -23.8920  -10.4660   21.0440 C   0  0  0  0  0  0  0  0  0  0  0  0
  -24.3280   -9.4990   21.9760 C   0  0  0  0  0  3  0  0  0  0  0  0
  -23.6020   -8.3020   22.1560 C   0  0  0  0  0  3  0  0  0  0  0  0
  -22.4280   -8.0620   21.4030 C   0  0  0  0  0  0  0  0  0  0  0  0
  -22.0130   -9.0180   20.4600 C   0  0  0  0  0  3  0  0  0  0  0  0
  -22.7380  -10.2080   20.2780 C   0  0  0  0  0  3  0  0  0  0  0  0
  -21.6760   -6.9160   21.4910 O   0  0  0  0  0  0  0  0  0  0  0  0
  -21.6330   -6.1700   22.6400 C   0  0  0  0  0  0  0  0  0  0  0  0
  -21.2120   -6.7210   23.8710 C   0  0  0  0  0  3  0  0  0  0  0  0
  -21.1170   -5.9020   25.0130 C   0  0  0  0  0  3  0  0  0  0  0  0
  -21.4320   -4.5330   24.9270 C   0  0  0  0  0  0  0  0  0  0  0  0
  -21.8450   -3.9810   23.7020 C   0  0  0  0  0  3  0  0  0  0  0  0
  -21.9430   -4.7980   22.5610 C   0  0  0  0  0  0  0  0  0  0  0  0
  -22.3220   -4.2560   21.3780 F   0  0  0  0  0  0  0  0  0  0  0  0
  -21.3330   -3.7440   26.0220 F   0  0  0  0  0  0  0  0  0  0  0  0
  -22.7570  -13.5570   21.1500 C   0  0  0  0  0  0  0  0  0  0  0  0
  -22.0250  -12.8600   22.0130 N   0  0  0  0  0  0  0  0  0  0  0  0
  -22.3190  -14.5820   20.6290 O   0  0  0  0  0  0  0  0  0  0  0  0
  -22.3900  -12.0300   22.4570 H   0  0  0  0  0  0  0  0  0  0  0  0
  -21.0880  -13.1620   22.2350 H   0  0  0  0  0  0  0  0  0  0  0  0
  -25.3800  -15.2250   20.3270 N   0  0  0  0  0  0  0  0  0  0  0  0
  -24.6000  -15.8650   20.4240 H   0  0  0  0  0  0  0  0  0  0  0  0
  -26.1990  -15.6630   19.9270 H   0  0  0  0  0  0  0  0  0  0  0  0
  -31.7750  -20.2860   20.6490 N   0  0  0  0  0  0  0  0  0  0  0  0
  -31.7100  -21.2410   20.3170 H   0  0  0  0  0  0  0  0  0  0  0  0
  -32.7080  -19.8910   20.5990 H   0  0  0  0  0  0  0  0  0  0  0  0
  -28.5230  -23.8360   19.8130 C   0  0  0  0  0  0  0  0  0  0  0  0
  -28.2950  -24.0000   18.6100 O   0  0  0  0  0  0  0  0  0  0  0  0
  -28.2230  -25.0860   20.7580 C   0  0  0  0  0  2  0  0  0  0  0  0
  -28.3460  -26.4620   20.1790 O   0  0  0  0  0  0  0  0  0  0  0  0
  -24.6040  -31.8810   23.2300 C   0  0  0  0  0  0  0  0  0  0  0  0
  -27.2240  -27.3080   20.1910 C   0  0  0  0  0  0  0  0  0  0  0  0
  -23.4020  -30.4760   21.5940 C   0  0  0  0  0  3  0  0  0  0  0  0
  -24.8570  -28.9190   20.1740 C   0  0  0  0  0  0  0  0  0  0  0  0
  -25.9400  -30.7990   21.4060 C   0  0  0  0  0  2  0  0  0  0  0  0
  -26.0250  -29.4160   20.7640 C   0  0  0  0  0  0  0  0  0  0  0  0
  -27.2160  -28.6250   20.7540 C   0  0  0  0  0  3  0  0  0  0  0  0
  -26.0330  -26.8590   19.5870 C   0  0  0  0  0  3  0  0  0  0  0  0
  -24.8630  -27.6480   19.5750 C   0  0  0  0  0  3  0  0  0  0  0  0
  -23.6170  -29.7910   20.2180 C   0  0  0  0  0  2  0  0  0  0  0  0
  -24.6680  -31.0700   22.1330 N   0  0  0  0  0  0  0  0  0  0  0  0
  -23.5190  -32.1580   23.7660 O   0  0  0  0  0  0  0  0  0  0  0  0
  -22.7410  -29.4620   22.5590 C   0  0  0  0  0  0  0  0  0  0  0  0
  -21.4150  -29.2870   22.4370 N   0  0  0  0  0  0  0  0  0  0  0  0
  -23.4220  -28.8360   23.3750 O   0  0  0  0  0  0  0  0  0  0  0  0
  -20.9240  -29.8450   21.7510 H   0  0  0  0  0  0  0  0  0  0  0  0
  -18.0380  -28.0950   22.9500 C   0  0  0  0  0  0  0  0  0  0  0  0
  -20.5970  -28.3500   23.2110 C   0  0  0  0  0  3  0  0  0  0  0  0
  -20.6950  -26.9180   22.6320 C   0  0  0  0  0  2  0  0  0  0  0  0
  -19.5880  -26.5980   21.6230 C   0  0  0  0  0  2  0  0  0  0  0  0
  -18.2090  -26.7460   22.2720 C   0  0  0  0  0  2  0  0  0  0  0  0
  -19.1590  -28.8540   23.3770 C   0  0  0  0  0  0  0  0  0  0  0  0
  -18.9440  -30.1170   23.9720 C   0  0  0  0  0  3  0  0  0  0  0  0
  -17.6420  -30.6200   24.1440 C   0  0  0  0  0  3  0  0  0  0  0  0
  -16.5350  -29.8560   23.7350 C   0  0  0  0  0  3  0  0  0  0  0  0
  -16.7330  -28.5970   23.1430 C   0  0  0  0  0  3  0  0  0  0  0  0
  -25.8860  -32.5190   23.8520 C   0  0  0  0  0  3  0  0  0  0  0  0
  -26.4030  -31.7540   25.1320 C   0  0  1  0  0  0  0  0  0  0  0  0
  -25.3080  -31.5200   26.2010 C   0  0  0  0  0  1  0  0  0  0  0  0
  -26.9880  -30.3760   24.7460 C   0  0  0  0  0  1  0  0  0  0  0  0
  -27.5520  -32.5520   25.7910 C   0  0  0  0  0  1  0  0  0  0  0  0
  -25.5750  -33.9190   24.1790 N   0  0  0  0  0  0  0  0  0  0  0  0
  -25.9070  -34.9700   23.4200 C   0  0  0  0  0  0  0  0  0  0  0  0
  -26.5780  -34.8660   22.3890 O   0  0  0  0  0  0  0  0  0  0  0  0
  -24.9840  -34.0740   24.9830 H   0  0  0  0  0  0  0  0  0  0  0  0
  -24.1860  -36.7660   23.0550 C   0  0  0  0  0  1  0  0  0  0  0  0
  -25.4200  -36.3590   23.8750 C   0  0  0  0  0  3  0  0  0  0  0  0
  -27.5510  -37.2390   24.7200 C   0  0  0  0  0  1  0  0  0  0  0  0
  -26.4550  -37.4110   23.7710 N   0  0  0  0  0  0  0  0  0  0  0  0
  -26.0500  -38.3310   23.9160 H   0  0  0  0  0  0  0  0  0  0  0  0
  -27.8680  -21.0850   18.9270 O   0  0  0  0  0  0  0  0  0  0  0  0
  -27.7810  -20.1650   18.7150 H   0  0  0  0  0  0  0  0  0  0  0  0
  2 11  1  0
  2  1  2  0
  3 15  1  0
  4  9  1  0
  5  6  1  0
  5  4  1  0
  7  6  1  0
  7 21  1  0
  7  8  1  0
  9  3  1  0
  9  8  1  0
 10  3  2  0
 11 12  2  0
 12 14  1  0
 12 46  1  0
 13 15  1  0
 13 14  2  0
 15 17  1  0
 16 11  1  0
 16 13  1  0
 18 19  2  0
 19 38  1  0
 20 19  1  0
 20 23  1  0
 21 18  1  0
 21 22  1  0
 22 20  2  0
 23 24  1  0
 24 25  2  0
 26 29  1  0
 26 25  1  0
 27 26  2  0
 28 27  1  0
 28 23  2  0
 29 30  1  0
 30 31  1  0
 31 32  2  0
 33 32  1  0
 33 37  1  0
 34 33  2  0
 35 30  2  0
 35 34  1  0
 36 35  1  0
 38 39  1  0
 39 42  1  0
 39 41  1  0
 40 38  2  0
 43 44  1  0
 43 18  1  0
 45 43  1  0
 47 46  1  0
 48 46  1  0
 49  1  1  0
 49 51  1  0
 50 49  2  0
 52 54  1  0
 52 51  1  0
 53 64  2  0
 54 59  1  0
 55 63  1  0
 55 65  1  0
 56 62  1  0
 56 58  1  0
 57 63  1  0
 58 57  1  0
 59 58  2  0
 60 54  2  0
 61 60  1  0
 61 56  2  0
 62 55  1  0
 63 53  1  0
 65 67  2  0
 66 65  1  0
 68 66  1  0
 69 78  2  0
 69 74  1  0
 70 66  1  0
 70 74  1  0
 71 70  1  0
 72 73  1  0
 72 71  1  0
 73 69  1  0
 74 75  2  0
 75 76  1  0
 77 76  2  0
 78 77  1  0
 79 53  1  0
 79 84  1  0
 79 80  1  0
 80 83  1  1
 80 81  1  0
 82 80  1  0
 84 87  1  0
 85 89  1  0
 85 84  1  0
 86 85  2  0
 89 88  1  0
 91 89  1  0
 91 92  1  0
 91 90  1  0
 93  2  1  0
 94 93  1  0
M  ISO  4   3 100  15 100  51 101  52 101
M  END
>  <TORSDO>  (80) 
F 20

>  <SCORE>  (80) 
-14.410

>  <name>  (80) 
79

>  <ligand_id>  (80) 
79

>  <original_smiles>  (80) 
[H]OC(=C([H])C(=O)C([H])([H])Oc1c([H])c([H])c2c(c1[H])C([H])([H])N(C(=O)C([H])(N([H])C(=O)C([H])(N([H])C([H])([H])[H])C([H])([H])[H])C(C([H])([H])[H])(C([H])([H])[H])C([H])([H])[H])C([H])(C(=O)N([H])C1([H])c3c([H])c([H])c([H])c([H])c3C([H])([H])C([H])([H])C1([H])[H])C2([H])[H])c1sc(N([H])C(=O)N2C([H])([H])C([H])([H])C([H])([H])C([H])(n3nc(-c4c([H])c([H])c(Oc5c([H])c([H])c(F)c([H])c5F)c([H])c4[H])c(C(=O)N([H])[H])c3N([H])[H])C2([H])[H])nc1N([H])[H]

>  <smiles>  (80) 
[H]OC(=C([H])C(=O)C([H])([H])Oc1c([H])c([H])c2c(c1[H])C([H])([H])N(C(=O)C([H])(N([H])C(=O)C([H])(N([H])C([H])([H])[H])C([H])([H])[H])C(C([H])([H])[H])(C([H])([H])[H])C([H])([H])[H])C([H])(C(=O)N([H])C1([H])c3c([H])c([H])c([H])c([H])c3C([H])([H])C([H])([H])C1([H])[H])C2([H])[H])c1sc(N([H])C(=O)N2C([H])([H])C([H])([H])C([H])([H])C([H])(n3nc(-c4c([H])c([H])c(Oc5c([H])c([H])c(F)c([H])c5F)c([H])c4[H])c(C(=O)N([H])[H])c3N([H])[H])C2([H])[H])nc1N([H])[H]

$$$$
80:0:0
     RDKit          3D

 96104  0  0  1  0  0  0  0  0999 V2000
  -27.4410  -22.1280   20.1660 C   0  0  0  0  0  0  0  0  0  0  0  0
  -26.9820  -22.3250   19.0360 O   0  0  0  0  0  0  0  0  0  0  0  0
  -27.9700  -20.7410   20.6050 C   0  0  0  0  0  0  0  0  0  0  0  0
  -28.3690  -20.0630   19.5210 N   0  0  0  0  0  0  0  0  0  0  0  0
  -28.0130  -20.3600   21.7790 O   0  0  0  0  0  0  0  0  0  0  0  0
  -28.2010  -20.5740   18.6660 H   0  0  0  0  0  0  0  0  0  0  0  0
  -30.9690  -14.6930   20.3360 C   0  0  0  0  0  0  0  0  0  0  0  0
  -30.6680  -12.5330   19.2160 C   0  0  0  0  0  2  0  0  0  0  0  0
  -29.7360  -12.7780   18.0110 C   0  0  0  0  0  2  0  0  0  0  0  0
  -28.2570  -12.6500   18.4350 C   0  0  0  0  0  2  0  0  0  0  0  0
  -27.9270  -13.4770   19.7080 C   0  0  0  0  0  3  0  0  0  0  0  0
  -28.9770  -13.2340   20.8170 C   0  0  0  0  0  2  0  0  0  0  0  0
  -30.3080  -13.5090   20.2530 N   0  0  0  0  0  0  0  0  0  0  0  0
  -32.1020  -14.8710   19.8790 O   0  0  0  0  0  0  0  0  0  0  0  0
  -29.5590  -18.4850   18.1670 C   0  0  0  0  0  0  0  0  0  0  0  0
  -29.0420  -18.8300   19.3940 C   0  0  0  0  0  0  0  0  0  0  0  0
  -29.9560  -16.8380   19.9520 C   0  0  0  0  0  0  0  0  0  0  0  0
  -29.5060  -19.2450   16.8810 C   0  0  0  0  0  1  0  0  0  0  0  0
  -29.2510  -17.8810   20.4100 N   0  0  0  0  0  0  0  0  0  0  0  0
  -30.2290  -15.7210   20.7760 N   0  0  0  0  0  0  0  0  0  0  0  0
  -30.3720  -16.9520   18.2370 S   0  0  0  0  0  0  0  0  0  0  0  0
  -29.4920  -15.4910   21.4220 H   0  0  0  0  0  0  0  0  0  0  0  0
  -25.5400  -14.1010   20.4430 C   0  0  0  0  0  0  0  0  0  0  0  0
  -24.4640  -13.3330   20.8040 C   0  0  0  0  0  0  0  0  0  0  0  0
  -24.9100  -11.9770   20.7440 C   0  0  0  0  0  0  0  0  0  0  0  0
  -26.5720  -13.2120   20.1860 N   0  0  0  0  0  0  0  0  0  0  0  0
  -26.1960  -11.9290   20.4230 N   0  0  0  0  0  0  0  0  0  0  0  0
  -24.1730  -10.7190   20.9220 C   0  0  0  0  0  0  0  0  0  0  0  0
  -24.5410   -9.7790   21.9110 C   0  0  0  0  0  3  0  0  0  0  0  0
  -23.8040   -8.5860   22.0740 C   0  0  0  0  0  3  0  0  0  0  0  0
  -22.6890   -8.3230   21.2440 C   0  0  0  0  0  0  0  0  0  0  0  0
  -22.3400   -9.2510   20.2460 C   0  0  0  0  0  3  0  0  0  0  0  0
  -23.0760  -10.4360   20.0830 C   0  0  0  0  0  3  0  0  0  0  0  0
  -21.9340   -7.1770   21.3100 O   0  0  0  0  0  0  0  0  0  0  0  0
  -21.7110   -6.5270   22.4980 C   0  0  0  0  0  0  0  0  0  0  0  0
  -21.0520   -7.1530   23.5780 C   0  0  0  0  0  3  0  0  0  0  0  0
  -20.7820   -6.4270   24.7550 C   0  0  0  0  0  3  0  0  0  0  0  0
  -21.1650   -5.0770   24.8530 C   0  0  0  0  0  0  0  0  0  0  0  0
  -21.8180   -4.4490   23.7770 C   0  0  0  0  0  3  0  0  0  0  0  0
  -22.0880   -5.1720   22.6010 C   0  0  0  0  0  0  0  0  0  0  0  0
  -22.6990   -4.5580   21.5590 F   0  0  0  0  0  0  0  0  0  0  0  0
  -20.8980   -4.3750   25.9790 F   0  0  0  0  0  0  0  0  0  0  0  0
  -23.0760  -13.8210   21.1020 C   0  0  0  0  0  0  0  0  0  0  0  0
  -22.3480  -13.1200   21.9660 N   0  0  0  0  0  0  0  0  0  0  0  0
  -22.6430  -14.8590   20.6040 O   0  0  0  0  0  0  0  0  0  0  0  0
  -22.7050  -12.2790   22.3930 H   0  0  0  0  0  0  0  0  0  0  0  0
  -21.4170  -13.4320   22.2050 H   0  0  0  0  0  0  0  0  0  0  0  0
  -25.7240  -15.4750   20.3000 N   0  0  0  0  0  0  0  0  0  0  0  0
  -24.9760  -16.1400   20.4620 H   0  0  0  0  0  0  0  0  0  0  0  0
  -26.5970  -15.9210   20.0430 H   0  0  0  0  0  0  0  0  0  0  0  0
  -27.5900  -23.2890   21.1470 C   0  0  0  0  0  2  0  0  0  0  0  0
  -28.4490  -24.4080   20.5260 C   0  0  0  0  0  2  0  0  0  0  0  0
  -28.9760  -25.4200   21.5480 C   0  0  0  0  0  0  0  0  0  0  0  0
  -29.2420  -25.0720   22.7040 O   0  0  0  0  0  0  0  0  0  0  0  0
  -29.1890  -26.8720   21.0950 C   0  0  0  0  0  2  0  0  0  0  0  0
  -28.5320  -27.1070   19.8470 O   0  0  0  0  0  0  0  0  0  0  0  0
  -24.5000  -31.9280   23.1930 C   0  0  0  0  0  0  0  0  0  0  0  0
  -27.3410  -27.7820   19.9270 C   0  0  0  0  0  0  0  0  0  0  0  0
  -23.3550  -30.5620   21.4740 C   0  0  0  0  0  3  0  0  0  0  0  0
  -24.8760  -29.1550   19.9890 C   0  0  0  0  0  0  0  0  0  0  0  0
  -25.8580  -31.0380   21.3090 C   0  0  0  0  0  2  0  0  0  0  0  0
  -26.0010  -29.7040   20.6150 C   0  0  0  0  0  0  0  0  0  0  0  0
  -27.2340  -29.0220   20.5900 C   0  0  0  0  0  3  0  0  0  0  0  0
  -26.2070  -27.2410   19.2870 C   0  0  0  0  0  3  0  0  0  0  0  0
  -24.9700  -27.9170   19.3250 C   0  0  0  0  0  3  0  0  0  0  0  0
  -23.5960  -29.9560   20.0650 C   0  0  0  0  0  2  0  0  0  0  0  0
  -24.5890  -31.1870   22.0540 N   0  0  0  0  0  0  0  0  0  0  0  0
  -23.4070  -32.1380   23.7370 O   0  0  0  0  0  0  0  0  0  0  0  0
  -22.7400  -29.4700   22.3790 C   0  0  0  0  0  0  0  0  0  0  0  0
  -21.4220  -29.2600   22.2450 N   0  0  0  0  0  0  0  0  0  0  0  0
  -23.4450  -28.8190   23.1560 O   0  0  0  0  0  0  0  0  0  0  0  0
  -20.9140  -29.8400   21.5930 H   0  0  0  0  0  0  0  0  0  0  0  0
  -18.0780  -27.9820   22.7030 C   0  0  0  0  0  0  0  0  0  0  0  0
  -20.6330  -28.2610   22.9620 C   0  0  0  0  0  3  0  0  0  0  0  0
  -20.7510  -26.8730   22.2910 C   0  0  0  0  0  2  0  0  0  0  0  0
  -19.6410  -26.5980   21.2710 C   0  0  0  0  0  2  0  0  0  0  0  0
  -18.2650  -26.6810   21.9400 C   0  0  0  0  0  2  0  0  0  0  0  0
  -19.1910  -28.7310   23.1690 C   0  0  0  0  0  0  0  0  0  0  0  0
  -18.9630  -29.9500   23.8420 C   0  0  0  0  0  3  0  0  0  0  0  0
  -17.6530  -30.4230   24.0500 C   0  0  0  0  0  3  0  0  0  0  0  0
  -16.5540  -29.6700   23.6020 C   0  0  0  0  0  3  0  0  0  0  0  0
  -16.7670  -28.4500   22.9360 C   0  0  0  0  0  3  0  0  0  0  0  0
  -25.7610  -32.5700   23.8510 C   0  0  0  0  0  3  0  0  0  0  0  0
  -25.4240  -33.9590   24.1910 N   0  0  0  0  0  0  0  0  0  0  0  0
  -25.7700  -35.0240   23.4570 C   0  0  0  0  0  0  0  0  0  0  0  0
  -26.4810  -34.9430   22.4510 O   0  0  0  0  0  0  0  0  0  0  0  0
  -24.7950  -34.0950   24.9680 H   0  0  0  0  0  0  0  0  0  0  0  0
  -24.0410  -36.8020   23.0460 C   0  0  0  0  0  1  0  0  0  0  0  0
  -25.2450  -36.3980   23.9120 C   0  0  0  0  0  3  0  0  0  0  0  0
  -27.3200  -37.3000   24.8670 C   0  0  0  0  0  1  0  0  0  0  0  0
  -26.2710  -37.4620   23.8650 N   0  0  0  0  0  0  0  0  0  0  0  0
  -25.8460  -38.3770   23.9970 H   0  0  0  0  0  0  0  0  0  0  0  0
  -26.2650  -31.7890   25.1260 C   0  0  1  0  0  0  0  0  0  0  0  0
  -25.1510  -31.5080   26.1590 C   0  0  0  0  0  1  0  0  0  0  0  0
  -26.8890  -30.4330   24.7210 C   0  0  0  0  0  1  0  0  0  0  0  0
  -27.3820  -32.5970   25.8290 C   0  0  0  0  0  1  0  0  0  0  0  0
  1  3  1  0
  1 51  1  0
  2  1  2  0
  3  5  2  0
  4  3  1  0
  6  4  1  0
  7 20  1  0
  8 13  1  0
  9 10  1  0
  9  8  1  0
 11 10  1  0
 11 26  1  0
 11 12  1  0
 13  7  1  0
 13 12  1  0
 14  7  2  0
 15 21  1  0
 15 16  2  0
 16  4  1  0
 16 19  1  0
 17 19  2  0
 17 20  1  0
 18 15  1  0
 20 22  1  0
 21 17  1  0
 23 24  2  0
 24 43  1  0
 25 24  1  0
 25 28  1  0
 26 27  1  0
 26 23  1  0
 27 25  2  0
 28 29  1  0
 29 30  2  0
 31 34  1  0
 31 30  1  0
 32 31  2  0
 33 32  1  0
 33 28  2  0
 34 35  1  0
 35 40  2  0
 35 36  1  0
 36 37  2  0
 37 38  1  0
 38 42  1  0
 39 38  2  0
 40 39  1  0
 41 40  1  0
 43 44  1  0
 44 47  1  0
 44 46  1  0
 45 43  2  0
 48 23  1  0
 48 49  1  0
 50 48  1  0
 52 51  1  0
 52 53  1  0
 53 54  2  0
 55 53  1  0
 56 58  1  0
 56 55  1  0
 57 68  2  0
 58 63  1  0
 59 67  1  0
 59 69  1  0
 60 66  1  0
 60 62  1  0
 61 67  1  0
 62 61  1  0
 63 62  2  0
 64 65  1  0
 64 58  2  0
 65 60  2  0
 66 59  1  0
 67 57  1  0
 69 71  2  0
 70 69  1  0
 72 70  1  0
 73 82  2  0
 73 78  1  0
 74 70  1  0
 74 78  1  0
 75 74  1  0
 76 77  1  0
 76 75  1  0
 77 73  1  0
 78 79  2  0
 79 80  1  0
 81 80  2  0
 82 81  1  0
 83 57  1  0
 83 84  1  0
 83 93  1  0
 84 87  1  0
 85 89  1  0
 85 84  1  0
 86 85  2  0
 89 88  1  0
 91 89  1  0
 91 92  1  0
 91 90  1  0
 93 96  1  1
 93 94  1  0
 95 93  1  0
M  ISO  4   7 100  20 100  55 101  56 101
M  END
>  <TORSDO>  (81) 
F 21

>  <SCORE>  (81) 
-12.102

>  <name>  (81) 
80

>  <ligand_id>  (81) 
80

>  <original_smiles>  (81) 
[H]c1c([H])c([H])c2c(c1[H])C([H])([H])C([H])([H])C([H])([H])C2([H])N([H])C(=O)C1([H])N(C(=O)C([H])(N([H])C(=O)C([H])(N([H])C([H])([H])[H])C([H])([H])[H])C(C([H])([H])[H])(C([H])([H])[H])C([H])([H])[H])C([H])([H])c2c([H])c(OC([H])([H])C(=O)C([H])([H])C([H])([H])C(=O)C(=O)N([H])c3nc(N([H])C(=O)N4C([H])([H])C([H])([H])C([H])([H])C([H])(n5nc(-c6c([H])c([H])c(Oc7c([H])c([H])c(F)c([H])c7F)c([H])c6[H])c(C(=O)N([H])[H])c5N([H])[H])C4([H])[H])sc3C([H])([H])[H])c([H])c([H])c2C1([H])[H]

>  <smiles>  (81) 
[H]c1c([H])c([H])c2c(c1[H])C([H])([H])C([H])([H])C([H])([H])C2([H])N([H])C(=O)C1([H])N(C(=O)C([H])(N([H])C(=O)C([H])(N([H])C([H])([H])[H])C([H])([H])[H])C(C([H])([H])[H])(C([H])([H])[H])C([H])([H])[H])C([H])([H])c2c([H])c(OC([H])([H])C(=O)C([H])([H])C([H])([H])C(=O)C(=O)N([H])c3nc(N([H])C(=O)N4C([H])([H])C([H])([H])C([H])([H])C([H])(n5nc(-c6c([H])c([H])c(Oc7c([H])c([H])c(F)c([H])c7F)c([H])c6[H])c(C(=O)N([H])[H])c5N([H])[H])C4([H])[H])sc3C([H])([H])[H])c([H])c([H])c2C1([H])[H]

$$$$
81:0:0
     RDKit          3D

 94 97  0  0  1  0  0  0  0  0999 V2000
  -30.3800  -18.0560   17.9950 C   0  0  0  0  0  0  0  0  0  0  0  0
  -29.8300  -16.9330   18.5210 N   0  0  0  0  0  0  0  0  0  0  0  0
  -30.8600  -17.9600   16.8660 O   0  0  0  0  0  0  0  0  0  0  0  0
  -30.0790  -16.1420   17.9460 H   0  0  0  0  0  0  0  0  0  0  0  0
  -28.8560  -13.3580   20.0170 C   0  0  0  0  0  1  0  0  0  0  0  0
  -28.6990  -16.5350   19.4190 C   0  0  0  0  0  1  0  0  0  0  0  0
  -27.8680  -19.1120   19.6950 C   0  0  0  0  0  2  0  0  0  0  0  0
  -26.6630  -18.9850   19.4710 O   0  0  0  0  0  0  0  0  0  0  0  0
  -27.9660  -21.5580   20.0930 C   0  0  0  0  0 15  0  0  0  0  0  0
  -27.6430  -23.9010   19.9010 O   0  0  0  0  0 15  0  0  0  0  0  0
  -24.5430  -31.7200   22.9650 C   0  0  0  0  0  0  0  0  0  0  0  0
  -26.8740  -25.6200   20.0770 C   0  0  0  0  0  3  0  0  0  0  0  0
  -23.4050  -30.2700   21.3630 C   0  0  0  0  0  3  0  0  0  0  0  0
  -24.8220  -28.3820   20.0320 C   0  0  0  0  0  0  0  0  0  0  0  0
  -26.0060  -30.0620   21.3830 C   0  0  0  0  0  2  0  0  0  0  0  0
  -26.0280  -28.5050   20.7250 C   0  0  0  0  0  0  0  0  0  0  0  0
  -26.9950  -27.1950   20.6840 C   0  0  0  0  0  3  0  0  0  0  0  0
  -25.6680  -26.0100   19.3340 C   0  0  0  0  0  3  0  0  0  0  0  0
  -24.7480  -27.1660   19.3120 C   0  0  0  0  0  3  0  0  0  0  0  0
  -23.6890  -29.4800   20.0350 C   0  0  0  0  0  2  0  0  0  0  0  0
  -24.6970  -30.7480   21.9550 N   0  0  0  0  0  0  0  0  0  0  0  0
  -23.4240  -32.0690   23.3990 O   0  0  0  0  0  0  0  0  0  0  0  0
  -22.5930  -29.3980   22.3670 C   0  0  0  0  0  0  0  0  0  0  0  0
  -21.2480  -29.3290   22.2670 N   0  0  0  0  0  0  0  0  0  0  0  0
  -23.2070  -28.7660   23.2290 O   0  0  0  0  0  0  0  0  0  0  0  0
  -20.7890  -29.8880   21.5600 H   0  0  0  0  0  0  0  0  0  0  0  0
  -17.8180  -28.2270   22.8820 C   0  0  0  0  0  0  0  0  0  0  0  0
  -20.3970  -28.4180   23.0530 C   0  0  0  0  0  3  0  0  0  0  0  0
  -20.4270  -26.9900   22.4570 C   0  0  0  0  0  2  0  0  0  0  0  0
  -19.2870  -26.7270   21.4690 C   0  0  0  0  0  2  0  0  0  0  0  0
  -17.9310  -26.8950   22.1610 C   0  0  0  0  0  2  0  0  0  0  0  0
  -18.9740  -28.9510   23.2860 C   0  0  0  0  0  0  0  0  0  0  0  0
  -18.8060  -30.1940   23.9350 C   0  0  0  0  0  3  0  0  0  0  0  0
  -17.5190  -30.7130   24.1760 C   0  0  0  0  0  3  0  0  0  0  0  0
  -16.3810  -29.9880   23.7810 C   0  0  0  0  0  3  0  0  0  0  0  0
  -16.5330  -28.7460   23.1420 C   0  0  0  0  0  3  0  0  0  0  0  0
  -25.7390  -32.4600   23.6500 C   0  0  0  0  0  3  0  0  0  0  0  0
  -25.3530  -33.8640   23.9750 N   0  0  0  0  0  0  0  0  0  0  0  0
  -25.7250  -34.9680   23.3070 C   0  0  0  0  0  0  0  0  0  0  0  0
  -26.4570  -34.9160   22.3190 O   0  0  0  0  0  0  0  0  0  0  0  0
  -24.6990  -33.9730   24.7360 H   0  0  0  0  0  0  0  0  0  0  0  0
  -24.0160  -36.8000   22.9540 C   0  0  0  0  0  1  0  0  0  0  0  0
  -25.2140  -36.3450   23.8040 C   0  0  0  0  0  3  0  0  0  0  0  0
  -27.2940  -37.2220   24.7840 C   0  0  0  0  0  1  0  0  0  0  0  0
  -26.2470  -37.4080   23.7840 N   0  0  0  0  0  0  0  0  0  0  0  0
  -25.8260  -38.3220   23.9310 H   0  0  0  0  0  0  0  0  0  0  0  0
  -26.2050  -31.7570   24.9870 C   0  0  1  0  0  0  0  0  0  0  0  0
  -25.0700  -31.5530   26.0210 C   0  0  0  0  0  1  0  0  0  0  0  0
  -26.8170  -30.3730   24.7030 C   0  0  0  0  0  1  0  0  0  0  0  0
  -27.3220  -32.5890   25.6620 C   0  0  0  0  0  1  0  0  0  0  0  0
  -30.5960  -19.4150   18.7290 C   0  0  0  0  0  2  0  0  0  0  0  0
  -32.2810  -18.6520   22.1850 C   0  0  0  0  0  2  0  0  0  0  0  0
  -31.0300  -18.1040   22.0770 C   0  0  0  0  0  3  0  0  0  0  0  0
  -31.0060  -19.2360   20.1580 C   0  0  0  0  0  3  0  0  0  0  0  0
  -30.2360  -18.6670   21.0840 N   0  0  0  0  0  2  0  0  0  0  0  0
  -32.6060  -19.6480   20.7870 S   0  0  0  0  0  0  0  0  0  0  0  0
  -31.0110  -15.8120   21.9160 C   0  0  0  0  0  0  0  0  0  0  0  0
  -30.9550  -14.6410   19.7500 C   0  0  0  0  0  3  0  0  0  0  0  0
  -30.0110  -13.9530   18.3820 C   0  0  0  0  0  3  0  0  0  0  0  0
  -28.1950  -13.9220   18.3890 C   0  0  0  0  0  3  0  0  0  0  0  0
  -27.2590  -14.6780   19.8180 C   0  0  0  0  0  2  0  0  0  0  0  0
  -28.3250  -15.5350   21.2880 C   0  0  0  0  0  1  0  0  0  0  0  0
  -30.1190  -15.4910   21.0350 N   0  0  0  0  0  0  0  0  0  0  0  0
  -32.1790  -15.4650   21.7660 O   0  0  0  0  0  0  0  0  0  0  0  0
  -30.6560  -16.8760   22.6490 N   0  0  0  0  0  0  0  0  0  0  0  0
  -29.6670  -16.8440   22.8440 H   0  0  0  0  0  0  0  0  0  0  0  0
  -25.0770  -14.1950   20.6820 C   0  0  0  0  0  0  0  0  0  0  0  0
  -24.1870  -13.2220   20.9200 C   0  0  0  0  0  0  0  0  0  0  0  0
  -24.8230  -11.9560   20.7550 C   0  0  0  0  0  0  0  0  0  0  0  0
  -26.2220  -13.6440   20.2920 N   0  0  0  0  0  0  0  0  0  0  0  0
  -26.1130  -12.2180   20.3640 N   0  0  0  0  0  0  0  0  0  0  0  0
  -24.1460  -10.6140   20.9130 C   0  0  0  0  0  0  0  0  0  0  0  0
  -24.5220   -9.6310   21.8670 C   0  0  0  0  0  3  0  0  0  0  0  0
  -23.7520   -8.4510   22.0620 C   0  0  0  0  0  3  0  0  0  0  0  0
  -22.5700   -8.2240   21.3140 C   0  0  0  0  0  0  0  0  0  0  0  0
  -22.1950   -9.1900   20.3640 C   0  0  0  0  0  3  0  0  0  0  0  0
  -22.9680  -10.3540   20.1670 C   0  0  0  0  0  3  0  0  0  0  0  0
  -21.7790   -7.0940   21.4000 O   0  0  0  0  0  0  0  0  0  0  0  0
  -21.7060   -6.3270   22.5390 C   0  0  0  0  0  0  0  0  0  0  0  0
  -21.2610   -6.8610   23.7680 C   0  0  0  0  0  3  0  0  0  0  0  0
  -21.1330   -6.0270   24.8970 C   0  0  0  0  0  3  0  0  0  0  0  0
  -21.4410   -4.6560   24.8020 C   0  0  0  0  0  0  0  0  0  0  0  0
  -21.8710   -4.1170   23.5780 C   0  0  0  0  0  3  0  0  0  0  0  0
  -21.9980   -4.9480   22.4480 C   0  0  0  0  0  0  0  0  0  0  0  0
  -22.3890   -4.4120   21.2670 F   0  0  0  0  0  0  0  0  0  0  0  0
  -21.3190   -3.8540   25.8870 F   0  0  0  0  0  0  0  0  0  0  0  0
  -22.7750  -13.5720   21.1980 C   0  0  0  0  0  0  0  0  0  0  0  0
  -22.1340  -12.8540   22.0990 N   0  0  0  0  0  0  0  0  0  0  0  0
  -22.2770  -14.5680   20.6720 O   0  0  0  0  0  0  0  0  0  0  0  0
  -22.5730  -12.0630   22.5450 H   0  0  0  0  0  0  0  0  0  0  0  0
  -21.1830  -13.0900   22.3470 H   0  0  0  0  0  0  0  0  0  0  0  0
  -24.9470  -15.5720   20.7510 N   0  0  0  0  0  0  0  0  0  0  0  0
  -24.0390  -15.9910   20.9220 H   0  0  0  0  0  0  0  0  0  0  0  0
  -25.6620  -16.2540   20.5370 H   0  0  0  0  0  0  0  0  0  0  0  0
  1  2  1  0
  1 51  1  0
  2  6  1  0
  3  1  2  0
  4  2  1  0
  8  7  2  0
 11 22  2  0
 12 17  1  0
 13 21  1  0
 13 23  1  0
 14 20  1  0
 14 16  1  0
 15 21  1  0
 16 15  1  0
 17 16  2  0
 18 12  2  0
 19 18  1  0
 19 14  2  0
 20 13  1  0
 21 11  1  0
 23 25  2  0
 24 23  1  0
 26 24  1  0
 27 36  2  0
 27 32  1  0
 28 24  1  0
 28 32  1  0
 29 28  1  0
 30 31  1  0
 30 29  1  0
 31 27  1  0
 32 33  2  0
 33 34  1  0
 35 34  2  0
 36 35  1  0
 37 11  1  0
 37 38  1  0
 37 47  1  0
 38 41  1  0
 39 43  1  0
 39 38  1  0
 40 39  2  0
 43 42  1  0
 45 43  1  0
 45 46  1  0
 45 44  1  0
 47 50  1  1
 47 48  1  0
 49 47  1  0
 53 52  1  0
 53 65  1  0
 54 51  1  0
 54 56  1  0
 54 55  1  0
 55 53  1  0
 56 52  1  0
 57 65  1  0
 58 63  1  0
 59 60  1  0
 59 58  2  0
 60 61  1  0
 60  5  1  0
 61 70  1  0
 63 62  1  0
 63 57  1  0
 64 57  2  0
 65 66  1  0
 67 92  1  0
 67 68  2  0
 68 87  1  0
 69 72  1  0
 69 68  1  0
 70 71  1  0
 70 67  1  0
 71 69  2  0
 72 73  1  0
 73 74  2  0
 75 78  1  0
 75 74  1  0
 76 75  2  0
 77 76  1  0
 77 72  2  0
 78 79  1  0
 79 80  1  0
 80 81  2  0
 82 81  1  0
 82 86  1  0
 83 82  2  0
 84 79  2  0
 84 83  1  0
 85 84  1  0
 87 88  1  0
 88 91  1  0
 88 90  1  0
 89 87  2  0
 92 93  1  0
 94 92  1  0
M  ISO  4   9 101  10 101  57 100  65 100
M  END
>  <TORSDO>  (82) 
F 21

>  <SCORE>  (82) 
-13.187

>  <name>  (82) 
81

>  <ligand_id>  (82) 
81

>  <original_smiles>  (82) 
[H]c1sc(C([H])([H])C(=O)N([H])C([H])(C(=O)C([H])([H])Oc2c([H])c([H])c3c(c2[H])C([H])([H])N(C(=O)C([H])(N([H])C(=O)C([H])(N([H])C([H])([H])[H])C([H])([H])[H])C(C([H])([H])[H])(C([H])([H])[H])C([H])([H])[H])C([H])(C(=O)N([H])C2([H])c4c([H])c([H])c([H])c([H])c4C([H])([H])C([H])([H])C2([H])[H])C3([H])[H])C([H])([H])[H])nc1N([H])C(=O)N1C([H])([H])C([H])([H])C([H])([H])C([H])(n2nc(-c3c([H])c([H])c(Oc4c([H])c([H])c(F)c([H])c4F)c([H])c3[H])c(C(=O)N([H])[H])c2N([H])[H])C1([H])[H]

>  <smiles>  (82) 
[H]c1sc(C([H])([H])C(=O)N([H])C([H])(C(=O)C([H])([H])Oc2c([H])c([H])c3c(c2[H])C([H])([H])N(C(=O)C([H])(N([H])C(=O)C([H])(N([H])C([H])([H])[H])C([H])([H])[H])C(C([H])([H])[H])(C([H])([H])[H])C([H])([H])[H])C([H])(C(=O)N([H])C2([H])c4c([H])c([H])c([H])c([H])c4C([H])([H])C([H])([H])C2([H])[H])C3([H])[H])C([H])([H])[H])nc1N([H])C(=O)N1C([H])([H])C([H])([H])C([H])([H])C([H])(n2nc(-c3c([H])c([H])c(Oc4c([H])c([H])c(F)c([H])c4F)c([H])c3[H])c(C(=O)N([H])[H])c2N([H])[H])C1([H])[H]

$$$$
82:0:0
     RDKit          3D

 97105  0  0  1  0  0  0  0  0999 V2000
  -30.1960  -17.7850   20.2700 C   0  0  0  0  0  3  0  0  0  0  0  0
  -29.5660  -16.5120   20.4620 C   0  0  0  0  0  0  0  0  0  0  0  0
  -28.1590  -16.4960   20.5270 C   0  0  0  0  0  0  0  0  0  0  0  0
  -29.3830  -18.9610   20.1760 C   0  0  0  0  0  0  0  0  0  0  0  0
  -27.4460  -17.6980   20.3740 C   0  0  0  0  0  0  0  0  0  0  0  0
  -28.0350  -18.8920   20.2140 N   0  0  0  0  0  0  0  0  0  0  0  0
  -29.9010  -20.2700   20.0360 N   0  0  0  0  0  0  0  0  0  0  0  0
  -27.4990  -15.3290   20.7400 F   0  0  0  0  0  0  0  0  0  0  0  0
  -30.9070  -20.4010   19.9860 H   0  0  0  0  0  0  0  0  0  0  0  0
  -30.6890  -14.3030   19.8390 C   0  0  0  0  0  0  0  0  0  0  0  0
  -30.4240  -12.0070   18.9170 C   0  0  0  0  0  2  0  0  0  0  0  0
  -29.4170  -12.0440   17.7470 C   0  0  0  0  0  2  0  0  0  0  0  0
  -27.9680  -11.9270   18.2580 C   0  0  0  0  0  2  0  0  0  0  0  0
  -27.6720  -12.8980   19.4310 C   0  0  0  0  0  3  0  0  0  0  0  0
  -28.7750  -12.7940   20.5080 C   0  0  0  0  0  2  0  0  0  0  0  0
  -30.0740  -13.0810   19.8670 N   0  0  0  0  0  0  0  0  0  0  0  0
  -31.6980  -14.5270   19.1620 O   0  0  0  0  0  0  0  0  0  0  0  0
  -30.1590  -15.2150   20.6820 N   0  0  0  0  0  0  0  0  0  0  0  0
  -29.6430  -14.7370   21.4050 H   0  0  0  0  0  0  0  0  0  0  0  0
  -25.3370  -13.6000   20.2630 C   0  0  0  0  0  0  0  0  0  0  0  0
  -24.2690  -12.8700   20.7120 C   0  0  0  0  0  0  0  0  0  0  0  0
  -24.6840  -11.5030   20.6800 C   0  0  0  0  0  0  0  0  0  0  0  0
  -26.3400  -12.6800   19.9900 N   0  0  0  0  0  0  0  0  0  0  0  0
  -25.9490  -11.4150   20.2910 N   0  0  0  0  0  0  0  0  0  0  0  0
  -23.9280  -10.2710   20.9400 C   0  0  0  0  0  0  0  0  0  0  0  0
  -24.3880   -9.3060   21.8650 C   0  0  0  0  0  3  0  0  0  0  0  0
  -23.6370   -8.1380   22.1120 C   0  0  0  0  0  3  0  0  0  0  0  0
  -22.4130   -7.9240   21.4350 C   0  0  0  0  0  0  0  0  0  0  0  0
  -21.9700   -8.8770   20.5000 C   0  0  0  0  0  3  0  0  0  0  0  0
  -22.7210  -10.0370   20.2510 C   0  0  0  0  0  3  0  0  0  0  0  0
  -21.6310   -6.8040   21.5890 O   0  0  0  0  0  0  0  0  0  0  0  0
  -21.6310   -6.0840   22.7560 C   0  0  0  0  0  0  0  0  0  0  0  0
  -21.2900   -6.6690   23.9940 C   0  0  0  0  0  3  0  0  0  0  0  0
  -21.2340   -5.8750   25.1580 C   0  0  0  0  0  3  0  0  0  0  0  0
  -21.5100   -4.4970   25.0840 C   0  0  0  0  0  0  0  0  0  0  0  0
  -21.8460   -3.9110   23.8510 C   0  0  0  0  0  3  0  0  0  0  0  0
  -21.9040   -4.7030   22.6900 C   0  0  0  0  0  0  0  0  0  0  0  0
  -22.2070   -4.1290   21.5010 F   0  0  0  0  0  0  0  0  0  0  0  0
  -21.4480   -3.7330   26.1990 F   0  0  0  0  0  0  0  0  0  0  0  0
  -22.9080  -13.4000   21.0600 C   0  0  0  0  0  0  0  0  0  0  0  0
  -22.2220  -12.7570   21.9980 N   0  0  0  0  0  0  0  0  0  0  0  0
  -22.4640  -14.4220   20.5380 O   0  0  0  0  0  0  0  0  0  0  0  0
  -22.5930  -11.9300   22.4430 H   0  0  0  0  0  0  0  0  0  0  0  0
  -21.3120  -13.0970   22.2740 H   0  0  0  0  0  0  0  0  0  0  0  0
  -25.5340  -14.9610   20.0470 N   0  0  0  0  0  0  0  0  0  0  0  0
  -24.8010  -15.6430   20.2080 H   0  0  0  0  0  0  0  0  0  0  0  0
  -26.3840  -15.3680   19.6830 H   0  0  0  0  0  0  0  0  0  0  0  0
  -26.0580  -17.7160   20.3940 N   0  0  0  0  0  0  0  0  0  0  0  0
  -25.6090  -16.8260   20.2170 H   0  0  0  0  0  0  0  0  0  0  0  0
  -25.6060  -18.5030   19.9480 H   0  0  0  0  0  0  0  0  0  0  0  0
  -29.1020  -21.4600   20.4620 C   0  0  0  0  0  2  0  0  0  0  0  0
  -29.1980  -22.7340   19.5750 C   0  0  0  0  0  0  0  0  0  0  0  0
  -29.6900  -22.6690   18.4410 O   0  0  0  0  0  0  0  0  0  0  0  0
  -28.6480  -24.1020   20.1410 C   0  0  0  0  0  0  0  0  0  0  0  0
  -28.2100  -24.1730   21.2970 O   0  0  0  0  0  0  0  0  0  0  0  0
  -28.6710  -25.3570   19.2230 C   0  0  0  0  0  2  0  0  0  0  0  0
  -28.4950  -26.6120   19.9460 O   0  0  0  0  0  0  0  0  0  0  0  0
  -24.6110  -31.7240   23.0850 C   0  0  0  0  0  0  0  0  0  0  0  0
  -27.2980  -27.3210   19.9270 C   0  0  0  0  0  0  0  0  0  0  0  0
  -23.4220  -30.3480   21.4110 C   0  0  0  0  0  3  0  0  0  0  0  0
  -24.8910  -28.8410   19.9630 C   0  0  0  0  0  0  0  0  0  0  0  0
  -25.9470  -30.7170   21.2280 C   0  0  0  0  0  2  0  0  0  0  0  0
  -26.0450  -29.3530   20.5650 C   0  0  0  0  0  0  0  0  0  0  0  0
  -27.2460  -28.6000   20.5430 C   0  0  0  0  0  3  0  0  0  0  0  0
  -26.1130  -26.8280   19.3320 C   0  0  0  0  0  3  0  0  0  0  0  0
  -24.9220  -27.5790   19.3470 C   0  0  0  0  0  3  0  0  0  0  0  0
  -23.6420  -29.6950   20.0210 C   0  0  0  0  0  2  0  0  0  0  0  0
  -24.6790  -30.9440   21.9670 N   0  0  0  0  0  0  0  0  0  0  0  0
  -23.5250  -31.9800   23.6220 O   0  0  0  0  0  0  0  0  0  0  0  0
  -22.7690  -29.3060   22.3470 C   0  0  0  0  0  0  0  0  0  0  0  0
  -21.4380  -29.1550   22.2410 N   0  0  0  0  0  0  0  0  0  0  0  0
  -23.4550  -28.6370   23.1250 O   0  0  0  0  0  0  0  0  0  0  0  0
  -20.9450  -29.7460   21.5860 H   0  0  0  0  0  0  0  0  0  0  0  0
  -18.0460  -28.0420   22.7980 C   0  0  0  0  0  0  0  0  0  0  0  0
  -20.6180  -28.2050   22.9930 C   0  0  0  0  0  3  0  0  0  0  0  0
  -20.6540  -26.8030   22.3420 C   0  0  0  0  0  2  0  0  0  0  0  0
  -19.5080  -26.5670   21.3530 C   0  0  0  0  0  2  0  0  0  0  0  0
  -18.1550  -26.7230   22.0510 C   0  0  0  0  0  2  0  0  0  0  0  0
  -19.2030  -28.7450   23.2270 C   0  0  0  0  0  0  0  0  0  0  0  0
  -19.0470  -29.9830   23.8870 C   0  0  0  0  0  3  0  0  0  0  0  0
  -17.7660  -30.5170   24.1230 C   0  0  0  0  0  3  0  0  0  0  0  0
  -16.6230  -29.8090   23.7100 C   0  0  0  0  0  3  0  0  0  0  0  0
  -16.7640  -28.5730   23.0550 C   0  0  0  0  0  3  0  0  0  0  0  0
  -25.8870  -32.3510   23.7260 C   0  0  0  0  0  3  0  0  0  0  0  0
  -25.5630  -33.7370   24.0930 N   0  0  0  0  0  0  0  0  0  0  0  0
  -25.8940  -34.8130   23.3680 C   0  0  0  0  0  0  0  0  0  0  0  0
  -26.5750  -34.7440   22.3400 O   0  0  0  0  0  0  0  0  0  0  0  0
  -24.9560  -33.8620   24.8910 H   0  0  0  0  0  0  0  0  0  0  0  0
  -24.1500  -36.5970   23.0540 C   0  0  0  0  0  1  0  0  0  0  0  0
  -25.3920  -36.1840   23.8600 C   0  0  0  0  0  3  0  0  0  0  0  0
  -27.5140  -37.0670   24.7230 C   0  0  0  0  0  1  0  0  0  0  0  0
  -26.4140  -37.2510   23.7800 N   0  0  0  0  0  0  0  0  0  0  0  0
  -25.9990  -38.1620   23.9510 H   0  0  0  0  0  0  0  0  0  0  0  0
  -26.4100  -31.5490   24.9810 C   0  0  1  0  0  0  0  0  0  0  0  0
  -25.3200  -31.2810   26.0460 C   0  0  0  0  0  1  0  0  0  0  0  0
  -26.9930  -30.1850   24.5470 C   0  0  0  0  0  1  0  0  0  0  0  0
  -27.5610  -32.3280   25.6600 C   0  0  0  0  0  1  0  0  0  0  0  0
  1  2  1  0
  2  3  2  0
  2 18  1  0
  3  8  1  0
  4  6  1  0
  4  1  2  0
  5 48  1  0
  5  3  1  0
  6  5  2  0
  7  4  1  0
  7 51  1  0
  9  7  1  0
 10 16  1  0
 10 18  1  0
 11 16  1  0
 12 13  1  0
 12 11  1  0
 14 13  1  0
 14 23  1  0
 14 15  1  0
 16 15  1  0
 17 10  2  0
 18 19  1  0
 20 21  2  0
 21 40  1  0
 22 21  1  0
 22 25  1  0
 23 20  1  0
 23 24  1  0
 24 22  2  0
 25 26  1  0
 26 27  2  0
 28 31  1  0
 28 27  1  0
 29 28  2  0
 30 29  1  0
 30 25  2  0
 31 32  1  0
 32 33  1  0
 33 34  2  0
 35 34  1  0
 35 39  1  0
 36 35  2  0
 37 32  2  0
 37 36  1  0
 38 37  1  0
 40 41  1  0
 41 44  1  0
 41 43  1  0
 42 40  2  0
 45 46  1  0
 45 20  1  0
 47 45  1  0
 49 48  1  0
 50 48  1  0
 52 54  1  0
 52 51  1  0
 53 52  2  0
 54 55  2  0
 56 57  1  0
 56 54  1  0
 58 69  2  0
 59 57  1  0
 59 64  1  0
 60 68  1  0
 60 70  1  0
 61 67  1  0
 61 63  1  0
 62 68  1  0
 63 62  1  0
 64 63  2  0
 65 66  1  0
 65 59  2  0
 66 61  2  0
 67 60  1  0
 68 58  1  0
 70 72  2  0
 71 70  1  0
 73 71  1  0
 74 83  2  0
 74 79  1  0
 75 71  1  0
 75 79  1  0
 76 75  1  0
 77 78  1  0
 77 76  1  0
 78 74  1  0
 79 80  2  0
 80 81  1  0
 82 81  2  0
 83 82  1  0
 84 58  1  0
 84 85  1  0
 84 94  1  0
 85 88  1  0
 86 90  1  0
 86 85  1  0
 87 86  2  0
 90 89  1  0
 92 90  1  0
 92 93  1  0
 92 91  1  0
 94 97  1  1
 94 95  1  0
 96 94  1  0
M  ISO  4  10 100  18 100  56 101  57 101
M  END
>  <TORSDO>  (83) 
F 21

>  <SCORE>  (83) 
-13.517

>  <name>  (83) 
82

>  <ligand_id>  (83) 
82

>  <original_smiles>  (83) 
[H]c1c([H])c([H])c2c(c1[H])C([H])([H])C([H])([H])C([H])([H])C2([H])N([H])C(=O)C1([H])N(C(=O)C([H])(N([H])C(=O)C([H])(N([H])C([H])([H])[H])C([H])([H])[H])C(C([H])([H])[H])(C([H])([H])[H])C([H])([H])[H])C([H])([H])c2c([H])c(OC([H])([H])C(=O)C(=O)C([H])([H])N([H])c3nc(N([H])[H])c(F)c(N([H])C(=O)N4C([H])([H])C([H])([H])C([H])([H])C([H])(n5nc(-c6c([H])c([H])c(Oc7c([H])c([H])c(F)c([H])c7F)c([H])c6[H])c(C(=O)N([H])[H])c5N([H])[H])C4([H])[H])c3[H])c([H])c([H])c2C1([H])[H]

>  <smiles>  (83) 
[H]c1c([H])c([H])c2c(c1[H])C([H])([H])C([H])([H])C([H])([H])C2([H])N([H])C(=O)C1([H])N(C(=O)C([H])(N([H])C(=O)C([H])(N([H])C([H])([H])[H])C([H])([H])[H])C(C([H])([H])[H])(C([H])([H])[H])C([H])([H])[H])C([H])([H])c2c([H])c(OC([H])([H])C(=O)C(=O)C([H])([H])N([H])c3nc(N([H])[H])c(F)c(N([H])C(=O)N4C([H])([H])C([H])([H])C([H])([H])C([H])(n5nc(-c6c([H])c([H])c(Oc7c([H])c([H])c(F)c([H])c7F)c([H])c6[H])c(C(=O)N([H])[H])c5N([H])[H])C4([H])[H])c3[H])c([H])c([H])c2C1([H])[H]

$$$$
83:0:0
     RDKit          3D

100108  0  0  1  0  0  0  0  0999 V2000
  -29.7790  -23.7400   20.0780 C   0  0  0  0  0  3  0  0  0  0  0  0
  -31.2440  -21.6740   20.0120 C   0  0  0  0  0  0  0  0  0  0  0  0
  -30.1730  -22.3850   19.5920 N   0  0  0  0  0  0  0  0  0  0  0  0
  -32.1160  -22.1780   20.7220 O   0  0  0  0  0  0  0  0  0  0  0  0
  -29.5080  -21.9180   18.9940 H   0  0  0  0  0  0  0  0  0  0  0  0
  -31.9160  -15.2700   19.7990 C   0  0  0  0  0  0  0  0  0  0  0  0
  -31.6300  -12.9450   19.0030 C   0  0  0  0  0  2  0  0  0  0  0  0
  -30.6530  -12.9740   17.8070 C   0  0  0  0  0  2  0  0  0  0  0  0
  -29.1970  -12.8670   18.3010 C   0  0  0  0  0  2  0  0  0  0  0  0
  -28.8850  -13.8600   19.4510 C   0  0  0  0  0  3  0  0  0  0  0  0
  -29.9770  -13.8260   20.5420 C   0  0  0  0  0  2  0  0  0  0  0  0
  -31.2760  -14.0660   19.8940 N   0  0  0  0  0  0  0  0  0  0  0  0
  -33.0310  -15.3670   19.2810 O   0  0  0  0  0  0  0  0  0  0  0  0
  -31.3720  -20.2300   19.6290 C   0  0  0  0  0  0  0  0  0  0  0  0
  -32.0140  -19.5620   18.6030 C   0  0  0  0  0  0  0  0  0  0  0  0
  -31.3750  -17.7380   19.8500 C   0  0  0  0  0  0  0  0  0  0  0  0
  -31.9930  -18.1630   18.7340 N   0  0  0  0  0  0  0  0  0  0  0  0
  -31.2110  -16.3530   20.2070 N   0  0  0  0  0  0  0  0  0  0  0  0
  -30.7040  -19.0790   20.7850 S   0  0  0  0  0  0  0  0  0  0  0  0
  -30.3960  -16.1450   20.7630 H   0  0  0  0  0  0  0  0  0  0  0  0
  -26.5820  -14.5550   20.3550 C   0  0  0  0  0  0  0  0  0  0  0  0
  -25.5000  -13.8250   20.7690 C   0  0  0  0  0  0  0  0  0  0  0  0
  -25.8830  -12.4530   20.6520 C   0  0  0  0  0  0  0  0  0  0  0  0
  -27.5560  -13.6320   20.0140 N   0  0  0  0  0  0  0  0  0  0  0  0
  -27.1450  -12.3610   20.2500 N   0  0  0  0  0  0  0  0  0  0  0  0
  -25.1010  -11.2230   20.8360 C   0  0  0  0  0  0  0  0  0  0  0  0
  -25.4100  -10.2980   21.8590 C   0  0  0  0  0  3  0  0  0  0  0  0
  -24.6300   -9.1320   22.0300 C   0  0  0  0  0  3  0  0  0  0  0  0
  -23.5260   -8.8870   21.1780 C   0  0  0  0  0  0  0  0  0  0  0  0
  -23.2400   -9.7980   20.1450 C   0  0  0  0  0  3  0  0  0  0  0  0
  -24.0200  -10.9530   19.9740 C   0  0  0  0  0  3  0  0  0  0  0  0
  -22.7280   -7.7690   21.2510 O   0  0  0  0  0  0  0  0  0  0  0  0
  -22.3270   -7.2530   22.4570 C   0  0  0  0  0  0  0  0  0  0  0  0
  -21.5330   -7.9940   23.3600 C   0  0  0  0  0  3  0  0  0  0  0  0
  -21.0860   -7.3980   24.5570 C   0  0  0  0  0  3  0  0  0  0  0  0
  -21.4220   -6.0610   24.8460 C   0  0  0  0  0  0  0  0  0  0  0  0
  -22.2070   -5.3200   23.9440 C   0  0  0  0  0  3  0  0  0  0  0  0
  -22.6550   -5.9160   22.7530 C   0  0  0  0  0  0  0  0  0  0  0  0
  -23.3940   -5.1920   21.8760 F   0  0  0  0  0  0  0  0  0  0  0  0
  -20.9880   -5.4840   25.9910 F   0  0  0  0  0  0  0  0  0  0  0  0
  -24.1520  -14.3630   21.1620 C   0  0  0  0  0  0  0  0  0  0  0  0
  -23.4670  -13.6920   22.0780 N   0  0  0  0  0  0  0  0  0  0  0  0
  -23.7230  -15.4150   20.6890 O   0  0  0  0  0  0  0  0  0  0  0  0
  -23.8240  -12.8350   22.4760 H   0  0  0  0  0  0  0  0  0  0  0  0
  -22.5660  -14.0310   22.3860 H   0  0  0  0  0  0  0  0  0  0  0  0
  -26.8120  -15.9220   20.2200 N   0  0  0  0  0  0  0  0  0  0  0  0
  -26.0830  -16.6070   20.3810 H   0  0  0  0  0  0  0  0  0  0  0  0
  -27.6490  -16.3240   19.8210 H   0  0  0  0  0  0  0  0  0  0  0  0
  -32.6890  -20.1210   17.5060 N   0  0  0  0  0  0  0  0  0  0  0  0
  -32.9490  -21.1030   17.5090 H   0  0  0  0  0  0  0  0  0  0  0  0
  -33.3160  -19.5360   16.9600 H   0  0  0  0  0  0  0  0  0  0  0  0
  -29.6960  -24.8120   18.9330 C   0  0  0  0  0  0  0  0  0  0  0  0
  -29.8610  -24.5180   17.7430 O   0  0  0  0  0  0  0  0  0  0  0  0
  -29.3800  -26.2830   19.3300 C   0  0  0  0  0  2  0  0  0  0  0  0
  -28.9080  -27.1080   18.2320 O   0  0  0  0  0  0  0  0  0  0  0  0
  -24.6420  -30.7920   22.6010 C   0  0  0  0  0  0  0  0  0  0  0  0
  -27.6630  -27.6610   18.4480 C   0  0  0  0  0  0  0  0  0  0  0  0
  -23.5290  -29.6000   20.7400 C   0  0  0  0  0  3  0  0  0  0  0  0
  -25.0720  -28.7010   18.9150 C   0  0  0  0  0  0  0  0  0  0  0  0
  -25.9350  -30.4350   20.4980 C   0  0  0  0  0  2  0  0  0  0  0  0
  -26.1810  -29.2760   19.5490 C   0  0  0  0  0  0  0  0  0  0  0  0
  -27.4800  -28.7640   19.3160 C   0  0  0  0  0  3  0  0  0  0  0  0
  -26.5400  -27.1040   17.8040 C   0  0  0  0  0  3  0  0  0  0  0  0
  -25.2490  -27.6190   18.0320 C   0  0  0  0  0  3  0  0  0  0  0  0
  -23.7140  -29.2910   19.2290 C   0  0  0  0  0  2  0  0  0  0  0  0
  -24.7240  -30.2810   21.3390 N   0  0  0  0  0  0  0  0  0  0  0  0
  -23.5860  -30.7400   23.2460 O   0  0  0  0  0  0  0  0  0  0  0  0
  -23.1400  -28.2940   21.4730 C   0  0  0  0  0  0  0  0  0  0  0  0
  -21.8870  -27.8490   21.2820 N   0  0  0  0  0  0  0  0  0  0  0  0
  -23.9630  -27.6900   22.1670 O   0  0  0  0  0  0  0  0  0  0  0  0
  -21.2710  -28.4090   20.7080 H   0  0  0  0  0  0  0  0  0  0  0  0
  -18.9020  -25.8080   21.3720 C   0  0  0  0  0  0  0  0  0  0  0  0
  -21.3130  -26.6210   21.8340 C   0  0  0  0  0  3  0  0  0  0  0  0
  -21.7740  -25.3810   21.0310 C   0  0  0  0  0  2  0  0  0  0  0  0
  -20.8020  -24.9870   19.9160 C   0  0  0  0  0  2  0  0  0  0  0  0
  -19.4160  -24.6820   20.4880 C   0  0  0  0  0  2  0  0  0  0  0  0
  -19.7920  -26.7260   21.9890 C   0  0  0  0  0  0  0  0  0  0  0  0
  -19.2580  -27.7760   22.7690 C   0  0  0  0  0  3  0  0  0  0  0  0
  -17.8680  -27.9110   22.9430 C   0  0  0  0  0  3  0  0  0  0  0  0
  -16.9950  -26.9880   22.3430 C   0  0  0  0  0  3  0  0  0  0  0  0
  -17.5110  -25.9380   21.5640 C   0  0  0  0  0  3  0  0  0  0  0  0
  -25.8620  -31.4870   23.2850 C   0  0  0  0  0  3  0  0  0  0  0  0
  -25.3930  -32.7650   23.8340 N   0  0  0  0  0  0  0  0  0  0  0  0
  -25.6250  -33.9640   23.2800 C   0  0  0  0  0  0  0  0  0  0  0  0
  -26.3250  -34.1110   22.2720 O   0  0  0  0  0  0  0  0  0  0  0  0
  -24.7720  -32.7170   24.6290 H   0  0  0  0  0  0  0  0  0  0  0  0
  -23.7230  -35.6020   23.1550 C   0  0  0  0  0  1  0  0  0  0  0  0
  -24.9770  -35.1930   23.9420 C   0  0  0  0  0  3  0  0  0  0  0  0
  -26.9690  -36.1370   25.0230 C   0  0  0  0  0  1  0  0  0  0  0  0
  -25.8910  -36.3490   24.0610 N   0  0  0  0  0  0  0  0  0  0  0  0
  -25.3800  -37.1860   24.3300 H   0  0  0  0  0  0  0  0  0  0  0  0
  -26.5290  -30.6060   24.4120 C   0  0  1  0  0  0  0  0  0  0  0  0
  -25.5270  -30.0800   25.4680 C   0  0  0  0  0  1  0  0  0  0  0  0
  -27.2480  -29.3830   23.7960 C   0  0  0  0  0  1  0  0  0  0  0  0
  -27.6120  -31.4310   25.1480 C   0  0  0  0  0  1  0  0  0  0  0  0
  -28.4480  -23.6440   20.8810 C   0  0  0  0  0  2  0  0  0  0  0  0
  -27.1690  -22.9110   22.9780 C   0  0  0  0  0  1  0  0  0  0  0  0
  -28.5490  -23.1010   22.3270 C   0  0  1  0  0  0  0  0  0  0  0  0
  -29.1410  -21.9110   22.3490 F   0  0  0  0  0  0  0  0  0  0  0  0
  -29.2570  -23.9490   23.0740 F   0  0  0  0  0  0  0  0  0  0  0  0
  1 96  1  0
  2  4  2  0
  3  2  1  0
  3  1  1  0
  5  3  1  0
  6 12  1  0
  6 18  1  0
  7 12  1  0
  8  9  1  0
  8  7  1  0
 10  9  1  0
 10 24  1  0
 10 11  1  0
 12 11  1  0
 13  6  2  0
 14  2  1  0
 14 19  1  0
 15 17  1  0
 15 14  2  0
 16 18  1  0
 16 19  1  0
 17 16  2  0
 18 20  1  0
 21 22  2  0
 22 41  1  0
 23 22  1  0
 23 26  1  0
 24 25  1  0
 24 21  1  0
 25 23  2  0
 26 27  1  0
 27 28  2  0
 29 32  1  0
 29 28  1  0
 30 29  2  0
 31 30  1  0
 31 26  2  0
 32 33  1  0
 33 38  2  0
 33 34  1  0
 34 35  2  0
 35 36  1  0
 36 40  1  0
 37 36  2  0
 38 37  1  0
 39 38  1  0
 41 42  1  0
 42 45  1  0
 42 44  1  0
 43 41  2  0
 46 21  1  0
 46 47  1  0
 48 46  1  0
 49 50  1  0
 49 15  1  0
 51 49  1  0
 52 54  1  0
 52  1  1  0
 53 52  2  0
 55 57  1  0
 55 54  1  0
 56 67  2  0
 57 62  1  0
 58 66  1  0
 58 68  1  0
 59 65  1  0
 59 61  1  0
 60 66  1  0
 61 60  1  0
 62 61  2  0
 63 64  1  0
 63 57  2  0
 64 59  2  0
 65 58  1  0
 66 56  1  0
 68 70  2  0
 69 68  1  0
 71 69  1  0
 72 81  2  0
 72 77  1  0
 73 69  1  0
 73 77  1  0
 74 73  1  0
 75 76  1  0
 75 74  1  0
 76 72  1  0
 77 78  2  0
 78 79  1  0
 80 79  2  0
 81 80  1  0
 82 56  1  0
 82 83  1  0
 82 92  1  0
 83 86  1  0
 84 83  1  0
 84 88  1  0
 85 84  2  0
 88 87  1  0
 88 90  1  0
 90 91  1  0
 90 89  1  0
 92 95  1  1
 92 93  1  0
 94 92  1  0
 96 98  1  0
 98 99  1  0
 98 97  1  1
 98100  1  0
M  ISO  4   6 100  18 100  54 101  55 101
M  END
>  <TORSDO>  (84) 
F 22

>  <SCORE>  (84) 
-5.756

>  <name>  (84) 
83

>  <ligand_id>  (84) 
83

>  <original_smiles>  (84) 
[H]c1c([H])c([H])c2c(c1[H])C([H])([H])C([H])([H])C([H])([H])C2([H])N([H])C(=O)C1([H])N(C(=O)C([H])(N([H])C(=O)C([H])(N([H])C([H])([H])[H])C([H])([H])[H])C(C([H])([H])[H])(C([H])([H])[H])C([H])([H])[H])C([H])([H])c2c([H])c(OC([H])([H])C(=O)C([H])(N([H])C(=O)c3sc(N([H])C(=O)N4C([H])([H])C([H])([H])C([H])([H])C([H])(n5nc(-c6c([H])c([H])c(Oc7c([H])c([H])c(F)c([H])c7F)c([H])c6[H])c(C(=O)N([H])[H])c5N([H])[H])C4([H])[H])nc3N([H])[H])C([H])([H])C(F)(F)C([H])([H])[H])c([H])c([H])c2C1([H])[H]

>  <smiles>  (84) 
[H]c1c([H])c([H])c2c(c1[H])C([H])([H])C([H])([H])C([H])([H])C2([H])N([H])C(=O)C1([H])N(C(=O)C([H])(N([H])C(=O)C([H])(N([H])C([H])([H])[H])C([H])([H])[H])C(C([H])([H])[H])(C([H])([H])[H])C([H])([H])[H])C([H])([H])c2c([H])c(OC([H])([H])C(=O)C([H])(N([H])C(=O)c3sc(N([H])C(=O)N4C([H])([H])C([H])([H])C([H])([H])C([H])(n5nc(-c6c([H])c([H])c(Oc7c([H])c([H])c(F)c([H])c7F)c([H])c6[H])c(C(=O)N([H])[H])c5N([H])[H])C4([H])[H])nc3N([H])[H])C([H])([H])C(F)(F)C([H])([H])[H])c([H])c([H])c2C1([H])[H]

$$$$
84:0:0
     RDKit          3D

 97105  0  0  1  0  0  0  0  0999 V2000
  -29.6570  -23.8070   20.1980 C   0  0  0  0  0  0  0  0  0  0  0  0
  -29.5620  -22.5660   20.7450 N   0  0  0  0  0  0  0  0  0  0  0  0
  -29.7910  -24.0030   18.9910 O   0  0  0  0  0  0  0  0  0  0  0  0
  -29.2050  -22.5970   21.6900 H   0  0  0  0  0  0  0  0  0  0  0  0
  -29.4630  -18.9120   20.5110 C   0  0  0  0  0  0  0  0  0  0  0  0
  -29.0130  -20.2400   20.8380 C   0  0  0  0  0  0  0  0  0  0  0  0
  -30.5640  -18.8980   19.6730 C   0  0  0  0  0  0  0  0  0  0  0  0
  -29.7410  -21.2730   20.3100 C   0  0  0  0  0  0  0  0  0  0  0  0
  -28.8100  -17.6830   21.0880 C   0  0  0  0  0  1  0  0  0  0  0  0
  -30.9770  -20.5830   19.2510 S   0  0  0  0  0  0  0  0  0  0  0  0
  -27.9260  -20.4510   21.6970 N   0  0  0  0  0  0  0  0  0  0  0  0
  -27.3540  -21.2580   21.4790 H   0  0  0  0  0  0  0  0  0  0  0  0
  -27.3500  -19.6350   21.8660 H   0  0  0  0  0  0  0  0  0  0  0  0
  -31.4430  -17.6880   19.2490 C   0  0  0  0  0  2  0  0  0  0  0  0
  -30.7980  -16.2740   18.9490 C   0  0  0  0  0  3  0  0  0  0  0  0
  -29.6670  -16.1820   19.6350 F   0  0  0  0  0  0  0  0  0  0  0  0
  -31.6840  -14.9720   19.1670 C   0  0  0  0  0  0  0  0  0  0  0  0
  -31.5370  -12.5050   18.9340 C   0  0  0  0  0  2  0  0  0  0  0  0
  -30.5440  -12.2130   17.7820 C   0  0  0  0  0  2  0  0  0  0  0  0
  -29.0830  -12.1950   18.2850 C   0  0  0  0  0  2  0  0  0  0  0  0
  -28.7480  -13.4100   19.1890 C   0  0  0  0  0  3  0  0  0  0  0  0
  -29.8470  -13.5900   20.2600 C   0  0  0  0  0  2  0  0  0  0  0  0
  -31.1270  -13.7790   19.5580 N   0  0  0  0  0  0  0  0  0  0  0  0
  -32.8490  -14.9970   18.7520 O   0  0  0  0  0  0  0  0  0  0  0  0
  -26.5240  -14.3020   20.1200 C   0  0  0  0  0  0  0  0  0  0  0  0
  -25.3990  -13.6650   20.5670 C   0  0  0  0  0  0  0  0  0  0  0  0
  -25.6750  -12.2670   20.4740 C   0  0  0  0  0  0  0  0  0  0  0  0
  -27.4200  -13.2990   19.7840 N   0  0  0  0  0  0  0  0  0  0  0  0
  -26.9160  -12.0680   20.0500 N   0  0  0  0  0  0  0  0  0  0  0  0
  -24.8080  -11.1040   20.7060 C   0  0  0  0  0  0  0  0  0  0  0  0
  -25.1500  -10.1070   21.6450 C   0  0  0  0  0  3  0  0  0  0  0  0
  -24.2900   -9.0090   21.8670 C   0  0  0  0  0  3  0  0  0  0  0  0
  -23.0760   -8.9020   21.1450 C   0  0  0  0  0  0  0  0  0  0  0  0
  -22.7540   -9.8870   20.1950 C   0  0  0  0  0  3  0  0  0  0  0  0
  -23.6130  -10.9760   19.9740 C   0  0  0  0  0  3  0  0  0  0  0  0
  -22.1960   -7.8560   21.2720 O   0  0  0  0  0  0  0  0  0  0  0  0
  -21.9950   -7.2270   22.4740 C   0  0  0  0  0  0  0  0  0  0  0  0
  -21.5740   -7.9310   23.6220 C   0  0  0  0  0  3  0  0  0  0  0  0
  -21.3110   -7.2340   24.8190 C   0  0  0  0  0  3  0  0  0  0  0  0
  -21.4590   -5.8360   24.8670 C   0  0  0  0  0  0  0  0  0  0  0  0
  -21.8720   -5.1310   23.7240 C   0  0  0  0  0  3  0  0  0  0  0  0
  -22.1380   -5.8250   22.5290 C   0  0  0  0  0  0  0  0  0  0  0  0
  -22.5160   -5.1390   21.4230 F   0  0  0  0  0  0  0  0  0  0  0  0
  -21.1990   -5.1650   26.0140 F   0  0  0  0  0  0  0  0  0  0  0  0
  -24.1050  -14.3110   20.9710 C   0  0  0  0  0  0  0  0  0  0  0  0
  -23.3820  -13.7000   21.9030 N   0  0  0  0  0  0  0  0  0  0  0  0
  -23.7520  -15.3890   20.4960 O   0  0  0  0  0  0  0  0  0  0  0  0
  -23.6850  -12.8280   22.3100 H   0  0  0  0  0  0  0  0  0  0  0  0
  -22.5140  -14.1100   22.2160 H   0  0  0  0  0  0  0  0  0  0  0  0
  -26.8550  -15.6440   19.9530 N   0  0  0  0  0  0  0  0  0  0  0  0
  -26.2120  -16.3980   20.1680 H   0  0  0  0  0  0  0  0  0  0  0  0
  -27.7690  -15.9670   19.6600 H   0  0  0  0  0  0  0  0  0  0  0  0
  -29.2630  -26.1740   21.1410 C   0  0  0  0  0  3  0  0  0  0  0  0
  -29.5810  -24.8480   21.2600 C   0  0  0  0  0  0  0  0  0  0  0  0
  -29.8840  -24.4400   22.5060 O   0  0  0  0  0  0  0  0  0  0  0  0
  -30.2990  -23.5890   22.4260 H   0  0  0  0  0  0  0  0  0  0  0  0
  -28.9340  -26.9230   20.0290 O   0  0  0  0  0  0  0  0  0  0  0  0
  -24.7700  -31.7840   23.3570 C   0  0  0  0  0  0  0  0  0  0  0  0
  -27.7700  -27.6780   20.0860 C   0  0  0  0  0  0  0  0  0  0  0  0
  -23.6930  -30.4010   21.6110 C   0  0  0  0  0  3  0  0  0  0  0  0
  -25.2800  -29.0500   20.1280 C   0  0  0  0  0  0  0  0  0  0  0  0
  -26.1970  -30.9300   21.4940 C   0  0  0  0  0  2  0  0  0  0  0  0
  -26.3920  -29.6030   20.7790 C   0  0  0  0  0  0  0  0  0  0  0  0
  -27.6420  -28.9240   20.7610 C   0  0  0  0  0  3  0  0  0  0  0  0
  -26.6430  -27.1590   19.4240 C   0  0  0  0  0  3  0  0  0  0  0  0
  -25.4020  -27.8260   19.4480 C   0  0  0  0  0  3  0  0  0  0  0  0
  -23.9790  -29.8210   20.2000 C   0  0  0  0  0  2  0  0  0  0  0  0
  -24.9020  -31.0510   22.2130 N   0  0  0  0  0  0  0  0  0  0  0  0
  -23.6620  -31.9520   23.8870 O   0  0  0  0  0  0  0  0  0  0  0  0
  -23.0950  -29.2850   22.4990 C   0  0  0  0  0  0  0  0  0  0  0  0
  -21.8090  -28.9640   22.2770 N   0  0  0  0  0  0  0  0  0  0  0  0
  -23.7880  -28.7110   23.3420 O   0  0  0  0  0  0  0  0  0  0  0  0
  -21.3060  -29.4880   21.5750 H   0  0  0  0  0  0  0  0  0  0  0  0
  -18.5870  -27.3360   22.4580 C   0  0  0  0  0  0  0  0  0  0  0  0
  -21.0540  -27.9160   22.9650 C   0  0  0  0  0  3  0  0  0  0  0  0
  -21.3930  -26.5200   22.3920 C   0  0  0  0  0  2  0  0  0  0  0  0
  -20.4380  -26.0760   21.2780 C   0  0  0  0  0  2  0  0  0  0  0  0
  -18.9970  -26.0310   21.7950 C   0  0  0  0  0  2  0  0  0  0  0  0
  -19.5540  -28.2270   22.9930 C   0  0  0  0  0  0  0  0  0  0  0  0
  -19.1220  -29.4420   23.5690 C   0  0  0  0  0  3  0  0  0  0  0  0
  -17.7530  -29.7680   23.6170 C   0  0  0  0  0  3  0  0  0  0  0  0
  -16.7990  -28.8760   23.1010 C   0  0  0  0  0  3  0  0  0  0  0  0
  -17.2160  -27.6610   22.5270 C   0  0  0  0  0  3  0  0  0  0  0  0
  -25.9980  -32.4640   24.0380 C   0  0  0  0  0  3  0  0  0  0  0  0
  -25.6380  -33.8640   24.3030 N   0  0  0  0  0  0  0  0  0  0  0  0
  -25.9820  -34.8960   23.5230 C   0  0  0  0  0  0  0  0  0  0  0  0
  -26.7060  -34.7760   22.5300 O   0  0  0  0  0  0  0  0  0  0  0  0
  -25.0020  -34.0310   25.0680 H   0  0  0  0  0  0  0  0  0  0  0  0
  -24.2330  -36.6300   23.0180 C   0  0  0  0  0  1  0  0  0  0  0  0
  -25.4390  -36.2860   23.9050 C   0  0  0  0  0  3  0  0  0  0  0  0
  -27.5060  -37.2520   24.8120 C   0  0  0  0  0  1  0  0  0  0  0  0
  -26.4510  -37.3610   23.8080 N   0  0  0  0  0  0  0  0  0  0  0  0
  -26.0160  -38.2750   23.9030 H   0  0  0  0  0  0  0  0  0  0  0  0
  -26.4490  -31.7430   25.3680 C   0  0  1  0  0  0  0  0  0  0  0  0
  -25.2930  -31.5000   26.3640 C   0  0  0  0  0  1  0  0  0  0  0  0
  -27.0990  -30.3740   25.0550 C   0  0  0  0  0  1  0  0  0  0  0  0
  -27.5290  -32.5900   26.0840 C   0  0  0  0  0  1  0  0  0  0  0  0
  1  2  1  0
  1 54  1  0
  2  4  1  0
  3  1  2  0
  5  6  1  0
  5  9  1  0
  6 11  1  0
  7  5  2  0
  8  2  1  0
  8  6  2  0
 10  7  1  0
 10  8  1  0
 11 13  1  0
 12 11  1  0
 14  7  1  0
 15 17  1  0
 15 14  1  0
 15 16  1  0
 17 23  1  0
 18 23  1  0
 19 20  1  0
 19 18  1  0
 21 20  1  0
 21 28  1  0
 21 22  1  0
 23 22  1  0
 24 17  2  0
 25 26  2  0
 26 45  1  0
 27 26  1  0
 27 30  1  0
 28 29  1  0
 28 25  1  0
 29 27  2  0
 30 31  1  0
 31 32  2  0
 33 36  1  0
 33 32  1  0
 34 33  2  0
 35 34  1  0
 35 30  2  0
 36 37  1  0
 37 42  2  0
 37 38  1  0
 38 39  2  0
 39 40  1  0
 40 44  1  0
 41 40  2  0
 42 41  1  0
 43 42  1  0
 45 46  1  0
 46 49  1  0
 46 48  1  0
 47 45  2  0
 50 25  1  0
 50 51  1  0
 52 50  1  0
 53 54  2  0
 54 55  1  0
 56 55  1  0
 57 59  1  0
 57 53  1  0
 58 69  2  0
 59 64  1  0
 60 68  1  0
 60 70  1  0
 61 67  1  0
 61 63  1  0
 62 68  1  0
 63 62  1  0
 64 63  2  0
 65 66  1  0
 65 59  2  0
 66 61  2  0
 67 60  1  0
 68 58  1  0
 70 72  2  0
 71 70  1  0
 73 71  1  0
 74 83  2  0
 74 79  1  0
 75 71  1  0
 75 79  1  0
 76 75  1  0
 77 78  1  0
 77 76  1  0
 78 74  1  0
 79 80  2  0
 80 81  1  0
 82 81  2  0
 83 82  1  0
 84 58  1  0
 84 85  1  0
 84 94  1  0
 85 88  1  0
 86 90  1  0
 86 85  1  0
 87 86  2  0
 90 89  1  0
 92 93  1  0
 92 90  1  0
 92 91  1  0
 94 97  1  1
 94 95  1  0
 96 94  1  0
M  ISO  4  15 100  17 100  53 101  57 101
M  END
>  <TORSDO>  (85) 
F 22

>  <SCORE>  (85) 
-11.036

>  <name>  (85) 
84

>  <ligand_id>  (85) 
84

>  <original_smiles>  (85) 
[H]OC(C(=O)N([H])c1sc(C([H])([H])C([H])(F)C(=O)N2C([H])([H])C([H])([H])C([H])([H])C([H])(n3nc(-c4c([H])c([H])c(Oc5c([H])c([H])c(F)c([H])c5F)c([H])c4[H])c(C(=O)N([H])[H])c3N([H])[H])C2([H])[H])c(C([H])([H])[H])c1N([H])[H])=C([H])Oc1c([H])c([H])c2c(c1[H])C([H])([H])N(C(=O)C([H])(N([H])C(=O)C([H])(N([H])C([H])([H])[H])C([H])([H])[H])C(C([H])([H])[H])(C([H])([H])[H])C([H])([H])[H])C([H])(C(=O)N([H])C1([H])c3c([H])c([H])c([H])c([H])c3C([H])([H])C([H])([H])C1([H])[H])C2([H])[H]

>  <smiles>  (85) 
[H]OC(C(=O)N([H])c1sc(C([H])([H])C([H])(F)C(=O)N2C([H])([H])C([H])([H])C([H])([H])C([H])(n3nc(-c4c([H])c([H])c(Oc5c([H])c([H])c(F)c([H])c5F)c([H])c4[H])c(C(=O)N([H])[H])c3N([H])[H])C2([H])[H])c(C([H])([H])[H])c1N([H])[H])=C([H])Oc1c([H])c([H])c2c(c1[H])C([H])([H])N(C(=O)C([H])(N([H])C(=O)C([H])(N([H])C([H])([H])[H])C([H])([H])[H])C(C([H])([H])[H])(C([H])([H])[H])C([H])([H])[H])C([H])(C(=O)N([H])C1([H])c3c([H])c([H])c([H])c([H])c3C([H])([H])C([H])([H])C1([H])[H])C2([H])[H]

$$$$
85:0:0
     RDKit          3D

 96104  0  0  1  0  0  0  0  0999 V2000
  -28.3440  -23.2310   19.0700 C   0  0  0  0  0  3  0  0  0  0  0  0
  -29.2050  -22.4240   19.7280 C   0  0  0  0  0  0  0  0  0  0  0  0
  -28.9120  -20.9980   19.7430 C   0  0  0  0  0  0  0  0  0  0  0  0
  -29.9650  -20.3010   20.1720 N   0  0  0  0  0  0  0  0  0  0  0  0
  -27.8410  -20.4780   19.4120 O   0  0  0  0  0  0  0  0  0  0  0  0
  -30.7700  -20.8760   20.3840 H   0  0  0  0  0  0  0  0  0  0  0  0
  -30.7090  -14.4360   20.6600 C   0  0  0  0  0  0  0  0  0  0  0  0
  -30.4050  -12.2760   19.5690 C   0  0  0  0  0  2  0  0  0  0  0  0
  -29.5280  -12.5060   18.3220 C   0  0  0  0  0  2  0  0  0  0  0  0
  -28.0330  -12.4000   18.6820 C   0  0  0  0  0  2  0  0  0  0  0  0
  -27.6480  -13.2430   19.9270 C   0  0  0  0  0  3  0  0  0  0  0  0
  -28.6570  -13.0350   21.0830 C   0  0  0  0  0  2  0  0  0  0  0  0
  -30.0100  -13.2790   20.5650 N   0  0  0  0  0  0  0  0  0  0  0  0
  -31.8960  -14.5330   20.3430 O   0  0  0  0  0  0  0  0  0  0  0  0
  -30.8660  -18.5940   18.7320 C   0  0  0  0  0  0  0  0  0  0  0  0
  -30.1890  -18.9550   19.8720 C   0  0  0  0  0  0  0  0  0  0  0  0
  -30.2120  -16.7390   20.2130 C   0  0  0  0  0  0  0  0  0  0  0  0
  -31.4270  -19.4710   17.6580 C   0  0  0  0  0  1  0  0  0  0  0  0
  -29.8060  -17.9070   20.7150 N   0  0  0  0  0  0  0  0  0  0  0  0
  -29.9840  -15.5300   20.9060 N   0  0  0  0  0  0  0  0  0  0  0  0
  -31.0040  -16.8690   18.6310 S   0  0  0  0  0  0  0  0  0  0  0  0
  -29.0800  -15.4160   21.3350 H   0  0  0  0  0  0  0  0  0  0  0  0
  -25.2180  -13.8530   20.5190 C   0  0  0  0  0  0  0  0  0  0  0  0
  -24.1370  -13.0830   20.8570 C   0  0  0  0  0  0  0  0  0  0  0  0
  -24.6040  -11.7330   20.8720 C   0  0  0  0  0  0  0  0  0  0  0  0
  -26.2760  -12.9730   20.3530 N   0  0  0  0  0  0  0  0  0  0  0  0
  -25.9070  -11.6930   20.6220 N   0  0  0  0  0  0  0  0  0  0  0  0
  -23.8750  -10.4710   21.0540 C   0  0  0  0  0  0  0  0  0  0  0  0
  -24.2780   -9.5150   22.0140 C   0  0  0  0  0  3  0  0  0  0  0  0
  -23.5500   -8.3180   22.1810 C   0  0  0  0  0  3  0  0  0  0  0  0
  -22.4040   -8.0670   21.3890 C   0  0  0  0  0  0  0  0  0  0  0  0
  -22.0200   -9.0100   20.4190 C   0  0  0  0  0  3  0  0  0  0  0  0
  -22.7490  -10.1990   20.2500 C   0  0  0  0  0  3  0  0  0  0  0  0
  -21.6500   -6.9210   21.4640 O   0  0  0  0  0  0  0  0  0  0  0  0
  -21.5670   -6.1880   22.6210 C   0  0  0  0  0  0  0  0  0  0  0  0
  -21.0990   -6.7520   23.8270 C   0  0  0  0  0  3  0  0  0  0  0  0
  -20.9640   -5.9460   24.9760 C   0  0  0  0  0  3  0  0  0  0  0  0
  -21.2900   -4.5780   24.9170 C   0  0  0  0  0  0  0  0  0  0  0  0
  -21.7520   -4.0130   23.7150 C   0  0  0  0  0  3  0  0  0  0  0  0
  -21.8870   -4.8160   22.5690 C   0  0  0  0  0  0  0  0  0  0  0  0
  -22.3130   -4.2630   21.4080 F   0  0  0  0  0  0  0  0  0  0  0  0
  -21.1520   -3.8010   26.0180 F   0  0  0  0  0  0  0  0  0  0  0  0
  -22.7280  -13.5600   21.0600 C   0  0  0  0  0  0  0  0  0  0  0  0
  -21.9640  -12.8750   21.9060 N   0  0  0  0  0  0  0  0  0  0  0  0
  -22.3100  -14.5750   20.5030 O   0  0  0  0  0  0  0  0  0  0  0  0
  -22.3130  -12.0550   22.3790 H   0  0  0  0  0  0  0  0  0  0  0  0
  -21.0180  -13.1790   22.0850 H   0  0  0  0  0  0  0  0  0  0  0  0
  -25.3860  -15.2210   20.3210 N   0  0  0  0  0  0  0  0  0  0  0  0
  -24.6130  -15.8760   20.3710 H   0  0  0  0  0  0  0  0  0  0  0  0
  -26.2500  -15.6590   20.0250 H   0  0  0  0  0  0  0  0  0  0  0  0
  -28.4960  -24.6810   18.9930 C   0  0  0  0  0  0  0  0  0  0  0  0
  -28.7090  -25.2690   17.9290 O   0  0  0  0  0  0  0  0  0  0  0  0
  -28.3740  -25.4530   20.3120 C   0  0  0  0  0  2  0  0  0  0  0  0
  -28.3960  -26.8580   20.0930 O   0  0  0  0  0  0  0  0  0  0  0  0
  -24.5360  -31.8860   23.2250 C   0  0  0  0  0  0  0  0  0  0  0  0
  -27.1860  -27.5070   20.1080 C   0  0  0  0  0  0  0  0  0  0  0  0
  -23.3200  -30.4860   21.5860 C   0  0  0  0  0  3  0  0  0  0  0  0
  -24.7690  -28.9610   20.1490 C   0  0  0  0  0  0  0  0  0  0  0  0
  -25.8370  -30.8720   21.3630 C   0  0  0  0  0  2  0  0  0  0  0  0
  -25.9250  -29.5050   20.7210 C   0  0  0  0  0  0  0  0  0  0  0  0
  -27.1370  -28.7870   20.6920 C   0  0  0  0  0  3  0  0  0  0  0  0
  -26.0090  -26.9600   19.5430 C   0  0  0  0  0  3  0  0  0  0  0  0
  -24.8040  -27.6850   19.5600 C   0  0  0  0  0  3  0  0  0  0  0  0
  -23.5210  -29.8100   20.2020 C   0  0  0  0  0  2  0  0  0  0  0  0
  -24.5830  -31.0950   22.1170 N   0  0  0  0  0  0  0  0  0  0  0  0
  -23.4580  -32.1500   23.7760 O   0  0  0  0  0  0  0  0  0  0  0  0
  -22.6840  -29.4580   22.5460 C   0  0  0  0  0  0  0  0  0  0  0  0
  -21.3600  -29.2720   22.4270 N   0  0  0  0  0  0  0  0  0  0  0  0
  -23.3760  -28.8300   23.3520 O   0  0  0  0  0  0  0  0  0  0  0  0
  -20.8640  -29.8310   21.7460 H   0  0  0  0  0  0  0  0  0  0  0  0
  -17.9900  -28.0800   22.9420 C   0  0  0  0  0  0  0  0  0  0  0  0
  -20.5500  -28.3300   23.1970 C   0  0  0  0  0  3  0  0  0  0  0  0
  -20.6450  -26.9030   22.6090 C   0  0  0  0  0  2  0  0  0  0  0  0
  -19.5350  -26.5900   21.6010 C   0  0  0  0  0  2  0  0  0  0  0  0
  -18.1590  -26.7340   22.2570 C   0  0  0  0  0  2  0  0  0  0  0  0
  -19.1130  -28.8360   23.3690 C   0  0  0  0  0  0  0  0  0  0  0  0
  -18.9020  -30.0970   23.9690 C   0  0  0  0  0  3  0  0  0  0  0  0
  -17.6000  -30.6010   24.1470 C   0  0  0  0  0  3  0  0  0  0  0  0
  -16.4920  -29.8400   23.7380 C   0  0  0  0  0  3  0  0  0  0  0  0
  -16.6870  -28.5820   23.1410 C   0  0  0  0  0  3  0  0  0  0  0  0
  -25.8260  -32.5160   23.8380 C   0  0  0  0  0  3  0  0  0  0  0  0
  -26.3520  -31.7430   25.1100 C   0  0  1  0  0  0  0  0  0  0  0  0
  -25.2680  -31.5050   26.1860 C   0  0  0  0  0  1  0  0  0  0  0  0
  -26.9310  -30.3670   24.7090 C   0  0  0  0  0  1  0  0  0  0  0  0
  -27.5090  -32.5370   25.7640 C   0  0  0  0  0  1  0  0  0  0  0  0
  -25.5210  -33.9130   24.1670 N   0  0  0  0  0  0  0  0  0  0  0  0
  -25.8610  -34.9640   23.4090 C   0  0  0  0  0  0  0  0  0  0  0  0
  -26.5370  -34.8580   22.3810 O   0  0  0  0  0  0  0  0  0  0  0  0
  -24.9200  -34.0690   24.9640 H   0  0  0  0  0  0  0  0  0  0  0  0
  -24.1510  -36.7680   23.0270 C   0  0  0  0  0  1  0  0  0  0  0  0
  -25.3730  -36.3530   23.8610 C   0  0  0  0  0  3  0  0  0  0  0  0
  -27.4960  -37.2210   24.7360 C   0  0  0  0  0  1  0  0  0  0  0  0
  -26.4130  -37.4000   23.7720 N   0  0  0  0  0  0  0  0  0  0  0  0
  -26.0100  -38.3220   23.9160 H   0  0  0  0  0  0  0  0  0  0  0  0
  -30.3280  -22.8660   20.3380 O   0  0  0  0  0  0  0  0  0  0  0  0
  -30.4520  -23.7820   20.1330 H   0  0  0  0  0  0  0  0  0  0  0  0
  1  2  2  0
  2  3  1  0
  2 95  1  0
  3  4  1  0
  4  6  1  0
  5  3  2  0
  7 20  1  0
  8 13  1  0
  9 10  1  0
  9  8  1  0
 11 10  1  0
 11 26  1  0
 11 12  1  0
 13  7  1  0
 13 12  1  0
 14  7  2  0
 15 16  2  0
 16  4  1  0
 16 19  1  0
 17 19  2  0
 17 20  1  0
 18 15  1  0
 20 22  1  0
 21 15  1  0
 21 17  1  0
 23 24  2  0
 24 25  1  0
 24 43  1  0
 25 28  1  0
 26 23  1  0
 26 27  1  0
 27 25  2  0
 28 29  1  0
 29 30  2  0
 31 34  1  0
 31 30  1  0
 32 31  2  0
 33 32  1  0
 33 28  2  0
 34 35  1  0
 35 36  1  0
 36 37  2  0
 38 37  1  0
 38 42  1  0
 39 38  2  0
 40 35  2  0
 40 39  1  0
 41 40  1  0
 43 44  1  0
 44 47  1  0
 44 46  1  0
 45 43  2  0
 48 49  1  0
 48 23  1  0
 50 48  1  0
 51  1  1  0
 51 53  1  0
 52 51  2  0
 54 56  1  0
 54 53  1  0
 55 66  2  0
 56 61  1  0
 57 65  1  0
 57 67  1  0
 58 64  1  0
 58 60  1  0
 59 65  1  0
 60 59  1  0
 61 60  2  0
 62 63  1  0
 62 56  2  0
 63 58  2  0
 64 57  1  0
 65 55  1  0
 67 69  2  0
 68 67  1  0
 70 68  1  0
 71 80  2  0
 71 76  1  0
 72 68  1  0
 72 76  1  0
 73 72  1  0
 74 75  1  0
 74 73  1  0
 75 71  1  0
 76 77  2  0
 77 78  1  0
 79 78  2  0
 80 79  1  0
 81 55  1  0
 81 86  1  0
 81 82  1  0
 82 85  1  1
 82 83  1  0
 84 82  1  0
 86 89  1  0
 87 91  1  0
 87 86  1  0
 88 87  2  0
 91 90  1  0
 93 91  1  0
 93 94  1  0
 93 92  1  0
 96 95  1  0
M  ISO  4   7 100  20 100  53 101  54 101
M  END
>  <TORSDO>  (86) 
F 20

>  <SCORE>  (86) 
-14.054

>  <name>  (86) 
85

>  <ligand_id>  (86) 
85

>  <original_smiles>  (86) 
[H]OC(C(=O)N([H])c1nc(N([H])C(=O)N2C([H])([H])C([H])([H])C([H])([H])C([H])(n3nc(-c4c([H])c([H])c(Oc5c([H])c([H])c(F)c([H])c5F)c([H])c4[H])c(C(=O)N([H])[H])c3N([H])[H])C2([H])[H])sc1C([H])([H])[H])=C([H])C(=O)C([H])([H])Oc1c([H])c([H])c2c(c1[H])C([H])([H])N(C(=O)C([H])(N([H])C(=O)C([H])(N([H])C([H])([H])[H])C([H])([H])[H])C(C([H])([H])[H])(C([H])([H])[H])C([H])([H])[H])C([H])(C(=O)N([H])C1([H])c3c([H])c([H])c([H])c([H])c3C([H])([H])C([H])([H])C1([H])[H])C2([H])[H]

>  <smiles>  (86) 
[H]OC(C(=O)N([H])c1nc(N([H])C(=O)N2C([H])([H])C([H])([H])C([H])([H])C([H])(n3nc(-c4c([H])c([H])c(Oc5c([H])c([H])c(F)c([H])c5F)c([H])c4[H])c(C(=O)N([H])[H])c3N([H])[H])C2([H])[H])sc1C([H])([H])[H])=C([H])C(=O)C([H])([H])Oc1c([H])c([H])c2c(c1[H])C([H])([H])N(C(=O)C([H])(N([H])C(=O)C([H])(N([H])C([H])([H])[H])C([H])([H])[H])C(C([H])([H])[H])(C([H])([H])[H])C([H])([H])[H])C([H])(C(=O)N([H])C1([H])c3c([H])c([H])c([H])c([H])c3C([H])([H])C([H])([H])C1([H])[H])C2([H])[H]

$$$$
86:0:0
     RDKit          3D

 93101  0  0  1  0  0  0  0  0999 V2000
  -30.1940  -18.6790   20.3090 C   0  0  0  0  0  0  0  0  0  0  0  0
  -30.1750  -18.9560   21.6560 C   0  0  0  0  0  0  0  0  0  0  0  0
  -29.5730  -21.0250   20.3700 C   0  0  0  0  0  0  0  0  0  0  0  0
  -29.0410  -23.6290   20.3500 C   0  0  0  0  0  0  0  0  0  0  0  0
  -29.8220  -19.9060   19.6050 N   0  0  0  0  0  0  0  0  0  0  0  0
  -29.1020  -22.3330   19.8270 N   0  0  0  0  0  0  0  0  0  0  0  0
  -29.6430  -23.9160   21.3880 O   0  0  0  0  0  0  0  0  0  0  0  0
  -30.5120  -18.0510   22.6120 F   0  0  0  0  0  0  0  0  0  0  0  0
  -29.7840  -20.6270   22.0840 S   0  0  0  0  0  0  0  0  0  0  0  0
  -28.6920  -22.2560   18.9080 H   0  0  0  0  0  0  0  0  0  0  0  0
  -31.0120  -14.8580   19.6990 C   0  0  0  0  0  0  0  0  0  0  0  0
  -30.5670  -12.6040   18.7100 C   0  0  0  0  0  2  0  0  0  0  0  0
  -29.5400  -12.7570   17.5680 C   0  0  0  0  0  2  0  0  0  0  0  0
  -28.1130  -12.6270   18.1260 C   0  0  0  0  0  2  0  0  0  0  0  0
  -27.8860  -13.4940   19.3900 C   0  0  0  0  0  3  0  0  0  0  0  0
  -29.0430  -13.3860   20.4140 C   0  0  0  0  0  2  0  0  0  0  0  0
  -30.2980  -13.6750   19.7060 N   0  0  0  0  0  0  0  0  0  0  0  0
  -32.1550  -14.8310   19.2350 O   0  0  0  0  0  0  0  0  0  0  0  0
  -30.7650  -17.3580   19.6630 C   0  0  0  0  0  0  0  0  0  0  0  0
  -30.3970  -16.0620   20.0500 N   0  0  0  0  0  0  0  0  0  0  0  0
  -31.5600  -17.5290   18.7300 O   0  0  0  0  0  0  0  0  0  0  0  0
  -29.5820  -15.9950   20.6360 H   0  0  0  0  0  0  0  0  0  0  0  0
  -25.6100  -14.1510   20.3660 C   0  0  0  0  0  0  0  0  0  0  0  0
  -24.5490  -13.4080   20.8080 C   0  0  0  0  0  0  0  0  0  0  0  0
  -24.9380  -12.0390   20.6670 C   0  0  0  0  0  0  0  0  0  0  0  0
  -26.5840  -13.2390   19.9960 N   0  0  0  0  0  0  0  0  0  0  0  0
  -26.1900  -11.9590   20.2330 N   0  0  0  0  0  0  0  0  0  0  0  0
  -24.1690  -10.8040   20.8630 C   0  0  0  0  0  0  0  0  0  0  0  0
  -24.5860   -9.8040   21.7700 C   0  0  0  0  0  3  0  0  0  0  0  0
  -23.8140   -8.6360   21.9560 C   0  0  0  0  0  3  0  0  0  0  0  0
  -22.6110   -8.4590   21.2320 C   0  0  0  0  0  0  0  0  0  0  0  0
  -22.2110   -9.4450   20.3140 C   0  0  0  0  0  3  0  0  0  0  0  0
  -22.9840  -10.6040   20.1280 C   0  0  0  0  0  3  0  0  0  0  0  0
  -21.8120   -7.3450   21.3260 O   0  0  0  0  0  0  0  0  0  0  0  0
  -21.7110   -6.6280   22.4910 C   0  0  0  0  0  0  0  0  0  0  0  0
  -21.2420   -7.2120   23.6880 C   0  0  0  0  0  3  0  0  0  0  0  0
  -21.0900   -6.4230   24.8450 C   0  0  0  0  0  3  0  0  0  0  0  0
  -21.3960   -5.0490   24.8060 C   0  0  0  0  0  0  0  0  0  0  0  0
  -21.8600   -4.4640   23.6130 C   0  0  0  0  0  3  0  0  0  0  0  0
  -22.0130   -5.2520   22.4590 C   0  0  0  0  0  0  0  0  0  0  0  0
  -22.4410   -4.6800   21.3070 F   0  0  0  0  0  0  0  0  0  0  0  0
  -21.2420   -4.2870   25.9140 F   0  0  0  0  0  0  0  0  0  0  0  0
  -23.2110  -13.9340   21.2350 C   0  0  0  0  0  0  0  0  0  0  0  0
  -22.5380  -13.2300   22.1400 N   0  0  0  0  0  0  0  0  0  0  0  0
  -22.7780  -15.0030   20.8050 O   0  0  0  0  0  0  0  0  0  0  0  0
  -22.9030  -12.3650   22.5070 H   0  0  0  0  0  0  0  0  0  0  0  0
  -21.6430  -13.5630   22.4680 H   0  0  0  0  0  0  0  0  0  0  0  0
  -25.8170  -15.5200   20.2140 N   0  0  0  0  0  0  0  0  0  0  0  0
  -25.0470  -16.1720   20.3220 H   0  0  0  0  0  0  0  0  0  0  0  0
  -26.5770  -15.9060   19.6680 H   0  0  0  0  0  0  0  0  0  0  0  0
  -28.1950  -24.6530   18.1070 C   0  0  0  0  0  1  0  0  0  0  0  0
  -28.1470  -24.7840   19.6370 C   0  0  0  0  0  3  0  0  0  0  0  0
  -28.3480  -26.2640   19.9580 O   0  0  0  0  0  0  0  0  0  0  0  0
  -24.6350  -31.6990   23.0620 C   0  0  0  0  0  0  0  0  0  0  0  0
  -27.2620  -27.1900   19.8660 C   0  0  0  0  0  0  0  0  0  0  0  0
  -23.4360  -30.3120   21.4130 C   0  0  0  0  0  3  0  0  0  0  0  0
  -24.8890  -28.8350   19.9060 C   0  0  0  0  0  0  0  0  0  0  0  0
  -25.9690  -30.6660   21.1990 C   0  0  0  0  0  2  0  0  0  0  0  0
  -26.0590  -29.3000   20.5180 C   0  0  0  0  0  0  0  0  0  0  0  0
  -27.2440  -28.4850   20.4990 C   0  0  0  0  0  3  0  0  0  0  0  0
  -26.0760  -26.8330   19.1790 C   0  0  0  0  0  3  0  0  0  0  0  0
  -24.9060  -27.6160   19.2180 C   0  0  0  0  0  3  0  0  0  0  0  0
  -23.6370  -29.6850   20.0080 C   0  0  0  0  0  2  0  0  0  0  0  0
  -24.7010  -30.9120   21.9470 N   0  0  0  0  0  0  0  0  0  0  0  0
  -23.5560  -31.9370   23.6240 O   0  0  0  0  0  0  0  0  0  0  0  0
  -22.8160  -29.2530   22.3610 C   0  0  0  0  0  0  0  0  0  0  0  0
  -21.4940  -29.0330   22.2480 N   0  0  0  0  0  0  0  0  0  0  0  0
  -23.5230  -28.6390   23.1630 O   0  0  0  0  0  0  0  0  0  0  0  0
  -20.9780  -29.5800   21.5740 H   0  0  0  0  0  0  0  0  0  0  0  0
  -18.1790  -27.6720   22.7510 C   0  0  0  0  0  0  0  0  0  0  0  0
  -20.7220  -28.0550   23.0160 C   0  0  0  0  0  3  0  0  0  0  0  0
  -20.8910  -26.6330   22.4340 C   0  0  0  0  0  2  0  0  0  0  0  0
  -19.8030  -26.2610   21.4200 C   0  0  0  0  0  2  0  0  0  0  0  0
  -18.4180  -26.3370   22.0660 C   0  0  0  0  0  2  0  0  0  0  0  0
  -19.2600  -28.4850   23.1830 C   0  0  0  0  0  0  0  0  0  0  0  0
  -18.9820  -29.7300   23.7880 C   0  0  0  0  0  3  0  0  0  0  0  0
  -17.6550  -30.1660   23.9620 C   0  0  0  0  0  3  0  0  0  0  0  0
  -16.5870  -29.3510   23.5430 C   0  0  0  0  0  3  0  0  0  0  0  0
  -16.8500  -28.1060   22.9450 C   0  0  0  0  0  3  0  0  0  0  0  0
  -25.9120  -32.3530   23.6730 C   0  0  0  0  0  3  0  0  0  0  0  0
  -25.5670  -33.7330   24.0510 N   0  0  0  0  0  0  0  0  0  0  0  0
  -25.8630  -34.8200   23.3260 C   0  0  0  0  0  0  0  0  0  0  0  0
  -26.5250  -34.7680   22.2860 O   0  0  0  0  0  0  0  0  0  0  0  0
  -24.9820  -33.8470   24.8650 H   0  0  0  0  0  0  0  0  0  0  0  0
  -24.0890  -36.5830   23.0480 C   0  0  0  0  0  1  0  0  0  0  0  0
  -25.3440  -36.1780   23.8370 C   0  0  0  0  0  3  0  0  0  0  0  0
  -27.4520  -37.0900   24.7010 C   0  0  0  0  0  1  0  0  0  0  0  0
  -26.3490  -37.2600   23.7590 N   0  0  0  0  0  0  0  0  0  0  0  0
  -25.9190  -38.1650   23.9300 H   0  0  0  0  0  0  0  0  0  0  0  0
  -26.4810  -31.5660   24.9180 C   0  0  1  0  0  0  0  0  0  0  0  0
  -25.4240  -31.2740   26.0080 C   0  0  0  0  0  1  0  0  0  0  0  0
  -27.0950  -30.2150   24.4830 C   0  0  0  0  0  1  0  0  0  0  0  0
  -27.6260  -32.3790   25.5680 C   0  0  0  0  0  1  0  0  0  0  0  0
  1  2  2  0
  2  9  1  0
  2  8  1  0
  3  9  1  0
  4  7  2  0
  5  1  1  0
  5  3  2  0
  6  4  1  0
  6  3  1  0
 10  6  1  0
 11 17  1  0
 11 20  1  0
 12 17  1  0
 13 14  1  0
 13 12  1  0
 15 14  1  0
 15 26  1  0
 15 16  1  0
 17 16  1  0
 18 11  2  0
 19 20  1  0
 19  1  1  0
 20 22  1  0
 21 19  2  0
 23 24  2  0
 24 43  1  0
 25 24  1  0
 25 28  1  0
 26 27  1  0
 26 23  1  0
 27 25  2  0
 28 29  1  0
 29 30  2  0
 31 34  1  0
 31 30  1  0
 32 31  2  0
 33 32  1  0
 33 28  2  0
 34 35  1  0
 35 36  1  0
 36 37  2  0
 38 37  1  0
 38 42  1  0
 39 38  2  0
 40 35  2  0
 40 39  1  0
 41 40  1  0
 43 44  1  0
 44 47  1  0
 44 46  1  0
 45 43  2  0
 48 49  1  0
 48 23  1  0
 50 48  1  0
 52 51  1  0
 52 53  1  0
 52  4  1  0
 54 65  2  0
 55 53  1  0
 55 60  1  0
 56 64  1  0
 56 66  1  0
 57 63  1  0
 57 59  1  0
 58 64  1  0
 59 58  1  0
 60 59  2  0
 61 62  1  0
 61 55  2  0
 62 57  2  0
 63 56  1  0
 64 54  1  0
 66 68  2  0
 67 66  1  0
 69 67  1  0
 70 79  2  0
 70 75  1  0
 71 67  1  0
 71 75  1  0
 72 71  1  0
 73 74  1  0
 73 72  1  0
 74 70  1  0
 75 76  2  0
 76 77  1  0
 78 77  2  0
 79 78  1  0
 80 54  1  0
 80 81  1  0
 80 90  1  0
 81 84  1  0
 82 86  1  0
 82 81  1  0
 83 82  2  0
 86 85  1  0
 88 86  1  0
 88 89  1  0
 88 87  1  0
 90 93  1  1
 90 91  1  0
 92 90  1  0
M  ISO  4  11 100  20 100  52 101  53 101
M  END
>  <TORSDO>  (87) 
F 17

>  <SCORE>  (87) 
-13.607

>  <name>  (87) 
86

>  <ligand_id>  (87) 
86

>  <original_smiles>  (87) 
[H]c1c([H])c([H])c2c(c1[H])C([H])([H])C([H])([H])C([H])([H])C2([H])N([H])C(=O)C1([H])N(C(=O)C([H])(N([H])C(=O)C([H])(N([H])C([H])([H])[H])C([H])([H])[H])C(C([H])([H])[H])(C([H])([H])[H])C([H])([H])[H])C([H])([H])c2c([H])c(OC([H])(C(=O)N([H])c3nc(C(=O)N([H])C(=O)N4C([H])([H])C([H])([H])C([H])([H])C([H])(n5nc(-c6c([H])c([H])c(Oc7c([H])c([H])c(F)c([H])c7F)c([H])c6[H])c(C(=O)N([H])[H])c5N([H])[H])C4([H])[H])c(F)s3)C([H])([H])[H])c([H])c([H])c2C1([H])[H]

>  <smiles>  (87) 
[H]c1c([H])c([H])c2c(c1[H])C([H])([H])C([H])([H])C([H])([H])C2([H])N([H])C(=O)C1([H])N(C(=O)C([H])(N([H])C(=O)C([H])(N([H])C([H])([H])[H])C([H])([H])[H])C(C([H])([H])[H])(C([H])([H])[H])C([H])([H])[H])C([H])([H])c2c([H])c(OC([H])(C(=O)N([H])c3nc(C(=O)N([H])C(=O)N4C([H])([H])C([H])([H])C([H])([H])C([H])(n5nc(-c6c([H])c([H])c(Oc7c([H])c([H])c(F)c([H])c7F)c([H])c6[H])c(C(=O)N([H])[H])c5N([H])[H])C4([H])[H])c(F)s3)C([H])([H])[H])c([H])c([H])c2C1([H])[H]

$$$$
87:0:0
     RDKit          3D

 94102  0  0  1  0  0  0  0  0999 V2000
  -28.8640  -22.5340   21.0800 C   0  0  0  0  0  0  0  0  0  0  0  0
  -29.0370  -21.7070   20.0400 N   0  0  0  0  0  0  0  0  0  0  0  0
  -28.5810  -22.1300   22.2130 O   0  0  0  0  0  0  0  0  0  0  0  0
  -29.0880  -22.1500   19.1340 H   0  0  0  0  0  0  0  0  0  0  0  0
  -29.6840  -19.4360   20.8310 C   0  0  0  0  0  3  0  0  0  0  0  0
  -29.5090  -18.0770   20.4060 C   0  0  0  0  0  0  0  0  0  0  0  0
  -28.6030  -17.9560   19.3700 C   0  0  0  0  0  0  0  0  0  0  0  0
  -29.0100  -20.3460   20.0390 C   0  0  0  0  0  0  0  0  0  0  0  0
  -28.0870  -16.7720   18.6270 C   0  0  0  0  0  1  0  0  0  0  0  0
  -28.1040  -19.5200   18.8040 S   0  0  0  0  0  0  0  0  0  0  0  0
  -30.3220  -16.9560   20.9670 C   0  0  0  0  0  2  0  0  0  0  0  0
  -29.8940  -15.7610   21.1710 N   0  0  0  0  0  2  0  0  0  0  0  0
  -30.8070  -14.7040   21.1270 C   0  0  0  0  0  0  0  0  0  0  0  0
  -30.6680  -12.5370   19.9860 C   0  0  0  0  0  2  0  0  0  0  0  0
  -29.8240  -12.7920   18.7150 C   0  0  0  0  0  2  0  0  0  0  0  0
  -28.3150  -12.6410   19.0070 C   0  0  0  0  0  2  0  0  0  0  0  0
  -27.8570  -13.4050   20.2800 C   0  0  0  0  0  3  0  0  0  0  0  0
  -28.8360  -13.1600   21.4500 C   0  0  0  0  0  2  0  0  0  0  0  0
  -30.2030  -13.4900   21.0080 N   0  0  0  0  0  0  0  0  0  0  0  0
  -32.0190  -14.8310   20.9320 O   0  0  0  0  0  0  0  0  0  0  0  0
  -25.3830  -13.9480   20.7560 C   0  0  0  0  0  0  0  0  0  0  0  0
  -24.3040  -13.1450   21.0280 C   0  0  0  0  0  0  0  0  0  0  0  0
  -24.8060  -11.8080   21.0580 C   0  0  0  0  0  0  0  0  0  0  0  0
  -26.4720  -13.0930   20.6380 N   0  0  0  0  0  0  0  0  0  0  0  0
  -26.1220  -11.8020   20.8770 N   0  0  0  0  0  0  0  0  0  0  0  0
  -24.0970  -10.5260   21.1950 C   0  0  0  0  0  0  0  0  0  0  0  0
  -24.4620   -9.5850   22.1840 C   0  0  0  0  0  3  0  0  0  0  0  0
  -23.7590   -8.3690   22.3090 C   0  0  0  0  0  3  0  0  0  0  0  0
  -22.6750   -8.0860   21.4450 C   0  0  0  0  0  0  0  0  0  0  0  0
  -22.3240   -9.0180   20.4520 C   0  0  0  0  0  3  0  0  0  0  0  0
  -23.0290  -10.2260   20.3250 C   0  0  0  0  0  3  0  0  0  0  0  0
  -21.9470   -6.9210   21.4780 O   0  0  0  0  0  0  0  0  0  0  0  0
  -21.8020   -6.1950   22.6310 C   0  0  0  0  0  0  0  0  0  0  0  0
  -21.1900   -6.7390   23.7820 C   0  0  0  0  0  3  0  0  0  0  0  0
  -20.9950   -5.9370   24.9230 C   0  0  0  0  0  3  0  0  0  0  0  0
  -21.4020   -4.5880   24.9160 C   0  0  0  0  0  0  0  0  0  0  0  0
  -22.0080   -4.0440   23.7700 C   0  0  0  0  0  3  0  0  0  0  0  0
  -22.2040   -4.8430   22.6310 C   0  0  0  0  0  0  0  0  0  0  0  0
  -22.7670   -4.3060   21.5220 F   0  0  0  0  0  0  0  0  0  0  0  0
  -21.2090   -3.8150   26.0090 F   0  0  0  0  0  0  0  0  0  0  0  0
  -22.8750  -13.5860   21.1570 C   0  0  0  0  0  0  0  0  0  0  0  0
  -22.0830  -12.8810   21.9610 N   0  0  0  0  0  0  0  0  0  0  0  0
  -22.4580  -14.5910   20.5860 O   0  0  0  0  0  0  0  0  0  0  0  0
  -22.4210  -12.0660   22.4490 H   0  0  0  0  0  0  0  0  0  0  0  0
  -21.1230  -13.1670   22.0890 H   0  0  0  0  0  0  0  0  0  0  0  0
  -25.5190  -15.3200   20.5790 N   0  0  0  0  0  0  0  0  0  0  0  0
  -24.7310  -15.9580   20.6110 H   0  0  0  0  0  0  0  0  0  0  0  0
  -26.4010  -15.7840   20.3960 H   0  0  0  0  0  0  0  0  0  0  0  0
  -29.0410  -23.9410   20.7050 C   0  0  0  0  0  3  0  0  0  0  0  0
  -28.7040  -24.9880   21.4960 C   0  0  0  0  0  0  0  0  0  0  0  0
  -28.1410  -24.8720   22.7130 O   0  0  0  0  0  0  0  0  0  0  0  0
  -28.0130  -23.9460   22.8970 H   0  0  0  0  0  0  0  0  0  0  0  0
  -28.9050  -26.4710   21.1580 C   0  0  0  0  0  2  0  0  0  0  0  0
  -28.3780  -26.8190   19.8730 O   0  0  0  0  0  0  0  0  0  0  0  0
  -24.5850  -31.8820   23.1810 C   0  0  0  0  0  0  0  0  0  0  0  0
  -27.2380  -27.5820   19.9240 C   0  0  0  0  0  0  0  0  0  0  0  0
  -23.3740  -30.5230   21.5030 C   0  0  0  0  0  3  0  0  0  0  0  0
  -24.8290  -29.0460   20.0180 C   0  0  0  0  0  0  0  0  0  0  0  0
  -25.8870  -30.9260   21.2820 C   0  0  0  0  0  2  0  0  0  0  0  0
  -25.9880  -29.5720   20.6030 C   0  0  0  0  0  0  0  0  0  0  0  0
  -27.2010  -28.8470   20.5540 C   0  0  0  0  0  3  0  0  0  0  0  0
  -26.0740  -27.0730   19.3230 C   0  0  0  0  0  3  0  0  0  0  0  0
  -24.8640  -27.7910   19.3810 C   0  0  0  0  0  3  0  0  0  0  0  0
  -23.5730  -29.8810   20.1030 C   0  0  0  0  0  2  0  0  0  0  0  0
  -24.6340  -31.1210   22.0510 N   0  0  0  0  0  0  0  0  0  0  0  0
  -23.5090  -32.1230   23.7450 O   0  0  0  0  0  0  0  0  0  0  0  0
  -22.7430  -29.4690   22.4410 C   0  0  0  0  0  0  0  0  0  0  0  0
  -21.4200  -29.2800   22.3260 N   0  0  0  0  0  0  0  0  0  0  0  0
  -23.4400  -28.8250   23.2330 O   0  0  0  0  0  0  0  0  0  0  0  0
  -20.9210  -29.8400   21.6480 H   0  0  0  0  0  0  0  0  0  0  0  0
  -18.0640  -28.0580   22.8470 C   0  0  0  0  0  0  0  0  0  0  0  0
  -20.6260  -28.3120   23.0820 C   0  0  0  0  0  3  0  0  0  0  0  0
  -20.7230  -26.9040   22.4530 C   0  0  0  0  0  2  0  0  0  0  0  0
  -19.6070  -26.6310   21.4380 C   0  0  0  0  0  2  0  0  0  0  0  0
  -18.2330  -26.7410   22.1080 C   0  0  0  0  0  2  0  0  0  0  0  0
  -19.1900  -28.8050   23.2900 C   0  0  0  0  0  0  0  0  0  0  0  0
  -18.9780  -30.0410   23.9350 C   0  0  0  0  0  3  0  0  0  0  0  0
  -17.6760  -30.5370   24.1380 C   0  0  0  0  0  3  0  0  0  0  0  0
  -16.5660  -29.7920   23.7090 C   0  0  0  0  0  3  0  0  0  0  0  0
  -16.7620  -28.5520   23.0700 C   0  0  0  0  0  3  0  0  0  0  0  0
  -25.8730  -32.5090   23.8050 C   0  0  0  0  0  3  0  0  0  0  0  0
  -25.5570  -33.8940   24.1760 N   0  0  0  0  0  0  0  0  0  0  0  0
  -25.9010  -34.9710   23.4540 C   0  0  0  0  0  0  0  0  0  0  0  0
  -26.5850  -34.8970   22.4290 O   0  0  0  0  0  0  0  0  0  0  0  0
  -24.9540  -34.0210   24.9770 H   0  0  0  0  0  0  0  0  0  0  0  0
  -24.2030  -36.7900   23.0970 C   0  0  0  0  0  1  0  0  0  0  0  0
  -25.4050  -36.3440   23.9450 C   0  0  0  0  0  3  0  0  0  0  0  0
  -27.5030  -37.1810   24.9070 C   0  0  0  0  0  1  0  0  0  0  0  0
  -26.4500  -37.3910   23.9170 N   0  0  0  0  0  0  0  0  0  0  0  0
  -26.0430  -38.3080   24.0770 H   0  0  0  0  0  0  0  0  0  0  0  0
  -26.4120  -31.7060   25.0510 C   0  0  1  0  0  0  0  0  0  0  0  0
  -25.3380  -31.4220   26.1270 C   0  0  0  0  0  1  0  0  0  0  0  0
  -27.0040  -30.3480   24.6060 C   0  0  0  0  0  1  0  0  0  0  0  0
  -27.5610  -32.4930   25.7230 C   0  0  0  0  0  1  0  0  0  0  0  0
  1  3  2  0
  2  1  1  0
  4  2  1  0
  6  5  1  0
  6 11  1  0
  7  6  2  0
  8  2  1  0
  8  5  2  0
  9  7  1  0
 10  7  1  0
 10  8  1  0
 11 12  1  0
 13 12  1  0
 14 19  1  0
 15 16  1  0
 15 14  1  0
 17 16  1  0
 17 24  1  0
 17 18  1  0
 19 13  1  0
 19 18  1  0
 20 13  2  0
 21 22  2  0
 22 23  1  0
 22 41  1  0
 23 26  1  0
 24 21  1  0
 24 25  1  0
 25 23  2  0
 26 27  1  0
 27 28  2  0
 29 32  1  0
 29 28  1  0
 30 29  2  0
 31 30  1  0
 31 26  2  0
 32 33  1  0
 33 34  1  0
 34 35  2  0
 36 35  1  0
 36 40  1  0
 37 36  2  0
 38 33  2  0
 38 37  1  0
 39 38  1  0
 41 42  1  0
 42 45  1  0
 42 44  1  0
 43 41  2  0
 46 47  1  0
 46 21  1  0
 48 46  1  0
 49  1  1  0
 49 50  2  0
 50 51  1  0
 51 52  1  0
 53 50  1  0
 54 56  1  0
 54 53  1  0
 55 66  2  0
 56 61  1  0
 57 65  1  0
 57 67  1  0
 58 64  1  0
 58 60  1  0
 59 65  1  0
 60 59  1  0
 61 60  2  0
 62 63  1  0
 62 56  2  0
 63 58  2  0
 64 57  1  0
 65 55  1  0
 67 69  2  0
 68 67  1  0
 70 68  1  0
 71 80  2  0
 71 76  1  0
 72 68  1  0
 72 76  1  0
 73 72  1  0
 74 75  1  0
 74 73  1  0
 75 71  1  0
 76 77  2  0
 77 78  1  0
 79 78  2  0
 80 79  1  0
 81 55  1  0
 81 82  1  0
 81 91  1  0
 82 85  1  0
 83 87  1  0
 83 82  1  0
 84 83  2  0
 87 86  1  0
 89 87  1  0
 89 90  1  0
 89 88  1  0
 91 94  1  1
 91 92  1  0
 93 91  1  0
M  ISO  4  12 100  13 100  53 101  54 101
M  END
>  <TORSDO>  (88) 
F 21

>  <SCORE>  (88) 
-13.850

>  <name>  (88) 
87

>  <ligand_id>  (88) 
87

>  <original_smiles>  (88) 
[H]OC(=C([H])C(=O)N([H])c1sc(C([H])([H])[H])c(C([H])=NC(=O)N2C([H])([H])C([H])([H])C([H])([H])C([H])(n3nc(-c4c([H])c([H])c(Oc5c([H])c([H])c(F)c([H])c5F)c([H])c4[H])c(C(=O)N([H])[H])c3N([H])[H])C2([H])[H])c1[H])C([H])([H])Oc1c([H])c([H])c2c(c1[H])C([H])([H])N(C(=O)C([H])(N([H])C(=O)C([H])(N([H])C([H])([H])[H])C([H])([H])[H])C(C([H])([H])[H])(C([H])([H])[H])C([H])([H])[H])C([H])(C(=O)N([H])C1([H])c3c([H])c([H])c([H])c([H])c3C([H])([H])C([H])([H])C1([H])[H])C2([H])[H]

>  <smiles>  (88) 
[H]OC(=C([H])C(=O)N([H])c1sc(C([H])([H])[H])c(C([H])=NC(=O)N2C([H])([H])C([H])([H])C([H])([H])C([H])(n3nc(-c4c([H])c([H])c(Oc5c([H])c([H])c(F)c([H])c5F)c([H])c4[H])c(C(=O)N([H])[H])c3N([H])[H])C2([H])[H])c1[H])C([H])([H])Oc1c([H])c([H])c2c(c1[H])C([H])([H])N(C(=O)C([H])(N([H])C(=O)C([H])(N([H])C([H])([H])[H])C([H])([H])[H])C(C([H])([H])[H])(C([H])([H])[H])C([H])([H])[H])C([H])(C(=O)N([H])C1([H])c3c([H])c([H])c([H])c([H])c3C([H])([H])C([H])([H])C1([H])[H])C2([H])[H]

$$$$
88:0:0
     RDKit          3D

 98106  0  0  1  0  0  0  0  0999 V2000
  -29.3680  -20.8190   19.5420 C   0  0  0  0  0  0  0  0  0  0  0  0
  -29.2010  -22.8010   21.2190 C   0  0  0  0  0  0  0  0  0  0  0  0
  -29.4570  -21.4400   20.7440 N   0  0  0  0  0  0  0  0  0  0  0  0
  -28.8000  -21.4440   18.5010 N   0  0  0  0  0  4  0  0  0  0  0  0
  -29.3350  -22.9450   22.4350 O   0  0  0  0  0  0  0  0  0  0  0  0
  -29.7510  -20.7530   21.4240 H   0  0  0  0  0  0  0  0  0  0  0  0
  -28.2800  -22.2980   18.6080 H   0  0  0  0  0  0  0  0  0  0  0  0
  -28.7860  -20.9890   17.6020 H   0  0  0  0  0  0  0  0  0  0  0  0
  -30.7260  -19.3180   18.1270 C   0  0  0  0  0  3  0  0  0  0  0  0
  -31.2060  -18.0670   17.7070 C   0  0  0  0  0  3  0  0  0  0  0  0
  -29.9380  -19.4490   19.2920 C   0  0  0  0  0  0  0  0  0  0  0  0
  -30.2430  -16.9840   19.6920 C   0  0  0  0  0  0  0  0  0  0  0  0
  -30.9220  -16.9080   18.4450 C   0  0  0  0  0  0  0  0  0  0  0  0
  -29.7330  -18.2700   20.0960 C   0  0  0  0  0  0  0  0  0  0  0  0
  -31.2780  -15.7190   17.9000 F   0  0  0  0  0  0  0  0  0  0  0  0
  -29.0280  -18.3770   21.2500 F   0  0  0  0  0  0  0  0  0  0  0  0
  -30.7950  -14.6430   20.4160 C   0  0  0  0  0  0  0  0  0  0  0  0
  -30.5520  -12.4180   19.3840 C   0  0  0  0  0  2  0  0  0  0  0  0
  -29.6360  -12.5900   18.1530 C   0  0  0  0  0  2  0  0  0  0  0  0
  -28.1550  -12.4450   18.5570 C   0  0  0  0  0  2  0  0  0  0  0  0
  -27.7860  -13.2980   19.8030 C   0  0  0  0  0  3  0  0  0  0  0  0
  -28.8320  -13.1450   20.9330 C   0  0  0  0  0  2  0  0  0  0  0  0
  -30.1500  -13.4450   20.3640 N   0  0  0  0  0  0  0  0  0  0  0  0
  -32.0040  -14.7340   20.1940 O   0  0  0  0  0  0  0  0  0  0  0  0
  -30.0160  -15.7640   20.4600 N   0  0  0  0  0  0  0  0  0  0  0  0
  -29.0910  -15.6640   20.8460 H   0  0  0  0  0  0  0  0  0  0  0  0
  -25.3760  -13.8900   20.4740 C   0  0  0  0  0  0  0  0  0  0  0  0
  -24.3060  -13.1120   20.8330 C   0  0  0  0  0  0  0  0  0  0  0  0
  -24.7780  -11.7640   20.8230 C   0  0  0  0  0  0  0  0  0  0  0  0
  -26.4300  -13.0150   20.2710 N   0  0  0  0  0  0  0  0  0  0  0  0
  -26.0760  -11.7320   20.5430 N   0  0  0  0  0  0  0  0  0  0  0  0
  -24.0560  -10.4970   21.0100 C   0  0  0  0  0  0  0  0  0  0  0  0
  -24.4710   -9.5500   21.9730 C   0  0  0  0  0  3  0  0  0  0  0  0
  -23.7510   -8.3490   22.1500 C   0  0  0  0  0  3  0  0  0  0  0  0
  -22.6030   -8.0850   21.3640 C   0  0  0  0  0  0  0  0  0  0  0  0
  -22.2090   -9.0220   20.3930 C   0  0  0  0  0  3  0  0  0  0  0  0
  -22.9290  -10.2140   20.2140 C   0  0  0  0  0  3  0  0  0  0  0  0
  -21.8580   -6.9320   21.4470 O   0  0  0  0  0  0  0  0  0  0  0  0
  -21.7700   -6.2170   22.6140 C   0  0  0  0  0  0  0  0  0  0  0  0
  -21.2630   -6.7880   23.8010 C   0  0  0  0  0  3  0  0  0  0  0  0
  -21.1220   -5.9960   24.9590 C   0  0  0  0  0  3  0  0  0  0  0  0
  -21.4790   -4.6340   24.9290 C   0  0  0  0  0  0  0  0  0  0  0  0
  -21.9810   -4.0640   23.7470 C   0  0  0  0  0  3  0  0  0  0  0  0
  -22.1240   -4.8530   22.5910 C   0  0  0  0  0  0  0  0  0  0  0  0
  -22.5860   -4.2930   21.4470 F   0  0  0  0  0  0  0  0  0  0  0  0
  -21.3380   -3.8710   26.0390 F   0  0  0  0  0  0  0  0  0  0  0  0
  -22.9010  -13.5820   21.0690 C   0  0  0  0  0  0  0  0  0  0  0  0
  -22.1610  -12.8860   21.9270 N   0  0  0  0  0  0  0  0  0  0  0  0
  -22.4650  -14.5950   20.5240 O   0  0  0  0  0  0  0  0  0  0  0  0
  -22.5300  -12.0650   22.3840 H   0  0  0  0  0  0  0  0  0  0  0  0
  -21.2170  -13.1800   22.1300 H   0  0  0  0  0  0  0  0  0  0  0  0
  -25.5340  -15.2580   20.2830 N   0  0  0  0  0  0  0  0  0  0  0  0
  -24.7590  -15.9080   20.3530 H   0  0  0  0  0  0  0  0  0  0  0  0
  -26.3790  -15.6960   19.9380 H   0  0  0  0  0  0  0  0  0  0  0  0
  -28.9030  -24.0520   20.2960 C   0  0  0  0  0  2  0  0  0  0  0  0
  -28.4330  -25.6660   22.3910 C   0  0  0  0  0  1  0  0  0  0  0  0
  -28.1190  -25.2960   20.9240 C   0  0  0  0  0  3  0  0  0  0  0  0
  -28.2580  -26.5610   20.1870 O   0  0  0  0  0  0  0  0  0  0  0  0
  -24.5380  -31.9010   23.2500 C   0  0  0  0  0  0  0  0  0  0  0  0
  -27.1390  -27.3880   20.1770 C   0  0  0  0  0  0  0  0  0  0  0  0
  -23.3270  -30.5010   21.6170 C   0  0  0  0  0  3  0  0  0  0  0  0
  -24.7680  -28.9570   20.1860 C   0  0  0  0  0  0  0  0  0  0  0  0
  -25.8590  -30.8410   21.4120 C   0  0  0  0  0  2  0  0  0  0  0  0
  -25.9410  -29.4680   20.7610 C   0  0  0  0  0  0  0  0  0  0  0  0
  -27.1350  -28.6940   20.7450 C   0  0  0  0  0  3  0  0  0  0  0  0
  -25.9490  -26.9160   19.5880 C   0  0  0  0  0  3  0  0  0  0  0  0
  -24.7730  -27.6870   19.5890 C   0  0  0  0  0  3  0  0  0  0  0  0
  -23.5280  -29.8220   20.2400 C   0  0  0  0  0  2  0  0  0  0  0  0
  -24.5940  -31.0930   22.1520 N   0  0  0  0  0  0  0  0  0  0  0  0
  -23.4580  -32.1780   23.7910 O   0  0  0  0  0  0  0  0  0  0  0  0
  -22.6720  -29.4830   22.5800 C   0  0  0  0  0  0  0  0  0  0  0  0
  -21.3450  -29.2990   22.4530 N   0  0  0  0  0  0  0  0  0  0  0  0
  -23.3540  -28.8610   23.4000 O   0  0  0  0  0  0  0  0  0  0  0  0
  -20.8570  -29.8430   21.7560 H   0  0  0  0  0  0  0  0  0  0  0  0
  -17.9690  -28.1160   22.9630 C   0  0  0  0  0  0  0  0  0  0  0  0
  -20.5260  -28.3670   23.2290 C   0  0  0  0  0  3  0  0  0  0  0  0
  -20.6240  -26.9360   22.6490 C   0  0  0  0  0  2  0  0  0  0  0  0
  -19.5180  -26.6200   21.6380 C   0  0  0  0  0  2  0  0  0  0  0  0
  -18.1390  -26.7660   22.2860 C   0  0  0  0  0  2  0  0  0  0  0  0
  -19.0900  -28.8750   23.3890 C   0  0  0  0  0  0  0  0  0  0  0  0
  -18.8720  -30.1400   23.9790 C   0  0  0  0  0  3  0  0  0  0  0  0
  -17.5680  -30.6440   24.1430 C   0  0  0  0  0  3  0  0  0  0  0  0
  -16.4620  -29.8800   23.7340 C   0  0  0  0  0  3  0  0  0  0  0  0
  -16.6630  -28.6160   23.1510 C   0  0  0  0  0  3  0  0  0  0  0  0
  -25.8250  -32.5320   23.8660 C   0  0  0  0  0  3  0  0  0  0  0  0
  -26.3380  -31.7650   25.1460 C   0  0  1  0  0  0  0  0  0  0  0  0
  -25.2400  -31.5330   26.2110 C   0  0  0  0  0  1  0  0  0  0  0  0
  -26.9120  -30.3830   24.7600 C   0  0  0  0  0  1  0  0  0  0  0  0
  -27.4990  -32.5530   25.7990 C   0  0  0  0  0  1  0  0  0  0  0  0
  -25.5260  -33.9340   24.1870 N   0  0  0  0  0  0  0  0  0  0  0  0
  -25.8790  -34.9780   23.4250 C   0  0  0  0  0  0  0  0  0  0  0  0
  -26.5590  -34.8590   22.4010 O   0  0  0  0  0  0  0  0  0  0  0  0
  -24.9200  -34.1020   24.9780 H   0  0  0  0  0  0  0  0  0  0  0  0
  -24.1860  -36.7900   23.0180 C   0  0  0  0  0  1  0  0  0  0  0  0
  -25.4000  -36.3750   23.8650 C   0  0  0  0  0  3  0  0  0  0  0  0
  -27.5220  -37.2270   24.7600 C   0  0  0  0  0  1  0  0  0  0  0  0
  -26.4550  -37.4110   23.7800 N   0  0  0  0  0  0  0  0  0  0  0  0
  -26.0610  -38.3400   23.9130 H   0  0  0  0  0  0  0  0  0  0  0  0
  1  3  1  0
  2  5  2  0
  3  2  1  0
  3  6  1  0
  4  7  1  0
  4  1  2  0
  8  4  1  0
  9 11  1  0
 10  9  2  0
 10 13  1  0
 11  1  1  0
 11 14  2  0
 12 14  1  0
 12 25  1  0
 13 12  2  0
 14 16  1  0
 15 13  1  0
 17 25  1  0
 18 23  1  0
 19 20  1  0
 19 18  1  0
 21 20  1  0
 21 30  1  0
 21 22  1  0
 23 17  1  0
 23 22  1  0
 24 17  2  0
 25 26  1  0
 27 28  2  0
 28 47  1  0
 29 28  1  0
 29 32  1  0
 30 27  1  0
 30 31  1  0
 31 29  2  0
 32 33  1  0
 33 34  2  0
 35 38  1  0
 35 34  1  0
 36 35  2  0
 37 36  1  0
 37 32  2  0
 38 39  1  0
 39 40  1  0
 40 41  2  0
 42 41  1  0
 42 46  1  0
 43 42  2  0
 44 39  2  0
 44 43  1  0
 45 44  1  0
 47 48  1  0
 48 51  1  0
 48 50  1  0
 49 47  2  0
 52 53  1  0
 52 27  1  0
 54 52  1  0
 55 57  1  0
 55  2  1  0
 57 56  1  0
 58 57  1  0
 59 70  2  0
 60 58  1  0
 60 65  1  0
 61 69  1  0
 61 71  1  0
 62 68  1  0
 62 64  1  0
 63 69  1  0
 64 63  1  0
 65 64  2  0
 66 67  1  0
 66 60  2  0
 67 62  2  0
 68 61  1  0
 69 59  1  0
 71 73  2  0
 72 71  1  0
 74 72  1  0
 75 84  2  0
 75 80  1  0
 76 72  1  0
 76 80  1  0
 77 76  1  0
 78 79  1  0
 78 77  1  0
 79 75  1  0
 80 81  2  0
 81 82  1  0
 83 82  2  0
 84 83  1  0
 85 59  1  0
 85 90  1  0
 85 86  1  0
 86 89  1  1
 86 87  1  0
 88 86  1  0
 90 93  1  0
 91 95  1  0
 91 90  1  0
 92 91  2  0
 95 94  1  0
 97 95  1  0
 97 98  1  0
 97 96  1  0
M  ISO  4  17 100  25 100  57 101  58 101
M  END
>  <TORSDO>  (89) 
F 19

>  <SCORE>  (89) 
-14.353

>  <name>  (89) 
88

>  <ligand_id>  (89) 
88

>  <original_smiles>  (89) 
[H]c1c([H])c([H])c2c(c1[H])C([H])([H])C([H])([H])C([H])([H])C2([H])N([H])C(=O)C1([H])N(C(=O)C([H])(N([H])C(=O)C([H])(N([H])C([H])([H])[H])C([H])([H])[H])C(C([H])([H])[H])(C([H])([H])[H])C([H])([H])[H])C([H])([H])c2c([H])c(OC([H])(C([H])([H])[H])C([H])([H])C(=O)N([H])C(c3c([H])c([H])c(F)c(N([H])C(=O)N4C([H])([H])C([H])([H])C([H])([H])C([H])(n5nc(-c6c([H])c([H])c(Oc7c([H])c([H])c(F)c([H])c7F)c([H])c6[H])c(C(=O)N([H])[H])c5N([H])[H])C4([H])[H])c3F)=[N+]([H])[H])c([H])c([H])c2C1([H])[H]

>  <smiles>  (89) 
[H]c1c([H])c([H])c2c(c1[H])C([H])([H])C([H])([H])C([H])([H])C2([H])N([H])C(=O)C1([H])N(C(=O)C([H])(N([H])C(=O)C([H])(N([H])C([H])([H])[H])C([H])([H])[H])C(C([H])([H])[H])(C([H])([H])[H])C([H])([H])[H])C([H])([H])c2c([H])c(OC([H])(C([H])([H])[H])C([H])([H])C(=O)N([H])C(c3c([H])c([H])c(F)c(N([H])C(=O)N4C([H])([H])C([H])([H])C([H])([H])C([H])(n5nc(-c6c([H])c([H])c(Oc7c([H])c([H])c(F)c([H])c7F)c([H])c6[H])c(C(=O)N([H])[H])c5N([H])[H])C4([H])[H])c3F)=[N+]([H])[H])c([H])c([H])c2C1([H])[H]

$$$$
89:0:0
     RDKit          3D

 93101  0  0  1  0  0  0  0  0999 V2000
  -30.7940  -18.0950   21.5860 C   0  0  0  0  0  3  0  0  0  0  0  0
  -29.9450  -17.6200   20.6110 C   0  0  0  0  0  0  0  0  0  0  0  0
  -29.5520  -20.0490   20.5100 C   0  0  0  0  0  0  0  0  0  0  0  0
  -29.0540  -22.7260   20.4480 C   0  0  0  0  0  0  0  0  0  0  0  0
  -29.2480  -18.7750   20.0190 N   0  0  0  0  0  0  0  0  0  0  0  0
  -29.0700  -21.3860   19.9810 N   0  0  0  0  0  0  0  0  0  0  0  0
  -29.2490  -22.9810   21.6390 O   0  0  0  0  0  0  0  0  0  0  0  0
  -30.7440  -19.8610   21.8010 S   0  0  0  0  0  0  0  0  0  0  0  0
  -28.7560  -21.3520   19.0210 H   0  0  0  0  0  0  0  0  0  0  0  0
  -30.5280  -14.9730   20.3470 C   0  0  0  0  0  0  0  0  0  0  0  0
  -30.3810  -12.6530   19.3480 C   0  0  0  0  0  2  0  0  0  0  0  0
  -29.4310  -12.6540   18.1280 C   0  0  0  0  0  2  0  0  0  0  0  0
  -27.9690  -12.4520   18.5730 C   0  0  0  0  0  2  0  0  0  0  0  0
  -27.5820  -13.3550   19.7730 C   0  0  0  0  0  3  0  0  0  0  0  0
  -28.6510  -13.3230   20.8860 C   0  0  0  0  0  2  0  0  0  0  0  0
  -29.9200  -13.7260   20.2670 N   0  0  0  0  0  0  0  0  0  0  0  0
  -31.7420  -15.0370   20.1200 O   0  0  0  0  0  0  0  0  0  0  0  0
  -29.7170  -16.1340   20.3820 N   0  0  0  0  0  0  0  0  0  0  0  0
  -28.7470  -15.9050   20.2430 H   0  0  0  0  0  0  0  0  0  0  0  0
  -25.2080  -13.9440   20.5300 C   0  0  0  0  0  0  0  0  0  0  0  0
  -24.1420  -13.1730   20.9030 C   0  0  0  0  0  0  0  0  0  0  0  0
  -24.6010  -11.8200   20.8620 C   0  0  0  0  0  0  0  0  0  0  0  0
  -26.2460  -13.0620   20.2770 N   0  0  0  0  0  0  0  0  0  0  0  0
  -25.8900  -11.7790   20.5440 N   0  0  0  0  0  0  0  0  0  0  0  0
  -23.8690  -10.5600   21.0500 C   0  0  0  0  0  0  0  0  0  0  0  0
  -24.2990   -9.5860   21.9780 C   0  0  0  0  0  3  0  0  0  0  0  0
  -23.5670   -8.3910   22.1530 C   0  0  0  0  0  3  0  0  0  0  0  0
  -22.3900   -8.1650   21.4000 C   0  0  0  0  0  0  0  0  0  0  0  0
  -21.9800   -9.1280   20.4600 C   0  0  0  0  0  3  0  0  0  0  0  0
  -22.7130  -10.3120   20.2840 C   0  0  0  0  0  3  0  0  0  0  0  0
  -21.6300   -7.0230   21.4850 O   0  0  0  0  0  0  0  0  0  0  0  0
  -21.5780   -6.2770   22.6340 C   0  0  0  0  0  0  0  0  0  0  0  0
  -21.1510   -6.8280   23.8630 C   0  0  0  0  0  3  0  0  0  0  0  0
  -21.0450   -6.0080   25.0030 C   0  0  0  0  0  3  0  0  0  0  0  0
  -21.3570   -4.6380   24.9180 C   0  0  0  0  0  0  0  0  0  0  0  0
  -21.7770   -4.0860   23.6950 C   0  0  0  0  0  3  0  0  0  0  0  0
  -21.8840   -4.9030   22.5550 C   0  0  0  0  0  0  0  0  0  0  0  0
  -22.2690   -4.3620   21.3740 F   0  0  0  0  0  0  0  0  0  0  0  0
  -21.2500   -3.8480   26.0120 F   0  0  0  0  0  0  0  0  0  0  0  0
  -22.7480  -13.6550   21.1800 C   0  0  0  0  0  0  0  0  0  0  0  0
  -22.0150  -12.9590   22.0410 N   0  0  0  0  0  0  0  0  0  0  0  0
  -22.3160  -14.6880   20.6680 O   0  0  0  0  0  0  0  0  0  0  0  0
  -22.3740  -12.1240   22.4800 H   0  0  0  0  0  0  0  0  0  0  0  0
  -21.0800  -13.2690   22.2680 H   0  0  0  0  0  0  0  0  0  0  0  0
  -25.3720  -15.3160   20.3590 N   0  0  0  0  0  0  0  0  0  0  0  0
  -24.6040  -15.9660   20.4840 H   0  0  0  0  0  0  0  0  0  0  0  0
  -26.2080  -15.7620   20.0060 H   0  0  0  0  0  0  0  0  0  0  0  0
  -28.7980  -23.8090   19.3860 C   0  0  0  0  0  0  0  0  0  0  0  0
  -28.5410  -25.2190   19.3540 C   0  0  0  0  0  0  0  0  0  0  0  0
  -28.5360  -25.8800   17.9670 C   0  0  0  0  0  1  0  0  0  0  0  0
  -28.8730  -23.2650   18.1580 O   0  0  0  0  0  0  0  0  0  0  0  0
  -28.7560  -23.9760   17.5410 H   0  0  0  0  0  0  0  0  0  0  0  0
  -28.3350  -26.2770   20.3190 O   0  0  0  0  0  0  0  0  0  0  0  0
  -24.6110  -31.9050   23.2310 C   0  0  0  0  0  0  0  0  0  0  0  0
  -27.2680  -27.2450   20.2270 C   0  0  0  0  0  0  0  0  0  0  0  0
  -23.4330  -30.4900   21.5920 C   0  0  0  0  0  3  0  0  0  0  0  0
  -24.9070  -28.9360   20.1790 C   0  0  0  0  0  0  0  0  0  0  0  0
  -25.9840  -30.7950   21.4360 C   0  0  0  0  0  2  0  0  0  0  0  0
  -26.0780  -29.4070   20.7860 C   0  0  0  0  0  0  0  0  0  0  0  0
  -27.2590  -28.5780   20.7940 C   0  0  0  0  0  3  0  0  0  0  0  0
  -26.0540  -26.8510   19.6180 C   0  0  0  0  0  3  0  0  0  0  0  0
  -24.9040  -27.6670   19.5810 C   0  0  0  0  0  3  0  0  0  0  0  0
  -23.6680  -29.8150   20.2150 C   0  0  0  0  0  2  0  0  0  0  0  0
  -24.6950  -31.0830   22.1430 N   0  0  0  0  0  0  0  0  0  0  0  0
  -23.5190  -32.1800   23.7520 O   0  0  0  0  0  0  0  0  0  0  0  0
  -22.7620  -29.4770   22.5520 C   0  0  0  0  0  0  0  0  0  0  0  0
  -21.4360  -29.2980   22.4230 N   0  0  0  0  0  0  0  0  0  0  0  0
  -23.4360  -28.8570   23.3770 O   0  0  0  0  0  0  0  0  0  0  0  0
  -20.9470  -29.8500   21.7320 H   0  0  0  0  0  0  0  0  0  0  0  0
  -18.0580  -28.0930   22.9290 C   0  0  0  0  0  0  0  0  0  0  0  0
  -20.6170  -28.3600   23.1930 C   0  0  0  0  0  3  0  0  0  0  0  0
  -20.7200  -26.9280   22.6170 C   0  0  0  0  0  2  0  0  0  0  0  0
  -19.6170  -26.6040   21.6040 C   0  0  0  0  0  2  0  0  0  0  0  0
  -18.2350  -26.7450   22.2500 C   0  0  0  0  0  2  0  0  0  0  0  0
  -19.1750  -28.8580   23.3580 C   0  0  0  0  0  0  0  0  0  0  0  0
  -18.9540  -30.1160   23.9560 C   0  0  0  0  0  3  0  0  0  0  0  0
  -17.6490  -30.6150   24.1260 C   0  0  0  0  0  3  0  0  0  0  0  0
  -16.5450  -29.8480   23.7130 C   0  0  0  0  0  3  0  0  0  0  0  0
  -16.7500  -28.5880   23.1220 C   0  0  0  0  0  3  0  0  0  0  0  0
  -25.8790  -32.5550   23.8640 C   0  0  0  0  0  3  0  0  0  0  0  0
  -25.5540  -33.9550   24.1780 N   0  0  0  0  0  0  0  0  0  0  0  0
  -25.8920  -35.0070   23.4200 C   0  0  0  0  0  0  0  0  0  0  0  0
  -26.5770  -34.9010   22.3990 O   0  0  0  0  0  0  0  0  0  0  0  0
  -24.9490  -34.1120   24.9690 H   0  0  0  0  0  0  0  0  0  0  0  0
  -24.1710  -36.8000   23.0250 C   0  0  0  0  0  1  0  0  0  0  0  0
  -25.3940  -36.3970   23.8640 C   0  0  0  0  0  3  0  0  0  0  0  0
  -27.5070  -37.2880   24.7440 C   0  0  0  0  0  1  0  0  0  0  0  0
  -26.4280  -37.4500   23.7720 N   0  0  0  0  0  0  0  0  0  0  0  0
  -26.0180  -38.3700   23.9050 H   0  0  0  0  0  0  0  0  0  0  0  0
  -26.3820  -31.8030   25.1570 C   0  0  1  0  0  0  0  0  0  0  0  0
  -25.2740  -31.5750   26.2140 C   0  0  0  0  0  1  0  0  0  0  0  0
  -26.9780  -30.4220   24.7970 C   0  0  0  0  0  1  0  0  0  0  0  0
  -27.5170  -32.6120   25.8260 C   0  0  0  0  0  1  0  0  0  0  0  0
  1  8  1  0
  2  1  2  0
  3  8  1  0
  4  7  2  0
  5  3  2  0
  5  2  1  0
  6  4  1  0
  6  3  1  0
  9  6  1  0
 10 18  1  0
 11 16  1  0
 12 13  1  0
 12 11  1  0
 14 13  1  0
 14 23  1  0
 14 15  1  0
 16 10  1  0
 16 15  1  0
 17 10  2  0
 18  2  1  0
 19 18  1  0
 20 21  2  0
 21 40  1  0
 22 21  1  0
 22 25  1  0
 23 20  1  0
 23 24  1  0
 24 22  2  0
 25 26  1  0
 26 27  2  0
 28 31  1  0
 28 27  1  0
 29 28  2  0
 30 29  1  0
 30 25  2  0
 31 32  1  0
 32 33  1  0
 33 34  2  0
 35 34  1  0
 35 39  1  0
 36 35  2  0
 37 32  2  0
 37 36  1  0
 38 37  1  0
 40 41  1  0
 41 44  1  0
 41 43  1  0
 42 40  2  0
 45 46  1  0
 45 20  1  0
 47 45  1  0
 48  4  1  0
 49 48  2  0
 49 53  1  0
 50 49  1  0
 51 48  1  0
 52 51  1  0
 54 65  2  0
 55 53  1  0
 55 60  1  0
 56 64  1  0
 56 66  1  0
 57 63  1  0
 57 59  1  0
 58 64  1  0
 59 60  2  0
 59 58  1  0
 61 55  2  0
 62 61  1  0
 62 57  2  0
 63 56  1  0
 64 54  1  0
 66 68  2  0
 67 66  1  0
 69 67  1  0
 70 79  2  0
 70 75  1  0
 71 67  1  0
 71 75  1  0
 72 71  1  0
 73 74  1  0
 73 72  1  0
 74 70  1  0
 75 76  2  0
 76 77  1  0
 78 77  2  0
 79 78  1  0
 80 54  1  0
 80 81  1  0
 80 90  1  0
 81 84  1  0
 82 86  1  0
 82 81  1  0
 83 82  2  0
 86 85  1  0
 88 86  1  0
 88 89  1  0
 88 87  1  0
 90 93  1  1
 90 91  1  0
 92 90  1  0
M  ISO  4  10 100  18 100  49 101  53 101
M  END
>  <TORSDO>  (90) 
F 18

>  <SCORE>  (90) 
-14.913

>  <name>  (90) 
89

>  <ligand_id>  (90) 
89

>  <original_smiles>  (90) 
[H]OC(C(=O)N([H])c1nc(N([H])C(=O)N2C([H])([H])C([H])([H])C([H])([H])C([H])(n3nc(-c4c([H])c([H])c(Oc5c([H])c([H])c(F)c([H])c5F)c([H])c4[H])c(C(=O)N([H])[H])c3N([H])[H])C2([H])[H])c([H])s1)=C(Oc1c([H])c([H])c2c(c1[H])C([H])([H])N(C(=O)C([H])(N([H])C(=O)C([H])(N([H])C([H])([H])[H])C([H])([H])[H])C(C([H])([H])[H])(C([H])([H])[H])C([H])([H])[H])C([H])(C(=O)N([H])C1([H])c3c([H])c([H])c([H])c([H])c3C([H])([H])C([H])([H])C1([H])[H])C2([H])[H])C([H])([H])[H]

>  <smiles>  (90) 
[H]OC(C(=O)N([H])c1nc(N([H])C(=O)N2C([H])([H])C([H])([H])C([H])([H])C([H])(n3nc(-c4c([H])c([H])c(Oc5c([H])c([H])c(F)c([H])c5F)c([H])c4[H])c(C(=O)N([H])[H])c3N([H])[H])C2([H])[H])c([H])s1)=C(Oc1c([H])c([H])c2c(c1[H])C([H])([H])N(C(=O)C([H])(N([H])C(=O)C([H])(N([H])C([H])([H])[H])C([H])([H])[H])C(C([H])([H])[H])(C([H])([H])[H])C([H])([H])[H])C([H])(C(=O)N([H])C1([H])c3c([H])c([H])c([H])c([H])c3C([H])([H])C([H])([H])C1([H])[H])C2([H])[H])C([H])([H])[H]

$$$$
90:0:0
     RDKit          3D

 95103  0  0  1  0  0  0  0  0999 V2000
  -28.8560  -23.1580   20.0290 C   0  0  0  0  0  0  0  0  0  0  0  0
  -28.8290  -21.8160   20.3400 N   0  0  0  0  0  0  0  0  0  0  0  0
  -29.4560  -23.6150   19.0530 O   0  0  0  0  0  0  0  0  0  0  0  0
  -28.3430  -21.6360   21.2080 H   0  0  0  0  0  0  0  0  0  0  0  0
  -29.9250  -20.6790   18.4240 C   0  0  0  0  0  3  0  0  0  0  0  0
  -29.3340  -20.6310   19.6610 C   0  0  0  0  0  0  0  0  0  0  0  0
  -29.2670  -19.2650   20.1980 C   0  0  0  0  0  0  0  0  0  0  0  0
  -29.8490  -18.3050   19.3610 C   0  0  0  0  0  0  0  0  0  0  0  0
  -30.3960  -19.0930   17.8880 S   0  0  0  0  0  0  0  0  0  0  0  0
  -28.6910  -19.0110   21.4560 N   0  0  0  0  0  0  0  0  0  0  0  0
  -27.9830  -19.6410   21.8110 H   0  0  0  0  0  0  0  0  0  0  0  0
  -28.4600  -18.0430   21.6670 H   0  0  0  0  0  0  0  0  0  0  0  0
  -30.1830  -16.8350   19.3940 C   0  0  0  0  0  2  0  0  0  0  0  0
  -29.9490  -15.8450   20.2150 N   0  0  0  0  0  2  0  0  0  0  0  0
  -30.6830  -14.6550   19.9400 C   0  0  0  0  0  0  0  0  0  0  0  0
  -30.3370  -12.4220   18.9290 C   0  0  0  0  0  2  0  0  0  0  0  0
  -29.3290  -12.5540   17.7670 C   0  0  0  0  0  2  0  0  0  0  0  0
  -27.8890  -12.3980   18.2860 C   0  0  0  0  0  2  0  0  0  0  0  0
  -27.6080  -13.2830   19.5270 C   0  0  0  0  0  3  0  0  0  0  0  0
  -28.7280  -13.1680   20.5770 C   0  0  0  0  0  2  0  0  0  0  0  0
  -30.0050  -13.4660   19.9200 N   0  0  0  0  0  0  0  0  0  0  0  0
  -31.8490  -14.6760   19.5390 O   0  0  0  0  0  0  0  0  0  0  0  0
  -25.2850  -13.8820   20.4320 C   0  0  0  0  0  0  0  0  0  0  0  0
  -24.2350  -13.1050   20.8530 C   0  0  0  0  0  0  0  0  0  0  0  0
  -24.6850  -11.7520   20.7610 C   0  0  0  0  0  0  0  0  0  0  0  0
  -26.2980  -12.9990   20.1060 N   0  0  0  0  0  0  0  0  0  0  0  0
  -25.9500  -11.7130   20.3660 N   0  0  0  0  0  0  0  0  0  0  0  0
  -23.9630  -10.4870   20.9670 C   0  0  0  0  0  0  0  0  0  0  0  0
  -24.4270   -9.5090   21.8760 C   0  0  0  0  0  3  0  0  0  0  0  0
  -23.7030   -8.3120   22.0700 C   0  0  0  0  0  3  0  0  0  0  0  0
  -22.5040   -8.0840   21.3520 C   0  0  0  0  0  0  0  0  0  0  0  0
  -22.0610   -9.0500   20.4310 C   0  0  0  0  0  3  0  0  0  0  0  0
  -22.7860  -10.2380   20.2370 C   0  0  0  0  0  3  0  0  0  0  0  0
  -21.7520   -6.9390   21.4520 O   0  0  0  0  0  0  0  0  0  0  0  0
  -21.7090   -6.2090   22.6120 C   0  0  0  0  0  0  0  0  0  0  0  0
  -21.2860   -6.7740   23.8350 C   0  0  0  0  0  3  0  0  0  0  0  0
  -21.1920   -5.9690   24.9860 C   0  0  0  0  0  3  0  0  0  0  0  0
  -21.5090   -4.5990   24.9170 C   0  0  0  0  0  0  0  0  0  0  0  0
  -21.9250   -4.0320   23.6980 C   0  0  0  0  0  3  0  0  0  0  0  0
  -22.0210   -4.8350   22.5480 C   0  0  0  0  0  0  0  0  0  0  0  0
  -22.4020   -4.2810   21.3720 F   0  0  0  0  0  0  0  0  0  0  0  0
  -21.4100   -3.8230   26.0210 F   0  0  0  0  0  0  0  0  0  0  0  0
  -22.8620  -13.5850   21.2270 C   0  0  0  0  0  0  0  0  0  0  0  0
  -22.1900  -12.8690   22.1230 N   0  0  0  0  0  0  0  0  0  0  0  0
  -22.3990  -14.6270   20.7670 O   0  0  0  0  0  0  0  0  0  0  0  0
  -22.5830  -12.0220   22.5050 H   0  0  0  0  0  0  0  0  0  0  0  0
  -21.2770  -13.1690   22.4260 H   0  0  0  0  0  0  0  0  0  0  0  0
  -25.4540  -15.2530   20.2770 N   0  0  0  0  0  0  0  0  0  0  0  0
  -24.7100  -15.9230   20.4410 H   0  0  0  0  0  0  0  0  0  0  0  0
  -26.3010  -15.6830   19.9270 H   0  0  0  0  0  0  0  0  0  0  0  0
  -27.9150  -25.3460   21.0520 C   0  0  0  0  0  3  0  0  0  0  0  0
  -28.0890  -23.9820   20.9990 C   0  0  0  0  0  0  0  0  0  0  0  0
  -27.4460  -23.2910   21.9620 O   0  0  0  0  0  0  0  0  0  0  0  0
  -26.9030  -23.9030   22.4420 H   0  0  0  0  0  0  0  0  0  0  0  0
  -28.3170  -26.4410   20.2720 O   0  0  0  0  0  0  0  0  0  0  0  0
  -24.6190  -31.8540   23.2190 C   0  0  0  0  0  0  0  0  0  0  0  0
  -27.2900  -27.3780   20.1380 C   0  0  0  0  0  0  0  0  0  0  0  0
  -23.4440  -30.4680   21.5470 C   0  0  0  0  0  3  0  0  0  0  0  0
  -24.9240  -28.9540   20.1160 C   0  0  0  0  0  0  0  0  0  0  0  0
  -25.9810  -30.8180   21.3920 C   0  0  0  0  0  2  0  0  0  0  0  0
  -26.0820  -29.4520   20.7290 C   0  0  0  0  0  0  0  0  0  0  0  0
  -27.2760  -28.6710   20.7370 C   0  0  0  0  0  3  0  0  0  0  0  0
  -26.1250  -26.9340   19.4860 C   0  0  0  0  0  3  0  0  0  0  0  0
  -24.9460  -27.7000   19.4860 C   0  0  0  0  0  3  0  0  0  0  0  0
  -23.6760  -29.8080   20.1660 C   0  0  0  0  0  2  0  0  0  0  0  0
  -24.7000  -31.0600   22.1110 N   0  0  0  0  0  0  0  0  0  0  0  0
  -23.5250  -32.1150   23.7440 O   0  0  0  0  0  0  0  0  0  0  0  0
  -22.7750  -29.4370   22.4880 C   0  0  0  0  0  0  0  0  0  0  0  0
  -21.4550  -29.2430   22.3290 N   0  0  0  0  0  0  0  0  0  0  0  0
  -23.4410  -28.8150   23.3180 O   0  0  0  0  0  0  0  0  0  0  0  0
  -20.9770  -29.7920   21.6260 H   0  0  0  0  0  0  0  0  0  0  0  0
  -18.0840  -27.9920   22.7370 C   0  0  0  0  0  0  0  0  0  0  0  0
  -20.6290  -28.2910   23.0760 C   0  0  0  0  0  3  0  0  0  0  0  0
  -20.7720  -26.8610   22.5070 C   0  0  0  0  0  2  0  0  0  0  0  0
  -19.7060  -26.5190   21.4630 C   0  0  0  0  0  2  0  0  0  0  0  0
  -18.3020  -26.6440   22.0670 C   0  0  0  0  0  2  0  0  0  0  0  0
  -19.1790  -28.7710   23.1980 C   0  0  0  0  0  0  0  0  0  0  0  0
  -18.9260  -30.0310   23.7810 C   0  0  0  0  0  3  0  0  0  0  0  0
  -17.6120  -30.5160   23.9090 C   0  0  0  0  0  3  0  0  0  0  0  0
  -16.5300  -29.7320   23.4690 C   0  0  0  0  0  3  0  0  0  0  0  0
  -16.7660  -28.4710   22.8910 C   0  0  0  0  0  3  0  0  0  0  0  0
  -25.8890  -32.4880   23.8630 C   0  0  0  0  0  3  0  0  0  0  0  0
  -25.5710  -33.8840   24.1910 N   0  0  0  0  0  0  0  0  0  0  0  0
  -25.9050  -34.9400   23.4370 C   0  0  0  0  0  0  0  0  0  0  0  0
  -26.5890  -34.8420   22.4150 O   0  0  0  0  0  0  0  0  0  0  0  0
  -24.9680  -34.0340   24.9860 H   0  0  0  0  0  0  0  0  0  0  0  0
  -24.1740  -36.7260   23.0600 C   0  0  0  0  0  1  0  0  0  0  0  0
  -25.4020  -36.3250   23.8910 C   0  0  0  0  0  3  0  0  0  0  0  0
  -27.5180  -37.2200   24.7550 C   0  0  0  0  0  1  0  0  0  0  0  0
  -26.4290  -37.3870   23.7960 N   0  0  0  0  0  0  0  0  0  0  0  0
  -26.0110  -38.3020   23.9430 H   0  0  0  0  0  0  0  0  0  0  0  0
  -26.3830  -31.7140   25.1460 C   0  0  1  0  0  0  0  0  0  0  0  0
  -25.2740  -31.4610   26.1940 C   0  0  0  0  0  1  0  0  0  0  0  0
  -26.9820  -30.3430   24.7560 C   0  0  0  0  0  1  0  0  0  0  0  0
  -27.5240  -32.5080   25.8280 C   0  0  0  0  0  1  0  0  0  0  0  0
  1  2  1  0
  1 52  1  0
  2  4  1  0
  3  1  2  0
  5  6  2  0
  6  7  1  0
  6  2  1  0
  7 10  1  0
  8 13  1  0
  8  7  2  0
  9  5  1  0
  9  8  1  0
 10 12  1  0
 10 11  1  0
 13 14  1  0
 15 14  1  0
 16 21  1  0
 17 18  1  0
 17 16  1  0
 19 18  1  0
 19 26  1  0
 19 20  1  0
 21 15  1  0
 21 20  1  0
 22 15  2  0
 23 24  2  0
 24 43  1  0
 25 24  1  0
 25 28  1  0
 26 27  1  0
 26 23  1  0
 27 25  2  0
 28 29  1  0
 29 30  2  0
 31 34  1  0
 31 30  1  0
 32 31  2  0
 33 32  1  0
 33 28  2  0
 34 35  1  0
 35 36  1  0
 36 37  2  0
 38 37  1  0
 38 42  1  0
 39 38  2  0
 40 35  2  0
 40 39  1  0
 41 40  1  0
 43 44  1  0
 44 47  1  0
 44 46  1  0
 45 43  2  0
 48 23  1  0
 48 49  1  0
 50 48  1  0
 52 51  2  0
 52 53  1  0
 53 54  1  0
 55 51  1  0
 56 67  2  0
 57 55  1  0
 57 62  1  0
 58 66  1  0
 58 68  1  0
 59 65  1  0
 59 61  1  0
 60 66  1  0
 61 62  2  0
 61 60  1  0
 63 57  2  0
 64 63  1  0
 64 59  2  0
 65 58  1  0
 66 56  1  0
 68 70  2  0
 69 68  1  0
 71 69  1  0
 72 81  2  0
 72 77  1  0
 73 69  1  0
 73 77  1  0
 74 73  1  0
 75 76  1  0
 75 74  1  0
 76 72  1  0
 77 78  2  0
 78 79  1  0
 80 79  2  0
 81 80  1  0
 82 56  1  0
 82 83  1  0
 82 92  1  0
 83 86  1  0
 84 88  1  0
 84 83  1  0
 85 84  2  0
 88 87  1  0
 90 88  1  0
 90 91  1  0
 90 89  1  0
 92 95  1  1
 92 93  1  0
 94 92  1  0
M  ISO  4  14 100  15 100  51 101  55 101
M  END
>  <TORSDO>  (91) 
F 21

>  <SCORE>  (91) 
-13.445

>  <name>  (91) 
90

>  <ligand_id>  (91) 
90

>  <original_smiles>  (91) 
[H]OC(C(=O)N([H])c1c([H])sc(C([H])=NC(=O)N2C([H])([H])C([H])([H])C([H])([H])C([H])(n3nc(-c4c([H])c([H])c(Oc5c([H])c([H])c(F)c([H])c5F)c([H])c4[H])c(C(=O)N([H])[H])c3N([H])[H])C2([H])[H])c1N([H])[H])=C([H])Oc1c([H])c([H])c2c(c1[H])C([H])([H])N(C(=O)C([H])(N([H])C(=O)C([H])(N([H])C([H])([H])[H])C([H])([H])[H])C(C([H])([H])[H])(C([H])([H])[H])C([H])([H])[H])C([H])(C(=O)N([H])C1([H])c3c([H])c([H])c([H])c([H])c3C([H])([H])C([H])([H])C1([H])[H])C2([H])[H]

>  <smiles>  (91) 
[H]OC(C(=O)N([H])c1c([H])sc(C([H])=NC(=O)N2C([H])([H])C([H])([H])C([H])([H])C([H])(n3nc(-c4c([H])c([H])c(Oc5c([H])c([H])c(F)c([H])c5F)c([H])c4[H])c(C(=O)N([H])[H])c3N([H])[H])C2([H])[H])c1N([H])[H])=C([H])Oc1c([H])c([H])c2c(c1[H])C([H])([H])N(C(=O)C([H])(N([H])C(=O)C([H])(N([H])C([H])([H])[H])C([H])([H])[H])C(C([H])([H])[H])(C([H])([H])[H])C([H])([H])[H])C([H])(C(=O)N([H])C1([H])c3c([H])c([H])c([H])c([H])c3C([H])([H])C([H])([H])C1([H])[H])C2([H])[H]

$$$$
91:0:0
     RDKit          3D

 97105  0  0  1  0  0  0  0  0999 V2000
  -29.5540  -21.8600   20.5720 C   0  0  0  0  0  0  0  0  0  0  0  0
  -29.1050  -20.6580   20.9990 N   0  0  0  0  0  0  0  0  0  0  0  0
  -30.5030  -22.0060   19.7930 O   0  0  0  0  0  0  0  0  0  0  0  0
  -28.4500  -20.6870   21.7690 H   0  0  0  0  0  0  0  0  0  0  0  0
  -29.6010  -18.2150   21.1260 C   0  0  0  0  0  3  0  0  0  0  0  0
  -29.4340  -18.0570   18.3150 C   0  0  0  0  0  0  0  0  0  0  0  0
  -29.3450  -19.3940   20.3670 C   0  0  0  0  0  0  0  0  0  0  0  0
  -29.8120  -16.9600   20.4870 C   0  0  0  0  0  0  0  0  0  0  0  0
  -29.2350  -19.2920   18.9580 C   0  0  0  0  0  0  0  0  0  0  0  0
  -29.7260  -16.9080   19.0710 C   0  0  0  0  0  0  0  0  0  0  0  0
  -29.3020  -17.9450   16.8050 C   0  0  0  0  0  1  0  0  0  0  0  0
  -28.8860  -20.3720   18.2150 F   0  0  0  0  0  0  0  0  0  0  0  0
  -29.8620  -15.7370   18.4120 F   0  0  0  0  0  0  0  0  0  0  0  0
  -30.7880  -14.7180   20.9070 C   0  0  0  0  0  0  0  0  0  0  0  0
  -30.6590  -12.4830   19.8730 C   0  0  0  0  0  2  0  0  0  0  0  0
  -29.8110  -12.5760   18.5860 C   0  0  0  0  0  2  0  0  0  0  0  0
  -28.3020  -12.4780   18.8950 C   0  0  0  0  0  2  0  0  0  0  0  0
  -27.8550  -13.3560   20.0950 C   0  0  0  0  0  3  0  0  0  0  0  0
  -28.8200  -13.1910   21.2900 C   0  0  0  0  0  2  0  0  0  0  0  0
  -30.1790  -13.5030   20.8200 N   0  0  0  0  0  0  0  0  0  0  0  0
  -31.9580  -14.9070   20.5630 O   0  0  0  0  0  0  0  0  0  0  0  0
  -29.9850  -15.7520   21.2510 N   0  0  0  0  0  0  0  0  0  0  0  0
  -29.1670  -15.4720   21.7700 H   0  0  0  0  0  0  0  0  0  0  0  0
  -25.4030  -13.9480   20.6110 C   0  0  0  0  0  0  0  0  0  0  0  0
  -24.3170  -13.1690   20.9130 C   0  0  0  0  0  0  0  0  0  0  0  0
  -24.7950  -11.8220   20.9440 C   0  0  0  0  0  0  0  0  0  0  0  0
  -26.4720  -13.0750   20.4770 N   0  0  0  0  0  0  0  0  0  0  0  0
  -26.1060  -11.7940   20.7380 N   0  0  0  0  0  0  0  0  0  0  0  0
  -24.0730  -10.5540   21.1030 C   0  0  0  0  0  0  0  0  0  0  0  0
  -24.4450   -9.6090   22.0850 C   0  0  0  0  0  3  0  0  0  0  0  0
  -23.7230   -8.4040   22.2280 C   0  0  0  0  0  3  0  0  0  0  0  0
  -22.6160   -8.1350   21.3900 C   0  0  0  0  0  0  0  0  0  0  0  0
  -22.2640   -9.0680   20.3980 C   0  0  0  0  0  3  0  0  0  0  0  0
  -22.9860  -10.2640   20.2520 C   0  0  0  0  0  3  0  0  0  0  0  0
  -21.8730   -6.9810   21.4410 O   0  0  0  0  0  0  0  0  0  0  0  0
  -21.7410   -6.2620   22.6010 C   0  0  0  0  0  0  0  0  0  0  0  0
  -21.1830   -6.8250   23.7690 C   0  0  0  0  0  3  0  0  0  0  0  0
  -21.0020   -6.0290   24.9170 C   0  0  0  0  0  3  0  0  0  0  0  0
  -21.3680   -4.6690   24.8990 C   0  0  0  0  0  0  0  0  0  0  0  0
  -21.9180   -4.1040   23.7340 C   0  0  0  0  0  3  0  0  0  0  0  0
  -22.1010   -4.8980   22.5880 C   0  0  0  0  0  0  0  0  0  0  0  0
  -22.6110   -4.3440   21.4620 F   0  0  0  0  0  0  0  0  0  0  0  0
  -21.1870   -3.9010   25.9990 F   0  0  0  0  0  0  0  0  0  0  0  0
  -22.8980  -13.6310   21.0690 C   0  0  0  0  0  0  0  0  0  0  0  0
  -22.1150  -12.9410   21.8920 N   0  0  0  0  0  0  0  0  0  0  0  0
  -22.4870  -14.6400   20.4970 O   0  0  0  0  0  0  0  0  0  0  0  0
  -22.4580  -12.1260   22.3780 H   0  0  0  0  0  0  0  0  0  0  0  0
  -21.1580  -13.2330   22.0390 H   0  0  0  0  0  0  0  0  0  0  0  0
  -25.5670  -15.3160   20.4210 N   0  0  0  0  0  0  0  0  0  0  0  0
  -24.7870  -15.9640   20.4620 H   0  0  0  0  0  0  0  0  0  0  0  0
  -26.4350  -15.7570   20.1490 H   0  0  0  0  0  0  0  0  0  0  0  0
  -28.7950  -23.0790   21.1840 C   0  0  0  0  0  0  0  0  0  0  0  0
  -28.0370  -22.9500   22.1530 O   0  0  0  0  0  0  0  0  0  0  0  0
  -29.0120  -24.4480   20.4900 C   0  0  0  0  0  2  0  0  0  0  0  0
  -28.9670  -26.1220   22.4600 C   0  0  0  0  0  1  0  0  0  0  0  0
  -28.3170  -25.6810   21.1350 C   0  0  0  0  0  3  0  0  0  0  0  0
  -28.3660  -26.8230   20.2520 O   0  0  0  0  0  0  0  0  0  0  0  0
  -24.5390  -31.9980   23.3070 C   0  0  0  0  0  0  0  0  0  0  0  0
  -27.2150  -27.5810   20.2340 C   0  0  0  0  0  0  0  0  0  0  0  0
  -23.3440  -30.5860   21.6640 C   0  0  0  0  0  3  0  0  0  0  0  0
  -24.8110  -29.0670   20.2330 C   0  0  0  0  0  0  0  0  0  0  0  0
  -25.8640  -30.9740   21.4610 C   0  0  0  0  0  2  0  0  0  0  0  0
  -25.9650  -29.6040   20.8190 C   0  0  0  0  0  0  0  0  0  0  0  0
  -27.1740  -28.8720   20.8100 C   0  0  0  0  0  3  0  0  0  0  0  0
  -26.0500  -27.0600   19.6350 C   0  0  0  0  0  3  0  0  0  0  0  0
  -24.8480  -27.7940   19.6350 C   0  0  0  0  0  3  0  0  0  0  0  0
  -23.5570  -29.9100   20.2840 C   0  0  0  0  0  2  0  0  0  0  0  0
  -24.6010  -31.2010   22.2030 N   0  0  0  0  0  0  0  0  0  0  0  0
  -23.4560  -32.2590   23.8490 O   0  0  0  0  0  0  0  0  0  0  0  0
  -22.7030  -29.5590   22.6260 C   0  0  0  0  0  0  0  0  0  0  0  0
  -21.3840  -29.3520   22.4870 N   0  0  0  0  0  0  0  0  0  0  0  0
  -23.3920  -28.9490   23.4470 O   0  0  0  0  0  0  0  0  0  0  0  0
  -20.8880  -29.8980   21.7960 H   0  0  0  0  0  0  0  0  0  0  0  0
  -18.0260  -28.1040   22.9620 C   0  0  0  0  0  0  0  0  0  0  0  0
  -20.5770  -28.4030   23.2550 C   0  0  0  0  0  3  0  0  0  0  0  0
  -20.7060  -26.9730   22.6840 C   0  0  0  0  0  2  0  0  0  0  0  0
  -19.6190  -26.6300   21.6610 C   0  0  0  0  0  2  0  0  0  0  0  0
  -18.2300  -26.7560   22.2930 C   0  0  0  0  0  2  0  0  0  0  0  0
  -19.1290  -28.8850   23.4000 C   0  0  0  0  0  0  0  0  0  0  0  0
  -18.8860  -30.1470   23.9840 C   0  0  0  0  0  3  0  0  0  0  0  0
  -17.5730  -30.6290   24.1350 C   0  0  0  0  0  3  0  0  0  0  0  0
  -16.4830  -29.8450   23.7160 C   0  0  0  0  0  3  0  0  0  0  0  0
  -16.7110  -28.5850   23.1360 C   0  0  0  0  0  3  0  0  0  0  0  0
  -25.8200  -32.6400   23.9260 C   0  0  0  0  0  3  0  0  0  0  0  0
  -26.3280  -31.8900   25.2180 C   0  0  1  0  0  0  0  0  0  0  0  0
  -25.2270  -31.6690   26.2810 C   0  0  0  0  0  1  0  0  0  0  0  0
  -26.9170  -30.5070   24.8510 C   0  0  0  0  0  1  0  0  0  0  0  0
  -27.4710  -32.6980   25.8750 C   0  0  0  0  0  1  0  0  0  0  0  0
  -25.5090  -34.0430   24.2260 N   0  0  0  0  0  0  0  0  0  0  0  0
  -25.8660  -35.0820   23.4590 C   0  0  0  0  0  0  0  0  0  0  0  0
  -26.5600  -34.9590   22.4460 O   0  0  0  0  0  0  0  0  0  0  0  0
  -24.8930  -34.2120   25.0090 H   0  0  0  0  0  0  0  0  0  0  0  0
  -24.1710  -36.8860   23.0140 C   0  0  0  0  0  1  0  0  0  0  0  0
  -25.3730  -36.4800   23.8810 C   0  0  0  0  0  3  0  0  0  0  0  0
  -27.4790  -37.3540   24.7920 C   0  0  0  0  0  1  0  0  0  0  0  0
  -26.4200  -37.5210   23.8000 N   0  0  0  0  0  0  0  0  0  0  0  0
  -26.0170  -38.4470   23.9190 H   0  0  0  0  0  0  0  0  0  0  0  0
  1  2  1  0
  1 52  1  0
  2  4  1  0
  3  1  2  0
  6  9  2  0
  6 10  1  0
  7  2  1  0
  7  5  2  0
  8  5  1  0
  8 22  1  0
  9  7  1  0
 10  8  2  0
 11  6  1  0
 12  9  1  0
 13 10  1  0
 14 22  1  0
 15 20  1  0
 16 17  1  0
 16 15  1  0
 18 17  1  0
 18 27  1  0
 18 19  1  0
 20 14  1  0
 20 19  1  0
 21 14  2  0
 22 23  1  0
 24 25  2  0
 25 26  1  0
 25 44  1  0
 26 29  1  0
 27 24  1  0
 27 28  1  0
 28 26  2  0
 29 30  1  0
 30 31  2  0
 32 35  1  0
 32 31  1  0
 33 32  2  0
 34 33  1  0
 34 29  2  0
 35 36  1  0
 36 37  1  0
 37 38  2  0
 39 38  1  0
 39 43  1  0
 40 39  2  0
 41 36  2  0
 41 40  1  0
 42 41  1  0
 44 45  1  0
 45 48  1  0
 45 47  1  0
 46 44  2  0
 49 50  1  0
 49 24  1  0
 51 49  1  0
 52 53  2  0
 54 56  1  0
 54 52  1  0
 56 55  1  0
 57 56  1  0
 58 69  2  0
 59 57  1  0
 59 64  1  0
 60 68  1  0
 60 70  1  0
 61 67  1  0
 61 63  1  0
 62 68  1  0
 63 62  1  0
 64 63  2  0
 65 66  1  0
 65 59  2  0
 66 61  2  0
 67 60  1  0
 68 58  1  0
 70 72  2  0
 71 70  1  0
 73 71  1  0
 74 83  2  0
 74 79  1  0
 75 71  1  0
 75 79  1  0
 76 75  1  0
 77 78  1  0
 77 76  1  0
 78 74  1  0
 79 80  2  0
 80 81  1  0
 82 81  2  0
 83 82  1  0
 84 58  1  0
 84 89  1  0
 84 85  1  0
 85 88  1  1
 85 86  1  0
 87 85  1  0
 89 92  1  0
 90 94  1  0
 90 89  1  0
 91 90  2  0
 94 93  1  0
 96 94  1  0
 96 97  1  0
 96 95  1  0
M  ISO  4  14 100  22 100  56 101  57 101
M  END
>  <TORSDO>  (92) 
F 20

>  <SCORE>  (92) 
-13.369

>  <name>  (92) 
91

>  <ligand_id>  (92) 
91

>  <original_smiles>  (92) 
[H]c1c([H])c([H])c2c(c1[H])C([H])([H])C([H])([H])C([H])([H])C2([H])N([H])C(=O)C1([H])N(C(=O)C([H])(N([H])C(=O)C([H])(N([H])C([H])([H])[H])C([H])([H])[H])C(C([H])([H])[H])(C([H])([H])[H])C([H])([H])[H])C([H])([H])c2c([H])c(OC([H])(C([H])([H])[H])C([H])([H])C(=O)C(=O)N([H])c3c([H])c(N([H])C(=O)N4C([H])([H])C([H])([H])C([H])([H])C([H])(n5nc(-c6c([H])c([H])c(Oc7c([H])c([H])c(F)c([H])c7F)c([H])c6[H])c(C(=O)N([H])[H])c5N([H])[H])C4([H])[H])c(F)c(C([H])([H])[H])c3F)c([H])c([H])c2C1([H])[H]

>  <smiles>  (92) 
[H]c1c([H])c([H])c2c(c1[H])C([H])([H])C([H])([H])C([H])([H])C2([H])N([H])C(=O)C1([H])N(C(=O)C([H])(N([H])C(=O)C([H])(N([H])C([H])([H])[H])C([H])([H])[H])C(C([H])([H])[H])(C([H])([H])[H])C([H])([H])[H])C([H])([H])c2c([H])c(OC([H])(C([H])([H])[H])C([H])([H])C(=O)C(=O)N([H])c3c([H])c(N([H])C(=O)N4C([H])([H])C([H])([H])C([H])([H])C([H])(n5nc(-c6c([H])c([H])c(Oc7c([H])c([H])c(F)c([H])c7F)c([H])c6[H])c(C(=O)N([H])[H])c5N([H])[H])C4([H])[H])c(F)c(C([H])([H])[H])c3F)c([H])c([H])c2C1([H])[H]

$$$$
92:0:0
     RDKit          3D

 96104  0  0  1  0  0  0  0  0999 V2000
  -28.8660  -20.4980   20.4320 C   0  0  0  0  0  0  0  0  0  0  0  0
  -27.6300  -20.4380   20.3780 O   0  0  0  0  0  0  0  0  0  0  0  0
  -29.3120  -17.9440   20.5560 C   0  0  0  0  0  3  0  0  0  0  0  0
  -29.7220  -19.3170   20.7970 C   0  0  0  0  0  0  0  0  0  0  0  0
  -30.1910  -16.9510   20.9470 C   0  0  0  0  0  0  0  0  0  0  0  0
  -30.9330  -19.3460   21.4660 C   0  0  0  0  0  0  0  0  0  0  0  0
  -31.5920  -17.7180   21.6680 S   0  0  0  0  0  0  0  0  0  0  0  0
  -30.6430  -14.6010   20.2570 C   0  0  0  0  0  0  0  0  0  0  0  0
  -30.3180  -12.4450   19.0570 C   0  0  0  0  0  2  0  0  0  0  0  0
  -29.3270  -12.6470   17.8890 C   0  0  0  0  0  2  0  0  0  0  0  0
  -27.8740  -12.4780   18.3750 C   0  0  0  0  0  2  0  0  0  0  0  0
  -27.5730  -13.3000   19.6590 C   0  0  0  0  0  3  0  0  0  0  0  0
  -28.6760  -13.0650   20.7200 C   0  0  0  0  0  2  0  0  0  0  0  0
  -29.9740  -13.4120   20.1140 N   0  0  0  0  0  0  0  0  0  0  0  0
  -31.7390  -14.8050   19.7250 O   0  0  0  0  0  0  0  0  0  0  0  0
  -29.9620  -15.5850   20.9060 N   0  0  0  0  0  0  0  0  0  0  0  0
  -29.0470  -15.2890   21.2170 H   0  0  0  0  0  0  0  0  0  0  0  0
  -25.1910  -13.8890   20.4320 C   0  0  0  0  0  0  0  0  0  0  0  0
  -24.1320  -13.1110   20.8300 C   0  0  0  0  0  0  0  0  0  0  0  0
  -24.5920  -11.7630   20.7740 C   0  0  0  0  0  0  0  0  0  0  0  0
  -26.2320  -13.0120   20.1750 N   0  0  0  0  0  0  0  0  0  0  0  0
  -25.8780  -11.7270   20.4340 N   0  0  0  0  0  0  0  0  0  0  0  0
  -23.8750  -10.5010   20.9860 C   0  0  0  0  0  0  0  0  0  0  0  0
  -24.3310   -9.5350   21.9080 C   0  0  0  0  0  3  0  0  0  0  0  0
  -23.6120   -8.3360   22.1050 C   0  0  0  0  0  3  0  0  0  0  0  0
  -22.4250   -8.0900   21.3770 C   0  0  0  0  0  0  0  0  0  0  0  0
  -21.9890   -9.0460   20.4420 C   0  0  0  0  0  3  0  0  0  0  0  0
  -22.7080  -10.2350   20.2450 C   0  0  0  0  0  3  0  0  0  0  0  0
  -21.6780   -6.9420   21.4780 O   0  0  0  0  0  0  0  0  0  0  0  0
  -21.6490   -6.2010   22.6310 C   0  0  0  0  0  0  0  0  0  0  0  0
  -21.2310   -6.7560   23.8590 C   0  0  0  0  0  3  0  0  0  0  0  0
  -21.1510   -5.9420   25.0080 C   0  0  0  0  0  3  0  0  0  0  0  0
  -21.4770   -4.5770   24.9290 C   0  0  0  0  0  0  0  0  0  0  0  0
  -21.8910   -4.0200   23.7040 C   0  0  0  0  0  3  0  0  0  0  0  0
  -21.9720   -4.8310   22.5580 C   0  0  0  0  0  0  0  0  0  0  0  0
  -22.3490   -4.2840   21.3770 F   0  0  0  0  0  0  0  0  0  0  0  0
  -21.3950   -3.7930   26.0330 F   0  0  0  0  0  0  0  0  0  0  0  0
  -22.7420  -13.5870   21.1490 C   0  0  0  0  0  0  0  0  0  0  0  0
  -22.0370  -12.8820   22.0260 N   0  0  0  0  0  0  0  0  0  0  0  0
  -22.2920  -14.6170   20.6510 O   0  0  0  0  0  0  0  0  0  0  0  0
  -22.4090  -12.0440   22.4460 H   0  0  0  0  0  0  0  0  0  0  0  0
  -21.1120  -13.1950   22.2880 H   0  0  0  0  0  0  0  0  0  0  0  0
  -25.3540  -15.2570   20.2470 N   0  0  0  0  0  0  0  0  0  0  0  0
  -24.6150  -15.9340   20.4070 H   0  0  0  0  0  0  0  0  0  0  0  0
  -26.2150  -15.6790   19.9200 H   0  0  0  0  0  0  0  0  0  0  0  0
  -31.6140  -20.4280   22.0410 N   0  0  0  0  0  0  0  0  0  0  0  0
  -31.1030  -20.9680   22.7380 H   0  0  0  0  0  0  0  0  0  0  0  0
  -32.5480  -20.2710   22.4220 H   0  0  0  0  0  0  0  0  0  0  0  0
  -29.5210  -21.8480   19.9070 C   0  0  0  0  0  0  0  0  0  0  0  0
  -29.9010  -21.9290   18.7330 O   0  0  0  0  0  0  0  0  0  0  0  0
  -29.6840  -23.0900   20.8310 C   0  0  0  0  0  2  0  0  0  0  0  0
  -27.1850  -23.7260   20.9850 C   0  0  0  0  0  1  0  0  0  0  0  0
  -28.6120  -24.2590   20.8440 C   0  0  1  0  0  0  0  0  0  0  0  0
  -28.8830  -24.8970   21.9850 F   0  0  0  0  0  0  0  0  0  0  0  0
  -28.6800  -25.3840   19.7360 C   0  0  0  0  0  2  0  0  0  0  0  0
  -28.4660  -26.7430   20.2250 O   0  0  0  0  0  0  0  0  0  0  0  0
  -24.5760  -31.9200   23.2490 C   0  0  0  0  0  0  0  0  0  0  0  0
  -27.2570  -27.4340   20.1790 C   0  0  0  0  0  0  0  0  0  0  0  0
  -23.3770  -30.5090   21.6110 C   0  0  0  0  0  3  0  0  0  0  0  0
  -24.8440  -28.9680   20.1800 C   0  0  0  0  0  0  0  0  0  0  0  0
  -25.9030  -30.8600   21.4180 C   0  0  0  0  0  2  0  0  0  0  0  0
  -26.0000  -29.4860   20.7760 C   0  0  0  0  0  0  0  0  0  0  0  0
  -27.2010  -28.7250   20.7740 C   0  0  0  0  0  3  0  0  0  0  0  0
  -26.0790  -26.9350   19.5760 C   0  0  0  0  0  3  0  0  0  0  0  0
  -24.8860  -27.6950   19.5780 C   0  0  0  0  0  3  0  0  0  0  0  0
  -23.5810  -29.8140   20.2350 C   0  0  0  0  0  2  0  0  0  0  0  0
  -24.6370  -31.1100   22.1520 N   0  0  0  0  0  0  0  0  0  0  0  0
  -23.4910  -32.1950   23.7830 O   0  0  0  0  0  0  0  0  0  0  0  0
  -22.7190  -29.4980   22.5730 C   0  0  0  0  0  0  0  0  0  0  0  0
  -21.3920  -29.3280   22.4480 N   0  0  0  0  0  0  0  0  0  0  0  0
  -23.3980  -28.8680   23.3890 O   0  0  0  0  0  0  0  0  0  0  0  0
  -20.9060  -29.8770   21.7550 H   0  0  0  0  0  0  0  0  0  0  0  0
  -18.0180  -28.1530   22.9420 C   0  0  0  0  0  0  0  0  0  0  0  0
  -20.5760  -28.3900   23.2180 C   0  0  0  0  0  3  0  0  0  0  0  0
  -20.6670  -26.9640   22.6240 C   0  0  0  0  0  2  0  0  0  0  0  0
  -19.5660  -26.6650   21.6050 C   0  0  0  0  0  2  0  0  0  0  0  0
  -18.1840  -26.8120   22.2450 C   0  0  0  0  0  2  0  0  0  0  0  0
  -19.1430  -28.9020   23.3800 C   0  0  0  0  0  0  0  0  0  0  0  0
  -18.9350  -30.1620   23.9770 C   0  0  0  0  0  3  0  0  0  0  0  0
  -17.6360  -30.6740   24.1420 C   0  0  0  0  0  3  0  0  0  0  0  0
  -16.5230  -29.9200   23.7300 C   0  0  0  0  0  3  0  0  0  0  0  0
  -16.7170  -28.6610   23.1340 C   0  0  0  0  0  3  0  0  0  0  0  0
  -25.8600  -32.5470   23.8760 C   0  0  0  0  0  3  0  0  0  0  0  0
  -25.5560  -33.9500   24.1980 N   0  0  0  0  0  0  0  0  0  0  0  0
  -25.9050  -34.9960   23.4400 C   0  0  0  0  0  0  0  0  0  0  0  0
  -26.5820  -34.8840   22.4110 O   0  0  0  0  0  0  0  0  0  0  0  0
  -24.9540  -34.1210   24.9890 H   0  0  0  0  0  0  0  0  0  0  0  0
  -24.1870  -36.7940   23.0620 C   0  0  0  0  0  1  0  0  0  0  0  0
  -25.4170  -36.3900   23.8870 C   0  0  0  0  0  3  0  0  0  0  0  0
  -27.5480  -37.2600   24.7400 C   0  0  0  0  0  1  0  0  0  0  0  0
  -26.4590  -37.4350   23.7840 N   0  0  0  0  0  0  0  0  0  0  0  0
  -26.0550  -38.3570   23.9240 H   0  0  0  0  0  0  0  0  0  0  0  0
  -26.3750  -31.7800   25.1560 C   0  0  1  0  0  0  0  0  0  0  0  0
  -25.2760  -31.5420   26.2170 C   0  0  0  0  0  1  0  0  0  0  0  0
  -26.9550  -30.4020   24.7610 C   0  0  0  0  0  1  0  0  0  0  0  0
  -27.5260  -32.5680   25.8150 C   0  0  0  0  0  1  0  0  0  0  0  0
  1  4  1  0
  2  1  2  0
  3  4  1  0
  3  5  2  0
  4  6  2  0
  5  7  1  0
  6  7  1  0
  6 46  1  0
  8 16  1  0
  9 14  1  0
 10 11  1  0
 10  9  1  0
 12 11  1  0
 12 21  1  0
 12 13  1  0
 14  8  1  0
 14 13  1  0
 15  8  2  0
 16  5  1  0
 16 17  1  0
 18 19  2  0
 19 38  1  0
 20 19  1  0
 20 23  1  0
 21 18  1  0
 21 22  1  0
 22 20  2  0
 23 24  1  0
 24 25  2  0
 26 29  1  0
 26 25  1  0
 27 26  2  0
 28 27  1  0
 28 23  2  0
 29 30  1  0
 30 31  1  0
 31 32  2  0
 33 32  1  0
 33 37  1  0
 34 33  2  0
 35 30  2  0
 35 34  1  0
 36 35  1  0
 38 39  1  0
 39 42  1  0
 39 41  1  0
 40 38  2  0
 43 44  1  0
 43 18  1  0
 45 43  1  0
 46 48  1  0
 46 47  1  0
 49  1  1  0
 49 51  1  0
 50 49  2  0
 51 53  1  0
 53 52  1  1
 53 54  1  0
 55 56  1  0
 55 53  1  0
 57 68  2  0
 58 56  1  0
 58 63  1  0
 59 67  1  0
 59 69  1  0
 60 66  1  0
 60 62  1  0
 61 67  1  0
 62 61  1  0
 63 62  2  0
 64 65  1  0
 64 58  2  0
 65 60  2  0
 66 59  1  0
 67 57  1  0
 69 71  2  0
 70 69  1  0
 72 70  1  0
 73 82  2  0
 73 78  1  0
 74 70  1  0
 74 78  1  0
 75 74  1  0
 76 77  1  0
 76 75  1  0
 77 73  1  0
 78 79  2  0
 79 80  1  0
 81 80  2  0
 82 81  1  0
 83 57  1  0
 83 84  1  0
 83 93  1  0
 84 87  1  0
 85 89  1  0
 85 84  1  0
 86 85  2  0
 89 88  1  0
 91 89  1  0
 91 92  1  0
 91 90  1  0
 93 96  1  1
 93 94  1  0
 95 93  1  0
M  ISO  4   8 100  16 100  55 101  56 101
M  END
>  <TORSDO>  (93) 
F 22

>  <SCORE>  (93) 
-13.384

>  <name>  (93) 
92

>  <ligand_id>  (93) 
92

>  <original_smiles>  (93) 
[H]c1c([H])c([H])c2c(c1[H])C([H])([H])C([H])([H])C([H])([H])C2([H])N([H])C(=O)C1([H])N(C(=O)C([H])(N([H])C(=O)C([H])(N([H])C([H])([H])[H])C([H])([H])[H])C(C([H])([H])[H])(C([H])([H])[H])C([H])([H])[H])C([H])([H])c2c([H])c(OC([H])([H])C(F)(C([H])([H])[H])C([H])([H])C(=O)C(=O)c3c(N([H])[H])sc(N([H])C(=O)N4C([H])([H])C([H])([H])C([H])([H])C([H])(n5nc(-c6c([H])c([H])c(Oc7c([H])c([H])c(F)c([H])c7F)c([H])c6[H])c(C(=O)N([H])[H])c5N([H])[H])C4([H])[H])c3[H])c([H])c([H])c2C1([H])[H]

>  <smiles>  (93) 
[H]c1c([H])c([H])c2c(c1[H])C([H])([H])C([H])([H])C([H])([H])C2([H])N([H])C(=O)C1([H])N(C(=O)C([H])(N([H])C(=O)C([H])(N([H])C([H])([H])[H])C([H])([H])[H])C(C([H])([H])[H])(C([H])([H])[H])C([H])([H])[H])C([H])([H])c2c([H])c(OC([H])([H])C(F)(C([H])([H])[H])C([H])([H])C(=O)C(=O)c3c(N([H])[H])sc(N([H])C(=O)N4C([H])([H])C([H])([H])C([H])([H])C([H])(n5nc(-c6c([H])c([H])c(Oc7c([H])c([H])c(F)c([H])c7F)c([H])c6[H])c(C(=O)N([H])[H])c5N([H])[H])C4([H])[H])c3[H])c([H])c([H])c2C1([H])[H]

$$$$
93:0:0
     RDKit          3D

 95103  0  0  1  0  0  0  0  0999 V2000
  -29.3010  -22.4590   20.8300 C   0  0  0  0  0  0  0  0  0  0  0  0
  -29.9970  -21.3370   21.0510 N   0  0  0  0  0  0  0  0  0  0  0  0
  -28.0690  -22.5630   20.7970 O   0  0  0  0  0  0  0  0  0  0  0  0
  -30.9900  -21.5320   21.1050 H   0  0  0  0  0  0  0  0  0  0  0  0
  -30.6070  -18.9730   21.0460 C   0  0  0  0  0  3  0  0  0  0  0  0
  -28.4080  -19.5070   20.4310 C   0  0  0  0  0  3  0  0  0  0  0  0
  -29.6240  -19.9830   20.8500 C   0  0  0  0  0  0  0  0  0  0  0  0
  -30.1690  -17.7200   20.7100 C   0  0  0  0  0  0  0  0  0  0  0  0
  -28.4790  -17.7630   20.2230 S   0  0  0  0  0  0  0  0  0  0  0  0
  -30.9140  -14.2680   19.7240 C   0  0  0  0  0  0  0  0  0  0  0  0
  -30.4980  -12.0460   18.7290 C   0  0  0  0  0  2  0  0  0  0  0  0
  -29.4750  -12.1290   17.5830 C   0  0  0  0  0  2  0  0  0  0  0  0
  -28.0460  -12.0080   18.1440 C   0  0  0  0  0  2  0  0  0  0  0  0
  -27.7840  -12.9870   19.3180 C   0  0  0  0  0  3  0  0  0  0  0  0
  -28.9070  -12.8820   20.3730 C   0  0  0  0  0  2  0  0  0  0  0  0
  -30.1870  -13.1200   19.6880 N   0  0  0  0  0  0  0  0  0  0  0  0
  -31.9770  -14.3760   19.1040 O   0  0  0  0  0  0  0  0  0  0  0  0
  -30.9570  -16.4590   20.7010 C   0  0  0  0  0  0  0  0  0  0  0  0
  -30.3410  -15.3090   20.3670 N   0  0  0  0  0  0  0  0  0  0  0  0
  -32.1730  -16.5420   20.9210 O   0  0  0  0  0  0  0  0  0  0  0  0
  -29.3460  -15.2600   20.5150 H   0  0  0  0  0  0  0  0  0  0  0  0
  -25.4830  -13.6800   20.2420 C   0  0  0  0  0  0  0  0  0  0  0  0
  -24.4190  -12.9440   20.6960 C   0  0  0  0  0  0  0  0  0  0  0  0
  -24.8240  -11.5750   20.6100 C   0  0  0  0  0  0  0  0  0  0  0  0
  -26.4660  -12.7610   19.9090 N   0  0  0  0  0  0  0  0  0  0  0  0
  -26.0790  -11.4900   20.1890 N   0  0  0  0  0  0  0  0  0  0  0  0
  -24.0680  -10.3380   20.8500 C   0  0  0  0  0  0  0  0  0  0  0  0
  -24.4900   -9.3910   21.8110 C   0  0  0  0  0  3  0  0  0  0  0  0
  -23.7370   -8.2170   22.0330 C   0  0  0  0  0  3  0  0  0  0  0  0
  -22.5540   -7.9830   21.2950 C   0  0  0  0  0  0  0  0  0  0  0  0
  -22.1560   -8.9140   20.3200 C   0  0  0  0  0  3  0  0  0  0  0  0
  -22.9080  -10.0800   20.0940 C   0  0  0  0  0  3  0  0  0  0  0  0
  -21.7750   -6.8580   21.4240 O   0  0  0  0  0  0  0  0  0  0  0  0
  -21.6440   -6.2060   22.6240 C   0  0  0  0  0  0  0  0  0  0  0  0
  -21.1580   -6.8600   23.7760 C   0  0  0  0  0  3  0  0  0  0  0  0
  -20.9740   -6.1390   24.9730 C   0  0  0  0  0  3  0  0  0  0  0  0
  -21.2690   -4.7630   25.0190 C   0  0  0  0  0  0  0  0  0  0  0  0
  -21.7470   -4.1070   23.8710 C   0  0  0  0  0  3  0  0  0  0  0  0
  -21.9330   -4.8280   22.6770 C   0  0  0  0  0  0  0  0  0  0  0  0
  -22.3750   -4.1870   21.5690 F   0  0  0  0  0  0  0  0  0  0  0  0
  -21.0870   -4.0680   26.1660 F   0  0  0  0  0  0  0  0  0  0  0  0
  -23.0720  -13.4700   21.1000 C   0  0  0  0  0  0  0  0  0  0  0  0
  -22.4070  -12.8000   22.0360 N   0  0  0  0  0  0  0  0  0  0  0  0
  -22.6220  -14.5110   20.6210 O   0  0  0  0  0  0  0  0  0  0  0  0
  -22.7830  -11.9550   22.4400 H   0  0  0  0  0  0  0  0  0  0  0  0
  -21.5080  -13.1380   22.3560 H   0  0  0  0  0  0  0  0  0  0  0  0
  -25.6910  -15.0440   20.0630 N   0  0  0  0  0  0  0  0  0  0  0  0
  -24.9850  -15.7420   20.2670 H   0  0  0  0  0  0  0  0  0  0  0  0
  -26.5300  -15.4370   19.6560 H   0  0  0  0  0  0  0  0  0  0  0  0
  -30.2840  -23.6420   20.6550 C   0  0  0  0  0  0  0  0  0  0  0  0
  -31.4720  -23.4590   20.3540 O   0  0  0  0  0  0  0  0  0  0  0  0
  -29.7710  -25.0550   20.9170 C   0  0  0  0  0  2  0  0  0  0  0  0
  -29.4380  -25.6270   18.4000 C   0  0  0  0  0  1  0  0  0  0  0  0
  -28.8460  -25.6260   19.8260 C   0  0  0  0  0  3  0  0  0  0  0  0
  -28.6780  -26.9820   20.2180 O   0  0  0  0  0  0  0  0  0  0  0  0
  -24.5410  -31.8270   23.2410 C   0  0  0  0  0  0  0  0  0  0  0  0
  -27.4410  -27.5780   20.1690 C   0  0  0  0  0  0  0  0  0  0  0  0
  -23.4300  -30.4030   21.5490 C   0  0  0  0  0  3  0  0  0  0  0  0
  -24.9780  -28.9520   20.1380 C   0  0  0  0  0  0  0  0  0  0  0  0
  -25.9320  -30.8820   21.4120 C   0  0  0  0  0  2  0  0  0  0  0  0
  -26.0920  -29.5260   20.7620 C   0  0  0  0  0  0  0  0  0  0  0  0
  -27.3220  -28.8460   20.7770 C   0  0  0  0  0  3  0  0  0  0  0  0
  -26.3120  -27.0080   19.5330 C   0  0  0  0  0  3  0  0  0  0  0  0
  -25.0830  -27.6930   19.5200 C   0  0  0  0  0  3  0  0  0  0  0  0
  -23.6970  -29.7560   20.1630 C   0  0  0  0  0  2  0  0  0  0  0  0
  -24.6510  -31.0500   22.1300 N   0  0  0  0  0  0  0  0  0  0  0  0
  -23.4370  -32.0520   23.7570 O   0  0  0  0  0  0  0  0  0  0  0  0
  -22.7940  -29.3470   22.4800 C   0  0  0  0  0  0  0  0  0  0  0  0
  -21.4820  -29.1190   22.3160 N   0  0  0  0  0  0  0  0  0  0  0  0
  -23.4770  -28.7350   23.3060 O   0  0  0  0  0  0  0  0  0  0  0  0
  -20.9870  -29.6700   21.6290 H   0  0  0  0  0  0  0  0  0  0  0  0
  -18.1420  -27.7880   22.6880 C   0  0  0  0  0  0  0  0  0  0  0  0
  -20.6800  -28.1350   23.0430 C   0  0  0  0  0  3  0  0  0  0  0  0
  -20.8530  -26.7170   22.4460 C   0  0  0  0  0  2  0  0  0  0  0  0
  -19.7930  -26.3780   21.3920 C   0  0  0  0  0  2  0  0  0  0  0  0
  -18.3900  -26.4580   22.0010 C   0  0  0  0  0  2  0  0  0  0  0  0
  -19.2190  -28.5830   23.1640 C   0  0  0  0  0  0  0  0  0  0  0  0
  -18.9350  -29.8310   23.7610 C   0  0  0  0  0  3  0  0  0  0  0  0
  -17.6100  -30.2830   23.8880 C   0  0  0  0  0  3  0  0  0  0  0  0
  -16.5450  -29.4850   23.4320 C   0  0  0  0  0  3  0  0  0  0  0  0
  -16.8150  -28.2400   22.8350 C   0  0  0  0  0  3  0  0  0  0  0  0
  -25.7880  -32.4980   23.9020 C   0  0  0  0  0  3  0  0  0  0  0  0
  -26.2780  -31.7480   25.2000 C   0  0  1  0  0  0  0  0  0  0  0  0
  -25.1480  -31.4740   26.2210 C   0  0  0  0  0  1  0  0  0  0  0  0
  -26.9220  -30.3900   24.8350 C   0  0  0  0  0  1  0  0  0  0  0  0
  -27.3780  -32.5790   25.9040 C   0  0  0  0  0  1  0  0  0  0  0  0
  -25.4360  -33.8900   24.2080 N   0  0  0  0  0  0  0  0  0  0  0  0
  -25.7650  -34.9410   23.4450 C   0  0  0  0  0  0  0  0  0  0  0  0
  -26.4670  -34.8430   22.4340 O   0  0  0  0  0  0  0  0  0  0  0  0
  -24.8190  -34.0420   24.9940 H   0  0  0  0  0  0  0  0  0  0  0  0
  -24.0040  -36.6800   23.0180 C   0  0  0  0  0  1  0  0  0  0  0  0
  -25.2320  -36.3210   23.8690 C   0  0  0  0  0  3  0  0  0  0  0  0
  -27.3180  -37.2700   24.7510 C   0  0  0  0  0  1  0  0  0  0  0  0
  -26.2430  -37.3970   23.7700 N   0  0  0  0  0  0  0  0  0  0  0  0
  -25.8110  -38.3090   23.8900 H   0  0  0  0  0  0  0  0  0  0  0  0
  1  2  1  0
  2  4  1  0
  3  1  2  0
  6  7  2  0
  7  5  1  0
  7  2  1  0
  8  5  2  0
  9  6  1  0
  9  8  1  0
 10 19  1  0
 11 16  1  0
 12 13  1  0
 12 11  1  0
 14 13  1  0
 14 25  1  0
 14 15  1  0
 16 10  1  0
 16 15  1  0
 17 10  2  0
 18  8  1  0
 18 20  2  0
 19 21  1  0
 19 18  1  0
 22 23  2  0
 23 42  1  0
 24 23  1  0
 24 27  1  0
 25 26  1  0
 25 22  1  0
 26 24  2  0
 27 28  1  0
 28 29  2  0
 30 33  1  0
 30 29  1  0
 31 30  2  0
 32 31  1  0
 32 27  2  0
 33 34  1  0
 34 39  2  0
 34 35  1  0
 35 36  2  0
 36 37  1  0
 37 41  1  0
 38 37  2  0
 39 38  1  0
 40 39  1  0
 42 43  1  0
 43 46  1  0
 43 45  1  0
 44 42  2  0
 47 22  1  0
 47 48  1  0
 49 47  1  0
 50  1  1  0
 50 52  1  0
 51 50  2  0
 54 53  1  0
 54 55  1  0
 54 52  1  0
 56 67  2  0
 57 55  1  0
 57 62  1  0
 58 66  1  0
 58 68  1  0
 59 65  1  0
 59 61  1  0
 60 66  1  0
 61 62  2  0
 61 60  1  0
 63 57  2  0
 64 63  1  0
 64 59  2  0
 65 58  1  0
 66 56  1  0
 68 70  2  0
 69 68  1  0
 71 69  1  0
 72 81  2  0
 72 77  1  0
 73 69  1  0
 73 77  1  0
 74 73  1  0
 75 76  1  0
 75 74  1  0
 76 72  1  0
 77 78  2  0
 78 79  1  0
 80 79  2  0
 81 80  1  0
 82 56  1  0
 82 87  1  0
 82 83  1  0
 83 86  1  1
 83 84  1  0
 85 83  1  0
 87 90  1  0
 88 92  1  0
 88 87  1  0
 89 88  2  0
 92 91  1  0
 94 92  1  0
 94 95  1  0
 94 93  1  0
M  ISO  4  10 100  19 100  54 101  55 101
M  END
>  <TORSDO>  (94) 
F 20

>  <SCORE>  (94) 
-13.617

>  <name>  (94) 
93

>  <ligand_id>  (94) 
93

>  <original_smiles>  (94) 
[H]c1sc(C(=O)N([H])C(=O)N2C([H])([H])C([H])([H])C([H])([H])C([H])(n3nc(-c4c([H])c([H])c(Oc5c([H])c([H])c(F)c([H])c5F)c([H])c4[H])c(C(=O)N([H])[H])c3N([H])[H])C2([H])[H])c([H])c1N([H])C(=O)C(=O)C([H])([H])C([H])(Oc1c([H])c([H])c2c(c1[H])C([H])([H])N(C(=O)C([H])(N([H])C(=O)C([H])(N([H])C([H])([H])[H])C([H])([H])[H])C(C([H])([H])[H])(C([H])([H])[H])C([H])([H])[H])C([H])(C(=O)N([H])C1([H])c3c([H])c([H])c([H])c([H])c3C([H])([H])C([H])([H])C1([H])[H])C2([H])[H])C([H])([H])[H]

>  <smiles>  (94) 
[H]c1sc(C(=O)N([H])C(=O)N2C([H])([H])C([H])([H])C([H])([H])C([H])(n3nc(-c4c([H])c([H])c(Oc5c([H])c([H])c(F)c([H])c5F)c([H])c4[H])c(C(=O)N([H])[H])c3N([H])[H])C2([H])[H])c([H])c1N([H])C(=O)C(=O)C([H])([H])C([H])(Oc1c([H])c([H])c2c(c1[H])C([H])([H])N(C(=O)C([H])(N([H])C(=O)C([H])(N([H])C([H])([H])[H])C([H])([H])[H])C(C([H])([H])[H])(C([H])([H])[H])C([H])([H])[H])C([H])(C(=O)N([H])C1([H])c3c([H])c([H])c([H])c([H])c3C([H])([H])C([H])([H])C1([H])[H])C2([H])[H])C([H])([H])[H]

$$$$
94:0:0
     RDKit          3D

 94102  0  0  1  0  0  0  0  0999 V2000
  -29.4020  -22.2220   21.2380 C   0  0  0  0  0  0  0  0  0  0  0  0
  -31.7850  -21.8650   20.5360 C   0  0  0  0  0  1  0  0  0  0  0  0
  -30.5870  -21.5530   21.3320 N   0  0  0  0  0  0  0  0  0  0  0  0
  -28.4400  -21.9420   21.9630 O   0  0  0  0  0  0  0  0  0  0  0  0
  -29.3480  -23.3110   20.2550 C   0  0  0  0  0  3  0  0  0  0  0  0
  -28.4380  -24.3160   20.3080 C   0  0  0  0  0  0  0  0  0  0  0  0
  -27.4810  -24.4290   21.2460 O   0  0  0  0  0  0  0  0  0  0  0  0
  -27.5480  -23.6660   21.8130 H   0  0  0  0  0  0  0  0  0  0  0  0
  -28.3680  -25.4880   19.3320 C   0  0  0  0  0  2  0  0  0  0  0  0
  -28.2300  -26.7520   19.9950 O   0  0  0  0  0  0  0  0  0  0  0  0
  -24.5200  -31.8900   23.2020 C   0  0  0  0  0  0  0  0  0  0  0  0
  -27.0250  -27.4280   20.0280 C   0  0  0  0  0  0  0  0  0  0  0  0
  -23.2440  -30.5080   21.5970 C   0  0  0  0  0  3  0  0  0  0  0  0
  -24.6350  -28.9500   20.1300 C   0  0  0  0  0  0  0  0  0  0  0  0
  -25.7680  -30.8310   21.3260 C   0  0  0  0  0  2  0  0  0  0  0  0
  -25.8150  -29.4600   20.6840 C   0  0  0  0  0  0  0  0  0  0  0  0
  -27.0060  -28.7040   20.6340 C   0  0  0  0  0  3  0  0  0  0  0  0
  -25.8170  -26.9210   19.4910 C   0  0  0  0  0  3  0  0  0  0  0  0
  -24.6280  -27.6760   19.5390 C   0  0  0  0  0  3  0  0  0  0  0  0
  -23.4020  -29.8220   20.2130 C   0  0  0  0  0  2  0  0  0  0  0  0
  -24.5310  -31.0890   22.1010 N   0  0  0  0  0  0  0  0  0  0  0  0
  -23.4580  -32.1790   23.7730 O   0  0  0  0  0  0  0  0  0  0  0  0
  -22.6050  -29.4960   22.5740 C   0  0  0  0  0  0  0  0  0  0  0  0
  -21.2870  -29.2850   22.4380 N   0  0  0  0  0  0  0  0  0  0  0  0
  -23.2940  -28.9000   23.4070 O   0  0  0  0  0  0  0  0  0  0  0  0
  -20.7910  -29.8190   21.7380 H   0  0  0  0  0  0  0  0  0  0  0  0
  -17.9440  -27.9900   22.8810 C   0  0  0  0  0  0  0  0  0  0  0  0
  -20.4810  -28.3500   23.2220 C   0  0  0  0  0  3  0  0  0  0  0  0
  -20.6530  -26.9020   22.7090 C   0  0  0  0  0  2  0  0  0  0  0  0
  -19.5960  -26.4980   21.6760 C   0  0  0  0  0  2  0  0  0  0  0  0
  -18.1890  -26.6200   22.2690 C   0  0  0  0  0  2  0  0  0  0  0  0
  -19.0210  -28.8080   23.3140 C   0  0  0  0  0  0  0  0  0  0  0  0
  -18.7400  -30.0870   23.8420 C   0  0  0  0  0  3  0  0  0  0  0  0
  -17.4130  -30.5480   23.9450 C   0  0  0  0  0  3  0  0  0  0  0  0
  -16.3500  -29.7270   23.5330 C   0  0  0  0  0  3  0  0  0  0  0  0
  -16.6160  -28.4510   23.0050 C   0  0  0  0  0  3  0  0  0  0  0  0
  -25.8310  -32.5020   23.7840 C   0  0  0  0  0  3  0  0  0  0  0  0
  -26.3860  -31.7160   25.0350 C   0  0  1  0  0  0  0  0  0  0  0  0
  -25.3240  -31.4640   26.1320 C   0  0  0  0  0  1  0  0  0  0  0  0
  -26.9590  -30.3450   24.6080 C   0  0  0  0  0  1  0  0  0  0  0  0
  -27.5570  -32.5020   25.6720 C   0  0  0  0  0  1  0  0  0  0  0  0
  -25.5490  -33.9000   24.1340 N   0  0  0  0  0  0  0  0  0  0  0  0
  -25.8820  -34.9550   23.3790 C   0  0  0  0  0  0  0  0  0  0  0  0
  -26.5300  -34.8540   22.3330 O   0  0  0  0  0  0  0  0  0  0  0  0
  -24.9730  -34.0560   24.9480 H   0  0  0  0  0  0  0  0  0  0  0  0
  -24.1770  -36.7780   23.0740 C   0  0  0  0  0  1  0  0  0  0  0  0
  -25.4230  -36.3440   23.8610 C   0  0  0  0  0  3  0  0  0  0  0  0
  -27.5790  -37.1850   24.6770 C   0  0  0  0  0  1  0  0  0  0  0  0
  -26.4700  -37.3820   23.7490 N   0  0  0  0  0  0  0  0  0  0  0  0
  -26.0790  -38.3050   23.9140 H   0  0  0  0  0  0  0  0  0  0  0  0
  -30.8100  -20.5260   22.3720 C   0  0  0  0  0  2  0  0  0  0  0  0
  -31.0210  -14.5140   20.1520 C   0  0  0  0  0  0  0  0  0  0  0  0
  -30.6080  -12.4160   18.9170 C   0  0  0  0  0  2  0  0  0  0  0  0
  -29.6110  -12.6800   17.7710 C   0  0  0  0  0  2  0  0  0  0  0  0
  -28.1590  -12.5490   18.2710 C   0  0  0  0  0  2  0  0  0  0  0  0
  -27.9020  -13.3530   19.5740 C   0  0  0  0  0  3  0  0  0  0  0  0
  -29.0020  -13.0660   20.6200 C   0  0  0  0  0  2  0  0  0  0  0  0
  -30.3080  -13.3640   20.0020 N   0  0  0  0  0  0  0  0  0  0  0  0
  -32.0630  -14.7320   19.5240 O   0  0  0  0  0  0  0  0  0  0  0  0
  -32.2070  -18.5640   21.4290 C   0  0  0  0  0  3  0  0  0  0  0  0
  -31.0280  -19.1330   21.8520 C   0  0  0  0  0  0  0  0  0  0  0  0
  -30.8470  -16.7550   21.2240 C   0  0  0  0  0  0  0  0  0  0  0  0
  -32.0950  -17.2160   21.0790 N   0  0  0  0  0  0  0  0  0  0  0  0
  -30.4620  -15.4130   20.9780 N   0  0  0  0  0  0  0  0  0  0  0  0
  -29.7210  -17.9710   21.8120 S   0  0  0  0  0  0  0  0  0  0  0  0
  -29.5860  -15.1300   21.3840 H   0  0  0  0  0  0  0  0  0  0  0  0
  -25.5490  -13.9790   20.4150 C   0  0  0  0  0  0  0  0  0  0  0  0
  -24.4890  -13.2120   20.8190 C   0  0  0  0  0  0  0  0  0  0  0  0
  -24.9270  -11.8550   20.7270 C   0  0  0  0  0  0  0  0  0  0  0  0
  -26.5680  -13.0880   20.1080 N   0  0  0  0  0  0  0  0  0  0  0  0
  -26.1980  -11.8050   20.3500 N   0  0  0  0  0  0  0  0  0  0  0  0
  -24.1930  -10.5980   20.9210 C   0  0  0  0  0  0  0  0  0  0  0  0
  -24.6000   -9.6420   21.8780 C   0  0  0  0  0  3  0  0  0  0  0  0
  -23.8650   -8.4510   22.0570 C   0  0  0  0  0  3  0  0  0  0  0  0
  -22.7090   -8.2050   21.2770 C   0  0  0  0  0  0  0  0  0  0  0  0
  -22.3220   -9.1510   20.3110 C   0  0  0  0  0  3  0  0  0  0  0  0
  -23.0570  -10.3340   20.1310 C   0  0  0  0  0  3  0  0  0  0  0  0
  -21.9490   -7.0650   21.3640 O   0  0  0  0  0  0  0  0  0  0  0  0
  -21.7870   -6.3960   22.5500 C   0  0  0  0  0  0  0  0  0  0  0  0
  -21.2310   -7.0210   23.6880 C   0  0  0  0  0  3  0  0  0  0  0  0
  -21.0190   -6.2780   24.8660 C   0  0  0  0  0  3  0  0  0  0  0  0
  -21.3510   -4.9100   24.9070 C   0  0  0  0  0  0  0  0  0  0  0  0
  -21.9000   -4.2850   23.7730 C   0  0  0  0  0  3  0  0  0  0  0  0
  -22.1140   -5.0260   22.5970 C   0  0  0  0  0  0  0  0  0  0  0  0
  -22.6230   -4.4130   21.5010 F   0  0  0  0  0  0  0  0  0  0  0  0
  -21.1410   -4.1940   26.0350 F   0  0  0  0  0  0  0  0  0  0  0  0
  -23.1170  -13.7020   21.1790 C   0  0  0  0  0  0  0  0  0  0  0  0
  -22.4230  -12.9900   22.0600 N   0  0  0  0  0  0  0  0  0  0  0  0
  -22.6700  -14.7500   20.7140 O   0  0  0  0  0  0  0  0  0  0  0  0
  -22.7990  -12.1400   22.4540 H   0  0  0  0  0  0  0  0  0  0  0  0
  -21.5050  -13.3010   22.3460 H   0  0  0  0  0  0  0  0  0  0  0  0
  -25.7270  -15.3510   20.2670 N   0  0  0  0  0  0  0  0  0  0  0  0
  -24.9770  -16.0140   20.4310 H   0  0  0  0  0  0  0  0  0  0  0  0
  -26.5670  -15.7900   19.9070 H   0  0  0  0  0  0  0  0  0  0  0  0
  1  3  1  0
  1  4  2  0
  2  3  1  0
  3 51  1  0
  5  6  2  0
  5  1  1  0
  6  7  1  0
  7  8  1  0
  9 10  1  0
  9  6  1  0
 10 12  1  0
 11 22  2  0
 12 17  1  0
 13 21  1  0
 13 23  1  0
 14 20  1  0
 14 16  1  0
 15 21  1  0
 16 15  1  0
 17 16  2  0
 18 19  1  0
 18 12  2  0
 19 14  2  0
 20 13  1  0
 21 11  1  0
 23 25  2  0
 24 23  1  0
 26 24  1  0
 27 36  2  0
 27 32  1  0
 28 24  1  0
 28 32  1  0
 29 28  1  0
 30 31  1  0
 30 29  1  0
 31 27  1  0
 32 33  2  0
 33 34  1  0
 35 34  2  0
 36 35  1  0
 37 11  1  0
 37 42  1  0
 37 38  1  0
 38 41  1  1
 38 39  1  0
 40 38  1  0
 42 45  1  0
 43 47  1  0
 43 42  1  0
 44 43  2  0
 47 46  1  0
 49 47  1  0
 49 50  1  0
 49 48  1  0
 52 64  1  0
 53 58  1  0
 54 55  1  0
 54 53  1  0
 56 55  1  0
 56 70  1  0
 56 57  1  0
 58 52  1  0
 58 57  1  0
 59 52  2  0
 60 61  2  0
 61 51  1  0
 62 65  1  0
 63 62  2  0
 63 60  1  0
 64 62  1  0
 64 66  1  0
 65 61  1  0
 67 68  2  0
 68 87  1  0
 69 68  1  0
 69 72  1  0
 70 71  1  0
 70 67  1  0
 71 69  2  0
 72 73  1  0
 73 74  2  0
 75 78  1  0
 75 74  1  0
 76 75  2  0
 77 76  1  0
 77 72  2  0
 78 79  1  0
 79 84  2  0
 79 80  1  0
 80 81  2  0
 81 82  1  0
 82 86  1  0
 83 82  2  0
 84 83  1  0
 85 84  1  0
 87 88  1  0
 88 91  1  0
 88 90  1  0
 89 87  2  0
 92 67  1  0
 92 93  1  0
 94 92  1  0
M  ISO  4   9 101  10 101  52 100  64 100
M  END
>  <TORSDO>  (95) 
F 20

>  <SCORE>  (95) 
-13.473

>  <name>  (95) 
94

>  <ligand_id>  (95) 
94

>  <original_smiles>  (95) 
[H]OC(=C([H])C(=O)N(C([H])([H])[H])C([H])([H])c1sc(N([H])C(=O)N2C([H])([H])C([H])([H])C([H])([H])C([H])(n3nc(-c4c([H])c([H])c(Oc5c([H])c([H])c(F)c([H])c5F)c([H])c4[H])c(C(=O)N([H])[H])c3N([H])[H])C2([H])[H])nc1[H])C([H])([H])Oc1c([H])c([H])c2c(c1[H])C([H])([H])N(C(=O)C([H])(N([H])C(=O)C([H])(N([H])C([H])([H])[H])C([H])([H])[H])C(C([H])([H])[H])(C([H])([H])[H])C([H])([H])[H])C([H])(C(=O)N([H])C1([H])c3c([H])c([H])c([H])c([H])c3C([H])([H])C([H])([H])C1([H])[H])C2([H])[H]

>  <smiles>  (95) 
[H]OC(=C([H])C(=O)N(C([H])([H])[H])C([H])([H])c1sc(N([H])C(=O)N2C([H])([H])C([H])([H])C([H])([H])C([H])(n3nc(-c4c([H])c([H])c(Oc5c([H])c([H])c(F)c([H])c5F)c([H])c4[H])c(C(=O)N([H])[H])c3N([H])[H])C2([H])[H])nc1[H])C([H])([H])Oc1c([H])c([H])c2c(c1[H])C([H])([H])N(C(=O)C([H])(N([H])C(=O)C([H])(N([H])C([H])([H])[H])C([H])([H])[H])C(C([H])([H])[H])(C([H])([H])[H])C([H])([H])[H])C([H])(C(=O)N([H])C1([H])c3c([H])c([H])c([H])c([H])c3C([H])([H])C([H])([H])C1([H])[H])C2([H])[H]

$$$$
95:0:0
     RDKit          3D

 92100  0  0  1  0  0  0  0  0999 V2000
  -28.5470  -22.9420   20.7230 C   0  0  0  0  0  0  0  0  0  0  0  0
  -29.0680  -21.8770   20.0640 N   0  0  0  0  0  0  0  0  0  0  0  0
  -27.8610  -22.8240   21.7450 O   0  0  0  0  0  0  0  0  0  0  0  0
  -29.6240  -22.1360   19.2590 H   0  0  0  0  0  0  0  0  0  0  0  0
  -29.8240  -19.4860   19.7530 C   0  0  0  0  0  3  0  0  0  0  0  0
  -28.0670  -19.9140   21.2370 C   0  0  0  0  0  3  0  0  0  0  0  0
  -28.9760  -20.4700   20.3690 C   0  0  0  0  0  0  0  0  0  0  0  0
  -29.5700  -18.1980   20.1900 C   0  0  0  0  0  0  0  0  0  0  0  0
  -28.2600  -18.1800   21.3480 S   0  0  0  0  0  0  0  0  0  0  0  0
  -30.2100  -16.9710   19.7650 C   0  0  0  0  0  3  0  0  0  0  0  0
  -30.0270  -15.6880   20.1730 C   0  0  0  0  0  3  0  0  0  0  0  0
  -30.7890  -14.5890   19.5600 C   0  0  0  0  0  0  0  0  0  0  0  0
  -30.4610  -12.4100   18.4610 C   0  0  0  0  0  2  0  0  0  0  0  0
  -29.3700  -12.6060   17.3870 C   0  0  0  0  0  2  0  0  0  0  0  0
  -27.9570  -12.4310   17.9920 C   0  0  0  0  0  2  0  0  0  0  0  0
  -27.7610  -13.2250   19.3120 C   0  0  0  0  0  3  0  0  0  0  0  0
  -28.9530  -12.9820   20.2610 C   0  0  0  0  0  2  0  0  0  0  0  0
  -30.1840  -13.3660   19.5490 N   0  0  0  0  0  0  0  0  0  0  0  0
  -31.8490  -14.7870   18.9560 O   0  0  0  0  0  0  0  0  0  0  0  0
  -25.5050  -13.7570   20.4380 C   0  0  0  0  0  0  0  0  0  0  0  0
  -24.4930  -12.9510   20.8830 C   0  0  0  0  0  0  0  0  0  0  0  0
  -24.9180  -11.6100   20.6370 C   0  0  0  0  0  0  0  0  0  0  0  0
  -26.4870  -12.9050   19.9540 N   0  0  0  0  0  0  0  0  0  0  0  0
  -26.1440  -11.6030   20.1270 N   0  0  0  0  0  0  0  0  0  0  0  0
  -24.2070  -10.3370   20.8050 C   0  0  0  0  0  0  0  0  0  0  0  0
  -24.7160   -9.3150   21.6340 C   0  0  0  0  0  3  0  0  0  0  0  0
  -24.0100   -8.1030   21.7930 C   0  0  0  0  0  3  0  0  0  0  0  0
  -22.7790   -7.9050   21.1230 C   0  0  0  0  0  0  0  0  0  0  0  0
  -22.2860   -8.9180   20.2820 C   0  0  0  0  0  3  0  0  0  0  0  0
  -22.9930  -10.1220   20.1190 C   0  0  0  0  0  3  0  0  0  0  0  0
  -22.0340   -6.7530   21.1970 O   0  0  0  0  0  0  0  0  0  0  0  0
  -22.0080   -5.9850   22.3360 C   0  0  0  0  0  0  0  0  0  0  0  0
  -21.5950   -6.5110   23.5810 C   0  0  0  0  0  3  0  0  0  0  0  0
  -21.5170   -5.6690   24.7080 C   0  0  0  0  0  3  0  0  0  0  0  0
  -21.8390   -4.3040   24.5920 C   0  0  0  0  0  0  0  0  0  0  0  0
  -22.2410   -3.7760   23.3520 C   0  0  0  0  0  3  0  0  0  0  0  0
  -22.3230   -4.6170   22.2270 C   0  0  0  0  0  0  0  0  0  0  0  0
  -22.6920   -4.1000   21.0300 F   0  0  0  0  0  0  0  0  0  0  0  0
  -21.7560   -3.4940   25.6730 F   0  0  0  0  0  0  0  0  0  0  0  0
  -23.1620  -13.3990   21.4190 C   0  0  0  0  0  0  0  0  0  0  0  0
  -22.5670  -12.6210   22.3180 N   0  0  0  0  0  0  0  0  0  0  0  0
  -22.6620  -14.4690   21.0770 O   0  0  0  0  0  0  0  0  0  0  0  0
  -22.9810  -11.7520   22.6210 H   0  0  0  0  0  0  0  0  0  0  0  0
  -21.6790  -12.9000   22.7120 H   0  0  0  0  0  0  0  0  0  0  0  0
  -25.6700  -15.1390   20.3870 N   0  0  0  0  0  0  0  0  0  0  0  0
  -24.9620  -15.7880   20.7110 H   0  0  0  0  0  0  0  0  0  0  0  0
  -26.4880  -15.6010   20.0080 H   0  0  0  0  0  0  0  0  0  0  0  0
  -28.3010  -25.3780   20.5860 C   0  0  0  0  0  3  0  0  0  0  0  0
  -28.8920  -24.2450   20.1180 C   0  0  0  0  0  0  0  0  0  0  0  0
  -29.7810  -24.3010   19.1140 O   0  0  0  0  0  0  0  0  0  0  0  0
  -29.8880  -25.2180   18.8950 H   0  0  0  0  0  0  0  0  0  0  0  0
  -28.5110  -26.6710   20.1260 O   0  0  0  0  0  0  0  0  0  0  0  0
  -24.7320  -31.9230   23.2300 C   0  0  0  0  0  0  0  0  0  0  0  0
  -27.3890  -27.4840   20.1160 C   0  0  0  0  0  0  0  0  0  0  0  0
  -23.5360  -30.5310   21.5770 C   0  0  0  0  0  3  0  0  0  0  0  0
  -24.9970  -29.0110   20.1400 C   0  0  0  0  0  0  0  0  0  0  0  0
  -26.0670  -30.8890   21.3910 C   0  0  0  0  0  2  0  0  0  0  0  0
  -26.1590  -29.5250   20.7300 C   0  0  0  0  0  0  0  0  0  0  0  0
  -27.3630  -28.7700   20.7150 C   0  0  0  0  0  3  0  0  0  0  0  0
  -26.2100  -27.0000   19.5100 C   0  0  0  0  0  3  0  0  0  0  0  0
  -25.0190  -27.7490   19.5240 C   0  0  0  0  0  3  0  0  0  0  0  0
  -23.7520  -29.8690   20.1920 C   0  0  0  0  0  2  0  0  0  0  0  0
  -24.7960  -31.1300   22.1230 N   0  0  0  0  0  0  0  0  0  0  0  0
  -23.6490  -32.1870   23.7690 O   0  0  0  0  0  0  0  0  0  0  0  0
  -22.8850  -29.4980   22.5260 C   0  0  0  0  0  0  0  0  0  0  0  0
  -21.5630  -29.3090   22.3960 N   0  0  0  0  0  0  0  0  0  0  0  0
  -23.5700  -28.8730   23.3400 O   0  0  0  0  0  0  0  0  0  0  0  0
  -21.0710  -29.8670   21.7120 H   0  0  0  0  0  0  0  0  0  0  0  0
  -18.1920  -28.0950   22.8910 C   0  0  0  0  0  0  0  0  0  0  0  0
  -20.7490  -28.3590   23.1570 C   0  0  0  0  0  3  0  0  0  0  0  0
  -20.8560  -26.9360   22.5650 C   0  0  0  0  0  2  0  0  0  0  0  0
  -19.7530  -26.6180   21.5510 C   0  0  0  0  0  2  0  0  0  0  0  0
  -18.3720  -26.7530   22.2020 C   0  0  0  0  0  2  0  0  0  0  0  0
  -19.3100  -28.8570   23.3260 C   0  0  0  0  0  0  0  0  0  0  0  0
  -19.0910  -30.1110   23.9320 C   0  0  0  0  0  3  0  0  0  0  0  0
  -17.7850  -30.6090   24.1050 C   0  0  0  0  0  3  0  0  0  0  0  0
  -16.6810  -29.8450   23.6870 C   0  0  0  0  0  3  0  0  0  0  0  0
  -16.8840  -28.5900   23.0870 C   0  0  0  0  0  3  0  0  0  0  0  0
  -26.0140  -32.5570   23.8560 C   0  0  0  0  0  3  0  0  0  0  0  0
  -26.5300  -31.7840   25.1320 C   0  0  1  0  0  0  0  0  0  0  0  0
  -25.4370  -31.5390   26.1990 C   0  0  0  0  0  1  0  0  0  0  0  0
  -27.1200  -30.4090   24.7410 C   0  0  0  0  0  1  0  0  0  0  0  0
  -27.6740  -32.5830   25.7990 C   0  0  0  0  0  1  0  0  0  0  0  0
  -25.6980  -33.9540   24.1880 N   0  0  0  0  0  0  0  0  0  0  0  0
  -26.0230  -35.0080   23.4270 C   0  0  0  0  0  0  0  0  0  0  0  0
  -26.6900  -34.9060   22.3920 O   0  0  0  0  0  0  0  0  0  0  0  0
  -25.1020  -34.1060   24.9880 H   0  0  0  0  0  0  0  0  0  0  0  0
  -24.2840  -36.7910   23.0810 C   0  0  0  0  0  1  0  0  0  0  0  0
  -25.5300  -36.3930   23.8870 C   0  0  0  0  0  3  0  0  0  0  0  0
  -27.6620  -37.2880   24.7100 C   0  0  0  0  0  1  0  0  0  0  0  0
  -26.5540  -37.4520   23.7710 N   0  0  0  0  0  0  0  0  0  0  0  0
  -26.1430  -38.3690   23.9250 H   0  0  0  0  0  0  0  0  0  0  0  0
  1  3  2  0
  2  7  1  0
  2  1  1  0
  4  2  1  0
  5  8  2  0
  5  7  1  0
  6  9  1  0
  7  6  2  0
  8  9  1  0
 10 11  2  0
 10  8  1  0
 12 11  1  0
 13 18  1  0
 14 15  1  0
 14 13  1  0
 16 15  1  0
 16 23  1  0
 16 17  1  0
 18 12  1  0
 18 17  1  0
 19 12  2  0
 20 21  2  0
 21 40  1  0
 22 25  1  0
 22 21  1  0
 23 24  1  0
 23 20  1  0
 24 22  2  0
 25 26  1  0
 26 27  2  0
 28 31  1  0
 28 27  1  0
 29 28  2  0
 30 29  1  0
 30 25  2  0
 31 32  1  0
 32 33  1  0
 33 34  2  0
 35 34  1  0
 35 39  1  0
 36 35  2  0
 37 32  2  0
 37 36  1  0
 38 37  1  0
 40 41  1  0
 41 43  1  0
 41 44  1  0
 42 40  2  0
 45 20  1  0
 45 46  1  0
 47 45  1  0
 49 48  2  0
 49  1  1  0
 50 49  1  0
 51 50  1  0
 52 48  1  0
 53 64  2  0
 54 52  1  0
 54 59  1  0
 55 63  1  0
 55 65  1  0
 56 62  1  0
 56 58  1  0
 57 63  1  0
 58 57  1  0
 59 58  2  0
 60 61  1  0
 60 54  2  0
 61 56  2  0
 62 55  1  0
 63 53  1  0
 65 67  2  0
 66 65  1  0
 68 66  1  0
 69 78  2  0
 69 74  1  0
 70 66  1  0
 70 74  1  0
 71 70  1  0
 72 73  1  0
 72 71  1  0
 73 69  1  0
 74 75  2  0
 75 76  1  0
 77 76  2  0
 78 77  1  0
 79 53  1  0
 79 84  1  0
 79 80  1  0
 80 83  1  1
 80 81  1  0
 82 80  1  0
 84 87  1  0
 85 89  1  0
 85 84  1  0
 86 85  2  0
 89 88  1  0
 91 89  1  0
 91 92  1  0
 91 90  1  0
M  ISO  4  11 100  12 100  48 101  52 101
M  END
>  <TORSDO>  (96) 
F 20

>  <SCORE>  (96) 
-10.319

>  <name>  (96) 
95

>  <ligand_id>  (96) 
95

>  <original_smiles>  (96) 
[H]OC(C(=O)N([H])c1c([H])sc(C([H])=C([H])C(=O)N2C([H])([H])C([H])([H])C([H])([H])C([H])(n3nc(-c4c([H])c([H])c(Oc5c([H])c([H])c(F)c([H])c5F)c([H])c4[H])c(C(=O)N([H])[H])c3N([H])[H])C2([H])[H])c1[H])=C([H])Oc1c([H])c([H])c2c(c1[H])C([H])([H])N(C(=O)C([H])(N([H])C(=O)C([H])(N([H])C([H])([H])[H])C([H])([H])[H])C(C([H])([H])[H])(C([H])([H])[H])C([H])([H])[H])C([H])(C(=O)N([H])C1([H])c3c([H])c([H])c([H])c([H])c3C([H])([H])C([H])([H])C1([H])[H])C2([H])[H]

>  <smiles>  (96) 
[H]OC(C(=O)N([H])c1c([H])sc(C([H])=C([H])C(=O)N2C([H])([H])C([H])([H])C([H])([H])C([H])(n3nc(-c4c([H])c([H])c(Oc5c([H])c([H])c(F)c([H])c5F)c([H])c4[H])c(C(=O)N([H])[H])c3N([H])[H])C2([H])[H])c1[H])=C([H])Oc1c([H])c([H])c2c(c1[H])C([H])([H])N(C(=O)C([H])(N([H])C(=O)C([H])(N([H])C([H])([H])[H])C([H])([H])[H])C(C([H])([H])[H])(C([H])([H])[H])C([H])([H])[H])C([H])(C(=O)N([H])C1([H])c3c([H])c([H])c([H])c([H])c3C([H])([H])C([H])([H])C1([H])[H])C2([H])[H]

$$$$
96:0:0
     RDKit          3D

 96104  0  0  1  0  0  0  0  0999 V2000
  -29.9200  -20.8660   21.6510 C   0  0  0  0  0  0  0  0  0  0  0  0
  -29.9370  -23.2930   21.4170 C   0  0  0  0  0  0  0  0  0  0  0  0
  -29.9350  -22.0220   20.9250 N   0  0  0  0  0  0  0  0  0  0  0  0
  -29.6380  -20.8370   22.8570 O   0  0  0  0  0  0  0  0  0  0  0  0
  -30.1990  -23.5390   22.6000 O   0  0  0  0  0  0  0  0  0  0  0  0
  -29.9550  -21.9150   19.9220 H   0  0  0  0  0  0  0  0  0  0  0  0
  -30.9190  -14.6710   20.0600 C   0  0  0  0  0  0  0  0  0  0  0  0
  -30.5690  -12.5180   18.8930 C   0  0  0  0  0  2  0  0  0  0  0  0
  -29.5390  -12.7300   17.7620 C   0  0  0  0  0  2  0  0  0  0  0  0
  -28.1000  -12.5660   18.2900 C   0  0  0  0  0  2  0  0  0  0  0  0
  -27.8490  -13.3820   19.5850 C   0  0  0  0  0  3  0  0  0  0  0  0
  -28.9780  -13.1450   20.6130 C   0  0  0  0  0  2  0  0  0  0  0  0
  -30.2610  -13.4780   19.9690 N   0  0  0  0  0  0  0  0  0  0  0  0
  -32.0030  -14.8650   19.5010 O   0  0  0  0  0  0  0  0  0  0  0  0
  -30.2260  -19.5500   20.9830 C   0  0  0  0  0  0  0  0  0  0  0  0
  -31.0310  -19.1420   19.9330 C   0  0  0  0  0  0  0  0  0  0  0  0
  -30.3910  -17.0670   20.6790 C   0  0  0  0  0  0  0  0  0  0  0  0
  -31.0920  -17.7470   19.7620 N   0  0  0  0  0  0  0  0  0  0  0  0
  -30.2600  -15.6400   20.7350 N   0  0  0  0  0  0  0  0  0  0  0  0
  -29.5540  -18.1370   21.8000 S   0  0  0  0  0  0  0  0  0  0  0  0
  -29.4680  -15.3140   21.2660 H   0  0  0  0  0  0  0  0  0  0  0  0
  -25.5170  -13.9770   20.5010 C   0  0  0  0  0  0  0  0  0  0  0  0
  -24.4710  -13.1970   20.9160 C   0  0  0  0  0  0  0  0  0  0  0  0
  -24.9140  -11.8450   20.7930 C   0  0  0  0  0  0  0  0  0  0  0  0
  -26.5320  -13.0990   20.1510 N   0  0  0  0  0  0  0  0  0  0  0  0
  -26.1760  -11.8090   20.3840 N   0  0  0  0  0  0  0  0  0  0  0  0
  -24.1910  -10.5810   20.9850 C   0  0  0  0  0  0  0  0  0  0  0  0
  -24.6270   -9.6150   21.9190 C   0  0  0  0  0  3  0  0  0  0  0  0
  -23.9070   -8.4160   22.0980 C   0  0  0  0  0  3  0  0  0  0  0  0
  -22.7350   -8.1720   21.3420 C   0  0  0  0  0  0  0  0  0  0  0  0
  -22.3170   -9.1260   20.3980 C   0  0  0  0  0  3  0  0  0  0  0  0
  -23.0380  -10.3190   20.2170 C   0  0  0  0  0  3  0  0  0  0  0  0
  -21.9850   -7.0240   21.4300 O   0  0  0  0  0  0  0  0  0  0  0  0
  -21.8590   -6.3360   22.6100 C   0  0  0  0  0  0  0  0  0  0  0  0
  -21.3000   -6.9290   23.7630 C   0  0  0  0  0  3  0  0  0  0  0  0
  -21.1240   -6.1630   24.9330 C   0  0  0  0  0  3  0  0  0  0  0  0
  -21.4960   -4.8060   24.9500 C   0  0  0  0  0  0  0  0  0  0  0  0
  -22.0490   -4.2130   23.8010 C   0  0  0  0  0  3  0  0  0  0  0  0
  -22.2280   -4.9750   22.6350 C   0  0  0  0  0  0  0  0  0  0  0  0
  -22.7410   -4.3940   21.5230 F   0  0  0  0  0  0  0  0  0  0  0  0
  -21.3210   -4.0690   26.0710 F   0  0  0  0  0  0  0  0  0  0  0  0
  -23.1030  -13.6740   21.3120 C   0  0  0  0  0  0  0  0  0  0  0  0
  -22.4320  -12.9510   22.2020 N   0  0  0  0  0  0  0  0  0  0  0  0
  -22.6370  -14.7210   20.8660 O   0  0  0  0  0  0  0  0  0  0  0  0
  -22.8200  -12.1030   22.5870 H   0  0  0  0  0  0  0  0  0  0  0  0
  -21.5150  -13.2550   22.5020 H   0  0  0  0  0  0  0  0  0  0  0  0
  -25.6850  -15.3530   20.3750 N   0  0  0  0  0  0  0  0  0  0  0  0
  -24.9300  -16.0040   20.5600 H   0  0  0  0  0  0  0  0  0  0  0  0
  -26.5090  -15.8000   19.9910 H   0  0  0  0  0  0  0  0  0  0  0  0
  -31.7750  -19.9430   19.0640 N   0  0  0  0  0  0  0  0  0  0  0  0
  -32.0810  -20.8600   19.3720 H   0  0  0  0  0  0  0  0  0  0  0  0
  -32.4590  -19.4790   18.4750 H   0  0  0  0  0  0  0  0  0  0  0  0
  -29.7030  -24.5190   20.4770 C   0  0  0  0  0  2  0  0  0  0  0  0
  -28.3160  -25.7940   22.3260 C   0  0  0  0  0  1  0  0  0  0  0  0
  -28.5100  -25.4960   20.8170 C   0  0  0  0  0  3  0  0  0  0  0  0
  -28.6390  -26.7820   20.1390 O   0  0  0  0  0  0  0  0  0  0  0  0
  -24.7090  -31.8750   23.2180 C   0  0  0  0  0  0  0  0  0  0  0  0
  -27.4820  -27.5430   20.0820 C   0  0  0  0  0  0  0  0  0  0  0  0
  -23.5470  -30.4640   21.5510 C   0  0  0  0  0  3  0  0  0  0  0  0
  -25.0490  -28.9940   20.1020 C   0  0  0  0  0  0  0  0  0  0  0  0
  -26.0620  -30.8990   21.3620 C   0  0  0  0  0  2  0  0  0  0  0  0
  -26.1920  -29.5410   20.6980 C   0  0  0  0  0  0  0  0  0  0  0  0
  -27.4160  -28.8290   20.6770 C   0  0  0  0  0  3  0  0  0  0  0  0
  -26.3240  -27.0220   19.4660 C   0  0  0  0  0  3  0  0  0  0  0  0
  -25.1120  -27.7360   19.4770 C   0  0  0  0  0  3  0  0  0  0  0  0
  -23.7810  -29.8150   20.1610 C   0  0  0  0  0  2  0  0  0  0  0  0
  -24.7910  -31.0940   22.1020 N   0  0  0  0  0  0  0  0  0  0  0  0
  -23.6210  -32.1050   23.7630 O   0  0  0  0  0  0  0  0  0  0  0  0
  -22.9230  -29.4100   22.4960 C   0  0  0  0  0  0  0  0  0  0  0  0
  -21.6060  -29.1850   22.3590 N   0  0  0  0  0  0  0  0  0  0  0  0
  -23.6220  -28.7990   23.3100 O   0  0  0  0  0  0  0  0  0  0  0  0
  -21.1000  -29.7350   21.6790 H   0  0  0  0  0  0  0  0  0  0  0  0
  -18.2740  -27.8550   22.8110 C   0  0  0  0  0  0  0  0  0  0  0  0
  -20.8180  -28.2100   23.1120 C   0  0  0  0  0  3  0  0  0  0  0  0
  -20.9810  -26.7880   22.5290 C   0  0  0  0  0  2  0  0  0  0  0  0
  -19.9050  -26.4310   21.4990 C   0  0  0  0  0  2  0  0  0  0  0  0
  -18.5110  -26.5190   22.1280 C   0  0  0  0  0  2  0  0  0  0  0  0
  -19.3590  -28.6550   23.2600 C   0  0  0  0  0  0  0  0  0  0  0  0
  -19.0860  -29.9030   23.8600 C   0  0  0  0  0  3  0  0  0  0  0  0
  -17.7640  -30.3560   24.0120 C   0  0  0  0  0  3  0  0  0  0  0  0
  -16.6930  -29.5550   23.5810 C   0  0  0  0  0  3  0  0  0  0  0  0
  -16.9490  -28.3050   22.9870 C   0  0  0  0  0  3  0  0  0  0  0  0
  -25.9770  -32.5340   23.8480 C   0  0  0  0  0  3  0  0  0  0  0  0
  -26.5090  -31.7690   25.1230 C   0  0  1  0  0  0  0  0  0  0  0  0
  -25.4180  -31.4980   26.1850 C   0  0  0  0  0  1  0  0  0  0  0  0
  -27.1310  -30.4090   24.7260 C   0  0  0  0  0  1  0  0  0  0  0  0
  -27.6310  -32.5930   25.8010 C   0  0  0  0  0  1  0  0  0  0  0  0
  -25.6360  -33.9230   24.1800 N   0  0  0  0  0  0  0  0  0  0  0  0
  -25.9520  -34.9850   23.4250 C   0  0  0  0  0  0  0  0  0  0  0  0
  -26.6360  -34.8990   22.4010 O   0  0  0  0  0  0  0  0  0  0  0  0
  -25.0340  -34.0630   24.9770 H   0  0  0  0  0  0  0  0  0  0  0  0
  -24.1950  -36.7440   23.0490 C   0  0  0  0  0  1  0  0  0  0  0  0
  -25.4290  -36.3590   23.8810 C   0  0  0  0  0  3  0  0  0  0  0  0
  -27.5270  -37.2850   24.7600 C   0  0  0  0  0  1  0  0  0  0  0  0
  -26.4420  -37.4330   23.7940 N   0  0  0  0  0  0  0  0  0  0  0  0
  -26.0130  -38.3440   23.9350 H   0  0  0  0  0  0  0  0  0  0  0  0
  1  4  2  0
  2  5  2  0
  3  2  1  0
  3  1  1  0
  6  3  1  0
  7 19  1  0
  8 13  1  0
  9 10  1  0
  9  8  1  0
 11 10  1  0
 11 25  1  0
 11 12  1  0
 13  7  1  0
 13 12  1  0
 14  7  2  0
 15  1  1  0
 15 20  1  0
 16 15  2  0
 17 19  1  0
 17 20  1  0
 18 16  1  0
 18 17  2  0
 19 21  1  0
 22 23  2  0
 23 42  1  0
 24 23  1  0
 24 27  1  0
 25 26  1  0
 25 22  1  0
 26 24  2  0
 27 28  1  0
 28 29  2  0
 30 33  1  0
 30 29  1  0
 31 30  2  0
 32 31  1  0
 32 27  2  0
 33 34  1  0
 34 39  2  0
 34 35  1  0
 35 36  2  0
 36 37  1  0
 37 41  1  0
 38 37  2  0
 39 38  1  0
 40 39  1  0
 42 43  1  0
 43 46  1  0
 43 45  1  0
 44 42  2  0
 47 22  1  0
 47 48  1  0
 49 47  1  0
 50 51  1  0
 50 16  1  0
 52 50  1  0
 53 55  1  0
 53  2  1  0
 55 54  1  0
 56 55  1  0
 57 68  2  0
 58 56  1  0
 58 63  1  0
 59 67  1  0
 59 69  1  0
 60 66  1  0
 60 62  1  0
 61 67  1  0
 62 61  1  0
 63 62  2  0
 64 65  1  0
 64 58  2  0
 65 60  2  0
 66 59  1  0
 67 57  1  0
 69 71  2  0
 70 69  1  0
 72 70  1  0
 73 82  2  0
 73 78  1  0
 74 70  1  0
 74 78  1  0
 75 74  1  0
 76 77  1  0
 76 75  1  0
 77 73  1  0
 78 79  2  0
 79 80  1  0
 81 80  2  0
 82 81  1  0
 83 57  1  0
 83 88  1  0
 83 84  1  0
 84 87  1  1
 84 85  1  0
 86 84  1  0
 88 91  1  0
 89 93  1  0
 89 88  1  0
 90 89  2  0
 93 92  1  0
 95 93  1  0
 95 96  1  0
 95 94  1  0
M  ISO  4   7 100  19 100  55 101  56 101
M  END
>  <TORSDO>  (97) 
F 19

>  <SCORE>  (97) 
-13.156

>  <name>  (97) 
96

>  <ligand_id>  (97) 
96

>  <original_smiles>  (97) 
[H]c1c([H])c([H])c2c(c1[H])C([H])([H])C([H])([H])C([H])([H])C2([H])N([H])C(=O)C1([H])N(C(=O)C([H])(N([H])C(=O)C([H])(N([H])C([H])([H])[H])C([H])([H])[H])C(C([H])([H])[H])(C([H])([H])[H])C([H])([H])[H])C([H])([H])c2c([H])c(OC([H])(C([H])([H])[H])C([H])([H])C(=O)N([H])C(=O)c3sc(N([H])C(=O)N4C([H])([H])C([H])([H])C([H])([H])C([H])(n5nc(-c6c([H])c([H])c(Oc7c([H])c([H])c(F)c([H])c7F)c([H])c6[H])c(C(=O)N([H])[H])c5N([H])[H])C4([H])[H])nc3N([H])[H])c([H])c([H])c2C1([H])[H]

>  <smiles>  (97) 
[H]c1c([H])c([H])c2c(c1[H])C([H])([H])C([H])([H])C([H])([H])C2([H])N([H])C(=O)C1([H])N(C(=O)C([H])(N([H])C(=O)C([H])(N([H])C([H])([H])[H])C([H])([H])[H])C(C([H])([H])[H])(C([H])([H])[H])C([H])([H])[H])C([H])([H])c2c([H])c(OC([H])(C([H])([H])[H])C([H])([H])C(=O)N([H])C(=O)c3sc(N([H])C(=O)N4C([H])([H])C([H])([H])C([H])([H])C([H])(n5nc(-c6c([H])c([H])c(Oc7c([H])c([H])c(F)c([H])c7F)c([H])c6[H])c(C(=O)N([H])[H])c5N([H])[H])C4([H])[H])nc3N([H])[H])c([H])c([H])c2C1([H])[H]

$$$$
