0:0:0
     RDKit          3D

 92100  0  0  1  0  0  0  0  0999 V2000
  -28.9020  -19.1480   20.1380 C   0  0  0  0  0  0  0  0  0  0  0  0
  -30.2250  -18.7700   19.9440 C   0  0  0  0  0  0  0  0  0  0  0  0
  -29.7240  -21.3330   19.9120 C   0  0  0  0  0  0  0  0  0  0  0  0
  -28.9090  -23.8650   20.0240 C   0  0  0  0  0  0  0  0  0  0  0  0
  -27.7610  -18.2150   20.4010 C   0  0  0  0  0  1  0  0  0  0  0  0
  -28.6400  -20.5590   20.1130 N   0  0  0  0  0  0  0  0  0  0  0  0
  -29.7880  -22.8100   19.8380 N   0  0  0  0  0  0  0  0  0  0  0  0
  -27.7440  -23.7000   20.3920 O   0  0  0  0  0  0  0  0  0  0  0  0
  -31.1560  -20.2750   19.7040 S   0  0  0  0  0  0  0  0  0  0  0  0
  -30.7090  -23.1360   19.5840 H   0  0  0  0  0  0  0  0  0  0  0  0
  -29.5940  -25.6660   18.2430 C   0  0  0  0  0  1  0  0  0  0  0  0
  -29.4430  -25.3550   19.7450 C   0  0  0  0  0  3  0  0  0  0  0  0
  -28.9640  -26.5180   20.5680 O   0  0  0  0  0  0  0  0  0  0  0  0
  -24.8050  -31.7700   23.2630 C   0  0  0  0  0  0  0  0  0  0  0  0
  -27.8010  -27.2960   20.3950 C   0  0  0  0  0  0  0  0  0  0  0  0
  -23.7770  -30.3360   21.5350 C   0  0  0  0  0  3  0  0  0  0  0  0
  -25.3830  -28.8380   20.2140 C   0  0  0  0  0  0  0  0  0  0  0  0
  -26.3100  -30.7400   21.5390 C   0  0  0  0  0  2  0  0  0  0  0  0
  -26.4860  -29.3670   20.8940 C   0  0  0  0  0  0  0  0  0  0  0  0
  -27.6930  -28.6060   20.9730 C   0  0  0  0  0  3  0  0  0  0  0  0
  -26.6620  -26.8130   19.7160 C   0  0  0  0  0  3  0  0  0  0  0  0
  -25.4750  -27.5700   19.6170 C   0  0  0  0  0  3  0  0  0  0  0  0
  -24.1160  -29.6720   20.1730 C   0  0  0  0  0  2  0  0  0  0  0  0
  -24.9780  -30.9680   22.1700 N   0  0  0  0  0  0  0  0  0  0  0  0
  -23.6750  -32.0060   23.7160 O   0  0  0  0  0  0  0  0  0  0  0  0
  -23.0810  -29.2940   22.4430 C   0  0  0  0  0  0  0  0  0  0  0  0
  -21.7570  -29.1280   22.2710 N   0  0  0  0  0  0  0  0  0  0  0  0
  -23.7310  -28.6390   23.2610 O   0  0  0  0  0  0  0  0  0  0  0  0
  -21.2920  -29.7090   21.5880 H   0  0  0  0  0  0  0  0  0  0  0  0
  -18.3410  -28.0400   22.7510 C   0  0  0  0  0  0  0  0  0  0  0  0
  -20.9130  -28.1700   22.9860 C   0  0  0  0  0  3  0  0  0  0  0  0
  -20.9420  -26.7830   22.3020 C   0  0  0  0  0  2  0  0  0  0  0  0
  -19.8100  -26.5850   21.2890 C   0  0  0  0  0  2  0  0  0  0  0  0
  -18.4470  -26.7390   21.9710 C   0  0  0  0  0  2  0  0  0  0  0  0
  -19.4990  -28.7190   23.2140 C   0  0  0  0  0  0  0  0  0  0  0  0
  -19.3460  -29.9410   23.9030 C   0  0  0  0  0  3  0  0  0  0  0  0
  -18.0670  -30.4820   24.1350 C   0  0  0  0  0  3  0  0  0  0  0  0
  -16.9240  -29.7980   23.6860 C   0  0  0  0  0  3  0  0  0  0  0  0
  -17.0620  -28.5780   23.0000 C   0  0  0  0  0  3  0  0  0  0  0  0
  -26.0120  -32.4460   23.9810 C   0  0  0  0  0  3  0  0  0  0  0  0
  -25.6390  -33.8390   24.2660 N   0  0  0  0  0  0  0  0  0  0  0  0
  -25.9840  -34.8910   23.5130 C   0  0  0  0  0  0  0  0  0  0  0  0
  -26.7190  -34.7950   22.5260 O   0  0  0  0  0  0  0  0  0  0  0  0
  -24.9930  -33.9860   25.0280 H   0  0  0  0  0  0  0  0  0  0  0  0
  -24.2140  -36.6140   23.0390 C   0  0  0  0  0  1  0  0  0  0  0  0
  -25.4270  -36.2700   23.9180 C   0  0  0  0  0  3  0  0  0  0  0  0
  -27.4760  -37.2580   24.8440 C   0  0  0  0  0  1  0  0  0  0  0  0
  -26.4250  -37.3570   23.8340 N   0  0  0  0  0  0  0  0  0  0  0  0
  -25.9780  -38.2650   23.9300 H   0  0  0  0  0  0  0  0  0  0  0  0
  -26.4410  -31.7060   25.3080 C   0  0  1  0  0  0  0  0  0  0  0  0
  -25.2630  -31.4230   26.2700 C   0  0  0  0  0  1  0  0  0  0  0  0
  -27.1200  -30.3550   24.9840 C   0  0  0  0  0  1  0  0  0  0  0  0
  -27.4860  -32.5550   26.0690 C   0  0  0  0  0  1  0  0  0  0  0  0
  -31.0080  -17.3950   20.0220 C   0  0  0  0  0  2  0  0  0  0  0  0
  -31.1130  -14.8220   20.0410 C   0  0  0  0  0  0  0  0  0  0  0  0
  -30.8220  -12.5360   19.0890 C   0  0  0  0  0  2  0  0  0  0  0  0
  -29.8590  -12.6060   17.8860 C   0  0  0  0  0  2  0  0  0  0  0  0
  -28.3970  -12.4740   18.3560 C   0  0  0  0  0  2  0  0  0  0  0  0
  -28.0720  -13.3930   19.5640 C   0  0  0  0  0  3  0  0  0  0  0  0
  -29.1570  -13.3170   20.6590 C   0  0  0  0  0  2  0  0  0  0  0  0
  -30.4410  -13.6220   20.0200 N   0  0  0  0  0  0  0  0  0  0  0  0
  -32.2970  -14.8620   19.6950 O   0  0  0  0  0  0  0  0  0  0  0  0
  -30.4110  -16.0050   20.2240 N   0  0  0  0  0  0  0  0  0  0  0  0
  -29.4300  -15.9350   20.4470 H   0  0  0  0  0  0  0  0  0  0  0  0
  -25.7310  -14.0410   20.3850 C   0  0  0  0  0  0  0  0  0  0  0  0
  -24.6560  -13.2920   20.7790 C   0  0  0  0  0  0  0  0  0  0  0  0
  -25.0770  -11.9290   20.7080 C   0  0  0  0  0  0  0  0  0  0  0  0
  -26.7380  -13.1360   20.0970 N   0  0  0  0  0  0  0  0  0  0  0  0
  -26.3540  -11.8580   20.3550 N   0  0  0  0  0  0  0  0  0  0  0  0
  -24.3170  -10.6860   20.8980 C   0  0  0  0  0  0  0  0  0  0  0  0
  -24.6940   -9.7320   21.8700 C   0  0  0  0  0  3  0  0  0  0  0  0
  -23.9370   -8.5550   22.0480 C   0  0  0  0  0  3  0  0  0  0  0  0
  -22.7890   -8.3220   21.2530 C   0  0  0  0  0  0  0  0  0  0  0  0
  -22.4320   -9.2630   20.2710 C   0  0  0  0  0  3  0  0  0  0  0  0
  -23.1900  -10.4320   20.0920 C   0  0  0  0  0  3  0  0  0  0  0  0
  -22.0070   -7.1950   21.3370 O   0  0  0  0  0  0  0  0  0  0  0  0
  -21.8320   -6.5270   22.5230 C   0  0  0  0  0  0  0  0  0  0  0  0
  -21.2010   -7.1320   23.6320 C   0  0  0  0  0  3  0  0  0  0  0  0
  -20.9800   -6.3880   24.8090 C   0  0  0  0  0  3  0  0  0  0  0  0
  -21.3790   -5.0400   24.8750 C   0  0  0  0  0  0  0  0  0  0  0  0
  -22.0020   -4.4350   23.7700 C   0  0  0  0  0  3  0  0  0  0  0  0
  -22.2250   -5.1760   22.5960 C   0  0  0  0  0  0  0  0  0  0  0  0
  -22.8070   -4.5820   21.5260 F   0  0  0  0  0  0  0  0  0  0  0  0
  -21.1590   -4.3220   26.0010 F   0  0  0  0  0  0  0  0  0  0  0  0
  -23.2850  -13.8070   21.1040 C   0  0  0  0  0  0  0  0  0  0  0  0
  -22.5780  -13.1380   22.0080 N   0  0  0  0  0  0  0  0  0  0  0  0
  -22.8500  -14.8370   20.5900 O   0  0  0  0  0  0  0  0  0  0  0  0
  -22.9430  -12.3050   22.4450 H   0  0  0  0  0  0  0  0  0  0  0  0
  -21.6590  -13.4650   22.2700 H   0  0  0  0  0  0  0  0  0  0  0  0
  -25.9300  -15.4090   20.2210 N   0  0  0  0  0  0  0  0  0  0  0  0
  -25.1750  -16.0740   20.3430 H   0  0  0  0  0  0  0  0  0  0  0  0
  -26.7520  -15.8170   19.7960 H   0  0  0  0  0  0  0  0  0  0  0  0
  1  5  1  0
  2 54  1  0
  2  1  2  0
  3  6  2  0
  4  8  2  0
  6  1  1  0
  7  3  1  0
  7  4  1  0
  9  3  1  0
  9  2  1  0
 10  7  1  0
 12 11  1  0
 12  4  1  0
 12 13  1  0
 14 25  2  0
 15 13  1  0
 15 20  1  0
 16 24  1  0
 16 26  1  0
 17 19  1  0
 18 24  1  0
 19 20  2  0
 19 18  1  0
 21 15  2  0
 22 21  1  0
 22 17  2  0
 23 17  1  0
 23 16  1  0
 24 14  1  0
 26 28  2  0
 27 26  1  0
 29 27  1  0
 30 39  2  0
 30 35  1  0
 31 27  1  0
 31 35  1  0
 32 31  1  0
 33 34  1  0
 33 32  1  0
 34 30  1  0
 35 36  2  0
 36 37  1  0
 38 37  2  0
 39 38  1  0
 40 14  1  0
 40 41  1  0
 40 50  1  0
 41 44  1  0
 42 46  1  0
 42 41  1  0
 43 42  2  0
 46 45  1  0
 48 46  1  0
 48 49  1  0
 48 47  1  0
 50 53  1  1
 50 51  1  0
 52 50  1  0
 54 63  1  0
 55 63  1  0
 56 61  1  0
 57 58  1  0
 57 56  1  0
 59 58  1  0
 59 68  1  0
 59 60  1  0
 61 55  1  0
 61 60  1  0
 62 55  2  0
 63 64  1  0
 65 66  2  0
 66 85  1  0
 67 66  1  0
 67 70  1  0
 68 69  1  0
 68 65  1  0
 69 67  2  0
 70 71  1  0
 71 72  2  0
 73 76  1  0
 73 72  1  0
 74 73  2  0
 75 74  1  0
 75 70  2  0
 76 77  1  0
 77 82  2  0
 77 78  1  0
 78 79  2  0
 79 80  1  0
 80 84  1  0
 81 80  2  0
 82 81  1  0
 83 82  1  0
 85 86  1  0
 86 89  1  0
 86 88  1  0
 87 85  2  0
 90 91  1  0
 90 65  1  0
 92 90  1  0
M  ISO  4  12 101  13 101  55 100  63 100
M  END
>  <TORSDO>  (1) 
F 18

>  <SCORE>  (1) 
-14.221

>  <name>  (1) 
0

>  <ligand_id>  (1) 
0

>  <original_smiles>  (1) 
[H]c1c([H])c([H])c2c(c1[H])C([H])([H])C([H])([H])C([H])([H])C2([H])N([H])C(=O)C1([H])N(C(=O)C([H])(N([H])C(=O)C([H])(N([H])C([H])([H])[H])C([H])([H])[H])C(C([H])([H])[H])(C([H])([H])[H])C([H])([H])[H])C([H])([H])c2c([H])c(OC([H])(C(=O)N([H])c3nc(C([H])([H])[H])c(C([H])([H])N([H])C(=O)N4C([H])([H])C([H])([H])C([H])([H])C([H])(n5nc(-c6c([H])c([H])c(Oc7c([H])c([H])c(F)c([H])c7F)c([H])c6[H])c(C(=O)N([H])[H])c5N([H])[H])C4([H])[H])s3)C([H])([H])[H])c([H])c([H])c2C1([H])[H]

>  <smiles>  (1) 
[H]c1c([H])c([H])c2c(c1[H])C([H])([H])C([H])([H])C([H])([H])C2([H])N([H])C(=O)C1([H])N(C(=O)C([H])(N([H])C(=O)C([H])(N([H])C([H])([H])[H])C([H])([H])[H])C(C([H])([H])[H])(C([H])([H])[H])C([H])([H])[H])C([H])([H])c2c([H])c(OC([H])(C(=O)N([H])c3nc(C([H])([H])[H])c(C([H])([H])N([H])C(=O)N4C([H])([H])C([H])([H])C([H])([H])C([H])(n5nc(-c6c([H])c([H])c(Oc7c([H])c([H])c(F)c([H])c7F)c([H])c6[H])c(C(=O)N([H])[H])c5N([H])[H])C4([H])[H])s3)C([H])([H])[H])c([H])c([H])c2C1([H])[H]

$$$$
2:0:0
     RDKit          3D

 94102  0  0  1  0  0  0  0  0999 V2000
  -28.9660  -21.1010   19.5630 C   0  0  0  0  0  3  0  0  0  0  0  0
  -30.6090  -14.6750   20.4740 C   0  0  0  0  0  0  0  0  0  0  0  0
  -30.4350  -12.4070   19.4620 C   0  0  0  0  0  2  0  0  0  0  0  0
  -29.5110  -12.5090   18.2280 C   0  0  0  0  0  2  0  0  0  0  0  0
  -28.0320  -12.3450   18.6350 C   0  0  0  0  0  2  0  0  0  0  0  0
  -27.6490  -13.2210   19.8580 C   0  0  0  0  0  3  0  0  0  0  0  0
  -28.6940  -13.0970   20.9910 C   0  0  0  0  0  2  0  0  0  0  0  0
  -30.0060  -13.4430   20.4240 N   0  0  0  0  0  0  0  0  0  0  0  0
  -31.7870  -14.8070   20.1210 O   0  0  0  0  0  0  0  0  0  0  0  0
  -30.8120  -19.1980   19.7940 C   0  0  0  0  0  0  0  0  0  0  0  0
  -29.5360  -19.7000   20.0130 C   0  0  0  0  0  0  0  0  0  0  0  0
  -29.8950  -17.1840   20.5030 C   0  0  0  0  0  0  0  0  0  0  0  0
  -31.9750  -19.9540   19.2230 C   0  0  0  0  0  1  0  0  0  0  0  0
  -30.9940  -17.8160   20.0660 N   0  0  0  0  0  0  0  0  0  0  0  0
  -29.7910  -15.7430   20.7630 N   0  0  0  0  0  0  0  0  0  0  0  0
  -28.5520  -18.3650   20.6730 S   0  0  0  0  0  0  0  0  0  0  0  0
  -28.8790  -15.4570   21.0810 H   0  0  0  0  0  0  0  0  0  0  0  0
  -25.2540  -13.8180   20.5680 C   0  0  0  0  0  0  0  0  0  0  0  0
  -24.1820  -13.0440   20.9200 C   0  0  0  0  0  0  0  0  0  0  0  0
  -24.6390  -11.6910   20.8750 C   0  0  0  0  0  0  0  0  0  0  0  0
  -26.2970  -12.9360   20.3280 N   0  0  0  0  0  0  0  0  0  0  0  0
  -25.9320  -11.6520   20.5730 N   0  0  0  0  0  0  0  0  0  0  0  0
  -23.9060  -10.4300   21.0410 C   0  0  0  0  0  0  0  0  0  0  0  0
  -24.3620   -9.4210   21.9190 C   0  0  0  0  0  3  0  0  0  0  0  0
  -23.6300   -8.2240   22.0750 C   0  0  0  0  0  3  0  0  0  0  0  0
  -22.4280   -8.0280   21.3550 C   0  0  0  0  0  0  0  0  0  0  0  0
  -21.9920   -9.0250   20.4650 C   0  0  0  0  0  3  0  0  0  0  0  0
  -22.7240  -10.2130   20.3060 C   0  0  0  0  0  3  0  0  0  0  0  0
  -21.6630   -6.8880   21.4250 O   0  0  0  0  0  0  0  0  0  0  0  0
  -21.6850   -6.0740   22.5290 C   0  0  0  0  0  0  0  0  0  0  0  0
  -21.4010   -6.5640   23.8220 C   0  0  0  0  0  3  0  0  0  0  0  0
  -21.3660   -5.6800   24.9180 C   0  0  0  0  0  3  0  0  0  0  0  0
  -21.6040   -4.3060   24.7230 C   0  0  0  0  0  0  0  0  0  0  0  0
  -21.8820   -3.8150   23.4350 C   0  0  0  0  0  3  0  0  0  0  0  0
  -21.9190   -4.6970   22.3410 C   0  0  0  0  0  0  0  0  0  0  0  0
  -22.1660   -4.2160   21.0980 F   0  0  0  0  0  0  0  0  0  0  0  0
  -21.5630   -3.4540   25.7740 F   0  0  0  0  0  0  0  0  0  0  0  0
  -22.7840  -13.5230   21.1870 C   0  0  0  0  0  0  0  0  0  0  0  0
  -22.0470  -12.8230   22.0420 N   0  0  0  0  0  0  0  0  0  0  0  0
  -22.3530  -14.5540   20.6710 O   0  0  0  0  0  0  0  0  0  0  0  0
  -22.4080  -11.9890   22.4800 H   0  0  0  0  0  0  0  0  0  0  0  0
  -21.1080  -13.1250   22.2610 H   0  0  0  0  0  0  0  0  0  0  0  0
  -25.4240  -15.1900   20.4080 N   0  0  0  0  0  0  0  0  0  0  0  0
  -24.6490  -15.8360   20.5090 H   0  0  0  0  0  0  0  0  0  0  0  0
  -26.2580  -15.6290   20.0410 H   0  0  0  0  0  0  0  0  0  0  0  0
  -27.7040  -20.9050   18.8330 N   0  0  0  0  0  4  0  0  0  0  0  0
  -26.9620  -20.6560   19.4620 H   0  0  0  0  0  0  0  0  0  0  0  0
  -27.8090  -20.1760   18.1510 H   0  0  0  0  0  0  0  0  0  0  0  0
  -27.4430  -21.7440   18.3470 H   0  0  0  0  0  0  0  0  0  0  0  0
  -29.9260  -22.3420   21.6180 C   0  0  0  0  0  1  0  0  0  0  0  0
  -28.8230  -22.3670   20.5460 C   0  0  0  0  0  3  0  0  0  0  0  0
  -28.7490  -23.8260   19.8500 C   0  0  0  0  0  3  0  0  0  0  0  0
  -28.1750  -25.0810   20.6630 C   0  0  0  0  0  3  0  0  0  0  0  0
  -28.3380  -26.4600   20.1340 O   0  0  0  0  0  0  0  0  0  0  0  0
  -24.6270  -31.8570   23.2010 C   0  0  0  0  0  0  0  0  0  0  0  0
  -27.2240  -27.3090   20.1310 C   0  0  0  0  0  0  0  0  0  0  0  0
  -23.4220  -30.4800   21.5440 C   0  0  0  0  0  3  0  0  0  0  0  0
  -24.8690  -28.9280   20.1140 C   0  0  0  0  0  0  0  0  0  0  0  0
  -25.9630  -30.7860   21.3720 C   0  0  0  0  0  2  0  0  0  0  0  0
  -26.0380  -29.4110   20.7180 C   0  0  0  0  0  0  0  0  0  0  0  0
  -27.2220  -28.6150   20.7110 C   0  0  0  0  0  3  0  0  0  0  0  0
  -26.0360  -26.8730   19.5080 C   0  0  0  0  0  3  0  0  0  0  0  0
  -24.8710  -27.6650   19.4980 C   0  0  0  0  0  3  0  0  0  0  0  0
  -23.6380  -29.8110   20.1600 C   0  0  0  0  0  2  0  0  0  0  0  0
  -24.6900  -31.0580   22.0960 N   0  0  0  0  0  0  0  0  0  0  0  0
  -23.5440  -32.1380   23.7330 O   0  0  0  0  0  0  0  0  0  0  0  0
  -22.7480  -29.4600   22.4940 C   0  0  0  0  0  0  0  0  0  0  0  0
  -21.4190  -29.3030   22.3690 N   0  0  0  0  0  0  0  0  0  0  0  0
  -23.4200  -28.8140   23.3020 O   0  0  0  0  0  0  0  0  0  0  0  0
  -20.9360  -29.8740   21.6900 H   0  0  0  0  0  0  0  0  0  0  0  0
  -18.0290  -28.1390   22.8490 C   0  0  0  0  0  0  0  0  0  0  0  0
  -20.5890  -28.3670   23.1300 C   0  0  0  0  0  3  0  0  0  0  0  0
  -20.6780  -26.9400   22.5420 C   0  0  0  0  0  2  0  0  0  0  0  0
  -19.5750  -26.6380   21.5220 C   0  0  0  0  0  2  0  0  0  0  0  0
  -18.1930  -26.7930   22.1630 C   0  0  0  0  0  2  0  0  0  0  0  0
  -19.1540  -28.8850   23.2890 C   0  0  0  0  0  0  0  0  0  0  0  0
  -18.9460  -30.1460   23.8890 C   0  0  0  0  0  3  0  0  0  0  0  0
  -17.6460  -30.6590   24.0560 C   0  0  0  0  0  3  0  0  0  0  0  0
  -16.5350  -29.9080   23.6340 C   0  0  0  0  0  3  0  0  0  0  0  0
  -16.7280  -28.6510   23.0350 C   0  0  0  0  0  3  0  0  0  0  0  0
  -25.9110  -32.4770   23.8340 C   0  0  0  0  0  3  0  0  0  0  0  0
  -26.4490  -31.6590   25.0720 C   0  0  1  0  0  0  0  0  0  0  0  0
  -25.3730  -31.3730   26.1450 C   0  0  0  0  0  1  0  0  0  0  0  0
  -27.0330  -30.3010   24.6170 C   0  0  0  0  0  1  0  0  0  0  0  0
  -27.6050  -32.4320   25.7490 C   0  0  0  0  0  1  0  0  0  0  0  0
  -25.5930  -33.8570   24.2270 N   0  0  0  0  0  0  0  0  0  0  0  0
  -25.9050  -34.9440   23.5090 C   0  0  0  0  0  0  0  0  0  0  0  0
  -26.5620  -34.8920   22.4660 O   0  0  0  0  0  0  0  0  0  0  0  0
  -25.0080  -33.9710   25.0420 H   0  0  0  0  0  0  0  0  0  0  0  0
  -24.1490  -36.7280   23.2640 C   0  0  0  0  0  1  0  0  0  0  0  0
  -25.4110  -36.3070   24.0330 C   0  0  0  0  0  3  0  0  0  0  0  0
  -27.5580  -37.1800   24.8460 C   0  0  0  0  0  1  0  0  0  0  0  0
  -26.4290  -37.3770   23.9420 N   0  0  0  0  0  0  0  0  0  0  0  0
  -26.0160  -38.2850   24.1420 H   0  0  0  0  0  0  0  0  0  0  0  0
  1 46  1  0
  1 11  1  0
  1 51  1  0
  2 15  1  0
  3  8  1  0
  4  5  1  0
  4  3  1  0
  6  5  1  0
  6 21  1  0
  6  7  1  0
  8  2  1  0
  8  7  1  0
  9  2  2  0
 10 11  2  0
 10 14  1  0
 11 16  1  0
 12 16  1  0
 12 15  1  0
 13 10  1  0
 14 12  2  0
 15 17  1  0
 18 19  2  0
 19 38  1  0
 20 19  1  0
 20 23  1  0
 21 18  1  0
 21 22  1  0
 22 20  2  0
 23 24  1  0
 24 25  2  0
 26 29  1  0
 26 25  1  0
 27 26  2  0
 28 27  1  0
 28 23  2  0
 29 30  1  0
 30 31  1  0
 31 32  2  0
 33 32  1  0
 33 37  1  0
 34 33  2  0
 35 30  2  0
 35 34  1  0
 36 35  1  0
 38 39  1  0
 39 42  1  0
 39 41  1  0
 40 38  2  0
 43 44  1  0
 43 18  1  0
 45 43  1  0
 46 47  1  0
 48 46  1  0
 49 46  1  0
 51 50  1  0
 52 51  1  0
 52 53  2  0
 54 53  1  0
 55 66  2  0
 56 54  1  0
 56 61  1  0
 57 65  1  0
 57 67  1  0
 58 64  1  0
 58 60  1  0
 59 65  1  0
 60 59  1  0
 61 60  2  0
 62 56  2  0
 63 62  1  0
 63 58  2  0
 64 57  1  0
 65 55  1  0
 67 69  2  0
 68 67  1  0
 70 68  1  0
 71 80  2  0
 71 76  1  0
 72 68  1  0
 72 76  1  0
 73 72  1  0
 74 75  1  0
 74 73  1  0
 75 71  1  0
 76 77  2  0
 77 78  1  0
 79 78  2  0
 80 79  1  0
 81 55  1  0
 81 86  1  0
 81 82  1  0
 82 85  1  1
 82 83  1  0
 84 82  1  0
 86 89  1  0
 87 91  1  0
 87 86  1  0
 88 87  2  0
 91 90  1  0
 93 91  1  0
 93 94  1  0
 93 92  1  0
M  ISO  4   2 100  15 100  53 101  54 101
M  END
>  <TORSDO>  (2) 
F 20

>  <SCORE>  (2) 
-13.826

>  <name>  (2) 
2

>  <ligand_id>  (2) 
2

>  <original_smiles>  (2) 
[H]c1c([H])c([H])c2c(c1[H])C([H])([H])C([H])([H])C([H])([H])C2([H])N([H])C(=O)C1([H])N(C(=O)C([H])(N([H])C(=O)C([H])(N([H])C([H])([H])[H])C([H])([H])[H])C(C([H])([H])[H])(C([H])([H])[H])C([H])([H])[H])C([H])([H])c2c([H])c(OC([H])([H])C([H])([H])C([H])(C([H])([H])[H])C([H])(c3sc(N([H])C(=O)N4C([H])([H])C([H])([H])C([H])([H])C([H])(n5nc(-c6c([H])c([H])c(Oc7c([H])c([H])c(F)c([H])c7F)c([H])c6[H])c(C(=O)N([H])[H])c5N([H])[H])C4([H])[H])nc3C([H])([H])[H])[N+]([H])([H])[H])c([H])c([H])c2C1([H])[H]

>  <smiles>  (2) 
[H]c1c([H])c([H])c2c(c1[H])C([H])([H])C([H])([H])C([H])([H])C2([H])N([H])C(=O)C1([H])N(C(=O)C([H])(N([H])C(=O)C([H])(N([H])C([H])([H])[H])C([H])([H])[H])C(C([H])([H])[H])(C([H])([H])[H])C([H])([H])[H])C([H])([H])c2c([H])c(OC([H])([H])C([H])([H])C([H])(C([H])([H])[H])C([H])(c3sc(N([H])C(=O)N4C([H])([H])C([H])([H])C([H])([H])C([H])(n5nc(-c6c([H])c([H])c(Oc7c([H])c([H])c(F)c([H])c7F)c([H])c6[H])c(C(=O)N([H])[H])c5N([H])[H])C4([H])[H])nc3C([H])([H])[H])[N+]([H])([H])[H])c([H])c([H])c2C1([H])[H]

$$$$
3:0:0
     RDKit          3D

 94102  0  0  1  0  0  0  0  0999 V2000
  -29.1280  -22.4890   20.1170 C   0  0  0  0  0  0  0  0  0  0  0  0
  -28.7390  -21.1780   20.3810 N   0  0  0  0  0  0  0  0  0  0  0  0
  -30.2940  -22.7550   19.8370 O   0  0  0  0  0  0  0  0  0  0  0  0
  -27.7400  -21.1130   20.5240 H   0  0  0  0  0  0  0  0  0  0  0  0
  -30.5660  -14.7810   20.2880 C   0  0  0  0  0  0  0  0  0  0  0  0
  -30.4180  -12.5130   19.2470 C   0  0  0  0  0  2  0  0  0  0  0  0
  -29.4620  -12.6010   18.0360 C   0  0  0  0  0  2  0  0  0  0  0  0
  -27.9920  -12.4220   18.4690 C   0  0  0  0  0  2  0  0  0  0  0  0
  -27.6260  -13.2810   19.7070 C   0  0  0  0  0  3  0  0  0  0  0  0
  -28.6930  -13.1570   20.8180 C   0  0  0  0  0  2  0  0  0  0  0  0
  -29.9860  -13.5330   20.2270 N   0  0  0  0  0  0  0  0  0  0  0  0
  -31.7470  -14.9290   19.9490 O   0  0  0  0  0  0  0  0  0  0  0  0
  -30.7140  -19.4700   20.4570 C   0  0  0  0  0  0  0  0  0  0  0  0
  -29.3810  -19.9140   20.4030 C   0  0  0  0  0  0  0  0  0  0  0  0
  -29.7860  -17.3130   20.4380 C   0  0  0  0  0  0  0  0  0  0  0  0
  -30.9050  -18.0460   20.4360 N   0  0  0  0  0  0  0  0  0  0  0  0
  -29.7050  -15.8370   20.5330 N   0  0  0  0  0  0  0  0  0  0  0  0
  -28.3800  -18.4250   20.4020 S   0  0  0  0  0  0  0  0  0  0  0  0
  -28.7780  -15.5100   20.7510 H   0  0  0  0  0  0  0  0  0  0  0  0
  -25.2340  -13.8640   20.4310 C   0  0  0  0  0  0  0  0  0  0  0  0
  -24.1750  -13.0870   20.8120 C   0  0  0  0  0  0  0  0  0  0  0  0
  -24.6470  -11.7390   20.7900 C   0  0  0  0  0  0  0  0  0  0  0  0
  -26.2840  -12.9890   20.2000 N   0  0  0  0  0  0  0  0  0  0  0  0
  -25.9380  -11.7070   20.4780 N   0  0  0  0  0  0  0  0  0  0  0  0
  -23.9290  -10.4740   20.9920 C   0  0  0  0  0  0  0  0  0  0  0  0
  -24.3710   -9.5180   21.9330 C   0  0  0  0  0  3  0  0  0  0  0  0
  -23.6550   -8.3160   22.1230 C   0  0  0  0  0  3  0  0  0  0  0  0
  -22.4840   -8.0620   21.3720 C   0  0  0  0  0  0  0  0  0  0  0  0
  -22.0620   -9.0060   20.4190 C   0  0  0  0  0  3  0  0  0  0  0  0
  -22.7780  -10.1990   20.2290 C   0  0  0  0  0  3  0  0  0  0  0  0
  -21.7390   -6.9120   21.4720 O   0  0  0  0  0  0  0  0  0  0  0  0
  -21.6970   -6.1790   22.6300 C   0  0  0  0  0  0  0  0  0  0  0  0
  -21.2620   -6.7380   23.8500 C   0  0  0  0  0  3  0  0  0  0  0  0
  -21.1670   -5.9310   25.0010 C   0  0  0  0  0  3  0  0  0  0  0  0
  -21.4970   -4.5650   24.9330 C   0  0  0  0  0  0  0  0  0  0  0  0
  -21.9240   -4.0030   23.7170 C   0  0  0  0  0  3  0  0  0  0  0  0
  -22.0200   -4.8070   22.5680 C   0  0  0  0  0  0  0  0  0  0  0  0
  -22.4130   -4.2570   21.3940 F   0  0  0  0  0  0  0  0  0  0  0  0
  -21.3980   -3.7880   26.0370 F   0  0  0  0  0  0  0  0  0  0  0  0
  -22.7750  -13.5570   21.0820 C   0  0  0  0  0  0  0  0  0  0  0  0
  -22.0520  -12.8610   21.9530 N   0  0  0  0  0  0  0  0  0  0  0  0
  -22.3320  -14.5790   20.5590 O   0  0  0  0  0  0  0  0  0  0  0  0
  -22.4200  -12.0360   22.4010 H   0  0  0  0  0  0  0  0  0  0  0  0
  -21.1130  -13.1610   22.1760 H   0  0  0  0  0  0  0  0  0  0  0  0
  -25.3860  -15.2340   20.2380 N   0  0  0  0  0  0  0  0  0  0  0  0
  -24.6010  -15.8720   20.3250 H   0  0  0  0  0  0  0  0  0  0  0  0
  -26.2030  -15.6720   19.8360 H   0  0  0  0  0  0  0  0  0  0  0  0
  -31.9080  -20.2980   20.6320 C   0  0  0  0  0  0  0  0  0  0  0  0
  -33.0770  -19.9400   19.7220 C   0  0  0  0  0  1  0  0  0  0  0  0
  -32.0660  -21.1750   21.4860 O   0  0  0  0  0  0  0  0  0  0  0  0
  -26.6510  -23.2120   20.3760 C   0  0  0  0  0  1  0  0  0  0  0  0
  -28.0760  -23.7080   20.0460 C   0  0  0  0  0  3  0  0  0  0  0  0
  -28.3750  -25.1160   20.8010 C   0  0  0  0  0  2  0  0  0  0  0  0
  -28.3770  -26.4720   20.1590 O   0  0  0  0  0  0  0  0  0  0  0  0
  -24.6170  -31.8880   23.2280 C   0  0  0  0  0  0  0  0  0  0  0  0
  -27.2450  -27.3070   20.1980 C   0  0  0  0  0  0  0  0  0  0  0  0
  -23.4210  -30.4840   21.5840 C   0  0  0  0  0  3  0  0  0  0  0  0
  -24.8790  -28.9230   20.1710 C   0  0  0  0  0  0  0  0  0  0  0  0
  -25.9610  -30.8020   21.4080 C   0  0  0  0  0  2  0  0  0  0  0  0
  -26.0440  -29.4160   20.7710 C   0  0  0  0  0  0  0  0  0  0  0  0
  -27.2330  -28.6220   20.7690 C   0  0  0  0  0  3  0  0  0  0  0  0
  -26.0600  -26.8690   19.5780 C   0  0  0  0  0  3  0  0  0  0  0  0
  -24.8900  -27.6570   19.5630 C   0  0  0  0  0  3  0  0  0  0  0  0
  -23.6410  -29.8010   20.2070 C   0  0  0  0  0  2  0  0  0  0  0  0
  -24.6860  -31.0780   22.1290 N   0  0  0  0  0  0  0  0  0  0  0  0
  -23.5320  -32.1610   23.7610 O   0  0  0  0  0  0  0  0  0  0  0  0
  -22.7580  -29.4700   22.5460 C   0  0  0  0  0  0  0  0  0  0  0  0
  -21.4320  -29.2930   22.4220 N   0  0  0  0  0  0  0  0  0  0  0  0
  -23.4390  -28.8440   23.3630 O   0  0  0  0  0  0  0  0  0  0  0  0
  -20.9420  -29.8500   21.7360 H   0  0  0  0  0  0  0  0  0  0  0  0
  -18.0550  -28.1020   22.9350 C   0  0  0  0  0  0  0  0  0  0  0  0
  -20.6160  -28.3550   23.1930 C   0  0  0  0  0  3  0  0  0  0  0  0
  -20.7120  -26.9260   22.6100 C   0  0  0  0  0  2  0  0  0  0  0  0
  -19.6030  -26.6100   21.6000 C   0  0  0  0  0  2  0  0  0  0  0  0
  -18.2240  -26.7550   22.2520 C   0  0  0  0  0  2  0  0  0  0  0  0
  -19.1780  -28.8590   23.3630 C   0  0  0  0  0  0  0  0  0  0  0  0
  -18.9640  -30.1190   23.9630 C   0  0  0  0  0  3  0  0  0  0  0  0
  -17.6610  -30.6230   24.1390 C   0  0  0  0  0  3  0  0  0  0  0  0
  -16.5540  -29.8630   23.7260 C   0  0  0  0  0  3  0  0  0  0  0  0
  -16.7510  -28.6030   23.1310 C   0  0  0  0  0  3  0  0  0  0  0  0
  -25.8960  -32.5260   23.8530 C   0  0  0  0  0  3  0  0  0  0  0  0
  -26.4110  -31.7560   25.1320 C   0  0  1  0  0  0  0  0  0  0  0  0
  -25.3170  -31.5160   26.1980 C   0  0  0  0  0  1  0  0  0  0  0  0
  -26.9990  -30.3800   24.7440 C   0  0  0  0  0  1  0  0  0  0  0  0
  -27.5570  -32.5540   25.7960 C   0  0  0  0  0  1  0  0  0  0  0  0
  -25.5800  -33.9220   24.1850 N   0  0  0  0  0  0  0  0  0  0  0  0
  -25.9110  -34.9780   23.4310 C   0  0  0  0  0  0  0  0  0  0  0  0
  -26.5830  -34.8800   22.4000 O   0  0  0  0  0  0  0  0  0  0  0  0
  -24.9870  -34.0720   24.9880 H   0  0  0  0  0  0  0  0  0  0  0  0
  -24.1820  -36.7720   23.0730 C   0  0  0  0  0  1  0  0  0  0  0  0
  -25.4190  -36.3650   23.8920 C   0  0  0  0  0  3  0  0  0  0  0  0
  -27.5460  -37.2510   24.7400 C   0  0  0  0  0  1  0  0  0  0  0  0
  -26.4500  -37.4210   23.7890 N   0  0  0  0  0  0  0  0  0  0  0  0
  -26.0410  -38.3400   23.9350 H   0  0  0  0  0  0  0  0  0  0  0  0
  1  2  1  0
  2 14  1  0
  2  4  1  0
  3  1  2  0
  5 17  1  0
  6 11  1  0
  7  8  1  0
  7  6  1  0
  9  8  1  0
  9 23  1  0
  9 10  1  0
 11  5  1  0
 11 10  1  0
 12  5  2  0
 13 48  1  0
 14 13  2  0
 15 17  1  0
 16 15  2  0
 16 13  1  0
 17 19  1  0
 18 14  1  0
 18 15  1  0
 20 21  2  0
 21 40  1  0
 22 21  1  0
 22 25  1  0
 23 20  1  0
 23 24  1  0
 24 22  2  0
 25 26  1  0
 26 27  2  0
 28 31  1  0
 28 27  1  0
 29 28  2  0
 30 29  1  0
 30 25  2  0
 31 32  1  0
 32 33  1  0
 33 34  2  0
 35 34  1  0
 35 39  1  0
 36 35  2  0
 37 32  2  0
 37 36  1  0
 38 37  1  0
 40 41  1  0
 41 44  1  0
 41 43  1  0
 42 40  2  0
 45 46  1  0
 45 20  1  0
 47 45  1  0
 48 50  2  0
 49 48  1  0
 52  1  1  0
 52 51  1  0
 52 53  1  0
 54 56  1  0
 54 53  1  0
 55 66  2  0
 56 61  1  0
 57 65  1  0
 57 67  1  0
 58 64  1  0
 58 60  1  0
 59 65  1  0
 60 59  1  0
 61 60  2  0
 62 56  2  0
 63 62  1  0
 63 58  2  0
 64 57  1  0
 65 55  1  0
 67 69  2  0
 68 67  1  0
 70 68  1  0
 71 80  2  0
 71 76  1  0
 72 68  1  0
 72 76  1  0
 73 72  1  0
 74 75  1  0
 74 73  1  0
 75 71  1  0
 76 77  2  0
 77 78  1  0
 79 78  2  0
 80 79  1  0
 81 55  1  0
 81 86  1  0
 81 82  1  0
 82 85  1  1
 82 83  1  0
 84 82  1  0
 86 89  1  0
 87 91  1  0
 87 86  1  0
 88 87  2  0
 91 90  1  0
 93 91  1  0
 93 94  1  0
 93 92  1  0
M  ISO  4   5 100  17 100  53 101  54 101
M  END
>  <TORSDO>  (3) 
F 19

>  <SCORE>  (3) 
-14.517

>  <name>  (3) 
3

>  <ligand_id>  (3) 
3

>  <original_smiles>  (3) 
[H]c1c([H])c([H])c2c(c1[H])C([H])([H])C([H])([H])C([H])([H])C2([H])N([H])C(=O)C1([H])N(C(=O)C([H])(N([H])C(=O)C([H])(N([H])C([H])([H])[H])C([H])([H])[H])C(C([H])([H])[H])(C([H])([H])[H])C([H])([H])[H])C([H])([H])c2c([H])c(OC([H])([H])C([H])(C(=O)N([H])c3sc(N([H])C(=O)N4C([H])([H])C([H])([H])C([H])([H])C([H])(n5nc(-c6c([H])c([H])c(Oc7c([H])c([H])c(F)c([H])c7F)c([H])c6[H])c(C(=O)N([H])[H])c5N([H])[H])C4([H])[H])nc3C(=O)C([H])([H])[H])C([H])([H])[H])c([H])c([H])c2C1([H])[H]

>  <smiles>  (3) 
[H]c1c([H])c([H])c2c(c1[H])C([H])([H])C([H])([H])C([H])([H])C2([H])N([H])C(=O)C1([H])N(C(=O)C([H])(N([H])C(=O)C([H])(N([H])C([H])([H])[H])C([H])([H])[H])C(C([H])([H])[H])(C([H])([H])[H])C([H])([H])[H])C([H])([H])c2c([H])c(OC([H])([H])C([H])(C(=O)N([H])c3sc(N([H])C(=O)N4C([H])([H])C([H])([H])C([H])([H])C([H])(n5nc(-c6c([H])c([H])c(Oc7c([H])c([H])c(F)c([H])c7F)c([H])c6[H])c(C(=O)N([H])[H])c5N([H])[H])C4([H])[H])nc3C(=O)C([H])([H])[H])C([H])([H])[H])c([H])c([H])c2C1([H])[H]

$$$$
4:0:0
     RDKit          3D

 95103  0  0  1  0  0  0  0  0999 V2000
  -28.3160  -22.1610   19.6710 C   0  0  0  0  0  0  0  0  0  0  0  0
  -28.9580  -21.0560   19.2610 N   0  0  0  0  0  0  0  0  0  0  0  0
  -27.7970  -22.2790   20.7830 O   0  0  0  0  0  0  0  0  0  0  0  0
  -29.4330  -21.1340   18.3740 H   0  0  0  0  0  0  0  0  0  0  0  0
  -30.0040  -18.8980   19.7130 C   0  0  0  0  0  0  0  0  0  0  0  0
  -29.7180  -17.6880   20.4490 C   0  0  0  0  0  0  0  0  0  0  0  0
  -29.0180  -19.8390   19.8600 C   0  0  0  0  0  0  0  0  0  0  0  0
  -31.2360  -19.1200   18.8700 C   0  0  0  0  0  1  0  0  0  0  0  0
  -28.5680  -17.6760   21.0960 N   0  0  0  0  0  0  0  0  0  0  0  0
  -27.7880  -19.1480   20.8800 S   0  0  0  0  0  0  0  0  0  0  0  0
  -30.7030  -14.3020   19.6790 C   0  0  0  0  0  0  0  0  0  0  0  0
  -30.1870  -12.1880   18.5240 C   0  0  0  0  0  2  0  0  0  0  0  0
  -29.1330  -12.4330   17.4270 C   0  0  0  0  0  2  0  0  0  0  0  0
  -27.7110  -12.3180   18.0100 C   0  0  0  0  0  2  0  0  0  0  0  0
  -27.5250  -13.1460   19.3120 C   0  0  0  0  0  3  0  0  0  0  0  0
  -28.6890  -12.9040   20.2990 C   0  0  0  0  0  2  0  0  0  0  0  0
  -29.9490  -13.1750   19.5900 N   0  0  0  0  0  0  0  0  0  0  0  0
  -31.7760  -14.4110   19.0780 O   0  0  0  0  0  0  0  0  0  0  0  0
  -30.6840  -16.5480   20.4970 C   0  0  0  0  0  0  0  0  0  0  0  0
  -30.1240  -15.3410   20.3030 N   0  0  0  0  0  0  0  0  0  0  0  0
  -31.8990  -16.7500   20.6250 O   0  0  0  0  0  0  0  0  0  0  0  0
  -29.1380  -15.2770   20.4950 H   0  0  0  0  0  0  0  0  0  0  0  0
  -25.2380  -13.7780   20.3020 C   0  0  0  0  0  0  0  0  0  0  0  0
  -24.2000  -13.0170   20.7660 C   0  0  0  0  0  0  0  0  0  0  0  0
  -24.6220  -11.6560   20.6450 C   0  0  0  0  0  0  0  0  0  0  0  0
  -26.2290  -12.8830   19.9300 N   0  0  0  0  0  0  0  0  0  0  0  0
  -25.8670  -11.6000   20.1930 N   0  0  0  0  0  0  0  0  0  0  0  0
  -23.8890  -10.4050   20.8780 C   0  0  0  0  0  0  0  0  0  0  0  0
  -24.3660   -9.4270   21.7790 C   0  0  0  0  0  3  0  0  0  0  0  0
  -23.6360   -8.2410   22.0000 C   0  0  0  0  0  3  0  0  0  0  0  0
  -22.4140   -8.0210   21.3210 C   0  0  0  0  0  0  0  0  0  0  0  0
  -21.9560   -8.9870   20.4070 C   0  0  0  0  0  3  0  0  0  0  0  0
  -22.6860  -10.1660   20.1840 C   0  0  0  0  0  3  0  0  0  0  0  0
  -21.6490   -6.8870   21.4520 O   0  0  0  0  0  0  0  0  0  0  0  0
  -21.6190   -6.1740   22.6240 C   0  0  0  0  0  0  0  0  0  0  0  0
  -21.2300   -6.7640   23.8460 C   0  0  0  0  0  3  0  0  0  0  0  0
  -21.1430   -5.9780   25.0120 C   0  0  0  0  0  3  0  0  0  0  0  0
  -21.4360   -4.6020   24.9570 C   0  0  0  0  0  0  0  0  0  0  0  0
  -21.8180   -4.0120   23.7400 C   0  0  0  0  0  3  0  0  0  0  0  0
  -21.9060   -4.7950   22.5770 C   0  0  0  0  0  0  0  0  0  0  0  0
  -22.2540   -4.2170   21.4020 F   0  0  0  0  0  0  0  0  0  0  0  0
  -21.3460   -3.8450   26.0760 F   0  0  0  0  0  0  0  0  0  0  0  0
  -22.8530  -13.5140   21.2090 C   0  0  0  0  0  0  0  0  0  0  0  0
  -22.2170  -12.8120   22.1410 N   0  0  0  0  0  0  0  0  0  0  0  0
  -22.3790  -14.5580   20.7630 O   0  0  0  0  0  0  0  0  0  0  0  0
  -22.6190  -11.9680   22.5180 H   0  0  0  0  0  0  0  0  0  0  0  0
  -21.3200  -13.1250   22.4820 H   0  0  0  0  0  0  0  0  0  0  0  0
  -25.4140  -15.1490   20.1420 N   0  0  0  0  0  0  0  0  0  0  0  0
  -24.6740  -15.8140   20.3410 H   0  0  0  0  0  0  0  0  0  0  0  0
  -26.2250  -15.5800   19.7180 H   0  0  0  0  0  0  0  0  0  0  0  0
  -26.7810  -23.5230   18.2080 C   0  0  0  0  0  1  0  0  0  0  0  0
  -28.2410  -23.3130   18.6500 C   0  0  0  0  0  3  0  0  0  0  0  0
  -28.9150  -24.6400   19.0920 C   0  0  0  0  0  2  0  0  0  0  0  0
  -28.4160  -25.3010   20.3920 C   0  0  0  0  0  2  0  0  0  0  0  0
  -28.5160  -26.7270   20.3000 O   0  0  0  0  0  0  0  0  0  0  0  0
  -24.6050  -31.8870   23.2160 C   0  0  0  0  0  0  0  0  0  0  0  0
  -27.3330  -27.4330   20.2430 C   0  0  0  0  0  0  0  0  0  0  0  0
  -23.4340  -30.4430   21.5850 C   0  0  0  0  0  3  0  0  0  0  0  0
  -24.9190  -28.9040   20.2010 C   0  0  0  0  0  0  0  0  0  0  0  0
  -25.9540  -30.8320   21.4060 C   0  0  0  0  0  2  0  0  0  0  0  0
  -26.0630  -29.4510   20.7930 C   0  0  0  0  0  0  0  0  0  0  0  0
  -27.2730  -28.7240   20.8100 C   0  0  0  0  0  3  0  0  0  0  0  0
  -26.1740  -26.9030   19.6290 C   0  0  0  0  0  3  0  0  0  0  0  0
  -24.9680  -27.6270   19.6160 C   0  0  0  0  0  3  0  0  0  0  0  0
  -23.6650  -29.7470   20.2190 C   0  0  0  0  0  2  0  0  0  0  0  0
  -24.6820  -31.0700   22.1280 N   0  0  0  0  0  0  0  0  0  0  0  0
  -23.5160  -32.1570   23.7390 O   0  0  0  0  0  0  0  0  0  0  0  0
  -22.7830  -29.4300   22.5550 C   0  0  0  0  0  0  0  0  0  0  0  0
  -21.4650  -29.2200   22.4080 N   0  0  0  0  0  0  0  0  0  0  0  0
  -23.4610  -28.8350   23.3960 O   0  0  0  0  0  0  0  0  0  0  0  0
  -20.9760  -29.7530   21.7020 H   0  0  0  0  0  0  0  0  0  0  0  0
  -18.1070  -27.9680   22.8630 C   0  0  0  0  0  0  0  0  0  0  0  0
  -20.6520  -28.2830   23.1840 C   0  0  0  0  0  3  0  0  0  0  0  0
  -20.7970  -26.8410   22.6450 C   0  0  0  0  0  2  0  0  0  0  0  0
  -19.7250  -26.4710   21.6170 C   0  0  0  0  0  2  0  0  0  0  0  0
  -18.3270  -26.6050   22.2260 C   0  0  0  0  0  2  0  0  0  0  0  0
  -19.2000  -28.7620   23.2990 C   0  0  0  0  0  0  0  0  0  0  0  0
  -18.9430  -30.0360   23.8500 C   0  0  0  0  0  3  0  0  0  0  0  0
  -17.6260  -30.5160   23.9700 C   0  0  0  0  0  3  0  0  0  0  0  0
  -16.5460  -29.7180   23.5530 C   0  0  0  0  0  3  0  0  0  0  0  0
  -16.7880  -28.4470   23.0050 C   0  0  0  0  0  3  0  0  0  0  0  0
  -25.8780  -32.5440   23.8360 C   0  0  0  0  0  3  0  0  0  0  0  0
  -26.3830  -31.8140   25.1400 C   0  0  1  0  0  0  0  0  0  0  0  0
  -25.2780  -31.5960   26.1990 C   0  0  0  0  0  1  0  0  0  0  0  0
  -26.9830  -30.4330   24.7920 C   0  0  0  0  0  1  0  0  0  0  0  0
  -27.5180  -32.6390   25.7950 C   0  0  0  0  0  1  0  0  0  0  0  0
  -25.5580  -33.9490   24.1200 N   0  0  0  0  0  0  0  0  0  0  0  0
  -25.8870  -34.9770   23.3260 C   0  0  0  0  0  0  0  0  0  0  0  0
  -26.5630  -34.8440   22.3020 O   0  0  0  0  0  0  0  0  0  0  0  0
  -24.9630  -34.1290   24.9150 H   0  0  0  0  0  0  0  0  0  0  0  0
  -24.1410  -36.7370   22.9070 C   0  0  0  0  0  1  0  0  0  0  0  0
  -25.3850  -36.3760   23.7340 C   0  0  0  0  0  3  0  0  0  0  0  0
  -27.5100  -37.3060   24.5400 C   0  0  0  0  0  1  0  0  0  0  0  0
  -26.4080  -37.4340   23.5900 N   0  0  0  0  0  0  0  0  0  0  0  0
  -25.9940  -38.3550   23.7080 H   0  0  0  0  0  0  0  0  0  0  0  0
  1  3  2  0
  2  1  1  0
  2  7  1  0
  4  2  1  0
  5  7  2  0
  5  6  1  0
  6 19  1  0
  6  9  2  0
  7 10  1  0
  8  5  1  0
 10  9  1  0
 11 20  1  0
 12 17  1  0
 13 14  1  0
 13 12  1  0
 15 14  1  0
 15 26  1  0
 15 16  1  0
 17 11  1  0
 17 16  1  0
 18 11  2  0
 19 21  2  0
 20 22  1  0
 20 19  1  0
 23 24  2  0
 24 43  1  0
 25 24  1  0
 25 28  1  0
 26 27  1  0
 26 23  1  0
 27 25  2  0
 28 29  1  0
 29 30  2  0
 31 34  1  0
 31 30  1  0
 32 31  2  0
 33 32  1  0
 33 28  2  0
 34 35  1  0
 35 36  1  0
 36 37  2  0
 38 37  1  0
 38 42  1  0
 39 38  2  0
 40 35  2  0
 40 39  1  0
 41 40  1  0
 43 44  1  0
 44 47  1  0
 44 46  1  0
 45 43  2  0
 48 23  1  0
 48 49  1  0
 50 48  1  0
 52 51  1  0
 52 53  1  0
 52  1  1  0
 53 54  1  0
 55 54  1  0
 56 67  2  0
 57 55  1  0
 57 62  1  0
 58 66  1  0
 58 68  1  0
 59 65  1  0
 59 61  1  0
 60 66  1  0
 61 62  2  0
 61 60  1  0
 63 57  2  0
 64 63  1  0
 64 59  2  0
 65 58  1  0
 66 56  1  0
 68 70  2  0
 69 68  1  0
 71 69  1  0
 72 81  2  0
 72 77  1  0
 73 69  1  0
 73 77  1  0
 74 73  1  0
 75 76  1  0
 75 74  1  0
 76 72  1  0
 77 78  2  0
 78 79  1  0
 80 79  2  0
 81 80  1  0
 82 56  1  0
 82 87  1  0
 82 83  1  0
 83 86  1  1
 83 84  1  0
 85 83  1  0
 87 90  1  0
 88 92  1  0
 88 87  1  0
 89 88  2  0
 92 91  1  0
 94 95  1  0
 94 92  1  0
 94 93  1  0
M  ISO  4  11 100  20 100  54 101  55 101
M  END
>  <TORSDO>  (4) 
F 20

>  <SCORE>  (4) 
-12.410

>  <name>  (4) 
4

>  <ligand_id>  (4) 
4

>  <original_smiles>  (4) 
[H]c1c([H])c([H])c2c(c1[H])C([H])([H])C([H])([H])C([H])([H])C2([H])N([H])C(=O)C1([H])N(C(=O)C([H])(N([H])C(=O)C([H])(N([H])C([H])([H])[H])C([H])([H])[H])C(C([H])([H])[H])(C([H])([H])[H])C([H])([H])[H])C([H])([H])c2c([H])c(OC([H])([H])C([H])([H])C([H])(C(=O)N([H])c3snc(C(=O)N([H])C(=O)N4C([H])([H])C([H])([H])C([H])([H])C([H])(n5nc(-c6c([H])c([H])c(Oc7c([H])c([H])c(F)c([H])c7F)c([H])c6[H])c(C(=O)N([H])[H])c5N([H])[H])C4([H])[H])c3C([H])([H])[H])C([H])([H])[H])c([H])c([H])c2C1([H])[H]

>  <smiles>  (4) 
[H]c1c([H])c([H])c2c(c1[H])C([H])([H])C([H])([H])C([H])([H])C2([H])N([H])C(=O)C1([H])N(C(=O)C([H])(N([H])C(=O)C([H])(N([H])C([H])([H])[H])C([H])([H])[H])C(C([H])([H])[H])(C([H])([H])[H])C([H])([H])[H])C([H])([H])c2c([H])c(OC([H])([H])C([H])([H])C([H])(C(=O)N([H])c3snc(C(=O)N([H])C(=O)N4C([H])([H])C([H])([H])C([H])([H])C([H])(n5nc(-c6c([H])c([H])c(Oc7c([H])c([H])c(F)c([H])c7F)c([H])c6[H])c(C(=O)N([H])[H])c5N([H])[H])C4([H])[H])c3C([H])([H])[H])C([H])([H])[H])c([H])c([H])c2C1([H])[H]

$$$$
5:0:0
     RDKit          3D

 95103  0  0  1  0  0  0  0  0999 V2000
  -29.3950  -22.7020   19.5880 C   0  0  0  0  0  0  0  0  0  0  0  0
  -30.4070  -21.7890   19.7440 N   0  0  0  0  0  0  0  0  0  0  0  0
  -28.2230  -22.3350   19.5080 O   0  0  0  0  0  0  0  0  0  0  0  0
  -31.3290  -22.1990   19.6730 H   0  0  0  0  0  0  0  0  0  0  0  0
  -31.5400  -15.0000   19.7730 C   0  0  0  0  0  0  0  0  0  0  0  0
  -31.3190  -12.6940   18.8660 C   0  0  0  0  0  2  0  0  0  0  0  0
  -30.2530  -12.7150   17.7470 C   0  0  0  0  0  2  0  0  0  0  0  0
  -28.8390  -12.5260   18.3320 C   0  0  0  0  0  2  0  0  0  0  0  0
  -28.5680  -13.4510   19.5480 C   0  0  0  0  0  3  0  0  0  0  0  0
  -29.7370  -13.3990   20.5590 C   0  0  0  0  0  2  0  0  0  0  0  0
  -30.9730  -13.7520   19.8370 N   0  0  0  0  0  0  0  0  0  0  0  0
  -32.6350  -15.1740   19.2250 O   0  0  0  0  0  0  0  0  0  0  0  0
  -31.3880  -19.5630   19.1490 C   0  0  0  0  0  3  0  0  0  0  0  0
  -29.5260  -19.5470   20.6530 C   0  0  0  0  0  0  0  0  0  0  0  0
  -30.3860  -20.3200   19.8180 C   0  0  0  0  0  0  0  0  0  0  0  0
  -29.7010  -18.1320   20.7330 C   0  0  0  0  0  0  0  0  0  0  0  0
  -30.7330  -17.4650   20.0270 C   0  0  0  0  0  0  0  0  0  0  0  0
  -31.5590  -18.2070   19.2370 N   0  0  0  0  0  0  0  0  0  0  0  0
  -30.7650  -16.0240   20.2370 N   0  0  0  0  0  0  0  0  0  0  0  0
  -28.8830  -17.3950   21.5280 F   0  0  0  0  0  0  0  0  0  0  0  0
  -29.9660  -15.7090   20.7650 H   0  0  0  0  0  0  0  0  0  0  0  0
  -26.3620  -14.0240   20.7380 C   0  0  0  0  0  0  0  0  0  0  0  0
  -25.3000  -13.2510   21.1200 C   0  0  0  0  0  0  0  0  0  0  0  0
  -25.6370  -11.9100   20.7610 C   0  0  0  0  0  0  0  0  0  0  0  0
  -27.2840  -13.1530   20.1790 N   0  0  0  0  0  0  0  0  0  0  0  0
  -26.8610  -11.8650   20.2490 N   0  0  0  0  0  0  0  0  0  0  0  0
  -24.8440  -10.6760   20.8250 C   0  0  0  0  0  0  0  0  0  0  0  0
  -25.2130   -9.6040   21.6670 C   0  0  0  0  0  3  0  0  0  0  0  0
  -24.4240   -8.4350   21.7250 C   0  0  0  0  0  3  0  0  0  0  0  0
  -23.2520   -8.3300   20.9390 C   0  0  0  0  0  0  0  0  0  0  0  0
  -22.9030   -9.3910   20.0840 C   0  0  0  0  0  3  0  0  0  0  0  0
  -23.6910  -10.5520   20.0250 C   0  0  0  0  0  3  0  0  0  0  0  0
  -22.4390   -7.2230   20.9090 O   0  0  0  0  0  0  0  0  0  0  0  0
  -22.1620   -6.5040   22.0440 C   0  0  0  0  0  0  0  0  0  0  0  0
  -21.5700   -7.1010   23.1780 C   0  0  0  0  0  3  0  0  0  0  0  0
  -21.2380   -6.3100   24.2980 C   0  0  0  0  0  3  0  0  0  0  0  0
  -21.4880   -4.9250   24.2810 C   0  0  0  0  0  0  0  0  0  0  0  0
  -22.0720   -4.3290   23.1500 C   0  0  0  0  0  3  0  0  0  0  0  0
  -22.4050   -5.1150   22.0330 C   0  0  0  0  0  0  0  0  0  0  0  0
  -22.9480   -4.5320   20.9380 F   0  0  0  0  0  0  0  0  0  0  0  0
  -21.1620   -4.1630   25.3520 F   0  0  0  0  0  0  0  0  0  0  0  0
  -24.0020  -13.7380   21.6990 C   0  0  0  0  0  0  0  0  0  0  0  0
  -23.3760  -12.9400   22.5570 N   0  0  0  0  0  0  0  0  0  0  0  0
  -23.5600  -14.8550   21.4290 O   0  0  0  0  0  0  0  0  0  0  0  0
  -23.7480  -12.0340   22.7940 H   0  0  0  0  0  0  0  0  0  0  0  0
  -22.5110  -13.2430   22.9830 H   0  0  0  0  0  0  0  0  0  0  0  0
  -26.6140  -15.3910   20.8050 N   0  0  0  0  0  0  0  0  0  0  0  0
  -25.9430  -16.0420   21.1960 H   0  0  0  0  0  0  0  0  0  0  0  0
  -27.4740  -15.8380   20.5160 H   0  0  0  0  0  0  0  0  0  0  0  0
  -29.1210  -21.0440   22.6480 C   0  0  0  0  0  1  0  0  0  0  0  0
  -28.4780  -20.1780   21.5570 C   0  0  0  0  0  2  0  0  0  0  0  0
  -30.7420  -24.4960   18.3620 C   0  0  0  0  0  1  0  0  0  0  0  0
  -29.7350  -24.2530   19.5010 C   0  0  0  0  0  3  0  0  0  0  0  0
  -28.5030  -25.2570   19.3460 C   0  0  0  0  0  2  0  0  0  0  0  0
  -28.6740  -26.7100   19.6030 O   0  0  0  0  0  0  0  0  0  0  0  0
  -24.8900  -31.7060   23.1900 C   0  0  0  0  0  0  0  0  0  0  0  0
  -27.5210  -27.5150   19.6620 C   0  0  0  0  0  0  0  0  0  0  0  0
  -23.6630  -30.3960   21.4970 C   0  0  0  0  0  3  0  0  0  0  0  0
  -25.0980  -29.0260   19.8870 C   0  0  0  0  0  0  0  0  0  0  0  0
  -26.1780  -30.8290   21.2290 C   0  0  0  0  0  2  0  0  0  0  0  0
  -26.2760  -29.5120   20.4680 C   0  0  0  0  0  0  0  0  0  0  0  0
  -27.4890  -28.7710   20.3450 C   0  0  0  0  0  3  0  0  0  0  0  0
  -26.3140  -27.0860   19.0600 C   0  0  0  0  0  3  0  0  0  0  0  0
  -25.1180  -27.8180   19.1750 C   0  0  0  0  0  3  0  0  0  0  0  0
  -23.8350  -29.8440   20.0580 C   0  0  0  0  0  2  0  0  0  0  0  0
  -24.9310  -30.9910   22.0280 N   0  0  0  0  0  0  0  0  0  0  0  0
  -23.8230  -31.8970   23.7930 O   0  0  0  0  0  0  0  0  0  0  0  0
  -23.0820  -29.2810   22.3980 C   0  0  0  0  0  0  0  0  0  0  0  0
  -21.7760  -28.9970   22.2470 N   0  0  0  0  0  0  0  0  0  0  0  0
  -23.8050  -28.6760   23.1940 O   0  0  0  0  0  0  0  0  0  0  0  0
  -21.2460  -29.5440   21.5840 H   0  0  0  0  0  0  0  0  0  0  0  0
  -18.5260  -27.4500   22.5980 C   0  0  0  0  0  0  0  0  0  0  0  0
  -21.0350  -27.9580   22.9650 C   0  0  0  0  0  3  0  0  0  0  0  0
  -21.3000  -26.5610   22.3550 C   0  0  0  0  0  2  0  0  0  0  0  0
  -20.2700  -26.1610   21.2940 C   0  0  0  0  0  2  0  0  0  0  0  0
  -18.8600  -26.1470   21.8920 C   0  0  0  0  0  2  0  0  0  0  0  0
  -19.5460  -28.3070   23.0870 C   0  0  0  0  0  0  0  0  0  0  0  0
  -19.1790  -29.5230   23.7040 C   0  0  0  0  0  3  0  0  0  0  0  0
  -17.8260  -29.8850   23.8370 C   0  0  0  0  0  3  0  0  0  0  0  0
  -16.8190  -29.0260   23.3630 C   0  0  0  0  0  3  0  0  0  0  0  0
  -17.1700  -27.8090   22.7500 C   0  0  0  0  0  3  0  0  0  0  0  0
  -26.1770  -32.3380   23.8050 C   0  0  0  0  0  3  0  0  0  0  0  0
  -26.7290  -31.5370   25.0470 C   0  0  1  0  0  0  0  0  0  0  0  0
  -25.6620  -31.2500   26.1290 C   0  0  0  0  0  1  0  0  0  0  0  0
  -27.3250  -30.1810   24.6020 C   0  0  0  0  0  1  0  0  0  0  0  0
  -27.8810  -32.3290   25.7110 C   0  0  0  0  0  1  0  0  0  0  0  0
  -25.8540  -33.7210   24.1860 N   0  0  0  0  0  0  0  0  0  0  0  0
  -26.1160  -34.7980   23.4360 C   0  0  0  0  0  0  0  0  0  0  0  0
  -26.7260  -34.7340   22.3650 O   0  0  0  0  0  0  0  0  0  0  0  0
  -25.3040  -33.8410   25.0240 H   0  0  0  0  0  0  0  0  0  0  0  0
  -24.3110  -36.5410   23.2510 C   0  0  0  0  0  1  0  0  0  0  0  0
  -25.6240  -36.1630   23.9560 C   0  0  0  0  0  3  0  0  0  0  0  0
  -27.7880  -37.1020   24.6350 C   0  0  0  0  0  1  0  0  0  0  0  0
  -26.6120  -37.2500   23.7820 N   0  0  0  0  0  0  0  0  0  0  0  0
  -26.1900  -38.1550   23.9750 H   0  0  0  0  0  0  0  0  0  0  0  0
  1  2  1  0
  2 15  1  0
  3  1  2  0
  4  2  1  0
  5 11  1  0
  5 19  1  0
  6 11  1  0
  7  8  1  0
  7  6  1  0
  9  8  1  0
  9 25  1  0
  9 10  1  0
 11 10  1  0
 12  5  2  0
 13 18  2  0
 13 15  1  0
 14 16  1  0
 14 51  1  0
 15 14  2  0
 16 20  1  0
 17 19  1  0
 17 16  2  0
 18 17  1  0
 19 21  1  0
 22 47  1  0
 22 23  2  0
 23 42  1  0
 24 27  1  0
 24 23  1  0
 25 26  1  0
 25 22  1  0
 26 24  2  0
 27 28  1  0
 28 29  2  0
 30 29  1  0
 31 30  2  0
 32 31  1  0
 32 27  2  0
 33 30  1  0
 33 34  1  0
 34 35  1  0
 35 36  2  0
 37 36  1  0
 37 41  1  0
 38 37  2  0
 39 34  2  0
 39 38  1  0
 40 39  1  0
 42 43  1  0
 43 45  1  0
 43 46  1  0
 44 42  2  0
 47 48  1  0
 49 47  1  0
 51 50  1  0
 53 52  1  0
 53  1  1  0
 54 53  1  0
 54 55  1  0
 55 57  1  0
 56 67  2  0
 57 62  1  0
 58 66  1  0
 58 68  1  0
 59 65  1  0
 59 61  1  0
 60 66  1  0
 61 60  1  0
 62 61  2  0
 63 64  1  0
 63 57  2  0
 64 59  2  0
 65 58  1  0
 66 56  1  0
 68 70  2  0
 69 68  1  0
 71 69  1  0
 72 81  2  0
 72 77  1  0
 73 69  1  0
 73 77  1  0
 74 73  1  0
 75 76  1  0
 75 74  1  0
 76 72  1  0
 77 78  2  0
 78 79  1  0
 80 79  2  0
 81 80  1  0
 82 56  1  0
 82 87  1  0
 82 83  1  0
 83 86  1  1
 83 84  1  0
 85 83  1  0
 87 90  1  0
 88 92  1  0
 88 87  1  0
 89 88  2  0
 92 91  1  0
 94 92  1  0
 94 95  1  0
 94 93  1  0
M  ISO  4   5 100  19 100  54 101  55 101
M  END
>  <TORSDO>  (5) 
F 19

>  <SCORE>  (5) 
-9.456

>  <name>  (5) 
5

>  <ligand_id>  (5) 
5

>  <original_smiles>  (5) 
[H]c1nc(N([H])C(=O)N2C([H])([H])C([H])([H])C([H])([H])C([H])(n3nc(-c4c([H])c([H])c(Oc5c([H])c([H])c(F)c([H])c5F)c([H])c4[H])c(C(=O)N([H])[H])c3N([H])[H])C2([H])[H])c(F)c(C([H])([H])C([H])([H])[H])c1N([H])C(=O)C([H])(C([H])([H])[H])C([H])([H])Oc1c([H])c([H])c2c(c1[H])C([H])([H])N(C(=O)C([H])(N([H])C(=O)C([H])(N([H])C([H])([H])[H])C([H])([H])[H])C(C([H])([H])[H])(C([H])([H])[H])C([H])([H])[H])C([H])(C(=O)N([H])C1([H])c3c([H])c([H])c([H])c([H])c3C([H])([H])C([H])([H])C1([H])[H])C2([H])[H]

>  <smiles>  (5) 
[H]c1nc(N([H])C(=O)N2C([H])([H])C([H])([H])C([H])([H])C([H])(n3nc(-c4c([H])c([H])c(Oc5c([H])c([H])c(F)c([H])c5F)c([H])c4[H])c(C(=O)N([H])[H])c3N([H])[H])C2([H])[H])c(F)c(C([H])([H])C([H])([H])[H])c1N([H])C(=O)C([H])(C([H])([H])[H])C([H])([H])Oc1c([H])c([H])c2c(c1[H])C([H])([H])N(C(=O)C([H])(N([H])C(=O)C([H])(N([H])C([H])([H])[H])C([H])([H])[H])C(C([H])([H])[H])(C([H])([H])[H])C([H])([H])[H])C([H])(C(=O)N([H])C1([H])c3c([H])c([H])c([H])c([H])c3C([H])([H])C([H])([H])C1([H])[H])C2([H])[H]

$$$$
6:0:0
     RDKit          3D

 93101  0  0  1  0  0  0  0  0999 V2000
  -29.8460  -23.2810   19.4020 C   0  0  0  0  0  0  0  0  0  0  0  0
  -29.8700  -22.4220   20.4480 N   0  0  0  0  0  0  0  0  0  0  0  0
  -29.7280  -22.9020   18.2330 O   0  0  0  0  0  0  0  0  0  0  0  0
  -29.8160  -22.8540   21.3600 H   0  0  0  0  0  0  0  0  0  0  0  0
  -29.7540  -20.1970   21.4930 C   0  0  0  0  0  0  0  0  0  0  0  0
  -30.0440  -21.0600   20.4510 C   0  0  0  0  0  0  0  0  0  0  0  0
  -30.7450  -18.6710   20.1090 C   0  0  0  0  0  0  0  0  0  0  0  0
  -29.1110  -20.5480   22.8010 C   0  0  0  0  0  1  0  0  0  0  0  0
  -30.1410  -18.8600   21.2850 N   0  0  0  0  0  0  0  0  0  0  0  0
  -30.7930  -20.1500   19.1450 S   0  0  0  0  0  0  0  0  0  0  0  0
  -31.4560  -17.4200   19.6550 C   0  0  0  0  0  2  0  0  0  0  0  0
  -31.4950  -14.9820   19.7330 C   0  0  0  0  0  0  0  0  0  0  0  0
  -31.0810  -12.7680   18.7500 C   0  0  0  0  0  2  0  0  0  0  0  0
  -30.0720  -12.9200   17.5940 C   0  0  0  0  0  2  0  0  0  0  0  0
  -28.6320  -12.8030   18.1290 C   0  0  0  0  0  2  0  0  0  0  0  0
  -28.3750  -13.6960   19.3730 C   0  0  0  0  0  3  0  0  0  0  0  0
  -29.5080  -13.5700   20.4170 C   0  0  0  0  0  2  0  0  0  0  0  0
  -30.7810  -13.8220   19.7330 N   0  0  0  0  0  0  0  0  0  0  0  0
  -32.6260  -15.0460   19.2450 O   0  0  0  0  0  0  0  0  0  0  0  0
  -30.8550  -16.1270   20.0540 N   0  0  0  0  0  0  0  0  0  0  0  0
  -29.9150  -16.1130   20.4170 H   0  0  0  0  0  0  0  0  0  0  0  0
  -26.0690  -14.3220   20.3210 C   0  0  0  0  0  0  0  0  0  0  0  0
  -25.0140  -13.5600   20.7440 C   0  0  0  0  0  0  0  0  0  0  0  0
  -25.4310  -12.2000   20.6090 C   0  0  0  0  0  0  0  0  0  0  0  0
  -27.0630  -13.4280   19.9580 N   0  0  0  0  0  0  0  0  0  0  0  0
  -26.6890  -12.1430   20.1900 N   0  0  0  0  0  0  0  0  0  0  0  0
  -24.6850  -10.9480   20.7980 C   0  0  0  0  0  0  0  0  0  0  0  0
  -25.0240  -10.0330   21.8210 C   0  0  0  0  0  3  0  0  0  0  0  0
  -24.2800   -8.8470   21.9960 C   0  0  0  0  0  3  0  0  0  0  0  0
  -23.1820   -8.5670   21.1470 C   0  0  0  0  0  0  0  0  0  0  0  0
  -22.8640   -9.4690   20.1170 C   0  0  0  0  0  3  0  0  0  0  0  0
  -23.6090  -10.6460   19.9410 C   0  0  0  0  0  3  0  0  0  0  0  0
  -22.4170   -7.4270   21.2270 O   0  0  0  0  0  0  0  0  0  0  0  0
  -22.0430   -6.8940   22.4340 C   0  0  0  0  0  0  0  0  0  0  0  0
  -21.2650   -7.6220   23.3610 C   0  0  0  0  0  3  0  0  0  0  0  0
  -20.8440   -7.0110   24.5600 C   0  0  0  0  0  3  0  0  0  0  0  0
  -21.1900   -5.6740   24.8280 C   0  0  0  0  0  0  0  0  0  0  0  0
  -21.9600   -4.9460   23.9030 C   0  0  0  0  0  3  0  0  0  0  0  0
  -22.3820   -5.5540   22.7090 C   0  0  0  0  0  0  0  0  0  0  0  0
  -23.1050   -4.8410   21.8110 F   0  0  0  0  0  0  0  0  0  0  0  0
  -20.7810   -5.0840   25.9760 F   0  0  0  0  0  0  0  0  0  0  0  0
  -23.6600  -14.0580   21.1570 C   0  0  0  0  0  0  0  0  0  0  0  0
  -23.0080  -13.3640   22.0840 N   0  0  0  0  0  0  0  0  0  0  0  0
  -23.1930  -15.0980   20.6930 O   0  0  0  0  0  0  0  0  0  0  0  0
  -23.4000  -12.5220   22.4780 H   0  0  0  0  0  0  0  0  0  0  0  0
  -22.1040  -13.6800   22.4030 H   0  0  0  0  0  0  0  0  0  0  0  0
  -26.2600  -15.6950   20.1950 N   0  0  0  0  0  0  0  0  0  0  0  0
  -25.5290  -16.3650   20.4060 H   0  0  0  0  0  0  0  0  0  0  0  0
  -27.0930  -16.1260   19.8180 H   0  0  0  0  0  0  0  0  0  0  0  0
  -31.2460  -25.3520   19.0420 C   0  0  0  0  0  1  0  0  0  0  0  0
  -29.9620  -24.8050   19.6920 C   0  0  0  0  0  3  0  0  0  0  0  0
  -28.7190  -25.6110   19.2170 C   0  0  0  0  0  2  0  0  0  0  0  0
  -28.7180  -26.9990   19.6400 O   0  0  0  0  0  0  0  0  0  0  0  0
  -24.5730  -31.6390   23.1240 C   0  0  0  0  0  0  0  0  0  0  0  0
  -27.5070  -27.6750   19.6510 C   0  0  0  0  0  0  0  0  0  0  0  0
  -23.4650  -30.3110   21.3590 C   0  0  0  0  0  3  0  0  0  0  0  0
  -25.0160  -29.0300   19.7930 C   0  0  0  0  0  0  0  0  0  0  0  0
  -25.9610  -30.8620   21.2020 C   0  0  0  0  0  2  0  0  0  0  0  0
  -26.1410  -29.5660   20.4330 C   0  0  0  0  0  0  0  0  0  0  0  0
  -27.3870  -28.8980   20.3600 C   0  0  0  0  0  3  0  0  0  0  0  0
  -26.3620  -27.1750   18.9860 C   0  0  0  0  0  3  0  0  0  0  0  0
  -25.1250  -27.8350   19.0640 C   0  0  0  0  0  3  0  0  0  0  0  0
  -23.7150  -29.7870   19.9210 C   0  0  0  0  0  2  0  0  0  0  0  0
  -24.6840  -30.9490   21.9540 N   0  0  0  0  0  0  0  0  0  0  0  0
  -23.4780  -31.7790   23.6840 O   0  0  0  0  0  0  0  0  0  0  0  0
  -22.8970  -29.1570   22.2180 C   0  0  0  0  0  0  0  0  0  0  0  0
  -21.6140  -28.8240   22.0020 N   0  0  0  0  0  0  0  0  0  0  0  0
  -23.6090  -28.5680   23.0360 O   0  0  0  0  0  0  0  0  0  0  0  0
  -21.0950  -29.3600   21.3200 H   0  0  0  0  0  0  0  0  0  0  0  0
  -18.4100  -27.1630   22.1870 C   0  0  0  0  0  0  0  0  0  0  0  0
  -20.8810  -27.7480   22.6690 C   0  0  0  0  0  3  0  0  0  0  0  0
  -21.2210  -26.3750   22.0460 C   0  0  0  0  0  2  0  0  0  0  0  0
  -20.2510  -25.9570   20.9380 C   0  0  0  0  0  2  0  0  0  0  0  0
  -18.8180  -25.8850   21.4750 C   0  0  0  0  0  2  0  0  0  0  0  0
  -19.3790  -28.0460   22.7340 C   0  0  0  0  0  0  0  0  0  0  0  0
  -18.9460  -29.2380   23.3540 C   0  0  0  0  0  3  0  0  0  0  0  0
  -17.5760  -29.5510   23.4360 C   0  0  0  0  0  3  0  0  0  0  0  0
  -16.6200  -28.6660   22.9060 C   0  0  0  0  0  3  0  0  0  0  0  0
  -17.0370  -27.4740   22.2880 C   0  0  0  0  0  3  0  0  0  0  0  0
  -25.8120  -32.3040   23.8010 C   0  0  0  0  0  3  0  0  0  0  0  0
  -26.3240  -31.5190   25.0700 C   0  0  1  0  0  0  0  0  0  0  0  0
  -25.2090  -31.1920   26.0890 C   0  0  0  0  0  1  0  0  0  0  0  0
  -26.9880  -30.1840   24.6570 C   0  0  0  0  0  1  0  0  0  0  0  0
  -27.4100  -32.3480   25.7950 C   0  0  0  0  0  1  0  0  0  0  0  0
  -25.4360  -33.6790   24.1550 N   0  0  0  0  0  0  0  0  0  0  0  0
  -25.7280  -34.7610   23.4200 C   0  0  0  0  0  0  0  0  0  0  0  0
  -26.4120  -34.7090   22.3950 O   0  0  0  0  0  0  0  0  0  0  0  0
  -24.8280  -33.7900   24.9530 H   0  0  0  0  0  0  0  0  0  0  0  0
  -23.9230  -36.4790   23.0800 C   0  0  0  0  0  1  0  0  0  0  0  0
  -25.1710  -36.1160   23.9000 C   0  0  0  0  0  3  0  0  0  0  0  0
  -27.2420  -37.0900   24.7900 C   0  0  0  0  0  1  0  0  0  0  0  0
  -26.1560  -37.2160   23.8210 N   0  0  0  0  0  0  0  0  0  0  0  0
  -25.7040  -38.1150   23.9670 H   0  0  0  0  0  0  0  0  0  0  0  0
  1 51  1  0
  1  2  1  0
  2  6  1  0
  2  4  1  0
  3  1  2  0
  5  8  1  0
  6  5  2  0
  7  9  2  0
  9  5  1  0
 10  7  1  0
 10  6  1  0
 11 20  1  0
 11  7  1  0
 12 20  1  0
 13 18  1  0
 14 15  1  0
 14 13  1  0
 16 15  1  0
 16 25  1  0
 16 17  1  0
 18 12  1  0
 18 17  1  0
 19 12  2  0
 20 21  1  0
 22 23  2  0
 23 42  1  0
 24 23  1  0
 24 27  1  0
 25 26  1  0
 25 22  1  0
 26 24  2  0
 27 28  1  0
 28 29  2  0
 30 33  1  0
 30 29  1  0
 31 30  2  0
 32 31  1  0
 32 27  2  0
 33 34  1  0
 34 39  2  0
 34 35  1  0
 35 36  2  0
 36 37  1  0
 37 41  1  0
 38 37  2  0
 39 38  1  0
 40 39  1  0
 42 43  1  0
 43 46  1  0
 43 45  1  0
 44 42  2  0
 47 22  1  0
 47 48  1  0
 49 47  1  0
 51 50  1  0
 52 53  1  0
 52 51  1  0
 53 55  1  0
 54 65  2  0
 55 60  1  0
 56 64  1  0
 56 66  1  0
 57 63  1  0
 57 59  1  0
 58 64  1  0
 59 58  1  0
 60 59  2  0
 61 62  1  0
 61 55  2  0
 62 57  2  0
 63 56  1  0
 64 54  1  0
 66 68  2  0
 67 66  1  0
 69 67  1  0
 70 79  2  0
 70 75  1  0
 71 67  1  0
 71 75  1  0
 72 71  1  0
 73 74  1  0
 73 72  1  0
 74 70  1  0
 75 76  2  0
 76 77  1  0
 78 77  2  0
 79 78  1  0
 80 54  1  0
 80 85  1  0
 80 81  1  0
 81 84  1  1
 81 82  1  0
 83 81  1  0
 85 88  1  0
 86 90  1  0
 86 85  1  0
 87 86  2  0
 90 89  1  0
 92 90  1  0
 92 93  1  0
 92 91  1  0
M  ISO  4  12 100  20 100  52 101  53 101
M  END
>  <TORSDO>  (6) 
F 20

>  <SCORE>  (6) 
-9.792

>  <name>  (6) 
6

>  <ligand_id>  (6) 
6

>  <original_smiles>  (6) 
[H]c1c([H])c([H])c2c(c1[H])C([H])([H])C([H])([H])C([H])([H])C2([H])N([H])C(=O)C1([H])N(C(=O)C([H])(N([H])C(=O)C([H])(N([H])C([H])([H])[H])C([H])([H])[H])C(C([H])([H])[H])(C([H])([H])[H])C([H])([H])[H])C([H])([H])c2c([H])c(OC([H])([H])C([H])(C(=O)N([H])c3sc(C([H])([H])N([H])C(=O)N4C([H])([H])C([H])([H])C([H])([H])C([H])(n5nc(-c6c([H])c([H])c(Oc7c([H])c([H])c(F)c([H])c7F)c([H])c6[H])c(C(=O)N([H])[H])c5N([H])[H])C4([H])[H])nc3C([H])([H])[H])C([H])([H])[H])c([H])c([H])c2C1([H])[H]

>  <smiles>  (6) 
[H]c1c([H])c([H])c2c(c1[H])C([H])([H])C([H])([H])C([H])([H])C2([H])N([H])C(=O)C1([H])N(C(=O)C([H])(N([H])C(=O)C([H])(N([H])C([H])([H])[H])C([H])([H])[H])C(C([H])([H])[H])(C([H])([H])[H])C([H])([H])[H])C([H])([H])c2c([H])c(OC([H])([H])C([H])(C(=O)N([H])c3sc(C([H])([H])N([H])C(=O)N4C([H])([H])C([H])([H])C([H])([H])C([H])(n5nc(-c6c([H])c([H])c(Oc7c([H])c([H])c(F)c([H])c7F)c([H])c6[H])c(C(=O)N([H])[H])c5N([H])[H])C4([H])[H])nc3C([H])([H])[H])C([H])([H])[H])c([H])c([H])c2C1([H])[H]

$$$$
7:0:0
     RDKit          3D

 95103  0  0  1  0  0  0  0  0999 V2000
  -28.1150  -23.7430   21.4950 C   0  0  2  0  0  0  0  0  0  0  0  0
  -30.4270  -22.5970   19.5960 C   0  0  0  0  0  2  0  0  0  0  0  0
  -28.1500  -22.2150   20.5580 C   0  0  0  0  0  3  0  0  0  0  0  0
  -29.4490  -21.1980   19.9730 C   0  0  0  0  0  2  0  0  0  0  0  0
  -29.6490  -24.7930   21.5370 C   0  0  0  0  0  3  0  0  0  0  0  0
  -30.2110  -24.6960   23.7250 C   0  0  0  0  0  0  0  0  0  0  0  0
  -30.7700  -24.1040   20.3650 N   0  0  0  0  0  2  0  0  0  0  0  0
  -29.9970  -25.4840   22.6790 N   0  0  0  0  0  0  0  0  0  0  0  0
  -30.6060  -25.1250   24.8130 O   0  0  0  0  0  0  0  0  0  0  0  0
  -30.2560  -26.4590   22.6540 H   0  0  0  0  0  0  0  0  0  0  0  0
  -30.3740  -17.3390   19.8560 C   0  0  0  0  0  0  0  0  0  0  0  0
  -30.7570  -14.4690   19.1290 C   0  0  0  0  0  2  0  0  0  0  0  0
  -30.0180  -13.5140   18.0790 C   0  0  0  0  0  2  0  0  0  0  0  0
  -28.7300  -12.8980   18.6240 C   0  0  0  0  0  2  0  0  0  0  0  0
  -28.0680  -13.9510   19.5170 C   0  0  0  0  0  3  0  0  0  0  0  0
  -29.0170  -14.7610   20.5050 C   0  0  0  0  0  2  0  0  0  0  0  0
  -29.9660  -15.7500   19.7670 N   0  0  0  0  0  0  0  0  0  0  0  0
  -31.6160  -17.0490   19.7440 O   0  0  0  0  0  0  0  0  0  0  0  0
  -29.6440  -19.0590   19.9240 N   0  0  0  0  0  2  0  0  0  0  0  0
  -28.6890  -18.7540   20.0700 H   0  0  0  0  0  0  0  0  0  0  0  0
  -25.7620  -14.3760   20.4230 C   0  0  0  0  0  0  0  0  0  0  0  0
  -24.7030  -13.5930   20.7720 C   0  0  0  0  0  0  0  0  0  0  0  0
  -25.1370  -12.2390   20.6180 C   0  0  0  0  0  0  0  0  0  0  0  0
  -26.7890  -13.5210   20.0870 N   0  0  0  0  0  0  0  0  0  0  0  0
  -26.4240  -12.2110   20.2460 N   0  0  0  0  0  0  0  0  0  0  0  0
  -24.3630  -10.9880   20.7510 C   0  0  0  0  0  0  0  0  0  0  0  0
  -24.7140   -9.9890   21.6870 C   0  0  0  0  0  3  0  0  0  0  0  0
  -23.9310   -8.8200   21.8210 C   0  0  0  0  0  3  0  0  0  0  0  0
  -22.7800   -8.6370   21.0180 C   0  0  0  0  0  0  0  0  0  0  0  0
  -22.4440   -9.6240   20.0740 C   0  0  0  0  0  3  0  0  0  0  0  0
  -23.2270  -10.7840   19.9390 C   0  0  0  0  0  3  0  0  0  0  0  0
  -21.9770   -7.5200   21.0570 O   0  0  0  0  0  0  0  0  0  0  0  0
  -21.7500   -6.8350   22.2240 C   0  0  0  0  0  0  0  0  0  0  0  0
  -21.1650   -7.4540   23.3500 C   0  0  0  0  0  3  0  0  0  0  0  0
  -20.8860   -6.6970   24.5060 C   0  0  0  0  0  3  0  0  0  0  0  0
  -21.1810   -5.3200   24.5350 C   0  0  0  0  0  0  0  0  0  0  0  0
  -21.7570   -4.7000   23.4130 C   0  0  0  0  0  3  0  0  0  0  0  0
  -22.0370   -5.4540   22.2600 C   0  0  0  0  0  0  0  0  0  0  0  0
  -22.5720   -4.8460   21.1740 F   0  0  0  0  0  0  0  0  0  0  0  0
  -20.9070   -4.5910   25.6420 F   0  0  0  0  0  0  0  0  0  0  0  0
  -23.3340  -14.0920   21.1260 C   0  0  0  0  0  0  0  0  0  0  0  0
  -22.6360  -13.3960   22.0140 N   0  0  0  0  0  0  0  0  0  0  0  0
  -22.9000  -15.1420   20.6540 O   0  0  0  0  0  0  0  0  0  0  0  0
  -23.0040  -12.5470   22.4180 H   0  0  0  0  0  0  0  0  0  0  0  0
  -21.7200  -13.7150   22.2950 H   0  0  0  0  0  0  0  0  0  0  0  0
  -25.9350  -15.7530   20.3230 N   0  0  0  0  0  0  0  0  0  0  0  0
  -25.1770  -16.4050   20.4940 H   0  0  0  0  0  0  0  0  0  0  0  0
  -26.7750  -16.1970   19.9770 H   0  0  0  0  0  0  0  0  0  0  0  0
  -25.5640  -22.2520   20.4860 C   0  0  0  0  0  1  0  0  0  0  0  0
  -26.8520  -21.4260   20.6330 C   0  0  0  0  0  2  0  0  0  0  0  0
  -28.9670  -22.6100   24.5490 C   0  0  0  0  0  1  0  0  0  0  0  0
  -29.9510  -23.1810   23.4950 C   0  0  0  0  0  3  0  0  0  0  0  0
  -31.2010  -22.1170   21.6740 C   0  0  0  0  0  1  0  0  0  0  0  0
  -29.7110  -22.7150   21.9180 C   0  0  0  0  0  3  0  0  0  0  0  0
  -28.0930  -24.7160   20.0170 O   0  0  0  0  0  0  0  0  0  0  0  0
  -24.7120  -32.1560   23.0390 C   0  0  0  0  0  0  0  0  0  0  0  0
  -27.3530  -26.4020   20.1080 C   0  0  0  0  0  0  0  0  0  0  0  0
  -23.5740  -30.6760   21.4540 C   0  0  0  0  0  3  0  0  0  0  0  0
  -25.0710  -28.8980   20.0790 C   0  0  0  0  0  0  0  0  0  0  0  0
  -26.1810  -30.6550   21.3850 C   0  0  0  0  0  2  0  0  0  0  0  0
  -26.2820  -29.1260   20.7440 C   0  0  0  0  0  0  0  0  0  0  0  0
  -27.3530  -27.9340   20.7260 C   0  0  0  0  0  3  0  0  0  0  0  0
  -26.1030  -26.6330   19.3720 C   0  0  0  0  0  3  0  0  0  0  0  0
  -25.0710  -27.6810   19.3620 C   0  0  0  0  0  3  0  0  0  0  0  0
  -23.8580  -29.9040   20.1170 C   0  0  0  0  0  2  0  0  0  0  0  0
  -24.8580  -31.2190   22.0100 N   0  0  0  0  0  0  0  0  0  0  0  0
  -23.6010  -32.4600   23.5220 O   0  0  0  0  0  0  0  0  0  0  0  0
  -22.8270  -29.7660   22.4740 C   0  0  0  0  0  0  0  0  0  0  0  0
  -21.5080  -29.5210   22.3170 N   0  0  0  0  0  0  0  0  0  0  0  0
  -23.4690  -29.2660   23.4010 O   0  0  0  0  0  0  0  0  0  0  0  0
  -21.0240  -29.9740   21.5530 H   0  0  0  0  0  0  0  0  0  0  0  0
  -18.2380  -27.9500   22.7670 C   0  0  0  0  0  0  0  0  0  0  0  0
  -20.7300  -28.5640   23.1250 C   0  0  0  0  0  3  0  0  0  0  0  0
  -21.0310  -27.1090   22.6930 C   0  0  0  0  0  2  0  0  0  0  0  0
  -20.0440  -26.5740   21.6510 C   0  0  0  0  0  2  0  0  0  0  0  0
  -18.6180  -26.5910   22.2070 C   0  0  0  0  0  2  0  0  0  0  0  0
  -19.2270  -28.8850   23.1810 C   0  0  0  0  0  0  0  0  0  0  0  0
  -18.8130  -30.1400   23.6740 C   0  0  0  0  0  3  0  0  0  0  0  0
  -17.4460  -30.4720   23.7500 C   0  0  0  0  0  3  0  0  0  0  0  0
  -16.4730  -29.5410   23.3460 C   0  0  0  0  0  3  0  0  0  0  0  0
  -16.8690  -28.2830   22.8610 C   0  0  0  0  0  3  0  0  0  0  0  0
  -25.9230  -32.9090   23.6800 C   0  0  0  0  0  3  0  0  0  0  0  0
  -26.4760  -32.1850   24.9710 C   0  0  1  0  0  0  0  0  0  0  0  0
  -25.3870  -31.8420   26.0160 C   0  0  0  0  0  1  0  0  0  0  0  0
  -27.1930  -30.8660   24.6150 C   0  0  0  0  0  1  0  0  0  0  0  0
  -27.5360  -33.0760   25.6610 C   0  0  0  0  0  1  0  0  0  0  0  0
  -25.5110  -34.2900   24.0500 N   0  0  0  0  0  0  0  0  0  0  0  0
  -25.8870  -35.4210   23.4340 C   0  0  0  0  0  0  0  0  0  0  0  0
  -26.6510  -35.4160   22.4670 O   0  0  0  0  0  0  0  0  0  0  0  0
  -24.8340  -34.3630   24.7940 H   0  0  0  0  0  0  0  0  0  0  0  0
  -24.1770  -37.2500   23.0770 C   0  0  0  0  0  1  0  0  0  0  0  0
  -25.3390  -36.7690   23.9630 C   0  0  0  0  0  3  0  0  0  0  0  0
  -27.3710  -37.6070   25.0690 C   0  0  0  0  0  1  0  0  0  0  0  0
  -26.3600  -37.8400   24.0420 N   0  0  0  0  0  0  0  0  0  0  0  0
  -25.9250  -38.7400   24.2250 H   0  0  0  0  0  0  0  0  0  0  0  0
  1 55  1  6
  1  5  1  0
  1 54  1  0
  2  4  1  0
  2  7  1  0
  3 50  1  0
  3  1  1  0
  4  3  1  0
  5  7  1  0
  5  8  1  0
  6  9  2  0
  8  6  1  0
 10  8  1  0
 11 19  1  0
 12 17  1  0
 13 14  1  0
 13 12  1  0
 15 14  1  0
 15 24  1  0
 15 16  1  0
 17 11  1  0
 17 16  1  0
 18 11  2  0
 19 20  1  0
 21 22  2  0
 22 41  1  0
 23 26  1  0
 23 22  1  0
 24 25  1  0
 24 21  1  0
 25 23  2  0
 26 27  1  0
 27 28  2  0
 29 32  1  0
 29 28  1  0
 30 29  2  0
 31 30  1  0
 31 26  2  0
 32 33  1  0
 33 38  2  0
 33 34  1  0
 34 35  2  0
 35 36  1  0
 36 40  1  0
 37 36  2  0
 38 37  1  0
 39 38  1  0
 41 42  1  0
 42 45  1  0
 42 44  1  0
 43 41  2  0
 46 21  1  0
 46 47  1  0
 48 46  1  0
 49 50  1  0
 52  6  1  0
 52 51  1  0
 54 53  1  0
 54 52  1  0
 55 57  1  0
 56 67  2  0
 57 62  1  0
 58 66  1  0
 58 68  1  0
 59 65  1  0
 59 61  1  0
 60 66  1  0
 61 60  1  0
 62 61  2  0
 63 57  2  0
 64 63  1  0
 64 59  2  0
 65 58  1  0
 66 56  1  0
 68 70  2  0
 69 68  1  0
 71 69  1  0
 72 81  2  0
 72 77  1  0
 73 69  1  0
 73 77  1  0
 74 73  1  0
 75 76  1  0
 75 74  1  0
 76 72  1  0
 77 78  2  0
 78 79  1  0
 80 79  2  0
 81 80  1  0
 82 56  1  0
 82 87  1  0
 82 83  1  0
 83 86  1  1
 83 84  1  0
 85 83  1  0
 87 90  1  0
 88 92  1  0
 88 87  1  0
 89 88  2  0
 92 91  1  0
 92 94  1  0
 94 95  1  0
 94 93  1  0
M  ISO  4  11 100  19 100  54 101  55 101
M  END
>  <TORSDO>  (7) 
F 19

>  <SCORE>  (7) 
-7.552

>  <name>  (7) 
7

>  <ligand_id>  (7) 
7

>  <original_smiles>  (7) 
[H]c1nc(N([H])C(=O)C([H])(C([H])([H])[H])C([H])(Oc2c([H])c([H])c3c(c2[H])C([H])([H])N(C(=O)C([H])(N([H])C(=O)C([H])(N([H])C([H])([H])[H])C([H])([H])[H])C(C([H])([H])[H])(C([H])([H])[H])C([H])([H])[H])C([H])(C(=O)N([H])C2([H])c4c([H])c([H])c([H])c([H])c4C([H])([H])C([H])([H])C2([H])[H])C3([H])[H])C([H])([H])[H])c([H])c(C([H])([H])C([H])([H])[H])c1N([H])C(=O)N1C([H])([H])C([H])([H])C([H])([H])C([H])(n2nc(-c3c([H])c([H])c(Oc4c([H])c([H])c(F)c([H])c4F)c([H])c3[H])c(C(=O)N([H])[H])c2N([H])[H])C1([H])[H]

>  <smiles>  (7) 
[H]c1nc(N([H])C(=O)C([H])(C([H])([H])[H])C([H])(Oc2c([H])c([H])c3c(c2[H])C([H])([H])N(C(=O)C([H])(N([H])C(=O)C([H])(N([H])C([H])([H])[H])C([H])([H])[H])C(C([H])([H])[H])(C([H])([H])[H])C([H])([H])[H])C([H])(C(=O)N([H])C2([H])c4c([H])c([H])c([H])c([H])c4C([H])([H])C([H])([H])C2([H])[H])C3([H])[H])C([H])([H])[H])c([H])c(C([H])([H])C([H])([H])[H])c1N([H])C(=O)N1C([H])([H])C([H])([H])C([H])([H])C([H])(n2nc(-c3c([H])c([H])c(Oc4c([H])c([H])c(F)c([H])c4F)c([H])c3[H])c(C(=O)N([H])[H])c2N([H])[H])C1([H])[H]

$$$$
8:0:0
     RDKit          3D

 90 97  0  0  1  0  0  0  0  0999 V2000
  -28.7600  -21.8040   19.9090 C   0  0  0  0  0  0  0  0  0  0  0  0
  -29.5550  -20.6490   20.1790 N   0  0  0  0  0  0  0  0  0  0  0  0
  -27.6890  -21.6360   19.3260 O   0  0  0  0  0  0  0  0  0  0  0  0
  -30.4060  -20.8410   20.6950 H   0  0  0  0  0  0  0  0  0  0  0  0
  -30.4590  -23.6980   19.5630 C   0  0  0  0  0  1  0  0  0  0  0  0
  -29.1250  -23.3880   20.2630 C   0  0  0  0  0  3  0  0  0  0  0  0
  -28.0640  -24.6830   19.9860 C   0  0  0  0  0  2  0  0  0  0  0  0
  -28.2740  -26.2070   20.2740 O   0  0  0  0  0  0  0  0  0  0  0  0
  -24.6220  -31.9180   23.2360 C   0  0  0  0  0  0  0  0  0  0  0  0
  -27.2070  -27.1830   20.2150 C   0  0  0  0  0  0  0  0  0  0  0  0
  -23.4240  -30.5170   21.6020 C   0  0  0  0  0  3  0  0  0  0  0  0
  -24.8730  -28.9300   20.1860 C   0  0  0  0  0  0  0  0  0  0  0  0
  -25.9790  -30.7730   21.4420 C   0  0  0  0  0  2  0  0  0  0  0  0
  -26.0530  -29.3770   20.7950 C   0  0  0  0  0  0  0  0  0  0  0  0
  -27.2200  -28.5180   20.7910 C   0  0  0  0  0  3  0  0  0  0  0  0
  -25.9970  -26.8380   19.5720 C   0  0  0  0  0  3  0  0  0  0  0  0
  -24.8590  -27.6740   19.5620 C   0  0  0  0  0  3  0  0  0  0  0  0
  -23.6470  -29.8290   20.2280 C   0  0  0  0  0  2  0  0  0  0  0  0
  -24.6950  -31.0920   22.1490 N   0  0  0  0  0  0  0  0  0  0  0  0
  -23.5360  -32.2090   23.7590 O   0  0  0  0  0  0  0  0  0  0  0  0
  -22.7380  -29.5190   22.5660 C   0  0  0  0  0  0  0  0  0  0  0  0
  -21.4090  -29.3510   22.4340 N   0  0  0  0  0  0  0  0  0  0  0  0
  -23.4030  -28.8970   23.3980 O   0  0  0  0  0  0  0  0  0  0  0  0
  -20.9270  -29.9040   21.7390 H   0  0  0  0  0  0  0  0  0  0  0  0
  -18.0230  -28.1720   22.9440 C   0  0  0  0  0  0  0  0  0  0  0  0
  -20.5830  -28.4220   23.2100 C   0  0  0  0  0  3  0  0  0  0  0  0
  -20.6760  -26.9860   22.6390 C   0  0  0  0  0  2  0  0  0  0  0  0
  -19.5720  -26.6680   21.6270 C   0  0  0  0  0  2  0  0  0  0  0  0
  -18.1920  -26.8220   22.2690 C   0  0  0  0  0  2  0  0  0  0  0  0
  -19.1460  -28.9310   23.3720 C   0  0  0  0  0  0  0  0  0  0  0  0
  -18.9310  -30.1950   23.9620 C   0  0  0  0  0  3  0  0  0  0  0  0
  -17.6280  -30.7010   24.1290 C   0  0  0  0  0  3  0  0  0  0  0  0
  -16.5200  -29.9390   23.7160 C   0  0  0  0  0  3  0  0  0  0  0  0
  -16.7190  -28.6770   23.1300 C   0  0  0  0  0  3  0  0  0  0  0  0
  -25.9010  -32.5530   23.8650 C   0  0  0  0  0  3  0  0  0  0  0  0
  -26.4080  -31.7840   25.1480 C   0  0  1  0  0  0  0  0  0  0  0  0
  -25.3070  -31.5500   26.2100 C   0  0  0  0  0  1  0  0  0  0  0  0
  -26.9900  -30.4030   24.7660 C   0  0  0  0  0  1  0  0  0  0  0  0
  -27.5530  -32.5800   25.8160 C   0  0  0  0  0  1  0  0  0  0  0  0
  -25.5920  -33.9540   24.1940 N   0  0  0  0  0  0  0  0  0  0  0  0
  -25.9180  -35.0080   23.4330 C   0  0  0  0  0  0  0  0  0  0  0  0
  -26.5760  -34.9020   22.3950 O   0  0  0  0  0  0  0  0  0  0  0  0
  -25.0110  -34.1110   25.0040 H   0  0  0  0  0  0  0  0  0  0  0  0
  -24.1900  -36.8060   23.1000 C   0  0  0  0  0  1  0  0  0  0  0  0
  -25.4390  -36.3980   23.8960 C   0  0  0  0  0  3  0  0  0  0  0  0
  -27.5810  -37.2860   24.7060 C   0  0  0  0  0  1  0  0  0  0  0  0
  -26.4710  -37.4510   23.7700 N   0  0  0  0  0  0  0  0  0  0  0  0
  -26.0660  -38.3710   23.9180 H   0  0  0  0  0  0  0  0  0  0  0  0
  -29.2620  -18.9420   18.3000 C   0  0  0  0  0  1  0  0  0  0  0  0
  -29.3540  -19.1140   19.8280 C   0  0  0  0  0  3  0  0  0  0  0  0
  -31.7540  -18.0330   19.8770 C   0  0  0  0  0  1  0  0  0  0  0  0
  -30.3250  -17.8530   20.4180 C   0  0  0  0  0  3  0  0  0  0  0  0
  -30.5630  -15.0510   20.2590 C   0  0  0  0  0  0  0  0  0  0  0  0
  -30.4220  -12.7190   19.2310 C   0  0  0  0  0  2  0  0  0  0  0  0
  -29.4480  -12.6580   18.0300 C   0  0  0  0  0  2  0  0  0  0  0  0
  -27.9900  -12.4370   18.4850 C   0  0  0  0  0  2  0  0  0  0  0  0
  -27.6180  -13.3220   19.7020 C   0  0  0  0  0  3  0  0  0  0  0  0
  -28.7170  -13.2370   20.7870 C   0  0  0  0  0  2  0  0  0  0  0  0
  -29.9400  -13.7870   20.1660 N   0  0  0  0  0  0  0  0  0  0  0  0
  -31.7650  -15.0430   19.9720 O   0  0  0  0  0  0  0  0  0  0  0  0
  -28.4820  -16.3740   20.9100 C   0  0  0  0  0  1  0  0  0  0  0  0
  -29.8620  -16.3160   20.4260 N   0  0  0  0  0  0  0  0  0  0  0  0
  -25.2430  -13.9170   20.4690 C   0  0  0  0  0  0  0  0  0  0  0  0
  -24.1830  -13.1470   20.8530 C   0  0  0  0  0  0  0  0  0  0  0  0
  -24.6450  -11.7970   20.8120 C   0  0  0  0  0  0  0  0  0  0  0  0
  -26.2850  -13.0360   20.2170 N   0  0  0  0  0  0  0  0  0  0  0  0
  -25.9310  -11.7550   20.4850 N   0  0  0  0  0  0  0  0  0  0  0  0
  -23.9160  -10.5380   21.0040 C   0  0  0  0  0  0  0  0  0  0  0  0
  -24.3550   -9.5710   21.9350 C   0  0  0  0  0  3  0  0  0  0  0  0
  -23.6300   -8.3740   22.1230 C   0  0  0  0  0  3  0  0  0  0  0  0
  -22.4490   -8.1380   21.3800 C   0  0  0  0  0  0  0  0  0  0  0  0
  -22.0280   -9.0920   20.4360 C   0  0  0  0  0  3  0  0  0  0  0  0
  -22.7540  -10.2790   20.2470 C   0  0  0  0  0  3  0  0  0  0  0  0
  -21.6950   -6.9940   21.4770 O   0  0  0  0  0  0  0  0  0  0  0  0
  -21.6460   -6.2600   22.6340 C   0  0  0  0  0  0  0  0  0  0  0  0
  -21.1950   -6.8150   23.8520 C   0  0  0  0  0  3  0  0  0  0  0  0
  -21.0940   -6.0050   25.0000 C   0  0  0  0  0  3  0  0  0  0  0  0
  -21.4350   -4.6400   24.9320 C   0  0  0  0  0  0  0  0  0  0  0  0
  -21.8750   -4.0830   23.7170 C   0  0  0  0  0  3  0  0  0  0  0  0
  -21.9760   -4.8910   22.5710 C   0  0  0  0  0  0  0  0  0  0  0  0
  -22.3830   -4.3470   21.4010 F   0  0  0  0  0  0  0  0  0  0  0  0
  -21.3320   -3.8590   26.0320 F   0  0  0  0  0  0  0  0  0  0  0  0
  -22.7890  -13.6300   21.1410 C   0  0  0  0  0  0  0  0  0  0  0  0
  -22.0680  -12.9390   22.0170 N   0  0  0  0  0  0  0  0  0  0  0  0
  -22.3480  -14.6580   20.6270 O   0  0  0  0  0  0  0  0  0  0  0  0
  -22.4390  -12.1150   22.4650 H   0  0  0  0  0  0  0  0  0  0  0  0
  -21.1320  -13.2390   22.2470 H   0  0  0  0  0  0  0  0  0  0  0  0
  -25.3910  -15.2880   20.2910 N   0  0  0  0  0  0  0  0  0  0  0  0
  -24.6240  -15.9360   20.4450 H   0  0  0  0  0  0  0  0  0  0  0  0
  -26.2370  -15.7390   19.9730 H   0  0  0  0  0  0  0  0  0  0  0  0
  1  2  1  0
  1  6  1  0
  2  4  1  0
  3  1  2  0
  6  5  1  0
  7  6  1  0
  7  8  1  0
  9 20  2  0
 10  8  1  0
 10 15  1  0
 11 19  1  0
 11 21  1  0
 12 18  1  0
 12 14  1  0
 13 19  1  0
 14 13  1  0
 15 14  2  0
 16 10  2  0
 17 16  1  0
 17 12  2  0
 18 11  1  0
 19  9  1  0
 21 23  2  0
 22 21  1  0
 24 22  1  0
 25 34  2  0
 25 30  1  0
 26 22  1  0
 26 30  1  0
 27 26  1  0
 28 29  1  0
 28 27  1  0
 29 25  1  0
 30 31  2  0
 31 32  1  0
 33 32  2  0
 34 33  1  0
 35  9  1  0
 35 40  1  0
 35 36  1  0
 36 39  1  1
 36 37  1  0
 38 36  1  0
 40 43  1  0
 41 45  1  0
 41 40  1  0
 42 41  2  0
 45 44  1  0
 47 45  1  0
 47 48  1  0
 47 46  1  0
 50 49  1  0
 50  2  1  0
 50 52  1  0
 52 51  1  0
 52 62  1  0
 53 62  1  0
 54 59  1  0
 55 56  1  0
 55 54  1  0
 57 56  1  0
 57 66  1  0
 57 58  1  0
 59 53  1  0
 59 58  1  0
 60 53  2  0
 62 61  1  0
 63 64  2  0
 64 83  1  0
 65 64  1  0
 65 68  1  0
 66 63  1  0
 66 67  1  0
 67 65  2  0
 68 69  1  0
 69 70  2  0
 71 74  1  0
 71 70  1  0
 72 71  2  0
 73 72  1  0
 73 68  2  0
 74 75  1  0
 75 76  1  0
 76 77  2  0
 78 77  1  0
 78 82  1  0
 79 78  2  0
 80 75  2  0
 80 79  1  0
 81 80  1  0
 83 84  1  0
 84 87  1  0
 84 86  1  0
 85 83  2  0
 88 89  1  0
 88 63  1  0
 90 88  1  0
M  ISO  4   7 101   8 101  53 100  62 100
M  END
>  <TORSDO>  (8) 
F 20

>  <SCORE>  (8) 
-14.765

>  <name>  (8) 
8

>  <ligand_id>  (8) 
8

>  <original_smiles>  (8) 
[H]c1c([H])c([H])c2c(c1[H])C([H])([H])C([H])([H])C([H])([H])C2([H])N([H])C(=O)C1([H])N(C(=O)C([H])(N([H])C(=O)C([H])(N([H])C([H])([H])[H])C([H])([H])[H])C(C([H])([H])[H])(C([H])([H])[H])C([H])([H])[H])C([H])([H])c2c([H])c(OC([H])([H])C([H])(C(=O)N([H])C([H])(C([H])([H])[H])C([H])(N(C(=O)N3C([H])([H])C([H])([H])C([H])([H])C([H])(n4nc(-c5c([H])c([H])c(Oc6c([H])c([H])c(F)c([H])c6F)c([H])c5[H])c(C(=O)N([H])[H])c4N([H])[H])C3([H])[H])C([H])([H])[H])C([H])([H])[H])C([H])([H])[H])c([H])c([H])c2C1([H])[H]

>  <smiles>  (8) 
[H]c1c([H])c([H])c2c(c1[H])C([H])([H])C([H])([H])C([H])([H])C2([H])N([H])C(=O)C1([H])N(C(=O)C([H])(N([H])C(=O)C([H])(N([H])C([H])([H])[H])C([H])([H])[H])C(C([H])([H])[H])(C([H])([H])[H])C([H])([H])[H])C([H])([H])c2c([H])c(OC([H])([H])C([H])(C(=O)N([H])C([H])(C([H])([H])[H])C([H])(N(C(=O)N3C([H])([H])C([H])([H])C([H])([H])C([H])(n4nc(-c5c([H])c([H])c(Oc6c([H])c([H])c(F)c([H])c6F)c([H])c5[H])c(C(=O)N([H])[H])c4N([H])[H])C3([H])[H])C([H])([H])[H])C([H])([H])[H])C([H])([H])[H])c([H])c([H])c2C1([H])[H]

$$$$
9:0:0
     RDKit          3D

 94102  0  0  1  0  0  0  0  0999 V2000
  -29.7920  -18.1140   20.1160 C   0  0  0  0  0  0  0  0  0  0  0  0
  -28.4310  -18.3450   20.0160 C   0  0  0  0  0  0  0  0  0  0  0  0
  -29.1450  -20.5030   19.6610 C   0  0  0  0  0  0  0  0  0  0  0  0
  -29.7900  -22.9380   19.4950 C   0  0  0  0  0  0  0  0  0  0  0  0
  -27.3000  -17.4080   20.2920 C   0  0  0  0  0  1  0  0  0  0  0  0
  -28.0910  -19.6850   19.7250 N   0  0  0  0  0  0  0  0  0  0  0  0
  -28.9340  -21.8980   19.3960 N   0  0  0  0  0  0  0  0  0  0  0  0
  -30.9280  -22.8130   19.9570 O   0  0  0  0  0  0  0  0  0  0  0  0
  -30.6680  -19.6360   19.8890 S   0  0  0  0  0  0  0  0  0  0  0  0
  -28.0140  -22.1340   19.0590 H   0  0  0  0  0  0  0  0  0  0  0  0
  -30.9880  -14.5440   20.5070 C   0  0  0  0  0  0  0  0  0  0  0  0
  -30.8310  -12.1770   19.7450 C   0  0  0  0  0  2  0  0  0  0  0  0
  -29.9670  -12.0390   18.4710 C   0  0  0  0  0  2  0  0  0  0  0  0
  -28.4740  -11.9440   18.8460 C   0  0  0  0  0  2  0  0  0  0  0  0
  -28.0290  -13.0510   19.8420 C   0  0  0  0  0  3  0  0  0  0  0  0
  -28.9950  -13.1120   21.0440 C   0  0  0  0  0  2  0  0  0  0  0  0
  -30.3360  -13.3430   20.5170 N   0  0  0  0  0  0  0  0  0  0  0  0
  -32.1910  -14.5800   20.2050 O   0  0  0  0  0  0  0  0  0  0  0  0
  -30.6650  -16.9600   20.5460 C   0  0  0  0  0  0  0  0  0  0  0  0
  -30.2150  -15.6720   20.6080 N   0  0  0  0  0  0  0  0  0  0  0  0
  -31.8380  -17.2530   20.8050 O   0  0  0  0  0  0  0  0  0  0  0  0
  -29.2210  -15.5350   20.5870 H   0  0  0  0  0  0  0  0  0  0  0  0
  -25.6550  -13.8260   20.4540 C   0  0  0  0  0  0  0  0  0  0  0  0
  -24.5290  -13.1310   20.8020 C   0  0  0  0  0  0  0  0  0  0  0  0
  -24.9160  -11.7560   20.8380 C   0  0  0  0  0  0  0  0  0  0  0  0
  -26.6480  -12.8800   20.2790 N   0  0  0  0  0  0  0  0  0  0  0  0
  -26.2130  -11.6320   20.5860 N   0  0  0  0  0  0  0  0  0  0  0  0
  -24.1140  -10.5450   21.0410 C   0  0  0  0  0  0  0  0  0  0  0  0
  -24.4710   -9.5790   22.0080 C   0  0  0  0  0  3  0  0  0  0  0  0
  -23.6830   -8.4240   22.1880 C   0  0  0  0  0  3  0  0  0  0  0  0
  -22.5170   -8.2320   21.4050 C   0  0  0  0  0  0  0  0  0  0  0  0
  -22.1810   -9.1860   20.4280 C   0  0  0  0  0  3  0  0  0  0  0  0
  -22.9720  -10.3330   20.2470 C   0  0  0  0  0  3  0  0  0  0  0  0
  -21.6970   -7.1350   21.4940 O   0  0  0  0  0  0  0  0  0  0  0  0
  -21.6140   -6.3940   22.6420 C   0  0  0  0  0  0  0  0  0  0  0  0
  -21.2130   -6.9640   23.8720 C   0  0  0  0  0  3  0  0  0  0  0  0
  -21.0800   -6.1480   25.0130 C   0  0  0  0  0  3  0  0  0  0  0  0
  -21.3430   -4.7660   24.9260 C   0  0  0  0  0  0  0  0  0  0  0  0
  -21.7290   -4.1980   23.6990 C   0  0  0  0  0  3  0  0  0  0  0  0
  -21.8700   -5.0120   22.5600 C   0  0  0  0  0  0  0  0  0  0  0  0
  -22.2300   -4.4540   21.3780 F   0  0  0  0  0  0  0  0  0  0  0  0
  -21.2060   -3.9820   26.0210 F   0  0  0  0  0  0  0  0  0  0  0  0
  -23.1520  -13.6960   20.9930 C   0  0  0  0  0  0  0  0  0  0  0  0
  -22.3560  -13.0830   21.8600 N   0  0  0  0  0  0  0  0  0  0  0  0
  -22.7900  -14.7140   20.4030 O   0  0  0  0  0  0  0  0  0  0  0  0
  -22.6610  -12.2590   22.3530 H   0  0  0  0  0  0  0  0  0  0  0  0
  -21.4310  -13.4480   22.0450 H   0  0  0  0  0  0  0  0  0  0  0  0
  -25.9130  -15.1810   20.2400 N   0  0  0  0  0  0  0  0  0  0  0  0
  -25.1690  -15.8670   20.2980 H   0  0  0  0  0  0  0  0  0  0  0  0
  -26.7690  -15.5500   19.8500 H   0  0  0  0  0  0  0  0  0  0  0  0
  -28.8880  -24.2080   17.4930 C   0  0  0  0  0  1  0  0  0  0  0  0
  -29.3460  -24.3440   18.9690 C   0  0  0  0  0  3  0  0  0  0  0  0
  -28.3670  -25.1270   19.9260 C   0  0  0  0  0  2  0  0  0  0  0  0
  -28.4880  -26.5950   20.0060 O   0  0  0  0  0  0  0  0  0  0  0  0
  -24.5600  -31.7630   23.2050 C   0  0  0  0  0  0  0  0  0  0  0  0
  -27.3310  -27.3750   20.0430 C   0  0  0  0  0  0  0  0  0  0  0  0
  -23.4260  -30.3900   21.4970 C   0  0  0  0  0  3  0  0  0  0  0  0
  -24.9360  -28.9150   20.0700 C   0  0  0  0  0  0  0  0  0  0  0  0
  -25.9600  -30.7800   21.3700 C   0  0  0  0  0  2  0  0  0  0  0  0
  -26.0860  -29.4210   20.6880 C   0  0  0  0  0  0  0  0  0  0  0  0
  -27.2920  -28.6620   20.6640 C   0  0  0  0  0  3  0  0  0  0  0  0
  -26.1490  -26.9080   19.4350 C   0  0  0  0  0  3  0  0  0  0  0  0
  -24.9590  -27.6530   19.4570 C   0  0  0  0  0  3  0  0  0  0  0  0
  -23.6810  -29.7570   20.1060 C   0  0  0  0  0  2  0  0  0  0  0  0
  -24.6700  -30.9910   22.0830 N   0  0  0  0  0  0  0  0  0  0  0  0
  -23.4580  -32.0030   23.7160 O   0  0  0  0  0  0  0  0  0  0  0  0
  -22.7600  -29.3280   22.4080 C   0  0  0  0  0  0  0  0  0  0  0  0
  -21.4360  -29.1690   22.2670 N   0  0  0  0  0  0  0  0  0  0  0  0
  -23.4370  -28.6650   23.1980 O   0  0  0  0  0  0  0  0  0  0  0  0
  -20.9590  -29.7520   21.5950 H   0  0  0  0  0  0  0  0  0  0  0  0
  -18.0350  -28.0410   22.7620 C   0  0  0  0  0  0  0  0  0  0  0  0
  -20.6040  -28.2000   22.9870 C   0  0  0  0  0  3  0  0  0  0  0  0
  -20.6530  -26.8160   22.3020 C   0  0  0  0  0  2  0  0  0  0  0  0
  -19.5160  -26.6020   21.2990 C   0  0  0  0  0  2  0  0  0  0  0  0
  -18.1540  -26.7400   21.9870 C   0  0  0  0  0  2  0  0  0  0  0  0
  -19.1860  -28.7360   23.2170 C   0  0  0  0  0  0  0  0  0  0  0  0
  -19.0200  -29.9590   23.9010 C   0  0  0  0  0  3  0  0  0  0  0  0
  -17.7340  -30.4830   24.1410 C   0  0  0  0  0  3  0  0  0  0  0  0
  -16.5970  -29.7790   23.7060 C   0  0  0  0  0  3  0  0  0  0  0  0
  -16.7470  -28.5610   23.0200 C   0  0  0  0  0  3  0  0  0  0  0  0
  -25.8140  -32.3970   23.8820 C   0  0  0  0  0  3  0  0  0  0  0  0
  -25.5000  -33.8040   24.1770 N   0  0  0  0  0  0  0  0  0  0  0  0
  -25.8860  -34.8410   23.4270 C   0  0  0  0  0  0  0  0  0  0  0  0
  -26.6160  -34.7170   22.4390 O   0  0  0  0  0  0  0  0  0  0  0  0
  -24.8680  -33.9760   24.9480 H   0  0  0  0  0  0  0  0  0  0  0  0
  -24.1930  -36.6360   22.9480 C   0  0  0  0  0  1  0  0  0  0  0  0
  -25.3840  -36.2390   23.8340 C   0  0  0  0  0  3  0  0  0  0  0  0
  -27.4700  -37.1250   24.7760 C   0  0  0  0  0  1  0  0  0  0  0  0
  -26.4280  -37.2810   23.7640 N   0  0  0  0  0  0  0  0  0  0  0  0
  -26.0220  -38.2090   23.8680 H   0  0  0  0  0  0  0  0  0  0  0  0
  -26.2590  -31.6420   25.1950 C   0  0  1  0  0  0  0  0  0  0  0  0
  -25.1080  -31.4160   26.2030 C   0  0  0  0  0  1  0  0  0  0  0  0
  -26.8600  -30.2600   24.8510 C   0  0  0  0  0  1  0  0  0  0  0  0
  -27.3720  -32.4460   25.9070 C   0  0  0  0  0  1  0  0  0  0  0  0
  1 19  1  0
  2  1  2  0
  2  5  1  0
  3  6  2  0
  3  9  1  0
  4  8  2  0
  6  2  1  0
  7  4  1  0
  7  3  1  0
  9  1  1  0
 10  7  1  0
 11 17  1  0
 11 20  1  0
 12 17  1  0
 13 14  1  0
 13 12  1  0
 15 14  1  0
 15 26  1  0
 15 16  1  0
 17 16  1  0
 18 11  2  0
 19 20  1  0
 19 21  2  0
 22 20  1  0
 23 24  2  0
 24 25  1  0
 24 43  1  0
 25 28  1  0
 26 23  1  0
 26 27  1  0
 27 25  2  0
 28 29  1  0
 29 30  2  0
 31 34  1  0
 31 30  1  0
 32 31  2  0
 33 32  1  0
 33 28  2  0
 34 35  1  0
 35 36  1  0
 36 37  2  0
 38 37  1  0
 38 42  1  0
 39 38  2  0
 40 35  2  0
 40 39  1  0
 41 40  1  0
 43 44  1  0
 44 47  1  0
 44 46  1  0
 45 43  2  0
 48 49  1  0
 48 23  1  0
 50 48  1  0
 52 51  1  0
 52  4  1  0
 52 53  1  0
 53 54  1  0
 54 56  1  0
 55 66  2  0
 56 61  1  0
 57 65  1  0
 57 67  1  0
 58 64  1  0
 58 60  1  0
 59 65  1  0
 60 59  1  0
 61 60  2  0
 62 63  1  0
 62 56  2  0
 63 58  2  0
 64 57  1  0
 65 55  1  0
 67 69  2  0
 68 67  1  0
 70 68  1  0
 71 80  2  0
 71 76  1  0
 72 68  1  0
 72 76  1  0
 73 72  1  0
 74 75  1  0
 74 73  1  0
 75 71  1  0
 76 77  2  0
 77 78  1  0
 79 78  2  0
 80 79  1  0
 81 55  1  0
 81 82  1  0
 81 91  1  0
 82 85  1  0
 83 87  1  0
 83 82  1  0
 84 83  2  0
 87 86  1  0
 89 87  1  0
 89 90  1  0
 89 88  1  0
 91 94  1  1
 91 92  1  0
 93 91  1  0
M  ISO  4  11 100  20 100  53 101  54 101
M  END
>  <TORSDO>  (9) 
F 18

>  <SCORE>  (9) 
-14.516

>  <name>  (9) 
9

>  <ligand_id>  (9) 
9

>  <original_smiles>  (9) 
[H]c1c([H])c([H])c2c(c1[H])C([H])([H])C([H])([H])C([H])([H])C2([H])N([H])C(=O)C1([H])N(C(=O)C([H])(N([H])C(=O)C([H])(N([H])C([H])([H])[H])C([H])([H])[H])C(C([H])([H])[H])(C([H])([H])[H])C([H])([H])[H])C([H])([H])c2c([H])c(OC([H])([H])C([H])(C(=O)N([H])c3nc(C([H])([H])[H])c(C(=O)N([H])C(=O)N4C([H])([H])C([H])([H])C([H])([H])C([H])(n5nc(-c6c([H])c([H])c(Oc7c([H])c([H])c(F)c([H])c7F)c([H])c6[H])c(C(=O)N([H])[H])c5N([H])[H])C4([H])[H])s3)C([H])([H])[H])c([H])c([H])c2C1([H])[H]

>  <smiles>  (9) 
[H]c1c([H])c([H])c2c(c1[H])C([H])([H])C([H])([H])C([H])([H])C2([H])N([H])C(=O)C1([H])N(C(=O)C([H])(N([H])C(=O)C([H])(N([H])C([H])([H])[H])C([H])([H])[H])C(C([H])([H])[H])(C([H])([H])[H])C([H])([H])[H])C([H])([H])c2c([H])c(OC([H])([H])C([H])(C(=O)N([H])c3nc(C([H])([H])[H])c(C(=O)N([H])C(=O)N4C([H])([H])C([H])([H])C([H])([H])C([H])(n5nc(-c6c([H])c([H])c(Oc7c([H])c([H])c(F)c([H])c7F)c([H])c6[H])c(C(=O)N([H])[H])c5N([H])[H])C4([H])[H])s3)C([H])([H])[H])c([H])c([H])c2C1([H])[H]

$$$$
10:0:0
     RDKit          3D

 94102  0  0  1  0  0  0  0  0999 V2000
  -30.3550  -21.0490   19.4540 C   0  0  0  0  0  3  0  0  0  0  0  0
  -30.7930  -19.6740   19.3230 C   0  0  0  0  0  0  0  0  0  0  0  0
  -30.0890  -18.7560   20.0940 C   0  0  0  0  0  0  0  0  0  0  0  0
  -29.3050  -21.2930   20.3080 C   0  0  0  0  0  0  0  0  0  0  0  0
  -28.8220  -19.6800   20.9560 S   0  0  0  0  0  0  0  0  0  0  0  0
  -31.9470  -19.3170   18.4140 C   0  0  1  0  0  0  0  0  0  0  0  0
  -32.3550  -20.3620   17.6900 F   0  0  0  0  0  0  0  0  0  0  0  0
  -33.0000  -18.8940   19.1130 F   0  0  0  0  0  0  0  0  0  0  0  0
  -31.6130  -18.3580   17.5500 F   0  0  0  0  0  0  0  0  0  0  0  0
  -28.8740  -23.8090   20.1490 C   0  0  0  0  0  0  0  0  0  0  0  0
  -28.7300  -22.5250   20.6650 N   0  0  0  0  0  0  0  0  0  0  0  0
  -29.5130  -24.0110   19.1130 O   0  0  0  0  0  0  0  0  0  0  0  0
  -28.1150  -22.4830   21.4660 H   0  0  0  0  0  0  0  0  0  0  0  0
  -26.8310  -24.7160   21.4640 C   0  0  0  0  0  1  0  0  0  0  0  0
  -28.2220  -25.0750   20.8910 C   0  0  0  0  0  3  0  0  0  0  0  0
  -28.3380  -26.4220   20.2110 O   0  0  0  0  0  0  0  0  0  0  0  0
  -24.6050  -31.8680   23.2350 C   0  0  0  0  0  0  0  0  0  0  0  0
  -27.2470  -27.3150   20.1810 C   0  0  0  0  0  0  0  0  0  0  0  0
  -23.4220  -30.4790   21.5730 C   0  0  0  0  0  3  0  0  0  0  0  0
  -24.8920  -28.9450   20.1430 C   0  0  0  0  0  0  0  0  0  0  0  0
  -25.9650  -30.7990   21.4190 C   0  0  0  0  0  2  0  0  0  0  0  0
  -26.0530  -29.4240   20.7640 C   0  0  0  0  0  0  0  0  0  0  0  0
  -27.2370  -28.6190   20.7750 C   0  0  0  0  0  3  0  0  0  0  0  0
  -26.0790  -26.9160   19.5010 C   0  0  0  0  0  3  0  0  0  0  0  0
  -24.9080  -27.6980   19.4990 C   0  0  0  0  0  3  0  0  0  0  0  0
  -23.6510  -29.8160   20.1880 C   0  0  0  0  0  2  0  0  0  0  0  0
  -24.6820  -31.0680   22.1320 N   0  0  0  0  0  0  0  0  0  0  0  0
  -23.5160  -32.1380   23.7620 O   0  0  0  0  0  0  0  0  0  0  0  0
  -22.7530  -29.4530   22.5190 C   0  0  0  0  0  0  0  0  0  0  0  0
  -21.4260  -29.2800   22.3860 N   0  0  0  0  0  0  0  0  0  0  0  0
  -23.4270  -28.8160   23.3320 O   0  0  0  0  0  0  0  0  0  0  0  0
  -20.9420  -29.8460   21.7040 H   0  0  0  0  0  0  0  0  0  0  0  0
  -18.0420  -28.0960   22.8740 C   0  0  0  0  0  0  0  0  0  0  0  0
  -20.6030  -28.3360   23.1440 C   0  0  0  0  0  3  0  0  0  0  0  0
  -20.6950  -26.9130   22.5450 C   0  0  0  0  0  2  0  0  0  0  0  0
  -19.5890  -26.6140   21.5280 C   0  0  0  0  0  2  0  0  0  0  0  0
  -18.2090  -26.7580   22.1760 C   0  0  0  0  0  2  0  0  0  0  0  0
  -19.1660  -28.8460   23.3140 C   0  0  0  0  0  0  0  0  0  0  0  0
  -18.9560  -30.1000   23.9270 C   0  0  0  0  0  3  0  0  0  0  0  0
  -17.6540  -30.6060   24.1030 C   0  0  0  0  0  3  0  0  0  0  0  0
  -16.5440  -29.8530   23.6780 C   0  0  0  0  0  3  0  0  0  0  0  0
  -16.7400  -28.6010   23.0710 C   0  0  0  0  0  3  0  0  0  0  0  0
  -25.8790  -32.5010   23.8740 C   0  0  0  0  0  3  0  0  0  0  0  0
  -26.3730  -31.7360   25.1640 C   0  0  1  0  0  0  0  0  0  0  0  0
  -25.2600  -31.5100   26.2150 C   0  0  0  0  0  1  0  0  0  0  0  0
  -26.9560  -30.3530   24.7930 C   0  0  0  0  0  1  0  0  0  0  0  0
  -27.5160  -32.5300   25.8380 C   0  0  0  0  0  1  0  0  0  0  0  0
  -25.5690  -33.9020   24.1920 N   0  0  0  0  0  0  0  0  0  0  0  0
  -25.9120  -34.9500   23.4320 C   0  0  0  0  0  0  0  0  0  0  0  0
  -26.5940  -34.8410   22.4100 O   0  0  0  0  0  0  0  0  0  0  0  0
  -24.9620  -34.0610   24.9840 H   0  0  0  0  0  0  0  0  0  0  0  0
  -24.1930  -36.7480   23.0520 C   0  0  0  0  0  1  0  0  0  0  0  0
  -25.4250  -36.3440   23.8780 C   0  0  0  0  0  3  0  0  0  0  0  0
  -27.5520  -37.2270   24.7280 C   0  0  0  0  0  1  0  0  0  0  0  0
  -26.4610  -37.3920   23.7700 N   0  0  0  0  0  0  0  0  0  0  0  0
  -26.0560  -38.3150   23.9080 H   0  0  0  0  0  0  0  0  0  0  0  0
  -30.3880  -17.2830   20.1270 C   0  0  0  0  0  3  0  0  0  0  0  0
  -29.8610  -16.0560   20.5050 C   0  0  0  0  0  3  0  0  0  0  0  0
  -30.6190  -14.7620   20.2790 C   0  0  0  0  0  0  0  0  0  0  0  0
  -30.3620  -12.4870   19.2970 C   0  0  0  0  0  2  0  0  0  0  0  0
  -29.4310  -12.5810   18.0670 C   0  0  0  0  0  2  0  0  0  0  0  0
  -27.9610  -12.4200   18.4960 C   0  0  0  0  0  2  0  0  0  0  0  0
  -27.5940  -13.3090   19.7150 C   0  0  0  0  0  3  0  0  0  0  0  0
  -28.6530  -13.2230   20.8330 C   0  0  0  0  0  2  0  0  0  0  0  0
  -29.9570  -13.5530   20.2450 N   0  0  0  0  0  0  0  0  0  0  0  0
  -31.8090  -14.7780   19.9480 O   0  0  0  0  0  0  0  0  0  0  0  0
  -25.2100  -13.8970   20.4540 C   0  0  0  0  0  0  0  0  0  0  0  0
  -24.1460  -13.1220   20.8300 C   0  0  0  0  0  0  0  0  0  0  0  0
  -24.6110  -11.7710   20.8040 C   0  0  0  0  0  0  0  0  0  0  0  0
  -26.2530  -13.0180   20.2150 N   0  0  0  0  0  0  0  0  0  0  0  0
  -25.9010  -11.7350   20.4890 N   0  0  0  0  0  0  0  0  0  0  0  0
  -23.8860  -10.5090   21.0010 C   0  0  0  0  0  0  0  0  0  0  0  0
  -24.3170   -9.5470   21.9420 C   0  0  0  0  0  3  0  0  0  0  0  0
  -23.5910   -8.3510   22.1270 C   0  0  0  0  0  3  0  0  0  0  0  0
  -22.4190   -8.1070   21.3710 C   0  0  0  0  0  0  0  0  0  0  0  0
  -22.0080   -9.0570   20.4200 C   0  0  0  0  0  3  0  0  0  0  0  0
  -22.7340  -10.2450   20.2330 C   0  0  0  0  0  3  0  0  0  0  0  0
  -21.6650   -6.9630   21.4660 O   0  0  0  0  0  0  0  0  0  0  0  0
  -21.6140   -6.2270   22.6230 C   0  0  0  0  0  0  0  0  0  0  0  0
  -21.1790   -6.7880   23.8430 C   0  0  0  0  0  3  0  0  0  0  0  0
  -21.0760   -5.9780   24.9930 C   0  0  0  0  0  3  0  0  0  0  0  0
  -21.3980   -4.6090   24.9220 C   0  0  0  0  0  0  0  0  0  0  0  0
  -21.8250   -4.0490   23.7050 C   0  0  0  0  0  3  0  0  0  0  0  0
  -21.9300   -4.8550   22.5590 C   0  0  0  0  0  0  0  0  0  0  0  0
  -22.3220   -4.3040   21.3850 F   0  0  0  0  0  0  0  0  0  0  0  0
  -21.2910   -3.8300   26.0240 F   0  0  0  0  0  0  0  0  0  0  0  0
  -22.7490  -13.6000   21.1020 C   0  0  0  0  0  0  0  0  0  0  0  0
  -22.0220  -12.9040   21.9700 N   0  0  0  0  0  0  0  0  0  0  0  0
  -22.3110  -14.6240   20.5810 O   0  0  0  0  0  0  0  0  0  0  0  0
  -22.3890  -12.0750   22.4140 H   0  0  0  0  0  0  0  0  0  0  0  0
  -21.0840  -13.2060   22.1940 H   0  0  0  0  0  0  0  0  0  0  0  0
  -25.3730  -15.2660   20.2720 N   0  0  0  0  0  0  0  0  0  0  0  0
  -24.6060  -15.9230   20.3880 H   0  0  0  0  0  0  0  0  0  0  0  0
  -26.2230  -15.7060   19.9410 H   0  0  0  0  0  0  0  0  0  0  0  0
  1  4  2  0
  2  1  1  0
  2  3  2  0
  3 57  1  0
  3  5  1  0
  4 11  1  0
  4  5  1  0
  6  8  1  1
  6  2  1  0
  7  6  1  0
  9  6  1  0
 10 11  1  0
 10 15  1  0
 11 13  1  0
 12 10  2  0
 15 14  1  0
 16 15  1  0
 17 28  2  0
 18 16  1  0
 18 23  1  0
 19 27  1  0
 19 29  1  0
 20 26  1  0
 20 22  1  0
 21 27  1  0
 22 23  2  0
 22 21  1  0
 24 18  2  0
 25 24  1  0
 25 20  2  0
 26 19  1  0
 27 17  1  0
 29 31  2  0
 30 29  1  0
 32 30  1  0
 33 42  2  0
 33 38  1  0
 34 30  1  0
 34 38  1  0
 35 34  1  0
 36 37  1  0
 36 35  1  0
 37 33  1  0
 38 39  2  0
 39 40  1  0
 41 40  2  0
 42 41  1  0
 43 17  1  0
 43 48  1  0
 43 44  1  0
 44 47  1  1
 44 45  1  0
 46 44  1  0
 48 51  1  0
 49 53  1  0
 49 48  1  0
 50 49  2  0
 53 52  1  0
 55 53  1  0
 55 56  1  0
 55 54  1  0
 57 58  2  0
 59 58  1  0
 60 65  1  0
 61 62  1  0
 61 60  1  0
 63 62  1  0
 63 70  1  0
 63 64  1  0
 65 59  1  0
 65 64  1  0
 66 59  2  0
 67 68  2  0
 68 87  1  0
 69 68  1  0
 69 72  1  0
 70 67  1  0
 70 71  1  0
 71 69  2  0
 72 73  1  0
 73 74  2  0
 75 78  1  0
 75 74  1  0
 76 75  2  0
 77 76  1  0
 77 72  2  0
 78 79  1  0
 79 80  1  0
 80 81  2  0
 82 81  1  0
 82 86  1  0
 83 82  2  0
 84 79  2  0
 84 83  1  0
 85 84  1  0
 87 88  1  0
 88 91  1  0
 88 90  1  0
 89 87  2  0
 92 93  1  0
 92 67  1  0
 94 92  1  0
M  ISO  4  15 101  16 101  58 100  59 100
M  END
>  <TORSDO>  (10) 
F 20

>  <SCORE>  (10) 
-13.721

>  <name>  (10) 
10

>  <ligand_id>  (10) 
10

>  <original_smiles>  (10) 
[H]C(C(=O)N1C([H])([H])C([H])([H])C([H])([H])C([H])(n2nc(-c3c([H])c([H])c(Oc4c([H])c([H])c(F)c([H])c4F)c([H])c3[H])c(C(=O)N([H])[H])c2N([H])[H])C1([H])[H])=C([H])c1sc(N([H])C(=O)C([H])(Oc2c([H])c([H])c3c(c2[H])C([H])([H])N(C(=O)C([H])(N([H])C(=O)C([H])(N([H])C([H])([H])[H])C([H])([H])[H])C(C([H])([H])[H])(C([H])([H])[H])C([H])([H])[H])C([H])(C(=O)N([H])C2([H])c4c([H])c([H])c([H])c([H])c4C([H])([H])C([H])([H])C2([H])[H])C3([H])[H])C([H])([H])[H])c([H])c1C(F)(F)F

>  <smiles>  (10) 
[H]C(C(=O)N1C([H])([H])C([H])([H])C([H])([H])C([H])(n2nc(-c3c([H])c([H])c(Oc4c([H])c([H])c(F)c([H])c4F)c([H])c3[H])c(C(=O)N([H])[H])c2N([H])[H])C1([H])[H])=C([H])c1sc(N([H])C(=O)C([H])(Oc2c([H])c([H])c3c(c2[H])C([H])([H])N(C(=O)C([H])(N([H])C(=O)C([H])(N([H])C([H])([H])[H])C([H])([H])[H])C(C([H])([H])[H])(C([H])([H])[H])C([H])([H])[H])C([H])(C(=O)N([H])C2([H])c4c([H])c([H])c([H])c([H])c4C([H])([H])C([H])([H])C2([H])[H])C3([H])[H])C([H])([H])[H])c([H])c1C(F)(F)F

$$$$
11:0:0
     RDKit          3D

 96104  0  0  1  0  0  0  0  0999 V2000
  -30.3480  -19.5350   21.4270 C   0  0  0  0  0  0  0  0  0  0  0  0
  -30.0840  -18.2570   20.9560 C   0  0  0  0  0  0  0  0  0  0  0  0
  -29.5610  -20.5490   20.7350 C   0  0  0  0  0  0  0  0  0  0  0  0
  -29.1230  -23.0690   20.4700 C   0  0  0  0  0  0  0  0  0  0  0  0
  -28.7310  -20.0830   19.8170 N   0  0  0  0  0  0  0  0  0  0  0  0
  -29.6980  -21.9630   21.0230 N   0  0  0  0  0  0  0  0  0  0  0  0
  -28.2840  -23.0230   19.5660 O   0  0  0  0  0  0  0  0  0  0  0  0
  -28.8770  -18.4020   19.7190 S   0  0  0  0  0  0  0  0  0  0  0  0
  -30.3660  -22.1700   21.7530 H   0  0  0  0  0  0  0  0  0  0  0  0
  -31.3560  -19.7760   22.5250 C   0  0  1  0  0  0  0  0  0  0  0  0
  -32.5800  -19.4000   22.1520 F   0  0  0  0  0  0  0  0  0  0  0  0
  -31.4320  -21.0580   22.8850 F   0  0  0  0  0  0  0  0  0  0  0  0
  -31.0400  -19.0810   23.6190 F   0  0  0  0  0  0  0  0  0  0  0  0
  -30.7530  -16.9380   21.3550 C   0  0  0  0  0  2  0  0  0  0  0  0
  -30.7340  -14.6500   20.2750 C   0  0  0  0  0  0  0  0  0  0  0  0
  -30.3810  -12.5240   19.0590 C   0  0  0  0  0  2  0  0  0  0  0  0
  -29.3900  -12.7410   17.8970 C   0  0  0  0  0  2  0  0  0  0  0  0
  -27.9380  -12.5750   18.3830 C   0  0  0  0  0  2  0  0  0  0  0  0
  -27.6440  -13.3800   19.6770 C   0  0  0  0  0  3  0  0  0  0  0  0
  -28.7440  -13.1540   20.7390 C   0  0  0  0  0  2  0  0  0  0  0  0
  -30.0390  -13.4860   20.1230 N   0  0  0  0  0  0  0  0  0  0  0  0
  -31.8360  -14.8260   19.7500 O   0  0  0  0  0  0  0  0  0  0  0  0
  -30.1230  -15.6540   20.9500 N   0  0  0  0  0  0  0  0  0  0  0  0
  -29.2170  -15.4430   21.3380 H   0  0  0  0  0  0  0  0  0  0  0  0
  -25.2730  -13.9500   20.4940 C   0  0  0  0  0  0  0  0  0  0  0  0
  -24.2220  -13.1600   20.8810 C   0  0  0  0  0  0  0  0  0  0  0  0
  -24.6890  -11.8130   20.7970 C   0  0  0  0  0  0  0  0  0  0  0  0
  -26.3120  -13.0820   20.2010 N   0  0  0  0  0  0  0  0  0  0  0  0
  -25.9690  -11.7900   20.4420 N   0  0  0  0  0  0  0  0  0  0  0  0
  -23.9770  -10.5410   20.9800 C   0  0  0  0  0  0  0  0  0  0  0  0
  -24.4220   -9.5700   21.9040 C   0  0  0  0  0  3  0  0  0  0  0  0
  -23.7090   -8.3640   22.0740 C   0  0  0  0  0  3  0  0  0  0  0  0
  -22.5360   -8.1210   21.3190 C   0  0  0  0  0  0  0  0  0  0  0  0
  -22.1120   -9.0800   20.3840 C   0  0  0  0  0  3  0  0  0  0  0  0
  -22.8260  -10.2770   20.2120 C   0  0  0  0  0  3  0  0  0  0  0  0
  -21.7950   -6.9660   21.3990 O   0  0  0  0  0  0  0  0  0  0  0  0
  -21.7230   -6.2350   22.5570 C   0  0  0  0  0  0  0  0  0  0  0  0
  -21.2070   -6.7820   23.7530 C   0  0  0  0  0  3  0  0  0  0  0  0
  -21.0860   -5.9750   24.9010 C   0  0  0  0  0  3  0  0  0  0  0  0
  -21.4730   -4.6220   24.8560 C   0  0  0  0  0  0  0  0  0  0  0  0
  -21.9820   -4.0740   23.6660 C   0  0  0  0  0  3  0  0  0  0  0  0
  -22.1040   -4.8780   22.5190 C   0  0  0  0  0  0  0  0  0  0  0  0
  -22.5760   -4.3400   21.3690 F   0  0  0  0  0  0  0  0  0  0  0  0
  -21.3490   -3.8450   25.9580 F   0  0  0  0  0  0  0  0  0  0  0  0
  -22.8340  -13.6230   21.2170 C   0  0  0  0  0  0  0  0  0  0  0  0
  -22.1380  -12.8910   22.0790 N   0  0  0  0  0  0  0  0  0  0  0  0
  -22.3770  -14.6650   20.7510 O   0  0  0  0  0  0  0  0  0  0  0  0
  -22.5200  -12.0460   22.4750 H   0  0  0  0  0  0  0  0  0  0  0  0
  -21.2090  -13.1810   22.3490 H   0  0  0  0  0  0  0  0  0  0  0  0
  -25.4250  -15.3260   20.3480 N   0  0  0  0  0  0  0  0  0  0  0  0
  -24.6630  -15.9750   20.5070 H   0  0  0  0  0  0  0  0  0  0  0  0
  -26.2600  -15.7730   19.9930 H   0  0  0  0  0  0  0  0  0  0  0  0
  -29.6050  -24.4640   20.9910 C   0  0  0  0  0  2  0  0  0  0  0  0
  -27.2070  -25.0710   21.7880 C   0  0  0  0  0  1  0  0  0  0  0  0
  -28.5720  -25.6180   21.3030 C   0  0  0  0  0  3  0  0  0  0  0  0
  -28.5350  -26.6860   20.3010 O   0  0  0  0  0  0  0  0  0  0  0  0
  -24.6400  -31.9500   23.2630 C   0  0  0  0  0  0  0  0  0  0  0  0
  -27.4110  -27.4990   20.2720 C   0  0  0  0  0  0  0  0  0  0  0  0
  -23.5030  -30.5300   21.5920 C   0  0  0  0  0  3  0  0  0  0  0  0
  -25.0170  -29.0170   20.1990 C   0  0  0  0  0  0  0  0  0  0  0  0
  -26.0320  -30.9110   21.4720 C   0  0  0  0  0  2  0  0  0  0  0  0
  -26.1540  -29.5380   20.8330 C   0  0  0  0  0  0  0  0  0  0  0  0
  -27.3560  -28.7840   20.8740 C   0  0  0  0  0  3  0  0  0  0  0  0
  -26.2720  -27.0260   19.5900 C   0  0  0  0  0  3  0  0  0  0  0  0
  -25.0730  -27.7600   19.5710 C   0  0  0  0  0  3  0  0  0  0  0  0
  -23.7610  -29.8610   20.2140 C   0  0  0  0  0  2  0  0  0  0  0  0
  -24.7410  -31.1460   22.1670 N   0  0  0  0  0  0  0  0  0  0  0  0
  -23.5420  -32.2080   23.7730 O   0  0  0  0  0  0  0  0  0  0  0  0
  -22.8360  -29.4990   22.5330 C   0  0  0  0  0  0  0  0  0  0  0  0
  -21.5140  -29.3130   22.3840 N   0  0  0  0  0  0  0  0  0  0  0  0
  -23.5070  -28.8700   23.3560 O   0  0  0  0  0  0  0  0  0  0  0  0
  -21.0350  -29.8690   21.6910 H   0  0  0  0  0  0  0  0  0  0  0  0
  -18.1280  -28.1400   22.8590 C   0  0  0  0  0  0  0  0  0  0  0  0
  -20.6890  -28.3670   23.1340 C   0  0  0  0  0  3  0  0  0  0  0  0
  -20.7790  -26.9480   22.5270 C   0  0  0  0  0  2  0  0  0  0  0  0
  -19.6740  -26.6580   21.5080 C   0  0  0  0  0  2  0  0  0  0  0  0
  -18.2920  -26.8030   22.1530 C   0  0  0  0  0  2  0  0  0  0  0  0
  -19.2550  -28.8800   23.3040 C   0  0  0  0  0  0  0  0  0  0  0  0
  -19.0490  -30.1320   23.9230 C   0  0  0  0  0  3  0  0  0  0  0  0
  -17.7500  -30.6430   24.1030 C   0  0  0  0  0  3  0  0  0  0  0  0
  -16.6380  -29.8980   23.6760 C   0  0  0  0  0  3  0  0  0  0  0  0
  -16.8270  -28.6480   23.0590 C   0  0  0  0  0  3  0  0  0  0  0  0
  -25.8990  -32.6000   23.9170 C   0  0  0  0  0  3  0  0  0  0  0  0
  -26.3840  -31.8470   25.2170 C   0  0  1  0  0  0  0  0  0  0  0  0
  -25.2570  -31.6000   26.2470 C   0  0  0  0  0  1  0  0  0  0  0  0
  -27.0040  -30.4770   24.8560 C   0  0  0  0  0  1  0  0  0  0  0  0
  -27.4980  -32.6650   25.9130 C   0  0  0  0  0  1  0  0  0  0  0  0
  -25.5690  -33.9980   24.2220 N   0  0  0  0  0  0  0  0  0  0  0  0
  -25.9120  -35.0440   23.4580 C   0  0  0  0  0  0  0  0  0  0  0  0
  -26.6090  -34.9340   22.4450 O   0  0  0  0  0  0  0  0  0  0  0  0
  -24.9540  -34.1570   25.0060 H   0  0  0  0  0  0  0  0  0  0  0  0
  -24.1840  -36.8190   23.0220 C   0  0  0  0  0  1  0  0  0  0  0  0
  -25.3980  -36.4330   23.8830 C   0  0  0  0  0  3  0  0  0  0  0  0
  -27.4860  -37.3500   24.7890 C   0  0  0  0  0  1  0  0  0  0  0  0
  -26.4260  -37.4930   23.7960 N   0  0  0  0  0  0  0  0  0  0  0  0
  -26.0080  -38.4130   23.9110 H   0  0  0  0  0  0  0  0  0  0  0  0
  1 10  1  0
  2 14  1  0
  2  1  2  0
  3  6  1  0
  3  1  1  0
  4 53  1  0
  4  6  1  0
  5  3  2  0
  6  9  1  0
  7  4  2  0
  8  5  1  0
  8  2  1  0
 10 12  1  1
 10 13  1  0
 11 10  1  0
 15 23  1  0
 16 21  1  0
 17 18  1  0
 17 16  1  0
 19 18  1  0
 19 28  1  0
 19 20  1  0
 21 15  1  0
 21 20  1  0
 22 15  2  0
 23 24  1  0
 23 14  1  0
 25 26  2  0
 26 45  1  0
 27 26  1  0
 27 30  1  0
 28 29  1  0
 28 25  1  0
 29 27  2  0
 30 31  1  0
 31 32  2  0
 33 36  1  0
 33 32  1  0
 34 33  2  0
 35 34  1  0
 35 30  2  0
 36 37  1  0
 37 38  1  0
 38 39  2  0
 40 39  1  0
 40 44  1  0
 41 40  2  0
 42 37  2  0
 42 41  1  0
 43 42  1  0
 45 46  1  0
 46 49  1  0
 46 48  1  0
 47 45  2  0
 50 25  1  0
 50 51  1  0
 52 50  1  0
 53 55  1  0
 55 54  1  0
 56 55  1  0
 57 68  2  0
 58 56  1  0
 58 63  1  0
 59 67  1  0
 59 69  1  0
 60 66  1  0
 60 62  1  0
 61 67  1  0
 62 63  2  0
 62 61  1  0
 64 58  2  0
 65 64  1  0
 65 60  2  0
 66 59  1  0
 67 57  1  0
 69 71  2  0
 70 69  1  0
 72 70  1  0
 73 82  2  0
 73 78  1  0
 74 70  1  0
 74 78  1  0
 75 74  1  0
 76 77  1  0
 76 75  1  0
 77 73  1  0
 78 79  2  0
 79 80  1  0
 81 80  2  0
 82 81  1  0
 83 57  1  0
 83 88  1  0
 83 84  1  0
 84 87  1  1
 84 85  1  0
 86 84  1  0
 88 91  1  0
 89 93  1  0
 89 88  1  0
 90 89  2  0
 93 92  1  0
 95 93  1  0
 95 96  1  0
 95 94  1  0
M  ISO  4  15 100  23 100  55 101  56 101
M  END
>  <TORSDO>  (11) 
F 20

>  <SCORE>  (11) 
-14.552

>  <name>  (11) 
11

>  <ligand_id>  (11) 
11

>  <original_smiles>  (11) 
[H]c1c([H])c([H])c2c(c1[H])C([H])([H])C([H])([H])C([H])([H])C2([H])N([H])C(=O)C1([H])N(C(=O)C([H])(N([H])C(=O)C([H])(N([H])C([H])([H])[H])C([H])([H])[H])C(C([H])([H])[H])(C([H])([H])[H])C([H])([H])[H])C([H])([H])c2c([H])c(OC([H])(C([H])([H])[H])C([H])([H])C(=O)N([H])c3nsc(C([H])([H])N([H])C(=O)N4C([H])([H])C([H])([H])C([H])([H])C([H])(n5nc(-c6c([H])c([H])c(Oc7c([H])c([H])c(F)c([H])c7F)c([H])c6[H])c(C(=O)N([H])[H])c5N([H])[H])C4([H])[H])c3C(F)(F)F)c([H])c([H])c2C1([H])[H]

>  <smiles>  (11) 
[H]c1c([H])c([H])c2c(c1[H])C([H])([H])C([H])([H])C([H])([H])C2([H])N([H])C(=O)C1([H])N(C(=O)C([H])(N([H])C(=O)C([H])(N([H])C([H])([H])[H])C([H])([H])[H])C(C([H])([H])[H])(C([H])([H])[H])C([H])([H])[H])C([H])([H])c2c([H])c(OC([H])(C([H])([H])[H])C([H])([H])C(=O)N([H])c3nsc(C([H])([H])N([H])C(=O)N4C([H])([H])C([H])([H])C([H])([H])C([H])(n5nc(-c6c([H])c([H])c(Oc7c([H])c([H])c(F)c([H])c7F)c([H])c6[H])c(C(=O)N([H])[H])c5N([H])[H])C4([H])[H])c3C(F)(F)F)c([H])c([H])c2C1([H])[H]

$$$$
12:0:0
     RDKit          3D

 92100  0  0  1  0  0  0  0  0999 V2000
  -29.5930  -23.4600   18.6850 C   0  0  0  0  0  1  0  0  0  0  0  0
  -28.5470  -23.1920   19.7740 C   0  0  0  0  0  3  0  0  0  0  0  0
  -28.7820  -21.7650   20.4690 N   0  0  0  0  0  0  0  0  0  0  0  0
  -28.1730  -21.6670   21.2750 H   0  0  0  0  0  0  0  0  0  0  0  0
  -30.5330  -15.1930   20.5140 C   0  0  0  0  0  0  0  0  0  0  0  0
  -30.5270  -12.7850   19.6680 C   0  0  0  0  0  2  0  0  0  0  0  0
  -29.6620  -12.6600   18.3920 C   0  0  0  0  0  2  0  0  0  0  0  0
  -28.1820  -12.4380   18.7550 C   0  0  0  0  0  2  0  0  0  0  0  0
  -27.7020  -13.3790   19.8900 C   0  0  0  0  0  3  0  0  0  0  0  0
  -28.6990  -13.4630   21.0650 C   0  0  0  0  0  2  0  0  0  0  0  0
  -29.9780  -13.9030   20.4990 N   0  0  0  0  0  0  0  0  0  0  0  0
  -31.7450  -15.2520   20.2720 O   0  0  0  0  0  0  0  0  0  0  0  0
  -29.4130  -20.3930   20.1250 C   0  0  0  0  0  0  0  0  0  0  0  0
  -30.4600  -20.1420   19.2470 C   0  0  0  0  0  0  0  0  0  0  0  0
  -29.8840  -17.8920   20.2960 C   0  0  0  0  0  0  0  0  0  0  0  0
  -29.1230  -19.0320   20.6940 N   0  0  0  0  0  0  0  0  0  0  0  0
  -29.7230  -16.3800   20.6520 N   0  0  0  0  0  0  0  0  0  0  0  0
  -31.0890  -21.0960   18.5190 F   0  0  0  0  0  0  0  0  0  0  0  0
  -31.0770  -18.4730   19.1350 S   0  0  0  0  0  0  0  0  0  0  0  0
  -28.7910  -16.1620   20.9690 H   0  0  0  0  0  0  0  0  0  0  0  0
  -25.2900  -13.9360   20.5070 C   0  0  0  0  0  0  0  0  0  0  0  0
  -24.2170  -13.1570   20.8420 C   0  0  0  0  0  0  0  0  0  0  0  0
  -24.6970  -11.8110   20.8600 C   0  0  0  0  0  0  0  0  0  0  0  0
  -26.3480  -13.0640   20.3300 N   0  0  0  0  0  0  0  0  0  0  0  0
  -26.0010  -11.7830   20.6130 N   0  0  0  0  0  0  0  0  0  0  0  0
  -23.9720  -10.5450   21.0390 C   0  0  0  0  0  0  0  0  0  0  0  0
  -24.3660   -9.5970   22.0090 C   0  0  0  0  0  3  0  0  0  0  0  0
  -23.6380   -8.3980   22.1760 C   0  0  0  0  0  3  0  0  0  0  0  0
  -22.5030   -8.1380   21.3700 C   0  0  0  0  0  0  0  0  0  0  0  0
  -22.1300   -9.0740   20.3890 C   0  0  0  0  0  3  0  0  0  0  0  0
  -22.8590  -10.2640   20.2220 C   0  0  0  0  0  3  0  0  0  0  0  0
  -21.7530   -6.9890   21.4450 O   0  0  0  0  0  0  0  0  0  0  0  0
  -21.6560   -6.2670   22.6070 C   0  0  0  0  0  0  0  0  0  0  0  0
  -21.1660   -6.8400   23.8020 C   0  0  0  0  0  3  0  0  0  0  0  0
  -21.0180   -6.0430   24.9530 C   0  0  0  0  0  3  0  0  0  0  0  0
  -21.3480   -4.6750   24.9140 C   0  0  0  0  0  0  0  0  0  0  0  0
  -21.8290   -4.1030   23.7230 C   0  0  0  0  0  3  0  0  0  0  0  0
  -21.9790   -4.8960   22.5730 C   0  0  0  0  0  0  0  0  0  0  0  0
  -22.4240   -4.3330   21.4230 F   0  0  0  0  0  0  0  0  0  0  0  0
  -21.1980   -3.9090   26.0190 F   0  0  0  0  0  0  0  0  0  0  0  0
  -22.8030  -13.6260   21.0320 C   0  0  0  0  0  0  0  0  0  0  0  0
  -22.0380  -12.9360   21.8700 N   0  0  0  0  0  0  0  0  0  0  0  0
  -22.3860  -14.6390   20.4730 O   0  0  0  0  0  0  0  0  0  0  0  0
  -22.3890  -12.1160   22.3440 H   0  0  0  0  0  0  0  0  0  0  0  0
  -21.0850  -13.2290   22.0390 H   0  0  0  0  0  0  0  0  0  0  0  0
  -25.4460  -15.3050   20.3100 N   0  0  0  0  0  0  0  0  0  0  0  0
  -24.6660  -15.9500   20.3640 H   0  0  0  0  0  0  0  0  0  0  0  0
  -26.2920  -15.7420   19.9720 H   0  0  0  0  0  0  0  0  0  0  0  0
  -28.2860  -24.6830   20.6080 C   0  0  0  0  0  3  0  0  0  0  0  0
  -27.6130  -25.1940   23.0400 C   0  0  0  0  0  1  0  0  0  0  0  0
  -27.2160  -24.5200   21.7130 C   0  0  0  0  0  2  0  0  0  0  0  0
  -28.2870  -26.1920   20.0950 O   0  0  0  0  0  0  0  0  0  0  0  0
  -24.6260  -31.8910   23.1590 C   0  0  0  0  0  0  0  0  0  0  0  0
  -27.2100  -27.1680   20.1060 C   0  0  0  0  0  0  0  0  0  0  0  0
  -23.4290  -30.5020   21.5110 C   0  0  0  0  0  3  0  0  0  0  0  0
  -24.8820  -28.9360   20.0740 C   0  0  0  0  0  0  0  0  0  0  0  0
  -25.9830  -30.7730   21.3410 C   0  0  0  0  0  2  0  0  0  0  0  0
  -26.0630  -29.3770   20.6830 C   0  0  0  0  0  0  0  0  0  0  0  0
  -27.2290  -28.5140   20.6740 C   0  0  0  0  0  3  0  0  0  0  0  0
  -26.0020  -26.8340   19.4560 C   0  0  0  0  0  3  0  0  0  0  0  0
  -24.8680  -27.6790   19.4460 C   0  0  0  0  0  3  0  0  0  0  0  0
  -23.6520  -29.8300   20.1290 C   0  0  0  0  0  2  0  0  0  0  0  0
  -24.7000  -31.0800   22.0590 N   0  0  0  0  0  0  0  0  0  0  0  0
  -23.5420  -32.1640   23.6960 O   0  0  0  0  0  0  0  0  0  0  0  0
  -22.7580  -29.4900   22.4710 C   0  0  0  0  0  0  0  0  0  0  0  0
  -21.4270  -29.3210   22.3560 N   0  0  0  0  0  0  0  0  0  0  0  0
  -23.4350  -28.8500   23.2800 O   0  0  0  0  0  0  0  0  0  0  0  0
  -20.9350  -29.8900   21.6810 H   0  0  0  0  0  0  0  0  0  0  0  0
  -18.0510  -28.1180   22.8800 C   0  0  0  0  0  0  0  0  0  0  0  0
  -20.6130  -28.3760   23.1240 C   0  0  0  0  0  3  0  0  0  0  0  0
  -20.7070  -26.9510   22.5320 C   0  0  0  0  0  2  0  0  0  0  0  0
  -19.5960  -26.6440   21.5230 C   0  0  0  0  0  2  0  0  0  0  0  0
  -18.2210  -26.7790   22.1850 C   0  0  0  0  0  2  0  0  0  0  0  0
  -19.1760  -28.8760   23.3080 C   0  0  0  0  0  0  0  0  0  0  0  0
  -18.9640  -30.1290   23.9230 C   0  0  0  0  0  3  0  0  0  0  0  0
  -17.6620  -30.6260   24.1160 C   0  0  0  0  0  3  0  0  0  0  0  0
  -16.5530  -29.8680   23.7040 C   0  0  0  0  0  3  0  0  0  0  0  0
  -16.7480  -28.6170   23.0910 C   0  0  0  0  0  3  0  0  0  0  0  0
  -25.9030  -32.5300   23.7900 C   0  0  0  0  0  3  0  0  0  0  0  0
  -26.4270  -31.7470   25.0580 C   0  0  1  0  0  0  0  0  0  0  0  0
  -25.3390  -31.4960   26.1290 C   0  0  0  0  0  1  0  0  0  0  0  0
  -27.0200  -30.3770   24.6550 C   0  0  0  0  0  1  0  0  0  0  0  0
  -27.5780  -32.5410   25.7230 C   0  0  0  0  0  1  0  0  0  0  0  0
  -25.5790  -33.9200   24.1490 N   0  0  0  0  0  0  0  0  0  0  0  0
  -25.9120  -34.9950   23.4220 C   0  0  0  0  0  0  0  0  0  0  0  0
  -26.5870  -34.9210   22.3930 O   0  0  0  0  0  0  0  0  0  0  0  0
  -24.9760  -34.0510   24.9480 H   0  0  0  0  0  0  0  0  0  0  0  0
  -24.1880  -36.8040   23.0990 C   0  0  0  0  0  1  0  0  0  0  0  0
  -25.4180  -36.3700   23.9130 C   0  0  0  0  0  3  0  0  0  0  0  0
  -27.5390  -37.2390   24.7960 C   0  0  0  0  0  1  0  0  0  0  0  0
  -26.4490  -37.4290   23.8430 N   0  0  0  0  0  0  0  0  0  0  0  0
  -26.0390  -38.3440   24.0120 H   0  0  0  0  0  0  0  0  0  0  0  0
  2  1  1  0
  2  3  1  0
  2 49  1  0
  3  4  1  0
  5 17  1  0
  6 11  1  0
  7  8  1  0
  7  6  1  0
  9  8  1  0
  9 24  1  0
  9 10  1  0
 11  5  1  0
 11 10  1  0
 12  5  2  0
 13  3  1  0
 13 16  1  0
 14 13  2  0
 15 17  1  0
 15 16  2  0
 17 20  1  0
 18 14  1  0
 19 14  1  0
 19 15  1  0
 21 22  2  0
 22 23  1  0
 22 41  1  0
 23 26  1  0
 24 21  1  0
 24 25  1  0
 25 23  2  0
 26 27  1  0
 27 28  2  0
 29 32  1  0
 29 28  1  0
 30 29  2  0
 31 30  1  0
 31 26  2  0
 32 33  1  0
 33 34  1  0
 34 35  2  0
 36 35  1  0
 36 40  1  0
 37 36  2  0
 38 33  2  0
 38 37  1  0
 39 38  1  0
 41 42  1  0
 42 45  1  0
 42 44  1  0
 43 41  2  0
 46 47  1  0
 46 21  1  0
 48 46  1  0
 49 51  1  0
 51 50  1  0
 52 54  1  0
 52 49  1  0
 53 64  2  0
 54 59  1  0
 55 63  1  0
 55 65  1  0
 56 62  1  0
 56 58  1  0
 57 63  1  0
 58 57  1  0
 59 58  2  0
 60 54  2  0
 61 60  1  0
 61 56  2  0
 62 55  1  0
 63 53  1  0
 65 67  2  0
 66 65  1  0
 68 66  1  0
 69 78  2  0
 69 74  1  0
 70 66  1  0
 70 74  1  0
 71 70  1  0
 72 73  1  0
 72 71  1  0
 73 69  1  0
 74 75  2  0
 75 76  1  0
 77 76  2  0
 78 77  1  0
 79 53  1  0
 79 84  1  0
 79 80  1  0
 80 83  1  1
 80 81  1  0
 82 80  1  0
 84 87  1  0
 85 89  1  0
 85 84  1  0
 86 85  2  0
 89 88  1  0
 91 89  1  0
 91 92  1  0
 91 90  1  0
M  ISO  4   5 100  17 100  49 101  52 101
M  END
>  <TORSDO>  (12) 
F 19

>  <SCORE>  (12) 
-14.348

>  <name>  (12) 
12

>  <ligand_id>  (12) 
12

>  <original_smiles>  (12) 
[H]c1c([H])c([H])c2c(c1[H])C([H])([H])C([H])([H])C([H])([H])C2([H])N([H])C(=O)C1([H])N(C(=O)C([H])(N([H])C(=O)C([H])(N([H])C([H])([H])[H])C([H])([H])[H])C(C([H])([H])[H])(C([H])([H])[H])C([H])([H])[H])C([H])([H])c2c([H])c(OC([H])(C([H])([H])C([H])([H])[H])C([H])(N([H])c3nc(N([H])C(=O)N4C([H])([H])C([H])([H])C([H])([H])C([H])(n5nc(-c6c([H])c([H])c(Oc7c([H])c([H])c(F)c([H])c7F)c([H])c6[H])c(C(=O)N([H])[H])c5N([H])[H])C4([H])[H])sc3F)C([H])([H])[H])c([H])c([H])c2C1([H])[H]

>  <smiles>  (12) 
[H]c1c([H])c([H])c2c(c1[H])C([H])([H])C([H])([H])C([H])([H])C2([H])N([H])C(=O)C1([H])N(C(=O)C([H])(N([H])C(=O)C([H])(N([H])C([H])([H])[H])C([H])([H])[H])C(C([H])([H])[H])(C([H])([H])[H])C([H])([H])[H])C([H])([H])c2c([H])c(OC([H])(C([H])([H])C([H])([H])[H])C([H])(N([H])c3nc(N([H])C(=O)N4C([H])([H])C([H])([H])C([H])([H])C([H])(n5nc(-c6c([H])c([H])c(Oc7c([H])c([H])c(F)c([H])c7F)c([H])c6[H])c(C(=O)N([H])[H])c5N([H])[H])C4([H])[H])sc3F)C([H])([H])[H])c([H])c([H])c2C1([H])[H]

$$$$
13:0:0
     RDKit          3D

 96 99  0  0  1  0  0  0  0  0999 V2000
  -29.6430  -15.7810   18.4520 C   0  0  0  0  0  1  0  0  0  0  0  0
  -29.4840  -18.0280   17.7630 C   0  0  0  0  0  2  0  0  0  0  0  0
  -29.2450  -17.9970   16.5550 O   0  0  0  0  0  0  0  0  0  0  0  0
  -29.4930  -20.1680   18.2410 C   0  0  0  0  0 15  0  0  0  0  0  0
  -28.7940  -22.3780   17.9910 C   0  0  0  0  0 15  0  0  0  0  0  0
  -28.7780  -24.4250   18.3870 O   0  0  0  0  0  1  0  0  0  0  0  0
  -25.0330  -30.8910   22.2490 C   0  0  0  0  0  0  0  0  0  0  0  0
  -27.8550  -25.8710   18.5860 C   0  0  0  0  0  0  0  0  0  0  0  0
  -23.9740  -29.5590   20.4940 C   0  0  0  0  0  3  0  0  0  0  0  0
  -25.5200  -28.0980   18.8970 C   0  0  0  0  0  0  0  0  0  0  0  0
  -26.5660  -29.7420   20.4130 C   0  0  0  0  0  2  0  0  0  0  0  0
  -26.7200  -28.3450   19.5700 C   0  0  0  0  0  0  0  0  0  0  0  0
  -27.8450  -27.2750   19.3780 C   0  0  0  0  0  3  0  0  0  0  0  0
  -26.6020  -26.0070   17.9060 C   0  0  0  0  0  3  0  0  0  0  0  0
  -25.5330  -26.9740   18.0490 C   0  0  0  0  0  3  0  0  0  0  0  0
  -24.2710  -29.0140   19.0610 C   0  0  0  0  0  2  0  0  0  0  0  0
  -25.2240  -30.1100   21.1080 N   0  0  0  0  0  0  0  0  0  0  0  0
  -23.9080  -31.0620   22.7590 O   0  0  0  0  0  0  0  0  0  0  0  0
  -23.3120  -28.4600   21.3750 C   0  0  0  0  0  0  0  0  0  0  0  0
  -21.9760  -28.2880   21.3120 N   0  0  0  0  0  0  0  0  0  0  0  0
  -24.0230  -27.7590   22.0970 O   0  0  0  0  0  0  0  0  0  0  0  0
  -21.4410  -28.9100   20.7230 H   0  0  0  0  0  0  0  0  0  0  0  0
  -18.6550  -26.9360   21.9710 C   0  0  0  0  0  0  0  0  0  0  0  0
  -21.2280  -27.2190   21.9930 C   0  0  0  0  0  3  0  0  0  0  0  0
  -21.2690  -25.9100   21.1710 C   0  0  0  0  0  2  0  0  0  0  0  0
  -20.0650  -25.7480   20.2370 C   0  0  0  0  0  2  0  0  0  0  0  0
  -18.7610  -25.7400   21.0380 C   0  0  0  0  0  2  0  0  0  0  0  0
  -19.8110  -27.6420   22.4040 C   0  0  0  0  0  0  0  0  0  0  0  0
  -19.6510  -28.7590   23.2520 C   0  0  0  0  0  3  0  0  0  0  0  0
  -18.3690  -29.1790   23.6560 C   0  0  0  0  0  3  0  0  0  0  0  0
  -17.2300  -28.4740   23.2300 C   0  0  0  0  0  3  0  0  0  0  0  0
  -17.3750  -27.3500   22.3970 C   0  0  0  0  0  3  0  0  0  0  0  0
  -26.2050  -31.6180   22.9790 C   0  0  0  0  0  3  0  0  0  0  0  0
  -26.8710  -30.7290   24.1030 C   0  0  1  0  0  0  0  0  0  0  0  0
  -25.8690  -30.1640   25.1390 C   0  0  0  0  0  1  0  0  0  0  0  0
  -27.6250  -29.5310   23.4890 C   0  0  0  0  0  1  0  0  0  0  0  0
  -27.9220  -31.5610   24.8750 C   0  0  0  0  0  1  0  0  0  0  0  0
  -25.6890  -32.8650   23.6000 N   0  0  0  0  0  0  0  0  0  0  0  0
  -25.9270  -34.1140   23.1750 C   0  0  0  0  0  0  0  0  0  0  0  0
  -26.6470  -34.3510   22.2030 O   0  0  0  0  0  0  0  0  0  0  0  0
  -25.0470  -32.7430   24.3690 H   0  0  0  0  0  0  0  0  0  0  0  0
  -24.0390  -35.7940   23.1720 C   0  0  0  0  0  1  0  0  0  0  0  0
  -25.2710  -35.2880   23.9410 C   0  0  0  0  0  3  0  0  0  0  0  0
  -27.2370  -36.1250   25.1600 C   0  0  0  0  0  1  0  0  0  0  0  0
  -26.1880  -36.4250   24.1880 N   0  0  0  0  0  0  0  0  0  0  0  0
  -25.6740  -37.2380   24.5160 H   0  0  0  0  0  0  0  0  0  0  0  0
  -30.3900  -11.8720   16.6410 C   0  0  0  0  0  1  0  0  0  0  0  0
  -29.9950  -12.6700   18.0120 C   0  0  0  0  0  2  0  0  0  0  0  0
  -29.8930  -10.3350   19.3750 C   0  0  0  0  0  1  0  0  0  0  0  0
  -30.7580  -11.5410   18.9440 C   0  0  0  0  0  2  0  0  0  0  0  0
  -28.9240  -16.2930   19.6720 N   0  0  0  0  0  0  0  0  0  0  0  0
  -27.9520  -16.0060   19.8390 H   0  0  0  0  0  0  0  0  0  0  0  0
  -32.5270  -14.7700   19.9910 C   0  0  0  0  0  0  0  0  0  0  0  0
  -31.6130  -14.4740   17.7150 C   0  0  0  0  0  2  0  0  0  0  0  0
  -30.0390  -14.3120   16.6200 C   0  0  0  0  0  3  0  0  0  0  0  0
  -28.4170  -13.8380   17.5260 C   0  0  0  0  0  3  0  0  0  0  0  0
  -28.4920  -13.6390   19.3670 C   0  0  0  0  0  0  0  0  0  0  0  0
  -29.9990  -13.9240   20.2840 C   0  0  0  0  0  3  0  0  0  0  0  0
  -31.4050  -14.3810   19.4400 N   0  0  0  0  0  0  0  0  0  0  0  0
  -33.5430  -14.7430   19.3030 O   0  0  0  0  0  0  0  0  0  0  0  0
  -29.6110  -16.8980   20.7440 C   0  0  0  0  0  3  0  0  0  0  0  0
  -29.2510  -16.8940   22.0710 C   0  0  0  0  0  3  0  0  0  0  0  0
  -31.5460  -16.3850   21.5680 C   0  0  0  0  0  3  0  0  0  0  0  0
  -30.9730  -17.1230   20.6220 N   0  0  0  0  0  2  0  0  0  0  0  0
  -32.4800  -15.3710   21.2060 N   0  0  0  0  0  0  0  0  0  0  0  0
  -27.9840  -16.7160   22.5210 F   0  0  0  0  0  0  0  0  0  0  0  0
  -30.6190  -16.4460   23.0720 S   0  0  0  0  0  0  0  0  0  0  0  0
  -33.3470  -15.3980   21.7190 H   0  0  0  0  0  0  0  0  0  0  0  0
  -26.2510  -14.0540   20.1640 C   0  0  0  0  0  0  0  0  0  0  0  0
  -25.2680  -13.2750   20.6740 C   0  0  0  0  0  0  0  0  0  0  0  0
  -25.7240  -11.9210   20.6560 C   0  0  0  0  0  0  0  0  0  0  0  0
  -27.2650  -13.2070   19.9380 N   0  0  0  0  0  0  0  0  0  0  0  0
  -26.9480  -11.8860   20.2000 N   0  0  0  0  0  0  0  0  0  0  0  0
  -25.0480  -10.6640   20.9770 C   0  0  0  0  0  0  0  0  0  0  0  0
  -25.2590   -9.9780   22.1950 C   0  0  0  0  0  3  0  0  0  0  0  0
  -24.5420   -8.7960   22.4780 C   0  0  0  0  0  3  0  0  0  0  0  0
  -23.6020   -8.2980   21.5420 C   0  0  0  0  0  0  0  0  0  0  0  0
  -23.4310   -8.9660   20.3170 C   0  0  0  0  0  3  0  0  0  0  0  0
  -24.1510  -10.1370   20.0350 C   0  0  0  0  0  3  0  0  0  0  0  0
  -22.8600   -7.1590   21.7220 O   0  0  0  0  0  0  0  0  0  0  0  0
  -22.1500   -6.9370   22.8740 C   0  0  0  0  0  0  0  0  0  0  0  0
  -21.0850   -7.7780   23.2690 C   0  0  0  0  0  3  0  0  0  0  0  0
  -20.3390   -7.4710   24.4230 C   0  0  0  0  0  3  0  0  0  0  0  0
  -20.6470   -6.3230   25.1790 C   0  0  0  0  0  0  0  0  0  0  0  0
  -21.7010   -5.4810   24.7820 C   0  0  0  0  0  3  0  0  0  0  0  0
  -22.4480   -5.7870   23.6320 C   0  0  0  0  0  0  0  0  0  0  0  0
  -23.4490   -4.9620   23.2410 F   0  0  0  0  0  0  0  0  0  0  0  0
  -19.9270   -6.0250   26.2850 F   0  0  0  0  0  0  0  0  0  0  0  0
  -23.9360  -13.7850   21.0650 C   0  0  0  0  0  0  0  0  0  0  0  0
  -23.3140  -13.1480   22.0440 N   0  0  0  0  0  0  0  0  0  0  0  0
  -23.4810  -14.8010   20.5440 O   0  0  0  0  0  0  0  0  0  0  0  0
  -23.7210  -12.3330   22.4770 H   0  0  0  0  0  0  0  0  0  0  0  0
  -22.4120  -13.4720   22.3610 H   0  0  0  0  0  0  0  0  0  0  0  0
  -26.3870  -15.3980   19.8430 N   0  0  0  0  0  0  0  0  0  0  0  0
  -26.8840  -15.5520   18.9720 H   0  0  0  0  0  0  0  0  0  0  0  0
  -25.5020  -15.8960   19.8400 H   0  0  0  0  0  0  0  0  0  0  0  0
  1 51  1  0
  3  2  2  0
  6  8  1  0
  7 18  2  0
  8 13  1  0
  9 17  1  0
  9 19  1  0
 10 16  1  0
 10 12  1  0
 11 17  1  0
 12 11  1  0
 13 12  2  0
 14 15  1  0
 14  8  2  0
 15 10  2  0
 16  9  1  0
 17  7  1  0
 19 21  2  0
 20 19  1  0
 22 20  1  0
 23 32  2  0
 23 28  1  0
 24 20  1  0
 24 28  1  0
 25 24  1  0
 26 27  1  0
 26 25  1  0
 27 23  1  0
 28 29  2  0
 29 30  1  0
 31 30  2  0
 32 31  1  0
 33  7  1  0
 33 38  1  0
 33 34  1  0
 34 37  1  1
 34 35  1  0
 36 34  1  0
 38 41  1  0
 39 38  1  0
 39 43  1  0
 40 39  2  0
 43 42  1  0
 43 45  1  0
 45 46  1  0
 45 44  1  0
 47 48  1  0
 48 50  1  0
 50 49  1  0
 51 52  1  0
 53 65  1  0
 54 59  1  0
 55 56  2  0
 55 54  1  0
 56 57  1  0
 57 72  1  0
 57 58  2  0
 59 53  1  0
 59 58  1  0
 60 53  2  0
 61 51  1  0
 61 62  1  0
 62 66  1  0
 62 67  1  0
 63 65  1  0
 63 67  1  0
 64 61  1  0
 64 63  1  0
 65 68  1  0
 69 70  2  0
 70 89  1  0
 71 70  1  0
 71 74  1  0
 72 69  1  0
 72 73  1  0
 73 71  2  0
 74 75  1  0
 75 76  2  0
 77 80  1  0
 77 76  1  0
 78 77  2  0
 79 78  1  0
 79 74  2  0
 80 81  1  0
 81 82  2  0
 81 86  1  0
 82 83  1  0
 83 84  2  0
 84 88  1  0
 85 84  1  0
 86 85  2  0
 87 86  1  0
 89 90  1  0
 90 93  1  0
 90 92  1  0
 91 89  2  0
 94 69  1  0
 95 94  1  0
 96 94  1  0
M  ISO  4   5 101   6 101  53 100  65 100
M  END
>  <TORSDO>  (13) 
F 22

>  <SCORE>  (13) 
6.833

>  <name>  (13) 
13

>  <ligand_id>  (13) 
13

>  <original_smiles>  (13) 
[H]c1c([H])c([H])c2c(c1[H])C([H])([H])C([H])([H])C([H])([H])C2([H])N([H])C(=O)C1([H])N(C(=O)C([H])(N([H])C(=O)C([H])(N([H])C([H])([H])[H])C([H])([H])[H])C(C([H])([H])[H])(C([H])([H])[H])C([H])([H])[H])C([H])([H])c2c([H])c(OC([H])([H])C([H])([H])C(=O)C([H])(N([H])c3nc(N([H])C(=O)N4C([H])([H])C([H])([H])C([H])([H])C([H])(n5nc(-c6c([H])c([H])c(Oc7c([H])c([H])c(F)c([H])c7F)c([H])c6[H])c(C(=O)N([H])[H])c5N([H])[H])C4([H])[H])sc3F)C([H])(C([H])([H])[H])C([H])([H])C([H])([H])[H])c([H])c([H])c2C1([H])[H]

>  <smiles>  (13) 
[H]c1c([H])c([H])c2c(c1[H])C([H])([H])C([H])([H])C([H])([H])C2([H])N([H])C(=O)C1([H])N(C(=O)C([H])(N([H])C(=O)C([H])(N([H])C([H])([H])[H])C([H])([H])[H])C(C([H])([H])[H])(C([H])([H])[H])C([H])([H])[H])C([H])([H])c2c([H])c(OC([H])([H])C([H])([H])C(=O)C([H])(N([H])c3nc(N([H])C(=O)N4C([H])([H])C([H])([H])C([H])([H])C([H])(n5nc(-c6c([H])c([H])c(Oc7c([H])c([H])c(F)c([H])c7F)c([H])c6[H])c(C(=O)N([H])[H])c5N([H])[H])C4([H])[H])sc3F)C([H])(C([H])([H])[H])C([H])([H])C([H])([H])[H])c([H])c([H])c2C1([H])[H]

$$$$
14:0:0
     RDKit          3D

 91 99  0  0  1  0  0  0  0  0999 V2000
  -29.1360  -22.3670   19.8410 C   0  0  0  0  0  0  0  0  0  0  0  0
  -29.3960  -21.2510   20.6160 N   0  0  0  0  0  0  0  0  0  0  0  0
  -28.8430  -22.2390   18.6510 O   0  0  0  0  0  0  0  0  0  0  0  0
  -29.5030  -21.4560   21.6010 H   0  0  0  0  0  0  0  0  0  0  0  0
  -30.6390  -14.7850   20.0270 C   0  0  0  0  0  0  0  0  0  0  0  0
  -30.4070  -12.5270   18.9850 C   0  0  0  0  0  2  0  0  0  0  0  0
  -29.3970  -12.6330   17.8170 C   0  0  0  0  0  2  0  0  0  0  0  0
  -27.9530  -12.4550   18.3250 C   0  0  0  0  0  2  0  0  0  0  0  0
  -27.6520  -13.3110   19.5830 C   0  0  0  0  0  3  0  0  0  0  0  0
  -28.7700  -13.1770   20.6410 C   0  0  0  0  0  2  0  0  0  0  0  0
  -30.0400  -13.5460   19.9960 N   0  0  0  0  0  0  0  0  0  0  0  0
  -31.7700  -14.9350   19.5530 O   0  0  0  0  0  0  0  0  0  0  0  0
  -29.9650  -19.3070   19.0820 C   0  0  0  0  0  3  0  0  0  0  0  0
  -29.5850  -19.8990   20.2810 C   0  0  0  0  0  0  0  0  0  0  0  0
  -29.9250  -17.3020   20.2790 C   0  0  0  0  0  0  0  0  0  0  0  0
  -30.1600  -17.8900   19.0920 N   0  0  0  0  0  0  0  0  0  0  0  0
  -29.8910  -15.8420   20.5090 N   0  0  0  0  0  0  0  0  0  0  0  0
  -29.4350  -18.5650   21.4640 S   0  0  0  0  0  0  0  0  0  0  0  0
  -29.1000  -15.5430   21.0590 H   0  0  0  0  0  0  0  0  0  0  0  0
  -25.3120  -13.8930   20.4650 C   0  0  0  0  0  0  0  0  0  0  0  0
  -24.2660  -13.1110   20.8740 C   0  0  0  0  0  0  0  0  0  0  0  0
  -24.7190  -11.7600   20.7760 C   0  0  0  0  0  0  0  0  0  0  0  0
  -26.3350  -13.0160   20.1390 N   0  0  0  0  0  0  0  0  0  0  0  0
  -25.9890  -11.7260   20.3890 N   0  0  0  0  0  0  0  0  0  0  0  0
  -23.9990  -10.4950   20.9720 C   0  0  0  0  0  0  0  0  0  0  0  0
  -24.4500   -9.5220   21.8920 C   0  0  0  0  0  3  0  0  0  0  0  0
  -23.7290   -8.3230   22.0760 C   0  0  0  0  0  3  0  0  0  0  0  0
  -22.5440   -8.0870   21.3400 C   0  0  0  0  0  0  0  0  0  0  0  0
  -22.1110   -9.0480   20.4100 C   0  0  0  0  0  3  0  0  0  0  0  0
  -22.8330  -10.2390   20.2240 C   0  0  0  0  0  3  0  0  0  0  0  0
  -21.7940   -6.9400   21.4340 O   0  0  0  0  0  0  0  0  0  0  0  0
  -21.7180   -6.2220   22.6010 C   0  0  0  0  0  0  0  0  0  0  0  0
  -21.2260   -6.7920   23.7950 C   0  0  0  0  0  3  0  0  0  0  0  0
  -21.1010   -5.9990   24.9530 C   0  0  0  0  0  3  0  0  0  0  0  0
  -21.4580   -4.6380   24.9170 C   0  0  0  0  0  0  0  0  0  0  0  0
  -21.9440   -4.0680   23.7270 C   0  0  0  0  0  3  0  0  0  0  0  0
  -22.0710   -4.8580   22.5720 C   0  0  0  0  0  0  0  0  0  0  0  0
  -22.5200   -4.2990   21.4210 F   0  0  0  0  0  0  0  0  0  0  0  0
  -21.3300   -3.8740   26.0280 F   0  0  0  0  0  0  0  0  0  0  0  0
  -22.8900  -13.5850   21.2440 C   0  0  0  0  0  0  0  0  0  0  0  0
  -22.2130  -12.8710   22.1360 N   0  0  0  0  0  0  0  0  0  0  0  0
  -22.4250  -14.6230   20.7740 O   0  0  0  0  0  0  0  0  0  0  0  0
  -22.6040  -12.0320   22.5370 H   0  0  0  0  0  0  0  0  0  0  0  0
  -21.2930  -13.1710   22.4240 H   0  0  0  0  0  0  0  0  0  0  0  0
  -25.4740  -15.2670   20.3180 N   0  0  0  0  0  0  0  0  0  0  0  0
  -24.7150  -15.9200   20.4850 H   0  0  0  0  0  0  0  0  0  0  0  0
  -26.2910  -15.7070   19.9130 H   0  0  0  0  0  0  0  0  0  0  0  0
  -30.6720  -24.3490   20.2370 C   0  0  0  0  0  1  0  0  0  0  0  0
  -29.2280  -23.8560   20.4420 C   0  0  0  0  0  3  0  0  0  0  0  0
  -28.2110  -24.9980   19.9110 C   0  0  0  0  0  2  0  0  0  0  0  0
  -28.3600  -26.4420   20.3110 O   0  0  0  0  0  0  0  0  0  0  0  0
  -24.6540  -31.8950   23.3250 C   0  0  0  0  0  0  0  0  0  0  0  0
  -27.2580  -27.3260   20.2340 C   0  0  0  0  0  0  0  0  0  0  0  0
  -23.4550  -30.5240   21.6600 C   0  0  0  0  0  3  0  0  0  0  0  0
  -24.9070  -28.9810   20.2220 C   0  0  0  0  0  0  0  0  0  0  0  0
  -25.9990  -30.8200   21.5000 C   0  0  0  0  0  2  0  0  0  0  0  0
  -26.0750  -29.4450   20.8380 C   0  0  0  0  0  0  0  0  0  0  0  0
  -27.2510  -28.6290   20.8370 C   0  0  0  0  0  3  0  0  0  0  0  0
  -26.0680  -26.9350   19.5780 C   0  0  0  0  0  3  0  0  0  0  0  0
  -24.9090  -27.7340   19.5810 C   0  0  0  0  0  3  0  0  0  0  0  0
  -23.6750  -29.8640   20.2730 C   0  0  0  0  0  2  0  0  0  0  0  0
  -24.7220  -31.0960   22.2180 N   0  0  0  0  0  0  0  0  0  0  0  0
  -23.5680  -32.1730   23.8530 O   0  0  0  0  0  0  0  0  0  0  0  0
  -22.7780  -29.5010   22.6030 C   0  0  0  0  0  0  0  0  0  0  0  0
  -21.4530  -29.3290   22.4600 N   0  0  0  0  0  0  0  0  0  0  0  0
  -23.4430  -28.8650   23.4240 O   0  0  0  0  0  0  0  0  0  0  0  0
  -20.9740  -29.8930   21.7720 H   0  0  0  0  0  0  0  0  0  0  0  0
  -18.0630  -28.1510   22.9250 C   0  0  0  0  0  0  0  0  0  0  0  0
  -20.6210  -28.3870   23.2130 C   0  0  0  0  0  3  0  0  0  0  0  0
  -20.7160  -26.9630   22.6180 C   0  0  0  0  0  2  0  0  0  0  0  0
  -19.6180  -26.6630   21.5930 C   0  0  0  0  0  2  0  0  0  0  0  0
  -18.2340  -26.8090   22.2320 C   0  0  0  0  0  2  0  0  0  0  0  0
  -19.1840  -28.8980   23.3720 C   0  0  0  0  0  0  0  0  0  0  0  0
  -18.9720  -30.1530   23.9820 C   0  0  0  0  0  3  0  0  0  0  0  0
  -17.6690  -30.6620   24.1470 C   0  0  0  0  0  3  0  0  0  0  0  0
  -16.5620  -29.9110   23.7160 C   0  0  0  0  0  3  0  0  0  0  0  0
  -16.7590  -28.6560   23.1110 C   0  0  0  0  0  3  0  0  0  0  0  0
  -25.9340  -32.5130   23.9650 C   0  0  0  0  0  3  0  0  0  0  0  0
  -25.6410  -33.9180   24.2790 N   0  0  0  0  0  0  0  0  0  0  0  0
  -25.9650  -34.9570   23.4970 C   0  0  0  0  0  0  0  0  0  0  0  0
  -26.6120  -34.8340   22.4540 O   0  0  0  0  0  0  0  0  0  0  0  0
  -25.0600  -34.0900   25.0870 H   0  0  0  0  0  0  0  0  0  0  0  0
  -24.2270  -36.7480   23.1750 C   0  0  0  0  0  1  0  0  0  0  0  0
  -25.4980  -36.3570   23.9440 C   0  0  0  0  0  3  0  0  0  0  0  0
  -27.6610  -37.2610   24.6760 C   0  0  0  0  0  1  0  0  0  0  0  0
  -26.5280  -37.4050   23.7670 N   0  0  0  0  0  0  0  0  0  0  0  0
  -26.1280  -38.3300   23.9040 H   0  0  0  0  0  0  0  0  0  0  0  0
  -26.4150  -31.7460   25.2570 C   0  0  1  0  0  0  0  0  0  0  0  0
  -25.2970  -31.5320   26.3050 C   0  0  0  0  0  1  0  0  0  0  0  0
  -26.9870  -30.3570   24.8890 C   0  0  0  0  0  1  0  0  0  0  0  0
  -27.5630  -32.5290   25.9360 C   0  0  0  0  0  1  0  0  0  0  0  0
  1 49  1  0
  1  2  1  0
  2  4  1  0
  3  1  2  0
  5 17  1  0
  6 11  1  0
  7  8  1  0
  7  6  1  0
  9  8  1  0
  9 23  1  0
  9 10  1  0
 11  5  1  0
 11 10  1  0
 12  5  2  0
 13 16  1  0
 13 14  2  0
 14  2  1  0
 14 18  1  0
 15 17  1  0
 15 18  1  0
 16 15  2  0
 17 19  1  0
 20 21  2  0
 21 40  1  0
 22 21  1  0
 22 25  1  0
 23 24  1  0
 23 20  1  0
 24 22  2  0
 25 26  1  0
 26 27  2  0
 28 31  1  0
 28 27  1  0
 29 28  2  0
 30 29  1  0
 30 25  2  0
 31 32  1  0
 32 33  1  0
 33 34  2  0
 35 34  1  0
 35 39  1  0
 36 35  2  0
 37 32  2  0
 37 36  1  0
 38 37  1  0
 40 41  1  0
 41 44  1  0
 41 43  1  0
 42 40  2  0
 45 20  1  0
 45 46  1  0
 47 45  1  0
 49 48  1  0
 50 51  1  0
 50 49  1  0
 52 63  2  0
 53 51  1  0
 53 58  1  0
 54 62  1  0
 54 64  1  0
 55 61  1  0
 55 57  1  0
 56 62  1  0
 57 56  1  0
 58 57  2  0
 59 60  1  0
 59 53  2  0
 60 55  2  0
 61 54  1  0
 62 52  1  0
 64 66  2  0
 65 64  1  0
 67 65  1  0
 68 77  2  0
 68 73  1  0
 69 65  1  0
 69 73  1  0
 70 69  1  0
 71 72  1  0
 71 70  1  0
 72 68  1  0
 73 74  2  0
 74 75  1  0
 76 75  2  0
 77 76  1  0
 78 52  1  0
 78 79  1  0
 78 88  1  0
 79 82  1  0
 80 84  1  0
 80 79  1  0
 81 80  2  0
 84 83  1  0
 86 87  1  0
 86 84  1  0
 86 85  1  0
 88 91  1  1
 88 89  1  0
 90 88  1  0
M  ISO  4   5 100  17 100  50 101  51 101
M  END
>  <TORSDO>  (14) 
F 18

>  <SCORE>  (14) 
-13.940

>  <name>  (14) 
14

>  <ligand_id>  (14) 
14

>  <original_smiles>  (14) 
[H]c1nc(N([H])C(=O)N2C([H])([H])C([H])([H])C([H])([H])C([H])(n3nc(-c4c([H])c([H])c(Oc5c([H])c([H])c(F)c([H])c5F)c([H])c4[H])c(C(=O)N([H])[H])c3N([H])[H])C2([H])[H])sc1N([H])C(=O)C([H])(C([H])([H])[H])C([H])([H])Oc1c([H])c([H])c2c(c1[H])C([H])([H])N(C(=O)C([H])(N([H])C(=O)C([H])(N([H])C([H])([H])[H])C([H])([H])[H])C(C([H])([H])[H])(C([H])([H])[H])C([H])([H])[H])C([H])(C(=O)N([H])C1([H])c3c([H])c([H])c([H])c([H])c3C([H])([H])C([H])([H])C1([H])[H])C2([H])[H]

>  <smiles>  (14) 
[H]c1nc(N([H])C(=O)N2C([H])([H])C([H])([H])C([H])([H])C([H])(n3nc(-c4c([H])c([H])c(Oc5c([H])c([H])c(F)c([H])c5F)c([H])c4[H])c(C(=O)N([H])[H])c3N([H])[H])C2([H])[H])sc1N([H])C(=O)C([H])(C([H])([H])[H])C([H])([H])Oc1c([H])c([H])c2c(c1[H])C([H])([H])N(C(=O)C([H])(N([H])C(=O)C([H])(N([H])C([H])([H])[H])C([H])([H])[H])C(C([H])([H])[H])(C([H])([H])[H])C([H])([H])[H])C([H])(C(=O)N([H])C1([H])c3c([H])c([H])c([H])c([H])c3C([H])([H])C([H])([H])C1([H])[H])C2([H])[H]

$$$$
15:0:0
     RDKit          3D

 94102  0  0  1  0  0  0  0  0999 V2000
  -28.7220  -24.3870   21.2070 C   0  0  0  0  0  3  0  0  0  0  0  0
  -30.1400  -17.9310   20.9240 C   0  0  0  0  0  0  0  0  0  0  0  0
  -29.6240  -20.4400   20.8320 C   0  0  0  0  0  0  0  0  0  0  0  0
  -28.7010  -22.9190   20.5300 C   0  0  0  0  0  0  0  0  0  0  0  0
  -29.3490  -18.3130   19.8920 N   0  0  0  0  0  0  0  0  0  0  0  0
  -29.0730  -19.7230   19.8280 N   0  0  0  0  0  0  0  0  0  0  0  0
  -29.4480  -21.8920   21.0930 N   0  0  0  0  0  0  0  0  0  0  0  0
  -27.9990  -22.7320   19.5340 O   0  0  0  0  0  0  0  0  0  0  0  0
  -30.6190  -19.3790   21.8830 S   0  0  0  0  0  0  0  0  0  0  0  0
  -29.9780  -22.2000   21.8950 H   0  0  0  0  0  0  0  0  0  0  0  0
  -30.3310  -16.4670   21.4900 C   0  0  0  0  0  2  0  0  0  0  0  0
  -31.1610  -15.2890   20.7760 C   0  0  0  0  0  0  0  0  0  0  0  0
  -31.0990  -13.0580   19.6060 C   0  0  0  0  0  2  0  0  0  0  0  0
  -30.2140  -13.1500   18.3400 C   0  0  0  0  0  2  0  0  0  0  0  0
  -28.7220  -12.9670   18.6790 C   0  0  0  0  0  2  0  0  0  0  0  0
  -28.2860  -13.8230   19.8950 C   0  0  0  0  0  3  0  0  0  0  0  0
  -29.2690  -13.6320   21.0720 C   0  0  0  0  0  2  0  0  0  0  0  0
  -30.5990  -14.0410   20.5960 N   0  0  0  0  0  0  0  0  0  0  0  0
  -32.3150  -15.4900   20.3770 O   0  0  0  0  0  0  0  0  0  0  0  0
  -25.8480  -14.4420   20.4270 C   0  0  0  0  0  0  0  0  0  0  0  0
  -24.7550  -13.6810   20.7310 C   0  0  0  0  0  0  0  0  0  0  0  0
  -25.2100  -12.3250   20.7460 C   0  0  0  0  0  0  0  0  0  0  0  0
  -26.9040  -13.5550   20.2800 N   0  0  0  0  0  0  0  0  0  0  0  0
  -26.5190  -12.2780   20.5280 N   0  0  0  0  0  0  0  0  0  0  0  0
  -24.4670  -11.0690   20.8960 C   0  0  0  0  0  0  0  0  0  0  0  0
  -24.8090  -10.1240   21.8900 C   0  0  0  0  0  3  0  0  0  0  0  0
  -24.0680   -8.9310   22.0270 C   0  0  0  0  0  3  0  0  0  0  0  0
  -22.9700   -8.6760   21.1730 C   0  0  0  0  0  0  0  0  0  0  0  0
  -22.6490   -9.6080   20.1710 C   0  0  0  0  0  3  0  0  0  0  0  0
  -23.3900  -10.7930   20.0320 C   0  0  0  0  0  3  0  0  0  0  0  0
  -22.2100   -7.5330   21.2170 O   0  0  0  0  0  0  0  0  0  0  0  0
  -22.0090   -6.8460   22.3880 C   0  0  0  0  0  0  0  0  0  0  0  0
  -21.4180   -7.4540   23.5170 C   0  0  0  0  0  3  0  0  0  0  0  0
  -21.1680   -6.6930   24.6770 C   0  0  0  0  0  3  0  0  0  0  0  0
  -21.4990   -5.3250   24.7060 C   0  0  0  0  0  0  0  0  0  0  0  0
  -22.0820   -4.7160   23.5800 C   0  0  0  0  0  3  0  0  0  0  0  0
  -22.3330   -5.4760   22.4230 C   0  0  0  0  0  0  0  0  0  0  0  0
  -22.8760   -4.8790   21.3340 F   0  0  0  0  0  0  0  0  0  0  0  0
  -21.2510   -4.5920   25.8160 F   0  0  0  0  0  0  0  0  0  0  0  0
  -23.3440  -14.1660   20.9030 C   0  0  0  0  0  0  0  0  0  0  0  0
  -22.5580  -13.4830   21.7260 N   0  0  0  0  0  0  0  0  0  0  0  0
  -22.9470  -15.1900   20.3440 O   0  0  0  0  0  0  0  0  0  0  0  0
  -22.8860  -12.6510   22.1970 H   0  0  0  0  0  0  0  0  0  0  0  0
  -21.6140  -13.7990   21.8940 H   0  0  0  0  0  0  0  0  0  0  0  0
  -26.0390  -15.8110   20.2430 N   0  0  0  0  0  0  0  0  0  0  0  0
  -25.2770  -16.4810   20.2760 H   0  0  0  0  0  0  0  0  0  0  0  0
  -26.9170  -16.2300   19.9630 H   0  0  0  0  0  0  0  0  0  0  0  0
  -26.2680  -24.5620   22.0600 C   0  0  0  0  0  1  0  0  0  0  0  0
  -27.7540  -24.4870   22.4480 C   0  0  0  0  0  3  0  0  0  0  0  0
  -27.0380  -25.9740   24.4810 C   0  0  0  0  0  1  0  0  0  0  0  0
  -28.1420  -25.5950   23.4700 C   0  0  0  0  0  2  0  0  0  0  0  0
  -30.0050  -26.7160   21.2600 C   0  0  0  0  0  1  0  0  0  0  0  0
  -29.1080  -25.7920   20.4130 C   0  0  0  0  0  3  0  0  0  0  0  0
  -28.3570  -26.7000   19.4790 O   0  0  0  0  0  0  0  0  0  0  0  0
  -24.7910  -31.9460   23.1620 C   0  0  0  0  0  0  0  0  0  0  0  0
  -27.2690  -27.5630   19.7340 C   0  0  0  0  0  0  0  0  0  0  0  0
  -23.5210  -30.6550   21.4830 C   0  0  0  0  0  3  0  0  0  0  0  0
  -24.9160  -29.2030   19.9010 C   0  0  0  0  0  0  0  0  0  0  0  0
  -26.0530  -30.9880   21.2170 C   0  0  0  0  0  2  0  0  0  0  0  0
  -26.1110  -29.6450   20.4870 C   0  0  0  0  0  0  0  0  0  0  0  0
  -27.2940  -28.8390   20.3940 C   0  0  0  0  0  3  0  0  0  0  0  0
  -26.0570  -27.1980   19.1150 C   0  0  0  0  0  3  0  0  0  0  0  0
  -24.8870  -27.9810   19.2090 C   0  0  0  0  0  3  0  0  0  0  0  0
  -23.6850  -30.0800   20.0530 C   0  0  0  0  0  2  0  0  0  0  0  0
  -24.8090  -31.2120   22.0110 N   0  0  0  0  0  0  0  0  0  0  0  0
  -23.7290  -32.1800   23.7590 O   0  0  0  0  0  0  0  0  0  0  0  0
  -22.9080  -29.5700   22.3990 C   0  0  0  0  0  0  0  0  0  0  0  0
  -21.5830  -29.3690   22.2920 N   0  0  0  0  0  0  0  0  0  0  0  0
  -23.6200  -28.9120   23.1630 O   0  0  0  0  0  0  0  0  0  0  0  0
  -21.0720  -29.9450   21.6380 H   0  0  0  0  0  0  0  0  0  0  0  0
  -18.2460  -28.0640   22.7970 C   0  0  0  0  0  0  0  0  0  0  0  0
  -20.8040  -28.3730   23.0250 C   0  0  0  0  0  3  0  0  0  0  0  0
  -20.9330  -26.9840   22.3630 C   0  0  0  0  0  2  0  0  0  0  0  0
  -19.8140  -26.6860   21.3610 C   0  0  0  0  0  2  0  0  0  0  0  0
  -18.4420  -26.7600   22.0390 C   0  0  0  0  0  2  0  0  0  0  0  0
  -19.3550  -28.8280   23.2440 C   0  0  0  0  0  0  0  0  0  0  0  0
  -19.1210  -30.0480   23.9130 C   0  0  0  0  0  3  0  0  0  0  0  0
  -17.8090  -30.5030   24.1440 C   0  0  0  0  0  3  0  0  0  0  0  0
  -16.7150  -29.7340   23.7120 C   0  0  0  0  0  3  0  0  0  0  0  0
  -16.9340  -28.5170   23.0420 C   0  0  0  0  0  3  0  0  0  0  0  0
  -26.1000  -32.5460   23.7640 C   0  0  0  0  0  3  0  0  0  0  0  0
  -25.8020  -33.9150   24.2050 N   0  0  0  0  0  0  0  0  0  0  0  0
  -26.1000  -35.0210   23.5120 C   0  0  0  0  0  0  0  0  0  0  0  0
  -26.7260  -34.9940   22.4490 O   0  0  0  0  0  0  0  0  0  0  0  0
  -25.2570  -34.0110   25.0490 H   0  0  0  0  0  0  0  0  0  0  0  0
  -24.3550  -36.8240   23.3530 C   0  0  0  0  0  1  0  0  0  0  0  0
  -25.6280  -36.3700   24.0860 C   0  0  0  0  0  3  0  0  0  0  0  0
  -27.7890  -37.2060   24.8970 C   0  0  0  0  0  1  0  0  0  0  0  0
  -26.6530  -37.4320   24.0070 N   0  0  0  0  0  0  0  0  0  0  0  0
  -26.2500  -38.3380   24.2290 H   0  0  0  0  0  0  0  0  0  0  0  0
  -26.6720  -31.6960   24.9640 C   0  0  1  0  0  0  0  0  0  0  0  0
  -25.6210  -31.3810   26.0520 C   0  0  0  0  0  1  0  0  0  0  0  0
  -27.2420  -30.3480   24.4600 C   0  0  0  0  0  1  0  0  0  0  0  0
  -27.8490  -32.4540   25.6300 C   0  0  0  0  0  1  0  0  0  0  0  0
  1  4  1  0
  1 49  1  0
  2 11  1  0
  2  9  1  0
  3  7  1  0
  3  9  1  0
  4  7  1  0
  5  2  2  0
  6  5  1  0
  6  3  2  0
  7 10  1  0
  8  4  2  0
 12 11  1  0
 13 18  1  0
 14 15  1  0
 14 13  1  0
 16 15  1  0
 16 23  1  0
 16 17  1  0
 18 12  1  0
 18 17  1  0
 19 12  2  0
 20 21  2  0
 21 22  1  0
 21 40  1  0
 22 25  1  0
 23 20  1  0
 23 24  1  0
 24 22  2  0
 25 26  1  0
 26 27  2  0
 28 31  1  0
 28 27  1  0
 29 28  2  0
 30 29  1  0
 30 25  2  0
 31 32  1  0
 32 37  2  0
 32 33  1  0
 33 34  2  0
 34 35  1  0
 35 39  1  0
 36 35  2  0
 37 36  1  0
 38 37  1  0
 40 41  1  0
 41 44  1  0
 41 43  1  0
 42 40  2  0
 45 46  1  0
 45 20  1  0
 47 45  1  0
 49 48  1  0
 49 51  1  0
 51 50  1  0
 53  1  1  0
 53 52  1  0
 54 56  1  0
 54 53  1  0
 55 66  2  0
 56 61  1  0
 57 65  1  0
 57 67  1  0
 58 64  1  0
 58 60  1  0
 59 65  1  0
 60 59  1  0
 61 60  2  0
 62 63  1  0
 62 56  2  0
 63 58  2  0
 64 57  1  0
 65 55  1  0
 67 69  2  0
 68 67  1  0
 70 68  1  0
 71 80  2  0
 71 76  1  0
 72 68  1  0
 72 76  1  0
 73 72  1  0
 74 75  1  0
 74 73  1  0
 75 71  1  0
 76 77  2  0
 77 78  1  0
 79 78  2  0
 80 79  1  0
 81 55  1  0
 81 82  1  0
 81 91  1  0
 82 85  1  0
 83 87  1  0
 83 82  1  0
 84 83  2  0
 87 86  1  0
 89 87  1  0
 89 90  1  0
 89 88  1  0
 91 94  1  1
 91 92  1  0
 93 91  1  0
M  ISO  4  11 100  12 100  53 101  54 101
M  END
>  <TORSDO>  (15) 
F 21

>  <SCORE>  (15) 
-12.108

>  <name>  (15) 
15

>  <ligand_id>  (15) 
15

>  <original_smiles>  (15) 
[H]c1c([H])c([H])c2c(c1[H])C([H])([H])C([H])([H])C([H])([H])C2([H])N([H])C(=O)C1([H])N(C(=O)C([H])(N([H])C(=O)C([H])(N([H])C([H])([H])[H])C([H])([H])[H])C(C([H])([H])[H])(C([H])([H])[H])C([H])([H])[H])C([H])([H])c2c([H])c(OC([H])(C([H])([H])[H])C([H])(C(=O)N([H])c3nnc(C([H])([H])C(=O)N4C([H])([H])C([H])([H])C([H])([H])C([H])(n5nc(-c6c([H])c([H])c(Oc7c([H])c([H])c(F)c([H])c7F)c([H])c6[H])c(C(=O)N([H])[H])c5N([H])[H])C4([H])[H])s3)C([H])(C([H])([H])[H])C([H])([H])C([H])([H])[H])c([H])c([H])c2C1([H])[H]

>  <smiles>  (15) 
[H]c1c([H])c([H])c2c(c1[H])C([H])([H])C([H])([H])C([H])([H])C2([H])N([H])C(=O)C1([H])N(C(=O)C([H])(N([H])C(=O)C([H])(N([H])C([H])([H])[H])C([H])([H])[H])C(C([H])([H])[H])(C([H])([H])[H])C([H])([H])[H])C([H])([H])c2c([H])c(OC([H])(C([H])([H])[H])C([H])(C(=O)N([H])c3nnc(C([H])([H])C(=O)N4C([H])([H])C([H])([H])C([H])([H])C([H])(n5nc(-c6c([H])c([H])c(Oc7c([H])c([H])c(F)c([H])c7F)c([H])c6[H])c(C(=O)N([H])[H])c5N([H])[H])C4([H])[H])s3)C([H])(C([H])([H])[H])C([H])([H])C([H])([H])[H])c([H])c([H])c2C1([H])[H]

$$$$
16:0:0
     RDKit          3D

 90 97  0  0  1  0  0  0  0  0999 V2000
  -29.2560  -21.2960   20.1960 C   0  0  0  0  0  0  0  0  0  0  0  0
  -29.0470  -19.8580   20.4660 N   0  0  0  0  0  4  0  0  0  0  0  0
  -30.2750  -21.5910   19.5750 O   0  0  0  0  0  0  0  0  0  0  0  0
  -28.1570  -19.7140   20.9270 H   0  0  0  0  0  0  0  0  0  0  0  0
  -28.6310  -22.7790   22.1920 C   0  0  0  0  0  1  0  0  0  0  0  0
  -28.3240  -22.6720   20.6820 C   0  0  2  0  0  0  0  0  0  0  0  0
  -27.0580  -22.2430   20.6340 F   0  0  0  0  0  0  0  0  0  0  0  0
  -28.1990  -24.3530   20.0430 C   0  0  0  0  0  2  0  0  0  0  0  0
  -28.2380  -25.9680   20.3270 O   0  0  0  0  0  0  0  0  0  0  0  0
  -24.6150  -31.8530   23.1920 C   0  0  0  0  0  0  0  0  0  0  0  0
  -27.1960  -27.0120   20.2120 C   0  0  0  0  0  0  0  0  0  0  0  0
  -23.4280  -30.4450   21.5590 C   0  0  0  0  0  3  0  0  0  0  0  0
  -24.8850  -28.8470   20.1370 C   0  0  0  0  0  0  0  0  0  0  0  0
  -25.9870  -30.6870   21.4010 C   0  0  0  0  0  2  0  0  0  0  0  0
  -26.0650  -29.2760   20.7570 C   0  0  0  0  0  0  0  0  0  0  0  0
  -27.2150  -28.3750   20.7690 C   0  0  0  0  0  3  0  0  0  0  0  0
  -25.9890  -26.7180   19.5400 C   0  0  0  0  0  3  0  0  0  0  0  0
  -24.8670  -27.5890   19.5080 C   0  0  0  0  0  3  0  0  0  0  0  0
  -23.6570  -29.7540   20.1850 C   0  0  0  0  0  2  0  0  0  0  0  0
  -24.6990  -31.0200   22.1060 N   0  0  0  0  0  0  0  0  0  0  0  0
  -23.5250  -32.1380   23.7120 O   0  0  0  0  0  0  0  0  0  0  0  0
  -22.7440  -29.4500   22.5290 C   0  0  0  0  0  0  0  0  0  0  0  0
  -21.4140  -29.2840   22.4110 N   0  0  0  0  0  0  0  0  0  0  0  0
  -23.4150  -28.8250   23.3530 O   0  0  0  0  0  0  0  0  0  0  0  0
  -20.9230  -29.8450   21.7270 H   0  0  0  0  0  0  0  0  0  0  0  0
  -18.0330  -28.0810   22.9340 C   0  0  0  0  0  0  0  0  0  0  0  0
  -20.5940  -28.3500   23.1890 C   0  0  0  0  0  3  0  0  0  0  0  0
  -20.6930  -26.9140   22.6200 C   0  0  0  0  0  2  0  0  0  0  0  0
  -19.5890  -26.5880   21.6100 C   0  0  0  0  0  2  0  0  0  0  0  0
  -18.2080  -26.7330   22.2580 C   0  0  0  0  0  2  0  0  0  0  0  0
  -19.1520  -28.8480   23.3560 C   0  0  0  0  0  0  0  0  0  0  0  0
  -18.9300  -30.1100   23.9480 C   0  0  0  0  0  3  0  0  0  0  0  0
  -17.6230  -30.6050   24.1240 C   0  0  0  0  0  3  0  0  0  0  0  0
  -16.5200  -29.8350   23.7130 C   0  0  0  0  0  3  0  0  0  0  0  0
  -16.7260  -28.5750   23.1240 C   0  0  0  0  0  3  0  0  0  0  0  0
  -25.8850  -32.5070   23.8190 C   0  0  0  0  0  3  0  0  0  0  0  0
  -25.5580  -33.9030   24.1570 N   0  0  0  0  0  0  0  0  0  0  0  0
  -25.8790  -34.9690   23.4090 C   0  0  0  0  0  0  0  0  0  0  0  0
  -26.5470  -34.8800   22.3740 O   0  0  0  0  0  0  0  0  0  0  0  0
  -24.9630  -34.0440   24.9610 H   0  0  0  0  0  0  0  0  0  0  0  0
  -24.1360  -36.7570   23.0930 C   0  0  0  0  0  1  0  0  0  0  0  0
  -25.3880  -36.3510   23.8860 C   0  0  0  0  0  3  0  0  0  0  0  0
  -27.5240  -37.2480   24.7030 C   0  0  0  0  0  1  0  0  0  0  0  0
  -26.4120  -37.4130   23.7710 N   0  0  0  0  0  0  0  0  0  0  0  0
  -25.9960  -38.3270   23.9350 H   0  0  0  0  0  0  0  0  0  0  0  0
  -26.4000  -31.7460   25.1040 C   0  0  1  0  0  0  0  0  0  0  0  0
  -25.3030  -31.5120   26.1690 C   0  0  0  0  0  1  0  0  0  0  0  0
  -26.9870  -30.3680   24.7210 C   0  0  0  0  0  1  0  0  0  0  0  0
  -27.5440  -32.5490   25.7640 C   0  0  0  0  0  1  0  0  0  0  0  0
  -29.9560  -18.4670   20.4020 C   0  0  0  0  0  0  0  0  0  0  0  0
  -32.3280  -18.9630   19.7170 C   0  0  0  0  0  3  0  0  0  0  0  0
  -31.0610  -18.6600   19.3810 C   0  0  0  0  0  3  0  0  0  0  0  0
  -33.4520  -19.1910   18.7350 C   0  0  0  0  0  1  0  0  0  0  0  0
  -29.4970  -16.7450   20.4570 C   0  0  0  0  0  2  0  0  0  0  0  0
  -30.3690  -15.2390   20.2580 C   0  0  0  0  0  0  0  0  0  0  0  0
  -30.3560  -12.8080   19.3580 C   0  0  0  0  0  2  0  0  0  0  0  0
  -29.4130  -12.6710   18.1340 C   0  0  0  0  0  2  0  0  0  0  0  0
  -27.9650  -12.4020   18.5820 C   0  0  0  0  0  2  0  0  0  0  0  0
  -27.5400  -13.3420   19.7370 C   0  0  0  0  0  3  0  0  0  0  0  0
  -28.6000  -13.4360   20.8530 C   0  0  0  0  0  2  0  0  0  0  0  0
  -29.8440  -13.9210   20.2350 N   0  0  0  0  0  0  0  0  0  0  0  0
  -31.5730  -15.2720   19.9670 O   0  0  0  0  0  0  0  0  0  0  0  0
  -25.1750  -13.8990   20.5230 C   0  0  0  0  0  0  0  0  0  0  0  0
  -24.1200  -13.1210   20.9040 C   0  0  0  0  0  0  0  0  0  0  0  0
  -24.5890  -11.7710   20.8600 C   0  0  0  0  0  0  0  0  0  0  0  0
  -26.2150  -13.0260   20.2580 N   0  0  0  0  0  0  0  0  0  0  0  0
  -25.8760  -11.7390   20.5310 N   0  0  0  0  0  0  0  0  0  0  0  0
  -23.8640  -10.5080   21.0560 C   0  0  0  0  0  0  0  0  0  0  0  0
  -24.3110   -9.5300   21.9750 C   0  0  0  0  0  3  0  0  0  0  0  0
  -23.5830   -8.3360   22.1580 C   0  0  0  0  0  3  0  0  0  0  0  0
  -22.3950   -8.1100   21.4260 C   0  0  0  0  0  0  0  0  0  0  0  0
  -21.9650   -9.0730   20.4970 C   0  0  0  0  0  3  0  0  0  0  0  0
  -22.6930  -10.2610   20.3100 C   0  0  0  0  0  3  0  0  0  0  0  0
  -21.6380   -6.9650   21.5230 O   0  0  0  0  0  0  0  0  0  0  0  0
  -21.6190   -6.2050   22.6650 C   0  0  0  0  0  0  0  0  0  0  0  0
  -21.2350   -6.7450   23.9120 C   0  0  0  0  0  3  0  0  0  0  0  0
  -21.1620   -5.9150   25.0480 C   0  0  0  0  0  3  0  0  0  0  0  0
  -21.4640   -4.5440   24.9390 C   0  0  0  0  0  0  0  0  0  0  0  0
  -21.8390   -4.0020   23.6970 C   0  0  0  0  0  3  0  0  0  0  0  0
  -21.9140   -4.8300   22.5640 C   0  0  0  0  0  0  0  0  0  0  0  0
  -22.2560   -4.3000   21.3670 F   0  0  0  0  0  0  0  0  0  0  0  0
  -21.3880   -3.7440   26.0290 F   0  0  0  0  0  0  0  0  0  0  0  0
  -22.7240  -13.5960   21.1960 C   0  0  0  0  0  0  0  0  0  0  0  0
  -22.0080  -12.8940   22.0680 N   0  0  0  0  0  0  0  0  0  0  0  0
  -22.2800  -14.6260   20.6860 O   0  0  0  0  0  0  0  0  0  0  0  0
  -22.3800  -12.0580   22.4960 H   0  0  0  0  0  0  0  0  0  0  0  0
  -21.0720  -13.1870   22.3070 H   0  0  0  0  0  0  0  0  0  0  0  0
  -25.3410  -15.2720   20.3520 N   0  0  0  0  0  0  0  0  0  0  0  0
  -24.5850  -15.9350   20.4840 H   0  0  0  0  0  0  0  0  0  0  0  0
  -26.1940  -15.7010   20.0170 H   0  0  0  0  0  0  0  0  0  0  0  0
  1  2  1  0
  1  6  1  0
  2  4  1  0
  3  1  2  0
  6  5  1  1
  7  6  1  0
  8  9  1  0
  8  6  1  0
 10 21  2  0
 11  9  1  0
 11 16  1  0
 12 20  1  0
 12 22  1  0
 13 19  1  0
 13 15  1  0
 14 20  1  0
 15 16  2  0
 15 14  1  0
 17 11  2  0
 18 17  1  0
 18 13  2  0
 19 12  1  0
 20 10  1  0
 22 24  2  0
 23 22  1  0
 25 23  1  0
 26 35  2  0
 26 31  1  0
 27 23  1  0
 27 31  1  0
 28 27  1  0
 29 30  1  0
 29 28  1  0
 30 26  1  0
 31 32  2  0
 32 33  1  0
 34 33  2  0
 35 34  1  0
 36 10  1  0
 36 37  1  0
 36 46  1  0
 37 40  1  0
 38 42  1  0
 38 37  1  0
 39 38  2  0
 42 41  1  0
 44 42  1  0
 44 45  1  0
 44 43  1  0
 46 49  1  1
 46 47  1  0
 48 46  1  0
 50 54  1  0
 50  2  2  0
 52 51  2  0
 52 50  1  0
 53 51  1  0
 55 54  1  0
 56 61  1  0
 57 58  1  0
 57 56  1  0
 59 58  1  0
 59 66  1  0
 59 60  1  0
 61 55  1  0
 61 60  1  0
 62 55  2  0
 63 64  2  0
 64 83  1  0
 65 64  1  0
 65 68  1  0
 66 63  1  0
 66 67  1  0
 67 65  2  0
 68 69  1  0
 69 70  2  0
 71 74  1  0
 71 70  1  0
 72 71  2  0
 73 72  1  0
 73 68  2  0
 74 75  1  0
 75 76  1  0
 76 77  2  0
 78 77  1  0
 78 82  1  0
 79 78  2  0
 80 75  2  0
 80 79  1  0
 81 80  1  0
 83 84  1  0
 84 87  1  0
 84 86  1  0
 85 83  2  0
 88 89  1  0
 88 63  1  0
 90 88  1  0
M  ISO  4   8 101   9 101  54 100  55 100
M  END
>  <TORSDO>  (16) 
F 21

>  <SCORE>  (16) 
-15.255

>  <name>  (16) 
16

>  <ligand_id>  (16) 
16

>  <original_smiles>  (16) 
[H]C(=C([H])C([H])(N([H])C(=O)C(F)(C([H])([H])[H])C([H])([H])Oc1c([H])c([H])c2c(c1[H])C([H])([H])N(C(=O)C([H])(N([H])C(=O)C([H])(N([H])C([H])([H])[H])C([H])([H])[H])C(C([H])([H])[H])(C([H])([H])[H])C([H])([H])[H])C([H])(C(=O)N([H])C1([H])c3c([H])c([H])c([H])c([H])c3C([H])([H])C([H])([H])C1([H])[H])C2([H])[H])C([H])([H])C(=O)N1C([H])([H])C([H])([H])C([H])([H])C([H])(n2nc(-c3c([H])c([H])c(Oc4c([H])c([H])c(F)c([H])c4F)c([H])c3[H])c(C(=O)N([H])[H])c2N([H])[H])C1([H])[H])C([H])([H])[H]

>  <smiles>  (16) 
[H]C(=C([H])C([H])(N([H])C(=O)C(F)(C([H])([H])[H])C([H])([H])Oc1c([H])c([H])c2c(c1[H])C([H])([H])N(C(=O)C([H])(N([H])C(=O)C([H])(N([H])C([H])([H])[H])C([H])([H])[H])C(C([H])([H])[H])(C([H])([H])[H])C([H])([H])[H])C([H])(C(=O)N([H])C1([H])c3c([H])c([H])c([H])c([H])c3C([H])([H])C([H])([H])C1([H])[H])C2([H])[H])C([H])([H])C(=O)N1C([H])([H])C([H])([H])C([H])([H])C([H])(n2nc(-c3c([H])c([H])c(Oc4c([H])c([H])c(F)c([H])c4F)c([H])c3[H])c(C(=O)N([H])[H])c2N([H])[H])C1([H])[H])C([H])([H])[H]

$$$$
17:0:0
     RDKit          3D

 97105  0  0  1  0  0  0  0  0999 V2000
  -29.6300  -21.6370   20.3130 C   0  0  0  0  0  0  0  0  0  0  0  0
  -29.5770  -20.5060   21.0450 N   0  0  0  0  0  0  0  0  0  0  0  0
  -30.0090  -21.6600   19.1390 O   0  0  0  0  0  0  0  0  0  0  0  0
  -29.3700  -20.6510   22.0240 H   0  0  0  0  0  0  0  0  0  0  0  0
  -29.8810  -17.1920   19.4620 C   0  0  0  0  0  3  0  0  0  0  0  0
  -29.5220  -18.5780   19.4720 C   0  0  0  0  0  3  0  0  0  0  0  0
  -30.4550  -16.7570   20.6350 C   0  0  0  0  0  0  0  0  0  0  0  0
  -29.7920  -19.2160   20.6600 C   0  0  0  0  0  0  0  0  0  0  0  0
  -30.4680  -18.0730   21.7960 S   0  0  0  0  0  0  0  0  0  0  0  0
  -30.5650  -14.8880   22.3480 C   0  0  0  0  0  1  0  0  0  0  0  0
  -31.0840  -15.4100   20.9860 C   0  0  1  0  0  0  0  0  0  0  0  0
  -31.0720  -14.4120   19.7620 C   0  0  0  0  0  0  0  0  0  0  0  0
  -30.4200  -12.4310   18.4200 C   0  0  0  0  0  2  0  0  0  0  0  0
  -29.3600  -12.7510   17.3480 C   0  0  0  0  0  2  0  0  0  0  0  0
  -27.9430  -12.6170   17.9270 C   0  0  0  0  0  2  0  0  0  0  0  0
  -27.7910  -13.3790   19.2670 C   0  0  0  0  0  3  0  0  0  0  0  0
  -28.9490  -13.0420   20.2300 C   0  0  0  0  0  2  0  0  0  0  0  0
  -30.2300  -13.3460   19.5690 N   0  0  0  0  0  0  0  0  0  0  0  0
  -31.9650  -14.6320   18.9320 O   0  0  0  0  0  0  0  0  0  0  0  0
  -25.5160  -14.0210   20.2850 C   0  0  0  0  0  0  0  0  0  0  0  0
  -24.4760  -13.2630   20.7500 C   0  0  0  0  0  0  0  0  0  0  0  0
  -24.8830  -11.9010   20.6100 C   0  0  0  0  0  0  0  0  0  0  0  0
  -26.4950  -13.1220   19.8900 N   0  0  0  0  0  0  0  0  0  0  0  0
  -26.1240  -11.8410   20.1430 N   0  0  0  0  0  0  0  0  0  0  0  0
  -24.1430  -10.6540   20.8390 C   0  0  0  0  0  0  0  0  0  0  0  0
  -24.6060   -9.6760   21.7470 C   0  0  0  0  0  3  0  0  0  0  0  0
  -23.8650   -8.4910   21.9630 C   0  0  0  0  0  3  0  0  0  0  0  0
  -22.6480   -8.2780   21.2710 C   0  0  0  0  0  0  0  0  0  0  0  0
  -22.2040   -9.2470   20.3550 C   0  0  0  0  0  3  0  0  0  0  0  0
  -22.9430  -10.4210   20.1380 C   0  0  0  0  0  3  0  0  0  0  0  0
  -21.8770   -7.1480   21.3970 O   0  0  0  0  0  0  0  0  0  0  0  0
  -21.8170   -6.4460   22.5740 C   0  0  0  0  0  0  0  0  0  0  0  0
  -21.4080   -7.0500   23.7830 C   0  0  0  0  0  3  0  0  0  0  0  0
  -21.2950   -6.2750   24.9540 C   0  0  0  0  0  3  0  0  0  0  0  0
  -21.5780   -4.8960   24.9170 C   0  0  0  0  0  0  0  0  0  0  0  0
  -21.9780   -4.2910   23.7130 C   0  0  0  0  0  3  0  0  0  0  0  0
  -22.0940   -5.0640   22.5430 C   0  0  0  0  0  0  0  0  0  0  0  0
  -22.4600   -4.4720   21.3810 F   0  0  0  0  0  0  0  0  0  0  0  0
  -21.4600   -4.1490   26.0400 F   0  0  0  0  0  0  0  0  0  0  0  0
  -23.1370  -13.7670   21.2110 C   0  0  0  0  0  0  0  0  0  0  0  0
  -22.5090  -13.0690   22.1500 N   0  0  0  0  0  0  0  0  0  0  0  0
  -22.6630  -14.8150   20.7720 O   0  0  0  0  0  0  0  0  0  0  0  0
  -22.9050  -12.2190   22.5230 H   0  0  0  0  0  0  0  0  0  0  0  0
  -21.6190  -13.3890   22.5020 H   0  0  0  0  0  0  0  0  0  0  0  0
  -25.7060  -15.3930   20.1460 N   0  0  0  0  0  0  0  0  0  0  0  0
  -24.9890  -16.0670   20.3930 H   0  0  0  0  0  0  0  0  0  0  0  0
  -26.5270  -15.8190   19.7330 H   0  0  0  0  0  0  0  0  0  0  0  0
  -32.5240  -15.6650   21.1540 N   0  0  0  0  0  4  0  0  0  0  0  0
  -32.8810  -15.7030   20.2100 H   0  0  0  0  0  0  0  0  0  0  0  0
  -32.9760  -14.8990   21.6200 H   0  0  0  0  0  0  0  0  0  0  0  0
  -32.7120  -16.5260   21.6340 H   0  0  0  0  0  0  0  0  0  0  0  0
  -29.2320  -22.9480   21.0450 C   0  0  0  0  0  3  0  0  0  0  0  0
  -28.2900  -22.6610   21.9500 F   0  0  0  0  0  0  0  0  0  0  0  0
  -27.5370  -23.8010   19.2770 C   0  0  0  0  0  1  0  0  0  0  0  0
  -28.7570  -24.1510   20.1580 C   0  0  0  0  0  3  0  0  0  0  0  0
  -28.4840  -25.4220   21.0250 C   0  0  0  0  0  2  0  0  0  0  0  0
  -28.4970  -26.6730   20.3100 O   0  0  0  0  0  0  0  0  0  0  0  0
  -24.5670  -31.9020   23.2250 C   0  0  0  0  0  0  0  0  0  0  0  0
  -27.3220  -27.3960   20.3200 C   0  0  0  0  0  0  0  0  0  0  0  0
  -23.4150  -30.4560   21.5800 C   0  0  0  0  0  3  0  0  0  0  0  0
  -24.9180  -28.8890   20.2380 C   0  0  0  0  0  0  0  0  0  0  0  0
  -25.9450  -30.8210   21.4480 C   0  0  0  0  0  2  0  0  0  0  0  0
  -26.0580  -29.4350   20.8410 C   0  0  0  0  0  0  0  0  0  0  0  0
  -27.2690  -28.6990   20.8710 C   0  0  0  0  0  3  0  0  0  0  0  0
  -26.1630  -26.8660   19.7190 C   0  0  0  0  0  3  0  0  0  0  0  0
  -24.9660  -27.6030   19.6730 C   0  0  0  0  0  3  0  0  0  0  0  0
  -23.6690  -29.7440   20.2250 C   0  0  0  0  0  2  0  0  0  0  0  0
  -24.6600  -31.0750   22.1440 N   0  0  0  0  0  0  0  0  0  0  0  0
  -23.4700  -32.1810   23.7250 O   0  0  0  0  0  0  0  0  0  0  0  0
  -22.7390  -29.4550   22.5450 C   0  0  0  0  0  0  0  0  0  0  0  0
  -21.4150  -29.2770   22.3920 N   0  0  0  0  0  0  0  0  0  0  0  0
  -23.4010  -28.8390   23.3860 O   0  0  0  0  0  0  0  0  0  0  0  0
  -20.9420  -29.8280   21.6890 H   0  0  0  0  0  0  0  0  0  0  0  0
  -18.0270  -28.0910   22.8310 C   0  0  0  0  0  0  0  0  0  0  0  0
  -20.5780  -28.3550   23.1600 C   0  0  0  0  0  3  0  0  0  0  0  0
  -20.6930  -26.9120   22.6140 C   0  0  0  0  0  2  0  0  0  0  0  0
  -19.6160  -26.5690   21.5780 C   0  0  0  0  0  2  0  0  0  0  0  0
  -18.2190  -26.7280   22.1860 C   0  0  0  0  0  2  0  0  0  0  0  0
  -19.1360  -28.8620   23.2720 C   0  0  0  0  0  0  0  0  0  0  0  0
  -18.9030  -30.1370   23.8330 C   0  0  0  0  0  3  0  0  0  0  0  0
  -17.5960  -30.6430   23.9560 C   0  0  0  0  0  3  0  0  0  0  0  0
  -16.5020  -29.8710   23.5280 C   0  0  0  0  0  3  0  0  0  0  0  0
  -16.7180  -28.5960   22.9730 C   0  0  0  0  0  3  0  0  0  0  0  0
  -25.8320  -32.5540   23.8670 C   0  0  0  0  0  3  0  0  0  0  0  0
  -25.4940  -33.9440   24.1970 N   0  0  0  0  0  0  0  0  0  0  0  0
  -25.8040  -35.0010   23.4340 C   0  0  0  0  0  0  0  0  0  0  0  0
  -26.4750  -34.9100   22.4030 O   0  0  0  0  0  0  0  0  0  0  0  0
  -24.8970  -34.0870   24.9980 H   0  0  0  0  0  0  0  0  0  0  0  0
  -24.0360  -36.7560   23.0790 C   0  0  0  0  0  1  0  0  0  0  0  0
  -25.2880  -36.3800   23.8880 C   0  0  0  0  0  3  0  0  0  0  0  0
  -27.4090  -37.3080   24.7070 C   0  0  0  0  0  1  0  0  0  0  0  0
  -26.2970  -37.4550   23.7720 N   0  0  0  0  0  0  0  0  0  0  0  0
  -25.8730  -38.3650   23.9250 H   0  0  0  0  0  0  0  0  0  0  0  0
  -26.3440  -31.7860   25.1480 C   0  0  1  0  0  0  0  0  0  0  0  0
  -25.2370  -31.5060   26.1920 C   0  0  0  0  0  1  0  0  0  0  0  0
  -26.9780  -30.4310   24.7580 C   0  0  0  0  0  1  0  0  0  0  0  0
  -27.4550  -32.6110   25.8420 C   0  0  0  0  0  1  0  0  0  0  0  0
  1 52  1  0
  1  2  1  0
  2  4  1  0
  3  1  2  0
  5  6  1  0
  5  7  2  0
  6  8  2  0
  7 11  1  0
  7  9  1  0
  8  2  1  0
  8  9  1  0
 11 48  1  0
 11 10  1  1
 12 11  1  0
 13 18  1  0
 14 15  1  0
 14 13  1  0
 16 15  1  0
 16 23  1  0
 16 17  1  0
 18 12  1  0
 18 17  1  0
 19 12  2  0
 20 21  2  0
 21 40  1  0
 22 21  1  0
 22 25  1  0
 23 24  1  0
 23 20  1  0
 24 22  2  0
 25 26  1  0
 26 27  2  0
 28 31  1  0
 28 27  1  0
 29 28  2  0
 30 29  1  0
 30 25  2  0
 31 32  1  0
 32 33  1  0
 33 34  2  0
 35 34  1  0
 35 39  1  0
 36 35  2  0
 37 32  2  0
 37 36  1  0
 38 37  1  0
 40 41  1  0
 41 44  1  0
 41 43  1  0
 42 40  2  0
 45 20  1  0
 45 46  1  0
 47 45  1  0
 48 50  1  0
 48 51  1  0
 49 48  1  0
 52 53  1  0
 55 54  1  0
 55 56  1  0
 55 52  1  0
 57 59  1  0
 57 56  1  0
 58 69  2  0
 59 64  1  0
 60 68  1  0
 60 70  1  0
 61 63  1  0
 62 68  1  0
 63 64  2  0
 63 62  1  0
 65 59  2  0
 66 65  1  0
 66 61  2  0
 67 61  1  0
 67 60  1  0
 68 58  1  0
 70 72  2  0
 71 70  1  0
 73 71  1  0
 74 83  2  0
 74 79  1  0
 75 71  1  0
 75 79  1  0
 76 75  1  0
 77 78  1  0
 77 76  1  0
 78 74  1  0
 79 80  2  0
 80 81  1  0
 82 81  2  0
 83 82  1  0
 84 58  1  0
 84 85  1  0
 84 94  1  0
 85 88  1  0
 86 90  1  0
 86 85  1  0
 87 86  2  0
 90 89  1  0
 92 90  1  0
 92 93  1  0
 92 91  1  0
 94 97  1  1
 94 95  1  0
 96 94  1  0
M  ISO  4  11 100  12 100  56 101  57 101
M  END
>  <TORSDO>  (17) 
F 22

>  <SCORE>  (17) 
-11.257

>  <name>  (17) 
17

>  <ligand_id>  (17) 
17

>  <original_smiles>  (17) 
[H]c1c(N([H])C(=O)C([H])(F)C([H])(C([H])([H])[H])C([H])([H])Oc2c([H])c([H])c3c(c2[H])C([H])([H])N(C(=O)C([H])(N([H])C(=O)C([H])(N([H])C([H])([H])[H])C([H])([H])[H])C(C([H])([H])[H])(C([H])([H])[H])C([H])([H])[H])C([H])(C(=O)N([H])C2([H])c4c([H])c([H])c([H])c([H])c4C([H])([H])C([H])([H])C2([H])[H])C3([H])[H])sc(C(C(=O)N2C([H])([H])C([H])([H])C([H])([H])C([H])(n3nc(-c4c([H])c([H])c(Oc5c([H])c([H])c(F)c([H])c5F)c([H])c4[H])c(C(=O)N([H])[H])c3N([H])[H])C2([H])[H])(C([H])([H])[H])[N+]([H])([H])[H])c1[H]

>  <smiles>  (17) 
[H]c1c(N([H])C(=O)C([H])(F)C([H])(C([H])([H])[H])C([H])([H])Oc2c([H])c([H])c3c(c2[H])C([H])([H])N(C(=O)C([H])(N([H])C(=O)C([H])(N([H])C([H])([H])[H])C([H])([H])[H])C(C([H])([H])[H])(C([H])([H])[H])C([H])([H])[H])C([H])(C(=O)N([H])C2([H])c4c([H])c([H])c([H])c([H])c4C([H])([H])C([H])([H])C2([H])[H])C3([H])[H])sc(C(C(=O)N2C([H])([H])C([H])([H])C([H])([H])C([H])(n3nc(-c4c([H])c([H])c(Oc5c([H])c([H])c(F)c([H])c5F)c([H])c4[H])c(C(=O)N([H])[H])c3N([H])[H])C2([H])[H])(C([H])([H])[H])[N+]([H])([H])[H])c1[H]

$$$$
18:0:0
     RDKit          3D

 92100  0  0  1  0  0  0  0  0999 V2000
  -29.1720  -21.4580   20.6240 C   0  0  0  0  0  0  0  0  0  0  0  0
  -28.6220  -20.3810   20.0210 N   0  0  0  0  0  0  0  0  0  0  0  0
  -30.2920  -21.4580   21.1380 O   0  0  0  0  0  0  0  0  0  0  0  0
  -27.7710  -20.5790   19.5110 H   0  0  0  0  0  0  0  0  0  0  0  0
  -30.7240  -14.5090   20.3660 C   0  0  0  0  0  0  0  0  0  0  0  0
  -30.3660  -12.3610   19.1980 C   0  0  0  0  0  2  0  0  0  0  0  0
  -29.4080  -12.5600   18.0070 C   0  0  0  0  0  2  0  0  0  0  0  0
  -27.9410  -12.4310   18.4620 C   0  0  0  0  0  2  0  0  0  0  0  0
  -27.6280  -13.2760   19.7250 C   0  0  0  0  0  3  0  0  0  0  0  0
  -28.6980  -13.0630   20.8170 C   0  0  0  0  0  2  0  0  0  0  0  0
  -30.0150  -13.3540   20.2260 N   0  0  0  0  0  0  0  0  0  0  0  0
  -31.8280  -14.6800   19.8390 O   0  0  0  0  0  0  0  0  0  0  0  0
  -28.4960  -18.0900   19.2070 C   0  0  0  0  0  3  0  0  0  0  0  0
  -28.9670  -19.0560   20.0710 C   0  0  0  0  0  0  0  0  0  0  0  0
  -29.6770  -16.7110   20.5790 C   0  0  0  0  0  0  0  0  0  0  0  0
  -28.8940  -16.7740   19.4980 N   0  0  0  0  0  0  0  0  0  0  0  0
  -30.1720  -15.4830   21.1090 N   0  0  0  0  0  0  0  0  0  0  0  0
  -29.9680  -18.2970   21.3080 S   0  0  0  0  0  0  0  0  0  0  0  0
  -30.6870  -15.6280   21.9640 H   0  0  0  0  0  0  0  0  0  0  0  0
  -25.2530  -13.9010   20.4880 C   0  0  0  0  0  0  0  0  0  0  0  0
  -24.1820  -13.1350   20.8660 C   0  0  0  0  0  0  0  0  0  0  0  0
  -24.6270  -11.7780   20.8100 C   0  0  0  0  0  0  0  0  0  0  0  0
  -26.2820  -13.0100   20.2270 N   0  0  0  0  0  0  0  0  0  0  0  0
  -25.9110  -11.7280   20.4790 N   0  0  0  0  0  0  0  0  0  0  0  0
  -23.8900  -10.5230   20.9990 C   0  0  0  0  0  0  0  0  0  0  0  0
  -24.3170   -9.5490   21.9290 C   0  0  0  0  0  3  0  0  0  0  0  0
  -23.5830   -8.3560   22.1050 C   0  0  0  0  0  3  0  0  0  0  0  0
  -22.4070   -8.1270   21.3510 C   0  0  0  0  0  0  0  0  0  0  0  0
  -22.0000   -9.0890   20.4100 C   0  0  0  0  0  3  0  0  0  0  0  0
  -22.7340  -10.2740   20.2320 C   0  0  0  0  0  3  0  0  0  0  0  0
  -21.6450   -6.9880   21.4370 O   0  0  0  0  0  0  0  0  0  0  0  0
  -21.5710   -6.2560   22.5950 C   0  0  0  0  0  0  0  0  0  0  0  0
  -21.0990   -6.8170   23.8020 C   0  0  0  0  0  3  0  0  0  0  0  0
  -20.9750   -6.0100   24.9510 C   0  0  0  0  0  3  0  0  0  0  0  0
  -21.3130   -4.6440   24.8930 C   0  0  0  0  0  0  0  0  0  0  0  0
  -21.7770   -4.0840   23.6900 C   0  0  0  0  0  3  0  0  0  0  0  0
  -21.9030   -4.8880   22.5430 C   0  0  0  0  0  0  0  0  0  0  0  0
  -22.3310   -4.3380   21.3820 F   0  0  0  0  0  0  0  0  0  0  0  0
  -21.1870   -3.8670   25.9940 F   0  0  0  0  0  0  0  0  0  0  0  0
  -22.7960  -13.6240   21.1700 C   0  0  0  0  0  0  0  0  0  0  0  0
  -22.0740  -12.9230   22.0380 N   0  0  0  0  0  0  0  0  0  0  0  0
  -22.3600  -14.6620   20.6740 O   0  0  0  0  0  0  0  0  0  0  0  0
  -22.4380  -12.0830   22.4630 H   0  0  0  0  0  0  0  0  0  0  0  0
  -21.1440  -13.2330   22.2830 H   0  0  0  0  0  0  0  0  0  0  0  0
  -25.4350  -15.2700   20.3240 N   0  0  0  0  0  0  0  0  0  0  0  0
  -24.6890  -15.9410   20.4630 H   0  0  0  0  0  0  0  0  0  0  0  0
  -26.3020  -15.6950   20.0150 H   0  0  0  0  0  0  0  0  0  0  0  0
  -27.4090  -22.7070   21.8910 C   0  0  0  0  0  1  0  0  0  0  0  0
  -28.3030  -22.7410   20.6330 C   0  0  0  0  0  3  0  0  0  0  0  0
  -29.0540  -24.1160   20.4940 C   0  0  0  0  0  2  0  0  0  0  0  0
  -28.1080  -25.2100   19.9310 C   0  0  0  0  0  2  0  0  0  0  0  0
  -28.3830  -26.6210   20.1570 O   0  0  0  0  0  0  0  0  0  0  0  0
  -24.6470  -31.8830   23.2650 C   0  0  0  0  0  0  0  0  0  0  0  0
  -27.2550  -27.4400   20.1100 C   0  0  0  0  0  0  0  0  0  0  0  0
  -23.4350  -30.5040   21.6160 C   0  0  0  0  0  3  0  0  0  0  0  0
  -24.8780  -28.9970   20.1550 C   0  0  0  0  0  0  0  0  0  0  0  0
  -25.9680  -30.8490   21.4180 C   0  0  0  0  0  2  0  0  0  0  0  0
  -26.0460  -29.4890   20.7520 C   0  0  0  0  0  0  0  0  0  0  0  0
  -27.2390  -28.7180   20.7290 C   0  0  0  0  0  3  0  0  0  0  0  0
  -26.0660  -27.0030   19.4730 C   0  0  0  0  0  3  0  0  0  0  0  0
  -24.8840  -27.7550   19.5110 C   0  0  0  0  0  3  0  0  0  0  0  0
  -23.6370  -29.8570   20.2240 C   0  0  0  0  0  2  0  0  0  0  0  0
  -24.7020  -31.0940   22.1560 N   0  0  0  0  0  0  0  0  0  0  0  0
  -23.5670  -32.1490   23.8120 O   0  0  0  0  0  0  0  0  0  0  0  0
  -22.7900  -29.4640   22.5630 C   0  0  0  0  0  0  0  0  0  0  0  0
  -21.4670  -29.2710   22.4320 N   0  0  0  0  0  0  0  0  0  0  0  0
  -23.4760  -28.8360   23.3730 O   0  0  0  0  0  0  0  0  0  0  0  0
  -20.9720  -29.8310   21.7530 H   0  0  0  0  0  0  0  0  0  0  0  0
  -18.0990  -28.0540   22.9240 C   0  0  0  0  0  0  0  0  0  0  0  0
  -20.6560  -28.3210   23.1930 C   0  0  0  0  0  3  0  0  0  0  0  0
  -20.7630  -26.8960   22.6040 C   0  0  0  0  0  2  0  0  0  0  0  0
  -19.6620  -26.5780   21.5880 C   0  0  0  0  0  2  0  0  0  0  0  0
  -18.2800  -26.7110   22.2350 C   0  0  0  0  0  2  0  0  0  0  0  0
  -19.2150  -28.8160   23.3600 C   0  0  0  0  0  0  0  0  0  0  0  0
  -18.9910  -30.0730   23.9630 C   0  0  0  0  0  3  0  0  0  0  0  0
  -17.6850  -30.5670   24.1340 C   0  0  0  0  0  3  0  0  0  0  0  0
  -16.5840  -29.8020   23.7150 C   0  0  0  0  0  3  0  0  0  0  0  0
  -16.7910  -28.5460   23.1150 C   0  0  0  0  0  3  0  0  0  0  0  0
  -25.9340  -32.5090   23.8850 C   0  0  0  0  0  3  0  0  0  0  0  0
  -26.4540  -31.7310   25.1570 C   0  0  1  0  0  0  0  0  0  0  0  0
  -25.3620  -31.4840   26.2240 C   0  0  0  0  0  1  0  0  0  0  0  0
  -27.0380  -30.3570   24.7550 C   0  0  0  0  0  1  0  0  0  0  0  0
  -27.6040  -32.5220   25.8210 C   0  0  0  0  0  1  0  0  0  0  0  0
  -25.6280  -33.9060   24.2210 N   0  0  0  0  0  0  0  0  0  0  0  0
  -25.9380  -34.9580   23.4510 C   0  0  0  0  0  0  0  0  0  0  0  0
  -26.5870  -34.8550   22.4050 O   0  0  0  0  0  0  0  0  0  0  0  0
  -25.0550  -34.0610   25.0360 H   0  0  0  0  0  0  0  0  0  0  0  0
  -24.1910  -36.7390   23.1340 C   0  0  0  0  0  1  0  0  0  0  0  0
  -25.4550  -36.3450   23.9160 C   0  0  0  0  0  3  0  0  0  0  0  0
  -27.6010  -37.2480   24.6940 C   0  0  0  0  0  1  0  0  0  0  0  0
  -26.4780  -37.4030   23.7740 N   0  0  0  0  0  0  0  0  0  0  0  0
  -26.0690  -38.3220   23.9240 H   0  0  0  0  0  0  0  0  0  0  0  0
  1 49  1  0
  1  3  2  0
  2 14  1  0
  2  1  1  0
  4  2  1  0
  5 17  1  0
  6 11  1  0
  7  8  1  0
  7  6  1  0
  9  8  1  0
  9 23  1  0
  9 10  1  0
 11  5  1  0
 11 10  1  0
 12  5  2  0
 13 16  1  0
 13 14  2  0
 14 18  1  0
 15 17  1  0
 15 18  1  0
 16 15  2  0
 17 19  1  0
 20 21  2  0
 21 40  1  0
 22 21  1  0
 22 25  1  0
 23 24  1  0
 23 20  1  0
 24 22  2  0
 25 26  1  0
 26 27  2  0
 28 31  1  0
 28 27  1  0
 29 28  2  0
 30 29  1  0
 30 25  2  0
 31 32  1  0
 32 33  1  0
 33 34  2  0
 35 34  1  0
 35 39  1  0
 36 35  2  0
 37 32  2  0
 37 36  1  0
 38 37  1  0
 40 41  1  0
 41 44  1  0
 41 43  1  0
 42 40  2  0
 45 46  1  0
 45 20  1  0
 47 45  1  0
 49 48  1  0
 50 49  1  0
 51 52  1  0
 51 50  1  0
 53 64  2  0
 54 52  1  0
 54 59  1  0
 55 63  1  0
 55 65  1  0
 56 62  1  0
 56 58  1  0
 57 63  1  0
 58 57  1  0
 59 58  2  0
 60 61  1  0
 60 54  2  0
 61 56  2  0
 62 55  1  0
 63 53  1  0
 65 67  2  0
 66 65  1  0
 68 66  1  0
 69 78  2  0
 69 74  1  0
 70 66  1  0
 70 74  1  0
 71 70  1  0
 72 73  1  0
 72 71  1  0
 73 69  1  0
 74 75  2  0
 75 76  1  0
 77 76  2  0
 78 77  1  0
 79 53  1  0
 79 84  1  0
 79 80  1  0
 80 83  1  1
 80 81  1  0
 82 80  1  0
 84 87  1  0
 85 89  1  0
 85 84  1  0
 86 85  2  0
 89 88  1  0
 91 89  1  0
 91 92  1  0
 91 90  1  0
M  ISO  4   5 100  17 100  51 101  52 101
M  END
>  <TORSDO>  (18) 
F 19

>  <SCORE>  (18) 
-14.157

>  <name>  (18) 
18

>  <ligand_id>  (18) 
18

>  <original_smiles>  (18) 
[H]c1nc(N([H])C(=O)N2C([H])([H])C([H])([H])C([H])([H])C([H])(n3nc(-c4c([H])c([H])c(Oc5c([H])c([H])c(F)c([H])c5F)c([H])c4[H])c(C(=O)N([H])[H])c3N([H])[H])C2([H])[H])sc1N([H])C(=O)C([H])(C([H])([H])[H])C([H])([H])C([H])([H])Oc1c([H])c([H])c2c(c1[H])C([H])([H])N(C(=O)C([H])(N([H])C(=O)C([H])(N([H])C([H])([H])[H])C([H])([H])[H])C(C([H])([H])[H])(C([H])([H])[H])C([H])([H])[H])C([H])(C(=O)N([H])C1([H])c3c([H])c([H])c([H])c([H])c3C([H])([H])C([H])([H])C1([H])[H])C2([H])[H]

>  <smiles>  (18) 
[H]c1nc(N([H])C(=O)N2C([H])([H])C([H])([H])C([H])([H])C([H])(n3nc(-c4c([H])c([H])c(Oc5c([H])c([H])c(F)c([H])c5F)c([H])c4[H])c(C(=O)N([H])[H])c3N([H])[H])C2([H])[H])sc1N([H])C(=O)C([H])(C([H])([H])[H])C([H])([H])C([H])([H])Oc1c([H])c([H])c2c(c1[H])C([H])([H])N(C(=O)C([H])(N([H])C(=O)C([H])(N([H])C([H])([H])[H])C([H])([H])[H])C(C([H])([H])[H])(C([H])([H])[H])C([H])([H])[H])C([H])(C(=O)N([H])C1([H])c3c([H])c([H])c([H])c([H])c3C([H])([H])C([H])([H])C1([H])[H])C2([H])[H]

$$$$
19:0:0
     RDKit          3D

 94 99  0  0  1  0  0  0  0  0999 V2000
  -24.3330  -24.3980   20.7740 C   0  0  0  0  0  3  0  0  0  0  0  0
  -27.2180  -20.7120   20.2120 C   0  0  0  0  0  3  0  0  0  0  0  0
  -25.7090  -23.3220   20.2130 C   0  0  0  0  0  0  0  0  0  0  0  0
  -27.5960  -19.5850   20.8030 N   0  0  0  0  0  2  0  0  0  0  0  0
  -28.7060  -18.8510   19.9700 N   0  0  0  0  0  0  0  0  0  0  0  0
  -26.1190  -21.8860   20.5360 N   0  0  0  0  0  0  0  0  0  0  0  0
  -26.4240  -23.8630   19.3710 O   0  0  0  0  0  0  0  0  0  0  0  0
  -28.0780  -20.0500   18.7750 S   0  0  0  0  0  0  0  0  0  0  0  0
  -25.5280  -21.5520   21.2850 H   0  0  0  0  0  0  0  0  0  0  0  0
  -29.0900  -17.1160   19.8650 C   0  0  0  0  0  2  0  0  0  0  0  0
  -30.4420  -15.8650   19.7340 C   0  0  0  0  0  0  0  0  0  0  0  0
  -30.9900  -13.3520   19.0890 C   0  0  0  0  0  2  0  0  0  0  0  0
  -30.0830  -12.9020   17.9040 C   0  0  0  0  0  2  0  0  0  0  0  0
  -28.6600  -12.5490   18.3820 C   0  0  0  0  0  2  0  0  0  0  0  0
  -28.1550  -13.5720   19.4260 C   0  0  0  0  0  3  0  0  0  0  0  0
  -29.1720  -13.8180   20.5370 C   0  0  0  0  0  2  0  0  0  0  0  0
  -30.2880  -14.4520   19.8670 N   0  0  0  0  0  0  0  0  0  0  0  0
  -31.6280  -16.1020   19.4010 O   0  0  0  0  0  0  0  0  0  0  0  0
  -25.8860  -14.1340   20.4000 C   0  0  0  0  0  0  0  0  0  0  0  0
  -24.8450  -13.3520   20.8070 C   0  0  0  0  0  0  0  0  0  0  0  0
  -25.2790  -12.0000   20.6420 C   0  0  0  0  0  0  0  0  0  0  0  0
  -26.8700  -13.2520   19.9950 N   0  0  0  0  0  0  0  0  0  0  0  0
  -26.5330  -11.9600   20.2150 N   0  0  0  0  0  0  0  0  0  0  0  0
  -24.5480  -10.7410   20.8010 C   0  0  0  0  0  0  0  0  0  0  0  0
  -24.9410   -9.7740   21.7520 C   0  0  0  0  0  3  0  0  0  0  0  0
  -24.2060   -8.5770   21.8950 C   0  0  0  0  0  3  0  0  0  0  0  0
  -23.0690   -8.3440   21.0860 C   0  0  0  0  0  0  0  0  0  0  0  0
  -22.6990   -9.3000   20.1240 C   0  0  0  0  0  3  0  0  0  0  0  0
  -23.4330  -10.4870   19.9790 C   0  0  0  0  0  3  0  0  0  0  0  0
  -22.3090   -7.2010   21.1380 O   0  0  0  0  0  0  0  0  0  0  0  0
  -22.0540   -6.5610   22.3240 C   0  0  0  0  0  0  0  0  0  0  0  0
  -21.4280   -7.2170   23.4050 C   0  0  0  0  0  3  0  0  0  0  0  0
  -21.1210   -6.5010   24.5790 C   0  0  0  0  0  3  0  0  0  0  0  0
  -21.4340   -5.1310   24.6720 C   0  0  0  0  0  0  0  0  0  0  0  0
  -22.0540   -4.4750   23.5930 C   0  0  0  0  0  3  0  0  0  0  0  0
  -22.3610   -5.1880   22.4210 C   0  0  0  0  0  0  0  0  0  0  0  0
  -22.9390   -4.5480   21.3770 F   0  0  0  0  0  0  0  0  0  0  0  0
  -21.1330   -4.4410   25.7960 F   0  0  0  0  0  0  0  0  0  0  0  0
  -23.4890  -13.8340   21.2200 C   0  0  0  0  0  0  0  0  0  0  0  0
  -22.8260  -13.1000   22.1070 N   0  0  0  0  0  0  0  0  0  0  0  0
  -23.0310  -14.8930   20.7940 O   0  0  0  0  0  0  0  0  0  0  0  0
  -23.2160  -12.2430   22.4670 H   0  0  0  0  0  0  0  0  0  0  0  0
  -21.9170  -13.3990   22.4300 H   0  0  0  0  0  0  0  0  0  0  0  0
  -26.0680  -15.5120   20.3130 N   0  0  0  0  0  0  0  0  0  0  0  0
  -25.3220  -16.1600   20.5410 H   0  0  0  0  0  0  0  0  0  0  0  0
  -26.8640  -15.9620   19.8850 H   0  0  0  0  0  0  0  0  0  0  0  0
  -23.1590  -23.5540   20.4980 N   0  0  0  0  0  4  0  0  0  0  0  0
  -22.9330  -23.5830   19.5170 H   0  0  0  0  0  0  0  0  0  0  0  0
  -22.3580  -23.8470   21.0290 H   0  0  0  0  0  0  0  0  0  0  0  0
  -23.3540  -22.5960   20.7340 H   0  0  0  0  0  0  0  0  0  0  0  0
  -23.7530  -26.2090   20.5730 C   0  0  0  0  0  2  0  0  0  0  0  0
  -19.5570  -26.4000   22.8740 C   0  0  0  0  0  2  0  0  0  0  0  0
  -21.6440  -27.0320   20.7730 C   0  0  0  0  0 15  0  0  0  0  0  0
  -25.4200  -26.7990   20.8250 O   0  0  0  0  0  0  0  0  0  0  0  0
  -24.5910  -32.0880   23.1570 C   0  0  0  0  0  0  0  0  0  0  0  0
  -26.4250  -27.5020   20.0760 C   0  0  0  0  0  3  0  0  0  0  0  0
  -23.4670  -30.8330   21.4050 C   0  0  0  0  0  3  0  0  0  0  0  0
  -24.8370  -29.5460   19.7020 C   0  0  0  0  0  0  0  0  0  0  0  0
  -25.9810  -31.1050   21.3030 C   0  0  0  0  0  2  0  0  0  0  0  0
  -25.9520  -29.8020   20.5100 C   0  0  0  0  0  3  0  0  0  0  0  0
  -26.8790  -28.7460   20.6390 C   0  0  0  0  0  2  0  0  0  0  0  0
  -25.9210  -27.5670   18.8060 C   0  0  0  0  0  2  0  0  0  0  0  0
  -24.8650  -28.4870   18.7700 C   0  0  0  0  0  3  0  0  0  0  0  0
  -23.6260  -30.3990   19.9200 C   0  0  0  0  0  2  0  0  0  0  0  0
  -24.7000  -31.4060   21.9820 N   0  0  0  0  0  0  0  0  0  0  0  0
  -23.4880  -32.2930   23.6900 O   0  0  0  0  0  0  0  0  0  0  0  0
  -23.0600  -29.6610   22.3000 C   0  0  0  0  0  0  0  0  0  0  0  0
  -21.7990  -29.5360   22.5060 N   0  0  0  0  0  0  0  0  0  0  0  0
  -23.8410  -28.8880   22.8440 O   0  0  0  0  0  0  0  0  0  0  0  0
  -21.1560  -30.1950   22.0920 H   0  0  0  0  0  0  0  0  0  0  0  0
  -18.4250  -28.7840   22.4110 C   0  0  0  0  0  0  0  0  0  0  0  0
  -21.2210  -28.4330   23.2140 C   0  0  0  0  0  2  0  0  0  0  0  0
  -21.5070  -26.3450   22.8250 C   0  0  0  0  0  1  0  0  0  0  0  0
  -19.7020  -25.7620   21.5940 C   0  0  0  0  0  1  0  0  0  0  0  0
  -18.4350  -27.2890   21.4110 C   0  0  0  0  0  1  0  0  0  0  0  0
  -19.6750  -29.2880   23.1360 C   0  0  0  0  0  0  0  0  0  0  0  0
  -19.5020  -30.3310   24.1150 C   0  0  0  0  0  3  0  0  0  0  0  0
  -18.2550  -30.8480   24.5400 C   0  0  0  0  0  3  0  0  0  0  0  0
  -17.0840  -30.2740   24.0260 C   0  0  0  0  0  3  0  0  0  0  0  0
  -17.1790  -29.2660   23.0160 C   0  0  0  0  0  3  0  0  0  0  0  0
  -25.8450  -32.6540   23.8680 C   0  0  0  0  0  3  0  0  0  0  0  0
  -25.5130  -34.0260   24.2670 N   0  0  0  0  0  0  0  0  0  0  0  0
  -25.8240  -35.1150   23.5550 C   0  0  0  0  0  0  0  0  0  0  0  0
  -26.5010  -35.0690   22.5250 O   0  0  0  0  0  0  0  0  0  0  0  0
  -24.9130  -34.1320   25.0720 H   0  0  0  0  0  0  0  0  0  0  0  0
  -24.0760  -36.9020   23.2590 C   0  0  0  0  0  1  0  0  0  0  0  0
  -25.3070  -36.4720   24.0720 C   0  0  0  0  0  3  0  0  0  0  0  0
  -27.4180  -37.3320   24.9830 C   0  0  0  0  0  1  0  0  0  0  0  0
  -26.3280  -37.5400   24.0320 N   0  0  0  0  0  0  0  0  0  0  0  0
  -25.9090  -38.4460   24.2240 H   0  0  0  0  0  0  0  0  0  0  0  0
  -26.2900  -31.8020   25.1180 C   0  0  1  0  0  0  0  0  0  0  0  0
  -25.1460  -31.4960   26.1130 C   0  0  0  0  0  1  0  0  0  0  0  0
  -26.9010  -30.4510   24.6800 C   0  0  0  0  0  1  0  0  0  0  0  0
  -27.3990  -32.5600   25.8820 C   0  0  0  0  0  1  0  0  0  0  0  0
  1 51  1  0
  2  6  1  0
  2  4  1  0
  3  6  1  0
  3  1  1  0
  5  4  1  0
  6  9  1  0
  7  3  2  0
  8  5  1  0
  8  2  1  0
 10  5  1  0
 11 10  1  0
 11 17  1  0
 12 17  1  0
 13 14  1  0
 13 12  1  0
 15 14  1  0
 15 22  1  0
 15 16  1  0
 17 16  1  0
 18 11  2  0
 19 20  2  0
 20 39  1  0
 21 24  1  0
 21 20  1  0
 22 23  1  0
 22 19  1  0
 23 21  2  0
 24 25  1  0
 25 26  2  0
 27 30  1  0
 27 26  1  0
 28 27  2  0
 29 28  1  0
 29 24  2  0
 30 31  1  0
 31 36  2  0
 31 32  1  0
 32 33  2  0
 33 34  1  0
 34 38  1  0
 35 34  2  0
 36 35  1  0
 37 36  1  0
 39 40  1  0
 40 43  1  0
 40 42  1  0
 41 39  2  0
 44 19  1  0
 44 45  1  0
 46 44  1  0
 47 50  1  0
 47  1  1  0
 47 49  1  0
 48 47  1  0
 51 54  1  0
 55 66  2  0
 56 61  1  0
 56 54  1  0
 57 65  1  0
 57 67  1  0
 58 64  1  0
 58 60  1  0
 59 65  1  0
 60 61  1  0
 60 59  1  0
 62 56  1  0
 63 62  1  0
 63 58  2  0
 64 57  1  0
 65 55  1  0
 67 68  1  0
 67 69  2  0
 68 72  1  0
 70 68  1  0
 71 80  2  0
 71 76  1  0
 73 52  1  0
 74 52  1  0
 75 71  1  0
 76 72  1  0
 76 77  2  0
 77 78  1  0
 79 78  2  0
 80 79  1  0
 81 55  1  0
 81 82  1  0
 81 91  1  0
 82 85  1  0
 83 87  1  0
 83 82  1  0
 84 83  2  0
 87 86  1  0
 89 87  1  0
 89 90  1  0
 89 88  1  0
 91 94  1  1
 91 92  1  0
 93 91  1  0
M  ISO  4  10 100  11 100  51 101  54 101
M  END
>  <TORSDO>  (19) 
F 21

>  <SCORE>  (19) 
-13.099

>  <name>  (19) 
19

>  <ligand_id>  (19) 
19

>  <original_smiles>  (19) 
[H]c1c([H])c([H])c2c(c1[H])C([H])([H])C([H])([H])C([H])([H])C2([H])N([H])C(=O)C1([H])N(C(=O)C([H])(N([H])C(=O)C([H])(N([H])C([H])([H])[H])C([H])([H])[H])C(C([H])([H])[H])(C([H])([H])[H])C([H])([H])[H])C([H])([H])c2c([H])c(OC([H])(C([H])([H])C([H])([H])[H])C([H])(C(=O)N([H])c3nn(C([H])([H])C(=O)N4C([H])([H])C([H])([H])C([H])([H])C([H])(n5nc(-c6c([H])c([H])c(Oc7c([H])c([H])c(F)c([H])c7F)c([H])c6[H])c(C(=O)N([H])[H])c5N([H])[H])C4([H])[H])s3)[N+]([H])([H])[H])c([H])c([H])c2C1([H])[H]

>  <smiles>  (19) 
[H]c1c([H])c([H])c2c(c1[H])C([H])([H])C([H])([H])C([H])([H])C2([H])N([H])C(=O)C1([H])N(C(=O)C([H])(N([H])C(=O)C([H])(N([H])C([H])([H])[H])C([H])([H])[H])C(C([H])([H])[H])(C([H])([H])[H])C([H])([H])[H])C([H])([H])c2c([H])c(OC([H])(C([H])([H])C([H])([H])[H])C([H])(C(=O)N([H])c3nn(C([H])([H])C(=O)N4C([H])([H])C([H])([H])C([H])([H])C([H])(n5nc(-c6c([H])c([H])c(Oc7c([H])c([H])c(F)c([H])c7F)c([H])c6[H])c(C(=O)N([H])[H])c5N([H])[H])C4([H])[H])s3)[N+]([H])([H])[H])c([H])c([H])c2C1([H])[H]

$$$$
20:0:0
     RDKit          3D

 96104  0  0  1  0  0  0  0  0999 V2000
  -28.9590  -21.6380   20.3090 C   0  0  0  0  0  0  0  0  0  0  0  0
  -29.2880  -20.5180   19.6330 N   0  0  0  0  0  0  0  0  0  0  0  0
  -28.9470  -21.6880   21.5410 O   0  0  0  0  0  0  0  0  0  0  0  0
  -29.2200  -20.5710   18.6250 H   0  0  0  0  0  0  0  0  0  0  0  0
  -30.6320  -14.5100   20.4950 C   0  0  0  0  0  0  0  0  0  0  0  0
  -30.3670  -12.3370   19.3540 C   0  0  0  0  0  2  0  0  0  0  0  0
  -29.4300  -12.5430   18.1450 C   0  0  0  0  0  2  0  0  0  0  0  0
  -27.9530  -12.4070   18.5630 C   0  0  0  0  0  2  0  0  0  0  0  0
  -27.6090  -13.2370   19.8290 C   0  0  0  0  0  3  0  0  0  0  0  0
  -28.6580  -13.0030   20.9410 C   0  0  0  0  0  2  0  0  0  0  0  0
  -29.9850  -13.3160   20.3840 N   0  0  0  0  0  0  0  0  0  0  0  0
  -31.7740  -14.6840   20.0570 O   0  0  0  0  0  0  0  0  0  0  0  0
  -30.9900  -18.9550   20.4850 C   0  0  0  0  0  0  0  0  0  0  0  0
  -29.7030  -19.3230   20.1420 C   0  0  0  0  0  0  0  0  0  0  0  0
  -29.9880  -16.9120   20.7170 C   0  0  0  0  0  0  0  0  0  0  0  0
  -31.1340  -17.5910   20.8020 N   0  0  0  0  0  0  0  0  0  0  0  0
  -29.8700  -15.5140   20.9800 N   0  0  0  0  0  0  0  0  0  0  0  0
  -28.6230  -17.9430   20.2840 S   0  0  0  0  0  0  0  0  0  0  0  0
  -28.9560  -15.2160   21.2760 H   0  0  0  0  0  0  0  0  0  0  0  0
  -25.2090  -13.8530   20.5180 C   0  0  0  0  0  0  0  0  0  0  0  0
  -24.1370  -13.0840   20.8840 C   0  0  0  0  0  0  0  0  0  0  0  0
  -24.5960  -11.7310   20.8650 C   0  0  0  0  0  0  0  0  0  0  0  0
  -26.2530  -12.9680   20.2980 N   0  0  0  0  0  0  0  0  0  0  0  0
  -25.8880  -11.6870   20.5640 N   0  0  0  0  0  0  0  0  0  0  0  0
  -23.8660  -10.4710   21.0560 C   0  0  0  0  0  0  0  0  0  0  0  0
  -24.3030   -9.5000   21.9850 C   0  0  0  0  0  3  0  0  0  0  0  0
  -23.5740   -8.3050   22.1650 C   0  0  0  0  0  3  0  0  0  0  0  0
  -22.3970   -8.0710   21.4160 C   0  0  0  0  0  0  0  0  0  0  0  0
  -21.9800   -9.0300   20.4770 C   0  0  0  0  0  3  0  0  0  0  0  0
  -22.7080  -10.2180   20.2950 C   0  0  0  0  0  3  0  0  0  0  0  0
  -21.6400   -6.9280   21.5050 O   0  0  0  0  0  0  0  0  0  0  0  0
  -21.6060   -6.1760   22.6510 C   0  0  0  0  0  0  0  0  0  0  0  0
  -21.2070   -6.7230   23.8900 C   0  0  0  0  0  3  0  0  0  0  0  0
  -21.1200   -5.8970   25.0290 C   0  0  0  0  0  3  0  0  0  0  0  0
  -21.4210   -4.5260   24.9300 C   0  0  0  0  0  0  0  0  0  0  0  0
  -21.8130   -3.9790   23.6960 C   0  0  0  0  0  3  0  0  0  0  0  0
  -21.9020   -4.8010   22.5590 C   0  0  0  0  0  0  0  0  0  0  0  0
  -22.2600   -4.2630   21.3680 F   0  0  0  0  0  0  0  0  0  0  0  0
  -21.3290   -3.7320   26.0210 F   0  0  0  0  0  0  0  0  0  0  0  0
  -22.7390  -13.5650   21.1430 C   0  0  0  0  0  0  0  0  0  0  0  0
  -22.0040  -12.8750   22.0090 N   0  0  0  0  0  0  0  0  0  0  0  0
  -22.3060  -14.5870   20.6150 O   0  0  0  0  0  0  0  0  0  0  0  0
  -22.3670  -12.0460   22.4570 H   0  0  0  0  0  0  0  0  0  0  0  0
  -21.0660  -13.1790   22.2250 H   0  0  0  0  0  0  0  0  0  0  0  0
  -25.3760  -15.2220   20.3310 N   0  0  0  0  0  0  0  0  0  0  0  0
  -24.6030  -15.8720   20.4210 H   0  0  0  0  0  0  0  0  0  0  0  0
  -26.2130  -15.6540   19.9620 H   0  0  0  0  0  0  0  0  0  0  0  0
  -32.9500  -19.8310   21.8070 C   0  0  0  0  0  1  0  0  0  0  0  0
  -32.2170  -19.8320   20.4540 C   0  0  0  0  0  3  0  0  0  0  0  0
  -32.5080  -19.6560   17.9010 C   0  0  0  0  0  1  0  0  0  0  0  0
  -33.1570  -19.4840   19.2830 C   0  0  0  0  0  2  0  0  0  0  0  0
  -27.3800  -22.5990   18.5640 C   0  0  0  0  0  1  0  0  0  0  0  0
  -28.6040  -22.8890   19.4550 C   0  0  0  0  0  3  0  0  0  0  0  0
  -28.4070  -24.2170   20.2630 C   0  0  0  0  0  2  0  0  0  0  0  0
  -28.5920  -25.5090   19.4150 C   0  0  0  0  0  2  0  0  0  0  0  0
  -28.4270  -26.7330   20.1580 O   0  0  0  0  0  0  0  0  0  0  0  0
  -24.5890  -31.8960   23.2330 C   0  0  0  0  0  0  0  0  0  0  0  0
  -27.2280  -27.4290   20.1500 C   0  0  0  0  0  0  0  0  0  0  0  0
  -23.3800  -30.4970   21.5940 C   0  0  0  0  0  3  0  0  0  0  0  0
  -24.8290  -28.9490   20.1730 C   0  0  0  0  0  0  0  0  0  0  0  0
  -25.9070  -30.8420   21.3960 C   0  0  0  0  0  2  0  0  0  0  0  0
  -25.9880  -29.4690   20.7590 C   0  0  0  0  0  0  0  0  0  0  0  0
  -27.1850  -28.7140   20.7450 C   0  0  0  0  0  3  0  0  0  0  0  0
  -26.0370  -26.9170   19.5810 C   0  0  0  0  0  3  0  0  0  0  0  0
  -24.8470  -27.6730   19.5850 C   0  0  0  0  0  3  0  0  0  0  0  0
  -23.5890  -29.8140   20.2160 C   0  0  0  0  0  2  0  0  0  0  0  0
  -24.6440  -31.0930   22.1340 N   0  0  0  0  0  0  0  0  0  0  0  0
  -23.5080  -32.1710   23.7730 O   0  0  0  0  0  0  0  0  0  0  0  0
  -22.7250  -29.4770   22.5550 C   0  0  0  0  0  0  0  0  0  0  0  0
  -21.4000  -29.3010   22.4310 N   0  0  0  0  0  0  0  0  0  0  0  0
  -23.4090  -28.8500   23.3690 O   0  0  0  0  0  0  0  0  0  0  0  0
  -20.9090  -29.8630   21.7500 H   0  0  0  0  0  0  0  0  0  0  0  0
  -18.0240  -28.1200   22.9420 C   0  0  0  0  0  0  0  0  0  0  0  0
  -20.5830  -28.3660   23.2040 C   0  0  0  0  0  3  0  0  0  0  0  0
  -20.6760  -26.9350   22.6270 C   0  0  0  0  0  2  0  0  0  0  0  0
  -19.5700  -26.6180   21.6150 C   0  0  0  0  0  2  0  0  0  0  0  0
  -18.1910  -26.7700   22.2630 C   0  0  0  0  0  2  0  0  0  0  0  0
  -19.1470  -28.8770   23.3690 C   0  0  0  0  0  0  0  0  0  0  0  0
  -18.9360  -30.1410   23.9610 C   0  0  0  0  0  3  0  0  0  0  0  0
  -17.6340  -30.6490   24.1280 C   0  0  0  0  0  3  0  0  0  0  0  0
  -16.5260  -29.8910   23.7160 C   0  0  0  0  0  3  0  0  0  0  0  0
  -16.7210  -28.6270   23.1310 C   0  0  0  0  0  3  0  0  0  0  0  0
  -25.8750  -32.5270   23.8530 C   0  0  0  0  0  3  0  0  0  0  0  0
  -25.5680  -33.9260   24.1820 N   0  0  0  0  0  0  0  0  0  0  0  0
  -25.9060  -34.9770   23.4230 C   0  0  0  0  0  0  0  0  0  0  0  0
  -26.5780  -34.8710   22.3930 O   0  0  0  0  0  0  0  0  0  0  0  0
  -24.9730  -34.0810   24.9820 H   0  0  0  0  0  0  0  0  0  0  0  0
  -24.1830  -36.7750   23.0600 C   0  0  0  0  0  1  0  0  0  0  0  0
  -25.4200  -36.3670   23.8770 C   0  0  0  0  0  3  0  0  0  0  0  0
  -27.5540  -37.2450   24.7190 C   0  0  0  0  0  1  0  0  0  0  0  0
  -26.4570  -37.4180   23.7700 N   0  0  0  0  0  0  0  0  0  0  0  0
  -26.0540  -38.3380   23.9180 H   0  0  0  0  0  0  0  0  0  0  0  0
  -26.3960  -31.7550   25.1270 C   0  0  1  0  0  0  0  0  0  0  0  0
  -25.3060  -31.5170   26.1990 C   0  0  0  0  0  1  0  0  0  0  0  0
  -26.9750  -30.3780   24.7300 C   0  0  0  0  0  1  0  0  0  0  0  0
  -27.5520  -32.5480   25.7850 C   0  0  0  0  0  1  0  0  0  0  0  0
  1  3  2  0
  2 14  1  0
  2  1  1  0
  4  2  1  0
  5 17  1  0
  6 11  1  0
  7  8  1  0
  7  6  1  0
  9  8  1  0
  9 23  1  0
  9 10  1  0
 11  5  1  0
 11 10  1  0
 12  5  2  0
 13 16  1  0
 14 18  1  0
 14 13  2  0
 15 16  2  0
 15 17  1  0
 17 19  1  0
 18 15  1  0
 20 21  2  0
 21 40  1  0
 22 21  1  0
 22 25  1  0
 23 20  1  0
 23 24  1  0
 24 22  2  0
 25 26  1  0
 26 27  2  0
 28 31  1  0
 28 27  1  0
 29 28  2  0
 30 29  1  0
 30 25  2  0
 31 32  1  0
 32 33  1  0
 33 34  2  0
 35 34  1  0
 35 39  1  0
 36 35  2  0
 37 32  2  0
 37 36  1  0
 38 37  1  0
 40 41  1  0
 41 44  1  0
 41 43  1  0
 42 40  2  0
 45 46  1  0
 45 20  1  0
 47 45  1  0
 49 13  1  0
 49 48  1  0
 50 51  1  0
 51 49  1  0
 53 52  1  0
 53 54  1  0
 53  1  1  0
 55 56  1  0
 55 54  1  0
 57 68  2  0
 58 56  1  0
 58 63  1  0
 59 67  1  0
 59 69  1  0
 60 66  1  0
 60 62  1  0
 61 67  1  0
 62 61  1  0
 63 62  2  0
 64 65  1  0
 64 58  2  0
 65 60  2  0
 66 59  1  0
 67 57  1  0
 69 71  2  0
 70 69  1  0
 72 70  1  0
 73 82  2  0
 73 78  1  0
 74 70  1  0
 74 78  1  0
 75 74  1  0
 76 77  1  0
 76 75  1  0
 77 73  1  0
 78 79  2  0
 79 80  1  0
 81 80  2  0
 82 81  1  0
 83 57  1  0
 83 84  1  0
 83 93  1  0
 84 87  1  0
 85 89  1  0
 85 84  1  0
 86 85  2  0
 89 88  1  0
 91 89  1  0
 91 92  1  0
 91 90  1  0
 93 96  1  1
 93 94  1  0
 95 93  1  0
M  ISO  4   5 100  17 100  55 101  56 101
M  END
>  <TORSDO>  (20) 
F 21

>  <SCORE>  (20) 
-13.941

>  <name>  (20) 
20

>  <ligand_id>  (20) 
20

>  <original_smiles>  (20) 
[H]c1c([H])c([H])c2c(c1[H])C([H])([H])C([H])([H])C([H])([H])C2([H])N([H])C(=O)C1([H])N(C(=O)C([H])(N([H])C(=O)C([H])(N([H])C([H])([H])[H])C([H])([H])[H])C(C([H])([H])[H])(C([H])([H])[H])C([H])([H])[H])C([H])([H])c2c([H])c(OC([H])([H])C([H])([H])C([H])(C(=O)N([H])c3sc(N([H])C(=O)N4C([H])([H])C([H])([H])C([H])([H])C([H])(n5nc(-c6c([H])c([H])c(Oc7c([H])c([H])c(F)c([H])c7F)c([H])c6[H])c(C(=O)N([H])[H])c5N([H])[H])C4([H])[H])nc3C([H])(C([H])([H])[H])C([H])([H])C([H])([H])[H])C([H])([H])[H])c([H])c([H])c2C1([H])[H]

>  <smiles>  (20) 
[H]c1c([H])c([H])c2c(c1[H])C([H])([H])C([H])([H])C([H])([H])C2([H])N([H])C(=O)C1([H])N(C(=O)C([H])(N([H])C(=O)C([H])(N([H])C([H])([H])[H])C([H])([H])[H])C(C([H])([H])[H])(C([H])([H])[H])C([H])([H])[H])C([H])([H])c2c([H])c(OC([H])([H])C([H])([H])C([H])(C(=O)N([H])c3sc(N([H])C(=O)N4C([H])([H])C([H])([H])C([H])([H])C([H])(n5nc(-c6c([H])c([H])c(Oc7c([H])c([H])c(F)c([H])c7F)c([H])c6[H])c(C(=O)N([H])[H])c5N([H])[H])C4([H])[H])nc3C([H])(C([H])([H])[H])C([H])([H])C([H])([H])[H])C([H])([H])[H])c([H])c([H])c2C1([H])[H]

$$$$
21:0:0
     RDKit          3D

 95103  0  0  1  0  0  0  0  0999 V2000
  -29.8120  -18.9420   20.2300 C   0  0  0  0  0  0  0  0  0  0  0  0
  -30.9320  -19.5420   20.8150 C   0  0  0  0  0  0  0  0  0  0  0  0
  -29.1780  -21.2870   20.2550 C   0  0  0  0  0  0  0  0  0  0  0  0
  -28.5160  -23.8390   20.3190 C   0  0  0  0  0  0  0  0  0  0  0  0
  -28.8750  -19.9980   19.8690 N   0  0  0  0  0  0  0  0  0  0  0  0
  -28.5180  -22.5410   19.7970 N   0  0  0  0  0  0  0  0  0  0  0  0
  -28.7850  -24.0340   21.5070 O   0  0  0  0  0  0  0  0  0  0  0  0
  -30.6520  -21.2620   21.1940 S   0  0  0  0  0  0  0  0  0  0  0  0
  -28.1180  -22.4710   18.8720 H   0  0  0  0  0  0  0  0  0  0  0  0
  -32.9390  -18.4400   19.7580 C   0  0  0  0  0  1  0  0  0  0  0  0
  -32.2820  -17.8540   22.1350 C   0  0  0  0  0  1  0  0  0  0  0  0
  -33.3260  -20.0260   21.5780 C   0  0  0  0  0  1  0  0  0  0  0  0
  -32.3200  -18.9610   21.0700 C   0  0  2  0  0  0  0  0  0  0  0  0
  -27.2650  -24.7390   18.2080 C   0  0  0  0  0  1  0  0  0  0  0  0
  -28.1580  -25.1280   19.4030 C   0  0  0  0  0  3  0  0  0  0  0  0
  -28.0370  -26.5250   20.0320 O   0  0  0  0  0  0  0  0  0  0  0  0
  -24.4800  -32.0460   23.2320 C   0  0  0  0  0  0  0  0  0  0  0  0
  -26.9210  -27.4170   20.0240 C   0  0  0  0  0  0  0  0  0  0  0  0
  -23.2140  -30.6880   21.6130 C   0  0  0  0  0  3  0  0  0  0  0  0
  -24.5960  -29.1400   20.1190 C   0  0  0  0  0  0  0  0  0  0  0  0
  -25.7600  -30.9500   21.3650 C   0  0  0  0  0  2  0  0  0  0  0  0
  -25.7960  -29.5750   20.6900 C   0  0  0  0  0  0  0  0  0  0  0  0
  -26.9570  -28.7290   20.6290 C   0  0  0  0  0  3  0  0  0  0  0  0
  -25.6730  -27.0520   19.4720 C   0  0  0  0  0  3  0  0  0  0  0  0
  -24.5420  -27.8860   19.4990 C   0  0  0  0  0  3  0  0  0  0  0  0
  -23.3780  -30.0370   20.2170 C   0  0  0  0  0  2  0  0  0  0  0  0
  -24.5070  -31.2470   22.1240 N   0  0  0  0  0  0  0  0  0  0  0  0
  -23.4150  -32.3310   23.7990 O   0  0  0  0  0  0  0  0  0  0  0  0
  -22.5650  -29.6630   22.5760 C   0  0  0  0  0  0  0  0  0  0  0  0
  -21.2410  -29.4710   22.4550 N   0  0  0  0  0  0  0  0  0  0  0  0
  -23.2540  -29.0490   23.3950 O   0  0  0  0  0  0  0  0  0  0  0  0
  -20.7450  -30.0140   21.7620 H   0  0  0  0  0  0  0  0  0  0  0  0
  -17.8860  -28.2040   22.9440 C   0  0  0  0  0  0  0  0  0  0  0  0
  -20.4350  -28.5250   23.2320 C   0  0  0  0  0  3  0  0  0  0  0  0
  -20.5760  -27.0900   22.6750 C   0  0  0  0  0  2  0  0  0  0  0  0
  -19.4880  -26.7300   21.6580 C   0  0  0  0  0  2  0  0  0  0  0  0
  -18.0980  -26.8520   22.2870 C   0  0  0  0  0  2  0  0  0  0  0  0
  -18.9830  -28.9980   23.3740 C   0  0  0  0  0  0  0  0  0  0  0  0
  -18.7310  -30.2630   23.9480 C   0  0  0  0  0  3  0  0  0  0  0  0
  -17.4140  -30.7360   24.0970 C   0  0  0  0  0  3  0  0  0  0  0  0
  -16.3300  -29.9420   23.6850 C   0  0  0  0  0  3  0  0  0  0  0  0
  -16.5680  -28.6770   23.1150 C   0  0  0  0  0  3  0  0  0  0  0  0
  -25.7870  -32.6560   23.8260 C   0  0  0  0  0  3  0  0  0  0  0  0
  -26.3170  -31.8740   25.0910 C   0  0  1  0  0  0  0  0  0  0  0  0
  -25.2360  -31.6430   26.1730 C   0  0  0  0  0  1  0  0  0  0  0  0
  -26.8790  -30.4910   24.6860 C   0  0  0  0  0  1  0  0  0  0  0  0
  -27.4870  -32.6530   25.7360 C   0  0  0  0  0  1  0  0  0  0  0  0
  -25.5090  -34.0590   24.1660 N   0  0  0  0  0  0  0  0  0  0  0  0
  -25.8530  -35.1110   23.4110 C   0  0  0  0  0  0  0  0  0  0  0  0
  -26.5080  -35.0000   22.3720 O   0  0  0  0  0  0  0  0  0  0  0  0
  -24.9250  -34.2200   24.9750 H   0  0  0  0  0  0  0  0  0  0  0  0
  -24.1620  -36.9430   23.0790 C   0  0  0  0  0  1  0  0  0  0  0  0
  -25.3970  -36.5060   23.8820 C   0  0  0  0  0  3  0  0  0  0  0  0
  -27.5500  -37.3370   24.7210 C   0  0  0  0  0  1  0  0  0  0  0  0
  -26.4540  -37.5360   23.7770 N   0  0  0  0  0  0  0  0  0  0  0  0
  -26.0670  -38.4640   23.9300 H   0  0  0  0  0  0  0  0  0  0  0  0
  -29.6350  -17.4380   19.6910 C   0  0  0  0  0  2  0  0  0  0  0  0
  -30.4760  -14.9830   20.2020 C   0  0  0  0  0  0  0  0  0  0  0  0
  -30.2820  -12.6760   19.2590 C   0  0  0  0  0  2  0  0  0  0  0  0
  -29.3090  -12.7340   18.0570 C   0  0  0  0  0  2  0  0  0  0  0  0
  -27.8580  -12.5330   18.5290 C   0  0  0  0  0  2  0  0  0  0  0  0
  -27.5050  -13.4180   19.7530 C   0  0  0  0  0  3  0  0  0  0  0  0
  -28.5990  -13.3700   20.8450 C   0  0  0  0  0  2  0  0  0  0  0  0
  -29.8740  -13.7390   20.2140 N   0  0  0  0  0  0  0  0  0  0  0  0
  -31.6160  -15.0890   19.7460 O   0  0  0  0  0  0  0  0  0  0  0  0
  -29.7190  -16.1170   20.4800 N   0  0  0  0  0  0  0  0  0  0  0  0
  -28.8790  -15.9140   21.0030 H   0  0  0  0  0  0  0  0  0  0  0  0
  -25.1380  -13.9600   20.5750 C   0  0  0  0  0  0  0  0  0  0  0  0
  -24.0950  -13.1620   20.9640 C   0  0  0  0  0  0  0  0  0  0  0  0
  -24.5730  -11.8180   20.8880 C   0  0  0  0  0  0  0  0  0  0  0  0
  -26.1830  -13.0990   20.2850 N   0  0  0  0  0  0  0  0  0  0  0  0
  -25.8520  -11.8040   20.5310 N   0  0  0  0  0  0  0  0  0  0  0  0
  -23.8680  -10.5440   21.0750 C   0  0  0  0  0  0  0  0  0  0  0  0
  -24.3280   -9.5720   21.9890 C   0  0  0  0  0  3  0  0  0  0  0  0
  -23.6200   -8.3630   22.1650 C   0  0  0  0  0  3  0  0  0  0  0  0
  -22.4380   -8.1190   21.4240 C   0  0  0  0  0  0  0  0  0  0  0  0
  -21.9950   -9.0810   20.4990 C   0  0  0  0  0  3  0  0  0  0  0  0
  -22.7050  -10.2800   20.3230 C   0  0  0  0  0  3  0  0  0  0  0  0
  -21.6970   -6.9640   21.5130 O   0  0  0  0  0  0  0  0  0  0  0  0
  -21.6590   -6.2200   22.6650 C   0  0  0  0  0  0  0  0  0  0  0  0
  -21.1850   -6.7580   23.8820 C   0  0  0  0  0  3  0  0  0  0  0  0
  -21.0960   -5.9410   25.0260 C   0  0  0  0  0  3  0  0  0  0  0  0
  -21.4670   -4.5840   24.9530 C   0  0  0  0  0  0  0  0  0  0  0  0
  -21.9340   -4.0450   23.7410 C   0  0  0  0  0  3  0  0  0  0  0  0
  -22.0250   -4.8600   22.6000 C   0  0  0  0  0  0  0  0  0  0  0  0
  -22.4560   -4.3320   21.4280 F   0  0  0  0  0  0  0  0  0  0  0  0
  -21.3760   -3.7950   26.0500 F   0  0  0  0  0  0  0  0  0  0  0  0
  -22.7060  -13.6160   21.3000 C   0  0  0  0  0  0  0  0  0  0  0  0
  -22.0150  -12.8860   22.1700 N   0  0  0  0  0  0  0  0  0  0  0  0
  -22.2390  -14.6510   20.8260 O   0  0  0  0  0  0  0  0  0  0  0  0
  -22.4110  -12.0510   22.5750 H   0  0  0  0  0  0  0  0  0  0  0  0
  -21.0820  -13.1700   22.4340 H   0  0  0  0  0  0  0  0  0  0  0  0
  -25.2800  -15.3370   20.4220 N   0  0  0  0  0  0  0  0  0  0  0  0
  -24.5040  -15.9780   20.5570 H   0  0  0  0  0  0  0  0  0  0  0  0
  -26.1020  -15.7910   20.0470 H   0  0  0  0  0  0  0  0  0  0  0  0
  1  2  2  0
  2 13  1  0
  2  8  1  0
  3  8  1  0
  4  7  2  0
  5  1  1  0
  5  3  2  0
  6  3  1  0
  6  4  1  0
  9  6  1  0
 13 10  1  6
 13 12  1  0
 13 11  1  0
 15 14  1  0
 15 16  1  0
 15  4  1  0
 17 28  2  0
 18 16  1  0
 18 23  1  0
 19 27  1  0
 19 29  1  0
 20 26  1  0
 20 22  1  0
 21 27  1  0
 22 21  1  0
 23 22  2  0
 24 25  1  0
 24 18  2  0
 25 20  2  0
 26 19  1  0
 27 17  1  0
 29 31  2  0
 30 29  1  0
 32 30  1  0
 33 42  2  0
 33 38  1  0
 34 30  1  0
 34 38  1  0
 35 34  1  0
 36 37  1  0
 36 35  1  0
 37 33  1  0
 38 39  2  0
 39 40  1  0
 41 40  2  0
 42 41  1  0
 43 17  1  0
 43 48  1  0
 43 44  1  0
 44 47  1  1
 44 45  1  0
 46 44  1  0
 48 51  1  0
 49 53  1  0
 49 48  1  0
 50 49  2  0
 53 52  1  0
 55 53  1  0
 55 56  1  0
 55 54  1  0
 57  1  1  0
 57 66  1  0
 58 64  1  0
 58 66  1  0
 59 64  1  0
 60 61  1  0
 60 59  1  0
 62 61  1  0
 62 71  1  0
 62 63  1  0
 64 63  1  0
 65 58  2  0
 66 67  1  0
 68 69  2  0
 69 88  1  0
 70 69  1  0
 70 73  1  0
 71 72  1  0
 71 68  1  0
 72 70  2  0
 73 74  1  0
 74 75  2  0
 76 79  1  0
 76 75  1  0
 77 76  2  0
 78 77  1  0
 78 73  2  0
 79 80  1  0
 80 81  1  0
 81 82  2  0
 83 82  1  0
 83 87  1  0
 84 83  2  0
 85 80  2  0
 85 84  1  0
 86 85  1  0
 88 89  1  0
 89 92  1  0
 89 91  1  0
 90 88  2  0
 93 94  1  0
 93 68  1  0
 95 93  1  0
M  ISO  4  15 101  16 101  58 100  66 100
M  END
>  <TORSDO>  (21) 
F 19

>  <SCORE>  (21) 
-13.419

>  <name>  (21) 
21

>  <ligand_id>  (21) 
21

>  <original_smiles>  (21) 
[H]c1c([H])c([H])c2c(c1[H])C([H])([H])C([H])([H])C([H])([H])C2([H])N([H])C(=O)C1([H])N(C(=O)C([H])(N([H])C(=O)C([H])(N([H])C([H])([H])[H])C([H])([H])[H])C(C([H])([H])[H])(C([H])([H])[H])C([H])([H])[H])C([H])([H])c2c([H])c(OC([H])(C(=O)N([H])c3nc(C([H])([H])N([H])C(=O)N4C([H])([H])C([H])([H])C([H])([H])C([H])(n5nc(-c6c([H])c([H])c(Oc7c([H])c([H])c(F)c([H])c7F)c([H])c6[H])c(C(=O)N([H])[H])c5N([H])[H])C4([H])[H])c(C(C([H])([H])[H])(C([H])([H])[H])C([H])([H])[H])s3)C([H])([H])[H])c([H])c([H])c2C1([H])[H]

>  <smiles>  (21) 
[H]c1c([H])c([H])c2c(c1[H])C([H])([H])C([H])([H])C([H])([H])C2([H])N([H])C(=O)C1([H])N(C(=O)C([H])(N([H])C(=O)C([H])(N([H])C([H])([H])[H])C([H])([H])[H])C(C([H])([H])[H])(C([H])([H])[H])C([H])([H])[H])C([H])([H])c2c([H])c(OC([H])(C(=O)N([H])c3nc(C([H])([H])N([H])C(=O)N4C([H])([H])C([H])([H])C([H])([H])C([H])(n5nc(-c6c([H])c([H])c(Oc7c([H])c([H])c(F)c([H])c7F)c([H])c6[H])c(C(=O)N([H])[H])c5N([H])[H])C4([H])[H])c(C(C([H])([H])[H])(C([H])([H])[H])C([H])([H])[H])s3)C([H])([H])[H])c([H])c([H])c2C1([H])[H]

$$$$
22:0:0
     RDKit          3D

 92100  0  0  1  0  0  0  0  0999 V2000
  -30.5600  -23.6760   20.5540 C   0  0  0  0  0  1  0  0  0  0  0  0
  -29.0930  -23.1920   20.4880 C   0  0  0  0  0  0  0  0  0  0  0  0
  -26.6540  -23.9490   19.9780 C   0  0  0  0  0  1  0  0  0  0  0  0
  -28.5210  -24.6530   18.3530 C   0  0  0  0  0  1  0  0  0  0  0  0
  -28.1240  -24.4890   19.8440 C   0  0  2  0  0  0  0  0  0  0  0  0
  -28.1990  -26.0310   20.3010 O   0  0  0  0  0  0  0  0  0  0  0  0
  -24.6280  -31.8760   23.2700 C   0  0  0  0  0  0  0  0  0  0  0  0
  -27.1920  -27.0990   20.1810 C   0  0  0  0  0  0  0  0  0  0  0  0
  -23.4320  -30.4820   21.6230 C   0  0  0  0  0  3  0  0  0  0  0  0
  -24.8880  -28.9230   20.1610 C   0  0  0  0  0  0  0  0  0  0  0  0
  -25.9940  -30.7070   21.4900 C   0  0  0  0  0  2  0  0  0  0  0  0
  -26.0560  -29.3160   20.8220 C   0  0  0  0  0  0  0  0  0  0  0  0
  -27.1970  -28.4110   20.8360 C   0  0  0  0  0  3  0  0  0  0  0  0
  -26.0390  -26.8910   19.3970 C   0  0  0  0  0  3  0  0  0  0  0  0
  -24.9070  -27.7370   19.4110 C   0  0  0  0  0  3  0  0  0  0  0  0
  -23.6560  -29.8180   20.2340 C   0  0  0  0  0  2  0  0  0  0  0  0
  -24.7040  -31.0490   22.1780 N   0  0  0  0  0  0  0  0  0  0  0  0
  -23.5420  -32.1630   23.7930 O   0  0  0  0  0  0  0  0  0  0  0  0
  -22.7480  -29.4760   22.5820 C   0  0  0  0  0  0  0  0  0  0  0  0
  -21.4190  -29.3130   22.4600 N   0  0  0  0  0  0  0  0  0  0  0  0
  -23.4150  -28.8490   23.4100 O   0  0  0  0  0  0  0  0  0  0  0  0
  -20.9370  -29.8680   21.7670 H   0  0  0  0  0  0  0  0  0  0  0  0
  -18.0320  -28.1010   22.9480 C   0  0  0  0  0  0  0  0  0  0  0  0
  -20.5930  -28.3780   23.2290 C   0  0  0  0  0  3  0  0  0  0  0  0
  -20.7010  -26.9430   22.6590 C   0  0  0  0  0  2  0  0  0  0  0  0
  -19.6060  -26.6140   21.6400 C   0  0  0  0  0  2  0  0  0  0  0  0
  -18.2190  -26.7530   22.2740 C   0  0  0  0  0  2  0  0  0  0  0  0
  -19.1470  -28.8730   23.3830 C   0  0  0  0  0  0  0  0  0  0  0  0
  -18.9130  -30.1310   23.9770 C   0  0  0  0  0  3  0  0  0  0  0  0
  -17.6030  -30.6230   24.1350 C   0  0  0  0  0  3  0  0  0  0  0  0
  -16.5060  -29.8490   23.7150 C   0  0  0  0  0  3  0  0  0  0  0  0
  -16.7230  -28.5890   23.1320 C   0  0  0  0  0  3  0  0  0  0  0  0
  -25.9080  -32.5060   23.9000 C   0  0  0  0  0  3  0  0  0  0  0  0
  -25.6050  -33.9100   24.2270 N   0  0  0  0  0  0  0  0  0  0  0  0
  -25.9290  -34.9640   23.4660 C   0  0  0  0  0  0  0  0  0  0  0  0
  -26.5820  -34.8550   22.4230 O   0  0  0  0  0  0  0  0  0  0  0  0
  -25.0250  -34.0700   25.0370 H   0  0  0  0  0  0  0  0  0  0  0  0
  -24.1910  -36.7590   23.1570 C   0  0  0  0  0  1  0  0  0  0  0  0
  -25.4570  -36.3560   23.9310 C   0  0  0  0  0  3  0  0  0  0  0  0
  -27.6140  -37.2440   24.6940 C   0  0  0  0  0  1  0  0  0  0  0  0
  -26.4850  -37.4090   23.7840 N   0  0  0  0  0  0  0  0  0  0  0  0
  -26.0820  -38.3280   23.9410 H   0  0  0  0  0  0  0  0  0  0  0  0
  -26.4110  -31.7400   25.1870 C   0  0  1  0  0  0  0  0  0  0  0  0
  -25.3060  -31.5220   26.2470 C   0  0  0  0  0  1  0  0  0  0  0  0
  -26.9830  -30.3510   24.8220 C   0  0  0  0  0  1  0  0  0  0  0  0
  -27.5700  -32.5290   25.8420 C   0  0  0  0  0  1  0  0  0  0  0  0
  -28.9870  -21.6570   20.0460 N   0  0  0  0  0  4  0  0  0  0  0  0
  -28.1670  -21.5210   19.4630 H   0  0  0  0  0  0  0  0  0  0  0  0
  -30.4730  -15.0680   20.3420 C   0  0  0  0  0  0  0  0  0  0  0  0
  -30.3850  -12.6940   19.4200 C   0  0  0  0  0  2  0  0  0  0  0  0
  -29.4660  -12.5760   18.1830 C   0  0  0  0  0  2  0  0  0  0  0  0
  -27.9950  -12.3670   18.5950 C   0  0  0  0  0  2  0  0  0  0  0  0
  -27.5650  -13.3110   19.7510 C   0  0  0  0  0  3  0  0  0  0  0  0
  -28.6080  -13.3700   20.8840 C   0  0  0  0  0  2  0  0  0  0  0  0
  -29.8700  -13.8070   20.2680 N   0  0  0  0  0  0  0  0  0  0  0  0
  -31.6960  -15.1010   20.1890 O   0  0  0  0  0  0  0  0  0  0  0  0
  -29.6480  -20.3030   20.3920 C   0  0  0  0  0  0  0  0  0  0  0  0
  -30.8510  -20.0780   21.0580 C   0  0  0  0  0  0  0  0  0  0  0  0
  -29.9670  -17.7790   20.4420 C   0  0  0  0  0  0  0  0  0  0  0  0
  -29.1890  -18.9100   20.0700 N   0  0  0  0  0  0  0  0  0  0  0  0
  -29.6850  -16.2670   20.2800 N   0  0  0  0  0  0  0  0  0  0  0  0
  -31.6670  -21.0580   21.5170 F   0  0  0  0  0  0  0  0  0  0  0  0
  -31.3810  -18.3920   21.2830 S   0  0  0  0  0  0  0  0  0  0  0  0
  -28.7180  -16.0660   20.0860 H   0  0  0  0  0  0  0  0  0  0  0  0
  -25.1750  -13.8890   20.4540 C   0  0  0  0  0  0  0  0  0  0  0  0
  -24.1090  -13.1150   20.8170 C   0  0  0  0  0  0  0  0  0  0  0  0
  -24.5780  -11.7660   20.8090 C   0  0  0  0  0  0  0  0  0  0  0  0
  -26.2250  -13.0110   20.2410 N   0  0  0  0  0  0  0  0  0  0  0  0
  -25.8750  -11.7310   20.5290 N   0  0  0  0  0  0  0  0  0  0  0  0
  -23.8530  -10.5020   20.9960 C   0  0  0  0  0  0  0  0  0  0  0  0
  -24.2720   -9.5510   21.9520 C   0  0  0  0  0  3  0  0  0  0  0  0
  -23.5520   -8.3490   22.1310 C   0  0  0  0  0  3  0  0  0  0  0  0
  -22.3970   -8.0910   21.3550 C   0  0  0  0  0  0  0  0  0  0  0  0
  -21.9960   -9.0280   20.3860 C   0  0  0  0  0  3  0  0  0  0  0  0
  -22.7180  -10.2220   20.2090 C   0  0  0  0  0  3  0  0  0  0  0  0
  -21.6480   -6.9400   21.4420 O   0  0  0  0  0  0  0  0  0  0  0  0
  -21.5740   -6.2160   22.6040 C   0  0  0  0  0  0  0  0  0  0  0  0
  -21.1040   -6.7820   23.8110 C   0  0  0  0  0  3  0  0  0  0  0  0
  -20.9860   -5.9820   24.9630 C   0  0  0  0  0  3  0  0  0  0  0  0
  -21.3170   -4.6140   24.9110 C   0  0  0  0  0  0  0  0  0  0  0  0
  -21.7810   -4.0490   23.7090 C   0  0  0  0  0  3  0  0  0  0  0  0
  -21.9030   -4.8480   22.5590 C   0  0  0  0  0  0  0  0  0  0  0  0
  -22.3260   -4.2920   21.3990 F   0  0  0  0  0  0  0  0  0  0  0  0
  -21.1950   -3.8420   26.0160 F   0  0  0  0  0  0  0  0  0  0  0  0
  -22.7040  -13.5850   21.0470 C   0  0  0  0  0  0  0  0  0  0  0  0
  -21.9580  -12.8970   21.9070 N   0  0  0  0  0  0  0  0  0  0  0  0
  -22.2730  -14.6020   20.5030 O   0  0  0  0  0  0  0  0  0  0  0  0
  -22.3150  -12.0790   22.3770 H   0  0  0  0  0  0  0  0  0  0  0  0
  -21.0110  -13.1920   22.0970 H   0  0  0  0  0  0  0  0  0  0  0  0
  -25.3470  -15.2560   20.2550 N   0  0  0  0  0  0  0  0  0  0  0  0
  -24.6020  -15.9360   20.3620 H   0  0  0  0  0  0  0  0  0  0  0  0
  -26.1880  -15.6580   19.8660 H   0  0  0  0  0  0  0  0  0  0  0  0
  2  1  1  0
  5  4  1  6
  5  3  1  0
  5  6  1  0
  5  2  1  0
  7 18  2  0
  8  6  1  0
  8 13  1  0
  9 17  1  0
  9 19  1  0
 10 16  1  0
 10 12  1  0
 11 17  1  0
 12 13  2  0
 12 11  1  0
 14 15  1  0
 14  8  2  0
 15 10  2  0
 16  9  1  0
 17  7  1  0
 19 21  2  0
 20 19  1  0
 22 20  1  0
 23 32  2  0
 23 28  1  0
 24 20  1  0
 24 28  1  0
 25 24  1  0
 26 27  1  0
 26 25  1  0
 27 23  1  0
 28 29  2  0
 29 30  1  0
 31 30  2  0
 32 31  1  0
 33  7  1  0
 33 34  1  0
 33 43  1  0
 34 37  1  0
 35 39  1  0
 35 34  1  0
 36 35  2  0
 39 38  1  0
 41 39  1  0
 41 42  1  0
 41 40  1  0
 43 46  1  1
 43 44  1  0
 45 43  1  0
 47 57  1  0
 47  2  2  0
 48 47  1  0
 50 55  1  0
 51 52  1  0
 51 50  1  0
 53 52  1  0
 53 68  1  0
 53 54  1  0
 55 49  1  0
 55 54  1  0
 56 49  2  0
 57 58  2  0
 58 63  1  0
 58 62  1  0
 59 63  1  0
 60 57  1  0
 60 59  2  0
 61 49  1  0
 61 59  1  0
 64 61  1  0
 65 66  2  0
 66 85  1  0
 67 66  1  0
 67 70  1  0
 68 65  1  0
 68 69  1  0
 69 67  2  0
 70 71  1  0
 71 72  2  0
 73 76  1  0
 73 72  1  0
 74 73  2  0
 75 74  1  0
 75 70  2  0
 76 77  1  0
 77 78  1  0
 78 79  2  0
 80 79  1  0
 80 84  1  0
 81 80  2  0
 82 77  2  0
 82 81  1  0
 83 82  1  0
 85 86  1  0
 86 89  1  0
 86 88  1  0
 87 85  2  0
 90 91  1  0
 90 65  1  0
 92 90  1  0
M  ISO  4   5 101   6 101  49 100  61 100
M  END
>  <TORSDO>  (22) 
F 18

>  <SCORE>  (22) 
-15.142

>  <name>  (22) 
22

>  <ligand_id>  (22) 
22

>  <original_smiles>  (22) 
[H]c1c([H])c([H])c2c(c1[H])C([H])([H])C([H])([H])C([H])([H])C2([H])N([H])C(=O)C1([H])N(C(=O)C([H])(N([H])C(=O)C([H])(N([H])C([H])([H])[H])C([H])([H])[H])C(C([H])([H])[H])(C([H])([H])[H])C([H])([H])[H])C([H])([H])c2c([H])c(OC(C([H])([H])[H])(C([H])([H])[H])C([H])(N([H])c3nc(N([H])C(=O)N4C([H])([H])C([H])([H])C([H])([H])C([H])(n5nc(-c6c([H])c([H])c(Oc7c([H])c([H])c(F)c([H])c7F)c([H])c6[H])c(C(=O)N([H])[H])c5N([H])[H])C4([H])[H])sc3F)C([H])([H])[H])c([H])c([H])c2C1([H])[H]

>  <smiles>  (22) 
[H]c1c([H])c([H])c2c(c1[H])C([H])([H])C([H])([H])C([H])([H])C2([H])N([H])C(=O)C1([H])N(C(=O)C([H])(N([H])C(=O)C([H])(N([H])C([H])([H])[H])C([H])([H])[H])C(C([H])([H])[H])(C([H])([H])[H])C([H])([H])[H])C([H])([H])c2c([H])c(OC(C([H])([H])[H])(C([H])([H])[H])C([H])(N([H])c3nc(N([H])C(=O)N4C([H])([H])C([H])([H])C([H])([H])C([H])(n5nc(-c6c([H])c([H])c(Oc7c([H])c([H])c(F)c([H])c7F)c([H])c6[H])c(C(=O)N([H])[H])c5N([H])[H])C4([H])[H])sc3F)C([H])([H])[H])c([H])c([H])c2C1([H])[H]

$$$$
23:0:0
     RDKit          3D

 96104  0  0  1  0  0  0  0  0999 V2000
  -29.5320  -21.4300   20.2360 C   0  0  0  0  0  0  0  0  0  0  0  0
  -30.7000  -21.8350   20.7450 N   0  0  0  0  0  4  0  0  0  0  0  0
  -28.5940  -22.4080   19.8870 N   0  0  0  0  0  0  0  0  0  0  0  0
  -31.4380  -21.1800   20.9570 H   0  0  0  0  0  0  0  0  0  0  0  0
  -30.7650  -22.7630   21.1620 H   0  0  0  0  0  0  0  0  0  0  0  0
  -27.8410  -22.0580   19.3130 H   0  0  0  0  0  0  0  0  0  0  0  0
  -30.7410  -14.9000   20.3270 C   0  0  0  0  0  0  0  0  0  0  0  0
  -30.6930  -12.5710   19.4070 C   0  0  0  0  0  2  0  0  0  0  0  0
  -29.7690  -12.5770   18.1660 C   0  0  0  0  0  2  0  0  0  0  0  0
  -28.2870  -12.4180   18.5670 C   0  0  0  0  0  2  0  0  0  0  0  0
  -27.8820  -13.3430   19.7430 C   0  0  0  0  0  3  0  0  0  0  0  0
  -28.9130  -13.2570   20.8900 C   0  0  0  0  0  2  0  0  0  0  0  0
  -30.2190  -13.6270   20.3240 N   0  0  0  0  0  0  0  0  0  0  0  0
  -31.9190  -15.0980   20.0000 O   0  0  0  0  0  0  0  0  0  0  0  0
  -29.3490  -19.9310   20.1780 C   0  0  0  0  0  0  0  0  0  0  0  0
  -28.1950  -19.2140   20.4390 C   0  0  0  0  0  0  0  0  0  0  0  0
  -29.6110  -17.3430   20.3640 C   0  0  0  0  0  0  0  0  0  0  0  0
  -26.8440  -19.7930   20.7330 C   0  0  0  0  0  1  0  0  0  0  0  0
  -28.3570  -17.8040   20.5180 N   0  0  0  0  0  0  0  0  0  0  0  0
  -29.7990  -15.8900   20.5470 N   0  0  0  0  0  0  0  0  0  0  0  0
  -30.7010  -18.7360   20.0240 S   0  0  0  0  0  0  0  0  0  0  0  0
  -28.9310  -15.4560   20.8120 H   0  0  0  0  0  0  0  0  0  0  0  0
  -25.4930  -13.9820   20.4430 C   0  0  0  0  0  0  0  0  0  0  0  0
  -24.4090  -13.2230   20.7850 C   0  0  0  0  0  0  0  0  0  0  0  0
  -24.8470  -11.8630   20.7480 C   0  0  0  0  0  0  0  0  0  0  0  0
  -26.5250  -13.0830   20.2090 N   0  0  0  0  0  0  0  0  0  0  0  0
  -26.1400  -11.8040   20.4570 N   0  0  0  0  0  0  0  0  0  0  0  0
  -24.0970  -10.6130   20.9160 C   0  0  0  0  0  0  0  0  0  0  0  0
  -24.5160   -9.6130   21.8220 C   0  0  0  0  0  3  0  0  0  0  0  0
  -23.7670   -8.4270   21.9770 C   0  0  0  0  0  3  0  0  0  0  0  0
  -22.5830   -8.2330   21.2250 C   0  0  0  0  0  0  0  0  0  0  0  0
  -22.1830   -9.2210   20.3080 C   0  0  0  0  0  3  0  0  0  0  0  0
  -22.9330  -10.3990   20.1510 C   0  0  0  0  0  3  0  0  0  0  0  0
  -21.8060   -7.1020   21.2890 O   0  0  0  0  0  0  0  0  0  0  0  0
  -21.7420   -6.3380   22.4270 C   0  0  0  0  0  0  0  0  0  0  0  0
  -21.3040   -6.8730   23.6590 C   0  0  0  0  0  3  0  0  0  0  0  0
  -21.1860   -6.0370   24.7870 C   0  0  0  0  0  3  0  0  0  0  0  0
  -21.4980   -4.6670   24.6850 C   0  0  0  0  0  0  0  0  0  0  0  0
  -21.9310   -4.1320   23.4580 C   0  0  0  0  0  3  0  0  0  0  0  0
  -22.0480   -4.9660   22.3320 C   0  0  0  0  0  0  0  0  0  0  0  0
  -22.4450   -4.4410   21.1460 F   0  0  0  0  0  0  0  0  0  0  0  0
  -21.3780   -3.8610   25.7660 F   0  0  0  0  0  0  0  0  0  0  0  0
  -23.0160  -13.7220   21.0390 C   0  0  0  0  0  0  0  0  0  0  0  0
  -22.2760  -13.0510   21.9140 N   0  0  0  0  0  0  0  0  0  0  0  0
  -22.5940  -14.7430   20.4970 O   0  0  0  0  0  0  0  0  0  0  0  0
  -22.6260  -12.2230   22.3700 H   0  0  0  0  0  0  0  0  0  0  0  0
  -21.3430  -13.3720   22.1280 H   0  0  0  0  0  0  0  0  0  0  0  0
  -25.6900  -15.3530   20.2900 N   0  0  0  0  0  0  0  0  0  0  0  0
  -24.9400  -16.0200   20.4350 H   0  0  0  0  0  0  0  0  0  0  0  0
  -26.5620  -15.7970   20.0280 H   0  0  0  0  0  0  0  0  0  0  0  0
  -28.3490  -23.8890   20.2990 C   0  0  0  0  0  3  0  0  0  0  0  0
  -28.9400  -24.1650   21.6830 C   0  0  0  0  0  0  0  0  0  0  0  0
  -27.9650  -24.5200   22.7910 C   0  0  0  0  0  1  0  0  0  0  0  0
  -30.1450  -24.0920   21.9360 O   0  0  0  0  0  0  0  0  0  0  0  0
  -28.6310  -25.1140   19.2800 C   0  0  0  0  0  2  0  0  0  0  0  0
  -28.5170  -26.5660   19.6730 O   0  0  0  0  0  0  0  0  0  0  0  0
  -24.5810  -31.6550   22.9660 C   0  0  0  0  0  0  0  0  0  0  0  0
  -27.3490  -27.3570   19.6420 C   0  0  0  0  0  0  0  0  0  0  0  0
  -23.4240  -30.3250   21.2380 C   0  0  0  0  0  3  0  0  0  0  0  0
  -24.9300  -28.9060   19.7200 C   0  0  0  0  0  0  0  0  0  0  0  0
  -25.9510  -30.7320   21.0760 C   0  0  0  0  0  2  0  0  0  0  0  0
  -26.0800  -29.3940   20.3500 C   0  0  0  0  0  0  0  0  0  0  0  0
  -27.2870  -28.6320   20.3000 C   0  0  0  0  0  3  0  0  0  0  0  0
  -26.1750  -26.9300   18.9850 C   0  0  0  0  0  3  0  0  0  0  0  0
  -24.9820  -27.6850   19.0260 C   0  0  0  0  0  3  0  0  0  0  0  0
  -23.6630  -29.7380   19.8190 C   0  0  0  0  0  2  0  0  0  0  0  0
  -24.6710  -30.9200   21.8190 N   0  0  0  0  0  0  0  0  0  0  0  0
  -23.4910  -31.8590   23.5190 O   0  0  0  0  0  0  0  0  0  0  0  0
  -22.7950  -29.2300   22.1310 C   0  0  0  0  0  0  0  0  0  0  0  0
  -21.4660  -29.0540   22.0310 N   0  0  0  0  0  0  0  0  0  0  0  0
  -23.5010  -28.5440   22.8740 O   0  0  0  0  0  0  0  0  0  0  0  0
  -20.9530  -29.6570   21.4030 H   0  0  0  0  0  0  0  0  0  0  0  0
  -18.1090  -27.8230   22.5680 C   0  0  0  0  0  0  0  0  0  0  0  0
  -20.6780  -28.0490   22.7460 C   0  0  0  0  0  3  0  0  0  0  0  0
  -20.7460  -26.6760   22.0370 C   0  0  0  0  0  2  0  0  0  0  0  0
  -19.6000  -26.4550   21.0460 C   0  0  0  0  0  2  0  0  0  0  0  0
  -18.2480  -26.5430   21.7600 C   0  0  0  0  0  2  0  0  0  0  0  0
  -19.2510  -28.5380   23.0160 C   0  0  0  0  0  0  0  0  0  0  0  0
  -19.0660  -29.7400   23.7350 C   0  0  0  0  0  3  0  0  0  0  0  0
  -17.7740  -30.2270   24.0060 C   0  0  0  0  0  3  0  0  0  0  0  0
  -16.6480  -29.5060   23.5710 C   0  0  0  0  0  3  0  0  0  0  0  0
  -16.8160  -28.3070   22.8580 C   0  0  0  0  0  3  0  0  0  0  0  0
  -25.8410  -32.2940   23.6300 C   0  0  0  0  0  3  0  0  0  0  0  0
  -26.3650  -31.4780   24.8760 C   0  0  1  0  0  0  0  0  0  0  0  0
  -25.2680  -31.1750   25.9270 C   0  0  0  0  0  1  0  0  0  0  0  0
  -26.9690  -30.1280   24.4250 C   0  0  0  0  0  1  0  0  0  0  0  0
  -27.5010  -32.2580   25.5740 C   0  0  0  0  0  1  0  0  0  0  0  0
  -25.4890  -33.6670   24.0210 N   0  0  0  0  0  0  0  0  0  0  0  0
  -25.8010  -34.7640   23.3180 C   0  0  0  0  0  0  0  0  0  0  0  0
  -26.4820  -34.7260   22.2890 O   0  0  0  0  0  0  0  0  0  0  0  0
  -24.8820  -33.7640   24.8210 H   0  0  0  0  0  0  0  0  0  0  0  0
  -24.0310  -36.5300   23.0310 C   0  0  0  0  0  1  0  0  0  0  0  0
  -25.2750  -36.1170   23.8350 C   0  0  0  0  0  3  0  0  0  0  0  0
  -27.3730  -37.0200   24.7360 C   0  0  0  0  0  1  0  0  0  0  0  0
  -26.2820  -37.1990   23.7820 N   0  0  0  0  0  0  0  0  0  0  0  0
  -25.8500  -38.1030   23.9620 H   0  0  0  0  0  0  0  0  0  0  0  0
  1  2  2  0
  2  4  1  0
  2  5  1  0
  3  1  1  0
  3 51  1  0
  6  3  1  0
  7 20  1  0
  8 13  1  0
  9 10  1  0
  9  8  1  0
 11 10  1  0
 11 26  1  0
 11 12  1  0
 13  7  1  0
 13 12  1  0
 14  7  2  0
 15  1  1  0
 15 16  2  0
 16 19  1  0
 16 18  1  0
 17 19  2  0
 17 20  1  0
 20 22  1  0
 21 15  1  0
 21 17  1  0
 23 24  2  0
 24 43  1  0
 25 24  1  0
 25 28  1  0
 26 23  1  0
 26 27  1  0
 27 25  2  0
 28 29  1  0
 29 30  2  0
 31 34  1  0
 31 30  1  0
 32 31  2  0
 33 32  1  0
 33 28  2  0
 34 35  1  0
 35 36  1  0
 36 37  2  0
 38 37  1  0
 38 42  1  0
 39 38  2  0
 40 35  2  0
 40 39  1  0
 41 40  1  0
 43 44  1  0
 44 47  1  0
 44 46  1  0
 45 43  2  0
 48 49  1  0
 48 23  1  0
 50 48  1  0
 51 55  1  0
 51 52  1  0
 52 54  2  0
 52 53  1  0
 55 56  1  0
 57 68  2  0
 58 56  1  0
 58 63  1  0
 59 67  1  0
 59 69  1  0
 60 66  1  0
 60 62  1  0
 61 67  1  0
 62 61  1  0
 63 62  2  0
 64 65  1  0
 64 58  2  0
 65 60  2  0
 66 59  1  0
 67 57  1  0
 69 71  2  0
 70 69  1  0
 72 70  1  0
 73 82  2  0
 73 78  1  0
 74 70  1  0
 74 78  1  0
 75 74  1  0
 76 77  1  0
 76 75  1  0
 77 73  1  0
 78 79  2  0
 79 80  1  0
 81 80  2  0
 82 81  1  0
 83 57  1  0
 83 88  1  0
 83 84  1  0
 84 87  1  1
 84 85  1  0
 86 84  1  0
 88 91  1  0
 89 93  1  0
 89 88  1  0
 90 89  2  0
 93 92  1  0
 95 93  1  0
 95 96  1  0
 95 94  1  0
M  ISO  4   7 100  20 100  55 101  56 101
M  END
>  <TORSDO>  (23) 
F 19

>  <SCORE>  (23) 
-11.916

>  <name>  (23) 
23

>  <ligand_id>  (23) 
23

>  <original_smiles>  (23) 
[H]c1c([H])c([H])c2c(c1[H])C([H])([H])C([H])([H])C([H])([H])C2([H])N([H])C(=O)C1([H])N(C(=O)C([H])(N([H])C(=O)C([H])(N([H])C([H])([H])[H])C([H])([H])[H])C(C([H])([H])[H])(C([H])([H])[H])C([H])([H])[H])C([H])([H])c2c([H])c(OC([H])([H])C([H])(C(=O)C([H])([H])[H])[N+]([H])=C(c3sc(N([H])C(=O)N4C([H])([H])C([H])([H])C([H])([H])C([H])(n5nc(-c6c([H])c([H])c(Oc7c([H])c([H])c(F)c([H])c7F)c([H])c6[H])c(C(=O)N([H])[H])c5N([H])[H])C4([H])[H])nc3C([H])([H])[H])N([H])[H])c([H])c([H])c2C1([H])[H]

>  <smiles>  (23) 
[H]c1c([H])c([H])c2c(c1[H])C([H])([H])C([H])([H])C([H])([H])C2([H])N([H])C(=O)C1([H])N(C(=O)C([H])(N([H])C(=O)C([H])(N([H])C([H])([H])[H])C([H])([H])[H])C(C([H])([H])[H])(C([H])([H])[H])C([H])([H])[H])C([H])([H])c2c([H])c(OC([H])([H])C([H])(C(=O)C([H])([H])[H])[N+]([H])=C(c3sc(N([H])C(=O)N4C([H])([H])C([H])([H])C([H])([H])C([H])(n5nc(-c6c([H])c([H])c(Oc7c([H])c([H])c(F)c([H])c7F)c([H])c6[H])c(C(=O)N([H])[H])c5N([H])[H])C4([H])[H])nc3C([H])([H])[H])N([H])[H])c([H])c([H])c2C1([H])[H]

$$$$
24:0:0
     RDKit          3D

 86 93  0  0  1  0  0  0  0  0999 V2000
  -28.6650  -22.7390   20.6040 C   0  0  0  0  0  2  0  0  0  0  0  0
  -29.0530  -21.1130   19.9330 C   0  0  0  0  0  3  0  0  0  0  0  0
  -30.2310  -21.3040   19.3410 F   0  0  0  0  0  0  0  0  0  0  0  0
  -29.1190  -19.4400   20.6050 C   0  0  0  0  0  2  0  0  0  0  0  0
  -30.4080  -15.2650   20.2150 C   0  0  0  0  0  0  0  0  0  0  0  0
  -30.3450  -12.8220   19.3570 C   0  0  0  0  0  2  0  0  0  0  0  0
  -29.4210  -12.6500   18.1250 C   0  0  0  0  0  2  0  0  0  0  0  0
  -27.9700  -12.3940   18.5690 C   0  0  0  0  0  2  0  0  0  0  0  0
  -27.5360  -13.3490   19.7080 C   0  0  0  0  0  3  0  0  0  0  0  0
  -28.5900  -13.4800   20.8300 C   0  0  0  0  0  2  0  0  0  0  0  0
  -29.8280  -13.9650   20.1990 N   0  0  0  0  0  0  0  0  0  0  0  0
  -31.6130  -15.2380   19.9280 O   0  0  0  0  0  0  0  0  0  0  0  0
  -29.9550  -17.9710   20.1470 C   0  0  0  0  0  0  0  0  0  0  0  0
  -29.6690  -16.5380   20.3940 N   0  0  0  0  0  0  0  0  0  0  0  0
  -30.9930  -18.2060   19.5230 O   0  0  0  0  0  0  0  0  0  0  0  0
  -28.7430  -16.3930   20.7630 H   0  0  0  0  0  0  0  0  0  0  0  0
  -25.1680  -13.9100   20.4680 C   0  0  0  0  0  0  0  0  0  0  0  0
  -24.1080  -13.1330   20.8460 C   0  0  0  0  0  0  0  0  0  0  0  0
  -24.5760  -11.7830   20.8190 C   0  0  0  0  0  0  0  0  0  0  0  0
  -26.2100  -13.0340   20.2230 N   0  0  0  0  0  0  0  0  0  0  0  0
  -25.8670  -11.7490   20.5020 N   0  0  0  0  0  0  0  0  0  0  0  0
  -23.8500  -10.5220   21.0160 C   0  0  0  0  0  0  0  0  0  0  0  0
  -24.2870   -9.5530   21.9460 C   0  0  0  0  0  3  0  0  0  0  0  0
  -23.5580   -8.3590   22.1330 C   0  0  0  0  0  3  0  0  0  0  0  0
  -22.3760   -8.1250   21.3910 C   0  0  0  0  0  0  0  0  0  0  0  0
  -21.9570   -9.0810   20.4500 C   0  0  0  0  0  3  0  0  0  0  0  0
  -22.6880  -10.2670   20.2600 C   0  0  0  0  0  3  0  0  0  0  0  0
  -21.6180   -6.9830   21.4870 O   0  0  0  0  0  0  0  0  0  0  0  0
  -21.5830   -6.2370   22.6390 C   0  0  0  0  0  0  0  0  0  0  0  0
  -21.1860   -6.7910   23.8740 C   0  0  0  0  0  3  0  0  0  0  0  0
  -21.0970   -5.9720   25.0180 C   0  0  0  0  0  3  0  0  0  0  0  0
  -21.3980   -4.6000   24.9270 C   0  0  0  0  0  0  0  0  0  0  0  0
  -21.7880   -4.0450   23.6950 C   0  0  0  0  0  3  0  0  0  0  0  0
  -21.8770   -4.8610   22.5540 C   0  0  0  0  0  0  0  0  0  0  0  0
  -22.2340   -4.3160   21.3660 F   0  0  0  0  0  0  0  0  0  0  0  0
  -21.3060   -3.8120   26.0230 F   0  0  0  0  0  0  0  0  0  0  0  0
  -22.7120  -13.6110   21.1150 C   0  0  0  0  0  0  0  0  0  0  0  0
  -21.9860  -12.9220   21.9880 N   0  0  0  0  0  0  0  0  0  0  0  0
  -22.2740  -14.6330   20.5870 O   0  0  0  0  0  0  0  0  0  0  0  0
  -22.3530  -12.0970   22.4370 H   0  0  0  0  0  0  0  0  0  0  0  0
  -21.0480  -13.2250   22.2100 H   0  0  0  0  0  0  0  0  0  0  0  0
  -25.3270  -15.2790   20.2820 N   0  0  0  0  0  0  0  0  0  0  0  0
  -24.5530  -15.9280   20.3850 H   0  0  0  0  0  0  0  0  0  0  0  0
  -26.1550  -15.7120   19.8950 H   0  0  0  0  0  0  0  0  0  0  0  0
  -28.1490  -24.3100   19.8910 C   0  0  0  0  0  2  0  0  0  0  0  0
  -28.2070  -25.8960   20.3290 O   0  0  0  0  0  0  0  0  0  0  0  0
  -24.6580  -31.8680   23.2080 C   0  0  0  0  0  0  0  0  0  0  0  0
  -27.1930  -26.9790   20.2090 C   0  0  0  0  0  0  0  0  0  0  0  0
  -23.4540  -30.4650   21.5820 C   0  0  0  0  0  3  0  0  0  0  0  0
  -24.8930  -28.8530   20.1580 C   0  0  0  0  0  0  0  0  0  0  0  0
  -26.0180  -30.6730   21.4240 C   0  0  0  0  0  2  0  0  0  0  0  0
  -26.0820  -29.2610   20.7760 C   0  0  0  0  0  0  0  0  0  0  0  0
  -27.2220  -28.3430   20.7810 C   0  0  0  0  0  3  0  0  0  0  0  0
  -25.9800  -26.7240   19.5290 C   0  0  0  0  0  3  0  0  0  0  0  0
  -24.8670  -27.6040   19.5150 C   0  0  0  0  0  3  0  0  0  0  0  0
  -23.6750  -29.7730   20.2080 C   0  0  0  0  0  2  0  0  0  0  0  0
  -24.7320  -31.0290   22.1240 N   0  0  0  0  0  0  0  0  0  0  0  0
  -23.5730  -32.1630   23.7320 O   0  0  0  0  0  0  0  0  0  0  0  0
  -22.7630  -29.4760   22.5570 C   0  0  0  0  0  0  0  0  0  0  0  0
  -21.4320  -29.3160   22.4430 N   0  0  0  0  0  0  0  0  0  0  0  0
  -23.4320  -28.8520   23.3850 O   0  0  0  0  0  0  0  0  0  0  0  0
  -20.9460  -29.8700   21.7510 H   0  0  0  0  0  0  0  0  0  0  0  0
  -18.0490  -28.1190   22.9730 C   0  0  0  0  0  0  0  0  0  0  0  0
  -20.6100  -28.3860   23.2240 C   0  0  0  0  0  3  0  0  0  0  0  0
  -20.7090  -26.9490   22.6620 C   0  0  0  0  0  2  0  0  0  0  0  0
  -19.6030  -26.6180   21.6540 C   0  0  0  0  0  2  0  0  0  0  0  0
  -18.2240  -26.7660   22.3030 C   0  0  0  0  0  2  0  0  0  0  0  0
  -19.1690  -28.8860   23.3910 C   0  0  0  0  0  0  0  0  0  0  0  0
  -18.9490  -30.1500   23.9810 C   0  0  0  0  0  3  0  0  0  0  0  0
  -17.6440  -30.6470   24.1540 C   0  0  0  0  0  3  0  0  0  0  0  0
  -16.5390  -29.8770   23.7490 C   0  0  0  0  0  3  0  0  0  0  0  0
  -16.7420  -28.6140   23.1650 C   0  0  0  0  0  3  0  0  0  0  0  0
  -25.9350  -32.5110   23.8310 C   0  0  0  0  0  3  0  0  0  0  0  0
  -26.4490  -31.7490   25.1130 C   0  0  1  0  0  0  0  0  0  0  0  0
  -25.3560  -31.5230   26.1850 C   0  0  0  0  0  1  0  0  0  0  0  0
  -27.0290  -30.3660   24.7390 C   0  0  0  0  0  1  0  0  0  0  0  0
  -27.6030  -32.5450   25.7680 C   0  0  0  0  0  1  0  0  0  0  0  0
  -25.6180  -33.9110   24.1660 N   0  0  0  0  0  0  0  0  0  0  0  0
  -25.9440  -34.9730   23.4180 C   0  0  0  0  0  0  0  0  0  0  0  0
  -26.6050  -34.8790   22.3810 O   0  0  0  0  0  0  0  0  0  0  0  0
  -25.0290  -34.0570   24.9720 H   0  0  0  0  0  0  0  0  0  0  0  0
  -24.2090  -36.7730   23.1060 C   0  0  0  0  0  1  0  0  0  0  0  0
  -25.4630  -36.3600   23.8930 C   0  0  0  0  0  3  0  0  0  0  0  0
  -27.6100  -37.2450   24.6960 C   0  0  0  0  0  1  0  0  0  0  0  0
  -26.4930  -37.4160   23.7710 N   0  0  0  0  0  0  0  0  0  0  0  0
  -26.0890  -38.3350   23.9290 H   0  0  0  0  0  0  0  0  0  0  0  0
  2  3  1  0
  2  1  1  0
  2  4  1  0
  5 14  1  0
  6 11  1  0
  7  8  1  0
  7  6  1  0
  9  8  1  0
  9 20  1  0
  9 10  1  0
 11  5  1  0
 11 10  1  0
 12  5  2  0
 13 14  1  0
 13  4  1  0
 14 16  1  0
 15 13  2  0
 17 18  2  0
 18 37  1  0
 19 18  1  0
 19 22  1  0
 20 17  1  0
 20 21  1  0
 21 19  2  0
 22 23  1  0
 23 24  2  0
 25 28  1  0
 25 24  1  0
 26 25  2  0
 27 26  1  0
 27 22  2  0
 28 29  1  0
 29 30  1  0
 30 31  2  0
 32 31  1  0
 32 36  1  0
 33 32  2  0
 34 29  2  0
 34 33  1  0
 35 34  1  0
 37 38  1  0
 38 41  1  0
 38 40  1  0
 39 37  2  0
 42 43  1  0
 42 17  1  0
 44 42  1  0
 45 46  1  0
 45  1  1  0
 47 58  2  0
 48 46  1  0
 48 53  1  0
 49 57  1  0
 49 59  1  0
 50 56  1  0
 50 52  1  0
 51 57  1  0
 52 53  2  0
 52 51  1  0
 54 48  2  0
 55 54  1  0
 55 50  2  0
 56 49  1  0
 57 47  1  0
 59 61  2  0
 60 59  1  0
 62 60  1  0
 63 72  2  0
 63 68  1  0
 64 60  1  0
 64 68  1  0
 65 64  1  0
 66 67  1  0
 66 65  1  0
 67 63  1  0
 68 69  2  0
 69 70  1  0
 71 70  2  0
 72 71  1  0
 73 47  1  0
 73 78  1  0
 73 74  1  0
 74 77  1  1
 74 75  1  0
 76 74  1  0
 78 81  1  0
 79 83  1  0
 79 78  1  0
 80 79  2  0
 83 82  1  0
 85 83  1  0
 85 86  1  0
 85 84  1  0
M  ISO  4   5 100  14 100  45 101  46 101
M  END
>  <TORSDO>  (24) 
F 19

>  <SCORE>  (24) 
-15.896

>  <name>  (24) 
24

>  <ligand_id>  (24) 
24

>  <original_smiles>  (24) 
[H]c1c([H])c([H])c2c(c1[H])C([H])([H])C([H])([H])C([H])([H])C2([H])N([H])C(=O)C1([H])N(C(=O)C([H])(N([H])C(=O)C([H])(N([H])C([H])([H])[H])C([H])([H])[H])C(C([H])([H])[H])(C([H])([H])[H])C([H])([H])[H])C([H])([H])c2c([H])c(OC([H])([H])C([H])([H])C([H])(F)C([H])([H])C(=O)N([H])C(=O)N3C([H])([H])C([H])([H])C([H])([H])C([H])(n4nc(-c5c([H])c([H])c(Oc6c([H])c([H])c(F)c([H])c6F)c([H])c5[H])c(C(=O)N([H])[H])c4N([H])[H])C3([H])[H])c([H])c([H])c2C1([H])[H]

>  <smiles>  (24) 
[H]c1c([H])c([H])c2c(c1[H])C([H])([H])C([H])([H])C([H])([H])C2([H])N([H])C(=O)C1([H])N(C(=O)C([H])(N([H])C(=O)C([H])(N([H])C([H])([H])[H])C([H])([H])[H])C(C([H])([H])[H])(C([H])([H])[H])C([H])([H])[H])C([H])([H])c2c([H])c(OC([H])([H])C([H])([H])C([H])(F)C([H])([H])C(=O)N([H])C(=O)N3C([H])([H])C([H])([H])C([H])([H])C([H])(n4nc(-c5c([H])c([H])c(Oc6c([H])c([H])c(F)c([H])c6F)c([H])c5[H])c(C(=O)N([H])[H])c4N([H])[H])C3([H])[H])c([H])c([H])c2C1([H])[H]

$$$$
25:0:0
     RDKit          3D

 98106  0  0  1  0  0  0  0  0999 V2000
  -29.6000  -21.8770   20.2560 C   0  0  0  0  0  0  0  0  0  0  0  0
  -30.3790  -20.7640   20.1220 N   0  0  0  0  0  0  0  0  0  0  0  0
  -28.6390  -21.9480   21.0220 O   0  0  0  0  0  0  0  0  0  0  0  0
  -31.0440  -20.8440   19.3670 H   0  0  0  0  0  0  0  0  0  0  0  0
  -31.2510  -14.8340   19.9810 C   0  0  0  0  0  0  0  0  0  0  0  0
  -30.9790  -12.6160   18.8930 C   0  0  0  0  0  2  0  0  0  0  0  0
  -29.9000  -12.7500   17.7950 C   0  0  0  0  0  2  0  0  0  0  0  0
  -28.4800  -12.5760   18.3780 C   0  0  0  0  0  2  0  0  0  0  0  0
  -28.2480  -13.4160   19.6610 C   0  0  0  0  0  3  0  0  0  0  0  0
  -29.4240  -13.2330   20.6480 C   0  0  0  0  0  2  0  0  0  0  0  0
  -30.6620  -13.6010   19.9400 N   0  0  0  0  0  0  0  0  0  0  0  0
  -32.3600  -15.0550   19.4820 O   0  0  0  0  0  0  0  0  0  0  0  0
  -30.4650  -19.2480   22.1590 C   0  0  0  0  0  0  0  0  0  0  0  0
  -30.3980  -19.4730   20.7860 C   0  0  0  0  0  0  0  0  0  0  0  0
  -30.6440  -17.1630   20.7980 C   0  0  0  0  0  0  0  0  0  0  0  0
  -30.4900  -18.2690   20.0340 N   0  0  0  0  0  0  0  0  0  0  0  0
  -30.4030  -15.8200   20.3590 N   0  0  0  0  0  0  0  0  0  0  0  0
  -30.7250  -17.5450   22.5020 S   0  0  0  0  0  0  0  0  0  0  0  0
  -29.5260  -15.4410   20.6790 H   0  0  0  0  0  0  0  0  0  0  0  0
  -25.9940  -13.9850   20.7630 C   0  0  0  0  0  0  0  0  0  0  0  0
  -24.9580  -13.1950   21.1830 C   0  0  0  0  0  0  0  0  0  0  0  0
  -25.3590  -11.8480   20.9260 C   0  0  0  0  0  0  0  0  0  0  0  0
  -26.9610  -13.1160   20.2820 N   0  0  0  0  0  0  0  0  0  0  0  0
  -26.5920  -11.8190   20.4370 N   0  0  0  0  0  0  0  0  0  0  0  0
  -24.6180  -10.5880   21.0550 C   0  0  0  0  0  0  0  0  0  0  0  0
  -25.0110   -9.5860   21.9700 C   0  0  0  0  0  3  0  0  0  0  0  0
  -24.2650   -8.3940   22.0910 C   0  0  0  0  0  3  0  0  0  0  0  0
  -23.1120   -8.1930   21.2970 C   0  0  0  0  0  0  0  0  0  0  0  0
  -22.7390   -9.1830   20.3690 C   0  0  0  0  0  3  0  0  0  0  0  0
  -23.4870  -10.3650   20.2440 C   0  0  0  0  0  3  0  0  0  0  0  0
  -22.3430   -7.0540   21.3270 O   0  0  0  0  0  0  0  0  0  0  0  0
  -22.0980   -6.3850   22.4970 C   0  0  0  0  0  0  0  0  0  0  0  0
  -21.4790   -7.0140   23.6010 C   0  0  0  0  0  3  0  0  0  0  0  0
  -21.1810   -6.2700   24.7610 C   0  0  0  0  0  3  0  0  0  0  0  0
  -21.4910   -4.8980   24.8150 C   0  0  0  0  0  0  0  0  0  0  0  0
  -22.1080   -4.2680   23.7190 C   0  0  0  0  0  3  0  0  0  0  0  0
  -22.4070   -5.0110   22.5620 C   0  0  0  0  0  0  0  0  0  0  0  0
  -22.9780   -4.3950   21.4970 F   0  0  0  0  0  0  0  0  0  0  0  0
  -21.2010   -4.1800   25.9260 F   0  0  0  0  0  0  0  0  0  0  0  0
  -23.6270  -13.6650   21.6950 C   0  0  0  0  0  0  0  0  0  0  0  0
  -23.0210  -12.9150   22.6090 N   0  0  0  0  0  0  0  0  0  0  0  0
  -23.1410  -14.7310   21.3220 O   0  0  0  0  0  0  0  0  0  0  0  0
  -23.4270  -12.0490   22.9320 H   0  0  0  0  0  0  0  0  0  0  0  0
  -22.1330  -13.2110   22.9920 H   0  0  0  0  0  0  0  0  0  0  0  0
  -26.1850  -15.3630   20.7310 N   0  0  0  0  0  0  0  0  0  0  0  0
  -25.4610  -16.0060   21.0330 H   0  0  0  0  0  0  0  0  0  0  0  0
  -26.9730  -15.8320   20.3000 H   0  0  0  0  0  0  0  0  0  0  0  0
  -30.4080  -20.1490   23.3640 C   0  0  0  0  0  3  0  0  0  0  0  0
  -32.9030  -20.7180   23.4500 C   0  0  0  0  0  1  0  0  0  0  0  0
  -31.4660  -21.2640   23.4080 C   0  0  0  0  0  2  0  0  0  0  0  0
  -29.1100  -20.6450   23.6180 O   0  0  0  0  0  0  0  0  0  0  0  0
  -28.8050  -21.1090   22.8330 H   0  0  0  0  0  0  0  0  0  0  0  0
  -29.9910  -23.1060   19.3700 C   0  0  0  0  0  2  0  0  0  0  0  0
  -29.6720  -25.0250   17.7810 C   0  0  0  0  0  1  0  0  0  0  0  0
  -27.7310  -23.5690   18.2810 C   0  0  0  0  0  1  0  0  0  0  0  0
  -28.9660  -24.2440   18.9160 C   0  0  1  0  0  0  0  0  0  0  0  0
  -28.5450  -25.2910   20.0390 C   0  0  0  0  0  2  0  0  0  0  0  0
  -28.5400  -26.7220   19.7060 O   0  0  0  0  0  0  0  0  0  0  0  0
  -24.6200  -31.7610   23.0340 C   0  0  0  0  0  0  0  0  0  0  0  0
  -27.3540  -27.4480   19.7750 C   0  0  0  0  0  0  0  0  0  0  0  0
  -23.4370  -30.3620   21.3770 C   0  0  0  0  0  3  0  0  0  0  0  0
  -24.9150  -28.9150   19.8830 C   0  0  0  0  0  0  0  0  0  0  0  0
  -25.9520  -30.8080   21.1430 C   0  0  0  0  0  2  0  0  0  0  0  0
  -26.0770  -29.4580   20.4510 C   0  0  0  0  0  0  0  0  0  0  0  0
  -27.3010  -28.7400   20.3750 C   0  0  0  0  0  3  0  0  0  0  0  0
  -26.1650  -26.9320   19.2190 C   0  0  0  0  0  3  0  0  0  0  0  0
  -24.9570  -27.6550   19.2660 C   0  0  0  0  0  3  0  0  0  0  0  0
  -23.6460  -29.7320   19.9750 C   0  0  0  0  0  2  0  0  0  0  0  0
  -24.6890  -30.9930   21.9080 N   0  0  0  0  0  0  0  0  0  0  0  0
  -23.5400  -31.9750   23.6010 O   0  0  0  0  0  0  0  0  0  0  0  0
  -22.8380  -29.2910   22.3190 C   0  0  0  0  0  0  0  0  0  0  0  0
  -21.5200  -29.0560   22.2080 N   0  0  0  0  0  0  0  0  0  0  0  0
  -23.5580  -28.6740   23.1090 O   0  0  0  0  0  0  0  0  0  0  0  0
  -20.9970  -29.6080   21.5440 H   0  0  0  0  0  0  0  0  0  0  0  0
  -18.2100  -27.6960   22.7190 C   0  0  0  0  0  0  0  0  0  0  0  0
  -20.7560  -28.0640   22.9650 C   0  0  0  0  0  3  0  0  0  0  0  0
  -20.9120  -26.6520   22.3530 C   0  0  0  0  0  2  0  0  0  0  0  0
  -19.8150  -26.3060   21.3430 C   0  0  0  0  0  2  0  0  0  0  0  0
  -18.4370  -26.3740   22.0070 C   0  0  0  0  0  2  0  0  0  0  0  0
  -19.2980  -28.4990   23.1520 C   0  0  0  0  0  0  0  0  0  0  0  0
  -19.0320  -29.7360   23.7770 C   0  0  0  0  0  3  0  0  0  0  0  0
  -17.7070  -30.1760   23.9690 C   0  0  0  0  0  3  0  0  0  0  0  0
  -16.6320  -29.3720   23.5520 C   0  0  0  0  0  3  0  0  0  0  0  0
  -16.8840  -28.1320   22.9340 C   0  0  0  0  0  3  0  0  0  0  0  0
  -25.8920  -32.4270   23.6490 C   0  0  0  0  0  3  0  0  0  0  0  0
  -25.5270  -33.7930   24.0470 N   0  0  0  0  0  0  0  0  0  0  0  0
  -25.7990  -34.8940   23.3310 C   0  0  0  0  0  0  0  0  0  0  0  0
  -26.4510  -34.8660   22.2850 O   0  0  0  0  0  0  0  0  0  0  0  0
  -24.9420  -33.8860   24.8640 H   0  0  0  0  0  0  0  0  0  0  0  0
  -23.9900  -36.6240   23.0870 C   0  0  0  0  0  1  0  0  0  0  0  0
  -25.2580  -36.2350   23.8600 C   0  0  0  0  0  3  0  0  0  0  0  0
  -27.3650  -37.1720   24.7070 C   0  0  0  0  0  1  0  0  0  0  0  0
  -26.2430  -37.3370   23.7870 N   0  0  0  0  0  0  0  0  0  0  0  0
  -25.7980  -38.2300   23.9850 H   0  0  0  0  0  0  0  0  0  0  0  0
  -26.4810  -31.6270   24.8770 C   0  0  1  0  0  0  0  0  0  0  0  0
  -25.4280  -31.2630   25.9470 C   0  0  0  0  0  1  0  0  0  0  0  0
  -27.1480  -30.3150   24.4040 C   0  0  0  0  0  1  0  0  0  0  0  0
  -27.5880  -32.4610   25.5650 C   0  0  0  0  0  1  0  0  0  0  0  0
  1  3  2  0
  2  1  1  0
  2 14  1  0
  4  2  1  0
  5 17  1  0
  6 11  1  0
  7  8  1  0
  7  6  1  0
  9  8  1  0
  9 23  1  0
  9 10  1  0
 11  5  1  0
 11 10  1  0
 12  5  2  0
 13 18  1  0
 13 48  1  0
 14 13  2  0
 15 18  1  0
 16 14  1  0
 16 15  2  0
 17 19  1  0
 17 15  1  0
 20 21  2  0
 21 40  1  0
 22 25  1  0
 22 21  1  0
 23 24  1  0
 23 20  1  0
 24 22  2  0
 25 26  1  0
 26 27  2  0
 28 31  1  0
 28 27  1  0
 29 28  2  0
 30 29  1  0
 30 25  2  0
 31 32  1  0
 32 37  2  0
 32 33  1  0
 33 34  2  0
 34 35  1  0
 35 39  1  0
 36 35  2  0
 37 36  1  0
 38 37  1  0
 40 41  1  0
 41 43  1  0
 41 44  1  0
 42 40  2  0
 45 20  1  0
 45 46  1  0
 47 45  1  0
 48 50  1  0
 48 51  1  0
 50 49  1  0
 52 51  1  0
 53  1  1  0
 56 54  1  6
 55 56  1  0
 56 53  1  0
 56 57  1  0
 58 60  1  0
 58 57  1  0
 59 70  2  0
 60 65  1  0
 61 69  1  0
 61 71  1  0
 62 68  1  0
 62 64  1  0
 63 69  1  0
 64 63  1  0
 65 64  2  0
 66 67  1  0
 66 60  2  0
 67 62  2  0
 68 61  1  0
 69 59  1  0
 71 73  2  0
 72 71  1  0
 74 72  1  0
 75 84  2  0
 75 80  1  0
 76 72  1  0
 76 80  1  0
 77 76  1  0
 78 79  1  0
 78 77  1  0
 79 75  1  0
 80 81  2  0
 81 82  1  0
 83 82  2  0
 84 83  1  0
 85 59  1  0
 85 86  1  0
 85 95  1  0
 86 89  1  0
 87 91  1  0
 87 86  1  0
 88 87  2  0
 91 90  1  0
 93 91  1  0
 93 94  1  0
 93 92  1  0
 95 98  1  1
 95 96  1  0
 97 95  1  0
M  ISO  4   5 100  17 100  57 101  58 101
M  END
>  <TORSDO>  (25) 
F 22

>  <SCORE>  (25) 
-10.123

>  <name>  (25) 
25

>  <ligand_id>  (25) 
25

>  <original_smiles>  (25) 
[H]OC([H])(c1sc(N([H])C(=O)N2C([H])([H])C([H])([H])C([H])([H])C([H])(n3nc(-c4c([H])c([H])c(Oc5c([H])c([H])c(F)c([H])c5F)c([H])c4[H])c(C(=O)N([H])[H])c3N([H])[H])C2([H])[H])nc1N([H])C(=O)C([H])([H])C(C([H])([H])[H])(C([H])([H])[H])C([H])([H])Oc1c([H])c([H])c2c(c1[H])C([H])([H])N(C(=O)C([H])(N([H])C(=O)C([H])(N([H])C([H])([H])[H])C([H])([H])[H])C(C([H])([H])[H])(C([H])([H])[H])C([H])([H])[H])C([H])(C(=O)N([H])C1([H])c3c([H])c([H])c([H])c([H])c3C([H])([H])C([H])([H])C1([H])[H])C2([H])[H])C([H])([H])C([H])([H])[H]

>  <smiles>  (25) 
[H]OC([H])(c1sc(N([H])C(=O)N2C([H])([H])C([H])([H])C([H])([H])C([H])(n3nc(-c4c([H])c([H])c(Oc5c([H])c([H])c(F)c([H])c5F)c([H])c4[H])c(C(=O)N([H])[H])c3N([H])[H])C2([H])[H])nc1N([H])C(=O)C([H])([H])C(C([H])([H])[H])(C([H])([H])[H])C([H])([H])Oc1c([H])c([H])c2c(c1[H])C([H])([H])N(C(=O)C([H])(N([H])C(=O)C([H])(N([H])C([H])([H])[H])C([H])([H])[H])C(C([H])([H])[H])(C([H])([H])[H])C([H])([H])[H])C([H])(C(=O)N([H])C1([H])c3c([H])c([H])c([H])c([H])c3C([H])([H])C([H])([H])C1([H])[H])C2([H])[H])C([H])([H])C([H])([H])[H]

$$$$
26:0:0
     RDKit          3D

 96104  0  0  1  0  0  0  0  0999 V2000
  -30.6770  -21.4700   21.8140 C   0  0  0  0  0  1  0  0  0  0  0  0
  -29.2340  -21.5810   21.2940 C   0  0  0  0  0  3  0  0  0  0  0  0
  -28.7500  -20.3060   20.7180 N   0  0  0  0  0  0  0  0  0  0  0  0
  -27.9370  -19.9660   21.2260 H   0  0  0  0  0  0  0  0  0  0  0  0
  -30.6890  -14.5630   20.3550 C   0  0  0  0  0  0  0  0  0  0  0  0
  -30.3940  -12.3840   19.2510 C   0  0  0  0  0  2  0  0  0  0  0  0
  -29.4520  -12.5850   18.0460 C   0  0  0  0  0  2  0  0  0  0  0  0
  -27.9810  -12.4390   18.4850 C   0  0  0  0  0  2  0  0  0  0  0  0
  -27.6420  -13.2860   19.7420 C   0  0  0  0  0  3  0  0  0  0  0  0
  -28.7030  -13.0850   20.8510 C   0  0  0  0  0  2  0  0  0  0  0  0
  -30.0240  -13.3770   20.2700 N   0  0  0  0  0  0  0  0  0  0  0  0
  -31.8410  -14.6940   19.9320 O   0  0  0  0  0  0  0  0  0  0  0  0
  -30.5880  -19.1850   19.3680 C   0  0  0  0  0  0  0  0  0  0  0  0
  -29.5560  -19.2150   20.2910 C   0  0  0  0  0  0  0  0  0  0  0  0
  -30.1240  -16.9820   20.3930 C   0  0  0  0  0  0  0  0  0  0  0  0
  -29.2920  -17.9390   20.8350 N   0  0  0  0  0  0  0  0  0  0  0  0
  -29.9580  -15.6160   20.7810 N   0  0  0  0  0  0  0  0  0  0  0  0
  -31.3140  -17.5980   19.2540 S   0  0  0  0  0  0  0  0  0  0  0  0
  -29.0830  -15.3940   21.2260 H   0  0  0  0  0  0  0  0  0  0  0  0
  -25.2400  -13.8870   20.4480 C   0  0  0  0  0  0  0  0  0  0  0  0
  -24.1740  -13.1140   20.8230 C   0  0  0  0  0  0  0  0  0  0  0  0
  -24.6400  -11.7640   20.8040 C   0  0  0  0  0  0  0  0  0  0  0  0
  -26.2890  -13.0080   20.2230 N   0  0  0  0  0  0  0  0  0  0  0  0
  -25.9310  -11.7260   20.4940 N   0  0  0  0  0  0  0  0  0  0  0  0
  -23.9180  -10.5000   21.0040 C   0  0  0  0  0  0  0  0  0  0  0  0
  -24.3560   -9.5400   21.9410 C   0  0  0  0  0  3  0  0  0  0  0  0
  -23.6360   -8.3400   22.1270 C   0  0  0  0  0  3  0  0  0  0  0  0
  -22.4640   -8.0930   21.3750 C   0  0  0  0  0  0  0  0  0  0  0  0
  -22.0450   -9.0410   20.4260 C   0  0  0  0  0  3  0  0  0  0  0  0
  -22.7660  -10.2330   20.2370 C   0  0  0  0  0  3  0  0  0  0  0  0
  -21.7160   -6.9440   21.4700 O   0  0  0  0  0  0  0  0  0  0  0  0
  -21.6720   -6.2080   22.6270 C   0  0  0  0  0  0  0  0  0  0  0  0
  -21.2410   -6.7670   23.8500 C   0  0  0  0  0  3  0  0  0  0  0  0
  -21.1450   -5.9570   24.9990 C   0  0  0  0  0  3  0  0  0  0  0  0
  -21.4720   -4.5900   24.9260 C   0  0  0  0  0  0  0  0  0  0  0  0
  -21.8960   -4.0300   23.7080 C   0  0  0  0  0  3  0  0  0  0  0  0
  -21.9940   -4.8380   22.5620 C   0  0  0  0  0  0  0  0  0  0  0  0
  -22.3850   -4.2890   21.3860 F   0  0  0  0  0  0  0  0  0  0  0  0
  -21.3730   -3.8100   26.0280 F   0  0  0  0  0  0  0  0  0  0  0  0
  -22.7750  -13.5920   21.0910 C   0  0  0  0  0  0  0  0  0  0  0  0
  -22.0450  -12.9020   21.9590 N   0  0  0  0  0  0  0  0  0  0  0  0
  -22.3380  -14.6150   20.5660 O   0  0  0  0  0  0  0  0  0  0  0  0
  -22.4060  -12.0750   22.4100 H   0  0  0  0  0  0  0  0  0  0  0  0
  -21.1090  -13.2110   22.1810 H   0  0  0  0  0  0  0  0  0  0  0  0
  -25.4000  -15.2570   20.2590 N   0  0  0  0  0  0  0  0  0  0  0  0
  -24.6290  -15.9060   20.3610 H   0  0  0  0  0  0  0  0  0  0  0  0
  -26.2440  -15.6970   19.9160 H   0  0  0  0  0  0  0  0  0  0  0  0
  -31.1200  -20.1870   18.4360 C   0  0  0  0  0  0  0  0  0  0  0  0
  -32.5970  -20.1370   18.0540 C   0  0  0  0  0  1  0  0  0  0  0  0
  -30.4170  -21.0650   17.9310 O   0  0  0  0  0  0  0  0  0  0  0  0
  -28.9180  -22.8190   20.3800 C   0  0  0  0  0  2  0  0  0  0  0  0
  -30.6160  -24.7110   20.8370 C   0  0  0  0  0  1  0  0  0  0  0  0
  -28.5780  -24.4700   22.3140 C   0  0  0  0  0  1  0  0  0  0  0  0
  -29.1290  -24.3040   20.8820 C   0  0  2  0  0  0  0  0  0  0  0  0
  -28.3390  -25.2620   19.9300 C   0  0  0  0  0  2  0  0  0  0  0  0
  -28.4270  -26.6850   20.2190 O   0  0  0  0  0  0  0  0  0  0  0  0
  -24.6250  -31.9040   23.2360 C   0  0  0  0  0  0  0  0  0  0  0  0
  -27.2730  -27.4540   20.1440 C   0  0  0  0  0  0  0  0  0  0  0  0
  -23.4240  -30.5090   21.5870 C   0  0  0  0  0  3  0  0  0  0  0  0
  -24.8830  -28.9940   20.1430 C   0  0  0  0  0  0  0  0  0  0  0  0
  -25.9510  -30.8680   21.3940 C   0  0  0  0  0  2  0  0  0  0  0  0
  -26.0400  -29.5010   20.7470 C   0  0  0  0  0  0  0  0  0  0  0  0
  -27.2350  -28.7370   20.7500 C   0  0  0  0  0  3  0  0  0  0  0  0
  -26.1040  -27.0010   19.4850 C   0  0  0  0  0  3  0  0  0  0  0  0
  -24.9140  -27.7440   19.5040 C   0  0  0  0  0  3  0  0  0  0  0  0
  -23.6330  -29.8430   20.2010 C   0  0  0  0  0  2  0  0  0  0  0  0
  -24.6850  -31.1080   22.1310 N   0  0  0  0  0  0  0  0  0  0  0  0
  -23.5410  -32.1690   23.7760 O   0  0  0  0  0  0  0  0  0  0  0  0
  -22.7770  -29.4760   22.5390 C   0  0  0  0  0  0  0  0  0  0  0  0
  -21.4540  -29.2880   22.4080 N   0  0  0  0  0  0  0  0  0  0  0  0
  -23.4610  -28.8490   23.3520 O   0  0  0  0  0  0  0  0  0  0  0  0
  -20.9610  -29.8470   21.7230 H   0  0  0  0  0  0  0  0  0  0  0  0
  -18.0830  -28.0820   22.8940 C   0  0  0  0  0  0  0  0  0  0  0  0
  -20.6390  -28.3430   23.1710 C   0  0  0  0  0  3  0  0  0  0  0  0
  -20.7460  -26.9180   22.5840 C   0  0  0  0  0  2  0  0  0  0  0  0
  -19.6460  -26.6000   21.5660 C   0  0  0  0  0  2  0  0  0  0  0  0
  -18.2620  -26.7390   22.2090 C   0  0  0  0  0  2  0  0  0  0  0  0
  -19.1990  -28.8440   23.3310 C   0  0  0  0  0  0  0  0  0  0  0  0
  -18.9780  -30.1020   23.9300 C   0  0  0  0  0  3  0  0  0  0  0  0
  -17.6720  -30.6010   24.0980 C   0  0  0  0  0  3  0  0  0  0  0  0
  -16.5690  -29.8360   23.6790 C   0  0  0  0  0  3  0  0  0  0  0  0
  -16.7760  -28.5790   23.0820 C   0  0  0  0  0  3  0  0  0  0  0  0
  -25.9080  -32.5350   23.8590 C   0  0  0  0  0  3  0  0  0  0  0  0
  -25.5960  -33.9310   24.1910 N   0  0  0  0  0  0  0  0  0  0  0  0
  -25.9230  -34.9840   23.4290 C   0  0  0  0  0  0  0  0  0  0  0  0
  -26.5920  -34.8820   22.3980 O   0  0  0  0  0  0  0  0  0  0  0  0
  -25.0000  -34.0840   24.9910 H   0  0  0  0  0  0  0  0  0  0  0  0
  -24.1860  -36.7700   23.0810 C   0  0  0  0  0  1  0  0  0  0  0  0
  -25.4320  -36.3710   23.8860 C   0  0  0  0  0  3  0  0  0  0  0  0
  -27.5640  -37.2630   24.7130 C   0  0  0  0  0  1  0  0  0  0  0  0
  -26.4610  -37.4290   23.7710 N   0  0  0  0  0  0  0  0  0  0  0  0
  -26.0500  -38.3460   23.9220 H   0  0  0  0  0  0  0  0  0  0  0  0
  -26.4270  -31.7600   25.1340 C   0  0  1  0  0  0  0  0  0  0  0  0
  -25.3330  -31.5170   26.2000 C   0  0  0  0  0  1  0  0  0  0  0  0
  -27.0130  -30.3850   24.7380 C   0  0  0  0  0  1  0  0  0  0  0  0
  -27.5770  -32.5540   25.7970 C   0  0  0  0  0  1  0  0  0  0  0  0
  2  1  1  0
  3  4  1  0
  3  2  1  0
  5 17  1  0
  6 11  1  0
  7  8  1  0
  7  6  1  0
  9  8  1  0
  9 23  1  0
  9 10  1  0
 11  5  1  0
 11 10  1  0
 12  5  2  0
 13 14  2  0
 14  3  1  0
 14 16  1  0
 15 17  1  0
 15 16  2  0
 17 19  1  0
 18 13  1  0
 18 15  1  0
 20 21  2  0
 21 40  1  0
 22 21  1  0
 22 25  1  0
 23 20  1  0
 23 24  1  0
 24 22  2  0
 25 26  1  0
 26 27  2  0
 28 31  1  0
 28 27  1  0
 29 28  2  0
 30 29  1  0
 30 25  2  0
 31 32  1  0
 32 33  1  0
 33 34  2  0
 35 34  1  0
 35 39  1  0
 36 35  2  0
 37 32  2  0
 37 36  1  0
 38 37  1  0
 40 41  1  0
 41 44  1  0
 41 43  1  0
 42 40  2  0
 45 46  1  0
 45 20  1  0
 47 45  1  0
 48 13  1  0
 49 48  1  0
 50 48  2  0
 51 54  1  0
 51  2  1  0
 54 52  1  1
 54 53  1  0
 55 56  1  0
 55 54  1  0
 57 68  2  0
 58 56  1  0
 58 63  1  0
 59 67  1  0
 59 69  1  0
 60 66  1  0
 60 62  1  0
 61 67  1  0
 62 63  2  0
 62 61  1  0
 64 65  1  0
 64 58  2  0
 65 60  2  0
 66 59  1  0
 67 57  1  0
 69 71  2  0
 70 69  1  0
 72 70  1  0
 73 82  2  0
 73 78  1  0
 74 70  1  0
 74 78  1  0
 75 74  1  0
 76 77  1  0
 76 75  1  0
 77 73  1  0
 78 79  2  0
 79 80  1  0
 81 80  2  0
 82 81  1  0
 83 57  1  0
 83 84  1  0
 83 93  1  0
 84 87  1  0
 85 89  1  0
 85 84  1  0
 86 85  2  0
 89 88  1  0
 91 89  1  0
 91 92  1  0
 91 90  1  0
 93 96  1  1
 93 94  1  0
 95 93  1  0
M  ISO  4   5 100  17 100  55 101  56 101
M  END
>  <TORSDO>  (26) 
F 21

>  <SCORE>  (26) 
-13.954

>  <name>  (26) 
26

>  <ligand_id>  (26) 
26

>  <original_smiles>  (26) 
[H]c1c([H])c([H])c2c(c1[H])C([H])([H])C([H])([H])C([H])([H])C2([H])N([H])C(=O)C1([H])N(C(=O)C([H])(N([H])C(=O)C([H])(N([H])C([H])([H])[H])C([H])([H])[H])C(C([H])([H])[H])(C([H])([H])[H])C([H])([H])[H])C([H])([H])c2c([H])c(OC([H])([H])C(C([H])([H])[H])(C([H])([H])[H])C([H])([H])C([H])(N([H])c3nc(N([H])C(=O)N4C([H])([H])C([H])([H])C([H])([H])C([H])(n5nc(-c6c([H])c([H])c(Oc7c([H])c([H])c(F)c([H])c7F)c([H])c6[H])c(C(=O)N([H])[H])c5N([H])[H])C4([H])[H])sc3C(=O)C([H])([H])[H])C([H])([H])[H])c([H])c([H])c2C1([H])[H]

>  <smiles>  (26) 
[H]c1c([H])c([H])c2c(c1[H])C([H])([H])C([H])([H])C([H])([H])C2([H])N([H])C(=O)C1([H])N(C(=O)C([H])(N([H])C(=O)C([H])(N([H])C([H])([H])[H])C([H])([H])[H])C(C([H])([H])[H])(C([H])([H])[H])C([H])([H])[H])C([H])([H])c2c([H])c(OC([H])([H])C(C([H])([H])[H])(C([H])([H])[H])C([H])([H])C([H])(N([H])c3nc(N([H])C(=O)N4C([H])([H])C([H])([H])C([H])([H])C([H])(n5nc(-c6c([H])c([H])c(Oc7c([H])c([H])c(F)c([H])c7F)c([H])c6[H])c(C(=O)N([H])[H])c5N([H])[H])C4([H])[H])sc3C(=O)C([H])([H])[H])C([H])([H])[H])c([H])c([H])c2C1([H])[H]

$$$$
27:0:0
     RDKit          3D

 98106  0  0  1  0  0  0  0  0999 V2000
  -28.1800  -20.1940   20.2010 C   0  0  0  0  0  0  0  0  0  0  0  0
  -29.1810  -20.9730   20.6540 C   0  0  0  0  0  0  0  0  0  0  0  0
  -28.5720  -18.7900   20.0170 C   0  0  0  0  0  0  0  0  0  0  0  0
  -26.7500  -20.6280   19.9240 C   0  0  0  0  0  1  0  0  0  0  0  0
  -29.8710  -18.6030   20.3510 N   0  0  0  0  0  0  0  0  0  0  0  0
  -27.8590  -17.8940   19.5620 O   0  0  0  0  0  0  0  0  0  0  0  0
  -30.6440  -20.0400   20.9490 S   0  0  0  0  0  0  0  0  0  0  0  0
  -28.7310  -23.4010   20.2790 C   0  0  0  0  0  0  0  0  0  0  0  0
  -29.1470  -22.3440   21.0240 N   0  0  0  0  0  0  0  0  0  0  0  0
  -28.6590  -23.3350   19.0490 O   0  0  0  0  0  0  0  0  0  0  0  0
  -29.3370  -22.5360   21.9990 H   0  0  0  0  0  0  0  0  0  0  0  0
  -28.2380  -24.5370   22.5380 C   0  0  0  0  0  1  0  0  0  0  0  0
  -28.2410  -24.7040   21.0010 C   0  0  0  0  0  3  0  0  0  0  0  0
  -28.9470  -26.0550   20.6200 C   0  0  0  0  0  2  0  0  0  0  0  0
  -28.4280  -26.8210   19.5160 O   0  0  0  0  0  0  0  0  0  0  0  0
  -24.5730  -31.7550   23.0690 C   0  0  0  0  0  0  0  0  0  0  0  0
  -27.2630  -27.5410   19.6980 C   0  0  0  0  0  0  0  0  0  0  0  0
  -23.3740  -30.4270   21.3620 C   0  0  0  0  0  3  0  0  0  0  0  0
  -24.8410  -29.0060   19.8310 C   0  0  0  0  0  0  0  0  0  0  0  0
  -25.8890  -30.8490   21.1520 C   0  0  0  0  0  2  0  0  0  0  0  0
  -25.9970  -29.5130   20.4390 C   0  0  0  0  0  0  0  0  0  0  0  0
  -27.2140  -28.7850   20.3770 C   0  0  0  0  0  3  0  0  0  0  0  0
  -26.0930  -27.0580   19.0800 C   0  0  0  0  0  3  0  0  0  0  0  0
  -24.8840  -27.7760   19.1510 C   0  0  0  0  0  3  0  0  0  0  0  0
  -23.5790  -29.8350   19.9410 C   0  0  0  0  0  2  0  0  0  0  0  0
  -24.6310  -31.0230   21.9190 N   0  0  0  0  0  0  0  0  0  0  0  0
  -23.4940  -31.9690   23.6400 O   0  0  0  0  0  0  0  0  0  0  0  0
  -22.7610  -29.3360   22.2690 C   0  0  0  0  0  0  0  0  0  0  0  0
  -21.4330  -29.1490   22.1720 N   0  0  0  0  0  0  0  0  0  0  0  0
  -23.4740  -28.6610   23.0150 O   0  0  0  0  0  0  0  0  0  0  0  0
  -20.9170  -29.7480   21.5420 H   0  0  0  0  0  0  0  0  0  0  0  0
  -18.0800  -27.9230   22.7300 C   0  0  0  0  0  0  0  0  0  0  0  0
  -20.6490  -28.1510   22.9000 C   0  0  0  0  0  3  0  0  0  0  0  0
  -20.7150  -26.7750   22.1980 C   0  0  0  0  0  2  0  0  0  0  0  0
  -19.5630  -26.5430   21.2150 C   0  0  0  0  0  2  0  0  0  0  0  0
  -18.2150  -26.6360   21.9350 C   0  0  0  0  0  2  0  0  0  0  0  0
  -19.2240  -28.6420   23.1690 C   0  0  0  0  0  0  0  0  0  0  0  0
  -19.0410  -29.8510   23.8740 C   0  0  0  0  0  3  0  0  0  0  0  0
  -17.7500  -30.3400   24.1460 C   0  0  0  0  0  3  0  0  0  0  0  0
  -16.6210  -29.6160   23.7240 C   0  0  0  0  0  3  0  0  0  0  0  0
  -16.7880  -28.4080   23.0210 C   0  0  0  0  0  3  0  0  0  0  0  0
  -25.8520  -32.3780   23.7070 C   0  0  0  0  0  3  0  0  0  0  0  0
  -26.3860  -31.5630   24.9480 C   0  0  1  0  0  0  0  0  0  0  0  0
  -25.3030  -31.2730   26.0130 C   0  0  0  0  0  1  0  0  0  0  0  0
  -26.9800  -30.2080   24.4970 C   0  0  0  0  0  1  0  0  0  0  0  0
  -27.5330  -32.3420   25.6330 C   0  0  0  0  0  1  0  0  0  0  0  0
  -25.5260  -33.7570   24.0930 N   0  0  0  0  0  0  0  0  0  0  0  0
  -25.8590  -34.8440   23.3840 C   0  0  0  0  0  0  0  0  0  0  0  0
  -26.5430  -34.7910   22.3580 O   0  0  0  0  0  0  0  0  0  0  0  0
  -24.9190  -33.8720   24.8910 H   0  0  0  0  0  0  0  0  0  0  0  0
  -24.1380  -36.6470   23.0660 C   0  0  0  0  0  1  0  0  0  0  0  0
  -25.3550  -36.2060   23.8940 C   0  0  0  0  0  3  0  0  0  0  0  0
  -27.4540  -37.0600   24.8410 C   0  0  0  0  0  1  0  0  0  0  0  0
  -26.3880  -37.2650   23.8640 N   0  0  0  0  0  0  0  0  0  0  0  0
  -25.9740  -38.1790   24.0350 H   0  0  0  0  0  0  0  0  0  0  0  0
  -30.6900  -17.3770   20.0620 C   0  0  0  0  0  3  0  0  0  0  0  0
  -30.2890  -16.0900   20.8930 C   0  0  0  0  0  2  0  0  0  0  0  0
  -31.0340  -14.7640   20.5060 C   0  0  0  0  0  0  0  0  0  0  0  0
  -30.7670  -12.5570   19.4200 C   0  0  0  0  0  2  0  0  0  0  0  0
  -29.8660  -12.7320   18.1790 C   0  0  0  0  0  2  0  0  0  0  0  0
  -28.3780  -12.6100   18.5650 C   0  0  0  0  0  2  0  0  0  0  0  0
  -28.0060  -13.4860   19.7900 C   0  0  0  0  0  3  0  0  0  0  0  0
  -29.0260  -13.3070   20.9370 C   0  0  0  0  0  2  0  0  0  0  0  0
  -30.3660  -13.5780   20.4040 N   0  0  0  0  0  0  0  0  0  0  0  0
  -32.2090  -14.8620   20.1400 O   0  0  0  0  0  0  0  0  0  0  0  0
  -25.6050  -14.1400   20.4350 C   0  0  0  0  0  0  0  0  0  0  0  0
  -24.5140  -13.3880   20.7810 C   0  0  0  0  0  0  0  0  0  0  0  0
  -24.9530  -12.0290   20.7780 C   0  0  0  0  0  0  0  0  0  0  0  0
  -26.6390  -13.2380   20.2390 N   0  0  0  0  0  0  0  0  0  0  0  0
  -26.2500  -11.9650   20.5060 N   0  0  0  0  0  0  0  0  0  0  0  0
  -24.2000  -10.7820   20.9600 C   0  0  0  0  0  0  0  0  0  0  0  0
  -24.5790   -9.8260   21.9290 C   0  0  0  0  0  3  0  0  0  0  0  0
  -23.8290   -8.6420   22.0970 C   0  0  0  0  0  3  0  0  0  0  0  0
  -22.6850   -8.4050   21.2970 C   0  0  0  0  0  0  0  0  0  0  0  0
  -22.3260   -9.3510   20.3190 C   0  0  0  0  0  3  0  0  0  0  0  0
  -23.0770  -10.5260   20.1490 C   0  0  0  0  0  3  0  0  0  0  0  0
  -21.9100   -7.2730   21.3730 O   0  0  0  0  0  0  0  0  0  0  0  0
  -21.7920   -6.5600   22.5390 C   0  0  0  0  0  0  0  0  0  0  0  0
  -21.2770   -7.1410   23.7200 C   0  0  0  0  0  3  0  0  0  0  0  0
  -21.1070   -6.3530   24.8750 C   0  0  0  0  0  3  0  0  0  0  0  0
  -21.4410   -4.9850   24.8500 C   0  0  0  0  0  0  0  0  0  0  0  0
  -21.9470   -4.4050   23.6750 C   0  0  0  0  0  3  0  0  0  0  0  0
  -22.1190   -5.1890   22.5220 C   0  0  0  0  0  0  0  0  0  0  0  0
  -22.5880   -4.6200   21.3850 F   0  0  0  0  0  0  0  0  0  0  0  0
  -21.2690   -4.2250   25.9590 F   0  0  0  0  0  0  0  0  0  0  0  0
  -23.1180  -13.8920   21.0080 C   0  0  0  0  0  0  0  0  0  0  0  0
  -22.3570  -13.2230   21.8680 N   0  0  0  0  0  0  0  0  0  0  0  0
  -22.7080  -14.9130   20.4580 O   0  0  0  0  0  0  0  0  0  0  0  0
  -22.7000  -12.3970   22.3350 H   0  0  0  0  0  0  0  0  0  0  0  0
  -21.4190  -13.5420   22.0610 H   0  0  0  0  0  0  0  0  0  0  0  0
  -25.7960  -15.5070   20.2510 N   0  0  0  0  0  0  0  0  0  0  0  0
  -25.0320  -16.1670   20.3410 H   0  0  0  0  0  0  0  0  0  0  0  0
  -26.6580  -15.9530   19.9570 H   0  0  0  0  0  0  0  0  0  0  0  0
  -30.7520  -17.1020   18.5250 C   0  0  0  0  0  2  0  0  0  0  0  0
  -31.0680  -18.2940   17.7140 N   0  0  0  0  0  4  0  0  0  0  0  0
  -30.3520  -18.9920   17.7860 H   0  0  0  0  0  0  0  0  0  0  0  0
  -31.1420  -18.0300   16.7460 H   0  0  0  0  0  0  0  0  0  0  0  0
  -31.9480  -18.6940   17.9910 H   0  0  0  0  0  0  0  0  0  0  0  0
  1  2  2  0
  2  7  1  0
  2  9  1  0
  3  1  1  0
  3  5  1  0
  4  1  1  0
  5  7  1  0
  6  3  2  0
  8 13  1  0
  8  9  1  0
  9 11  1  0
 10  8  2  0
 13 12  1  0
 14 13  1  0
 15 17  1  0
 15 14  1  0
 16 27  2  0
 17 22  1  0
 18 26  1  0
 18 28  1  0
 19 25  1  0
 19 21  1  0
 20 26  1  0
 21 20  1  0
 22 21  2  0
 23 24  1  0
 23 17  2  0
 24 19  2  0
 25 18  1  0
 26 16  1  0
 28 30  2  0
 29 28  1  0
 31 29  1  0
 32 41  2  0
 32 37  1  0
 33 29  1  0
 33 37  1  0
 34 33  1  0
 35 36  1  0
 35 34  1  0
 36 32  1  0
 37 38  2  0
 38 39  1  0
 40 39  2  0
 41 40  1  0
 42 16  1  0
 42 47  1  0
 42 43  1  0
 43 46  1  1
 43 44  1  0
 45 43  1  0
 47 50  1  0
 48 52  1  0
 48 47  1  0
 49 48  2  0
 52 51  1  0
 54 52  1  0
 54 55  1  0
 54 53  1  0
 56 94  1  0
 56  5  1  0
 56 57  1  0
 58 57  1  0
 59 64  1  0
 60 61  1  0
 60 59  1  0
 62 61  1  0
 62 69  1  0
 62 63  1  0
 64 58  1  0
 64 63  1  0
 65 58  2  0
 66 67  2  0
 67 86  1  0
 68 67  1  0
 68 71  1  0
 69 66  1  0
 69 70  1  0
 70 68  2  0
 71 72  1  0
 72 73  2  0
 74 77  1  0
 74 73  1  0
 75 74  2  0
 76 75  1  0
 76 71  2  0
 77 78  1  0
 78 79  1  0
 79 80  2  0
 81 80  1  0
 81 85  1  0
 82 81  2  0
 83 78  2  0
 83 82  1  0
 84 83  1  0
 86 87  1  0
 87 90  1  0
 87 89  1  0
 88 86  2  0
 91 92  1  0
 91 66  1  0
 93 91  1  0
 95 96  1  0
 95 98  1  0
 95 94  1  0
 97 95  1  0
M  ISO  4  14 101  15 101  57 100  58 100
M  END
>  <TORSDO>  (27) 
F 23

>  <SCORE>  (27) 
-12.055

>  <name>  (27) 
27

>  <ligand_id>  (27) 
27

>  <original_smiles>  (27) 
[H]c1c([H])c([H])c2c(c1[H])C([H])([H])C([H])([H])C([H])([H])C2([H])N([H])C(=O)C1([H])N(C(=O)C([H])(N([H])C(=O)C([H])(N([H])C([H])([H])[H])C([H])([H])[H])C(C([H])([H])[H])(C([H])([H])[H])C([H])([H])[H])C([H])([H])c2c([H])c(OC([H])([H])C([H])(C(=O)N([H])c3sn(C([H])(C([H])([H])C(=O)N4C([H])([H])C([H])([H])C([H])([H])C([H])(n5nc(-c6c([H])c([H])c(Oc7c([H])c([H])c(F)c([H])c7F)c([H])c6[H])c(C(=O)N([H])[H])c5N([H])[H])C4([H])[H])C([H])([H])[N+]([H])([H])[H])c(=O)c3C([H])([H])[H])C([H])([H])[H])c([H])c([H])c2C1([H])[H]

>  <smiles>  (27) 
[H]c1c([H])c([H])c2c(c1[H])C([H])([H])C([H])([H])C([H])([H])C2([H])N([H])C(=O)C1([H])N(C(=O)C([H])(N([H])C(=O)C([H])(N([H])C([H])([H])[H])C([H])([H])[H])C(C([H])([H])[H])(C([H])([H])[H])C([H])([H])[H])C([H])([H])c2c([H])c(OC([H])([H])C([H])(C(=O)N([H])c3sn(C([H])(C([H])([H])C(=O)N4C([H])([H])C([H])([H])C([H])([H])C([H])(n5nc(-c6c([H])c([H])c(Oc7c([H])c([H])c(F)c([H])c7F)c([H])c6[H])c(C(=O)N([H])[H])c5N([H])[H])C4([H])[H])C([H])([H])[N+]([H])([H])[H])c(=O)c3C([H])([H])[H])C([H])([H])[H])c([H])c([H])c2C1([H])[H]

$$$$
28:0:0
     RDKit          3D

 92100  0  0  1  0  0  0  0  0999 V2000
  -28.5510  -17.8660   20.3160 C   0  0  0  0  0  0  0  0  0  0  0  0
  -29.8310  -17.3330   20.4020 C   0  0  0  0  0  0  0  0  0  0  0  0
  -29.6390  -19.9080   20.0880 C   0  0  0  0  0  0  0  0  0  0  0  0
  -28.8630  -22.4000   19.9420 C   0  0  0  0  0  0  0  0  0  0  0  0
  -27.2580  -17.1420   20.5230 C   0  0  0  0  0  1  0  0  0  0  0  0
  -28.4630  -19.2690   20.1230 N   0  0  0  0  0  0  0  0  0  0  0  0
  -29.7860  -21.3730   20.0320 N   0  0  0  0  0  0  0  0  0  0  0  0
  -27.6600  -22.1680   19.8100 O   0  0  0  0  0  0  0  0  0  0  0  0
  -30.9710  -18.6970   20.2060 S   0  0  0  0  0  0  0  0  0  0  0  0
  -30.7430  -21.6870   20.0950 H   0  0  0  0  0  0  0  0  0  0  0  0
  -31.3260  -16.0050   21.9500 C   0  0  0  0  0  1  0  0  0  0  0  0
  -30.2050  -15.8820   20.9000 C   0  0  0  0  0  3  0  0  0  0  0  0
  -30.5870  -14.6720   19.9230 C   0  0  0  0  0  0  0  0  0  0  0  0
  -30.2850  -12.4150   18.8650 C   0  0  0  0  0  2  0  0  0  0  0  0
  -29.2610  -12.4690   17.7110 C   0  0  0  0  0  2  0  0  0  0  0  0
  -27.8310  -12.2750   18.2460 C   0  0  0  0  0  2  0  0  0  0  0  0
  -27.5340  -13.1720   19.4760 C   0  0  0  0  0  3  0  0  0  0  0  0
  -28.6690  -13.0840   20.5230 C   0  0  0  0  0  2  0  0  0  0  0  0
  -29.9280  -13.4600   19.8590 N   0  0  0  0  0  0  0  0  0  0  0  0
  -31.6030  -14.8280   19.2390 O   0  0  0  0  0  0  0  0  0  0  0  0
  -25.2120  -13.7410   20.4170 C   0  0  0  0  0  0  0  0  0  0  0  0
  -24.1770  -12.9600   20.8500 C   0  0  0  0  0  0  0  0  0  0  0  0
  -24.6150  -11.6090   20.7010 C   0  0  0  0  0  0  0  0  0  0  0  0
  -26.2270  -12.8700   20.0560 N   0  0  0  0  0  0  0  0  0  0  0  0
  -25.8750  -11.5770   20.2800 N   0  0  0  0  0  0  0  0  0  0  0  0
  -23.8860  -10.3480   20.8780 C   0  0  0  0  0  0  0  0  0  0  0  0
  -24.3220   -9.3640   21.7940 C   0  0  0  0  0  3  0  0  0  0  0  0
  -23.5910   -8.1680   21.9590 C   0  0  0  0  0  3  0  0  0  0  0  0
  -22.4110   -7.9460   21.2090 C   0  0  0  0  0  0  0  0  0  0  0  0
  -21.9950   -8.9190   20.2820 C   0  0  0  0  0  3  0  0  0  0  0  0
  -22.7260  -10.1060   20.1150 C   0  0  0  0  0  3  0  0  0  0  0  0
  -21.6520   -6.8040   21.2870 O   0  0  0  0  0  0  0  0  0  0  0  0
  -21.5500   -6.0860   22.4510 C   0  0  0  0  0  0  0  0  0  0  0  0
  -21.0090   -6.6460   23.6280 C   0  0  0  0  0  3  0  0  0  0  0  0
  -20.8600   -5.8500   24.7820 C   0  0  0  0  0  3  0  0  0  0  0  0
  -21.2420   -4.4950   24.7590 C   0  0  0  0  0  0  0  0  0  0  0  0
  -21.7760   -3.9350   23.5850 C   0  0  0  0  0  3  0  0  0  0  0  0
  -21.9270   -4.7280   22.4340 C   0  0  0  0  0  0  0  0  0  0  0  0
  -22.4240   -4.1760   21.3000 F   0  0  0  0  0  0  0  0  0  0  0  0
  -21.0920   -3.7290   25.8650 F   0  0  0  0  0  0  0  0  0  0  0  0
  -22.8170  -13.4380   21.2730 C   0  0  0  0  0  0  0  0  0  0  0  0
  -22.1600  -12.7050   22.1640 N   0  0  0  0  0  0  0  0  0  0  0  0
  -22.3510  -14.4950   20.8500 O   0  0  0  0  0  0  0  0  0  0  0  0
  -22.5510  -11.8490   22.5280 H   0  0  0  0  0  0  0  0  0  0  0  0
  -21.2520  -13.0050   22.4890 H   0  0  0  0  0  0  0  0  0  0  0  0
  -25.3560  -15.1140   20.2690 N   0  0  0  0  0  0  0  0  0  0  0  0
  -24.5780  -15.7440   20.4280 H   0  0  0  0  0  0  0  0  0  0  0  0
  -26.1270  -15.5520   19.7800 H   0  0  0  0  0  0  0  0  0  0  0  0
  -30.5560  -24.1530   19.1230 C   0  0  0  0  0  1  0  0  0  0  0  0
  -29.3170  -23.9350   20.0120 C   0  0  0  0  0  3  0  0  0  0  0  0
  -28.2070  -25.0540   19.6830 C   0  0  0  0  0  2  0  0  0  0  0  0
  -28.4070  -26.5110   19.9670 O   0  0  0  0  0  0  0  0  0  0  0  0
  -24.5190  -31.7630   23.1270 C   0  0  0  0  0  0  0  0  0  0  0  0
  -27.2730  -27.3540   19.9440 C   0  0  0  0  0  0  0  0  0  0  0  0
  -23.3650  -30.3900   21.4320 C   0  0  0  0  0  3  0  0  0  0  0  0
  -24.8680  -28.9230   19.9710 C   0  0  0  0  0  0  0  0  0  0  0  0
  -25.9010  -30.7690   21.2850 C   0  0  0  0  0  2  0  0  0  0  0  0
  -26.0220  -29.4130   20.5960 C   0  0  0  0  0  0  0  0  0  0  0  0
  -27.2270  -28.6420   20.5730 C   0  0  0  0  0  3  0  0  0  0  0  0
  -26.0880  -26.9290   19.2970 C   0  0  0  0  0  3  0  0  0  0  0  0
  -24.9050  -27.6870   19.3130 C   0  0  0  0  0  3  0  0  0  0  0  0
  -23.6080  -29.7640   20.0350 C   0  0  0  0  0  2  0  0  0  0  0  0
  -24.6130  -30.9890   22.0060 N   0  0  0  0  0  0  0  0  0  0  0  0
  -23.4240  -31.9980   23.6580 O   0  0  0  0  0  0  0  0  0  0  0  0
  -22.7180  -29.3270   22.3530 C   0  0  0  0  0  0  0  0  0  0  0  0
  -21.3970  -29.1260   22.2120 N   0  0  0  0  0  0  0  0  0  0  0  0
  -23.4050  -28.6880   23.1540 O   0  0  0  0  0  0  0  0  0  0  0  0
  -20.9000  -29.6960   21.5430 H   0  0  0  0  0  0  0  0  0  0  0  0
  -18.0310  -27.8960   22.7060 C   0  0  0  0  0  0  0  0  0  0  0  0
  -20.5940  -28.1450   22.9440 C   0  0  0  0  0  3  0  0  0  0  0  0
  -20.6870  -26.7470   22.2880 C   0  0  0  0  0  2  0  0  0  0  0  0
  -19.5670  -26.4780   21.2780 C   0  0  0  0  0  2  0  0  0  0  0  0
  -18.1970  -26.5860   21.9540 C   0  0  0  0  0  2  0  0  0  0  0  0
  -19.1570  -28.6350   23.1570 C   0  0  0  0  0  0  0  0  0  0  0  0
  -18.9480  -29.8630   23.8220 C   0  0  0  0  0  3  0  0  0  0  0  0
  -17.6460  -30.3520   24.0400 C   0  0  0  0  0  3  0  0  0  0  0  0
  -16.5350  -29.6080   23.6060 C   0  0  0  0  0  3  0  0  0  0  0  0
  -16.7290  -28.3830   22.9430 C   0  0  0  0  0  3  0  0  0  0  0  0
  -25.7800  -32.4050   23.7830 C   0  0  0  0  0  3  0  0  0  0  0  0
  -26.3010  -31.6080   25.0410 C   0  0  1  0  0  0  0  0  0  0  0  0
  -25.1970  -31.2950   26.0780 C   0  0  0  0  0  1  0  0  0  0  0  0
  -26.9410  -30.2650   24.6140 C   0  0  0  0  0  1  0  0  0  0  0  0
  -27.4120  -32.4190   25.7510 C   0  0  0  0  0  1  0  0  0  0  0  0
  -25.4350  -33.7850   24.1540 N   0  0  0  0  0  0  0  0  0  0  0  0
  -25.7210  -34.8660   23.4170 C   0  0  0  0  0  0  0  0  0  0  0  0
  -26.3730  -34.8100   22.3710 O   0  0  0  0  0  0  0  0  0  0  0  0
  -24.8510  -33.9020   24.9690 H   0  0  0  0  0  0  0  0  0  0  0  0
  -23.9250  -36.6090   23.1540 C   0  0  0  0  0  1  0  0  0  0  0  0
  -25.2000  -36.2270   23.9210 C   0  0  0  0  0  3  0  0  0  0  0  0
  -27.3150  -37.1780   24.7290 C   0  0  0  0  0  1  0  0  0  0  0  0
  -26.1930  -37.3170   23.8040 N   0  0  0  0  0  0  0  0  0  0  0  0
  -25.7560  -38.2200   23.9700 H   0  0  0  0  0  0  0  0  0  0  0  0
  1  2  2  0
  1  5  1  0
  2 12  1  0
  3  6  2  0
  3  9  1  0
  4 50  1  0
  4  7  1  0
  6  1  1  0
  7  3  1  0
  7 10  1  0
  8  4  2  0
  9  2  1  0
 12 11  1  0
 13 12  1  0
 14 19  1  0
 15 16  1  0
 15 14  1  0
 17 16  1  0
 17 24  1  0
 17 18  1  0
 19 13  1  0
 19 18  1  0
 20 13  2  0
 21 22  2  0
 22 41  1  0
 23 22  1  0
 23 26  1  0
 24 25  1  0
 24 21  1  0
 25 23  2  0
 26 27  1  0
 27 28  2  0
 29 32  1  0
 29 28  1  0
 30 29  2  0
 31 30  1  0
 31 26  2  0
 32 33  1  0
 33 34  1  0
 34 35  2  0
 36 35  1  0
 36 40  1  0
 37 36  2  0
 38 33  2  0
 38 37  1  0
 39 38  1  0
 41 42  1  0
 42 45  1  0
 42 44  1  0
 43 41  2  0
 46 21  1  0
 46 47  1  0
 48 46  1  0
 50 49  1  0
 51 52  1  0
 51 50  1  0
 53 64  2  0
 54 52  1  0
 54 59  1  0
 55 63  1  0
 55 65  1  0
 56 62  1  0
 56 58  1  0
 57 63  1  0
 58 57  1  0
 59 58  2  0
 60 61  1  0
 60 54  2  0
 61 56  2  0
 62 55  1  0
 63 53  1  0
 65 67  2  0
 66 65  1  0
 68 66  1  0
 69 78  2  0
 69 74  1  0
 70 66  1  0
 70 74  1  0
 71 70  1  0
 72 73  1  0
 72 71  1  0
 73 69  1  0
 74 75  2  0
 75 76  1  0
 77 76  2  0
 78 77  1  0
 79 53  1  0
 79 84  1  0
 79 80  1  0
 80 83  1  1
 80 81  1  0
 82 80  1  0
 84 87  1  0
 85 89  1  0
 85 84  1  0
 86 85  2  0
 89 88  1  0
 91 89  1  0
 91 92  1  0
 91 90  1  0
M  ISO  4  12 100  13 100  51 101  52 101
M  END
>  <TORSDO>  (28) 
F 19

>  <SCORE>  (28) 
-13.594

>  <name>  (28) 
28

>  <ligand_id>  (28) 
28

>  <original_smiles>  (28) 
[H]c1c([H])c([H])c2c(c1[H])C([H])([H])C([H])([H])C([H])([H])C2([H])N([H])C(=O)C1([H])N(C(=O)C([H])(N([H])C(=O)C([H])(N([H])C([H])([H])[H])C([H])([H])[H])C(C([H])([H])[H])(C([H])([H])[H])C([H])([H])[H])C([H])([H])c2c([H])c(OC([H])([H])C([H])(C(=O)N([H])c3nc(C([H])([H])[H])c(C([H])(C(=O)N4C([H])([H])C([H])([H])C([H])([H])C([H])(n5nc(-c6c([H])c([H])c(Oc7c([H])c([H])c(F)c([H])c7F)c([H])c6[H])c(C(=O)N([H])[H])c5N([H])[H])C4([H])[H])C([H])([H])[H])s3)C([H])([H])[H])c([H])c([H])c2C1([H])[H]

>  <smiles>  (28) 
[H]c1c([H])c([H])c2c(c1[H])C([H])([H])C([H])([H])C([H])([H])C2([H])N([H])C(=O)C1([H])N(C(=O)C([H])(N([H])C(=O)C([H])(N([H])C([H])([H])[H])C([H])([H])[H])C(C([H])([H])[H])(C([H])([H])[H])C([H])([H])[H])C([H])([H])c2c([H])c(OC([H])([H])C([H])(C(=O)N([H])c3nc(C([H])([H])[H])c(C([H])(C(=O)N4C([H])([H])C([H])([H])C([H])([H])C([H])(n5nc(-c6c([H])c([H])c(Oc7c([H])c([H])c(F)c([H])c7F)c([H])c6[H])c(C(=O)N([H])[H])c5N([H])[H])C4([H])[H])C([H])([H])[H])s3)C([H])([H])[H])c([H])c([H])c2C1([H])[H]

$$$$
29:0:0
     RDKit          3D

 93101  0  0  1  0  0  0  0  0999 V2000
  -29.4450  -23.0460   21.5270 C   0  0  0  0  0  0  0  0  0  0  0  0
  -29.5150  -21.6970   21.3680 N   0  0  0  0  0  0  0  0  0  0  0  0
  -29.9500  -23.4970   22.5560 O   0  0  0  0  0  0  0  0  0  0  0  0
  -29.9740  -21.2480   22.1500 H   0  0  0  0  0  0  0  0  0  0  0  0
  -29.3420  -21.1300   18.9220 C   0  0  0  0  0  1  0  0  0  0  0  0
  -29.0700  -20.6940   20.3730 C   0  0  0  0  0  3  0  0  0  0  0  0
  -31.4120  -17.5320   21.1000 C   0  0  0  0  0  3  0  0  0  0  0  0
  -30.1610  -17.0660   20.7770 C   0  0  0  0  0  0  0  0  0  0  0  0
  -29.7730  -19.3610   20.6780 C   0  0  0  0  0  0  0  0  0  0  0  0
  -29.2360  -18.1200   20.5640 N   0  0  0  0  0  0  0  0  0  0  0  0
  -31.4870  -19.2760   21.1010 S   0  0  0  0  0  0  0  0  0  0  0  0
  -30.5950  -14.5930   20.3930 C   0  0  0  0  0  0  0  0  0  0  0  0
  -30.3320  -12.3970   19.2850 C   0  0  0  0  0  2  0  0  0  0  0  0
  -29.3740  -12.5590   18.0860 C   0  0  0  0  0  2  0  0  0  0  0  0
  -27.9070  -12.4020   18.5360 C   0  0  0  0  0  2  0  0  0  0  0  0
  -27.5700  -13.2530   19.7880 C   0  0  0  0  0  3  0  0  0  0  0  0
  -28.6400  -13.0740   20.8880 C   0  0  0  0  0  2  0  0  0  0  0  0
  -29.9450  -13.3980   20.2940 N   0  0  0  0  0  0  0  0  0  0  0  0
  -31.7630  -14.7250   20.0090 O   0  0  0  0  0  0  0  0  0  0  0  0
  -29.8170  -15.6650   20.7180 N   0  0  0  0  0  0  0  0  0  0  0  0
  -28.8430  -15.4490   20.8600 H   0  0  0  0  0  0  0  0  0  0  0  0
  -25.1840  -13.8550   20.5320 C   0  0  0  0  0  0  0  0  0  0  0  0
  -24.1220  -13.0800   20.9100 C   0  0  0  0  0  0  0  0  0  0  0  0
  -24.5850  -11.7290   20.8730 C   0  0  0  0  0  0  0  0  0  0  0  0
  -26.2270  -12.9740   20.2860 N   0  0  0  0  0  0  0  0  0  0  0  0
  -25.8720  -11.6920   20.5510 N   0  0  0  0  0  0  0  0  0  0  0  0
  -23.8620  -10.4660   21.0640 C   0  0  0  0  0  0  0  0  0  0  0  0
  -24.3110   -9.4910   21.9830 C   0  0  0  0  0  3  0  0  0  0  0  0
  -23.5890   -8.2920   22.1630 C   0  0  0  0  0  3  0  0  0  0  0  0
  -22.4050   -8.0580   21.4250 C   0  0  0  0  0  0  0  0  0  0  0  0
  -21.9740   -9.0220   20.4960 C   0  0  0  0  0  3  0  0  0  0  0  0
  -22.6960  -10.2130   20.3130 C   0  0  0  0  0  3  0  0  0  0  0  0
  -21.6530   -6.9110   21.5150 O   0  0  0  0  0  0  0  0  0  0  0  0
  -21.6320   -6.1530   22.6580 C   0  0  0  0  0  0  0  0  0  0  0  0
  -21.2360   -6.6920   23.9020 C   0  0  0  0  0  3  0  0  0  0  0  0
  -21.1640   -5.8610   25.0380 C   0  0  0  0  0  3  0  0  0  0  0  0
  -21.4740   -4.4920   24.9310 C   0  0  0  0  0  0  0  0  0  0  0  0
  -21.8620   -3.9520   23.6910 C   0  0  0  0  0  3  0  0  0  0  0  0
  -21.9380   -4.7810   22.5580 C   0  0  0  0  0  0  0  0  0  0  0  0
  -22.2920   -4.2510   21.3620 F   0  0  0  0  0  0  0  0  0  0  0  0
  -21.3970   -3.6910   26.0190 F   0  0  0  0  0  0  0  0  0  0  0  0
  -22.7270  -13.5560   21.1960 C   0  0  0  0  0  0  0  0  0  0  0  0
  -22.0070  -12.8550   22.0640 N   0  0  0  0  0  0  0  0  0  0  0  0
  -22.2830  -14.5820   20.6830 O   0  0  0  0  0  0  0  0  0  0  0  0
  -22.3780  -12.0230   22.4990 H   0  0  0  0  0  0  0  0  0  0  0  0
  -21.0710  -13.1550   22.2980 H   0  0  0  0  0  0  0  0  0  0  0  0
  -25.3460  -15.2270   20.3540 N   0  0  0  0  0  0  0  0  0  0  0  0
  -24.5740  -15.8740   20.4680 H   0  0  0  0  0  0  0  0  0  0  0  0
  -26.1790  -15.6680   19.9870 H   0  0  0  0  0  0  0  0  0  0  0  0
  -28.8040  -24.0630   20.5220 C   0  0  0  0  0  2  0  0  0  0  0  0
  -27.1810  -25.3390   22.0720 C   0  0  0  0  0  1  0  0  0  0  0  0
  -28.4110  -25.4730   21.1410 C   0  0  0  0  0  3  0  0  0  0  0  0
  -28.3480  -26.5930   20.1920 O   0  0  0  0  0  0  0  0  0  0  0  0
  -24.5680  -31.8670   23.2390 C   0  0  0  0  0  0  0  0  0  0  0  0
  -27.2180  -27.4010   20.1750 C   0  0  0  0  0  0  0  0  0  0  0  0
  -23.3740  -30.4690   21.5880 C   0  0  0  0  0  3  0  0  0  0  0  0
  -24.8350  -28.9390   20.1590 C   0  0  0  0  0  0  0  0  0  0  0  0
  -25.9010  -30.8290   21.3980 C   0  0  0  0  0  2  0  0  0  0  0  0
  -25.9940  -29.4550   20.7550 C   0  0  0  0  0  0  0  0  0  0  0  0
  -27.1940  -28.6970   20.7560 C   0  0  0  0  0  3  0  0  0  0  0  0
  -26.0500  -26.9190   19.5530 C   0  0  0  0  0  3  0  0  0  0  0  0
  -24.8600  -27.6710   19.5490 C   0  0  0  0  0  3  0  0  0  0  0  0
  -23.5900  -29.7990   20.2050 C   0  0  0  0  0  2  0  0  0  0  0  0
  -24.6330  -31.0710   22.1330 N   0  0  0  0  0  0  0  0  0  0  0  0
  -23.4820  -32.1320   23.7740 O   0  0  0  0  0  0  0  0  0  0  0  0
  -22.7200  -29.4420   22.5440 C   0  0  0  0  0  0  0  0  0  0  0  0
  -21.3960  -29.2600   22.4130 N   0  0  0  0  0  0  0  0  0  0  0  0
  -23.4010  -28.8170   23.3620 O   0  0  0  0  0  0  0  0  0  0  0  0
  -20.9030  -29.8200   21.7320 H   0  0  0  0  0  0  0  0  0  0  0  0
  -18.0210  -28.0590   22.9030 C   0  0  0  0  0  0  0  0  0  0  0  0
  -20.5790  -28.3160   23.1770 C   0  0  0  0  0  3  0  0  0  0  0  0
  -20.6820  -26.8900   22.5890 C   0  0  0  0  0  2  0  0  0  0  0  0
  -19.5790  -26.5760   21.5730 C   0  0  0  0  0  2  0  0  0  0  0  0
  -18.1970  -26.7150   22.2180 C   0  0  0  0  0  2  0  0  0  0  0  0
  -19.1390  -28.8180   23.3390 C   0  0  0  0  0  0  0  0  0  0  0  0
  -18.9190  -30.0780   23.9380 C   0  0  0  0  0  3  0  0  0  0  0  0
  -17.6140  -30.5770   24.1090 C   0  0  0  0  0  3  0  0  0  0  0  0
  -16.5110  -29.8140   23.6890 C   0  0  0  0  0  3  0  0  0  0  0  0
  -16.7150  -28.5590   23.0900 C   0  0  0  0  0  3  0  0  0  0  0  0
  -25.8470  -32.5020   23.8670 C   0  0  0  0  0  3  0  0  0  0  0  0
  -26.3610  -31.7280   25.1430 C   0  0  1  0  0  0  0  0  0  0  0  0
  -25.2660  -31.4910   26.2080 C   0  0  0  0  0  1  0  0  0  0  0  0
  -26.9460  -30.3520   24.7470 C   0  0  0  0  0  1  0  0  0  0  0  0
  -27.5080  -32.5230   25.8110 C   0  0  0  0  0  1  0  0  0  0  0  0
  -25.5310  -33.8980   24.1970 N   0  0  0  0  0  0  0  0  0  0  0  0
  -25.8650  -34.9520   23.4410 C   0  0  0  0  0  0  0  0  0  0  0  0
  -26.5400  -34.8540   22.4120 O   0  0  0  0  0  0  0  0  0  0  0  0
  -24.9350  -34.0500   24.9960 H   0  0  0  0  0  0  0  0  0  0  0  0
  -24.1340  -36.7410   23.0820 C   0  0  0  0  0  1  0  0  0  0  0  0
  -25.3720  -36.3390   23.8980 C   0  0  0  0  0  3  0  0  0  0  0  0
  -27.5030  -37.2280   24.7350 C   0  0  0  0  0  1  0  0  0  0  0  0
  -26.4030  -37.3950   23.7900 N   0  0  0  0  0  0  0  0  0  0  0  0
  -25.9940  -38.3130   23.9370 H   0  0  0  0  0  0  0  0  0  0  0  0
  1  3  2  0
  2  1  1  0
  2  4  1  0
  6  5  1  0
  6  9  1  0
  6  2  1  0
  7 11  1  0
  8  7  2  0
  9 11  1  0
 10  9  2  0
 10  8  1  0
 12 20  1  0
 13 18  1  0
 14 15  1  0
 14 13  1  0
 16 15  1  0
 16 25  1  0
 16 17  1  0
 18 12  1  0
 18 17  1  0
 19 12  2  0
 20  8  1  0
 20 21  1  0
 22 23  2  0
 23 42  1  0
 24 23  1  0
 24 27  1  0
 25 22  1  0
 25 26  1  0
 26 24  2  0
 27 28  1  0
 28 29  2  0
 30 33  1  0
 30 29  1  0
 31 30  2  0
 32 31  1  0
 32 27  2  0
 33 34  1  0
 34 35  1  0
 35 36  2  0
 37 36  1  0
 37 41  1  0
 38 37  2  0
 39 34  2  0
 39 38  1  0
 40 39  1  0
 42 43  1  0
 43 46  1  0
 43 45  1  0
 44 42  2  0
 47 48  1  0
 47 22  1  0
 49 47  1  0
 50 52  1  0
 50  1  1  0
 52 51  1  0
 53 52  1  0
 54 65  2  0
 55 53  1  0
 55 60  1  0
 56 64  1  0
 56 66  1  0
 57 63  1  0
 57 59  1  0
 58 64  1  0
 59 60  2  0
 59 58  1  0
 61 55  2  0
 62 61  1  0
 62 57  2  0
 63 56  1  0
 64 54  1  0
 66 68  2  0
 67 66  1  0
 69 67  1  0
 70 79  2  0
 70 75  1  0
 71 67  1  0
 71 75  1  0
 72 71  1  0
 73 74  1  0
 73 72  1  0
 74 70  1  0
 75 76  2  0
 76 77  1  0
 78 77  2  0
 79 78  1  0
 80 54  1  0
 80 85  1  0
 80 81  1  0
 81 84  1  1
 81 82  1  0
 83 81  1  0
 85 88  1  0
 86 90  1  0
 86 85  1  0
 87 86  2  0
 90 89  1  0
 92 90  1  0
 92 93  1  0
 92 91  1  0
M  ISO  4  12 100  20 100  52 101  53 101
M  END
>  <TORSDO>  (29) 
F 20

>  <SCORE>  (29) 
-14.228

>  <name>  (29) 
29

>  <ligand_id>  (29) 
29

>  <original_smiles>  (29) 
[H]c1sc(C([H])(N([H])C(=O)C([H])([H])C([H])(Oc2c([H])c([H])c3c(c2[H])C([H])([H])N(C(=O)C([H])(N([H])C(=O)C([H])(N([H])C([H])([H])[H])C([H])([H])[H])C(C([H])([H])[H])(C([H])([H])[H])C([H])([H])[H])C([H])(C(=O)N([H])C2([H])c4c([H])c([H])c([H])c([H])c4C([H])([H])C([H])([H])C2([H])[H])C3([H])[H])C([H])([H])[H])C([H])([H])[H])nc1N([H])C(=O)N1C([H])([H])C([H])([H])C([H])([H])C([H])(n2nc(-c3c([H])c([H])c(Oc4c([H])c([H])c(F)c([H])c4F)c([H])c3[H])c(C(=O)N([H])[H])c2N([H])[H])C1([H])[H]

>  <smiles>  (29) 
[H]c1sc(C([H])(N([H])C(=O)C([H])([H])C([H])(Oc2c([H])c([H])c3c(c2[H])C([H])([H])N(C(=O)C([H])(N([H])C(=O)C([H])(N([H])C([H])([H])[H])C([H])([H])[H])C(C([H])([H])[H])(C([H])([H])[H])C([H])([H])[H])C([H])(C(=O)N([H])C2([H])c4c([H])c([H])c([H])c([H])c4C([H])([H])C([H])([H])C2([H])[H])C3([H])[H])C([H])([H])[H])C([H])([H])[H])nc1N([H])C(=O)N1C([H])([H])C([H])([H])C([H])([H])C([H])(n2nc(-c3c([H])c([H])c(Oc4c([H])c([H])c(F)c([H])c4F)c([H])c3[H])c(C(=O)N([H])[H])c2N([H])[H])C1([H])[H]

$$$$
30:0:0
     RDKit          3D

 99107  0  0  1  0  0  0  0  0999 V2000
  -29.0020  -23.1180   20.8440 C   0  0  0  0  0  0  0  0  0  0  0  0
  -28.5960  -21.8180   20.9160 N   0  0  0  0  0  0  0  0  0  0  0  0
  -30.1040  -23.4080   20.3650 O   0  0  0  0  0  0  0  0  0  0  0  0
  -27.6100  -21.6820   21.1160 H   0  0  0  0  0  0  0  0  0  0  0  0
  -29.0610  -19.4700   20.2640 C   0  0  0  0  0  3  0  0  0  0  0  0
  -30.0190  -18.4050   20.4690 C   0  0  0  0  0  0  0  0  0  0  0  0
  -29.3480  -20.6700   20.8930 C   0  0  0  0  0  0  0  0  0  0  0  0
  -30.9920  -18.8000   21.3560 C   0  0  0  0  0  0  0  0  0  0  0  0
  -30.8040  -20.4750   21.8400 S   0  0  0  0  0  0  0  0  0  0  0  0
  -32.0730  -18.0730   21.8400 N   0  0  0  0  0  0  0  0  0  0  0  0
  -32.1760  -17.0780   21.6540 H   0  0  0  0  0  0  0  0  0  0  0  0
  -32.6000  -18.3680   22.6590 H   0  0  0  0  0  0  0  0  0  0  0  0
  -29.9870  -17.0930   19.6770 C   0  0  0  0  0  2  0  0  0  0  0  0
  -30.6970  -14.7160   19.9590 C   0  0  0  0  0  0  0  0  0  0  0  0
  -30.3950  -12.5100   18.8870 C   0  0  0  0  0  2  0  0  0  0  0  0
  -29.3650  -12.6600   17.7450 C   0  0  0  0  0  2  0  0  0  0  0  0
  -27.9310  -12.4800   18.2800 C   0  0  0  0  0  2  0  0  0  0  0  0
  -27.6600  -13.3230   19.5560 C   0  0  0  0  0  3  0  0  0  0  0  0
  -28.7980  -13.1700   20.5910 C   0  0  0  0  0  2  0  0  0  0  0  0
  -30.0650  -13.5050   19.9260 N   0  0  0  0  0  0  0  0  0  0  0  0
  -31.8000  -14.8890   19.4320 O   0  0  0  0  0  0  0  0  0  0  0  0
  -29.9510  -15.7740   20.3650 N   0  0  0  0  0  0  0  0  0  0  0  0
  -29.0950  -15.5520   20.8490 H   0  0  0  0  0  0  0  0  0  0  0  0
  -25.3280  -13.8680   20.4910 C   0  0  0  0  0  0  0  0  0  0  0  0
  -24.2990  -13.0650   20.9090 C   0  0  0  0  0  0  0  0  0  0  0  0
  -24.7670  -11.7210   20.7740 C   0  0  0  0  0  0  0  0  0  0  0  0
  -26.3550  -13.0100   20.1320 N   0  0  0  0  0  0  0  0  0  0  0  0
  -26.0270  -11.7120   20.3620 N   0  0  0  0  0  0  0  0  0  0  0  0
  -24.0690  -10.4430   20.9640 C   0  0  0  0  0  0  0  0  0  0  0  0
  -24.5140   -9.4920   21.9090 C   0  0  0  0  0  3  0  0  0  0  0  0
  -23.8140   -8.2800   22.0870 C   0  0  0  0  0  3  0  0  0  0  0  0
  -22.6570   -8.0070   21.3190 C   0  0  0  0  0  0  0  0  0  0  0  0
  -22.2310   -8.9480   20.3650 C   0  0  0  0  0  3  0  0  0  0  0  0
  -22.9310  -10.1530   20.1860 C   0  0  0  0  0  3  0  0  0  0  0  0
  -21.9300   -6.8440   21.4040 O   0  0  0  0  0  0  0  0  0  0  0  0
  -21.8070   -6.1590   22.5850 C   0  0  0  0  0  0  0  0  0  0  0  0
  -21.2080   -6.7390   23.7250 C   0  0  0  0  0  3  0  0  0  0  0  0
  -21.0380   -5.9760   24.8970 C   0  0  0  0  0  3  0  0  0  0  0  0
  -21.4540   -4.6310   24.9280 C   0  0  0  0  0  0  0  0  0  0  0  0
  -22.0460   -4.0510   23.7920 C   0  0  0  0  0  3  0  0  0  0  0  0
  -22.2180   -4.8120   22.6240 C   0  0  0  0  0  0  0  0  0  0  0  0
  -22.7690   -4.2410   21.5250 F   0  0  0  0  0  0  0  0  0  0  0  0
  -21.2850   -3.8930   26.0510 F   0  0  0  0  0  0  0  0  0  0  0  0
  -22.9260  -13.5110   21.3180 C   0  0  0  0  0  0  0  0  0  0  0  0
  -22.2720  -12.7570   22.1930 N   0  0  0  0  0  0  0  0  0  0  0  0
  -22.4450  -14.5620   20.9000 O   0  0  0  0  0  0  0  0  0  0  0  0
  -22.6770  -11.9050   22.5490 H   0  0  0  0  0  0  0  0  0  0  0  0
  -21.3500  -13.0330   22.5020 H   0  0  0  0  0  0  0  0  0  0  0  0
  -25.4690  -15.2470   20.3660 N   0  0  0  0  0  0  0  0  0  0  0  0
  -24.7190  -15.8950   20.5840 H   0  0  0  0  0  0  0  0  0  0  0  0
  -26.2840  -15.7020   19.9740 H   0  0  0  0  0  0  0  0  0  0  0  0
  -28.0300  -24.2350   21.3890 C   0  0  0  0  0  3  0  0  0  0  0  0
  -26.5420  -23.9410   21.0620 C   0  0  1  0  0  0  0  0  0  0  0  0
  -25.7430  -24.8090   21.6800 F   0  0  0  0  0  0  0  0  0  0  0  0
  -26.3320  -23.9750   19.7470 F   0  0  0  0  0  0  0  0  0  0  0  0
  -26.1700  -22.7310   21.4880 F   0  0  0  0  0  0  0  0  0  0  0  0
  -29.8300  -26.1270   21.8930 C   0  0  0  0  0  1  0  0  0  0  0  0
  -28.4270  -25.7960   21.3530 C   0  0  0  0  0  3  0  0  0  0  0  0
  -28.2690  -26.6160   20.1550 O   0  0  0  0  0  0  0  0  0  0  0  0
  -24.5080  -31.9110   23.2370 C   0  0  0  0  0  0  0  0  0  0  0  0
  -27.1660  -27.4590   20.1420 C   0  0  0  0  0  0  0  0  0  0  0  0
  -23.3160  -30.5160   21.5820 C   0  0  0  0  0  3  0  0  0  0  0  0
  -24.7830  -29.0000   20.1480 C   0  0  0  0  0  0  0  0  0  0  0  0
  -25.8480  -30.8680   21.4090 C   0  0  0  0  0  2  0  0  0  0  0  0
  -25.9400  -29.5000   20.7610 C   0  0  0  0  0  0  0  0  0  0  0  0
  -27.1360  -28.7340   20.7680 C   0  0  0  0  0  3  0  0  0  0  0  0
  -26.0110  -27.0210   19.4670 C   0  0  0  0  0  3  0  0  0  0  0  0
  -24.8160  -27.7570   19.5000 C   0  0  0  0  0  3  0  0  0  0  0  0
  -23.5350  -29.8530   20.2000 C   0  0  0  0  0  2  0  0  0  0  0  0
  -24.5750  -31.1150   22.1320 N   0  0  0  0  0  0  0  0  0  0  0  0
  -23.4230  -32.1780   23.7710 O   0  0  0  0  0  0  0  0  0  0  0  0
  -22.6650  -29.4850   22.5320 C   0  0  0  0  0  0  0  0  0  0  0  0
  -21.3430  -29.2870   22.3890 N   0  0  0  0  0  0  0  0  0  0  0  0
  -23.3450  -28.8660   23.3540 O   0  0  0  0  0  0  0  0  0  0  0  0
  -20.8540  -29.8380   21.6970 H   0  0  0  0  0  0  0  0  0  0  0  0
  -17.9710  -28.0780   22.8750 C   0  0  0  0  0  0  0  0  0  0  0  0
  -20.5290  -28.3400   23.1500 C   0  0  0  0  0  3  0  0  0  0  0  0
  -20.6350  -26.9140   22.5610 C   0  0  0  0  0  2  0  0  0  0  0  0
  -19.5340  -26.5980   21.5430 C   0  0  0  0  0  2  0  0  0  0  0  0
  -18.1510  -26.7360   22.1860 C   0  0  0  0  0  2  0  0  0  0  0  0
  -19.0880  -28.8380   23.3130 C   0  0  0  0  0  0  0  0  0  0  0  0
  -18.8660  -30.0970   23.9140 C   0  0  0  0  0  3  0  0  0  0  0  0
  -17.5610  -30.5940   24.0840 C   0  0  0  0  0  3  0  0  0  0  0  0
  -16.4580  -29.8300   23.6640 C   0  0  0  0  0  3  0  0  0  0  0  0
  -16.6640  -28.5750   23.0640 C   0  0  0  0  0  3  0  0  0  0  0  0
  -25.7890  -32.5460   23.8620 C   0  0  0  0  0  3  0  0  0  0  0  0
  -25.4790  -33.9460   24.1810 N   0  0  0  0  0  0  0  0  0  0  0  0
  -25.8130  -34.9930   23.4130 C   0  0  0  0  0  0  0  0  0  0  0  0
  -26.4900  -34.8810   22.3870 O   0  0  0  0  0  0  0  0  0  0  0  0
  -24.8800  -34.1070   24.9770 H   0  0  0  0  0  0  0  0  0  0  0  0
  -24.0970  -36.7880   23.0200 C   0  0  0  0  0  1  0  0  0  0  0  0
  -25.3200  -36.3830   23.8570 C   0  0  0  0  0  3  0  0  0  0  0  0
  -27.4340  -37.2730   24.7360 C   0  0  0  0  0  1  0  0  0  0  0  0
  -26.3580  -37.4330   23.7610 N   0  0  0  0  0  0  0  0  0  0  0  0
  -25.9480  -38.3550   23.8900 H   0  0  0  0  0  0  0  0  0  0  0  0
  -26.2960  -31.7810   25.1480 C   0  0  1  0  0  0  0  0  0  0  0  0
  -25.1930  -31.5430   26.2040 C   0  0  0  0  0  1  0  0  0  0  0  0
  -26.8930  -30.4060   24.7710 C   0  0  0  0  0  1  0  0  0  0  0  0
  -27.4330  -32.5870   25.8200 C   0  0  0  0  0  1  0  0  0  0  0  0
  1  2  1  0
  2  4  1  0
  3  1  2  0
  5  6  1  0
  5  7  2  0
  6  8  2  0
  7  2  1  0
  7  9  1  0
  8 10  1  0
  8  9  1  0
 10 12  1  0
 11 10  1  0
 13 22  1  0
 13  6  1  0
 14 22  1  0
 15 20  1  0
 16 17  1  0
 16 15  1  0
 18 17  1  0
 18 27  1  0
 18 19  1  0
 20 14  1  0
 20 19  1  0
 21 14  2  0
 22 23  1  0
 24 25  2  0
 25 44  1  0
 26 25  1  0
 26 29  1  0
 27 28  1  0
 27 24  1  0
 28 26  2  0
 29 30  1  0
 30 31  2  0
 32 35  1  0
 32 31  1  0
 33 32  2  0
 34 33  1  0
 34 29  2  0
 35 36  1  0
 36 41  2  0
 36 37  1  0
 37 38  2  0
 38 39  1  0
 39 43  1  0
 40 39  2  0
 41 40  1  0
 42 41  1  0
 44 45  1  0
 45 48  1  0
 45 47  1  0
 46 44  2  0
 49 24  1  0
 49 50  1  0
 51 49  1  0
 52  1  1  0
 53 52  1  0
 53 56  1  1
 53 54  1  0
 55 53  1  0
 58 52  1  0
 58 57  1  0
 59 58  1  0
 60 71  2  0
 61 59  1  0
 61 66  1  0
 62 70  1  0
 62 72  1  0
 63 69  1  0
 63 65  1  0
 64 70  1  0
 65 66  2  0
 65 64  1  0
 67 68  1  0
 67 61  2  0
 68 63  2  0
 69 62  1  0
 70 60  1  0
 72 74  2  0
 73 72  1  0
 75 73  1  0
 76 85  2  0
 76 81  1  0
 77 73  1  0
 77 81  1  0
 78 77  1  0
 79 80  1  0
 79 78  1  0
 80 76  1  0
 81 82  2  0
 82 83  1  0
 84 83  2  0
 85 84  1  0
 86 60  1  0
 86 87  1  0
 86 96  1  0
 87 90  1  0
 88 92  1  0
 88 87  1  0
 89 88  2  0
 92 91  1  0
 94 92  1  0
 94 95  1  0
 94 93  1  0
 96 99  1  1
 96 97  1  0
 98 96  1  0
M  ISO  4  14 100  22 100  58 101  59 101
M  END
>  <TORSDO>  (30) 
F 22

>  <SCORE>  (30) 
-13.393

>  <name>  (30) 
30

>  <ligand_id>  (30) 
30

>  <original_smiles>  (30) 
[H]c1c([H])c([H])c2c(c1[H])C([H])([H])C([H])([H])C([H])([H])C2([H])N([H])C(=O)C1([H])N(C(=O)C([H])(N([H])C(=O)C([H])(N([H])C([H])([H])[H])C([H])([H])[H])C(C([H])([H])[H])(C([H])([H])[H])C([H])([H])[H])C([H])([H])c2c([H])c(OC([H])(C([H])([H])[H])C([H])(C(=O)N([H])c3sc(N([H])[H])c(C([H])([H])N([H])C(=O)N4C([H])([H])C([H])([H])C([H])([H])C([H])(n5nc(-c6c([H])c([H])c(Oc7c([H])c([H])c(F)c([H])c7F)c([H])c6[H])c(C(=O)N([H])[H])c5N([H])[H])C4([H])[H])c3[H])C(F)(F)F)c([H])c([H])c2C1([H])[H]

>  <smiles>  (30) 
[H]c1c([H])c([H])c2c(c1[H])C([H])([H])C([H])([H])C([H])([H])C2([H])N([H])C(=O)C1([H])N(C(=O)C([H])(N([H])C(=O)C([H])(N([H])C([H])([H])[H])C([H])([H])[H])C(C([H])([H])[H])(C([H])([H])[H])C([H])([H])[H])C([H])([H])c2c([H])c(OC([H])(C([H])([H])[H])C([H])(C(=O)N([H])c3sc(N([H])[H])c(C([H])([H])N([H])C(=O)N4C([H])([H])C([H])([H])C([H])([H])C([H])(n5nc(-c6c([H])c([H])c(Oc7c([H])c([H])c(F)c([H])c7F)c([H])c6[H])c(C(=O)N([H])[H])c5N([H])[H])C4([H])[H])c3[H])C(F)(F)F)c([H])c([H])c2C1([H])[H]

$$$$
31:0:0
     RDKit          3D

 89 97  0  0  1  0  0  0  0  0999 V2000
  -28.0090  -20.1080   20.6790 C   0  0  0  0  0  3  0  0  0  0  0  0
  -29.2650  -19.7020   20.2170 C   0  0  0  0  0  0  0  0  0  0  0  0
  -28.4310  -22.5750   20.2670 C   0  0  0  0  0  0  0  0  0  0  0  0
  -27.6180  -21.5310   20.6650 N   0  0  0  0  0  0  0  0  0  0  0  0
  -29.9200  -21.4560   19.7860 S   0  0  0  0  0  0  0  0  0  0  0  0
  -30.5060  -15.4660   20.0860 C   0  0  0  0  0  0  0  0  0  0  0  0
  -30.4700  -13.0060   19.2200 C   0  0  0  0  0  2  0  0  0  0  0  0
  -29.5190  -12.7420   18.0230 C   0  0  0  0  0  2  0  0  0  0  0  0
  -28.0870  -12.4590   18.5110 C   0  0  0  0  0  2  0  0  0  0  0  0
  -27.6550  -13.4330   19.6350 C   0  0  0  0  0  3  0  0  0  0  0  0
  -28.7350  -13.6300   20.7250 C   0  0  0  0  0  2  0  0  0  0  0  0
  -29.9310  -14.1550   20.0460 N   0  0  0  0  0  0  0  0  0  0  0  0
  -31.7230  -15.4220   19.8470 O   0  0  0  0  0  0  0  0  0  0  0  0
  -30.1170  -18.2110   20.0770 C   0  0  0  0  0  0  0  0  0  0  0  0
  -29.7640  -16.7630   20.2000 N   0  0  0  0  0  0  0  0  0  0  0  0
  -31.3000  -18.4230   19.7920 O   0  0  0  0  0  0  0  0  0  0  0  0
  -28.7840  -16.6190   20.3790 H   0  0  0  0  0  0  0  0  0  0  0  0
  -25.3100  -13.9740   20.4720 C   0  0  0  0  0  0  0  0  0  0  0  0
  -24.2580  -13.1920   20.8580 C   0  0  0  0  0  0  0  0  0  0  0  0
  -24.7230  -11.8420   20.7870 C   0  0  0  0  0  0  0  0  0  0  0  0
  -26.3450  -13.1030   20.1830 N   0  0  0  0  0  0  0  0  0  0  0  0
  -26.0060  -11.8120   20.4380 N   0  0  0  0  0  0  0  0  0  0  0  0
  -23.9980  -10.5760   20.9730 C   0  0  0  0  0  0  0  0  0  0  0  0
  -24.4320   -9.6080   21.9040 C   0  0  0  0  0  3  0  0  0  0  0  0
  -23.7070   -8.4100   22.0830 C   0  0  0  0  0  3  0  0  0  0  0  0
  -22.5330   -8.1700   21.3290 C   0  0  0  0  0  0  0  0  0  0  0  0
  -22.1170   -9.1280   20.3860 C   0  0  0  0  0  3  0  0  0  0  0  0
  -22.8420  -10.3180   20.2070 C   0  0  0  0  0  3  0  0  0  0  0  0
  -21.7820   -7.0240   21.4130 O   0  0  0  0  0  0  0  0  0  0  0  0
  -21.7000   -6.3000   22.5760 C   0  0  0  0  0  0  0  0  0  0  0  0
  -21.1830   -6.8570   23.7670 C   0  0  0  0  0  3  0  0  0  0  0  0
  -21.0560   -6.0590   24.9200 C   0  0  0  0  0  3  0  0  0  0  0  0
  -21.4320   -4.7030   24.8840 C   0  0  0  0  0  0  0  0  0  0  0  0
  -21.9410   -4.1430   23.6980 C   0  0  0  0  0  3  0  0  0  0  0  0
  -22.0720   -4.9400   22.5460 C   0  0  0  0  0  0  0  0  0  0  0  0
  -22.5410   -4.3910   21.4010 F   0  0  0  0  0  0  0  0  0  0  0  0
  -21.3040   -3.9330   25.9890 F   0  0  0  0  0  0  0  0  0  0  0  0
  -22.8690  -13.6650   21.1710 C   0  0  0  0  0  0  0  0  0  0  0  0
  -22.1650  -12.9600   22.0490 N   0  0  0  0  0  0  0  0  0  0  0  0
  -22.4190  -14.6960   20.6720 O   0  0  0  0  0  0  0  0  0  0  0  0
  -22.5460  -12.1320   22.4820 H   0  0  0  0  0  0  0  0  0  0  0  0
  -21.2280  -13.2530   22.2900 H   0  0  0  0  0  0  0  0  0  0  0  0
  -25.4680  -15.3470   20.3090 N   0  0  0  0  0  0  0  0  0  0  0  0
  -24.6990  -15.9950   20.4400 H   0  0  0  0  0  0  0  0  0  0  0  0
  -26.2820  -15.7730   19.8850 H   0  0  0  0  0  0  0  0  0  0  0  0
  -26.4660  -24.1180   20.8780 C   0  0  0  0  0  1  0  0  0  0  0  0
  -27.4420  -24.1430   18.4520 C   0  0  0  0  0  1  0  0  0  0  0  0
  -27.7290  -24.2010   19.9670 C   0  0  2  0  0  0  0  0  0  0  0  0
  -28.1520  -25.8120   20.2340 O   0  0  0  0  0  0  0  0  0  0  0  0
  -24.6360  -31.8510   23.2550 C   0  0  0  0  0  0  0  0  0  0  0  0
  -27.2140  -27.0110   20.1400 C   0  0  0  0  0  0  0  0  0  0  0  0
  -23.4670  -30.5030   21.5670 C   0  0  0  0  0  3  0  0  0  0  0  0
  -24.9380  -28.9610   20.1120 C   0  0  0  0  0  0  0  0  0  0  0  0
  -26.0430  -30.7110   21.4620 C   0  0  0  0  0  2  0  0  0  0  0  0
  -26.1250  -29.3180   20.7630 C   0  0  0  0  0  0  0  0  0  0  0  0
  -27.2560  -28.3690   20.7550 C   0  0  0  0  0  3  0  0  0  0  0  0
  -25.9920  -26.8520   19.4310 C   0  0  0  0  0  3  0  0  0  0  0  0
  -24.9000  -27.7450   19.4310 C   0  0  0  0  0  3  0  0  0  0  0  0
  -23.7220  -29.8810   20.1720 C   0  0  0  0  0  2  0  0  0  0  0  0
  -24.7370  -31.0470   22.1490 N   0  0  0  0  0  0  0  0  0  0  0  0
  -23.5390  -32.1240   23.7690 O   0  0  0  0  0  0  0  0  0  0  0  0
  -22.7610  -29.4730   22.4880 C   0  0  0  0  0  0  0  0  0  0  0  0
  -21.4320  -29.3160   22.3500 N   0  0  0  0  0  0  0  0  0  0  0  0
  -23.4190  -28.8200   23.3020 O   0  0  0  0  0  0  0  0  0  0  0  0
  -20.9500  -29.8970   21.6780 H   0  0  0  0  0  0  0  0  0  0  0  0
  -18.0370  -28.1240   22.8320 C   0  0  0  0  0  0  0  0  0  0  0  0
  -20.6010  -28.3560   23.0870 C   0  0  0  0  0  3  0  0  0  0  0  0
  -20.6850  -26.9460   22.4560 C   0  0  0  0  0  2  0  0  0  0  0  0
  -19.5730  -26.6760   21.4360 C   0  0  0  0  0  2  0  0  0  0  0  0
  -18.1980  -26.8040   22.0970 C   0  0  0  0  0  2  0  0  0  0  0  0
  -19.1650  -28.8600   23.2830 C   0  0  0  0  0  0  0  0  0  0  0  0
  -18.9590  -30.0960   23.9340 C   0  0  0  0  0  3  0  0  0  0  0  0
  -17.6570  -30.5940   24.1390 C   0  0  0  0  0  3  0  0  0  0  0  0
  -16.5450  -29.8550   23.7020 C   0  0  0  0  0  3  0  0  0  0  0  0
  -16.7350  -28.6230   23.0520 C   0  0  0  0  0  3  0  0  0  0  0  0
  -25.8960  -32.4840   23.9170 C   0  0  0  0  0  3  0  0  0  0  0  0
  -25.5840  -33.8880   24.2360 N   0  0  0  0  0  0  0  0  0  0  0  0
  -25.9100  -34.9410   23.4730 C   0  0  0  0  0  0  0  0  0  0  0  0
  -26.5680  -34.8330   22.4350 O   0  0  0  0  0  0  0  0  0  0  0  0
  -25.0000  -34.0460   25.0440 H   0  0  0  0  0  0  0  0  0  0  0  0
  -24.1700  -36.7350   23.1560 C   0  0  0  0  0  1  0  0  0  0  0  0
  -25.4320  -36.3320   23.9350 C   0  0  0  0  0  3  0  0  0  0  0  0
  -27.5750  -37.2400   24.7190 C   0  0  0  0  0  1  0  0  0  0  0  0
  -26.4580  -37.3890   23.7920 N   0  0  0  0  0  0  0  0  0  0  0  0
  -26.0460  -38.3060   23.9410 H   0  0  0  0  0  0  0  0  0  0  0  0
  -26.3550  -31.7210   25.2210 C   0  0  1  0  0  0  0  0  0  0  0  0
  -25.2200  -31.5040   26.2490 C   0  0  0  0  0  1  0  0  0  0  0  0
  -26.9370  -30.3320   24.8740 C   0  0  0  0  0  1  0  0  0  0  0  0
  -27.4830  -32.5120   25.9240 C   0  0  0  0  0  1  0  0  0  0  0  0
  2  1  2  0
  3  4  2  0
  4  1  1  0
  5  2  1  0
  5  3  1  0
  6 15  1  0
  7 12  1  0
  8  9  1  0
  8  7  1  0
 10  9  1  0
 10 21  1  0
 10 11  1  0
 12  6  1  0
 12 11  1  0
 13  6  2  0
 14 15  1  0
 14  2  1  0
 15 17  1  0
 16 14  2  0
 18 19  2  0
 19 38  1  0
 20 19  1  0
 20 23  1  0
 21 22  1  0
 21 18  1  0
 22 20  2  0
 23 24  1  0
 24 25  2  0
 26 29  1  0
 26 25  1  0
 27 26  2  0
 28 27  1  0
 28 23  2  0
 29 30  1  0
 30 31  1  0
 31 32  2  0
 33 32  1  0
 33 37  1  0
 34 33  2  0
 35 30  2  0
 35 34  1  0
 36 35  1  0
 38 39  1  0
 39 42  1  0
 39 41  1  0
 40 38  2  0
 43 44  1  0
 43 18  1  0
 45 43  1  0
 48 47  1  6
 48 49  1  0
 48  3  1  0
 48 46  1  0
 50 61  2  0
 51 49  1  0
 51 56  1  0
 52 60  1  0
 52 62  1  0
 53 59  1  0
 53 55  1  0
 54 60  1  0
 55 54  1  0
 56 55  2  0
 57 51  2  0
 58 57  1  0
 58 53  2  0
 59 52  1  0
 60 50  1  0
 62 64  2  0
 63 62  1  0
 65 63  1  0
 66 75  2  0
 66 71  1  0
 67 63  1  0
 67 71  1  0
 68 67  1  0
 69 70  1  0
 69 68  1  0
 70 66  1  0
 71 72  2  0
 72 73  1  0
 74 73  2  0
 75 74  1  0
 76 50  1  0
 76 77  1  0
 76 86  1  0
 77 80  1  0
 78 82  1  0
 78 77  1  0
 79 78  2  0
 82 81  1  0
 84 82  1  0
 84 85  1  0
 84 83  1  0
 86 89  1  1
 86 87  1  0
 88 86  1  0
M  ISO  4   6 100  15 100  48 101  49 101
M  END
>  <TORSDO>  (31) 
F 17

>  <SCORE>  (31) 
-16.497

>  <name>  (31) 
31

>  <ligand_id>  (31) 
31

>  <original_smiles>  (31) 
[H]c1nc(C(Oc2c([H])c([H])c3c(c2[H])C([H])([H])N(C(=O)C([H])(N([H])C(=O)C([H])(N([H])C([H])([H])[H])C([H])([H])[H])C(C([H])([H])[H])(C([H])([H])[H])C([H])([H])[H])C([H])(C(=O)N([H])C2([H])c4c([H])c([H])c([H])c([H])c4C([H])([H])C([H])([H])C2([H])[H])C3([H])[H])(C([H])([H])[H])C([H])([H])[H])sc1C(=O)N([H])C(=O)N1C([H])([H])C([H])([H])C([H])([H])C([H])(n2nc(-c3c([H])c([H])c(Oc4c([H])c([H])c(F)c([H])c4F)c([H])c3[H])c(C(=O)N([H])[H])c2N([H])[H])C1([H])[H]

>  <smiles>  (31) 
[H]c1nc(C(Oc2c([H])c([H])c3c(c2[H])C([H])([H])N(C(=O)C([H])(N([H])C(=O)C([H])(N([H])C([H])([H])[H])C([H])([H])[H])C(C([H])([H])[H])(C([H])([H])[H])C([H])([H])[H])C([H])(C(=O)N([H])C2([H])c4c([H])c([H])c([H])c([H])c4C([H])([H])C([H])([H])C2([H])[H])C3([H])[H])(C([H])([H])[H])C([H])([H])[H])sc1C(=O)N([H])C(=O)N1C([H])([H])C([H])([H])C([H])([H])C([H])(n2nc(-c3c([H])c([H])c(Oc4c([H])c([H])c(F)c([H])c4F)c([H])c3[H])c(C(=O)N([H])[H])c2N([H])[H])C1([H])[H]

$$$$
32:0:0
     RDKit          3D

 96104  0  0  1  0  0  0  0  0999 V2000
  -30.2140  -18.4300   21.1280 C   0  0  0  0  0  0  0  0  0  0  0  0
  -30.3030  -18.1000   19.7870 C   0  0  0  0  0  0  0  0  0  0  0  0
  -29.3340  -20.3580   20.2370 C   0  0  0  0  0  0  0  0  0  0  0  0
  -28.7630  -22.6870   19.4470 C   0  0  0  0  0  0  0  0  0  0  0  0
  -29.6020  -19.6830   21.3570 N   0  0  0  0  0  0  0  0  0  0  0  0
  -28.7580  -21.6620   20.3320 N   0  0  0  0  0  0  0  0  0  0  0  0
  -29.3690  -22.6300   18.3750 O   0  0  0  0  0  0  0  0  0  0  0  0
  -29.7050  -19.4250   18.7860 S   0  0  0  0  0  0  0  0  0  0  0  0
  -28.2970  -21.8610   21.2070 H   0  0  0  0  0  0  0  0  0  0  0  0
  -30.6940  -17.6070   22.3050 C   0  0  1  0  0  0  0  0  0  0  0  0
  -31.8320  -16.9660   22.0310 F   0  0  0  0  0  0  0  0  0  0  0  0
  -30.9280  -18.3730   23.3740 F   0  0  0  0  0  0  0  0  0  0  0  0
  -29.7900  -16.6910   22.6530 F   0  0  0  0  0  0  0  0  0  0  0  0
  -26.9310  -23.7190   20.9370 C   0  0  0  0  0  1  0  0  0  0  0  0
  -27.9560  -23.9840   19.8030 C   0  0  0  0  0  3  0  0  0  0  0  0
  -28.8330  -25.2610   20.0850 C   0  0  0  0  0  2  0  0  0  0  0  0
  -28.6680  -26.4300   19.2330 O   0  0  0  0  0  0  0  0  0  0  0  0
  -24.7860  -31.1770   22.9410 C   0  0  0  0  0  0  0  0  0  0  0  0
  -27.4930  -27.1470   19.3620 C   0  0  0  0  0  0  0  0  0  0  0  0
  -23.5820  -29.8770   21.2160 C   0  0  0  0  0  3  0  0  0  0  0  0
  -25.0480  -28.5580   19.5930 C   0  0  0  0  0  0  0  0  0  0  0  0
  -26.0840  -30.3690   20.9680 C   0  0  0  0  0  2  0  0  0  0  0  0
  -26.2050  -29.0680   20.1960 C   0  0  0  0  0  0  0  0  0  0  0  0
  -27.4340  -28.3690   20.0780 C   0  0  0  0  0  3  0  0  0  0  0  0
  -26.3260  -26.6820   18.7250 C   0  0  0  0  0  3  0  0  0  0  0  0
  -25.1050  -27.3660   18.8510 C   0  0  0  0  0  3  0  0  0  0  0  0
  -23.7700  -29.3500   19.7690 C   0  0  0  0  0  2  0  0  0  0  0  0
  -24.8370  -30.4850   21.7660 N   0  0  0  0  0  0  0  0  0  0  0  0
  -23.7160  -31.3430   23.5420 O   0  0  0  0  0  0  0  0  0  0  0  0
  -23.0190  -28.7360   22.0940 C   0  0  0  0  0  0  0  0  0  0  0  0
  -21.7190  -28.4390   21.9300 N   0  0  0  0  0  0  0  0  0  0  0  0
  -23.7490  -28.1250   22.8800 O   0  0  0  0  0  0  0  0  0  0  0  0
  -21.1910  -28.9940   21.2730 H   0  0  0  0  0  0  0  0  0  0  0  0
  -18.4810  -26.8630   22.2400 C   0  0  0  0  0  0  0  0  0  0  0  0
  -20.9850  -27.3810   22.6210 C   0  0  0  0  0  3  0  0  0  0  0  0
  -21.2640  -26.0020   21.9780 C   0  0  0  0  0  2  0  0  0  0  0  0
  -20.2370  -25.6170   20.9080 C   0  0  0  0  0  2  0  0  0  0  0  0
  -18.8270  -25.5780   21.5050 C   0  0  0  0  0  2  0  0  0  0  0  0
  -19.4960  -27.7170   22.7490 C   0  0  0  0  0  0  0  0  0  0  0  0
  -19.1230  -28.9170   23.3940 C   0  0  0  0  0  3  0  0  0  0  0  0
  -17.7670  -29.2680   23.5320 C   0  0  0  0  0  3  0  0  0  0  0  0
  -16.7660  -28.4110   23.0400 C   0  0  0  0  0  3  0  0  0  0  0  0
  -17.1240  -27.2090   22.4000 C   0  0  0  0  0  3  0  0  0  0  0  0
  -26.0650  -31.8100   23.5710 C   0  0  0  0  0  3  0  0  0  0  0  0
  -26.6470  -30.9700   24.7740 C   0  0  1  0  0  0  0  0  0  0  0  0
  -25.5930  -30.6120   25.8480 C   0  0  0  0  0  1  0  0  0  0  0  0
  -27.2710  -29.6490   24.2650 C   0  0  0  0  0  1  0  0  0  0  0  0
  -27.7850  -31.7590   25.4620 C   0  0  0  0  0  1  0  0  0  0  0  0
  -25.7150  -33.1670   24.0090 N   0  0  0  0  0  0  0  0  0  0  0  0
  -25.9920  -34.2840   23.3200 C   0  0  0  0  0  0  0  0  0  0  0  0
  -26.6410  -34.2790   22.2690 O   0  0  0  0  0  0  0  0  0  0  0  0
  -25.1340  -33.2410   24.8290 H   0  0  0  0  0  0  0  0  0  0  0  0
  -24.1890  -36.0290   23.1350 C   0  0  0  0  0  1  0  0  0  0  0  0
  -25.4640  -35.6170   23.8870 C   0  0  0  0  0  3  0  0  0  0  0  0
  -27.5810  -36.5280   24.7390 C   0  0  0  0  0  1  0  0  0  0  0  0
  -26.4560  -36.7130   23.8250 N   0  0  0  0  0  0  0  0  0  0  0  0
  -26.0200  -37.6050   24.0380 H   0  0  0  0  0  0  0  0  0  0  0  0
  -30.9250  -16.8850   19.1220 C   0  0  0  0  0  2  0  0  0  0  0  0
  -31.1100  -14.4130   19.1780 C   0  0  0  0  0  0  0  0  0  0  0  0
  -30.7540  -12.0720   18.4910 C   0  0  0  0  0  2  0  0  0  0  0  0
  -29.6790  -12.0380   17.3870 C   0  0  0  0  0  2  0  0  0  0  0  0
  -28.2690  -11.9560   18.0030 C   0  0  0  0  0  2  0  0  0  0  0  0
  -28.0470  -12.9950   19.1360 C   0  0  0  0  0  3  0  0  0  0  0  0
  -29.2310  -13.0160   20.1270 C   0  0  0  0  0  2  0  0  0  0  0  0
  -30.4610  -13.2290   19.3530 N   0  0  0  0  0  0  0  0  0  0  0  0
  -32.1990  -14.4880   18.6050 O   0  0  0  0  0  0  0  0  0  0  0  0
  -30.4220  -15.5390   19.4760 N   0  0  0  0  0  0  0  0  0  0  0  0
  -29.4970  -15.4350   19.8650 H   0  0  0  0  0  0  0  0  0  0  0  0
  -25.8590  -13.7130   20.2800 C   0  0  0  0  0  0  0  0  0  0  0  0
  -24.8030  -12.9930   20.7680 C   0  0  0  0  0  0  0  0  0  0  0  0
  -25.1330  -11.6180   20.5630 C   0  0  0  0  0  0  0  0  0  0  0  0
  -26.7720  -12.7800   19.8140 N   0  0  0  0  0  0  0  0  0  0  0  0
  -26.3480  -11.5090   20.0420 N   0  0  0  0  0  0  0  0  0  0  0  0
  -24.3380  -10.4020   20.7800 C   0  0  0  0  0  0  0  0  0  0  0  0
  -24.7030   -9.4450   21.7520 C   0  0  0  0  0  3  0  0  0  0  0  0
  -23.9130   -8.2940   21.9560 C   0  0  0  0  0  3  0  0  0  0  0  0
  -22.7420   -8.0910   21.1860 C   0  0  0  0  0  0  0  0  0  0  0  0
  -22.3960   -9.0350   20.2050 C   0  0  0  0  0  3  0  0  0  0  0  0
  -23.1860  -10.1780   19.9990 C   0  0  0  0  0  3  0  0  0  0  0  0
  -21.9290   -6.9900   21.2970 O   0  0  0  0  0  0  0  0  0  0  0  0
  -21.6210   -6.4410   22.5170 C   0  0  0  0  0  0  0  0  0  0  0  0
  -20.9490   -7.1770   23.5170 C   0  0  0  0  0  3  0  0  0  0  0  0
  -20.5900   -6.5540   24.7280 C   0  0  0  0  0  3  0  0  0  0  0  0
  -20.8920   -5.1950   24.9390 C   0  0  0  0  0  0  0  0  0  0  0  0
  -21.5560   -4.4590   23.9430 C   0  0  0  0  0  3  0  0  0  0  0  0
  -21.9160   -5.0790   22.7330 C   0  0  0  0  0  0  0  0  0  0  0  0
  -22.5370   -4.3590   21.7670 F   0  0  0  0  0  0  0  0  0  0  0  0
  -20.5420   -4.5940   26.1000 F   0  0  0  0  0  0  0  0  0  0  0  0
  -23.5150  -13.5480   21.3060 C   0  0  0  0  0  0  0  0  0  0  0  0
  -22.8930  -12.8480   22.2490 N   0  0  0  0  0  0  0  0  0  0  0  0
  -23.0780  -14.6320   20.9240 O   0  0  0  0  0  0  0  0  0  0  0  0
  -23.2660  -11.9680   22.5720 H   0  0  0  0  0  0  0  0  0  0  0  0
  -22.0370  -13.1990   22.6520 H   0  0  0  0  0  0  0  0  0  0  0  0
  -26.1110  -15.0770   20.1720 N   0  0  0  0  0  0  0  0  0  0  0  0
  -25.4270  -15.7720   20.4540 H   0  0  0  0  0  0  0  0  0  0  0  0
  -26.9170  -15.4810   19.7140 H   0  0  0  0  0  0  0  0  0  0  0  0
  1  5  1  0
  1 10  1  0
  2  1  2  0
  3  6  1  0
  3  5  2  0
  4 15  1  0
  4  6  1  0
  6  9  1  0
  7  4  2  0
  8  2  1  0
  8  3  1  0
 10 13  1  1
 10 12  1  0
 11 10  1  0
 15 16  1  0
 15 14  1  0
 17 19  1  0
 17 16  1  0
 18 29  2  0
 19 24  1  0
 20 28  1  0
 20 30  1  0
 21 27  1  0
 21 23  1  0
 22 28  1  0
 23 22  1  0
 24 23  2  0
 25 26  1  0
 25 19  2  0
 26 21  2  0
 27 20  1  0
 28 18  1  0
 30 32  2  0
 31 30  1  0
 33 31  1  0
 34 43  2  0
 34 39  1  0
 35 31  1  0
 35 39  1  0
 36 35  1  0
 37 38  1  0
 37 36  1  0
 38 34  1  0
 39 40  2  0
 40 41  1  0
 42 41  2  0
 43 42  1  0
 44 18  1  0
 44 49  1  0
 44 45  1  0
 45 48  1  1
 45 46  1  0
 47 45  1  0
 49 52  1  0
 50 54  1  0
 50 49  1  0
 51 50  2  0
 54 53  1  0
 56 54  1  0
 56 57  1  0
 56 55  1  0
 58 67  1  0
 58  2  1  0
 59 65  1  0
 59 67  1  0
 60 65  1  0
 61 62  1  0
 61 60  1  0
 63 62  1  0
 63 72  1  0
 63 64  1  0
 65 64  1  0
 66 59  2  0
 67 68  1  0
 69 70  2  0
 70 89  1  0
 71 70  1  0
 71 74  1  0
 72 73  1  0
 72 69  1  0
 73 71  2  0
 74 75  1  0
 75 76  2  0
 77 80  1  0
 77 76  1  0
 78 77  2  0
 79 78  1  0
 79 74  2  0
 80 81  1  0
 81 86  2  0
 81 82  1  0
 82 83  2  0
 83 84  1  0
 84 88  1  0
 85 84  2  0
 86 85  1  0
 87 86  1  0
 89 90  1  0
 90 92  1  0
 90 93  1  0
 91 89  2  0
 94 69  1  0
 94 95  1  0
 96 94  1  0
M  ISO  4  16 101  17 101  59 100  67 100
M  END
>  <TORSDO>  (32) 
F 20

>  <SCORE>  (32) 
-10.251

>  <name>  (32) 
32

>  <ligand_id>  (32) 
32

>  <original_smiles>  (32) 
[H]c1c([H])c([H])c2c(c1[H])C([H])([H])C([H])([H])C([H])([H])C2([H])N([H])C(=O)C1([H])N(C(=O)C([H])(N([H])C(=O)C([H])(N([H])C([H])([H])[H])C([H])([H])[H])C(C([H])([H])[H])(C([H])([H])[H])C([H])([H])[H])C([H])([H])c2c([H])c(OC([H])([H])C([H])(C(=O)N([H])c3nc(C(F)(F)F)c(C([H])([H])N([H])C(=O)N4C([H])([H])C([H])([H])C([H])([H])C([H])(n5nc(-c6c([H])c([H])c(Oc7c([H])c([H])c(F)c([H])c7F)c([H])c6[H])c(C(=O)N([H])[H])c5N([H])[H])C4([H])[H])s3)C([H])([H])[H])c([H])c([H])c2C1([H])[H]

>  <smiles>  (32) 
[H]c1c([H])c([H])c2c(c1[H])C([H])([H])C([H])([H])C([H])([H])C2([H])N([H])C(=O)C1([H])N(C(=O)C([H])(N([H])C(=O)C([H])(N([H])C([H])([H])[H])C([H])([H])[H])C(C([H])([H])[H])(C([H])([H])[H])C([H])([H])[H])C([H])([H])c2c([H])c(OC([H])([H])C([H])(C(=O)N([H])c3nc(C(F)(F)F)c(C([H])([H])N([H])C(=O)N4C([H])([H])C([H])([H])C([H])([H])C([H])(n5nc(-c6c([H])c([H])c(Oc7c([H])c([H])c(F)c([H])c7F)c([H])c6[H])c(C(=O)N([H])[H])c5N([H])[H])C4([H])[H])s3)C([H])([H])[H])c([H])c([H])c2C1([H])[H]

$$$$
33:0:0
     RDKit          3D

 93101  0  0  1  0  0  0  0  0999 V2000
  -28.2920  -23.0120   19.9390 C   0  0  0  0  0  0  0  0  0  0  0  0
  -28.5990  -23.1520   18.4500 C   0  0  0  0  0  0  0  0  0  0  0  0
  -27.4010  -23.1390   17.5080 C   0  0  0  0  0  1  0  0  0  0  0  0
  -29.7420  -23.2590   18.0010 O   0  0  0  0  0  0  0  0  0  0  0  0
  -28.0800  -24.5190   22.1180 C   0  0  0  0  0  1  0  0  0  0  0  0
  -27.9040  -24.5730   20.5980 C   0  0  0  0  0  3  0  0  0  0  0  0
  -28.2170  -26.0850   20.2200 O   0  0  0  0  0  0  0  0  0  0  0  0
  -24.6300  -31.8970   23.2250 C   0  0  0  0  0  0  0  0  0  0  0  0
  -27.1940  -27.1210   20.2050 C   0  0  0  0  0  0  0  0  0  0  0  0
  -23.4340  -30.4920   21.5900 C   0  0  0  0  0  3  0  0  0  0  0  0
  -24.8850  -28.9130   20.1710 C   0  0  0  0  0  0  0  0  0  0  0  0
  -25.9930  -30.7460   21.4300 C   0  0  0  0  0  2  0  0  0  0  0  0
  -26.0710  -29.3470   20.7790 C   0  0  0  0  0  0  0  0  0  0  0  0
  -27.2310  -28.4690   20.7730 C   0  0  0  0  0  3  0  0  0  0  0  0
  -25.9860  -26.8130   19.5460 C   0  0  0  0  0  3  0  0  0  0  0  0
  -24.8590  -27.6630   19.5330 C   0  0  0  0  0  3  0  0  0  0  0  0
  -23.6590  -29.8170   20.2150 C   0  0  0  0  0  2  0  0  0  0  0  0
  -24.7060  -31.0670   22.1370 N   0  0  0  0  0  0  0  0  0  0  0  0
  -23.5410  -32.1840   23.7470 O   0  0  0  0  0  0  0  0  0  0  0  0
  -22.7550  -29.4870   22.5550 C   0  0  0  0  0  0  0  0  0  0  0  0
  -21.4280  -29.3090   22.4280 N   0  0  0  0  0  0  0  0  0  0  0  0
  -23.4280  -28.8670   23.3830 O   0  0  0  0  0  0  0  0  0  0  0  0
  -20.9400  -29.8610   21.7360 H   0  0  0  0  0  0  0  0  0  0  0  0
  -18.0500  -28.0930   22.9360 C   0  0  0  0  0  0  0  0  0  0  0  0
  -20.6090  -28.3710   23.2040 C   0  0  0  0  0  3  0  0  0  0  0  0
  -20.7180  -26.9370   22.6360 C   0  0  0  0  0  2  0  0  0  0  0  0
  -19.6200  -26.6030   21.6210 C   0  0  0  0  0  2  0  0  0  0  0  0
  -18.2360  -26.7420   22.2620 C   0  0  0  0  0  2  0  0  0  0  0  0
  -19.1640  -28.8640   23.3620 C   0  0  0  0  0  0  0  0  0  0  0  0
  -18.9370  -30.1250   23.9540 C   0  0  0  0  0  3  0  0  0  0  0  0
  -17.6290  -30.6190   24.1200 C   0  0  0  0  0  3  0  0  0  0  0  0
  -16.5300  -29.8450   23.7090 C   0  0  0  0  0  3  0  0  0  0  0  0
  -16.7410  -28.5830   23.1250 C   0  0  0  0  0  3  0  0  0  0  0  0
  -25.9020  -32.5420   23.8510 C   0  0  0  0  0  3  0  0  0  0  0  0
  -26.4130  -31.7800   25.1360 C   0  0  1  0  0  0  0  0  0  0  0  0
  -25.3150  -31.5510   26.2000 C   0  0  0  0  0  1  0  0  0  0  0  0
  -26.9980  -30.3970   24.7640 C   0  0  0  0  0  1  0  0  0  0  0  0
  -27.5620  -32.5780   25.7970 C   0  0  0  0  0  1  0  0  0  0  0  0
  -25.5850  -33.9430   24.1780 N   0  0  0  0  0  0  0  0  0  0  0  0
  -25.9140  -34.9990   23.4210 C   0  0  0  0  0  0  0  0  0  0  0  0
  -26.5840  -34.8940   22.3900 O   0  0  0  0  0  0  0  0  0  0  0  0
  -24.9950  -34.1030   24.9810 H   0  0  0  0  0  0  0  0  0  0  0  0
  -24.1880  -36.7940   23.0580 C   0  0  0  0  0  1  0  0  0  0  0  0
  -25.4260  -36.3870   23.8760 C   0  0  0  0  0  3  0  0  0  0  0  0
  -27.5570  -37.2710   24.7220 C   0  0  0  0  0  1  0  0  0  0  0  0
  -26.4600  -37.4410   23.7710 N   0  0  0  0  0  0  0  0  0  0  0  0
  -26.0570  -38.3610   23.9150 H   0  0  0  0  0  0  0  0  0  0  0  0
  -29.1060  -21.8520   20.6520 N   0  0  0  0  0  4  0  0  0  0  0  0
  -29.9140  -22.3360   21.0300 H   0  0  0  0  0  0  0  0  0  0  0  0
  -30.4650  -15.1340   20.3340 C   0  0  0  0  0  0  0  0  0  0  0  0
  -30.4150  -12.7410   19.4230 C   0  0  0  0  0  2  0  0  0  0  0  0
  -29.4950  -12.6310   18.1790 C   0  0  0  0  0  2  0  0  0  0  0  0
  -28.0280  -12.3930   18.5990 C   0  0  0  0  0  2  0  0  0  0  0  0
  -27.5920  -13.3360   19.7510 C   0  0  0  0  0  3  0  0  0  0  0  0
  -28.6370  -13.3950   20.8850 C   0  0  0  0  0  2  0  0  0  0  0  0
  -29.8950  -13.8510   20.2820 N   0  0  0  0  0  0  0  0  0  0  0  0
  -31.6850  -15.1730   20.1060 O   0  0  0  0  0  0  0  0  0  0  0  0
  -29.6160  -20.4060   20.4570 C   0  0  0  0  0  0  0  0  0  0  0  0
  -30.9750  -20.1870   20.5590 C   0  0  0  0  0  0  0  0  0  0  0  0
  -29.9290  -17.8800   20.4070 C   0  0  0  0  0  0  0  0  0  0  0  0
  -29.0430  -19.0130   20.3720 N   0  0  0  0  0  0  0  0  0  0  0  0
  -29.6610  -16.3390   20.4240 N   0  0  0  0  0  0  0  0  0  0  0  0
  -31.8520  -21.2020   20.7560 F   0  0  0  0  0  0  0  0  0  0  0  0
  -31.5700  -18.5150   20.5160 S   0  0  0  0  0  0  0  0  0  0  0  0
  -28.6840  -16.1210   20.5110 H   0  0  0  0  0  0  0  0  0  0  0  0
  -25.2160  -13.9010   20.4850 C   0  0  0  0  0  0  0  0  0  0  0  0
  -24.1530  -13.1230   20.8550 C   0  0  0  0  0  0  0  0  0  0  0  0
  -24.6220  -11.7760   20.8300 C   0  0  0  0  0  0  0  0  0  0  0  0
  -26.2590  -13.0250   20.2450 N   0  0  0  0  0  0  0  0  0  0  0  0
  -25.9140  -11.7420   20.5250 N   0  0  0  0  0  0  0  0  0  0  0  0
  -23.8960  -10.5110   21.0180 C   0  0  0  0  0  0  0  0  0  0  0  0
  -24.3240   -9.5530   21.9650 C   0  0  0  0  0  3  0  0  0  0  0  0
  -23.6070   -8.3490   22.1370 C   0  0  0  0  0  3  0  0  0  0  0  0
  -22.4430   -8.1000   21.3710 C   0  0  0  0  0  0  0  0  0  0  0  0
  -22.0380   -9.0470   20.4130 C   0  0  0  0  0  3  0  0  0  0  0  0
  -22.7560  -10.2430   20.2370 C   0  0  0  0  0  3  0  0  0  0  0  0
  -21.6870   -6.9570   21.4610 O   0  0  0  0  0  0  0  0  0  0  0  0
  -21.6230   -6.2240   22.6190 C   0  0  0  0  0  0  0  0  0  0  0  0
  -21.1580   -6.7850   23.8300 C   0  0  0  0  0  3  0  0  0  0  0  0
  -21.0450   -5.9790   24.9810 C   0  0  0  0  0  3  0  0  0  0  0  0
  -21.3800   -4.6110   24.9190 C   0  0  0  0  0  0  0  0  0  0  0  0
  -21.8330   -4.0500   23.7130 C   0  0  0  0  0  3  0  0  0  0  0  0
  -21.9510   -4.8530   22.5650 C   0  0  0  0  0  0  0  0  0  0  0  0
  -22.3710   -4.3050   21.4010 F   0  0  0  0  0  0  0  0  0  0  0  0
  -21.2620   -3.8360   26.0210 F   0  0  0  0  0  0  0  0  0  0  0  0
  -22.7500  -13.5940   21.1120 C   0  0  0  0  0  0  0  0  0  0  0  0
  -22.0120  -12.8970   21.9670 N   0  0  0  0  0  0  0  0  0  0  0  0
  -22.3150  -14.6160   20.5800 O   0  0  0  0  0  0  0  0  0  0  0  0
  -22.3750  -12.0670   22.4160 H   0  0  0  0  0  0  0  0  0  0  0  0
  -21.0640  -13.1910   22.1740 H   0  0  0  0  0  0  0  0  0  0  0  0
  -25.3750  -15.2720   20.2970 N   0  0  0  0  0  0  0  0  0  0  0  0
  -24.6030  -15.9220   20.3830 H   0  0  0  0  0  0  0  0  0  0  0  0
  -26.2100  -15.6920   19.9060 H   0  0  0  0  0  0  0  0  0  0  0  0
  1  6  1  0
  1 48  2  0
  2  1  1  0
  3  2  1  0
  4  2  2  0
  6  5  1  0
  7  6  1  0
  8 19  2  0
  9  7  1  0
  9 14  1  0
 10 18  1  0
 10 20  1  0
 11 17  1  0
 11 13  1  0
 12 18  1  0
 13 12  1  0
 14 13  2  0
 15  9  2  0
 16 15  1  0
 16 11  2  0
 17 10  1  0
 18  8  1  0
 20 22  2  0
 21 20  1  0
 23 21  1  0
 24 33  2  0
 24 29  1  0
 25 21  1  0
 25 29  1  0
 26 25  1  0
 27 28  1  0
 27 26  1  0
 28 24  1  0
 29 30  2  0
 30 31  1  0
 32 31  2  0
 33 32  1  0
 34  8  1  0
 34 39  1  0
 34 35  1  0
 35 38  1  1
 35 36  1  0
 37 35  1  0
 39 42  1  0
 40 44  1  0
 40 39  1  0
 41 40  2  0
 44 43  1  0
 46 44  1  0
 46 47  1  0
 46 45  1  0
 48 49  1  0
 50 62  1  0
 51 56  1  0
 52 53  1  0
 52 51  1  0
 54 53  1  0
 54 69  1  0
 54 55  1  0
 56 50  1  0
 56 55  1  0
 57 50  2  0
 58 59  2  0
 58 48  1  0
 59 63  1  0
 60 62  1  0
 60 64  1  0
 61 60  2  0
 61 58  1  0
 62 65  1  0
 64 59  1  0
 66 67  2  0
 67 86  1  0
 68 67  1  0
 68 71  1  0
 69 66  1  0
 69 70  1  0
 70 68  2  0
 71 72  1  0
 72 73  2  0
 74 77  1  0
 74 73  1  0
 75 74  2  0
 76 75  1  0
 76 71  2  0
 77 78  1  0
 78 79  1  0
 79 80  2  0
 81 80  1  0
 81 85  1  0
 82 81  2  0
 83 78  2  0
 83 82  1  0
 84 83  1  0
 86 87  1  0
 87 90  1  0
 87 89  1  0
 88 86  2  0
 91 92  1  0
 91 66  1  0
 93 91  1  0
M  ISO  4   6 101   7 101  50 100  62 100
M  END
>  <TORSDO>  (33) 
F 19

>  <SCORE>  (33) 
-14.539

>  <name>  (33) 
33

>  <ligand_id>  (33) 
33

>  <original_smiles>  (33) 
[H]c1c([H])c([H])c2c(c1[H])C([H])([H])C([H])([H])C([H])([H])C2([H])N([H])C(=O)C1([H])N(C(=O)C([H])(N([H])C(=O)C([H])(N([H])C([H])([H])[H])C([H])([H])[H])C(C([H])([H])[H])(C([H])([H])[H])C([H])([H])[H])C([H])([H])c2c([H])c(OC([H])(C([H])([H])[H])C([H])(C(=O)C([H])([H])[H])N([H])c3nc(N([H])C(=O)N4C([H])([H])C([H])([H])C([H])([H])C([H])(n5nc(-c6c([H])c([H])c(Oc7c([H])c([H])c(F)c([H])c7F)c([H])c6[H])c(C(=O)N([H])[H])c5N([H])[H])C4([H])[H])sc3F)c([H])c([H])c2C1([H])[H]

>  <smiles>  (33) 
[H]c1c([H])c([H])c2c(c1[H])C([H])([H])C([H])([H])C([H])([H])C2([H])N([H])C(=O)C1([H])N(C(=O)C([H])(N([H])C(=O)C([H])(N([H])C([H])([H])[H])C([H])([H])[H])C(C([H])([H])[H])(C([H])([H])[H])C([H])([H])[H])C([H])([H])c2c([H])c(OC([H])(C([H])([H])[H])C([H])(C(=O)C([H])([H])[H])N([H])c3nc(N([H])C(=O)N4C([H])([H])C([H])([H])C([H])([H])C([H])(n5nc(-c6c([H])c([H])c(Oc7c([H])c([H])c(F)c([H])c7F)c([H])c6[H])c(C(=O)N([H])[H])c5N([H])[H])C4([H])[H])sc3F)c([H])c([H])c2C1([H])[H]

$$$$
34:0:0
     RDKit          3D

 97105  0  0  1  0  0  0  0  0999 V2000
  -29.9170  -20.7110   20.1610 C   0  0  0  0  0  3  0  0  0  0  0  0
  -28.8410  -17.0240   19.0970 C   0  0  0  0  0  3  0  0  0  0  0  0
  -29.5690  -16.9260   20.2580 C   0  0  0  0  0  0  0  0  0  0  0  0
  -29.5070  -19.2350   20.0230 C   0  0  0  0  0  0  0  0  0  0  0  0
  -29.8720  -18.1940   20.8170 N   0  0  0  0  0  0  0  0  0  0  0  0
  -28.5620  -18.6860   18.6360 S   0  0  0  0  0  0  0  0  0  0  0  0
  -30.5800  -14.6470   20.3670 C   0  0  0  0  0  0  0  0  0  0  0  0
  -30.3620  -12.4550   19.2450 C   0  0  0  0  0  2  0  0  0  0  0  0
  -29.4020  -12.6410   18.0470 C   0  0  0  0  0  2  0  0  0  0  0  0
  -27.9300  -12.4890   18.4870 C   0  0  0  0  0  2  0  0  0  0  0  0
  -27.5950  -13.3060   19.7630 C   0  0  0  0  0  3  0  0  0  0  0  0
  -28.6650  -13.0780   20.8560 C   0  0  0  0  0  2  0  0  0  0  0  0
  -29.9730  -13.4250   20.2820 N   0  0  0  0  0  0  0  0  0  0  0  0
  -31.7090  -14.8490   19.9040 O   0  0  0  0  0  0  0  0  0  0  0  0
  -29.8180  -15.6510   20.8770 N   0  0  0  0  0  0  0  0  0  0  0  0
  -29.0270  -15.2970   21.3890 H   0  0  0  0  0  0  0  0  0  0  0  0
  -25.2010  -13.9010   20.4950 C   0  0  0  0  0  0  0  0  0  0  0  0
  -24.1410  -13.1230   20.8750 C   0  0  0  0  0  0  0  0  0  0  0  0
  -24.6090  -11.7740   20.8400 C   0  0  0  0  0  0  0  0  0  0  0  0
  -26.2480  -13.0240   20.2530 N   0  0  0  0  0  0  0  0  0  0  0  0
  -25.8970  -11.7400   20.5160 N   0  0  0  0  0  0  0  0  0  0  0  0
  -23.8940  -10.5070   21.0380 C   0  0  0  0  0  0  0  0  0  0  0  0
  -24.3280   -9.5530   21.9820 C   0  0  0  0  0  3  0  0  0  0  0  0
  -23.6130   -8.3500   22.1660 C   0  0  0  0  0  3  0  0  0  0  0  0
  -22.4470   -8.0950   21.4060 C   0  0  0  0  0  0  0  0  0  0  0  0
  -22.0320   -9.0380   20.4500 C   0  0  0  0  0  3  0  0  0  0  0  0
  -22.7490  -10.2310   20.2640 C   0  0  0  0  0  3  0  0  0  0  0  0
  -21.7020   -6.9440   21.4970 O   0  0  0  0  0  0  0  0  0  0  0  0
  -21.6400   -6.2180   22.6600 C   0  0  0  0  0  0  0  0  0  0  0  0
  -21.1670   -6.7810   23.8660 C   0  0  0  0  0  3  0  0  0  0  0  0
  -21.0550   -5.9790   25.0190 C   0  0  0  0  0  3  0  0  0  0  0  0
  -21.4040   -4.6160   24.9680 C   0  0  0  0  0  0  0  0  0  0  0  0
  -21.8720   -4.0540   23.7660 C   0  0  0  0  0  3  0  0  0  0  0  0
  -21.9870   -4.8530   22.6150 C   0  0  0  0  0  0  0  0  0  0  0  0
  -22.4170   -4.3010   21.4550 F   0  0  0  0  0  0  0  0  0  0  0  0
  -21.2910   -3.8450   26.0740 F   0  0  0  0  0  0  0  0  0  0  0  0
  -22.7430  -13.5920   21.1610 C   0  0  0  0  0  0  0  0  0  0  0  0
  -22.0220  -12.8880   22.0250 N   0  0  0  0  0  0  0  0  0  0  0  0
  -22.2970  -14.6220   20.6570 O   0  0  0  0  0  0  0  0  0  0  0  0
  -22.3910  -12.0550   22.4590 H   0  0  0  0  0  0  0  0  0  0  0  0
  -21.0850  -13.1860   22.2580 H   0  0  0  0  0  0  0  0  0  0  0  0
  -25.3570  -15.2730   20.3210 N   0  0  0  0  0  0  0  0  0  0  0  0
  -24.5910  -15.9240   20.4580 H   0  0  0  0  0  0  0  0  0  0  0  0
  -26.2080  -15.7280   20.0180 H   0  0  0  0  0  0  0  0  0  0  0  0
  -29.0160  -21.6130   21.0880 C   0  0  0  0  0  3  0  0  0  0  0  0
  -28.9440  -21.0030   22.2740 F   0  0  0  0  0  0  0  0  0  0  0  0
  -29.4270  -23.1080   21.4180 C   0  0  0  0  0  2  0  0  0  0  0  0
  -29.4570  -24.2830   20.3630 C   0  0  0  0  0  3  0  0  0  0  0  0
  -29.9300  -23.8180   19.1120 O   0  0  0  0  0  0  0  0  0  0  0  0
  -30.0550  -24.5770   18.5510 H   0  0  0  0  0  0  0  0  0  0  0  0
  -28.1660  -25.1550   20.1670 C   0  0  0  0  0  2  0  0  0  0  0  0
  -28.3660  -26.6060   20.2230 O   0  0  0  0  0  0  0  0  0  0  0  0
  -24.5950  -31.9190   23.2570 C   0  0  0  0  0  0  0  0  0  0  0  0
  -27.2250  -27.4120   20.1840 C   0  0  0  0  0  0  0  0  0  0  0  0
  -23.3970  -30.5180   21.6150 C   0  0  0  0  0  3  0  0  0  0  0  0
  -24.8490  -28.9850   20.1860 C   0  0  0  0  0  0  0  0  0  0  0  0
  -25.9330  -30.8570   21.4300 C   0  0  0  0  0  2  0  0  0  0  0  0
  -26.0150  -29.4850   20.7780 C   0  0  0  0  0  0  0  0  0  0  0  0
  -27.2090  -28.7110   20.7630 C   0  0  0  0  0  3  0  0  0  0  0  0
  -26.0330  -26.9500   19.5770 C   0  0  0  0  0  3  0  0  0  0  0  0
  -24.8570  -27.7200   19.5770 C   0  0  0  0  0  3  0  0  0  0  0  0
  -23.6110  -29.8520   20.2320 C   0  0  0  0  0  2  0  0  0  0  0  0
  -24.6600  -31.1150   22.1570 N   0  0  0  0  0  0  0  0  0  0  0  0
  -23.5110  -32.1910   23.7920 O   0  0  0  0  0  0  0  0  0  0  0  0
  -22.7450  -29.4910   22.5710 C   0  0  0  0  0  0  0  0  0  0  0  0
  -21.4260  -29.2840   22.4210 N   0  0  0  0  0  0  0  0  0  0  0  0
  -23.4220  -28.8870   23.4060 O   0  0  0  0  0  0  0  0  0  0  0  0
  -20.9400  -29.8310   21.7230 H   0  0  0  0  0  0  0  0  0  0  0  0
  -18.0710  -27.9950   22.8350 C   0  0  0  0  0  0  0  0  0  0  0  0
  -20.6100  -28.3380   23.1830 C   0  0  0  0  0  3  0  0  0  0  0  0
  -20.7730  -26.8980   22.6440 C   0  0  0  0  0  2  0  0  0  0  0  0
  -19.7160  -26.5200   21.6020 C   0  0  0  0  0  2  0  0  0  0  0  0
  -18.3100  -26.6380   22.1970 C   0  0  0  0  0  2  0  0  0  0  0  0
  -19.1520  -28.8000   23.2840 C   0  0  0  0  0  0  0  0  0  0  0  0
  -18.8770  -30.0680   23.8390 C   0  0  0  0  0  3  0  0  0  0  0  0
  -17.5540  -30.5330   23.9520 C   0  0  0  0  0  3  0  0  0  0  0  0
  -16.4870  -29.7270   23.5200 C   0  0  0  0  0  3  0  0  0  0  0  0
  -16.7460  -28.4600   22.9670 C   0  0  0  0  0  3  0  0  0  0  0  0
  -25.8760  -32.5550   23.8810 C   0  0  0  0  0  3  0  0  0  0  0  0
  -25.5670  -33.9570   24.1940 N   0  0  0  0  0  0  0  0  0  0  0  0
  -25.9060  -35.0010   23.4240 C   0  0  0  0  0  0  0  0  0  0  0  0
  -26.5860  -34.8850   22.4010 O   0  0  0  0  0  0  0  0  0  0  0  0
  -24.9670  -34.1220   24.9880 H   0  0  0  0  0  0  0  0  0  0  0  0
  -24.1940  -36.7990   23.0240 C   0  0  0  0  0  1  0  0  0  0  0  0
  -25.4170  -36.3950   23.8630 C   0  0  0  0  0  3  0  0  0  0  0  0
  -27.5360  -37.2790   24.7320 C   0  0  0  0  0  1  0  0  0  0  0  0
  -26.4570  -37.4420   23.7630 N   0  0  0  0  0  0  0  0  0  0  0  0
  -26.0520  -38.3650   23.8880 H   0  0  0  0  0  0  0  0  0  0  0  0
  -26.3800  -31.7980   25.1710 C   0  0  1  0  0  0  0  0  0  0  0  0
  -25.2810  -31.5760   26.2340 C   0  0  0  0  0  1  0  0  0  0  0  0
  -26.9660  -30.4160   24.7990 C   0  0  0  0  0  1  0  0  0  0  0  0
  -27.5250  -32.6020   25.8340 C   0  0  0  0  0  1  0  0  0  0  0  0
  -31.4550  -20.8600   20.3680 C   0  0  0  0  0  2  0  0  0  0  0  0
  -33.8440  -20.9110   19.6140 C   0  0  0  0  0  1  0  0  0  0  0  0
  -32.0550  -21.4110   17.9380 C   0  0  0  0  0  1  0  0  0  0  0  0
  -32.4260  -19.0660   18.7560 C   0  0  0  0  0  1  0  0  0  0  0  0
  -32.4110  -20.5510   19.1680 C   0  0  2  0  0  0  0  0  0  0  0  0
  1 93  1  0
  1 45  1  0
  2  3  2  0
  3  5  1  0
  3 15  1  0
  4  1  1  0
  4  5  2  0
  6  2  1  0
  6  4  1  0
  7 15  1  0
  8 13  1  0
  9 10  1  0
  9  8  1  0
 11 10  1  0
 11 20  1  0
 11 12  1  0
 13  7  1  0
 13 12  1  0
 14  7  2  0
 15 16  1  0
 17 18  2  0
 18 37  1  0
 19 18  1  0
 19 22  1  0
 20 17  1  0
 20 21  1  0
 21 19  2  0
 22 23  1  0
 23 24  2  0
 25 28  1  0
 25 24  1  0
 26 25  2  0
 27 26  1  0
 27 22  2  0
 28 29  1  0
 29 30  1  0
 30 31  2  0
 32 31  1  0
 32 36  1  0
 33 32  2  0
 34 29  2  0
 34 33  1  0
 35 34  1  0
 37 38  1  0
 38 41  1  0
 38 40  1  0
 39 37  2  0
 42 43  1  0
 42 17  1  0
 44 42  1  0
 45 47  1  0
 45 46  1  0
 48 51  1  0
 48 47  1  0
 49 48  1  0
 50 49  1  0
 51 52  1  0
 53 64  2  0
 54 52  1  0
 54 59  1  0
 55 63  1  0
 55 65  1  0
 56 62  1  0
 56 58  1  0
 57 63  1  0
 58 57  1  0
 59 58  2  0
 60 54  2  0
 61 60  1  0
 61 56  2  0
 62 55  1  0
 63 53  1  0
 65 67  2  0
 66 65  1  0
 68 66  1  0
 69 78  2  0
 69 74  1  0
 70 66  1  0
 70 74  1  0
 71 70  1  0
 72 73  1  0
 72 71  1  0
 73 69  1  0
 74 75  2  0
 75 76  1  0
 77 76  2  0
 78 77  1  0
 79 53  1  0
 79 80  1  0
 79 89  1  0
 80 83  1  0
 81 85  1  0
 81 80  1  0
 82 81  2  0
 85 84  1  0
 87 85  1  0
 87 88  1  0
 87 86  1  0
 89 92  1  1
 89 90  1  0
 91 89  1  0
 97 95  1  6
 96 97  1  0
 97 94  1  0
 97 93  1  0
M  ISO  4   7 100  15 100  51 101  52 101
M  END
>  <TORSDO>  (34) 
F 24

>  <SCORE>  (34) 
-12.985

>  <name>  (34) 
34

>  <ligand_id>  (34) 
34

>  <original_smiles>  (34) 
[H]OC([H])(C([H])([H])Oc1c([H])c([H])c2c(c1[H])C([H])([H])N(C(=O)C([H])(N([H])C(=O)C([H])(N([H])C([H])([H])[H])C([H])([H])[H])C(C([H])([H])[H])(C([H])([H])[H])C([H])([H])[H])C([H])(C(=O)N([H])C1([H])c3c([H])c([H])c([H])c([H])c3C([H])([H])C([H])([H])C1([H])[H])C2([H])[H])C([H])([H])C([H])(F)C([H])(c1nc(N([H])C(=O)N2C([H])([H])C([H])([H])C([H])([H])C([H])(n3nc(-c4c([H])c([H])c(Oc5c([H])c([H])c(F)c([H])c5F)c([H])c4[H])c(C(=O)N([H])[H])c3N([H])[H])C2([H])[H])c([H])s1)C([H])([H])C(C([H])([H])[H])(C([H])([H])[H])C([H])([H])[H]

>  <smiles>  (34) 
[H]OC([H])(C([H])([H])Oc1c([H])c([H])c2c(c1[H])C([H])([H])N(C(=O)C([H])(N([H])C(=O)C([H])(N([H])C([H])([H])[H])C([H])([H])[H])C(C([H])([H])[H])(C([H])([H])[H])C([H])([H])[H])C([H])(C(=O)N([H])C1([H])c3c([H])c([H])c([H])c([H])c3C([H])([H])C([H])([H])C1([H])[H])C2([H])[H])C([H])([H])C([H])(F)C([H])(c1nc(N([H])C(=O)N2C([H])([H])C([H])([H])C([H])([H])C([H])(n3nc(-c4c([H])c([H])c(Oc5c([H])c([H])c(F)c([H])c5F)c([H])c4[H])c(C(=O)N([H])[H])c3N([H])[H])C2([H])[H])c([H])s1)C([H])([H])C(C([H])([H])[H])(C([H])([H])[H])C([H])([H])[H]

$$$$
35:0:0
     RDKit          3D

 95103  0  0  1  0  0  0  0  0999 V2000
  -30.7610  -21.3180   21.7820 C   0  0  0  0  0  1  0  0  0  0  0  0
  -29.8290  -21.2100   20.5640 C   0  0  0  0  0  3  0  0  0  0  0  0
  -30.5820  -14.8600   20.4220 C   0  0  0  0  0  0  0  0  0  0  0  0
  -30.4340  -12.5730   19.3870 C   0  0  0  0  0  2  0  0  0  0  0  0
  -29.5180  -12.6350   18.1440 C   0  0  0  0  0  2  0  0  0  0  0  0
  -28.0410  -12.4540   18.5400 C   0  0  0  0  0  2  0  0  0  0  0  0
  -27.6390  -13.3310   19.7570 C   0  0  0  0  0  3  0  0  0  0  0  0
  -28.6750  -13.2300   20.8990 C   0  0  0  0  0  2  0  0  0  0  0  0
  -29.9880  -13.6100   20.3520 N   0  0  0  0  0  0  0  0  0  0  0  0
  -31.7210  -15.0110   19.9670 O   0  0  0  0  0  0  0  0  0  0  0  0
  -29.2920  -19.6980   20.4710 C   0  0  0  0  0  0  0  0  0  0  0  0
  -28.0080  -19.3100   20.1330 C   0  0  0  0  0  0  0  0  0  0  0  0
  -29.4750  -17.2760   20.5340 C   0  0  0  0  0  0  0  0  0  0  0  0
  -30.1030  -18.4950   20.6950 N   0  0  0  0  0  0  0  0  0  0  0  0
  -29.8650  -15.9070   20.9890 N   0  0  0  0  0  0  0  0  0  0  0  0
  -27.7990  -17.5630   20.0730 S   0  0  0  0  0  0  0  0  0  0  0  0
  -29.1100  -15.4960   21.5170 H   0  0  0  0  0  0  0  0  0  0  0  0
  -25.2290  -13.9080   20.4280 C   0  0  0  0  0  0  0  0  0  0  0  0
  -24.1640  -13.1330   20.7920 C   0  0  0  0  0  0  0  0  0  0  0  0
  -24.6360  -11.7870   20.7810 C   0  0  0  0  0  0  0  0  0  0  0  0
  -26.2840  -13.0350   20.2200 N   0  0  0  0  0  0  0  0  0  0  0  0
  -25.9310  -11.7530   20.4940 N   0  0  0  0  0  0  0  0  0  0  0  0
  -23.9110  -10.5240   20.9690 C   0  0  0  0  0  0  0  0  0  0  0  0
  -24.3390   -9.5580   21.9060 C   0  0  0  0  0  3  0  0  0  0  0  0
  -23.6110   -8.3620   22.0850 C   0  0  0  0  0  3  0  0  0  0  0  0
  -22.4410   -8.1230   21.3250 C   0  0  0  0  0  0  0  0  0  0  0  0
  -22.0350   -9.0730   20.3730 C   0  0  0  0  0  3  0  0  0  0  0  0
  -22.7650  -10.2620   20.1930 C   0  0  0  0  0  3  0  0  0  0  0  0
  -21.6860   -6.9790   21.4150 O   0  0  0  0  0  0  0  0  0  0  0  0
  -21.6350   -6.2370   22.5660 C   0  0  0  0  0  0  0  0  0  0  0  0
  -21.1990   -6.7900   23.7900 C   0  0  0  0  0  3  0  0  0  0  0  0
  -21.0940   -5.9710   24.9330 C   0  0  0  0  0  3  0  0  0  0  0  0
  -21.4150   -4.6040   24.8540 C   0  0  0  0  0  0  0  0  0  0  0  0
  -21.8440   -4.0510   23.6330 C   0  0  0  0  0  3  0  0  0  0  0  0
  -21.9500   -4.8650   22.4930 C   0  0  0  0  0  0  0  0  0  0  0  0
  -22.3420   -4.3210   21.3150 F   0  0  0  0  0  0  0  0  0  0  0  0
  -21.3070   -3.8160   25.9500 F   0  0  0  0  0  0  0  0  0  0  0  0
  -22.7590  -13.6050   21.0350 C   0  0  0  0  0  0  0  0  0  0  0  0
  -22.0270  -12.9240   21.9090 N   0  0  0  0  0  0  0  0  0  0  0  0
  -22.3180  -14.6150   20.4850 O   0  0  0  0  0  0  0  0  0  0  0  0
  -22.3950  -12.1080   22.3780 H   0  0  0  0  0  0  0  0  0  0  0  0
  -21.0810  -13.2170   22.1120 H   0  0  0  0  0  0  0  0  0  0  0  0
  -25.3710  -15.2770   20.2340 N   0  0  0  0  0  0  0  0  0  0  0  0
  -24.5840  -15.9120   20.3140 H   0  0  0  0  0  0  0  0  0  0  0  0
  -26.2010  -15.7280   19.8720 H   0  0  0  0  0  0  0  0  0  0  0  0
  -26.9060  -20.1030   19.8240 N   0  0  0  0  0  0  0  0  0  0  0  0
  -27.0550  -20.9370   19.2640 H   0  0  0  0  0  0  0  0  0  0  0  0
  -26.0460  -19.6430   19.5450 H   0  0  0  0  0  0  0  0  0  0  0  0
  -29.1070  -23.7910   20.4230 C   0  0  0  0  0  0  0  0  0  0  0  0
  -28.8660  -22.4220   20.5970 N   0  0  0  0  0  0  0  0  0  0  0  0
  -30.2260  -24.1700   20.0730 O   0  0  0  0  0  0  0  0  0  0  0  0
  -27.9170  -22.1710   20.8400 H   0  0  0  0  0  0  0  0  0  0  0  0
  -27.6070  -24.9590   22.1680 C   0  0  0  0  0  1  0  0  0  0  0  0
  -27.9850  -24.9330   20.6710 C   0  0  0  0  0  3  0  0  0  0  0  0
  -28.2980  -26.3730   20.2710 O   0  0  0  0  0  0  0  0  0  0  0  0
  -24.6410  -31.9210   23.2330 C   0  0  0  0  0  0  0  0  0  0  0  0
  -27.2280  -27.3070   20.1930 C   0  0  0  0  0  0  0  0  0  0  0  0
  -23.4330  -30.5260   21.5940 C   0  0  0  0  0  3  0  0  0  0  0  0
  -24.8810  -28.9760   20.1610 C   0  0  0  0  0  0  0  0  0  0  0  0
  -25.9750  -30.8340   21.4070 C   0  0  0  0  0  2  0  0  0  0  0  0
  -26.0550  -29.4500   20.7590 C   0  0  0  0  0  0  0  0  0  0  0  0
  -27.2330  -28.6300   20.7610 C   0  0  0  0  0  3  0  0  0  0  0  0
  -26.0380  -26.9220   19.5380 C   0  0  0  0  0  3  0  0  0  0  0  0
  -24.8810  -27.7220   19.5320 C   0  0  0  0  0  3  0  0  0  0  0  0
  -23.6440  -29.8510   20.2150 C   0  0  0  0  0  2  0  0  0  0  0  0
  -24.7020  -31.1100   22.1360 N   0  0  0  0  0  0  0  0  0  0  0  0
  -23.5580  -32.1980   23.7710 O   0  0  0  0  0  0  0  0  0  0  0  0
  -22.7720  -29.5090   22.5580 C   0  0  0  0  0  0  0  0  0  0  0  0
  -21.4450  -29.3270   22.4340 N   0  0  0  0  0  0  0  0  0  0  0  0
  -23.4520  -28.8850   23.3780 O   0  0  0  0  0  0  0  0  0  0  0  0
  -20.9520  -29.8810   21.7480 H   0  0  0  0  0  0  0  0  0  0  0  0
  -18.0720  -28.1140   22.9430 C   0  0  0  0  0  0  0  0  0  0  0  0
  -20.6300  -28.3860   23.2070 C   0  0  0  0  0  3  0  0  0  0  0  0
  -20.7370  -26.9530   22.6350 C   0  0  0  0  0  2  0  0  0  0  0  0
  -19.6360  -26.6250   21.6230 C   0  0  0  0  0  2  0  0  0  0  0  0
  -18.2530  -26.7660   22.2670 C   0  0  0  0  0  2  0  0  0  0  0  0
  -19.1880  -28.8820   23.3700 C   0  0  0  0  0  0  0  0  0  0  0  0
  -18.9660  -30.1450   23.9590 C   0  0  0  0  0  3  0  0  0  0  0  0
  -17.6600  -30.6400   24.1290 C   0  0  0  0  0  3  0  0  0  0  0  0
  -16.5580  -29.8700   23.7180 C   0  0  0  0  0  3  0  0  0  0  0  0
  -16.7640  -28.6090   23.1310 C   0  0  0  0  0  3  0  0  0  0  0  0
  -25.9250  -32.5560   23.8510 C   0  0  0  0  0  3  0  0  0  0  0  0
  -26.4450  -31.7840   25.1250 C   0  0  1  0  0  0  0  0  0  0  0  0
  -25.3540  -31.5440   26.1950 C   0  0  0  0  0  1  0  0  0  0  0  0
  -27.0330  -30.4110   24.7310 C   0  0  0  0  0  1  0  0  0  0  0  0
  -27.5980  -32.5780   25.7840 C   0  0  0  0  0  1  0  0  0  0  0  0
  -25.6130  -33.9530   24.1900 N   0  0  0  0  0  0  0  0  0  0  0  0
  -25.9250  -35.0090   23.4280 C   0  0  0  0  0  0  0  0  0  0  0  0
  -26.5740  -34.9110   22.3840 O   0  0  0  0  0  0  0  0  0  0  0  0
  -25.0420  -34.1010   25.0080 H   0  0  0  0  0  0  0  0  0  0  0  0
  -24.1790  -36.7910   23.1200 C   0  0  0  0  0  1  0  0  0  0  0  0
  -25.4420  -36.3950   23.9010 C   0  0  0  0  0  3  0  0  0  0  0  0
  -27.5870  -37.2930   24.6820 C   0  0  0  0  0  1  0  0  0  0  0  0
  -26.4640  -37.4550   23.7630 N   0  0  0  0  0  0  0  0  0  0  0  0
  -26.0560  -38.3720   23.9250 H   0  0  0  0  0  0  0  0  0  0  0  0
  2 50  1  0
  2  1  1  0
  3 15  1  0
  4  9  1  0
  5  6  1  0
  5  4  1  0
  7  6  1  0
  7 21  1  0
  7  8  1  0
  9  3  1  0
  9  8  1  0
 10  3  2  0
 11  2  1  0
 11 14  1  0
 12 11  2  0
 13 14  2  0
 13 15  1  0
 15 17  1  0
 16 12  1  0
 16 13  1  0
 18 19  2  0
 19 38  1  0
 20 19  1  0
 20 23  1  0
 21 18  1  0
 21 22  1  0
 22 20  2  0
 23 24  1  0
 24 25  2  0
 26 29  1  0
 26 25  1  0
 27 26  2  0
 28 27  1  0
 28 23  2  0
 29 30  1  0
 30 31  1  0
 31 32  2  0
 33 32  1  0
 33 37  1  0
 34 33  2  0
 35 30  2  0
 35 34  1  0
 36 35  1  0
 38 39  1  0
 39 42  1  0
 39 41  1  0
 40 38  2  0
 43 44  1  0
 43 18  1  0
 45 43  1  0
 46 12  1  0
 47 46  1  0
 48 46  1  0
 49 50  1  0
 49 54  1  0
 50 52  1  0
 51 49  2  0
 54 53  1  0
 55 54  1  0
 56 67  2  0
 57 55  1  0
 57 62  1  0
 58 66  1  0
 58 68  1  0
 59 65  1  0
 59 61  1  0
 60 66  1  0
 61 62  2  0
 61 60  1  0
 63 57  2  0
 64 63  1  0
 64 59  2  0
 65 58  1  0
 66 56  1  0
 68 70  2  0
 69 68  1  0
 71 69  1  0
 72 81  2  0
 72 77  1  0
 73 69  1  0
 73 77  1  0
 74 73  1  0
 75 76  1  0
 75 74  1  0
 76 72  1  0
 77 78  2  0
 78 79  1  0
 80 79  2  0
 81 80  1  0
 82 56  1  0
 82 87  1  0
 82 83  1  0
 83 86  1  1
 83 84  1  0
 85 83  1  0
 87 90  1  0
 88 92  1  0
 88 87  1  0
 89 88  2  0
 92 91  1  0
 94 92  1  0
 94 95  1  0
 94 93  1  0
M  ISO  4   3 100  15 100  54 101  55 101
M  END
>  <TORSDO>  (35) 
F 19

>  <SCORE>  (35) 
-14.560

>  <name>  (35) 
35

>  <ligand_id>  (35) 
35

>  <original_smiles>  (35) 
[H]c1c([H])c([H])c2c(c1[H])C([H])([H])C([H])([H])C([H])([H])C2([H])N([H])C(=O)C1([H])N(C(=O)C([H])(N([H])C(=O)C([H])(N([H])C([H])([H])[H])C([H])([H])[H])C(C([H])([H])[H])(C([H])([H])[H])C([H])([H])[H])C([H])([H])c2c([H])c(OC([H])(C(=O)N([H])C([H])(c3nc(N([H])C(=O)N4C([H])([H])C([H])([H])C([H])([H])C([H])(n5nc(-c6c([H])c([H])c(Oc7c([H])c([H])c(F)c([H])c7F)c([H])c6[H])c(C(=O)N([H])[H])c5N([H])[H])C4([H])[H])sc3N([H])[H])C([H])([H])[H])C([H])([H])[H])c([H])c([H])c2C1([H])[H]

>  <smiles>  (35) 
[H]c1c([H])c([H])c2c(c1[H])C([H])([H])C([H])([H])C([H])([H])C2([H])N([H])C(=O)C1([H])N(C(=O)C([H])(N([H])C(=O)C([H])(N([H])C([H])([H])[H])C([H])([H])[H])C(C([H])([H])[H])(C([H])([H])[H])C([H])([H])[H])C([H])([H])c2c([H])c(OC([H])(C(=O)N([H])C([H])(c3nc(N([H])C(=O)N4C([H])([H])C([H])([H])C([H])([H])C([H])(n5nc(-c6c([H])c([H])c(Oc7c([H])c([H])c(F)c([H])c7F)c([H])c6[H])c(C(=O)N([H])[H])c5N([H])[H])C4([H])[H])sc3N([H])[H])C([H])([H])[H])C([H])([H])[H])c([H])c([H])c2C1([H])[H]

$$$$
36:0:0
     RDKit          3D

 97105  0  0  1  0  0  0  0  0999 V2000
  -29.1470  -21.4180   19.7200 C   0  0  0  0  0  2  0  0  0  0  0  0
  -27.4270  -22.5880   21.1970 C   0  0  0  0  0  1  0  0  0  0  0  0
  -29.3380  -21.3680   22.2400 C   0  0  0  0  0  1  0  0  0  0  0  0
  -28.9190  -22.2300   21.0310 C   0  0  1  0  0  0  0  0  0  0  0  0
  -29.8520  -23.4890   21.0860 C   0  0  0  0  0  2  0  0  0  0  0  0
  -30.9470  -25.5210   20.0820 C   0  0  0  0  0  1  0  0  0  0  0  0
  -29.6390  -24.7020   20.1350 C   0  0  0  0  0  3  0  0  0  0  0  0
  -28.4790  -25.6230   20.5840 C   0  0  0  0  0  2  0  0  0  0  0  0
  -28.5290  -26.9110   19.9640 O   0  0  0  0  0  0  0  0  0  0  0  0
  -24.5890  -31.8810   23.1930 C   0  0  0  0  0  0  0  0  0  0  0  0
  -27.3440  -27.6040   20.0000 C   0  0  0  0  0  0  0  0  0  0  0  0
  -23.4230  -30.4910   21.5160 C   0  0  0  0  0  3  0  0  0  0  0  0
  -24.9110  -29.0310   20.0530 C   0  0  0  0  0  0  0  0  0  0  0  0
  -25.9380  -30.9240   21.3280 C   0  0  0  0  0  2  0  0  0  0  0  0
  -26.0550  -29.5750   20.6530 C   0  0  0  0  0  0  0  0  0  0  0  0
  -27.2790  -28.8710   20.6180 C   0  0  0  0  0  3  0  0  0  0  0  0
  -26.1840  -27.0710   19.3940 C   0  0  0  0  0  3  0  0  0  0  0  0
  -24.9690  -27.7810   19.4170 C   0  0  0  0  0  3  0  0  0  0  0  0
  -23.6450  -29.8540   20.1190 C   0  0  0  0  0  2  0  0  0  0  0  0
  -24.6700  -31.1110   22.0710 N   0  0  0  0  0  0  0  0  0  0  0  0
  -23.5010  -32.1140   23.7370 O   0  0  0  0  0  0  0  0  0  0  0  0
  -22.7990  -29.4270   22.4490 C   0  0  0  0  0  0  0  0  0  0  0  0
  -21.4820  -29.2030   22.3100 N   0  0  0  0  0  0  0  0  0  0  0  0
  -23.4960  -28.8060   23.2560 O   0  0  0  0  0  0  0  0  0  0  0  0
  -20.9820  -29.7580   21.6310 H   0  0  0  0  0  0  0  0  0  0  0  0
  -18.1410  -27.9030   22.7550 C   0  0  0  0  0  0  0  0  0  0  0  0
  -20.6880  -28.2240   23.0500 C   0  0  0  0  0  3  0  0  0  0  0  0
  -20.8340  -26.8120   22.4380 C   0  0  0  0  0  2  0  0  0  0  0  0
  -19.7450  -26.4840   21.4120 C   0  0  0  0  0  2  0  0  0  0  0  0
  -18.3570  -26.5770   22.0500 C   0  0  0  0  0  2  0  0  0  0  0  0
  -19.2340  -28.6870   23.2100 C   0  0  0  0  0  0  0  0  0  0  0  0
  -18.9770  -29.9320   23.8220 C   0  0  0  0  0  3  0  0  0  0  0  0
  -17.6550  -30.3900   23.9920 C   0  0  0  0  0  3  0  0  0  0  0  0
  -16.5770  -29.6020   23.5510 C   0  0  0  0  0  3  0  0  0  0  0  0
  -16.8210  -28.3610   22.9380 C   0  0  0  0  0  3  0  0  0  0  0  0
  -25.8570  -32.5300   23.8330 C   0  0  0  0  0  3  0  0  0  0  0  0
  -25.5250  -33.9220   24.1570 N   0  0  0  0  0  0  0  0  0  0  0  0
  -25.8670  -34.9780   23.4070 C   0  0  0  0  0  0  0  0  0  0  0  0
  -26.5630  -34.8810   22.3930 O   0  0  0  0  0  0  0  0  0  0  0  0
  -24.9100  -34.0700   24.9450 H   0  0  0  0  0  0  0  0  0  0  0  0
  -24.1470  -36.7610   22.9820 C   0  0  0  0  0  1  0  0  0  0  0  0
  -25.3510  -36.3610   23.8510 C   0  0  0  0  0  3  0  0  0  0  0  0
  -27.4380  -37.2500   24.7890 C   0  0  0  0  0  1  0  0  0  0  0  0
  -26.3840  -37.4180   23.7920 N   0  0  0  0  0  0  0  0  0  0  0  0
  -25.9680  -38.3360   23.9200 H   0  0  0  0  0  0  0  0  0  0  0  0
  -26.3660  -31.7640   25.1150 C   0  0  1  0  0  0  0  0  0  0  0  0
  -25.2600  -31.5040   26.1670 C   0  0  0  0  0  1  0  0  0  0  0  0
  -26.9780  -30.4000   24.7230 C   0  0  0  0  0  1  0  0  0  0  0  0
  -27.4960  -32.5750   25.7920 C   0  0  0  0  0  1  0  0  0  0  0  0
  -27.2300  -20.1700   18.5260 C   0  0  0  0  0  1  0  0  0  0  0  0
  -28.3540  -20.0800   19.5740 C   0  0  0  0  0  3  0  0  0  0  0  0
  -30.8610  -14.5790   20.3720 C   0  0  0  0  0  0  0  0  0  0  0  0
  -30.5500  -12.4440   19.2230 C   0  0  0  0  0  2  0  0  0  0  0  0
  -29.6040  -12.7020   18.0320 C   0  0  0  0  0  2  0  0  0  0  0  0
  -28.1250  -12.5740   18.4590 C   0  0  0  0  0  2  0  0  0  0  0  0
  -27.8030  -13.3680   19.7520 C   0  0  0  0  0  3  0  0  0  0  0  0
  -28.8670  -13.1150   20.8460 C   0  0  0  0  0  2  0  0  0  0  0  0
  -30.1930  -13.4010   20.2790 N   0  0  0  0  0  0  0  0  0  0  0  0
  -32.0280  -14.7270   19.9980 O   0  0  0  0  0  0  0  0  0  0  0  0
  -29.2580  -18.8860   19.3370 C   0  0  0  0  0  0  0  0  0  0  0  0
  -30.1590  -18.6830   18.3090 C   0  0  0  0  0  0  0  0  0  0  0  0
  -30.0710  -16.8350   19.9380 C   0  0  0  0  0  0  0  0  0  0  0  0
  -29.2170  -17.8140   20.2490 N   0  0  0  0  0  0  0  0  0  0  0  0
  -30.1010  -15.6360   20.6970 N   0  0  0  0  0  0  0  0  0  0  0  0
  -30.9980  -17.1670   18.4720 S   0  0  0  0  0  0  0  0  0  0  0  0
  -29.2620  -15.4330   21.2120 H   0  0  0  0  0  0  0  0  0  0  0  0
  -25.3990  -13.9510   20.4690 C   0  0  0  0  0  0  0  0  0  0  0  0
  -24.3390  -13.1660   20.8380 C   0  0  0  0  0  0  0  0  0  0  0  0
  -24.8110  -11.8190   20.8020 C   0  0  0  0  0  0  0  0  0  0  0  0
  -26.4540  -13.0800   20.2340 N   0  0  0  0  0  0  0  0  0  0  0  0
  -26.1000  -11.7940   20.4880 N   0  0  0  0  0  0  0  0  0  0  0  0
  -24.0990  -10.5490   20.9920 C   0  0  0  0  0  0  0  0  0  0  0  0
  -24.5230   -9.6020   21.9480 C   0  0  0  0  0  3  0  0  0  0  0  0
  -23.8140   -8.3950   22.1270 C   0  0  0  0  0  3  0  0  0  0  0  0
  -22.6650   -8.1270   21.3450 C   0  0  0  0  0  0  0  0  0  0  0  0
  -22.2570   -9.0650   20.3780 C   0  0  0  0  0  3  0  0  0  0  0  0
  -22.9690  -10.2620   20.1980 C   0  0  0  0  0  3  0  0  0  0  0  0
  -21.9240   -6.9750   21.4340 O   0  0  0  0  0  0  0  0  0  0  0  0
  -21.8400   -6.2590   22.6020 C   0  0  0  0  0  0  0  0  0  0  0  0
  -21.3130   -6.8230   23.7850 C   0  0  0  0  0  3  0  0  0  0  0  0
  -21.1760   -6.0300   24.9410 C   0  0  0  0  0  3  0  0  0  0  0  0
  -21.5580   -4.6730   24.9150 C   0  0  0  0  0  0  0  0  0  0  0  0
  -22.0800   -4.1100   23.7370 C   0  0  0  0  0  3  0  0  0  0  0  0
  -22.2180   -4.9020   22.5830 C   0  0  0  0  0  0  0  0  0  0  0  0
  -22.6990   -4.3470   21.4440 F   0  0  0  0  0  0  0  0  0  0  0  0
  -21.4200   -3.9080   26.0240 F   0  0  0  0  0  0  0  0  0  0  0  0
  -22.9350  -13.6250   21.1170 C   0  0  0  0  0  0  0  0  0  0  0  0
  -22.2140  -12.9150   21.9770 N   0  0  0  0  0  0  0  0  0  0  0  0
  -22.4850  -14.6490   20.6040 O   0  0  0  0  0  0  0  0  0  0  0  0
  -22.5860  -12.0860   22.4180 H   0  0  0  0  0  0  0  0  0  0  0  0
  -21.2730  -13.2090   22.2020 H   0  0  0  0  0  0  0  0  0  0  0  0
  -25.5500  -15.3220   20.2970 N   0  0  0  0  0  0  0  0  0  0  0  0
  -24.7780  -15.9690   20.4250 H   0  0  0  0  0  0  0  0  0  0  0  0
  -26.3950  -15.7810   19.9760 H   0  0  0  0  0  0  0  0  0  0  0  0
  -30.4610  -19.4840   17.2140 N   0  0  0  0  0  0  0  0  0  0  0  0
  -29.8980  -20.2880   16.9530 H   0  0  0  0  0  0  0  0  0  0  0  0
  -31.0350  -19.1490   16.4430 H   0  0  0  0  0  0  0  0  0  0  0  0
  1  4  1  0
  4  5  1  0
  4  2  1  1
  4  3  1  0
  7  6  1  0
  7  8  1  0
  7  5  1  0
  9 11  1  0
  9  8  1  0
 10 21  2  0
 11 16  1  0
 12 20  1  0
 12 22  1  0
 13 19  1  0
 13 15  1  0
 14 20  1  0
 15 14  1  0
 16 15  2  0
 17 18  1  0
 17 11  2  0
 18 13  2  0
 19 12  1  0
 20 10  1  0
 22 24  2  0
 23 22  1  0
 25 23  1  0
 26 35  2  0
 26 31  1  0
 27 23  1  0
 27 31  1  0
 28 27  1  0
 29 30  1  0
 29 28  1  0
 30 26  1  0
 31 32  2  0
 32 33  1  0
 34 33  2  0
 35 34  1  0
 36 10  1  0
 36 37  1  0
 36 46  1  0
 37 40  1  0
 38 42  1  0
 38 37  1  0
 39 38  2  0
 42 41  1  0
 44 42  1  0
 44 45  1  0
 44 43  1  0
 46 49  1  1
 46 47  1  0
 48 46  1  0
 51 50  1  0
 51  1  1  0
 52 64  1  0
 53 58  1  0
 54 55  1  0
 54 53  1  0
 56 55  1  0
 56 70  1  0
 56 57  1  0
 58 52  1  0
 58 57  1  0
 59 52  2  0
 60 51  1  0
 60 63  1  0
 61 65  1  0
 61 60  2  0
 62 63  2  0
 62 64  1  0
 64 66  1  0
 65 62  1  0
 67 68  2  0
 68 87  1  0
 69 68  1  0
 69 72  1  0
 70 67  1  0
 70 71  1  0
 71 69  2  0
 72 73  1  0
 73 74  2  0
 75 78  1  0
 75 74  1  0
 76 75  2  0
 77 76  1  0
 77 72  2  0
 78 79  1  0
 79 80  1  0
 80 81  2  0
 82 81  1  0
 82 86  1  0
 83 82  2  0
 84 79  2  0
 84 83  1  0
 85 84  1  0
 87 88  1  0
 88 91  1  0
 88 90  1  0
 89 87  2  0
 92 93  1  0
 92 67  1  0
 94 92  1  0
 95 61  1  0
 96 95  1  0
 97 95  1  0
M  ISO  4   8 101   9 101  52 100  64 100
M  END
>  <TORSDO>  (36) 
F 22

>  <SCORE>  (36) 
-13.559

>  <name>  (36) 
36

>  <ligand_id>  (36) 
36

>  <original_smiles>  (36) 
[H]c1c([H])c([H])c2c(c1[H])C([H])([H])C([H])([H])C([H])([H])C2([H])N([H])C(=O)C1([H])N(C(=O)C([H])(N([H])C(=O)C([H])(N([H])C([H])([H])[H])C([H])([H])[H])C(C([H])([H])[H])(C([H])([H])[H])C([H])([H])[H])C([H])([H])c2c([H])c(OC([H])([H])C([H])(C([H])([H])[H])C([H])([H])C(C([H])([H])[H])(C([H])([H])[H])C([H])([H])C([H])(c3nc(N([H])C(=O)N4C([H])([H])C([H])([H])C([H])([H])C([H])(n5nc(-c6c([H])c([H])c(Oc7c([H])c([H])c(F)c([H])c7F)c([H])c6[H])c(C(=O)N([H])[H])c5N([H])[H])C4([H])[H])sc3N([H])[H])C([H])([H])[H])c([H])c([H])c2C1([H])[H]

>  <smiles>  (36) 
[H]c1c([H])c([H])c2c(c1[H])C([H])([H])C([H])([H])C([H])([H])C2([H])N([H])C(=O)C1([H])N(C(=O)C([H])(N([H])C(=O)C([H])(N([H])C([H])([H])[H])C([H])([H])[H])C(C([H])([H])[H])(C([H])([H])[H])C([H])([H])[H])C([H])([H])c2c([H])c(OC([H])([H])C([H])(C([H])([H])[H])C([H])([H])C(C([H])([H])[H])(C([H])([H])[H])C([H])([H])C([H])(c3nc(N([H])C(=O)N4C([H])([H])C([H])([H])C([H])([H])C([H])(n5nc(-c6c([H])c([H])c(Oc7c([H])c([H])c(F)c([H])c7F)c([H])c6[H])c(C(=O)N([H])[H])c5N([H])[H])C4([H])[H])sc3N([H])[H])C([H])([H])[H])c([H])c([H])c2C1([H])[H]

$$$$
37:0:0
     RDKit          3D

 96104  0  0  1  0  0  0  0  0999 V2000
  -28.6570  -21.5070   20.1650 C   0  0  0  0  0  2  0  0  0  0  0  0
  -28.3390  -22.9020   20.7990 C   0  0  0  0  0  3  0  0  0  0  0  0
  -28.8010  -22.9170   22.0530 F   0  0  0  0  0  0  0  0  0  0  0  0
  -28.1870  -24.2220   18.6230 C   0  0  0  0  0  1  0  0  0  0  0  0
  -30.2890  -24.3610   20.0040 C   0  0  0  0  0  1  0  0  0  0  0  0
  -28.7550  -24.2260   20.0580 C   0  0  2  0  0  0  0  0  0  0  0  0
  -28.1640  -25.4490   20.8360 C   0  0  0  0  0  2  0  0  0  0  0  0
  -28.3320  -26.7480   20.2130 O   0  0  0  0  0  0  0  0  0  0  0  0
  -24.5450  -31.9620   23.2820 C   0  0  0  0  0  0  0  0  0  0  0  0
  -27.1890  -27.5230   20.1920 C   0  0  0  0  0  0  0  0  0  0  0  0
  -23.3390  -30.5600   21.6430 C   0  0  0  0  0  3  0  0  0  0  0  0
  -24.7960  -29.0320   20.2080 C   0  0  0  0  0  0  0  0  0  0  0  0
  -25.8640  -30.9280   21.4340 C   0  0  0  0  0  2  0  0  0  0  0  0
  -25.9560  -29.5590   20.7890 C   0  0  0  0  0  0  0  0  0  0  0  0
  -27.1610  -28.8130   20.7730 C   0  0  0  0  0  3  0  0  0  0  0  0
  -26.0130  -27.0200   19.5920 C   0  0  0  0  0  3  0  0  0  0  0  0
  -24.8190  -27.7630   19.6060 C   0  0  0  0  0  3  0  0  0  0  0  0
  -23.5480  -29.8860   20.2610 C   0  0  0  0  0  2  0  0  0  0  0  0
  -24.6030  -31.1640   22.1790 N   0  0  0  0  0  0  0  0  0  0  0  0
  -23.4660  -32.2290   23.8280 O   0  0  0  0  0  0  0  0  0  0  0  0
  -22.6960  -29.5320   22.6030 C   0  0  0  0  0  0  0  0  0  0  0  0
  -21.3760  -29.3260   22.4620 N   0  0  0  0  0  0  0  0  0  0  0  0
  -23.3820  -28.9220   23.4270 O   0  0  0  0  0  0  0  0  0  0  0  0
  -20.8850  -29.8680   21.7670 H   0  0  0  0  0  0  0  0  0  0  0  0
  -18.0150  -28.0890   22.9470 C   0  0  0  0  0  0  0  0  0  0  0  0
  -20.5680  -28.3790   23.2310 C   0  0  0  0  0  3  0  0  0  0  0  0
  -20.6920  -26.9490   22.6570 C   0  0  0  0  0  2  0  0  0  0  0  0
  -19.5990  -26.6110   21.6370 C   0  0  0  0  0  2  0  0  0  0  0  0
  -18.2120  -26.7400   22.2740 C   0  0  0  0  0  2  0  0  0  0  0  0
  -19.1220  -28.8650   23.3810 C   0  0  0  0  0  0  0  0  0  0  0  0
  -18.8860  -30.1260   23.9690 C   0  0  0  0  0  3  0  0  0  0  0  0
  -17.5750  -30.6150   24.1240 C   0  0  0  0  0  3  0  0  0  0  0  0
  -16.4820  -29.8350   23.7060 C   0  0  0  0  0  3  0  0  0  0  0  0
  -16.7030  -28.5730   23.1260 C   0  0  0  0  0  3  0  0  0  0  0  0
  -25.8310  -32.5980   23.8970 C   0  0  0  0  0  3  0  0  0  0  0  0
  -25.5260  -34.0000   24.2100 N   0  0  0  0  0  0  0  0  0  0  0  0
  -25.8730  -35.0420   23.4430 C   0  0  0  0  0  0  0  0  0  0  0  0
  -26.5560  -34.9230   22.4210 O   0  0  0  0  0  0  0  0  0  0  0  0
  -24.9190  -34.1650   25.0000 H   0  0  0  0  0  0  0  0  0  0  0  0
  -24.1730  -36.8470   23.0240 C   0  0  0  0  0  1  0  0  0  0  0  0
  -25.3860  -36.4380   23.8750 C   0  0  0  0  0  3  0  0  0  0  0  0
  -27.5010  -37.3110   24.7650 C   0  0  0  0  0  1  0  0  0  0  0  0
  -26.4320  -37.4810   23.7850 N   0  0  0  0  0  0  0  0  0  0  0  0
  -26.0300  -38.4060   23.9100 H   0  0  0  0  0  0  0  0  0  0  0  0
  -26.3430  -31.8410   25.1840 C   0  0  1  0  0  0  0  0  0  0  0  0
  -25.2450  -31.6100   26.2490 C   0  0  0  0  0  1  0  0  0  0  0  0
  -26.9310  -30.4610   24.8060 C   0  0  0  0  0  1  0  0  0  0  0  0
  -27.4920  -32.6420   25.8420 C   0  0  0  0  0  1  0  0  0  0  0  0
  -29.9670  -20.9570   20.5330 N   0  0  0  0  0  0  0  0  0  0  0  0
  -30.6640  -21.6500   20.7930 H   0  0  0  0  0  0  0  0  0  0  0  0
  -30.7210  -14.6400   20.1750 C   0  0  0  0  0  0  0  0  0  0  0  0
  -30.4000  -12.4740   19.0350 C   0  0  0  0  0  2  0  0  0  0  0  0
  -29.3990  -12.6660   17.8780 C   0  0  0  0  0  2  0  0  0  0  0  0
  -27.9490  -12.5070   18.3750 C   0  0  0  0  0  2  0  0  0  0  0  0
  -27.6590  -13.3290   19.6590 C   0  0  0  0  0  3  0  0  0  0  0  0
  -28.7710  -13.1240   20.7140 C   0  0  0  0  0  2  0  0  0  0  0  0
  -30.0610  -13.4500   20.0830 N   0  0  0  0  0  0  0  0  0  0  0  0
  -31.8500  -14.7970   19.7000 O   0  0  0  0  0  0  0  0  0  0  0  0
  -31.5060  -19.0030   20.7200 C   0  0  0  0  0  0  0  0  0  0  0  0
  -30.2560  -19.5750   20.5670 C   0  0  0  0  0  0  0  0  0  0  0  0
  -30.2660  -17.0750   20.6030 C   0  0  0  0  0  0  0  0  0  0  0  0
  -31.4930  -17.5940   20.7350 N   0  0  0  0  0  0  0  0  0  0  0  0
  -29.9800  -15.6720   20.6360 N   0  0  0  0  0  0  0  0  0  0  0  0
  -29.0220  -18.3240   20.4500 S   0  0  0  0  0  0  0  0  0  0  0  0
  -29.0380  -15.4300   20.8900 H   0  0  0  0  0  0  0  0  0  0  0  0
  -25.2980  -13.9020   20.5040 C   0  0  0  0  0  0  0  0  0  0  0  0
  -24.2530  -13.1120   20.9030 C   0  0  0  0  0  0  0  0  0  0  0  0
  -24.7180  -11.7650   20.8140 C   0  0  0  0  0  0  0  0  0  0  0  0
  -26.3340  -13.0340   20.1990 N   0  0  0  0  0  0  0  0  0  0  0  0
  -25.9920  -11.7420   20.4430 N   0  0  0  0  0  0  0  0  0  0  0  0
  -24.0090  -10.4940   21.0040 C   0  0  0  0  0  0  0  0  0  0  0  0
  -24.4640   -9.5250   21.9250 C   0  0  0  0  0  3  0  0  0  0  0  0
  -23.7540   -8.3190   22.1040 C   0  0  0  0  0  3  0  0  0  0  0  0
  -22.5750   -8.0720   21.3620 C   0  0  0  0  0  0  0  0  0  0  0  0
  -22.1390   -9.0300   20.4290 C   0  0  0  0  0  3  0  0  0  0  0  0
  -22.8500  -10.2280   20.2490 C   0  0  0  0  0  3  0  0  0  0  0  0
  -21.8360   -6.9170   21.4500 O   0  0  0  0  0  0  0  0  0  0  0  0
  -21.7700   -6.1910   22.6110 C   0  0  0  0  0  0  0  0  0  0  0  0
  -21.2680   -6.7460   23.8080 C   0  0  0  0  0  3  0  0  0  0  0  0
  -21.1530   -5.9460   24.9620 C   0  0  0  0  0  3  0  0  0  0  0  0
  -21.5290   -4.5900   24.9190 C   0  0  0  0  0  0  0  0  0  0  0  0
  -22.0240   -4.0340   23.7260 C   0  0  0  0  0  3  0  0  0  0  0  0
  -22.1410   -4.8310   22.5760 C   0  0  0  0  0  0  0  0  0  0  0  0
  -22.5980   -4.2860   21.4220 F   0  0  0  0  0  0  0  0  0  0  0  0
  -21.4100   -3.8170   26.0250 F   0  0  0  0  0  0  0  0  0  0  0  0
  -22.8680  -13.5730   21.2560 C   0  0  0  0  0  0  0  0  0  0  0  0
  -22.1860  -12.8490   22.1360 N   0  0  0  0  0  0  0  0  0  0  0  0
  -22.4010  -14.6100   20.7860 O   0  0  0  0  0  0  0  0  0  0  0  0
  -22.5790  -12.0110   22.5360 H   0  0  0  0  0  0  0  0  0  0  0  0
  -21.2580  -13.1390   22.4110 H   0  0  0  0  0  0  0  0  0  0  0  0
  -25.4480  -15.2780   20.3550 N   0  0  0  0  0  0  0  0  0  0  0  0
  -24.6840  -15.9240   20.5180 H   0  0  0  0  0  0  0  0  0  0  0  0
  -26.2650  -15.7270   19.9610 H   0  0  0  0  0  0  0  0  0  0  0  0
  -33.8080  -19.3500   19.7390 C   0  0  0  0  0  1  0  0  0  0  0  0
  -33.4470  -19.5500   22.2470 C   0  0  0  0  0  1  0  0  0  0  0  0
  -32.8240  -19.7310   20.8550 C   0  0  0  0  0  3  0  0  0  0  0  0
  1 49  1  0
  1  2  1  0
  2  3  1  0
  6  4  1  6
  5  6  1  0
  6  2  1  0
  6  7  1  0
  8  7  1  0
  9 20  2  0
 10  8  1  0
 10 15  1  0
 11 19  1  0
 11 21  1  0
 12 18  1  0
 12 14  1  0
 13 19  1  0
 14 13  1  0
 15 14  2  0
 16 17  1  0
 16 10  2  0
 17 12  2  0
 18 11  1  0
 19  9  1  0
 21 23  2  0
 22 21  1  0
 24 22  1  0
 25 34  2  0
 25 30  1  0
 26 22  1  0
 26 30  1  0
 27 26  1  0
 28 29  1  0
 28 27  1  0
 29 25  1  0
 30 31  2  0
 31 32  1  0
 33 32  2  0
 34 33  1  0
 35  9  1  0
 35 36  1  0
 35 45  1  0
 36 39  1  0
 37 41  1  0
 37 36  1  0
 38 37  2  0
 41 40  1  0
 43 41  1  0
 43 44  1  0
 43 42  1  0
 45 48  1  1
 45 46  1  0
 47 45  1  0
 49 60  1  0
 49 50  1  0
 51 63  1  0
 52 57  1  0
 53 54  1  0
 53 52  1  0
 55 54  1  0
 55 69  1  0
 55 56  1  0
 57 51  1  0
 57 56  1  0
 58 51  2  0
 59 62  1  0
 59 96  1  0
 60 59  2  0
 61 63  1  0
 61 62  2  0
 63 65  1  0
 64 60  1  0
 64 61  1  0
 66 67  2  0
 67 86  1  0
 68 67  1  0
 68 71  1  0
 69 70  1  0
 69 66  1  0
 70 68  2  0
 71 72  1  0
 72 73  2  0
 74 77  1  0
 74 73  1  0
 75 74  2  0
 76 75  1  0
 76 71  2  0
 77 78  1  0
 78 79  1  0
 79 80  2  0
 81 80  1  0
 81 85  1  0
 82 81  2  0
 83 78  2  0
 83 82  1  0
 84 83  1  0
 86 87  1  0
 87 90  1  0
 87 89  1  0
 88 86  2  0
 91 66  1  0
 91 92  1  0
 93 91  1  0
 94 96  1  0
 96 95  1  0
M  ISO  4   7 101   8 101  51 100  63 100
M  END
>  <TORSDO>  (37) 
F 21

>  <SCORE>  (37) 
-13.670

>  <name>  (37) 
37

>  <ligand_id>  (37) 
37

>  <original_smiles>  (37) 
[H]c1c([H])c([H])c2c(c1[H])C([H])([H])C([H])([H])C([H])([H])C2([H])N([H])C(=O)C1([H])N(C(=O)C([H])(N([H])C(=O)C([H])(N([H])C([H])([H])[H])C([H])([H])[H])C(C([H])([H])[H])(C([H])([H])[H])C([H])([H])[H])C([H])([H])c2c([H])c(OC([H])([H])C(C([H])([H])[H])(C([H])([H])[H])C([H])(F)C([H])([H])N([H])c3sc(N([H])C(=O)N4C([H])([H])C([H])([H])C([H])([H])C([H])(n5nc(-c6c([H])c([H])c(Oc7c([H])c([H])c(F)c([H])c7F)c([H])c6[H])c(C(=O)N([H])[H])c5N([H])[H])C4([H])[H])nc3C([H])(C([H])([H])[H])C([H])([H])[H])c([H])c([H])c2C1([H])[H]

>  <smiles>  (37) 
[H]c1c([H])c([H])c2c(c1[H])C([H])([H])C([H])([H])C([H])([H])C2([H])N([H])C(=O)C1([H])N(C(=O)C([H])(N([H])C(=O)C([H])(N([H])C([H])([H])[H])C([H])([H])[H])C(C([H])([H])[H])(C([H])([H])[H])C([H])([H])[H])C([H])([H])c2c([H])c(OC([H])([H])C(C([H])([H])[H])(C([H])([H])[H])C([H])(F)C([H])([H])N([H])c3sc(N([H])C(=O)N4C([H])([H])C([H])([H])C([H])([H])C([H])(n5nc(-c6c([H])c([H])c(Oc7c([H])c([H])c(F)c([H])c7F)c([H])c6[H])c(C(=O)N([H])[H])c5N([H])[H])C4([H])[H])nc3C([H])(C([H])([H])[H])C([H])([H])[H])c([H])c([H])c2C1([H])[H]

$$$$
38:0:0
     RDKit          3D

 93101  0  0  1  0  0  0  0  0999 V2000
  -29.1120  -21.5670   20.6370 C   0  0  0  0  0  0  0  0  0  0  0  0
  -29.7480  -20.7160   21.4690 N   0  0  0  0  0  0  0  0  0  0  0  0
  -28.8160  -21.2940   19.4710 O   0  0  0  0  0  0  0  0  0  0  0  0
  -30.0120  -21.1630   22.3380 H   0  0  0  0  0  0  0  0  0  0  0  0
  -30.6530  -14.5620   20.2560 C   0  0  0  0  0  0  0  0  0  0  0  0
  -30.3530  -12.4220   19.0440 C   0  0  0  0  0  2  0  0  0  0  0  0
  -29.3570  -12.6400   17.8840 C   0  0  0  0  0  2  0  0  0  0  0  0
  -27.8990  -12.4830   18.3660 C   0  0  0  0  0  2  0  0  0  0  0  0
  -27.6090  -13.2870   19.6610 C   0  0  0  0  0  3  0  0  0  0  0  0
  -28.7050  -13.0260   20.7190 C   0  0  0  0  0  2  0  0  0  0  0  0
  -30.0050  -13.3700   20.1140 N   0  0  0  0  0  0  0  0  0  0  0  0
  -31.7590  -14.7840   19.7510 O   0  0  0  0  0  0  0  0  0  0  0  0
  -30.9150  -18.7140   22.2130 C   0  0  0  0  0  0  0  0  0  0  0  0
  -30.0450  -19.3800   21.3710 C   0  0  0  0  0  0  0  0  0  0  0  0
  -30.1960  -16.9010   21.0340 C   0  0  0  0  0  0  0  0  0  0  0  0
  -31.7120  -19.3290   23.3250 C   0  0  0  0  0  1  0  0  0  0  0  0
  -30.9950  -17.3250   22.0150 N   0  0  0  0  0  0  0  0  0  0  0  0
  -29.9130  -15.5170   20.8580 N   0  0  0  0  0  0  0  0  0  0  0  0
  -29.3020  -18.2220   20.2620 S   0  0  0  0  0  0  0  0  0  0  0  0
  -28.9860  -15.2260   21.1220 H   0  0  0  0  0  0  0  0  0  0  0  0
  -25.2370  -13.8840   20.4660 C   0  0  0  0  0  0  0  0  0  0  0  0
  -24.1820  -13.1060   20.8630 C   0  0  0  0  0  0  0  0  0  0  0  0
  -24.6430  -11.7560   20.7950 C   0  0  0  0  0  0  0  0  0  0  0  0
  -26.2730  -13.0060   20.1830 N   0  0  0  0  0  0  0  0  0  0  0  0
  -25.9200  -11.7210   20.4370 N   0  0  0  0  0  0  0  0  0  0  0  0
  -23.9270  -10.4900   20.9940 C   0  0  0  0  0  0  0  0  0  0  0  0
  -24.3820   -9.5200   21.9130 C   0  0  0  0  0  3  0  0  0  0  0  0
  -23.6650   -8.3190   22.0990 C   0  0  0  0  0  3  0  0  0  0  0  0
  -22.4790   -8.0790   21.3660 C   0  0  0  0  0  0  0  0  0  0  0  0
  -22.0440   -9.0390   20.4350 C   0  0  0  0  0  3  0  0  0  0  0  0
  -22.7620  -10.2320   20.2470 C   0  0  0  0  0  3  0  0  0  0  0  0
  -21.7310   -6.9300   21.4630 O   0  0  0  0  0  0  0  0  0  0  0  0
  -21.6900   -6.1950   22.6200 C   0  0  0  0  0  0  0  0  0  0  0  0
  -21.2490   -6.7500   23.8410 C   0  0  0  0  0  3  0  0  0  0  0  0
  -21.1550   -5.9400   24.9900 C   0  0  0  0  0  3  0  0  0  0  0  0
  -21.4910   -4.5750   24.9180 C   0  0  0  0  0  0  0  0  0  0  0  0
  -21.9260   -4.0190   23.7020 C   0  0  0  0  0  3  0  0  0  0  0  0
  -22.0210   -4.8260   22.5560 C   0  0  0  0  0  0  0  0  0  0  0  0
  -22.4200   -4.2820   21.3800 F   0  0  0  0  0  0  0  0  0  0  0  0
  -21.3950   -3.7930   26.0200 F   0  0  0  0  0  0  0  0  0  0  0  0
  -22.7950  -13.5800   21.1930 C   0  0  0  0  0  0  0  0  0  0  0  0
  -22.0960  -12.8680   22.0690 N   0  0  0  0  0  0  0  0  0  0  0  0
  -22.3420  -14.6150   20.7090 O   0  0  0  0  0  0  0  0  0  0  0  0
  -22.4750  -12.0320   22.4870 H   0  0  0  0  0  0  0  0  0  0  0  0
  -21.1660  -13.1670   22.3300 H   0  0  0  0  0  0  0  0  0  0  0  0
  -25.3950  -15.2580   20.3090 N   0  0  0  0  0  0  0  0  0  0  0  0
  -24.6370  -15.9080   20.4870 H   0  0  0  0  0  0  0  0  0  0  0  0
  -26.2310  -15.7110   19.9650 H   0  0  0  0  0  0  0  0  0  0  0  0
  -28.7520  -22.9550   21.2430 C   0  0  0  0  0  3  0  0  0  0  0  0
  -29.4740  -23.1410   22.3550 F   0  0  0  0  0  0  0  0  0  0  0  0
  -28.8970  -24.2140   20.3340 C   0  0  0  0  0  2  0  0  0  0  0  0
  -28.2680  -25.4830   20.9760 C   0  0  0  0  0  2  0  0  0  0  0  0
  -28.4290  -26.7090   20.2270 O   0  0  0  0  0  0  0  0  0  0  0  0
  -24.6110  -31.9260   23.2590 C   0  0  0  0  0  0  0  0  0  0  0  0
  -27.2930  -27.4900   20.1950 C   0  0  0  0  0  0  0  0  0  0  0  0
  -23.4250  -30.5220   21.6020 C   0  0  0  0  0  3  0  0  0  0  0  0
  -24.8980  -28.9970   20.1810 C   0  0  0  0  0  0  0  0  0  0  0  0
  -25.9500  -30.8900   21.4300 C   0  0  0  0  0  2  0  0  0  0  0  0
  -26.0490  -29.5200   20.7860 C   0  0  0  0  0  0  0  0  0  0  0  0
  -27.2540  -28.7750   20.7890 C   0  0  0  0  0  3  0  0  0  0  0  0
  -26.1310  -26.9910   19.5720 C   0  0  0  0  0  3  0  0  0  0  0  0
  -24.9360  -27.7320   19.5680 C   0  0  0  0  0  3  0  0  0  0  0  0
  -23.6500  -29.8490   20.2190 C   0  0  0  0  0  2  0  0  0  0  0  0
  -24.6790  -31.1280   22.1550 N   0  0  0  0  0  0  0  0  0  0  0  0
  -23.5250  -32.1920   23.7900 O   0  0  0  0  0  0  0  0  0  0  0  0
  -22.7690  -29.4970   22.5540 C   0  0  0  0  0  0  0  0  0  0  0  0
  -21.4440  -29.3200   22.4250 N   0  0  0  0  0  0  0  0  0  0  0  0
  -23.4480  -28.8650   23.3670 O   0  0  0  0  0  0  0  0  0  0  0  0
  -20.9570  -29.8870   21.7450 H   0  0  0  0  0  0  0  0  0  0  0  0
  -18.0680  -28.1290   22.9060 C   0  0  0  0  0  0  0  0  0  0  0  0
  -20.6250  -28.3750   23.1840 C   0  0  0  0  0  3  0  0  0  0  0  0
  -20.7250  -26.9500   22.5890 C   0  0  0  0  0  2  0  0  0  0  0  0
  -19.6210  -26.6370   21.5750 C   0  0  0  0  0  2  0  0  0  0  0  0
  -18.2390  -26.7850   22.2160 C   0  0  0  0  0  2  0  0  0  0  0  0
  -19.1890  -28.8820   23.3470 C   0  0  0  0  0  0  0  0  0  0  0  0
  -18.9740  -30.1400   23.9480 C   0  0  0  0  0  3  0  0  0  0  0  0
  -17.6710  -30.6480   24.1160 C   0  0  0  0  0  3  0  0  0  0  0  0
  -16.5640  -29.8920   23.6910 C   0  0  0  0  0  3  0  0  0  0  0  0
  -16.7640  -28.6350   23.0910 C   0  0  0  0  0  3  0  0  0  0  0  0
  -25.8900  -32.5600   23.8910 C   0  0  0  0  0  3  0  0  0  0  0  0
  -26.3950  -31.7900   25.1730 C   0  0  1  0  0  0  0  0  0  0  0  0
  -25.2910  -31.5510   26.2280 C   0  0  0  0  0  1  0  0  0  0  0  0
  -26.9880  -30.4150   24.7850 C   0  0  0  0  0  1  0  0  0  0  0  0
  -27.5360  -32.5890   25.8470 C   0  0  0  0  0  1  0  0  0  0  0  0
  -25.5760  -33.9580   24.2140 N   0  0  0  0  0  0  0  0  0  0  0  0
  -25.9150  -35.0090   23.4550 C   0  0  0  0  0  0  0  0  0  0  0  0
  -26.5990  -34.9040   22.4330 O   0  0  0  0  0  0  0  0  0  0  0  0
  -24.9740  -34.1120   25.0090 H   0  0  0  0  0  0  0  0  0  0  0  0
  -24.1940  -36.8000   23.0640 C   0  0  0  0  0  1  0  0  0  0  0  0
  -25.4190  -36.3970   23.9000 C   0  0  0  0  0  3  0  0  0  0  0  0
  -27.5380  -37.2830   24.7710 C   0  0  0  0  0  1  0  0  0  0  0  0
  -26.4550  -37.4500   23.8050 N   0  0  0  0  0  0  0  0  0  0  0  0
  -26.0460  -38.3700   23.9450 H   0  0  0  0  0  0  0  0  0  0  0  0
  1 49  1  0
  1  2  1  0
  2  4  1  0
  3  1  2  0
  5 18  1  0
  6 11  1  0
  7  8  1  0
  7  6  1  0
  9  8  1  0
  9 24  1  0
  9 10  1  0
 11  5  1  0
 11 10  1  0
 12  5  2  0
 13 16  1  0
 14  2  1  0
 14 13  2  0
 15 17  2  0
 17 13  1  0
 18 15  1  0
 18 20  1  0
 19 15  1  0
 19 14  1  0
 21 22  2  0
 22 41  1  0
 23 22  1  0
 23 26  1  0
 24 25  1  0
 24 21  1  0
 25 23  2  0
 26 27  1  0
 27 28  2  0
 29 32  1  0
 29 28  1  0
 30 29  2  0
 31 30  1  0
 31 26  2  0
 32 33  1  0
 33 34  1  0
 34 35  2  0
 36 35  1  0
 36 40  1  0
 37 36  2  0
 38 33  2  0
 38 37  1  0
 39 38  1  0
 41 42  1  0
 42 45  1  0
 42 44  1  0
 43 41  2  0
 46 21  1  0
 46 47  1  0
 48 46  1  0
 49 50  1  0
 51 52  1  0
 51 49  1  0
 53 52  1  0
 54 65  2  0
 55 53  1  0
 55 60  1  0
 56 64  1  0
 56 66  1  0
 57 63  1  0
 57 59  1  0
 58 64  1  0
 59 60  2  0
 59 58  1  0
 61 55  2  0
 62 61  1  0
 62 57  2  0
 63 56  1  0
 64 54  1  0
 66 68  2  0
 67 66  1  0
 69 67  1  0
 70 79  2  0
 70 75  1  0
 71 67  1  0
 71 75  1  0
 72 71  1  0
 73 74  1  0
 73 72  1  0
 74 70  1  0
 75 76  2  0
 76 77  1  0
 78 77  2  0
 79 78  1  0
 80 54  1  0
 80 85  1  0
 80 81  1  0
 81 84  1  1
 81 82  1  0
 83 81  1  0
 85 88  1  0
 86 90  1  0
 86 85  1  0
 87 86  2  0
 90 89  1  0
 92 90  1  0
 92 93  1  0
 92 91  1  0
M  ISO  4   5 100  18 100  52 101  53 101
M  END
>  <TORSDO>  (38) 
F 19

>  <SCORE>  (38) 
-14.332

>  <name>  (38) 
38

>  <ligand_id>  (38) 
38

>  <original_smiles>  (38) 
[H]c1c([H])c([H])c2c(c1[H])C([H])([H])C([H])([H])C([H])([H])C2([H])N([H])C(=O)C1([H])N(C(=O)C([H])(N([H])C(=O)C([H])(N([H])C([H])([H])[H])C([H])([H])[H])C(C([H])([H])[H])(C([H])([H])[H])C([H])([H])[H])C([H])([H])c2c([H])c(OC([H])([H])C([H])([H])C([H])(F)C(=O)N([H])c3sc(N([H])C(=O)N4C([H])([H])C([H])([H])C([H])([H])C([H])(n5nc(-c6c([H])c([H])c(Oc7c([H])c([H])c(F)c([H])c7F)c([H])c6[H])c(C(=O)N([H])[H])c5N([H])[H])C4([H])[H])nc3C([H])([H])[H])c([H])c([H])c2C1([H])[H]

>  <smiles>  (38) 
[H]c1c([H])c([H])c2c(c1[H])C([H])([H])C([H])([H])C([H])([H])C2([H])N([H])C(=O)C1([H])N(C(=O)C([H])(N([H])C(=O)C([H])(N([H])C([H])([H])[H])C([H])([H])[H])C(C([H])([H])[H])(C([H])([H])[H])C([H])([H])[H])C([H])([H])c2c([H])c(OC([H])([H])C([H])([H])C([H])(F)C(=O)N([H])c3sc(N([H])C(=O)N4C([H])([H])C([H])([H])C([H])([H])C([H])(n5nc(-c6c([H])c([H])c(Oc7c([H])c([H])c(F)c([H])c7F)c([H])c6[H])c(C(=O)N([H])[H])c5N([H])[H])C4([H])[H])nc3C([H])([H])[H])c([H])c([H])c2C1([H])[H]

$$$$
39:0:0
     RDKit          3D

 94102  0  0  1  0  0  0  0  0999 V2000
  -29.1030  -22.2820   19.7710 C   0  0  0  0  0  3  0  0  0  0  0  0
  -30.3600  -22.5070   18.9080 C   0  0  0  0  0  0  0  0  0  0  0  0
  -30.1660  -23.0930   17.5150 C   0  0  0  0  0  1  0  0  0  0  0  0
  -31.5000  -22.2220   19.2870 O   0  0  0  0  0  0  0  0  0  0  0  0
  -28.8040  -23.6850   20.5490 C   0  0  0  0  0  0  0  0  0  0  0  0
  -29.0970  -23.8160   21.7430 O   0  0  0  0  0  0  0  0  0  0  0  0
  -28.0800  -24.9090   19.7960 C   0  0  0  0  0  2  0  0  0  0  0  0
  -28.2630  -26.3410   20.2580 O   0  0  0  0  0  0  0  0  0  0  0  0
  -24.6000  -31.8780   23.2380 C   0  0  0  0  0  0  0  0  0  0  0  0
  -27.1810  -27.2610   20.1680 C   0  0  0  0  0  0  0  0  0  0  0  0
  -23.3910  -30.4840   21.6020 C   0  0  0  0  0  3  0  0  0  0  0  0
  -24.8340  -28.9340   20.1620 C   0  0  0  0  0  0  0  0  0  0  0  0
  -25.9370  -30.7770   21.4200 C   0  0  0  0  0  2  0  0  0  0  0  0
  -26.0090  -29.3970   20.7680 C   0  0  0  0  0  0  0  0  0  0  0  0
  -27.1810  -28.5690   20.7660 C   0  0  0  0  0  3  0  0  0  0  0  0
  -25.9870  -26.8910   19.5030 C   0  0  0  0  0  3  0  0  0  0  0  0
  -24.8300  -27.6900   19.5190 C   0  0  0  0  0  3  0  0  0  0  0  0
  -23.6010  -29.8150   20.2190 C   0  0  0  0  0  2  0  0  0  0  0  0
  -24.6620  -31.0660   22.1420 N   0  0  0  0  0  0  0  0  0  0  0  0
  -23.5180  -32.1590   23.7750 O   0  0  0  0  0  0  0  0  0  0  0  0
  -22.7270  -29.4670   22.5630 C   0  0  0  0  0  0  0  0  0  0  0  0
  -21.4010  -29.2880   22.4380 N   0  0  0  0  0  0  0  0  0  0  0  0
  -23.4060  -28.8430   23.3820 O   0  0  0  0  0  0  0  0  0  0  0  0
  -20.9120  -29.8440   21.7510 H   0  0  0  0  0  0  0  0  0  0  0  0
  -18.0280  -28.0700   22.9310 C   0  0  0  0  0  0  0  0  0  0  0  0
  -20.5840  -28.3500   23.2100 C   0  0  0  0  0  3  0  0  0  0  0  0
  -20.6970  -26.9160   22.6440 C   0  0  0  0  0  2  0  0  0  0  0  0
  -19.6010  -26.5790   21.6270 C   0  0  0  0  0  2  0  0  0  0  0  0
  -18.2170  -26.7180   22.2640 C   0  0  0  0  0  2  0  0  0  0  0  0
  -19.1400  -28.8430   23.3610 C   0  0  0  0  0  0  0  0  0  0  0  0
  -18.9100  -30.1080   23.9450 C   0  0  0  0  0  3  0  0  0  0  0  0
  -17.6010  -30.6000   24.1040 C   0  0  0  0  0  3  0  0  0  0  0  0
  -16.5040  -29.8250   23.6900 C   0  0  0  0  0  3  0  0  0  0  0  0
  -16.7180  -28.5630   23.1090 C   0  0  0  0  0  3  0  0  0  0  0  0
  -25.8840  -32.5110   23.8570 C   0  0  0  0  0  3  0  0  0  0  0  0
  -26.3990  -31.7420   25.1350 C   0  0  1  0  0  0  0  0  0  0  0  0
  -25.3070  -31.5140   26.2070 C   0  0  0  0  0  1  0  0  0  0  0  0
  -26.9770  -30.3600   24.7520 C   0  0  0  0  0  1  0  0  0  0  0  0
  -27.5540  -32.5360   25.7920 C   0  0  0  0  0  1  0  0  0  0  0  0
  -25.5760  -33.9100   24.1850 N   0  0  0  0  0  0  0  0  0  0  0  0
  -25.9090  -34.9640   23.4280 C   0  0  0  0  0  0  0  0  0  0  0  0
  -26.5770  -34.8590   22.3960 O   0  0  0  0  0  0  0  0  0  0  0  0
  -24.9820  -34.0650   24.9870 H   0  0  0  0  0  0  0  0  0  0  0  0
  -24.1830  -36.7610   23.0790 C   0  0  0  0  0  1  0  0  0  0  0  0
  -25.4260  -36.3530   23.8870 C   0  0  0  0  0  3  0  0  0  0  0  0
  -27.5660  -37.2330   24.7100 C   0  0  0  0  0  1  0  0  0  0  0  0
  -26.4610  -37.4040   23.7710 N   0  0  0  0  0  0  0  0  0  0  0  0
  -26.0580  -38.3260   23.9200 H   0  0  0  0  0  0  0  0  0  0  0  0
  -29.2230  -20.9610   20.5410 N   0  0  0  0  0  0  0  0  0  0  0  0
  -29.4260  -21.0540   21.5290 H   0  0  0  0  0  0  0  0  0  0  0  0
  -30.5730  -14.7760   20.4510 C   0  0  0  0  0  0  0  0  0  0  0  0
  -30.3980  -12.4840   19.4760 C   0  0  0  0  0  2  0  0  0  0  0  0
  -29.4910  -12.5590   18.2260 C   0  0  0  0  0  2  0  0  0  0  0  0
  -28.0110  -12.3910   18.6190 C   0  0  0  0  0  2  0  0  0  0  0  0
  -27.6110  -13.2770   19.8290 C   0  0  0  0  0  3  0  0  0  0  0  0
  -28.6430  -13.1920   20.9760 C   0  0  0  0  0  2  0  0  0  0  0  0
  -29.9570  -13.5410   20.4190 N   0  0  0  0  0  0  0  0  0  0  0  0
  -31.7460  -14.8750   20.0730 O   0  0  0  0  0  0  0  0  0  0  0  0
  -29.3020  -18.2640   17.9240 C   0  0  0  0  0  3  0  0  0  0  0  0
  -29.5830  -17.1260   18.6940 C   0  0  0  0  0  3  0  0  0  0  0  0
  -29.1610  -19.5160   18.5450 C   0  0  0  0  0  3  0  0  0  0  0  0
  -29.7170  -17.2110   20.0930 C   0  0  0  0  0  0  0  0  0  0  0  0
  -29.3310  -19.6440   19.9370 C   0  0  0  0  0  0  0  0  0  0  0  0
  -29.5780  -18.4840   20.6810 N   0  0  0  0  0  0  0  0  0  0  0  0
  -29.8290  -15.9040   20.7880 N   0  0  0  0  0  0  0  0  0  0  0  0
  -29.0310  -15.6940   21.3680 H   0  0  0  0  0  0  0  0  0  0  0  0
  -25.2030  -13.8630   20.4920 C   0  0  0  0  0  0  0  0  0  0  0  0
  -24.1330  -13.0880   20.8490 C   0  0  0  0  0  0  0  0  0  0  0  0
  -24.6040  -11.7390   20.8480 C   0  0  0  0  0  0  0  0  0  0  0  0
  -26.2570  -12.9860   20.2910 N   0  0  0  0  0  0  0  0  0  0  0  0
  -25.9010  -11.7050   20.5690 N   0  0  0  0  0  0  0  0  0  0  0  0
  -23.8790  -10.4760   21.0400 C   0  0  0  0  0  0  0  0  0  0  0  0
  -24.3070   -9.5130   21.9820 C   0  0  0  0  0  3  0  0  0  0  0  0
  -23.5810   -8.3160   22.1620 C   0  0  0  0  0  3  0  0  0  0  0  0
  -22.4130   -8.0720   21.4000 C   0  0  0  0  0  0  0  0  0  0  0  0
  -22.0050   -9.0240   20.4480 C   0  0  0  0  0  3  0  0  0  0  0  0
  -22.7320  -10.2120   20.2660 C   0  0  0  0  0  3  0  0  0  0  0  0
  -21.6590   -6.9270   21.4890 O   0  0  0  0  0  0  0  0  0  0  0  0
  -21.6170   -6.1810   22.6390 C   0  0  0  0  0  0  0  0  0  0  0  0
  -21.2070   -6.7340   23.8730 C   0  0  0  0  0  3  0  0  0  0  0  0
  -21.1110   -5.9140   25.0150 C   0  0  0  0  0  3  0  0  0  0  0  0
  -21.4150   -4.5430   24.9250 C   0  0  0  0  0  0  0  0  0  0  0  0
  -21.8180   -3.9890   23.6970 C   0  0  0  0  0  3  0  0  0  0  0  0
  -21.9150   -4.8060   22.5570 C   0  0  0  0  0  0  0  0  0  0  0  0
  -22.2830   -4.2620   21.3720 F   0  0  0  0  0  0  0  0  0  0  0  0
  -21.3150   -3.7530   26.0200 F   0  0  0  0  0  0  0  0  0  0  0  0
  -22.7280  -13.5630   21.0820 C   0  0  0  0  0  0  0  0  0  0  0  0
  -21.9820  -12.8770   21.9410 N   0  0  0  0  0  0  0  0  0  0  0  0
  -22.2980  -14.5780   20.5350 O   0  0  0  0  0  0  0  0  0  0  0  0
  -22.3430  -12.0580   22.4070 H   0  0  0  0  0  0  0  0  0  0  0  0
  -21.0380  -13.1780   22.1370 H   0  0  0  0  0  0  0  0  0  0  0  0
  -25.3630  -15.2320   20.2970 N   0  0  0  0  0  0  0  0  0  0  0  0
  -24.5860  -15.8790   20.3780 H   0  0  0  0  0  0  0  0  0  0  0  0
  -26.2100  -15.6720   19.9630 H   0  0  0  0  0  0  0  0  0  0  0  0
  1  2  1  0
  1 49  1  0
  1  5  1  0
  2  4  2  0
  3  2  1  0
  5  6  2  0
  7  8  1  0
  7  5  1  0
  9 20  2  0
 10  8  1  0
 10 15  1  0
 11 19  1  0
 11 21  1  0
 12 18  1  0
 12 14  1  0
 13 19  1  0
 14 13  1  0
 15 14  2  0
 16 17  1  0
 16 10  2  0
 17 12  2  0
 18 11  1  0
 19  9  1  0
 21 23  2  0
 22 21  1  0
 24 22  1  0
 25 34  2  0
 25 30  1  0
 26 22  1  0
 26 30  1  0
 27 26  1  0
 28 29  1  0
 28 27  1  0
 29 25  1  0
 30 31  2  0
 31 32  1  0
 33 32  2  0
 34 33  1  0
 35  9  1  0
 35 40  1  0
 35 36  1  0
 36 39  1  1
 36 37  1  0
 38 36  1  0
 40 43  1  0
 41 45  1  0
 41 40  1  0
 42 41  2  0
 45 44  1  0
 47 45  1  0
 47 48  1  0
 47 46  1  0
 49 50  1  0
 51 65  1  0
 52 57  1  0
 53 54  1  0
 53 52  1  0
 55 54  1  0
 55 70  1  0
 55 56  1  0
 57 51  1  0
 57 56  1  0
 58 51  2  0
 59 61  2  0
 59 60  1  0
 60 62  2  0
 61 63  1  0
 62 64  1  0
 62 65  1  0
 63 49  1  0
 63 64  2  0
 65 66  1  0
 67 68  2  0
 68 87  1  0
 69 68  1  0
 69 72  1  0
 70 67  1  0
 70 71  1  0
 71 69  2  0
 72 73  1  0
 73 74  2  0
 75 78  1  0
 75 74  1  0
 76 75  2  0
 77 76  1  0
 77 72  2  0
 78 79  1  0
 79 80  1  0
 80 81  2  0
 82 81  1  0
 82 86  1  0
 83 82  2  0
 84 79  2  0
 84 83  1  0
 85 84  1  0
 87 88  1  0
 88 91  1  0
 88 90  1  0
 89 87  2  0
 92 93  1  0
 92 67  1  0
 94 92  1  0
M  ISO  4   7 101   8 101  51 100  65 100
M  END
>  <TORSDO>  (39) 
F 20

>  <SCORE>  (39) 
-13.864

>  <name>  (39) 
39

>  <ligand_id>  (39) 
39

>  <original_smiles>  (39) 
[H]c1c(N([H])C(=O)N2C([H])([H])C([H])([H])C([H])([H])C([H])(n3nc(-c4c([H])c([H])c(Oc5c([H])c([H])c(F)c([H])c5F)c([H])c4[H])c(C(=O)N([H])[H])c3N([H])[H])C2([H])[H])nc(N([H])C([H])(C(=O)C([H])([H])[H])C(=O)C([H])([H])Oc2c([H])c([H])c3c(c2[H])C([H])([H])N(C(=O)C([H])(N([H])C(=O)C([H])(N([H])C([H])([H])[H])C([H])([H])[H])C(C([H])([H])[H])(C([H])([H])[H])C([H])([H])[H])C([H])(C(=O)N([H])C2([H])c4c([H])c([H])c([H])c([H])c4C([H])([H])C([H])([H])C2([H])[H])C3([H])[H])c([H])c1[H]

>  <smiles>  (39) 
[H]c1c(N([H])C(=O)N2C([H])([H])C([H])([H])C([H])([H])C([H])(n3nc(-c4c([H])c([H])c(Oc5c([H])c([H])c(F)c([H])c5F)c([H])c4[H])c(C(=O)N([H])[H])c3N([H])[H])C2([H])[H])nc(N([H])C([H])(C(=O)C([H])([H])[H])C(=O)C([H])([H])Oc2c([H])c([H])c3c(c2[H])C([H])([H])N(C(=O)C([H])(N([H])C(=O)C([H])(N([H])C([H])([H])[H])C([H])([H])[H])C(C([H])([H])[H])(C([H])([H])[H])C([H])([H])[H])C([H])(C(=O)N([H])C2([H])c4c([H])c([H])c([H])c([H])c4C([H])([H])C([H])([H])C2([H])[H])C3([H])[H])c([H])c1[H]

$$$$
40:0:0
     RDKit          3D

 95103  0  0  1  0  0  0  0  0999 V2000
  -29.7600  -23.4460   21.5460 C   0  0  0  0  0  3  0  0  0  0  0  0
  -27.7220  -24.2080   22.9730 C   0  0  0  0  0  1  0  0  0  0  0  0
  -27.3830  -22.5060   21.1070 C   0  0  0  0  0  1  0  0  0  0  0  0
  -28.3650  -23.0850   22.1420 C   0  0  0  0  0  3  0  0  0  0  0  0
  -30.3040  -22.2840   20.7470 N   0  0  0  0  0  4  0  0  0  0  0  0
  -29.5340  -21.8550   20.2640 H   0  0  0  0  0  0  0  0  0  0  0  0
  -30.9650  -22.6130   20.0620 H   0  0  0  0  0  0  0  0  0  0  0  0
  -31.0080  -21.2180   21.5510 C   0  0  0  0  0  2  0  0  0  0  0  0
  -31.0700  -14.8290   20.0540 C   0  0  0  0  0  0  0  0  0  0  0  0
  -30.6800  -12.6320   18.9650 C   0  0  0  0  0  2  0  0  0  0  0  0
  -29.6930  -12.7880   17.7880 C   0  0  0  0  0  2  0  0  0  0  0  0
  -28.2400  -12.6640   18.2860 C   0  0  0  0  0  2  0  0  0  0  0  0
  -27.9520  -13.5370   19.5380 C   0  0  0  0  0  3  0  0  0  0  0  0
  -29.0590  -13.3790   20.6110 C   0  0  0  0  0  2  0  0  0  0  0  0
  -30.3560  -13.6630   19.9760 N   0  0  0  0  0  0  0  0  0  0  0  0
  -32.1610  -14.9420   19.4890 O   0  0  0  0  0  0  0  0  0  0  0  0
  -31.9640  -19.2140   20.1680 C   0  0  0  0  0  3  0  0  0  0  0  0
  -31.0410  -19.7780   21.0210 C   0  0  0  0  0  0  0  0  0  0  0  0
  -30.8410  -17.2770   20.7110 C   0  0  0  0  0  0  0  0  0  0  0  0
  -31.8330  -17.8200   19.9900 N   0  0  0  0  0  0  0  0  0  0  0  0
  -30.4900  -15.8740   20.7070 N   0  0  0  0  0  0  0  0  0  0  0  0
  -29.9710  -18.5160   21.6440 S   0  0  0  0  0  0  0  0  0  0  0  0
  -29.6380  -15.6460   21.1910 H   0  0  0  0  0  0  0  0  0  0  0  0
  -25.6090  -14.1610   20.3950 C   0  0  0  0  0  0  0  0  0  0  0  0
  -24.5420  -13.4000   20.7880 C   0  0  0  0  0  0  0  0  0  0  0  0
  -24.9670  -12.0410   20.6800 C   0  0  0  0  0  0  0  0  0  0  0  0
  -26.6210  -13.2680   20.0780 N   0  0  0  0  0  0  0  0  0  0  0  0
  -26.2410  -11.9850   20.3100 N   0  0  0  0  0  0  0  0  0  0  0  0
  -24.2180  -10.7890   20.8590 C   0  0  0  0  0  0  0  0  0  0  0  0
  -24.6350   -9.8040   21.7810 C   0  0  0  0  0  3  0  0  0  0  0  0
  -23.8860   -8.6180   21.9510 C   0  0  0  0  0  3  0  0  0  0  0  0
  -22.7060   -8.4100   21.1970 C   0  0  0  0  0  0  0  0  0  0  0  0
  -22.3070   -9.3850   20.2670 C   0  0  0  0  0  3  0  0  0  0  0  0
  -23.0560  -10.5620   20.0950 C   0  0  0  0  0  3  0  0  0  0  0  0
  -21.9330   -7.2780   21.2760 O   0  0  0  0  0  0  0  0  0  0  0  0
  -21.8190   -6.5600   22.4410 C   0  0  0  0  0  0  0  0  0  0  0  0
  -21.3200   -7.1410   23.6270 C   0  0  0  0  0  3  0  0  0  0  0  0
  -21.1560   -6.3500   24.7830 C   0  0  0  0  0  3  0  0  0  0  0  0
  -21.4810   -4.9800   24.7510 C   0  0  0  0  0  0  0  0  0  0  0  0
  -21.9720   -4.4000   23.5680 C   0  0  0  0  0  3  0  0  0  0  0  0
  -22.1380   -5.1870   22.4160 C   0  0  0  0  0  0  0  0  0  0  0  0
  -22.5920   -4.6180   21.2720 F   0  0  0  0  0  0  0  0  0  0  0  0
  -21.3170   -4.2190   25.8560 F   0  0  0  0  0  0  0  0  0  0  0  0
  -23.1740  -13.9000   21.1490 C   0  0  0  0  0  0  0  0  0  0  0  0
  -22.4770  -13.1920   22.0310 N   0  0  0  0  0  0  0  0  0  0  0  0
  -22.7340  -14.9520   20.6870 O   0  0  0  0  0  0  0  0  0  0  0  0
  -22.8460  -12.3410   22.4270 H   0  0  0  0  0  0  0  0  0  0  0  0
  -21.5620  -13.5080   22.3150 H   0  0  0  0  0  0  0  0  0  0  0  0
  -25.7970  -15.5340   20.2630 N   0  0  0  0  0  0  0  0  0  0  0  0
  -25.0550  -16.1920   20.4650 H   0  0  0  0  0  0  0  0  0  0  0  0
  -26.6450  -15.9770   19.9310 H   0  0  0  0  0  0  0  0  0  0  0  0
  -29.9390  -24.9350   20.9870 C   0  0  0  0  0  2  0  0  0  0  0  0
  -29.7980  -25.4210   18.4680 C   0  0  0  0  0  1  0  0  0  0  0  0
  -29.0990  -25.5990   19.8280 C   0  0  0  0  0  3  0  0  0  0  0  0
  -28.9910  -27.0420   20.0420 O   0  0  0  0  0  0  0  0  0  0  0  0
  -24.7180  -31.7720   23.2320 C   0  0  0  0  0  0  0  0  0  0  0  0
  -27.7670  -27.7110   19.9810 C   0  0  0  0  0  0  0  0  0  0  0  0
  -23.6700  -30.4250   21.4410 C   0  0  0  0  0  3  0  0  0  0  0  0
  -25.2760  -29.0960   19.9640 C   0  0  0  0  0  0  0  0  0  0  0  0
  -26.1710  -30.9660   21.3630 C   0  0  0  0  0  2  0  0  0  0  0  0
  -26.3750  -29.6510   20.6300 C   0  0  0  0  0  0  0  0  0  0  0  0
  -27.6210  -28.9680   20.6270 C   0  0  0  0  0  3  0  0  0  0  0  0
  -26.6480  -27.1910   19.2840 C   0  0  0  0  0  3  0  0  0  0  0  0
  -25.4140  -27.8750   19.2810 C   0  0  0  0  0  3  0  0  0  0  0  0
  -23.9700  -29.8640   20.0240 C   0  0  0  0  0  2  0  0  0  0  0  0
  -24.8710  -31.0610   22.0750 N   0  0  0  0  0  0  0  0  0  0  0  0
  -23.6040  -31.9410   23.7460 O   0  0  0  0  0  0  0  0  0  0  0  0
  -23.0520  -29.2990   22.3040 C   0  0  0  0  0  0  0  0  0  0  0  0
  -21.7350  -29.0750   22.1530 N   0  0  0  0  0  0  0  0  0  0  0  0
  -23.7530  -28.6330   23.0710 O   0  0  0  0  0  0  0  0  0  0  0  0
  -21.2260  -29.6610   21.5060 H   0  0  0  0  0  0  0  0  0  0  0  0
  -18.3990  -27.7520   22.5640 C   0  0  0  0  0  0  0  0  0  0  0  0
  -20.9540  -28.0490   22.8390 C   0  0  0  0  0  3  0  0  0  0  0  0
  -21.0800  -26.6880   22.1190 C   0  0  0  0  0  2  0  0  0  0  0  0
  -19.9790  -26.4480   21.0770 C   0  0  0  0  0  2  0  0  0  0  0  0
  -18.6070  -26.4810   21.7580 C   0  0  0  0  0  2  0  0  0  0  0  0
  -19.5020  -28.4990   23.0560 C   0  0  0  0  0  0  0  0  0  0  0  0
  -19.2530  -29.6960   23.7700 C   0  0  0  0  0  3  0  0  0  0  0  0
  -17.9360  -30.1410   23.9950 C   0  0  0  0  0  3  0  0  0  0  0  0
  -16.8500  -29.3830   23.5260 C   0  0  0  0  0  3  0  0  0  0  0  0
  -17.0810  -28.1910   22.8110 C   0  0  0  0  0  3  0  0  0  0  0  0
  -25.9330  -32.4380   23.9490 C   0  0  0  0  0  3  0  0  0  0  0  0
  -25.5670  -33.8290   24.2510 N   0  0  0  0  0  0  0  0  0  0  0  0
  -25.9230  -34.8880   23.5080 C   0  0  0  0  0  0  0  0  0  0  0  0
  -26.6550  -34.7950   22.5180 O   0  0  0  0  0  0  0  0  0  0  0  0
  -24.9100  -33.9720   25.0050 H   0  0  0  0  0  0  0  0  0  0  0  0
  -24.1560  -36.6160   23.0530 C   0  0  0  0  0  1  0  0  0  0  0  0
  -25.3710  -36.2630   23.9270 C   0  0  0  0  0  3  0  0  0  0  0  0
  -27.4330  -37.2280   24.8480 C   0  0  0  0  0  1  0  0  0  0  0  0
  -26.3740  -37.3470   23.8480 N   0  0  0  0  0  0  0  0  0  0  0  0
  -25.9350  -38.2590   23.9500 H   0  0  0  0  0  0  0  0  0  0  0  0
  -26.3770  -31.6760   25.2580 C   0  0  1  0  0  0  0  0  0  0  0  0
  -25.2150  -31.3990   26.2380 C   0  0  0  0  0  1  0  0  0  0  0  0
  -27.0200  -30.3170   24.9020 C   0  0  0  0  0  1  0  0  0  0  0  0
  -27.4610  -32.4920   26.0030 C   0  0  0  0  0  1  0  0  0  0  0  0
  1 52  1  0
  1  4  1  0
  3  4  1  0
  4  2  1  0
  5  1  1  0
  5  8  1  0
  6  5  1  0
  7  5  1  0
  9 21  1  0
 10 15  1  0
 11 12  1  0
 11 10  1  0
 13 12  1  0
 13 27  1  0
 13 14  1  0
 15  9  1  0
 15 14  1  0
 16  9  2  0
 17 18  2  0
 18  8  1  0
 18 22  1  0
 19 22  1  0
 20 17  1  0
 20 19  2  0
 21 19  1  0
 21 23  1  0
 24 25  2  0
 25 44  1  0
 26 25  1  0
 26 29  1  0
 27 28  1  0
 27 24  1  0
 28 26  2  0
 29 30  1  0
 30 31  2  0
 32 35  1  0
 32 31  1  0
 33 32  2  0
 34 33  1  0
 34 29  2  0
 35 36  1  0
 36 37  1  0
 37 38  2  0
 39 38  1  0
 39 43  1  0
 40 39  2  0
 41 36  2  0
 41 40  1  0
 42 41  1  0
 44 45  1  0
 45 48  1  0
 45 47  1  0
 46 44  2  0
 49 24  1  0
 49 50  1  0
 51 49  1  0
 54 53  1  0
 54 55  1  0
 54 52  1  0
 56 67  2  0
 57 55  1  0
 57 62  1  0
 58 66  1  0
 58 68  1  0
 59 65  1  0
 59 61  1  0
 60 66  1  0
 61 60  1  0
 62 61  2  0
 63 57  2  0
 64 63  1  0
 64 59  2  0
 65 58  1  0
 66 56  1  0
 68 70  2  0
 69 68  1  0
 71 69  1  0
 72 81  2  0
 72 77  1  0
 73 69  1  0
 73 77  1  0
 74 73  1  0
 75 76  1  0
 75 74  1  0
 76 72  1  0
 77 78  2  0
 78 79  1  0
 80 79  2  0
 81 80  1  0
 82 56  1  0
 82 83  1  0
 82 92  1  0
 83 86  1  0
 84 88  1  0
 84 83  1  0
 85 84  2  0
 88 87  1  0
 90 88  1  0
 90 91  1  0
 90 89  1  0
 92 95  1  1
 92 93  1  0
 94 92  1  0
M  ISO  4   9 100  21 100  54 101  55 101
M  END
>  <TORSDO>  (40) 
F 21

>  <SCORE>  (40) 
-11.590

>  <name>  (40) 
40

>  <ligand_id>  (40) 
40

>  <original_smiles>  (40) 
[H]c1nc(N([H])C(=O)N2C([H])([H])C([H])([H])C([H])([H])C([H])(n3nc(-c4c([H])c([H])c(Oc5c([H])c([H])c(F)c([H])c5F)c([H])c4[H])c(C(=O)N([H])[H])c3N([H])[H])C2([H])[H])sc1C([H])([H])[N+]([H])([H])C([H])(C([H])([H])C([H])(Oc1c([H])c([H])c2c(c1[H])C([H])([H])N(C(=O)C([H])(N([H])C(=O)C([H])(N([H])C([H])([H])[H])C([H])([H])[H])C(C([H])([H])[H])(C([H])([H])[H])C([H])([H])[H])C([H])(C(=O)N([H])C1([H])c3c([H])c([H])c([H])c([H])c3C([H])([H])C([H])([H])C1([H])[H])C2([H])[H])C([H])([H])[H])C([H])(C([H])([H])[H])C([H])([H])[H]

>  <smiles>  (40) 
[H]c1nc(N([H])C(=O)N2C([H])([H])C([H])([H])C([H])([H])C([H])(n3nc(-c4c([H])c([H])c(Oc5c([H])c([H])c(F)c([H])c5F)c([H])c4[H])c(C(=O)N([H])[H])c3N([H])[H])C2([H])[H])sc1C([H])([H])[N+]([H])([H])C([H])(C([H])([H])C([H])(Oc1c([H])c([H])c2c(c1[H])C([H])([H])N(C(=O)C([H])(N([H])C(=O)C([H])(N([H])C([H])([H])[H])C([H])([H])[H])C(C([H])([H])[H])(C([H])([H])[H])C([H])([H])[H])C([H])(C(=O)N([H])C1([H])c3c([H])c([H])c([H])c([H])c3C([H])([H])C([H])([H])C1([H])[H])C2([H])[H])C([H])([H])[H])C([H])(C([H])([H])[H])C([H])([H])[H]

$$$$
41:0:0
     RDKit          3D

 98106  0  0  1  0  0  0  0  0999 V2000
  -30.4880  -18.3540   19.9610 C   0  0  0  0  0  0  0  0  0  0  0  0
  -30.4950  -18.7370   21.2850 C   0  0  0  0  0  0  0  0  0  0  0  0
  -29.0600  -20.1280   19.8500 C   0  0  0  0  0  0  0  0  0  0  0  0
  -27.9470  -22.3210   19.4360 C   0  0  0  0  0  0  0  0  0  0  0  0
  -31.3060  -18.1480   22.3930 C   0  0  0  0  0  1  0  0  0  0  0  0
  -29.5630  -19.0810   19.2040 N   0  0  0  0  0  0  0  0  0  0  0  0
  -28.4170  -21.1180   19.0770 N   0  0  0  0  0  0  0  0  0  0  0  0
  -27.6820  -22.6350   20.5980 O   0  0  0  0  0  0  0  0  0  0  0  0
  -29.4680  -20.1370   21.5610 S   0  0  0  0  0  0  0  0  0  0  0  0
  -28.4590  -20.9600   18.0810 H   0  0  0  0  0  0  0  0  0  0  0  0
  -26.8430  -22.6570   17.1670 C   0  0  0  0  0  1  0  0  0  0  0  0
  -27.7210  -23.3020   18.2600 C   0  0  0  0  0  3  0  0  0  0  0  0
  -27.1580  -24.7030   18.6270 C   0  0  0  0  0  2  0  0  0  0  0  0
  -27.8160  -25.4170   19.8380 C   0  0  0  0  0  2  0  0  0  0  0  0
  -27.8910  -26.8450   19.7190 O   0  0  0  0  0  0  0  0  0  0  0  0
  -24.5440  -31.9770   23.3680 C   0  0  0  0  0  0  0  0  0  0  0  0
  -26.7390  -27.5890   19.8760 C   0  0  0  0  0  0  0  0  0  0  0  0
  -23.1560  -30.7140   21.7620 C   0  0  0  0  0  3  0  0  0  0  0  0
  -24.4240  -29.1940   20.1650 C   0  0  0  0  0  0  0  0  0  0  0  0
  -25.6750  -30.9730   21.3870 C   0  0  0  0  0  2  0  0  0  0  0  0
  -25.6490  -29.6340   20.6800 C   0  0  0  0  0  0  0  0  0  0  0  0
  -26.8110  -28.8420   20.5290 C   0  0  0  0  0  3  0  0  0  0  0  0
  -25.4860  -27.1590   19.3840 C   0  0  0  0  0  3  0  0  0  0  0  0
  -24.3380  -27.9540   19.5160 C   0  0  0  0  0  3  0  0  0  0  0  0
  -23.2290  -30.1000   20.3410 C   0  0  0  0  0  2  0  0  0  0  0  0
  -24.4830  -31.2320   22.2290 N   0  0  0  0  0  0  0  0  0  0  0  0
  -23.5200  -32.2670   24.0010 O   0  0  0  0  0  0  0  0  0  0  0  0
  -22.5350  -29.6690   22.7170 C   0  0  0  0  0  0  0  0  0  0  0  0
  -21.2230  -29.4250   22.5650 N   0  0  0  0  0  0  0  0  0  0  0  0
  -23.2280  -29.0810   23.5510 O   0  0  0  0  0  0  0  0  0  0  0  0
  -20.7210  -29.9500   21.8620 H   0  0  0  0  0  0  0  0  0  0  0  0
  -17.9330  -27.9700   22.8920 C   0  0  0  0  0  0  0  0  0  0  0  0
  -20.4330  -28.4580   23.3270 C   0  0  0  0  0  3  0  0  0  0  0  0
  -20.6970  -27.0150   22.8360 C   0  0  0  0  0  2  0  0  0  0  0  0
  -19.7020  -26.5510   21.7670 C   0  0  0  0  0  2  0  0  0  0  0  0
  -18.2690  -26.6090   22.3060 C   0  0  0  0  0  2  0  0  0  0  0  0
  -18.9510  -28.8430   23.3570 C   0  0  0  0  0  0  0  0  0  0  0  0
  -18.5880  -30.1110   23.8630 C   0  0  0  0  0  3  0  0  0  0  0  0
  -17.2400  -30.5100   23.9080 C   0  0  0  0  0  3  0  0  0  0  0  0
  -16.2350  -29.6350   23.4640 C   0  0  0  0  0  3  0  0  0  0  0  0
  -16.5810  -28.3670   22.9640 C   0  0  0  0  0  3  0  0  0  0  0  0
  -25.9000  -32.5220   23.9150 C   0  0  0  0  0  3  0  0  0  0  0  0
  -25.6980  -33.9350   24.2610 N   0  0  0  0  0  0  0  0  0  0  0  0
  -26.0590  -34.9670   23.4850 C   0  0  0  0  0  0  0  0  0  0  0  0
  -26.6690  -34.8230   22.4210 O   0  0  0  0  0  0  0  0  0  0  0  0
  -25.1590  -34.1250   25.0920 H   0  0  0  0  0  0  0  0  0  0  0  0
  -24.4220  -36.8590   23.2280 C   0  0  0  0  0  1  0  0  0  0  0  0
  -25.6830  -36.3810   23.9660 C   0  0  0  0  0  3  0  0  0  0  0  0
  -27.9100  -37.1430   24.6670 C   0  0  0  0  0  1  0  0  0  0  0  0
  -26.7670  -37.3700   23.7850 N   0  0  0  0  0  0  0  0  0  0  0  0
  -26.4280  -38.3140   23.9470 H   0  0  0  0  0  0  0  0  0  0  0  0
  -26.4390  -31.7110   25.1570 C   0  0  1  0  0  0  0  0  0  0  0  0
  -25.3910  -31.5210   26.2800 C   0  0  0  0  0  1  0  0  0  0  0  0
  -26.9230  -30.3080   24.7230 C   0  0  0  0  0  1  0  0  0  0  0  0
  -27.6680  -32.4300   25.7630 C   0  0  0  0  0  1  0  0  0  0  0  0
  -31.3690  -17.3250   19.2710 C   0  0  0  0  0  3  0  0  0  0  0  0
  -31.4470  -14.7730   19.2630 C   0  0  0  0  0  0  0  0  0  0  0  0
  -31.0330  -12.3970   18.8040 C   0  0  0  0  0  2  0  0  0  0  0  0
  -30.0360  -12.2640   17.6390 C   0  0  0  0  0  2  0  0  0  0  0  0
  -28.5920  -12.2560   18.1770 C   0  0  0  0  0  2  0  0  0  0  0  0
  -28.3120  -13.4210   19.1690 C   0  0  0  0  0  3  0  0  0  0  0  0
  -29.4370  -13.5670   20.2180 C   0  0  0  0  0  2  0  0  0  0  0  0
  -30.7150  -13.6530   19.5000 N   0  0  0  0  0  0  0  0  0  0  0  0
  -32.5870  -14.6970   18.8240 O   0  0  0  0  0  0  0  0  0  0  0  0
  -30.8140  -15.9540   19.3720 N   0  0  0  0  0  0  0  0  0  0  0  0
  -29.8480  -15.9080   19.6480 H   0  0  0  0  0  0  0  0  0  0  0  0
  -26.1150  -14.2690   20.1920 C   0  0  0  0  0  0  0  0  0  0  0  0
  -25.0040  -13.6140   20.6480 C   0  0  0  0  0  0  0  0  0  0  0  0
  -25.2760  -12.2190   20.4970 C   0  0  0  0  0  0  0  0  0  0  0  0
  -27.0020  -13.2820   19.7970 N   0  0  0  0  0  0  0  0  0  0  0  0
  -26.5090  -12.0390   20.0390 N   0  0  0  0  0  0  0  0  0  0  0  0
  -24.4170  -11.0490   20.7130 C   0  0  0  0  0  0  0  0  0  0  0  0
  -24.7870  -10.0120   21.5990 C   0  0  0  0  0  3  0  0  0  0  0  0
  -23.9370   -8.9040   21.8030 C   0  0  0  0  0  3  0  0  0  0  0  0
  -22.7000   -8.8250   21.1220 C   0  0  0  0  0  0  0  0  0  0  0  0
  -22.3450   -9.8480   20.2230 C   0  0  0  0  0  3  0  0  0  0  0  0
  -23.1960  -10.9470   20.0180 C   0  0  0  0  0  3  0  0  0  0  0  0
  -21.8210   -7.7760   21.2360 O   0  0  0  0  0  0  0  0  0  0  0  0
  -21.7140   -7.0510   22.3950 C   0  0  0  0  0  0  0  0  0  0  0  0
  -21.3290   -7.6500   23.6150 C   0  0  0  0  0  3  0  0  0  0  0  0
  -21.1620   -6.8560   24.7670 C   0  0  0  0  0  3  0  0  0  0  0  0
  -21.3690   -5.4650   24.7010 C   0  0  0  0  0  0  0  0  0  0  0  0
  -21.7450   -4.8670   23.4850 C   0  0  0  0  0  3  0  0  0  0  0  0
  -21.9130   -5.6570   22.3360 C   0  0  0  0  0  0  0  0  0  0  0  0
  -22.2550   -5.0720   21.1620 F   0  0  0  0  0  0  0  0  0  0  0  0
  -21.2020   -4.7020   25.8050 F   0  0  0  0  0  0  0  0  0  0  0  0
  -23.7190  -14.2420   21.1040 C   0  0  0  0  0  0  0  0  0  0  0  0
  -23.0170  -13.5980   22.0300 N   0  0  0  0  0  0  0  0  0  0  0  0
  -23.3540  -15.3350   20.6740 O   0  0  0  0  0  0  0  0  0  0  0  0
  -23.3290  -12.7100   22.3950 H   0  0  0  0  0  0  0  0  0  0  0  0
  -22.1560  -13.9970   22.3760 H   0  0  0  0  0  0  0  0  0  0  0  0
  -26.4380  -15.6170   20.0580 N   0  0  0  0  0  0  0  0  0  0  0  0
  -25.7820  -16.3540   20.2890 H   0  0  0  0  0  0  0  0  0  0  0  0
  -27.2920  -15.9660   19.6430 H   0  0  0  0  0  0  0  0  0  0  0  0
  -31.4180  -17.0370   16.6320 C   0  0  0  0  0  1  0  0  0  0  0  0
  -31.8380  -17.8770   17.8660 C   0  0  0  0  0  3  0  0  0  0  0  0
  -33.5180  -19.8420   17.9290 C   0  0  0  0  0  1  0  0  0  0  0  0
  -33.3200  -18.3260   17.7990 C   0  0  0  0  0  2  0  0  0  0  0  0
  1  2  2  0
  2  9  1  0
  2  5  1  0
  3  9  1  0
  4  8  2  0
  6  3  2  0
  6  1  1  0
  7  4  1  0
  7  3  1  0
 10  7  1  0
 12 11  1  0
 12 13  1  0
 12  4  1  0
 13 14  1  0
 15 14  1  0
 15 17  1  0
 16 27  2  0
 17 22  1  0
 18 26  1  0
 18 28  1  0
 19 25  1  0
 19 21  1  0
 20 26  1  0
 21 20  1  0
 22 21  2  0
 23 24  1  0
 23 17  2  0
 24 19  2  0
 25 18  1  0
 26 16  1  0
 28 30  2  0
 29 28  1  0
 31 29  1  0
 32 41  2  0
 32 37  1  0
 33 29  1  0
 33 37  1  0
 34 33  1  0
 35 36  1  0
 35 34  1  0
 36 32  1  0
 37 38  2  0
 38 39  1  0
 40 39  2  0
 41 40  1  0
 42 16  1  0
 42 43  1  0
 42 52  1  0
 43 46  1  0
 44 48  1  0
 44 43  1  0
 45 44  2  0
 48 47  1  0
 50 51  1  0
 50 48  1  0
 50 49  1  0
 52 55  1  1
 52 53  1  0
 54 52  1  0
 56 65  1  0
 56  1  1  0
 57 65  1  0
 57 63  1  0
 58 63  1  0
 59 60  1  0
 59 58  1  0
 61 60  1  0
 61 70  1  0
 61 62  1  0
 63 62  1  0
 64 57  2  0
 65 66  1  0
 67 68  2  0
 68 87  1  0
 69 68  1  0
 69 72  1  0
 70 71  1  0
 70 67  1  0
 71 69  2  0
 72 73  1  0
 73 74  2  0
 75 78  1  0
 75 74  1  0
 76 75  2  0
 77 76  1  0
 77 72  2  0
 78 79  1  0
 79 80  1  0
 80 81  2  0
 82 81  1  0
 82 86  1  0
 83 82  2  0
 84 79  2  0
 84 83  1  0
 85 84  1  0
 87 88  1  0
 88 91  1  0
 88 90  1  0
 89 87  2  0
 92 67  1  0
 92 93  1  0
 94 92  1  0
 96 95  1  0
 96 56  1  0
 98 96  1  0
 98 97  1  0
M  ISO  4  14 101  15 101  57 100  65 100
M  END
>  <TORSDO>  (41) 
F 22

>  <SCORE>  (41) 
-10.994

>  <name>  (41) 
41

>  <ligand_id>  (41) 
41

>  <original_smiles>  (41) 
[H]c1c([H])c([H])c2c(c1[H])C([H])([H])C([H])([H])C([H])([H])C2([H])N([H])C(=O)C1([H])N(C(=O)C([H])(N([H])C(=O)C([H])(N([H])C([H])([H])[H])C([H])([H])[H])C(C([H])([H])[H])(C([H])([H])[H])C([H])([H])[H])C([H])([H])c2c([H])c(OC([H])([H])C([H])([H])C([H])(C(=O)N([H])c3nc(C([H])(N([H])C(=O)N4C([H])([H])C([H])([H])C([H])([H])C([H])(n5nc(-c6c([H])c([H])c(Oc7c([H])c([H])c(F)c([H])c7F)c([H])c6[H])c(C(=O)N([H])[H])c5N([H])[H])C4([H])[H])C([H])(C([H])([H])[H])C([H])([H])C([H])([H])[H])c(C([H])([H])[H])s3)C([H])([H])[H])c([H])c([H])c2C1([H])[H]

>  <smiles>  (41) 
[H]c1c([H])c([H])c2c(c1[H])C([H])([H])C([H])([H])C([H])([H])C2([H])N([H])C(=O)C1([H])N(C(=O)C([H])(N([H])C(=O)C([H])(N([H])C([H])([H])[H])C([H])([H])[H])C(C([H])([H])[H])(C([H])([H])[H])C([H])([H])[H])C([H])([H])c2c([H])c(OC([H])([H])C([H])([H])C([H])(C(=O)N([H])c3nc(C([H])(N([H])C(=O)N4C([H])([H])C([H])([H])C([H])([H])C([H])(n5nc(-c6c([H])c([H])c(Oc7c([H])c([H])c(F)c([H])c7F)c([H])c6[H])c(C(=O)N([H])[H])c5N([H])[H])C4([H])[H])C([H])(C([H])([H])[H])C([H])([H])C([H])([H])[H])c(C([H])([H])[H])s3)C([H])([H])[H])c([H])c([H])c2C1([H])[H]

$$$$
42:0:0
     RDKit          3D

 94102  0  0  1  0  0  0  0  0999 V2000
  -29.7560  -18.0240   17.9860 C   0  0  0  0  0  3  0  0  0  0  0  0
  -29.5920  -19.2710   18.5950 C   0  0  0  0  0  3  0  0  0  0  0  0
  -29.8710  -16.8830   18.7890 C   0  0  0  0  0  0  0  0  0  0  0  0
  -29.5310  -19.3690   20.0010 C   0  0  0  0  0  0  0  0  0  0  0  0
  -29.8440  -17.0060   20.2030 C   0  0  0  0  0  0  0  0  0  0  0  0
  -28.6750  -21.7130   20.0510 C   0  0  0  0  0  0  0  0  0  0  0  0
  -29.6680  -18.2450   20.7750 N   0  0  0  0  0  0  0  0  0  0  0  0
  -29.4270  -20.6940   20.5430 N   0  0  0  0  0  0  0  0  0  0  0  0
  -27.6120  -21.4970   19.4600 O   0  0  0  0  0  0  0  0  0  0  0  0
  -29.9740  -15.6840   18.1770 F   0  0  0  0  0  0  0  0  0  0  0  0
  -30.1230  -20.9390   21.2320 H   0  0  0  0  0  0  0  0  0  0  0  0
  -30.6940  -14.7270   20.7650 C   0  0  0  0  0  0  0  0  0  0  0  0
  -30.5580  -12.4650   19.7910 C   0  0  0  0  0  2  0  0  0  0  0  0
  -29.6940  -12.5240   18.5120 C   0  0  0  0  0  2  0  0  0  0  0  0
  -28.1920  -12.4060   18.8440 C   0  0  0  0  0  2  0  0  0  0  0  0
  -27.7500  -13.3060   20.0290 C   0  0  0  0  0  3  0  0  0  0  0  0
  -28.7350  -13.1970   21.2150 C   0  0  0  0  0  2  0  0  0  0  0  0
  -30.0820  -13.5080   20.7150 N   0  0  0  0  0  0  0  0  0  0  0  0
  -31.8840  -14.8750   20.4700 O   0  0  0  0  0  0  0  0  0  0  0  0
  -29.8860  -15.7960   20.9870 N   0  0  0  0  0  0  0  0  0  0  0  0
  -29.0230  -15.5820   21.4590 H   0  0  0  0  0  0  0  0  0  0  0  0
  -25.3070  -13.8800   20.5960 C   0  0  0  0  0  0  0  0  0  0  0  0
  -24.2320  -13.0940   20.9140 C   0  0  0  0  0  0  0  0  0  0  0  0
  -24.7170  -11.7500   20.9300 C   0  0  0  0  0  0  0  0  0  0  0  0
  -26.3780  -13.0150   20.4380 N   0  0  0  0  0  0  0  0  0  0  0  0
  -26.0240  -11.7310   20.7010 N   0  0  0  0  0  0  0  0  0  0  0  0
  -24.0020  -10.4780   21.0930 C   0  0  0  0  0  0  0  0  0  0  0  0
  -24.3890   -9.5330   22.0700 C   0  0  0  0  0  3  0  0  0  0  0  0
  -23.6750   -8.3240   22.2190 C   0  0  0  0  0  3  0  0  0  0  0  0
  -22.5610   -8.0520   21.3900 C   0  0  0  0  0  0  0  0  0  0  0  0
  -22.1940   -8.9850   20.4050 C   0  0  0  0  0  3  0  0  0  0  0  0
  -22.9090  -10.1850   20.2540 C   0  0  0  0  0  3  0  0  0  0  0  0
  -21.8230   -6.8940   21.4470 O   0  0  0  0  0  0  0  0  0  0  0  0
  -21.6940   -6.1790   22.6110 C   0  0  0  0  0  0  0  0  0  0  0  0
  -21.1310   -6.7450   23.7750 C   0  0  0  0  0  3  0  0  0  0  0  0
  -20.9540   -5.9530   24.9270 C   0  0  0  0  0  3  0  0  0  0  0  0
  -21.3300   -4.5970   24.9150 C   0  0  0  0  0  0  0  0  0  0  0  0
  -21.8870   -4.0310   23.7560 C   0  0  0  0  0  3  0  0  0  0  0  0
  -22.0650   -4.8190   22.6050 C   0  0  0  0  0  0  0  0  0  0  0  0
  -22.5830   -4.2630   21.4840 F   0  0  0  0  0  0  0  0  0  0  0  0
  -21.1530   -3.8340   26.0200 F   0  0  0  0  0  0  0  0  0  0  0  0
  -22.8120  -13.5500   21.0950 C   0  0  0  0  0  0  0  0  0  0  0  0
  -22.0440  -12.8510   21.9240 N   0  0  0  0  0  0  0  0  0  0  0  0
  -22.3890  -14.5610   20.5360 O   0  0  0  0  0  0  0  0  0  0  0  0
  -22.3980  -12.0340   22.4000 H   0  0  0  0  0  0  0  0  0  0  0  0
  -21.0900  -13.1380   22.0860 H   0  0  0  0  0  0  0  0  0  0  0  0
  -25.4580  -15.2500   20.4060 N   0  0  0  0  0  0  0  0  0  0  0  0
  -24.6710  -15.8890   20.4470 H   0  0  0  0  0  0  0  0  0  0  0  0
  -26.3100  -15.6950   20.0890 H   0  0  0  0  0  0  0  0  0  0  0  0
  -30.5470  -23.3500   19.6370 C   0  0  0  0  0  1  0  0  0  0  0  0
  -29.1450  -23.1900   20.2690 C   0  0  0  0  0  3  0  0  0  0  0  0
  -28.1110  -24.2730   19.7460 C   0  0  0  0  0  2  0  0  0  0  0  0
  -28.5910  -25.6950   19.2840 C   0  0  0  0  0  2  0  0  0  0  0  0
  -28.3950  -26.8040   20.1860 O   0  0  0  0  0  0  0  0  0  0  0  0
  -24.5600  -31.9490   23.3030 C   0  0  0  0  0  0  0  0  0  0  0  0
  -27.2110  -27.5270   20.1620 C   0  0  0  0  0  0  0  0  0  0  0  0
  -23.3540  -30.5600   21.6500 C   0  0  0  0  0  3  0  0  0  0  0  0
  -24.8090  -29.0430   20.2000 C   0  0  0  0  0  0  0  0  0  0  0  0
  -25.8800  -30.9230   21.4490 C   0  0  0  0  0  2  0  0  0  0  0  0
  -25.9660  -29.5560   20.7950 C   0  0  0  0  0  0  0  0  0  0  0  0
  -27.1650  -28.8030   20.7790 C   0  0  0  0  0  3  0  0  0  0  0  0
  -26.0280  -27.0320   19.5670 C   0  0  0  0  0  3  0  0  0  0  0  0
  -24.8350  -27.7800   19.5850 C   0  0  0  0  0  3  0  0  0  0  0  0
  -23.5620  -29.8990   20.2620 C   0  0  0  0  0  2  0  0  0  0  0  0
  -24.6170  -31.1590   22.1920 N   0  0  0  0  0  0  0  0  0  0  0  0
  -23.4800  -32.2090   23.8500 O   0  0  0  0  0  0  0  0  0  0  0  0
  -22.7130  -29.5250   22.6030 C   0  0  0  0  0  0  0  0  0  0  0  0
  -21.3900  -29.3290   22.4720 N   0  0  0  0  0  0  0  0  0  0  0  0
  -23.4010  -28.9010   23.4150 O   0  0  0  0  0  0  0  0  0  0  0  0
  -20.8950  -29.8840   21.7880 H   0  0  0  0  0  0  0  0  0  0  0  0
  -18.0290  -28.0900   22.9490 C   0  0  0  0  0  0  0  0  0  0  0  0
  -20.5820  -28.3760   23.2340 C   0  0  0  0  0  3  0  0  0  0  0  0
  -20.7050  -26.9510   22.6510 C   0  0  0  0  0  2  0  0  0  0  0  0
  -19.6110  -26.6200   21.6300 C   0  0  0  0  0  2  0  0  0  0  0  0
  -18.2250  -26.7450   22.2680 C   0  0  0  0  0  2  0  0  0  0  0  0
  -19.1360  -28.8620   23.3890 C   0  0  0  0  0  0  0  0  0  0  0  0
  -18.9000  -30.1200   23.9850 C   0  0  0  0  0  3  0  0  0  0  0  0
  -17.5890  -30.6050   24.1470 C   0  0  0  0  0  3  0  0  0  0  0  0
  -16.4950  -29.8300   23.7230 C   0  0  0  0  0  3  0  0  0  0  0  0
  -16.7170  -28.5730   23.1300 C   0  0  0  0  0  3  0  0  0  0  0  0
  -25.8460  -32.5800   23.9230 C   0  0  0  0  0  3  0  0  0  0  0  0
  -26.3510  -31.8210   25.2110 C   0  0  1  0  0  0  0  0  0  0  0  0
  -25.2510  -31.5990   26.2740 C   0  0  0  0  0  1  0  0  0  0  0  0
  -26.9320  -30.4370   24.8370 C   0  0  0  0  0  1  0  0  0  0  0  0
  -27.5000  -32.6180   25.8720 C   0  0  0  0  0  1  0  0  0  0  0  0
  -25.5420  -33.9840   24.2340 N   0  0  0  0  0  0  0  0  0  0  0  0
  -25.8930  -35.0250   23.4670 C   0  0  0  0  0  0  0  0  0  0  0  0
  -26.5750  -34.9050   22.4460 O   0  0  0  0  0  0  0  0  0  0  0  0
  -24.9380  -34.1510   25.0240 H   0  0  0  0  0  0  0  0  0  0  0  0
  -24.1920  -36.8330   23.0570 C   0  0  0  0  0  1  0  0  0  0  0  0
  -25.4080  -36.4210   23.9010 C   0  0  0  0  0  3  0  0  0  0  0  0
  -27.5290  -37.2930   24.7810 C   0  0  0  0  0  1  0  0  0  0  0  0
  -26.4540  -37.4630   23.8070 N   0  0  0  0  0  0  0  0  0  0  0  0
  -26.0540  -38.3880   23.9330 H   0  0  0  0  0  0  0  0  0  0  0  0
  1  2  2  0
  1  3  1  0
  2  4  1  0
  3  5  2  0
  4  8  1  0
  4  7  2  0
  5  7  1  0
  5 20  1  0
  6 51  1  0
  6  8  1  0
  8 11  1  0
  9  6  2  0
 10  3  1  0
 12 20  1  0
 13 18  1  0
 14 15  1  0
 14 13  1  0
 16 15  1  0
 16 25  1  0
 16 17  1  0
 18 12  1  0
 18 17  1  0
 19 12  2  0
 20 21  1  0
 22 23  2  0
 23 24  1  0
 23 42  1  0
 24 27  1  0
 25 22  1  0
 25 26  1  0
 26 24  2  0
 27 28  1  0
 28 29  2  0
 30 33  1  0
 30 29  1  0
 31 30  2  0
 32 31  1  0
 32 27  2  0
 33 34  1  0
 34 35  1  0
 35 36  2  0
 37 36  1  0
 37 41  1  0
 38 37  2  0
 39 34  2  0
 39 38  1  0
 40 39  1  0
 42 43  1  0
 43 46  1  0
 43 45  1  0
 44 42  2  0
 47 48  1  0
 47 22  1  0
 49 47  1  0
 51 50  1  0
 52 51  1  0
 53 52  1  0
 53 54  1  0
 55 66  2  0
 56 54  1  0
 56 61  1  0
 57 65  1  0
 57 67  1  0
 58 64  1  0
 58 60  1  0
 59 65  1  0
 60 59  1  0
 61 60  2  0
 62 63  1  0
 62 56  2  0
 63 58  2  0
 64 57  1  0
 65 55  1  0
 67 69  2  0
 68 67  1  0
 70 68  1  0
 71 80  2  0
 71 76  1  0
 72 68  1  0
 72 76  1  0
 73 72  1  0
 74 75  1  0
 74 73  1  0
 75 71  1  0
 76 77  2  0
 77 78  1  0
 79 78  2  0
 80 79  1  0
 81 55  1  0
 81 86  1  0
 81 82  1  0
 82 85  1  1
 82 83  1  0
 84 82  1  0
 86 89  1  0
 87 91  1  0
 87 86  1  0
 88 87  2  0
 91 90  1  0
 93 91  1  0
 93 94  1  0
 93 92  1  0
M  ISO  4  12 100  20 100  53 101  54 101
M  END
>  <TORSDO>  (42) 
F 19

>  <SCORE>  (42) 
-13.813

>  <name>  (42) 
42

>  <ligand_id>  (42) 
42

>  <original_smiles>  (42) 
[H]c1c(N([H])C(=O)C([H])(C([H])([H])[H])C([H])([H])C([H])([H])Oc2c([H])c([H])c3c(c2[H])C([H])([H])N(C(=O)C([H])(N([H])C(=O)C([H])(N([H])C([H])([H])[H])C([H])([H])[H])C(C([H])([H])[H])(C([H])([H])[H])C([H])([H])[H])C([H])(C(=O)N([H])C2([H])c4c([H])c([H])c([H])c([H])c4C([H])([H])C([H])([H])C2([H])[H])C3([H])[H])nc(N([H])C(=O)N2C([H])([H])C([H])([H])C([H])([H])C([H])(n3nc(-c4c([H])c([H])c(Oc5c([H])c([H])c(F)c([H])c5F)c([H])c4[H])c(C(=O)N([H])[H])c3N([H])[H])C2([H])[H])c(F)c1[H]

>  <smiles>  (42) 
[H]c1c(N([H])C(=O)C([H])(C([H])([H])[H])C([H])([H])C([H])([H])Oc2c([H])c([H])c3c(c2[H])C([H])([H])N(C(=O)C([H])(N([H])C(=O)C([H])(N([H])C([H])([H])[H])C([H])([H])[H])C(C([H])([H])[H])(C([H])([H])[H])C([H])([H])[H])C([H])(C(=O)N([H])C2([H])c4c([H])c([H])c([H])c([H])c4C([H])([H])C([H])([H])C2([H])[H])C3([H])[H])nc(N([H])C(=O)N2C([H])([H])C([H])([H])C([H])([H])C([H])(n3nc(-c4c([H])c([H])c(Oc5c([H])c([H])c(F)c([H])c5F)c([H])c4[H])c(C(=O)N([H])[H])c3N([H])[H])C2([H])[H])c(F)c1[H]

$$$$
43:0:0
     RDKit          3D

 92100  0  0  1  0  0  0  0  0999 V2000
  -29.1240  -23.8040   19.9640 C   0  0  0  0  0  0  0  0  0  0  0  0
  -28.6430  -22.5200   20.1600 N   0  0  0  0  0  0  0  0  0  0  0  0
  -30.2570  -24.0180   19.5330 O   0  0  0  0  0  0  0  0  0  0  0  0
  -27.6870  -22.5540   20.4860 H   0  0  0  0  0  0  0  0  0  0  0  0
  -28.2960  -20.0780   20.0970 C   0  0  0  0  0  0  0  0  0  0  0  0
  -29.1220  -21.1970   20.0680 C   0  0  0  0  0  0  0  0  0  0  0  0
  -30.2550  -18.8180   19.9010 C   0  0  0  0  0  0  0  0  0  0  0  0
  -26.8010  -20.0820   20.2400 C   0  0  0  0  0  1  0  0  0  0  0  0
  -28.9190  -18.8060   19.9810 N   0  0  0  0  0  0  0  0  0  0  0  0
  -30.7890  -20.5600   19.9210 S   0  0  0  0  0  0  0  0  0  0  0  0
  -31.2190  -17.5630   19.7800 C   0  0  0  0  0  2  0  0  0  0  0  0
  -31.6180  -15.0360   20.0250 C   0  0  0  0  0  0  0  0  0  0  0  0
  -31.3660  -12.7670   18.9840 C   0  0  0  0  0  2  0  0  0  0  0  0
  -30.3550  -12.8120   17.8170 C   0  0  0  0  0  2  0  0  0  0  0  0
  -28.9150  -12.6190   18.3280 C   0  0  0  0  0  2  0  0  0  0  0  0
  -28.6040  -13.4990   19.5660 C   0  0  0  0  0  3  0  0  0  0  0  0
  -29.7220  -13.4000   20.6200 C   0  0  0  0  0  2  0  0  0  0  0  0
  -30.9760  -13.8100   19.9710 N   0  0  0  0  0  0  0  0  0  0  0  0
  -32.7280  -15.1430   19.4910 O   0  0  0  0  0  0  0  0  0  0  0  0
  -30.5070  -16.2860   21.8260 C   0  0  0  0  0  1  0  0  0  0  0  0
  -30.9360  -16.1930   20.4250 N   0  0  0  0  0  0  0  0  0  0  0  0
  -26.2980  -14.0630   20.5340 C   0  0  0  0  0  0  0  0  0  0  0  0
  -25.2450  -13.2770   20.9180 C   0  0  0  0  0  0  0  0  0  0  0  0
  -25.6730  -11.9270   20.7330 C   0  0  0  0  0  0  0  0  0  0  0  0
  -27.2960  -13.1900   20.1350 N   0  0  0  0  0  0  0  0  0  0  0  0
  -26.9330  -11.8940   20.3170 N   0  0  0  0  0  0  0  0  0  0  0  0
  -24.9350  -10.6640   20.8700 C   0  0  0  0  0  0  0  0  0  0  0  0
  -25.2920   -9.7000   21.8370 C   0  0  0  0  0  3  0  0  0  0  0  0
  -24.5530   -8.5030   21.9620 C   0  0  0  0  0  3  0  0  0  0  0  0
  -23.4430   -8.2640   21.1170 C   0  0  0  0  0  0  0  0  0  0  0  0
  -23.1070   -9.2180   20.1400 C   0  0  0  0  0  3  0  0  0  0  0  0
  -23.8470  -10.4060   20.0150 C   0  0  0  0  0  3  0  0  0  0  0  0
  -22.6820   -7.1190   21.1490 O   0  0  0  0  0  0  0  0  0  0  0  0
  -22.3720   -6.4950   22.3300 C   0  0  0  0  0  0  0  0  0  0  0  0
  -21.6830   -7.1600   23.3680 C   0  0  0  0  0  3  0  0  0  0  0  0
  -21.3220   -6.4600   24.5360 C   0  0  0  0  0  3  0  0  0  0  0  0
  -21.6390   -5.0950   24.6660 C   0  0  0  0  0  0  0  0  0  0  0  0
  -22.3220   -4.4290   23.6320 C   0  0  0  0  0  3  0  0  0  0  0  0
  -22.6830   -5.1260   22.4660 C   0  0  0  0  0  0  0  0  0  0  0  0
  -23.3210   -4.4760   21.4640 F   0  0  0  0  0  0  0  0  0  0  0  0
  -21.2860   -4.4190   25.7830 F   0  0  0  0  0  0  0  0  0  0  0  0
  -23.8870  -13.7520   21.3430 C   0  0  0  0  0  0  0  0  0  0  0  0
  -23.2250  -13.0110   22.2260 N   0  0  0  0  0  0  0  0  0  0  0  0
  -23.4230  -14.8140   20.9290 O   0  0  0  0  0  0  0  0  0  0  0  0
  -23.6130  -12.1510   22.5810 H   0  0  0  0  0  0  0  0  0  0  0  0
  -22.3180  -13.3110   22.5510 H   0  0  0  0  0  0  0  0  0  0  0  0
  -26.4850  -15.4420   20.4700 N   0  0  0  0  0  0  0  0  0  0  0  0
  -25.7580  -16.1020   20.7220 H   0  0  0  0  0  0  0  0  0  0  0  0
  -27.3360  -15.8930   20.1620 H   0  0  0  0  0  0  0  0  0  0  0  0
  -28.0490  -25.1850   21.8540 C   0  0  0  0  0  1  0  0  0  0  0  0
  -28.1460  -25.0390   20.3260 C   0  0  0  0  0  3  0  0  0  0  0  0
  -28.4450  -26.4280   19.8170 O   0  0  0  0  0  0  0  0  0  0  0  0
  -24.6360  -31.7180   23.0330 C   0  0  0  0  0  0  0  0  0  0  0  0
  -27.3610  -27.3320   19.7980 C   0  0  0  0  0  0  0  0  0  0  0  0
  -23.4820  -30.3810   21.3090 C   0  0  0  0  0  3  0  0  0  0  0  0
  -24.9810  -28.9340   19.8210 C   0  0  0  0  0  0  0  0  0  0  0  0
  -26.0190  -30.7490   21.1770 C   0  0  0  0  0  2  0  0  0  0  0  0
  -26.1350  -29.4040   20.4620 C   0  0  0  0  0  0  0  0  0  0  0  0
  -27.3320  -28.6160   20.4390 C   0  0  0  0  0  3  0  0  0  0  0  0
  -26.1910  -26.9390   19.1170 C   0  0  0  0  0  3  0  0  0  0  0  0
  -25.0140  -27.7090   19.1360 C   0  0  0  0  0  3  0  0  0  0  0  0
  -23.7270  -29.7830   19.8990 C   0  0  0  0  0  2  0  0  0  0  0  0
  -24.7300  -30.9660   21.8970 N   0  0  0  0  0  0  0  0  0  0  0  0
  -23.5410  -31.9460   23.5670 O   0  0  0  0  0  0  0  0  0  0  0  0
  -22.8270  -29.3050   22.2090 C   0  0  0  0  0  0  0  0  0  0  0  0
  -21.4960  -29.1520   22.1040 N   0  0  0  0  0  0  0  0  0  0  0  0
  -23.5170  -28.6120   22.9630 O   0  0  0  0  0  0  0  0  0  0  0  0
  -20.9970  -29.7630   21.4730 H   0  0  0  0  0  0  0  0  0  0  0  0
  -18.1070  -28.0180   22.6740 C   0  0  0  0  0  0  0  0  0  0  0  0
  -20.6840  -28.1700   22.8260 C   0  0  0  0  0  3  0  0  0  0  0  0
  -20.7040  -26.7990   22.1120 C   0  0  0  0  0  2  0  0  0  0  0  0
  -19.5400  -26.6110   21.1340 C   0  0  0  0  0  2  0  0  0  0  0  0
  -18.1990  -26.7370   21.8630 C   0  0  0  0  0  2  0  0  0  0  0  0
  -19.2730  -28.6990   23.1130 C   0  0  0  0  0  0  0  0  0  0  0  0
  -19.1310  -29.9030   23.8350 C   0  0  0  0  0  3  0  0  0  0  0  0
  -17.8570  -30.4250   24.1220 C   0  0  0  0  0  3  0  0  0  0  0  0
  -16.7040  -29.7390   23.6990 C   0  0  0  0  0  3  0  0  0  0  0  0
  -16.8310  -28.5370   22.9800 C   0  0  0  0  0  3  0  0  0  0  0  0
  -25.8980  -32.3450   23.7010 C   0  0  0  0  0  3  0  0  0  0  0  0
  -26.4370  -31.5020   24.9220 C   0  0  1  0  0  0  0  0  0  0  0  0
  -25.3500  -31.1470   25.9620 C   0  0  0  0  0  1  0  0  0  0  0  0
  -27.0750  -30.1790   24.4370 C   0  0  0  0  0  1  0  0  0  0  0  0
  -27.5530  -32.2900   25.6500 C   0  0  0  0  0  1  0  0  0  0  0  0
  -25.5450  -33.7050   24.1310 N   0  0  0  0  0  0  0  0  0  0  0  0
  -25.8370  -34.8220   23.4500 C   0  0  0  0  0  0  0  0  0  0  0  0
  -26.5030  -34.8150   22.4100 O   0  0  0  0  0  0  0  0  0  0  0  0
  -24.9530  -33.7820   24.9450 H   0  0  0  0  0  0  0  0  0  0  0  0
  -24.0550  -36.5840   23.2290 C   0  0  0  0  0  1  0  0  0  0  0  0
  -25.3090  -36.1560   24.0090 C   0  0  0  0  0  3  0  0  0  0  0  0
  -27.4120  -37.0450   24.9110 C   0  0  0  0  0  1  0  0  0  0  0  0
  -26.3080  -37.2470   23.9770 N   0  0  0  0  0  0  0  0  0  0  0  0
  -25.8730  -38.1410   24.1890 H   0  0  0  0  0  0  0  0  0  0  0  0
  1  2  1  0
  1 51  1  0
  2  4  1  0
  3  1  2  0
  5  8  1  0
  6  5  2  0
  6  2  1  0
  7 10  1  0
  7  9  2  0
  9  5  1  0
 10  6  1  0
 11  7  1  0
 11 21  1  0
 12 21  1  0
 13 18  1  0
 14 15  1  0
 14 13  1  0
 16 15  1  0
 16 25  1  0
 16 17  1  0
 18 12  1  0
 18 17  1  0
 19 12  2  0
 21 20  1  0
 22 23  2  0
 23 42  1  0
 24 27  1  0
 24 23  1  0
 25 26  1  0
 25 22  1  0
 26 24  2  0
 27 28  1  0
 28 29  2  0
 30 33  1  0
 30 29  1  0
 31 30  2  0
 32 31  1  0
 32 27  2  0
 33 34  1  0
 34 39  2  0
 34 35  1  0
 35 36  2  0
 36 37  1  0
 37 41  1  0
 38 37  2  0
 39 38  1  0
 40 39  1  0
 42 43  1  0
 43 46  1  0
 43 45  1  0
 44 42  2  0
 47 22  1  0
 47 48  1  0
 49 47  1  0
 51 50  1  0
 52 51  1  0
 53 64  2  0
 54 52  1  0
 54 59  1  0
 55 63  1  0
 55 65  1  0
 56 62  1  0
 56 58  1  0
 57 63  1  0
 58 57  1  0
 59 58  2  0
 60 61  1  0
 60 54  2  0
 61 56  2  0
 62 55  1  0
 63 53  1  0
 65 67  2  0
 66 65  1  0
 68 66  1  0
 69 78  2  0
 69 74  1  0
 70 66  1  0
 70 74  1  0
 71 70  1  0
 72 73  1  0
 72 71  1  0
 73 69  1  0
 74 75  2  0
 75 76  1  0
 77 76  2  0
 78 77  1  0
 79 53  1  0
 79 84  1  0
 79 80  1  0
 80 83  1  1
 80 81  1  0
 82 80  1  0
 84 87  1  0
 85 89  1  0
 85 84  1  0
 86 85  2  0
 89 88  1  0
 91 89  1  0
 91 92  1  0
 91 90  1  0
M  ISO  4  12 100  21 100  51 101  52 101
M  END
>  <TORSDO>  (43) 
F 19

>  <SCORE>  (43) 
-11.363

>  <name>  (43) 
43

>  <ligand_id>  (43) 
43

>  <original_smiles>  (43) 
[H]c1c([H])c([H])c2c(c1[H])C([H])([H])C([H])([H])C([H])([H])C2([H])N([H])C(=O)C1([H])N(C(=O)C([H])(N([H])C(=O)C([H])(N([H])C([H])([H])[H])C([H])([H])[H])C(C([H])([H])[H])(C([H])([H])[H])C([H])([H])[H])C([H])([H])c2c([H])c(OC([H])(C(=O)N([H])c3sc(C([H])([H])N(C(=O)N4C([H])([H])C([H])([H])C([H])([H])C([H])(n5nc(-c6c([H])c([H])c(Oc7c([H])c([H])c(F)c([H])c7F)c([H])c6[H])c(C(=O)N([H])[H])c5N([H])[H])C4([H])[H])C([H])([H])[H])nc3C([H])([H])[H])C([H])([H])[H])c([H])c([H])c2C1([H])[H]

>  <smiles>  (43) 
[H]c1c([H])c([H])c2c(c1[H])C([H])([H])C([H])([H])C([H])([H])C2([H])N([H])C(=O)C1([H])N(C(=O)C([H])(N([H])C(=O)C([H])(N([H])C([H])([H])[H])C([H])([H])[H])C(C([H])([H])[H])(C([H])([H])[H])C([H])([H])[H])C([H])([H])c2c([H])c(OC([H])(C(=O)N([H])c3sc(C([H])([H])N(C(=O)N4C([H])([H])C([H])([H])C([H])([H])C([H])(n5nc(-c6c([H])c([H])c(Oc7c([H])c([H])c(F)c([H])c7F)c([H])c6[H])c(C(=O)N([H])[H])c5N([H])[H])C4([H])[H])C([H])([H])[H])nc3C([H])([H])[H])C([H])([H])[H])c([H])c([H])c2C1([H])[H]

$$$$
44:0:0
     RDKit          3D

 92100  0  0  1  0  0  0  0  0999 V2000
  -30.9940  -19.5690   20.4930 C   0  0  0  0  0  0  0  0  0  0  0  0
  -30.0220  -18.6880   20.0310 C   0  0  0  0  0  0  0  0  0  0  0  0
  -29.3240  -21.1830   20.2770 C   0  0  0  0  0  0  0  0  0  0  0  0
  -29.0780  -23.8100   20.3990 C   0  0  0  0  0  0  0  0  0  0  0  0
  -32.4240  -19.2340   20.8110 C   0  0  0  0  0  1  0  0  0  0  0  0
  -30.5990  -20.9340   20.6210 N   0  0  0  0  0  0  0  0  0  0  0  0
  -28.6490  -22.4950   20.3470 N   0  0  0  0  0  0  0  0  0  0  0  0
  -30.2640  -24.1240   20.2700 O   0  0  0  0  0  0  0  0  0  0  0  0
  -28.5280  -19.6410   19.8090 S   0  0  0  0  0  0  0  0  0  0  0  0
  -27.6440  -22.4130   20.3690 H   0  0  0  0  0  0  0  0  0  0  0  0
  -27.5420  -24.9770   22.0890 C   0  0  0  0  0  1  0  0  0  0  0  0
  -27.9820  -24.9600   20.6130 C   0  0  0  0  0  3  0  0  0  0  0  0
  -28.3220  -26.3830   20.2550 O   0  0  0  0  0  0  0  0  0  0  0  0
  -24.6200  -31.8870   23.2190 C   0  0  0  0  0  0  0  0  0  0  0  0
  -27.2410  -27.2920   20.1880 C   0  0  0  0  0  0  0  0  0  0  0  0
  -23.4260  -30.4780   21.5830 C   0  0  0  0  0  3  0  0  0  0  0  0
  -24.8820  -28.9270   20.1660 C   0  0  0  0  0  0  0  0  0  0  0  0
  -25.9690  -30.7920   21.4090 C   0  0  0  0  0  2  0  0  0  0  0  0
  -26.0520  -29.4090   20.7690 C   0  0  0  0  0  0  0  0  0  0  0  0
  -27.2360  -28.6020   20.7730 C   0  0  0  0  0  3  0  0  0  0  0  0
  -26.0500  -26.8880   19.5410 C   0  0  0  0  0  3  0  0  0  0  0  0
  -24.8850  -27.6730   19.5430 C   0  0  0  0  0  3  0  0  0  0  0  0
  -23.6450  -29.7980   20.2070 C   0  0  0  0  0  2  0  0  0  0  0  0
  -24.6900  -31.0720   22.1250 N   0  0  0  0  0  0  0  0  0  0  0  0
  -23.5350  -32.1620   23.7490 O   0  0  0  0  0  0  0  0  0  0  0  0
  -22.7630  -29.4650   22.5490 C   0  0  0  0  0  0  0  0  0  0  0  0
  -21.4360  -29.2870   22.4260 N   0  0  0  0  0  0  0  0  0  0  0  0
  -23.4420  -28.8420   23.3680 O   0  0  0  0  0  0  0  0  0  0  0  0
  -20.9450  -29.8410   21.7360 H   0  0  0  0  0  0  0  0  0  0  0  0
  -18.0540  -28.1100   22.9530 C   0  0  0  0  0  0  0  0  0  0  0  0
  -20.6180  -28.3530   23.2020 C   0  0  0  0  0  3  0  0  0  0  0  0
  -20.7060  -26.9220   22.6230 C   0  0  0  0  0  2  0  0  0  0  0  0
  -19.5950  -26.6060   21.6170 C   0  0  0  0  0  2  0  0  0  0  0  0
  -18.2180  -26.7630   22.2690 C   0  0  0  0  0  2  0  0  0  0  0  0
  -19.1820  -28.8640   23.3750 C   0  0  0  0  0  0  0  0  0  0  0  0
  -18.9760  -30.1270   23.9700 C   0  0  0  0  0  3  0  0  0  0  0  0
  -17.6760  -30.6380   24.1470 C   0  0  0  0  0  3  0  0  0  0  0  0
  -16.5630  -29.8800   23.7430 C   0  0  0  0  0  3  0  0  0  0  0  0
  -16.7530  -28.6180   23.1500 C   0  0  0  0  0  3  0  0  0  0  0  0
  -25.9010  -32.5270   23.8400 C   0  0  0  0  0  3  0  0  0  0  0  0
  -25.5860  -33.9260   24.1680 N   0  0  0  0  0  0  0  0  0  0  0  0
  -25.9170  -34.9790   23.4120 C   0  0  0  0  0  0  0  0  0  0  0  0
  -26.5880  -34.8800   22.3820 O   0  0  0  0  0  0  0  0  0  0  0  0
  -24.9960  -34.0780   24.9710 H   0  0  0  0  0  0  0  0  0  0  0  0
  -24.1900  -36.7690   23.0470 C   0  0  0  0  0  1  0  0  0  0  0  0
  -25.4230  -36.3670   23.8700 C   0  0  0  0  0  3  0  0  0  0  0  0
  -27.5480  -37.2510   24.7280 C   0  0  0  0  0  1  0  0  0  0  0  0
  -26.4560  -37.4210   23.7720 N   0  0  0  0  0  0  0  0  0  0  0  0
  -26.0470  -38.3400   23.9160 H   0  0  0  0  0  0  0  0  0  0  0  0
  -26.4170  -31.7620   25.1190 C   0  0  1  0  0  0  0  0  0  0  0  0
  -25.3270  -31.5390   26.1930 C   0  0  0  0  0  1  0  0  0  0  0  0
  -26.9940  -30.3800   24.7350 C   0  0  0  0  0  1  0  0  0  0  0  0
  -27.5750  -32.5560   25.7710 C   0  0  0  0  0  1  0  0  0  0  0  0
  -30.1770  -17.1960   19.5160 C   0  0  0  0  0  2  0  0  0  0  0  0
  -30.7940  -14.7530   20.0630 C   0  0  0  0  0  0  0  0  0  0  0  0
  -30.4460  -12.5390   18.9490 C   0  0  0  0  0  2  0  0  0  0  0  0
  -29.4490  -12.6900   17.7800 C   0  0  0  0  0  2  0  0  0  0  0  0
  -28.0050  -12.5080   18.2840 C   0  0  0  0  0  2  0  0  0  0  0  0
  -27.7080  -13.3460   19.5550 C   0  0  0  0  0  3  0  0  0  0  0  0
  -28.8240  -13.1970   20.6110 C   0  0  0  0  0  2  0  0  0  0  0  0
  -30.0960  -13.5620   19.9690 N   0  0  0  0  0  0  0  0  0  0  0  0
  -31.9250  -14.8190   19.5740 O   0  0  0  0  0  0  0  0  0  0  0  0
  -29.7550  -16.2200   21.7690 C   0  0  0  0  0  1  0  0  0  0  0  0
  -30.1300  -15.9390   20.3860 N   0  0  0  0  0  0  0  0  0  0  0  0
  -25.3500  -13.9270   20.3880 C   0  0  0  0  0  0  0  0  0  0  0  0
  -24.3010  -13.1480   20.7970 C   0  0  0  0  0  0  0  0  0  0  0  0
  -24.7620  -11.7960   20.7290 C   0  0  0  0  0  0  0  0  0  0  0  0
  -26.3840  -13.0510   20.1000 N   0  0  0  0  0  0  0  0  0  0  0  0
  -26.0390  -11.7640   20.3650 N   0  0  0  0  0  0  0  0  0  0  0  0
  -24.0430  -10.5310   20.9360 C   0  0  0  0  0  0  0  0  0  0  0  0
  -24.4930   -9.5700   21.8680 C   0  0  0  0  0  3  0  0  0  0  0  0
  -23.7730   -8.3710   22.0650 C   0  0  0  0  0  3  0  0  0  0  0  0
  -22.5900   -8.1240   21.3290 C   0  0  0  0  0  0  0  0  0  0  0  0
  -22.1570   -9.0740   20.3880 C   0  0  0  0  0  3  0  0  0  0  0  0
  -22.8780  -10.2650   20.1890 C   0  0  0  0  0  3  0  0  0  0  0  0
  -21.8420   -6.9760   21.4350 O   0  0  0  0  0  0  0  0  0  0  0  0
  -21.7840   -6.2590   22.6030 C   0  0  0  0  0  0  0  0  0  0  0  0
  -21.3280   -6.8350   23.8090 C   0  0  0  0  0  3  0  0  0  0  0  0
  -21.2190   -6.0440   24.9700 C   0  0  0  0  0  3  0  0  0  0  0  0
  -21.5560   -4.6760   24.9250 C   0  0  0  0  0  0  0  0  0  0  0  0
  -22.0060   -4.1000   23.7240 C   0  0  0  0  0  3  0  0  0  0  0  0
  -22.1170   -4.8900   22.5650 C   0  0  0  0  0  0  0  0  0  0  0  0
  -22.5290   -4.3240   21.4050 F   0  0  0  0  0  0  0  0  0  0  0  0
  -21.4450   -3.9140   26.0370 F   0  0  0  0  0  0  0  0  0  0  0  0
  -22.9170  -13.6200   21.1360 C   0  0  0  0  0  0  0  0  0  0  0  0
  -22.2310  -12.9170   22.0290 N   0  0  0  0  0  0  0  0  0  0  0  0
  -22.4550  -14.6510   20.6460 O   0  0  0  0  0  0  0  0  0  0  0  0
  -22.6160  -12.0810   22.4420 H   0  0  0  0  0  0  0  0  0  0  0  0
  -21.3060  -13.2160   22.3000 H   0  0  0  0  0  0  0  0  0  0  0  0
  -25.5080  -15.2980   20.2140 N   0  0  0  0  0  0  0  0  0  0  0  0
  -24.7500  -15.9580   20.3600 H   0  0  0  0  0  0  0  0  0  0  0  0
  -26.3460  -15.7320   19.8530 H   0  0  0  0  0  0  0  0  0  0  0  0
  1  6  1  0
  1  5  1  0
  2  1  2  0
  3  7  1  0
  3  6  2  0
  4 12  1  0
  7 10  1  0
  7  4  1  0
  8  4  2  0
  9  2  1  0
  9  3  1  0
 12 11  1  0
 13 12  1  0
 14 25  2  0
 15 13  1  0
 15 20  1  0
 16 24  1  0
 16 26  1  0
 17 23  1  0
 17 19  1  0
 18 24  1  0
 19 20  2  0
 19 18  1  0
 21 22  1  0
 21 15  2  0
 22 17  2  0
 23 16  1  0
 24 14  1  0
 26 28  2  0
 27 26  1  0
 29 27  1  0
 30 39  2  0
 30 35  1  0
 31 27  1  0
 31 35  1  0
 32 31  1  0
 33 34  1  0
 33 32  1  0
 34 30  1  0
 35 36  2  0
 36 37  1  0
 38 37  2  0
 39 38  1  0
 40 14  1  0
 40 41  1  0
 40 50  1  0
 41 44  1  0
 42 46  1  0
 42 41  1  0
 43 42  2  0
 46 45  1  0
 48 46  1  0
 48 49  1  0
 48 47  1  0
 50 53  1  1
 50 51  1  0
 52 50  1  0
 54  2  1  0
 54 64  1  0
 55 64  1  0
 56 61  1  0
 57 58  1  0
 57 56  1  0
 59 58  1  0
 59 68  1  0
 59 60  1  0
 61 55  1  0
 61 60  1  0
 62 55  2  0
 64 63  1  0
 65 66  2  0
 66 85  1  0
 67 66  1  0
 67 70  1  0
 68 69  1  0
 68 65  1  0
 69 67  2  0
 70 71  1  0
 71 72  2  0
 73 76  1  0
 73 72  1  0
 74 73  2  0
 75 74  1  0
 75 70  2  0
 76 77  1  0
 77 78  1  0
 78 79  2  0
 80 79  1  0
 80 84  1  0
 81 80  2  0
 82 77  2  0
 82 81  1  0
 83 82  1  0
 85 86  1  0
 86 89  1  0
 86 88  1  0
 87 85  2  0
 90 91  1  0
 90 65  1  0
 92 90  1  0
M  ISO  4  12 101  13 101  55 100  64 100
M  END
>  <TORSDO>  (44) 
F 18

>  <SCORE>  (44) 
-14.532

>  <name>  (44) 
44

>  <ligand_id>  (44) 
44

>  <original_smiles>  (44) 
[H]c1c([H])c([H])c2c(c1[H])C([H])([H])C([H])([H])C([H])([H])C2([H])N([H])C(=O)C1([H])N(C(=O)C([H])(N([H])C(=O)C([H])(N([H])C([H])([H])[H])C([H])([H])[H])C(C([H])([H])[H])(C([H])([H])[H])C([H])([H])[H])C([H])([H])c2c([H])c(OC([H])(C(=O)N([H])c3nc(C([H])([H])[H])c(C([H])([H])N(C(=O)N4C([H])([H])C([H])([H])C([H])([H])C([H])(n5nc(-c6c([H])c([H])c(Oc7c([H])c([H])c(F)c([H])c7F)c([H])c6[H])c(C(=O)N([H])[H])c5N([H])[H])C4([H])[H])C([H])([H])[H])s3)C([H])([H])[H])c([H])c([H])c2C1([H])[H]

>  <smiles>  (44) 
[H]c1c([H])c([H])c2c(c1[H])C([H])([H])C([H])([H])C([H])([H])C2([H])N([H])C(=O)C1([H])N(C(=O)C([H])(N([H])C(=O)C([H])(N([H])C([H])([H])[H])C([H])([H])[H])C(C([H])([H])[H])(C([H])([H])[H])C([H])([H])[H])C([H])([H])c2c([H])c(OC([H])(C(=O)N([H])c3nc(C([H])([H])[H])c(C([H])([H])N(C(=O)N4C([H])([H])C([H])([H])C([H])([H])C([H])(n5nc(-c6c([H])c([H])c(Oc7c([H])c([H])c(F)c([H])c7F)c([H])c6[H])c(C(=O)N([H])[H])c5N([H])[H])C4([H])[H])C([H])([H])[H])s3)C([H])([H])[H])c([H])c([H])c2C1([H])[H]

$$$$
45:0:0
     RDKit          3D

 93101  0  0  1  0  0  0  0  0999 V2000
  -30.6840  -19.1200   21.7580 C   0  0  0  0  0  3  0  0  0  0  0  0
  -29.9640  -18.7410   20.6490 C   0  0  0  0  0  0  0  0  0  0  0  0
  -29.5370  -21.1130   20.7310 C   0  0  0  0  0  0  0  0  0  0  0  0
  -29.1160  -23.7240   20.7270 C   0  0  0  0  0  0  0  0  0  0  0  0
  -29.2960  -19.9090   20.1080 N   0  0  0  0  0  0  0  0  0  0  0  0
  -28.8710  -22.3930   20.3930 N   0  0  0  0  0  0  0  0  0  0  0  0
  -30.2580  -24.0920   21.0180 O   0  0  0  0  0  0  0  0  0  0  0  0
  -30.6110  -20.8570   22.1040 S   0  0  0  0  0  0  0  0  0  0  0  0
  -27.9730  -22.2650   19.9510 H   0  0  0  0  0  0  0  0  0  0  0  0
  -29.9940  -17.3230   19.9340 C   0  0  0  0  0  2  0  0  0  0  0  0
  -30.5930  -14.8080   20.3590 C   0  0  0  0  0  0  0  0  0  0  0  0
  -30.3600  -12.5290   19.3560 C   0  0  0  0  0  2  0  0  0  0  0  0
  -29.4300  -12.6280   18.1260 C   0  0  0  0  0  2  0  0  0  0  0  0
  -27.9590  -12.4580   18.5530 C   0  0  0  0  0  2  0  0  0  0  0  0
  -27.5920  -13.3380   19.7780 C   0  0  0  0  0  3  0  0  0  0  0  0
  -28.6510  -13.2420   20.9020 C   0  0  0  0  0  2  0  0  0  0  0  0
  -29.9540  -13.5850   20.3170 N   0  0  0  0  0  0  0  0  0  0  0  0
  -31.7560  -14.8970   19.9580 O   0  0  0  0  0  0  0  0  0  0  0  0
  -29.8570  -15.9560   20.6190 N   0  0  0  0  0  0  0  0  0  0  0  0
  -28.9500  -15.7890   21.0250 H   0  0  0  0  0  0  0  0  0  0  0  0
  -25.2020  -13.9290   20.4980 C   0  0  0  0  0  0  0  0  0  0  0  0
  -24.1370  -13.1550   20.8760 C   0  0  0  0  0  0  0  0  0  0  0  0
  -24.6030  -11.8050   20.8570 C   0  0  0  0  0  0  0  0  0  0  0  0
  -26.2480  -13.0490   20.2710 N   0  0  0  0  0  0  0  0  0  0  0  0
  -25.8940  -11.7680   20.5480 N   0  0  0  0  0  0  0  0  0  0  0  0
  -23.8790  -10.5430   21.0600 C   0  0  0  0  0  0  0  0  0  0  0  0
  -24.3230   -9.5750   21.9870 C   0  0  0  0  0  3  0  0  0  0  0  0
  -23.5970   -8.3800   22.1760 C   0  0  0  0  0  3  0  0  0  0  0  0
  -22.4130   -8.1430   21.4390 C   0  0  0  0  0  0  0  0  0  0  0  0
  -21.9870   -9.1000   20.5020 C   0  0  0  0  0  3  0  0  0  0  0  0
  -22.7130  -10.2870   20.3100 C   0  0  0  0  0  3  0  0  0  0  0  0
  -21.6580   -6.9990   21.5370 O   0  0  0  0  0  0  0  0  0  0  0  0
  -21.6380   -6.2470   22.6840 C   0  0  0  0  0  0  0  0  0  0  0  0
  -21.2610   -6.7960   23.9290 C   0  0  0  0  0  3  0  0  0  0  0  0
  -21.1880   -5.9710   25.0700 C   0  0  0  0  0  3  0  0  0  0  0  0
  -21.4820   -4.5980   24.9660 C   0  0  0  0  0  0  0  0  0  0  0  0
  -21.8510   -4.0480   23.7260 C   0  0  0  0  0  3  0  0  0  0  0  0
  -21.9270   -4.8700   22.5880 C   0  0  0  0  0  0  0  0  0  0  0  0
  -22.2640   -4.3320   21.3910 F   0  0  0  0  0  0  0  0  0  0  0  0
  -21.4030   -3.8030   26.0580 F   0  0  0  0  0  0  0  0  0  0  0  0
  -22.7400  -13.6340   21.1430 C   0  0  0  0  0  0  0  0  0  0  0  0
  -22.0130  -12.9470   22.0160 N   0  0  0  0  0  0  0  0  0  0  0  0
  -22.3030  -14.6520   20.6090 O   0  0  0  0  0  0  0  0  0  0  0  0
  -22.3800  -12.1250   22.4700 H   0  0  0  0  0  0  0  0  0  0  0  0
  -21.0750  -13.2510   22.2340 H   0  0  0  0  0  0  0  0  0  0  0  0
  -25.3600  -15.2980   20.3080 N   0  0  0  0  0  0  0  0  0  0  0  0
  -24.5820  -15.9410   20.3970 H   0  0  0  0  0  0  0  0  0  0  0  0
  -26.2020  -15.7410   19.9610 H   0  0  0  0  0  0  0  0  0  0  0  0
  -27.9260  -24.8360   20.7520 C   0  0  0  0  0  3  0  0  0  0  0  0
  -26.4610  -23.6680   18.9170 C   0  0  0  0  0  1  0  0  0  0  0  0
  -26.0030  -23.1130   21.3640 C   0  0  0  0  0  1  0  0  0  0  0  0
  -26.5410  -24.1770   20.3760 C   0  0  0  0  0  3  0  0  0  0  0  0
  -28.2320  -26.2780   20.2790 O   0  0  0  0  0  0  0  0  0  0  0  0
  -24.6430  -31.9440   23.2500 C   0  0  0  0  0  0  0  0  0  0  0  0
  -27.2060  -27.2740   20.2240 C   0  0  0  0  0  0  0  0  0  0  0  0
  -23.4380  -30.5450   21.6190 C   0  0  0  0  0  3  0  0  0  0  0  0
  -24.8860  -28.9960   20.1890 C   0  0  0  0  0  0  0  0  0  0  0  0
  -25.9900  -30.8170   21.4600 C   0  0  0  0  0  2  0  0  0  0  0  0
  -26.0590  -29.4310   20.8200 C   0  0  0  0  0  0  0  0  0  0  0  0
  -27.2190  -28.5760   20.8470 C   0  0  0  0  0  3  0  0  0  0  0  0
  -26.0550  -27.0070   19.4530 C   0  0  0  0  0  3  0  0  0  0  0  0
  -24.8910  -27.7880   19.4900 C   0  0  0  0  0  3  0  0  0  0  0  0
  -23.6550  -29.8780   20.2390 C   0  0  0  0  0  2  0  0  0  0  0  0
  -24.7090  -31.1230   22.1630 N   0  0  0  0  0  0  0  0  0  0  0  0
  -23.5580  -32.2300   23.7790 O   0  0  0  0  0  0  0  0  0  0  0  0
  -22.7670  -29.5310   22.5770 C   0  0  0  0  0  0  0  0  0  0  0  0
  -21.4410  -29.3550   22.4490 N   0  0  0  0  0  0  0  0  0  0  0  0
  -23.4410  -28.9090   23.4030 O   0  0  0  0  0  0  0  0  0  0  0  0
  -20.9530  -29.9070   21.7570 H   0  0  0  0  0  0  0  0  0  0  0  0
  -18.0620  -28.1560   22.9480 C   0  0  0  0  0  0  0  0  0  0  0  0
  -20.6200  -28.4220   23.2240 C   0  0  0  0  0  3  0  0  0  0  0  0
  -20.7260  -26.9860   22.6620 C   0  0  0  0  0  2  0  0  0  0  0  0
  -19.6280  -26.6520   21.6470 C   0  0  0  0  0  2  0  0  0  0  0  0
  -18.2440  -26.8010   22.2840 C   0  0  0  0  0  2  0  0  0  0  0  0
  -19.1790  -28.9230   23.3750 C   0  0  0  0  0  0  0  0  0  0  0  0
  -18.9560  -30.1900   23.9560 C   0  0  0  0  0  3  0  0  0  0  0  0
  -17.6500  -30.6910   24.1130 C   0  0  0  0  0  3  0  0  0  0  0  0
  -16.5480  -29.9200   23.7020 C   0  0  0  0  0  3  0  0  0  0  0  0
  -16.7560  -28.6550   23.1250 C   0  0  0  0  0  3  0  0  0  0  0  0
  -25.9250  -32.5770   23.8690 C   0  0  0  0  0  3  0  0  0  0  0  0
  -26.4470  -31.8020   25.1410 C   0  0  1  0  0  0  0  0  0  0  0  0
  -25.3570  -31.5620   26.2110 C   0  0  0  0  0  1  0  0  0  0  0  0
  -27.0300  -30.4260   24.7480 C   0  0  0  0  0  1  0  0  0  0  0  0
  -27.5980  -32.5970   25.8010 C   0  0  0  0  0  1  0  0  0  0  0  0
  -25.6090  -33.9730   24.2060 N   0  0  0  0  0  0  0  0  0  0  0  0
  -25.9210  -35.0300   23.4450 C   0  0  0  0  0  0  0  0  0  0  0  0
  -26.5730  -34.9340   22.4020 O   0  0  0  0  0  0  0  0  0  0  0  0
  -25.0220  -34.1200   25.0140 H   0  0  0  0  0  0  0  0  0  0  0  0
  -24.1690  -36.8090   23.1400 C   0  0  0  0  0  1  0  0  0  0  0  0
  -25.4350  -36.4140   23.9170 C   0  0  0  0  0  3  0  0  0  0  0  0
  -27.5840  -37.3170   24.6860 C   0  0  0  0  0  1  0  0  0  0  0  0
  -26.4540  -37.4760   23.7760 N   0  0  0  0  0  0  0  0  0  0  0  0
  -26.0440  -38.3930   23.9340 H   0  0  0  0  0  0  0  0  0  0  0  0
  1  8  1  0
  2  1  2  0
  3  8  1  0
  4 49  1  0
  4  7  2  0
  5  2  1  0
  5  3  2  0
  6  4  1  0
  6  3  1  0
  9  6  1  0
 10 19  1  0
 10  2  1  0
 11 19  1  0
 12 17  1  0
 13 14  1  0
 13 12  1  0
 15 14  1  0
 15 24  1  0
 15 16  1  0
 17 11  1  0
 17 16  1  0
 18 11  2  0
 19 20  1  0
 21 22  2  0
 22 41  1  0
 23 22  1  0
 23 26  1  0
 24 21  1  0
 24 25  1  0
 25 23  2  0
 26 27  1  0
 27 28  2  0
 29 32  1  0
 29 28  1  0
 30 29  2  0
 31 30  1  0
 31 26  2  0
 32 33  1  0
 33 34  1  0
 34 35  2  0
 36 35  1  0
 36 40  1  0
 37 36  2  0
 38 33  2  0
 38 37  1  0
 39 38  1  0
 41 42  1  0
 42 45  1  0
 42 44  1  0
 43 41  2  0
 46 47  1  0
 46 21  1  0
 48 46  1  0
 49 53  1  0
 50 52  1  0
 52 49  1  0
 52 51  1  0
 54 65  2  0
 55 53  1  0
 55 60  1  0
 56 64  1  0
 56 66  1  0
 57 63  1  0
 57 59  1  0
 58 64  1  0
 59 60  2  0
 59 58  1  0
 61 62  1  0
 61 55  2  0
 62 57  2  0
 63 56  1  0
 64 54  1  0
 66 68  2  0
 67 66  1  0
 69 67  1  0
 70 79  2  0
 70 75  1  0
 71 67  1  0
 71 75  1  0
 72 71  1  0
 73 74  1  0
 73 72  1  0
 74 70  1  0
 75 76  2  0
 76 77  1  0
 78 77  2  0
 79 78  1  0
 80 54  1  0
 80 85  1  0
 80 81  1  0
 81 84  1  1
 81 82  1  0
 83 81  1  0
 85 88  1  0
 86 90  1  0
 86 85  1  0
 87 86  2  0
 90 89  1  0
 92 90  1  0
 92 93  1  0
 92 91  1  0
M  ISO  4  11 100  19 100  49 101  53 101
M  END
>  <TORSDO>  (45) 
F 19

>  <SCORE>  (45) 
-14.328

>  <name>  (45) 
45

>  <ligand_id>  (45) 
45

>  <original_smiles>  (45) 
[H]c1sc(N([H])C(=O)C([H])(Oc2c([H])c([H])c3c(c2[H])C([H])([H])N(C(=O)C([H])(N([H])C(=O)C([H])(N([H])C([H])([H])[H])C([H])([H])[H])C(C([H])([H])[H])(C([H])([H])[H])C([H])([H])[H])C([H])(C(=O)N([H])C2([H])c4c([H])c([H])c([H])c([H])c4C([H])([H])C([H])([H])C2([H])[H])C3([H])[H])C([H])(C([H])([H])[H])C([H])([H])[H])nc1C([H])([H])N([H])C(=O)N1C([H])([H])C([H])([H])C([H])([H])C([H])(n2nc(-c3c([H])c([H])c(Oc4c([H])c([H])c(F)c([H])c4F)c([H])c3[H])c(C(=O)N([H])[H])c2N([H])[H])C1([H])[H]

>  <smiles>  (45) 
[H]c1sc(N([H])C(=O)C([H])(Oc2c([H])c([H])c3c(c2[H])C([H])([H])N(C(=O)C([H])(N([H])C(=O)C([H])(N([H])C([H])([H])[H])C([H])([H])[H])C(C([H])([H])[H])(C([H])([H])[H])C([H])([H])[H])C([H])(C(=O)N([H])C2([H])c4c([H])c([H])c([H])c([H])c4C([H])([H])C([H])([H])C2([H])[H])C3([H])[H])C([H])(C([H])([H])[H])C([H])([H])[H])nc1C([H])([H])N([H])C(=O)N1C([H])([H])C([H])([H])C([H])([H])C([H])(n2nc(-c3c([H])c([H])c(Oc4c([H])c([H])c(F)c([H])c4F)c([H])c3[H])c(C(=O)N([H])[H])c2N([H])[H])C1([H])[H]

$$$$
46:0:0
     RDKit          3D

 94102  0  0  1  0  0  0  0  0999 V2000
  -28.7930  -20.6070   18.3360 C   0  0  0  0  0  1  0  0  0  0  0  0
  -30.2970  -22.2110   19.4910 C   0  0  0  0  0  1  0  0  0  0  0  0
  -28.9480  -21.4770   19.6100 C   0  0  1  0  0  0  0  0  0  0  0  0
  -26.9470  -22.7810   18.4350 C   0  0  0  0  0  1  0  0  0  0  0  0
  -27.7640  -22.5650   19.7310 C   0  0  0  0  0  3  0  0  0  0  0  0
  -28.0000  -23.9790   20.4330 C   0  0  0  0  0  3  0  0  0  0  0  0
  -28.4510  -25.2340   19.5810 C   0  0  0  0  0  3  0  0  0  0  0  0
  -28.3800  -26.5570   20.2090 O   0  0  0  0  0  0  0  0  0  0  0  0
  -24.6160  -31.8690   23.2470 C   0  0  0  0  0  0  0  0  0  0  0  0
  -27.2210  -27.3330   20.1740 C   0  0  0  0  0  0  0  0  0  0  0  0
  -23.4030  -30.4690   21.6110 C   0  0  0  0  0  3  0  0  0  0  0  0
  -24.8470  -28.9180   20.1800 C   0  0  0  0  0  0  0  0  0  0  0  0
  -25.9390  -30.7930   21.4180 C   0  0  0  0  0  2  0  0  0  0  0  0
  -26.0140  -29.4160   20.7710 C   0  0  0  0  0  0  0  0  0  0  0  0
  -27.2020  -28.6340   20.7610 C   0  0  0  0  0  3  0  0  0  0  0  0
  -26.0250  -26.8660   19.5850 C   0  0  0  0  0  3  0  0  0  0  0  0
  -24.8510  -27.6460   19.5830 C   0  0  0  0  0  3  0  0  0  0  0  0
  -23.6100  -29.7910   20.2320 C   0  0  0  0  0  2  0  0  0  0  0  0
  -24.6720  -31.0610   22.1490 N   0  0  0  0  0  0  0  0  0  0  0  0
  -23.5350  -32.1490   23.7840 O   0  0  0  0  0  0  0  0  0  0  0  0
  -22.7470  -29.4510   22.5730 C   0  0  0  0  0  0  0  0  0  0  0  0
  -21.4210  -29.2760   22.4510 N   0  0  0  0  0  0  0  0  0  0  0  0
  -23.4290  -28.8230   23.3880 O   0  0  0  0  0  0  0  0  0  0  0  0
  -20.9310  -29.8300   21.7600 H   0  0  0  0  0  0  0  0  0  0  0  0
  -18.0420  -28.0980   22.9600 C   0  0  0  0  0  0  0  0  0  0  0  0
  -20.6010  -28.3430   23.2240 C   0  0  0  0  0  3  0  0  0  0  0  0
  -20.6960  -26.9120   22.6460 C   0  0  0  0  0  2  0  0  0  0  0  0
  -19.5880  -26.5940   21.6360 C   0  0  0  0  0  2  0  0  0  0  0  0
  -18.2080  -26.7460   22.2840 C   0  0  0  0  0  2  0  0  0  0  0  0
  -19.1660  -28.8540   23.3870 C   0  0  0  0  0  0  0  0  0  0  0  0
  -18.9550  -30.1190   23.9770 C   0  0  0  0  0  3  0  0  0  0  0  0
  -17.6530  -30.6280   24.1460 C   0  0  0  0  0  3  0  0  0  0  0  0
  -16.5450  -29.8680   23.7360 C   0  0  0  0  0  3  0  0  0  0  0  0
  -16.7380  -28.6060   23.1500 C   0  0  0  0  0  3  0  0  0  0  0  0
  -25.9030  -32.4980   23.8640 C   0  0  0  0  0  3  0  0  0  0  0  0
  -26.4180  -31.7280   25.1430 C   0  0  1  0  0  0  0  0  0  0  0  0
  -25.3250  -31.4960   26.2110 C   0  0  0  0  0  1  0  0  0  0  0  0
  -26.9940  -30.3460   24.7540 C   0  0  0  0  0  1  0  0  0  0  0  0
  -27.5710  -32.5200   25.8020 C   0  0  0  0  0  1  0  0  0  0  0  0
  -25.5970  -33.8980   24.1910 N   0  0  0  0  0  0  0  0  0  0  0  0
  -25.9320  -34.9470   23.4280 C   0  0  0  0  0  0  0  0  0  0  0  0
  -26.6030  -34.8390   22.3980 O   0  0  0  0  0  0  0  0  0  0  0  0
  -24.9990  -34.0580   24.9890 H   0  0  0  0  0  0  0  0  0  0  0  0
  -24.2080  -36.7440   23.0670 C   0  0  0  0  0  1  0  0  0  0  0  0
  -25.4480  -36.3380   23.8810 C   0  0  0  0  0  3  0  0  0  0  0  0
  -27.5830  -37.2190   24.7120 C   0  0  0  0  0  1  0  0  0  0  0  0
  -26.4830  -37.3890   23.7670 N   0  0  0  0  0  0  0  0  0  0  0  0
  -26.0780  -38.3090   23.9140 H   0  0  0  0  0  0  0  0  0  0  0  0
  -28.9830  -20.5720   20.7900 N   0  0  0  0  0  0  0  0  0  0  0  0
  -29.2860  -21.1280   21.5860 H   0  0  0  0  0  0  0  0  0  0  0  0
  -30.5940  -14.5750   20.3040 C   0  0  0  0  0  0  0  0  0  0  0  0
  -30.3380  -12.3610   19.2210 C   0  0  0  0  0  2  0  0  0  0  0  0
  -29.3710  -12.5240   18.0290 C   0  0  0  0  0  2  0  0  0  0  0  0
  -27.9040  -12.3810   18.4810 C   0  0  0  0  0  2  0  0  0  0  0  0
  -27.5790  -13.2220   19.7470 C   0  0  0  0  0  3  0  0  0  0  0  0
  -28.6630  -13.0460   20.8350 C   0  0  0  0  0  2  0  0  0  0  0  0
  -29.9580  -13.3690   20.2220 N   0  0  0  0  0  0  0  0  0  0  0  0
  -31.7810  -14.7050   19.9930 O   0  0  0  0  0  0  0  0  0  0  0  0
  -29.6860  -19.3250   20.9290 C   0  0  0  0  0  3  0  0  0  0  0  0
  -30.7810  -19.1670   21.7570 C   0  0  0  0  0  0  0  0  0  0  0  0
  -30.0800  -17.0270   20.7290 C   0  0  0  0  0  0  0  0  0  0  0  0
  -29.2860  -18.0750   20.3790 N   0  0  0  0  0  0  0  0  0  0  0  0
  -29.7660  -15.6530   20.4260 N   0  0  0  0  0  0  0  0  0  0  0  0
  -31.5700  -20.3490   22.7690 S   0  0  0  0  0  0  0  0  0  0  0  0
  -31.4160  -17.5300   21.7540 S   0  0  0  0  0  0  0  0  0  0  0  0
  -28.7860  -15.4360   20.3840 H   0  0  0  0  0  0  0  0  0  0  0  0
  -25.2030  -13.8300   20.5100 C   0  0  0  0  0  0  0  0  0  0  0  0
  -24.1410  -13.0590   20.8980 C   0  0  0  0  0  0  0  0  0  0  0  0
  -24.6000  -11.7070   20.8590 C   0  0  0  0  0  0  0  0  0  0  0  0
  -26.2400  -12.9460   20.2570 N   0  0  0  0  0  0  0  0  0  0  0  0
  -25.8840  -11.6640   20.5270 N   0  0  0  0  0  0  0  0  0  0  0  0
  -23.8730  -10.4470   21.0550 C   0  0  0  0  0  0  0  0  0  0  0  0
  -24.3220   -9.4700   21.9700 C   0  0  0  0  0  3  0  0  0  0  0  0
  -23.5920   -8.2760   22.1580 C   0  0  0  0  0  3  0  0  0  0  0  0
  -22.4020   -8.0510   21.4280 C   0  0  0  0  0  0  0  0  0  0  0  0
  -21.9740   -9.0150   20.4980 C   0  0  0  0  0  3  0  0  0  0  0  0
  -22.7030  -10.2000   20.3100 C   0  0  0  0  0  3  0  0  0  0  0  0
  -21.6440   -6.9080   21.5210 O   0  0  0  0  0  0  0  0  0  0  0  0
  -21.6260   -6.1500   22.6640 C   0  0  0  0  0  0  0  0  0  0  0  0
  -21.2420   -6.6890   23.9100 C   0  0  0  0  0  3  0  0  0  0  0  0
  -21.1710   -5.8590   25.0460 C   0  0  0  0  0  3  0  0  0  0  0  0
  -21.4750   -4.4890   24.9370 C   0  0  0  0  0  0  0  0  0  0  0  0
  -21.8520   -3.9470   23.6950 C   0  0  0  0  0  3  0  0  0  0  0  0
  -21.9250   -4.7750   22.5610 C   0  0  0  0  0  0  0  0  0  0  0  0
  -22.2660   -4.2450   21.3630 F   0  0  0  0  0  0  0  0  0  0  0  0
  -21.4000   -3.6880   26.0270 F   0  0  0  0  0  0  0  0  0  0  0  0
  -22.7500  -13.5400   21.1930 C   0  0  0  0  0  0  0  0  0  0  0  0
  -22.0350  -12.8420   22.0690 N   0  0  0  0  0  0  0  0  0  0  0  0
  -22.3050  -14.5680   20.6830 O   0  0  0  0  0  0  0  0  0  0  0  0
  -22.4130  -12.0110   22.5000 H   0  0  0  0  0  0  0  0  0  0  0  0
  -21.1010  -13.1390   22.3080 H   0  0  0  0  0  0  0  0  0  0  0  0
  -25.3640  -15.2010   20.3310 N   0  0  0  0  0  0  0  0  0  0  0  0
  -24.5980  -15.8530   20.4630 H   0  0  0  0  0  0  0  0  0  0  0  0
  -26.1990  -15.6510   19.9750 H   0  0  0  0  0  0  0  0  0  0  0  0
  3  1  1  6
  2  3  1  0
  3  5  1  0
  3 49  1  0
  5  4  1  0
  5  6  1  0
  7  8  1  0
  7  6  2  0
  9 20  2  0
 10  8  1  0
 10 15  1  0
 11 19  1  0
 11 21  1  0
 12 18  1  0
 12 14  1  0
 13 19  1  0
 14 13  1  0
 15 14  2  0
 16 10  2  0
 17 16  1  0
 17 12  2  0
 18 11  1  0
 19  9  1  0
 21 23  2  0
 22 21  1  0
 24 22  1  0
 25 34  2  0
 25 30  1  0
 26 22  1  0
 26 30  1  0
 27 26  1  0
 28 29  1  0
 28 27  1  0
 29 25  1  0
 30 31  2  0
 31 32  1  0
 33 32  2  0
 34 33  1  0
 35  9  1  0
 35 40  1  0
 35 36  1  0
 36 39  1  1
 36 37  1  0
 38 36  1  0
 40 43  1  0
 41 45  1  0
 41 40  1  0
 42 41  2  0
 45 44  1  0
 47 45  1  0
 47 48  1  0
 47 46  1  0
 49 50  1  0
 51 63  1  0
 52 57  1  0
 53 54  1  0
 53 52  1  0
 55 54  1  0
 55 70  1  0
 55 56  1  0
 57 51  1  0
 57 56  1  0
 58 51  2  0
 59 49  1  0
 59 60  1  0
 60 64  2  0
 61 65  1  0
 62 61  2  0
 62 59  1  0
 63 61  1  0
 65 60  1  0
 66 63  1  0
 67 68  2  0
 68 87  1  0
 69 68  1  0
 69 72  1  0
 70 67  1  0
 70 71  1  0
 71 69  2  0
 72 73  1  0
 73 74  2  0
 75 78  1  0
 75 74  1  0
 76 75  2  0
 77 76  1  0
 77 72  2  0
 78 79  1  0
 79 80  1  0
 80 81  2  0
 82 81  1  0
 82 86  1  0
 83 82  2  0
 84 79  2  0
 84 83  1  0
 85 84  1  0
 87 88  1  0
 88 91  1  0
 88 90  1  0
 89 87  2  0
 92 93  1  0
 92 67  1  0
 94 92  1  0
M  ISO  4   7 101   8 101  51 100  63 100
M  END
>  <TORSDO>  (46) 
F 20

>  <SCORE>  (46) 
-13.959

>  <name>  (46) 
46

>  <ligand_id>  (46) 
46

>  <original_smiles>  (46) 
[H]c1c([H])c([H])c2c(c1[H])C([H])([H])C([H])([H])C([H])([H])C2([H])N([H])C(=O)C1([H])N(C(=O)C([H])(N([H])C(=O)C([H])(N([H])C([H])([H])[H])C([H])([H])[H])C(C([H])([H])[H])(C([H])([H])[H])C([H])([H])[H])C([H])([H])c2c([H])c(OC([H])([H])C([H])([H])C([H])(C([H])([H])[H])C(N([H])c3nc(N([H])C(=O)N4C([H])([H])C([H])([H])C([H])([H])C([H])(n5nc(-c6c([H])c([H])c(Oc7c([H])c([H])c(F)c([H])c7F)c([H])c6[H])c(C(=O)N([H])[H])c5N([H])[H])C4([H])[H])sc3[S-])(C([H])([H])[H])C([H])([H])[H])c([H])c([H])c2C1([H])[H]

>  <smiles>  (46) 
[H]c1c([H])c([H])c2c(c1[H])C([H])([H])C([H])([H])C([H])([H])C2([H])N([H])C(=O)C1([H])N(C(=O)C([H])(N([H])C(=O)C([H])(N([H])C([H])([H])[H])C([H])([H])[H])C(C([H])([H])[H])(C([H])([H])[H])C([H])([H])[H])C([H])([H])c2c([H])c(OC([H])([H])C([H])([H])C([H])(C([H])([H])[H])C(N([H])c3nc(N([H])C(=O)N4C([H])([H])C([H])([H])C([H])([H])C([H])(n5nc(-c6c([H])c([H])c(Oc7c([H])c([H])c(F)c([H])c7F)c([H])c6[H])c(C(=O)N([H])[H])c5N([H])[H])C4([H])[H])sc3[S-])(C([H])([H])[H])C([H])([H])[H])c([H])c([H])c2C1([H])[H]

$$$$
47:0:0
     RDKit          3D

 99107  0  0  1  0  0  0  0  0999 V2000
  -30.9190  -21.0660   18.6300 C   0  0  0  0  0  0  0  0  0  0  0  0
  -30.7630  -19.7530   18.3660 N   0  0  0  0  0  0  0  0  0  0  0  0
  -30.8500  -21.5280   19.7710 O   0  0  0  0  0  0  0  0  0  0  0  0
  -30.9370  -19.4490   17.4180 H   0  0  0  0  0  0  0  0  0  0  0  0
  -31.4800  -14.7900   20.8150 C   0  0  0  0  0  0  0  0  0  0  0  0
  -31.3130  -12.4200   20.1410 C   0  0  0  0  0  2  0  0  0  0  0  0
  -30.5690  -12.3460   18.7920 C   0  0  0  0  0  2  0  0  0  0  0  0
  -29.0430  -12.2930   19.0100 C   0  0  0  0  0  2  0  0  0  0  0  0
  -28.5380  -13.3920   19.9840 C   0  0  0  0  0  3  0  0  0  0  0  0
  -29.4060  -13.4210   21.2620 C   0  0  0  0  0  2  0  0  0  0  0  0
  -30.8180  -13.6000   20.8640 N   0  0  0  0  0  0  0  0  0  0  0  0
  -32.6140  -14.9120   20.3320 O   0  0  0  0  0  0  0  0  0  0  0  0
  -28.9100  -18.6000   19.4650 C   0  0  0  0  0  0  0  0  0  0  0  0
  -30.2630  -18.7740   19.2650 C   0  0  0  0  0  0  0  0  0  0  0  0
  -30.3370  -16.9470   20.6170 C   0  0  0  0  0  0  0  0  0  0  0  0
  -31.0750  -17.7940   19.8790 N   0  0  0  0  0  0  0  0  0  0  0  0
  -30.8180  -15.8260   21.3470 N   0  0  0  0  0  0  0  0  0  0  0  0
  -28.6300  -17.3320   20.6280 S   0  0  0  0  0  0  0  0  0  0  0  0
  -30.1180  -15.4870   21.9880 H   0  0  0  0  0  0  0  0  0  0  0  0
  -26.1070  -14.1760   20.3380 C   0  0  0  0  0  0  0  0  0  0  0  0
  -24.9550  -13.4930   20.6150 C   0  0  0  0  0  0  0  0  0  0  0  0
  -25.3270  -12.1170   20.6970 C   0  0  0  0  0  0  0  0  0  0  0  0
  -27.1180  -13.2270   20.2920 N   0  0  0  0  0  0  0  0  0  0  0  0
  -26.6400  -11.9840   20.5550 N   0  0  0  0  0  0  0  0  0  0  0  0
  -24.4980  -10.9170   20.8470 C   0  0  0  0  0  0  0  0  0  0  0  0
  -25.0160   -9.7240   21.3970 C   0  0  0  0  0  3  0  0  0  0  0  0
  -24.1910   -8.5880   21.5460 C   0  0  0  0  0  3  0  0  0  0  0  0
  -22.8340   -8.6390   21.1490 C   0  0  0  0  0  0  0  0  0  0  0  0
  -22.3310   -9.8210   20.5800 C   0  0  0  0  0  3  0  0  0  0  0  0
  -23.1540  -10.9480   20.4260 C   0  0  0  0  0  3  0  0  0  0  0  0
  -21.9670   -7.5750   21.2320 O   0  0  0  0  0  0  0  0  0  0  0  0
  -22.1500   -6.5670   22.1450 C   0  0  0  0  0  0  0  0  0  0  0  0
  -22.3440   -6.8300   23.5200 C   0  0  0  0  0  3  0  0  0  0  0  0
  -22.4580   -5.7600   24.4310 C   0  0  0  0  0  3  0  0  0  0  0  0
  -22.3720   -4.4330   23.9730 C   0  0  0  0  0  0  0  0  0  0  0  0
  -22.1740   -4.1710   22.6070 C   0  0  0  0  0  3  0  0  0  0  0  0
  -22.0600   -5.2340   21.6960 C   0  0  0  0  0  0  0  0  0  0  0  0
  -21.8490   -4.9770   20.3810 F   0  0  0  0  0  0  0  0  0  0  0  0
  -22.4740   -3.4060   24.8480 F   0  0  0  0  0  0  0  0  0  0  0  0
  -23.5720  -14.0720   20.6990 C   0  0  0  0  0  0  0  0  0  0  0  0
  -22.7330  -13.5300   21.5730 N   0  0  0  0  0  0  0  0  0  0  0  0
  -23.2450  -15.0480   20.0240 O   0  0  0  0  0  0  0  0  0  0  0  0
  -23.0070  -12.7420   22.1410 H   0  0  0  0  0  0  0  0  0  0  0  0
  -21.8040  -13.9130   21.6770 H   0  0  0  0  0  0  0  0  0  0  0  0
  -26.3650  -15.5180   20.1000 N   0  0  0  0  0  0  0  0  0  0  0  0
  -25.6270  -16.2120   20.1010 H   0  0  0  0  0  0  0  0  0  0  0  0
  -27.2670  -15.9030   19.8610 H   0  0  0  0  0  0  0  0  0  0  0  0
  -27.7530  -19.2750   18.7730 C   0  0  0  0  0  2  0  0  0  0  0  0
  -26.4120  -20.4640   20.5780 C   0  0  0  0  0  1  0  0  0  0  0  0
  -28.4480  -21.6010   19.6370 C   0  0  0  0  0  1  0  0  0  0  0  0
  -26.3820  -21.3180   18.2430 C   0  0  0  0  0  1  0  0  0  0  0  0
  -27.2740  -20.6560   19.3120 C   0  0  1  0  0  0  0  0  0  0  0  0
  -32.7440  -21.7570   17.0450 C   0  0  0  0  0  1  0  0  0  0  0  0
  -31.2680  -21.9830   17.4280 C   0  0  0  0  0  3  0  0  0  0  0  0
  -31.0140  -23.5130   17.6430 C   0  0  0  0  0  2  0  0  0  0  0  0
  -29.5440  -23.9950   17.7750 C   0  0  0  0  0  3  0  0  0  0  0  0
  -28.7800  -22.9480   18.0850 F   0  0  0  0  0  0  0  0  0  0  0  0
  -29.3230  -25.0680   18.8800 C   0  0  0  0  0  2  0  0  0  0  0  0
  -29.2920  -26.4320   18.4250 O   0  0  0  0  0  0  0  0  0  0  0  0
  -25.3050  -30.1460   23.0530 C   0  0  0  0  0  0  0  0  0  0  0  0
  -28.1190  -27.1150   18.6720 C   0  0  0  0  0  0  0  0  0  0  0  0
  -24.1850  -29.4690   20.9510 C   0  0  0  0  0  3  0  0  0  0  0  0
  -25.7150  -28.5340   19.1330 C   0  0  0  0  0  0  0  0  0  0  0  0
  -26.7170  -29.8330   21.0210 C   0  0  0  0  0  2  0  0  0  0  0  0
  -26.8410  -28.7930   19.9240 C   0  0  0  0  0  0  0  0  0  0  0  0
  -28.0480  -28.0950   19.6910 C   0  0  0  0  0  3  0  0  0  0  0  0
  -26.9760  -26.8600   17.8890 C   0  0  0  0  0  3  0  0  0  0  0  0
  -25.7760  -27.5650   18.1140 C   0  0  0  0  0  3  0  0  0  0  0  0
  -24.4680  -29.3370   19.4300 C   0  0  0  0  0  2  0  0  0  0  0  0
  -25.4180  -29.8090   21.7350 N   0  0  0  0  0  0  0  0  0  0  0  0
  -24.1970  -30.2170   23.6020 O   0  0  0  0  0  0  0  0  0  0  0  0
  -23.4870  -28.1800   21.4360 C   0  0  0  0  0  0  0  0  0  0  0  0
  -22.1580  -28.1140   21.2520 N   0  0  0  0  0  0  0  0  0  0  0  0
  -24.1370  -27.2580   21.9340 O   0  0  0  0  0  0  0  0  0  0  0  0
  -21.6960  -28.9160   20.8460 H   0  0  0  0  0  0  0  0  0  0  0  0
  -18.7430  -26.9320   21.2060 C   0  0  0  0  0  0  0  0  0  0  0  0
  -21.2990  -26.9800   21.5900 C   0  0  0  0  0  3  0  0  0  0  0  0
  -21.3790  -25.8760   20.5100 C   0  0  0  0  0  2  0  0  0  0  0  0
  -20.2960  -26.0050   19.4350 C   0  0  0  0  0  2  0  0  0  0  0  0
  -18.9020  -25.9390   20.0650 C   0  0  0  0  0  2  0  0  0  0  0  0
  -19.8700  -27.4330   21.9100 C   0  0  0  0  0  0  0  0  0  0  0  0
  -19.6700  -28.3790   22.9380 C   0  0  0  0  0  3  0  0  0  0  0  0
  -18.3760  -28.8250   23.2650 C   0  0  0  0  0  3  0  0  0  0  0  0
  -17.2630  -28.3140   22.5750 C   0  0  0  0  0  3  0  0  0  0  0  0
  -17.4480  -27.3670   21.5520 C   0  0  0  0  0  3  0  0  0  0  0  0
  -26.5580  -30.4790   23.9230 C   0  0  0  0  0  3  0  0  0  0  0  0
  -26.2610  -31.7080   24.6730 N   0  0  0  0  0  0  0  0  0  0  0  0
  -26.7380  -32.9210   24.3620 C   0  0  0  0  0  0  0  0  0  0  0  0
  -27.5390  -33.1100   23.4430 O   0  0  0  0  0  0  0  0  0  0  0  0
  -25.5720  -31.6340   25.4060 H   0  0  0  0  0  0  0  0  0  0  0  0
  -25.1900  -34.9020   24.4100 C   0  0  0  0  0  1  0  0  0  0  0  0
  -26.2450  -34.1140   25.2030 C   0  0  0  0  0  3  0  0  0  0  0  0
  -28.2310  -34.4290   26.6130 C   0  0  0  0  0  1  0  0  0  0  0  0
  -27.3320  -35.0230   25.6280 N   0  0  0  0  0  0  0  0  0  0  0  0
  -26.9520  -35.8800   26.0200 H   0  0  0  0  0  0  0  0  0  0  0  0
  -26.9630  -29.3110   24.9030 C   0  0  1  0  0  0  0  0  0  0  0  0
  -25.7890  -28.7840   25.7610 C   0  0  0  0  0  1  0  0  0  0  0  0
  -27.5450  -28.1160   24.1120 C   0  0  0  0  0  1  0  0  0  0  0  0
  -28.0750  -29.7930   25.8620 C   0  0  0  0  0  1  0  0  0  0  0  0
  1  3  2  0
  2  1  1  0
  2 14  1  0
  4  2  1  0
  5 11  1  0
  5 17  1  0
  6 11  1  0
  7  8  1  0
  7  6  1  0
  9  8  1  0
  9 23  1  0
  9 10  1  0
 11 10  1  0
 12  5  2  0
 13 18  1  0
 14 13  2  0
 14 16  1  0
 15 18  1  0
 15 17  1  0
 16 15  2  0
 17 19  1  0
 20 21  2  0
 21 22  1  0
 21 40  1  0
 22 25  1  0
 23 20  1  0
 23 24  1  0
 24 22  2  0
 25 26  1  0
 26 27  2  0
 28 31  1  0
 28 27  1  0
 29 28  2  0
 30 29  1  0
 30 25  2  0
 31 32  1  0
 32 33  1  0
 33 34  2  0
 35 34  1  0
 35 39  1  0
 36 35  2  0
 37 32  2  0
 37 36  1  0
 38 37  1  0
 40 41  1  0
 41 44  1  0
 41 43  1  0
 42 40  2  0
 45 46  1  0
 45 20  1  0
 47 45  1  0
 48 52  1  0
 48 13  1  0
 52 51  1  6
 52 50  1  0
 52 49  1  0
 54 53  1  0
 54 55  1  0
 54  1  1  0
 55 56  1  0
 56 57  1  0
 56 58  1  0
 59 61  1  0
 59 58  1  0
 60 71  2  0
 61 66  1  0
 62 72  1  0
 62 70  1  0
 63 69  1  0
 63 65  1  0
 64 70  1  0
 65 64  1  0
 66 65  2  0
 67 68  1  0
 67 61  2  0
 68 63  2  0
 69 62  1  0
 70 60  1  0
 72 74  2  0
 73 72  1  0
 75 73  1  0
 76 85  2  0
 76 81  1  0
 77 73  1  0
 77 81  1  0
 78 77  1  0
 79 80  1  0
 79 78  1  0
 80 76  1  0
 81 82  2  0
 82 83  1  0
 84 83  2  0
 85 84  1  0
 86 60  1  0
 86 87  1  0
 86 96  1  0
 87 90  1  0
 88 87  1  0
 88 92  1  0
 89 88  2  0
 92 91  1  0
 92 94  1  0
 94 95  1  0
 94 93  1  0
 96 97  1  1
 96 99  1  0
 98 96  1  0
M  ISO  4   5 100  17 100  58 101  59 101
M  END
>  <TORSDO>  (47) 
F 22

>  <SCORE>  (47) 
-7.257

>  <name>  (47) 
47

>  <ligand_id>  (47) 
47

>  <original_smiles>  (47) 
[H]c1c([H])c([H])c2c(c1[H])C([H])([H])C([H])([H])C([H])([H])C2([H])N([H])C(=O)C1([H])N(C(=O)C([H])(N([H])C(=O)C([H])(N([H])C([H])([H])[H])C([H])([H])[H])C(C([H])([H])[H])(C([H])([H])[H])C([H])([H])[H])C([H])([H])c2c([H])c(OC([H])([H])C([H])(F)C([H])([H])C([H])(C(=O)N([H])c3nc(N([H])C(=O)N4C([H])([H])C([H])([H])C([H])([H])C([H])(n5nc(-c6c([H])c([H])c(Oc7c([H])c([H])c(F)c([H])c7F)c([H])c6[H])c(C(=O)N([H])[H])c5N([H])[H])C4([H])[H])sc3C([H])([H])C(C([H])([H])[H])(C([H])([H])[H])C([H])([H])[H])C([H])([H])[H])c([H])c([H])c2C1([H])[H]

>  <smiles>  (47) 
[H]c1c([H])c([H])c2c(c1[H])C([H])([H])C([H])([H])C([H])([H])C2([H])N([H])C(=O)C1([H])N(C(=O)C([H])(N([H])C(=O)C([H])(N([H])C([H])([H])[H])C([H])([H])[H])C(C([H])([H])[H])(C([H])([H])[H])C([H])([H])[H])C([H])([H])c2c([H])c(OC([H])([H])C([H])(F)C([H])([H])C([H])(C(=O)N([H])c3nc(N([H])C(=O)N4C([H])([H])C([H])([H])C([H])([H])C([H])(n5nc(-c6c([H])c([H])c(Oc7c([H])c([H])c(F)c([H])c7F)c([H])c6[H])c(C(=O)N([H])[H])c5N([H])[H])C4([H])[H])sc3C([H])([H])C(C([H])([H])[H])(C([H])([H])[H])C([H])([H])[H])C([H])([H])[H])c([H])c([H])c2C1([H])[H]

$$$$
48:0:0
     RDKit          3D

 92100  0  0  1  0  0  0  0  0999 V2000
  -28.9020  -19.1480   20.1380 C   0  0  0  0  0  0  0  0  0  0  0  0
  -30.2250  -18.7700   19.9440 C   0  0  0  0  0  0  0  0  0  0  0  0
  -29.7240  -21.3330   19.9120 C   0  0  0  0  0  0  0  0  0  0  0  0
  -28.9090  -23.8650   20.0240 C   0  0  0  0  0  0  0  0  0  0  0  0
  -27.7610  -18.2150   20.4010 C   0  0  0  0  0  1  0  0  0  0  0  0
  -28.6400  -20.5590   20.1130 N   0  0  0  0  0  0  0  0  0  0  0  0
  -29.7880  -22.8100   19.8380 N   0  0  0  0  0  0  0  0  0  0  0  0
  -27.7440  -23.7000   20.3920 O   0  0  0  0  0  0  0  0  0  0  0  0
  -31.1560  -20.2750   19.7040 S   0  0  0  0  0  0  0  0  0  0  0  0
  -30.7090  -23.1360   19.5840 H   0  0  0  0  0  0  0  0  0  0  0  0
  -29.5940  -25.6660   18.2430 C   0  0  0  0  0  1  0  0  0  0  0  0
  -29.4430  -25.3550   19.7450 C   0  0  0  0  0  3  0  0  0  0  0  0
  -28.9640  -26.5180   20.5680 O   0  0  0  0  0  0  0  0  0  0  0  0
  -24.8050  -31.7700   23.2630 C   0  0  0  0  0  0  0  0  0  0  0  0
  -27.8010  -27.2960   20.3950 C   0  0  0  0  0  0  0  0  0  0  0  0
  -23.7770  -30.3360   21.5350 C   0  0  0  0  0  3  0  0  0  0  0  0
  -25.3830  -28.8380   20.2140 C   0  0  0  0  0  0  0  0  0  0  0  0
  -26.3100  -30.7400   21.5390 C   0  0  0  0  0  2  0  0  0  0  0  0
  -26.4860  -29.3670   20.8940 C   0  0  0  0  0  0  0  0  0  0  0  0
  -27.6930  -28.6060   20.9730 C   0  0  0  0  0  3  0  0  0  0  0  0
  -26.6620  -26.8130   19.7160 C   0  0  0  0  0  3  0  0  0  0  0  0
  -25.4750  -27.5700   19.6170 C   0  0  0  0  0  3  0  0  0  0  0  0
  -24.1160  -29.6720   20.1730 C   0  0  0  0  0  2  0  0  0  0  0  0
  -24.9780  -30.9680   22.1700 N   0  0  0  0  0  0  0  0  0  0  0  0
  -23.6750  -32.0060   23.7160 O   0  0  0  0  0  0  0  0  0  0  0  0
  -23.0810  -29.2940   22.4430 C   0  0  0  0  0  0  0  0  0  0  0  0
  -21.7570  -29.1280   22.2710 N   0  0  0  0  0  0  0  0  0  0  0  0
  -23.7310  -28.6390   23.2610 O   0  0  0  0  0  0  0  0  0  0  0  0
  -21.2920  -29.7090   21.5880 H   0  0  0  0  0  0  0  0  0  0  0  0
  -18.3410  -28.0400   22.7510 C   0  0  0  0  0  0  0  0  0  0  0  0
  -20.9130  -28.1700   22.9860 C   0  0  0  0  0  3  0  0  0  0  0  0
  -20.9420  -26.7830   22.3020 C   0  0  0  0  0  2  0  0  0  0  0  0
  -19.8100  -26.5850   21.2890 C   0  0  0  0  0  2  0  0  0  0  0  0
  -18.4470  -26.7390   21.9710 C   0  0  0  0  0  2  0  0  0  0  0  0
  -19.4990  -28.7190   23.2140 C   0  0  0  0  0  0  0  0  0  0  0  0
  -19.3460  -29.9410   23.9030 C   0  0  0  0  0  3  0  0  0  0  0  0
  -18.0670  -30.4820   24.1350 C   0  0  0  0  0  3  0  0  0  0  0  0
  -16.9240  -29.7980   23.6860 C   0  0  0  0  0  3  0  0  0  0  0  0
  -17.0620  -28.5780   23.0000 C   0  0  0  0  0  3  0  0  0  0  0  0
  -26.0120  -32.4460   23.9810 C   0  0  0  0  0  3  0  0  0  0  0  0
  -25.6390  -33.8390   24.2660 N   0  0  0  0  0  0  0  0  0  0  0  0
  -25.9840  -34.8910   23.5130 C   0  0  0  0  0  0  0  0  0  0  0  0
  -26.7190  -34.7950   22.5260 O   0  0  0  0  0  0  0  0  0  0  0  0
  -24.9930  -33.9860   25.0280 H   0  0  0  0  0  0  0  0  0  0  0  0
  -24.2140  -36.6140   23.0390 C   0  0  0  0  0  1  0  0  0  0  0  0
  -25.4270  -36.2700   23.9180 C   0  0  0  0  0  3  0  0  0  0  0  0
  -27.4760  -37.2580   24.8440 C   0  0  0  0  0  1  0  0  0  0  0  0
  -26.4250  -37.3570   23.8340 N   0  0  0  0  0  0  0  0  0  0  0  0
  -25.9780  -38.2650   23.9300 H   0  0  0  0  0  0  0  0  0  0  0  0
  -26.4410  -31.7060   25.3080 C   0  0  1  0  0  0  0  0  0  0  0  0
  -25.2630  -31.4230   26.2700 C   0  0  0  0  0  1  0  0  0  0  0  0
  -27.1200  -30.3550   24.9840 C   0  0  0  0  0  1  0  0  0  0  0  0
  -27.4860  -32.5550   26.0690 C   0  0  0  0  0  1  0  0  0  0  0  0
  -31.0080  -17.3950   20.0220 C   0  0  0  0  0  2  0  0  0  0  0  0
  -31.1130  -14.8220   20.0410 C   0  0  0  0  0  0  0  0  0  0  0  0
  -30.8220  -12.5360   19.0890 C   0  0  0  0  0  2  0  0  0  0  0  0
  -29.8590  -12.6060   17.8860 C   0  0  0  0  0  2  0  0  0  0  0  0
  -28.3970  -12.4740   18.3560 C   0  0  0  0  0  2  0  0  0  0  0  0
  -28.0720  -13.3930   19.5640 C   0  0  0  0  0  3  0  0  0  0  0  0
  -29.1570  -13.3170   20.6590 C   0  0  0  0  0  2  0  0  0  0  0  0
  -30.4410  -13.6220   20.0200 N   0  0  0  0  0  0  0  0  0  0  0  0
  -32.2970  -14.8620   19.6950 O   0  0  0  0  0  0  0  0  0  0  0  0
  -30.4110  -16.0050   20.2240 N   0  0  0  0  0  0  0  0  0  0  0  0
  -29.4300  -15.9350   20.4470 H   0  0  0  0  0  0  0  0  0  0  0  0
  -25.7310  -14.0410   20.3850 C   0  0  0  0  0  0  0  0  0  0  0  0
  -24.6560  -13.2920   20.7790 C   0  0  0  0  0  0  0  0  0  0  0  0
  -25.0770  -11.9290   20.7080 C   0  0  0  0  0  0  0  0  0  0  0  0
  -26.7380  -13.1360   20.0970 N   0  0  0  0  0  0  0  0  0  0  0  0
  -26.3540  -11.8580   20.3550 N   0  0  0  0  0  0  0  0  0  0  0  0
  -24.3170  -10.6860   20.8980 C   0  0  0  0  0  0  0  0  0  0  0  0
  -24.6940   -9.7320   21.8700 C   0  0  0  0  0  3  0  0  0  0  0  0
  -23.9370   -8.5550   22.0480 C   0  0  0  0  0  3  0  0  0  0  0  0
  -22.7890   -8.3220   21.2530 C   0  0  0  0  0  0  0  0  0  0  0  0
  -22.4320   -9.2630   20.2710 C   0  0  0  0  0  3  0  0  0  0  0  0
  -23.1900  -10.4320   20.0920 C   0  0  0  0  0  3  0  0  0  0  0  0
  -22.0070   -7.1950   21.3370 O   0  0  0  0  0  0  0  0  0  0  0  0
  -21.8320   -6.5270   22.5230 C   0  0  0  0  0  0  0  0  0  0  0  0
  -21.2010   -7.1320   23.6320 C   0  0  0  0  0  3  0  0  0  0  0  0
  -20.9800   -6.3880   24.8090 C   0  0  0  0  0  3  0  0  0  0  0  0
  -21.3790   -5.0400   24.8750 C   0  0  0  0  0  0  0  0  0  0  0  0
  -22.0020   -4.4350   23.7700 C   0  0  0  0  0  3  0  0  0  0  0  0
  -22.2250   -5.1760   22.5960 C   0  0  0  0  0  0  0  0  0  0  0  0
  -22.8070   -4.5820   21.5260 F   0  0  0  0  0  0  0  0  0  0  0  0
  -21.1590   -4.3220   26.0010 F   0  0  0  0  0  0  0  0  0  0  0  0
  -23.2850  -13.8070   21.1040 C   0  0  0  0  0  0  0  0  0  0  0  0
  -22.5780  -13.1380   22.0080 N   0  0  0  0  0  0  0  0  0  0  0  0
  -22.8500  -14.8370   20.5900 O   0  0  0  0  0  0  0  0  0  0  0  0
  -22.9430  -12.3050   22.4450 H   0  0  0  0  0  0  0  0  0  0  0  0
  -21.6590  -13.4650   22.2700 H   0  0  0  0  0  0  0  0  0  0  0  0
  -25.9300  -15.4090   20.2210 N   0  0  0  0  0  0  0  0  0  0  0  0
  -25.1750  -16.0740   20.3430 H   0  0  0  0  0  0  0  0  0  0  0  0
  -26.7520  -15.8170   19.7960 H   0  0  0  0  0  0  0  0  0  0  0  0
  1  5  1  0
  2 54  1  0
  2  1  2  0
  3  6  2  0
  4  8  2  0
  6  1  1  0
  7  3  1  0
  7  4  1  0
  9  3  1  0
  9  2  1  0
 10  7  1  0
 12 11  1  0
 12  4  1  0
 12 13  1  0
 14 25  2  0
 15 13  1  0
 15 20  1  0
 16 24  1  0
 16 26  1  0
 17 19  1  0
 18 24  1  0
 19 20  2  0
 19 18  1  0
 21 15  2  0
 22 21  1  0
 22 17  2  0
 23 17  1  0
 23 16  1  0
 24 14  1  0
 26 28  2  0
 27 26  1  0
 29 27  1  0
 30 39  2  0
 30 35  1  0
 31 27  1  0
 31 35  1  0
 32 31  1  0
 33 34  1  0
 33 32  1  0
 34 30  1  0
 35 36  2  0
 36 37  1  0
 38 37  2  0
 39 38  1  0
 40 14  1  0
 40 41  1  0
 40 50  1  0
 41 44  1  0
 42 46  1  0
 42 41  1  0
 43 42  2  0
 46 45  1  0
 48 46  1  0
 48 49  1  0
 48 47  1  0
 50 53  1  1
 50 51  1  0
 52 50  1  0
 54 63  1  0
 55 63  1  0
 56 61  1  0
 57 58  1  0
 57 56  1  0
 59 58  1  0
 59 68  1  0
 59 60  1  0
 61 55  1  0
 61 60  1  0
 62 55  2  0
 63 64  1  0
 65 66  2  0
 66 85  1  0
 67 66  1  0
 67 70  1  0
 68 69  1  0
 68 65  1  0
 69 67  2  0
 70 71  1  0
 71 72  2  0
 73 76  1  0
 73 72  1  0
 74 73  2  0
 75 74  1  0
 75 70  2  0
 76 77  1  0
 77 82  2  0
 77 78  1  0
 78 79  2  0
 79 80  1  0
 80 84  1  0
 81 80  2  0
 82 81  1  0
 83 82  1  0
 85 86  1  0
 86 89  1  0
 86 88  1  0
 87 85  2  0
 90 91  1  0
 90 65  1  0
 92 90  1  0
M  ISO  4  12 101  13 101  55 100  63 100
M  END
>  <TORSDO>  (48) 
F 18

>  <SCORE>  (48) 
-14.221

>  <name>  (48) 
48

>  <ligand_id>  (48) 
48

>  <original_smiles>  (48) 
[H]c1c([H])c([H])c2c(c1[H])C([H])([H])C([H])([H])C([H])([H])C2([H])N([H])C(=O)C1([H])N(C(=O)C([H])(N([H])C(=O)C([H])(N([H])C([H])([H])[H])C([H])([H])[H])C(C([H])([H])[H])(C([H])([H])[H])C([H])([H])[H])C([H])([H])c2c([H])c(OC([H])(C(=O)N([H])c3nc(C([H])([H])[H])c(C([H])([H])N([H])C(=O)N4C([H])([H])C([H])([H])C([H])([H])C([H])(n5nc(-c6c([H])c([H])c(Oc7c([H])c([H])c(F)c([H])c7F)c([H])c6[H])c(C(=O)N([H])[H])c5N([H])[H])C4([H])[H])s3)C([H])([H])[H])c([H])c([H])c2C1([H])[H]

>  <smiles>  (48) 
[H]c1c([H])c([H])c2c(c1[H])C([H])([H])C([H])([H])C([H])([H])C2([H])N([H])C(=O)C1([H])N(C(=O)C([H])(N([H])C(=O)C([H])(N([H])C([H])([H])[H])C([H])([H])[H])C(C([H])([H])[H])(C([H])([H])[H])C([H])([H])[H])C([H])([H])c2c([H])c(OC([H])(C(=O)N([H])c3nc(C([H])([H])[H])c(C([H])([H])N([H])C(=O)N4C([H])([H])C([H])([H])C([H])([H])C([H])(n5nc(-c6c([H])c([H])c(Oc7c([H])c([H])c(F)c([H])c7F)c([H])c6[H])c(C(=O)N([H])[H])c5N([H])[H])C4([H])[H])s3)C([H])([H])[H])c([H])c([H])c2C1([H])[H]

$$$$
49:0:0
     RDKit          3D

 92100  0  0  1  0  0  0  0  0999 V2000
  -29.7430  -23.1780   22.4520 C   0  0  0  0  0  1  0  0  0  0  0  0
  -29.1920  -23.1700   21.0110 C   0  0  0  0  0  3  0  0  0  0  0  0
  -29.3970  -18.6220   21.2550 C   0  0  0  0  0  3  0  0  0  0  0  0
  -30.5600  -18.3060   20.5880 C   0  0  0  0  0  0  0  0  0  0  0  0
  -29.8620  -20.6880   20.4000 C   0  0  0  0  0  0  0  0  0  0  0  0
  -29.0260  -19.9760   21.1610 N   0  0  0  0  0  0  0  0  0  0  0  0
  -29.8100  -22.0760   20.2480 N   0  0  0  0  0  0  0  0  0  0  0  0
  -31.1490  -19.7030   19.6990 S   0  0  0  0  0  0  0  0  0  0  0  0
  -30.4230  -22.4320   19.5180 H   0  0  0  0  0  0  0  0  0  0  0  0
  -31.3870  -17.0420   20.6870 C   0  0  0  0  0  2  0  0  0  0  0  0
  -31.2780  -14.6760   19.8970 C   0  0  0  0  0  0  0  0  0  0  0  0
  -30.8830  -12.4290   18.9490 C   0  0  0  0  0  2  0  0  0  0  0  0
  -29.8960  -12.5200   17.7680 C   0  0  0  0  0  2  0  0  0  0  0  0
  -28.4440  -12.4390   18.2740 C   0  0  0  0  0  2  0  0  0  0  0  0
  -28.1660  -13.4030   19.4570 C   0  0  0  0  0  3  0  0  0  0  0  0
  -29.2640  -13.2940   20.5390 C   0  0  0  0  0  2  0  0  0  0  0  0
  -30.5620  -13.5200   19.8870 N   0  0  0  0  0  0  0  0  0  0  0  0
  -32.3730  -14.7750   19.3370 O   0  0  0  0  0  0  0  0  0  0  0  0
  -30.7010  -15.7520   20.4750 N   0  0  0  0  0  0  0  0  0  0  0  0
  -29.7840  -15.6260   20.8770 H   0  0  0  0  0  0  0  0  0  0  0  0
  -25.8690  -14.1260   20.3570 C   0  0  0  0  0  0  0  0  0  0  0  0
  -24.7760  -13.4060   20.7580 C   0  0  0  0  0  0  0  0  0  0  0  0
  -25.1400  -12.0300   20.6320 C   0  0  0  0  0  0  0  0  0  0  0  0
  -26.8340  -13.1910   20.0160 N   0  0  0  0  0  0  0  0  0  0  0  0
  -26.4030  -11.9230   20.2380 N   0  0  0  0  0  0  0  0  0  0  0  0
  -24.3430  -10.8100   20.8080 C   0  0  0  0  0  0  0  0  0  0  0  0
  -24.7270   -9.8020   21.7210 C   0  0  0  0  0  3  0  0  0  0  0  0
  -23.9330   -8.6470   21.8850 C   0  0  0  0  0  3  0  0  0  0  0  0
  -22.7420   -8.4910   21.1380 C   0  0  0  0  0  0  0  0  0  0  0  0
  -22.3780   -9.4870   20.2140 C   0  0  0  0  0  3  0  0  0  0  0  0
  -23.1710  -10.6330   20.0460 C   0  0  0  0  0  3  0  0  0  0  0  0
  -21.9220   -7.3910   21.2120 O   0  0  0  0  0  0  0  0  0  0  0  0
  -21.7740   -6.6830   22.3780 C   0  0  0  0  0  0  0  0  0  0  0  0
  -21.3120   -7.2930   23.5650 C   0  0  0  0  0  3  0  0  0  0  0  0
  -21.1070   -6.5140   24.7220 C   0  0  0  0  0  3  0  0  0  0  0  0
  -21.3520   -5.1280   24.6920 C   0  0  0  0  0  0  0  0  0  0  0  0
  -21.8070   -4.5190   23.5080 C   0  0  0  0  0  3  0  0  0  0  0  0
  -22.0140   -5.2950   22.3540 C   0  0  0  0  0  0  0  0  0  0  0  0
  -22.4310   -4.7000   21.2110 F   0  0  0  0  0  0  0  0  0  0  0  0
  -21.1480   -4.3770   25.8000 F   0  0  0  0  0  0  0  0  0  0  0  0
  -23.4360  -13.9590   21.1460 C   0  0  0  0  0  0  0  0  0  0  0  0
  -22.7300  -13.2760   22.0400 N   0  0  0  0  0  0  0  0  0  0  0  0
  -23.0300  -15.0300   20.6970 O   0  0  0  0  0  0  0  0  0  0  0  0
  -23.0740  -12.4080   22.4220 H   0  0  0  0  0  0  0  0  0  0  0  0
  -21.8320  -13.6250   22.3450 H   0  0  0  0  0  0  0  0  0  0  0  0
  -26.1160  -15.4900   20.2350 N   0  0  0  0  0  0  0  0  0  0  0  0
  -25.4000  -16.1850   20.4210 H   0  0  0  0  0  0  0  0  0  0  0  0
  -26.9720  -15.8910   19.8690 H   0  0  0  0  0  0  0  0  0  0  0  0
  -29.4050  -24.5640   20.3420 C   0  0  0  0  0  0  0  0  0  0  0  0
  -30.0730  -24.6930   19.3090 O   0  0  0  0  0  0  0  0  0  0  0  0
  -28.7670  -25.8030   21.0220 C   0  0  0  0  0  2  0  0  0  0  0  0
  -28.8250  -26.9920   20.2080 O   0  0  0  0  0  0  0  0  0  0  0  0
  -24.7210  -31.9500   23.2800 C   0  0  0  0  0  0  0  0  0  0  0  0
  -27.6460  -27.7000   20.1920 C   0  0  0  0  0  0  0  0  0  0  0  0
  -23.6270  -30.5360   21.5690 C   0  0  0  0  0  3  0  0  0  0  0  0
  -25.1920  -29.0980   20.1540 C   0  0  0  0  0  0  0  0  0  0  0  0
  -26.1380  -31.0110   21.4560 C   0  0  0  0  0  2  0  0  0  0  0  0
  -26.3070  -29.6600   20.7910 C   0  0  0  0  0  0  0  0  0  0  0  0
  -27.5410  -28.9690   20.8060 C   0  0  0  0  0  3  0  0  0  0  0  0
  -26.5180  -27.1490   19.5520 C   0  0  0  0  0  3  0  0  0  0  0  0
  -25.2930  -27.8420   19.5300 C   0  0  0  0  0  3  0  0  0  0  0  0
  -23.9080  -29.8980   20.1830 C   0  0  0  0  0  2  0  0  0  0  0  0
  -24.8440  -31.1800   22.1600 N   0  0  0  0  0  0  0  0  0  0  0  0
  -23.6140  -32.1580   23.7950 O   0  0  0  0  0  0  0  0  0  0  0  0
  -22.9930  -29.4660   22.4870 C   0  0  0  0  0  0  0  0  0  0  0  0
  -21.6760  -29.2530   22.3400 N   0  0  0  0  0  0  0  0  0  0  0  0
  -23.6860  -28.8290   23.2860 O   0  0  0  0  0  0  0  0  0  0  0  0
  -21.1760  -29.8200   21.6690 H   0  0  0  0  0  0  0  0  0  0  0  0
  -18.3190  -27.9950   22.8020 C   0  0  0  0  0  0  0  0  0  0  0  0
  -20.8750  -28.2680   23.0680 C   0  0  0  0  0  3  0  0  0  0  0  0
  -20.9910  -26.8700   22.4200 C   0  0  0  0  0  2  0  0  0  0  0  0
  -19.8860  -26.5860   21.3990 C   0  0  0  0  0  2  0  0  0  0  0  0
  -18.5060  -26.6840   22.0560 C   0  0  0  0  0  2  0  0  0  0  0  0
  -19.4320  -28.7460   23.2620 C   0  0  0  0  0  0  0  0  0  0  0  0
  -19.2030  -29.9760   23.9160 C   0  0  0  0  0  3  0  0  0  0  0  0
  -17.8950  -30.4560   24.1140 C   0  0  0  0  0  3  0  0  0  0  0  0
  -16.7960  -29.7010   23.6690 C   0  0  0  0  0  3  0  0  0  0  0  0
  -17.0090  -28.4720   23.0200 C   0  0  0  0  0  3  0  0  0  0  0  0
  -25.9570  -32.6240   23.9520 C   0  0  0  0  0  3  0  0  0  0  0  0
  -26.4360  -31.8800   25.2580 C   0  0  1  0  0  0  0  0  0  0  0  0
  -25.2980  -31.6050   26.2690 C   0  0  0  0  0  1  0  0  0  0  0  0
  -27.0910  -30.5250   24.9010 C   0  0  0  0  0  1  0  0  0  0  0  0
  -27.5220  -32.7200   25.9720 C   0  0  0  0  0  1  0  0  0  0  0  0
  -25.5990  -34.0170   24.2500 N   0  0  0  0  0  0  0  0  0  0  0  0
  -25.9380  -35.0680   23.4930 C   0  0  0  0  0  0  0  0  0  0  0  0
  -26.6590  -34.9710   22.4940 O   0  0  0  0  0  0  0  0  0  0  0  0
  -24.9670  -34.1660   25.0230 H   0  0  0  0  0  0  0  0  0  0  0  0
  -24.1830  -36.8070   23.0360 C   0  0  0  0  0  1  0  0  0  0  0  0
  -25.3940  -36.4470   23.9100 C   0  0  0  0  0  3  0  0  0  0  0  0
  -27.4610  -37.3980   24.8290 C   0  0  0  0  0  1  0  0  0  0  0  0
  -26.4020  -37.5270   23.8320 N   0  0  0  0  0  0  0  0  0  0  0  0
  -25.9650  -38.4350   23.9500 H   0  0  0  0  0  0  0  0  0  0  0  0
  2  1  1  0
  4 10  1  0
  4  3  2  0
  5  6  2  0
  6  3  1  0
  7  5  1  0
  7  2  1  0
  8  5  1  0
  8  4  1  0
  9  7  1  0
 11 19  1  0
 12 17  1  0
 13 14  1  0
 13 12  1  0
 15 14  1  0
 15 24  1  0
 15 16  1  0
 17 11  1  0
 17 16  1  0
 18 11  2  0
 19 10  1  0
 19 20  1  0
 21 22  2  0
 22 41  1  0
 23 22  1  0
 23 26  1  0
 24 25  1  0
 24 21  1  0
 25 23  2  0
 26 27  1  0
 27 28  2  0
 29 32  1  0
 29 28  1  0
 30 29  2  0
 31 30  1  0
 31 26  2  0
 32 33  1  0
 33 34  1  0
 34 35  2  0
 36 35  1  0
 36 40  1  0
 37 36  2  0
 38 33  2  0
 38 37  1  0
 39 38  1  0
 41 42  1  0
 42 45  1  0
 42 44  1  0
 43 41  2  0
 46 21  1  0
 46 47  1  0
 48 46  1  0
 49  2  1  0
 49 51  1  0
 50 49  2  0
 52 51  1  0
 53 64  2  0
 54 52  1  0
 54 59  1  0
 55 63  1  0
 55 65  1  0
 56 62  1  0
 56 58  1  0
 57 63  1  0
 58 59  2  0
 58 57  1  0
 60 54  2  0
 61 60  1  0
 61 56  2  0
 62 55  1  0
 63 53  1  0
 65 67  2  0
 66 65  1  0
 68 66  1  0
 69 78  2  0
 69 74  1  0
 70 66  1  0
 70 74  1  0
 71 70  1  0
 72 73  1  0
 72 71  1  0
 73 69  1  0
 74 75  2  0
 75 76  1  0
 77 76  2  0
 78 77  1  0
 79 53  1  0
 79 84  1  0
 79 80  1  0
 80 83  1  1
 80 81  1  0
 82 80  1  0
 84 87  1  0
 85 89  1  0
 85 84  1  0
 86 85  2  0
 89 88  1  0
 91 89  1  0
 91 92  1  0
 91 90  1  0
M  ISO  4  11 100  19 100  51 101  52 101
M  END
>  <TORSDO>  (49) 
F 20

>  <SCORE>  (49) 
-12.870

>  <name>  (49) 
49

>  <ligand_id>  (49) 
49

>  <original_smiles>  (49) 
[H]c1nc(N([H])C([H])(C(=O)C([H])([H])Oc2c([H])c([H])c3c(c2[H])C([H])([H])N(C(=O)C([H])(N([H])C(=O)C([H])(N([H])C([H])([H])[H])C([H])([H])[H])C(C([H])([H])[H])(C([H])([H])[H])C([H])([H])[H])C([H])(C(=O)N([H])C2([H])c4c([H])c([H])c([H])c([H])c4C([H])([H])C([H])([H])C2([H])[H])C3([H])[H])C([H])([H])[H])sc1C([H])([H])N([H])C(=O)N1C([H])([H])C([H])([H])C([H])([H])C([H])(n2nc(-c3c([H])c([H])c(Oc4c([H])c([H])c(F)c([H])c4F)c([H])c3[H])c(C(=O)N([H])[H])c2N([H])[H])C1([H])[H]

>  <smiles>  (49) 
[H]c1nc(N([H])C([H])(C(=O)C([H])([H])Oc2c([H])c([H])c3c(c2[H])C([H])([H])N(C(=O)C([H])(N([H])C(=O)C([H])(N([H])C([H])([H])[H])C([H])([H])[H])C(C([H])([H])[H])(C([H])([H])[H])C([H])([H])[H])C([H])(C(=O)N([H])C2([H])c4c([H])c([H])c([H])c([H])c4C([H])([H])C([H])([H])C2([H])[H])C3([H])[H])C([H])([H])[H])sc1C([H])([H])N([H])C(=O)N1C([H])([H])C([H])([H])C([H])([H])C([H])(n2nc(-c3c([H])c([H])c(Oc4c([H])c([H])c(F)c([H])c4F)c([H])c3[H])c(C(=O)N([H])[H])c2N([H])[H])C1([H])[H]

$$$$
50:0:0
     RDKit          3D

 95103  0  0  1  0  0  0  0  0999 V2000
  -29.0670  -22.2370   20.4930 C   0  0  0  0  0  0  0  0  0  0  0  0
  -29.9350  -21.1820   20.2180 N   0  0  0  0  0  0  0  0  0  0  0  0
  -27.9350  -22.0020   20.9210 O   0  0  0  0  0  0  0  0  0  0  0  0
  -30.7490  -21.4660   19.6920 H   0  0  0  0  0  0  0  0  0  0  0  0
  -30.8430  -14.8870   19.9090 C   0  0  0  0  0  0  0  0  0  0  0  0
  -30.5860  -12.6380   18.8320 C   0  0  0  0  0  2  0  0  0  0  0  0
  -29.5300  -12.7090   17.7060 C   0  0  0  0  0  2  0  0  0  0  0  0
  -28.1100  -12.5050   18.2740 C   0  0  0  0  0  2  0  0  0  0  0  0
  -27.8370  -13.3740   19.5310 C   0  0  0  0  0  3  0  0  0  0  0  0
  -28.9950  -13.2740   20.5440 C   0  0  0  0  0  2  0  0  0  0  0  0
  -30.2200  -13.6630   19.8330 N   0  0  0  0  0  0  0  0  0  0  0  0
  -32.0360  -14.9870   19.6090 O   0  0  0  0  0  0  0  0  0  0  0  0
  -30.4750  -19.4080   21.9450 C   0  0  0  0  0  0  0  0  0  0  0  0
  -30.0040  -19.7610   20.6810 C   0  0  0  0  0  0  0  0  0  0  0  0
  -30.2360  -17.3790   20.4540 C   0  0  0  0  0  0  0  0  0  0  0  0
  -29.8580  -18.5680   19.8620 N   0  0  0  0  0  0  0  0  0  0  0  0
  -30.0250  -16.0110   19.9370 N   0  0  0  0  0  0  0  0  0  0  0  0
  -30.7830  -17.6710   22.0920 S   0  0  0  0  0  0  0  0  0  0  0  0
  -29.0600  -15.8030   19.7470 H   0  0  0  0  0  0  0  0  0  0  0  0
  -25.5330  -13.9470   20.5000 C   0  0  0  0  0  0  0  0  0  0  0  0
  -24.4980  -13.1600   20.9290 C   0  0  0  0  0  0  0  0  0  0  0  0
  -24.9470  -11.8110   20.8000 C   0  0  0  0  0  0  0  0  0  0  0  0
  -26.5440  -13.0730   20.1340 N   0  0  0  0  0  0  0  0  0  0  0  0
  -26.2060  -11.7810   20.3790 N   0  0  0  0  0  0  0  0  0  0  0  0
  -24.2320  -10.5430   20.9970 C   0  0  0  0  0  0  0  0  0  0  0  0
  -24.6550   -9.5990   21.9570 C   0  0  0  0  0  3  0  0  0  0  0  0
  -23.9390   -8.3970   22.1410 C   0  0  0  0  0  3  0  0  0  0  0  0
  -22.7880   -8.1300   21.3640 C   0  0  0  0  0  0  0  0  0  0  0  0
  -22.3840   -9.0630   20.3920 C   0  0  0  0  0  3  0  0  0  0  0  0
  -23.1000  -10.2570   20.2060 C   0  0  0  0  0  3  0  0  0  0  0  0
  -22.0460   -6.9780   21.4550 O   0  0  0  0  0  0  0  0  0  0  0  0
  -21.8660   -6.3300   22.6510 C   0  0  0  0  0  0  0  0  0  0  0  0
  -21.2760   -6.9700   23.7620 C   0  0  0  0  0  3  0  0  0  0  0  0
  -21.0460   -6.2470   24.9510 C   0  0  0  0  0  3  0  0  0  0  0  0
  -21.3960   -4.8870   25.0270 C   0  0  0  0  0  0  0  0  0  0  0  0
  -21.9790   -4.2460   23.9190 C   0  0  0  0  0  3  0  0  0  0  0  0
  -22.2100   -4.9660   22.7330 C   0  0  0  0  0  0  0  0  0  0  0  0
  -22.7520   -4.3380   21.6620 F   0  0  0  0  0  0  0  0  0  0  0  0
  -21.1690   -4.1900   26.1650 F   0  0  0  0  0  0  0  0  0  0  0  0
  -23.1330  -13.6300   21.3430 C   0  0  0  0  0  0  0  0  0  0  0  0
  -22.4890  -12.9120   22.2540 N   0  0  0  0  0  0  0  0  0  0  0  0
  -22.6500  -14.6680   20.8910 O   0  0  0  0  0  0  0  0  0  0  0  0
  -22.8930  -12.0700   22.6370 H   0  0  0  0  0  0  0  0  0  0  0  0
  -21.5780  -13.2100   22.5780 H   0  0  0  0  0  0  0  0  0  0  0  0
  -25.6830  -15.3240   20.3630 N   0  0  0  0  0  0  0  0  0  0  0  0
  -24.9160  -15.9600   20.5500 H   0  0  0  0  0  0  0  0  0  0  0  0
  -26.4860  -15.7860   19.9600 H   0  0  0  0  0  0  0  0  0  0  0  0
  -29.6460  -21.0290   23.7450 C   0  0  0  0  0  1  0  0  0  0  0  0
  -32.1110  -21.0420   23.0100 C   0  0  0  0  0  1  0  0  0  0  0  0
  -30.8200  -20.2300   23.1590 C   0  0  0  0  0  3  0  0  0  0  0  0
  -30.1890  -23.9010   18.8710 C   0  0  0  0  0  1  0  0  0  0  0  0
  -30.4450  -24.2120   21.3440 C   0  0  0  0  0  1  0  0  0  0  0  0
  -29.4640  -23.7980   20.2300 C   0  0  2  0  0  0  0  0  0  0  0  0
  -28.2630  -24.9120   20.2500 C   0  0  0  0  0  2  0  0  0  0  0  0
  -28.4970  -26.4140   20.2120 O   0  0  0  0  0  0  0  0  0  0  0  0
  -24.6750  -31.8740   23.1850 C   0  0  0  0  0  0  0  0  0  0  0  0
  -27.3860  -27.2980   20.1620 C   0  0  0  0  0  0  0  0  0  0  0  0
  -23.5160  -30.4560   21.5330 C   0  0  0  0  0  3  0  0  0  0  0  0
  -25.0080  -28.9280   20.1240 C   0  0  0  0  0  0  0  0  0  0  0  0
  -26.0620  -30.7970   21.3880 C   0  0  0  0  0  2  0  0  0  0  0  0
  -26.1690  -29.4190   20.7330 C   0  0  0  0  0  0  0  0  0  0  0  0
  -27.3620  -28.6180   20.7370 C   0  0  0  0  0  3  0  0  0  0  0  0
  -26.1930  -26.8820   19.5280 C   0  0  0  0  0  3  0  0  0  0  0  0
  -25.0270  -27.6690   19.5100 C   0  0  0  0  0  3  0  0  0  0  0  0
  -23.7610  -29.7910   20.1550 C   0  0  0  0  0  2  0  0  0  0  0  0
  -24.7690  -31.0600   22.0910 N   0  0  0  0  0  0  0  0  0  0  0  0
  -23.5810  -32.1340   23.7060 O   0  0  0  0  0  0  0  0  0  0  0  0
  -22.8580  -29.4260   22.4850 C   0  0  0  0  0  0  0  0  0  0  0  0
  -21.5360  -29.2260   22.3450 N   0  0  0  0  0  0  0  0  0  0  0  0
  -23.5380  -28.8130   23.3120 O   0  0  0  0  0  0  0  0  0  0  0  0
  -21.0460  -29.7720   21.6510 H   0  0  0  0  0  0  0  0  0  0  0  0
  -18.1780  -27.9610   22.8050 C   0  0  0  0  0  0  0  0  0  0  0  0
  -20.7260  -28.2760   23.1100 C   0  0  0  0  0  3  0  0  0  0  0  0
  -20.8660  -26.8430   22.5430 C   0  0  0  0  0  2  0  0  0  0  0  0
  -19.7850  -26.4930   21.5150 C   0  0  0  0  0  2  0  0  0  0  0  0
  -18.3920  -26.6130   22.1380 C   0  0  0  0  0  2  0  0  0  0  0  0
  -19.2740  -28.7480   23.2470 C   0  0  0  0  0  0  0  0  0  0  0  0
  -19.0230  -30.0080   23.8320 C   0  0  0  0  0  3  0  0  0  0  0  0
  -17.7050  -30.4840   23.9780 C   0  0  0  0  0  3  0  0  0  0  0  0
  -16.6220  -29.6940   23.5550 C   0  0  0  0  0  3  0  0  0  0  0  0
  -16.8590  -28.4340   22.9740 C   0  0  0  0  0  3  0  0  0  0  0  0
  -25.9370  -32.5310   23.8200 C   0  0  0  0  0  3  0  0  0  0  0  0
  -26.4680  -31.7610   25.0920 C   0  0  1  0  0  0  0  0  0  0  0  0
  -25.3740  -31.4830   26.1480 C   0  0  0  0  0  1  0  0  0  0  0  0
  -27.0970  -30.4070   24.6910 C   0  0  0  0  0  1  0  0  0  0  0  0
  -27.5920  -32.5810   25.7690 C   0  0  0  0  0  1  0  0  0  0  0  0
  -25.5920  -33.9180   24.1670 N   0  0  0  0  0  0  0  0  0  0  0  0
  -25.9090  -34.9890   23.4290 C   0  0  0  0  0  0  0  0  0  0  0  0
  -26.5910  -34.9180   22.4030 O   0  0  0  0  0  0  0  0  0  0  0  0
  -24.9890  -34.0460   24.9660 H   0  0  0  0  0  0  0  0  0  0  0  0
  -24.1470  -36.7470   23.0900 C   0  0  0  0  0  1  0  0  0  0  0  0
  -25.3870  -36.3580   23.9080 C   0  0  0  0  0  3  0  0  0  0  0  0
  -27.4910  -37.2720   24.7800 C   0  0  0  0  0  1  0  0  0  0  0  0
  -26.3970  -37.4350   23.8280 N   0  0  0  0  0  0  0  0  0  0  0  0
  -25.9690  -38.3430   23.9930 H   0  0  0  0  0  0  0  0  0  0  0  0
  1  3  2  0
  2  1  1  0
  2 14  1  0
  4  2  1  0
  5 17  1  0
  6 11  1  0
  7  8  1  0
  7  6  1  0
  9  8  1  0
  9 23  1  0
  9 10  1  0
 11  5  1  0
 11 10  1  0
 12  5  2  0
 13 18  1  0
 13 50  1  0
 14 13  2  0
 15 18  1  0
 16 15  2  0
 16 14  1  0
 17 15  1  0
 19 17  1  0
 20 21  2  0
 21 40  1  0
 22 21  1  0
 22 25  1  0
 23 24  1  0
 23 20  1  0
 24 22  2  0
 25 26  1  0
 26 27  2  0
 28 31  1  0
 28 27  1  0
 29 28  2  0
 30 29  1  0
 30 25  2  0
 31 32  1  0
 32 37  2  0
 32 33  1  0
 33 34  2  0
 34 35  1  0
 35 39  1  0
 36 35  2  0
 37 36  1  0
 38 37  1  0
 40 41  1  0
 41 44  1  0
 41 43  1  0
 42 40  2  0
 45 20  1  0
 45 46  1  0
 47 45  1  0
 49 50  1  0
 50 48  1  0
 53 51  1  6
 53 54  1  0
 53  1  1  0
 53 52  1  0
 55 54  1  0
 56 67  2  0
 57 55  1  0
 57 62  1  0
 58 66  1  0
 58 68  1  0
 59 65  1  0
 59 61  1  0
 60 66  1  0
 61 62  2  0
 61 60  1  0
 63 57  2  0
 64 63  1  0
 64 59  2  0
 65 58  1  0
 66 56  1  0
 68 70  2  0
 69 68  1  0
 71 69  1  0
 72 81  2  0
 72 77  1  0
 73 69  1  0
 73 77  1  0
 74 73  1  0
 75 76  1  0
 75 74  1  0
 76 72  1  0
 77 78  2  0
 78 79  1  0
 80 79  2  0
 81 80  1  0
 82 56  1  0
 82 87  1  0
 82 83  1  0
 83 86  1  1
 83 84  1  0
 85 83  1  0
 87 90  1  0
 88 92  1  0
 88 87  1  0
 89 88  2  0
 92 91  1  0
 94 92  1  0
 94 95  1  0
 94 93  1  0
M  ISO  4   5 100  17 100  54 101  55 101
M  END
>  <TORSDO>  (50) 
F 19

>  <SCORE>  (50) 
-13.339

>  <name>  (50) 
50

>  <ligand_id>  (50) 
50

>  <original_smiles>  (50) 
[H]c1c([H])c([H])c2c(c1[H])C([H])([H])C([H])([H])C([H])([H])C2([H])N([H])C(=O)C1([H])N(C(=O)C([H])(N([H])C(=O)C([H])(N([H])C([H])([H])[H])C([H])([H])[H])C(C([H])([H])[H])(C([H])([H])[H])C([H])([H])[H])C([H])([H])c2c([H])c(OC([H])([H])C(C(=O)N([H])c3nc(N([H])C(=O)N4C([H])([H])C([H])([H])C([H])([H])C([H])(n5nc(-c6c([H])c([H])c(Oc7c([H])c([H])c(F)c([H])c7F)c([H])c6[H])c(C(=O)N([H])[H])c5N([H])[H])C4([H])[H])sc3C([H])(C([H])([H])[H])C([H])([H])[H])(C([H])([H])[H])C([H])([H])[H])c([H])c([H])c2C1([H])[H]

>  <smiles>  (50) 
[H]c1c([H])c([H])c2c(c1[H])C([H])([H])C([H])([H])C([H])([H])C2([H])N([H])C(=O)C1([H])N(C(=O)C([H])(N([H])C(=O)C([H])(N([H])C([H])([H])[H])C([H])([H])[H])C(C([H])([H])[H])(C([H])([H])[H])C([H])([H])[H])C([H])([H])c2c([H])c(OC([H])([H])C(C(=O)N([H])c3nc(N([H])C(=O)N4C([H])([H])C([H])([H])C([H])([H])C([H])(n5nc(-c6c([H])c([H])c(Oc7c([H])c([H])c(F)c([H])c7F)c([H])c6[H])c(C(=O)N([H])[H])c5N([H])[H])C4([H])[H])sc3C([H])(C([H])([H])[H])C([H])([H])[H])(C([H])([H])[H])C([H])([H])[H])c([H])c([H])c2C1([H])[H]

$$$$
51:0:0
     RDKit          3D

 97105  0  0  1  0  0  0  0  0999 V2000
  -29.2810  -21.5350   20.1890 C   0  0  0  0  0  0  0  0  0  0  0  0
  -28.7830  -20.2880   20.3520 N   0  0  0  0  0  0  0  0  0  0  0  0
  -30.4120  -21.7630   19.7470 O   0  0  0  0  0  0  0  0  0  0  0  0
  -27.9190  -20.2440   20.8720 H   0  0  0  0  0  0  0  0  0  0  0  0
  -30.6330  -14.5010   20.4630 C   0  0  0  0  0  0  0  0  0  0  0  0
  -30.3620  -12.3220   19.3570 C   0  0  0  0  0  2  0  0  0  0  0  0
  -29.4420  -12.5560   18.1400 C   0  0  0  0  0  2  0  0  0  0  0  0
  -27.9600  -12.4230   18.5490 C   0  0  0  0  0  2  0  0  0  0  0  0
  -27.6120  -13.2420   19.8210 C   0  0  0  0  0  3  0  0  0  0  0  0
  -28.6580  -13.0030   20.9360 C   0  0  0  0  0  2  0  0  0  0  0  0
  -29.9860  -13.3070   20.3830 N   0  0  0  0  0  0  0  0  0  0  0  0
  -31.7880  -14.6560   20.0520 O   0  0  0  0  0  0  0  0  0  0  0  0
  -29.8920  -18.7810   18.6890 C   0  0  0  0  0  0  0  0  0  0  0  0
  -29.3430  -19.0400   19.9380 C   0  0  0  0  0  0  0  0  0  0  0  0
  -29.8760  -16.8270   20.2180 C   0  0  0  0  0  0  0  0  0  0  0  0
  -29.2770  -17.8980   20.7710 N   0  0  0  0  0  0  0  0  0  0  0  0
  -29.8790  -15.5510   20.8580 N   0  0  0  0  0  0  0  0  0  0  0  0
  -30.5130  -17.1510   18.6050 S   0  0  0  0  0  0  0  0  0  0  0  0
  -29.0560  -15.3320   21.3950 H   0  0  0  0  0  0  0  0  0  0  0  0
  -25.2090  -13.8450   20.5050 C   0  0  0  0  0  0  0  0  0  0  0  0
  -24.1360  -13.0690   20.8570 C   0  0  0  0  0  0  0  0  0  0  0  0
  -24.6010  -11.7190   20.8380 C   0  0  0  0  0  0  0  0  0  0  0  0
  -26.2560  -12.9650   20.2850 N   0  0  0  0  0  0  0  0  0  0  0  0
  -25.8940  -11.6820   20.5420 N   0  0  0  0  0  0  0  0  0  0  0  0
  -23.8770  -10.4550   21.0290 C   0  0  0  0  0  0  0  0  0  0  0  0
  -24.3010   -9.4960   21.9740 C   0  0  0  0  0  3  0  0  0  0  0  0
  -23.5770   -8.2960   22.1500 C   0  0  0  0  0  3  0  0  0  0  0  0
  -22.4140   -8.0490   21.3840 C   0  0  0  0  0  0  0  0  0  0  0  0
  -22.0060   -8.9980   20.4310 C   0  0  0  0  0  3  0  0  0  0  0  0
  -22.7300  -10.1890   20.2530 C   0  0  0  0  0  3  0  0  0  0  0  0
  -21.6620   -6.9030   21.4720 O   0  0  0  0  0  0  0  0  0  0  0  0
  -21.6030   -6.1680   22.6280 C   0  0  0  0  0  0  0  0  0  0  0  0
  -21.1490   -6.7230   23.8450 C   0  0  0  0  0  3  0  0  0  0  0  0
  -21.0430   -5.9140   24.9920 C   0  0  0  0  0  3  0  0  0  0  0  0
  -21.3730   -4.5480   24.9230 C   0  0  0  0  0  0  0  0  0  0  0  0
  -21.8150   -3.9900   23.7110 C   0  0  0  0  0  3  0  0  0  0  0  0
  -21.9280   -4.7980   22.5680 C   0  0  0  0  0  0  0  0  0  0  0  0
  -22.3380   -4.2510   21.3970 F   0  0  0  0  0  0  0  0  0  0  0  0
  -21.2590   -3.7670   26.0240 F   0  0  0  0  0  0  0  0  0  0  0  0
  -22.7370  -13.5440   21.1150 C   0  0  0  0  0  0  0  0  0  0  0  0
  -22.0020  -12.8490   21.9770 N   0  0  0  0  0  0  0  0  0  0  0  0
  -22.3040  -14.5670   20.5890 O   0  0  0  0  0  0  0  0  0  0  0  0
  -22.3660  -12.0200   22.4250 H   0  0  0  0  0  0  0  0  0  0  0  0
  -21.0630  -13.1540   22.1960 H   0  0  0  0  0  0  0  0  0  0  0  0
  -25.3790  -15.2160   20.3390 N   0  0  0  0  0  0  0  0  0  0  0  0
  -24.6210  -15.8770   20.4800 H   0  0  0  0  0  0  0  0  0  0  0  0
  -26.2540  -15.6640   20.0990 H   0  0  0  0  0  0  0  0  0  0  0  0
  -30.0040  -19.5560   17.4550 C   0  0  0  0  0  3  0  0  0  0  0  0
  -29.2290  -20.4810   17.0640 N   0  0  0  0  0  0  0  0  0  0  0  0
  -28.4790  -20.6700   17.7200 H   0  0  0  0  0  0  0  0  0  0  0  0
  -28.3570  -22.7070   20.6070 C   0  0  0  0  0  3  0  0  0  0  0  0
  -27.0800  -22.5130   20.0070 O   0  0  0  0  0  0  0  0  0  0  0  0
  -26.4660  -23.1170   20.4110 H   0  0  0  0  0  0  0  0  0  0  0  0
  -28.9170  -24.1340   20.2700 C   0  0  0  0  0  2  0  0  0  0  0  0
  -28.2470  -25.4530   22.3700 C   0  0  0  0  0  1  0  0  0  0  0  0
  -28.0760  -25.3120   20.8480 C   0  0  0  0  0  3  0  0  0  0  0  0
  -28.3340  -26.6040   20.2300 O   0  0  0  0  0  0  0  0  0  0  0  0
  -24.5880  -31.8830   23.2570 C   0  0  0  0  0  0  0  0  0  0  0  0
  -27.2170  -27.4200   20.1630 C   0  0  0  0  0  0  0  0  0  0  0  0
  -23.3880  -30.4840   21.6120 C   0  0  0  0  0  3  0  0  0  0  0  0
  -24.8410  -28.9590   20.1750 C   0  0  0  0  0  0  0  0  0  0  0  0
  -25.9210  -30.8290   21.4300 C   0  0  0  0  0  2  0  0  0  0  0  0
  -26.0020  -29.4640   20.7730 C   0  0  0  0  0  0  0  0  0  0  0  0
  -27.1980  -28.7030   20.7600 C   0  0  0  0  0  3  0  0  0  0  0  0
  -26.0460  -26.9570   19.5190 C   0  0  0  0  0  3  0  0  0  0  0  0
  -24.8580  -27.7070   19.5400 C   0  0  0  0  0  3  0  0  0  0  0  0
  -23.5990  -29.8190   20.2260 C   0  0  0  0  0  2  0  0  0  0  0  0
  -24.6500  -31.0780   22.1570 N   0  0  0  0  0  0  0  0  0  0  0  0
  -23.5030  -32.1550   23.7920 O   0  0  0  0  0  0  0  0  0  0  0  0
  -22.7330  -29.4580   22.5660 C   0  0  0  0  0  0  0  0  0  0  0  0
  -21.4100  -29.2730   22.4350 N   0  0  0  0  0  0  0  0  0  0  0  0
  -23.4150  -28.8300   23.3820 O   0  0  0  0  0  0  0  0  0  0  0  0
  -20.9260  -29.8310   21.7460 H   0  0  0  0  0  0  0  0  0  0  0  0
  -18.0320  -28.0850   22.9310 C   0  0  0  0  0  0  0  0  0  0  0  0
  -20.5900  -28.3340   23.2030 C   0  0  0  0  0  3  0  0  0  0  0  0
  -20.6890  -26.9060   22.6190 C   0  0  0  0  0  2  0  0  0  0  0  0
  -19.5840  -26.5910   21.6050 C   0  0  0  0  0  2  0  0  0  0  0  0
  -18.2040  -26.7370   22.2510 C   0  0  0  0  0  2  0  0  0  0  0  0
  -19.1530  -28.8420   23.3640 C   0  0  0  0  0  0  0  0  0  0  0  0
  -18.9380  -30.1040   23.9610 C   0  0  0  0  0  3  0  0  0  0  0  0
  -17.6360  -30.6080   24.1290 C   0  0  0  0  0  3  0  0  0  0  0  0
  -16.5280  -29.8460   23.7130 C   0  0  0  0  0  3  0  0  0  0  0  0
  -16.7290  -28.5870   23.1200 C   0  0  0  0  0  3  0  0  0  0  0  0
  -25.8690  -32.5130   23.8780 C   0  0  0  0  0  3  0  0  0  0  0  0
  -25.5630  -33.9140   24.1950 N   0  0  0  0  0  0  0  0  0  0  0  0
  -25.9070  -34.9580   23.4290 C   0  0  0  0  0  0  0  0  0  0  0  0
  -26.5820  -34.8440   22.4040 O   0  0  0  0  0  0  0  0  0  0  0  0
  -24.9580  -34.0760   24.9860 H   0  0  0  0  0  0  0  0  0  0  0  0
  -24.1920  -36.7570   23.0420 C   0  0  0  0  0  1  0  0  0  0  0  0
  -25.4210  -36.3520   23.8720 C   0  0  0  0  0  3  0  0  0  0  0  0
  -27.5520  -37.2290   24.7210 C   0  0  0  0  0  1  0  0  0  0  0  0
  -26.4610  -37.3990   23.7640 N   0  0  0  0  0  0  0  0  0  0  0  0
  -26.0590  -38.3220   23.8990 H   0  0  0  0  0  0  0  0  0  0  0  0
  -26.3740  -31.7520   25.1650 C   0  0  1  0  0  0  0  0  0  0  0  0
  -25.2710  -31.5340   26.2280 C   0  0  0  0  0  1  0  0  0  0  0  0
  -26.9510  -30.3680   24.7900 C   0  0  0  0  0  1  0  0  0  0  0  0
  -27.5230  -32.5500   25.8240 C   0  0  0  0  0  1  0  0  0  0  0  0
  1  2  1  0
  1 51  1  0
  2  4  1  0
  3  1  2  0
  5 17  1  0
  6 11  1  0
  7  8  1  0
  7  6  1  0
  9  8  1  0
  9 23  1  0
  9 10  1  0
 11  5  1  0
 11 10  1  0
 12  5  2  0
 13 14  2  0
 14  2  1  0
 14 16  1  0
 15 16  2  0
 15 17  1  0
 17 19  1  0
 18 13  1  0
 18 15  1  0
 20 21  2  0
 21 40  1  0
 22 21  1  0
 22 25  1  0
 23 20  1  0
 23 24  1  0
 24 22  2  0
 25 26  1  0
 26 27  2  0
 28 31  1  0
 28 27  1  0
 29 28  2  0
 30 29  1  0
 30 25  2  0
 31 32  1  0
 32 33  1  0
 33 34  2  0
 35 34  1  0
 35 39  1  0
 36 35  2  0
 37 32  2  0
 37 36  1  0
 38 37  1  0
 40 41  1  0
 41 44  1  0
 41 43  1  0
 42 40  2  0
 45 46  1  0
 45 20  1  0
 47 45  1  0
 48 13  1  0
 49 48  2  0
 49 50  1  0
 51 54  1  0
 52 53  1  0
 52 51  1  0
 54 56  1  0
 56 55  1  0
 57 56  1  0
 58 69  2  0
 59 57  1  0
 59 64  1  0
 60 68  1  0
 60 70  1  0
 61 67  1  0
 61 63  1  0
 62 68  1  0
 63 62  1  0
 64 63  2  0
 65 66  1  0
 65 59  2  0
 66 61  2  0
 67 60  1  0
 68 58  1  0
 70 72  2  0
 71 70  1  0
 73 71  1  0
 74 83  2  0
 74 79  1  0
 75 71  1  0
 75 79  1  0
 76 75  1  0
 77 78  1  0
 77 76  1  0
 78 74  1  0
 79 80  2  0
 80 81  1  0
 82 81  2  0
 83 82  1  0
 84 58  1  0
 84 85  1  0
 84 94  1  0
 85 88  1  0
 86 90  1  0
 86 85  1  0
 87 86  2  0
 90 89  1  0
 92 90  1  0
 92 93  1  0
 92 91  1  0
 94 97  1  1
 94 95  1  0
 96 94  1  0
M  ISO  4   5 100  17 100  56 101  57 101
M  END
>  <TORSDO>  (51) 
F 21

>  <SCORE>  (51) 
-13.956

>  <name>  (51) 
51

>  <ligand_id>  (51) 
51

>  <original_smiles>  (51) 
[H]N=C([H])c1sc(N([H])C(=O)N2C([H])([H])C([H])([H])C([H])([H])C([H])(n3nc(-c4c([H])c([H])c(Oc5c([H])c([H])c(F)c([H])c5F)c([H])c4[H])c(C(=O)N([H])[H])c3N([H])[H])C2([H])[H])nc1N([H])C(=O)C([H])(O[H])C([H])([H])C([H])(Oc1c([H])c([H])c2c(c1[H])C([H])([H])N(C(=O)C([H])(N([H])C(=O)C([H])(N([H])C([H])([H])[H])C([H])([H])[H])C(C([H])([H])[H])(C([H])([H])[H])C([H])([H])[H])C([H])(C(=O)N([H])C1([H])c3c([H])c([H])c([H])c([H])c3C([H])([H])C([H])([H])C1([H])[H])C2([H])[H])C([H])([H])[H]

>  <smiles>  (51) 
[H]N=C([H])c1sc(N([H])C(=O)N2C([H])([H])C([H])([H])C([H])([H])C([H])(n3nc(-c4c([H])c([H])c(Oc5c([H])c([H])c(F)c([H])c5F)c([H])c4[H])c(C(=O)N([H])[H])c3N([H])[H])C2([H])[H])nc1N([H])C(=O)C([H])(O[H])C([H])([H])C([H])(Oc1c([H])c([H])c2c(c1[H])C([H])([H])N(C(=O)C([H])(N([H])C(=O)C([H])(N([H])C([H])([H])[H])C([H])([H])[H])C(C([H])([H])[H])(C([H])([H])[H])C([H])([H])[H])C([H])(C(=O)N([H])C1([H])c3c([H])c([H])c([H])c([H])c3C([H])([H])C([H])([H])C1([H])[H])C2([H])[H])C([H])([H])[H]

$$$$
52:0:0
     RDKit          3D

 84 88  0  0  1  0  0  0  0  0999 V2000
  -28.4210  -23.3100   19.8330 C   0  0  0  0  0 15  0  0  0  0  0  0
  -27.4060  -20.8150   20.9000 C   0  0  0  0  0  1  0  0  0  0  0  0
  -28.7620  -21.2430   20.3220 C   0  0  0  0  0  1  0  0  0  0  0  0
  -30.2460  -16.2670   19.8610 C   0  0  0  0  0  0  0  0  0  0  0  0
  -30.4050  -13.6090   19.0760 C   0  0  0  0  0  2  0  0  0  0  0  0
  -29.5060  -13.0020   17.9450 C   0  0  0  0  0  2  0  0  0  0  0  0
  -28.1530  -12.5420   18.4930 C   0  0  0  0  0  2  0  0  0  0  0  0
  -27.6340  -13.5590   19.5280 C   0  0  0  0  0  3  0  0  0  0  0  0
  -28.6890  -14.0620   20.5590 C   0  0  0  0  0  2  0  0  0  0  0  0
  -29.7480  -14.8270   19.8220 N   0  0  0  0  0  0  0  0  0  0  0  0
  -31.4650  -16.0910   19.6180 O   0  0  0  0  0  0  0  0  0  0  0  0
  -29.6260  -19.4560   19.8530 C   0  0  0  0  0  2  0  0  0  0  0  0
  -29.5870  -17.7970   19.9960 N   0  0  0  0  0  0  0  0  0  0  0  0
  -30.6390  -19.7340   19.2090 O   0  0  0  0  0  1  0  0  0  0  0  0
  -30.5210  -17.9840   19.6540 H   0  0  0  0  0  0  0  0  0  0  0  0
  -25.3370  -14.0280   20.4680 C   0  0  0  0  0  0  0  0  0  0  0  0
  -24.3050  -13.2330   20.8730 C   0  0  0  0  0  0  0  0  0  0  0  0
  -24.7720  -11.8860   20.7660 C   0  0  0  0  0  0  0  0  0  0  0  0
  -26.3660  -13.1730   20.1300 N   0  0  0  0  0  0  0  0  0  0  0  0
  -26.0450  -11.8710   20.3700 N   0  0  0  0  0  0  0  0  0  0  0  0
  -24.0530  -10.6190   20.9610 C   0  0  0  0  0  0  0  0  0  0  0  0
  -24.5070   -9.6390   21.8710 C   0  0  0  0  0  3  0  0  0  0  0  0
  -23.7800   -8.4430   22.0610 C   0  0  0  0  0  3  0  0  0  0  0  0
  -22.5830   -8.2170   21.3390 C   0  0  0  0  0  0  0  0  0  0  0  0
  -22.1460   -9.1850   20.4180 C   0  0  0  0  0  3  0  0  0  0  0  0
  -22.8740  -10.3720   20.2270 C   0  0  0  0  0  3  0  0  0  0  0  0
  -21.8270   -7.0730   21.4380 O   0  0  0  0  0  0  0  0  0  0  0  0
  -21.7720   -6.3440   22.5990 C   0  0  0  0  0  0  0  0  0  0  0  0
  -21.3050   -6.9020   23.8090 C   0  0  0  0  0  3  0  0  0  0  0  0
  -21.1990   -6.0970   24.9610 C   0  0  0  0  0  3  0  0  0  0  0  0
  -21.5510   -4.7350   24.9050 C   0  0  0  0  0  0  0  0  0  0  0  0
  -22.0120   -4.1760   23.7000 C   0  0  0  0  0  3  0  0  0  0  0  0
  -22.1190   -4.9780   22.5500 C   0  0  0  0  0  0  0  0  0  0  0  0
  -22.5420   -4.4290   21.3860 F   0  0  0  0  0  0  0  0  0  0  0  0
  -21.4430   -3.9600   26.0090 F   0  0  0  0  0  0  0  0  0  0  0  0
  -22.9280  -13.7020   21.2360 C   0  0  0  0  0  0  0  0  0  0  0  0
  -22.2550  -12.9900   22.1320 N   0  0  0  0  0  0  0  0  0  0  0  0
  -22.4610  -14.7380   20.7640 O   0  0  0  0  0  0  0  0  0  0  0  0
  -22.6480  -12.1530   22.5360 H   0  0  0  0  0  0  0  0  0  0  0  0
  -21.3330  -13.2870   22.4200 H   0  0  0  0  0  0  0  0  0  0  0  0
  -25.4850  -15.4050   20.3240 N   0  0  0  0  0  0  0  0  0  0  0  0
  -24.7290  -16.0560   20.5110 H   0  0  0  0  0  0  0  0  0  0  0  0
  -26.3230  -15.8580   19.9790 H   0  0  0  0  0  0  0  0  0  0  0  0
  -28.2300  -25.1830   20.2750 O   0  0  0  0  0  1  0  0  0  0  0  0
  -24.7060  -31.8330   23.1500 C   0  0  0  0  0  0  0  0  0  0  0  0
  -27.2860  -26.5290   20.1680 C   0  0  0  0  0  0  0  0  0  0  0  0
  -23.5480  -30.4170   21.5130 C   0  0  0  0  0  3  0  0  0  0  0  0
  -25.0210  -28.7310   20.1070 C   0  0  0  0  0  0  0  0  0  0  0  0
  -26.1370  -30.5010   21.4300 C   0  0  0  0  0  2  0  0  0  0  0  0
  -26.2150  -29.0390   20.7670 C   0  0  0  0  0  0  0  0  0  0  0  0
  -27.3100  -27.9740   20.7630 C   0  0  0  0  0  3  0  0  0  0  0  0
  -26.0560  -26.5180   19.4360 C   0  0  0  0  0  3  0  0  0  0  0  0
  -24.9990  -27.5020   19.4170 C   0  0  0  0  0  3  0  0  0  0  0  0
  -23.8130  -29.7030   20.1490 C   0  0  0  0  0  2  0  0  0  0  0  0
  -24.8240  -30.9580   22.0830 N   0  0  0  0  0  0  0  0  0  0  0  0
  -23.6020  -32.1300   23.6450 O   0  0  0  0  0  0  0  0  0  0  0  0
  -22.8150  -29.4540   22.4900 C   0  0  0  0  0  0  0  0  0  0  0  0
  -21.4810  -29.3010   22.3680 N   0  0  0  0  0  0  0  0  0  0  0  0
  -23.4660  -28.8400   23.3380 O   0  0  0  0  0  0  0  0  0  0  0  0
  -21.0000  -29.8470   21.6660 H   0  0  0  0  0  0  0  0  0  0  0  0
  -18.1020  -28.0480   22.8890 C   0  0  0  0  0  0  0  0  0  0  0  0
  -20.6610  -28.3560   23.1400 C   0  0  0  0  0  3  0  0  0  0  0  0
  -20.7780  -26.9240   22.5660 C   0  0  0  0  0  2  0  0  0  0  0  0
  -19.6790  -26.5900   21.5520 C   0  0  0  0  0  2  0  0  0  0  0  0
  -18.2970  -26.7080   22.1990 C   0  0  0  0  0  2  0  0  0  0  0  0
  -19.2100  -28.8290   23.3150 C   0  0  0  0  0  0  0  0  0  0  0  0
  -18.9680  -30.0780   23.9280 C   0  0  0  0  0  3  0  0  0  0  0  0
  -17.6540  -30.5480   24.1120 C   0  0  0  0  0  3  0  0  0  0  0  0
  -16.5630  -29.7670   23.6980 C   0  0  0  0  0  3  0  0  0  0  0  0
  -16.7870  -28.5170   23.0920 C   0  0  0  0  0  3  0  0  0  0  0  0
  -25.9460  -32.5140   23.8060 C   0  0  0  0  0  3  0  0  0  0  0  0
  -25.6000  -33.9170   24.1260 N   0  0  0  0  0  0  0  0  0  0  0  0
  -25.9260  -34.9880   23.3880 C   0  0  0  0  0  0  0  0  0  0  0  0
  -26.5950  -34.9000   22.3570 O   0  0  0  0  0  0  0  0  0  0  0  0
  -25.0000  -34.0580   24.9250 H   0  0  0  0  0  0  0  0  0  0  0  0
  -24.1800  -36.7830   23.0740 C   0  0  0  0  0  1  0  0  0  0  0  0
  -25.4350  -36.3760   23.8620 C   0  0  0  0  0  3  0  0  0  0  0  0
  -27.5680  -37.2920   24.6750 C   0  0  0  0  0  1  0  0  0  0  0  0
  -26.4570  -37.4400   23.7370 N   0  0  0  0  0  0  0  0  0  0  0  0
  -26.0420  -38.3570   23.8800 H   0  0  0  0  0  0  0  0  0  0  0  0
  -26.4280  -31.7820   25.1220 C   0  0  1  0  0  0  0  0  0  0  0  0
  -25.3040  -31.5670   26.1650 C   0  0  0  0  0  1  0  0  0  0  0  0
  -27.0310  -30.3970   24.8030 C   0  0  0  0  0  1  0  0  0  0  0  0
  -27.5540  -32.6010   25.7950 C   0  0  0  0  0  1  0  0  0  0  0  0
  3  2  1  0
  4 13  1  0
  5 10  1  0
  6  7  1  0
  6  5  1  0
  8  7  1  0
  8 19  1  0
  8  9  1  0
 10  4  1  0
 10  9  1  0
 11  4  2  0
 12 13  1  0
 14 12  1  0
 15 13  1  0
 16 17  2  0
 17 36  1  0
 18 17  1  0
 18 21  1  0
 19 20  1  0
 19 16  1  0
 20 18  2  0
 21 22  1  0
 22 23  2  0
 24 27  1  0
 24 23  1  0
 25 24  2  0
 26 25  1  0
 26 21  2  0
 27 28  1  0
 28 29  1  0
 29 30  2  0
 31 30  1  0
 31 35  1  0
 32 31  2  0
 33 28  2  0
 33 32  1  0
 34 33  1  0
 36 37  1  0
 37 40  1  0
 37 39  1  0
 38 36  2  0
 41 16  1  0
 41 42  1  0
 43 41  1  0
 45 56  2  0
 46 44  1  0
 46 51  1  0
 47 55  1  0
 47 57  1  0
 48 54  1  0
 48 50  1  0
 49 55  1  0
 50 49  1  0
 51 50  2  0
 52 46  2  0
 53 52  1  0
 53 48  2  0
 54 47  1  0
 55 45  1  0
 57 59  2  0
 58 57  1  0
 60 58  1  0
 61 70  2  0
 61 66  1  0
 62 58  1  0
 62 66  1  0
 63 62  1  0
 64 65  1  0
 64 63  1  0
 65 61  1  0
 66 67  2  0
 67 68  1  0
 69 68  2  0
 70 69  1  0
 71 45  1  0
 71 72  1  0
 71 81  1  0
 72 75  1  0
 73 77  1  0
 73 72  1  0
 74 73  2  0
 77 76  1  0
 79 77  1  0
 79 80  1  0
 79 78  1  0
 81 84  1  1
 81 82  1  0
 83 81  1  0
M  ISO  4   1 101   4 100  13 100  44 101
M  END
>  <TORSDO>  (52) 
F 17

>  <SCORE>  (52) 
-15.326

>  <name>  (52) 
52

>  <ligand_id>  (52) 
52

>  <original_smiles>  (52) 
[H]c1c([H])c([H])c2c(c1[H])C([H])([H])C([H])([H])C([H])([H])C2([H])N([H])C(=O)C1([H])N(C(=O)C([H])(N([H])C(=O)C([H])(N([H])C([H])([H])[H])C([H])([H])[H])C(C([H])([H])[H])(C([H])([H])[H])C([H])([H])[H])C([H])([H])c2c([H])c(OC([H])([H])C([H])(C(=O)N([H])C(=O)N3C([H])([H])C([H])([H])C([H])([H])C([H])(n4nc(-c5c([H])c([H])c(Oc6c([H])c([H])c(F)c([H])c6F)c([H])c5[H])c(C(=O)N([H])[H])c4N([H])[H])C3([H])[H])C([H])([H])[H])c([H])c([H])c2C1([H])[H]

>  <smiles>  (52) 
[H]c1c([H])c([H])c2c(c1[H])C([H])([H])C([H])([H])C([H])([H])C2([H])N([H])C(=O)C1([H])N(C(=O)C([H])(N([H])C(=O)C([H])(N([H])C([H])([H])[H])C([H])([H])[H])C(C([H])([H])[H])(C([H])([H])[H])C([H])([H])[H])C([H])([H])c2c([H])c(OC([H])([H])C([H])(C(=O)N([H])C(=O)N3C([H])([H])C([H])([H])C([H])([H])C([H])(n4nc(-c5c([H])c([H])c(Oc6c([H])c([H])c(F)c([H])c6F)c([H])c5[H])c(C(=O)N([H])[H])c4N([H])[H])C3([H])[H])C([H])([H])[H])c([H])c([H])c2C1([H])[H]

$$$$
53:0:0
     RDKit          3D

 92100  0  0  1  0  0  0  0  0999 V2000
  -29.2480  -19.7060   20.4510 C   0  0  0  0  0  0  0  0  0  0  0  0
  -28.9940  -19.6290   21.6560 O   0  0  0  0  0  0  0  0  0  0  0  0
  -28.9080  -21.2780   19.7810 C   0  0  0  0  0  2  0  0  0  0  0  0
  -30.2580  -23.2890   20.8620 C   0  0  0  0  0  1  0  0  0  0  0  0
  -28.8180  -22.9230   20.4800 C   0  0  0  0  0  3  0  0  0  0  0  0
  -28.0700  -24.4410   19.8970 C   0  0  0  0  0  2  0  0  0  0  0  0
  -28.1880  -26.0200   20.3150 O   0  0  0  0  0  0  0  0  0  0  0  0
  -24.6220  -31.9340   23.2610 C   0  0  0  0  0  0  0  0  0  0  0  0
  -27.1710  -27.0960   20.2160 C   0  0  0  0  0  0  0  0  0  0  0  0
  -23.4210  -30.5460   21.6190 C   0  0  0  0  0  3  0  0  0  0  0  0
  -24.8660  -28.9530   20.1820 C   0  0  0  0  0  0  0  0  0  0  0  0
  -25.9850  -30.7660   21.4660 C   0  0  0  0  0  2  0  0  0  0  0  0
  -26.0530  -29.3620   20.8030 C   0  0  0  0  0  0  0  0  0  0  0  0
  -27.1980  -28.4520   20.8010 C   0  0  0  0  0  3  0  0  0  0  0  0
  -25.9600  -26.8350   19.5370 C   0  0  0  0  0  3  0  0  0  0  0  0
  -24.8430  -27.7100   19.5280 C   0  0  0  0  0  3  0  0  0  0  0  0
  -23.6460  -29.8690   20.2370 C   0  0  0  0  0  2  0  0  0  0  0  0
  -24.6970  -31.1080   22.1680 N   0  0  0  0  0  0  0  0  0  0  0  0
  -23.5340  -32.2210   23.7870 O   0  0  0  0  0  0  0  0  0  0  0  0
  -22.7320  -29.5450   22.5820 C   0  0  0  0  0  0  0  0  0  0  0  0
  -21.4040  -29.3710   22.4490 N   0  0  0  0  0  0  0  0  0  0  0  0
  -23.3970  -28.9250   23.4150 O   0  0  0  0  0  0  0  0  0  0  0  0
  -20.9200  -29.9220   21.7550 H   0  0  0  0  0  0  0  0  0  0  0  0
  -18.0280  -28.1370   22.9380 C   0  0  0  0  0  0  0  0  0  0  0  0
  -20.5830  -28.4290   23.2190 C   0  0  0  0  0  3  0  0  0  0  0  0
  -20.7020  -26.9950   22.6500 C   0  0  0  0  0  2  0  0  0  0  0  0
  -19.6100  -26.6590   21.6290 C   0  0  0  0  0  2  0  0  0  0  0  0
  -18.2220  -26.7900   22.2630 C   0  0  0  0  0  2  0  0  0  0  0  0
  -19.1350  -28.9140   23.3720 C   0  0  0  0  0  0  0  0  0  0  0  0
  -18.8970  -30.1730   23.9650 C   0  0  0  0  0  3  0  0  0  0  0  0
  -17.5850  -30.6570   24.1280 C   0  0  0  0  0  3  0  0  0  0  0  0
  -16.4930  -29.8780   23.7070 C   0  0  0  0  0  3  0  0  0  0  0  0
  -16.7140  -28.6200   23.1180 C   0  0  0  0  0  3  0  0  0  0  0  0
  -25.8960  -32.5720   23.8930 C   0  0  0  0  0  3  0  0  0  0  0  0
  -25.5860  -33.9760   24.2180 N   0  0  0  0  0  0  0  0  0  0  0  0
  -25.9150  -35.0300   23.4600 C   0  0  0  0  0  0  0  0  0  0  0  0
  -26.5730  -34.9240   22.4220 O   0  0  0  0  0  0  0  0  0  0  0  0
  -24.9980  -34.1310   25.0230 H   0  0  0  0  0  0  0  0  0  0  0  0
  -24.1920  -36.8370   23.1270 C   0  0  0  0  0  1  0  0  0  0  0  0
  -25.4400  -36.4230   23.9230 C   0  0  0  0  0  3  0  0  0  0  0  0
  -27.5800  -37.3080   24.7420 C   0  0  0  0  0  1  0  0  0  0  0  0
  -26.4770  -37.4710   23.7990 N   0  0  0  0  0  0  0  0  0  0  0  0
  -26.0750  -38.3940   23.9380 H   0  0  0  0  0  0  0  0  0  0  0  0
  -26.3930  -31.8130   25.1850 C   0  0  1  0  0  0  0  0  0  0  0  0
  -25.2860  -31.5890   26.2420 C   0  0  0  0  0  1  0  0  0  0  0  0
  -26.9770  -30.4290   24.8230 C   0  0  0  0  0  1  0  0  0  0  0  0
  -27.5360  -32.6110   25.8540 C   0  0  0  0  0  1  0  0  0  0  0  0
  -29.8630  -18.2120   19.6800 C   0  0  0  0  0  3  0  0  0  0  0  0
  -30.4880  -15.3580   19.9170 C   0  0  0  0  0  0  0  0  0  0  0  0
  -30.3910  -12.9430   19.0040 C   0  0  0  0  0  2  0  0  0  0  0  0
  -29.4020  -12.8020   17.8180 C   0  0  0  0  0  2  0  0  0  0  0  0
  -27.9760  -12.5350   18.3300 C   0  0  0  0  0  2  0  0  0  0  0  0
  -27.6010  -13.4620   19.5130 C   0  0  0  0  0  3  0  0  0  0  0  0
  -28.7120  -13.5600   20.5810 C   0  0  0  0  0  2  0  0  0  0  0  0
  -29.9150  -14.0580   19.8990 N   0  0  0  0  0  0  0  0  0  0  0  0
  -31.6750  -15.3640   19.5650 O   0  0  0  0  0  0  0  0  0  0  0  0
  -29.7220  -16.6060   20.0850 N   0  0  0  0  0  0  0  0  0  0  0  0
  -28.7940  -16.4150   20.4250 H   0  0  0  0  0  0  0  0  0  0  0  0
  -25.2750  -13.9990   20.4110 C   0  0  0  0  0  0  0  0  0  0  0  0
  -24.2370  -13.2110   20.8240 C   0  0  0  0  0  0  0  0  0  0  0  0
  -24.7040  -11.8630   20.7350 C   0  0  0  0  0  0  0  0  0  0  0  0
  -26.3030  -13.1320   20.0880 N   0  0  0  0  0  0  0  0  0  0  0  0
  -25.9750  -11.8400   20.3510 N   0  0  0  0  0  0  0  0  0  0  0  0
  -23.9900  -10.5940   20.9370 C   0  0  0  0  0  0  0  0  0  0  0  0
  -24.4470   -9.6270   21.8580 C   0  0  0  0  0  3  0  0  0  0  0  0
  -23.7300   -8.4250   22.0500 C   0  0  0  0  0  3  0  0  0  0  0  0
  -22.5410   -8.1830   21.3200 C   0  0  0  0  0  0  0  0  0  0  0  0
  -22.1030   -9.1400   20.3870 C   0  0  0  0  0  3  0  0  0  0  0  0
  -22.8210  -10.3320   20.1940 C   0  0  0  0  0  3  0  0  0  0  0  0
  -21.7940   -7.0340   21.4210 O   0  0  0  0  0  0  0  0  0  0  0  0
  -21.7460   -6.3080   22.5830 C   0  0  0  0  0  0  0  0  0  0  0  0
  -21.2560   -6.8600   23.7870 C   0  0  0  0  0  3  0  0  0  0  0  0
  -21.1580   -6.0570   24.9410 C   0  0  0  0  0  3  0  0  0  0  0  0
  -21.5390   -4.7030   24.8920 C   0  0  0  0  0  0  0  0  0  0  0  0
  -22.0220   -4.1500   23.6930 C   0  0  0  0  0  3  0  0  0  0  0  0
  -22.1220   -4.9510   22.5410 C   0  0  0  0  0  0  0  0  0  0  0  0
  -22.5670   -4.4070   21.3830 F   0  0  0  0  0  0  0  0  0  0  0  0
  -21.4390   -3.9300   25.9990 F   0  0  0  0  0  0  0  0  0  0  0  0
  -22.8560  -13.6770   21.1800 C   0  0  0  0  0  0  0  0  0  0  0  0
  -22.1740  -12.9580   22.0640 N   0  0  0  0  0  0  0  0  0  0  0  0
  -22.3930  -14.7160   20.7100 O   0  0  0  0  0  0  0  0  0  0  0  0
  -22.5640  -12.1180   22.4640 H   0  0  0  0  0  0  0  0  0  0  0  0
  -21.2500  -13.2530   22.3440 H   0  0  0  0  0  0  0  0  0  0  0  0
  -25.4210  -15.3740   20.2530 N   0  0  0  0  0  0  0  0  0  0  0  0
  -24.6510  -16.0150   20.4130 H   0  0  0  0  0  0  0  0  0  0  0  0
  -26.2250  -15.8200   19.8330 H   0  0  0  0  0  0  0  0  0  0  0  0
  -33.5180  -18.7120   20.1790 C   0  0  0  0  0  3  0  0  0  0  0  0
  -33.6050  -18.9840   18.8400 C   0  0  0  0  0  0  0  0  0  0  0  0
  -31.3310  -18.4880   19.5450 C   0  0  0  0  0  0  0  0  0  0  0  0
  -32.2000  -18.4320   20.5710 N   0  0  0  0  0  0  0  0  0  0  0  0
  -34.7600  -19.2910   18.2000 F   0  0  0  0  0  0  0  0  0  0  0  0
  -32.0860  -18.9080   18.0050 S   0  0  0  0  0  0  0  0  0  0  0  0
  1  2  2  0
  3  1  1  0
  3  5  1  0
  5  4  1  0
  6  7  1  0
  6  5  1  0
  8 19  2  0
  9  7  1  0
  9 14  1  0
 10 18  1  0
 10 20  1  0
 11 17  1  0
 11 13  1  0
 12 18  1  0
 13 12  1  0
 14 13  2  0
 15  9  2  0
 16 15  1  0
 16 11  2  0
 17 10  1  0
 18  8  1  0
 20 22  2  0
 21 20  1  0
 23 21  1  0
 24 33  2  0
 24 29  1  0
 25 21  1  0
 25 29  1  0
 26 25  1  0
 27 28  1  0
 27 26  1  0
 28 24  1  0
 29 30  2  0
 30 31  1  0
 32 31  2  0
 33 32  1  0
 34  8  1  0
 34 35  1  0
 34 44  1  0
 35 38  1  0
 36 40  1  0
 36 35  1  0
 37 36  2  0
 40 39  1  0
 42 40  1  0
 42 43  1  0
 42 41  1  0
 44 47  1  1
 44 45  1  0
 46 44  1  0
 48 57  1  0
 48  1  1  0
 49 57  1  0
 50 55  1  0
 51 52  1  0
 51 50  1  0
 53 52  1  0
 53 62  1  0
 53 54  1  0
 55 49  1  0
 55 54  1  0
 56 49  2  0
 57 58  1  0
 59 60  2  0
 60 79  1  0
 61 60  1  0
 61 64  1  0
 62 63  1  0
 62 59  1  0
 63 61  2  0
 64 65  1  0
 65 66  2  0
 67 70  1  0
 67 66  1  0
 68 67  2  0
 69 68  1  0
 69 64  2  0
 70 71  1  0
 71 72  1  0
 72 73  2  0
 74 73  1  0
 74 78  1  0
 75 74  2  0
 76 71  2  0
 76 75  1  0
 77 76  1  0
 79 80  1  0
 80 83  1  0
 80 82  1  0
 81 79  2  0
 84 59  1  0
 84 85  1  0
 86 84  1  0
 87 90  1  0
 88 87  2  0
 89 48  1  0
 89 90  2  0
 91 88  1  0
 92 88  1  0
 92 89  1  0
M  ISO  4   6 101   7 101  49 100  57 100
M  END
>  <TORSDO>  (53) 
F 21

>  <SCORE>  (53) 
-14.683

>  <name>  (53) 
53

>  <ligand_id>  (53) 
53

>  <original_smiles>  (53) 
[H]c1nc(C([H])(C(=O)C([H])([H])C([H])(C([H])([H])[H])C([H])([H])Oc2c([H])c([H])c3c(c2[H])C([H])([H])N(C(=O)C([H])(N([H])C(=O)C([H])(N([H])C([H])([H])[H])C([H])([H])[H])C(C([H])([H])[H])(C([H])([H])[H])C([H])([H])[H])C([H])(C(=O)N([H])C2([H])c4c([H])c([H])c([H])c([H])c4C([H])([H])C([H])([H])C2([H])[H])C3([H])[H])N([H])C(=O)N2C([H])([H])C([H])([H])C([H])([H])C([H])(n3nc(-c4c([H])c([H])c(Oc5c([H])c([H])c(F)c([H])c5F)c([H])c4[H])c(C(=O)N([H])[H])c3N([H])[H])C2([H])[H])sc1F

>  <smiles>  (53) 
[H]c1nc(C([H])(C(=O)C([H])([H])C([H])(C([H])([H])[H])C([H])([H])Oc2c([H])c([H])c3c(c2[H])C([H])([H])N(C(=O)C([H])(N([H])C(=O)C([H])(N([H])C([H])([H])[H])C([H])([H])[H])C(C([H])([H])[H])(C([H])([H])[H])C([H])([H])[H])C([H])(C(=O)N([H])C2([H])c4c([H])c([H])c([H])c([H])c4C([H])([H])C([H])([H])C2([H])[H])C3([H])[H])N([H])C(=O)N2C([H])([H])C([H])([H])C([H])([H])C([H])(n3nc(-c4c([H])c([H])c(Oc5c([H])c([H])c(F)c([H])c5F)c([H])c4[H])c(C(=O)N([H])[H])c3N([H])[H])C2([H])[H])sc1F

$$$$
54:0:0
     RDKit          3D

 91 99  0  0  1  0  0  0  0  0999 V2000
  -29.9390  -17.4560   20.2430 C   0  0  0  0  0  0  0  0  0  0  0  0
  -29.1600  -19.8410   19.8070 C   0  0  0  0  0  0  0  0  0  0  0  0
  -29.0580  -22.4230   20.2810 C   0  0  0  0  0  0  0  0  0  0  0  0
  -28.9700  -17.5640   19.3130 N   0  0  0  0  0  0  0  0  0  0  0  0
  -28.5580  -18.8990   19.0490 N   0  0  0  0  0  0  0  0  0  0  0  0
  -28.7630  -21.2500   19.6220 N   0  0  0  0  0  0  0  0  0  0  0  0
  -29.7900  -22.4240   21.2720 O   0  0  0  0  0  0  0  0  0  0  0  0
  -30.3760  -19.0950   20.8900 S   0  0  0  0  0  0  0  0  0  0  0  0
  -28.1290  -21.3750   18.8470 H   0  0  0  0  0  0  0  0  0  0  0  0
  -29.6770  -15.8480   22.2050 C   0  0  0  0  0  1  0  0  0  0  0  0
  -30.4470  -16.1210   20.9030 C   0  0  0  0  0  3  0  0  0  0  0  0
  -30.8700  -14.8420   20.0080 C   0  0  0  0  0  0  0  0  0  0  0  0
  -30.5380  -12.6500   18.8240 C   0  0  0  0  0  2  0  0  0  0  0  0
  -29.5110  -12.8050   17.6800 C   0  0  0  0  0  2  0  0  0  0  0  0
  -28.0700  -12.6290   18.1980 C   0  0  0  0  0  2  0  0  0  0  0  0
  -27.8120  -13.4390   19.4950 C   0  0  0  0  0  3  0  0  0  0  0  0
  -28.9400  -13.2020   20.5130 C   0  0  0  0  0  2  0  0  0  0  0  0
  -30.2030  -13.6320   19.8890 N   0  0  0  0  0  0  0  0  0  0  0  0
  -31.9310  -14.9640   19.3850 O   0  0  0  0  0  0  0  0  0  0  0  0
  -25.4900  -14.0380   20.4110 C   0  0  0  0  0  0  0  0  0  0  0  0
  -24.4420  -13.2640   20.8320 C   0  0  0  0  0  0  0  0  0  0  0  0
  -24.8800  -11.9100   20.7180 C   0  0  0  0  0  0  0  0  0  0  0  0
  -26.4990  -13.1530   20.0660 N   0  0  0  0  0  0  0  0  0  0  0  0
  -26.1430  -11.8660   20.3100 N   0  0  0  0  0  0  0  0  0  0  0  0
  -24.1500  -10.6510   20.9170 C   0  0  0  0  0  0  0  0  0  0  0  0
  -24.6000   -9.6740   21.8340 C   0  0  0  0  0  3  0  0  0  0  0  0
  -23.8700   -8.4790   22.0220 C   0  0  0  0  0  3  0  0  0  0  0  0
  -22.6790   -8.2530   21.2930 C   0  0  0  0  0  0  0  0  0  0  0  0
  -22.2490   -9.2190   20.3660 C   0  0  0  0  0  3  0  0  0  0  0  0
  -22.9770  -10.4050   20.1760 C   0  0  0  0  0  3  0  0  0  0  0  0
  -21.9200   -7.1120   21.3900 O   0  0  0  0  0  0  0  0  0  0  0  0
  -21.8490   -6.3920   22.5560 C   0  0  0  0  0  0  0  0  0  0  0  0
  -21.3600   -6.9600   23.7530 C   0  0  0  0  0  3  0  0  0  0  0  0
  -21.2380   -6.1640   24.9090 C   0  0  0  0  0  3  0  0  0  0  0  0
  -21.5940   -4.8030   24.8700 C   0  0  0  0  0  0  0  0  0  0  0  0
  -22.0770   -4.2350   23.6790 C   0  0  0  0  0  3  0  0  0  0  0  0
  -22.2010   -5.0280   22.5230 C   0  0  0  0  0  0  0  0  0  0  0  0
  -22.6460   -4.4700   21.3710 F   0  0  0  0  0  0  0  0  0  0  0  0
  -21.4710   -4.0370   25.9790 F   0  0  0  0  0  0  0  0  0  0  0  0
  -23.0770  -13.7500   21.2250 C   0  0  0  0  0  0  0  0  0  0  0  0
  -22.4080  -13.0370   22.1240 N   0  0  0  0  0  0  0  0  0  0  0  0
  -22.6130  -14.7940   20.7690 O   0  0  0  0  0  0  0  0  0  0  0  0
  -22.7970  -12.1930   22.5170 H   0  0  0  0  0  0  0  0  0  0  0  0
  -21.4960  -13.3440   22.4290 H   0  0  0  0  0  0  0  0  0  0  0  0
  -25.6640  -15.4120   20.2740 N   0  0  0  0  0  0  0  0  0  0  0  0
  -24.9200  -16.0720   20.4660 H   0  0  0  0  0  0  0  0  0  0  0  0
  -26.4970  -15.8510   19.9000 H   0  0  0  0  0  0  0  0  0  0  0  0
  -28.4720  -23.8230   19.7560 C   0  0  0  0  0  2  0  0  0  0  0  0
  -27.3950  -24.9550   21.8460 C   0  0  0  0  0  1  0  0  0  0  0  0
  -28.4350  -25.1230   20.7190 C   0  0  0  0  0  3  0  0  0  0  0  0
  -28.4640  -26.5270   20.1720 O   0  0  0  0  0  0  0  0  0  0  0  0
  -24.6140  -31.8530   23.2390 C   0  0  0  0  0  0  0  0  0  0  0  0
  -27.3320  -27.3610   20.1580 C   0  0  0  0  0  0  0  0  0  0  0  0
  -23.4570  -30.4650   21.5560 C   0  0  0  0  0  3  0  0  0  0  0  0
  -24.9520  -28.9510   20.1290 C   0  0  0  0  0  0  0  0  0  0  0  0
  -25.9960  -30.8160   21.4200 C   0  0  0  0  0  2  0  0  0  0  0  0
  -26.1040  -29.4470   20.7540 C   0  0  0  0  0  0  0  0  0  0  0  0
  -27.2990  -28.6640   20.7530 C   0  0  0  0  0  3  0  0  0  0  0  0
  -26.1630  -26.9230   19.5060 C   0  0  0  0  0  3  0  0  0  0  0  0
  -24.9840  -27.6970   19.4960 C   0  0  0  0  0  3  0  0  0  0  0  0
  -23.7030  -29.8110   20.1690 C   0  0  0  0  0  2  0  0  0  0  0  0
  -24.7070  -31.0620   22.1290 N   0  0  0  0  0  0  0  0  0  0  0  0
  -23.5180  -32.1070   23.7600 O   0  0  0  0  0  0  0  0  0  0  0  0
  -22.7920  -29.4260   22.4900 C   0  0  0  0  0  0  0  0  0  0  0  0
  -21.4710  -29.2340   22.3360 N   0  0  0  0  0  0  0  0  0  0  0  0
  -23.4630  -28.7970   23.3110 O   0  0  0  0  0  0  0  0  0  0  0  0
  -20.9870  -29.7930   21.6470 H   0  0  0  0  0  0  0  0  0  0  0  0
  -18.0990  -27.9990   22.7690 C   0  0  0  0  0  0  0  0  0  0  0  0
  -20.6520  -28.2710   23.0750 C   0  0  0  0  0  3  0  0  0  0  0  0
  -20.7710  -26.8550   22.4660 C   0  0  0  0  0  2  0  0  0  0  0  0
  -19.6830  -26.5500   21.4310 C   0  0  0  0  0  2  0  0  0  0  0  0
  -18.2930  -26.6680   22.0640 C   0  0  0  0  0  2  0  0  0  0  0  0
  -19.2060  -28.7600   23.2300 C   0  0  0  0  0  0  0  0  0  0  0  0
  -18.9700  -30.0060   23.8490 C   0  0  0  0  0  3  0  0  0  0  0  0
  -17.6590  -30.4920   24.0120 C   0  0  0  0  0  3  0  0  0  0  0  0
  -16.5650  -29.7280   23.5680 C   0  0  0  0  0  3  0  0  0  0  0  0
  -16.7870  -28.4840   22.9520 C   0  0  0  0  0  3  0  0  0  0  0  0
  -25.8780  -32.4910   23.8940 C   0  0  0  0  0  3  0  0  0  0  0  0
  -26.3480  -31.7390   25.1990 C   0  0  1  0  0  0  0  0  0  0  0  0
  -25.2160  -31.5120   26.2280 C   0  0  0  0  0  1  0  0  0  0  0  0
  -26.9480  -30.3570   24.8480 C   0  0  0  0  0  1  0  0  0  0  0  0
  -27.4720  -32.5440   25.8930 C   0  0  0  0  0  1  0  0  0  0  0  0
  -25.5610  -33.8950   24.1950 N   0  0  0  0  0  0  0  0  0  0  0  0
  -25.9010  -34.9360   23.4220 C   0  0  0  0  0  0  0  0  0  0  0  0
  -26.5850  -34.8150   22.4020 O   0  0  0  0  0  0  0  0  0  0  0  0
  -24.9570  -34.0620   24.9860 H   0  0  0  0  0  0  0  0  0  0  0  0
  -24.1740  -36.7200   23.0180 C   0  0  0  0  0  1  0  0  0  0  0  0
  -25.4070  -36.3310   23.8490 C   0  0  0  0  0  3  0  0  0  0  0  0
  -27.5250  -37.2440   24.6960 C   0  0  0  0  0  1  0  0  0  0  0  0
  -26.4400  -37.3840   23.7280 N   0  0  0  0  0  0  0  0  0  0  0  0
  -26.0300  -38.3070   23.8420 H   0  0  0  0  0  0  0  0  0  0  0  0
  1  8  1  0
  1 11  1  0
  2  8  1  0
  3  7  2  0
  4  1  2  0
  5  4  1  0
  5  2  2  0
  6  2  1  0
  6  3  1  0
  9  6  1  0
 11 10  1  0
 12 11  1  0
 13 18  1  0
 14 15  1  0
 14 13  1  0
 16 15  1  0
 16 23  1  0
 16 17  1  0
 18 12  1  0
 18 17  1  0
 19 12  2  0
 20 21  2  0
 21 40  1  0
 22 21  1  0
 22 25  1  0
 23 24  1  0
 23 20  1  0
 24 22  2  0
 25 26  1  0
 26 27  2  0
 28 31  1  0
 28 27  1  0
 29 28  2  0
 30 29  1  0
 30 25  2  0
 31 32  1  0
 32 33  1  0
 33 34  2  0
 35 34  1  0
 35 39  1  0
 36 35  2  0
 37 32  2  0
 37 36  1  0
 38 37  1  0
 40 41  1  0
 41 44  1  0
 41 43  1  0
 42 40  2  0
 45 20  1  0
 45 46  1  0
 47 45  1  0
 48  3  1  0
 48 50  1  0
 50 49  1  0
 51 50  1  0
 52 63  2  0
 53 51  1  0
 53 58  1  0
 54 62  1  0
 54 64  1  0
 55 61  1  0
 55 57  1  0
 56 62  1  0
 57 56  1  0
 58 57  2  0
 59 53  2  0
 60 59  1  0
 60 55  2  0
 61 54  1  0
 62 52  1  0
 64 66  2  0
 65 64  1  0
 67 65  1  0
 68 77  2  0
 68 73  1  0
 69 65  1  0
 69 73  1  0
 70 69  1  0
 71 72  1  0
 71 70  1  0
 72 68  1  0
 73 74  2  0
 74 75  1  0
 76 75  2  0
 77 76  1  0
 78 52  1  0
 78 83  1  0
 78 79  1  0
 79 82  1  1
 79 80  1  0
 81 79  1  0
 83 86  1  0
 84 88  1  0
 84 83  1  0
 85 84  2  0
 88 87  1  0
 90 91  1  0
 90 88  1  0
 90 89  1  0
M  ISO  4  11 100  12 100  50 101  51 101
M  END
>  <TORSDO>  (54) 
F 19

>  <SCORE>  (54) 
-13.073

>  <name>  (54) 
54

>  <ligand_id>  (54) 
54

>  <original_smiles>  (54) 
[H]c1c([H])c([H])c2c(c1[H])C([H])([H])C([H])([H])C([H])([H])C2([H])N([H])C(=O)C1([H])N(C(=O)C([H])(N([H])C(=O)C([H])(N([H])C([H])([H])[H])C([H])([H])[H])C(C([H])([H])[H])(C([H])([H])[H])C([H])([H])[H])C([H])([H])c2c([H])c(OC([H])(C([H])([H])[H])C([H])([H])C(=O)N([H])c3nnc(C([H])(C(=O)N4C([H])([H])C([H])([H])C([H])([H])C([H])(n5nc(-c6c([H])c([H])c(Oc7c([H])c([H])c(F)c([H])c7F)c([H])c6[H])c(C(=O)N([H])[H])c5N([H])[H])C4([H])[H])C([H])([H])[H])s3)c([H])c([H])c2C1([H])[H]

>  <smiles>  (54) 
[H]c1c([H])c([H])c2c(c1[H])C([H])([H])C([H])([H])C([H])([H])C2([H])N([H])C(=O)C1([H])N(C(=O)C([H])(N([H])C(=O)C([H])(N([H])C([H])([H])[H])C([H])([H])[H])C(C([H])([H])[H])(C([H])([H])[H])C([H])([H])[H])C([H])([H])c2c([H])c(OC([H])(C([H])([H])[H])C([H])([H])C(=O)N([H])c3nnc(C([H])(C(=O)N4C([H])([H])C([H])([H])C([H])([H])C([H])(n5nc(-c6c([H])c([H])c(Oc7c([H])c([H])c(F)c([H])c7F)c([H])c6[H])c(C(=O)N([H])[H])c5N([H])[H])C4([H])[H])C([H])([H])[H])s3)c([H])c([H])c2C1([H])[H]

$$$$
55:0:0
     RDKit          3D

 93101  0  0  1  0  0  0  0  0999 V2000
  -29.2210  -21.6240   20.4030 N   0  0  0  0  0  4  0  0  0  0  0  0
  -29.8200  -21.5120   19.6030 H   0  0  0  0  0  0  0  0  0  0  0  0
  -28.2680  -21.5610   20.0840 H   0  0  0  0  0  0  0  0  0  0  0  0
  -30.9940  -23.2620   21.0090 C   0  0  0  0  0  1  0  0  0  0  0  0
  -29.4730  -22.9860   20.9920 C   0  0  0  0  0  3  0  0  0  0  0  0
  -28.6910  -24.1720   20.2890 C   0  0  0  0  0  2  0  0  0  0  0  0
  -27.9040  -25.5990   22.3250 C   0  0  0  0  0  1  0  0  0  0  0  0
  -28.7190  -25.5700   21.0160 C   0  0  0  0  0  3  0  0  0  0  0  0
  -28.4750  -26.7110   20.1430 O   0  0  0  0  0  0  0  0  0  0  0  0
  -24.6080  -31.8960   23.2230 C   0  0  0  0  0  0  0  0  0  0  0  0
  -27.2880  -27.4250   20.1980 C   0  0  0  0  0  0  0  0  0  0  0  0
  -23.4110  -30.4780   21.5830 C   0  0  0  0  0  3  0  0  0  0  0  0
  -24.8820  -28.9280   20.1750 C   0  0  0  0  0  0  0  0  0  0  0  0
  -25.9370  -30.8390   21.3980 C   0  0  0  0  0  2  0  0  0  0  0  0
  -26.0320  -29.4610   20.7700 C   0  0  0  0  0  0  0  0  0  0  0  0
  -27.2410  -28.7190   20.7740 C   0  0  0  0  0  3  0  0  0  0  0  0
  -26.1280  -26.9120   19.5870 C   0  0  0  0  0  3  0  0  0  0  0  0
  -24.9270  -27.6560   19.5730 C   0  0  0  0  0  3  0  0  0  0  0  0
  -23.6300  -29.7800   20.2110 C   0  0  0  0  0  2  0  0  0  0  0  0
  -24.6680  -31.0890   22.1260 N   0  0  0  0  0  0  0  0  0  0  0  0
  -23.5250  -32.1680   23.7620 O   0  0  0  0  0  0  0  0  0  0  0  0
  -22.7560  -29.4670   22.5520 C   0  0  0  0  0  0  0  0  0  0  0  0
  -21.4310  -29.2860   22.4260 N   0  0  0  0  0  0  0  0  0  0  0  0
  -23.4390  -28.8450   23.3700 O   0  0  0  0  0  0  0  0  0  0  0  0
  -20.9440  -29.8380   21.7360 H   0  0  0  0  0  0  0  0  0  0  0  0
  -18.0540  -28.1040   22.9370 C   0  0  0  0  0  0  0  0  0  0  0  0
  -20.6130  -28.3520   23.2000 C   0  0  0  0  0  3  0  0  0  0  0  0
  -20.7070  -26.9200   22.6210 C   0  0  0  0  0  2  0  0  0  0  0  0
  -19.6000  -26.6060   21.6090 C   0  0  0  0  0  2  0  0  0  0  0  0
  -18.2240  -26.7540   22.2600 C   0  0  0  0  0  2  0  0  0  0  0  0
  -19.1770  -28.8620   23.3640 C   0  0  0  0  0  0  0  0  0  0  0  0
  -18.9660  -30.1260   23.9560 C   0  0  0  0  0  3  0  0  0  0  0  0
  -17.6640  -30.6320   24.1240 C   0  0  0  0  0  3  0  0  0  0  0  0
  -16.5550  -29.8710   23.7150 C   0  0  0  0  0  3  0  0  0  0  0  0
  -16.7510  -28.6090   23.1290 C   0  0  0  0  0  3  0  0  0  0  0  0
  -25.8940  -32.5320   23.8430 C   0  0  0  0  0  3  0  0  0  0  0  0
  -26.4160  -31.7630   25.1190 C   0  0  1  0  0  0  0  0  0  0  0  0
  -25.3270  -31.5240   26.1900 C   0  0  0  0  0  1  0  0  0  0  0  0
  -27.0000  -30.3850   24.7310 C   0  0  0  0  0  1  0  0  0  0  0  0
  -27.5650  -32.5620   25.7800 C   0  0  0  0  0  1  0  0  0  0  0  0
  -25.5820  -33.9290   24.1700 N   0  0  0  0  0  0  0  0  0  0  0  0
  -25.9130  -34.9800   23.4070 C   0  0  0  0  0  0  0  0  0  0  0  0
  -26.5830  -34.8770   22.3770 O   0  0  0  0  0  0  0  0  0  0  0  0
  -24.9830  -34.0850   24.9680 H   0  0  0  0  0  0  0  0  0  0  0  0
  -24.1770  -36.7640   23.0480 C   0  0  0  0  0  1  0  0  0  0  0  0
  -25.4210  -36.3700   23.8600 C   0  0  0  0  0  3  0  0  0  0  0  0
  -27.5550  -37.2600   24.6850 C   0  0  0  0  0  1  0  0  0  0  0  0
  -26.4520  -37.4250   23.7430 N   0  0  0  0  0  0  0  0  0  0  0  0
  -26.0430  -38.3430   23.8940 H   0  0  0  0  0  0  0  0  0  0  0  0
  -29.4480  -20.4630   21.3290 C   0  0  0  0  0  3  0  0  0  0  0  0
  -30.6450  -14.5180   20.2840 C   0  0  0  0  0  0  0  0  0  0  0  0
  -30.3210  -12.3750   19.0950 C   0  0  0  0  0  2  0  0  0  0  0  0
  -29.3490  -12.6130   17.9200 C   0  0  0  0  0  2  0  0  0  0  0  0
  -27.8880  -12.4660   18.3880 C   0  0  0  0  0  2  0  0  0  0  0  0
  -27.5880  -13.2760   19.6780 C   0  0  0  0  0  3  0  0  0  0  0  0
  -28.6670  -13.0230   20.7560 C   0  0  0  0  0  2  0  0  0  0  0  0
  -29.9830  -13.3310   20.1700 N   0  0  0  0  0  0  0  0  0  0  0  0
  -31.7420  -14.7120   19.7480 O   0  0  0  0  0  0  0  0  0  0  0  0
  -29.5250  -19.0620   20.6820 C   0  0  0  0  0  0  0  0  0  0  0  0
  -29.8380  -16.8420   20.4850 C   0  0  0  0  0  0  0  0  0  0  0  0
  -29.7220  -17.8930   21.3330 N   0  0  0  0  0  0  0  0  0  0  0  0
  -29.6920  -17.0890   19.1700 N   0  0  0  0  0  2  0  0  0  0  0  0
  -30.0070  -15.5030   20.9570 N   0  0  0  0  0  0  0  0  0  0  0  0
  -29.4110  -18.7420   18.9650 S   0  0  0  0  0  0  0  0  0  0  0  0
  -29.3190  -15.2000   21.6260 H   0  0  0  0  0  0  0  0  0  0  0  0
  -25.2060  -13.8790   20.4400 C   0  0  0  0  0  0  0  0  0  0  0  0
  -24.1460  -13.1060   20.8310 C   0  0  0  0  0  0  0  0  0  0  0  0
  -24.6050  -11.7530   20.7840 C   0  0  0  0  0  0  0  0  0  0  0  0
  -26.2440  -12.9970   20.1820 N   0  0  0  0  0  0  0  0  0  0  0  0
  -25.8870  -11.7140   20.4440 N   0  0  0  0  0  0  0  0  0  0  0  0
  -23.8810  -10.4910   20.9870 C   0  0  0  0  0  0  0  0  0  0  0  0
  -24.3350   -9.5210   21.9080 C   0  0  0  0  0  3  0  0  0  0  0  0
  -23.6130   -8.3230   22.0990 C   0  0  0  0  0  3  0  0  0  0  0  0
  -22.4230   -8.0880   21.3690 C   0  0  0  0  0  0  0  0  0  0  0  0
  -21.9860   -9.0480   20.4400 C   0  0  0  0  0  3  0  0  0  0  0  0
  -22.7090  -10.2370   20.2470 C   0  0  0  0  0  3  0  0  0  0  0  0
  -21.6680   -6.9430   21.4730 O   0  0  0  0  0  0  0  0  0  0  0  0
  -21.6460   -6.1960   22.6240 C   0  0  0  0  0  0  0  0  0  0  0  0
  -21.2510   -6.7460   23.8620 C   0  0  0  0  0  3  0  0  0  0  0  0
  -21.1750   -5.9270   25.0060 C   0  0  0  0  0  3  0  0  0  0  0  0
  -21.4830   -4.5560   24.9120 C   0  0  0  0  0  0  0  0  0  0  0  0
  -21.8720   -4.0040   23.6780 C   0  0  0  0  0  3  0  0  0  0  0  0
  -21.9480   -4.8210   22.5360 C   0  0  0  0  0  0  0  0  0  0  0  0
  -22.3020   -4.2810   21.3460 F   0  0  0  0  0  0  0  0  0  0  0  0
  -21.4020   -3.7650   26.0070 F   0  0  0  0  0  0  0  0  0  0  0  0
  -22.7560  -13.5840   21.1380 C   0  0  0  0  0  0  0  0  0  0  0  0
  -22.0470  -12.8860   22.0200 N   0  0  0  0  0  0  0  0  0  0  0  0
  -22.3080  -14.6130   20.6350 O   0  0  0  0  0  0  0  0  0  0  0  0
  -22.4220  -12.0530   22.4470 H   0  0  0  0  0  0  0  0  0  0  0  0
  -21.1160  -13.1890   22.2670 H   0  0  0  0  0  0  0  0  0  0  0  0
  -25.3750  -15.2500   20.2640 N   0  0  0  0  0  0  0  0  0  0  0  0
  -24.6270  -15.9190   20.4060 H   0  0  0  0  0  0  0  0  0  0  0  0
  -26.2150  -15.6720   19.8890 H   0  0  0  0  0  0  0  0  0  0  0  0
  1  5  1  0
  1 50  1  0
  2  1  1  0
  3  1  1  0
  5  4  1  0
  6  5  1  0
  6  8  1  0
  8  7  1  0
  9 11  1  0
  9  8  1  0
 10 21  2  0
 11 16  1  0
 12 20  1  0
 12 22  1  0
 13 19  1  0
 13 15  1  0
 14 20  1  0
 15 16  2  0
 15 14  1  0
 17 11  2  0
 18 17  1  0
 18 13  2  0
 19 12  1  0
 20 10  1  0
 22 24  2  0
 23 22  1  0
 25 23  1  0
 26 35  2  0
 26 31  1  0
 27 23  1  0
 27 31  1  0
 28 27  1  0
 29 30  1  0
 29 28  1  0
 30 26  1  0
 31 32  2  0
 32 33  1  0
 34 33  2  0
 35 34  1  0
 36 10  1  0
 36 41  1  0
 36 37  1  0
 37 40  1  1
 37 38  1  0
 39 37  1  0
 41 44  1  0
 42 46  1  0
 42 41  1  0
 43 42  2  0
 46 45  1  0
 48 46  1  0
 48 49  1  0
 48 47  1  0
 51 63  1  0
 52 57  1  0
 53 54  1  0
 53 52  1  0
 55 54  1  0
 55 69  1  0
 55 56  1  0
 57 51  1  0
 57 56  1  0
 58 51  2  0
 59 50  2  0
 59 61  1  0
 60 63  1  0
 60 61  2  0
 62 60  1  0
 63 65  1  0
 64 62  1  0
 64 59  1  0
 66 67  2  0
 67 86  1  0
 68 67  1  0
 68 71  1  0
 69 66  1  0
 69 70  1  0
 70 68  2  0
 71 72  1  0
 72 73  2  0
 74 77  1  0
 74 73  1  0
 75 74  2  0
 76 75  1  0
 76 71  2  0
 77 78  1  0
 78 79  1  0
 79 80  2  0
 81 80  1  0
 81 85  1  0
 82 81  2  0
 83 78  2  0
 83 82  1  0
 84 83  1  0
 86 87  1  0
 87 90  1  0
 87 89  1  0
 88 86  2  0
 91 92  1  0
 91 66  1  0
 93 91  1  0
M  ISO  4   8 101   9 101  51 100  63 100
M  END
>  <TORSDO>  (55) 
F 20

>  <SCORE>  (55) 
-13.844

>  <name>  (55) 
55

>  <ligand_id>  (55) 
55

>  <original_smiles>  (55) 
[H]c1c([H])c([H])c2c(c1[H])C([H])([H])C([H])([H])C([H])([H])C2([H])N([H])C(=O)C1([H])N(C(=O)C([H])(N([H])C(=O)C([H])(N([H])C([H])([H])[H])C([H])([H])[H])C(C([H])([H])[H])(C([H])([H])[H])C([H])([H])[H])C([H])([H])c2c([H])c(OC([H])(C([H])([H])[H])C([H])([H])C([H])(C([H])([H])[H])[N+]([H])([H])C([H])([H])c3nc(N([H])C(=O)N4C([H])([H])C([H])([H])C([H])([H])C([H])(n5nc(-c6c([H])c([H])c(Oc7c([H])c([H])c(F)c([H])c7F)c([H])c6[H])c(C(=O)N([H])[H])c5N([H])[H])C4([H])[H])ns3)c([H])c([H])c2C1([H])[H]

>  <smiles>  (55) 
[H]c1c([H])c([H])c2c(c1[H])C([H])([H])C([H])([H])C([H])([H])C2([H])N([H])C(=O)C1([H])N(C(=O)C([H])(N([H])C(=O)C([H])(N([H])C([H])([H])[H])C([H])([H])[H])C(C([H])([H])[H])(C([H])([H])[H])C([H])([H])[H])C([H])([H])c2c([H])c(OC([H])(C([H])([H])[H])C([H])([H])C([H])(C([H])([H])[H])[N+]([H])([H])C([H])([H])c3nc(N([H])C(=O)N4C([H])([H])C([H])([H])C([H])([H])C([H])(n5nc(-c6c([H])c([H])c(Oc7c([H])c([H])c(F)c([H])c7F)c([H])c6[H])c(C(=O)N([H])[H])c5N([H])[H])C4([H])[H])ns3)c([H])c([H])c2C1([H])[H]

$$$$
56:0:0
     RDKit          3D

101109  0  0  1  0  0  0  0  0999 V2000
  -31.0880  -18.8240   19.7500 C   0  0  0  0  0  0  0  0  0  0  0  0
  -30.4340  -18.0560   20.7110 C   0  0  0  0  0  0  0  0  0  0  0  0
  -29.4550  -20.3340   20.3550 C   0  0  0  0  0  0  0  0  0  0  0  0
  -29.1150  -22.7450   19.7760 C   0  0  0  0  0  0  0  0  0  0  0  0
  -30.5010  -20.0880   19.5770 N   0  0  0  0  0  0  0  0  0  0  0  0
  -28.6970  -21.5400   20.2450 N   0  0  0  0  0  0  0  0  0  0  0  0
  -30.3070  -23.0670   19.7610 O   0  0  0  0  0  0  0  0  0  0  0  0
  -29.0630  -18.9530   21.3750 S   0  0  0  0  0  0  0  0  0  0  0  0
  -27.7320  -21.4520   20.5240 H   0  0  0  0  0  0  0  0  0  0  0  0
  -33.0000  -17.2510   18.9890 C   0  0  0  0  0  1  0  0  0  0  0  0
  -33.3770  -19.6740   19.2080 C   0  0  0  0  0  1  0  0  0  0  0  0
  -31.8730  -18.7230   17.3940 C   0  0  0  0  0  1  0  0  0  0  0  0
  -32.3150  -18.6110   18.8670 C   0  0  2  0  0  0  0  0  0  0  0  0
  -30.7720  -16.7080   21.3350 C   0  0  0  0  0  2  0  0  0  0  0  0
  -30.7140  -14.4470   20.2380 C   0  0  0  0  0  0  0  0  0  0  0  0
  -30.2710  -12.3620   18.9960 C   0  0  0  0  0  2  0  0  0  0  0  0
  -29.2840  -12.6260   17.8420 C   0  0  0  0  0  2  0  0  0  0  0  0
  -27.8310  -12.5020   18.3420 C   0  0  0  0  0  2  0  0  0  0  0  0
  -27.5730  -13.3030   19.6460 C   0  0  0  0  0  3  0  0  0  0  0  0
  -28.6740  -13.0440   20.6960 C   0  0  0  0  0  2  0  0  0  0  0  0
  -29.9650  -13.3300   20.0590 N   0  0  0  0  0  0  0  0  0  0  0  0
  -31.8670  -14.5190   19.8210 O   0  0  0  0  0  0  0  0  0  0  0  0
  -30.1010  -15.5050   20.8020 N   0  0  0  0  0  0  0  0  0  0  0  0
  -29.1260  -15.3850   21.0310 H   0  0  0  0  0  0  0  0  0  0  0  0
  -25.2300  -13.9280   20.4930 C   0  0  0  0  0  0  0  0  0  0  0  0
  -24.1680  -13.1640   20.8910 C   0  0  0  0  0  0  0  0  0  0  0  0
  -24.6030  -11.8040   20.8010 C   0  0  0  0  0  0  0  0  0  0  0  0
  -26.2440  -13.0370   20.1860 N   0  0  0  0  0  0  0  0  0  0  0  0
  -25.8740  -11.7520   20.4280 N   0  0  0  0  0  0  0  0  0  0  0  0
  -23.8660  -10.5490   20.9910 C   0  0  0  0  0  0  0  0  0  0  0  0
  -24.3080   -9.5640   21.9020 C   0  0  0  0  0  3  0  0  0  0  0  0
  -23.5720   -8.3730   22.0830 C   0  0  0  0  0  3  0  0  0  0  0  0
  -22.3800   -8.1590   21.3500 C   0  0  0  0  0  0  0  0  0  0  0  0
  -21.9580   -9.1320   20.4280 C   0  0  0  0  0  3  0  0  0  0  0  0
  -22.6940  -10.3130   20.2470 C   0  0  0  0  0  3  0  0  0  0  0  0
  -21.6160   -7.0210   21.4370 O   0  0  0  0  0  0  0  0  0  0  0  0
  -21.5650   -6.2740   22.5870 C   0  0  0  0  0  0  0  0  0  0  0  0
  -21.1190   -6.8190   23.8110 C   0  0  0  0  0  3  0  0  0  0  0  0
  -21.0190   -5.9980   24.9510 C   0  0  0  0  0  3  0  0  0  0  0  0
  -21.3550   -4.6340   24.8690 C   0  0  0  0  0  0  0  0  0  0  0  0
  -21.7920   -4.0880   23.6490 C   0  0  0  0  0  3  0  0  0  0  0  0
  -21.8960   -4.9070   22.5110 C   0  0  0  0  0  0  0  0  0  0  0  0
  -22.2970   -4.3710   21.3340 F   0  0  0  0  0  0  0  0  0  0  0  0
  -21.2500   -3.8420   25.9620 F   0  0  0  0  0  0  0  0  0  0  0  0
  -22.7940  -13.6540   21.2440 C   0  0  0  0  0  0  0  0  0  0  0  0
  -22.0950  -12.9420   22.1200 N   0  0  0  0  0  0  0  0  0  0  0  0
  -22.3500  -14.7030   20.7770 O   0  0  0  0  0  0  0  0  0  0  0  0
  -22.4650  -12.0900   22.5140 H   0  0  0  0  0  0  0  0  0  0  0  0
  -21.1740  -13.2520   22.3970 H   0  0  0  0  0  0  0  0  0  0  0  0
  -25.4150  -15.3010   20.3420 N   0  0  0  0  0  0  0  0  0  0  0  0
  -24.6750  -15.9740   20.5110 H   0  0  0  0  0  0  0  0  0  0  0  0
  -26.2570  -15.7240   19.9740 H   0  0  0  0  0  0  0  0  0  0  0  0
  -28.0340  -23.7560   19.2790 C   0  0  0  0  0  3  0  0  0  0  0  0
  -26.9470  -23.0590   18.5570 N   0  0  0  0  0  4  0  0  0  0  0  0
  -27.3230  -22.4810   17.8240 H   0  0  0  0  0  0  0  0  0  0  0  0
  -26.3240  -23.7280   18.1430 H   0  0  0  0  0  0  0  0  0  0  0  0
  -26.4010  -22.4870   19.1740 H   0  0  0  0  0  0  0  0  0  0  0  0
  -29.4390  -24.6480   17.2320 C   0  0  0  0  0  1  0  0  0  0  0  0
  -28.5090  -24.9920   18.4170 C   0  0  0  0  0  3  0  0  0  0  0  0
  -29.0780  -26.2160   19.1890 C   0  0  0  0  0  2  0  0  0  0  0  0
  -28.3540  -26.6820   20.3280 O   0  0  0  0  0  0  0  0  0  0  0  0
  -24.5430  -31.8860   23.2410 C   0  0  0  0  0  0  0  0  0  0  0  0
  -27.2130  -27.4440   20.1890 C   0  0  0  0  0  0  0  0  0  0  0  0
  -23.3540  -30.4980   21.5740 C   0  0  0  0  0  3  0  0  0  0  0  0
  -24.8210  -28.9630   20.1600 C   0  0  0  0  0  0  0  0  0  0  0  0
  -25.8820  -30.8460   21.4130 C   0  0  0  0  0  2  0  0  0  0  0  0
  -25.9700  -29.4770   20.7720 C   0  0  0  0  0  0  0  0  0  0  0  0
  -27.1630  -28.7220   20.7920 C   0  0  0  0  0  3  0  0  0  0  0  0
  -26.0400  -26.9370   19.5890 C   0  0  0  0  0  3  0  0  0  0  0  0
  -24.8520  -27.6930   19.5640 C   0  0  0  0  0  3  0  0  0  0  0  0
  -23.5800  -29.8260   20.1930 C   0  0  0  0  0  2  0  0  0  0  0  0
  -24.6110  -31.0890   22.1370 N   0  0  0  0  0  0  0  0  0  0  0  0
  -23.4560  -32.1620   23.7650 O   0  0  0  0  0  0  0  0  0  0  0  0
  -22.6820  -29.4760   22.5190 C   0  0  0  0  0  0  0  0  0  0  0  0
  -21.3530  -29.3230   22.3880 N   0  0  0  0  0  0  0  0  0  0  0  0
  -23.3520  -28.8230   23.3240 O   0  0  0  0  0  0  0  0  0  0  0  0
  -20.8750  -29.9040   21.7130 H   0  0  0  0  0  0  0  0  0  0  0  0
  -17.9480  -28.2310   22.9050 C   0  0  0  0  0  0  0  0  0  0  0  0
  -20.5160  -28.3910   23.1440 C   0  0  0  0  0  3  0  0  0  0  0  0
  -20.5610  -26.9730   22.5290 C   0  0  0  0  0  2  0  0  0  0  0  0
  -19.4350  -26.7170   21.5230 C   0  0  0  0  0  2  0  0  0  0  0  0
  -18.0670  -26.8920   22.1900 C   0  0  0  0  0  2  0  0  0  0  0  0
  -19.0980  -28.9400   23.3380 C   0  0  0  0  0  0  0  0  0  0  0  0
  -18.9320  -30.1950   23.9640 C   0  0  0  0  0  3  0  0  0  0  0  0
  -17.6500  -30.7390   24.1580 C   0  0  0  0  0  3  0  0  0  0  0  0
  -16.5130  -30.0250   23.7420 C   0  0  0  0  0  3  0  0  0  0  0  0
  -16.6630  -28.7720   23.1210 C   0  0  0  0  0  3  0  0  0  0  0  0
  -25.8230  -32.5070   23.8830 C   0  0  0  0  0  3  0  0  0  0  0  0
  -25.5300  -33.9130   24.1920 N   0  0  0  0  0  0  0  0  0  0  0  0
  -25.8910  -34.9510   23.4240 C   0  0  0  0  0  0  0  0  0  0  0  0
  -26.5790  -34.8250   22.4090 O   0  0  0  0  0  0  0  0  0  0  0  0
  -24.9350  -34.0910   24.9870 H   0  0  0  0  0  0  0  0  0  0  0  0
  -24.2040  -36.7650   22.9980 C   0  0  0  0  0  1  0  0  0  0  0  0
  -25.4100  -36.3500   23.8540 C   0  0  0  0  0  3  0  0  0  0  0  0
  -27.5220  -37.2120   24.7610 C   0  0  0  0  0  1  0  0  0  0  0  0
  -26.4610  -37.3860   23.7710 N   0  0  0  0  0  0  0  0  0  0  0  0
  -26.0660  -38.3140   23.8910 H   0  0  0  0  0  0  0  0  0  0  0  0
  -26.3050  -31.7400   25.1760 C   0  0  1  0  0  0  0  0  0  0  0  0
  -25.1870  -31.5220   26.2230 C   0  0  0  0  0  1  0  0  0  0  0  0
  -26.8820  -30.3570   24.7980 C   0  0  0  0  0  1  0  0  0  0  0  0
  -27.4460  -32.5300   25.8580 C   0  0  0  0  0  1  0  0  0  0  0  0
  1  2  2  0
  2 14  1  0
  2  8  1  0
  3  8  1  0
  4  6  1  0
  5  1  1  0
  5  3  2  0
  6  3  1  0
  6  9  1  0
  7  4  2  0
 13 12  1  6
 13 10  1  0
 13 11  1  0
 13  1  1  0
 15 23  1  0
 16 21  1  0
 17 18  1  0
 17 16  1  0
 19 18  1  0
 19 28  1  0
 19 20  1  0
 21 15  1  0
 21 20  1  0
 22 15  2  0
 23 24  1  0
 23 14  1  0
 25 26  2  0
 26 45  1  0
 27 26  1  0
 27 30  1  0
 28 29  1  0
 28 25  1  0
 29 27  2  0
 30 31  1  0
 31 32  2  0
 33 36  1  0
 33 32  1  0
 34 33  2  0
 35 34  1  0
 35 30  2  0
 36 37  1  0
 37 38  1  0
 38 39  2  0
 40 39  1  0
 40 44  1  0
 41 40  2  0
 42 37  2  0
 42 41  1  0
 43 42  1  0
 45 46  1  0
 46 49  1  0
 46 48  1  0
 47 45  2  0
 50 25  1  0
 50 51  1  0
 52 50  1  0
 53  4  1  0
 54 57  1  0
 54 53  1  0
 55 54  1  0
 56 54  1  0
 59 58  1  0
 59 60  1  0
 59 53  1  0
 60 61  1  0
 62 73  2  0
 63 61  1  0
 63 68  1  0
 64 72  1  0
 64 74  1  0
 65 71  1  0
 65 67  1  0
 66 72  1  0
 67 68  2  0
 67 66  1  0
 69 63  2  0
 70 69  1  0
 70 65  2  0
 71 64  1  0
 72 62  1  0
 74 76  2  0
 75 74  1  0
 77 75  1  0
 78 87  2  0
 78 83  1  0
 79 75  1  0
 79 83  1  0
 80 79  1  0
 81 82  1  0
 81 80  1  0
 82 78  1  0
 83 84  2  0
 84 85  1  0
 86 85  2  0
 87 86  1  0
 88 62  1  0
 88 89  1  0
 88 98  1  0
 89 92  1  0
 90 94  1  0
 90 89  1  0
 91 90  2  0
 94 93  1  0
 96 94  1  0
 96 97  1  0
 96 95  1  0
 98101  1  1
 98 99  1  0
100 98  1  0
M  ISO  4  15 100  23 100  60 101  61 101
M  END
>  <TORSDO>  (56) 
F 22

>  <SCORE>  (56) 
-12.814

>  <name>  (56) 
56

>  <ligand_id>  (56) 
56

>  <original_smiles>  (56) 
[H]c1c([H])c([H])c2c(c1[H])C([H])([H])C([H])([H])C([H])([H])C2([H])N([H])C(=O)C1([H])N(C(=O)C([H])(N([H])C(=O)C([H])(N([H])C([H])([H])[H])C([H])([H])[H])C(C([H])([H])[H])(C([H])([H])[H])C([H])([H])[H])C([H])([H])c2c([H])c(OC([H])([H])C([H])(C([H])([H])[H])C([H])(C(=O)N([H])c3nc(C(C([H])([H])[H])(C([H])([H])[H])C([H])([H])[H])c(C([H])([H])N([H])C(=O)N4C([H])([H])C([H])([H])C([H])([H])C([H])(n5nc(-c6c([H])c([H])c(Oc7c([H])c([H])c(F)c([H])c7F)c([H])c6[H])c(C(=O)N([H])[H])c5N([H])[H])C4([H])[H])s3)[N+]([H])([H])[H])c([H])c([H])c2C1([H])[H]

>  <smiles>  (56) 
[H]c1c([H])c([H])c2c(c1[H])C([H])([H])C([H])([H])C([H])([H])C2([H])N([H])C(=O)C1([H])N(C(=O)C([H])(N([H])C(=O)C([H])(N([H])C([H])([H])[H])C([H])([H])[H])C(C([H])([H])[H])(C([H])([H])[H])C([H])([H])[H])C([H])([H])c2c([H])c(OC([H])([H])C([H])(C([H])([H])[H])C([H])(C(=O)N([H])c3nc(C(C([H])([H])[H])(C([H])([H])[H])C([H])([H])[H])c(C([H])([H])N([H])C(=O)N4C([H])([H])C([H])([H])C([H])([H])C([H])(n5nc(-c6c([H])c([H])c(Oc7c([H])c([H])c(F)c([H])c7F)c([H])c6[H])c(C(=O)N([H])[H])c5N([H])[H])C4([H])[H])s3)[N+]([H])([H])[H])c([H])c([H])c2C1([H])[H]

$$$$
57:0:0
     RDKit          3D

 97105  0  0  1  0  0  0  0  0999 V2000
  -29.9980  -21.7300   18.5280 C   0  0  0  0  0  1  0  0  0  0  0  0
  -28.9960  -21.6110   19.6980 C   0  0  2  0  0  0  0  0  0  0  0  0
  -30.5310  -15.0220   20.2970 C   0  0  0  0  0  0  0  0  0  0  0  0
  -30.4220  -12.6600   19.3410 C   0  0  0  0  0  2  0  0  0  0  0  0
  -29.4670  -12.5730   18.1260 C   0  0  0  0  0  2  0  0  0  0  0  0
  -28.0170  -12.3360   18.5910 C   0  0  0  0  0  2  0  0  0  0  0  0
  -27.6110  -13.2820   19.7510 C   0  0  0  0  0  3  0  0  0  0  0  0
  -28.6810  -13.3280   20.8610 C   0  0  0  0  0  2  0  0  0  0  0  0
  -29.9340  -13.7580   20.2240 N   0  0  0  0  0  0  0  0  0  0  0  0
  -31.7530  -15.0660   20.1140 O   0  0  0  0  0  0  0  0  0  0  0  0
  -29.5310  -20.2000   20.4190 C   0  0  0  0  0  0  0  0  0  0  0  0
  -30.5090  -20.0640   21.3970 C   0  0  0  0  0  0  0  0  0  0  0  0
  -29.9400  -17.7160   20.4880 C   0  0  0  0  0  0  0  0  0  0  0  0
  -29.2250  -18.8100   19.9620 N   0  0  0  0  0  0  0  0  0  0  0  0
  -29.7270  -16.2030   20.2580 N   0  0  0  0  0  0  0  0  0  0  0  0
  -31.0690  -18.3880   21.6630 S   0  0  0  0  0  0  0  0  0  0  0  0
  -28.7630  -15.9790   20.0820 H   0  0  0  0  0  0  0  0  0  0  0  0
  -25.2380  -13.8580   20.5190 C   0  0  0  0  0  0  0  0  0  0  0  0
  -24.1780  -13.0820   20.8940 C   0  0  0  0  0  0  0  0  0  0  0  0
  -24.6470  -11.7320   20.8660 C   0  0  0  0  0  0  0  0  0  0  0  0
  -26.2800  -12.9820   20.2690 N   0  0  0  0  0  0  0  0  0  0  0  0
  -25.9350  -11.6990   20.5480 N   0  0  0  0  0  0  0  0  0  0  0  0
  -23.9250  -10.4680   21.0620 C   0  0  0  0  0  0  0  0  0  0  0  0
  -24.3650   -9.5020   21.9930 C   0  0  0  0  0  3  0  0  0  0  0  0
  -23.6400   -8.3050   22.1770 C   0  0  0  0  0  3  0  0  0  0  0  0
  -22.4630   -8.0660   21.4300 C   0  0  0  0  0  0  0  0  0  0  0  0
  -22.0430   -9.0190   20.4870 C   0  0  0  0  0  3  0  0  0  0  0  0
  -22.7690  -10.2080   20.2990 C   0  0  0  0  0  3  0  0  0  0  0  0
  -21.7100   -6.9190   21.5230 O   0  0  0  0  0  0  0  0  0  0  0  0
  -21.6710   -6.1760   22.6760 C   0  0  0  0  0  0  0  0  0  0  0  0
  -21.2520   -6.7290   23.9060 C   0  0  0  0  0  3  0  0  0  0  0  0
  -21.1630   -5.9110   25.0510 C   0  0  0  0  0  3  0  0  0  0  0  0
  -21.4810   -4.5430   24.9650 C   0  0  0  0  0  0  0  0  0  0  0  0
  -21.8940   -3.9900   23.7400 C   0  0  0  0  0  3  0  0  0  0  0  0
  -21.9860   -4.8040   22.5980 C   0  0  0  0  0  0  0  0  0  0  0  0
  -22.3640   -4.2630   21.4150 F   0  0  0  0  0  0  0  0  0  0  0  0
  -21.3870   -3.7550   26.0610 F   0  0  0  0  0  0  0  0  0  0  0  0
  -22.7800  -13.5570   21.1650 C   0  0  0  0  0  0  0  0  0  0  0  0
  -22.0530  -12.8580   22.0290 N   0  0  0  0  0  0  0  0  0  0  0  0
  -22.3400  -14.5830   20.6430 O   0  0  0  0  0  0  0  0  0  0  0  0
  -22.4190  -12.0270   22.4700 H   0  0  0  0  0  0  0  0  0  0  0  0
  -21.1150  -13.1570   22.2530 H   0  0  0  0  0  0  0  0  0  0  0  0
  -25.3960  -15.2310   20.3430 N   0  0  0  0  0  0  0  0  0  0  0  0
  -24.6290  -15.8790   20.4860 H   0  0  0  0  0  0  0  0  0  0  0  0
  -26.2410  -15.6860   20.0230 H   0  0  0  0  0  0  0  0  0  0  0  0
  -31.1330  -21.0600   22.1450 N   0  0  0  0  0  0  0  0  0  0  0  0
  -30.8370  -22.0290   22.1940 H   0  0  0  0  0  0  0  0  0  0  0  0
  -31.8180  -20.8360   22.8620 H   0  0  0  0  0  0  0  0  0  0  0  0
  -27.6960  -21.1860   19.1610 N   0  0  0  0  0  4  0  0  0  0  0  0
  -27.8380  -20.3190   18.6770 H   0  0  0  0  0  0  0  0  0  0  0  0
  -27.2810  -21.8590   18.5470 H   0  0  0  0  0  0  0  0  0  0  0  0
  -27.0700  -20.9930   19.9250 H   0  0  0  0  0  0  0  0  0  0  0  0
  -28.7540  -23.1900   20.4130 C   0  0  0  0  0  2  0  0  0  0  0  0
  -28.0720  -24.7530   18.2850 C   0  0  0  0  0  1  0  0  0  0  0  0
  -30.1930  -25.1270   19.5050 C   0  0  0  0  0  1  0  0  0  0  0  0
  -28.7020  -24.7750   19.6930 C   0  0  2  0  0  0  0  0  0  0  0  0
  -28.3630  -26.1810   20.3420 O   0  0  0  0  0  0  0  0  0  0  0  0
  -24.6420  -31.8620   23.2110 C   0  0  0  0  0  0  0  0  0  0  0  0
  -27.2590  -27.1230   20.2090 C   0  0  0  0  0  0  0  0  0  0  0  0
  -23.4480  -30.4520   21.5800 C   0  0  0  0  0  3  0  0  0  0  0  0
  -24.9050  -28.8680   20.1660 C   0  0  0  0  0  0  0  0  0  0  0  0
  -26.0010  -30.7240   21.4090 C   0  0  0  0  0  2  0  0  0  0  0  0
  -26.0810  -29.3230   20.7720 C   0  0  0  0  0  0  0  0  0  0  0  0
  -27.2480  -28.4670   20.7760 C   0  0  0  0  0  3  0  0  0  0  0  0
  -26.0360  -26.7670   19.5930 C   0  0  0  0  0  3  0  0  0  0  0  0
  -24.8950  -27.6020   19.5620 C   0  0  0  0  0  3  0  0  0  0  0  0
  -23.6730  -29.7600   20.2050 C   0  0  0  0  0  2  0  0  0  0  0  0
  -24.7180  -31.0330   22.1250 N   0  0  0  0  0  0  0  0  0  0  0  0
  -23.5520  -32.1480   23.7330 O   0  0  0  0  0  0  0  0  0  0  0  0
  -22.7700  -29.4520   22.5500 C   0  0  0  0  0  0  0  0  0  0  0  0
  -21.4420  -29.2810   22.4280 N   0  0  0  0  0  0  0  0  0  0  0  0
  -23.4430  -28.8330   23.3770 O   0  0  0  0  0  0  0  0  0  0  0  0
  -20.9510  -29.8370   21.7430 H   0  0  0  0  0  0  0  0  0  0  0  0
  -18.0630  -28.0720   22.9360 C   0  0  0  0  0  0  0  0  0  0  0  0
  -20.6230  -28.3440   23.2040 C   0  0  0  0  0  3  0  0  0  0  0  0
  -20.7280  -26.9080   22.6390 C   0  0  0  0  0  2  0  0  0  0  0  0
  -19.6280  -26.5760   21.6250 C   0  0  0  0  0  2  0  0  0  0  0  0
  -18.2450  -26.7200   22.2650 C   0  0  0  0  0  2  0  0  0  0  0  0
  -19.1800  -28.8400   23.3650 C   0  0  0  0  0  0  0  0  0  0  0  0
  -18.9560  -30.1060   23.9500 C   0  0  0  0  0  3  0  0  0  0  0  0
  -17.6500  -30.6010   24.1140 C   0  0  0  0  0  3  0  0  0  0  0  0
  -16.5480  -29.8310   23.7020 C   0  0  0  0  0  3  0  0  0  0  0  0
  -16.7560  -28.5690   23.1170 C   0  0  0  0  0  3  0  0  0  0  0  0
  -25.9150  -32.5050   23.8390 C   0  0  0  0  0  3  0  0  0  0  0  0
  -26.4300  -31.7430   25.1210 C   0  0  1  0  0  0  0  0  0  0  0  0
  -25.3350  -31.5090   26.1870 C   0  0  0  0  0  1  0  0  0  0  0  0
  -27.0180  -30.3660   24.7350 C   0  0  0  0  0  1  0  0  0  0  0  0
  -27.5780  -32.5410   25.7830 C   0  0  0  0  0  1  0  0  0  0  0  0
  -25.6000  -33.9040   24.1700 N   0  0  0  0  0  0  0  0  0  0  0  0
  -25.9240  -34.9610   23.4130 C   0  0  0  0  0  0  0  0  0  0  0  0
  -26.5880  -34.8630   22.3790 O   0  0  0  0  0  0  0  0  0  0  0  0
  -25.0120  -34.0570   24.9760 H   0  0  0  0  0  0  0  0  0  0  0  0
  -24.1850  -36.7510   23.0770 C   0  0  0  0  0  1  0  0  0  0  0  0
  -25.4320  -36.3470   23.8780 C   0  0  0  0  0  3  0  0  0  0  0  0
  -27.5660  -37.2420   24.6980 C   0  0  0  0  0  1  0  0  0  0  0  0
  -26.4590  -37.4050   23.7610 N   0  0  0  0  0  0  0  0  0  0  0  0
  -26.0460  -38.3220   23.9160 H   0  0  0  0  0  0  0  0  0  0  0  0
  2  1  1  6
  2 53  1  0
  2 11  1  0
  4  9  1  0
  5  6  1  0
  5  4  1  0
  7  6  1  0
  7 21  1  0
  7  8  1  0
  9  3  1  0
  9  8  1  0
 10  3  2  0
 11 12  2  0
 12 16  1  0
 12 46  1  0
 13 16  1  0
 14 11  1  0
 14 13  2  0
 15  3  1  0
 15 13  1  0
 17 15  1  0
 18 19  2  0
 19 38  1  0
 20 19  1  0
 20 23  1  0
 21 18  1  0
 21 22  1  0
 22 20  2  0
 23 24  1  0
 24 25  2  0
 26 29  1  0
 26 25  1  0
 27 26  2  0
 28 27  1  0
 28 23  2  0
 29 30  1  0
 30 31  1  0
 31 32  2  0
 33 32  1  0
 33 37  1  0
 34 33  2  0
 35 30  2  0
 35 34  1  0
 36 35  1  0
 38 39  1  0
 39 42  1  0
 39 41  1  0
 40 38  2  0
 43 44  1  0
 43 18  1  0
 45 43  1  0
 46 47  1  0
 46 48  1  0
 49  2  1  0
 49 52  1  0
 50 49  1  0
 51 49  1  0
 56 54  1  6
 55 56  1  0
 56 57  1  0
 56 53  1  0
 58 69  2  0
 59 57  1  0
 59 64  1  0
 60 68  1  0
 60 70  1  0
 61 67  1  0
 61 63  1  0
 62 68  1  0
 63 64  2  0
 63 62  1  0
 65 59  2  0
 66 65  1  0
 66 61  2  0
 67 60  1  0
 68 58  1  0
 70 72  2  0
 71 70  1  0
 73 71  1  0
 74 83  2  0
 74 79  1  0
 75 71  1  0
 75 79  1  0
 76 75  1  0
 77 78  1  0
 77 76  1  0
 78 74  1  0
 79 80  2  0
 80 81  1  0
 82 81  2  0
 83 82  1  0
 84 58  1  0
 84 89  1  0
 84 85  1  0
 85 88  1  1
 85 86  1  0
 87 85  1  0
 89 92  1  0
 90 94  1  0
 90 89  1  0
 91 90  2  0
 94 93  1  0
 96 94  1  0
 96 97  1  0
 96 95  1  0
M  ISO  4   3 100  15 100  56 101  57 101
M  END
>  <TORSDO>  (57) 
F 20

>  <SCORE>  (57) 
-15.299

>  <name>  (57) 
57

>  <ligand_id>  (57) 
57

>  <original_smiles>  (57) 
[H]c1c([H])c([H])c2c(c1[H])C([H])([H])C([H])([H])C([H])([H])C2([H])N([H])C(=O)C1([H])N(C(=O)C([H])(N([H])C(=O)C([H])(N([H])C([H])([H])[H])C([H])([H])[H])C(C([H])([H])[H])(C([H])([H])[H])C([H])([H])[H])C([H])([H])c2c([H])c(OC(C([H])([H])[H])(C([H])([H])[H])C([H])([H])C(c3nc(N([H])C(=O)N4C([H])([H])C([H])([H])C([H])([H])C([H])(n5nc(-c6c([H])c([H])c(Oc7c([H])c([H])c(F)c([H])c7F)c([H])c6[H])c(C(=O)N([H])[H])c5N([H])[H])C4([H])[H])sc3N([H])[H])(C([H])([H])[H])[N+]([H])([H])[H])c([H])c([H])c2C1([H])[H]

>  <smiles>  (57) 
[H]c1c([H])c([H])c2c(c1[H])C([H])([H])C([H])([H])C([H])([H])C2([H])N([H])C(=O)C1([H])N(C(=O)C([H])(N([H])C(=O)C([H])(N([H])C([H])([H])[H])C([H])([H])[H])C(C([H])([H])[H])(C([H])([H])[H])C([H])([H])[H])C([H])([H])c2c([H])c(OC(C([H])([H])[H])(C([H])([H])[H])C([H])([H])C(c3nc(N([H])C(=O)N4C([H])([H])C([H])([H])C([H])([H])C([H])(n5nc(-c6c([H])c([H])c(Oc7c([H])c([H])c(F)c([H])c7F)c([H])c6[H])c(C(=O)N([H])[H])c5N([H])[H])C4([H])[H])sc3N([H])[H])(C([H])([H])[H])[N+]([H])([H])[H])c([H])c([H])c2C1([H])[H]

$$$$
58:0:0
     RDKit          3D

 97105  0  0  1  0  0  0  0  0999 V2000
  -31.2890  -19.3760   22.0490 C   0  0  0  0  0  0  0  0  0  0  0  0
  -31.2300  -18.2180   21.3050 C   0  0  0  0  0  0  0  0  0  0  0  0
  -29.8700  -20.0650   20.4050 C   0  0  0  0  0  0  0  0  0  0  0  0
  -28.8220  -22.2520   19.8030 C   0  0  0  0  0  0  0  0  0  0  0  0
  -30.5220  -20.4200   21.5170 N   0  0  0  0  0  0  0  0  0  0  0  0
  -29.1490  -20.9640   19.5860 N   0  0  0  0  0  0  0  0  0  0  0  0
  -28.8090  -22.7950   20.9090 O   0  0  0  0  0  0  0  0  0  0  0  0
  -30.1390  -18.3880   19.9480 S   0  0  0  0  0  0  0  0  0  0  0  0
  -28.9570  -20.6200   18.6560 H   0  0  0  0  0  0  0  0  0  0  0  0
  -31.4460  -20.6160   24.2380 C   0  0  0  0  0  1  0  0  0  0  0  0
  -33.5420  -20.1220   22.8640 C   0  0  0  0  0  1  0  0  0  0  0  0
  -32.1370  -19.6490   23.2660 C   0  0  0  0  0  3  0  0  0  0  0  0
  -26.8940  -22.7590   18.1970 C   0  0  0  0  0  1  0  0  0  0  0  0
  -28.3750  -23.0370   18.5520 C   0  0  0  0  0  3  0  0  0  0  0  0
  -28.3110  -25.3710   19.7520 C   0  0  0  0  0  1  0  0  0  0  0  0
  -28.7780  -24.5520   18.5200 C   0  0  0  0  0  3  0  0  0  0  0  0
  -28.3880  -25.1640   17.1420 C   0  0  0  0  0  2  0  0  0  0  0  0
  -28.1050  -26.5570   17.0970 O   0  0  0  0  0  0  0  0  0  0  0  0
  -24.5460  -29.9190   22.1130 C   0  0  0  0  0  0  0  0  0  0  0  0
  -26.8530  -27.0540   17.3990 C   0  0  0  0  0  0  0  0  0  0  0  0
  -23.1250  -28.9010   20.3500 C   0  0  0  0  0  3  0  0  0  0  0  0
  -24.3680  -28.0800   18.2710 C   0  0  0  0  0  0  0  0  0  0  0  0
  -25.4870  -29.7040   19.8150 C   0  0  0  0  0  2  0  0  0  0  0  0
  -25.5600  -28.6160   18.7710 C   0  0  0  0  0  0  0  0  0  0  0  0
  -26.8000  -28.1160   18.3250 C   0  0  0  0  0  3  0  0  0  0  0  0
  -25.6410  -26.5470   16.8660 C   0  0  0  0  0  3  0  0  0  0  0  0
  -24.4020  -27.0550   17.3060 C   0  0  0  0  0  3  0  0  0  0  0  0
  -23.0910  -28.6770   18.8120 C   0  0  0  0  0  2  0  0  0  0  0  0
  -24.4180  -29.4990   20.8190 N   0  0  0  0  0  0  0  0  0  0  0  0
  -23.5920  -29.8680   22.9060 O   0  0  0  0  0  0  0  0  0  0  0  0
  -22.7740  -27.5680   21.0500 C   0  0  0  0  0  0  0  0  0  0  0  0
  -21.4830  -27.1980   21.0290 N   0  0  0  0  0  0  0  0  0  0  0  0
  -23.6550  -26.8840   21.5770 O   0  0  0  0  0  0  0  0  0  0  0  0
  -20.8280  -27.8370   20.6030 H   0  0  0  0  0  0  0  0  0  0  0  0
  -18.4420  -25.2770   21.3850 C   0  0  0  0  0  0  0  0  0  0  0  0
  -20.9290  -25.9530   21.5680 C   0  0  0  0  0  3  0  0  0  0  0  0
  -21.2220  -24.7560   20.6340 C   0  0  0  0  0  2  0  0  0  0  0  0
  -20.0920  -24.4820   19.6360 C   0  0  0  0  0  2  0  0  0  0  0  0
  -18.7880  -24.1860   20.3810 C   0  0  0  0  0  2  0  0  0  0  0  0
  -19.4510  -26.1090   21.9370 C   0  0  0  0  0  0  0  0  0  0  0  0
  -19.0820  -27.1230   22.8470 C   0  0  0  0  0  3  0  0  0  0  0  0
  -17.7400  -27.2970   23.2260 C   0  0  0  0  0  3  0  0  0  0  0  0
  -16.7470  -26.4580   22.6880 C   0  0  0  0  0  3  0  0  0  0  0  0
  -17.0990  -25.4460   21.7760 C   0  0  0  0  0  3  0  0  0  0  0  0
  -25.8910  -30.5200   22.6530 C   0  0  0  0  0  3  0  0  0  0  0  0
  -25.5650  -31.7220   23.4320 N   0  0  0  0  0  0  0  0  0  0  0  0
  -25.7360  -32.9770   22.9890 C   0  0  0  0  0  0  0  0  0  0  0  0
  -26.2590  -33.2420   21.9010 O   0  0  0  0  0  0  0  0  0  0  0  0
  -25.1010  -31.5810   24.3200 H   0  0  0  0  0  0  0  0  0  0  0  0
  -23.9070  -34.6530   23.3790 C   0  0  0  0  0  1  0  0  0  0  0  0
  -25.2520  -34.1230   23.9000 C   0  0  0  0  0  3  0  0  0  0  0  0
  -27.4280  -34.8790   24.7550 C   0  0  0  0  0  1  0  0  0  0  0  0
  -26.2210  -35.2360   24.0110 N   0  0  0  0  0  0  0  0  0  0  0  0
  -25.7970  -36.0410   24.4660 H   0  0  0  0  0  0  0  0  0  0  0  0
  -26.7150  -29.4990   23.5250 C   0  0  1  0  0  0  0  0  0  0  0  0
  -25.8970  -28.8450   24.6640 C   0  0  0  0  0  1  0  0  0  0  0  0
  -27.2860  -28.3720   22.6330 C   0  0  0  0  0  1  0  0  0  0  0  0
  -27.9300  -30.2120   24.1590 C   0  0  0  0  0  1  0  0  0  0  0  0
  -32.0350  -16.9550   21.4690 C   0  0  0  0  0  2  0  0  0  0  0  0
  -31.7670  -14.8670   20.1270 C   0  0  0  0  0  0  0  0  0  0  0  0
  -31.3120  -12.7420   18.9700 C   0  0  0  0  0  2  0  0  0  0  0  0
  -30.3590  -12.9660   17.7800 C   0  0  0  0  0  2  0  0  0  0  0  0
  -28.8840  -12.9060   18.2320 C   0  0  0  0  0  2  0  0  0  0  0  0
  -28.6070  -13.7760   19.4890 C   0  0  0  0  0  3  0  0  0  0  0  0
  -29.6710  -13.5360   20.5860 C   0  0  0  0  0  2  0  0  0  0  0  0
  -31.0030  -13.7510   19.9920 N   0  0  0  0  0  0  0  0  0  0  0  0
  -32.8000  -15.0660   19.4820 O   0  0  0  0  0  0  0  0  0  0  0  0
  -31.3330  -15.7440   21.0430 N   0  0  0  0  0  0  0  0  0  0  0  0
  -30.4810  -15.5090   21.5260 H   0  0  0  0  0  0  0  0  0  0  0  0
  -26.2720  -14.5170   20.2980 C   0  0  0  0  0  0  0  0  0  0  0  0
  -25.1650  -13.8150   20.6760 C   0  0  0  0  0  0  0  0  0  0  0  0
  -25.5260  -12.4330   20.5750 C   0  0  0  0  0  0  0  0  0  0  0  0
  -27.2500  -13.5800   20.0000 N   0  0  0  0  0  0  0  0  0  0  0  0
  -26.8000  -12.3180   20.2210 N   0  0  0  0  0  0  0  0  0  0  0  0
  -24.7180  -11.2180   20.7440 C   0  0  0  0  0  0  0  0  0  0  0  0
  -25.0360  -10.2380   21.7160 C   0  0  0  0  0  3  0  0  0  0  0  0
  -24.2260   -9.0920   21.8650 C   0  0  0  0  0  3  0  0  0  0  0  0
  -23.0840   -8.9140   21.0480 C   0  0  0  0  0  0  0  0  0  0  0  0
  -22.7830   -9.8850   20.0740 C   0  0  0  0  0  3  0  0  0  0  0  0
  -23.5910  -11.0230   19.9220 C   0  0  0  0  0  3  0  0  0  0  0  0
  -22.2570   -7.8190   21.1050 O   0  0  0  0  0  0  0  0  0  0  0  0
  -22.0220   -7.1590   22.2860 C   0  0  0  0  0  0  0  0  0  0  0  0
  -21.4170   -7.7990   23.3900 C   0  0  0  0  0  3  0  0  0  0  0  0
  -21.1300   -7.0660   24.5590 C   0  0  0  0  0  3  0  0  0  0  0  0
  -21.4350   -5.6940   24.6210 C   0  0  0  0  0  0  0  0  0  0  0  0
  -22.0370   -5.0530   23.5250 C   0  0  0  0  0  3  0  0  0  0  0  0
  -22.3270   -5.7840   22.3580 C   0  0  0  0  0  0  0  0  0  0  0  0
  -22.8840   -5.1560   21.2940 F   0  0  0  0  0  0  0  0  0  0  0  0
  -21.1560   -4.9870   25.7430 F   0  0  0  0  0  0  0  0  0  0  0  0
  -23.8110  -14.3810   21.0070 C   0  0  0  0  0  0  0  0  0  0  0  0
  -23.0540  -13.7180   21.8680 N   0  0  0  0  0  0  0  0  0  0  0  0
  -23.4360  -15.4580   20.5340 O   0  0  0  0  0  0  0  0  0  0  0  0
  -23.3570  -12.8500   22.2850 H   0  0  0  0  0  0  0  0  0  0  0  0
  -22.1530  -14.0990   22.1250 H   0  0  0  0  0  0  0  0  0  0  0  0
  -26.5250  -15.8800   20.1710 N   0  0  0  0  0  0  0  0  0  0  0  0
  -25.8050  -16.5720   20.3370 H   0  0  0  0  0  0  0  0  0  0  0  0
  -27.3950  -16.2910   19.8620 H   0  0  0  0  0  0  0  0  0  0  0  0
  1 12  1  0
  2 59  1  0
  2  1  2  0
  3  5  2  0
  4  7  2  0
  5  1  1  0
  6  4  1  0
  6  3  1  0
  8  3  1  0
  8  2  1  0
  9  6  1  0
 11 12  1  0
 12 10  1  0
 14 13  1  0
 14  4  1  0
 16 14  1  0
 16 15  1  0
 17 16  1  0
 18 17  1  0
 18 20  1  0
 19 30  2  0
 20 25  1  0
 21 29  1  0
 21 31  1  0
 22 24  1  0
 22 28  1  0
 23 29  1  0
 24 23  1  0
 25 24  2  0
 26 27  1  0
 26 20  2  0
 27 22  2  0
 28 21  1  0
 29 19  1  0
 31 33  2  0
 32 31  1  0
 34 32  1  0
 35 44  2  0
 35 40  1  0
 36 32  1  0
 36 40  1  0
 37 36  1  0
 38 39  1  0
 38 37  1  0
 39 35  1  0
 40 41  2  0
 41 42  1  0
 43 42  2  0
 44 43  1  0
 45 19  1  0
 45 46  1  0
 45 55  1  0
 46 49  1  0
 47 46  1  0
 47 51  1  0
 48 47  2  0
 51 50  1  0
 51 53  1  0
 53 54  1  0
 53 52  1  0
 55 58  1  1
 55 56  1  0
 57 55  1  0
 60 68  1  0
 61 66  1  0
 62 63  1  0
 62 61  1  0
 64 63  1  0
 64 73  1  0
 64 65  1  0
 66 60  1  0
 66 65  1  0
 67 60  2  0
 68 59  1  0
 68 69  1  0
 70 71  2  0
 71 90  1  0
 72 71  1  0
 72 75  1  0
 73 74  1  0
 73 70  1  0
 74 72  2  0
 75 76  1  0
 76 77  2  0
 78 81  1  0
 78 77  1  0
 79 78  2  0
 80 79  1  0
 80 75  2  0
 81 82  1  0
 82 87  2  0
 82 83  1  0
 83 84  2  0
 84 85  1  0
 85 89  1  0
 86 85  2  0
 87 86  1  0
 88 87  1  0
 90 91  1  0
 91 94  1  0
 91 93  1  0
 92 90  2  0
 95 70  1  0
 95 96  1  0
 97 95  1  0
M  ISO  4  17 101  18 101  60 100  68 100
M  END
>  <TORSDO>  (58) 
F 21

>  <SCORE>  (58) 
-8.203

>  <name>  (58) 
58

>  <ligand_id>  (58) 
58

>  <original_smiles>  (58) 
[H]c1c([H])c([H])c2c(c1[H])C([H])([H])C([H])([H])C([H])([H])C2([H])N([H])C(=O)C1([H])N(C(=O)C([H])(N([H])C(=O)C([H])(N([H])C([H])([H])[H])C([H])([H])[H])C(C([H])([H])[H])(C([H])([H])[H])C([H])([H])[H])C([H])([H])c2c([H])c(OC([H])([H])C([H])(C([H])([H])[H])C([H])(C(=O)N([H])c3nc(C([H])(C([H])([H])[H])C([H])([H])[H])c(C([H])([H])N([H])C(=O)N4C([H])([H])C([H])([H])C([H])([H])C([H])(n5nc(-c6c([H])c([H])c(Oc7c([H])c([H])c(F)c([H])c7F)c([H])c6[H])c(C(=O)N([H])[H])c5N([H])[H])C4([H])[H])s3)C([H])([H])[H])c([H])c([H])c2C1([H])[H]

>  <smiles>  (58) 
[H]c1c([H])c([H])c2c(c1[H])C([H])([H])C([H])([H])C([H])([H])C2([H])N([H])C(=O)C1([H])N(C(=O)C([H])(N([H])C(=O)C([H])(N([H])C([H])([H])[H])C([H])([H])[H])C(C([H])([H])[H])(C([H])([H])[H])C([H])([H])[H])C([H])([H])c2c([H])c(OC([H])([H])C([H])(C([H])([H])[H])C([H])(C(=O)N([H])c3nc(C([H])(C([H])([H])[H])C([H])([H])[H])c(C([H])([H])N([H])C(=O)N4C([H])([H])C([H])([H])C([H])([H])C([H])(n5nc(-c6c([H])c([H])c(Oc7c([H])c([H])c(F)c([H])c7F)c([H])c6[H])c(C(=O)N([H])[H])c5N([H])[H])C4([H])[H])s3)C([H])([H])[H])c([H])c([H])c2C1([H])[H]

$$$$
59:0:0
     RDKit          3D

 92100  0  0  1  0  0  0  0  0999 V2000
  -29.2760  -23.8540   20.4460 C   0  0  0  0  0  0  0  0  0  0  0  0
  -29.1500  -22.4580   20.3000 N   0  0  0  0  0  0  0  0  0  0  0  0
  -30.3620  -24.3990   20.6810 O   0  0  0  0  0  0  0  0  0  0  0  0
  -28.3360  -22.1680   19.7820 H   0  0  0  0  0  0  0  0  0  0  0  0
  -29.8940  -21.4000   20.8530 C   0  0  0  0  0  0  0  0  0  0  0  0
  -30.9980  -21.6180   22.1090 S   0  0  0  0  0  0  0  0  0  0  0  0
  -30.6080  -14.7860   19.9830 C   0  0  0  0  0  0  0  0  0  0  0  0
  -30.3640  -12.5250   18.9350 C   0  0  0  0  0  2  0  0  0  0  0  0
  -29.3480  -12.6280   17.7730 C   0  0  0  0  0  2  0  0  0  0  0  0
  -27.9070  -12.4470   18.2880 C   0  0  0  0  0  2  0  0  0  0  0  0
  -27.6140  -13.3030   19.5490 C   0  0  0  0  0  3  0  0  0  0  0  0
  -28.7390  -13.1710   20.6000 C   0  0  0  0  0  2  0  0  0  0  0  0
  -30.0030  -13.5450   19.9480 N   0  0  0  0  0  0  0  0  0  0  0  0
  -31.7380  -14.9280   19.5020 O   0  0  0  0  0  0  0  0  0  0  0  0
  -29.8420  -19.3770   19.1490 C   0  0  0  0  0  3  0  0  0  0  0  0
  -29.7730  -19.9580   20.4100 C   0  0  0  0  0  0  0  0  0  0  0  0
  -29.9390  -17.3230   20.2760 C   0  0  0  0  0  0  0  0  0  0  0  0
  -29.9460  -17.9470   19.0840 N   0  0  0  0  0  0  0  0  0  0  0  0
  -29.8700  -15.8530   20.4700 N   0  0  0  0  0  0  0  0  0  0  0  0
  -29.7360  -18.5630   21.5590 S   0  0  0  0  0  0  0  0  0  0  0  0
  -29.0760  -15.5590   21.0170 H   0  0  0  0  0  0  0  0  0  0  0  0
  -25.2810  -13.8870   20.4440 C   0  0  0  0  0  0  0  0  0  0  0  0
  -24.2330  -13.1090   20.8550 C   0  0  0  0  0  0  0  0  0  0  0  0
  -24.6800  -11.7570   20.7470 C   0  0  0  0  0  0  0  0  0  0  0  0
  -26.2990  -13.0090   20.1110 N   0  0  0  0  0  0  0  0  0  0  0  0
  -25.9470  -11.7190   20.3550 N   0  0  0  0  0  0  0  0  0  0  0  0
  -23.9540  -10.4940   20.9400 C   0  0  0  0  0  0  0  0  0  0  0  0
  -24.4050   -9.5150   21.8530 C   0  0  0  0  0  3  0  0  0  0  0  0
  -23.6790   -8.3180   22.0350 C   0  0  0  0  0  3  0  0  0  0  0  0
  -22.4900   -8.0900   21.3040 C   0  0  0  0  0  0  0  0  0  0  0  0
  -22.0580   -9.0580   20.3800 C   0  0  0  0  0  3  0  0  0  0  0  0
  -22.7830  -10.2460   20.1960 C   0  0  0  0  0  3  0  0  0  0  0  0
  -21.7340   -6.9460   21.3970 O   0  0  0  0  0  0  0  0  0  0  0  0
  -21.6660   -6.2210   22.5590 C   0  0  0  0  0  0  0  0  0  0  0  0
  -21.1980   -6.7880   23.7650 C   0  0  0  0  0  3  0  0  0  0  0  0
  -21.0780   -5.9880   24.9190 C   0  0  0  0  0  3  0  0  0  0  0  0
  -21.4150   -4.6230   24.8680 C   0  0  0  0  0  0  0  0  0  0  0  0
  -21.8750   -4.0550   23.6670 C   0  0  0  0  0  3  0  0  0  0  0  0
  -21.9970   -4.8510   22.5150 C   0  0  0  0  0  0  0  0  0  0  0  0
  -22.4200   -4.2950   21.3550 F   0  0  0  0  0  0  0  0  0  0  0  0
  -21.2930   -3.8520   25.9740 F   0  0  0  0  0  0  0  0  0  0  0  0
  -22.8610  -13.5870   21.2320 C   0  0  0  0  0  0  0  0  0  0  0  0
  -22.1820  -12.8670   22.1190 N   0  0  0  0  0  0  0  0  0  0  0  0
  -22.4000  -14.6330   20.7760 O   0  0  0  0  0  0  0  0  0  0  0  0
  -22.5690  -12.0190   22.5080 H   0  0  0  0  0  0  0  0  0  0  0  0
  -21.2640  -13.1660   22.4130 H   0  0  0  0  0  0  0  0  0  0  0  0
  -25.4460  -15.2620   20.3020 N   0  0  0  0  0  0  0  0  0  0  0  0
  -24.6900  -15.9150   20.4770 H   0  0  0  0  0  0  0  0  0  0  0  0
  -26.2640  -15.7040   19.9030 H   0  0  0  0  0  0  0  0  0  0  0  0
  -27.1220  -24.5510   21.5550 C   0  0  0  0  0  1  0  0  0  0  0  0
  -28.0200  -24.8480   20.3290 C   0  0  0  0  0  3  0  0  0  0  0  0
  -28.3060  -26.3440   20.2840 O   0  0  0  0  0  0  0  0  0  0  0  0
  -24.6050  -31.8770   23.2050 C   0  0  0  0  0  0  0  0  0  0  0  0
  -27.2260  -27.2640   20.1790 C   0  0  0  0  0  0  0  0  0  0  0  0
  -23.4110  -30.4660   21.5710 C   0  0  0  0  0  3  0  0  0  0  0  0
  -24.8700  -28.9170   20.1450 C   0  0  0  0  0  0  0  0  0  0  0  0
  -25.9540  -30.7790   21.3950 C   0  0  0  0  0  2  0  0  0  0  0  0
  -26.0400  -29.3960   20.7500 C   0  0  0  0  0  0  0  0  0  0  0  0
  -27.2210  -28.5820   20.7560 C   0  0  0  0  0  3  0  0  0  0  0  0
  -26.0400  -26.8730   19.5170 C   0  0  0  0  0  3  0  0  0  0  0  0
  -24.8770  -27.6650   19.5150 C   0  0  0  0  0  3  0  0  0  0  0  0
  -23.6300  -29.7900   20.1930 C   0  0  0  0  0  2  0  0  0  0  0  0
  -24.6760  -31.0600   22.1130 N   0  0  0  0  0  0  0  0  0  0  0  0
  -23.5190  -32.1530   23.7360 O   0  0  0  0  0  0  0  0  0  0  0  0
  -22.7490  -29.4520   22.5360 C   0  0  0  0  0  0  0  0  0  0  0  0
  -21.4220  -29.2730   22.4150 N   0  0  0  0  0  0  0  0  0  0  0  0
  -23.4290  -28.8280   23.3550 O   0  0  0  0  0  0  0  0  0  0  0  0
  -20.9310  -29.8280   21.7280 H   0  0  0  0  0  0  0  0  0  0  0  0
  -18.0430  -28.0870   22.9450 C   0  0  0  0  0  0  0  0  0  0  0  0
  -20.6060  -28.3370   23.1910 C   0  0  0  0  0  3  0  0  0  0  0  0
  -20.6970  -26.9060   22.6130 C   0  0  0  0  0  2  0  0  0  0  0  0
  -19.5850  -26.5900   21.6080 C   0  0  0  0  0  2  0  0  0  0  0  0
  -18.2100  -26.7380   22.2640 C   0  0  0  0  0  2  0  0  0  0  0  0
  -19.1690  -28.8440   23.3660 C   0  0  0  0  0  0  0  0  0  0  0  0
  -18.9590  -30.1060   23.9630 C   0  0  0  0  0  3  0  0  0  0  0  0
  -17.6580  -30.6100   24.1440 C   0  0  0  0  0  3  0  0  0  0  0  0
  -16.5470  -29.8490   23.7400 C   0  0  0  0  0  3  0  0  0  0  0  0
  -16.7410  -28.5900   23.1450 C   0  0  0  0  0  3  0  0  0  0  0  0
  -25.8830  -32.5200   23.8250 C   0  0  0  0  0  3  0  0  0  0  0  0
  -25.5610  -33.9160   24.1570 N   0  0  0  0  0  0  0  0  0  0  0  0
  -25.8830  -34.9750   23.4020 C   0  0  0  0  0  0  0  0  0  0  0  0
  -26.5510  -34.8790   22.3690 O   0  0  0  0  0  0  0  0  0  0  0  0
  -24.9670  -34.0630   24.9600 H   0  0  0  0  0  0  0  0  0  0  0  0
  -24.1440  -36.7600   23.0560 C   0  0  0  0  0  1  0  0  0  0  0  0
  -25.3870  -36.3580   23.8660 C   0  0  0  0  0  3  0  0  0  0  0  0
  -27.5130  -37.2550   24.7070 C   0  0  0  0  0  1  0  0  0  0  0  0
  -26.4130  -37.4180   23.7590 N   0  0  0  0  0  0  0  0  0  0  0  0
  -26.0020  -38.3360   23.9060 H   0  0  0  0  0  0  0  0  0  0  0  0
  -26.4070  -31.7540   25.1010 C   0  0  1  0  0  0  0  0  0  0  0  0
  -25.3160  -31.5070   26.1700 C   0  0  0  0  0  1  0  0  0  0  0  0
  -27.0020  -30.3810   24.7110 C   0  0  0  0  0  1  0  0  0  0  0  0
  -27.5510  -32.5580   25.7620 C   0  0  0  0  0  1  0  0  0  0  0  0
  1  3  2  0
  2  1  1  0
  2  5  1  0
  4  2  1  0
  5  6  2  0
  7 19  1  0
  8 13  1  0
  9 10  1  0
  9  8  1  0
 11 10  1  0
 11 25  1  0
 11 12  1  0
 13  7  1  0
 13 12  1  0
 14  7  2  0
 15 16  2  0
 16  5  1  0
 16 20  1  0
 17 19  1  0
 17 20  1  0
 18 15  1  0
 18 17  2  0
 19 21  1  0
 22 23  2  0
 23 42  1  0
 24 23  1  0
 24 27  1  0
 25 26  1  0
 25 22  1  0
 26 24  2  0
 27 28  1  0
 28 29  2  0
 30 33  1  0
 30 29  1  0
 31 30  2  0
 32 31  1  0
 32 27  2  0
 33 34  1  0
 34 35  1  0
 35 36  2  0
 37 36  1  0
 37 41  1  0
 38 37  2  0
 39 34  2  0
 39 38  1  0
 40 39  1  0
 42 43  1  0
 43 46  1  0
 43 45  1  0
 44 42  2  0
 47 22  1  0
 47 48  1  0
 49 47  1  0
 51  1  1  0
 51 50  1  0
 52 51  1  0
 53 64  2  0
 54 52  1  0
 54 59  1  0
 55 63  1  0
 55 65  1  0
 56 62  1  0
 56 58  1  0
 57 63  1  0
 58 59  2  0
 58 57  1  0
 60 54  2  0
 61 60  1  0
 61 56  2  0
 62 55  1  0
 63 53  1  0
 65 67  2  0
 66 65  1  0
 68 66  1  0
 69 78  2  0
 69 74  1  0
 70 66  1  0
 70 74  1  0
 71 70  1  0
 72 73  1  0
 72 71  1  0
 73 69  1  0
 74 75  2  0
 75 76  1  0
 77 76  2  0
 78 77  1  0
 79 53  1  0
 79 80  1  0
 79 89  1  0
 80 83  1  0
 81 85  1  0
 81 80  1  0
 82 81  2  0
 85 84  1  0
 87 85  1  0
 87 88  1  0
 87 86  1  0
 89 92  1  1
 89 90  1  0
 91 89  1  0
M  ISO  4   7 100  19 100  51 101  52 101
M  END
>  <TORSDO>  (59) 
F 18

>  <SCORE>  (59) 
-14.195

>  <name>  (59) 
59

>  <ligand_id>  (59) 
59

>  <original_smiles>  (59) 
[H]c1nc(N([H])C(=O)N2C([H])([H])C([H])([H])C([H])([H])C([H])(n3nc(-c4c([H])c([H])c(Oc5c([H])c([H])c(F)c([H])c5F)c([H])c4[H])c(C(=O)N([H])[H])c3N([H])[H])C2([H])[H])sc1C(=S)N([H])C(=O)C([H])(Oc1c([H])c([H])c2c(c1[H])C([H])([H])N(C(=O)C([H])(N([H])C(=O)C([H])(N([H])C([H])([H])[H])C([H])([H])[H])C(C([H])([H])[H])(C([H])([H])[H])C([H])([H])[H])C([H])(C(=O)N([H])C1([H])c3c([H])c([H])c([H])c([H])c3C([H])([H])C([H])([H])C1([H])[H])C2([H])[H])C([H])([H])[H]

>  <smiles>  (59) 
[H]c1nc(N([H])C(=O)N2C([H])([H])C([H])([H])C([H])([H])C([H])(n3nc(-c4c([H])c([H])c(Oc5c([H])c([H])c(F)c([H])c5F)c([H])c4[H])c(C(=O)N([H])[H])c3N([H])[H])C2([H])[H])sc1C(=S)N([H])C(=O)C([H])(Oc1c([H])c([H])c2c(c1[H])C([H])([H])N(C(=O)C([H])(N([H])C(=O)C([H])(N([H])C([H])([H])[H])C([H])([H])[H])C(C([H])([H])[H])(C([H])([H])[H])C([H])([H])[H])C([H])(C(=O)N([H])C1([H])c3c([H])c([H])c([H])c([H])c3C([H])([H])C([H])([H])C1([H])[H])C2([H])[H])C([H])([H])[H]

$$$$
60:0:0
     RDKit          3D

 92100  0  0  1  0  0  0  0  0999 V2000
  -28.4210  -23.7280   20.1640 C   0  0  0  0  0  0  0  0  0  0  0  0
  -28.9800  -22.6500   20.8310 N   0  0  0  0  0  0  0  0  0  0  0  0
  -28.1110  -23.6420   18.9730 O   0  0  0  0  0  0  0  0  0  0  0  0
  -29.3770  -22.9080   21.7260 H   0  0  0  0  0  0  0  0  0  0  0  0
  -28.1100  -20.4220   19.9990 C   0  0  0  0  0  3  0  0  0  0  0  0
  -28.4130  -18.9930   20.0390 C   0  0  0  0  0  0  0  0  0  0  0  0
  -29.6620  -18.6800   20.5430 C   0  0  0  0  0  0  0  0  0  0  0  0
  -29.0490  -21.2760   20.5520 C   0  0  0  0  0  0  0  0  0  0  0  0
  -27.4390  -17.9450   19.5880 C   0  0  0  0  0  1  0  0  0  0  0  0
  -30.3920  -20.2260   21.0740 S   0  0  0  0  0  0  0  0  0  0  0  0
  -30.4840  -17.3300   20.6700 C   0  0  0  0  0  2  0  0  0  0  0  0
  -30.6180  -14.7580   20.3010 C   0  0  0  0  0  0  0  0  0  0  0  0
  -30.3740  -12.4870   19.2850 C   0  0  0  0  0  2  0  0  0  0  0  0
  -29.4260  -12.5650   18.0690 C   0  0  0  0  0  2  0  0  0  0  0  0
  -27.9610  -12.4050   18.5160 C   0  0  0  0  0  2  0  0  0  0  0  0
  -27.6010  -13.2900   19.7420 C   0  0  0  0  0  3  0  0  0  0  0  0
  -28.6790  -13.2050   20.8440 C   0  0  0  0  0  2  0  0  0  0  0  0
  -29.9640  -13.5500   20.2310 N   0  0  0  0  0  0  0  0  0  0  0  0
  -31.7920  -14.8370   19.9330 O   0  0  0  0  0  0  0  0  0  0  0  0
  -29.9070  -15.9150   20.6050 N   0  0  0  0  0  0  0  0  0  0  0  0
  -28.9430  -15.7950   20.8630 H   0  0  0  0  0  0  0  0  0  0  0  0
  -25.2300  -13.8620   20.5410 C   0  0  0  0  0  0  0  0  0  0  0  0
  -24.1710  -13.0860   20.9200 C   0  0  0  0  0  0  0  0  0  0  0  0
  -24.6340  -11.7350   20.8550 C   0  0  0  0  0  0  0  0  0  0  0  0
  -26.2690  -12.9900   20.2600 N   0  0  0  0  0  0  0  0  0  0  0  0
  -25.9190  -11.7030   20.5150 N   0  0  0  0  0  0  0  0  0  0  0  0
  -23.9090  -10.4720   21.0440 C   0  0  0  0  0  0  0  0  0  0  0  0
  -24.3560   -9.5000   21.9650 C   0  0  0  0  0  3  0  0  0  0  0  0
  -23.6400   -8.2980   22.1410 C   0  0  0  0  0  3  0  0  0  0  0  0
  -22.4580   -8.0620   21.4010 C   0  0  0  0  0  0  0  0  0  0  0  0
  -22.0300   -9.0230   20.4690 C   0  0  0  0  0  3  0  0  0  0  0  0
  -22.7470  -10.2180   20.2900 C   0  0  0  0  0  3  0  0  0  0  0  0
  -21.7040   -6.9170   21.4940 O   0  0  0  0  0  0  0  0  0  0  0  0
  -21.6610   -6.1730   22.6460 C   0  0  0  0  0  0  0  0  0  0  0  0
  -21.2230   -6.7200   23.8730 C   0  0  0  0  0  3  0  0  0  0  0  0
  -21.1320   -5.8980   25.0160 C   0  0  0  0  0  3  0  0  0  0  0  0
  -21.4650   -4.5320   24.9300 C   0  0  0  0  0  0  0  0  0  0  0  0
  -21.8910   -3.9860   23.7060 C   0  0  0  0  0  3  0  0  0  0  0  0
  -21.9880   -4.8040   22.5670 C   0  0  0  0  0  0  0  0  0  0  0  0
  -22.3800   -4.2680   21.3860 F   0  0  0  0  0  0  0  0  0  0  0  0
  -21.3660   -3.7430   26.0230 F   0  0  0  0  0  0  0  0  0  0  0  0
  -22.7810  -13.5640   21.2250 C   0  0  0  0  0  0  0  0  0  0  0  0
  -22.0640  -12.8550   22.0900 N   0  0  0  0  0  0  0  0  0  0  0  0
  -22.3400  -14.6010   20.7290 O   0  0  0  0  0  0  0  0  0  0  0  0
  -22.4390  -12.0180   22.5110 H   0  0  0  0  0  0  0  0  0  0  0  0
  -21.1270  -13.1490   22.3280 H   0  0  0  0  0  0  0  0  0  0  0  0
  -25.3820  -15.2350   20.3920 N   0  0  0  0  0  0  0  0  0  0  0  0
  -24.6130  -15.8770   20.5510 H   0  0  0  0  0  0  0  0  0  0  0  0
  -26.2140  -15.6830   20.0330 H   0  0  0  0  0  0  0  0  0  0  0  0
  -28.8690  -25.2250   22.2740 C   0  0  0  0  0  1  0  0  0  0  0  0
  -28.1210  -25.1100   20.9360 C   0  0  0  0  0  3  0  0  0  0  0  0
  -28.3120  -26.4120   20.2150 O   0  0  0  0  0  0  0  0  0  0  0  0
  -24.5990  -31.8750   23.2400 C   0  0  0  0  0  0  0  0  0  0  0  0
  -27.2260  -27.3070   20.1960 C   0  0  0  0  0  0  0  0  0  0  0  0
  -23.4090  -30.4750   21.5920 C   0  0  0  0  0  3  0  0  0  0  0  0
  -24.8680  -28.9310   20.1660 C   0  0  0  0  0  0  0  0  0  0  0  0
  -25.9470  -30.8010   21.4150 C   0  0  0  0  0  2  0  0  0  0  0  0
  -26.0370  -29.4200   20.7670 C   0  0  0  0  0  0  0  0  0  0  0  0
  -27.2230  -28.6200   20.7670 C   0  0  0  0  0  3  0  0  0  0  0  0
  -26.0400  -26.8800   19.5630 C   0  0  0  0  0  3  0  0  0  0  0  0
  -24.8740  -27.6690   19.5500 C   0  0  0  0  0  3  0  0  0  0  0  0
  -23.6280  -29.8050   20.2110 C   0  0  0  0  0  2  0  0  0  0  0  0
  -24.6720  -31.0680   22.1400 N   0  0  0  0  0  0  0  0  0  0  0  0
  -23.5130  -32.1470   23.7710 O   0  0  0  0  0  0  0  0  0  0  0  0
  -22.7440  -29.4540   22.5460 C   0  0  0  0  0  0  0  0  0  0  0  0
  -21.4180  -29.2750   22.4140 N   0  0  0  0  0  0  0  0  0  0  0  0
  -23.4200  -28.8270   23.3680 O   0  0  0  0  0  0  0  0  0  0  0  0
  -20.9330  -29.8290   21.7200 H   0  0  0  0  0  0  0  0  0  0  0  0
  -18.0380  -28.0830   22.9080 C   0  0  0  0  0  0  0  0  0  0  0  0
  -20.5980  -28.3350   23.1800 C   0  0  0  0  0  3  0  0  0  0  0  0
  -20.6960  -26.9060   22.5920 C   0  0  0  0  0  2  0  0  0  0  0  0
  -19.5930  -26.5950   21.5760 C   0  0  0  0  0  2  0  0  0  0  0  0
  -18.2130  -26.7380   22.2220 C   0  0  0  0  0  2  0  0  0  0  0  0
  -19.1580  -28.8390   23.3430 C   0  0  0  0  0  0  0  0  0  0  0  0
  -18.9400  -30.0980   23.9440 C   0  0  0  0  0  3  0  0  0  0  0  0
  -17.6350  -30.5980   24.1180 C   0  0  0  0  0  3  0  0  0  0  0  0
  -16.5310  -29.8370   23.6990 C   0  0  0  0  0  3  0  0  0  0  0  0
  -16.7320  -28.5820   23.0970 C   0  0  0  0  0  3  0  0  0  0  0  0
  -25.8760  -32.5110   23.8700 C   0  0  0  0  0  3  0  0  0  0  0  0
  -26.3780  -31.7440   25.1540 C   0  0  1  0  0  0  0  0  0  0  0  0
  -25.2750  -31.5120   26.2130 C   0  0  0  0  0  1  0  0  0  0  0  0
  -26.9630  -30.3640   24.7730 C   0  0  0  0  0  1  0  0  0  0  0  0
  -27.5260  -32.5400   25.8220 C   0  0  0  0  0  1  0  0  0  0  0  0
  -25.5630  -33.9090   24.1930 N   0  0  0  0  0  0  0  0  0  0  0  0
  -25.8960  -34.9590   23.4300 C   0  0  0  0  0  0  0  0  0  0  0  0
  -26.5690  -34.8530   22.4020 O   0  0  0  0  0  0  0  0  0  0  0  0
  -24.9690  -34.0640   24.9940 H   0  0  0  0  0  0  0  0  0  0  0  0
  -24.1710  -36.7520   23.0580 C   0  0  0  0  0  1  0  0  0  0  0  0
  -25.4050  -36.3480   23.8810 C   0  0  0  0  0  3  0  0  0  0  0  0
  -27.5350  -37.2380   24.7250 C   0  0  0  0  0  1  0  0  0  0  0  0
  -26.4380  -37.4030   23.7720 N   0  0  0  0  0  0  0  0  0  0  0  0
  -26.0310  -38.3220   23.9140 H   0  0  0  0  0  0  0  0  0  0  0  0
  1  2  1  0
  1 51  1  0
  2  4  1  0
  3  1  2  0
  5  6  1  0
  5  8  2  0
  6  7  2  0
  7 11  1  0
  7 10  1  0
  8  2  1  0
  8 10  1  0
  9  6  1  0
 12 20  1  0
 13 18  1  0
 14 15  1  0
 14 13  1  0
 16 15  1  0
 16 25  1  0
 16 17  1  0
 18 12  1  0
 18 17  1  0
 19 12  2  0
 20 11  1  0
 20 21  1  0
 22 23  2  0
 23 42  1  0
 24 23  1  0
 24 27  1  0
 25 26  1  0
 25 22  1  0
 26 24  2  0
 27 28  1  0
 28 29  2  0
 30 33  1  0
 30 29  1  0
 31 30  2  0
 32 31  1  0
 32 27  2  0
 33 34  1  0
 34 35  1  0
 35 36  2  0
 37 36  1  0
 37 41  1  0
 38 37  2  0
 39 34  2  0
 39 38  1  0
 40 39  1  0
 42 43  1  0
 43 46  1  0
 43 45  1  0
 44 42  2  0
 47 22  1  0
 47 48  1  0
 49 47  1  0
 51 50  1  0
 52 51  1  0
 53 64  2  0
 54 52  1  0
 54 59  1  0
 55 63  1  0
 55 65  1  0
 56 62  1  0
 56 58  1  0
 57 63  1  0
 58 57  1  0
 59 58  2  0
 60 54  2  0
 61 60  1  0
 61 56  2  0
 62 55  1  0
 63 53  1  0
 65 67  2  0
 66 65  1  0
 68 66  1  0
 69 78  2  0
 69 74  1  0
 70 66  1  0
 70 74  1  0
 71 70  1  0
 72 73  1  0
 72 71  1  0
 73 69  1  0
 74 75  2  0
 75 76  1  0
 77 76  2  0
 78 77  1  0
 79 53  1  0
 79 84  1  0
 79 80  1  0
 80 83  1  1
 80 81  1  0
 82 80  1  0
 84 87  1  0
 85 89  1  0
 85 84  1  0
 86 85  2  0
 89 88  1  0
 91 89  1  0
 91 92  1  0
 91 90  1  0
M  ISO  4  12 100  20 100  51 101  52 101
M  END
>  <TORSDO>  (60) 
F 19

>  <SCORE>  (60) 
-14.585

>  <name>  (60) 
60

>  <ligand_id>  (60) 
60

>  <original_smiles>  (60) 
[H]c1c([H])c([H])c2c(c1[H])C([H])([H])C([H])([H])C([H])([H])C2([H])N([H])C(=O)C1([H])N(C(=O)C([H])(N([H])C(=O)C([H])(N([H])C([H])([H])[H])C([H])([H])[H])C(C([H])([H])[H])(C([H])([H])[H])C([H])([H])[H])C([H])([H])c2c([H])c(OC([H])(C(=O)N([H])c3sc(C([H])([H])N([H])C(=O)N4C([H])([H])C([H])([H])C([H])([H])C([H])(n5nc(-c6c([H])c([H])c(Oc7c([H])c([H])c(F)c([H])c7F)c([H])c6[H])c(C(=O)N([H])[H])c5N([H])[H])C4([H])[H])c(C([H])([H])[H])c3[H])C([H])([H])[H])c([H])c([H])c2C1([H])[H]

>  <smiles>  (60) 
[H]c1c([H])c([H])c2c(c1[H])C([H])([H])C([H])([H])C([H])([H])C2([H])N([H])C(=O)C1([H])N(C(=O)C([H])(N([H])C(=O)C([H])(N([H])C([H])([H])[H])C([H])([H])[H])C(C([H])([H])[H])(C([H])([H])[H])C([H])([H])[H])C([H])([H])c2c([H])c(OC([H])(C(=O)N([H])c3sc(C([H])([H])N([H])C(=O)N4C([H])([H])C([H])([H])C([H])([H])C([H])(n5nc(-c6c([H])c([H])c(Oc7c([H])c([H])c(F)c([H])c7F)c([H])c6[H])c(C(=O)N([H])[H])c5N([H])[H])C4([H])[H])c(C([H])([H])[H])c3[H])C([H])([H])[H])c([H])c([H])c2C1([H])[H]

$$$$
61:0:0
     RDKit          3D

 95103  0  0  1  0  0  0  0  0999 V2000
  -28.8870  -22.3240   20.6050 C   0  0  0  0  0  0  0  0  0  0  0  0
  -29.6680  -21.3090   20.0860 N   0  0  0  0  0  0  0  0  0  0  0  0
  -27.9250  -22.0610   21.3280 O   0  0  0  0  0  0  0  0  0  0  0  0
  -30.3840  -21.6590   19.4630 H   0  0  0  0  0  0  0  0  0  0  0  0
  -30.5920  -14.8100   20.2470 C   0  0  0  0  0  0  0  0  0  0  0  0
  -30.3980  -12.5530   19.1910 C   0  0  0  0  0  2  0  0  0  0  0  0
  -29.4210  -12.6480   17.9970 C   0  0  0  0  0  2  0  0  0  0  0  0
  -27.9610  -12.4640   18.4640 C   0  0  0  0  0  2  0  0  0  0  0  0
  -27.6180  -13.3260   19.7070 C   0  0  0  0  0  3  0  0  0  0  0  0
  -28.7080  -13.2060   20.7960 C   0  0  0  0  0  2  0  0  0  0  0  0
  -29.9900  -13.5750   20.1770 N   0  0  0  0  0  0  0  0  0  0  0  0
  -31.7760  -14.9440   19.9140 O   0  0  0  0  0  0  0  0  0  0  0  0
  -30.6890  -19.3860   21.3540 C   0  0  0  0  0  0  0  0  0  0  0  0
  -29.8030  -19.9540   20.4360 C   0  0  0  0  0  0  0  0  0  0  0  0
  -29.9500  -17.3470   20.4800 C   0  0  0  0  0  0  0  0  0  0  0  0
  -30.7490  -17.9580   21.3630 N   0  0  0  0  0  0  0  0  0  0  0  0
  -29.7480  -15.8870   20.4360 N   0  0  0  0  0  0  0  0  0  0  0  0
  -28.9990  -18.5930   19.5930 S   0  0  0  0  0  0  0  0  0  0  0  0
  -28.7810  -15.6130   20.4730 H   0  0  0  0  0  0  0  0  0  0  0  0
  -25.2530  -13.9110   20.5130 C   0  0  0  0  0  0  0  0  0  0  0  0
  -24.1960  -13.1310   20.8990 C   0  0  0  0  0  0  0  0  0  0  0  0
  -24.6570  -11.7800   20.8310 C   0  0  0  0  0  0  0  0  0  0  0  0
  -26.2880  -13.0330   20.2300 N   0  0  0  0  0  0  0  0  0  0  0  0
  -25.9380  -11.7460   20.4850 N   0  0  0  0  0  0  0  0  0  0  0  0
  -23.9340  -10.5160   21.0170 C   0  0  0  0  0  0  0  0  0  0  0  0
  -24.3730   -9.5460   21.9450 C   0  0  0  0  0  3  0  0  0  0  0  0
  -23.6520   -8.3460   22.1220 C   0  0  0  0  0  3  0  0  0  0  0  0
  -22.4780   -8.1060   21.3690 C   0  0  0  0  0  0  0  0  0  0  0  0
  -22.0580   -9.0650   20.4290 C   0  0  0  0  0  3  0  0  0  0  0  0
  -22.7800  -10.2560   20.2520 C   0  0  0  0  0  3  0  0  0  0  0  0
  -21.7270   -6.9590   21.4540 O   0  0  0  0  0  0  0  0  0  0  0  0
  -21.6530   -6.2320   22.6150 C   0  0  0  0  0  0  0  0  0  0  0  0
  -21.1780   -6.7960   23.8190 C   0  0  0  0  0  3  0  0  0  0  0  0
  -21.0530   -5.9930   24.9700 C   0  0  0  0  0  3  0  0  0  0  0  0
  -21.3940   -4.6280   24.9190 C   0  0  0  0  0  0  0  0  0  0  0  0
  -21.8630   -4.0640   23.7190 C   0  0  0  0  0  3  0  0  0  0  0  0
  -21.9900   -4.8640   22.5700 C   0  0  0  0  0  0  0  0  0  0  0  0
  -22.4220   -4.3110   21.4120 F   0  0  0  0  0  0  0  0  0  0  0  0
  -21.2680   -3.8550   26.0230 F   0  0  0  0  0  0  0  0  0  0  0  0
  -22.8070  -13.6040   21.2160 C   0  0  0  0  0  0  0  0  0  0  0  0
  -22.1020  -12.8950   22.0910 N   0  0  0  0  0  0  0  0  0  0  0  0
  -22.3560  -14.6360   20.7230 O   0  0  0  0  0  0  0  0  0  0  0  0
  -22.4820  -12.0630   22.5160 H   0  0  0  0  0  0  0  0  0  0  0  0
  -21.1690  -13.1930   22.3410 H   0  0  0  0  0  0  0  0  0  0  0  0
  -25.4100  -15.2850   20.3540 N   0  0  0  0  0  0  0  0  0  0  0  0
  -24.6380  -15.9280   20.4930 H   0  0  0  0  0  0  0  0  0  0  0  0
  -26.2270  -15.7320   19.9620 H   0  0  0  0  0  0  0  0  0  0  0  0
  -31.1710  -19.8160   23.7880 C   0  0  0  0  0  1  0  0  0  0  0  0
  -33.0720  -19.7800   22.0980 C   0  0  0  0  0  1  0  0  0  0  0  0
  -31.5910  -20.1130   22.3390 C   0  0  1  0  0  0  0  0  0  0  0  0
  -31.5080  -21.4380   22.2120 F   0  0  0  0  0  0  0  0  0  0  0  0
  -29.2270  -23.8650   20.2900 C   0  0  0  0  0  3  0  0  0  0  0  0
  -29.9980  -23.9060   19.1990 F   0  0  0  0  0  0  0  0  0  0  0  0
  -28.0530  -24.9660   20.1370 C   0  0  0  0  0  2  0  0  0  0  0  0
  -28.3020  -26.4520   20.2230 O   0  0  0  0  0  0  0  0  0  0  0  0
  -24.5960  -31.9280   23.2400 C   0  0  0  0  0  0  0  0  0  0  0  0
  -27.1950  -27.3360   20.1770 C   0  0  0  0  0  0  0  0  0  0  0  0
  -23.3900  -30.5320   21.6050 C   0  0  0  0  0  3  0  0  0  0  0  0
  -24.8350  -28.9800   20.1730 C   0  0  0  0  0  0  0  0  0  0  0  0
  -25.9330  -30.8400   21.4160 C   0  0  0  0  0  2  0  0  0  0  0  0
  -26.0110  -29.4590   20.7660 C   0  0  0  0  0  0  0  0  0  0  0  0
  -27.1930  -28.6510   20.7540 C   0  0  0  0  0  3  0  0  0  0  0  0
  -25.9900  -26.9240   19.5590 C   0  0  0  0  0  3  0  0  0  0  0  0
  -24.8300  -27.7220   19.5590 C   0  0  0  0  0  3  0  0  0  0  0  0
  -23.6000  -29.8580   20.2230 C   0  0  0  0  0  2  0  0  0  0  0  0
  -24.6600  -31.1180   22.1430 N   0  0  0  0  0  0  0  0  0  0  0  0
  -23.5140  -32.2060   23.7770 O   0  0  0  0  0  0  0  0  0  0  0  0
  -22.7270  -29.5150   22.5670 C   0  0  0  0  0  0  0  0  0  0  0  0
  -21.4020  -29.3320   22.4380 N   0  0  0  0  0  0  0  0  0  0  0  0
  -23.4070  -28.8940   23.3880 O   0  0  0  0  0  0  0  0  0  0  0  0
  -20.9130  -29.8860   21.7470 H   0  0  0  0  0  0  0  0  0  0  0  0
  -18.0290  -28.1190   22.9350 C   0  0  0  0  0  0  0  0  0  0  0  0
  -20.5860  -28.3940   23.2100 C   0  0  0  0  0  3  0  0  0  0  0  0
  -20.6960  -26.9600   22.6400 C   0  0  0  0  0  2  0  0  0  0  0  0
  -19.5980  -26.6280   21.6240 C   0  0  0  0  0  2  0  0  0  0  0  0
  -18.2140  -26.7680   22.2640 C   0  0  0  0  0  2  0  0  0  0  0  0
  -19.1420  -28.8890   23.3640 C   0  0  0  0  0  0  0  0  0  0  0  0
  -18.9140  -30.1530   23.9510 C   0  0  0  0  0  3  0  0  0  0  0  0
  -17.6070  -30.6470   24.1140 C   0  0  0  0  0  3  0  0  0  0  0  0
  -16.5070  -29.8750   23.7000 C   0  0  0  0  0  3  0  0  0  0  0  0
  -16.7200  -28.6130   23.1150 C   0  0  0  0  0  3  0  0  0  0  0  0
  -25.8800  -32.5620   23.8600 C   0  0  0  0  0  3  0  0  0  0  0  0
  -26.3980  -31.7920   25.1350 C   0  0  1  0  0  0  0  0  0  0  0  0
  -25.3070  -31.5510   26.2060 C   0  0  0  0  0  1  0  0  0  0  0  0
  -26.9830  -30.4130   24.7460 C   0  0  0  0  0  1  0  0  0  0  0  0
  -27.5490  -32.5880   25.7950 C   0  0  0  0  0  1  0  0  0  0  0  0
  -25.5680  -33.9600   24.1930 N   0  0  0  0  0  0  0  0  0  0  0  0
  -25.8950  -35.0160   23.4350 C   0  0  0  0  0  0  0  0  0  0  0  0
  -26.5580  -34.9160   22.4000 O   0  0  0  0  0  0  0  0  0  0  0  0
  -24.9770  -34.1120   24.9970 H   0  0  0  0  0  0  0  0  0  0  0  0
  -24.1640  -36.8110   23.0950 C   0  0  0  0  0  1  0  0  0  0  0  0
  -25.4100  -36.4030   23.8990 C   0  0  0  0  0  3  0  0  0  0  0  0
  -27.5460  -37.2890   24.7240 C   0  0  0  0  0  1  0  0  0  0  0  0
  -26.4410  -37.4570   23.7840 N   0  0  0  0  0  0  0  0  0  0  0  0
  -26.0350  -38.3770   23.9320 H   0  0  0  0  0  0  0  0  0  0  0  0
  1  3  2  0
  2 14  1  0
  2  1  1  0
  4  2  1  0
  5 17  1  0
  6 11  1  0
  7  8  1  0
  7  6  1  0
  9  8  1  0
  9 23  1  0
  9 10  1  0
 11  5  1  0
 11 10  1  0
 12  5  2  0
 13 16  1  0
 13 50  1  0
 14 13  2  0
 15 16  2  0
 17 19  1  0
 17 15  1  0
 18 14  1  0
 18 15  1  0
 20 21  2  0
 21 40  1  0
 22 21  1  0
 22 25  1  0
 23 24  1  0
 23 20  1  0
 24 22  2  0
 25 26  1  0
 26 27  2  0
 28 31  1  0
 28 27  1  0
 29 28  2  0
 30 29  1  0
 30 25  2  0
 31 32  1  0
 32 33  1  0
 33 34  2  0
 35 34  1  0
 35 39  1  0
 36 35  2  0
 37 32  2  0
 37 36  1  0
 38 37  1  0
 40 41  1  0
 41 44  1  0
 41 43  1  0
 42 40  2  0
 45 46  1  0
 45 20  1  0
 47 45  1  0
 50 49  1  1
 50 48  1  0
 51 50  1  0
 52 53  1  0
 52  1  1  0
 54 55  1  0
 54 52  1  0
 56 67  2  0
 57 55  1  0
 57 62  1  0
 58 66  1  0
 58 68  1  0
 59 65  1  0
 59 61  1  0
 60 66  1  0
 61 60  1  0
 62 61  2  0
 63 64  1  0
 63 57  2  0
 64 59  2  0
 65 58  1  0
 66 56  1  0
 68 70  2  0
 69 68  1  0
 71 69  1  0
 72 81  2  0
 72 77  1  0
 73 69  1  0
 73 77  1  0
 74 73  1  0
 75 76  1  0
 75 74  1  0
 76 72  1  0
 77 78  2  0
 78 79  1  0
 80 79  2  0
 81 80  1  0
 82 56  1  0
 82 87  1  0
 82 83  1  0
 83 86  1  1
 83 84  1  0
 85 83  1  0
 87 90  1  0
 88 92  1  0
 88 87  1  0
 89 88  2  0
 92 91  1  0
 94 92  1  0
 94 95  1  0
 94 93  1  0
M  ISO  4   5 100  17 100  54 101  55 101
M  END
>  <TORSDO>  (61) 
F 19

>  <SCORE>  (61) 
-14.843

>  <name>  (61) 
61

>  <ligand_id>  (61) 
61

>  <original_smiles>  (61) 
[H]c1c([H])c([H])c2c(c1[H])C([H])([H])C([H])([H])C([H])([H])C2([H])N([H])C(=O)C1([H])N(C(=O)C([H])(N([H])C(=O)C([H])(N([H])C([H])([H])[H])C([H])([H])[H])C(C([H])([H])[H])(C([H])([H])[H])C([H])([H])[H])C([H])([H])c2c([H])c(OC([H])([H])C([H])(F)C(=O)N([H])c3sc(N([H])C(=O)N4C([H])([H])C([H])([H])C([H])([H])C([H])(n5nc(-c6c([H])c([H])c(Oc7c([H])c([H])c(F)c([H])c7F)c([H])c6[H])c(C(=O)N([H])[H])c5N([H])[H])C4([H])[H])nc3C(F)(C([H])([H])[H])C([H])([H])[H])c([H])c([H])c2C1([H])[H]

>  <smiles>  (61) 
[H]c1c([H])c([H])c2c(c1[H])C([H])([H])C([H])([H])C([H])([H])C2([H])N([H])C(=O)C1([H])N(C(=O)C([H])(N([H])C(=O)C([H])(N([H])C([H])([H])[H])C([H])([H])[H])C(C([H])([H])[H])(C([H])([H])[H])C([H])([H])[H])C([H])([H])c2c([H])c(OC([H])([H])C([H])(F)C(=O)N([H])c3sc(N([H])C(=O)N4C([H])([H])C([H])([H])C([H])([H])C([H])(n5nc(-c6c([H])c([H])c(Oc7c([H])c([H])c(F)c([H])c7F)c([H])c6[H])c(C(=O)N([H])[H])c5N([H])[H])C4([H])[H])nc3C(F)(C([H])([H])[H])C([H])([H])[H])c([H])c([H])c2C1([H])[H]

$$$$
62:0:0
     RDKit          3D

101101  0  0  1  0  0  0  0  0999 V2000
  -24.4370  -23.2530   18.0920 C   0  0  0  0  0  1  0  0  0  0  0  0
  -30.8270  -17.8140   20.9420 C   0  0  0  0  0  0  0  0  0  0  0  0
  -32.3100  -15.4170   21.3140 C   0  0  0  0  0  2  0  0  0  0  0  0
  -32.2870  -14.2350   20.2700 C   0  0  0  0  0  2  0  0  0  0  0  0
  -30.9270  -13.5230   20.2800 C   0  0  0  0  0  2  0  0  0  0  0  0
  -29.8480  -14.5840   20.5370 C   0  0  0  0  0  3  0  0  0  0  0  0
  -30.0580  -15.4460   21.7760 C   0  0  0  0  0  2  0  0  0  0  0  0
  -31.0310  -16.3650   21.2820 N   0  0  0  0  0  0  0  0  0  0  0  0
  -32.0650  -18.1200   21.1320 O   0  0  0  0  0  0  0  0  0  0  0  0
  -25.6820  -21.5910   18.6180 C   0  0  0  0  0  3  0  0  0  0  0  0
  -25.3290  -20.2290   18.5070 C   0  0  0  0  0  0  0  0  0  0  0  0
  -27.9830  -19.7190   19.6990 C   0  0  0  0  0  3  0  0  0  0  0  0
  -27.2160  -21.1050   19.3300 N   0  0  0  0  0  0  0  0  0  0  0  0
  -29.6160  -18.9270   20.3950 N   0  0  0  0  0  2  0  0  0  0  0  0
  -26.5130  -18.8570   19.0730 S   0  0  0  0  0  0  0  0  0  0  0  0
  -30.2130  -19.7420   20.4310 H   0  0  0  0  0  0  0  0  0  0  0  0
  -27.4070  -14.9060   20.3670 C   0  0  0  0  0  0  0  0  0  0  0  0
  -26.3550  -14.0700   20.5270 C   0  0  0  0  0  0  0  0  0  0  0  0
  -26.9190  -12.8050   20.8800 C   0  0  0  0  0  0  0  0  0  0  0  0
  -28.5150  -14.1280   20.5880 N   0  0  0  0  0  0  0  0  0  0  0  0
  -28.2340  -12.8770   20.9870 N   0  0  0  0  0  0  0  0  0  0  0  0
  -26.2930  -11.5050   21.0370 C   0  0  0  0  0  0  0  0  0  0  0  0
  -26.1910  -10.8790   22.2980 C   0  0  0  0  0  3  0  0  0  0  0  0
  -25.5680   -9.6200   22.4090 C   0  0  0  0  0  3  0  0  0  0  0  0
  -25.0420   -8.9880   21.2570 C   0  0  0  0  0  0  0  0  0  0  0  0
  -25.1770   -9.6070   20.0030 C   0  0  0  0  0  3  0  0  0  0  0  0
  -25.8020  -10.8550   19.8910 C   0  0  0  0  0  3  0  0  0  0  0  0
  -24.4350   -7.7580   21.2670 O   0  0  0  0  0  0  0  0  0  0  0  0
  -23.4240   -7.4700   22.1450 C   0  0  0  0  0  0  0  0  0  0  0  0
  -22.2720   -8.2810   22.2490 C   0  0  0  0  0  3  0  0  0  0  0  0
  -21.2250   -7.9050   23.1130 C   0  0  0  0  0  3  0  0  0  0  0  0
  -21.3230   -6.7190   23.8650 C   0  0  0  0  0  0  0  0  0  0  0  0
  -22.4670   -5.9100   23.7600 C   0  0  0  0  0  3  0  0  0  0  0  0
  -23.5130   -6.2840   22.9000 C   0  0  0  0  0  0  0  0  0  0  0  0
  -24.6070   -5.4920   22.7840 F   0  0  0  0  0  0  0  0  0  0  0  0
  -20.3140   -6.3530   24.6890 F   0  0  0  0  0  0  0  0  0  0  0  0
  -24.9260  -14.4070   20.2500 C   0  0  0  0  0  0  0  0  0  0  0  0
  -24.0040  -13.7720   20.9600 N   0  0  0  0  0  0  0  0  0  0  0  0
  -24.6260  -15.2750   19.4310 O   0  0  0  0  0  0  0  0  0  0  0  0
  -24.2580  -13.0740   21.6430 H   0  0  0  0  0  0  0  0  0  0  0  0
  -23.0290  -13.9890   20.8170 H   0  0  0  0  0  0  0  0  0  0  0  0
  -27.5320  -16.2410   20.0230 N   0  0  0  0  0  0  0  0  0  0  0  0
  -26.7180  -16.7770   19.7420 H   0  0  0  0  0  0  0  0  0  0  0  0
  -28.4070  -16.7150   19.8420 H   0  0  0  0  0  0  0  0  0  0  0  0
  -23.4900  -18.6970   18.2710 C   0  0  0  0  0  0  0  0  0  0  0  0
  -22.3160  -18.3140   17.3730 C   0  0  0  0  0  1  0  0  0  0  0  0
  -24.1500  -19.8250   17.9620 N   0  0  0  0  0  0  0  0  0  0  0  0
  -23.7600  -18.0030   19.2530 O   0  0  0  0  0  0  0  0  0  0  0  0
  -23.7710  -20.3850   17.2090 H   0  0  0  0  0  0  0  0  0  0  0  0
  -22.3660  -25.3420   15.8270 C   0  0  0  0  0  3  0  0  0  0  0  0
  -23.0530  -24.1600   16.9250 N   0  0  0  0  0  2  0  0  0  0  0  0
  -21.1460  -25.5280   15.8660 O   0  0  0  0  0  0  0  0  0  0  0  0
  -22.2120  -23.7600   17.3150 H   0  0  0  0  0  0  0  0  0  0  0  0
  -23.9980  -27.4710   12.4680 C   0  0  0  0  0  1  0  0  0  0  0  0
  -24.1270  -26.7810   13.9520 C   0  0  0  0  0  1  0  0  0  0  0  0
  -26.0420  -26.8850   14.7290 C   0  0  0  0  0  1  0  0  0  0  0  0
  -27.0090  -26.5880   16.2590 O   0  0  0  0  0  0  0  0  0  0  0  0
  -25.6260  -28.3990   21.3600 C   0  0  0  0  0  0  0  0  0  0  0  0
  -28.3910  -26.5260   16.6800 C   0  0  0  0  0  3  0  0  0  0  0  0
  -25.5130  -29.1000   19.0260 C   0  0  0  0  0  3  0  0  0  0  0  0
  -27.6770  -28.8080   17.6060 C   0  0  0  0  0  3  0  0  0  0  0  0
  -27.6920  -28.1860   20.0020 C   0  0  0  0  0  2  0  0  0  0  0  0
  -28.0410  -27.8770   18.5690 C   0  0  0  0  0  3  0  0  0  0  0  0
  -28.5940  -26.6760   18.0870 C   0  0  0  0  0  2  0  0  0  0  0  0
  -28.9330  -27.5290   15.9370 C   0  0  0  0  0  2  0  0  0  0  0  0
  -28.3300  -28.7360   16.3380 C   0  0  0  0  0  2  0  0  0  0  0  0
  -26.5140  -29.7060   17.9690 C   0  0  0  0  0  2  0  0  0  0  0  0
  -26.2790  -28.5940   20.1910 N   0  0  0  0  0  0  0  0  0  0  0  0
  -24.4410  -28.7350   21.5010 O   0  0  0  0  0  0  0  0  0  0  0  0
  -24.5840  -27.9210   18.5940 C   0  0  0  0  0  0  0  0  0  0  0  0
  -23.4570  -27.6380   19.2000 N   0  0  0  0  0  0  0  0  0  0  0  0
  -24.9250  -27.1190   17.7430 O   0  0  0  0  0  0  0  0  0  0  0  0
  -23.1980  -28.1840   20.0080 H   0  0  0  0  0  0  0  0  0  0  0  0
  -20.1890  -26.8890   20.4930 C   0  0  0  0  0  0  0  0  0  0  0  0
  -22.3420  -26.8970   18.5240 C   0  0  0  0  0  2  0  0  0  0  0  0
  -21.6660  -28.0010   16.9360 C   0  0  0  0  0 15  0  0  0  0  0  0
  -19.3510  -29.0740   17.7380 C   0  0  0  0  0 15  0  0  0  0  0  0
  -19.0650  -27.9980   19.5690 C   0  0  0  0  0  1  0  0  0  0  0  0
  -21.5750  -26.4930   20.0380 C   0  0  0  0  0  0  0  0  0  0  0  0
  -22.4660  -25.8910   21.0650 C   0  0  0  0  0  3  0  0  0  0  0  0
  -22.1430  -25.5320   22.4060 C   0  0  0  0  0  3  0  0  0  0  0  0
  -20.8180  -25.7270   22.7980 C   0  0  0  0  0  3  0  0  0  0  0  0
  -19.9090  -26.3790   21.8770 C   0  0  0  0  0  3  0  0  0  0  0  0
  -26.3530  -27.7630   22.5710 C   0  0  0  0  0  3  0  0  0  0  0  0
  -25.8550  -28.4660   23.7560 N   0  0  0  0  0  0  0  0  0  0  0  0
  -26.5230  -29.4320   24.3940 C   0  0  0  0  0  0  0  0  0  0  0  0
  -27.6720  -29.7640   24.0920 O   0  0  0  0  0  0  0  0  0  0  0  0
  -24.8970  -28.2890   24.0230 H   0  0  0  0  0  0  0  0  0  0  0  0
  -25.2510  -31.4910   25.0820 C   0  0  0  0  0  1  0  0  0  0  0  0
  -25.8020  -30.1370   25.5570 C   0  0  0  0  0  3  0  0  0  0  0  0
  -27.0420  -29.0800   27.3910 C   0  0  0  0  0  1  0  0  0  0  0  0
  -26.6590  -30.3320   26.7440 N   0  0  0  0  0  0  0  0  0  0  0  0
  -26.1950  -30.9140   27.4350 H   0  0  0  0  0  0  0  0  0  0  0  0
  -26.1230  -26.2070   22.6910 C   0  0  1  0  0  0  0  0  0  0  0  0
  -24.6350  -25.7910   22.6010 C   0  0  0  0  0  1  0  0  0  0  0  0
  -26.8910  -25.4280   21.5960 C   0  0  0  0  0  1  0  0  0  0  0  0
  -26.6860  -25.7150   24.0430 C   0  0  0  0  0  1  0  0  0  0  0  0
  -25.0430  -24.4160   18.9160 C   0  0  1  0  0  0  0  0  0  0  0  0
  -25.8450  -23.9950   19.8910 F   0  0  0  0  0  0  0  0  0  0  0  0
  -25.7570  -25.1920   18.1110 F   0  0  0  0  0  0  0  0  0  0  0  0
  -24.0740  -25.1210   19.5110 F   0  0  0  0  0  0  0  0  0  0  0  0
 98  1  1  6
  2  9  2  0
  2  8  1  0
  4  5  1  0
  4  3  1  0
  6  5  1  0
  6 20  1  0
  6  7  1  0
  8  3  1  0
  8  7  1  0
 10 13  1  0
 11 10  2  0
 11 15  1  0
 13 12  2  0
 14 16  1  0
 14  2  1  0
 15 12  1  0
 17 18  2  0
 17 20  1  0
 18 19  1  0
 19 21  2  0
 19 22  1  0
 20 21  1  0
 22 23  1  0
 23 24  2  0
 25 28  1  0
 25 24  1  0
 26 25  2  0
 27 26  1  0
 27 22  2  0
 28 29  1  0
 29 30  2  0
 29 34  1  0
 30 31  1  0
 31 32  2  0
 32 36  1  0
 33 32  1  0
 34 33  2  0
 35 34  1  0
 37 18  1  0
 37 38  1  0
 38 40  1  0
 39 37  2  0
 41 38  1  0
 42 17  1  0
 43 42  1  0
 44 42  1  0
 45 48  2  0
 46 45  1  0
 47 45  1  0
 47 11  1  0
 49 47  1  0
 50 52  2  0
 50 51  1  0
 51 53  1  0
 54 55  1  0
 56 57  1  0
 58 69  2  0
 59 57  1  0
 59 64  1  0
 60 70  1  0
 60 68  1  0
 61 66  1  0
 61 67  1  0
 61 63  1  0
 62 68  1  0
 63 64  1  0
 63 62  1  0
 65 66  1  0
 65 59  1  0
 67 60  1  0
 68 58  1  0
 70 71  1  0
 71 73  1  0
 72 70  2  0
 74 83  1  0
 75 71  1  0
 75 79  1  0
 78 74  1  0
 79 74  2  0
 79 80  1  0
 80 81  2  0
 81 82  1  0
 83 82  2  0
 84 58  1  0
 84 94  1  0
 84 85  1  0
 85 88  1  0
 85 86  1  0
 86 90  1  0
 87 86  2  0
 90 89  1  0
 90 92  1  0
 92 91  1  0
 92 93  1  0
 94 97  1  1
 95 94  1  0
 96 94  1  0
 98101  1  0
 98 99  1  0
100 98  1  0
M  ISO  4   2 100  14 100  56 101  57 101
M  END
>  <TORSDO>  (62) 
F 21

>  <SCORE>  (62) 
14.451

>  <name>  (62) 
62

>  <ligand_id>  (62) 
62

>  <original_smiles>  (62) 
[H]c1c([H])c([H])c2c(c1[H])C([H])([H])C([H])([H])C([H])([H])C2([H])N([H])C(=O)C1([H])N(C(=O)C([H])(N([H])C(=O)C([H])(N([H])C([H])([H])[H])C([H])([H])[H])C(C([H])([H])[H])(C([H])([H])[H])C([H])([H])[H])C([H])([H])c2c([H])c(OC([H])([H])C([H])(C(=O)N([H])C([H])(c3nc(N([H])C(=O)N4C([H])([H])C([H])([H])C([H])([H])C([H])(n5nc(-c6c([H])c([H])c(Oc7c([H])c([H])c(F)c([H])c7F)c([H])c6[H])c(C(=O)N([H])[H])c5N([H])[H])C4([H])[H])sc3N([H])C(=O)C([H])([H])[H])C(F)(F)F)C([H])([H])[H])c([H])c([H])c2C1([H])[H]

>  <smiles>  (62) 
[H]c1c([H])c([H])c2c(c1[H])C([H])([H])C([H])([H])C([H])([H])C2([H])N([H])C(=O)C1([H])N(C(=O)C([H])(N([H])C(=O)C([H])(N([H])C([H])([H])[H])C([H])([H])[H])C(C([H])([H])[H])(C([H])([H])[H])C([H])([H])[H])C([H])([H])c2c([H])c(OC([H])([H])C([H])(C(=O)N([H])C([H])(c3nc(N([H])C(=O)N4C([H])([H])C([H])([H])C([H])([H])C([H])(n5nc(-c6c([H])c([H])c(Oc7c([H])c([H])c(F)c([H])c7F)c([H])c6[H])c(C(=O)N([H])[H])c5N([H])[H])C4([H])[H])sc3N([H])C(=O)C([H])([H])[H])C(F)(F)F)C([H])([H])[H])c([H])c([H])c2C1([H])[H]

$$$$
63:0:0
     RDKit          3D

 92100  0  0  1  0  0  0  0  0999 V2000
  -29.2540  -22.7810   20.3840 C   0  0  0  0  0  2  0  0  0  0  0  0
  -28.3710  -17.8390   19.2870 C   0  0  0  0  0  3  0  0  0  0  0  0
  -29.3900  -18.0920   20.1700 C   0  0  0  0  0  0  0  0  0  0  0  0
  -28.6960  -20.2540   19.6890 C   0  0  0  0  0  0  0  0  0  0  0  0
  -29.5600  -19.4860   20.3850 N   0  0  0  0  0  0  0  0  0  0  0  0
  -28.5920  -21.6560   19.6970 N   0  0  0  0  0  0  0  0  0  0  0  0
  -27.6090  -19.2970   18.6900 S   0  0  0  0  0  0  0  0  0  0  0  0
  -27.8330  -21.9700   19.1030 H   0  0  0  0  0  0  0  0  0  0  0  0
  -30.2790  -17.0620   20.8760 C   0  0  0  0  0  2  0  0  0  0  0  0
  -30.6050  -14.5700   20.4400 C   0  0  0  0  0  0  0  0  0  0  0  0
  -30.3550  -12.3560   19.3680 C   0  0  0  0  0  2  0  0  0  0  0  0
  -29.4250  -12.5330   18.1500 C   0  0  0  0  0  2  0  0  0  0  0  0
  -27.9460  -12.3950   18.5720 C   0  0  0  0  0  2  0  0  0  0  0  0
  -27.5940  -13.2380   19.8310 C   0  0  0  0  0  3  0  0  0  0  0  0
  -28.6490  -13.0480   20.9440 C   0  0  0  0  0  2  0  0  0  0  0  0
  -29.9630  -13.3670   20.3650 N   0  0  0  0  0  0  0  0  0  0  0  0
  -31.7580  -14.7210   20.0300 O   0  0  0  0  0  0  0  0  0  0  0  0
  -29.8530  -15.6370   20.8140 N   0  0  0  0  0  0  0  0  0  0  0  0
  -28.9190  -15.4390   21.1390 H   0  0  0  0  0  0  0  0  0  0  0  0
  -25.1920  -13.8390   20.5270 C   0  0  0  0  0  0  0  0  0  0  0  0
  -24.1240  -13.0670   20.8930 C   0  0  0  0  0  0  0  0  0  0  0  0
  -24.5890  -11.7160   20.8740 C   0  0  0  0  0  0  0  0  0  0  0  0
  -26.2420  -12.9600   20.3060 N   0  0  0  0  0  0  0  0  0  0  0  0
  -25.8810  -11.6770   20.5730 N   0  0  0  0  0  0  0  0  0  0  0  0
  -23.8650  -10.4550   21.0650 C   0  0  0  0  0  0  0  0  0  0  0  0
  -24.3090   -9.4820   21.9890 C   0  0  0  0  0  3  0  0  0  0  0  0
  -23.5840   -8.2840   22.1680 C   0  0  0  0  0  3  0  0  0  0  0  0
  -22.4020   -8.0510   21.4250 C   0  0  0  0  0  0  0  0  0  0  0  0
  -21.9790   -9.0130   20.4910 C   0  0  0  0  0  3  0  0  0  0  0  0
  -22.7040  -10.2020   20.3080 C   0  0  0  0  0  3  0  0  0  0  0  0
  -21.6450   -6.9070   21.5140 O   0  0  0  0  0  0  0  0  0  0  0  0
  -21.6210   -6.1510   22.6580 C   0  0  0  0  0  0  0  0  0  0  0  0
  -21.2380   -6.6920   23.9050 C   0  0  0  0  0  3  0  0  0  0  0  0
  -21.1580   -5.8600   25.0400 C   0  0  0  0  0  3  0  0  0  0  0  0
  -21.4570   -4.4890   24.9300 C   0  0  0  0  0  0  0  0  0  0  0  0
  -21.8340   -3.9470   23.6890 C   0  0  0  0  0  3  0  0  0  0  0  0
  -21.9170   -4.7750   22.5560 C   0  0  0  0  0  0  0  0  0  0  0  0
  -22.2600   -4.2430   21.3590 F   0  0  0  0  0  0  0  0  0  0  0  0
  -21.3760   -3.6870   26.0190 F   0  0  0  0  0  0  0  0  0  0  0  0
  -22.7260  -13.5460   21.1580 C   0  0  0  0  0  0  0  0  0  0  0  0
  -21.9950  -12.8540   22.0230 N   0  0  0  0  0  0  0  0  0  0  0  0
  -22.2880  -14.5690   20.6330 O   0  0  0  0  0  0  0  0  0  0  0  0
  -22.3630  -12.0310   22.4770 H   0  0  0  0  0  0  0  0  0  0  0  0
  -21.0560  -13.1560   22.2380 H   0  0  0  0  0  0  0  0  0  0  0  0
  -25.3510  -15.2080   20.3430 N   0  0  0  0  0  0  0  0  0  0  0  0
  -24.5780  -15.8570   20.4420 H   0  0  0  0  0  0  0  0  0  0  0  0
  -26.1950  -15.6570   20.0150 H   0  0  0  0  0  0  0  0  0  0  0  0
  -26.8840  -23.6950   20.7900 C   0  0  0  0  0  1  0  0  0  0  0  0
  -28.7840  -24.5270   22.1370 C   0  0  0  0  0  1  0  0  0  0  0  0
  -28.3730  -24.0700   20.7210 C   0  0  1  0  0  0  0  0  0  0  0  0
  -28.5800  -25.2840   19.7160 C   0  0  0  0  0  2  0  0  0  0  0  0
  -28.4180  -26.6510   20.2100 O   0  0  0  0  0  0  0  0  0  0  0  0
  -24.6070  -31.8780   23.2280 C   0  0  0  0  0  0  0  0  0  0  0  0
  -27.2290  -27.3780   20.1520 C   0  0  0  0  0  0  0  0  0  0  0  0
  -23.3880  -30.4810   21.5910 C   0  0  0  0  0  3  0  0  0  0  0  0
  -24.8340  -28.9250   20.1610 C   0  0  0  0  0  0  0  0  0  0  0  0
  -25.9150  -30.8230   21.3730 C   0  0  0  0  0  2  0  0  0  0  0  0
  -25.9950  -29.4420   20.7450 C   0  0  0  0  0  0  0  0  0  0  0  0
  -27.1890  -28.6760   20.7360 C   0  0  0  0  0  3  0  0  0  0  0  0
  -26.0440  -26.8900   19.5550 C   0  0  0  0  0  3  0  0  0  0  0  0
  -24.8570  -27.6530   19.5610 C   0  0  0  0  0  3  0  0  0  0  0  0
  -23.5890  -29.7910   20.2130 C   0  0  0  0  0  2  0  0  0  0  0  0
  -24.6570  -31.0740   22.1250 N   0  0  0  0  0  0  0  0  0  0  0  0
  -23.5310  -32.1470   23.7810 O   0  0  0  0  0  0  0  0  0  0  0  0
  -22.7360  -29.4650   22.5560 C   0  0  0  0  0  0  0  0  0  0  0  0
  -21.4090  -29.2860   22.4410 N   0  0  0  0  0  0  0  0  0  0  0  0
  -23.4240  -28.8370   23.3640 O   0  0  0  0  0  0  0  0  0  0  0  0
  -20.9090  -29.8440   21.7630 H   0  0  0  0  0  0  0  0  0  0  0  0
  -18.0450  -28.0840   22.9640 C   0  0  0  0  0  0  0  0  0  0  0  0
  -20.6020  -28.3490   23.2230 C   0  0  0  0  0  3  0  0  0  0  0  0
  -20.7040  -26.9130   22.6560 C   0  0  0  0  0  2  0  0  0  0  0  0
  -19.5990  -26.5850   21.6450 C   0  0  0  0  0  2  0  0  0  0  0  0
  -18.2190  -26.7320   22.2930 C   0  0  0  0  0  2  0  0  0  0  0  0
  -19.1630  -28.8490   23.3900 C   0  0  0  0  0  0  0  0  0  0  0  0
  -18.9410  -30.1140   23.9740 C   0  0  0  0  0  3  0  0  0  0  0  0
  -17.6350  -30.6130   24.1420 C   0  0  0  0  0  3  0  0  0  0  0  0
  -16.5320  -29.8440   23.7330 C   0  0  0  0  0  3  0  0  0  0  0  0
  -16.7380  -28.5830   23.1480 C   0  0  0  0  0  3  0  0  0  0  0  0
  -25.8970  -32.5100   23.8370 C   0  0  0  0  0  3  0  0  0  0  0  0
  -26.4330  -31.7320   25.1010 C   0  0  1  0  0  0  0  0  0  0  0  0
  -25.3540  -31.4860   26.1810 C   0  0  0  0  0  1  0  0  0  0  0  0
  -27.0090  -30.3590   24.6900 C   0  0  0  0  0  1  0  0  0  0  0  0
  -27.5950  -32.5190   25.7530 C   0  0  0  0  0  1  0  0  0  0  0  0
  -25.5930  -33.9070   24.1800 N   0  0  0  0  0  0  0  0  0  0  0  0
  -25.9110  -34.9640   23.4220 C   0  0  0  0  0  0  0  0  0  0  0  0
  -26.5670  -34.8660   22.3810 O   0  0  0  0  0  0  0  0  0  0  0  0
  -25.0150  -34.0530   24.9960 H   0  0  0  0  0  0  0  0  0  0  0  0
  -24.1770  -36.7550   23.0960 C   0  0  0  0  0  1  0  0  0  0  0  0
  -25.4270  -36.3490   23.8920 C   0  0  0  0  0  3  0  0  0  0  0  0
  -27.5720  -37.2330   24.6970 C   0  0  0  0  0  1  0  0  0  0  0  0
  -26.4560  -37.4050   23.7720 N   0  0  0  0  0  0  0  0  0  0  0  0
  -26.0490  -38.3210   23.9330 H   0  0  0  0  0  0  0  0  0  0  0  0
  1 50  1  0
  2  3  2  0
  3  5  1  0
  3  9  1  0
  4  6  1  0
  4  5  2  0
  6  1  1  0
  7  2  1  0
  7  4  1  0
  8  6  1  0
 10 18  1  0
 11 16  1  0
 12 13  1  0
 12 11  1  0
 14 13  1  0
 14 23  1  0
 14 15  1  0
 16 10  1  0
 16 15  1  0
 17 10  2  0
 18  9  1  0
 18 19  1  0
 20 21  2  0
 21 40  1  0
 22 21  1  0
 22 25  1  0
 23 20  1  0
 23 24  1  0
 24 22  2  0
 25 26  1  0
 26 27  2  0
 28 31  1  0
 28 27  1  0
 29 28  2  0
 30 29  1  0
 30 25  2  0
 31 32  1  0
 32 33  1  0
 33 34  2  0
 35 34  1  0
 35 39  1  0
 36 35  2  0
 37 32  2  0
 37 36  1  0
 38 37  1  0
 40 41  1  0
 41 44  1  0
 41 43  1  0
 42 40  2  0
 45 46  1  0
 45 20  1  0
 47 45  1  0
 50 48  1  1
 50 49  1  0
 51 52  1  0
 51 50  1  0
 53 64  2  0
 54 52  1  0
 54 59  1  0
 55 63  1  0
 55 65  1  0
 56 62  1  0
 56 58  1  0
 57 63  1  0
 58 57  1  0
 59 58  2  0
 60 61  1  0
 60 54  2  0
 61 56  2  0
 62 55  1  0
 63 53  1  0
 65 67  2  0
 66 65  1  0
 68 66  1  0
 69 78  2  0
 69 74  1  0
 70 66  1  0
 70 74  1  0
 71 70  1  0
 72 73  1  0
 72 71  1  0
 73 69  1  0
 74 75  2  0
 75 76  1  0
 77 76  2  0
 78 77  1  0
 79 53  1  0
 79 84  1  0
 79 80  1  0
 80 83  1  1
 80 81  1  0
 82 80  1  0
 84 87  1  0
 85 89  1  0
 85 84  1  0
 86 85  2  0
 89 88  1  0
 91 89  1  0
 91 92  1  0
 91 90  1  0
M  ISO  4  10 100  18 100  51 101  52 101
M  END
>  <TORSDO>  (63) 
F 20

>  <SCORE>  (63) 
-13.996

>  <name>  (63) 
63

>  <ligand_id>  (63) 
63

>  <original_smiles>  (63) 
[H]c1sc(N([H])C([H])([H])C(C([H])([H])[H])(C([H])([H])[H])C([H])([H])Oc2c([H])c([H])c3c(c2[H])C([H])([H])N(C(=O)C([H])(N([H])C(=O)C([H])(N([H])C([H])([H])[H])C([H])([H])[H])C(C([H])([H])[H])(C([H])([H])[H])C([H])([H])[H])C([H])(C(=O)N([H])C2([H])c4c([H])c([H])c([H])c([H])c4C([H])([H])C([H])([H])C2([H])[H])C3([H])[H])nc1C([H])([H])N([H])C(=O)N1C([H])([H])C([H])([H])C([H])([H])C([H])(n2nc(-c3c([H])c([H])c(Oc4c([H])c([H])c(F)c([H])c4F)c([H])c3[H])c(C(=O)N([H])[H])c2N([H])[H])C1([H])[H]

>  <smiles>  (63) 
[H]c1sc(N([H])C([H])([H])C(C([H])([H])[H])(C([H])([H])[H])C([H])([H])Oc2c([H])c([H])c3c(c2[H])C([H])([H])N(C(=O)C([H])(N([H])C(=O)C([H])(N([H])C([H])([H])[H])C([H])([H])[H])C(C([H])([H])[H])(C([H])([H])[H])C([H])([H])[H])C([H])(C(=O)N([H])C2([H])c4c([H])c([H])c([H])c([H])c4C([H])([H])C([H])([H])C2([H])[H])C3([H])[H])nc1C([H])([H])N([H])C(=O)N1C([H])([H])C([H])([H])C([H])([H])C([H])(n2nc(-c3c([H])c([H])c(Oc4c([H])c([H])c(F)c([H])c4F)c([H])c3[H])c(C(=O)N([H])[H])c2N([H])[H])C1([H])[H]

$$$$
64:0:0
     RDKit          3D

 96104  0  0  1  0  0  0  0  0999 V2000
  -29.1520  -22.3670   19.8180 C   0  0  0  0  0  0  0  0  0  0  0  0
  -29.5060  -21.2730   20.5900 N   0  0  0  0  0  0  0  0  0  0  0  0
  -28.7180  -22.1960   18.6770 O   0  0  0  0  0  0  0  0  0  0  0  0
  -29.6660  -21.4910   21.5640 H   0  0  0  0  0  0  0  0  0  0  0  0
  -30.6420  -14.7760   19.9860 C   0  0  0  0  0  0  0  0  0  0  0  0
  -30.3730  -12.5310   18.9210 C   0  0  0  0  0  2  0  0  0  0  0  0
  -29.3580  -12.6600   17.7640 C   0  0  0  0  0  2  0  0  0  0  0  0
  -27.9160  -12.4810   18.2790 C   0  0  0  0  0  2  0  0  0  0  0  0
  -27.6320  -13.3220   19.5520 C   0  0  0  0  0  3  0  0  0  0  0  0
  -28.7600  -13.1770   20.5980 C   0  0  0  0  0  2  0  0  0  0  0  0
  -30.0250  -13.5440   19.9440 N   0  0  0  0  0  0  0  0  0  0  0  0
  -31.7730  -14.9100   19.5060 O   0  0  0  0  0  0  0  0  0  0  0  0
  -30.3880  -19.3400   19.1820 C   0  0  0  0  0  0  0  0  0  0  0  0
  -29.7130  -19.9180   20.2570 C   0  0  0  0  0  0  0  0  0  0  0  0
  -29.9880  -17.3080   20.2710 C   0  0  0  0  0  0  0  0  0  0  0  0
  -31.0250  -20.0680   18.0350 C   0  0  0  0  0  1  0  0  0  0  0  0
  -30.5270  -17.9180   19.2040 N   0  0  0  0  0  0  0  0  0  0  0  0
  -29.9140  -15.8440   20.4760 N   0  0  0  0  0  0  0  0  0  0  0  0
  -29.2460  -18.5610   21.3310 S   0  0  0  0  0  0  0  0  0  0  0  0
  -29.1140  -15.5530   21.0150 H   0  0  0  0  0  0  0  0  0  0  0  0
  -25.2940  -13.8980   20.4440 C   0  0  0  0  0  0  0  0  0  0  0  0
  -24.2520  -13.1160   20.8620 C   0  0  0  0  0  0  0  0  0  0  0  0
  -24.7060  -11.7650   20.7590 C   0  0  0  0  0  0  0  0  0  0  0  0
  -26.3190  -13.0230   20.1170 N   0  0  0  0  0  0  0  0  0  0  0  0
  -25.9730  -11.7330   20.3640 N   0  0  0  0  0  0  0  0  0  0  0  0
  -23.9860  -10.4990   20.9570 C   0  0  0  0  0  0  0  0  0  0  0  0
  -24.4440   -9.5230   21.8700 C   0  0  0  0  0  3  0  0  0  0  0  0
  -23.7230   -8.3230   22.0570 C   0  0  0  0  0  3  0  0  0  0  0  0
  -22.5290   -8.0920   21.3320 C   0  0  0  0  0  0  0  0  0  0  0  0
  -22.0900   -9.0580   20.4090 C   0  0  0  0  0  3  0  0  0  0  0  0
  -22.8120  -10.2480   20.2200 C   0  0  0  0  0  3  0  0  0  0  0  0
  -21.7780   -6.9460   21.4300 O   0  0  0  0  0  0  0  0  0  0  0  0
  -21.7200   -6.2210   22.5930 C   0  0  0  0  0  0  0  0  0  0  0  0
  -21.2550   -6.7860   23.8020 C   0  0  0  0  0  3  0  0  0  0  0  0
  -21.1460   -5.9850   24.9570 C   0  0  0  0  0  3  0  0  0  0  0  0
  -21.4930   -4.6220   24.9040 C   0  0  0  0  0  0  0  0  0  0  0  0
  -21.9500   -4.0570   23.7010 C   0  0  0  0  0  3  0  0  0  0  0  0
  -22.0610   -4.8550   22.5480 C   0  0  0  0  0  0  0  0  0  0  0  0
  -22.4830   -4.3000   21.3870 F   0  0  0  0  0  0  0  0  0  0  0  0
  -21.3790   -3.8510   26.0110 F   0  0  0  0  0  0  0  0  0  0  0  0
  -22.8780  -13.5900   21.2360 C   0  0  0  0  0  0  0  0  0  0  0  0
  -22.2040  -12.8730   22.1300 N   0  0  0  0  0  0  0  0  0  0  0  0
  -22.4110  -14.6290   20.7730 O   0  0  0  0  0  0  0  0  0  0  0  0
  -22.5940  -12.0290   22.5230 H   0  0  0  0  0  0  0  0  0  0  0  0
  -21.2850  -13.1740   22.4250 H   0  0  0  0  0  0  0  0  0  0  0  0
  -25.4510  -15.2730   20.2940 N   0  0  0  0  0  0  0  0  0  0  0  0
  -24.6860  -15.9190   20.4540 H   0  0  0  0  0  0  0  0  0  0  0  0
  -26.2630  -15.7170   19.8830 H   0  0  0  0  0  0  0  0  0  0  0  0
  -29.3550  -23.8900   20.2930 C   0  0  0  0  0  3  0  0  0  0  0  0
  -30.3220  -24.4910   19.3570 N   0  0  0  0  0  4  0  0  0  0  0  0
  -29.9230  -24.5090   18.4330 H   0  0  0  0  0  0  0  0  0  0  0  0
  -31.1630  -23.9450   19.3260 H   0  0  0  0  0  0  0  0  0  0  0  0
  -30.5440  -25.4310   19.6320 H   0  0  0  0  0  0  0  0  0  0  0  0
  -27.3510  -24.6180   21.6990 C   0  0  0  0  0  1  0  0  0  0  0  0
  -28.1010  -24.9080   20.3800 C   0  0  0  0  0  3  0  0  0  0  0  0
  -28.3550  -26.4010   20.2970 O   0  0  0  0  0  0  0  0  0  0  0  0
  -24.6270  -31.8790   23.2490 C   0  0  0  0  0  0  0  0  0  0  0  0
  -27.2640  -27.3030   20.1980 C   0  0  0  0  0  0  0  0  0  0  0  0
  -23.4410  -30.4870   21.5930 C   0  0  0  0  0  3  0  0  0  0  0  0
  -24.9080  -28.9510   20.1660 C   0  0  0  0  0  0  0  0  0  0  0  0
  -25.9860  -30.8010   21.4380 C   0  0  0  0  0  2  0  0  0  0  0  0
  -26.0740  -29.4250   20.7790 C   0  0  0  0  0  0  0  0  0  0  0  0
  -27.2560  -28.6160   20.7820 C   0  0  0  0  0  3  0  0  0  0  0  0
  -26.0790  -26.9080   19.5360 C   0  0  0  0  0  3  0  0  0  0  0  0
  -24.9170  -27.7020   19.5310 C   0  0  0  0  0  3  0  0  0  0  0  0
  -23.6690  -29.8240   20.2100 C   0  0  0  0  0  2  0  0  0  0  0  0
  -24.7030  -31.0740   22.1480 N   0  0  0  0  0  0  0  0  0  0  0  0
  -23.5380  -32.1510   23.7760 O   0  0  0  0  0  0  0  0  0  0  0  0
  -22.7730  -29.4610   22.5410 C   0  0  0  0  0  0  0  0  0  0  0  0
  -21.4470  -29.2830   22.4040 N   0  0  0  0  0  0  0  0  0  0  0  0
  -23.4480  -28.8290   23.3590 O   0  0  0  0  0  0  0  0  0  0  0  0
  -20.9610  -29.8450   21.7200 H   0  0  0  0  0  0  0  0  0  0  0  0
  -18.0640  -28.0990   22.9010 C   0  0  0  0  0  0  0  0  0  0  0  0
  -20.6260  -28.3410   23.1660 C   0  0  0  0  0  3  0  0  0  0  0  0
  -20.7170  -26.9140   22.5740 C   0  0  0  0  0  2  0  0  0  0  0  0
  -19.6110  -26.6130   21.5560 C   0  0  0  0  0  2  0  0  0  0  0  0
  -18.2310  -26.7580   22.2050 C   0  0  0  0  0  2  0  0  0  0  0  0
  -19.1890  -28.8490   23.3380 C   0  0  0  0  0  0  0  0  0  0  0  0
  -18.9780  -30.1060   23.9450 C   0  0  0  0  0  3  0  0  0  0  0  0
  -17.6750  -30.6100   24.1230 C   0  0  0  0  0  3  0  0  0  0  0  0
  -16.5670  -29.8560   23.7010 C   0  0  0  0  0  3  0  0  0  0  0  0
  -16.7620  -28.6030   23.0960 C   0  0  0  0  0  3  0  0  0  0  0  0
  -25.9020  -32.5130   23.8850 C   0  0  0  0  0  3  0  0  0  0  0  0
  -26.3990  -31.7490   25.1730 C   0  0  1  0  0  0  0  0  0  0  0  0
  -25.2900  -31.5190   26.2260 C   0  0  0  0  0  1  0  0  0  0  0  0
  -26.9880  -30.3670   24.8010 C   0  0  0  0  0  1  0  0  0  0  0  0
  -27.5410  -32.5470   25.8460 C   0  0  0  0  0  1  0  0  0  0  0  0
  -25.5900  -33.9140   24.2030 N   0  0  0  0  0  0  0  0  0  0  0  0
  -25.9090  -34.9600   23.4300 C   0  0  0  0  0  0  0  0  0  0  0  0
  -26.5630  -34.8480   22.3890 O   0  0  0  0  0  0  0  0  0  0  0  0
  -25.0050  -34.0750   25.0100 H   0  0  0  0  0  0  0  0  0  0  0  0
  -24.1570  -36.7370   23.0950 C   0  0  0  0  0  1  0  0  0  0  0  0
  -25.4200  -36.3510   23.8800 C   0  0  0  0  0  3  0  0  0  0  0  0
  -27.5670  -37.2640   24.6500 C   0  0  0  0  0  1  0  0  0  0  0  0
  -26.4410  -37.4110   23.7310 N   0  0  0  0  0  0  0  0  0  0  0  0
  -26.0310  -38.3290   23.8800 H   0  0  0  0  0  0  0  0  0  0  0  0
  1  2  1  0
  2  4  1  0
  3  1  2  0
  5 18  1  0
  6 11  1  0
  7  8  1  0
  7  6  1  0
  9  8  1  0
  9 24  1  0
  9 10  1  0
 11  5  1  0
 11 10  1  0
 12  5  2  0
 13 17  1  0
 13 14  2  0
 14  2  1  0
 14 19  1  0
 15 18  1  0
 15 19  1  0
 16 13  1  0
 17 15  2  0
 18 20  1  0
 21 22  2  0
 22 41  1  0
 23 22  1  0
 23 26  1  0
 24 25  1  0
 24 21  1  0
 25 23  2  0
 26 27  1  0
 27 28  2  0
 29 32  1  0
 29 28  1  0
 30 29  2  0
 31 30  1  0
 31 26  2  0
 32 33  1  0
 33 34  1  0
 34 35  2  0
 36 35  1  0
 36 40  1  0
 37 36  2  0
 38 33  2  0
 38 37  1  0
 39 38  1  0
 41 42  1  0
 42 45  1  0
 42 44  1  0
 43 41  2  0
 46 21  1  0
 46 47  1  0
 48 46  1  0
 49  1  1  0
 49 55  1  0
 50 53  1  0
 50 49  1  0
 51 50  1  0
 52 50  1  0
 55 54  1  0
 56 55  1  0
 57 68  2  0
 58 56  1  0
 58 63  1  0
 59 67  1  0
 59 69  1  0
 60 66  1  0
 60 62  1  0
 61 67  1  0
 62 63  2  0
 62 61  1  0
 64 58  2  0
 65 64  1  0
 65 60  2  0
 66 59  1  0
 67 57  1  0
 69 71  2  0
 70 69  1  0
 72 70  1  0
 73 82  2  0
 73 78  1  0
 74 70  1  0
 74 78  1  0
 75 74  1  0
 76 77  1  0
 76 75  1  0
 77 73  1  0
 78 79  2  0
 79 80  1  0
 81 80  2  0
 82 81  1  0
 83 57  1  0
 83 88  1  0
 83 84  1  0
 84 87  1  1
 84 85  1  0
 86 84  1  0
 88 91  1  0
 89 93  1  0
 89 88  1  0
 90 89  2  0
 93 92  1  0
 95 93  1  0
 95 96  1  0
 95 94  1  0
M  ISO  4   5 100  18 100  55 101  56 101
M  END
>  <TORSDO>  (64) 
F 19

>  <SCORE>  (64) 
-13.857

>  <name>  (64) 
64

>  <ligand_id>  (64) 
64

>  <original_smiles>  (64) 
[H]c1c([H])c([H])c2c(c1[H])C([H])([H])C([H])([H])C([H])([H])C2([H])N([H])C(=O)C1([H])N(C(=O)C([H])(N([H])C(=O)C([H])(N([H])C([H])([H])[H])C([H])([H])[H])C(C([H])([H])[H])(C([H])([H])[H])C([H])([H])[H])C([H])([H])c2c([H])c(OC([H])(C([H])([H])[H])C([H])(C(=O)N([H])c3sc(N([H])C(=O)N4C([H])([H])C([H])([H])C([H])([H])C([H])(n5nc(-c6c([H])c([H])c(Oc7c([H])c([H])c(F)c([H])c7F)c([H])c6[H])c(C(=O)N([H])[H])c5N([H])[H])C4([H])[H])nc3C([H])([H])[H])[N+]([H])([H])[H])c([H])c([H])c2C1([H])[H]

>  <smiles>  (64) 
[H]c1c([H])c([H])c2c(c1[H])C([H])([H])C([H])([H])C([H])([H])C2([H])N([H])C(=O)C1([H])N(C(=O)C([H])(N([H])C(=O)C([H])(N([H])C([H])([H])[H])C([H])([H])[H])C(C([H])([H])[H])(C([H])([H])[H])C([H])([H])[H])C([H])([H])c2c([H])c(OC([H])(C([H])([H])[H])C([H])(C(=O)N([H])c3sc(N([H])C(=O)N4C([H])([H])C([H])([H])C([H])([H])C([H])(n5nc(-c6c([H])c([H])c(Oc7c([H])c([H])c(F)c([H])c7F)c([H])c6[H])c(C(=O)N([H])[H])c5N([H])[H])C4([H])[H])nc3C([H])([H])[H])[N+]([H])([H])[H])c([H])c([H])c2C1([H])[H]

$$$$
65:0:0
     RDKit          3D

 99108  0  0  1  0  0  0  0  0999 V2000
  -30.3450  -15.2140   18.6290 C   0  0  0  0  0  0  0  0  0  0  0  0
  -28.0660  -16.0490   17.9710 C   0  0  0  0  0  2  0  0  0  0  0  0
  -28.1290  -16.5430   16.5050 C   0  0  0  0  0  2  0  0  0  0  0  0
  -28.6380  -17.9980   16.4170 C   0  0  0  0  0  2  0  0  0  0  0  0
  -29.8960  -18.2440   17.2910 C   0  0  0  0  0  3  0  0  0  0  0  0
  -29.6980  -17.6660   18.7120 C   0  0  0  0  0  2  0  0  0  0  0  0
  -29.4090  -16.2290   18.5700 N   0  0  0  0  0  0  0  0  0  0  0  0
  -29.9770  -14.0320   18.6330 O   0  0  0  0  0  0  0  0  0  0  0  0
  -35.2960  -15.4410   18.6330 C   0  0  0  0  0  0  0  0  0  0  0  0
  -35.1120  -14.2490   17.9380 C   0  0  0  0  0  0  0  0  0  0  0  0
  -33.0730  -15.1670   18.4130 C   0  0  0  0  0  0  0  0  0  0  0  0
  -33.7400  -17.3240   19.4640 C   0  0  0  0  0  1  0  0  0  0  0  0
  -33.6770  -14.0740   17.8520 N   0  0  0  0  0  0  0  0  0  0  0  0
  -34.0210  -16.0260   18.8450 N   0  0  0  0  0  0  0  0  0  0  0  0
  -31.6610  -15.6430   18.5360 N   0  0  0  0  0  0  0  0  0  0  0  0
  -31.6440  -16.6450   18.6340 H   0  0  0  0  0  0  0  0  0  0  0  0
  -31.0800  -20.3570   16.4290 C   0  0  0  0  0  0  0  0  0  0  0  0
  -31.0820  -21.6520   16.8670 C   0  0  0  0  0  0  0  0  0  0  0  0
  -30.2560  -21.6750   18.0320 C   0  0  0  0  0  0  0  0  0  0  0  0
  -30.2860  -19.6520   17.3200 N   0  0  0  0  0  0  0  0  0  0  0  0
  -29.8380  -20.4490   18.3250 N   0  0  0  0  0  0  0  0  0  0  0  0
  -29.7960  -22.8040   18.8500 C   0  0  0  0  0  0  0  0  0  0  0  0
  -29.2680  -22.6120   20.1450 C   0  0  0  0  0  3  0  0  0  0  0  0
  -28.8470  -23.7160   20.9180 C   0  0  0  0  0  3  0  0  0  0  0  0
  -28.9560  -25.0270   20.3990 C   0  0  0  0  0  0  0  0  0  0  0  0
  -29.4620  -25.2120   19.1000 C   0  0  0  0  0  3  0  0  0  0  0  0
  -29.8760  -24.1120   18.3300 C   0  0  0  0  0  3  0  0  0  0  0  0
  -28.5530  -26.1580   21.0690 O   0  0  0  0  0  0  0  0  0  0  0  0
  -27.4650  -26.1500   21.9070 C   0  0  0  0  0  0  0  0  0  0  0  0
  -26.5540  -25.0720   21.9330 C   0  0  0  0  0  3  0  0  0  0  0  0
  -25.4920  -25.0750   22.8580 C   0  0  0  0  0  3  0  0  0  0  0  0
  -25.3450  -26.1440   23.7610 C   0  0  0  0  0  0  0  0  0  0  0  0
  -26.2570  -27.2140   23.7410 C   0  0  0  0  0  3  0  0  0  0  0  0
  -27.3160  -27.2150   22.8180 C   0  0  0  0  0  0  0  0  0  0  0  0
  -28.2040  -28.2390   22.8160 F   0  0  0  0  0  0  0  0  0  0  0  0
  -24.3290  -26.1420   24.6550 F   0  0  0  0  0  0  0  0  0  0  0  0
  -31.7200  -22.8230   16.1780 C   0  0  0  0  0  0  0  0  0  0  0  0
  -31.4440  -23.0070   14.8900 N   0  0  0  0  0  0  0  0  0  0  0  0
  -32.4300  -23.6170   16.7940 O   0  0  0  0  0  0  0  0  0  0  0  0
  -30.8390  -22.3760   14.3880 H   0  0  0  0  0  0  0  0  0  0  0  0
  -31.8500  -23.7930   14.4010 H   0  0  0  0  0  0  0  0  0  0  0  0
  -31.6670  -19.7410   15.3300 N   0  0  0  0  0  0  0  0  0  0  0  0
  -32.0900  -20.3330   14.6220 H   0  0  0  0  0  0  0  0  0  0  0  0
  -31.4020  -18.8330   14.9720 H   0  0  0  0  0  0  0  0  0  0  0  0
  -36.5680  -16.0670   19.1840 C   0  0  1  0  0  0  0  0  0  0  0  0
  -37.6270  -15.2940   19.0000 F   0  0  0  0  0  0  0  0  0  0  0  0
  -36.8640  -17.2180   18.5790 F   0  0  0  0  0  0  0  0  0  0  0  0
  -36.5490  -16.3020   20.7180 C   0  0  2  0  0  0  0  0  0  0  0  0
  -35.5970  -17.1760   21.0460 F   0  0  0  0  0  0  0  0  0  0  0  0
  -37.7090  -16.7750   21.1720 F   0  0  0  0  0  0  0  0  0  0  0  0
  -36.3020  -15.1540   21.3540 F   0  0  0  0  0  0  0  0  0  0  0  0
  -36.1380  -13.2720   17.5150 N   0  0  0  0  0  4  0  0  0  0  0  0
  -36.8590  -13.1870   18.2250 H   0  0  0  0  0  0  0  0  0  0  0  0
  -37.4510  -11.4800   16.2120 C   0  0  0  0  0  1  0  0  0  0  0  0
  -36.0790  -11.9510   16.7320 C   0  0  0  0  0  0  0  0  0  0  0  0
  -35.5940  -10.0600   18.4940 C   0  0  0  0  0  1  0  0  0  0  0  0
  -35.0890  -10.7170   17.2020 C   0  0  0  0  0  3  0  0  0  0  0  0
  -34.7180   -9.5220   16.1480 C   0  0  0  0  0  2  0  0  0  0  0  0
  -34.4000   -8.0910   16.5390 O   0  0  0  0  0  0  0  0  0  0  0  0
  -37.0970   -4.9800   10.5380 C   0  0  0  0  0  0  0  0  0  0  0  0
  -34.2860   -7.0780   15.5480 C   0  0  0  0  0  0  0  0  0  0  0  0
  -34.7060   -4.6040   11.0170 C   0  0  0  0  0  3  0  0  0  0  0  0
  -33.9220   -5.2110   13.3810 C   0  0  0  0  0  0  0  0  0  0  0  0
  -36.3640   -4.9900   12.9390 C   0  0  0  0  0  3  0  0  0  0  0  0
  -35.2170   -5.5880   13.7560 C   0  0  0  0  0  0  0  0  0  0  0  0
  -35.4030   -6.5100   14.8400 C   0  0  0  0  0  3  0  0  0  0  0  0
  -33.0100   -6.6020   15.1660 C   0  0  0  0  0  3  0  0  0  0  0  0
  -32.8220   -5.7080   14.0940 C   0  0  0  0  0  3  0  0  0  0  0  0
  -33.7610   -4.2710   12.2010 C   0  0  0  0  0  2  0  0  0  0  0  0
  -36.1050   -4.8830   11.4740 N   0  0  0  0  0  0  0  0  0  0  0  0
  -36.8650   -4.8140    9.3330 O   0  0  0  0  0  0  0  0  0  0  0  0
  -34.0900   -5.7590   10.1900 C   0  0  0  0  0  0  0  0  0  0  0  0
  -34.0950   -5.6190    8.8520 N   0  0  0  0  0  0  0  0  0  0  0  0
  -33.5990   -6.7400   10.7520 O   0  0  0  0  0  0  0  0  0  0  0  0
  -34.5300   -4.7930    8.4660 H   0  0  0  0  0  0  0  0  0  0  0  0
  -32.8090   -5.9300    5.4840 C   0  0  0  0  0  0  0  0  0  0  0  0
  -33.5270   -6.5610    7.8860 C   0  0  0  0  0  3  0  0  0  0  0  0
  -32.0240   -6.8010    8.1610 C   0  0  0  0  0  2  0  0  0  0  0  0
  -31.1070   -5.8740    7.3560 C   0  0  0  0  0  2  0  0  0  0  0  0
  -31.3420   -6.0580    5.8530 C   0  0  0  0  0  2  0  0  0  0  0  0
  -33.8350   -6.1470    6.4420 C   0  0  0  0  0  0  0  0  0  0  0  0
  -35.1820   -5.9780    6.0550 C   0  0  0  0  0  3  0  0  0  0  0  0
  -35.5100   -5.6030    4.7380 C   0  0  0  0  0  3  0  0  0  0  0  0
  -34.4920   -5.4030    3.7890 C   0  0  0  0  0  3  0  0  0  0  0  0
  -33.1470   -5.5710    4.1610 C   0  0  0  0  0  3  0  0  0  0  0  0
  -38.5720   -5.2820   10.9440 C   0  0  0  0  0  3  0  0  0  0  0  0
  -39.1660   -6.1050    9.8790 N   0  0  0  0  0  0  0  0  0  0  0  0
  -39.5690   -7.3730   10.0280 C   0  0  0  0  0  0  0  0  0  0  0  0
  -39.4170   -8.0040   11.0780 O   0  0  0  0  0  0  0  0  0  0  0  0
  -39.3710   -5.6350    9.0090 H   0  0  0  0  0  0  0  0  0  0  0  0
  -41.0060   -9.3050    9.2940 C   0  0  0  0  0  1  0  0  0  0  0  0
  -40.2520   -8.0510    8.8230 C   0  0  0  0  0  3  0  0  0  0  0  0
  -39.0750   -9.8530    7.6410 C   0  0  0  0  0  1  0  0  0  0  0  0
  -39.3120   -8.4150    7.7410 N   0  0  0  0  0  0  0  0  0  0  0  0
  -38.4160   -7.9540    7.8690 H   0  0  0  0  0  0  0  0  0  0  0  0
  -38.6960   -6.0110   12.3380 C   0  0  1  0  0  0  0  0  0  0  0  0
  -40.1360   -6.4540   12.6850 C   0  0  0  0  0  1  0  0  0  0  0  0
  -37.7930   -7.2660   12.3850 C   0  0  0  0  0  1  0  0  0  0  0  0
  -38.2030   -5.0720   13.4650 C   0  0  0  0  0  2  0  0  0  0  0  0
  1  8  2  0
  2  7  1  0
  3  2  1  0
  4  3  1  0
  5  4  1  0
  5 20  1  0
  5  6  1  0
  7  1  1  0
  7  6  1  0
  9 14  1  0
  9 45  1  0
 10  9  2  0
 11 15  1  0
 11 14  1  0
 13 10  1  0
 13 11  2  0
 14 12  1  0
 15  1  1  0
 15 16  1  0
 17 18  2  0
 17 20  1  0
 18 19  1  0
 19 21  2  0
 19 22  1  0
 20 21  1  0
 22 23  1  0
 23 24  2  0
 25 24  1  0
 25 28  1  0
 26 25  2  0
 27 22  2  0
 27 26  1  0
 28 29  1  0
 29 30  2  0
 29 34  1  0
 30 31  1  0
 31 32  2  0
 32 36  1  0
 33 32  1  0
 34 33  2  0
 35 34  1  0
 37 39  2  0
 37 18  1  0
 38 37  1  0
 40 38  1  0
 41 38  1  0
 42 17  1  0
 43 42  1  0
 44 42  1  0
 45 48  1  0
 45 46  1  1
 47 45  1  0
 48 49  1  6
 48 50  1  0
 48 51  1  0
 52 10  1  0
 52 53  1  0
 54 55  1  0
 55 57  1  0
 55 52  2  0
 57 56  1  0
 58 59  1  0
 58 57  1  0
 60 86  1  0
 60 70  1  0
 61 59  1  0
 62 72  1  0
 62 70  1  0
 62 69  1  0
 63 65  2  0
 63 68  1  0
 64 99  1  0
 64 65  1  0
 65 66  1  0
 66 61  2  0
 67 61  1  0
 68 67  2  0
 69 63  1  0
 70 64  1  0
 71 60  2  0
 72 74  2  0
 73 72  1  0
 75 73  1  0
 76 80  1  0
 76 81  1  0
 77 78  1  0
 77 73  1  0
 79 78  1  0
 80 79  1  0
 81 77  1  0
 82 81  2  0
 83 82  1  0
 84 85  1  0
 84 83  2  0
 85 76  2  0
 86 87  1  0
 86 96  1  0
 87 88  1  0
 88 89  2  0
 90 87  1  0
 92 91  1  0
 92 88  1  0
 93 94  1  0
 94 95  1  0
 94 92  1  0
 96 98  1  6
 96 97  1  0
 96 99  1  0
M  ISO  4   1 100  15 100  58 101  59 101
M  END
>  <TORSDO>  (65) 
F 21

>  <SCORE>  (65) 
11.111

>  <name>  (65) 
65

>  <ligand_id>  (65) 
65

>  <original_smiles>  (65) 
[H]c1c([H])c([H])c2c(c1[H])C([H])([H])C([H])([H])C([H])([H])C2([H])N([H])C(=O)C1([H])N(C(=O)C([H])(N([H])C(=O)C([H])(N([H])C([H])([H])[H])C([H])([H])[H])C(C([H])([H])[H])(C([H])([H])[H])C([H])([H])[H])C([H])([H])c2c([H])c(OC([H])([H])C([H])(C([H])([H])[H])C([H])(N([H])c3nc(N([H])C(=O)N4C([H])([H])C([H])([H])C([H])([H])C([H])(n5nc(-c6c([H])c([H])c(Oc7c([H])c([H])c(F)c([H])c7F)c([H])c6[H])c(C(=O)N([H])[H])c5N([H])[H])C4([H])[H])n(C([H])([H])[H])c3C(F)(F)C(F)(F)F)C([H])([H])[H])c([H])c([H])c2C1([H])[H]

>  <smiles>  (65) 
[H]c1c([H])c([H])c2c(c1[H])C([H])([H])C([H])([H])C([H])([H])C2([H])N([H])C(=O)C1([H])N(C(=O)C([H])(N([H])C(=O)C([H])(N([H])C([H])([H])[H])C([H])([H])[H])C(C([H])([H])[H])(C([H])([H])[H])C([H])([H])[H])C([H])([H])c2c([H])c(OC([H])([H])C([H])(C([H])([H])[H])C([H])(N([H])c3nc(N([H])C(=O)N4C([H])([H])C([H])([H])C([H])([H])C([H])(n5nc(-c6c([H])c([H])c(Oc7c([H])c([H])c(F)c([H])c7F)c([H])c6[H])c(C(=O)N([H])[H])c5N([H])[H])C4([H])[H])n(C([H])([H])[H])c3C(F)(F)C(F)(F)F)C([H])([H])[H])c([H])c([H])c2C1([H])[H]

$$$$
66:0:0
     RDKit          3D

 98106  0  0  1  0  0  0  0  0999 V2000
  -30.8630  -14.7290   20.6350 C   0  0  0  0  0  0  0  0  0  0  0  0
  -30.5400  -12.6200   19.3450 C   0  0  0  0  0  2  0  0  0  0  0  0
  -29.6380  -12.7750   18.0980 C   0  0  0  0  0  2  0  0  0  0  0  0
  -28.1260  -12.8550   18.4450 C   0  0  0  0  0  2  0  0  0  0  0  0
  -27.7890  -13.5770   19.7880 C   0  0  0  0  0  3  0  0  0  0  0  0
  -28.8100  -13.2380   20.8930 C   0  0  0  0  0  2  0  0  0  0  0  0
  -30.1390  -13.5940   20.3750 N   0  0  0  0  0  0  0  0  0  0  0  0
  -32.0410  -14.8290   20.2680 O   0  0  0  0  0  0  0  0  0  0  0  0
  -30.0770  -17.4070   19.0870 C   0  0  0  0  0  0  0  0  0  0  0  0
  -30.0220  -18.7520   18.6700 C   0  0  0  0  0  0  0  0  0  0  0  0
  -30.0540  -17.1650   20.5080 C   0  0  0  0  0  0  0  0  0  0  0  0
  -29.7450  -19.4840   20.7920 C   0  0  0  0  0  0  0  0  0  0  0  0
  -30.1420  -15.8360   22.6060 C   0  0  0  0  0  1  0  0  0  0  0  0
  -29.8530  -19.7670   19.5060 N   0  0  0  0  0  0  0  0  0  0  0  0
  -29.8520  -18.2640   21.3130 N   0  0  0  0  0  0  0  0  0  0  0  0
  -29.5270  -20.5720   21.6440 N   0  0  0  0  0  0  0  0  0  0  0  0
  -30.2010  -15.8270   21.1390 N   0  0  0  0  0  0  0  0  0  0  0  0
  -29.5080  -20.3540   22.6350 H   0  0  0  0  0  0  0  0  0  0  0  0
  -25.3550  -14.2190   20.3480 C   0  0  0  0  0  0  0  0  0  0  0  0
  -24.2610  -13.4670   20.6880 C   0  0  0  0  0  0  0  0  0  0  0  0
  -24.7170  -12.1140   20.7400 C   0  0  0  0  0  0  0  0  0  0  0  0
  -26.4100  -13.3270   20.2130 N   0  0  0  0  0  0  0  0  0  0  0  0
  -26.0230  -12.0570   20.5070 N   0  0  0  0  0  0  0  0  0  0  0  0
  -23.9730  -10.8640   20.9410 C   0  0  0  0  0  0  0  0  0  0  0  0
  -24.3580   -9.9230   21.9220 C   0  0  0  0  0  3  0  0  0  0  0  0
  -23.6170   -8.7360   22.1050 C   0  0  0  0  0  3  0  0  0  0  0  0
  -22.4780   -8.4820   21.3060 C   0  0  0  0  0  0  0  0  0  0  0  0
  -22.1120   -9.4100   20.3190 C   0  0  0  0  0  3  0  0  0  0  0  0
  -22.8510  -10.5900   20.1340 C   0  0  0  0  0  3  0  0  0  0  0  0
  -21.7060   -7.3490   21.3990 O   0  0  0  0  0  0  0  0  0  0  0  0
  -21.6160   -6.6310   22.5640 C   0  0  0  0  0  0  0  0  0  0  0  0
  -21.1940   -7.2200   23.7730 C   0  0  0  0  0  3  0  0  0  0  0  0
  -21.0460   -6.4250   24.9290 C   0  0  0  0  0  3  0  0  0  0  0  0
  -21.3210   -5.0460   24.8760 C   0  0  0  0  0  0  0  0  0  0  0  0
  -21.7450   -4.4580   23.6700 C   0  0  0  0  0  3  0  0  0  0  0  0
  -21.8820   -5.2470   22.5170 C   0  0  0  0  0  0  0  0  0  0  0  0
  -22.2700   -4.6730   21.3530 F   0  0  0  0  0  0  0  0  0  0  0  0
  -21.1760   -4.2840   25.9830 F   0  0  0  0  0  0  0  0  0  0  0  0
  -22.8540  -13.9620   20.8640 C   0  0  0  0  0  0  0  0  0  0  0  0
  -22.0770  -13.3090   21.7200 N   0  0  0  0  0  0  0  0  0  0  0  0
  -22.4500  -14.9660   20.2790 O   0  0  0  0  0  0  0  0  0  0  0  0
  -22.4130  -12.4950   22.2150 H   0  0  0  0  0  0  0  0  0  0  0  0
  -21.1320  -13.6240   21.8830 H   0  0  0  0  0  0  0  0  0  0  0  0
  -25.5270  -15.5800   20.1230 N   0  0  0  0  0  0  0  0  0  0  0  0
  -24.7390  -16.2180   20.1310 H   0  0  0  0  0  0  0  0  0  0  0  0
  -26.3790  -16.0150   19.7960 H   0  0  0  0  0  0  0  0  0  0  0  0
  -30.1460  -19.1430   17.3450 N   0  0  0  0  0  0  0  0  0  0  0  0
  -30.3450  -18.4590   16.6280 H   0  0  0  0  0  0  0  0  0  0  0  0
  -30.4040  -20.0960   17.1330 H   0  0  0  0  0  0  0  0  0  0  0  0
  -29.2270  -16.3790   16.8200 C   0  0  0  0  0  1  0  0  0  0  0  0
  -30.1600  -16.2940   18.0390 C   0  0  0  0  0  2  0  0  0  0  0  0
  -31.1190  -22.4070   21.2540 C   0  0  0  0  0  1  0  0  0  0  0  0
  -29.6300  -22.0000   21.2400 C   0  0  0  0  0  3  0  0  0  0  0  0
  -28.7720  -22.9490   22.1440 C   0  0  0  0  0  2  0  0  0  0  0  0
  -28.1220  -24.2740   21.5850 C   0  0  0  0  0  3  0  0  0  0  0  0
  -27.5630  -24.8500   22.6510 F   0  0  0  0  0  0  0  0  0  0  0  0
  -28.9670  -25.3620   20.8290 C   0  0  0  0  0  2  0  0  0  0  0  0
  -28.7890  -26.7720   21.1590 O   0  0  0  0  0  0  0  0  0  0  0  0
  -24.6120  -32.0710   23.4480 C   0  0  0  0  0  0  0  0  0  0  0  0
  -27.6090  -27.4710   20.9260 C   0  0  0  0  0  0  0  0  0  0  0  0
  -23.5830  -30.5290   21.8100 C   0  0  0  0  0  3  0  0  0  0  0  0
  -25.1890  -28.9340   20.6130 C   0  0  0  0  0  0  0  0  0  0  0  0
  -26.1050  -30.9390   21.7910 C   0  0  0  0  0  2  0  0  0  0  0  0
  -26.2780  -29.5240   21.2670 C   0  0  0  0  0  0  0  0  0  0  0  0
  -27.4850  -28.7970   21.4210 C   0  0  0  0  0  3  0  0  0  0  0  0
  -26.5090  -26.9160   20.2330 C   0  0  0  0  0  3  0  0  0  0  0  0
  -25.3030  -27.6350   20.0870 C   0  0  0  0  0  3  0  0  0  0  0  0
  -23.9250  -29.7610   20.5020 C   0  0  0  0  0  2  0  0  0  0  0  0
  -24.7800  -31.1990   22.4110 N   0  0  0  0  0  0  0  0  0  0  0  0
  -23.4800  -32.3480   23.8780 O   0  0  0  0  0  0  0  0  0  0  0  0
  -22.8730  -29.5580   22.7860 C   0  0  0  0  0  0  0  0  0  0  0  0
  -21.5650  -29.3450   22.5740 N   0  0  0  0  0  0  0  0  0  0  0  0
  -23.5040  -28.9980   23.6870 O   0  0  0  0  0  0  0  0  0  0  0  0
  -21.1190  -29.8540   21.8250 H   0  0  0  0  0  0  0  0  0  0  0  0
  -18.1800  -28.1220   22.9050 C   0  0  0  0  0  0  0  0  0  0  0  0
  -20.7090  -28.4370   23.3370 C   0  0  0  0  0  3  0  0  0  0  0  0
  -20.8700  -26.9780   22.8510 C   0  0  0  0  0  2  0  0  0  0  0  0
  -19.8450  -26.5810   21.7830 C   0  0  0  0  0  2  0  0  0  0  0  0
  -18.4200  -26.7400   22.3200 C   0  0  0  0  0  2  0  0  0  0  0  0
  -19.2560  -28.9250   23.3690 C   0  0  0  0  0  0  0  0  0  0  0  0
  -18.9820  -30.2150   23.8730 C   0  0  0  0  0  3  0  0  0  0  0  0
  -17.6630  -30.7040   23.9170 C   0  0  0  0  0  3  0  0  0  0  0  0
  -16.6000  -29.9000   23.4690 C   0  0  0  0  0  3  0  0  0  0  0  0
  -16.8570  -28.6120   22.9690 C   0  0  0  0  0  3  0  0  0  0  0  0
  -25.8230  -32.7820   24.1260 C   0  0  0  0  0  3  0  0  0  0  0  0
  -25.4550  -34.1890   24.3390 N   0  0  0  0  0  0  0  0  0  0  0  0
  -25.8240  -35.2000   23.5410 C   0  0  0  0  0  0  0  0  0  0  0  0
  -26.5780  -35.0500   22.5750 O   0  0  0  0  0  0  0  0  0  0  0  0
  -24.7900  -34.3770   25.0760 H   0  0  0  0  0  0  0  0  0  0  0  0
  -24.0830  -36.9090   22.9330 C   0  0  0  0  0  1  0  0  0  0  0  0
  -25.2660  -36.6000   23.8640 C   0  0  0  0  0  3  0  0  0  0  0  0
  -27.3100  -37.5950   24.7880 C   0  0  0  0  0  1  0  0  0  0  0  0
  -26.2770  -37.6750   23.7600 N   0  0  0  0  0  0  0  0  0  0  0  0
  -25.8390  -38.5900   23.8210 H   0  0  0  0  0  0  0  0  0  0  0  0
  -26.2530  -32.1060   25.4860 C   0  0  1  0  0  0  0  0  0  0  0  0
  -25.0790  -31.8790   26.4670 C   0  0  0  0  0  1  0  0  0  0  0  0
  -26.9190  -30.7380   25.2190 C   0  0  0  0  0  1  0  0  0  0  0  0
  -27.3110  -32.9830   26.1980 C   0  0  0  0  0  1  0  0  0  0  0  0
  1 17  1  0
  2  7  1  0
  3  4  1  0
  3  2  1  0
  5  4  1  0
  5 22  1  0
  5  6  1  0
  7  1  1  0
  7  6  1  0
  8  1  2  0
  9 11  1  0
 10  9  2  0
 10 14  1  0
 11 17  1  0
 11 15  2  0
 12 15  1  0
 12 16  1  0
 14 12  2  0
 16 18  1  0
 17 13  1  0
 19 20  2  0
 20 21  1  0
 20 39  1  0
 21 24  1  0
 22 19  1  0
 22 23  1  0
 23 21  2  0
 24 25  1  0
 25 26  2  0
 27 30  1  0
 27 26  1  0
 28 27  2  0
 29 28  1  0
 29 24  2  0
 30 31  1  0
 31 32  1  0
 32 33  2  0
 34 33  1  0
 34 38  1  0
 35 34  2  0
 36 31  2  0
 36 35  1  0
 37 36  1  0
 39 40  1  0
 40 43  1  0
 40 42  1  0
 41 39  2  0
 44 45  1  0
 44 19  1  0
 46 44  1  0
 47 10  1  0
 48 47  1  0
 49 47  1  0
 50 51  1  0
 51  9  1  0
 53 52  1  0
 53 16  1  0
 53 54  1  0
 55 54  1  0
 55 56  1  0
 57 58  1  0
 57 55  1  0
 59 70  2  0
 60 58  1  0
 60 65  1  0
 61 69  1  0
 61 71  1  0
 62 64  1  0
 63 69  1  0
 64 65  2  0
 64 63  1  0
 66 60  2  0
 67 66  1  0
 67 62  2  0
 68 62  1  0
 68 61  1  0
 69 59  1  0
 71 73  2  0
 72 71  1  0
 74 72  1  0
 75 84  2  0
 75 80  1  0
 76 72  1  0
 76 80  1  0
 77 76  1  0
 78 79  1  0
 78 77  1  0
 79 75  1  0
 80 81  2  0
 81 82  1  0
 83 82  2  0
 84 83  1  0
 85 59  1  0
 85 86  1  0
 85 95  1  0
 86 89  1  0
 87 91  1  0
 87 86  1  0
 88 87  2  0
 91 90  1  0
 93 94  1  0
 93 91  1  0
 93 92  1  0
 95 98  1  1
 95 96  1  0
 97 95  1  0
M  ISO  4   1 100  17 100  57 101  58 101
M  END
>  <TORSDO>  (66) 
F 21

>  <SCORE>  (66) 
-8.005

>  <name>  (66) 
66

>  <ligand_id>  (66) 
66

>  <original_smiles>  (66) 
[H]c1c([H])c([H])c2c(c1[H])C([H])([H])C([H])([H])C([H])([H])C2([H])N([H])C(=O)C1([H])N(C(=O)C([H])(N([H])C(=O)C([H])(N([H])C([H])([H])[H])C([H])([H])[H])C(C([H])([H])[H])(C([H])([H])[H])C([H])([H])[H])C([H])([H])c2c([H])c(OC([H])([H])C([H])(F)C([H])([H])C([H])(N([H])c3nc(N([H])[H])c(C([H])([H])C([H])([H])[H])c(N(C(=O)N4C([H])([H])C([H])([H])C([H])([H])C([H])(n5nc(-c6c([H])c([H])c(Oc7c([H])c([H])c(F)c([H])c7F)c([H])c6[H])c(C(=O)N([H])[H])c5N([H])[H])C4([H])[H])C([H])([H])[H])n3)C([H])([H])[H])c([H])c([H])c2C1([H])[H]

>  <smiles>  (66) 
[H]c1c([H])c([H])c2c(c1[H])C([H])([H])C([H])([H])C([H])([H])C2([H])N([H])C(=O)C1([H])N(C(=O)C([H])(N([H])C(=O)C([H])(N([H])C([H])([H])[H])C([H])([H])[H])C(C([H])([H])[H])(C([H])([H])[H])C([H])([H])[H])C([H])([H])c2c([H])c(OC([H])([H])C([H])(F)C([H])([H])C([H])(N([H])c3nc(N([H])[H])c(C([H])([H])C([H])([H])[H])c(N(C(=O)N4C([H])([H])C([H])([H])C([H])([H])C([H])(n5nc(-c6c([H])c([H])c(Oc7c([H])c([H])c(F)c([H])c7F)c([H])c6[H])c(C(=O)N([H])[H])c5N([H])[H])C4([H])[H])C([H])([H])[H])n3)C([H])([H])[H])c([H])c([H])c2C1([H])[H]

$$$$
67:0:0
     RDKit          3D

 94102  0  0  1  0  0  0  0  0999 V2000
  -30.7730  -22.7310   21.0170 C   0  0  0  0  0  1  0  0  0  0  0  0
  -29.5170  -22.5040   20.1510 C   0  0  0  0  0  3  0  0  0  0  0  0
  -30.6670  -17.8110   19.0860 C   0  0  0  0  0  0  0  0  0  0  0  0
  -30.0060  -17.4030   20.2300 C   0  0  0  0  0  0  0  0  0  0  0  0
  -29.5990  -19.7710   20.2370 C   0  0  0  0  0  0  0  0  0  0  0  0
  -31.2260  -16.9870   17.9740 C   0  0  0  0  0  1  0  0  0  0  0  0
  -29.3520  -18.5530   20.8370 N   0  0  0  0  0  0  0  0  0  0  0  0
  -29.0850  -21.0930   20.5310 N   0  0  0  0  0  0  0  0  0  0  0  0
  -30.7140  -19.5610   18.9030 S   0  0  0  0  0  0  0  0  0  0  0  0
  -28.5180  -21.1040   21.3690 H   0  0  0  0  0  0  0  0  0  0  0  0
  -30.6260  -14.8280   20.3870 C   0  0  0  0  0  0  0  0  0  0  0  0
  -30.4500  -12.5420   19.3760 C   0  0  0  0  0  2  0  0  0  0  0  0
  -29.5250  -12.5930   18.1380 C   0  0  0  0  0  2  0  0  0  0  0  0
  -28.0530  -12.4120   18.5530 C   0  0  0  0  0  2  0  0  0  0  0  0
  -27.6630  -13.3060   19.7570 C   0  0  0  0  0  3  0  0  0  0  0  0
  -28.7050  -13.2350   20.8940 C   0  0  0  0  0  2  0  0  0  0  0  0
  -30.0050  -13.5970   20.3210 N   0  0  0  0  0  0  0  0  0  0  0  0
  -31.8230  -14.9020   20.1050 O   0  0  0  0  0  0  0  0  0  0  0  0
  -29.8400  -15.9650   20.6100 N   0  0  0  0  0  0  0  0  0  0  0  0
  -28.9370  -15.7500   21.0020 H   0  0  0  0  0  0  0  0  0  0  0  0
  -25.2650  -13.8870   20.4590 C   0  0  0  0  0  0  0  0  0  0  0  0
  -24.2010  -13.1080   20.8190 C   0  0  0  0  0  0  0  0  0  0  0  0
  -24.6740  -11.7600   20.8120 C   0  0  0  0  0  0  0  0  0  0  0  0
  -26.3170  -13.0160   20.2390 N   0  0  0  0  0  0  0  0  0  0  0  0
  -25.9700  -11.7300   20.5210 N   0  0  0  0  0  0  0  0  0  0  0  0
  -23.9550  -10.4930   21.0040 C   0  0  0  0  0  0  0  0  0  0  0  0
  -24.3750   -9.5430   21.9610 C   0  0  0  0  0  3  0  0  0  0  0  0
  -23.6530   -8.3440   22.1420 C   0  0  0  0  0  3  0  0  0  0  0  0
  -22.4970   -8.0870   21.3670 C   0  0  0  0  0  0  0  0  0  0  0  0
  -22.0940   -9.0290   20.4030 C   0  0  0  0  0  3  0  0  0  0  0  0
  -22.8160  -10.2180   20.2200 C   0  0  0  0  0  3  0  0  0  0  0  0
  -21.7490   -6.9380   21.4540 O   0  0  0  0  0  0  0  0  0  0  0  0
  -21.6780   -6.2090   22.6140 C   0  0  0  0  0  0  0  0  0  0  0  0
  -21.2120   -6.7700   23.8210 C   0  0  0  0  0  3  0  0  0  0  0  0
  -21.0900   -5.9660   24.9730 C   0  0  0  0  0  3  0  0  0  0  0  0
  -21.4260   -4.6010   24.9180 C   0  0  0  0  0  0  0  0  0  0  0  0
  -21.8810   -4.0360   23.7130 C   0  0  0  0  0  3  0  0  0  0  0  0
  -22.0020   -4.8360   22.5650 C   0  0  0  0  0  0  0  0  0  0  0  0
  -22.4210   -4.2810   21.4010 F   0  0  0  0  0  0  0  0  0  0  0  0
  -21.3000   -3.8270   26.0210 F   0  0  0  0  0  0  0  0  0  0  0  0
  -22.7930  -13.5750   21.0550 C   0  0  0  0  0  0  0  0  0  0  0  0
  -22.0540  -12.8830   21.9120 N   0  0  0  0  0  0  0  0  0  0  0  0
  -22.3590  -14.5910   20.5130 O   0  0  0  0  0  0  0  0  0  0  0  0
  -22.4260  -12.0750   22.3860 H   0  0  0  0  0  0  0  0  0  0  0  0
  -21.1040  -13.1720   22.1080 H   0  0  0  0  0  0  0  0  0  0  0  0
  -25.4200  -15.2590   20.2770 N   0  0  0  0  0  0  0  0  0  0  0  0
  -24.6450  -15.9010   20.3970 H   0  0  0  0  0  0  0  0  0  0  0  0
  -26.2540  -15.7120   19.9220 H   0  0  0  0  0  0  0  0  0  0  0  0
  -28.4580  -23.7610   20.2540 C   0  0  0  0  0  3  0  0  0  0  0  0
  -27.3090  -23.3140   19.7340 F   0  0  0  0  0  0  0  0  0  0  0  0
  -28.6780  -25.2430   19.5580 C   0  0  0  0  0  3  0  0  0  0  0  0
  -30.4550  -26.9260   18.6480 C   0  0  0  0  0  1  0  0  0  0  0  0
  -30.0980  -25.4610   18.9610 C   0  0  0  0  0  2  0  0  0  0  0  0
  -28.4030  -26.5040   20.3120 O   0  0  0  0  0  0  0  0  0  0  0  0
  -24.6270  -31.8930   23.2460 C   0  0  0  0  0  0  0  0  0  0  0  0
  -27.2640  -27.3310   20.1850 C   0  0  0  0  0  0  0  0  0  0  0  0
  -23.4240  -30.4900   21.6030 C   0  0  0  0  0  3  0  0  0  0  0  0
  -24.8820  -28.9430   20.1660 C   0  0  0  0  0  0  0  0  0  0  0  0
  -25.9580  -30.8190   21.4140 C   0  0  0  0  0  2  0  0  0  0  0  0
  -26.0460  -29.4370   20.7680 C   0  0  0  0  0  0  0  0  0  0  0  0
  -27.2310  -28.6390   20.7700 C   0  0  0  0  0  3  0  0  0  0  0  0
  -26.0760  -26.8880   19.5630 C   0  0  0  0  0  3  0  0  0  0  0  0
  -24.9020  -27.6760   19.5530 C   0  0  0  0  0  3  0  0  0  0  0  0
  -23.6430  -29.8160   20.2210 C   0  0  0  0  0  2  0  0  0  0  0  0
  -24.6890  -31.0850   22.1450 N   0  0  0  0  0  0  0  0  0  0  0  0
  -23.5460  -32.1640   23.7870 O   0  0  0  0  0  0  0  0  0  0  0  0
  -22.7660  -29.4720   22.5660 C   0  0  0  0  0  0  0  0  0  0  0  0
  -21.4390  -29.2930   22.4500 N   0  0  0  0  0  0  0  0  0  0  0  0
  -23.4490  -28.8480   23.3820 O   0  0  0  0  0  0  0  0  0  0  0  0
  -20.9440  -29.8560   21.7710 H   0  0  0  0  0  0  0  0  0  0  0  0
  -18.0690  -28.0740   22.9570 C   0  0  0  0  0  0  0  0  0  0  0  0
  -20.6260  -28.3500   23.2230 C   0  0  0  0  0  3  0  0  0  0  0  0
  -20.7340  -26.9170   22.6500 C   0  0  0  0  0  2  0  0  0  0  0  0
  -19.6340  -26.5870   21.6380 C   0  0  0  0  0  2  0  0  0  0  0  0
  -18.2520  -26.7250   22.2830 C   0  0  0  0  0  2  0  0  0  0  0  0
  -19.1840  -28.8440   23.3850 C   0  0  0  0  0  0  0  0  0  0  0  0
  -18.9570  -30.1050   23.9780 C   0  0  0  0  0  3  0  0  0  0  0  0
  -17.6490  -30.5990   24.1440 C   0  0  0  0  0  3  0  0  0  0  0  0
  -16.5490  -29.8260   23.7300 C   0  0  0  0  0  3  0  0  0  0  0  0
  -16.7600  -28.5650   23.1440 C   0  0  0  0  0  3  0  0  0  0  0  0
  -25.9100  -32.5300   23.8660 C   0  0  0  0  0  3  0  0  0  0  0  0
  -26.4250  -31.7660   25.1480 C   0  0  1  0  0  0  0  0  0  0  0  0
  -25.3340  -31.5430   26.2200 C   0  0  0  0  0  1  0  0  0  0  0  0
  -27.0010  -30.3840   24.7650 C   0  0  0  0  0  1  0  0  0  0  0  0
  -27.5830  -32.5590   25.8030 C   0  0  0  0  0  1  0  0  0  0  0  0
  -25.6040  -33.9300   24.1900 N   0  0  0  0  0  0  0  0  0  0  0  0
  -25.9370  -34.9790   23.4250 C   0  0  0  0  0  0  0  0  0  0  0  0
  -26.6050  -34.8680   22.3930 O   0  0  0  0  0  0  0  0  0  0  0  0
  -25.0180  -34.0920   24.9940 H   0  0  0  0  0  0  0  0  0  0  0  0
  -24.2190  -36.7780   23.0540 C   0  0  0  0  0  1  0  0  0  0  0  0
  -25.4540  -36.3710   23.8750 C   0  0  0  0  0  3  0  0  0  0  0  0
  -27.5890  -37.2490   24.7100 C   0  0  0  0  0  1  0  0  0  0  0  0
  -26.4900  -37.4220   23.7650 N   0  0  0  0  0  0  0  0  0  0  0  0
  -26.0870  -38.3430   23.9110 H   0  0  0  0  0  0  0  0  0  0  0  0
  2 49  1  0
  2  8  1  0
  2  1  1  0
  3  4  2  0
  4 19  1  0
  4  7  1  0
  5  8  1  0
  5  7  2  0
  6  3  1  0
  8 10  1  0
  9  3  1  0
  9  5  1  0
 11 19  1  0
 12 17  1  0
 13 14  1  0
 13 12  1  0
 15 14  1  0
 15 24  1  0
 15 16  1  0
 17 11  1  0
 17 16  1  0
 18 11  2  0
 19 20  1  0
 21 22  2  0
 22 41  1  0
 23 22  1  0
 23 26  1  0
 24 21  1  0
 24 25  1  0
 25 23  2  0
 26 27  1  0
 27 28  2  0
 29 32  1  0
 29 28  1  0
 30 29  2  0
 31 30  1  0
 31 26  2  0
 32 33  1  0
 33 34  1  0
 34 35  2  0
 36 35  1  0
 36 40  1  0
 37 36  2  0
 38 33  2  0
 38 37  1  0
 39 38  1  0
 41 42  1  0
 42 45  1  0
 42 44  1  0
 43 41  2  0
 46 47  1  0
 46 21  1  0
 48 46  1  0
 49 50  1  0
 51 53  1  0
 51 49  1  0
 51 54  1  0
 52 53  1  0
 55 66  2  0
 56 54  1  0
 56 61  1  0
 57 65  1  0
 57 67  1  0
 58 64  1  0
 58 60  1  0
 59 65  1  0
 60 61  2  0
 60 59  1  0
 62 56  2  0
 63 62  1  0
 63 58  2  0
 64 57  1  0
 65 55  1  0
 67 69  2  0
 68 67  1  0
 70 68  1  0
 71 80  2  0
 71 76  1  0
 72 68  1  0
 72 76  1  0
 73 72  1  0
 74 75  1  0
 74 73  1  0
 75 71  1  0
 76 77  2  0
 77 78  1  0
 79 78  2  0
 80 79  1  0
 81 55  1  0
 81 86  1  0
 81 82  1  0
 82 85  1  1
 82 83  1  0
 84 82  1  0
 86 89  1  0
 87 91  1  0
 87 86  1  0
 88 87  2  0
 91 90  1  0
 93 91  1  0
 93 94  1  0
 93 92  1  0
M  ISO  4  11 100  19 100  51 101  54 101
M  END
>  <TORSDO>  (67) 
F 20

>  <SCORE>  (67) 
-13.886

>  <name>  (67) 
67

>  <ligand_id>  (67) 
67

>  <original_smiles>  (67) 
[H]c1c([H])c([H])c2c(c1[H])C([H])([H])C([H])([H])C([H])([H])C2([H])N([H])C(=O)C1([H])N(C(=O)C([H])(N([H])C(=O)C([H])(N([H])C([H])([H])[H])C([H])([H])[H])C(C([H])([H])[H])(C([H])([H])[H])C([H])([H])[H])C([H])([H])c2c([H])c(OC([H])(C([H])([H])C([H])([H])[H])C([H])(F)C([H])(N([H])c3nc(N([H])C(=O)N4C([H])([H])C([H])([H])C([H])([H])C([H])(n5nc(-c6c([H])c([H])c(Oc7c([H])c([H])c(F)c([H])c7F)c([H])c6[H])c(C(=O)N([H])[H])c5N([H])[H])C4([H])[H])c(C([H])([H])[H])s3)C([H])([H])[H])c([H])c([H])c2C1([H])[H]

>  <smiles>  (67) 
[H]c1c([H])c([H])c2c(c1[H])C([H])([H])C([H])([H])C([H])([H])C2([H])N([H])C(=O)C1([H])N(C(=O)C([H])(N([H])C(=O)C([H])(N([H])C([H])([H])[H])C([H])([H])[H])C(C([H])([H])[H])(C([H])([H])[H])C([H])([H])[H])C([H])([H])c2c([H])c(OC([H])(C([H])([H])C([H])([H])[H])C([H])(F)C([H])(N([H])c3nc(N([H])C(=O)N4C([H])([H])C([H])([H])C([H])([H])C([H])(n5nc(-c6c([H])c([H])c(Oc7c([H])c([H])c(F)c([H])c7F)c([H])c6[H])c(C(=O)N([H])[H])c5N([H])[H])C4([H])[H])c(C([H])([H])[H])s3)C([H])([H])[H])c([H])c([H])c2C1([H])[H]

$$$$
68:0:0
     RDKit          3D

 95104  0  0  1  0  0  0  0  0999 V2000
  -30.7130  -19.0970   20.1780 C   0  0  0  0  0  3  0  0  0  0  0  0
  -29.5590  -18.4580   19.7600 C   0  0  0  0  0  0  0  0  0  0  0  0
  -29.4620  -21.0720   20.0150 C   0  0  0  0  0  0  0  0  0  0  0  0
  -30.6410  -20.5150   20.3340 N   0  0  0  0  0  0  0  0  0  0  0  0
  -29.1080  -22.4380   20.3360 N   0  0  0  0  0  0  0  0  0  0  0  0
  -28.3550  -19.7630   19.4500 S   0  0  0  0  0  0  0  0  0  0  0  0
  -29.4320  -22.6020   21.2840 H   0  0  0  0  0  0  0  0  0  0  0  0
  -28.0520  -23.7250   18.4800 C   0  0  0  0  0  1  0  0  0  0  0  0
  -29.0080  -23.8060   19.6840 C   0  0  0  0  0  3  0  0  0  0  0  0
  -29.5160  -25.0600   21.8990 C   0  0  0  0  0  1  0  0  0  0  0  0
  -28.6130  -25.0610   20.6530 C   0  0  0  0  0  3  0  0  0  0  0  0
  -28.7100  -26.4910   20.2150 O   0  0  0  0  0  0  0  0  0  0  0  0
  -24.6790  -31.7790   23.1980 C   0  0  0  0  0  0  0  0  0  0  0  0
  -27.5660  -27.3110   20.2260 C   0  0  0  0  0  0  0  0  0  0  0  0
  -23.5950  -30.3550   21.4980 C   0  0  0  0  0  3  0  0  0  0  0  0
  -25.1560  -28.8560   20.1390 C   0  0  0  0  0  0  0  0  0  0  0  0
  -26.1340  -30.7470   21.4320 C   0  0  0  0  0  2  0  0  0  0  0  0
  -26.2870  -29.3750   20.7840 C   0  0  0  0  0  0  0  0  0  0  0  0
  -27.4990  -28.6190   20.8120 C   0  0  0  0  0  3  0  0  0  0  0  0
  -26.4080  -26.8430   19.5710 C   0  0  0  0  0  3  0  0  0  0  0  0
  -25.2170  -27.5950   19.5280 C   0  0  0  0  0  3  0  0  0  0  0  0
  -23.8960  -29.6990   20.1270 C   0  0  0  0  0  2  0  0  0  0  0  0
  -24.8190  -30.9810   22.0990 N   0  0  0  0  0  0  0  0  0  0  0  0
  -23.5640  -32.0190   23.6860 O   0  0  0  0  0  0  0  0  0  0  0  0
  -22.9260  -29.3100   22.4260 C   0  0  0  0  0  0  0  0  0  0  0  0
  -21.6090  -29.1040   22.2580 N   0  0  0  0  0  0  0  0  0  0  0  0
  -23.5930  -28.6920   23.2600 O   0  0  0  0  0  0  0  0  0  0  0  0
  -21.1280  -29.6540   21.5600 H   0  0  0  0  0  0  0  0  0  0  0  0
  -18.2410  -27.8460   22.6580 C   0  0  0  0  0  0  0  0  0  0  0  0
  -20.7900  -28.1350   22.9890 C   0  0  0  0  0  3  0  0  0  0  0  0
  -20.9240  -26.7190   22.3820 C   0  0  0  0  0  2  0  0  0  0  0  0
  -19.8470  -26.4050   21.3380 C   0  0  0  0  0  2  0  0  0  0  0  0
  -18.4510  -26.5150   21.9570 C   0  0  0  0  0  2  0  0  0  0  0  0
  -19.3390  -28.6130   23.1300 C   0  0  0  0  0  0  0  0  0  0  0  0
  -19.0870  -29.8580   23.7460 C   0  0  0  0  0  3  0  0  0  0  0  0
  -17.7710  -30.3320   23.9030 C   0  0  0  0  0  3  0  0  0  0  0  0
  -16.6870  -29.5590   23.4520 C   0  0  0  0  0  3  0  0  0  0  0  0
  -16.9230  -28.3210   22.8300 C   0  0  0  0  0  3  0  0  0  0  0  0
  -25.9130  -32.4500   23.8790 C   0  0  0  0  0  3  0  0  0  0  0  0
  -25.5490  -33.8400   24.1900 N   0  0  0  0  0  0  0  0  0  0  0  0
  -25.8690  -34.8960   23.4330 C   0  0  0  0  0  0  0  0  0  0  0  0
  -26.5750  -34.8060   22.4240 O   0  0  0  0  0  0  0  0  0  0  0  0
  -24.9440  -33.9870   24.9840 H   0  0  0  0  0  0  0  0  0  0  0  0
  -24.0910  -36.6300   23.0180 C   0  0  0  0  0  1  0  0  0  0  0  0
  -25.3220  -36.2710   23.8660 C   0  0  0  0  0  3  0  0  0  0  0  0
  -27.3990  -37.2330   24.7560 C   0  0  0  0  0  1  0  0  0  0  0  0
  -26.3210  -37.3590   23.7780 N   0  0  0  0  0  0  0  0  0  0  0  0
  -25.8770  -38.2620   23.9080 H   0  0  0  0  0  0  0  0  0  0  0  0
  -26.3840  -31.6980   25.1850 C   0  0  1  0  0  0  0  0  0  0  0  0
  -25.2390  -31.4250   26.1890 C   0  0  0  0  0  1  0  0  0  0  0  0
  -27.0350  -30.3380   24.8360 C   0  0  0  0  0  1  0  0  0  0  0  0
  -27.4680  -32.5320   25.9090 C   0  0  0  0  0  1  0  0  0  0  0  0
  -29.2250  -16.8990   19.7350 C   0  0  0  0  0  3  0  0  0  0  0  0
  -30.7700  -14.6840   19.1140 C   0  0  0  0  0  0  0  0  0  0  0  0
  -30.3810  -12.3390   18.3670 C   0  0  0  0  0  2  0  0  0  0  0  0
  -29.3410  -12.2530   17.2350 C   0  0  0  0  0  2  0  0  0  0  0  0
  -27.9290  -12.1010   17.8250 C   0  0  0  0  0  2  0  0  0  0  0  0
  -27.6520  -13.1130   18.9670 C   0  0  0  0  0  3  0  0  0  0  0  0
  -28.8220  -13.2230   19.9680 C   0  0  0  0  0  2  0  0  0  0  0  0
  -30.0360  -13.5170   19.2080 N   0  0  0  0  0  0  0  0  0  0  0  0
  -31.8910  -14.6240   18.6090 O   0  0  0  0  0  0  0  0  0  0  0  0
  -30.3950  -15.9780   19.4390 N   0  0  0  0  0  0  0  0  0  0  0  0
  -31.2210  -16.5390   19.3060 H   0  0  0  0  0  0  0  0  0  0  0  0
  -25.3950  -13.7410   19.9950 C   0  0  0  0  0  0  0  0  0  0  0  0
  -24.3750  -12.9900   20.5080 C   0  0  0  0  0  0  0  0  0  0  0  0
  -24.7970  -11.6270   20.4070 C   0  0  0  0  0  0  0  0  0  0  0  0
  -26.3830  -12.8410   19.6320 N   0  0  0  0  0  0  0  0  0  0  0  0
  -26.0360  -11.5640   19.9340 N   0  0  0  0  0  0  0  0  0  0  0  0
  -24.0600  -10.3820   20.6720 C   0  0  0  0  0  0  0  0  0  0  0  0
  -24.5530   -9.4020   21.5620 C   0  0  0  0  0  3  0  0  0  0  0  0
  -23.8150   -8.2250   21.8130 C   0  0  0  0  0  3  0  0  0  0  0  0
  -22.5680   -8.0220   21.1740 C   0  0  0  0  0  0  0  0  0  0  0  0
  -22.0930   -8.9870   20.2700 C   0  0  0  0  0  3  0  0  0  0  0  0
  -22.8320  -10.1550   20.0180 C   0  0  0  0  0  3  0  0  0  0  0  0
  -21.7900   -6.9020   21.3420 O   0  0  0  0  0  0  0  0  0  0  0  0
  -21.7760   -6.2060   22.5240 C   0  0  0  0  0  0  0  0  0  0  0  0
  -21.4270   -6.8210   23.7460 C   0  0  0  0  0  3  0  0  0  0  0  0
  -21.3590   -6.0530   24.9270 C   0  0  0  0  0  3  0  0  0  0  0  0
  -21.6320   -4.6720   24.8860 C   0  0  0  0  0  0  0  0  0  0  0  0
  -21.9750   -4.0580   23.6700 C   0  0  0  0  0  3  0  0  0  0  0  0
  -22.0450   -4.8230   22.4920 C   0  0  0  0  0  0  0  0  0  0  0  0
  -22.3540   -4.2220   21.3180 F   0  0  0  0  0  0  0  0  0  0  0  0
  -21.5590   -3.9340   26.0190 F   0  0  0  0  0  0  0  0  0  0  0  0
  -23.0410  -13.5030   20.9660 C   0  0  0  0  0  0  0  0  0  0  0  0
  -22.4240  -12.8230   21.9260 N   0  0  0  0  0  0  0  0  0  0  0  0
  -22.5560  -14.5370   20.5080 O   0  0  0  0  0  0  0  0  0  0  0  0
  -22.8360  -11.9900   22.3200 H   0  0  0  0  0  0  0  0  0  0  0  0
  -21.5300  -13.1370   22.2720 H   0  0  0  0  0  0  0  0  0  0  0  0
  -25.5540  -15.1060   19.7790 N   0  0  0  0  0  4  0  0  0  0  0  0
  -24.8080  -15.7670   19.9620 H   0  0  0  0  0  0  0  0  0  0  0  0
  -26.3540  -15.5240   19.3250 H   0  0  0  0  0  0  0  0  0  0  0  0
  -29.3280  -15.5080   22.0210 C   0  0  0  0  0  1  0  0  0  0  0  0
  -28.6150  -16.5670   21.1490 C   0  0  0  0  0  3  0  0  0  0  0  0
  -26.5150  -15.0060   21.1610 C   0  0  0  0  0  2  0  0  0  0  0  0
  -27.0700  -16.4380   21.1700 C   0  0  0  0  0  2  0  0  0  0  0  0
  1  4  1  0
  2  1  2  0
  3  4  2  0
  3  5  1  0
  5  7  1  0
  6  2  1  0
  6  3  1  0
  9  8  1  0
  9  5  1  0
  9 11  1  0
 11 10  1  0
 12 14  1  0
 12 11  1  0
 13 24  2  0
 14 19  1  0
 15 23  1  0
 15 25  1  0
 16 18  1  0
 17 23  1  0
 18 19  2  0
 18 17  1  0
 20 14  2  0
 21 20  1  0
 21 16  2  0
 22 16  1  0
 22 15  1  0
 23 13  1  0
 25 27  2  0
 26 25  1  0
 28 26  1  0
 29 38  2  0
 29 34  1  0
 30 26  1  0
 30 34  1  0
 31 30  1  0
 32 33  1  0
 32 31  1  0
 33 29  1  0
 34 35  2  0
 35 36  1  0
 37 36  2  0
 38 37  1  0
 39 13  1  0
 39 40  1  0
 39 49  1  0
 40 43  1  0
 41 45  1  0
 41 40  1  0
 42 41  2  0
 45 44  1  0
 47 45  1  0
 47 48  1  0
 47 46  1  0
 49 52  1  1
 49 50  1  0
 51 49  1  0
 53  2  1  0
 53 93  1  0
 54 60  1  0
 54 62  1  0
 55 60  1  0
 56 57  1  0
 56 55  1  0
 58 57  1  0
 58 67  1  0
 58 59  1  0
 60 59  1  0
 61 54  2  0
 62 53  1  0
 63 62  1  0
 64 65  2  0
 65 84  1  0
 66 65  1  0
 66 69  1  0
 67 68  1  0
 67 64  1  0
 68 66  2  0
 69 70  1  0
 70 71  2  0
 72 75  1  0
 72 71  1  0
 73 72  2  0
 74 73  1  0
 74 69  2  0
 75 76  1  0
 76 77  1  0
 77 78  2  0
 79 78  1  0
 79 83  1  0
 80 79  2  0
 81 76  2  0
 81 80  1  0
 82 81  1  0
 84 85  1  0
 85 88  1  0
 85 87  1  0
 86 84  2  0
 89 90  1  0
 89 64  1  0
 89 94  1  0
 91 89  1  0
 93 95  1  0
 93 92  1  0
 94 95  1  0
M  ISO  4  11 101  12 101  54 100  62 100
M  END
>  <TORSDO>  (68) 
F 21

>  <SCORE>  (68) 
-9.612

>  <name>  (68) 
68

>  <ligand_id>  (68) 
68

>  <original_smiles>  (68) 
[H]c1nc(N([H])C([H])(C([H])([H])[H])C([H])(Oc2c([H])c([H])c3c(c2[H])C([H])([H])N(C(=O)C([H])(N([H])C(=O)C([H])(N([H])C([H])([H])[H])C([H])([H])[H])C(C([H])([H])[H])(C([H])([H])[H])C([H])([H])[H])C([H])(C(=O)N([H])C2([H])c4c([H])c([H])c([H])c([H])c4C([H])([H])C([H])([H])C2([H])[H])C3([H])[H])C([H])([H])[H])sc1C([H])(N([H])C(=O)N1C([H])([H])C([H])([H])C([H])([H])C([H])(n2nc(-c3c([H])c([H])c(Oc4c([H])c([H])c(F)c([H])c4F)c([H])c3[H])c(C(=O)N([H])[H])c2N([H])[H])C1([H])[H])C([H])(C([H])([H])[H])C([H])([H])C([H])([H])[H]

>  <smiles>  (68) 
[H]c1nc(N([H])C([H])(C([H])([H])[H])C([H])(Oc2c([H])c([H])c3c(c2[H])C([H])([H])N(C(=O)C([H])(N([H])C(=O)C([H])(N([H])C([H])([H])[H])C([H])([H])[H])C(C([H])([H])[H])(C([H])([H])[H])C([H])([H])[H])C([H])(C(=O)N([H])C2([H])c4c([H])c([H])c([H])c([H])c4C([H])([H])C([H])([H])C2([H])[H])C3([H])[H])C([H])([H])[H])sc1C([H])(N([H])C(=O)N1C([H])([H])C([H])([H])C([H])([H])C([H])(n2nc(-c3c([H])c([H])c(Oc4c([H])c([H])c(F)c([H])c4F)c([H])c3[H])c(C(=O)N([H])[H])c2N([H])[H])C1([H])[H])C([H])(C([H])([H])[H])C([H])([H])C([H])([H])[H]

$$$$
69:0:0
     RDKit          3D

 99107  0  0  1  0  0  0  0  0999 V2000
  -29.2010  -21.3220   19.9000 C   0  0  0  0  0  0  0  0  0  0  0  0
  -29.4520  -20.2050   19.1360 N   0  0  0  0  0  0  0  0  0  0  0  0
  -29.3550  -21.2510   21.1200 O   0  0  0  0  0  0  0  0  0  0  0  0
  -29.3520  -20.3040   18.1360 H   0  0  0  0  0  0  0  0  0  0  0  0
  -28.7210  -22.7020   19.2670 C   0  0  0  0  0  2  0  0  0  0  0  0
  -30.0800  -24.2700   20.8000 C   0  0  0  0  0  1  0  0  0  0  0  0
  -27.6010  -24.0420   21.2020 C   0  0  0  0  0  1  0  0  0  0  0  0
  -28.7040  -24.0810   20.1230 C   0  0  2  0  0  0  0  0  0  0  0  0
  -28.4310  -25.4010   19.2570 C   0  0  0  0  0  2  0  0  0  0  0  0
  -28.3210  -26.7090   19.9490 O   0  0  0  0  0  0  0  0  0  0  0  0
  -24.7340  -31.9230   23.3960 C   0  0  0  0  0  0  0  0  0  0  0  0
  -27.1510  -27.4870   20.0080 C   0  0  0  0  0  0  0  0  0  0  0  0
  -23.4220  -30.5680   21.8020 C   0  0  0  0  0  3  0  0  0  0  0  0
  -24.7720  -29.0700   20.2280 C   0  0  0  0  0  0  0  0  0  0  0  0
  -25.9390  -30.9080   21.4500 C   0  0  0  0  0  2  0  0  0  0  0  0
  -25.9760  -29.5520   20.7550 C   0  0  0  0  0  0  0  0  0  0  0  0
  -27.1620  -28.7720   20.6350 C   0  0  0  0  0  3  0  0  0  0  0  0
  -25.9150  -27.0470   19.4820 C   0  0  0  0  0  3  0  0  0  0  0  0
  -24.7430  -27.8220   19.5870 C   0  0  0  0  0  3  0  0  0  0  0  0
  -23.5370  -29.9320   20.3910 C   0  0  0  0  0  2  0  0  0  0  0  0
  -24.7200  -31.1500   22.2710 N   0  0  0  0  0  0  0  0  0  0  0  0
  -23.6910  -32.1800   24.0140 O   0  0  0  0  0  0  0  0  0  0  0  0
  -22.8310  -29.5200   22.7740 C   0  0  0  0  0  0  0  0  0  0  0  0
  -21.5340  -29.2100   22.6080 N   0  0  0  0  0  0  0  0  0  0  0  0
  -23.5370  -28.9890   23.6330 O   0  0  0  0  0  0  0  0  0  0  0  0
  -21.0210  -29.6960   21.8860 H   0  0  0  0  0  0  0  0  0  0  0  0
  -18.3150  -27.5900   22.9290 C   0  0  0  0  0  0  0  0  0  0  0  0
  -20.7820  -28.2200   23.3800 C   0  0  0  0  0  3  0  0  0  0  0  0
  -21.1250  -26.7820   22.9240 C   0  0  0  0  0  2  0  0  0  0  0  0
  -20.1700  -26.2440   21.8540 C   0  0  0  0  0  2  0  0  0  0  0  0
  -18.7290  -26.2370   22.3730 C   0  0  0  0  0  2  0  0  0  0  0  0
  -19.2800  -28.5270   23.3850 C   0  0  0  0  0  0  0  0  0  0  0  0
  -18.8420  -29.7830   23.8580 C   0  0  0  0  0  3  0  0  0  0  0  0
  -17.4730  -30.1050   23.8840 C   0  0  0  0  0  3  0  0  0  0  0  0
  -16.5210  -29.1680   23.4480 C   0  0  0  0  0  3  0  0  0  0  0  0
  -16.9430  -27.9130   22.9700 C   0  0  0  0  0  3  0  0  0  0  0  0
  -26.0560  -32.5410   23.9480 C   0  0  0  0  0  3  0  0  0  0  0  0
  -25.7660  -33.9230   24.3510 N   0  0  0  0  0  0  0  0  0  0  0  0
  -26.0270  -35.0070   23.6070 C   0  0  0  0  0  0  0  0  0  0  0  0
  -26.6090  -34.9460   22.5200 O   0  0  0  0  0  0  0  0  0  0  0  0
  -25.2410  -34.0440   25.2050 H   0  0  0  0  0  0  0  0  0  0  0  0
  -24.2590  -36.7890   23.4770 C   0  0  0  0  0  1  0  0  0  0  0  0
  -25.5720  -36.3720   24.1550 C   0  0  0  0  0  3  0  0  0  0  0  0
  -27.7690  -37.2510   24.8100 C   0  0  0  0  0  1  0  0  0  0  0  0
  -26.5800  -37.4410   23.9830 N   0  0  0  0  0  0  0  0  0  0  0  0
  -26.1830  -38.3500   24.2060 H   0  0  0  0  0  0  0  0  0  0  0  0
  -26.6650  -31.7280   25.1570 C   0  0  1  0  0  0  0  0  0  0  0  0
  -25.6300  -31.3640   26.2470 C   0  0  0  0  0  1  0  0  0  0  0  0
  -27.3080  -30.4120   24.6630 C   0  0  0  0  0  1  0  0  0  0  0  0
  -27.7960  -32.5470   25.8220 C   0  0  0  0  0  1  0  0  0  0  0  0
  -30.0420  -18.8920   19.6230 C   0  0  0  0  0  3  0  0  0  0  0  0
  -31.5800  -19.0630   19.6140 C   0  0  0  0  0  0  0  0  0  0  0  0
  -32.1180  -19.8060   20.5730 N   0  0  0  0  0  0  0  0  0  0  0  0
  -32.2870  -18.5840   18.7280 O   0  0  0  0  0  0  0  0  0  0  0  0
  -31.4960  -20.2660   21.2300 H   0  0  0  0  0  0  0  0  0  0  0  0
  -33.1140  -19.9690   20.6130 H   0  0  0  0  0  0  0  0  0  0  0  0
  -29.6420  -17.5590   18.8050 C   0  0  0  0  0  2  0  0  0  0  0  0
  -29.6750  -16.1130   19.5320 C   0  0  0  0  0  3  0  0  0  0  0  0
  -30.2690  -14.8550   18.7490 C   0  0  0  0  0  0  0  0  0  0  0  0
  -29.9000  -12.5890   17.7680 C   0  0  0  0  0  2  0  0  0  0  0  0
  -28.6680  -12.6440   16.8390 C   0  0  0  0  0  2  0  0  0  0  0  0
  -27.3690  -12.4160   17.6370 C   0  0  0  0  0  2  0  0  0  0  0  0
  -27.3000  -13.2840   18.9200 C   0  0  0  0  0  3  0  0  0  0  0  0
  -28.6170  -13.1990   19.7240 C   0  0  0  0  0  2  0  0  0  0  0  0
  -29.7100  -13.6020   18.8280 N   0  0  0  0  0  0  0  0  0  0  0  0
  -31.2360  -15.0450   18.0040 O   0  0  0  0  0  0  0  0  0  0  0  0
  -25.2490  -13.7930   20.3820 C   0  0  0  0  0  0  0  0  0  0  0  0
  -24.2940  -12.9840   20.9360 C   0  0  0  0  0  0  0  0  0  0  0  0
  -24.6570  -11.6470   20.5850 C   0  0  0  0  0  0  0  0  0  0  0  0
  -26.1350  -12.9470   19.7350 N   0  0  0  0  0  0  0  0  0  0  0  0
  -25.8000  -11.6420   19.9100 N   0  0  0  0  0  0  0  0  0  0  0  0
  -23.9520  -10.3770   20.8030 C   0  0  0  0  0  0  0  0  0  0  0  0
  -24.4790   -9.3740   21.6460 C   0  0  0  0  0  3  0  0  0  0  0  0
  -23.7740   -8.1690   21.8550 C   0  0  0  0  0  3  0  0  0  0  0  0
  -22.5260   -7.9590   21.2190 C   0  0  0  0  0  0  0  0  0  0  0  0
  -22.0180   -8.9510   20.3620 C   0  0  0  0  0  3  0  0  0  0  0  0
  -22.7240  -10.1470   20.1520 C   0  0  0  0  0  3  0  0  0  0  0  0
  -21.7840   -6.8100   21.3430 O   0  0  0  0  0  0  0  0  0  0  0  0
  -21.7000   -6.1300   22.5320 C   0  0  0  0  0  0  0  0  0  0  0  0
  -21.2220   -6.7450   23.7090 C   0  0  0  0  0  3  0  0  0  0  0  0
  -21.0870   -5.9910   24.8920 C   0  0  0  0  0  3  0  0  0  0  0  0
  -21.4210   -4.6230   24.8980 C   0  0  0  0  0  0  0  0  0  0  0  0
  -21.8950   -4.0080   23.7260 C   0  0  0  0  0  3  0  0  0  0  0  0
  -22.0310   -4.7600   22.5450 C   0  0  0  0  0  0  0  0  0  0  0  0
  -22.4650   -4.1570   21.4120 F   0  0  0  0  0  0  0  0  0  0  0  0
  -21.2860   -3.8970   26.0330 F   0  0  0  0  0  0  0  0  0  0  0  0
  -23.0620  -13.4270   21.6700 C   0  0  0  0  0  0  0  0  0  0  0  0
  -22.6210  -12.6490   22.6540 N   0  0  0  0  0  0  0  0  0  0  0  0
  -22.5080  -14.4940   21.4070 O   0  0  0  0  0  0  0  0  0  0  0  0
  -23.0880  -11.7840   22.8820 H   0  0  0  0  0  0  0  0  0  0  0  0
  -21.8070  -12.9230   23.1840 H   0  0  0  0  0  0  0  0  0  0  0  0
  -25.4260  -15.1730   20.3550 N   0  0  0  0  0  0  0  0  0  0  0  0
  -24.7610  -15.8150   20.7740 H   0  0  0  0  0  0  0  0  0  0  0  0
  -26.1630  -15.6450   19.8470 H   0  0  0  0  0  0  0  0  0  0  0  0
  -31.5590  -15.6850   22.8070 C   0  0  0  0  0  3  0  0  0  0  0  0
  -31.2360  -15.3480   21.4610 C   0  0  0  0  0  3  0  0  0  0  0  0
  -30.8080  -16.7250   23.2870 C   0  0  0  0  0  3  0  0  0  0  0  0
  -30.2490  -16.1420   20.9230 C   0  0  0  0  0  0  0  0  0  0  0  0
  -29.6820  -17.3090   22.0930 S   0  0  0  0  0  0  0  0  0  0  0  0
  1  3  2  0
  2 51  1  0
  2  1  1  0
  4  2  1  0
  5  1  1  0
  5  8  1  0
  8  6  1  1
  8  7  1  0
  9 10  1  0
  9  8  1  0
 10 12  1  0
 11 22  2  0
 12 17  1  0
 13 21  1  0
 13 23  1  0
 14 20  1  0
 14 16  1  0
 15 21  1  0
 16 15  1  0
 17 16  2  0
 18 19  1  0
 18 12  2  0
 19 14  2  0
 20 13  1  0
 21 11  1  0
 23 25  2  0
 24 23  1  0
 26 24  1  0
 27 36  2  0
 27 32  1  0
 28 24  1  0
 28 32  1  0
 29 28  1  0
 30 31  1  0
 30 29  1  0
 31 27  1  0
 32 33  2  0
 33 34  1  0
 35 34  2  0
 36 35  1  0
 37 11  1  0
 37 38  1  0
 37 47  1  0
 38 41  1  0
 39 43  1  0
 39 38  1  0
 40 39  2  0
 43 42  1  0
 45 43  1  0
 45 46  1  0
 45 44  1  0
 47 50  1  1
 47 48  1  0
 49 47  1  0
 51 57  1  0
 52 51  1  0
 52 53  1  0
 53 56  1  0
 53 55  1  0
 54 52  2  0
 58 57  1  0
 58 98  1  0
 59 65  1  0
 59 58  1  0
 60 65  1  0
 61 62  1  0
 61 60  1  0
 63 62  1  0
 63 64  1  0
 63 70  1  0
 65 64  1  0
 66 59  2  0
 67 68  2  0
 68 87  1  0
 69 72  1  0
 69 68  1  0
 70 71  1  0
 70 67  1  0
 71 69  2  0
 72 73  1  0
 73 74  2  0
 75 78  1  0
 75 74  1  0
 76 75  2  0
 77 76  1  0
 77 72  2  0
 78 79  1  0
 79 84  2  0
 79 80  1  0
 80 81  2  0
 81 82  1  0
 82 86  1  0
 83 82  2  0
 84 83  1  0
 85 84  1  0
 87 88  1  0
 88 90  1  0
 88 91  1  0
 89 87  2  0
 92 67  1  0
 92 93  1  0
 94 92  1  0
 95 97  2  0
 96 95  1  0
 98 96  2  0
 98 99  1  0
 99 97  1  0
M  ISO  4   9 101  10 101  58 100  59 100
M  END
>  <TORSDO>  (69) 
F 24

>  <SCORE>  (69) 
-6.634

>  <name>  (69) 
69

>  <ligand_id>  (69) 
69

>  <original_smiles>  (69) 
[H]c1sc(C([H])(C(=O)N2C([H])([H])C([H])([H])C([H])([H])C([H])(n3nc(-c4c([H])c([H])c(Oc5c([H])c([H])c(F)c([H])c5F)c([H])c4[H])c(C(=O)N([H])[H])c3N([H])[H])C2([H])[H])C([H])([H])C([H])(C(=O)N([H])[H])N([H])C(=O)C([H])([H])C(C([H])([H])[H])(C([H])([H])[H])C([H])([H])Oc2c([H])c([H])c3c(c2[H])C([H])([H])N(C(=O)C([H])(N([H])C(=O)C([H])(N([H])C([H])([H])[H])C([H])([H])[H])C(C([H])([H])[H])(C([H])([H])[H])C([H])([H])[H])C([H])(C(=O)N([H])C2([H])c4c([H])c([H])c([H])c([H])c4C([H])([H])C([H])([H])C2([H])[H])C3([H])[H])c([H])c1[H]

>  <smiles>  (69) 
[H]c1sc(C([H])(C(=O)N2C([H])([H])C([H])([H])C([H])([H])C([H])(n3nc(-c4c([H])c([H])c(Oc5c([H])c([H])c(F)c([H])c5F)c([H])c4[H])c(C(=O)N([H])[H])c3N([H])[H])C2([H])[H])C([H])([H])C([H])(C(=O)N([H])[H])N([H])C(=O)C([H])([H])C(C([H])([H])[H])(C([H])([H])[H])C([H])([H])Oc2c([H])c([H])c3c(c2[H])C([H])([H])N(C(=O)C([H])(N([H])C(=O)C([H])(N([H])C([H])([H])[H])C([H])([H])[H])C(C([H])([H])[H])(C([H])([H])[H])C([H])([H])[H])C([H])(C(=O)N([H])C2([H])c4c([H])c([H])c([H])c([H])c4C([H])([H])C([H])([H])C2([H])[H])C3([H])[H])c([H])c1[H]

$$$$
70:0:0
     RDKit          3D

 94102  0  0  1  0  0  0  0  0999 V2000
  -28.6470  -23.1960   18.9740 C   0  0  0  0  0  0  0  0  0  0  0  0
  -29.7440  -22.4370   19.1030 N   0  0  0  0  0  0  0  0  0  0  0  0
  -27.5270  -22.7160   18.7950 O   0  0  0  0  0  0  0  0  0  0  0  0
  -30.6240  -22.9120   19.2610 H   0  0  0  0  0  0  0  0  0  0  0  0
  -28.8410  -24.7150   18.9950 C   0  0  0  0  0  2  0  0  0  0  0  0
  -29.3140  -25.0920   21.4920 C   0  0  0  0  0  1  0  0  0  0  0  0
  -28.3840  -25.3850   20.3050 C   0  0  0  0  0  3  0  0  0  0  0  0
  -28.4090  -26.8020   20.1210 O   0  0  0  0  0  0  0  0  0  0  0  0
  -24.5840  -31.8940   23.2280 C   0  0  0  0  0  0  0  0  0  0  0  0
  -27.2110  -27.4780   20.1240 C   0  0  0  0  0  0  0  0  0  0  0  0
  -23.3620  -30.4910   21.5950 C   0  0  0  0  0  3  0  0  0  0  0  0
  -24.8050  -28.9570   20.1570 C   0  0  0  0  0  0  0  0  0  0  0  0
  -25.8820  -30.8620   21.3700 C   0  0  0  0  0  2  0  0  0  0  0  0
  -25.9640  -29.4930   20.7300 C   0  0  0  0  0  0  0  0  0  0  0  0
  -27.1700  -28.7610   20.7070 C   0  0  0  0  0  3  0  0  0  0  0  0
  -26.0350  -26.9500   19.5410 C   0  0  0  0  0  3  0  0  0  0  0  0
  -24.8330  -27.6840   19.5610 C   0  0  0  0  0  3  0  0  0  0  0  0
  -23.5580  -29.8100   20.2130 C   0  0  0  0  0  2  0  0  0  0  0  0
  -24.6290  -31.0970   22.1230 N   0  0  0  0  0  0  0  0  0  0  0  0
  -23.5080  -32.1640   23.7790 O   0  0  0  0  0  0  0  0  0  0  0  0
  -22.7240  -29.4690   22.5600 C   0  0  0  0  0  0  0  0  0  0  0  0
  -21.3990  -29.2840   22.4430 N   0  0  0  0  0  0  0  0  0  0  0  0
  -23.4150  -28.8440   23.3700 O   0  0  0  0  0  0  0  0  0  0  0  0
  -20.9020  -29.8400   21.7610 H   0  0  0  0  0  0  0  0  0  0  0  0
  -18.0310  -28.0850   22.9600 C   0  0  0  0  0  0  0  0  0  0  0  0
  -20.5890  -28.3450   23.2190 C   0  0  0  0  0  3  0  0  0  0  0  0
  -20.6910  -26.9140   22.6420 C   0  0  0  0  0  2  0  0  0  0  0  0
  -19.5840  -26.5910   21.6340 C   0  0  0  0  0  2  0  0  0  0  0  0
  -18.2060  -26.7350   22.2860 C   0  0  0  0  0  2  0  0  0  0  0  0
  -19.1510  -28.8480   23.3840 C   0  0  0  0  0  0  0  0  0  0  0  0
  -18.9350  -30.1130   23.9730 C   0  0  0  0  0  3  0  0  0  0  0  0
  -17.6310  -30.6140   24.1440 C   0  0  0  0  0  3  0  0  0  0  0  0
  -16.5250  -29.8480   23.7370 C   0  0  0  0  0  3  0  0  0  0  0  0
  -16.7260  -28.5850   23.1510 C   0  0  0  0  0  3  0  0  0  0  0  0
  -25.8770  -32.5240   23.8350 C   0  0  0  0  0  3  0  0  0  0  0  0
  -26.4070  -31.7520   25.1040 C   0  0  1  0  0  0  0  0  0  0  0  0
  -25.3270  -31.5140   26.1840 C   0  0  0  0  0  1  0  0  0  0  0  0
  -26.9850  -30.3740   24.7020 C   0  0  0  0  0  1  0  0  0  0  0  0
  -27.5670  -32.5450   25.7540 C   0  0  0  0  0  1  0  0  0  0  0  0
  -25.5730  -33.9220   24.1660 N   0  0  0  0  0  0  0  0  0  0  0  0
  -25.9080  -34.9720   23.4050 C   0  0  0  0  0  0  0  0  0  0  0  0
  -26.5770  -34.8660   22.3730 O   0  0  0  0  0  0  0  0  0  0  0  0
  -24.9790  -34.0790   24.9660 H   0  0  0  0  0  0  0  0  0  0  0  0
  -24.1900  -36.7710   23.0410 C   0  0  0  0  0  1  0  0  0  0  0  0
  -25.4230  -36.3620   23.8590 C   0  0  0  0  0  3  0  0  0  0  0  0
  -27.5580  -37.2350   24.7020 C   0  0  0  0  0  1  0  0  0  0  0  0
  -26.4620  -37.4110   23.7540 N   0  0  0  0  0  0  0  0  0  0  0  0
  -26.0590  -38.3320   23.9010 H   0  0  0  0  0  0  0  0  0  0  0  0
  -29.8140  -20.9980   18.8610 C   0  0  0  0  0  2  0  0  0  0  0  0
  -29.2050  -20.1380   19.9940 C   0  0  0  0  0  2  0  0  0  0  0  0
  -30.6660  -14.4530   20.6000 C   0  0  0  0  0  0  0  0  0  0  0  0
  -30.3870  -12.2930   19.4760 C   0  0  0  0  0  2  0  0  0  0  0  0
  -29.4740  -12.5170   18.2510 C   0  0  0  0  0  2  0  0  0  0  0  0
  -27.9880  -12.4010   18.6460 C   0  0  0  0  0  2  0  0  0  0  0  0
  -27.6310  -13.2340   19.9060 C   0  0  0  0  0  3  0  0  0  0  0  0
  -28.6590  -12.9960   21.0360 C   0  0  0  0  0  2  0  0  0  0  0  0
  -30.0040  -13.2720   20.5030 N   0  0  0  0  0  0  0  0  0  0  0  0
  -31.8060  -14.6330   20.1580 O   0  0  0  0  0  0  0  0  0  0  0  0
  -29.6070  -16.6690   18.8680 C   0  0  0  0  0  3  0  0  0  0  0  0
  -29.7440  -16.6660   20.2880 C   0  0  0  0  0  0  0  0  0  0  0  0
  -29.3880  -17.9840   18.6070 C   0  0  0  0  0  0  0  0  0  0  0  0
  -29.5880  -17.8690   20.8410 N   0  0  0  0  0  0  0  0  0  0  0  0
  -29.4090  -18.7090   19.7820 N   0  0  0  0  0  0  0  0  0  0  0  0
  -29.9290  -15.4830   21.0420 N   0  0  0  0  0  0  0  0  0  0  0  0
  -29.1800  -18.5020   17.3730 F   0  0  0  0  0  0  0  0  0  0  0  0
  -29.1540  -15.2340   21.6370 H   0  0  0  0  0  0  0  0  0  0  0  0
  -25.2160  -13.8540   20.5480 C   0  0  0  0  0  0  0  0  0  0  0  0
  -24.1380  -13.0860   20.9010 C   0  0  0  0  0  0  0  0  0  0  0  0
  -24.5980  -11.7330   20.8930 C   0  0  0  0  0  0  0  0  0  0  0  0
  -26.2650  -12.9690   20.3510 N   0  0  0  0  0  0  0  0  0  0  0  0
  -25.8950  -11.6900   20.6150 N   0  0  0  0  0  0  0  0  0  0  0  0
  -23.8670  -10.4730   21.0770 C   0  0  0  0  0  0  0  0  0  0  0  0
  -24.2910   -9.5050   22.0140 C   0  0  0  0  0  3  0  0  0  0  0  0
  -23.5620   -8.3090   22.1870 C   0  0  0  0  0  3  0  0  0  0  0  0
  -22.3940   -8.0730   21.4230 C   0  0  0  0  0  0  0  0  0  0  0  0
  -21.9900   -9.0290   20.4750 C   0  0  0  0  0  3  0  0  0  0  0  0
  -22.7190  -10.2180   20.3000 C   0  0  0  0  0  3  0  0  0  0  0  0
  -21.6380   -6.9280   21.5040 O   0  0  0  0  0  0  0  0  0  0  0  0
  -21.5920   -6.1760   22.6500 C   0  0  0  0  0  0  0  0  0  0  0  0
  -21.1760   -6.7230   23.8840 C   0  0  0  0  0  3  0  0  0  0  0  0
  -21.0780   -5.8970   25.0210 C   0  0  0  0  0  3  0  0  0  0  0  0
  -21.3830   -4.5250   24.9270 C   0  0  0  0  0  0  0  0  0  0  0  0
  -21.7900   -3.9780   23.6970 C   0  0  0  0  0  3  0  0  0  0  0  0
  -21.8910   -4.8020   22.5610 C   0  0  0  0  0  0  0  0  0  0  0  0
  -22.2640   -4.2660   21.3740 F   0  0  0  0  0  0  0  0  0  0  0  0
  -21.2800   -3.7310   26.0170 F   0  0  0  0  0  0  0  0  0  0  0  0
  -22.7350  -13.5650   21.1380 C   0  0  0  0  0  0  0  0  0  0  0  0
  -21.9880  -12.8780   21.9940 N   0  0  0  0  0  0  0  0  0  0  0  0
  -22.3090  -14.5870   20.6010 O   0  0  0  0  0  0  0  0  0  0  0  0
  -22.3450  -12.0510   22.4520 H   0  0  0  0  0  0  0  0  0  0  0  0
  -21.0460  -13.1810   22.1960 H   0  0  0  0  0  0  0  0  0  0  0  0
  -25.3860  -15.2230   20.3620 N   0  0  0  0  0  0  0  0  0  0  0  0
  -24.6180  -15.8780   20.4480 H   0  0  0  0  0  0  0  0  0  0  0  0
  -26.2440  -15.6590   20.0510 H   0  0  0  0  0  0  0  0  0  0  0  0
  1  5  1  0
  1  2  1  0
  2  4  1  0
  3  1  2  0
  5  7  1  0
  7  6  1  0
  8 10  1  0
  8  7  1  0
  9 20  2  0
 10 15  1  0
 11 19  1  0
 11 21  1  0
 12 18  1  0
 12 14  1  0
 13 19  1  0
 14 13  1  0
 15 14  2  0
 16 17  1  0
 16 10  2  0
 17 12  2  0
 18 11  1  0
 19  9  1  0
 21 23  2  0
 22 21  1  0
 24 22  1  0
 25 34  2  0
 25 30  1  0
 26 22  1  0
 26 30  1  0
 27 26  1  0
 28 29  1  0
 28 27  1  0
 29 25  1  0
 30 31  2  0
 31 32  1  0
 33 32  2  0
 34 33  1  0
 35  9  1  0
 35 40  1  0
 35 36  1  0
 36 39  1  1
 36 37  1  0
 38 36  1  0
 40 43  1  0
 41 45  1  0
 41 40  1  0
 42 41  2  0
 45 44  1  0
 47 45  1  0
 47 48  1  0
 47 46  1  0
 49  2  1  0
 49 50  1  0
 51 64  1  0
 52 57  1  0
 53 54  1  0
 53 52  1  0
 55 54  1  0
 55 70  1  0
 55 56  1  0
 57 51  1  0
 57 56  1  0
 58 51  2  0
 59 60  1  0
 60 62  2  0
 60 64  1  0
 61 59  2  0
 61 63  1  0
 63 50  1  0
 63 62  1  0
 64 66  1  0
 65 61  1  0
 67 68  2  0
 68 87  1  0
 69 68  1  0
 69 72  1  0
 70 67  1  0
 70 71  1  0
 71 69  2  0
 72 73  1  0
 73 74  2  0
 75 78  1  0
 75 74  1  0
 76 75  2  0
 77 76  1  0
 77 72  2  0
 78 79  1  0
 79 80  1  0
 80 81  2  0
 82 81  1  0
 82 86  1  0
 83 82  2  0
 84 79  2  0
 84 83  1  0
 85 84  1  0
 87 88  1  0
 88 91  1  0
 88 90  1  0
 89 87  2  0
 92 93  1  0
 92 67  1  0
 94 92  1  0
M  ISO  4   7 101   8 101  51 100  64 100
M  END
>  <TORSDO>  (70) 
F 20

>  <SCORE>  (70) 
-13.883

>  <name>  (70) 
70

>  <ligand_id>  (70) 
70

>  <original_smiles>  (70) 
[H]c1c([H])c([H])c2c(c1[H])C([H])([H])C([H])([H])C([H])([H])C2([H])N([H])C(=O)C1([H])N(C(=O)C([H])(N([H])C(=O)C([H])(N([H])C([H])([H])[H])C([H])([H])[H])C(C([H])([H])[H])(C([H])([H])[H])C([H])([H])[H])C([H])([H])c2c([H])c(OC([H])(C([H])([H])[H])C([H])([H])C(=O)N([H])C([H])([H])C([H])([H])n3nc(N([H])C(=O)N4C([H])([H])C([H])([H])C([H])([H])C([H])(n5nc(-c6c([H])c([H])c(Oc7c([H])c([H])c(F)c([H])c7F)c([H])c6[H])c(C(=O)N([H])[H])c5N([H])[H])C4([H])[H])c([H])c3F)c([H])c([H])c2C1([H])[H]

>  <smiles>  (70) 
[H]c1c([H])c([H])c2c(c1[H])C([H])([H])C([H])([H])C([H])([H])C2([H])N([H])C(=O)C1([H])N(C(=O)C([H])(N([H])C(=O)C([H])(N([H])C([H])([H])[H])C([H])([H])[H])C(C([H])([H])[H])(C([H])([H])[H])C([H])([H])[H])C([H])([H])c2c([H])c(OC([H])(C([H])([H])[H])C([H])([H])C(=O)N([H])C([H])([H])C([H])([H])n3nc(N([H])C(=O)N4C([H])([H])C([H])([H])C([H])([H])C([H])(n5nc(-c6c([H])c([H])c(Oc7c([H])c([H])c(F)c([H])c7F)c([H])c6[H])c(C(=O)N([H])[H])c5N([H])[H])C4([H])[H])c([H])c3F)c([H])c([H])c2C1([H])[H]

$$$$
71:0:0
     RDKit          3D

 95103  0  0  1  0  0  0  0  0999 V2000
  -29.0300  -23.4770   20.2170 C   0  0  0  0  0  3  0  0  0  0  0  0
  -29.3470  -23.4390   18.7800 N   0  0  0  0  0  4  0  0  0  0  0  0
  -28.5260  -23.2440   18.2340 H   0  0  0  0  0  0  0  0  0  0  0  0
  -30.0140  -22.7040   18.6140 H   0  0  0  0  0  0  0  0  0  0  0  0
  -29.7400  -24.3120   18.4740 H   0  0  0  0  0  0  0  0  0  0  0  0
  -28.7220  -21.9100   20.6870 C   0  0  0  0  0  0  0  0  0  0  0  0
  -27.6450  -21.7170   21.2480 O   0  0  0  0  0  0  0  0  0  0  0  0
  -29.4590  -19.5140   20.7820 C   0  0  0  0  0  3  0  0  0  0  0  0
  -29.6690  -20.8080   20.4240 N   0  0  0  0  0  0  0  0  0  0  0  0
  -30.3620  -18.1330   20.4810 C   0  0  0  0  0  3  0  0  0  0  0  0
  -29.9570  -18.3750   17.9380 C   0  0  0  0  0  3  0  0  0  0  0  0
  -31.9180  -17.9940   16.8710 C   0  0  0  0  0  3  0  0  0  0  0  0
  -30.7620  -18.1480   19.0320 C   0  0  0  0  0  0  0  0  0  0  0  0
  -30.6260  -18.2870   16.7120 N   0  0  0  0  0  0  0  0  0  0  0  0
  -32.4080  -17.8100   18.5460 S   0  0  0  0  0  0  0  0  0  0  0  0
  -29.8890  -16.5620   20.8930 C   0  0  0  0  0  2  0  0  0  0  0  0
  -30.6900  -15.1490   20.5220 C   0  0  0  0  0  0  0  0  0  0  0  0
  -30.5910  -12.8260   19.5020 C   0  0  0  0  0  2  0  0  0  0  0  0
  -29.6950  -12.8520   18.2400 C   0  0  0  0  0  2  0  0  0  0  0  0
  -28.2150  -12.6430   18.6170 C   0  0  0  0  0  2  0  0  0  0  0  0
  -27.7840  -13.5300   19.8140 C   0  0  0  0  0  3  0  0  0  0  0  0
  -28.8030  -13.4810   20.9720 C   0  0  0  0  0  2  0  0  0  0  0  0
  -30.1060  -13.8860   20.4320 N   0  0  0  0  0  0  0  0  0  0  0  0
  -31.8870  -15.2160   20.2190 O   0  0  0  0  0  0  0  0  0  0  0  0
  -25.3710  -14.1030   20.4430 C   0  0  0  0  0  0  0  0  0  0  0  0
  -24.2980  -13.3260   20.7860 C   0  0  0  0  0  0  0  0  0  0  0  0
  -24.7730  -11.9790   20.8030 C   0  0  0  0  0  0  0  0  0  0  0  0
  -26.4290  -13.2280   20.2630 N   0  0  0  0  0  0  0  0  0  0  0  0
  -26.0770  -11.9470   20.5470 N   0  0  0  0  0  0  0  0  0  0  0  0
  -24.0490  -10.7150   20.9920 C   0  0  0  0  0  0  0  0  0  0  0  0
  -24.4470   -9.7720   21.9650 C   0  0  0  0  0  3  0  0  0  0  0  0
  -23.7210   -8.5740   22.1390 C   0  0  0  0  0  3  0  0  0  0  0  0
  -22.5830   -8.3090   21.3400 C   0  0  0  0  0  0  0  0  0  0  0  0
  -22.2050   -9.2410   20.3580 C   0  0  0  0  0  3  0  0  0  0  0  0
  -22.9310  -10.4310   20.1810 C   0  0  0  0  0  3  0  0  0  0  0  0
  -21.8340   -7.1610   21.4220 O   0  0  0  0  0  0  0  0  0  0  0  0
  -21.7320   -6.4490   22.5900 C   0  0  0  0  0  0  0  0  0  0  0  0
  -21.2560   -7.0370   23.7830 C   0  0  0  0  0  3  0  0  0  0  0  0
  -21.1020   -6.2510   24.9430 C   0  0  0  0  0  3  0  0  0  0  0  0
  -21.4130   -4.8780   24.9100 C   0  0  0  0  0  0  0  0  0  0  0  0
  -21.8800   -4.2900   23.7210 C   0  0  0  0  0  3  0  0  0  0  0  0
  -22.0350   -5.0730   22.5640 C   0  0  0  0  0  0  0  0  0  0  0  0
  -22.4660   -4.4960   21.4160 F   0  0  0  0  0  0  0  0  0  0  0  0
  -21.2580   -4.1220   26.0220 F   0  0  0  0  0  0  0  0  0  0  0  0
  -22.8870  -13.7970   20.9880 C   0  0  0  0  0  0  0  0  0  0  0  0
  -22.1330  -13.1240   21.8490 N   0  0  0  0  0  0  0  0  0  0  0  0
  -22.4600  -14.7980   20.4140 O   0  0  0  0  0  0  0  0  0  0  0  0
  -22.4870  -12.3140   22.3360 H   0  0  0  0  0  0  0  0  0  0  0  0
  -21.1840  -13.4240   22.0250 H   0  0  0  0  0  0  0  0  0  0  0  0
  -25.5300  -15.4710   20.2430 N   0  0  0  0  0  0  0  0  0  0  0  0
  -24.7550  -16.1190   20.3110 H   0  0  0  0  0  0  0  0  0  0  0  0
  -26.3890  -15.9100   19.9380 H   0  0  0  0  0  0  0  0  0  0  0  0
  -27.7660  -24.9060   22.0420 C   0  0  0  0  0  1  0  0  0  0  0  0
  -28.0090  -24.8040   20.5260 C   0  0  0  0  0  3  0  0  0  0  0  0
  -28.2490  -26.3060   20.1510 O   0  0  0  0  0  0  0  0  0  0  0  0
  -24.5690  -31.9500   23.1910 C   0  0  0  0  0  0  0  0  0  0  0  0
  -27.1760  -27.2740   20.1310 C   0  0  0  0  0  0  0  0  0  0  0  0
  -23.3690  -30.5370   21.5680 C   0  0  0  0  0  3  0  0  0  0  0  0
  -24.8210  -28.9820   20.1270 C   0  0  0  0  0  0  0  0  0  0  0  0
  -25.9170  -30.8390   21.3690 C   0  0  0  0  0  2  0  0  0  0  0  0
  -26.0030  -29.4480   20.7180 C   0  0  0  0  0  0  0  0  0  0  0  0
  -27.1820  -28.6100   20.7020 C   0  0  0  0  0  3  0  0  0  0  0  0
  -25.9680  -26.9130   19.4940 C   0  0  0  0  0  3  0  0  0  0  0  0
  -24.8170  -27.7280   19.4980 C   0  0  0  0  0  3  0  0  0  0  0  0
  -23.5820  -29.8610   20.1870 C   0  0  0  0  0  2  0  0  0  0  0  0
  -24.6390  -31.1300   22.0970 N   0  0  0  0  0  0  0  0  0  0  0  0
  -23.4860  -32.2190   23.7320 O   0  0  0  0  0  0  0  0  0  0  0  0
  -22.7180  -29.5200   22.5390 C   0  0  0  0  0  0  0  0  0  0  0  0
  -21.3910  -29.3300   22.4290 N   0  0  0  0  0  0  0  0  0  0  0  0
  -23.4090  -28.9040   23.3540 O   0  0  0  0  0  0  0  0  0  0  0  0
  -20.8880  -29.8780   21.7460 H   0  0  0  0  0  0  0  0  0  0  0  0
  -18.0350  -28.0740   22.9670 C   0  0  0  0  0  0  0  0  0  0  0  0
  -20.5920  -28.3820   23.2110 C   0  0  0  0  0  3  0  0  0  0  0  0
  -20.7140  -26.9490   22.6450 C   0  0  0  0  0  2  0  0  0  0  0  0
  -19.6090  -26.6010   21.6400 C   0  0  0  0  0  2  0  0  0  0  0  0
  -18.2300  -26.7240   22.2950 C   0  0  0  0  0  2  0  0  0  0  0  0
  -19.1430  -28.8590   23.3830 C   0  0  0  0  0  0  0  0  0  0  0  0
  -18.9060  -30.1190   23.9730 C   0  0  0  0  0  3  0  0  0  0  0  0
  -17.5920  -30.5950   24.1500 C   0  0  0  0  0  3  0  0  0  0  0  0
  -16.4990  -29.8080   23.7480 C   0  0  0  0  0  3  0  0  0  0  0  0
  -16.7220  -28.5490   23.1630 C   0  0  0  0  0  3  0  0  0  0  0  0
  -25.8470  -32.6040   23.8010 C   0  0  0  0  0  3  0  0  0  0  0  0
  -26.3880  -31.8390   25.0710 C   0  0  1  0  0  0  0  0  0  0  0  0
  -25.3110  -31.5880   26.1520 C   0  0  0  0  0  1  0  0  0  0  0  0
  -26.9840  -30.4680   24.6760 C   0  0  0  0  0  1  0  0  0  0  0  0
  -27.5370  -32.6490   25.7180 C   0  0  0  0  0  1  0  0  0  0  0  0
  -25.5170  -33.9970   24.1420 N   0  0  0  0  0  0  0  0  0  0  0  0
  -25.8380  -35.0640   23.3980 C   0  0  0  0  0  0  0  0  0  0  0  0
  -26.5090  -34.9800   22.3660 O   0  0  0  0  0  0  0  0  0  0  0  0
  -24.9180  -34.1350   24.9440 H   0  0  0  0  0  0  0  0  0  0  0  0
  -24.0910  -36.8450   23.0640 C   0  0  0  0  0  1  0  0  0  0  0  0
  -25.3360  -36.4420   23.8720 C   0  0  0  0  0  3  0  0  0  0  0  0
  -27.4610  -37.3380   24.7160 C   0  0  0  0  0  1  0  0  0  0  0  0
  -26.3580  -37.5080   23.7740 N   0  0  0  0  0  0  0  0  0  0  0  0
  -25.9420  -38.4210   23.9330 H   0  0  0  0  0  0  0  0  0  0  0  0
  1 54  1  0
  1  6  1  0
  2  1  1  0
  3  2  1  0
  4  2  1  0
  5  2  1  0
  6  7  2  0
  9  6  1  0
  9  8  2  0
 10  8  1  0
 10 16  1  0
 11 13  2  0
 12 15  1  0
 13 10  1  0
 14 12  2  0
 14 11  1  0
 15 13  1  0
 17 16  1  0
 18 23  1  0
 19 20  1  0
 19 18  1  0
 21 20  1  0
 21 28  1  0
 21 22  1  0
 23 17  1  0
 23 22  1  0
 24 17  2  0
 25 26  2  0
 26 27  1  0
 26 45  1  0
 27 30  1  0
 28 25  1  0
 28 29  1  0
 29 27  2  0
 30 31  1  0
 31 32  2  0
 33 36  1  0
 33 32  1  0
 34 33  2  0
 35 34  1  0
 35 30  2  0
 36 37  1  0
 37 38  1  0
 38 39  2  0
 40 39  1  0
 40 44  1  0
 41 40  2  0
 42 37  2  0
 42 41  1  0
 43 42  1  0
 45 46  1  0
 46 49  1  0
 46 48  1  0
 47 45  2  0
 50 51  1  0
 50 25  1  0
 52 50  1  0
 54 53  1  0
 55 54  1  0
 56 67  2  0
 57 55  1  0
 57 62  1  0
 58 66  1  0
 58 68  1  0
 59 65  1  0
 59 61  1  0
 60 66  1  0
 61 60  1  0
 62 61  2  0
 63 64  1  0
 63 57  2  0
 64 59  2  0
 65 58  1  0
 66 56  1  0
 68 70  2  0
 69 68  1  0
 71 69  1  0
 72 81  2  0
 72 77  1  0
 73 69  1  0
 73 77  1  0
 74 73  1  0
 75 76  1  0
 75 74  1  0
 76 72  1  0
 77 78  2  0
 78 79  1  0
 80 79  2  0
 81 80  1  0
 82 56  1  0
 82 87  1  0
 82 83  1  0
 83 86  1  1
 83 84  1  0
 85 83  1  0
 87 90  1  0
 88 92  1  0
 88 87  1  0
 89 88  2  0
 92 91  1  0
 94 92  1  0
 94 95  1  0
 94 93  1  0
M  ISO  4  16 100  17 100  54 101  55 101
M  END
>  <TORSDO>  (71) 
F 23

>  <SCORE>  (71) 
-13.315

>  <name>  (71) 
71

>  <ligand_id>  (71) 
71

>  <original_smiles>  (71) 
[H]C(=NC(=O)C([H])(C([H])(Oc1c([H])c([H])c2c(c1[H])C([H])([H])N(C(=O)C([H])(N([H])C(=O)C([H])(N([H])C([H])([H])[H])C([H])([H])[H])C(C([H])([H])[H])(C([H])([H])[H])C([H])([H])[H])C([H])(C(=O)N([H])C1([H])c3c([H])c([H])c([H])c([H])c3C([H])([H])C([H])([H])C1([H])[H])C2([H])[H])C([H])([H])[H])[N+]([H])([H])[H])C([H])(c1sc([H])nc1[H])C([H])([H])C(=O)N1C([H])([H])C([H])([H])C([H])([H])C([H])(n2nc(-c3c([H])c([H])c(Oc4c([H])c([H])c(F)c([H])c4F)c([H])c3[H])c(C(=O)N([H])[H])c2N([H])[H])C1([H])[H]

>  <smiles>  (71) 
[H]C(=NC(=O)C([H])(C([H])(Oc1c([H])c([H])c2c(c1[H])C([H])([H])N(C(=O)C([H])(N([H])C(=O)C([H])(N([H])C([H])([H])[H])C([H])([H])[H])C(C([H])([H])[H])(C([H])([H])[H])C([H])([H])[H])C([H])(C(=O)N([H])C1([H])c3c([H])c([H])c([H])c([H])c3C([H])([H])C([H])([H])C1([H])[H])C2([H])[H])C([H])([H])[H])[N+]([H])([H])[H])C([H])(c1sc([H])nc1[H])C([H])([H])C(=O)N1C([H])([H])C([H])([H])C([H])([H])C([H])(n2nc(-c3c([H])c([H])c(Oc4c([H])c([H])c(F)c([H])c4F)c([H])c3[H])c(C(=O)N([H])[H])c2N([H])[H])C1([H])[H]

$$$$
72:0:0
     RDKit          3D

 94102  0  0  1  0  0  0  0  0999 V2000
  -30.0800  -20.6930   21.6750 C   0  0  0  0  0  3  0  0  0  0  0  0
  -28.6180  -20.5820   19.7930 C   0  0  0  0  0  3  0  0  0  0  0  0
  -29.1920  -21.3890   20.8120 C   0  0  0  0  0  0  0  0  0  0  0  0
  -30.4120  -19.3260   21.4610 C   0  0  0  0  0  0  0  0  0  0  0  0
  -29.8260  -18.6130   20.3850 C   0  0  0  0  0  0  0  0  0  0  0  0
  -28.9030  -19.2510   19.6010 N   0  0  0  0  0  0  0  0  0  0  0  0
  -31.3320  -18.7300   22.2570 F   0  0  0  0  0  0  0  0  0  0  0  0
  -28.5730  -23.8760   20.2980 C   0  0  0  0  0  0  0  0  0  0  0  0
  -28.8690  -22.7970   21.0940 N   0  0  0  0  0  0  0  0  0  0  0  0
  -28.5830  -23.7880   19.0680 O   0  0  0  0  0  0  0  0  0  0  0  0
  -28.9290  -23.0530   22.0700 H   0  0  0  0  0  0  0  0  0  0  0  0
  -28.9330  -25.4720   22.3170 C   0  0  0  0  0  1  0  0  0  0  0  0
  -28.1710  -25.2530   21.0000 C   0  0  0  0  0  3  0  0  0  0  0  0
  -28.3440  -26.5020   20.2200 O   0  0  0  0  0  0  0  0  0  0  0  0
  -24.6090  -31.9130   23.2340 C   0  0  0  0  0  0  0  0  0  0  0  0
  -27.2440  -27.3670   20.2030 C   0  0  0  0  0  0  0  0  0  0  0  0
  -23.4150  -30.5040   21.5940 C   0  0  0  0  0  3  0  0  0  0  0  0
  -24.8760  -28.9560   20.1770 C   0  0  0  0  0  0  0  0  0  0  0  0
  -25.9510  -30.8380   21.4150 C   0  0  0  0  0  2  0  0  0  0  0  0
  -26.0400  -29.4580   20.7740 C   0  0  0  0  0  0  0  0  0  0  0  0
  -27.2330  -28.6750   20.7760 C   0  0  0  0  0  3  0  0  0  0  0  0
  -26.0620  -26.9130   19.5840 C   0  0  0  0  0  3  0  0  0  0  0  0
  -24.8870  -27.6880   19.5740 C   0  0  0  0  0  3  0  0  0  0  0  0
  -23.6350  -29.8250   20.2160 C   0  0  0  0  0  2  0  0  0  0  0  0
  -24.6760  -31.1020   22.1380 N   0  0  0  0  0  0  0  0  0  0  0  0
  -23.5230  -32.1890   23.7650 O   0  0  0  0  0  0  0  0  0  0  0  0
  -22.7540  -29.4880   22.5560 C   0  0  0  0  0  0  0  0  0  0  0  0
  -21.4300  -29.2980   22.4190 N   0  0  0  0  0  0  0  0  0  0  0  0
  -23.4300  -28.8730   23.3840 O   0  0  0  0  0  0  0  0  0  0  0  0
  -20.9440  -29.8470   21.7230 H   0  0  0  0  0  0  0  0  0  0  0  0
  -18.0600  -28.0740   22.8910 C   0  0  0  0  0  0  0  0  0  0  0  0
  -20.6110  -28.3610   23.1890 C   0  0  0  0  0  3  0  0  0  0  0  0
  -20.7340  -26.9250   22.6270 C   0  0  0  0  0  2  0  0  0  0  0  0
  -19.6470  -26.5830   21.6040 C   0  0  0  0  0  2  0  0  0  0  0  0
  -18.2570  -26.7210   22.2300 C   0  0  0  0  0  2  0  0  0  0  0  0
  -19.1660  -28.8520   23.3270 C   0  0  0  0  0  0  0  0  0  0  0  0
  -18.9270  -30.1180   23.9050 C   0  0  0  0  0  3  0  0  0  0  0  0
  -17.6150  -30.6070   24.0520 C   0  0  0  0  0  3  0  0  0  0  0  0
  -16.5230  -29.8270   23.6310 C   0  0  0  0  0  3  0  0  0  0  0  0
  -16.7460  -28.5630   23.0560 C   0  0  0  0  0  3  0  0  0  0  0  0
  -25.8870  -32.5510   23.8580 C   0  0  0  0  0  3  0  0  0  0  0  0
  -26.4030  -31.7840   25.1370 C   0  0  1  0  0  0  0  0  0  0  0  0
  -25.3090  -31.5490   26.2050 C   0  0  0  0  0  1  0  0  0  0  0  0
  -26.9890  -30.4060   24.7510 C   0  0  0  0  0  1  0  0  0  0  0  0
  -27.5520  -32.5810   25.7980 C   0  0  0  0  0  1  0  0  0  0  0  0
  -25.5720  -33.9490   24.1840 N   0  0  0  0  0  0  0  0  0  0  0  0
  -25.9050  -35.0020   23.4260 C   0  0  0  0  0  0  0  0  0  0  0  0
  -26.5810  -34.8990   22.3990 O   0  0  0  0  0  0  0  0  0  0  0  0
  -24.9730  -34.1020   24.9830 H   0  0  0  0  0  0  0  0  0  0  0  0
  -24.1760  -36.7910   23.0600 C   0  0  0  0  0  1  0  0  0  0  0  0
  -25.4120  -36.3890   23.8800 C   0  0  0  0  0  3  0  0  0  0  0  0
  -27.5400  -37.2780   24.7240 C   0  0  0  0  0  1  0  0  0  0  0  0
  -26.4420  -37.4440   23.7740 N   0  0  0  0  0  0  0  0  0  0  0  0
  -26.0330  -38.3630   23.9210 H   0  0  0  0  0  0  0  0  0  0  0  0
  -30.4630  -17.1680   18.3650 C   0  0  0  0  0  1  0  0  0  0  0  0
  -30.4020  -17.2140   19.9100 C   0  0  0  0  0  3  0  0  0  0  0  0
  -30.6520  -14.7140   20.3650 C   0  0  0  0  0  0  0  0  0  0  0  0
  -30.3900  -12.4640   19.3580 C   0  0  0  0  0  2  0  0  0  0  0  0
  -29.4660  -12.5850   18.1300 C   0  0  0  0  0  2  0  0  0  0  0  0
  -27.9930  -12.4260   18.5530 C   0  0  0  0  0  2  0  0  0  0  0  0
  -27.6240  -13.3070   19.7770 C   0  0  0  0  0  3  0  0  0  0  0  0
  -28.6770  -13.2060   20.9020 C   0  0  0  0  0  2  0  0  0  0  0  0
  -29.9830  -13.5180   20.3120 N   0  0  0  0  0  0  0  0  0  0  0  0
  -31.8480  -14.7650   20.0740 O   0  0  0  0  0  0  0  0  0  0  0  0
  -29.9190  -15.8780   20.4390 N   0  0  0  0  0  0  0  0  0  0  0  0
  -28.9390  -15.8050   20.6590 H   0  0  0  0  0  0  0  0  0  0  0  0
  -25.2280  -13.8970   20.4870 C   0  0  0  0  0  0  0  0  0  0  0  0
  -24.1630  -13.1220   20.8550 C   0  0  0  0  0  0  0  0  0  0  0  0
  -24.6300  -11.7720   20.8350 C   0  0  0  0  0  0  0  0  0  0  0  0
  -26.2770  -13.0200   20.2620 N   0  0  0  0  0  0  0  0  0  0  0  0
  -25.9230  -11.7370   20.5350 N   0  0  0  0  0  0  0  0  0  0  0  0
  -23.9050  -10.5080   21.0250 C   0  0  0  0  0  0  0  0  0  0  0  0
  -24.3400   -9.5410   21.9570 C   0  0  0  0  0  3  0  0  0  0  0  0
  -23.6140   -8.3430   22.1370 C   0  0  0  0  0  3  0  0  0  0  0  0
  -22.4400   -8.1050   21.3830 C   0  0  0  0  0  0  0  0  0  0  0  0
  -22.0240   -9.0620   20.4400 C   0  0  0  0  0  3  0  0  0  0  0  0
  -22.7510  -10.2500   20.2590 C   0  0  0  0  0  3  0  0  0  0  0  0
  -21.6860   -6.9600   21.4730 O   0  0  0  0  0  0  0  0  0  0  0  0
  -21.6470   -6.2110   22.6220 C   0  0  0  0  0  0  0  0  0  0  0  0
  -21.2380   -6.7620   23.8560 C   0  0  0  0  0  3  0  0  0  0  0  0
  -21.1440   -5.9410   24.9970 C   0  0  0  0  0  3  0  0  0  0  0  0
  -21.4500   -4.5690   24.9050 C   0  0  0  0  0  0  0  0  0  0  0  0
  -21.8520   -4.0180   23.6770 C   0  0  0  0  0  3  0  0  0  0  0  0
  -21.9470   -4.8370   22.5370 C   0  0  0  0  0  0  0  0  0  0  0  0
  -22.3150   -4.2950   21.3510 F   0  0  0  0  0  0  0  0  0  0  0  0
  -21.3520   -3.7790   26.0000 F   0  0  0  0  0  0  0  0  0  0  0  0
  -22.7630  -13.5970   21.1140 C   0  0  0  0  0  0  0  0  0  0  0  0
  -22.0300  -12.9040   21.9780 N   0  0  0  0  0  0  0  0  0  0  0  0
  -22.3270  -14.6180   20.5850 O   0  0  0  0  0  0  0  0  0  0  0  0
  -22.3960  -12.0800   22.4310 H   0  0  0  0  0  0  0  0  0  0  0  0
  -21.0900  -13.2050   22.1950 H   0  0  0  0  0  0  0  0  0  0  0  0
  -25.3880  -15.2680   20.3020 N   0  0  0  0  0  0  0  0  0  0  0  0
  -24.6120  -15.9120   20.3970 H   0  0  0  0  0  0  0  0  0  0  0  0
  -26.2260  -15.7090   19.9450 H   0  0  0  0  0  0  0  0  0  0  0  0
  2  3  1  0
  3  9  1  0
  3  1  2  0
  4  1  1  0
  4  7  1  0
  5  4  2  0
  6  2  2  0
  6  5  1  0
  8 13  1  0
  8  9  1  0
  9 11  1  0
 10  8  2  0
 13 12  1  0
 14 13  1  0
 15 26  2  0
 16 14  1  0
 16 21  1  0
 17 25  1  0
 17 27  1  0
 18 24  1  0
 18 20  1  0
 19 25  1  0
 20 21  2  0
 20 19  1  0
 22 16  2  0
 23 22  1  0
 23 18  2  0
 24 17  1  0
 25 15  1  0
 27 29  2  0
 28 27  1  0
 30 28  1  0
 31 40  2  0
 31 36  1  0
 32 28  1  0
 32 36  1  0
 33 32  1  0
 34 35  1  0
 34 33  1  0
 35 31  1  0
 36 37  2  0
 37 38  1  0
 39 38  2  0
 40 39  1  0
 41 15  1  0
 41 46  1  0
 41 42  1  0
 42 45  1  1
 42 43  1  0
 44 42  1  0
 46 49  1  0
 47 51  1  0
 47 46  1  0
 48 47  2  0
 51 50  1  0
 53 51  1  0
 53 54  1  0
 53 52  1  0
 56 55  1  0
 56  5  1  0
 56 65  1  0
 57 65  1  0
 58 63  1  0
 59 60  1  0
 59 58  1  0
 61 60  1  0
 61 70  1  0
 61 62  1  0
 63 57  1  0
 63 62  1  0
 64 57  2  0
 65 66  1  0
 67 68  2  0
 68 87  1  0
 69 68  1  0
 69 72  1  0
 70 67  1  0
 70 71  1  0
 71 69  2  0
 72 73  1  0
 73 74  2  0
 75 78  1  0
 75 74  1  0
 76 75  2  0
 77 76  1  0
 77 72  2  0
 78 79  1  0
 79 80  1  0
 80 81  2  0
 82 81  1  0
 82 86  1  0
 83 82  2  0
 84 79  2  0
 84 83  1  0
 85 84  1  0
 87 88  1  0
 88 91  1  0
 88 90  1  0
 89 87  2  0
 92 93  1  0
 92 67  1  0
 94 92  1  0
M  ISO  4  13 101  14 101  57 100  65 100
M  END
>  <TORSDO>  (72) 
F 19

>  <SCORE>  (72) 
-14.463

>  <name>  (72) 
72

>  <ligand_id>  (72) 
72

>  <original_smiles>  (72) 
[H]c1nc(C([H])(N([H])C(=O)N2C([H])([H])C([H])([H])C([H])([H])C([H])(n3nc(-c4c([H])c([H])c(Oc5c([H])c([H])c(F)c([H])c5F)c([H])c4[H])c(C(=O)N([H])[H])c3N([H])[H])C2([H])[H])C([H])([H])[H])c(F)c([H])c1N([H])C(=O)C([H])(Oc1c([H])c([H])c2c(c1[H])C([H])([H])N(C(=O)C([H])(N([H])C(=O)C([H])(N([H])C([H])([H])[H])C([H])([H])[H])C(C([H])([H])[H])(C([H])([H])[H])C([H])([H])[H])C([H])(C(=O)N([H])C1([H])c3c([H])c([H])c([H])c([H])c3C([H])([H])C([H])([H])C1([H])[H])C2([H])[H])C([H])([H])[H]

>  <smiles>  (72) 
[H]c1nc(C([H])(N([H])C(=O)N2C([H])([H])C([H])([H])C([H])([H])C([H])(n3nc(-c4c([H])c([H])c(Oc5c([H])c([H])c(F)c([H])c5F)c([H])c4[H])c(C(=O)N([H])[H])c3N([H])[H])C2([H])[H])C([H])([H])[H])c(F)c([H])c1N([H])C(=O)C([H])(Oc1c([H])c([H])c2c(c1[H])C([H])([H])N(C(=O)C([H])(N([H])C(=O)C([H])(N([H])C([H])([H])[H])C([H])([H])[H])C(C([H])([H])[H])(C([H])([H])[H])C([H])([H])[H])C([H])(C(=O)N([H])C1([H])c3c([H])c([H])c([H])c([H])c3C([H])([H])C([H])([H])C1([H])[H])C2([H])[H])C([H])([H])[H]

$$$$
73:0:0
     RDKit          3D

 92100  0  0  1  0  0  0  0  0999 V2000
  -29.1290  -24.1040   21.7930 C   0  0  0  0  0  1  0  0  0  0  0  0
  -28.4600  -23.8570   20.4230 C   0  0  2  0  0  0  0  0  0  0  0  0
  -26.9310  -23.6200   20.5990 C   0  0  1  0  0  0  0  0  0  0  0  0
  -26.3620  -24.6380   21.2410 F   0  0  0  0  0  0  0  0  0  0  0  0
  -26.3400  -23.4930   19.4100 F   0  0  0  0  0  0  0  0  0  0  0  0
  -26.6610  -22.5240   21.3030 F   0  0  0  0  0  0  0  0  0  0  0  0
  -29.1310  -22.5580   19.7080 C   0  0  0  0  0  2  0  0  0  0  0  0
  -29.3710  -20.8520   21.7590 C   0  0  0  0  0  3  0  0  0  0  0  0
  -29.4460  -21.1850   20.4240 C   0  0  0  0  0  0  0  0  0  0  0  0
  -30.1120  -18.8840   20.4080 C   0  0  0  0  0  0  0  0  0  0  0  0
  -29.8760  -20.0250   19.6900 N   0  0  0  0  0  0  0  0  0  0  0  0
  -29.8140  -19.1870   22.1120 S   0  0  0  0  0  0  0  0  0  0  0  0
  -30.6720  -17.5350   19.8610 C   0  0  0  0  0  3  0  0  0  0  0  0
  -30.3770  -16.1510   20.6160 C   0  0  0  0  0  3  0  0  0  0  0  0
  -31.0770  -14.8320   20.0670 C   0  0  0  0  0  0  0  0  0  0  0  0
  -30.7480  -12.6190   18.9660 C   0  0  0  0  0  2  0  0  0  0  0  0
  -29.7480  -12.8000   17.8010 C   0  0  0  0  0  2  0  0  0  0  0  0
  -28.2940  -12.6690   18.3010 C   0  0  0  0  0  2  0  0  0  0  0  0
  -28.0260  -13.5150   19.5720 C   0  0  0  0  0  3  0  0  0  0  0  0
  -29.1350  -13.3170   20.6280 C   0  0  0  0  0  2  0  0  0  0  0  0
  -30.4210  -13.6270   19.9940 N   0  0  0  0  0  0  0  0  0  0  0  0
  -32.2130  -14.9370   19.5950 O   0  0  0  0  0  0  0  0  0  0  0  0
  -25.7080  -14.1690   20.4630 C   0  0  0  0  0  0  0  0  0  0  0  0
  -24.6310  -13.4210   20.8560 C   0  0  0  0  0  0  0  0  0  0  0  0
  -25.0330  -12.0550   20.7310 C   0  0  0  0  0  0  0  0  0  0  0  0
  -26.6990  -13.2610   20.1240 N   0  0  0  0  0  0  0  0  0  0  0  0
  -26.3010  -11.9820   20.3470 N   0  0  0  0  0  0  0  0  0  0  0  0
  -24.2660  -10.8150   20.9020 C   0  0  0  0  0  0  0  0  0  0  0  0
  -24.6780   -9.8080   21.8020 C   0  0  0  0  0  3  0  0  0  0  0  0
  -23.9130   -8.6320   21.9620 C   0  0  0  0  0  3  0  0  0  0  0  0
  -22.7210   -8.4560   21.2200 C   0  0  0  0  0  0  0  0  0  0  0  0
  -22.3260   -9.4510   20.3080 C   0  0  0  0  0  3  0  0  0  0  0  0
  -23.0920  -10.6180   20.1470 C   0  0  0  0  0  3  0  0  0  0  0  0
  -21.9280   -7.3360   21.2910 O   0  0  0  0  0  0  0  0  0  0  0  0
  -21.8250   -6.5980   22.4420 C   0  0  0  0  0  0  0  0  0  0  0  0
  -21.4020   -7.1730   23.6610 C   0  0  0  0  0  3  0  0  0  0  0  0
  -21.2430   -6.3650   24.8040 C   0  0  0  0  0  3  0  0  0  0  0  0
  -21.4980   -4.9820   24.7290 C   0  0  0  0  0  0  0  0  0  0  0  0
  -21.9140   -4.4060   23.5160 C   0  0  0  0  0  3  0  0  0  0  0  0
  -22.0740   -5.2130   22.3760 C   0  0  0  0  0  0  0  0  0  0  0  0
  -22.4550   -4.6490   21.2040 F   0  0  0  0  0  0  0  0  0  0  0  0
  -21.3380   -4.2030   25.8250 F   0  0  0  0  0  0  0  0  0  0  0  0
  -23.2730  -13.9380   21.2320 C   0  0  0  0  0  0  0  0  0  0  0  0
  -22.5750  -13.2390   22.1210 N   0  0  0  0  0  0  0  0  0  0  0  0
  -22.8420  -14.9960   20.7720 O   0  0  0  0  0  0  0  0  0  0  0  0
  -22.9370  -12.3830   22.5120 H   0  0  0  0  0  0  0  0  0  0  0  0
  -21.6660  -13.5670   22.4150 H   0  0  0  0  0  0  0  0  0  0  0  0
  -25.9200  -15.5400   20.3430 N   0  0  0  0  0  0  0  0  0  0  0  0
  -25.1910  -16.2190   20.5290 H   0  0  0  0  0  0  0  0  0  0  0  0
  -26.7680  -15.9580   19.9820 H   0  0  0  0  0  0  0  0  0  0  0  0
  -28.6480  -25.2120   19.5600 C   0  0  0  0  0  2  0  0  0  0  0  0
  -28.4780  -26.5780   20.1320 O   0  0  0  0  0  0  0  0  0  0  0  0
  -24.4450  -31.7430   23.1180 C   0  0  0  0  0  0  0  0  0  0  0  0
  -27.2980  -27.3350   20.0490 C   0  0  0  0  0  0  0  0  0  0  0  0
  -23.3230  -30.3030   21.4560 C   0  0  0  0  0  3  0  0  0  0  0  0
  -24.8570  -28.8330   20.0280 C   0  0  0  0  0  0  0  0  0  0  0  0
  -25.8440  -30.7410   21.3000 C   0  0  0  0  0  2  0  0  0  0  0  0
  -25.9930  -29.3750   20.6410 C   0  0  0  0  0  0  0  0  0  0  0  0
  -27.2120  -28.6350   20.6430 C   0  0  0  0  0  3  0  0  0  0  0  0
  -26.1360  -26.8480   19.4130 C   0  0  0  0  0  3  0  0  0  0  0  0
  -24.9300  -27.5750   19.4080 C   0  0  0  0  0  3  0  0  0  0  0  0
  -23.5780  -29.6460   20.0740 C   0  0  0  0  0  2  0  0  0  0  0  0
  -24.5550  -30.9470   22.0150 N   0  0  0  0  0  0  0  0  0  0  0  0
  -23.3450  -31.9670   23.6440 O   0  0  0  0  0  0  0  0  0  0  0  0
  -22.6990  -29.2500   22.4020 C   0  0  0  0  0  0  0  0  0  0  0  0
  -21.3830  -29.0180   22.2620 N   0  0  0  0  0  0  0  0  0  0  0  0
  -23.3990  -28.6460   23.2200 O   0  0  0  0  0  0  0  0  0  0  0  0
  -20.8750  -29.5580   21.5760 H   0  0  0  0  0  0  0  0  0  0  0  0
  -18.0540  -27.6910   22.7450 C   0  0  0  0  0  0  0  0  0  0  0  0
  -20.6010  -28.0390   23.0180 C   0  0  0  0  0  3  0  0  0  0  0  0
  -20.7560  -26.6240   22.4170 C   0  0  0  0  0  2  0  0  0  0  0  0
  -19.6650  -26.2760   21.4020 C   0  0  0  0  0  2  0  0  0  0  0  0
  -18.2800  -26.3580   22.0510 C   0  0  0  0  0  2  0  0  0  0  0  0
  -19.1440  -28.4870   23.1850 C   0  0  0  0  0  0  0  0  0  0  0  0
  -18.8800  -29.7350   23.7900 C   0  0  0  0  0  3  0  0  0  0  0  0
  -17.5570  -30.1840   23.9660 C   0  0  0  0  0  3  0  0  0  0  0  0
  -16.4810  -29.3830   23.5450 C   0  0  0  0  0  3  0  0  0  0  0  0
  -16.7310  -28.1380   22.9390 C   0  0  0  0  0  3  0  0  0  0  0  0
  -25.6920  -32.4280   23.7600 C   0  0  0  0  0  3  0  0  0  0  0  0
  -25.3200  -33.8130   24.0830 N   0  0  0  0  0  0  0  0  0  0  0  0
  -25.6170  -34.8790   23.3280 C   0  0  0  0  0  0  0  0  0  0  0  0
  -26.3040  -34.8030   22.3050 O   0  0  0  0  0  0  0  0  0  0  0  0
  -24.7080  -33.9420   24.8760 H   0  0  0  0  0  0  0  0  0  0  0  0
  -23.8220  -36.5990   22.9510 C   0  0  0  0  0  1  0  0  0  0  0  0
  -25.0670  -36.2460   23.7790 C   0  0  0  0  0  3  0  0  0  0  0  0
  -27.1510  -37.2180   24.6390 C   0  0  0  0  0  1  0  0  0  0  0  0
  -26.0570  -37.3400   23.6800 N   0  0  0  0  0  0  0  0  0  0  0  0
  -25.6110  -38.2420   23.8210 H   0  0  0  0  0  0  0  0  0  0  0  0
  -26.2210  -31.6810   25.0440 C   0  0  1  0  0  0  0  0  0  0  0  0
  -25.1230  -31.3940   26.0950 C   0  0  0  0  0  1  0  0  0  0  0  0
  -26.8710  -30.3300   24.6650 C   0  0  0  0  0  1  0  0  0  0  0  0
  -27.3240  -32.5250   25.7260 C   0  0  0  0  0  1  0  0  0  0  0  0
  2  3  1  0
  2  1  1  1
  3  4  1  1
  3  6  1  0
  5  3  1  0
  7  2  1  0
  7  9  1  0
  8 12  1  0
  9  8  2  0
 10 12  1  0
 11 10  2  0
 11  9  1  0
 13 10  1  0
 13 14  2  0
 15 14  1  0
 16 21  1  0
 17 18  1  0
 17 16  1  0
 19 18  1  0
 19 26  1  0
 19 20  1  0
 21 15  1  0
 21 20  1  0
 22 15  2  0
 23 24  2  0
 24 43  1  0
 25 24  1  0
 25 28  1  0
 26 27  1  0
 26 23  1  0
 27 25  2  0
 28 29  1  0
 29 30  2  0
 31 34  1  0
 31 30  1  0
 32 31  2  0
 33 32  1  0
 33 28  2  0
 34 35  1  0
 35 36  1  0
 36 37  2  0
 38 37  1  0
 38 42  1  0
 39 38  2  0
 40 35  2  0
 40 39  1  0
 41 40  1  0
 43 44  1  0
 44 47  1  0
 44 46  1  0
 45 43  2  0
 48 23  1  0
 48 49  1  0
 50 48  1  0
 51 52  1  0
 51  2  1  0
 53 64  2  0
 54 52  1  0
 54 59  1  0
 55 63  1  0
 55 65  1  0
 56 62  1  0
 56 58  1  0
 57 63  1  0
 58 59  2  0
 58 57  1  0
 60 54  2  0
 61 60  1  0
 61 56  2  0
 62 55  1  0
 63 53  1  0
 65 67  2  0
 66 65  1  0
 68 66  1  0
 69 78  2  0
 69 74  1  0
 70 66  1  0
 70 74  1  0
 71 70  1  0
 72 73  1  0
 72 71  1  0
 73 69  1  0
 74 75  2  0
 75 76  1  0
 77 76  2  0
 78 77  1  0
 79 53  1  0
 79 80  1  0
 79 89  1  0
 80 83  1  0
 81 85  1  0
 81 80  1  0
 82 81  2  0
 85 84  1  0
 87 85  1  0
 87 88  1  0
 87 86  1  0
 89 92  1  1
 89 90  1  0
 91 89  1  0
M  ISO  4  14 100  15 100  51 101  52 101
M  END
>  <TORSDO>  (73) 
F 22

>  <SCORE>  (73) 
-11.678

>  <name>  (73) 
73

>  <ligand_id>  (73) 
73

>  <original_smiles>  (73) 
[H]c1sc(C([H])([H])C([H])([H])C(=O)N2C([H])([H])C([H])([H])C([H])([H])C([H])(n3nc(-c4c([H])c([H])c(Oc5c([H])c([H])c(F)c([H])c5F)c([H])c4[H])c(C(=O)N([H])[H])c3N([H])[H])C2([H])[H])nc1C([H])([H])C(C([H])([H])[H])(C(F)(F)F)C([H])([H])Oc1c([H])c([H])c2c(c1[H])C([H])([H])N(C(=O)C([H])(N([H])C(=O)C([H])(N([H])C([H])([H])[H])C([H])([H])[H])C(C([H])([H])[H])(C([H])([H])[H])C([H])([H])[H])C([H])(C(=O)N([H])C1([H])c3c([H])c([H])c([H])c([H])c3C([H])([H])C([H])([H])C1([H])[H])C2([H])[H]

>  <smiles>  (73) 
[H]c1sc(C([H])([H])C([H])([H])C(=O)N2C([H])([H])C([H])([H])C([H])([H])C([H])(n3nc(-c4c([H])c([H])c(Oc5c([H])c([H])c(F)c([H])c5F)c([H])c4[H])c(C(=O)N([H])[H])c3N([H])[H])C2([H])[H])nc1C([H])([H])C(C([H])([H])[H])(C(F)(F)F)C([H])([H])Oc1c([H])c([H])c2c(c1[H])C([H])([H])N(C(=O)C([H])(N([H])C(=O)C([H])(N([H])C([H])([H])[H])C([H])([H])[H])C(C([H])([H])[H])(C([H])([H])[H])C([H])([H])[H])C([H])(C(=O)N([H])C1([H])c3c([H])c([H])c([H])c([H])c3C([H])([H])C([H])([H])C1([H])[H])C2([H])[H]

$$$$
74:0:0
     RDKit          3D

 85 89  0  0  1  0  0  0  0  0999 V2000
  -29.5530  -21.4770   18.6830 C   0  0  0  0  0  1  0  0  0  0  0  0
  -27.2940  -20.7070   19.4140 C   0  0  0  0  0  1  0  0  0  0  0  0
  -28.6800  -21.1510   19.9080 C   0  0  0  0  0  2  0  0  0  0  0  0
  -30.1020  -16.1870   20.2440 C   0  0  0  0  0  0  0  0  0  0  0  0
  -30.3490  -13.5280   19.4570 C   0  0  0  0  0  2  0  0  0  0  0  0
  -29.5260  -12.8600   18.3020 C   0  0  0  0  0  2  0  0  0  0  0  0
  -28.1430  -12.4010   18.7820 C   0  0  0  0  0  2  0  0  0  0  0  0
  -27.5500  -13.4400   19.7510 C   0  0  0  0  0  3  0  0  0  0  0  0
  -28.5420  -13.9740   20.8240 C   0  0  0  0  0  2  0  0  0  0  0  0
  -29.6200  -14.7480   20.1160 N   0  0  0  0  0  0  0  0  0  0  0  0
  -31.3480  -16.0200   20.2320 O   0  0  0  0  0  0  0  0  0  0  0  0
  -29.5080  -19.3310   20.3620 C   0  0  0  0  0  2  0  0  0  0  0  0
  -29.3630  -17.6840   20.1690 N   0  0  0  0  0  0  0  0  0  0  0  0
  -30.5440  -19.5640   20.9870 O   0  0  0  0  0  1  0  0  0  0  0  0
  -28.4180  -17.5180   19.8580 H   0  0  0  0  0  0  0  0  0  0  0  0
  -25.1910  -13.9240   20.5200 C   0  0  0  0  0  0  0  0  0  0  0  0
  -24.1370  -13.1360   20.8750 C   0  0  0  0  0  0  0  0  0  0  0  0
  -24.6180  -11.7890   20.8450 C   0  0  0  0  0  0  0  0  0  0  0  0
  -26.2450  -13.0660   20.2820 N   0  0  0  0  0  0  0  0  0  0  0  0
  -25.9160  -11.7710   20.5410 N   0  0  0  0  0  0  0  0  0  0  0  0
  -23.8930  -10.5230   21.0290 C   0  0  0  0  0  0  0  0  0  0  0  0
  -24.3100   -9.5590   21.9740 C   0  0  0  0  0  3  0  0  0  0  0  0
  -23.5770   -8.3650   22.1490 C   0  0  0  0  0  3  0  0  0  0  0  0
  -22.4140   -8.1230   21.3800 C   0  0  0  0  0  0  0  0  0  0  0  0
  -22.0160   -9.0750   20.4250 C   0  0  0  0  0  3  0  0  0  0  0  0
  -22.7490  -10.2610   20.2480 C   0  0  0  0  0  3  0  0  0  0  0  0
  -21.6570   -6.9790   21.4640 O   0  0  0  0  0  0  0  0  0  0  0  0
  -21.5850   -6.2460   22.6210 C   0  0  0  0  0  0  0  0  0  0  0  0
  -21.1170   -6.8060   23.8300 C   0  0  0  0  0  3  0  0  0  0  0  0
  -20.9940   -5.9990   24.9790 C   0  0  0  0  0  3  0  0  0  0  0  0
  -21.3280   -4.6320   24.9190 C   0  0  0  0  0  0  0  0  0  0  0  0
  -21.7880   -4.0710   23.7150 C   0  0  0  0  0  3  0  0  0  0  0  0
  -21.9120   -4.8750   22.5690 C   0  0  0  0  0  0  0  0  0  0  0  0
  -22.3360   -4.3250   21.4060 F   0  0  0  0  0  0  0  0  0  0  0  0
  -21.2030   -3.8550   26.0200 F   0  0  0  0  0  0  0  0  0  0  0  0
  -22.7340  -13.6040   21.1250 C   0  0  0  0  0  0  0  0  0  0  0  0
  -21.9990  -12.9100   21.9840 N   0  0  0  0  0  0  0  0  0  0  0  0
  -22.3000  -14.6250   20.5930 O   0  0  0  0  0  0  0  0  0  0  0  0
  -22.3650  -12.0850   22.4370 H   0  0  0  0  0  0  0  0  0  0  0  0
  -21.0570  -13.2070   22.1950 H   0  0  0  0  0  0  0  0  0  0  0  0
  -25.3380  -15.2960   20.3400 N   0  0  0  0  0  0  0  0  0  0  0  0
  -24.5620  -15.9420   20.4430 H   0  0  0  0  0  0  0  0  0  0  0  0
  -26.1850  -15.7420   20.0130 H   0  0  0  0  0  0  0  0  0  0  0  0
  -28.2640  -23.1860   20.4840 C   0  0  0  0  0 15  0  0  0  0  0  0
  -28.1520  -25.0970   20.1700 O   0  0  0  0  0  1  0  0  0  0  0  0
  -24.5940  -31.7970   23.0700 C   0  0  0  0  0  0  0  0  0  0  0  0
  -27.1730  -26.4250   20.2090 C   0  0  0  0  0  0  0  0  0  0  0  0
  -23.4380  -30.3520   21.4590 C   0  0  0  0  0  3  0  0  0  0  0  0
  -24.9090  -28.6330   20.1040 C   0  0  0  0  0  0  0  0  0  0  0  0
  -26.0300  -30.4320   21.3760 C   0  0  0  0  0  2  0  0  0  0  0  0
  -26.1090  -28.9540   20.7480 C   0  0  0  0  0  0  0  0  0  0  0  0
  -27.2110  -27.8910   20.7500 C   0  0  0  0  0  3  0  0  0  0  0  0
  -25.9260  -26.3970   19.5040 C   0  0  0  0  0  3  0  0  0  0  0  0
  -24.8750  -27.3840   19.4560 C   0  0  0  0  0  3  0  0  0  0  0  0
  -23.7060  -29.6110   20.1140 C   0  0  0  0  0  2  0  0  0  0  0  0
  -24.7150  -30.9020   22.0190 N   0  0  0  0  0  0  0  0  0  0  0  0
  -23.4900  -32.1050   23.5570 O   0  0  0  0  0  0  0  0  0  0  0  0
  -22.7020  -29.4100   22.4520 C   0  0  0  0  0  0  0  0  0  0  0  0
  -21.3660  -29.2680   22.3390 N   0  0  0  0  0  0  0  0  0  0  0  0
  -23.3510  -28.7980   23.3030 O   0  0  0  0  0  0  0  0  0  0  0  0
  -20.8860  -29.8090   21.6340 H   0  0  0  0  0  0  0  0  0  0  0  0
  -17.9750  -28.0650   22.9090 C   0  0  0  0  0  0  0  0  0  0  0  0
  -20.5410  -28.3390   23.1270 C   0  0  0  0  0  3  0  0  0  0  0  0
  -20.6310  -26.9020   22.5630 C   0  0  0  0  0  2  0  0  0  0  0  0
  -19.5150  -26.5750   21.5640 C   0  0  0  0  0  2  0  0  0  0  0  0
  -18.1430  -26.7180   22.2280 C   0  0  0  0  0  2  0  0  0  0  0  0
  -19.0990  -28.8340   23.3160 C   0  0  0  0  0  0  0  0  0  0  0  0
  -18.8820  -30.0900   23.9230 C   0  0  0  0  0  3  0  0  0  0  0  0
  -17.5770  -30.5800   24.1200 C   0  0  0  0  0  3  0  0  0  0  0  0
  -16.4690  -29.8120   23.7230 C   0  0  0  0  0  3  0  0  0  0  0  0
  -16.6690  -28.5550   23.1240 C   0  0  0  0  0  3  0  0  0  0  0  0
  -25.8340  -32.4890   23.7160 C   0  0  0  0  0  3  0  0  0  0  0  0
  -25.4730  -33.8840   24.0540 N   0  0  0  0  0  0  0  0  0  0  0  0
  -25.7910  -34.9690   23.3320 C   0  0  0  0  0  0  0  0  0  0  0  0
  -26.4680  -34.9010   22.3040 O   0  0  0  0  0  0  0  0  0  0  0  0
  -24.8660  -34.0070   24.8510 H   0  0  0  0  0  0  0  0  0  0  0  0
  -24.0390  -36.7590   23.0230 C   0  0  0  0  0  1  0  0  0  0  0  0
  -25.2850  -36.3450   23.8230 C   0  0  0  0  0  3  0  0  0  0  0  0
  -27.4020  -37.2550   24.6800 C   0  0  0  0  0  1  0  0  0  0  0  0
  -26.3010  -37.4170   23.7330 N   0  0  0  0  0  0  0  0  0  0  0  0
  -25.8790  -38.3290   23.8910 H   0  0  0  0  0  0  0  0  0  0  0  0
  -26.3420  -31.7510   25.0180 C   0  0  1  0  0  0  0  0  0  0  0  0
  -25.2370  -31.5140   26.0750 C   0  0  0  0  0  1  0  0  0  0  0  0
  -26.9550  -30.3770   24.6770 C   0  0  0  0  0  1  0  0  0  0  0  0
  -27.4680  -32.5780   25.6820 C   0  0  0  0  0  1  0  0  0  0  0  0
  1  3  1  0
  2  3  1  0
  5 10  1  0
  6  7  1  0
  6  5  1  0
  8  7  1  0
  8 19  1  0
  8  9  1  0
 10  4  1  0
 10  9  1  0
 11  4  2  0
 12 14  1  0
 13  4  1  0
 13 12  1  0
 15 13  1  0
 16 17  2  0
 17 36  1  0
 18 17  1  0
 18 21  1  0
 19 16  1  0
 19 20  1  0
 20 18  2  0
 21 22  1  0
 22 23  2  0
 24 27  1  0
 24 23  1  0
 25 24  2  0
 26 25  1  0
 26 21  2  0
 27 28  1  0
 28 29  1  0
 29 30  2  0
 31 30  1  0
 31 35  1  0
 32 31  2  0
 33 28  2  0
 33 32  1  0
 34 33  1  0
 36 37  1  0
 37 40  1  0
 37 39  1  0
 38 36  2  0
 41 42  1  0
 41 16  1  0
 43 41  1  0
 45 47  1  0
 46 57  2  0
 47 52  1  0
 48 56  1  0
 48 58  1  0
 49 55  1  0
 49 51  1  0
 50 56  1  0
 51 52  2  0
 51 50  1  0
 53 47  2  0
 54 53  1  0
 54 49  2  0
 55 48  1  0
 56 46  1  0
 58 60  2  0
 59 58  1  0
 61 59  1  0
 62 71  2  0
 62 67  1  0
 63 59  1  0
 63 67  1  0
 64 63  1  0
 65 66  1  0
 65 64  1  0
 66 62  1  0
 67 68  2  0
 68 69  1  0
 70 69  2  0
 71 70  1  0
 72 46  1  0
 72 73  1  0
 72 82  1  0
 73 76  1  0
 74 78  1  0
 74 73  1  0
 75 74  2  0
 78 77  1  0
 80 78  1  0
 80 81  1  0
 80 79  1  0
 82 85  1  1
 82 83  1  0
 84 82  1  0
M  ISO  4   4 100  13 100  44 101  45 101
M  END
>  <TORSDO>  (74) 
F 17

>  <SCORE>  (74) 
-16.400

>  <name>  (74) 
74

>  <ligand_id>  (74) 
74

>  <original_smiles>  (74) 
[H]c1c([H])c([H])c2c(c1[H])C([H])([H])C([H])([H])C([H])([H])C2([H])N([H])C(=O)C1([H])N(C(=O)C([H])(N([H])C(=O)C([H])(N([H])C([H])([H])[H])C([H])([H])[H])C(C([H])([H])[H])(C([H])([H])[H])C([H])([H])[H])C([H])([H])c2c([H])c(OC([H])([H])C(C(=O)N([H])C(=O)N3C([H])([H])C([H])([H])C([H])([H])C([H])(n4nc(-c5c([H])c([H])c(Oc6c([H])c([H])c(F)c([H])c6F)c([H])c5[H])c(C(=O)N([H])[H])c4N([H])[H])C3([H])[H])(C([H])([H])[H])C([H])([H])[H])c([H])c([H])c2C1([H])[H]

>  <smiles>  (74) 
[H]c1c([H])c([H])c2c(c1[H])C([H])([H])C([H])([H])C([H])([H])C2([H])N([H])C(=O)C1([H])N(C(=O)C([H])(N([H])C(=O)C([H])(N([H])C([H])([H])[H])C([H])([H])[H])C(C([H])([H])[H])(C([H])([H])[H])C([H])([H])[H])C([H])([H])c2c([H])c(OC([H])([H])C(C(=O)N([H])C(=O)N3C([H])([H])C([H])([H])C([H])([H])C([H])(n4nc(-c5c([H])c([H])c(Oc6c([H])c([H])c(F)c([H])c6F)c([H])c5[H])c(C(=O)N([H])[H])c4N([H])[H])C3([H])[H])(C([H])([H])[H])C([H])([H])[H])c([H])c([H])c2C1([H])[H]

$$$$
75:0:0
     RDKit          3D

 93101  0  0  1  0  0  0  0  0999 V2000
  -31.2550  -21.3830   20.2840 C   0  0  0  0  0  1  0  0  0  0  0  0
  -29.8230  -21.0500   22.3130 C   0  0  0  0  0  1  0  0  0  0  0  0
  -29.8250  -21.0680   20.7680 C   0  0  2  0  0  0  0  0  0  0  0  0
  -30.5790  -14.7670   20.3920 C   0  0  0  0  0  0  0  0  0  0  0  0
  -30.3820  -12.4970   19.3740 C   0  0  0  0  0  2  0  0  0  0  0  0
  -29.4470  -12.5960   18.1460 C   0  0  0  0  0  2  0  0  0  0  0  0
  -27.9740  -12.4360   18.5730 C   0  0  0  0  0  2  0  0  0  0  0  0
  -27.6070  -13.3020   19.8080 C   0  0  0  0  0  3  0  0  0  0  0  0
  -28.6640  -13.1750   20.9280 C   0  0  0  0  0  2  0  0  0  0  0  0
  -29.9690  -13.5300   20.3520 N   0  0  0  0  0  0  0  0  0  0  0  0
  -31.7240  -14.9020   19.9520 O   0  0  0  0  0  0  0  0  0  0  0  0
  -29.4760  -19.5910   20.2800 C   0  0  0  0  0  0  0  0  0  0  0  0
  -28.7210  -19.2150   19.1910 C   0  0  0  0  0  0  0  0  0  0  0  0
  -29.6760  -17.1930   20.2860 C   0  0  0  0  0  0  0  0  0  0  0  0
  -30.0100  -18.3830   20.8860 N   0  0  0  0  0  0  0  0  0  0  0  0
  -29.8520  -15.8430   20.8570 N   0  0  0  0  0  0  0  0  0  0  0  0
  -28.0770  -20.0850   18.3760 F   0  0  0  0  0  0  0  0  0  0  0  0
  -28.6490  -17.4840   18.8790 S   0  0  0  0  0  0  0  0  0  0  0  0
  -29.0370  -15.5370   21.3630 H   0  0  0  0  0  0  0  0  0  0  0  0
  -25.2090  -13.8940   20.5120 C   0  0  0  0  0  0  0  0  0  0  0  0
  -24.1440  -13.1210   20.8810 C   0  0  0  0  0  0  0  0  0  0  0  0
  -24.6080  -11.7700   20.8580 C   0  0  0  0  0  0  0  0  0  0  0  0
  -26.2570  -13.0160   20.2860 N   0  0  0  0  0  0  0  0  0  0  0  0
  -25.9010  -11.7340   20.5570 N   0  0  0  0  0  0  0  0  0  0  0  0
  -23.8820  -10.5080   21.0490 C   0  0  0  0  0  0  0  0  0  0  0  0
  -24.3190   -9.5390   21.9790 C   0  0  0  0  0  3  0  0  0  0  0  0
  -23.5920   -8.3420   22.1590 C   0  0  0  0  0  3  0  0  0  0  0  0
  -22.4150   -8.1060   21.4090 C   0  0  0  0  0  0  0  0  0  0  0  0
  -22.0000   -9.0630   20.4670 C   0  0  0  0  0  3  0  0  0  0  0  0
  -22.7260  -10.2510   20.2860 C   0  0  0  0  0  3  0  0  0  0  0  0
  -21.6580   -6.9620   21.5020 O   0  0  0  0  0  0  0  0  0  0  0  0
  -21.6200   -6.2130   22.6490 C   0  0  0  0  0  0  0  0  0  0  0  0
  -21.2020   -6.7590   23.8830 C   0  0  0  0  0  3  0  0  0  0  0  0
  -21.1150   -5.9360   25.0230 C   0  0  0  0  0  3  0  0  0  0  0  0
  -21.4310   -4.5670   24.9310 C   0  0  0  0  0  0  0  0  0  0  0  0
  -21.8410   -4.0210   23.7020 C   0  0  0  0  0  3  0  0  0  0  0  0
  -21.9320   -4.8420   22.5650 C   0  0  0  0  0  0  0  0  0  0  0  0
  -22.3070   -4.3060   21.3790 F   0  0  0  0  0  0  0  0  0  0  0  0
  -21.3400   -3.7750   26.0240 F   0  0  0  0  0  0  0  0  0  0  0  0
  -22.7440  -13.5970   21.1440 C   0  0  0  0  0  0  0  0  0  0  0  0
  -22.0110  -12.8980   22.0050 N   0  0  0  0  0  0  0  0  0  0  0  0
  -22.3080  -14.6220   20.6190 O   0  0  0  0  0  0  0  0  0  0  0  0
  -22.3780  -12.0720   22.4540 H   0  0  0  0  0  0  0  0  0  0  0  0
  -21.0680  -13.1910   22.2160 H   0  0  0  0  0  0  0  0  0  0  0  0
  -25.3710  -15.2640   20.3270 N   0  0  0  0  0  0  0  0  0  0  0  0
  -24.5930  -15.9080   20.4260 H   0  0  0  0  0  0  0  0  0  0  0  0
  -26.2030  -15.7050   19.9630 H   0  0  0  0  0  0  0  0  0  0  0  0
  -28.8790  -22.3060   20.2650 C   0  0  0  0  0  2  0  0  0  0  0  0
  -29.0770  -23.8640   20.7240 C   0  0  0  0  0  3  0  0  0  0  0  0
  -28.8690  -23.9620   22.1230 O   0  0  0  0  0  0  0  0  0  0  0  0
  -29.6490  -23.6370   22.5630 H   0  0  0  0  0  0  0  0  0  0  0  0
  -28.0870  -24.9910   20.1300 C   0  0  0  0  0  2  0  0  0  0  0  0
  -28.3130  -26.4560   20.3680 O   0  0  0  0  0  0  0  0  0  0  0  0
  -24.5900  -31.9380   23.3050 C   0  0  0  0  0  0  0  0  0  0  0  0
  -27.2130  -27.3410   20.2810 C   0  0  0  0  0  0  0  0  0  0  0  0
  -23.3990  -30.5430   21.6520 C   0  0  0  0  0  3  0  0  0  0  0  0
  -24.8620  -28.9930   20.2340 C   0  0  0  0  0  0  0  0  0  0  0  0
  -25.9440  -30.8460   21.5020 C   0  0  0  0  0  2  0  0  0  0  0  0
  -26.0270  -29.4670   20.8490 C   0  0  0  0  0  0  0  0  0  0  0  0
  -27.2050  -28.6540   20.8620 C   0  0  0  0  0  3  0  0  0  0  0  0
  -26.0250  -26.9380   19.6260 C   0  0  0  0  0  3  0  0  0  0  0  0
  -24.8680  -27.7390   19.6070 C   0  0  0  0  0  3  0  0  0  0  0  0
  -23.6230  -29.8670   20.2750 C   0  0  0  0  0  2  0  0  0  0  0  0
  -24.6620  -31.1260   22.2090 N   0  0  0  0  0  0  0  0  0  0  0  0
  -23.5020  -32.2230   23.8280 O   0  0  0  0  0  0  0  0  0  0  0  0
  -22.7230  -29.5280   22.6060 C   0  0  0  0  0  0  0  0  0  0  0  0
  -21.3980  -29.3520   22.4640 N   0  0  0  0  0  0  0  0  0  0  0  0
  -23.3910  -28.9010   23.4340 O   0  0  0  0  0  0  0  0  0  0  0  0
  -20.9160  -29.9140   21.7750 H   0  0  0  0  0  0  0  0  0  0  0  0
  -18.0090  -28.1600   22.9170 C   0  0  0  0  0  0  0  0  0  0  0  0
  -20.5640  -28.4160   23.2230 C   0  0  0  0  0  3  0  0  0  0  0  0
  -20.6710  -26.9820   22.6530 C   0  0  0  0  0  2  0  0  0  0  0  0
  -19.5820  -26.6600   21.6230 C   0  0  0  0  0  2  0  0  0  0  0  0
  -18.1920  -26.8090   22.2460 C   0  0  0  0  0  2  0  0  0  0  0  0
  -19.1230  -28.9220   23.3600 C   0  0  0  0  0  0  0  0  0  0  0  0
  -18.8960  -30.1890   23.9410 C   0  0  0  0  0  3  0  0  0  0  0  0
  -17.5900  -30.6930   24.0820 C   0  0  0  0  0  3  0  0  0  0  0  0
  -16.4900  -29.9260   23.6560 C   0  0  0  0  0  3  0  0  0  0  0  0
  -16.7020  -28.6610   23.0810 C   0  0  0  0  0  3  0  0  0  0  0  0
  -25.8710  -32.5640   23.9400 C   0  0  0  0  0  3  0  0  0  0  0  0
  -26.3610  -31.8020   25.2320 C   0  0  1  0  0  0  0  0  0  0  0  0
  -25.2480  -31.5810   26.2840 C   0  0  0  0  0  1  0  0  0  0  0  0
  -26.9380  -30.4150   24.8630 C   0  0  0  0  0  1  0  0  0  0  0  0
  -27.5090  -32.5940   25.9030 C   0  0  0  0  0  1  0  0  0  0  0  0
  -25.5760  -33.9700   24.2500 N   0  0  0  0  0  0  0  0  0  0  0  0
  -25.9130  -35.0080   23.4720 C   0  0  0  0  0  0  0  0  0  0  0  0
  -26.5790  -34.8840   22.4400 O   0  0  0  0  0  0  0  0  0  0  0  0
  -24.9920  -34.1440   25.0550 H   0  0  0  0  0  0  0  0  0  0  0  0
  -24.1890  -36.7980   23.1050 C   0  0  0  0  0  1  0  0  0  0  0  0
  -25.4380  -36.4050   23.9100 C   0  0  0  0  0  3  0  0  0  0  0  0
  -27.5820  -37.2950   24.7070 C   0  0  0  0  0  1  0  0  0  0  0  0
  -26.4730  -37.4540   23.7690 N   0  0  0  0  0  0  0  0  0  0  0  0
  -26.0710  -38.3760   23.9080 H   0  0  0  0  0  0  0  0  0  0  0  0
  3  1  1  6
  3  2  1  0
  4 16  1  0
  5 10  1  0
  6  7  1  0
  6  5  1  0
  8  7  1  0
  8 23  1  0
  8  9  1  0
 10  4  1  0
 10  9  1  0
 11  4  2  0
 12  3  1  0
 12 15  1  0
 13 12  2  0
 14 16  1  0
 14 15  2  0
 16 19  1  0
 17 13  1  0
 18 13  1  0
 18 14  1  0
 20 21  2  0
 21 40  1  0
 22 21  1  0
 22 25  1  0
 23 20  1  0
 23 24  1  0
 24 22  2  0
 25 26  1  0
 26 27  2  0
 28 31  1  0
 28 27  1  0
 29 28  2  0
 30 29  1  0
 30 25  2  0
 31 32  1  0
 32 33  1  0
 33 34  2  0
 35 34  1  0
 35 39  1  0
 36 35  2  0
 37 32  2  0
 37 36  1  0
 38 37  1  0
 40 41  1  0
 41 44  1  0
 41 43  1  0
 42 40  2  0
 45 46  1  0
 45 20  1  0
 47 45  1  0
 48 49  1  0
 48  3  1  0
 49 52  1  0
 49 50  1  0
 50 51  1  0
 52 53  1  0
 54 65  2  0
 55 53  1  0
 55 60  1  0
 56 64  1  0
 56 66  1  0
 57 63  1  0
 57 59  1  0
 58 64  1  0
 59 60  2  0
 59 58  1  0
 61 55  2  0
 62 61  1  0
 62 57  2  0
 63 56  1  0
 64 54  1  0
 66 68  2  0
 67 66  1  0
 69 67  1  0
 70 79  2  0
 70 75  1  0
 71 67  1  0
 71 75  1  0
 72 71  1  0
 73 74  1  0
 73 72  1  0
 74 70  1  0
 75 76  2  0
 76 77  1  0
 78 77  2  0
 79 78  1  0
 80 54  1  0
 80 85  1  0
 80 81  1  0
 81 84  1  1
 81 82  1  0
 83 81  1  0
 85 88  1  0
 86 90  1  0
 86 85  1  0
 87 86  2  0
 90 89  1  0
 92 93  1  0
 92 90  1  0
 92 91  1  0
M  ISO  4   4 100  16 100  52 101  53 101
M  END
>  <TORSDO>  (75) 
F 20

>  <SCORE>  (75) 
-14.306

>  <name>  (75) 
75

>  <ligand_id>  (75) 
75

>  <original_smiles>  (75) 
[H]OC([H])(C([H])([H])Oc1c([H])c([H])c2c(c1[H])C([H])([H])N(C(=O)C([H])(N([H])C(=O)C([H])(N([H])C([H])([H])[H])C([H])([H])[H])C(C([H])([H])[H])(C([H])([H])[H])C([H])([H])[H])C([H])(C(=O)N([H])C1([H])c3c([H])c([H])c([H])c([H])c3C([H])([H])C([H])([H])C1([H])[H])C2([H])[H])C([H])([H])C(c1nc(N([H])C(=O)N2C([H])([H])C([H])([H])C([H])([H])C([H])(n3nc(-c4c([H])c([H])c(Oc5c([H])c([H])c(F)c([H])c5F)c([H])c4[H])c(C(=O)N([H])[H])c3N([H])[H])C2([H])[H])sc1F)(C([H])([H])[H])C([H])([H])[H]

>  <smiles>  (75) 
[H]OC([H])(C([H])([H])Oc1c([H])c([H])c2c(c1[H])C([H])([H])N(C(=O)C([H])(N([H])C(=O)C([H])(N([H])C([H])([H])[H])C([H])([H])[H])C(C([H])([H])[H])(C([H])([H])[H])C([H])([H])[H])C([H])(C(=O)N([H])C1([H])c3c([H])c([H])c([H])c([H])c3C([H])([H])C([H])([H])C1([H])[H])C2([H])[H])C([H])([H])C(c1nc(N([H])C(=O)N2C([H])([H])C([H])([H])C([H])([H])C([H])(n3nc(-c4c([H])c([H])c(Oc5c([H])c([H])c(F)c([H])c5F)c([H])c4[H])c(C(=O)N([H])[H])c3N([H])[H])C2([H])[H])sc1F)(C([H])([H])[H])C([H])([H])[H]

$$$$
76:0:0
     RDKit          3D

 93101  0  0  1  0  0  0  0  0999 V2000
  -28.5930  -20.8020   19.7800 C   0  0  0  0  0  3  0  0  0  0  0  0
  -30.6200  -14.7620   20.3800 C   0  0  0  0  0  0  0  0  0  0  0  0
  -30.4450  -12.5030   19.3410 C   0  0  0  0  0  2  0  0  0  0  0  0
  -29.4890  -12.5820   18.1270 C   0  0  0  0  0  2  0  0  0  0  0  0
  -28.0220  -12.4070   18.5620 C   0  0  0  0  0  2  0  0  0  0  0  0
  -27.6550  -13.2760   19.7910 C   0  0  0  0  0  3  0  0  0  0  0  0
  -28.7180  -13.1700   20.9090 C   0  0  0  0  0  2  0  0  0  0  0  0
  -30.0090  -13.5320   20.3120 N   0  0  0  0  0  0  0  0  0  0  0  0
  -31.8160  -14.8730   20.0960 O   0  0  0  0  0  0  0  0  0  0  0  0
  -29.6210  -19.6430   20.1530 C   0  0  0  0  0  0  0  0  0  0  0  0
  -30.9600  -19.6660   20.5340 C   0  0  0  0  0  0  0  0  0  0  0  0
  -30.0930  -17.3050   20.4470 C   0  0  0  0  0  0  0  0  0  0  0  0
  -31.8790  -20.8270   20.7600 C   0  0  0  0  0  1  0  0  0  0  0  0
  -29.1640  -18.2690   20.1870 N   0  0  0  0  0  0  0  0  0  0  0  0
  -29.7980  -15.8630   20.5070 N   0  0  0  0  0  0  0  0  0  0  0  0
  -31.6460  -18.0500   20.7690 S   0  0  0  0  0  0  0  0  0  0  0  0
  -28.8230  -15.6400   20.5900 H   0  0  0  0  0  0  0  0  0  0  0  0
  -25.2570  -13.8630   20.4890 C   0  0  0  0  0  0  0  0  0  0  0  0
  -24.1920  -13.0820   20.8490 C   0  0  0  0  0  0  0  0  0  0  0  0
  -24.6690  -11.7350   20.8330 C   0  0  0  0  0  0  0  0  0  0  0  0
  -26.3100  -12.9880   20.2730 N   0  0  0  0  0  0  0  0  0  0  0  0
  -25.9630  -11.7040   20.5440 N   0  0  0  0  0  0  0  0  0  0  0  0
  -23.9510  -10.4680   21.0230 C   0  0  0  0  0  0  0  0  0  0  0  0
  -24.3790   -9.5090   21.9670 C   0  0  0  0  0  3  0  0  0  0  0  0
  -23.6620   -8.3060   22.1420 C   0  0  0  0  0  3  0  0  0  0  0  0
  -22.5010   -8.0540   21.3740 C   0  0  0  0  0  0  0  0  0  0  0  0
  -22.0930   -9.0010   20.4170 C   0  0  0  0  0  3  0  0  0  0  0  0
  -22.8110  -10.1950   20.2400 C   0  0  0  0  0  3  0  0  0  0  0  0
  -21.7540   -6.9040   21.4600 O   0  0  0  0  0  0  0  0  0  0  0  0
  -21.6890   -6.1730   22.6190 C   0  0  0  0  0  0  0  0  0  0  0  0
  -21.2200   -6.7310   23.8280 C   0  0  0  0  0  3  0  0  0  0  0  0
  -21.1040   -5.9250   24.9780 C   0  0  0  0  0  3  0  0  0  0  0  0
  -21.4490   -4.5620   24.9200 C   0  0  0  0  0  0  0  0  0  0  0  0
  -21.9190   -4.0060   23.7180 C   0  0  0  0  0  3  0  0  0  0  0  0
  -22.0360   -4.8080   22.5700 C   0  0  0  0  0  0  0  0  0  0  0  0
  -22.4630   -4.2590   21.4060 F   0  0  0  0  0  0  0  0  0  0  0  0
  -21.3340   -3.7860   26.0240 F   0  0  0  0  0  0  0  0  0  0  0  0
  -22.7900  -13.5510   21.1000 C   0  0  0  0  0  0  0  0  0  0  0  0
  -22.0590  -12.8440   21.9550 N   0  0  0  0  0  0  0  0  0  0  0  0
  -22.3520  -14.5720   20.5770 O   0  0  0  0  0  0  0  0  0  0  0  0
  -22.4310  -12.0150   22.3960 H   0  0  0  0  0  0  0  0  0  0  0  0
  -21.1190  -13.1360   22.1770 H   0  0  0  0  0  0  0  0  0  0  0  0
  -25.4160  -15.2330   20.3050 N   0  0  0  0  0  0  0  0  0  0  0  0
  -24.6480  -15.8860   20.4230 H   0  0  0  0  0  0  0  0  0  0  0  0
  -26.2510  -15.6800   19.9510 H   0  0  0  0  0  0  0  0  0  0  0  0
  -29.1090  -22.3240   19.7200 C   0  0  0  0  0  0  0  0  0  0  0  0
  -30.0630  -22.6270   18.9970 O   0  0  0  0  0  0  0  0  0  0  0  0
  -28.6520  -23.4870   21.9700 C   0  0  0  0  0  1  0  0  0  0  0  0
  -28.3130  -23.5000   20.4550 C   0  0  0  0  0  3  0  0  0  0  0  0
  -28.2620  -25.0040   19.8030 C   0  0  0  0  0  2  0  0  0  0  0  0
  -28.3270  -26.4550   20.2140 O   0  0  0  0  0  0  0  0  0  0  0  0
  -24.5990  -31.8940   23.2310 C   0  0  0  0  0  0  0  0  0  0  0  0
  -27.2170  -27.3310   20.1370 C   0  0  0  0  0  0  0  0  0  0  0  0
  -23.3960  -30.4950   21.5960 C   0  0  0  0  0  3  0  0  0  0  0  0
  -24.8470  -28.9510   20.1530 C   0  0  0  0  0  0  0  0  0  0  0  0
  -25.9350  -30.8130   21.4080 C   0  0  0  0  0  2  0  0  0  0  0  0
  -26.0210  -29.4360   20.7480 C   0  0  0  0  0  0  0  0  0  0  0  0
  -27.2090  -28.6360   20.7320 C   0  0  0  0  0  3  0  0  0  0  0  0
  -26.0230  -26.9090   19.5140 C   0  0  0  0  0  3  0  0  0  0  0  0
  -24.8480  -27.6890   19.5380 C   0  0  0  0  0  3  0  0  0  0  0  0
  -23.6100  -29.8300   20.2120 C   0  0  0  0  0  2  0  0  0  0  0  0
  -24.6630  -31.0840   22.1350 N   0  0  0  0  0  0  0  0  0  0  0  0
  -23.5150  -32.1730   23.7670 O   0  0  0  0  0  0  0  0  0  0  0  0
  -22.7430  -29.4700   22.5560 C   0  0  0  0  0  0  0  0  0  0  0  0
  -21.4200  -29.2850   22.4250 N   0  0  0  0  0  0  0  0  0  0  0  0
  -23.4230  -28.8460   23.3730 O   0  0  0  0  0  0  0  0  0  0  0  0
  -20.9310  -29.8400   21.7400 H   0  0  0  0  0  0  0  0  0  0  0  0
  -18.0380  -28.0950   22.9290 C   0  0  0  0  0  0  0  0  0  0  0  0
  -20.5990  -28.3440   23.1900 C   0  0  0  0  0  3  0  0  0  0  0  0
  -20.7000  -26.9190   22.6050 C   0  0  0  0  0  2  0  0  0  0  0  0
  -19.5930  -26.6060   21.5940 C   0  0  0  0  0  2  0  0  0  0  0  0
  -18.2110  -26.7490   22.2440 C   0  0  0  0  0  2  0  0  0  0  0  0
  -19.1600  -28.8510   23.3560 C   0  0  0  0  0  0  0  0  0  0  0  0
  -18.9490  -30.1130   23.9550 C   0  0  0  0  0  3  0  0  0  0  0  0
  -17.6460  -30.6160   24.1340 C   0  0  0  0  0  3  0  0  0  0  0  0
  -16.5370  -29.8540   23.7280 C   0  0  0  0  0  3  0  0  0  0  0  0
  -16.7340  -28.5990   23.1240 C   0  0  0  0  0  3  0  0  0  0  0  0
  -25.8790  -32.5330   23.8500 C   0  0  0  0  0  3  0  0  0  0  0  0
  -26.3960  -31.7690   25.1300 C   0  0  1  0  0  0  0  0  0  0  0  0
  -25.2950  -31.5350   26.1930 C   0  0  0  0  0  1  0  0  0  0  0  0
  -26.9840  -30.3940   24.7460 C   0  0  0  0  0  1  0  0  0  0  0  0
  -27.5390  -32.5730   25.7930 C   0  0  0  0  0  1  0  0  0  0  0  0
  -25.5640  -33.9280   24.1750 N   0  0  0  0  0  0  0  0  0  0  0  0
  -25.8890  -34.9830   23.4150 C   0  0  0  0  0  0  0  0  0  0  0  0
  -26.5560  -34.8810   22.3810 O   0  0  0  0  0  0  0  0  0  0  0  0
  -24.9580  -34.0740   24.9680 H   0  0  0  0  0  0  0  0  0  0  0  0
  -24.1530  -36.7700   23.0820 C   0  0  0  0  0  1  0  0  0  0  0  0
  -25.4010  -36.3650   23.8820 C   0  0  0  0  0  3  0  0  0  0  0  0
  -27.5350  -37.2610   24.7020 C   0  0  0  0  0  1  0  0  0  0  0  0
  -26.4270  -37.4240   23.7650 N   0  0  0  0  0  0  0  0  0  0  0  0
  -26.0180  -38.3400   23.9220 H   0  0  0  0  0  0  0  0  0  0  0  0
  -26.5020  -21.0450   18.2000 C   0  0  0  0  0  1  0  0  0  0  0  0
  -27.9130  -20.4540   18.4170 C   0  0  0  0  0  2  0  0  0  0  0  0
  1 93  1  0
  1 10  1  0
  2 15  1  0
  3  8  1  0
  4  5  1  0
  4  3  1  0
  6  5  1  0
  6 21  1  0
  6  7  1  0
  8  2  1  0
  8  7  1  0
  9  2  2  0
 10 14  1  0
 10 11  2  0
 11 13  1  0
 11 16  1  0
 12 15  1  0
 12 16  1  0
 14 12  2  0
 15 17  1  0
 18 19  2  0
 19 38  1  0
 20 19  1  0
 20 23  1  0
 21 18  1  0
 21 22  1  0
 22 20  2  0
 23 24  1  0
 24 25  2  0
 26 29  1  0
 26 25  1  0
 27 26  2  0
 28 27  1  0
 28 23  2  0
 29 30  1  0
 30 31  1  0
 31 32  2  0
 33 32  1  0
 33 37  1  0
 34 33  2  0
 35 30  2  0
 35 34  1  0
 36 35  1  0
 38 39  1  0
 39 42  1  0
 39 41  1  0
 40 38  2  0
 43 44  1  0
 43 18  1  0
 45 43  1  0
 46  1  1  0
 46 49  1  0
 47 46  2  0
 49 48  1  0
 50 51  1  0
 50 49  1  0
 52 63  2  0
 53 51  1  0
 53 58  1  0
 54 62  1  0
 54 64  1  0
 55 61  1  0
 55 57  1  0
 56 62  1  0
 57 56  1  0
 58 57  2  0
 59 60  1  0
 59 53  2  0
 60 55  2  0
 61 54  1  0
 62 52  1  0
 64 66  2  0
 65 64  1  0
 67 65  1  0
 68 77  2  0
 68 73  1  0
 69 65  1  0
 69 73  1  0
 70 69  1  0
 71 72  1  0
 71 70  1  0
 72 68  1  0
 73 74  2  0
 74 75  1  0
 76 75  2  0
 77 76  1  0
 78 52  1  0
 78 83  1  0
 78 79  1  0
 79 82  1  1
 79 80  1  0
 81 79  1  0
 83 86  1  0
 84 88  1  0
 84 83  1  0
 85 84  2  0
 88 87  1  0
 90 88  1  0
 90 91  1  0
 90 89  1  0
 92 93  1  0
M  ISO  4   2 100  15 100  50 101  51 101
M  END
>  <TORSDO>  (76) 
F 20

>  <SCORE>  (76) 
-14.204

>  <name>  (76) 
76

>  <ligand_id>  (76) 
76

>  <original_smiles>  (76) 
[H]c1c([H])c([H])c2c(c1[H])C([H])([H])C([H])([H])C([H])([H])C2([H])N([H])C(=O)C1([H])N(C(=O)C([H])(N([H])C(=O)C([H])(N([H])C([H])([H])[H])C([H])([H])[H])C(C([H])([H])[H])(C([H])([H])[H])C([H])([H])[H])C([H])([H])c2c([H])c(OC([H])([H])C([H])(C(=O)C([H])(c3nc(N([H])C(=O)N4C([H])([H])C([H])([H])C([H])([H])C([H])(n5nc(-c6c([H])c([H])c(Oc7c([H])c([H])c(F)c([H])c7F)c([H])c6[H])c(C(=O)N([H])[H])c5N([H])[H])C4([H])[H])sc3C([H])([H])[H])C([H])([H])C([H])([H])[H])C([H])([H])[H])c([H])c([H])c2C1([H])[H]

>  <smiles>  (76) 
[H]c1c([H])c([H])c2c(c1[H])C([H])([H])C([H])([H])C([H])([H])C2([H])N([H])C(=O)C1([H])N(C(=O)C([H])(N([H])C(=O)C([H])(N([H])C([H])([H])[H])C([H])([H])[H])C(C([H])([H])[H])(C([H])([H])[H])C([H])([H])[H])C([H])([H])c2c([H])c(OC([H])([H])C([H])(C(=O)C([H])(c3nc(N([H])C(=O)N4C([H])([H])C([H])([H])C([H])([H])C([H])(n5nc(-c6c([H])c([H])c(Oc7c([H])c([H])c(F)c([H])c7F)c([H])c6[H])c(C(=O)N([H])[H])c5N([H])[H])C4([H])[H])sc3C([H])([H])[H])C([H])([H])C([H])([H])[H])C([H])([H])[H])c([H])c([H])c2C1([H])[H]

$$$$
77:0:0
     RDKit          3D

 90 98  0  0  1  0  0  0  0  0999 V2000
  -27.4940  -21.8380   21.5400 C   0  0  0  0  0  1  0  0  0  0  0  0
  -27.2140  -21.7510   19.0600 C   0  0  0  0  0  1  0  0  0  0  0  0
  -28.2560  -21.8590   20.1960 C   0  0  2  0  0  0  0  0  0  0  0  0
  -30.5960  -18.6460   19.4590 C   0  0  0  0  0  3  0  0  0  0  0  0
  -29.7750  -17.7290   20.1210 C   0  0  0  0  0  0  0  0  0  0  0  0
  -29.1200  -20.4320   20.1500 C   0  0  0  0  0  0  0  0  0  0  0  0
  -30.2220  -20.0560   19.4490 N   0  0  0  0  0  0  0  0  0  0  0  0
  -28.4910  -18.8210   20.8070 S   0  0  0  0  0  0  0  0  0  0  0  0
  -30.5740  -15.1610   19.9130 C   0  0  0  0  0  0  0  0  0  0  0  0
  -30.4440  -12.8180   18.9400 C   0  0  0  0  0  2  0  0  0  0  0  0
  -29.4260  -12.7820   17.7740 C   0  0  0  0  0  2  0  0  0  0  0  0
  -28.0000  -12.5380   18.3000 C   0  0  0  0  0  2  0  0  0  0  0  0
  -27.6590  -13.4420   19.5110 C   0  0  0  0  0  3  0  0  0  0  0  0
  -28.7850  -13.4380   20.5680 C   0  0  0  0  0  2  0  0  0  0  0  0
  -30.0170  -13.8790   19.8970 N   0  0  0  0  0  0  0  0  0  0  0  0
  -31.7320  -15.2770   19.4970 O   0  0  0  0  0  0  0  0  0  0  0  0
  -29.7670  -16.2830   20.2640 N   0  0  0  0  0  0  0  0  0  0  0  0
  -28.9120  -15.9570   20.6860 H   0  0  0  0  0  0  0  0  0  0  0  0
  -25.3340  -13.9930   20.4290 C   0  0  0  0  0  0  0  0  0  0  0  0
  -24.2960  -13.2030   20.8430 C   0  0  0  0  0  0  0  0  0  0  0  0
  -24.7550  -11.8540   20.7300 C   0  0  0  0  0  0  0  0  0  0  0  0
  -26.3570  -13.1250   20.0870 N   0  0  0  0  0  0  0  0  0  0  0  0
  -26.0210  -11.8320   20.3320 N   0  0  0  0  0  0  0  0  0  0  0  0
  -24.0410  -10.5850   20.9200 C   0  0  0  0  0  0  0  0  0  0  0  0
  -24.4730   -9.6270   21.8630 C   0  0  0  0  0  3  0  0  0  0  0  0
  -23.7570   -8.4240   22.0410 C   0  0  0  0  0  3  0  0  0  0  0  0
  -22.5930   -8.1710   21.2770 C   0  0  0  0  0  0  0  0  0  0  0  0
  -22.1800   -9.1170   20.3230 C   0  0  0  0  0  3  0  0  0  0  0  0
  -22.8980  -10.3120   20.1420 C   0  0  0  0  0  3  0  0  0  0  0  0
  -21.8480   -7.0190   21.3650 O   0  0  0  0  0  0  0  0  0  0  0  0
  -21.7100   -6.3400   22.5480 C   0  0  0  0  0  0  0  0  0  0  0  0
  -21.1650   -6.9500   23.6990 C   0  0  0  0  0  3  0  0  0  0  0  0
  -20.9770   -6.1960   24.8740 C   0  0  0  0  0  3  0  0  0  0  0  0
  -21.3230   -4.8310   24.9000 C   0  0  0  0  0  0  0  0  0  0  0  0
  -21.8620   -4.2210   23.7520 C   0  0  0  0  0  3  0  0  0  0  0  0
  -22.0510   -4.9720   22.5800 C   0  0  0  0  0  0  0  0  0  0  0  0
  -22.5500   -4.3740   21.4720 F   0  0  0  0  0  0  0  0  0  0  0  0
  -21.1360   -4.1040   26.0260 F   0  0  0  0  0  0  0  0  0  0  0  0
  -22.9210  -13.6690   21.2250 C   0  0  0  0  0  0  0  0  0  0  0  0
  -22.2530  -12.9380   22.1110 N   0  0  0  0  0  0  0  0  0  0  0  0
  -22.4510  -14.7130   20.7740 O   0  0  0  0  0  0  0  0  0  0  0  0
  -22.6490  -12.0940   22.4970 H   0  0  0  0  0  0  0  0  0  0  0  0
  -21.3310  -13.2260   22.4080 H   0  0  0  0  0  0  0  0  0  0  0  0
  -25.4860  -15.3690   20.2880 N   0  0  0  0  0  0  0  0  0  0  0  0
  -24.7240  -16.0170   20.4570 H   0  0  0  0  0  0  0  0  0  0  0  0
  -26.2970  -15.8130   19.8780 H   0  0  0  0  0  0  0  0  0  0  0  0
  -28.8630  -23.4210   20.1200 C   0  0  0  0  0  0  0  0  0  0  0  0
  -30.0770  -23.6030   20.2670 O   0  0  0  0  0  0  0  0  0  0  0  0
  -27.8820  -24.7570   19.8820 C   0  0  0  0  0  2  0  0  0  0  0  0
  -28.2550  -26.2620   20.1180 O   0  0  0  0  0  0  0  0  0  0  0  0
  -24.6420  -31.9230   23.2310 C   0  0  0  0  0  0  0  0  0  0  0  0
  -27.2140  -27.2710   20.0800 C   0  0  0  0  0  0  0  0  0  0  0  0
  -23.4340  -30.5490   21.5820 C   0  0  0  0  0  3  0  0  0  0  0  0
  -24.8780  -29.0150   20.1100 C   0  0  0  0  0  0  0  0  0  0  0  0
  -25.9870  -30.8320   21.3960 C   0  0  0  0  0  2  0  0  0  0  0  0
  -26.0640  -29.4510   20.7160 C   0  0  0  0  0  0  0  0  0  0  0  0
  -27.2330  -28.5960   20.6850 C   0  0  0  0  0  3  0  0  0  0  0  0
  -26.0000  -26.9480   19.4310 C   0  0  0  0  0  3  0  0  0  0  0  0
  -24.8610  -27.7780   19.4520 C   0  0  0  0  0  3  0  0  0  0  0  0
  -23.6470  -29.9030   20.1870 C   0  0  0  0  0  2  0  0  0  0  0  0
  -24.7090  -31.1230   22.1250 N   0  0  0  0  0  0  0  0  0  0  0  0
  -23.5590  -32.1900   23.7760 O   0  0  0  0  0  0  0  0  0  0  0  0
  -22.7730  -29.5180   22.5310 C   0  0  0  0  0  0  0  0  0  0  0  0
  -21.4460  -29.3320   22.4080 N   0  0  0  0  0  0  0  0  0  0  0  0
  -23.4560  -28.8900   23.3430 O   0  0  0  0  0  0  0  0  0  0  0  0
  -20.9490  -29.8960   21.7320 H   0  0  0  0  0  0  0  0  0  0  0  0
  -18.0860  -28.0690   22.8950 C   0  0  0  0  0  0  0  0  0  0  0  0
  -20.6400  -28.3750   23.1720 C   0  0  0  0  0  3  0  0  0  0  0  0
  -20.7650  -26.9470   22.5890 C   0  0  0  0  0  2  0  0  0  0  0  0
  -19.6730  -26.6110   21.5690 C   0  0  0  0  0  2  0  0  0  0  0  0
  -18.2880  -26.7290   22.2080 C   0  0  0  0  0  2  0  0  0  0  0  0
  -19.1910  -28.8460   23.3360 C   0  0  0  0  0  0  0  0  0  0  0  0
  -18.9470  -30.0970   23.9420 C   0  0  0  0  0  3  0  0  0  0  0  0
  -17.6320  -30.5710   24.1130 C   0  0  0  0  0  3  0  0  0  0  0  0
  -16.5430  -29.7910   23.6870 C   0  0  0  0  0  3  0  0  0  0  0  0
  -16.7700  -28.5400   23.0860 C   0  0  0  0  0  3  0  0  0  0  0  0
  -25.9210  -32.5590   23.8560 C   0  0  0  0  0  3  0  0  0  0  0  0
  -26.4420  -31.7800   25.1250 C   0  0  1  0  0  0  0  0  0  0  0  0
  -25.3530  -31.5310   26.1930 C   0  0  0  0  0  1  0  0  0  0  0  0
  -27.0300  -30.4070   24.7270 C   0  0  0  0  0  1  0  0  0  0  0  0
  -27.5930  -32.5730   25.7880 C   0  0  0  0  0  1  0  0  0  0  0  0
  -25.6050  -33.9540   24.2040 N   0  0  0  0  0  0  0  0  0  0  0  0
  -25.9010  -35.0180   23.4460 C   0  0  0  0  0  0  0  0  0  0  0  0
  -26.5350  -34.9290   22.3910 O   0  0  0  0  0  0  0  0  0  0  0  0
  -25.0400  -34.0950   25.0290 H   0  0  0  0  0  0  0  0  0  0  0  0
  -24.1320  -36.7890   23.1890 C   0  0  0  0  0  1  0  0  0  0  0  0
  -25.4210  -36.4000   23.9320 C   0  0  0  0  0  3  0  0  0  0  0  0
  -27.5800  -37.3180   24.6560 C   0  0  0  0  0  1  0  0  0  0  0  0
  -26.4320  -37.4680   23.7670 N   0  0  0  0  0  0  0  0  0  0  0  0
  -26.0200  -38.3820   23.9330 H   0  0  0  0  0  0  0  0  0  0  0  0
  3  2  1  6
  3  1  1  0
  4  5  2  0
  5 17  1  0
  5  8  1  0
  6  3  1  0
  6  8  1  0
  7  4  1  0
  7  6  2  0
  9 17  1  0
 10 15  1  0
 11 12  1  0
 11 10  1  0
 13 12  1  0
 13 22  1  0
 13 14  1  0
 15  9  1  0
 15 14  1  0
 16  9  2  0
 17 18  1  0
 19 20  2  0
 20 39  1  0
 21 20  1  0
 21 24  1  0
 22 23  1  0
 22 19  1  0
 23 21  2  0
 24 25  1  0
 25 26  2  0
 27 30  1  0
 27 26  1  0
 28 27  2  0
 29 28  1  0
 29 24  2  0
 30 31  1  0
 31 36  2  0
 31 32  1  0
 32 33  2  0
 33 34  1  0
 34 38  1  0
 35 34  2  0
 36 35  1  0
 37 36  1  0
 39 40  1  0
 40 43  1  0
 40 42  1  0
 41 39  2  0
 44 19  1  0
 44 45  1  0
 46 44  1  0
 47  3  1  0
 47 48  2  0
 49 50  1  0
 49 47  1  0
 51 62  2  0
 52 50  1  0
 52 57  1  0
 53 61  1  0
 53 63  1  0
 54 60  1  0
 54 56  1  0
 55 61  1  0
 56 55  1  0
 57 56  2  0
 58 59  1  0
 58 52  2  0
 59 54  2  0
 60 53  1  0
 61 51  1  0
 63 65  2  0
 64 63  1  0
 66 64  1  0
 67 76  2  0
 67 72  1  0
 68 64  1  0
 68 72  1  0
 69 68  1  0
 70 71  1  0
 70 69  1  0
 71 67  1  0
 72 73  2  0
 73 74  1  0
 75 74  2  0
 76 75  1  0
 77 51  1  0
 77 82  1  0
 77 78  1  0
 78 81  1  1
 78 79  1  0
 80 78  1  0
 82 85  1  0
 83 87  1  0
 83 82  1  0
 84 83  2  0
 87 86  1  0
 89 87  1  0
 89 90  1  0
 89 88  1  0
M  ISO  4   9 100  17 100  49 101  50 101
M  END
>  <TORSDO>  (77) 
F 19

>  <SCORE>  (77) 
-13.450

>  <name>  (77) 
77

>  <ligand_id>  (77) 
77

>  <original_smiles>  (77) 
[H]c1nc(C(C(=O)C([H])([H])Oc2c([H])c([H])c3c(c2[H])C([H])([H])N(C(=O)C([H])(N([H])C(=O)C([H])(N([H])C([H])([H])[H])C([H])([H])[H])C(C([H])([H])[H])(C([H])([H])[H])C([H])([H])[H])C([H])(C(=O)N([H])C2([H])c4c([H])c([H])c([H])c([H])c4C([H])([H])C([H])([H])C2([H])[H])C3([H])[H])(C([H])([H])[H])C([H])([H])[H])sc1N([H])C(=O)N1C([H])([H])C([H])([H])C([H])([H])C([H])(n2nc(-c3c([H])c([H])c(Oc4c([H])c([H])c(F)c([H])c4F)c([H])c3[H])c(C(=O)N([H])[H])c2N([H])[H])C1([H])[H]

>  <smiles>  (77) 
[H]c1nc(C(C(=O)C([H])([H])Oc2c([H])c([H])c3c(c2[H])C([H])([H])N(C(=O)C([H])(N([H])C(=O)C([H])(N([H])C([H])([H])[H])C([H])([H])[H])C(C([H])([H])[H])(C([H])([H])[H])C([H])([H])[H])C([H])(C(=O)N([H])C2([H])c4c([H])c([H])c([H])c([H])c4C([H])([H])C([H])([H])C2([H])[H])C3([H])[H])(C([H])([H])[H])C([H])([H])[H])sc1N([H])C(=O)N1C([H])([H])C([H])([H])C([H])([H])C([H])(n2nc(-c3c([H])c([H])c(Oc4c([H])c([H])c(F)c([H])c4F)c([H])c3[H])c(C(=O)N([H])[H])c2N([H])[H])C1([H])[H]

$$$$
78:0:0
     RDKit          3D

 95103  0  0  1  0  0  0  0  0999 V2000
  -29.5640  -18.9020   18.7690 C   0  0  0  0  0  3  0  0  0  0  0  0
  -29.4380  -18.7910   20.1320 C   0  0  0  0  0  0  0  0  0  0  0  0
  -28.8170  -21.0970   19.7720 C   0  0  0  0  0  0  0  0  0  0  0  0
  -28.9810  -20.0660   20.6620 N   0  0  0  0  0  0  0  0  0  0  0  0
  -28.3960  -22.4590   20.0510 N   0  0  0  0  0  0  0  0  0  0  0  0
  -29.2110  -20.5210   18.1500 S   0  0  0  0  0  0  0  0  0  0  0  0
  -28.2360  -22.5730   21.0450 H   0  0  0  0  0  0  0  0  0  0  0  0
  -27.3830  -23.6710   18.1000 C   0  0  0  0  0  1  0  0  0  0  0  0
  -28.2700  -23.8090   19.3440 C   0  0  0  0  0  3  0  0  0  0  0  0
  -28.4210  -25.1790   21.5520 C   0  0  0  0  0  1  0  0  0  0  0  0
  -27.7330  -25.1040   20.1850 C   0  0  0  0  0  3  0  0  0  0  0  0
  -27.8570  -26.5050   19.6380 O   0  0  0  0  0  0  0  0  0  0  0  0
  -24.4730  -31.9220   23.1460 C   0  0  0  0  0  0  0  0  0  0  0  0
  -26.7750  -27.4080   19.7480 C   0  0  0  0  0  0  0  0  0  0  0  0
  -23.1380  -30.6160   21.5320 C   0  0  0  0  0  3  0  0  0  0  0  0
  -24.4610  -29.0950   19.9520 C   0  0  0  0  0  0  0  0  0  0  0  0
  -25.6680  -30.8850   21.1980 C   0  0  0  0  0  2  0  0  0  0  0  0
  -25.6780  -29.5290   20.4950 C   0  0  0  0  0  0  0  0  0  0  0  0
  -26.8390  -28.6970   20.3810 C   0  0  0  0  0  3  0  0  0  0  0  0
  -25.5360  -27.0450   19.1800 C   0  0  0  0  0  3  0  0  0  0  0  0
  -24.3920  -27.8630   19.2870 C   0  0  0  0  0  3  0  0  0  0  0  0
  -23.2510  -29.9980   20.1150 C   0  0  0  0  0  2  0  0  0  0  0  0
  -24.4500  -31.1580   22.0140 N   0  0  0  0  0  0  0  0  0  0  0  0
  -23.4320  -32.1930   23.7630 O   0  0  0  0  0  0  0  0  0  0  0  0
  -22.5180  -29.5710   22.4910 C   0  0  0  0  0  0  0  0  0  0  0  0
  -21.1910  -29.3740   22.4010 N   0  0  0  0  0  0  0  0  0  0  0  0
  -23.2300  -28.9380   23.2780 O   0  0  0  0  0  0  0  0  0  0  0  0
  -20.6730  -29.9370   21.7410 H   0  0  0  0  0  0  0  0  0  0  0  0
  -17.8600  -28.0680   22.9360 C   0  0  0  0  0  0  0  0  0  0  0  0
  -20.4130  -28.4070   23.1780 C   0  0  0  0  0  3  0  0  0  0  0  0
  -20.5540  -26.9820   22.5960 C   0  0  0  0  0  2  0  0  0  0  0  0
  -19.4510  -26.6270   21.5940 C   0  0  0  0  0  2  0  0  0  0  0  0
  -18.0720  -26.7270   22.2520 C   0  0  0  0  0  2  0  0  0  0  0  0
  -18.9580  -28.8630   23.3580 C   0  0  0  0  0  0  0  0  0  0  0  0
  -18.7060  -30.1160   23.9580 C   0  0  0  0  0  3  0  0  0  0  0  0
  -17.3870  -30.5750   24.1390 C   0  0  0  0  0  3  0  0  0  0  0  0
  -16.3030  -29.7770   23.7330 C   0  0  0  0  0  3  0  0  0  0  0  0
  -16.5400  -28.5250   23.1390 C   0  0  0  0  0  3  0  0  0  0  0  0
  -25.8060  -32.5080   23.7080 C   0  0  0  0  0  3  0  0  0  0  0  0
  -25.5510  -33.9020   24.0970 N   0  0  0  0  0  0  0  0  0  0  0  0
  -25.8910  -34.9710   23.3630 C   0  0  0  0  0  0  0  0  0  0  0  0
  -26.5230  -34.8810   22.3060 O   0  0  0  0  0  0  0  0  0  0  0  0
  -24.9920  -34.0490   24.9250 H   0  0  0  0  0  0  0  0  0  0  0  0
  -24.2270  -36.8410   23.1090 C   0  0  0  0  0  1  0  0  0  0  0  0
  -25.4640  -36.3570   23.8830 C   0  0  0  0  0  3  0  0  0  0  0  0
  -27.6410  -37.1320   24.7140 C   0  0  0  0  0  1  0  0  0  0  0  0
  -26.5340  -37.3750   23.7930 N   0  0  0  0  0  0  0  0  0  0  0  0
  -26.1650  -38.3040   23.9770 H   0  0  0  0  0  0  0  0  0  0  0  0
  -26.3740  -31.6900   24.9320 C   0  0  1  0  0  0  0  0  0  0  0  0
  -25.3390  -31.4530   26.0570 C   0  0  0  0  0  1  0  0  0  0  0  0
  -26.8980  -30.3090   24.4740 C   0  0  0  0  0  1  0  0  0  0  0  0
  -27.5840  -32.4340   25.5450 C   0  0  0  0  0  1  0  0  0  0  0  0
  -29.7990  -17.5310   21.0350 C   0  0  0  0  0  3  0  0  0  0  0  0
  -30.5120  -14.9990   20.3820 C   0  0  0  0  0  0  0  0  0  0  0  0
  -30.4230  -12.6670   19.4690 C   0  0  0  0  0  2  0  0  0  0  0  0
  -29.4950  -12.6220   18.2360 C   0  0  0  0  0  2  0  0  0  0  0  0
  -28.0270  -12.4210   18.6640 C   0  0  0  0  0  2  0  0  0  0  0  0
  -27.6050  -13.3670   19.8180 C   0  0  0  0  0  3  0  0  0  0  0  0
  -28.6500  -13.3780   20.9530 C   0  0  0  0  0  2  0  0  0  0  0  0
  -29.9340  -13.7520   20.3460 N   0  0  0  0  0  0  0  0  0  0  0  0
  -31.7100  -15.1120   20.1170 O   0  0  0  0  0  0  0  0  0  0  0  0
  -29.6610  -16.0900   20.5100 N   0  0  0  0  0  0  0  0  0  0  0  0
  -28.6970  -15.8020   20.4990 H   0  0  0  0  0  0  0  0  0  0  0  0
  -25.2140  -13.9280   20.5620 C   0  0  0  0  0  0  0  0  0  0  0  0
  -24.1580  -13.1410   20.9290 C   0  0  0  0  0  0  0  0  0  0  0  0
  -24.6340  -11.7950   20.8850 C   0  0  0  0  0  0  0  0  0  0  0  0
  -26.2660  -13.0610   20.3120 N   0  0  0  0  0  0  0  0  0  0  0  0
  -25.9250  -11.7720   20.5710 N   0  0  0  0  0  0  0  0  0  0  0  0
  -23.9220  -10.5240   21.0620 C   0  0  0  0  0  0  0  0  0  0  0  0
  -24.3570   -9.5590   21.9960 C   0  0  0  0  0  3  0  0  0  0  0  0
  -23.6460   -8.3510   22.1610 C   0  0  0  0  0  3  0  0  0  0  0  0
  -22.4840   -8.1010   21.3920 C   0  0  0  0  0  0  0  0  0  0  0  0
  -22.0680   -9.0550   20.4470 C   0  0  0  0  0  3  0  0  0  0  0  0
  -22.7810  -10.2550   20.2800 C   0  0  0  0  0  3  0  0  0  0  0  0
  -21.7430   -6.9460   21.4670 O   0  0  0  0  0  0  0  0  0  0  0  0
  -21.6770   -6.2070   22.6210 C   0  0  0  0  0  0  0  0  0  0  0  0
  -21.1960   -6.7550   23.8310 C   0  0  0  0  0  3  0  0  0  0  0  0
  -21.0790   -5.9410   24.9750 C   0  0  0  0  0  3  0  0  0  0  0  0
  -21.4360   -4.5810   24.9100 C   0  0  0  0  0  0  0  0  0  0  0  0
  -21.9120   -4.0340   23.7070 C   0  0  0  0  0  3  0  0  0  0  0  0
  -22.0300   -4.8450   22.5640 C   0  0  0  0  0  0  0  0  0  0  0  0
  -22.4690   -4.3080   21.4010 F   0  0  0  0  0  0  0  0  0  0  0  0
  -21.3170   -3.7960   26.0070 F   0  0  0  0  0  0  0  0  0  0  0  0
  -22.7560  -13.6030   21.2020 C   0  0  0  0  0  0  0  0  0  0  0  0
  -22.0340  -12.8980   22.0660 N   0  0  0  0  0  0  0  0  0  0  0  0
  -22.3070  -14.6230   20.6830 O   0  0  0  0  0  0  0  0  0  0  0  0
  -22.4090  -12.0730   22.5110 H   0  0  0  0  0  0  0  0  0  0  0  0
  -21.0950  -13.1920   22.2920 H   0  0  0  0  0  0  0  0  0  0  0  0
  -25.3590  -15.3040   20.3990 N   0  0  0  0  0  0  0  0  0  0  0  0
  -24.5710  -15.9320   20.5120 H   0  0  0  0  0  0  0  0  0  0  0  0
  -26.1750  -15.7610   20.0150 H   0  0  0  0  0  0  0  0  0  0  0  0
  -31.1760  -17.8600   21.6550 C   0  0  0  0  0  0  0  0  0  0  0  0
  -32.2560  -17.5580   21.1400 O   0  0  0  0  0  0  0  0  0  0  0  0
  -31.9920  -19.9500   22.8810 C   0  0  0  0  0  1  0  0  0  0  0  0
  -31.1610  -18.6580   22.9620 C   0  0  0  0  0  2  0  0  0  0  0  0
  1  2  2  0
  2  4  1  0
  2 53  1  0
  3  5  1  0
  3  4  2  0
  5  7  1  0
  6  1  1  0
  6  3  1  0
  9  8  1  0
  9  5  1  0
  9 11  1  0
 11 10  1  0
 12 14  1  0
 12 11  1  0
 13 24  2  0
 14 19  1  0
 15 23  1  0
 15 25  1  0
 16 22  1  0
 16 18  1  0
 17 23  1  0
 18 17  1  0
 19 18  2  0
 20 21  1  0
 20 14  2  0
 21 16  2  0
 22 15  1  0
 23 13  1  0
 25 27  2  0
 26 25  1  0
 28 26  1  0
 29 38  2  0
 29 34  1  0
 30 26  1  0
 30 34  1  0
 31 30  1  0
 32 33  1  0
 32 31  1  0
 33 29  1  0
 34 35  2  0
 35 36  1  0
 37 36  2  0
 38 37  1  0
 39 13  1  0
 39 40  1  0
 39 49  1  0
 40 43  1  0
 41 45  1  0
 41 40  1  0
 42 41  2  0
 45 44  1  0
 47 45  1  0
 47 48  1  0
 47 46  1  0
 49 52  1  1
 49 50  1  0
 51 49  1  0
 53 92  1  0
 54 62  1  0
 55 60  1  0
 56 57  1  0
 56 55  1  0
 58 57  1  0
 58 67  1  0
 58 59  1  0
 60 54  1  0
 60 59  1  0
 61 54  2  0
 62 53  1  0
 63 62  1  0
 64 65  2  0
 65 84  1  0
 66 65  1  0
 66 69  1  0
 67 64  1  0
 67 68  1  0
 68 66  2  0
 69 70  1  0
 70 71  2  0
 72 75  1  0
 72 71  1  0
 73 72  2  0
 74 73  1  0
 74 69  2  0
 75 76  1  0
 76 77  1  0
 77 78  2  0
 79 78  1  0
 79 83  1  0
 80 79  2  0
 81 76  2  0
 81 80  1  0
 82 81  1  0
 84 85  1  0
 85 88  1  0
 85 87  1  0
 86 84  2  0
 89 90  1  0
 89 64  1  0
 91 89  1  0
 92 95  1  0
 93 92  2  0
 94 95  1  0
M  ISO  4  11 101  12 101  54 100  62 100
M  END
>  <TORSDO>  (78) 
F 21

>  <SCORE>  (78) 
-13.515

>  <name>  (78) 
78

>  <ligand_id>  (78) 
78

>  <original_smiles>  (78) 
[H]c1sc(N([H])C([H])(C([H])([H])[H])C([H])(Oc2c([H])c([H])c3c(c2[H])C([H])([H])N(C(=O)C([H])(N([H])C(=O)C([H])(N([H])C([H])([H])[H])C([H])([H])[H])C(C([H])([H])[H])(C([H])([H])[H])C([H])([H])[H])C([H])(C(=O)N([H])C2([H])c4c([H])c([H])c([H])c([H])c4C([H])([H])C([H])([H])C2([H])[H])C3([H])[H])C([H])([H])[H])nc1C([H])(C(=O)C([H])([H])C([H])([H])[H])N([H])C(=O)N1C([H])([H])C([H])([H])C([H])([H])C([H])(n2nc(-c3c([H])c([H])c(Oc4c([H])c([H])c(F)c([H])c4F)c([H])c3[H])c(C(=O)N([H])[H])c2N([H])[H])C1([H])[H]

>  <smiles>  (78) 
[H]c1sc(N([H])C([H])(C([H])([H])[H])C([H])(Oc2c([H])c([H])c3c(c2[H])C([H])([H])N(C(=O)C([H])(N([H])C(=O)C([H])(N([H])C([H])([H])[H])C([H])([H])[H])C(C([H])([H])[H])(C([H])([H])[H])C([H])([H])[H])C([H])(C(=O)N([H])C2([H])c4c([H])c([H])c([H])c([H])c4C([H])([H])C([H])([H])C2([H])[H])C3([H])[H])C([H])([H])[H])nc1C([H])(C(=O)C([H])([H])C([H])([H])[H])N([H])C(=O)N1C([H])([H])C([H])([H])C([H])([H])C([H])(n2nc(-c3c([H])c([H])c(Oc4c([H])c([H])c(F)c([H])c4F)c([H])c3[H])c(C(=O)N([H])[H])c2N([H])[H])C1([H])[H]

$$$$
79:0:0
     RDKit          3D

 97105  0  0  1  0  0  0  0  0999 V2000
  -28.1020  -18.6420   19.5100 C   0  0  0  0  0  3  0  0  0  0  0  0
  -29.3650  -18.6490   20.0550 C   0  0  0  0  0  0  0  0  0  0  0  0
  -28.7990  -20.9930   20.1040 C   0  0  0  0  0  0  0  0  0  0  0  0
  -29.7030  -20.0110   20.4170 N   0  0  0  0  0  0  0  0  0  0  0  0
  -28.9150  -22.4190   20.3320 N   0  0  0  0  0  0  0  0  0  0  0  0
  -27.3790  -20.2530   19.3690 S   0  0  0  0  0  0  0  0  0  0  0  0
  -29.6970  -22.6110   20.9500 H   0  0  0  0  0  0  0  0  0  0  0  0
  -29.0800  -24.0390   18.4560 C   0  0  0  0  0  1  0  0  0  0  0  0
  -28.3530  -23.7210   19.7700 C   0  0  0  0  0  3  0  0  0  0  0  0
  -28.3330  -25.0380   20.7290 C   0  0  0  0  0  2  0  0  0  0  0  0
  -28.3850  -26.4660   20.2530 O   0  0  0  0  0  0  0  0  0  0  0  0
  -24.5710  -31.8960   23.2820 C   0  0  0  0  0  0  0  0  0  0  0  0
  -27.2540  -27.3070   20.2840 C   0  0  0  0  0  0  0  0  0  0  0  0
  -23.4040  -30.4820   21.6290 C   0  0  0  0  0  3  0  0  0  0  0  0
  -24.8860  -28.9230   20.2390 C   0  0  0  0  0  0  0  0  0  0  0  0
  -25.9470  -30.8090   21.4850 C   0  0  0  0  0  2  0  0  0  0  0  0
  -26.0460  -29.4230   20.8440 C   0  0  0  0  0  0  0  0  0  0  0  0
  -27.2360  -28.6280   20.8470 C   0  0  0  0  0  3  0  0  0  0  0  0
  -26.0680  -26.8600   19.6680 C   0  0  0  0  0  3  0  0  0  0  0  0
  -24.8990  -27.6500   19.6450 C   0  0  0  0  0  3  0  0  0  0  0  0
  -23.6460  -29.7950   20.2590 C   0  0  0  0  0  2  0  0  0  0  0  0
  -24.6590  -31.0810   22.1910 N   0  0  0  0  0  0  0  0  0  0  0  0
  -23.4760  -32.1660   23.8000 O   0  0  0  0  0  0  0  0  0  0  0  0
  -22.7290  -29.4670   22.5850 C   0  0  0  0  0  0  0  0  0  0  0  0
  -21.4050  -29.2860   22.4410 N   0  0  0  0  0  0  0  0  0  0  0  0
  -23.3970  -28.8480   23.4150 O   0  0  0  0  0  0  0  0  0  0  0  0
  -20.9210  -29.8360   21.7460 H   0  0  0  0  0  0  0  0  0  0  0  0
  -18.0260  -28.0810   22.9090 C   0  0  0  0  0  0  0  0  0  0  0  0
  -20.5810  -28.3450   23.2020 C   0  0  0  0  0  3  0  0  0  0  0  0
  -20.6910  -26.9140   22.6250 C   0  0  0  0  0  2  0  0  0  0  0  0
  -19.6000  -26.5920   21.6000 C   0  0  0  0  0  2  0  0  0  0  0  0
  -18.2110  -26.7340   22.2310 C   0  0  0  0  0  2  0  0  0  0  0  0
  -19.1390  -28.8440   23.3500 C   0  0  0  0  0  0  0  0  0  0  0  0
  -18.9130  -30.1060   23.9430 C   0  0  0  0  0  3  0  0  0  0  0  0
  -17.6050  -30.6030   24.1010 C   0  0  0  0  0  3  0  0  0  0  0  0
  -16.5050  -29.8370   23.6750 C   0  0  0  0  0  3  0  0  0  0  0  0
  -16.7160  -28.5770   23.0850 C   0  0  0  0  0  3  0  0  0  0  0  0
  -25.8370  -32.5420   23.9240 C   0  0  0  0  0  3  0  0  0  0  0  0
  -25.5220  -33.9470   24.2190 N   0  0  0  0  0  0  0  0  0  0  0  0
  -25.8720  -34.9850   23.4480 C   0  0  0  0  0  0  0  0  0  0  0  0
  -26.5610  -34.8600   22.4330 O   0  0  0  0  0  0  0  0  0  0  0  0
  -24.9130  -34.1180   25.0060 H   0  0  0  0  0  0  0  0  0  0  0  0
  -24.1610  -36.7790   23.0180 C   0  0  0  0  0  1  0  0  0  0  0  0
  -25.3790  -36.3840   23.8680 C   0  0  0  0  0  3  0  0  0  0  0  0
  -27.4880  -37.2820   24.7450 C   0  0  0  0  0  1  0  0  0  0  0  0
  -26.4180  -37.4320   23.7620 N   0  0  0  0  0  0  0  0  0  0  0  0
  -26.0100  -38.3560   23.8790 H   0  0  0  0  0  0  0  0  0  0  0  0
  -26.3190  -31.7980   25.2310 C   0  0  1  0  0  0  0  0  0  0  0  0
  -25.1990  -31.5830   26.2740 C   0  0  0  0  0  1  0  0  0  0  0  0
  -26.9100  -30.4120   24.8860 C   0  0  0  0  0  1  0  0  0  0  0  0
  -27.4530  -32.6050   25.9050 C   0  0  0  0  0  1  0  0  0  0  0  0
  -30.3910  -17.4330   20.1600 C   0  0  0  0  0  3  0  0  0  0  0  0
  -30.6430  -14.7840   20.3070 C   0  0  0  0  0  0  0  0  0  0  0  0
  -30.4230  -12.4800   19.3880 C   0  0  0  0  0  2  0  0  0  0  0  0
  -29.4970  -12.5210   18.1530 C   0  0  0  0  0  2  0  0  0  0  0  0
  -28.0260  -12.3660   18.5810 C   0  0  0  0  0  2  0  0  0  0  0  0
  -27.6460  -13.2910   19.7700 C   0  0  0  0  0  3  0  0  0  0  0  0
  -28.7010  -13.2490   20.8960 C   0  0  0  0  0  2  0  0  0  0  0  0
  -29.9930  -13.5760   20.2870 N   0  0  0  0  0  0  0  0  0  0  0  0
  -31.8460  -14.8190   20.0430 O   0  0  0  0  0  0  0  0  0  0  0  0
  -29.9090  -15.9670   20.2810 N   0  0  0  0  0  0  0  0  0  0  0  0
  -28.9180  -15.8620   20.4330 H   0  0  0  0  0  0  0  0  0  0  0  0
  -25.2680  -13.8960   20.5170 C   0  0  0  0  0  0  0  0  0  0  0  0
  -24.1990  -13.1270   20.8870 C   0  0  0  0  0  0  0  0  0  0  0  0
  -24.6540  -11.7740   20.8500 C   0  0  0  0  0  0  0  0  0  0  0  0
  -26.3040  -13.0110   20.2710 N   0  0  0  0  0  0  0  0  0  0  0  0
  -25.9440  -11.7300   20.5370 N   0  0  0  0  0  0  0  0  0  0  0  0
  -23.9200  -10.5140   21.0340 C   0  0  0  0  0  0  0  0  0  0  0  0
  -24.3390   -9.5450   21.9720 C   0  0  0  0  0  3  0  0  0  0  0  0
  -23.6040   -8.3520   22.1470 C   0  0  0  0  0  3  0  0  0  0  0  0
  -22.4360   -8.1200   21.3820 C   0  0  0  0  0  0  0  0  0  0  0  0
  -22.0350   -9.0770   20.4340 C   0  0  0  0  0  3  0  0  0  0  0  0
  -22.7710  -10.2620   20.2590 C   0  0  0  0  0  3  0  0  0  0  0  0
  -21.6740   -6.9790   21.4650 O   0  0  0  0  0  0  0  0  0  0  0  0
  -21.5960   -6.2480   22.6230 C   0  0  0  0  0  0  0  0  0  0  0  0
  -21.1220   -6.8110   23.8280 C   0  0  0  0  0  3  0  0  0  0  0  0
  -20.9910   -6.0050   24.9780 C   0  0  0  0  0  3  0  0  0  0  0  0
  -21.3260   -4.6380   24.9220 C   0  0  0  0  0  0  0  0  0  0  0  0
  -21.7930   -4.0760   23.7210 C   0  0  0  0  0  3  0  0  0  0  0  0
  -21.9240   -4.8790   22.5750 C   0  0  0  0  0  0  0  0  0  0  0  0
  -22.3540   -4.3260   21.4150 F   0  0  0  0  0  0  0  0  0  0  0  0
  -21.1940   -3.8640   26.0240 F   0  0  0  0  0  0  0  0  0  0  0  0
  -22.8050  -13.6120   21.1620 C   0  0  0  0  0  0  0  0  0  0  0  0
  -22.0730  -12.9150   22.0250 N   0  0  0  0  0  0  0  0  0  0  0  0
  -22.3750  -14.6440   20.6490 O   0  0  0  0  0  0  0  0  0  0  0  0
  -22.4350  -12.0820   22.4650 H   0  0  0  0  0  0  0  0  0  0  0  0
  -21.1360  -13.2190   22.2500 H   0  0  0  0  0  0  0  0  0  0  0  0
  -25.4430  -15.2670   20.3470 N   0  0  0  0  0  0  0  0  0  0  0  0
  -24.6880  -15.9310   20.4830 H   0  0  0  0  0  0  0  0  0  0  0  0
  -26.2960  -15.7020   20.0260 H   0  0  0  0  0  0  0  0  0  0  0  0
  -31.4850  -17.6700   19.0450 C   0  0  0  0  0  3  0  0  0  0  0  0
  -31.4150  -16.7230   17.9170 N   0  0  0  0  0  4  0  0  0  0  0  0
  -30.4870  -16.6890   17.5280 H   0  0  0  0  0  0  0  0  0  0  0  0
  -31.6710  -15.8110   18.2770 H   0  0  0  0  0  0  0  0  0  0  0  0
  -32.0580  -16.9800   17.1890 H   0  0  0  0  0  0  0  0  0  0  0  0
  -33.2050  -18.9630   20.4780 C   0  0  0  0  0  1  0  0  0  0  0  0
  -32.9280  -17.7300   19.6060 C   0  0  0  0  0  2  0  0  0  0  0  0
  1  2  2  0
  2 52  1  0
  2  4  1  0
  3  5  1  0
  3  4  2  0
  5  7  1  0
  6  1  1  0
  6  3  1  0
  9  8  1  0
  9  5  1  0
  9 10  1  0
 11 13  1  0
 11 10  1  0
 12 23  2  0
 13 18  1  0
 14 22  1  0
 14 24  1  0
 15 21  1  0
 15 17  1  0
 16 22  1  0
 17 18  2  0
 17 16  1  0
 19 13  2  0
 20 19  1  0
 20 15  2  0
 21 14  1  0
 22 12  1  0
 24 26  2  0
 25 24  1  0
 27 25  1  0
 28 37  2  0
 28 33  1  0
 29 25  1  0
 29 33  1  0
 30 29  1  0
 31 32  1  0
 31 30  1  0
 32 28  1  0
 33 34  2  0
 34 35  1  0
 36 35  2  0
 37 36  1  0
 38 12  1  0
 38 39  1  0
 38 48  1  0
 39 42  1  0
 40 44  1  0
 40 39  1  0
 41 40  2  0
 44 43  1  0
 46 44  1  0
 46 47  1  0
 46 45  1  0
 48 51  1  1
 48 49  1  0
 50 48  1  0
 52 61  1  0
 54 59  1  0
 55 56  1  0
 55 54  1  0
 57 56  1  0
 57 66  1  0
 57 58  1  0
 59 53  1  0
 59 58  1  0
 60 53  2  0
 61 53  1  0
 61 62  1  0
 63 64  2  0
 64 83  1  0
 65 64  1  0
 65 68  1  0
 66 63  1  0
 66 67  1  0
 67 65  2  0
 68 69  1  0
 69 70  2  0
 71 74  1  0
 71 70  1  0
 72 71  2  0
 73 72  1  0
 73 68  2  0
 74 75  1  0
 75 76  1  0
 76 77  2  0
 78 77  1  0
 78 82  1  0
 79 78  2  0
 80 75  2  0
 80 79  1  0
 81 80  1  0
 83 84  1  0
 84 87  1  0
 84 86  1  0
 85 83  2  0
 88 89  1  0
 88 63  1  0
 90 88  1  0
 91 97  1  0
 91 52  1  0
 92 94  1  0
 92 91  1  0
 93 92  1  0
 95 92  1  0
 97 96  1  0
M  ISO  4  10 101  11 101  53 100  61 100
M  END
>  <TORSDO>  (79) 
F 22

>  <SCORE>  (79) 
-13.471

>  <name>  (79) 
79

>  <ligand_id>  (79) 
79

>  <original_smiles>  (79) 
[H]c1sc(N([H])C([H])(C([H])([H])[H])C([H])([H])Oc2c([H])c([H])c3c(c2[H])C([H])([H])N(C(=O)C([H])(N([H])C(=O)C([H])(N([H])C([H])([H])[H])C([H])([H])[H])C(C([H])([H])[H])(C([H])([H])[H])C([H])([H])[H])C([H])(C(=O)N([H])C2([H])c4c([H])c([H])c([H])c([H])c4C([H])([H])C([H])([H])C2([H])[H])C3([H])[H])nc1C([H])(N([H])C(=O)N1C([H])([H])C([H])([H])C([H])([H])C([H])(n2nc(-c3c([H])c([H])c(Oc4c([H])c([H])c(F)c([H])c4F)c([H])c3[H])c(C(=O)N([H])[H])c2N([H])[H])C1([H])[H])C([H])(C([H])([H])C([H])([H])[H])[N+]([H])([H])[H]

>  <smiles>  (79) 
[H]c1sc(N([H])C([H])(C([H])([H])[H])C([H])([H])Oc2c([H])c([H])c3c(c2[H])C([H])([H])N(C(=O)C([H])(N([H])C(=O)C([H])(N([H])C([H])([H])[H])C([H])([H])[H])C(C([H])([H])[H])(C([H])([H])[H])C([H])([H])[H])C([H])(C(=O)N([H])C2([H])c4c([H])c([H])c([H])c([H])c4C([H])([H])C([H])([H])C2([H])[H])C3([H])[H])nc1C([H])(N([H])C(=O)N1C([H])([H])C([H])([H])C([H])([H])C([H])(n2nc(-c3c([H])c([H])c(Oc4c([H])c([H])c(F)c([H])c4F)c([H])c3[H])c(C(=O)N([H])[H])c2N([H])[H])C1([H])[H])C([H])(C([H])([H])C([H])([H])[H])[N+]([H])([H])[H]

$$$$
80:0:0
     RDKit          3D

 95103  0  0  1  0  0  0  0  0999 V2000
  -29.7620  -17.9310   20.3000 C   0  0  0  0  0  0  0  0  0  0  0  0
  -29.8800  -17.7730   18.9350 C   0  0  0  0  0  0  0  0  0  0  0  0
  -29.4500  -20.1380   19.6270 C   0  0  0  0  0  0  0  0  0  0  0  0
  -29.5240  -19.2890   20.6720 N   0  0  0  0  0  0  0  0  0  0  0  0
  -29.2390  -21.5400   19.6360 N   0  0  0  0  0  0  0  0  0  0  0  0
  -29.6680  -19.2970   18.0920 S   0  0  0  0  0  0  0  0  0  0  0  0
  -29.1490  -21.9040   18.6900 H   0  0  0  0  0  0  0  0  0  0  0  0
  -30.1060  -16.6260   18.1830 N   0  0  0  0  0  0  0  0  0  0  0  0
  -30.3110  -16.7500   17.1980 H   0  0  0  0  0  0  0  0  0  0  0  0
  -30.7530  -15.9600   18.6020 H   0  0  0  0  0  0  0  0  0  0  0  0
  -29.8040  -16.8690   21.3690 C   0  0  0  0  0  3  0  0  0  0  0  0
  -30.1410  -15.5440   21.4950 C   0  0  0  0  0  3  0  0  0  0  0  0
  -30.7400  -14.5990   20.5390 C   0  0  0  0  0  0  0  0  0  0  0  0
  -30.4760  -12.4340   19.3280 C   0  0  0  0  0  2  0  0  0  0  0  0
  -29.5430  -12.6330   18.1160 C   0  0  0  0  0  2  0  0  0  0  0  0
  -28.0690  -12.4690   18.5250 C   0  0  0  0  0  2  0  0  0  0  0  0
  -27.7180  -13.2910   19.7960 C   0  0  0  0  0  3  0  0  0  0  0  0
  -28.7620  -13.0640   20.9140 C   0  0  0  0  0  2  0  0  0  0  0  0
  -30.0880  -13.4040   20.3730 N   0  0  0  0  0  0  0  0  0  0  0  0
  -31.7980  -14.8340   19.9520 O   0  0  0  0  0  0  0  0  0  0  0  0
  -25.3100  -13.8930   20.4660 C   0  0  0  0  0  0  0  0  0  0  0  0
  -24.2400  -13.1190   20.8280 C   0  0  0  0  0  0  0  0  0  0  0  0
  -24.7070  -11.7690   20.8150 C   0  0  0  0  0  0  0  0  0  0  0  0
  -26.3610  -13.0120   20.2570 N   0  0  0  0  0  0  0  0  0  0  0  0
  -26.0010  -11.7320   20.5260 N   0  0  0  0  0  0  0  0  0  0  0  0
  -23.9830  -10.5050   21.0060 C   0  0  0  0  0  0  0  0  0  0  0  0
  -24.4040   -9.5490   21.9560 C   0  0  0  0  0  3  0  0  0  0  0  0
  -23.6800   -8.3510   22.1350 C   0  0  0  0  0  3  0  0  0  0  0  0
  -22.5230   -8.1000   21.3610 C   0  0  0  0  0  0  0  0  0  0  0  0
  -22.1230   -9.0430   20.3990 C   0  0  0  0  0  3  0  0  0  0  0  0
  -22.8460  -10.2330   20.2180 C   0  0  0  0  0  3  0  0  0  0  0  0
  -21.7720   -6.9520   21.4470 O   0  0  0  0  0  0  0  0  0  0  0  0
  -21.6980   -6.2240   22.6080 C   0  0  0  0  0  0  0  0  0  0  0  0
  -21.2350   -6.7920   23.8150 C   0  0  0  0  0  3  0  0  0  0  0  0
  -21.1090   -5.9910   24.9670 C   0  0  0  0  0  3  0  0  0  0  0  0
  -21.4380   -4.6230   24.9150 C   0  0  0  0  0  0  0  0  0  0  0  0
  -21.8940   -4.0550   23.7120 C   0  0  0  0  0  3  0  0  0  0  0  0
  -22.0210   -4.8520   22.5620 C   0  0  0  0  0  0  0  0  0  0  0  0
  -22.4390   -4.2940   21.4000 F   0  0  0  0  0  0  0  0  0  0  0  0
  -21.3110   -3.8510   26.0190 F   0  0  0  0  0  0  0  0  0  0  0  0
  -22.8370  -13.5930   21.0780 C   0  0  0  0  0  0  0  0  0  0  0  0
  -22.1000  -12.8980   21.9370 N   0  0  0  0  0  0  0  0  0  0  0  0
  -22.4010  -14.6130   20.5430 O   0  0  0  0  0  0  0  0  0  0  0  0
  -22.4620  -12.0690   22.3870 H   0  0  0  0  0  0  0  0  0  0  0  0
  -21.1590  -13.2000   22.1470 H   0  0  0  0  0  0  0  0  0  0  0  0
  -25.4750  -15.2630   20.2780 N   0  0  0  0  0  0  0  0  0  0  0  0
  -24.7140  -15.9250   20.3800 H   0  0  0  0  0  0  0  0  0  0  0  0
  -26.3410  -15.7010   19.9880 H   0  0  0  0  0  0  0  0  0  0  0  0
  -30.1530  -22.6770   21.6230 C   0  0  0  0  0  1  0  0  0  0  0  0
  -29.0190  -22.6540   20.5880 C   0  0  0  0  0  3  0  0  0  0  0  0
  -28.8680  -24.0620   19.8620 C   0  0  0  0  0  3  0  0  0  0  0  0
  -27.9860  -23.8190   18.7760 O   0  0  0  0  0  0  0  0  0  0  0  0
  -27.2080  -23.4000   19.1310 H   0  0  0  0  0  0  0  0  0  0  0  0
  -28.2830  -25.2460   20.7350 C   0  0  0  0  0  2  0  0  0  0  0  0
  -28.4470  -26.6230   20.2550 O   0  0  0  0  0  0  0  0  0  0  0  0
  -24.5990  -31.9210   23.2400 C   0  0  0  0  0  0  0  0  0  0  0  0
  -27.3040  -27.4160   20.2330 C   0  0  0  0  0  0  0  0  0  0  0  0
  -23.4290  -30.5010   21.5920 C   0  0  0  0  0  3  0  0  0  0  0  0
  -24.9130  -28.9580   20.1980 C   0  0  0  0  0  0  0  0  0  0  0  0
  -25.9630  -30.8590   21.4340 C   0  0  0  0  0  2  0  0  0  0  0  0
  -26.0670  -29.4800   20.7970 C   0  0  0  0  0  0  0  0  0  0  0  0
  -27.2700  -28.7220   20.7990 C   0  0  0  0  0  3  0  0  0  0  0  0
  -26.1300  -26.9300   19.6180 C   0  0  0  0  0  3  0  0  0  0  0  0
  -24.9430  -27.6870   19.6010 C   0  0  0  0  0  3  0  0  0  0  0  0
  -23.6660  -29.8160   20.2200 C   0  0  0  0  0  2  0  0  0  0  0  0
  -24.6820  -31.1090   22.1460 N   0  0  0  0  0  0  0  0  0  0  0  0
  -23.5070  -32.1920   23.7580 O   0  0  0  0  0  0  0  0  0  0  0  0
  -22.7630  -29.4840   22.5470 C   0  0  0  0  0  0  0  0  0  0  0  0
  -21.4390  -29.3020   22.4060 N   0  0  0  0  0  0  0  0  0  0  0  0
  -23.4360  -28.8620   23.3730 O   0  0  0  0  0  0  0  0  0  0  0  0
  -20.9560  -29.8540   21.7110 H   0  0  0  0  0  0  0  0  0  0  0  0
  -18.0560  -28.1220   22.8860 C   0  0  0  0  0  0  0  0  0  0  0  0
  -20.6140  -28.3660   23.1700 C   0  0  0  0  0  3  0  0  0  0  0  0
  -20.7120  -26.9350   22.5900 C   0  0  0  0  0  2  0  0  0  0  0  0
  -19.6130  -26.6220   21.5700 C   0  0  0  0  0  2  0  0  0  0  0  0
  -18.2300  -26.7740   22.2090 C   0  0  0  0  0  2  0  0  0  0  0  0
  -19.1770  -28.8770   23.3250 C   0  0  0  0  0  0  0  0  0  0  0  0
  -18.9620  -30.1400   23.9180 C   0  0  0  0  0  3  0  0  0  0  0  0
  -17.6590  -30.6490   24.0770 C   0  0  0  0  0  3  0  0  0  0  0  0
  -16.5520  -29.8900   23.6580 C   0  0  0  0  0  3  0  0  0  0  0  0
  -16.7520  -28.6290   23.0680 C   0  0  0  0  0  3  0  0  0  0  0  0
  -25.8700  -32.5660   23.8760 C   0  0  0  0  0  3  0  0  0  0  0  0
  -25.5490  -33.9650   24.1890 N   0  0  0  0  0  0  0  0  0  0  0  0
  -25.8960  -35.0130   23.4310 C   0  0  0  0  0  0  0  0  0  0  0  0
  -26.5870  -34.9030   22.4150 O   0  0  0  0  0  0  0  0  0  0  0  0
  -24.9340  -34.1240   24.9760 H   0  0  0  0  0  0  0  0  0  0  0  0
  -24.1770  -36.8010   23.0190 C   0  0  0  0  0  1  0  0  0  0  0  0
  -25.3960  -36.4040   23.8680 C   0  0  0  0  0  3  0  0  0  0  0  0
  -27.5030  -37.2940   24.7570 C   0  0  0  0  0  1  0  0  0  0  0  0
  -26.4300  -37.4560   23.7780 N   0  0  0  0  0  0  0  0  0  0  0  0
  -26.0210  -38.3770   23.9110 H   0  0  0  0  0  0  0  0  0  0  0  0
  -26.3710  -31.8080   25.1660 C   0  0  1  0  0  0  0  0  0  0  0  0
  -25.2600  -31.5710   26.2160 C   0  0  0  0  0  1  0  0  0  0  0  0
  -26.9690  -30.4330   24.7920 C   0  0  0  0  0  1  0  0  0  0  0  0
  -27.5070  -32.6140   25.8390 C   0  0  0  0  0  1  0  0  0  0  0  0
  1  4  1  0
  1 11  1  0
  2  1  2  0
  3  5  1  0
  3  4  2  0
  5 50  1  0
  6  2  1  0
  6  3  1  0
  7  5  1  0
  8 10  1  0
  8  2  1  0
  9  8  1  0
 11 12  2  0
 13 12  1  0
 14 19  1  0
 15 16  1  0
 15 14  1  0
 17 16  1  0
 17 24  1  0
 17 18  1  0
 19 13  1  0
 19 18  1  0
 20 13  2  0
 21 22  2  0
 22 41  1  0
 23 22  1  0
 23 26  1  0
 24 21  1  0
 24 25  1  0
 25 23  2  0
 26 27  1  0
 27 28  2  0
 29 32  1  0
 29 28  1  0
 30 29  2  0
 31 30  1  0
 31 26  2  0
 32 33  1  0
 33 34  1  0
 34 35  2  0
 36 35  1  0
 36 40  1  0
 37 36  2  0
 38 33  2  0
 38 37  1  0
 39 38  1  0
 41 42  1  0
 42 45  1  0
 42 44  1  0
 43 41  2  0
 46 47  1  0
 46 21  1  0
 48 46  1  0
 50 49  1  0
 51 50  1  0
 51 54  1  0
 52 53  1  0
 52 51  1  0
 55 54  1  0
 56 67  2  0
 57 55  1  0
 57 62  1  0
 58 66  1  0
 58 68  1  0
 59 65  1  0
 59 61  1  0
 60 66  1  0
 61 62  2  0
 61 60  1  0
 63 57  2  0
 64 63  1  0
 64 59  2  0
 65 58  1  0
 66 56  1  0
 68 70  2  0
 69 68  1  0
 71 69  1  0
 72 81  2  0
 72 77  1  0
 73 69  1  0
 73 77  1  0
 74 73  1  0
 75 76  1  0
 75 74  1  0
 76 72  1  0
 77 78  2  0
 78 79  1  0
 80 79  2  0
 81 80  1  0
 82 56  1  0
 82 83  1  0
 82 92  1  0
 83 86  1  0
 84 88  1  0
 84 83  1  0
 85 84  2  0
 88 87  1  0
 90 88  1  0
 90 91  1  0
 90 89  1  0
 92 95  1  1
 92 93  1  0
 94 92  1  0
M  ISO  4  12 100  13 100  54 101  55 101
M  END
>  <TORSDO>  (80) 
F 22

>  <SCORE>  (80) 
-13.666

>  <name>  (80) 
80

>  <ligand_id>  (80) 
80

>  <original_smiles>  (80) 
[H]OC([H])(C([H])([H])Oc1c([H])c([H])c2c(c1[H])C([H])([H])N(C(=O)C([H])(N([H])C(=O)C([H])(N([H])C([H])([H])[H])C([H])([H])[H])C(C([H])([H])[H])(C([H])([H])[H])C([H])([H])[H])C([H])(C(=O)N([H])C1([H])c3c([H])c([H])c([H])c([H])c3C([H])([H])C([H])([H])C1([H])[H])C2([H])[H])C([H])(N([H])c1nc(C([H])=C([H])C(=O)N2C([H])([H])C([H])([H])C([H])([H])C([H])(n3nc(-c4c([H])c([H])c(Oc5c([H])c([H])c(F)c([H])c5F)c([H])c4[H])c(C(=O)N([H])[H])c3N([H])[H])C2([H])[H])c(N([H])[H])s1)C([H])([H])[H]

>  <smiles>  (80) 
[H]OC([H])(C([H])([H])Oc1c([H])c([H])c2c(c1[H])C([H])([H])N(C(=O)C([H])(N([H])C(=O)C([H])(N([H])C([H])([H])[H])C([H])([H])[H])C(C([H])([H])[H])(C([H])([H])[H])C([H])([H])[H])C([H])(C(=O)N([H])C1([H])c3c([H])c([H])c([H])c([H])c3C([H])([H])C([H])([H])C1([H])[H])C2([H])[H])C([H])(N([H])c1nc(C([H])=C([H])C(=O)N2C([H])([H])C([H])([H])C([H])([H])C([H])(n3nc(-c4c([H])c([H])c(Oc5c([H])c([H])c(F)c([H])c5F)c([H])c4[H])c(C(=O)N([H])[H])c3N([H])[H])C2([H])[H])c(N([H])[H])s1)C([H])([H])[H]

$$$$
81:0:0
     RDKit          3D

 93101  0  0  1  0  0  0  0  0999 V2000
  -28.7970  -23.9800   20.3170 C   0  0  0  0  0  0  0  0  0  0  0  0
  -28.2500  -22.7990   20.7360 N   0  0  0  0  0  0  0  0  0  0  0  0
  -29.6460  -24.0140   19.4220 O   0  0  0  0  0  0  0  0  0  0  0  0
  -27.4850  -22.9390   21.3840 H   0  0  0  0  0  0  0  0  0  0  0  0
  -27.6260  -20.5020   20.0770 C   0  0  0  0  0  3  0  0  0  0  0  0
  -28.1280  -19.1460   19.9930 C   0  0  0  0  0  3  0  0  0  0  0  0
  -28.5370  -21.4700   20.4480 C   0  0  0  0  0  0  0  0  0  0  0  0
  -29.4550  -19.0200   20.3360 C   0  0  0  0  0  0  0  0  0  0  0  0
  -30.0860  -20.6460   20.6970 S   0  0  0  0  0  0  0  0  0  0  0  0
  -31.3290  -17.6410   19.1490 O   0  0  0  0  0  0  0  0  0  0  0  0
  -31.3450  -17.7230   21.6820 O   0  0  0  0  0  0  0  0  0  0  0  0
  -30.5930  -17.5560   20.4260 S   0  0  1  0  0  0  0  0  0  0  0  0
  -30.5860  -14.7000   20.2080 C   0  0  0  0  0  0  0  0  0  0  0  0
  -30.3450  -12.4310   19.2400 C   0  0  0  0  0  2  0  0  0  0  0  0
  -29.4010  -12.5500   18.0230 C   0  0  0  0  0  2  0  0  0  0  0  0
  -27.9310  -12.3990   18.4610 C   0  0  0  0  0  2  0  0  0  0  0  0
  -27.5810  -13.2770   19.6930 C   0  0  0  0  0  3  0  0  0  0  0  0
  -28.6500  -13.1700   20.7970 C   0  0  0  0  0  2  0  0  0  0  0  0
  -29.9530  -13.4830   20.2010 N   0  0  0  0  0  0  0  0  0  0  0  0
  -31.7660  -14.7610   19.8460 O   0  0  0  0  0  0  0  0  0  0  0  0
  -29.8700  -15.9220   20.4780 N   0  0  0  0  0  0  0  0  0  0  0  0
  -28.9360  -15.9200   20.8770 H   0  0  0  0  0  0  0  0  0  0  0  0
  -25.2060  -13.8730   20.4610 C   0  0  0  0  0  0  0  0  0  0  0  0
  -24.1490  -13.0990   20.8540 C   0  0  0  0  0  0  0  0  0  0  0  0
  -24.6070  -11.7460   20.8110 C   0  0  0  0  0  0  0  0  0  0  0  0
  -26.2440  -12.9920   20.2040 N   0  0  0  0  0  0  0  0  0  0  0  0
  -25.8910  -11.7080   20.4760 N   0  0  0  0  0  0  0  0  0  0  0  0
  -23.8850  -10.4840   21.0120 C   0  0  0  0  0  0  0  0  0  0  0  0
  -24.3370   -9.5140   21.9330 C   0  0  0  0  0  3  0  0  0  0  0  0
  -23.6140   -8.3150   22.1210 C   0  0  0  0  0  3  0  0  0  0  0  0
  -22.4250   -8.0810   21.3890 C   0  0  0  0  0  0  0  0  0  0  0  0
  -21.9960   -9.0390   20.4550 C   0  0  0  0  0  3  0  0  0  0  0  0
  -22.7190  -10.2280   20.2650 C   0  0  0  0  0  3  0  0  0  0  0  0
  -21.6740   -6.9340   21.4860 O   0  0  0  0  0  0  0  0  0  0  0  0
  -21.6480   -6.1860   22.6350 C   0  0  0  0  0  0  0  0  0  0  0  0
  -21.2430   -6.7350   23.8720 C   0  0  0  0  0  3  0  0  0  0  0  0
  -21.1660   -5.9130   25.0150 C   0  0  0  0  0  3  0  0  0  0  0  0
  -21.4770   -4.5440   24.9210 C   0  0  0  0  0  0  0  0  0  0  0  0
  -21.8730   -3.9950   23.6890 C   0  0  0  0  0  3  0  0  0  0  0  0
  -21.9530   -4.8120   22.5490 C   0  0  0  0  0  0  0  0  0  0  0  0
  -22.3160   -4.2730   21.3590 F   0  0  0  0  0  0  0  0  0  0  0  0
  -21.3920   -3.7530   26.0170 F   0  0  0  0  0  0  0  0  0  0  0  0
  -22.7570  -13.5770   21.1510 C   0  0  0  0  0  0  0  0  0  0  0  0
  -22.0430  -12.8790   22.0290 N   0  0  0  0  0  0  0  0  0  0  0  0
  -22.3100  -14.6010   20.6350 O   0  0  0  0  0  0  0  0  0  0  0  0
  -22.4160  -12.0450   22.4600 H   0  0  0  0  0  0  0  0  0  0  0  0
  -21.1100  -13.1770   22.2700 H   0  0  0  0  0  0  0  0  0  0  0  0
  -25.3660  -15.2450   20.2740 N   0  0  0  0  0  0  0  0  0  0  0  0
  -24.5930  -15.8930   20.3950 H   0  0  0  0  0  0  0  0  0  0  0  0
  -26.1720  -15.6740   19.8420 H   0  0  0  0  0  0  0  0  0  0  0  0
  -27.1260  -25.1780   21.9510 C   0  0  0  0  0  1  0  0  0  0  0  0
  -28.3580  -25.3340   21.0250 C   0  0  0  0  0  3  0  0  0  0  0  0
  -28.3710  -26.5530   20.1800 O   0  0  0  0  0  0  0  0  0  0  0  0
  -24.6020  -31.8760   23.2330 C   0  0  0  0  0  0  0  0  0  0  0  0
  -27.2460  -27.3790   20.1620 C   0  0  0  0  0  0  0  0  0  0  0  0
  -23.4040  -30.4760   21.5860 C   0  0  0  0  0  3  0  0  0  0  0  0
  -24.8640  -28.9400   20.1530 C   0  0  0  0  0  0  0  0  0  0  0  0
  -25.9340  -30.8220   21.3970 C   0  0  0  0  0  2  0  0  0  0  0  0
  -26.0260  -29.4480   20.7480 C   0  0  0  0  0  0  0  0  0  0  0  0
  -27.2230  -28.6790   20.7430 C   0  0  0  0  0  3  0  0  0  0  0  0
  -26.0740  -26.9140   19.5350 C   0  0  0  0  0  3  0  0  0  0  0  0
  -24.8900  -27.6760   19.5380 C   0  0  0  0  0  3  0  0  0  0  0  0
  -23.6190  -29.8010   20.2040 C   0  0  0  0  0  2  0  0  0  0  0  0
  -24.6670  -31.0750   22.1300 N   0  0  0  0  0  0  0  0  0  0  0  0
  -23.5180  -32.1430   23.7700 O   0  0  0  0  0  0  0  0  0  0  0  0
  -22.7510  -29.4530   22.5440 C   0  0  0  0  0  0  0  0  0  0  0  0
  -21.4230  -29.2770   22.4220 N   0  0  0  0  0  0  0  0  0  0  0  0
  -23.4310  -28.8180   23.3520 O   0  0  0  0  0  0  0  0  0  0  0  0
  -20.9330  -29.8440   21.7420 H   0  0  0  0  0  0  0  0  0  0  0  0
  -18.0410  -28.0970   22.9320 C   0  0  0  0  0  0  0  0  0  0  0  0
  -20.6020  -28.3360   23.1910 C   0  0  0  0  0  3  0  0  0  0  0  0
  -20.6910  -26.9110   22.5960 C   0  0  0  0  0  2  0  0  0  0  0  0
  -19.5810  -26.6040   21.5870 C   0  0  0  0  0  2  0  0  0  0  0  0
  -18.2060  -26.7520   22.2420 C   0  0  0  0  0  2  0  0  0  0  0  0
  -19.1660  -28.8480   23.3610 C   0  0  0  0  0  0  0  0  0  0  0  0
  -18.9580  -30.1070   23.9670 C   0  0  0  0  0  3  0  0  0  0  0  0
  -17.6580  -30.6140   24.1460 C   0  0  0  0  0  3  0  0  0  0  0  0
  -16.5470  -29.8610   23.7330 C   0  0  0  0  0  3  0  0  0  0  0  0
  -16.7390  -28.6040   23.1330 C   0  0  0  0  0  3  0  0  0  0  0  0
  -25.8830  -32.5100   23.8600 C   0  0  0  0  0  3  0  0  0  0  0  0
  -26.3950  -31.7390   25.1370 C   0  0  1  0  0  0  0  0  0  0  0  0
  -25.3010  -31.5000   26.2030 C   0  0  0  0  0  1  0  0  0  0  0  0
  -26.9790  -30.3620   24.7440 C   0  0  0  0  0  1  0  0  0  0  0  0
  -27.5440  -32.5360   25.8020 C   0  0  0  0  0  1  0  0  0  0  0  0
  -25.5710  -33.9080   24.1890 N   0  0  0  0  0  0  0  0  0  0  0  0
  -25.9030  -34.9600   23.4280 C   0  0  0  0  0  0  0  0  0  0  0  0
  -26.5730  -34.8560   22.3970 O   0  0  0  0  0  0  0  0  0  0  0  0
  -24.9830  -34.0610   24.9940 H   0  0  0  0  0  0  0  0  0  0  0  0
  -24.1730  -36.7490   23.0650 C   0  0  0  0  0  1  0  0  0  0  0  0
  -25.4120  -36.3500   23.8810 C   0  0  0  0  0  3  0  0  0  0  0  0
  -27.5470  -37.2340   24.7120 C   0  0  0  0  0  1  0  0  0  0  0  0
  -26.4450  -37.4030   23.7690 N   0  0  0  0  0  0  0  0  0  0  0  0
  -26.0370  -38.3230   23.9190 H   0  0  0  0  0  0  0  0  0  0  0  0
  1  2  1  0
  1 52  1  0
  2  4  1  0
  3  1  2  0
  5  7  2  0
  6  5  1  0
  6  8  2  0
  7  9  1  0
  7  2  1  0
  8 12  1  0
  8  9  1  0
 10 12  2  0
 12 21  1  1
 12 11  2  0
 13 21  1  0
 14 19  1  0
 15 16  1  0
 15 14  1  0
 17 16  1  0
 17 26  1  0
 17 18  1  0
 19 13  1  0
 19 18  1  0
 20 13  2  0
 21 22  1  0
 23 24  2  0
 24 43  1  0
 25 24  1  0
 25 28  1  0
 26 23  1  0
 26 27  1  0
 27 25  2  0
 28 29  1  0
 29 30  2  0
 31 34  1  0
 31 30  1  0
 32 31  2  0
 33 32  1  0
 33 28  2  0
 34 35  1  0
 35 36  1  0
 36 37  2  0
 38 37  1  0
 38 42  1  0
 39 38  2  0
 40 35  2  0
 40 39  1  0
 41 40  1  0
 43 44  1  0
 44 47  1  0
 44 46  1  0
 45 43  2  0
 48 49  1  0
 48 23  1  0
 50 48  1  0
 52 51  1  0
 53 52  1  0
 54 65  2  0
 55 53  1  0
 55 60  1  0
 56 64  1  0
 56 66  1  0
 57 63  1  0
 57 59  1  0
 58 64  1  0
 59 58  1  0
 60 59  2  0
 61 62  1  0
 61 55  2  0
 62 57  2  0
 63 56  1  0
 64 54  1  0
 66 68  2  0
 67 66  1  0
 69 67  1  0
 70 79  2  0
 70 75  1  0
 71 67  1  0
 71 75  1  0
 72 71  1  0
 73 74  1  0
 73 72  1  0
 74 70  1  0
 75 76  2  0
 76 77  1  0
 78 77  2  0
 79 78  1  0
 80 54  1  0
 80 85  1  0
 80 81  1  0
 81 84  1  1
 81 82  1  0
 83 81  1  0
 85 88  1  0
 86 90  1  0
 86 85  1  0
 87 86  2  0
 90 89  1  0
 92 90  1  0
 92 93  1  0
 92 91  1  0
M  ISO  4  13 100  21 100  52 101  53 101
M  END
>  <TORSDO>  (81) 
F 19

>  <SCORE>  (81) 
-14.335

>  <name>  (81) 
81

>  <ligand_id>  (81) 
81

>  <original_smiles>  (81) 
[H]c1c(N([H])C(=O)C([H])(Oc2c([H])c([H])c3c(c2[H])C([H])([H])N(C(=O)C([H])(N([H])C(=O)C([H])(N([H])C([H])([H])[H])C([H])([H])[H])C(C([H])([H])[H])(C([H])([H])[H])C([H])([H])[H])C([H])(C(=O)N([H])C2([H])c4c([H])c([H])c([H])c([H])c4C([H])([H])C([H])([H])C2([H])[H])C3([H])[H])C([H])([H])[H])sc(S(=O)(=O)N([H])C(=O)N2C([H])([H])C([H])([H])C([H])([H])C([H])(n3nc(-c4c([H])c([H])c(Oc5c([H])c([H])c(F)c([H])c5F)c([H])c4[H])c(C(=O)N([H])[H])c3N([H])[H])C2([H])[H])c1[H]

>  <smiles>  (81) 
[H]c1c(N([H])C(=O)C([H])(Oc2c([H])c([H])c3c(c2[H])C([H])([H])N(C(=O)C([H])(N([H])C(=O)C([H])(N([H])C([H])([H])[H])C([H])([H])[H])C(C([H])([H])[H])(C([H])([H])[H])C([H])([H])[H])C([H])(C(=O)N([H])C2([H])c4c([H])c([H])c([H])c([H])c4C([H])([H])C([H])([H])C2([H])[H])C3([H])[H])C([H])([H])[H])sc(S(=O)(=O)N([H])C(=O)N2C([H])([H])C([H])([H])C([H])([H])C([H])(n3nc(-c4c([H])c([H])c(Oc5c([H])c([H])c(F)c([H])c5F)c([H])c4[H])c(C(=O)N([H])[H])c3N([H])[H])C2([H])[H])c1[H]

$$$$
82:0:0
     RDKit          3D

 92100  0  0  1  0  0  0  0  0999 V2000
  -28.7190  -19.1520   19.6410 C   0  0  0  0  0  3  0  0  0  0  0  0
  -29.7330  -18.7220   20.4850 C   0  0  0  0  0  0  0  0  0  0  0  0
  -29.1460  -21.2670   20.5460 C   0  0  0  0  0  0  0  0  0  0  0  0
  -28.4150  -23.8010   20.2390 C   0  0  0  0  0  0  0  0  0  0  0  0
  -28.4040  -20.5500   19.6790 N   0  0  0  0  0  0  0  0  0  0  0  0
  -29.0410  -22.7150   20.8290 N   0  0  0  0  0  0  0  0  0  0  0  0
  -27.8450  -23.7210   19.1470 O   0  0  0  0  0  0  0  0  0  0  0  0
  -30.2730  -20.1580   21.3980 S   0  0  0  0  0  0  0  0  0  0  0  0
  -29.5410  -22.9780   21.6670 H   0  0  0  0  0  0  0  0  0  0  0  0
  -30.5210  -17.3550   20.6050 C   0  0  0  0  0  2  0  0  0  0  0  0
  -30.6390  -14.7910   20.2930 C   0  0  0  0  0  0  0  0  0  0  0  0
  -30.4040  -12.5410   19.2420 C   0  0  0  0  0  2  0  0  0  0  0  0
  -29.4620  -12.6370   18.0230 C   0  0  0  0  0  2  0  0  0  0  0  0
  -27.9960  -12.4580   18.4620 C   0  0  0  0  0  2  0  0  0  0  0  0
  -27.6280  -13.3270   19.6950 C   0  0  0  0  0  3  0  0  0  0  0  0
  -28.6940  -13.2320   20.8070 C   0  0  0  0  0  2  0  0  0  0  0  0
  -29.9840  -13.5850   20.2040 N   0  0  0  0  0  0  0  0  0  0  0  0
  -31.8300  -14.8600   19.9780 O   0  0  0  0  0  0  0  0  0  0  0  0
  -29.9220  -15.9540   20.5330 N   0  0  0  0  0  0  0  0  0  0  0  0
  -28.9360  -15.8560   20.7240 H   0  0  0  0  0  0  0  0  0  0  0  0
  -25.2380  -13.8960   20.4300 C   0  0  0  0  0  0  0  0  0  0  0  0
  -24.1820  -13.1130   20.8050 C   0  0  0  0  0  0  0  0  0  0  0  0
  -24.6590  -11.7660   20.7780 C   0  0  0  0  0  0  0  0  0  0  0  0
  -26.2900  -13.0260   20.1920 N   0  0  0  0  0  0  0  0  0  0  0  0
  -25.9490  -11.7400   20.4660 N   0  0  0  0  0  0  0  0  0  0  0  0
  -23.9450  -10.4970   20.9730 C   0  0  0  0  0  0  0  0  0  0  0  0
  -24.3760   -9.5460   21.9250 C   0  0  0  0  0  3  0  0  0  0  0  0
  -23.6600   -8.3420   22.1070 C   0  0  0  0  0  3  0  0  0  0  0  0
  -22.5020   -8.0800   21.3370 C   0  0  0  0  0  0  0  0  0  0  0  0
  -22.0930   -9.0210   20.3740 C   0  0  0  0  0  3  0  0  0  0  0  0
  -22.8080  -10.2150   20.1900 C   0  0  0  0  0  3  0  0  0  0  0  0
  -21.7590   -6.9280   21.4280 O   0  0  0  0  0  0  0  0  0  0  0  0
  -21.6810   -6.2120   22.5950 C   0  0  0  0  0  0  0  0  0  0  0  0
  -21.1830   -6.7810   23.7870 C   0  0  0  0  0  3  0  0  0  0  0  0
  -21.0560   -5.9890   24.9470 C   0  0  0  0  0  3  0  0  0  0  0  0
  -21.4160   -4.6280   24.9130 C   0  0  0  0  0  0  0  0  0  0  0  0
  -21.9080   -4.0590   23.7250 C   0  0  0  0  0  3  0  0  0  0  0  0
  -22.0370   -4.8480   22.5690 C   0  0  0  0  0  0  0  0  0  0  0  0
  -22.4900   -4.2880   21.4220 F   0  0  0  0  0  0  0  0  0  0  0  0
  -21.2870   -3.8660   26.0230 F   0  0  0  0  0  0  0  0  0  0  0  0
  -22.7800  -13.5770   21.0750 C   0  0  0  0  0  0  0  0  0  0  0  0
  -22.0570  -12.8730   21.9390 N   0  0  0  0  0  0  0  0  0  0  0  0
  -22.3350  -14.5980   20.5540 O   0  0  0  0  0  0  0  0  0  0  0  0
  -22.4300  -12.0470   22.3830 H   0  0  0  0  0  0  0  0  0  0  0  0
  -21.1160  -13.1670   22.1620 H   0  0  0  0  0  0  0  0  0  0  0  0
  -25.3870  -15.2680   20.2460 N   0  0  0  0  0  0  0  0  0  0  0  0
  -24.6140  -15.9140   20.3590 H   0  0  0  0  0  0  0  0  0  0  0  0
  -26.2240  -15.7120   19.8920 H   0  0  0  0  0  0  0  0  0  0  0  0
  -28.4380  -25.2140   21.0070 C   0  0  0  0  0  3  0  0  0  0  0  0
  -27.8820  -26.1120   23.3780 C   0  0  0  0  0  1  0  0  0  0  0  0
  -27.4590  -25.2000   22.2130 C   0  0  0  0  0  2  0  0  0  0  0  0
  -28.4120  -26.4940   20.2140 O   0  0  0  0  0  0  0  0  0  0  0  0
  -24.6020  -31.8760   23.2340 C   0  0  0  0  0  0  0  0  0  0  0  0
  -27.2890  -27.3430   20.1990 C   0  0  0  0  0  0  0  0  0  0  0  0
  -23.4320  -30.4770   21.5690 C   0  0  0  0  0  3  0  0  0  0  0  0
  -24.9140  -28.9420   20.1520 C   0  0  0  0  0  0  0  0  0  0  0  0
  -25.9700  -30.8190   21.4150 C   0  0  0  0  0  2  0  0  0  0  0  0
  -26.0720  -29.4420   20.7640 C   0  0  0  0  0  0  0  0  0  0  0  0
  -27.2660  -28.6590   20.7660 C   0  0  0  0  0  3  0  0  0  0  0  0
  -26.1140  -26.8970   19.5620 C   0  0  0  0  0  3  0  0  0  0  0  0
  -24.9400  -27.6770   19.5390 C   0  0  0  0  0  3  0  0  0  0  0  0
  -23.6690  -29.8070   20.1890 C   0  0  0  0  0  2  0  0  0  0  0  0
  -24.6870  -31.0760   22.1300 N   0  0  0  0  0  0  0  0  0  0  0  0
  -23.5090  -32.1410   23.7560 O   0  0  0  0  0  0  0  0  0  0  0  0
  -22.7650  -29.4510   22.5160 C   0  0  0  0  0  0  0  0  0  0  0  0
  -21.4370  -29.2830   22.3870 N   0  0  0  0  0  0  0  0  0  0  0  0
  -23.4410  -28.8120   23.3260 O   0  0  0  0  0  0  0  0  0  0  0  0
  -20.9520  -29.8510   21.7080 H   0  0  0  0  0  0  0  0  0  0  0  0
  -18.0500  -28.1140   22.8930 C   0  0  0  0  0  0  0  0  0  0  0  0
  -20.6150  -28.3370   23.1440 C   0  0  0  0  0  3  0  0  0  0  0  0
  -20.6940  -26.9180   22.5340 C   0  0  0  0  0  2  0  0  0  0  0  0
  -19.5780  -26.6320   21.5230 C   0  0  0  0  0  2  0  0  0  0  0  0
  -18.2050  -26.7790   22.1840 C   0  0  0  0  0  2  0  0  0  0  0  0
  -19.1830  -28.8530   23.3300 C   0  0  0  0  0  0  0  0  0  0  0  0
  -18.9840  -30.1040   23.9530 C   0  0  0  0  0  3  0  0  0  0  0  0
  -17.6860  -30.6150   24.1440 C   0  0  0  0  0  3  0  0  0  0  0  0
  -16.5690  -29.8720   23.7230 C   0  0  0  0  0  3  0  0  0  0  0  0
  -16.7520  -28.6240   23.1030 C   0  0  0  0  0  3  0  0  0  0  0  0
  -25.8710  -32.5170   23.8770 C   0  0  0  0  0  3  0  0  0  0  0  0
  -26.3590  -31.7580   25.1720 C   0  0  1  0  0  0  0  0  0  0  0  0
  -25.2430  -31.5300   26.2190 C   0  0  0  0  0  1  0  0  0  0  0  0
  -26.9500  -30.3760   24.8060 C   0  0  0  0  0  1  0  0  0  0  0  0
  -27.4960  -32.5580   25.8500 C   0  0  0  0  0  1  0  0  0  0  0  0
  -25.5520  -33.9180   24.1890 N   0  0  0  0  0  0  0  0  0  0  0  0
  -25.8980  -34.9660   23.4290 C   0  0  0  0  0  0  0  0  0  0  0  0
  -26.5870  -34.8540   22.4120 O   0  0  0  0  0  0  0  0  0  0  0  0
  -24.9380  -34.0770   24.9740 H   0  0  0  0  0  0  0  0  0  0  0  0
  -24.1850  -36.7620   23.0200 C   0  0  0  0  0  1  0  0  0  0  0  0
  -25.4020  -36.3580   23.8660 C   0  0  0  0  0  3  0  0  0  0  0  0
  -27.5130  -37.2460   24.7520 C   0  0  0  0  0  1  0  0  0  0  0  0
  -26.4400  -37.4080   23.7750 N   0  0  0  0  0  0  0  0  0  0  0  0
  -26.0310  -38.3300   23.9020 H   0  0  0  0  0  0  0  0  0  0  0  0
  1  5  1  0
  1  2  2  0
  2 10  1  0
  2  8  1  0
  3  6  1  0
  3  8  1  0
  4  6  1  0
  4 49  1  0
  5  3  2  0
  6  9  1  0
  7  4  2  0
 11 19  1  0
 12 17  1  0
 13 14  1  0
 13 12  1  0
 15 14  1  0
 15 24  1  0
 15 16  1  0
 17 11  1  0
 17 16  1  0
 18 11  2  0
 19 10  1  0
 19 20  1  0
 21 22  2  0
 22 41  1  0
 23 22  1  0
 23 26  1  0
 24 21  1  0
 24 25  1  0
 25 23  2  0
 26 27  1  0
 27 28  2  0
 29 32  1  0
 29 28  1  0
 30 29  2  0
 31 30  1  0
 31 26  2  0
 32 33  1  0
 33 34  1  0
 34 35  2  0
 36 35  1  0
 36 40  1  0
 37 36  2  0
 38 33  2  0
 38 37  1  0
 39 38  1  0
 41 42  1  0
 42 45  1  0
 42 44  1  0
 43 41  2  0
 46 47  1  0
 46 21  1  0
 48 46  1  0
 49 51  1  0
 51 50  1  0
 52 49  1  0
 53 64  2  0
 54 52  1  0
 54 59  1  0
 55 63  1  0
 55 65  1  0
 56 62  1  0
 56 58  1  0
 57 63  1  0
 58 59  2  0
 58 57  1  0
 60 54  2  0
 61 60  1  0
 61 56  2  0
 62 55  1  0
 63 53  1  0
 65 67  2  0
 66 65  1  0
 68 66  1  0
 69 78  2  0
 69 74  1  0
 70 66  1  0
 70 74  1  0
 71 70  1  0
 72 73  1  0
 72 71  1  0
 73 69  1  0
 74 75  2  0
 75 76  1  0
 77 76  2  0
 78 77  1  0
 79 53  1  0
 79 84  1  0
 79 80  1  0
 80 83  1  1
 80 81  1  0
 82 80  1  0
 84 87  1  0
 85 89  1  0
 85 84  1  0
 86 85  2  0
 89 88  1  0
 91 89  1  0
 91 92  1  0
 91 90  1  0
M  ISO  4  11 100  19 100  49 101  52 101
M  END
>  <TORSDO>  (82) 
F 19

>  <SCORE>  (82) 
-14.333

>  <name>  (82) 
82

>  <ligand_id>  (82) 
82

>  <original_smiles>  (82) 
[H]c1nc(N([H])C(=O)C([H])(Oc2c([H])c([H])c3c(c2[H])C([H])([H])N(C(=O)C([H])(N([H])C(=O)C([H])(N([H])C([H])([H])[H])C([H])([H])[H])C(C([H])([H])[H])(C([H])([H])[H])C([H])([H])[H])C([H])(C(=O)N([H])C2([H])c4c([H])c([H])c([H])c([H])c4C([H])([H])C([H])([H])C2([H])[H])C3([H])[H])C([H])([H])C([H])([H])[H])sc1C([H])([H])N([H])C(=O)N1C([H])([H])C([H])([H])C([H])([H])C([H])(n2nc(-c3c([H])c([H])c(Oc4c([H])c([H])c(F)c([H])c4F)c([H])c3[H])c(C(=O)N([H])[H])c2N([H])[H])C1([H])[H]

>  <smiles>  (82) 
[H]c1nc(N([H])C(=O)C([H])(Oc2c([H])c([H])c3c(c2[H])C([H])([H])N(C(=O)C([H])(N([H])C(=O)C([H])(N([H])C([H])([H])[H])C([H])([H])[H])C(C([H])([H])[H])(C([H])([H])[H])C([H])([H])[H])C([H])(C(=O)N([H])C2([H])c4c([H])c([H])c([H])c([H])c4C([H])([H])C([H])([H])C2([H])[H])C3([H])[H])C([H])([H])C([H])([H])[H])sc1C([H])([H])N([H])C(=O)N1C([H])([H])C([H])([H])C([H])([H])C([H])(n2nc(-c3c([H])c([H])c(Oc4c([H])c([H])c(F)c([H])c4F)c([H])c3[H])c(C(=O)N([H])[H])c2N([H])[H])C1([H])[H]

$$$$
83:0:0
     RDKit          3D

 96104  0  0  1  0  0  0  0  0999 V2000
  -29.8380  -21.7310   20.9410 C   0  0  0  0  0  0  0  0  0  0  0  0
  -29.3710  -20.4720   20.7540 N   0  0  0  0  0  0  0  0  0  0  0  0
  -31.0310  -22.0260   20.8240 O   0  0  0  0  0  0  0  0  0  0  0  0
  -28.4260  -20.3230   21.0710 H   0  0  0  0  0  0  0  0  0  0  0  0
  -30.6920  -14.5190   20.4050 C   0  0  0  0  0  0  0  0  0  0  0  0
  -30.3610  -12.3360   19.3340 C   0  0  0  0  0  2  0  0  0  0  0  0
  -29.4270  -12.5360   18.1250 C   0  0  0  0  0  2  0  0  0  0  0  0
  -27.9560  -12.4080   18.5540 C   0  0  0  0  0  2  0  0  0  0  0  0
  -27.6160  -13.2560   19.8100 C   0  0  0  0  0  3  0  0  0  0  0  0
  -28.6760  -13.0820   20.9220 C   0  0  0  0  0  2  0  0  0  0  0  0
  -29.9970  -13.3520   20.3380 N   0  0  0  0  0  0  0  0  0  0  0  0
  -31.8820  -14.5810   20.0810 O   0  0  0  0  0  0  0  0  0  0  0  0
  -31.1320  -18.2950   18.2680 C   0  0  0  0  0  3  0  0  0  0  0  0
  -30.8920  -17.0490   18.8500 C   0  0  0  0  0  3  0  0  0  0  0  0
  -30.6610  -19.4540   18.9020 C   0  0  0  0  0  0  0  0  0  0  0  0
  -30.2210  -16.9500   20.0860 C   0  0  0  0  0  0  0  0  0  0  0  0
  -29.9740  -19.3230   20.1440 C   0  0  0  0  0  0  0  0  0  0  0  0
  -29.7550  -18.0850   20.6850 N   0  0  0  0  0  0  0  0  0  0  0  0
  -29.9710  -15.6430   20.6320 N   0  0  0  0  0  0  0  0  0  0  0  0
  -29.0750  -15.5190   21.0740 H   0  0  0  0  0  0  0  0  0  0  0  0
  -25.2220  -13.8520   20.5360 C   0  0  0  0  0  0  0  0  0  0  0  0
  -24.1560  -13.0790   20.9070 C   0  0  0  0  0  0  0  0  0  0  0  0
  -24.6200  -11.7270   20.8720 C   0  0  0  0  0  0  0  0  0  0  0  0
  -26.2680  -12.9750   20.2970 N   0  0  0  0  0  0  0  0  0  0  0  0
  -25.9090  -11.6910   20.5600 N   0  0  0  0  0  0  0  0  0  0  0  0
  -23.8960  -10.4630   21.0620 C   0  0  0  0  0  0  0  0  0  0  0  0
  -24.3410   -9.4870   21.9800 C   0  0  0  0  0  3  0  0  0  0  0  0
  -23.6180   -8.2880   22.1580 C   0  0  0  0  0  3  0  0  0  0  0  0
  -22.4350   -8.0560   21.4170 C   0  0  0  0  0  0  0  0  0  0  0  0
  -22.0080   -9.0200   20.4870 C   0  0  0  0  0  3  0  0  0  0  0  0
  -22.7320  -10.2110   20.3080 C   0  0  0  0  0  3  0  0  0  0  0  0
  -21.6840   -6.9080   21.5020 O   0  0  0  0  0  0  0  0  0  0  0  0
  -21.6600   -6.1470   22.6440 C   0  0  0  0  0  0  0  0  0  0  0  0
  -21.2630   -6.6830   23.8890 C   0  0  0  0  0  3  0  0  0  0  0  0
  -21.1880   -5.8470   25.0210 C   0  0  0  0  0  3  0  0  0  0  0  0
  -21.5010   -4.4790   24.9110 C   0  0  0  0  0  0  0  0  0  0  0  0
  -21.8900   -3.9430   23.6710 C   0  0  0  0  0  3  0  0  0  0  0  0
  -21.9690   -4.7750   22.5400 C   0  0  0  0  0  0  0  0  0  0  0  0
  -22.3240   -4.2500   21.3430 F   0  0  0  0  0  0  0  0  0  0  0  0
  -21.4210   -3.6750   25.9980 F   0  0  0  0  0  0  0  0  0  0  0  0
  -22.7590  -13.5540   21.1850 C   0  0  0  0  0  0  0  0  0  0  0  0
  -22.0320  -12.8520   22.0470 N   0  0  0  0  0  0  0  0  0  0  0  0
  -22.3170  -14.5810   20.6690 O   0  0  0  0  0  0  0  0  0  0  0  0
  -22.4010  -12.0220   22.4870 H   0  0  0  0  0  0  0  0  0  0  0  0
  -21.0960  -13.1530   22.2780 H   0  0  0  0  0  0  0  0  0  0  0  0
  -25.3800  -15.2240   20.3630 N   0  0  0  0  0  0  0  0  0  0  0  0
  -24.6050  -15.8680   20.4780 H   0  0  0  0  0  0  0  0  0  0  0  0
  -26.2210  -15.6730   20.0250 H   0  0  0  0  0  0  0  0  0  0  0  0
  -30.8670  -20.6770   18.2540 N   0  0  0  0  0  0  0  0  0  0  0  0
  -31.5470  -20.7010   17.4980 H   0  0  0  0  0  0  0  0  0  0  0  0
  -30.9960  -21.4610   18.8940 H   0  0  0  0  0  0  0  0  0  0  0  0
  -27.3710  -22.4280   21.0610 C   0  0  0  0  0  1  0  0  0  0  0  0
  -28.8330  -22.8350   21.3870 C   0  0  0  0  0  3  0  0  0  0  0  0
  -29.2290  -24.2940   20.9100 C   0  0  0  0  0  3  0  0  0  0  0  0
  -28.0670  -25.2110   20.4400 C   0  0  0  0  0  3  0  0  0  0  0  0
  -28.3590  -26.6200   20.2590 O   0  0  0  0  0  0  0  0  0  0  0  0
  -24.6250  -31.9120   23.2560 C   0  0  0  0  0  0  0  0  0  0  0  0
  -27.2300  -27.4240   20.1880 C   0  0  0  0  0  0  0  0  0  0  0  0
  -23.4140  -30.5210   21.6130 C   0  0  0  0  0  3  0  0  0  0  0  0
  -24.8570  -28.9790   20.1880 C   0  0  0  0  0  0  0  0  0  0  0  0
  -25.9470  -30.8530   21.4240 C   0  0  0  0  0  2  0  0  0  0  0  0
  -26.0220  -29.4820   20.7800 C   0  0  0  0  0  0  0  0  0  0  0  0
  -27.2130  -28.7130   20.7750 C   0  0  0  0  0  3  0  0  0  0  0  0
  -26.0430  -26.9540   19.5730 C   0  0  0  0  0  3  0  0  0  0  0  0
  -24.8640  -27.7140   19.5800 C   0  0  0  0  0  3  0  0  0  0  0  0
  -23.6230  -29.8510   20.2310 C   0  0  0  0  0  2  0  0  0  0  0  0
  -24.6810  -31.1100   22.1540 N   0  0  0  0  0  0  0  0  0  0  0  0
  -23.5430  -32.1910   23.7910 O   0  0  0  0  0  0  0  0  0  0  0  0
  -22.7550  -29.4990   22.5690 C   0  0  0  0  0  0  0  0  0  0  0  0
  -21.4290  -29.3270   22.4390 N   0  0  0  0  0  0  0  0  0  0  0  0
  -23.4330  -28.8680   23.3840 O   0  0  0  0  0  0  0  0  0  0  0  0
  -20.9450  -29.8860   21.7510 H   0  0  0  0  0  0  0  0  0  0  0  0
  -18.0440  -28.1630   22.9400 C   0  0  0  0  0  0  0  0  0  0  0  0
  -20.6040  -28.3960   23.2090 C   0  0  0  0  0  3  0  0  0  0  0  0
  -20.6920  -26.9650   22.6280 C   0  0  0  0  0  2  0  0  0  0  0  0
  -19.5860  -26.6570   21.6140 C   0  0  0  0  0  2  0  0  0  0  0  0
  -18.2070  -26.8140   22.2590 C   0  0  0  0  0  2  0  0  0  0  0  0
  -19.1700  -28.9120   23.3720 C   0  0  0  0  0  0  0  0  0  0  0  0
  -18.9620  -30.1780   23.9640 C   0  0  0  0  0  3  0  0  0  0  0  0
  -17.6610  -30.6890   24.1310 C   0  0  0  0  0  3  0  0  0  0  0  0
  -16.5500  -29.9350   23.7160 C   0  0  0  0  0  3  0  0  0  0  0  0
  -16.7430  -28.6740   23.1260 C   0  0  0  0  0  3  0  0  0  0  0  0
  -25.9120  -32.5350   23.8780 C   0  0  0  0  0  3  0  0  0  0  0  0
  -26.4250  -31.7600   25.1530 C   0  0  1  0  0  0  0  0  0  0  0  0
  -25.3310  -31.5230   26.2230 C   0  0  0  0  0  1  0  0  0  0  0  0
  -26.9990  -30.3800   24.7560 C   0  0  0  0  0  1  0  0  0  0  0  0
  -27.5820  -32.5450   25.8160 C   0  0  0  0  0  1  0  0  0  0  0  0
  -25.6120  -33.9350   24.2070 N   0  0  0  0  0  0  0  0  0  0  0  0
  -25.9490  -34.9830   23.4450 C   0  0  0  0  0  0  0  0  0  0  0  0
  -26.6200  -34.8730   22.4130 O   0  0  0  0  0  0  0  0  0  0  0  0
  -25.0230  -34.0960   25.0110 H   0  0  0  0  0  0  0  0  0  0  0  0
  -24.2330  -36.7830   23.0790 C   0  0  0  0  0  1  0  0  0  0  0  0
  -25.4690  -36.3760   23.8970 C   0  0  0  0  0  3  0  0  0  0  0  0
  -27.6070  -37.2470   24.7340 C   0  0  0  0  0  1  0  0  0  0  0  0
  -26.5090  -37.4210   23.7860 N   0  0  0  0  0  0  0  0  0  0  0  0
  -26.1070  -38.3440   23.9320 H   0  0  0  0  0  0  0  0  0  0  0  0
  1 53  1  0
  2  1  1  0
  2  4  1  0
  3  1  2  0
  5 19  1  0
  6 11  1  0
  7  8  1  0
  7  6  1  0
  9  8  1  0
  9 24  1  0
  9 10  1  0
 11  5  1  0
 11 10  1  0
 12  5  2  0
 13 14  2  0
 13 15  1  0
 14 16  1  0
 15 17  2  0
 16 19  1  0
 16 18  2  0
 17 18  1  0
 17  2  1  0
 19 20  1  0
 21 22  2  0
 22 41  1  0
 23 22  1  0
 23 26  1  0
 24 21  1  0
 24 25  1  0
 25 23  2  0
 26 27  1  0
 27 28  2  0
 29 32  1  0
 29 28  1  0
 30 29  2  0
 31 30  1  0
 31 26  2  0
 32 33  1  0
 33 34  1  0
 34 35  2  0
 36 35  1  0
 36 40  1  0
 37 36  2  0
 38 33  2  0
 38 37  1  0
 39 38  1  0
 41 42  1  0
 42 45  1  0
 42 44  1  0
 43 41  2  0
 46 47  1  0
 46 21  1  0
 48 46  1  0
 49 51  1  0
 49 15  1  0
 50 49  1  0
 53 52  1  0
 54 53  1  0
 55 54  2  0
 56 55  1  0
 57 68  2  0
 58 56  1  0
 58 63  1  0
 59 67  1  0
 59 69  1  0
 60 66  1  0
 60 62  1  0
 61 67  1  0
 62 61  1  0
 63 62  2  0
 64 65  1  0
 64 58  2  0
 65 60  2  0
 66 59  1  0
 67 57  1  0
 69 71  2  0
 70 69  1  0
 72 70  1  0
 73 82  2  0
 73 78  1  0
 74 70  1  0
 74 78  1  0
 75 74  1  0
 76 77  1  0
 76 75  1  0
 77 73  1  0
 78 79  2  0
 79 80  1  0
 81 80  2  0
 82 81  1  0
 83 57  1  0
 83 88  1  0
 83 84  1  0
 84 87  1  1
 84 85  1  0
 86 84  1  0
 88 91  1  0
 89 93  1  0
 89 88  1  0
 90 89  2  0
 93 92  1  0
 95 93  1  0
 95 96  1  0
 95 94  1  0
M  ISO  4   5 100  19 100  55 101  56 101
M  END
>  <TORSDO>  (83) 
F 20

>  <SCORE>  (83) 
-14.362

>  <name>  (83) 
83

>  <ligand_id>  (83) 
83

>  <original_smiles>  (83) 
[H]c1c(N([H])C(=O)N2C([H])([H])C([H])([H])C([H])([H])C([H])(n3nc(-c4c([H])c([H])c(Oc5c([H])c([H])c(F)c([H])c5F)c([H])c4[H])c(C(=O)N([H])[H])c3N([H])[H])C2([H])[H])nc(N([H])C(=O)C([H])(C([H])([H])[H])C([H])([H])C([H])([H])Oc2c([H])c([H])c3c(c2[H])C([H])([H])N(C(=O)C([H])(N([H])C(=O)C([H])(N([H])C([H])([H])[H])C([H])([H])[H])C(C([H])([H])[H])(C([H])([H])[H])C([H])([H])[H])C([H])(C(=O)N([H])C2([H])c4c([H])c([H])c([H])c([H])c4C([H])([H])C([H])([H])C2([H])[H])C3([H])[H])c(N([H])[H])c1[H]

>  <smiles>  (83) 
[H]c1c(N([H])C(=O)N2C([H])([H])C([H])([H])C([H])([H])C([H])(n3nc(-c4c([H])c([H])c(Oc5c([H])c([H])c(F)c([H])c5F)c([H])c4[H])c(C(=O)N([H])[H])c3N([H])[H])C2([H])[H])nc(N([H])C(=O)C([H])(C([H])([H])[H])C([H])([H])C([H])([H])Oc2c([H])c([H])c3c(c2[H])C([H])([H])N(C(=O)C([H])(N([H])C(=O)C([H])(N([H])C([H])([H])[H])C([H])([H])[H])C(C([H])([H])[H])(C([H])([H])[H])C([H])([H])[H])C([H])(C(=O)N([H])C2([H])c4c([H])c([H])c([H])c([H])c4C([H])([H])C([H])([H])C2([H])[H])C3([H])[H])c(N([H])[H])c1[H]

$$$$
84:0:0
     RDKit          3D

 92100  0  0  1  0  0  0  0  0999 V2000
  -28.9020  -19.1480   20.1380 C   0  0  0  0  0  0  0  0  0  0  0  0
  -30.2250  -18.7700   19.9440 C   0  0  0  0  0  0  0  0  0  0  0  0
  -29.7240  -21.3330   19.9120 C   0  0  0  0  0  0  0  0  0  0  0  0
  -28.9090  -23.8650   20.0240 C   0  0  0  0  0  0  0  0  0  0  0  0
  -27.7610  -18.2150   20.4010 C   0  0  0  0  0  1  0  0  0  0  0  0
  -28.6400  -20.5590   20.1130 N   0  0  0  0  0  0  0  0  0  0  0  0
  -29.7880  -22.8100   19.8380 N   0  0  0  0  0  0  0  0  0  0  0  0
  -27.7440  -23.7000   20.3920 O   0  0  0  0  0  0  0  0  0  0  0  0
  -31.1560  -20.2750   19.7040 S   0  0  0  0  0  0  0  0  0  0  0  0
  -30.7090  -23.1360   19.5840 H   0  0  0  0  0  0  0  0  0  0  0  0
  -29.5940  -25.6660   18.2430 C   0  0  0  0  0  1  0  0  0  0  0  0
  -29.4430  -25.3550   19.7450 C   0  0  0  0  0  3  0  0  0  0  0  0
  -28.9640  -26.5180   20.5680 O   0  0  0  0  0  0  0  0  0  0  0  0
  -24.8050  -31.7700   23.2630 C   0  0  0  0  0  0  0  0  0  0  0  0
  -27.8010  -27.2960   20.3950 C   0  0  0  0  0  0  0  0  0  0  0  0
  -23.7770  -30.3360   21.5350 C   0  0  0  0  0  3  0  0  0  0  0  0
  -25.3830  -28.8380   20.2140 C   0  0  0  0  0  0  0  0  0  0  0  0
  -26.3100  -30.7400   21.5390 C   0  0  0  0  0  2  0  0  0  0  0  0
  -26.4860  -29.3670   20.8940 C   0  0  0  0  0  0  0  0  0  0  0  0
  -27.6930  -28.6060   20.9730 C   0  0  0  0  0  3  0  0  0  0  0  0
  -26.6620  -26.8130   19.7160 C   0  0  0  0  0  3  0  0  0  0  0  0
  -25.4750  -27.5700   19.6170 C   0  0  0  0  0  3  0  0  0  0  0  0
  -24.1160  -29.6720   20.1730 C   0  0  0  0  0  2  0  0  0  0  0  0
  -24.9780  -30.9680   22.1700 N   0  0  0  0  0  0  0  0  0  0  0  0
  -23.6750  -32.0060   23.7160 O   0  0  0  0  0  0  0  0  0  0  0  0
  -23.0810  -29.2940   22.4430 C   0  0  0  0  0  0  0  0  0  0  0  0
  -21.7570  -29.1280   22.2710 N   0  0  0  0  0  0  0  0  0  0  0  0
  -23.7310  -28.6390   23.2610 O   0  0  0  0  0  0  0  0  0  0  0  0
  -21.2920  -29.7090   21.5880 H   0  0  0  0  0  0  0  0  0  0  0  0
  -18.3410  -28.0400   22.7510 C   0  0  0  0  0  0  0  0  0  0  0  0
  -20.9130  -28.1700   22.9860 C   0  0  0  0  0  3  0  0  0  0  0  0
  -20.9420  -26.7830   22.3020 C   0  0  0  0  0  2  0  0  0  0  0  0
  -19.8100  -26.5850   21.2890 C   0  0  0  0  0  2  0  0  0  0  0  0
  -18.4470  -26.7390   21.9710 C   0  0  0  0  0  2  0  0  0  0  0  0
  -19.4990  -28.7190   23.2140 C   0  0  0  0  0  0  0  0  0  0  0  0
  -19.3460  -29.9410   23.9030 C   0  0  0  0  0  3  0  0  0  0  0  0
  -18.0670  -30.4820   24.1350 C   0  0  0  0  0  3  0  0  0  0  0  0
  -16.9240  -29.7980   23.6860 C   0  0  0  0  0  3  0  0  0  0  0  0
  -17.0620  -28.5780   23.0000 C   0  0  0  0  0  3  0  0  0  0  0  0
  -26.0120  -32.4460   23.9810 C   0  0  0  0  0  3  0  0  0  0  0  0
  -25.6390  -33.8390   24.2660 N   0  0  0  0  0  0  0  0  0  0  0  0
  -25.9840  -34.8910   23.5130 C   0  0  0  0  0  0  0  0  0  0  0  0
  -26.7190  -34.7950   22.5260 O   0  0  0  0  0  0  0  0  0  0  0  0
  -24.9930  -33.9860   25.0280 H   0  0  0  0  0  0  0  0  0  0  0  0
  -24.2140  -36.6140   23.0390 C   0  0  0  0  0  1  0  0  0  0  0  0
  -25.4270  -36.2700   23.9180 C   0  0  0  0  0  3  0  0  0  0  0  0
  -27.4760  -37.2580   24.8440 C   0  0  0  0  0  1  0  0  0  0  0  0
  -26.4250  -37.3570   23.8340 N   0  0  0  0  0  0  0  0  0  0  0  0
  -25.9780  -38.2650   23.9300 H   0  0  0  0  0  0  0  0  0  0  0  0
  -26.4410  -31.7060   25.3080 C   0  0  1  0  0  0  0  0  0  0  0  0
  -25.2630  -31.4230   26.2700 C   0  0  0  0  0  1  0  0  0  0  0  0
  -27.1200  -30.3550   24.9840 C   0  0  0  0  0  1  0  0  0  0  0  0
  -27.4860  -32.5550   26.0690 C   0  0  0  0  0  1  0  0  0  0  0  0
  -31.0080  -17.3950   20.0220 C   0  0  0  0  0  2  0  0  0  0  0  0
  -31.1130  -14.8220   20.0410 C   0  0  0  0  0  0  0  0  0  0  0  0
  -30.8220  -12.5360   19.0890 C   0  0  0  0  0  2  0  0  0  0  0  0
  -29.8590  -12.6060   17.8860 C   0  0  0  0  0  2  0  0  0  0  0  0
  -28.3970  -12.4740   18.3560 C   0  0  0  0  0  2  0  0  0  0  0  0
  -28.0720  -13.3930   19.5640 C   0  0  0  0  0  3  0  0  0  0  0  0
  -29.1570  -13.3170   20.6590 C   0  0  0  0  0  2  0  0  0  0  0  0
  -30.4410  -13.6220   20.0200 N   0  0  0  0  0  0  0  0  0  0  0  0
  -32.2970  -14.8620   19.6950 O   0  0  0  0  0  0  0  0  0  0  0  0
  -30.4110  -16.0050   20.2240 N   0  0  0  0  0  0  0  0  0  0  0  0
  -29.4300  -15.9350   20.4470 H   0  0  0  0  0  0  0  0  0  0  0  0
  -25.7310  -14.0410   20.3850 C   0  0  0  0  0  0  0  0  0  0  0  0
  -24.6560  -13.2920   20.7790 C   0  0  0  0  0  0  0  0  0  0  0  0
  -25.0770  -11.9290   20.7080 C   0  0  0  0  0  0  0  0  0  0  0  0
  -26.7380  -13.1360   20.0970 N   0  0  0  0  0  0  0  0  0  0  0  0
  -26.3540  -11.8580   20.3550 N   0  0  0  0  0  0  0  0  0  0  0  0
  -24.3170  -10.6860   20.8980 C   0  0  0  0  0  0  0  0  0  0  0  0
  -24.6940   -9.7320   21.8700 C   0  0  0  0  0  3  0  0  0  0  0  0
  -23.9370   -8.5550   22.0480 C   0  0  0  0  0  3  0  0  0  0  0  0
  -22.7890   -8.3220   21.2530 C   0  0  0  0  0  0  0  0  0  0  0  0
  -22.4320   -9.2630   20.2710 C   0  0  0  0  0  3  0  0  0  0  0  0
  -23.1900  -10.4320   20.0920 C   0  0  0  0  0  3  0  0  0  0  0  0
  -22.0070   -7.1950   21.3370 O   0  0  0  0  0  0  0  0  0  0  0  0
  -21.8320   -6.5270   22.5230 C   0  0  0  0  0  0  0  0  0  0  0  0
  -21.2010   -7.1320   23.6320 C   0  0  0  0  0  3  0  0  0  0  0  0
  -20.9800   -6.3880   24.8090 C   0  0  0  0  0  3  0  0  0  0  0  0
  -21.3790   -5.0400   24.8750 C   0  0  0  0  0  0  0  0  0  0  0  0
  -22.0020   -4.4350   23.7700 C   0  0  0  0  0  3  0  0  0  0  0  0
  -22.2250   -5.1760   22.5960 C   0  0  0  0  0  0  0  0  0  0  0  0
  -22.8070   -4.5820   21.5260 F   0  0  0  0  0  0  0  0  0  0  0  0
  -21.1590   -4.3220   26.0010 F   0  0  0  0  0  0  0  0  0  0  0  0
  -23.2850  -13.8070   21.1040 C   0  0  0  0  0  0  0  0  0  0  0  0
  -22.5780  -13.1380   22.0080 N   0  0  0  0  0  0  0  0  0  0  0  0
  -22.8500  -14.8370   20.5900 O   0  0  0  0  0  0  0  0  0  0  0  0
  -22.9430  -12.3050   22.4450 H   0  0  0  0  0  0  0  0  0  0  0  0
  -21.6590  -13.4650   22.2700 H   0  0  0  0  0  0  0  0  0  0  0  0
  -25.9300  -15.4090   20.2210 N   0  0  0  0  0  0  0  0  0  0  0  0
  -25.1750  -16.0740   20.3430 H   0  0  0  0  0  0  0  0  0  0  0  0
  -26.7520  -15.8170   19.7960 H   0  0  0  0  0  0  0  0  0  0  0  0
  1  5  1  0
  2 54  1  0
  2  1  2  0
  3  6  2  0
  4  8  2  0
  6  1  1  0
  7  3  1  0
  7  4  1  0
  9  3  1  0
  9  2  1  0
 10  7  1  0
 12 11  1  0
 12  4  1  0
 12 13  1  0
 14 25  2  0
 15 13  1  0
 15 20  1  0
 16 24  1  0
 16 26  1  0
 17 19  1  0
 18 24  1  0
 19 20  2  0
 19 18  1  0
 21 15  2  0
 22 21  1  0
 22 17  2  0
 23 17  1  0
 23 16  1  0
 24 14  1  0
 26 28  2  0
 27 26  1  0
 29 27  1  0
 30 39  2  0
 30 35  1  0
 31 27  1  0
 31 35  1  0
 32 31  1  0
 33 34  1  0
 33 32  1  0
 34 30  1  0
 35 36  2  0
 36 37  1  0
 38 37  2  0
 39 38  1  0
 40 14  1  0
 40 41  1  0
 40 50  1  0
 41 44  1  0
 42 46  1  0
 42 41  1  0
 43 42  2  0
 46 45  1  0
 48 46  1  0
 48 49  1  0
 48 47  1  0
 50 53  1  1
 50 51  1  0
 52 50  1  0
 54 63  1  0
 55 63  1  0
 56 61  1  0
 57 58  1  0
 57 56  1  0
 59 58  1  0
 59 68  1  0
 59 60  1  0
 61 55  1  0
 61 60  1  0
 62 55  2  0
 63 64  1  0
 65 66  2  0
 66 85  1  0
 67 66  1  0
 67 70  1  0
 68 69  1  0
 68 65  1  0
 69 67  2  0
 70 71  1  0
 71 72  2  0
 73 76  1  0
 73 72  1  0
 74 73  2  0
 75 74  1  0
 75 70  2  0
 76 77  1  0
 77 82  2  0
 77 78  1  0
 78 79  2  0
 79 80  1  0
 80 84  1  0
 81 80  2  0
 82 81  1  0
 83 82  1  0
 85 86  1  0
 86 89  1  0
 86 88  1  0
 87 85  2  0
 90 91  1  0
 90 65  1  0
 92 90  1  0
M  ISO  4  12 101  13 101  55 100  63 100
M  END
>  <TORSDO>  (84) 
F 18

>  <SCORE>  (84) 
-14.221

>  <name>  (84) 
84

>  <ligand_id>  (84) 
84

>  <original_smiles>  (84) 
[H]c1c([H])c([H])c2c(c1[H])C([H])([H])C([H])([H])C([H])([H])C2([H])N([H])C(=O)C1([H])N(C(=O)C([H])(N([H])C(=O)C([H])(N([H])C([H])([H])[H])C([H])([H])[H])C(C([H])([H])[H])(C([H])([H])[H])C([H])([H])[H])C([H])([H])c2c([H])c(OC([H])(C(=O)N([H])c3nc(C([H])([H])[H])c(C([H])([H])N([H])C(=O)N4C([H])([H])C([H])([H])C([H])([H])C([H])(n5nc(-c6c([H])c([H])c(Oc7c([H])c([H])c(F)c([H])c7F)c([H])c6[H])c(C(=O)N([H])[H])c5N([H])[H])C4([H])[H])s3)C([H])([H])[H])c([H])c([H])c2C1([H])[H]

>  <smiles>  (84) 
[H]c1c([H])c([H])c2c(c1[H])C([H])([H])C([H])([H])C([H])([H])C2([H])N([H])C(=O)C1([H])N(C(=O)C([H])(N([H])C(=O)C([H])(N([H])C([H])([H])[H])C([H])([H])[H])C(C([H])([H])[H])(C([H])([H])[H])C([H])([H])[H])C([H])([H])c2c([H])c(OC([H])(C(=O)N([H])c3nc(C([H])([H])[H])c(C([H])([H])N([H])C(=O)N4C([H])([H])C([H])([H])C([H])([H])C([H])(n5nc(-c6c([H])c([H])c(Oc7c([H])c([H])c(F)c([H])c7F)c([H])c6[H])c(C(=O)N([H])[H])c5N([H])[H])C4([H])[H])s3)C([H])([H])[H])c([H])c([H])c2C1([H])[H]

$$$$
85:0:0
     RDKit          3D

102110  0  0  1  0  0  0  0  0999 V2000
  -30.1690  -18.2680   20.1980 C   0  0  0  0  0  0  0  0  0  0  0  0
  -30.5840  -18.5780   18.9120 C   0  0  0  0  0  0  0  0  0  0  0  0
  -29.2750  -20.4090   19.9910 C   0  0  0  0  0  0  0  0  0  0  0  0
  -28.7900  -22.8770   20.0220 C   0  0  0  0  0  0  0  0  0  0  0  0
  -29.3860  -19.3100   20.7660 N   0  0  0  0  0  0  0  0  0  0  0  0
  -28.5550  -21.5870   20.3950 N   0  0  0  0  0  0  0  0  0  0  0  0
  -29.8560  -23.2180   19.5010 O   0  0  0  0  0  0  0  0  0  0  0  0
  -30.0140  -20.1770   18.4200 S   0  0  0  0  0  0  0  0  0  0  0  0
  -27.7300  -21.4280   20.9550 H   0  0  0  0  0  0  0  0  0  0  0  0
  -26.4810  -23.4120   21.0430 C   0  0  0  0  0  1  0  0  0  0  0  0
  -27.6850  -23.9680   20.2470 C   0  0  0  0  0  3  0  0  0  0  0  0
  -28.1490  -25.3700   20.8210 C   0  0  0  0  0  2  0  0  0  0  0  0
  -28.0720  -26.5760   20.0070 O   0  0  0  0  0  0  0  0  0  0  0  0
  -24.5280  -31.9570   23.2150 C   0  0  0  0  0  0  0  0  0  0  0  0
  -26.9450  -27.3790   20.1030 C   0  0  0  0  0  0  0  0  0  0  0  0
  -23.2370  -30.5850   21.6140 C   0  0  0  0  0  3  0  0  0  0  0  0
  -24.6090  -28.9930   20.1640 C   0  0  0  0  0  0  0  0  0  0  0  0
  -25.7680  -30.8600   21.3480 C   0  0  0  0  0  2  0  0  0  0  0  0
  -25.7990  -29.4750   20.7210 C   0  0  0  0  0  0  0  0  0  0  0  0
  -26.9730  -28.6770   20.6850 C   0  0  0  0  0  3  0  0  0  0  0  0
  -25.7410  -26.9380   19.5200 C   0  0  0  0  0  3  0  0  0  0  0  0
  -24.5800  -27.7330   19.5470 C   0  0  0  0  0  3  0  0  0  0  0  0
  -23.3920  -29.8890   20.2360 C   0  0  0  0  0  2  0  0  0  0  0  0
  -24.5300  -31.1510   22.1170 N   0  0  0  0  0  0  0  0  0  0  0  0
  -23.4710  -32.2610   23.7880 O   0  0  0  0  0  0  0  0  0  0  0  0
  -22.5860  -29.5860   22.6000 C   0  0  0  0  0  0  0  0  0  0  0  0
  -21.2700  -29.3620   22.4430 N   0  0  0  0  0  0  0  0  0  0  0  0
  -23.2630  -29.0130   23.4570 O   0  0  0  0  0  0  0  0  0  0  0  0
  -20.7810  -29.8760   21.7220 H   0  0  0  0  0  0  0  0  0  0  0  0
  -17.9360  -28.0400   22.8570 C   0  0  0  0  0  0  0  0  0  0  0  0
  -20.4620  -28.4320   23.2300 C   0  0  0  0  0  3  0  0  0  0  0  0
  -20.6520  -26.9740   22.7450 C   0  0  0  0  0  2  0  0  0  0  0  0
  -19.6160  -26.5460   21.7010 C   0  0  0  0  0  2  0  0  0  0  0  0
  -18.2020  -26.6630   22.2720 C   0  0  0  0  0  2  0  0  0  0  0  0
  -18.9970  -28.8760   23.2950 C   0  0  0  0  0  0  0  0  0  0  0  0
  -18.6940  -30.1600   23.7980 C   0  0  0  0  0  3  0  0  0  0  0  0
  -17.3620  -30.6060   23.8740 C   0  0  0  0  0  3  0  0  0  0  0  0
  -16.3140  -29.7690   23.4530 C   0  0  0  0  0  3  0  0  0  0  0  0
  -16.6020  -28.4890   22.9480 C   0  0  0  0  0  3  0  0  0  0  0  0
  -25.8480  -32.5570   23.7950 C   0  0  0  0  0  3  0  0  0  0  0  0
  -25.5780  -33.9530   24.1630 N   0  0  0  0  0  0  0  0  0  0  0  0
  -25.8970  -35.0160   23.4120 C   0  0  0  0  0  0  0  0  0  0  0  0
  -26.5260  -34.9260   22.3560 O   0  0  0  0  0  0  0  0  0  0  0  0
  -25.0180  -34.0980   24.9910 H   0  0  0  0  0  0  0  0  0  0  0  0
  -24.1820  -36.8400   23.1700 C   0  0  0  0  0  1  0  0  0  0  0  0
  -25.4490  -36.4010   23.9180 C   0  0  0  0  0  3  0  0  0  0  0  0
  -27.6370  -37.2350   24.6640 C   0  0  0  0  0  1  0  0  0  0  0  0
  -26.4910  -37.4430   23.7830 N   0  0  0  0  0  0  0  0  0  0  0  0
  -26.1030  -38.3610   23.9840 H   0  0  0  0  0  0  0  0  0  0  0  0
  -26.4100  -31.7500   25.0290 C   0  0  1  0  0  0  0  0  0  0  0  0
  -25.3460  -31.4500   26.1100 C   0  0  0  0  0  1  0  0  0  0  0  0
  -27.0090  -30.3980   24.5740 C   0  0  0  0  0  1  0  0  0  0  0  0
  -27.5570  -32.5430   25.6990 C   0  0  0  0  0  1  0  0  0  0  0  0
  -31.4110  -17.8310   18.0510 N   0  0  0  0  0  0  0  0  0  0  0  0
  -31.6710  -16.8860   18.3140 H   0  0  0  0  0  0  0  0  0  0  0  0
  -32.3700  -18.4920   17.1520 C   0  0  0  0  0  3  0  0  0  0  0  0
  -33.9120  -18.2260   15.1100 C   0  0  0  0  0  1  0  0  0  0  0  0
  -33.3840  -16.2090   16.4920 C   0  0  0  0  0  1  0  0  0  0  0  0
  -31.6170  -17.2720   15.0650 C   0  0  0  0  0  1  0  0  0  0  0  0
  -32.8260  -17.5530   15.9820 C   0  0  1  0  0  0  0  0  0  0  0  0
  -33.5440  -19.1260   17.9480 C   0  0  0  0  0  0  0  0  0  0  0  0
  -34.0150  -20.5080   17.5080 C   0  0  0  0  0  1  0  0  0  0  0  0
  -34.0730  -18.5870   18.9260 O   0  0  0  0  0  0  0  0  0  0  0  0
  -30.5510  -17.0620   21.0820 C   0  0  0  0  0  2  0  0  0  0  0  0
  -30.7610  -14.6390   20.3530 C   0  0  0  0  0  0  0  0  0  0  0  0
  -30.4340  -12.5430   19.0880 C   0  0  0  0  0  2  0  0  0  0  0  0
  -29.4830  -12.8350   17.9100 C   0  0  0  0  0  2  0  0  0  0  0  0
  -28.0100  -12.7040   18.3500 C   0  0  0  0  0  2  0  0  0  0  0  0
  -27.7010  -13.4490   19.6820 C   0  0  0  0  0  3  0  0  0  0  0  0
  -28.7700  -13.1350   20.7530 C   0  0  0  0  0  2  0  0  0  0  0  0
  -30.0780  -13.4710   20.1740 N   0  0  0  0  0  0  0  0  0  0  0  0
  -31.9330  -14.7760   20.0010 O   0  0  0  0  0  0  0  0  0  0  0  0
  -30.0300  -15.7040   20.7620 N   0  0  0  0  0  0  0  0  0  0  0  0
  -29.0620  -15.5310   20.9700 H   0  0  0  0  0  0  0  0  0  0  0  0
  -25.2960  -14.0380   20.3800 C   0  0  0  0  0  0  0  0  0  0  0  0
  -24.2310  -13.2600   20.7460 C   0  0  0  0  0  0  0  0  0  0  0  0
  -24.7020  -11.9100   20.7280 C   0  0  0  0  0  0  0  0  0  0  0  0
  -26.3490  -13.1620   20.1590 N   0  0  0  0  0  0  0  0  0  0  0  0
  -25.9940  -11.8780   20.4260 N   0  0  0  0  0  0  0  0  0  0  0  0
  -23.9800  -10.6460   20.9240 C   0  0  0  0  0  0  0  0  0  0  0  0
  -24.3860   -9.7070   21.8970 C   0  0  0  0  0  3  0  0  0  0  0  0
  -23.6690   -8.5040   22.0740 C   0  0  0  0  0  3  0  0  0  0  0  0
  -22.5320   -8.2330   21.2770 C   0  0  0  0  0  0  0  0  0  0  0  0
  -22.1440   -9.1600   20.2940 C   0  0  0  0  0  3  0  0  0  0  0  0
  -22.8620  -10.3540   20.1160 C   0  0  0  0  0  3  0  0  0  0  0  0
  -21.7840   -7.0800   21.3640 O   0  0  0  0  0  0  0  0  0  0  0  0
  -21.6690   -6.3860   22.5390 C   0  0  0  0  0  0  0  0  0  0  0  0
  -21.1730   -6.9880   23.7180 C   0  0  0  0  0  3  0  0  0  0  0  0
  -21.0070   -6.2190   24.8860 C   0  0  0  0  0  3  0  0  0  0  0  0
  -21.3260   -4.8470   24.8790 C   0  0  0  0  0  0  0  0  0  0  0  0
  -21.8150   -4.2440   23.7060 C   0  0  0  0  0  3  0  0  0  0  0  0
  -21.9850   -5.0110   22.5410 C   0  0  0  0  0  0  0  0  0  0  0  0
  -22.4360   -4.4210   21.4060 F   0  0  0  0  0  0  0  0  0  0  0  0
  -21.1570   -4.1040   25.9980 F   0  0  0  0  0  0  0  0  0  0  0  0
  -22.8270  -13.7320   21.0000 C   0  0  0  0  0  0  0  0  0  0  0  0
  -22.0970  -13.0500   21.8760 N   0  0  0  0  0  0  0  0  0  0  0  0
  -22.3840  -14.7420   20.4530 O   0  0  0  0  0  0  0  0  0  0  0  0
  -22.4680  -12.2360   22.3410 H   0  0  0  0  0  0  0  0  0  0  0  0
  -21.1530  -13.3460   22.0810 H   0  0  0  0  0  0  0  0  0  0  0  0
  -25.4530  -15.4080   20.1960 N   0  0  0  0  0  0  0  0  0  0  0  0
  -24.6740  -16.0530   20.2980 H   0  0  0  0  0  0  0  0  0  0  0  0
  -26.2900  -15.8500   19.8380 H   0  0  0  0  0  0  0  0  0  0  0  0
  1  5  1  0
  1 64  1  0
  2  1  2  0
  3  6  1  0
  3  5  2  0
  4 11  1  0
  4  6  1  0
  6  9  1  0
  7  4  2  0
  8  2  1  0
  8  3  1  0
 11 12  1  0
 11 10  1  0
 13 15  1  0
 13 12  1  0
 14 25  2  0
 15 20  1  0
 16 24  1  0
 16 26  1  0
 17 23  1  0
 17 19  1  0
 18 24  1  0
 19 18  1  0
 20 19  2  0
 21 22  1  0
 21 15  2  0
 22 17  2  0
 23 16  1  0
 24 14  1  0
 26 28  2  0
 27 26  1  0
 29 27  1  0
 30 39  2  0
 30 35  1  0
 31 27  1  0
 31 35  1  0
 32 31  1  0
 33 34  1  0
 33 32  1  0
 34 30  1  0
 35 36  2  0
 36 37  1  0
 38 37  2  0
 39 38  1  0
 40 14  1  0
 40 41  1  0
 40 50  1  0
 41 44  1  0
 42 46  1  0
 42 41  1  0
 43 42  2  0
 46 45  1  0
 48 46  1  0
 48 49  1  0
 48 47  1  0
 50 53  1  1
 50 51  1  0
 52 50  1  0
 54 55  1  0
 54  2  1  0
 56 61  1  0
 56 54  1  0
 60 57  1  6
 59 60  1  0
 60 58  1  0
 60 56  1  0
 61 63  2  0
 62 61  1  0
 65 73  1  0
 66 71  1  0
 67 68  1  0
 67 66  1  0
 69 68  1  0
 69 78  1  0
 69 70  1  0
 71 65  1  0
 71 70  1  0
 72 65  2  0
 73 74  1  0
 73 64  1  0
 75 76  2  0
 76 95  1  0
 77 76  1  0
 77 80  1  0
 78 75  1  0
 78 79  1  0
 79 77  2  0
 80 81  1  0
 81 82  2  0
 83 86  1  0
 83 82  1  0
 84 83  2  0
 85 84  1  0
 85 80  2  0
 86 87  1  0
 87 92  2  0
 87 88  1  0
 88 89  2  0
 90 89  1  0
 90 94  1  0
 91 90  2  0
 92 91  1  0
 93 92  1  0
 95 96  1  0
 96 99  1  0
 96 98  1  0
 97 95  2  0
100101  1  0
100 75  1  0
102100  1  0
M  ISO  4  12 101  13 101  65 100  73 100
M  END
>  <TORSDO>  (85) 
F 23

>  <SCORE>  (85) 
-13.035

>  <name>  (85) 
85

>  <ligand_id>  (85) 
85

>  <original_smiles>  (85) 
[H]c1c([H])c([H])c2c(c1[H])C([H])([H])C([H])([H])C([H])([H])C2([H])N([H])C(=O)C1([H])N(C(=O)C([H])(N([H])C(=O)C([H])(N([H])C([H])([H])[H])C([H])([H])[H])C(C([H])([H])[H])(C([H])([H])[H])C([H])([H])[H])C([H])([H])c2c([H])c(OC([H])([H])C([H])(C(=O)N([H])c3nc(C([H])([H])N([H])C(=O)N4C([H])([H])C([H])([H])C([H])([H])C([H])(n5nc(-c6c([H])c([H])c(Oc7c([H])c([H])c(F)c([H])c7F)c([H])c6[H])c(C(=O)N([H])[H])c5N([H])[H])C4([H])[H])c(N([H])C([H])(C(=O)C([H])([H])[H])C(C([H])([H])[H])(C([H])([H])[H])C([H])([H])[H])s3)C([H])([H])[H])c([H])c([H])c2C1([H])[H]

>  <smiles>  (85) 
[H]c1c([H])c([H])c2c(c1[H])C([H])([H])C([H])([H])C([H])([H])C2([H])N([H])C(=O)C1([H])N(C(=O)C([H])(N([H])C(=O)C([H])(N([H])C([H])([H])[H])C([H])([H])[H])C(C([H])([H])[H])(C([H])([H])[H])C([H])([H])[H])C([H])([H])c2c([H])c(OC([H])([H])C([H])(C(=O)N([H])c3nc(C([H])([H])N([H])C(=O)N4C([H])([H])C([H])([H])C([H])([H])C([H])(n5nc(-c6c([H])c([H])c(Oc7c([H])c([H])c(F)c([H])c7F)c([H])c6[H])c(C(=O)N([H])[H])c5N([H])[H])C4([H])[H])c(N([H])C([H])(C(=O)C([H])([H])[H])C(C([H])([H])[H])(C([H])([H])[H])C([H])([H])[H])s3)C([H])([H])[H])c([H])c([H])c2C1([H])[H]

$$$$
86:0:0
     RDKit          3D

 97105  0  0  1  0  0  0  0  0999 V2000
  -29.2550  -19.9000   18.6710 C   0  0  0  0  0  3  0  0  0  0  0  0
  -29.3490  -18.4860   18.9050 C   0  0  0  0  0  0  0  0  0  0  0  0
  -30.3490  -18.1450   19.7960 C   0  0  0  0  0  0  0  0  0  0  0  0
  -30.1750  -20.6680   19.3480 C   0  0  0  0  0  0  0  0  0  0  0  0
  -28.3670  -17.5240   18.3020 C   0  0  0  0  0  1  0  0  0  0  0  0
  -31.3250  -19.5870   20.1070 S   0  0  0  0  0  0  0  0  0  0  0  0
  -29.3180  -22.9690   19.2650 C   0  0  0  0  0  0  0  0  0  0  0  0
  -30.2830  -22.0350   19.4680 N   0  0  0  0  0  0  0  0  0  0  0  0
  -28.2060  -22.6760   18.8190 O   0  0  0  0  0  0  0  0  0  0  0  0
  -31.1480  -22.3760   19.8610 H   0  0  0  0  0  0  0  0  0  0  0  0
  -29.6280  -24.4650   19.5710 C   0  0  0  0  0  2  0  0  0  0  0  0
  -28.3330  -24.9220   21.7390 C   0  0  0  0  0  1  0  0  0  0  0  0
  -28.4520  -25.2580   20.2410 C   0  0  0  0  0  3  0  0  0  0  0  0
  -28.5730  -26.7080   20.1230 O   0  0  0  0  0  0  0  0  0  0  0  0
  -24.7010  -31.8560   23.2880 C   0  0  0  0  0  0  0  0  0  0  0  0
  -27.4070  -27.4730   20.1190 C   0  0  0  0  0  0  0  0  0  0  0  0
  -23.5400  -30.5390   21.5460 C   0  0  0  0  0  3  0  0  0  0  0  0
  -25.0320  -29.0430   20.1120 C   0  0  0  0  0  0  0  0  0  0  0  0
  -26.0830  -30.8560   21.4660 C   0  0  0  0  0  2  0  0  0  0  0  0
  -26.1770  -29.5120   20.7700 C   0  0  0  0  0  0  0  0  0  0  0  0
  -27.3640  -28.7340   20.7710 C   0  0  0  0  0  3  0  0  0  0  0  0
  -26.2420  -27.0420   19.4410 C   0  0  0  0  0  3  0  0  0  0  0  0
  -25.0630  -27.8090   19.4430 C   0  0  0  0  0  3  0  0  0  0  0  0
  -23.7980  -29.9180   20.1470 C   0  0  0  0  0  2  0  0  0  0  0  0
  -24.7910  -31.0960   22.1600 N   0  0  0  0  0  0  0  0  0  0  0  0
  -23.6030  -32.1230   23.7950 O   0  0  0  0  0  0  0  0  0  0  0  0
  -22.8410  -29.4860   22.4340 C   0  0  0  0  0  0  0  0  0  0  0  0
  -21.5190  -29.3360   22.2560 N   0  0  0  0  0  0  0  0  0  0  0  0
  -23.4860  -28.8130   23.2440 O   0  0  0  0  0  0  0  0  0  0  0  0
  -21.0650  -29.9300   21.5750 H   0  0  0  0  0  0  0  0  0  0  0  0
  -18.1050  -28.1970   22.5890 C   0  0  0  0  0  0  0  0  0  0  0  0
  -20.6580  -28.3810   22.9540 C   0  0  0  0  0  3  0  0  0  0  0  0
  -20.7490  -26.9770   22.3100 C   0  0  0  0  0  2  0  0  0  0  0  0
  -19.6720  -26.7300   21.2480 C   0  0  0  0  0  2  0  0  0  0  0  0
  -18.2750  -26.8770   21.8550 C   0  0  0  0  0  2  0  0  0  0  0  0
  -19.2270  -28.9110   23.0900 C   0  0  0  0  0  0  0  0  0  0  0  0
  -19.0170  -30.1500   23.7350 C   0  0  0  0  0  3  0  0  0  0  0  0
  -17.7180  -30.6720   23.8850 C   0  0  0  0  0  3  0  0  0  0  0  0
  -16.6110  -29.9530   23.4000 C   0  0  0  0  0  3  0  0  0  0  0  0
  -16.8050  -28.7170   22.7590 C   0  0  0  0  0  3  0  0  0  0  0  0
  -25.9710  -32.4410   23.9810 C   0  0  0  0  0  3  0  0  0  0  0  0
  -25.6480  -33.8080   24.4070 N   0  0  0  0  0  0  0  0  0  0  0  0
  -25.9910  -34.9150   23.7340 C   0  0  0  0  0  0  0  0  0  0  0  0
  -26.6800  -34.8900   22.7110 O   0  0  0  0  0  0  0  0  0  0  0  0
  -25.0410  -33.9020   25.2080 H   0  0  0  0  0  0  0  0  0  0  0  0
  -24.2580  -36.7190   23.4790 C   0  0  0  0  0  1  0  0  0  0  0  0
  -25.4860  -36.2640   24.2820 C   0  0  0  0  0  3  0  0  0  0  0  0
  -27.5980  -37.0940   25.2190 C   0  0  0  0  0  1  0  0  0  0  0  0
  -26.5150  -37.3270   24.2660 N   0  0  0  0  0  0  0  0  0  0  0  0
  -26.1010  -38.2320   24.4730 H   0  0  0  0  0  0  0  0  0  0  0  0
  -26.4640  -31.5750   25.2060 C   0  0  1  0  0  0  0  0  0  0  0  0
  -25.3470  -31.2480   26.2230 C   0  0  0  0  0  1  0  0  0  0  0  0
  -27.0680  -30.2370   24.7190 C   0  0  0  0  0  1  0  0  0  0  0  0
  -27.5920  -32.3230   25.9540 C   0  0  0  0  0  1  0  0  0  0  0  0
  -30.5130  -16.8140   20.5690 C   0  0  0  0  0  0  0  0  0  0  0  0
  -30.9660  -14.5440   19.3210 C   0  0  0  0  0  0  0  0  0  0  0  0
  -30.4980  -12.4500   18.0820 C   0  0  0  0  0  2  0  0  0  0  0  0
  -29.4080  -12.7590   17.0320 C   0  0  0  0  0  2  0  0  0  0  0  0
  -27.9920  -12.6460   17.6410 C   0  0  0  0  0  2  0  0  0  0  0  0
  -27.8630  -13.3800   19.0000 C   0  0  0  0  0  3  0  0  0  0  0  0
  -29.0450  -13.0330   19.9320 C   0  0  0  0  0  2  0  0  0  0  0  0
  -30.2890  -13.3670   19.2090 N   0  0  0  0  0  0  0  0  0  0  0  0
  -32.0720  -14.7380   18.8070 O   0  0  0  0  0  0  0  0  0  0  0  0
  -30.2320  -15.5170   19.9080 N   0  0  0  0  0  4  0  0  0  0  0  0
  -29.3110  -15.1720   20.1340 H   0  0  0  0  0  0  0  0  0  0  0  0
  -25.5960  -14.0430   20.0230 C   0  0  0  0  0  0  0  0  0  0  0  0
  -24.5580  -13.2930   20.5040 C   0  0  0  0  0  0  0  0  0  0  0  0
  -24.9720  -11.9290   20.3900 C   0  0  0  0  0  0  0  0  0  0  0  0
  -26.5760  -13.1370   19.6390 N   0  0  0  0  0  0  0  0  0  0  0  0
  -26.2120  -11.8620   19.9170 N   0  0  0  0  0  0  0  0  0  0  0  0
  -24.2410  -10.6830   20.6440 C   0  0  0  0  0  0  0  0  0  0  0  0
  -24.7030   -9.7230   21.5720 C   0  0  0  0  0  3  0  0  0  0  0  0
  -23.9700   -8.5420   21.8140 C   0  0  0  0  0  3  0  0  0  0  0  0
  -22.7560   -8.3090   21.1240 C   0  0  0  0  0  0  0  0  0  0  0  0
  -22.3070   -9.2510   20.1850 C   0  0  0  0  0  3  0  0  0  0  0  0
  -23.0430  -10.4260   19.9430 C   0  0  0  0  0  3  0  0  0  0  0  0
  -21.9940   -7.1740   21.2670 O   0  0  0  0  0  0  0  0  0  0  0  0
  -21.9190   -6.5060   22.4630 C   0  0  0  0  0  0  0  0  0  0  0  0
  -21.4790   -7.1410   23.6440 C   0  0  0  0  0  3  0  0  0  0  0  0
  -21.3610   -6.4040   24.8400 C   0  0  0  0  0  3  0  0  0  0  0  0
  -21.6660   -5.0300   24.8460 C   0  0  0  0  0  0  0  0  0  0  0  0
  -22.0960   -4.3920   23.6720 C   0  0  0  0  0  3  0  0  0  0  0  0
  -22.2220   -5.1290   22.4800 C   0  0  0  0  0  0  0  0  0  0  0  0
  -22.6210   -4.5090   21.3440 F   0  0  0  0  0  0  0  0  0  0  0  0
  -21.5400   -4.3180   25.9910 F   0  0  0  0  0  0  0  0  0  0  0  0
  -23.2190  -13.8060   20.9520 C   0  0  0  0  0  0  0  0  0  0  0  0
  -22.5840  -13.1170   21.8950 N   0  0  0  0  0  0  0  0  0  0  0  0
  -22.7470  -14.8480   20.5020 O   0  0  0  0  0  0  0  0  0  0  0  0
  -22.9850  -12.2760   22.2780 H   0  0  0  0  0  0  0  0  0  0  0  0
  -21.6900  -13.4380   22.2400 H   0  0  0  0  0  0  0  0  0  0  0  0
  -25.7830  -15.4120   19.8610 N   0  0  0  0  0  0  0  0  0  0  0  0
  -25.0600  -16.0830   20.0980 H   0  0  0  0  0  0  0  0  0  0  0  0
  -26.5830  -15.8370   19.4150 H   0  0  0  0  0  0  0  0  0  0  0  0
  -31.0580  -15.3930   22.6070 C   0  0  0  0  0  1  0  0  0  0  0  0
  -31.3260  -17.8310   22.8380 C   0  0  0  0  0  1  0  0  0  0  0  0
  -32.9340  -16.5210   21.4120 C   0  0  0  0  0  1  0  0  0  0  0  0
  -31.4580  -16.6690   21.8240 C   0  0  2  0  0  0  0  0  0  0  0  0
  1  2  1  0
  1  4  2  0
  2  3  2  0
  3  6  1  0
  3 55  1  0
  4  8  1  0
  4  6  1  0
  5  2  1  0
  7  8  1  0
  7 11  1  0
  8 10  1  0
  9  7  2  0
 11 13  1  0
 13 12  1  0
 14 13  1  0
 15 26  2  0
 16 14  1  0
 16 21  1  0
 17 25  1  0
 17 27  1  0
 18 24  1  0
 18 20  1  0
 19 25  1  0
 20 21  2  0
 20 19  1  0
 22 23  1  0
 22 16  2  0
 23 18  2  0
 24 17  1  0
 25 15  1  0
 27 29  2  0
 28 27  1  0
 30 28  1  0
 31 40  2  0
 31 36  1  0
 32 28  1  0
 32 36  1  0
 33 32  1  0
 34 35  1  0
 34 33  1  0
 35 31  1  0
 36 37  2  0
 37 38  1  0
 39 38  2  0
 40 39  1  0
 41 15  1  0
 41 42  1  0
 41 51  1  0
 42 45  1  0
 43 47  1  0
 43 42  1  0
 44 43  2  0
 47 46  1  0
 49 47  1  0
 49 50  1  0
 49 48  1  0
 51 54  1  1
 51 52  1  0
 53 51  1  0
 55 97  1  0
 56 64  1  0
 57 62  1  0
 58 59  1  0
 58 57  1  0
 60 59  1  0
 60 69  1  0
 60 61  1  0
 62 56  1  0
 62 61  1  0
 63 56  2  0
 64 65  1  0
 64 55  2  3
 66 67  2  0
 67 86  1  0
 68 67  1  0
 68 71  1  0
 69 70  1  0
 69 66  1  0
 70 68  2  0
 71 72  1  0
 72 73  2  0
 74 77  1  0
 74 73  1  0
 75 74  2  0
 76 75  1  0
 76 71  2  0
 77 78  1  0
 78 83  2  0
 78 79  1  0
 79 80  2  0
 80 81  1  0
 81 85  1  0
 82 81  2  0
 83 82  1  0
 84 83  1  0
 86 87  1  0
 87 90  1  0
 87 89  1  0
 88 86  2  0
 91 66  1  0
 91 92  1  0
 93 91  1  0
 97 96  1  6
 97 94  1  0
 97 95  1  0
M  ISO  4  13 101  14 101  56 100  64 100
M  END
>  <TORSDO>  (86) 
F 21

>  <SCORE>  (86) 
-7.725

>  <name>  (86) 
86

>  <ligand_id>  (86) 
86

>  <original_smiles>  (86) 
[H]c1c([H])c([H])c2c(c1[H])C([H])([H])C([H])([H])C([H])([H])C2([H])N([H])C(=O)C1([H])N(C(=O)C([H])(N([H])C(=O)C([H])(N([H])C([H])([H])[H])C([H])([H])[H])C(C([H])([H])[H])(C([H])([H])[H])C([H])([H])[H])C([H])([H])c2c([H])c(OC([H])(C([H])([H])[H])C([H])([H])C(=O)N([H])c3sc(C([H])(N([H])C(=O)N4C([H])([H])C([H])([H])C([H])([H])C([H])(n5nc(-c6c([H])c([H])c(Oc7c([H])c([H])c(F)c([H])c7F)c([H])c6[H])c(C(=O)N([H])[H])c5N([H])[H])C4([H])[H])C(C([H])([H])[H])(C([H])([H])[H])C([H])([H])[H])c(C([H])([H])[H])c3[H])c([H])c([H])c2C1([H])[H]

>  <smiles>  (86) 
[H]c1c([H])c([H])c2c(c1[H])C([H])([H])C([H])([H])C([H])([H])C2([H])N([H])C(=O)C1([H])N(C(=O)C([H])(N([H])C(=O)C([H])(N([H])C([H])([H])[H])C([H])([H])[H])C(C([H])([H])[H])(C([H])([H])[H])C([H])([H])[H])C([H])([H])c2c([H])c(OC([H])(C([H])([H])[H])C([H])([H])C(=O)N([H])c3sc(C([H])(N([H])C(=O)N4C([H])([H])C([H])([H])C([H])([H])C([H])(n5nc(-c6c([H])c([H])c(Oc7c([H])c([H])c(F)c([H])c7F)c([H])c6[H])c(C(=O)N([H])[H])c5N([H])[H])C4([H])[H])C(C([H])([H])[H])(C([H])([H])[H])C([H])([H])[H])c(C([H])([H])[H])c3[H])c([H])c([H])c2C1([H])[H]

$$$$
87:0:0
     RDKit          3D

 95103  0  0  1  0  0  0  0  0999 V2000
  -28.2980  -19.1090   20.1490 C   0  0  0  0  0  0  0  0  0  0  0  0
  -29.6300  -18.7150   20.2360 C   0  0  0  0  0  0  0  0  0  0  0  0
  -29.1640  -21.2600   19.7950 C   0  0  0  0  0  0  0  0  0  0  0  0
  -28.3390  -23.7890   19.6520 C   0  0  0  0  0  0  0  0  0  0  0  0
  -27.1080  -18.2270   20.3730 C   0  0  0  0  0  1  0  0  0  0  0  0
  -28.0580  -20.5010   19.9100 N   0  0  0  0  0  0  0  0  0  0  0  0
  -29.2230  -22.7230   19.5480 N   0  0  0  0  0  0  0  0  0  0  0  0
  -27.2020  -23.6560   20.1120 O   0  0  0  0  0  0  0  0  0  0  0  0
  -30.6040  -20.1870   19.9150 S   0  0  0  0  0  0  0  0  0  0  0  0
  -30.1350  -23.0220   19.2350 H   0  0  0  0  0  0  0  0  0  0  0  0
  -28.6890  -25.4160   17.6320 C   0  0  0  0  0  1  0  0  0  0  0  0
  -28.8150  -25.2480   19.1570 C   0  0  0  0  0  3  0  0  0  0  0  0
  -28.4750  -26.4930   19.9410 O   0  0  0  0  0  0  0  0  0  0  0  0
  -24.5550  -31.7550   22.9960 C   0  0  0  0  0  0  0  0  0  0  0  0
  -27.3130  -27.2960   19.8630 C   0  0  0  0  0  0  0  0  0  0  0  0
  -23.4020  -30.3590   21.3170 C   0  0  0  0  0  3  0  0  0  0  0  0
  -24.9050  -28.8710   19.8690 C   0  0  0  0  0  0  0  0  0  0  0  0
  -25.9360  -30.7390   21.1620 C   0  0  0  0  0  2  0  0  0  0  0  0
  -26.0570  -29.3740   20.4840 C   0  0  0  0  0  0  0  0  0  0  0  0
  -27.2580  -28.5980   20.4690 C   0  0  0  0  0  3  0  0  0  0  0  0
  -26.1260  -26.8420   19.2520 C   0  0  0  0  0  3  0  0  0  0  0  0
  -24.9440  -27.6120   19.2450 C   0  0  0  0  0  3  0  0  0  0  0  0
  -23.6460  -29.7160   19.9260 C   0  0  0  0  0  2  0  0  0  0  0  0
  -24.6490  -30.9700   21.8830 N   0  0  0  0  0  0  0  0  0  0  0  0
  -23.4600  -31.9920   23.5270 O   0  0  0  0  0  0  0  0  0  0  0  0
  -22.7590  -29.3070   22.2520 C   0  0  0  0  0  0  0  0  0  0  0  0
  -21.4300  -29.1360   22.1490 N   0  0  0  0  0  0  0  0  0  0  0  0
  -23.4550  -28.6490   23.0310 O   0  0  0  0  0  0  0  0  0  0  0  0
  -20.9280  -29.7190   21.4950 H   0  0  0  0  0  0  0  0  0  0  0  0
  -18.0550  -27.9780   22.7440 C   0  0  0  0  0  0  0  0  0  0  0  0
  -20.6280  -28.1680   22.8990 C   0  0  0  0  0  3  0  0  0  0  0  0
  -20.6680  -26.7740   22.2310 C   0  0  0  0  0  2  0  0  0  0  0  0
  -19.5110  -26.5390   21.2560 C   0  0  0  0  0  2  0  0  0  0  0  0
  -18.1660  -26.6710   21.9760 C   0  0  0  0  0  2  0  0  0  0  0  0
  -19.2110  -28.6880   23.1640 C   0  0  0  0  0  0  0  0  0  0  0  0
  -19.0510  -29.9140   23.8460 C   0  0  0  0  0  3  0  0  0  0  0  0
  -17.7680  -30.4290   24.1110 C   0  0  0  0  0  3  0  0  0  0  0  0
  -16.6270  -29.7150   23.7050 C   0  0  0  0  0  3  0  0  0  0  0  0
  -16.7720  -28.4910   23.0280 C   0  0  0  0  0  3  0  0  0  0  0  0
  -25.8130  -32.4110   23.6430 C   0  0  0  0  0  3  0  0  0  0  0  0
  -26.3530  -31.6180   24.8970 C   0  0  1  0  0  0  0  0  0  0  0  0
  -25.2610  -31.2860   25.9410 C   0  0  0  0  0  1  0  0  0  0  0  0
  -27.0080  -30.2870   24.4610 C   0  0  0  0  0  1  0  0  0  0  0  0
  -27.4570  -32.4400   25.6040 C   0  0  0  0  0  1  0  0  0  0  0  0
  -25.4550  -33.7860   24.0210 N   0  0  0  0  0  0  0  0  0  0  0  0
  -25.7620  -34.8780   23.3070 C   0  0  0  0  0  0  0  0  0  0  0  0
  -26.4450  -34.8350   22.2800 O   0  0  0  0  0  0  0  0  0  0  0  0
  -24.8520  -33.8930   24.8230 H   0  0  0  0  0  0  0  0  0  0  0  0
  -23.9780  -36.6260   23.0080 C   0  0  0  0  0  1  0  0  0  0  0  0
  -25.2270  -36.2320   23.8120 C   0  0  0  0  0  3  0  0  0  0  0  0
  -27.3200  -37.1620   24.6990 C   0  0  0  0  0  1  0  0  0  0  0  0
  -26.2250  -37.3220   23.7460 N   0  0  0  0  0  0  0  0  0  0  0  0
  -25.7850  -38.2230   23.9160 H   0  0  0  0  0  0  0  0  0  0  0  0
  -30.3060  -17.3810   20.7900 C   0  0  0  0  0  3  0  0  0  0  0  0
  -30.5350  -14.8720   20.0150 C   0  0  0  0  0  0  0  0  0  0  0  0
  -30.3090  -12.6440   18.9050 C   0  0  0  0  0  2  0  0  0  0  0  0
  -29.2820  -12.7400   17.7570 C   0  0  0  0  0  2  0  0  0  0  0  0
  -27.8550  -12.5030   18.2880 C   0  0  0  0  0  2  0  0  0  0  0  0
  -27.5480  -13.3260   19.5680 C   0  0  0  0  0  3  0  0  0  0  0  0
  -28.6890  -13.2240   20.6020 C   0  0  0  0  0  2  0  0  0  0  0  0
  -29.9230  -13.6420   19.9280 N   0  0  0  0  0  0  0  0  0  0  0  0
  -31.6820  -15.0100   19.5830 O   0  0  0  0  0  0  0  0  0  0  0  0
  -29.8030  -15.9710   20.4550 N   0  0  0  0  0  0  0  0  0  0  0  0
  -28.8470  -15.7740   20.7040 H   0  0  0  0  0  0  0  0  0  0  0  0
  -25.2030  -13.8070   20.4850 C   0  0  0  0  0  0  0  0  0  0  0  0
  -24.1930  -12.9840   20.9010 C   0  0  0  0  0  0  0  0  0  0  0  0
  -24.6960  -11.6520   20.7870 C   0  0  0  0  0  0  0  0  0  0  0  0
  -26.2540  -12.9730   20.1430 N   0  0  0  0  0  0  0  0  0  0  0  0
  -25.9620  -11.6700   20.3870 N   0  0  0  0  0  0  0  0  0  0  0  0
  -24.0260  -10.3590   20.9780 C   0  0  0  0  0  0  0  0  0  0  0  0
  -24.4550   -9.4420   21.9620 C   0  0  0  0  0  3  0  0  0  0  0  0
  -23.7810   -8.2140   22.1400 C   0  0  0  0  0  3  0  0  0  0  0  0
  -22.6640   -7.8950   21.3330 C   0  0  0  0  0  0  0  0  0  0  0  0
  -22.2550   -8.8000   20.3380 C   0  0  0  0  0  3  0  0  0  0  0  0
  -22.9300  -10.0190   20.1590 C   0  0  0  0  0  3  0  0  0  0  0  0
  -21.9640   -6.7140   21.4160 O   0  0  0  0  0  0  0  0  0  0  0  0
  -21.7930   -6.0630   22.6110 C   0  0  0  0  0  0  0  0  0  0  0  0
  -21.1150   -6.6620   23.6960 C   0  0  0  0  0  3  0  0  0  0  0  0
  -20.9010   -5.9310   24.8810 C   0  0  0  0  0  3  0  0  0  0  0  0
  -21.3540   -4.6030   24.9820 C   0  0  0  0  0  0  0  0  0  0  0  0
  -22.0240   -4.0020   23.9010 C   0  0  0  0  0  3  0  0  0  0  0  0
  -22.2400   -4.7310   22.7180 C   0  0  0  0  0  0  0  0  0  0  0  0
  -22.8670   -4.1420   21.6720 F   0  0  0  0  0  0  0  0  0  0  0  0
  -21.1410   -3.8970   26.1180 F   0  0  0  0  0  0  0  0  0  0  0  0
  -22.8040  -13.4040   21.2850 C   0  0  0  0  0  0  0  0  0  0  0  0
  -22.1630  -12.6550   22.1760 N   0  0  0  0  0  0  0  0  0  0  0  0
  -22.2970  -14.4290   20.8330 O   0  0  0  0  0  0  0  0  0  0  0  0
  -22.5870  -11.8250   22.5620 H   0  0  0  0  0  0  0  0  0  0  0  0
  -21.2340  -12.9150   22.4750 H   0  0  0  0  0  0  0  0  0  0  0  0
  -25.3090  -15.1870   20.3410 N   0  0  0  0  0  0  0  0  0  0  0  0
  -24.5140  -15.7970   20.4980 H   0  0  0  0  0  0  0  0  0  0  0  0
  -26.0810  -15.6520   19.8860 H   0  0  0  0  0  0  0  0  0  0  0  0
  -31.1090  -16.2470   23.0090 C   0  0  0  0  0  1  0  0  0  0  0  0
  -31.2270  -18.7370   22.8220 C   0  0  0  0  0  1  0  0  0  0  0  0
  -30.4660  -17.4830   22.3480 C   0  0  0  0  0  3  0  0  0  0  0  0
  1  2  2  0
  1  5  1  0
  2 54  1  0
  3  6  2  0
  3  9  1  0
  4  8  2  0
  6  1  1  0
  7  4  1  0
  7  3  1  0
  9  2  1  0
 10  7  1  0
 12 11  1  0
 12  4  1  0
 12 13  1  0
 14 25  2  0
 15 13  1  0
 15 20  1  0
 16 24  1  0
 16 26  1  0
 17 23  1  0
 17 19  1  0
 18 24  1  0
 19 18  1  0
 20 19  2  0
 21 15  2  0
 22 21  1  0
 22 17  2  0
 23 16  1  0
 24 14  1  0
 26 28  2  0
 27 26  1  0
 29 27  1  0
 30 39  2  0
 30 35  1  0
 31 27  1  0
 31 35  1  0
 32 31  1  0
 33 34  1  0
 33 32  1  0
 34 30  1  0
 35 36  2  0
 36 37  1  0
 38 37  2  0
 39 38  1  0
 40 14  1  0
 40 45  1  0
 40 41  1  0
 41 44  1  1
 41 42  1  0
 43 41  1  0
 45 48  1  0
 46 50  1  0
 46 45  1  0
 47 46  2  0
 50 49  1  0
 52 50  1  0
 52 53  1  0
 52 51  1  0
 54 95  1  0
 55 63  1  0
 56 61  1  0
 57 58  1  0
 57 56  1  0
 59 58  1  0
 59 68  1  0
 59 60  1  0
 61 55  1  0
 61 60  1  0
 62 55  2  0
 63 64  1  0
 63 54  1  0
 65 66  2  0
 66 85  1  0
 67 66  1  0
 67 70  1  0
 68 69  1  0
 68 65  1  0
 69 67  2  0
 70 71  1  0
 71 72  2  0
 73 76  1  0
 73 72  1  0
 74 73  2  0
 75 74  1  0
 75 70  2  0
 76 77  1  0
 77 82  2  0
 77 78  1  0
 78 79  2  0
 79 80  1  0
 80 84  1  0
 81 80  2  0
 82 81  1  0
 83 82  1  0
 85 86  1  0
 86 89  1  0
 86 88  1  0
 87 85  2  0
 90 65  1  0
 90 91  1  0
 92 90  1  0
 95 94  1  0
 95 93  1  0
M  ISO  4  12 101  13 101  55 100  63 100
M  END
>  <TORSDO>  (87) 
F 19

>  <SCORE>  (87) 
-12.672

>  <name>  (87) 
87

>  <ligand_id>  (87) 
87

>  <original_smiles>  (87) 
[H]c1c([H])c([H])c2c(c1[H])C([H])([H])C([H])([H])C([H])([H])C2([H])N([H])C(=O)C1([H])N(C(=O)C([H])(N([H])C(=O)C([H])(N([H])C([H])([H])[H])C([H])([H])[H])C(C([H])([H])[H])(C([H])([H])[H])C([H])([H])[H])C([H])([H])c2c([H])c(OC([H])(C(=O)N([H])c3nc(C([H])([H])[H])c(C([H])(N([H])C(=O)N4C([H])([H])C([H])([H])C([H])([H])C([H])(n5nc(-c6c([H])c([H])c(Oc7c([H])c([H])c(F)c([H])c7F)c([H])c6[H])c(C(=O)N([H])[H])c5N([H])[H])C4([H])[H])C([H])(C([H])([H])[H])C([H])([H])[H])s3)C([H])([H])[H])c([H])c([H])c2C1([H])[H]

>  <smiles>  (87) 
[H]c1c([H])c([H])c2c(c1[H])C([H])([H])C([H])([H])C([H])([H])C2([H])N([H])C(=O)C1([H])N(C(=O)C([H])(N([H])C(=O)C([H])(N([H])C([H])([H])[H])C([H])([H])[H])C(C([H])([H])[H])(C([H])([H])[H])C([H])([H])[H])C([H])([H])c2c([H])c(OC([H])(C(=O)N([H])c3nc(C([H])([H])[H])c(C([H])(N([H])C(=O)N4C([H])([H])C([H])([H])C([H])([H])C([H])(n5nc(-c6c([H])c([H])c(Oc7c([H])c([H])c(F)c([H])c7F)c([H])c6[H])c(C(=O)N([H])[H])c5N([H])[H])C4([H])[H])C([H])(C([H])([H])[H])C([H])([H])[H])s3)C([H])([H])[H])c([H])c([H])c2C1([H])[H]

$$$$
88:0:0
     RDKit          3D

 96104  0  0  1  0  0  0  0  0999 V2000
  -29.8770  -23.2160   20.9140 C   0  0  0  0  0  0  0  0  0  0  0  0
  -30.3180  -22.0990   20.2790 N   0  0  0  0  0  0  0  0  0  0  0  0
  -29.4520  -23.1770   22.0710 O   0  0  0  0  0  0  0  0  0  0  0  0
  -30.6030  -22.2290   19.3190 H   0  0  0  0  0  0  0  0  0  0  0  0
  -30.5250  -20.3910   22.0770 C   0  0  0  0  0  3  0  0  0  0  0  0
  -30.5960  -18.9720   22.2530 C   0  0  0  0  0  3  0  0  0  0  0  0
  -30.5370  -18.2910   21.0510 C   0  0  0  0  0  0  0  0  0  0  0  0
  -30.4120  -20.8230   20.7720 C   0  0  0  0  0  0  0  0  0  0  0  0
  -30.4420  -19.4210   19.7120 S   0  0  0  0  0  0  0  0  0  0  0  0
  -30.7110  -18.3270   23.6130 C   0  0  1  0  0  0  0  0  0  0  0  0
  -30.9690  -19.2220   24.5680 F   0  0  0  0  0  0  0  0  0  0  0  0
  -29.5770  -17.7100   23.9410 F   0  0  0  0  0  0  0  0  0  0  0  0
  -31.6890  -17.4210   23.6440 F   0  0  0  0  0  0  0  0  0  0  0  0
  -30.5930  -16.8650   20.7950 C   0  0  0  0  0  0  0  0  0  0  0  0
  -30.4660  -15.5400   21.0820 C   0  0  0  0  0  3  0  0  0  0  0  0
  -31.0600  -14.5290   20.2060 C   0  0  0  0  0  0  0  0  0  0  0  0
  -30.6420  -12.4530   18.9270 C   0  0  0  0  0  2  0  0  0  0  0  0
  -29.6650  -12.7560   17.7690 C   0  0  0  0  0  2  0  0  0  0  0  0
  -28.2000  -12.6500   18.2350 C   0  0  0  0  0  2  0  0  0  0  0  0
  -27.9420  -13.4280   19.5510 C   0  0  0  0  0  3  0  0  0  0  0  0
  -29.0150  -13.0690   20.6010 C   0  0  0  0  0  2  0  0  0  0  0  0
  -30.3400  -13.3820   20.0310 N   0  0  0  0  0  0  0  0  0  0  0  0
  -32.1280  -14.7210   19.6130 O   0  0  0  0  0  0  0  0  0  0  0  0
  -25.5780  -14.1110   20.3160 C   0  0  0  0  0  0  0  0  0  0  0  0
  -24.4940  -13.3720   20.7100 C   0  0  0  0  0  0  0  0  0  0  0  0
  -24.9100  -12.0050   20.6600 C   0  0  0  0  0  0  0  0  0  0  0  0
  -26.5890  -13.1960   20.0570 N   0  0  0  0  0  0  0  0  0  0  0  0
  -26.1900  -11.9250   20.3160 N   0  0  0  0  0  0  0  0  0  0  0  0
  -24.1520  -10.7660   20.8670 C   0  0  0  0  0  0  0  0  0  0  0  0
  -24.5760   -9.7850   21.7890 C   0  0  0  0  0  3  0  0  0  0  0  0
  -23.8210   -8.6080   21.9790 C   0  0  0  0  0  3  0  0  0  0  0  0
  -22.6270   -8.4060   21.2490 C   0  0  0  0  0  0  0  0  0  0  0  0
  -22.2220   -9.3750   20.3160 C   0  0  0  0  0  3  0  0  0  0  0  0
  -22.9760  -10.5430   20.1220 C   0  0  0  0  0  3  0  0  0  0  0  0
  -21.8410   -7.2830   21.3530 O   0  0  0  0  0  0  0  0  0  0  0  0
  -21.7810   -6.5470   22.5090 C   0  0  0  0  0  0  0  0  0  0  0  0
  -21.4040   -7.1270   23.7400 C   0  0  0  0  0  3  0  0  0  0  0  0
  -21.2880   -6.3200   24.8910 C   0  0  0  0  0  3  0  0  0  0  0  0
  -21.5380   -4.9380   24.8120 C   0  0  0  0  0  0  0  0  0  0  0  0
  -21.9080   -4.3590   23.5840 C   0  0  0  0  0  3  0  0  0  0  0  0
  -22.0260   -5.1610   22.4360 C   0  0  0  0  0  0  0  0  0  0  0  0
  -22.3630   -4.5940   21.2530 F   0  0  0  0  0  0  0  0  0  0  0  0
  -21.4190   -4.1620   25.9160 F   0  0  0  0  0  0  0  0  0  0  0  0
  -23.1210  -13.8940   21.0240 C   0  0  0  0  0  0  0  0  0  0  0  0
  -22.3960  -13.2250   21.9150 N   0  0  0  0  0  0  0  0  0  0  0  0
  -22.6970  -14.9290   20.5110 O   0  0  0  0  0  0  0  0  0  0  0  0
  -22.7520  -12.3910   22.3580 H   0  0  0  0  0  0  0  0  0  0  0  0
  -21.4770  -13.5590   22.1640 H   0  0  0  0  0  0  0  0  0  0  0  0
  -25.7860  -15.4780   20.1440 N   0  0  0  0  0  0  0  0  0  0  0  0
  -25.0500  -16.1600   20.2820 H   0  0  0  0  0  0  0  0  0  0  0  0
  -26.6560  -15.8910   19.8300 H   0  0  0  0  0  0  0  0  0  0  0  0
  -30.3220  -24.4870   18.7070 C   0  0  0  0  0  1  0  0  0  0  0  0
  -31.0000  -25.4480   20.9210 C   0  0  0  0  0  1  0  0  0  0  0  0
  -29.9220  -24.6090   20.1980 C   0  0  2  0  0  0  0  0  0  0  0  0
  -28.5320  -25.3310   20.3290 C   0  0  0  0  0  2  0  0  0  0  0  0
  -28.5810  -26.7640   20.1410 O   0  0  0  0  0  0  0  0  0  0  0  0
  -24.6650  -31.9040   23.2000 C   0  0  0  0  0  0  0  0  0  0  0  0
  -27.3820  -27.4600   20.1500 C   0  0  0  0  0  0  0  0  0  0  0  0
  -23.4800  -30.4750   21.5680 C   0  0  0  0  0  3  0  0  0  0  0  0
  -24.9560  -28.9410   20.1580 C   0  0  0  0  0  0  0  0  0  0  0  0
  -26.0030  -30.8610   21.3680 C   0  0  0  0  0  2  0  0  0  0  0  0
  -26.1080  -29.4850   20.7370 C   0  0  0  0  0  0  0  0  0  0  0  0
  -27.3230  -28.7550   20.7220 C   0  0  0  0  0  3  0  0  0  0  0  0
  -26.2010  -26.9310   19.5770 C   0  0  0  0  0  3  0  0  0  0  0  0
  -24.9990  -27.6650   19.5710 C   0  0  0  0  0  3  0  0  0  0  0  0
  -23.6990  -29.7840   20.1950 C   0  0  0  0  0  2  0  0  0  0  0  0
  -24.7350  -31.0960   22.1030 N   0  0  0  0  0  0  0  0  0  0  0  0
  -23.5800  -32.1660   23.7370 O   0  0  0  0  0  0  0  0  0  0  0  0
  -22.8380  -29.4550   22.5360 C   0  0  0  0  0  0  0  0  0  0  0  0
  -21.5200  -29.2370   22.3920 N   0  0  0  0  0  0  0  0  0  0  0  0
  -23.5230  -28.8610   23.3730 O   0  0  0  0  0  0  0  0  0  0  0  0
  -21.0300  -29.7700   21.6880 H   0  0  0  0  0  0  0  0  0  0  0  0
  -18.1840  -27.9080   22.7950 C   0  0  0  0  0  0  0  0  0  0  0  0
  -20.7140  -28.2920   23.1630 C   0  0  0  0  0  3  0  0  0  0  0  0
  -20.9030  -26.8460   22.6450 C   0  0  0  0  0  2  0  0  0  0  0  0
  -19.8610  -26.4380   21.6000 C   0  0  0  0  0  2  0  0  0  0  0  0
  -18.4480  -26.5430   22.1800 C   0  0  0  0  0  2  0  0  0  0  0  0
  -19.2480  -28.7360   23.2430 C   0  0  0  0  0  0  0  0  0  0  0  0
  -18.9490  -30.0080   23.7730 C   0  0  0  0  0  3  0  0  0  0  0  0
  -17.6180  -30.4560   23.8640 C   0  0  0  0  0  3  0  0  0  0  0  0
  -16.5670  -29.6270   23.4350 C   0  0  0  0  0  3  0  0  0  0  0  0
  -16.8510  -28.3540   22.9080 C   0  0  0  0  0  3  0  0  0  0  0  0
  -25.9420  -32.5560   23.8170 C   0  0  0  0  0  3  0  0  0  0  0  0
  -25.6120  -33.9460   24.1520 N   0  0  0  0  0  0  0  0  0  0  0  0
  -25.9700  -35.0100   23.4220 C   0  0  0  0  0  0  0  0  0  0  0  0
  -26.6840  -34.9250   22.4180 O   0  0  0  0  0  0  0  0  0  0  0  0
  -24.9810  -34.0870   24.9280 H   0  0  0  0  0  0  0  0  0  0  0  0
  -24.2410  -36.7930   23.0230 C   0  0  0  0  0  1  0  0  0  0  0  0
  -25.4540  -36.3900   23.8760 C   0  0  0  0  0  3  0  0  0  0  0  0
  -27.5560  -37.2750   24.7870 C   0  0  0  0  0  1  0  0  0  0  0  0
  -26.4810  -37.4530   23.8140 N   0  0  0  0  0  0  0  0  0  0  0  0
  -26.0630  -38.3660   23.9650 H   0  0  0  0  0  0  0  0  0  0  0  0
  -26.4780  -31.7890   25.0890 C   0  0  1  0  0  0  0  0  0  0  0  0
  -25.3950  -31.5310   26.1620 C   0  0  0  0  0  1  0  0  0  0  0  0
  -27.0810  -30.4220   24.6860 C   0  0  0  0  0  1  0  0  0  0  0  0
  -27.6180  -32.6010   25.7490 C   0  0  0  0  0  1  0  0  0  0  0  0
  1  3  2  0
  2  8  1  0
  2  1  1  0
  4  2  1  0
  5  6  1  0
  6 10  1  0
  7  6  1  0
  8  5  2  0
  9  8  1  0
  9  7  1  0
 10 13  1  6
 10 12  1  0
 10 11  1  0
 14  7  2  0
 14 15  2  0
 16 15  1  0
 17 22  1  0
 18 19  1  0
 18 17  1  0
 20 19  1  0
 20 27  1  0
 20 21  1  0
 22 16  1  0
 22 21  1  0
 23 16  2  0
 24 25  2  0
 25 44  1  0
 26 25  1  0
 26 29  1  0
 27 24  1  0
 27 28  1  0
 28 26  2  0
 29 30  1  0
 30 31  2  0
 32 35  1  0
 32 31  1  0
 33 32  2  0
 34 33  1  0
 34 29  2  0
 35 36  1  0
 36 37  1  0
 37 38  2  0
 39 38  1  0
 39 43  1  0
 40 39  2  0
 41 36  2  0
 41 40  1  0
 42 41  1  0
 44 45  1  0
 45 48  1  0
 45 47  1  0
 46 44  2  0
 49 50  1  0
 49 24  1  0
 51 49  1  0
 54 52  1  6
 54 55  1  0
 54  1  1  0
 54 53  1  0
 56 58  1  0
 56 55  1  0
 57 68  2  0
 58 63  1  0
 59 67  1  0
 59 69  1  0
 60 66  1  0
 60 62  1  0
 61 67  1  0
 62 61  1  0
 63 62  2  0
 64 58  2  0
 65 64  1  0
 65 60  2  0
 66 59  1  0
 67 57  1  0
 69 71  2  0
 70 69  1  0
 72 70  1  0
 73 82  2  0
 73 78  1  0
 74 70  1  0
 74 78  1  0
 75 74  1  0
 76 77  1  0
 76 75  1  0
 77 73  1  0
 78 79  2  0
 79 80  1  0
 81 80  2  0
 82 81  1  0
 83 57  1  0
 83 84  1  0
 83 93  1  0
 84 87  1  0
 85 89  1  0
 85 84  1  0
 86 85  2  0
 89 88  1  0
 91 89  1  0
 91 92  1  0
 91 90  1  0
 93 96  1  1
 93 94  1  0
 95 93  1  0
M  ISO  4  15 100  16 100  55 101  56 101
M  END
>  <TORSDO>  (88) 
F 21

>  <SCORE>  (88) 
-11.045

>  <name>  (88) 
88

>  <ligand_id>  (88) 
88

>  <original_smiles>  (88) 
[H]C(C(=O)N1C([H])([H])C([H])([H])C([H])([H])C([H])(n2nc(-c3c([H])c([H])c(Oc4c([H])c([H])c(F)c([H])c4F)c([H])c3[H])c(C(=O)N([H])[H])c2N([H])[H])C1([H])[H])=C([H])c1sc(N([H])C(=O)C(C([H])([H])[H])(C([H])([H])[H])C([H])([H])Oc2c([H])c([H])c3c(c2[H])C([H])([H])N(C(=O)C([H])(N([H])C(=O)C([H])(N([H])C([H])([H])[H])C([H])([H])[H])C(C([H])([H])[H])(C([H])([H])[H])C([H])([H])[H])C([H])(C(=O)N([H])C2([H])c4c([H])c([H])c([H])c([H])c4C([H])([H])C([H])([H])C2([H])[H])C3([H])[H])c([H])c1C(F)(F)F

>  <smiles>  (88) 
[H]C(C(=O)N1C([H])([H])C([H])([H])C([H])([H])C([H])(n2nc(-c3c([H])c([H])c(Oc4c([H])c([H])c(F)c([H])c4F)c([H])c3[H])c(C(=O)N([H])[H])c2N([H])[H])C1([H])[H])=C([H])c1sc(N([H])C(=O)C(C([H])([H])[H])(C([H])([H])[H])C([H])([H])Oc2c([H])c([H])c3c(c2[H])C([H])([H])N(C(=O)C([H])(N([H])C(=O)C([H])(N([H])C([H])([H])[H])C([H])([H])[H])C(C([H])([H])[H])(C([H])([H])[H])C([H])([H])[H])C([H])(C(=O)N([H])C2([H])c4c([H])c([H])c([H])c([H])c4C([H])([H])C([H])([H])C2([H])[H])C3([H])[H])c([H])c1C(F)(F)F

$$$$
89:0:0
     RDKit          3D

 95103  0  0  1  0  0  0  0  0999 V2000
  -30.6890  -23.1830   20.0570 C   0  0  0  0  0  1  0  0  0  0  0  0
  -29.2820  -22.9540   20.6390 C   0  0  0  0  0  3  0  0  0  0  0  0
  -28.7220  -18.1350   19.7650 C   0  0  0  0  0  3  0  0  0  0  0  0
  -29.7860  -18.0760   20.6380 C   0  0  0  0  0  0  0  0  0  0  0  0
  -28.9560  -20.3840   20.1270 C   0  0  0  0  0  0  0  0  0  0  0  0
  -28.2630  -19.4390   19.4890 N   0  0  0  0  0  0  0  0  0  0  0  0
  -28.6790  -21.7570   20.0260 N   0  0  0  0  0  0  0  0  0  0  0  0
  -30.2420  -19.7030   21.1290 S   0  0  0  0  0  0  0  0  0  0  0  0
  -27.8490  -21.9440   19.4750 H   0  0  0  0  0  0  0  0  0  0  0  0
  -30.5490  -16.8800   21.1880 C   0  0  0  0  0  2  0  0  0  0  0  0
  -30.6840  -14.5010   20.3510 C   0  0  0  0  0  0  0  0  0  0  0  0
  -30.3660  -12.3160   19.2370 C   0  0  0  0  0  2  0  0  0  0  0  0
  -29.4110  -12.4950   18.0390 C   0  0  0  0  0  2  0  0  0  0  0  0
  -27.9430  -12.3670   18.4920 C   0  0  0  0  0  2  0  0  0  0  0  0
  -27.6230  -13.2360   19.7380 C   0  0  0  0  0  3  0  0  0  0  0  0
  -28.6880  -13.0370   20.8380 C   0  0  0  0  0  2  0  0  0  0  0  0
  -30.0040  -13.3250   20.2460 N   0  0  0  0  0  0  0  0  0  0  0  0
  -31.8090  -14.6600   19.8700 O   0  0  0  0  0  0  0  0  0  0  0  0
  -30.0090  -15.5330   20.9060 N   0  0  0  0  0  0  0  0  0  0  0  0
  -29.0870  -15.3230   21.2580 H   0  0  0  0  0  0  0  0  0  0  0  0
  -25.2480  -13.8730   20.4950 C   0  0  0  0  0  0  0  0  0  0  0  0
  -24.1750  -13.1110   20.8770 C   0  0  0  0  0  0  0  0  0  0  0  0
  -24.6160  -11.7540   20.8260 C   0  0  0  0  0  0  0  0  0  0  0  0
  -26.2750  -12.9770   20.2380 N   0  0  0  0  0  0  0  0  0  0  0  0
  -25.9000  -11.6980   20.4940 N   0  0  0  0  0  0  0  0  0  0  0  0
  -23.8750  -10.5000   21.0140 C   0  0  0  0  0  0  0  0  0  0  0  0
  -24.2930   -9.5280   21.9490 C   0  0  0  0  0  3  0  0  0  0  0  0
  -23.5500   -8.3420   22.1270 C   0  0  0  0  0  3  0  0  0  0  0  0
  -22.3760   -8.1180   21.3680 C   0  0  0  0  0  0  0  0  0  0  0  0
  -21.9780   -9.0800   20.4220 C   0  0  0  0  0  3  0  0  0  0  0  0
  -22.7220  -10.2580   20.2430 C   0  0  0  0  0  3  0  0  0  0  0  0
  -21.6080   -6.9820   21.4520 O   0  0  0  0  0  0  0  0  0  0  0  0
  -21.5320   -6.2490   22.6100 C   0  0  0  0  0  0  0  0  0  0  0  0
  -21.0600   -6.8100   23.8170 C   0  0  0  0  0  3  0  0  0  0  0  0
  -20.9310   -6.0030   24.9650 C   0  0  0  0  0  3  0  0  0  0  0  0
  -21.2690   -4.6370   24.9080 C   0  0  0  0  0  0  0  0  0  0  0  0
  -21.7330   -4.0760   23.7050 C   0  0  0  0  0  3  0  0  0  0  0  0
  -21.8630   -4.8800   22.5590 C   0  0  0  0  0  0  0  0  0  0  0  0
  -22.2920   -4.3310   21.3970 F   0  0  0  0  0  0  0  0  0  0  0  0
  -21.1390   -3.8600   26.0080 F   0  0  0  0  0  0  0  0  0  0  0  0
  -22.7900  -13.6090   21.1760 C   0  0  0  0  0  0  0  0  0  0  0  0
  -22.0670  -12.9120   22.0470 N   0  0  0  0  0  0  0  0  0  0  0  0
  -22.3610  -14.6470   20.6770 O   0  0  0  0  0  0  0  0  0  0  0  0
  -22.4260  -12.0720   22.4710 H   0  0  0  0  0  0  0  0  0  0  0  0
  -21.1390  -13.2270   22.2920 H   0  0  0  0  0  0  0  0  0  0  0  0
  -25.4290  -15.2410   20.3260 N   0  0  0  0  0  0  0  0  0  0  0  0
  -24.6700  -15.9020   20.4570 H   0  0  0  0  0  0  0  0  0  0  0  0
  -26.2700  -15.6690   19.9610 H   0  0  0  0  0  0  0  0  0  0  0  0
  -28.4050  -24.2780   20.7430 C   0  0  0  0  0  3  0  0  0  0  0  0
  -26.9350  -24.0130   21.1620 C   0  0  1  0  0  0  0  0  0  0  0  0
  -26.8850  -23.0560   22.0890 F   0  0  0  0  0  0  0  0  0  0  0  0
  -26.3790  -25.1000   21.6910 F   0  0  0  0  0  0  0  0  0  0  0  0
  -26.2070  -23.6300   20.1110 F   0  0  0  0  0  0  0  0  0  0  0  0
  -28.5380  -25.3310   19.5840 C   0  0  0  0  0  2  0  0  0  0  0  0
  -28.4510  -26.7190   20.0090 O   0  0  0  0  0  0  0  0  0  0  0  0
  -24.5530  -31.7910   23.1700 C   0  0  0  0  0  0  0  0  0  0  0  0
  -27.2580  -27.4250   19.9960 C   0  0  0  0  0  0  0  0  0  0  0  0
  -23.3790  -30.4260   21.4760 C   0  0  0  0  0  3  0  0  0  0  0  0
  -24.8570  -28.9410   20.0270 C   0  0  0  0  0  0  0  0  0  0  0  0
  -25.9080  -30.7990   21.3240 C   0  0  0  0  0  2  0  0  0  0  0  0
  -26.0070  -29.4460   20.6420 C   0  0  0  0  0  0  0  0  0  0  0  0
  -27.2080  -28.6970   20.6230 C   0  0  0  0  0  3  0  0  0  0  0  0
  -26.0820  -26.9400   19.3770 C   0  0  0  0  0  3  0  0  0  0  0  0
  -24.8910  -27.6870   19.3940 C   0  0  0  0  0  3  0  0  0  0  0  0
  -23.6090  -29.7910   20.0810 C   0  0  0  0  0  2  0  0  0  0  0  0
  -24.6300  -31.0200   22.0480 N   0  0  0  0  0  0  0  0  0  0  0  0
  -23.4620  -32.0430   23.7010 O   0  0  0  0  0  0  0  0  0  0  0  0
  -22.7220  -29.3740   22.3990 C   0  0  0  0  0  0  0  0  0  0  0  0
  -21.3950  -29.2110   22.2730 N   0  0  0  0  0  0  0  0  0  0  0  0
  -23.4020  -28.7120   23.1870 O   0  0  0  0  0  0  0  0  0  0  0  0
  -20.9060  -29.7950   21.6080 H   0  0  0  0  0  0  0  0  0  0  0  0
  -18.0030  -28.0830   22.8020 C   0  0  0  0  0  0  0  0  0  0  0  0
  -20.5740  -28.2520   23.0120 C   0  0  0  0  0  3  0  0  0  0  0  0
  -20.6180  -26.8570   22.3480 C   0  0  0  0  0  2  0  0  0  0  0  0
  -19.4770  -26.6270   21.3500 C   0  0  0  0  0  2  0  0  0  0  0  0
  -18.1200  -26.7720   22.0430 C   0  0  0  0  0  2  0  0  0  0  0  0
  -19.1550  -28.7850   23.2430 C   0  0  0  0  0  0  0  0  0  0  0  0
  -18.9920  -30.0170   23.9140 C   0  0  0  0  0  3  0  0  0  0  0  0
  -17.7080  -30.5450   24.1470 C   0  0  0  0  0  3  0  0  0  0  0  0
  -16.5710  -29.8380   23.7210 C   0  0  0  0  0  3  0  0  0  0  0  0
  -16.7190  -28.6080   23.0550 C   0  0  0  0  0  3  0  0  0  0  0  0
  -25.8260  -32.4140   23.8230 C   0  0  0  0  0  3  0  0  0  0  0  0
  -25.5180  -33.8140   24.1440 N   0  0  0  0  0  0  0  0  0  0  0  0
  -25.8640  -34.8620   23.3850 C   0  0  0  0  0  0  0  0  0  0  0  0
  -26.5470  -34.7510   22.3620 O   0  0  0  0  0  0  0  0  0  0  0  0
  -24.9150  -33.9750   24.9360 H   0  0  0  0  0  0  0  0  0  0  0  0
  -24.1430  -36.6560   23.0000 C   0  0  0  0  0  1  0  0  0  0  0  0
  -25.3730  -36.2530   23.8290 C   0  0  0  0  0  3  0  0  0  0  0  0
  -27.4960  -37.1450   24.6870 C   0  0  0  0  0  1  0  0  0  0  0  0
  -26.4100  -37.3020   23.7220 N   0  0  0  0  0  0  0  0  0  0  0  0
  -26.0030  -38.2260   23.8500 H   0  0  0  0  0  0  0  0  0  0  0  0
  -26.3070  -31.6380   25.1110 C   0  0  1  0  0  0  0  0  0  0  0  0
  -25.1880  -31.4050   26.1510 C   0  0  0  0  0  1  0  0  0  0  0  0
  -26.8940  -30.2570   24.7320 C   0  0  0  0  0  1  0  0  0  0  0  0
  -27.4430  -32.4260   25.8030 C   0  0  0  0  0  1  0  0  0  0  0  0
  2  1  1  0
  2 49  1  0
  3  4  2  0
  4  8  1  0
  4 10  1  0
  5  8  1  0
  6  3  1  0
  6  5  2  0
  7  5  1  0
  7  2  1  0
  9  7  1  0
 11 19  1  0
 12 17  1  0
 13 14  1  0
 13 12  1  0
 15 14  1  0
 15 24  1  0
 15 16  1  0
 17 11  1  0
 17 16  1  0
 18 11  2  0
 19 10  1  0
 19 20  1  0
 21 22  2  0
 22 41  1  0
 23 22  1  0
 23 26  1  0
 24 25  1  0
 24 21  1  0
 25 23  2  0
 26 27  1  0
 27 28  2  0
 29 32  1  0
 29 28  1  0
 30 29  2  0
 31 30  1  0
 31 26  2  0
 32 33  1  0
 33 34  1  0
 34 35  2  0
 36 35  1  0
 36 40  1  0
 37 36  2  0
 38 33  2  0
 38 37  1  0
 39 38  1  0
 41 42  1  0
 42 45  1  0
 42 44  1  0
 43 41  2  0
 46 47  1  0
 46 21  1  0
 48 46  1  0
 49 54  1  0
 49 50  1  0
 50 52  1  1
 50 51  1  0
 53 50  1  0
 54 55  1  0
 56 67  2  0
 57 55  1  0
 57 62  1  0
 58 66  1  0
 58 68  1  0
 59 65  1  0
 59 61  1  0
 60 66  1  0
 61 60  1  0
 62 61  2  0
 63 64  1  0
 63 57  2  0
 64 59  2  0
 65 58  1  0
 66 56  1  0
 68 70  2  0
 69 68  1  0
 71 69  1  0
 72 81  2  0
 72 77  1  0
 73 69  1  0
 73 77  1  0
 74 73  1  0
 75 76  1  0
 75 74  1  0
 76 72  1  0
 77 78  2  0
 78 79  1  0
 80 79  2  0
 81 80  1  0
 82 56  1  0
 82 83  1  0
 82 92  1  0
 83 86  1  0
 84 88  1  0
 84 83  1  0
 85 84  2  0
 88 87  1  0
 90 88  1  0
 90 91  1  0
 90 89  1  0
 92 95  1  1
 92 93  1  0
 94 92  1  0
M  ISO  4  11 100  19 100  54 101  55 101
M  END
>  <TORSDO>  (89) 
F 21

>  <SCORE>  (89) 
-13.701

>  <name>  (89) 
89

>  <ligand_id>  (89) 
89

>  <original_smiles>  (89) 
[H]c1nc(N([H])C([H])(C([H])([H])[H])C([H])(C(F)(F)F)C([H])([H])Oc2c([H])c([H])c3c(c2[H])C([H])([H])N(C(=O)C([H])(N([H])C(=O)C([H])(N([H])C([H])([H])[H])C([H])([H])[H])C(C([H])([H])[H])(C([H])([H])[H])C([H])([H])[H])C([H])(C(=O)N([H])C2([H])c4c([H])c([H])c([H])c([H])c4C([H])([H])C([H])([H])C2([H])[H])C3([H])[H])sc1C([H])([H])N([H])C(=O)N1C([H])([H])C([H])([H])C([H])([H])C([H])(n2nc(-c3c([H])c([H])c(Oc4c([H])c([H])c(F)c([H])c4F)c([H])c3[H])c(C(=O)N([H])[H])c2N([H])[H])C1([H])[H]

>  <smiles>  (89) 
[H]c1nc(N([H])C([H])(C([H])([H])[H])C([H])(C(F)(F)F)C([H])([H])Oc2c([H])c([H])c3c(c2[H])C([H])([H])N(C(=O)C([H])(N([H])C(=O)C([H])(N([H])C([H])([H])[H])C([H])([H])[H])C(C([H])([H])[H])(C([H])([H])[H])C([H])([H])[H])C([H])(C(=O)N([H])C2([H])c4c([H])c([H])c([H])c([H])c4C([H])([H])C([H])([H])C2([H])[H])C3([H])[H])sc1C([H])([H])N([H])C(=O)N1C([H])([H])C([H])([H])C([H])([H])C([H])(n2nc(-c3c([H])c([H])c(Oc4c([H])c([H])c(F)c([H])c4F)c([H])c3[H])c(C(=O)N([H])[H])c2N([H])[H])C1([H])[H]

$$$$
90:0:0
     RDKit          3D

 94102  0  0  1  0  0  0  0  0999 V2000
  -29.2790  -19.7800   20.4380 C   0  0  0  0  0  3  0  0  0  0  0  0
  -30.6460  -21.1460   19.1220 C   0  0  0  0  0  3  0  0  0  0  0  0
  -29.5300  -21.1470   19.9190 C   0  0  0  0  0  0  0  0  0  0  0  0
  -30.2330  -18.7870   20.0940 C   0  0  0  0  0  0  0  0  0  0  0  0
  -31.3910  -19.5550   19.0190 S   0  0  0  0  0  0  0  0  0  0  0  0
  -29.0270  -23.7380   20.0700 C   0  0  0  0  0  0  0  0  0  0  0  0
  -28.7020  -22.3780   20.1040 N   0  0  0  0  0  0  0  0  0  0  0  0
  -30.1890  -24.1100   20.2570 O   0  0  0  0  0  0  0  0  0  0  0  0
  -27.7060  -22.2050   20.1590 H   0  0  0  0  0  0  0  0  0  0  0  0
  -27.7660  -24.8750   18.2150 C   0  0  0  0  0  1  0  0  0  0  0  0
  -27.9120  -24.8660   19.7540 C   0  0  0  0  0  3  0  0  0  0  0  0
  -28.1390  -26.3150   20.1690 O   0  0  0  0  0  0  0  0  0  0  0  0
  -24.6430  -31.9720   23.2110 C   0  0  0  0  0  0  0  0  0  0  0  0
  -27.0600  -27.2520   20.1370 C   0  0  0  0  0  0  0  0  0  0  0  0
  -23.3660  -30.5750   21.6330 C   0  0  0  0  0  3  0  0  0  0  0  0
  -24.7400  -28.9770   20.1840 C   0  0  0  0  0  0  0  0  0  0  0  0
  -25.9130  -30.8200   21.3730 C   0  0  0  0  0  2  0  0  0  0  0  0
  -25.9440  -29.4280   20.7380 C   0  0  0  0  0  0  0  0  0  0  0  0
  -27.1060  -28.5800   20.7010 C   0  0  0  0  0  3  0  0  0  0  0  0
  -25.8160  -26.8820   19.5700 C   0  0  0  0  0  3  0  0  0  0  0  0
  -24.6830  -27.7120   19.5900 C   0  0  0  0  0  3  0  0  0  0  0  0
  -23.5260  -29.8830   20.2560 C   0  0  0  0  0  2  0  0  0  0  0  0
  -24.6620  -31.1420   22.1260 N   0  0  0  0  0  0  0  0  0  0  0  0
  -23.5810  -32.2780   23.7730 O   0  0  0  0  0  0  0  0  0  0  0  0
  -22.7110  -29.5840   22.6270 C   0  0  0  0  0  0  0  0  0  0  0  0
  -21.3880  -29.3780   22.5000 N   0  0  0  0  0  0  0  0  0  0  0  0
  -23.3930  -29.0030   23.4740 O   0  0  0  0  0  0  0  0  0  0  0  0
  -20.8940  -29.8990   21.7890 H   0  0  0  0  0  0  0  0  0  0  0  0
  -18.0430  -28.0810   22.9810 C   0  0  0  0  0  0  0  0  0  0  0  0
  -20.5820  -28.4550   23.3020 C   0  0  0  0  0  3  0  0  0  0  0  0
  -20.7530  -26.9980   22.8180 C   0  0  0  0  0  2  0  0  0  0  0  0
  -19.6940  -26.5730   21.7960 C   0  0  0  0  0  2  0  0  0  0  0  0
  -18.2890  -26.7020   22.3930 C   0  0  0  0  0  2  0  0  0  0  0  0
  -19.1190  -28.9100   23.3940 C   0  0  0  0  0  0  0  0  0  0  0  0
  -18.8350  -30.1960   23.9040 C   0  0  0  0  0  3  0  0  0  0  0  0
  -17.5080  -30.6530   24.0060 C   0  0  0  0  0  3  0  0  0  0  0  0
  -16.4460  -29.8220   23.6100 C   0  0  0  0  0  3  0  0  0  0  0  0
  -16.7140  -28.5380   23.1030 C   0  0  0  0  0  3  0  0  0  0  0  0
  -25.9530  -32.5930   23.7840 C   0  0  0  0  0  3  0  0  0  0  0  0
  -26.5360  -31.7890   25.0100 C   0  0  1  0  0  0  0  0  0  0  0  0
  -25.4920  -31.4910   26.1130 C   0  0  0  0  0  1  0  0  0  0  0  0
  -27.1290  -30.4380   24.5490 C   0  0  0  0  0  1  0  0  0  0  0  0
  -27.6970  -32.5830   25.6530 C   0  0  0  0  0  1  0  0  0  0  0  0
  -25.6550  -33.9800   24.1740 N   0  0  0  0  0  0  0  0  0  0  0  0
  -25.9380  -35.0580   23.4310 C   0  0  0  0  0  0  0  0  0  0  0  0
  -26.5470  -34.9910   22.3600 O   0  0  0  0  0  0  0  0  0  0  0  0
  -25.1080  -34.1050   25.0130 H   0  0  0  0  0  0  0  0  0  0  0  0
  -24.1830  -36.8520   23.2390 C   0  0  0  0  0  1  0  0  0  0  0  0
  -25.4720  -36.4290   23.9610 C   0  0  0  0  0  3  0  0  0  0  0  0
  -27.6470  -37.3030   24.6920 C   0  0  0  0  0  1  0  0  0  0  0  0
  -26.4920  -37.4930   23.8200 N   0  0  0  0  0  0  0  0  0  0  0  0
  -26.0900  -38.4050   24.0180 H   0  0  0  0  0  0  0  0  0  0  0  0
  -30.6360  -17.3610   20.7000 C   0  0  0  0  0  0  0  0  0  0  0  0
  -30.8530  -14.8340   19.9370 C   0  0  0  0  0  0  0  0  0  0  0  0
  -30.5960  -12.5340   18.9690 C   0  0  0  0  0  2  0  0  0  0  0  0
  -29.6200  -12.5560   17.7740 C   0  0  0  0  0  2  0  0  0  0  0  0
  -28.1640  -12.3980   18.2590 C   0  0  0  0  0  2  0  0  0  0  0  0
  -27.8290  -13.3290   19.4550 C   0  0  0  0  0  3  0  0  0  0  0  0
  -28.9230  -13.2830   20.5410 C   0  0  0  0  0  2  0  0  0  0  0  0
  -30.1930  -13.6230   19.8890 N   0  0  0  0  0  0  0  0  0  0  0  0
  -32.0410  -14.8860   19.6100 O   0  0  0  0  0  0  0  0  0  0  0  0
  -30.1310  -16.0000   20.1950 N   0  0  0  0  0  4  0  0  0  0  0  0
  -29.1390  -15.8600   20.3000 H   0  0  0  0  0  0  0  0  0  0  0  0
  -25.4800  -13.9570   20.2680 C   0  0  0  0  0  0  0  0  0  0  0  0
  -24.4160  -13.2000   20.6770 C   0  0  0  0  0  0  0  0  0  0  0  0
  -24.8590  -11.8420   20.6360 C   0  0  0  0  0  0  0  0  0  0  0  0
  -26.5020  -13.0610   19.9980 N   0  0  0  0  0  0  0  0  0  0  0  0
  -26.1380  -11.7840   20.2840 N   0  0  0  0  0  0  0  0  0  0  0  0
  -24.1190  -10.5910   20.8550 C   0  0  0  0  0  0  0  0  0  0  0  0
  -24.5470   -9.6360   21.8030 C   0  0  0  0  0  3  0  0  0  0  0  0
  -23.8090   -8.4500   22.0080 C   0  0  0  0  0  3  0  0  0  0  0  0
  -22.6280   -8.2120   21.2660 C   0  0  0  0  0  0  0  0  0  0  0  0
  -22.2190   -9.1570   20.3070 C   0  0  0  0  0  3  0  0  0  0  0  0
  -22.9580  -10.3320   20.1000 C   0  0  0  0  0  3  0  0  0  0  0  0
  -21.8600   -7.0780   21.3800 O   0  0  0  0  0  0  0  0  0  0  0  0
  -21.7780   -6.3810   22.5580 C   0  0  0  0  0  0  0  0  0  0  0  0
  -21.3330   -6.9860   23.7530 C   0  0  0  0  0  3  0  0  0  0  0  0
  -21.1980   -6.2150   24.9250 C   0  0  0  0  0  3  0  0  0  0  0  0
  -21.4970   -4.8410   24.9030 C   0  0  0  0  0  0  0  0  0  0  0  0
  -21.9340   -4.2340   23.7120 C   0  0  0  0  0  3  0  0  0  0  0  0
  -22.0720   -5.0020   22.5420 C   0  0  0  0  0  0  0  0  0  0  0  0
  -22.4740   -4.4090   21.3930 F   0  0  0  0  0  0  0  0  0  0  0  0
  -21.3590   -4.0980   26.0260 F   0  0  0  0  0  0  0  0  0  0  0  0
  -23.0360  -13.6990   20.9910 C   0  0  0  0  0  0  0  0  0  0  0  0
  -22.3320  -13.0270   21.8950 N   0  0  0  0  0  0  0  0  0  0  0  0
  -22.5930  -14.7210   20.4690 O   0  0  0  0  0  0  0  0  0  0  0  0
  -22.7050  -12.2000   22.3370 H   0  0  0  0  0  0  0  0  0  0  0  0
  -21.4070  -13.3430   22.1490 H   0  0  0  0  0  0  0  0  0  0  0  0
  -25.6560  -15.3240   20.0770 N   0  0  0  0  0  0  0  0  0  0  0  0
  -24.8980  -15.9840   20.2060 H   0  0  0  0  0  0  0  0  0  0  0  0
  -26.4860  -15.7480   19.6830 H   0  0  0  0  0  0  0  0  0  0  0  0
  -31.1670  -16.1120   22.9210 C   0  0  0  0  0  1  0  0  0  0  0  0
  -31.3260  -18.6120   22.8520 C   0  0  0  0  0  1  0  0  0  0  0  0
  -30.6000  -17.3850   22.2610 C   0  0  0  0  0  3  0  0  0  0  0  0
  2  3  2  0
  3  7  1  0
  3  1  1  0
  4  1  2  0
  4 53  1  0
  5  2  1  0
  5  4  1  0
  6  7  1  0
  6  8  2  0
  7  9  1  0
 11 10  1  0
 11  6  1  0
 11 12  1  0
 13 24  2  0
 14 12  1  0
 14 19  1  0
 15 23  1  0
 15 25  1  0
 16 22  1  0
 16 18  1  0
 17 23  1  0
 18 17  1  0
 19 18  2  0
 20 21  1  0
 20 14  2  0
 21 16  2  0
 22 15  1  0
 23 13  1  0
 25 27  2  0
 26 25  1  0
 28 26  1  0
 29 38  2  0
 29 34  1  0
 30 26  1  0
 30 34  1  0
 31 30  1  0
 32 33  1  0
 32 31  1  0
 33 29  1  0
 34 35  2  0
 35 36  1  0
 37 36  2  0
 38 37  1  0
 39 13  1  0
 39 44  1  0
 39 40  1  0
 40 43  1  1
 40 41  1  0
 42 40  1  0
 44 47  1  0
 45 49  1  0
 45 44  1  0
 46 45  2  0
 49 48  1  0
 51 49  1  0
 51 52  1  0
 51 50  1  0
 53 94  1  0
 54 62  1  0
 55 60  1  0
 56 57  1  0
 56 55  1  0
 58 57  1  0
 58 67  1  0
 58 59  1  0
 60 54  1  0
 60 59  1  0
 61 54  2  0
 62 63  1  0
 62 53  2  3
 64 65  2  0
 65 84  1  0
 66 65  1  0
 66 69  1  0
 67 64  1  0
 67 68  1  0
 68 66  2  0
 69 70  1  0
 70 71  2  0
 72 75  1  0
 72 71  1  0
 73 72  2  0
 74 73  1  0
 74 69  2  0
 75 76  1  0
 76 77  1  0
 77 78  2  0
 79 78  1  0
 79 83  1  0
 80 79  2  0
 81 76  2  0
 81 80  1  0
 82 81  1  0
 84 85  1  0
 85 88  1  0
 85 87  1  0
 86 84  2  0
 89 90  1  0
 89 64  1  0
 91 89  1  0
 94 93  1  0
 94 92  1  0
M  ISO  4  11 101  12 101  54 100  62 100
M  END
>  <TORSDO>  (90) 
F 20

>  <SCORE>  (90) 
-12.609

>  <name>  (90) 
90

>  <ligand_id>  (90) 
90

>  <original_smiles>  (90) 
[H]c1sc(C([H])(N([H])C(=O)N2C([H])([H])C([H])([H])C([H])([H])C([H])(n3nc(-c4c([H])c([H])c(Oc5c([H])c([H])c(F)c([H])c5F)c([H])c4[H])c(C(=O)N([H])[H])c3N([H])[H])C2([H])[H])C([H])(C([H])([H])[H])C([H])([H])[H])c([H])c1N([H])C(=O)C([H])(Oc1c([H])c([H])c2c(c1[H])C([H])([H])N(C(=O)C([H])(N([H])C(=O)C([H])(N([H])C([H])([H])[H])C([H])([H])[H])C(C([H])([H])[H])(C([H])([H])[H])C([H])([H])[H])C([H])(C(=O)N([H])C1([H])c3c([H])c([H])c([H])c([H])c3C([H])([H])C([H])([H])C1([H])[H])C2([H])[H])C([H])([H])[H]

>  <smiles>  (90) 
[H]c1sc(C([H])(N([H])C(=O)N2C([H])([H])C([H])([H])C([H])([H])C([H])(n3nc(-c4c([H])c([H])c(Oc5c([H])c([H])c(F)c([H])c5F)c([H])c4[H])c(C(=O)N([H])[H])c3N([H])[H])C2([H])[H])C([H])(C([H])([H])[H])C([H])([H])[H])c([H])c1N([H])C(=O)C([H])(Oc1c([H])c([H])c2c(c1[H])C([H])([H])N(C(=O)C([H])(N([H])C(=O)C([H])(N([H])C([H])([H])[H])C([H])([H])[H])C(C([H])([H])[H])(C([H])([H])[H])C([H])([H])[H])C([H])(C(=O)N([H])C1([H])c3c([H])c([H])c([H])c([H])c3C([H])([H])C([H])([H])C1([H])[H])C2([H])[H])C([H])([H])[H]

$$$$
91:0:0
     RDKit          3D

 89 97  0  0  1  0  0  0  0  0999 V2000
  -30.9540  -18.6120   21.2700 C   0  0  0  0  0  3  0  0  0  0  0  0
  -29.8840  -18.0810   20.5790 C   0  0  0  0  0  0  0  0  0  0  0  0
  -29.4820  -20.5760   20.4990 C   0  0  0  0  0  0  0  0  0  0  0  0
  -28.9940  -23.2990   20.5440 C   0  0  0  0  0  0  0  0  0  0  0  0
  -29.0800  -19.2670   20.1490 N   0  0  0  0  0  0  0  0  0  0  0  0
  -28.8570  -21.9350   20.1090 N   0  0  0  0  0  0  0  0  0  0  0  0
  -29.6100  -23.5260   21.5880 O   0  0  0  0  0  0  0  0  0  0  0  0
  -30.9750  -20.3930   21.4230 S   0  0  0  0  0  0  0  0  0  0  0  0
  -28.2310  -21.8580   19.3230 H   0  0  0  0  0  0  0  0  0  0  0  0
  -27.4010  -24.1820   18.6530 C   0  0  0  0  0  1  0  0  0  0  0  0
  -28.4020  -24.6460   19.7260 C   0  0  0  0  0  3  0  0  0  0  0  0
  -28.2870  -26.1260   20.3280 O   0  0  0  0  0  0  0  0  0  0  0  0
  -24.6320  -31.8930   23.2690 C   0  0  0  0  0  0  0  0  0  0  0  0
  -27.2200  -27.1270   20.2320 C   0  0  0  0  0  0  0  0  0  0  0  0
  -23.4420  -30.4960   21.6310 C   0  0  0  0  0  3  0  0  0  0  0  0
  -24.8950  -28.9260   20.2100 C   0  0  0  0  0  0  0  0  0  0  0  0
  -26.0040  -30.7470   21.4790 C   0  0  0  0  0  2  0  0  0  0  0  0
  -26.0790  -29.3530   20.8220 C   0  0  0  0  0  0  0  0  0  0  0  0
  -27.2360  -28.4710   20.8150 C   0  0  0  0  0  3  0  0  0  0  0  0
  -25.9900  -26.8280   19.6010 C   0  0  0  0  0  3  0  0  0  0  0  0
  -24.8670  -27.6760   19.5860 C   0  0  0  0  0  3  0  0  0  0  0  0
  -23.6700  -29.8260   20.2530 C   0  0  0  0  0  2  0  0  0  0  0  0
  -24.7130  -31.0680   22.1810 N   0  0  0  0  0  0  0  0  0  0  0  0
  -23.5420  -32.1770   23.7910 O   0  0  0  0  0  0  0  0  0  0  0  0
  -22.7590  -29.4860   22.5900 C   0  0  0  0  0  0  0  0  0  0  0  0
  -21.4320  -29.3080   22.4570 N   0  0  0  0  0  0  0  0  0  0  0  0
  -23.4280  -28.8660   23.4200 O   0  0  0  0  0  0  0  0  0  0  0  0
  -20.9480  -29.8610   21.7630 H   0  0  0  0  0  0  0  0  0  0  0  0
  -18.0550  -28.0830   22.9430 C   0  0  0  0  0  0  0  0  0  0  0  0
  -20.6110  -28.3700   23.2270 C   0  0  0  0  0  3  0  0  0  0  0  0
  -20.7280  -26.9340   22.6640 C   0  0  0  0  0  2  0  0  0  0  0  0
  -19.6370  -26.5950   21.6440 C   0  0  0  0  0  2  0  0  0  0  0  0
  -18.2480  -26.7320   22.2750 C   0  0  0  0  0  2  0  0  0  0  0  0
  -19.1640  -28.8590   23.3750 C   0  0  0  0  0  0  0  0  0  0  0  0
  -18.9270  -30.1220   23.9610 C   0  0  0  0  0  3  0  0  0  0  0  0
  -17.6160  -30.6100   24.1160 C   0  0  0  0  0  3  0  0  0  0  0  0
  -16.5230  -29.8330   23.6970 C   0  0  0  0  0  3  0  0  0  0  0  0
  -16.7420  -28.5710   23.1160 C   0  0  0  0  0  3  0  0  0  0  0  0
  -25.9040  -32.5350   23.9000 C   0  0  0  0  0  3  0  0  0  0  0  0
  -25.5870  -33.9370   24.2160 N   0  0  0  0  0  0  0  0  0  0  0  0
  -25.9160  -34.9880   23.4530 C   0  0  0  0  0  0  0  0  0  0  0  0
  -26.5820  -34.8790   22.4200 O   0  0  0  0  0  0  0  0  0  0  0  0
  -24.9950  -34.0950   25.0180 H   0  0  0  0  0  0  0  0  0  0  0  0
  -24.1810  -36.7790   23.1030 C   0  0  0  0  0  1  0  0  0  0  0  0
  -25.4300  -36.3800   23.9050 C   0  0  0  0  0  3  0  0  0  0  0  0
  -27.5680  -37.2790   24.7110 C   0  0  0  0  0  1  0  0  0  0  0  0
  -26.4590  -37.4350   23.7740 N   0  0  0  0  0  0  0  0  0  0  0  0
  -26.0520  -38.3550   23.9160 H   0  0  0  0  0  0  0  0  0  0  0  0
  -26.4020  -31.7800   25.1940 C   0  0  1  0  0  0  0  0  0  0  0  0
  -25.2950  -31.5610   26.2520 C   0  0  0  0  0  1  0  0  0  0  0  0
  -26.9870  -30.3960   24.8350 C   0  0  0  0  0  1  0  0  0  0  0  0
  -27.5450  -32.5820   25.8590 C   0  0  0  0  0  1  0  0  0  0  0  0
  -29.4890  -16.4650   20.4430 C   0  0  0  0  0  2  0  0  0  0  0  0
  -30.4320  -15.0700   20.3220 C   0  0  0  0  0  0  0  0  0  0  0  0
  -30.3820  -12.7000   19.3770 C   0  0  0  0  0  2  0  0  0  0  0  0
  -29.4460  -12.6570   18.1430 C   0  0  0  0  0  2  0  0  0  0  0  0
  -27.9800  -12.4320   18.5640 C   0  0  0  0  0  2  0  0  0  0  0  0
  -27.5660  -13.3420   19.7490 C   0  0  0  0  0  3  0  0  0  0  0  0
  -28.6200  -13.3390   20.8750 C   0  0  0  0  0  2  0  0  0  0  0  0
  -29.8970  -13.7750   20.2920 N   0  0  0  0  0  0  0  0  0  0  0  0
  -31.6400  -15.1520   20.0590 O   0  0  0  0  0  0  0  0  0  0  0  0
  -25.1800  -13.9120   20.4760 C   0  0  0  0  0  0  0  0  0  0  0  0
  -24.1160  -13.1340   20.8430 C   0  0  0  0  0  0  0  0  0  0  0  0
  -24.5870  -11.7860   20.8200 C   0  0  0  0  0  0  0  0  0  0  0  0
  -26.2280  -13.0380   20.2420 N   0  0  0  0  0  0  0  0  0  0  0  0
  -25.8810  -11.7530   20.5170 N   0  0  0  0  0  0  0  0  0  0  0  0
  -23.8640  -10.5210   21.0130 C   0  0  0  0  0  0  0  0  0  0  0  0
  -24.2960   -9.5580   21.9510 C   0  0  0  0  0  3  0  0  0  0  0  0
  -23.5720   -8.3580   22.1300 C   0  0  0  0  0  3  0  0  0  0  0  0
  -22.4020   -8.1150   21.3710 C   0  0  0  0  0  0  0  0  0  0  0  0
  -21.9910   -9.0680   20.4220 C   0  0  0  0  0  3  0  0  0  0  0  0
  -22.7150  -10.2570   20.2410 C   0  0  0  0  0  3  0  0  0  0  0  0
  -21.6500   -6.9680   21.4590 O   0  0  0  0  0  0  0  0  0  0  0  0
  -21.6000   -6.2290   22.6140 C   0  0  0  0  0  0  0  0  0  0  0  0
  -21.1630   -6.7840   23.8360 C   0  0  0  0  0  3  0  0  0  0  0  0
  -21.0590   -5.9700   24.9810 C   0  0  0  0  0  3  0  0  0  0  0  0
  -21.3810   -4.6020   24.9060 C   0  0  0  0  0  0  0  0  0  0  0  0
  -21.8120   -4.0460   23.6890 C   0  0  0  0  0  3  0  0  0  0  0  0
  -21.9170   -4.8560   22.5450 C   0  0  0  0  0  0  0  0  0  0  0  0
  -22.3110   -4.3120   21.3690 F   0  0  0  0  0  0  0  0  0  0  0  0
  -21.2750   -3.8180   26.0040 F   0  0  0  0  0  0  0  0  0  0  0  0
  -22.7150  -13.6070   21.1030 C   0  0  0  0  0  0  0  0  0  0  0  0
  -21.9840  -12.9100   21.9660 N   0  0  0  0  0  0  0  0  0  0  0  0
  -22.2780  -14.6280   20.5750 O   0  0  0  0  0  0  0  0  0  0  0  0
  -22.3510  -12.0840   22.4140 H   0  0  0  0  0  0  0  0  0  0  0  0
  -21.0430  -13.2090   22.1820 H   0  0  0  0  0  0  0  0  0  0  0  0
  -25.3380  -15.2840   20.2970 N   0  0  0  0  0  0  0  0  0  0  0  0
  -24.5680  -15.9340   20.4040 H   0  0  0  0  0  0  0  0  0  0  0  0
  -26.1860  -15.7270   19.9680 H   0  0  0  0  0  0  0  0  0  0  0  0
  1  8  1  0
  2  1  2  0
  3  8  1  0
  4  7  2  0
  5  3  2  0
  5  2  1  0
  6  3  1  0
  6  4  1  0
  9  6  1  0
 11 10  1  0
 11 12  1  0
 11  4  1  0
 13 24  2  0
 14 12  1  0
 14 19  1  0
 15 23  1  0
 15 25  1  0
 16 22  1  0
 16 18  1  0
 17 23  1  0
 18 17  1  0
 19 18  2  0
 20 14  2  0
 21 20  1  0
 21 16  2  0
 22 15  1  0
 23 13  1  0
 25 27  2  0
 26 25  1  0
 28 26  1  0
 29 38  2  0
 29 34  1  0
 30 26  1  0
 30 34  1  0
 31 30  1  0
 32 33  1  0
 32 31  1  0
 33 29  1  0
 34 35  2  0
 35 36  1  0
 37 36  2  0
 38 37  1  0
 39 13  1  0
 39 40  1  0
 39 49  1  0
 40 43  1  0
 41 45  1  0
 41 40  1  0
 42 41  2  0
 45 44  1  0
 47 45  1  0
 47 48  1  0
 47 46  1  0
 49 52  1  1
 49 50  1  0
 51 49  1  0
 53  2  1  0
 54 53  1  0
 55 60  1  0
 56 57  1  0
 56 55  1  0
 58 57  1  0
 58 65  1  0
 58 59  1  0
 60 54  1  0
 60 59  1  0
 61 54  2  0
 62 63  2  0
 63 82  1  0
 64 63  1  0
 64 67  1  0
 65 62  1  0
 65 66  1  0
 66 64  2  0
 67 68  1  0
 68 69  2  0
 70 73  1  0
 70 69  1  0
 71 70  2  0
 72 71  1  0
 72 67  2  0
 73 74  1  0
 74 75  1  0
 75 76  2  0
 77 76  1  0
 77 81  1  0
 78 77  2  0
 79 74  2  0
 79 78  1  0
 80 79  1  0
 82 83  1  0
 83 86  1  0
 83 85  1  0
 84 82  2  0
 87 88  1  0
 87 62  1  0
 89 87  1  0
M  ISO  4  11 101  12 101  53 100  54 100
M  END
>  <TORSDO>  (91) 
F 18

>  <SCORE>  (91) 
-14.690

>  <name>  (91) 
91

>  <ligand_id>  (91) 
91

>  <original_smiles>  (91) 
[H]c1sc(N([H])C(=O)C([H])(Oc2c([H])c([H])c3c(c2[H])C([H])([H])N(C(=O)C([H])(N([H])C(=O)C([H])(N([H])C([H])([H])[H])C([H])([H])[H])C(C([H])([H])[H])(C([H])([H])[H])C([H])([H])[H])C([H])(C(=O)N([H])C2([H])c4c([H])c([H])c([H])c([H])c4C([H])([H])C([H])([H])C2([H])[H])C3([H])[H])C([H])([H])[H])nc1C([H])([H])C(=O)N1C([H])([H])C([H])([H])C([H])([H])C([H])(n2nc(-c3c([H])c([H])c(Oc4c([H])c([H])c(F)c([H])c4F)c([H])c3[H])c(C(=O)N([H])[H])c2N([H])[H])C1([H])[H]

>  <smiles>  (91) 
[H]c1sc(N([H])C(=O)C([H])(Oc2c([H])c([H])c3c(c2[H])C([H])([H])N(C(=O)C([H])(N([H])C(=O)C([H])(N([H])C([H])([H])[H])C([H])([H])[H])C(C([H])([H])[H])(C([H])([H])[H])C([H])([H])[H])C([H])(C(=O)N([H])C2([H])c4c([H])c([H])c([H])c([H])c4C([H])([H])C([H])([H])C2([H])[H])C3([H])[H])C([H])([H])[H])nc1C([H])([H])C(=O)N1C([H])([H])C([H])([H])C([H])([H])C([H])(n2nc(-c3c([H])c([H])c(Oc4c([H])c([H])c(F)c([H])c4F)c([H])c3[H])c(C(=O)N([H])[H])c2N([H])[H])C1([H])[H]

$$$$
92:0:0
     RDKit          3D

 91 98  0  0  1  0  0  0  0  0999 V2000
  -29.2560  -19.2620   20.4560 C   0  0  0  0  0  0  0  0  0  0  0  0
  -29.5590  -20.6360   20.2580 N   0  0  0  0  0  0  0  0  0  0  0  0
  -28.1480  -18.9970   20.9230 O   0  0  0  0  0  0  0  0  0  0  0  0
  -30.4670  -20.8110   19.8460 H   0  0  0  0  0  0  0  0  0  0  0  0
  -30.2360  -17.9720   20.1290 C   0  0  2  0  0  0  0  0  0  0  0  0
  -31.3880  -18.1820   20.7690 F   0  0  0  0  0  0  0  0  0  0  0  0
  -30.5230  -18.0260   18.8280 F   0  0  0  0  0  0  0  0  0  0  0  0
  -29.7800  -16.3890   20.4540 C   0  0  2  0  0  0  0  0  0  0  0  0
  -28.5660  -16.3070   19.9140 F   0  0  0  0  0  0  0  0  0  0  0  0
  -29.5960  -16.3300   21.7760 F   0  0  0  0  0  0  0  0  0  0  0  0
  -30.5880  -15.0010   20.0280 C   0  0  0  0  0  0  0  0  0  0  0  0
  -30.4140  -12.6790   19.0200 C   0  0  0  0  0  2  0  0  0  0  0  0
  -29.4160  -12.7060   17.8370 C   0  0  0  0  0  2  0  0  0  0  0  0
  -27.9750  -12.4800   18.3340 C   0  0  0  0  0  2  0  0  0  0  0  0
  -27.6380  -13.3620   19.5600 C   0  0  0  0  0  3  0  0  0  0  0  0
  -28.7520  -13.3260   20.6310 C   0  0  0  0  0  2  0  0  0  0  0  0
  -30.0080  -13.7350   19.9880 N   0  0  0  0  0  0  0  0  0  0  0  0
  -31.7530  -15.0800   19.6170 O   0  0  0  0  0  0  0  0  0  0  0  0
  -25.3080  -13.9490   20.4480 C   0  0  0  0  0  0  0  0  0  0  0  0
  -24.2590  -13.1720   20.8580 C   0  0  0  0  0  0  0  0  0  0  0  0
  -24.7120  -11.8190   20.7710 C   0  0  0  0  0  0  0  0  0  0  0  0
  -26.3280  -13.0660   20.1260 N   0  0  0  0  0  0  0  0  0  0  0  0
  -25.9820  -11.7800   20.3860 N   0  0  0  0  0  0  0  0  0  0  0  0
  -23.9900  -10.5580   20.9750 C   0  0  0  0  0  0  0  0  0  0  0  0
  -24.4490   -9.5830   21.8880 C   0  0  0  0  0  3  0  0  0  0  0  0
  -23.7270   -8.3870   22.0790 C   0  0  0  0  0  3  0  0  0  0  0  0
  -22.5330   -8.1540   21.3550 C   0  0  0  0  0  0  0  0  0  0  0  0
  -22.0950   -9.1180   20.4280 C   0  0  0  0  0  3  0  0  0  0  0  0
  -22.8170  -10.3070   20.2370 C   0  0  0  0  0  3  0  0  0  0  0  0
  -21.7790   -7.0110   21.4560 O   0  0  0  0  0  0  0  0  0  0  0  0
  -21.7420   -6.2730   22.6110 C   0  0  0  0  0  0  0  0  0  0  0  0
  -21.2900   -6.8220   23.8320 C   0  0  0  0  0  3  0  0  0  0  0  0
  -21.2030   -6.0080   24.9780 C   0  0  0  0  0  3  0  0  0  0  0  0
  -21.5570   -4.6480   24.9070 C   0  0  0  0  0  0  0  0  0  0  0  0
  -22.0030   -4.0980   23.6930 C   0  0  0  0  0  3  0  0  0  0  0  0
  -22.0920   -4.9090   22.5480 C   0  0  0  0  0  0  0  0  0  0  0  0
  -22.5010   -4.3700   21.3740 F   0  0  0  0  0  0  0  0  0  0  0  0
  -21.4650   -3.8650   26.0080 F   0  0  0  0  0  0  0  0  0  0  0  0
  -22.8810  -13.6510   21.2140 C   0  0  0  0  0  0  0  0  0  0  0  0
  -22.1960  -12.9350   22.1000 N   0  0  0  0  0  0  0  0  0  0  0  0
  -22.4220  -14.6900   20.7430 O   0  0  0  0  0  0  0  0  0  0  0  0
  -22.5840  -12.0960   22.5060 H   0  0  0  0  0  0  0  0  0  0  0  0
  -21.2700  -13.2290   22.3760 H   0  0  0  0  0  0  0  0  0  0  0  0
  -25.4750  -15.3220   20.3000 N   0  0  0  0  0  0  0  0  0  0  0  0
  -24.7370  -15.9870   20.5000 H   0  0  0  0  0  0  0  0  0  0  0  0
  -26.3290  -15.7630   19.9830 H   0  0  0  0  0  0  0  0  0  0  0  0
  -28.6770  -22.0000   22.1730 C   0  0  0  0  0  1  0  0  0  0  0  0
  -28.7340  -21.9250   20.6340 C   0  0  0  0  0  3  0  0  0  0  0  0
  -29.0620  -23.4730   20.0710 C   0  0  0  0  0  3  0  0  0  0  0  0
  -28.0740  -24.7950   20.3690 C   0  0  0  0  0  3  0  0  0  0  0  0
  -28.3470  -26.2930   20.0890 O   0  0  0  0  0  0  0  0  0  0  0  0
  -24.6440  -31.8560   23.1580 C   0  0  0  0  0  0  0  0  0  0  0  0
  -27.2730  -27.2450   20.0610 C   0  0  0  0  0  0  0  0  0  0  0  0
  -23.4580  -30.4800   21.4920 C   0  0  0  0  0  3  0  0  0  0  0  0
  -24.9250  -28.9470   20.0470 C   0  0  0  0  0  0  0  0  0  0  0  0
  -26.0080  -30.7800   21.3350 C   0  0  0  0  0  2  0  0  0  0  0  0
  -26.0970  -29.4020   20.6640 C   0  0  0  0  0  0  0  0  0  0  0  0
  -27.2740  -28.5680   20.6530 C   0  0  0  0  0  3  0  0  0  0  0  0
  -26.0760  -26.8900   19.3980 C   0  0  0  0  0  3  0  0  0  0  0  0
  -24.9270  -27.7060   19.3970 C   0  0  0  0  0  3  0  0  0  0  0  0
  -23.6880  -29.8300   20.1030 C   0  0  0  0  0  2  0  0  0  0  0  0
  -24.7230  -31.0580   22.0520 N   0  0  0  0  0  0  0  0  0  0  0  0
  -23.5550  -32.1240   23.6870 O   0  0  0  0  0  0  0  0  0  0  0  0
  -22.7870  -29.4500   22.4330 C   0  0  0  0  0  0  0  0  0  0  0  0
  -21.4630  -29.2610   22.2890 N   0  0  0  0  0  0  0  0  0  0  0  0
  -23.4590  -28.8220   23.2560 O   0  0  0  0  0  0  0  0  0  0  0  0
  -20.9780  -29.8190   21.6020 H   0  0  0  0  0  0  0  0  0  0  0  0
  -18.0920  -28.0110   22.7330 C   0  0  0  0  0  0  0  0  0  0  0  0
  -20.6430  -28.3050   23.0380 C   0  0  0  0  0  3  0  0  0  0  0  0
  -20.7720  -26.8810   22.4500 C   0  0  0  0  0  2  0  0  0  0  0  0
  -19.6880  -26.5530   21.4180 C   0  0  0  0  0  2  0  0  0  0  0  0
  -18.2960  -26.6720   22.0440 C   0  0  0  0  0  2  0  0  0  0  0  0
  -19.1940  -28.7840   23.1850 C   0  0  0  0  0  0  0  0  0  0  0  0
  -18.9470  -30.0370   23.7890 C   0  0  0  0  0  3  0  0  0  0  0  0
  -17.6340  -30.5160   23.9440 C   0  0  0  0  0  3  0  0  0  0  0  0
  -16.5460  -29.7400   23.5090 C   0  0  0  0  0  3  0  0  0  0  0  0
  -16.7760  -28.4880   22.9090 C   0  0  0  0  0  3  0  0  0  0  0  0
  -25.9180  -32.4870   23.8010 C   0  0  0  0  0  3  0  0  0  0  0  0
  -25.6020  -33.8840   24.1390 N   0  0  0  0  0  0  0  0  0  0  0  0
  -25.9430  -34.9450   23.3960 C   0  0  0  0  0  0  0  0  0  0  0  0
  -26.6230  -34.8520   22.3710 O   0  0  0  0  0  0  0  0  0  0  0  0
  -25.0040  -34.0330   24.9390 H   0  0  0  0  0  0  0  0  0  0  0  0
  -24.2340  -36.7530   23.0290 C   0  0  0  0  0  1  0  0  0  0  0  0
  -25.4540  -36.3300   23.8620 C   0  0  0  0  0  3  0  0  0  0  0  0
  -27.5680  -37.2000   24.7590 C   0  0  0  0  0  1  0  0  0  0  0  0
  -26.4940  -37.3790   23.7870 N   0  0  0  0  0  0  0  0  0  0  0  0
  -26.0880  -38.3010   23.9270 H   0  0  0  0  0  0  0  0  0  0  0  0
  -26.4170  -31.7080   25.0800 C   0  0  1  0  0  0  0  0  0  0  0  0
  -25.3080  -31.4650   26.1310 C   0  0  0  0  0  1  0  0  0  0  0  0
  -27.0040  -30.3310   24.6910 C   0  0  0  0  0  1  0  0  0  0  0  0
  -27.5610  -32.4950   25.7610 C   0  0  0  0  0  1  0  0  0  0  0  0
  1  3  2  0
  2  1  1  0
  2 48  1  0
  4  2  1  0
  5  8  1  0
  5  1  1  0
  5  6  1  1
  7  5  1  0
  8 10  1  1
  9  8  1  0
 11  8  1  0
 12 17  1  0
 13 14  1  0
 13 12  1  0
 15 14  1  0
 15 22  1  0
 15 16  1  0
 17 11  1  0
 17 16  1  0
 18 11  2  0
 19 20  2  0
 20 39  1  0
 21 20  1  0
 21 24  1  0
 22 23  1  0
 22 19  1  0
 23 21  2  0
 24 25  1  0
 25 26  2  0
 27 30  1  0
 27 26  1  0
 28 27  2  0
 29 28  1  0
 29 24  2  0
 30 31  1  0
 31 32  1  0
 32 33  2  0
 34 33  1  0
 34 38  1  0
 35 34  2  0
 36 31  2  0
 36 35  1  0
 37 36  1  0
 39 40  1  0
 40 43  1  0
 40 42  1  0
 41 39  2  0
 44 19  1  0
 44 45  1  0
 46 44  1  0
 48 47  1  0
 49 50  2  0
 49 48  1  0
 51 50  1  0
 52 63  2  0
 53 51  1  0
 53 58  1  0
 54 62  1  0
 54 64  1  0
 55 61  1  0
 55 57  1  0
 56 62  1  0
 57 56  1  0
 58 57  2  0
 59 53  2  0
 60 59  1  0
 60 55  2  0
 61 54  1  0
 62 52  1  0
 64 66  2  0
 65 64  1  0
 67 65  1  0
 68 77  2  0
 68 73  1  0
 69 65  1  0
 69 73  1  0
 70 69  1  0
 71 72  1  0
 71 70  1  0
 72 68  1  0
 73 74  2  0
 74 75  1  0
 76 75  2  0
 77 76  1  0
 78 52  1  0
 78 79  1  0
 78 88  1  0
 79 82  1  0
 80 84  1  0
 80 79  1  0
 81 80  2  0
 84 83  1  0
 86 84  1  0
 86 87  1  0
 86 85  1  0
 88 91  1  1
 88 89  1  0
 90 88  1  0
M  ISO  4   8 100  11 100  50 101  51 101
M  END
>  <TORSDO>  (92) 
F 21

>  <SCORE>  (92) 
-13.420

>  <name>  (92) 
92

>  <ligand_id>  (92) 
92

>  <original_smiles>  (92) 
[H]c1c([H])c([H])c2c(c1[H])C([H])([H])C([H])([H])C([H])([H])C2([H])N([H])C(=O)C1([H])N(C(=O)C([H])(N([H])C(=O)C([H])(N([H])C([H])([H])[H])C([H])([H])[H])C(C([H])([H])[H])(C([H])([H])[H])C([H])([H])[H])C([H])([H])c2c([H])c(OC([H])([H])C([H])([H])C([H])(N([H])C(=O)C(F)(F)C(F)(F)C(=O)N3C([H])([H])C([H])([H])C([H])([H])C([H])(n4nc(-c5c([H])c([H])c(Oc6c([H])c([H])c(F)c([H])c6F)c([H])c5[H])c(C(=O)N([H])[H])c4N([H])[H])C3([H])[H])C([H])([H])[H])c([H])c([H])c2C1([H])[H]

>  <smiles>  (92) 
[H]c1c([H])c([H])c2c(c1[H])C([H])([H])C([H])([H])C([H])([H])C2([H])N([H])C(=O)C1([H])N(C(=O)C([H])(N([H])C(=O)C([H])(N([H])C([H])([H])[H])C([H])([H])[H])C(C([H])([H])[H])(C([H])([H])[H])C([H])([H])[H])C([H])([H])c2c([H])c(OC([H])([H])C([H])([H])C([H])(N([H])C(=O)C(F)(F)C(F)(F)C(=O)N3C([H])([H])C([H])([H])C([H])([H])C([H])(n4nc(-c5c([H])c([H])c(Oc6c([H])c([H])c(F)c([H])c6F)c([H])c5[H])c(C(=O)N([H])[H])c4N([H])[H])C3([H])[H])C([H])([H])[H])c([H])c([H])c2C1([H])[H]

$$$$
93:0:0
     RDKit          3D

 94102  0  0  1  0  0  0  0  0999 V2000
  -29.7380  -22.4690   18.4230 C   0  0  0  0  0  1  0  0  0  0  0  0
  -29.6360  -23.0580   19.8390 C   0  0  0  0  0  3  0  0  0  0  0  0
  -30.5150  -18.5620   22.2290 C   0  0  0  0  0  3  0  0  0  0  0  0
  -30.8290  -18.5880   20.8920 C   0  0  0  0  0  0  0  0  0  0  0  0
  -29.8860  -20.6980   21.1360 C   0  0  0  0  0  0  0  0  0  0  0  0
  -30.5100  -19.8420   20.3070 N   0  0  0  0  0  0  0  0  0  0  0  0
  -29.3940  -21.9870   20.8340 N   0  0  0  0  0  0  0  0  0  0  0  0
  -29.7230  -20.0350   22.7570 S   0  0  0  0  0  0  0  0  0  0  0  0
  -28.8830  -22.3800   21.6220 H   0  0  0  0  0  0  0  0  0  0  0  0
  -30.7720  -17.4590   18.6620 C   0  0  0  0  0  1  0  0  0  0  0  0
  -31.4370  -17.4550   20.0520 C   0  0  0  0  0  3  0  0  0  0  0  0
  -32.0500  -15.0090   20.2280 C   0  0  0  0  0  0  0  0  0  0  0  0
  -31.7160  -12.8440   19.0890 C   0  0  0  0  0  2  0  0  0  0  0  0
  -30.7580  -13.0800   17.8980 C   0  0  0  0  0  2  0  0  0  0  0  0
  -29.2870  -12.9830   18.3490 C   0  0  0  0  0  2  0  0  0  0  0  0
  -28.9980  -13.8120   19.6280 C   0  0  0  0  0  3  0  0  0  0  0  0
  -30.0620  -13.5490   20.7180 C   0  0  0  0  0  2  0  0  0  0  0  0
  -31.3800  -13.8260   20.1360 N   0  0  0  0  0  0  0  0  0  0  0  0
  -33.1900  -15.1530   19.7700 O   0  0  0  0  0  0  0  0  0  0  0  0
  -31.2990  -16.0780   20.6020 N   0  0  0  0  0  0  0  0  0  0  0  0
  -30.4110  -15.8600   21.0220 H   0  0  0  0  0  0  0  0  0  0  0  0
  -26.6430  -14.5010   20.4050 C   0  0  0  0  0  0  0  0  0  0  0  0
  -25.5510  -13.7650   20.7780 C   0  0  0  0  0  0  0  0  0  0  0  0
  -25.9530  -12.3960   20.7040 C   0  0  0  0  0  0  0  0  0  0  0  0
  -27.6440  -13.5820   20.1290 N   0  0  0  0  0  0  0  0  0  0  0  0
  -27.2340  -12.3100   20.3660 N   0  0  0  0  0  0  0  0  0  0  0  0
  -25.1800  -11.1610   20.8780 C   0  0  0  0  0  0  0  0  0  0  0  0
  -25.4850  -10.2350   21.9000 C   0  0  0  0  0  3  0  0  0  0  0  0
  -24.7150   -9.0630   22.0580 C   0  0  0  0  0  3  0  0  0  0  0  0
  -23.6210   -8.8100   21.1950 C   0  0  0  0  0  0  0  0  0  0  0  0
  -23.3370   -9.7230   20.1650 C   0  0  0  0  0  3  0  0  0  0  0  0
  -24.1070  -10.8860   20.0060 C   0  0  0  0  0  3  0  0  0  0  0  0
  -22.8320   -7.6870   21.2580 O   0  0  0  0  0  0  0  0  0  0  0  0
  -22.5020   -7.1070   22.4570 C   0  0  0  0  0  0  0  0  0  0  0  0
  -21.8200   -7.8200   23.4680 C   0  0  0  0  0  3  0  0  0  0  0  0
  -21.4370   -7.1640   24.6560 C   0  0  0  0  0  3  0  0  0  0  0  0
  -21.7270   -5.7980   24.8320 C   0  0  0  0  0  0  0  0  0  0  0  0
  -22.4000   -5.0860   23.8230 C   0  0  0  0  0  3  0  0  0  0  0  0
  -22.7840   -5.7380   22.6390 C   0  0  0  0  0  0  0  0  0  0  0  0
  -23.4140   -5.0420   21.6640 F   0  0  0  0  0  0  0  0  0  0  0  0
  -21.3520   -5.1670   25.9690 F   0  0  0  0  0  0  0  0  0  0  0  0
  -24.1810  -14.2920   21.0920 C   0  0  0  0  0  0  0  0  0  0  0  0
  -23.4650  -13.6400   21.9990 N   0  0  0  0  0  0  0  0  0  0  0  0
  -23.7570  -15.3200   20.5640 O   0  0  0  0  0  0  0  0  0  0  0  0
  -23.8220  -12.8100   22.4480 H   0  0  0  0  0  0  0  0  0  0  0  0
  -22.5460  -13.9780   22.2500 H   0  0  0  0  0  0  0  0  0  0  0  0
  -26.8630  -15.8670   20.2570 N   0  0  0  0  0  0  0  0  0  0  0  0
  -26.1260  -16.5490   20.4020 H   0  0  0  0  0  0  0  0  0  0  0  0
  -27.7170  -16.2800   19.9030 H   0  0  0  0  0  0  0  0  0  0  0  0
  -28.5670  -24.2340   19.8630 C   0  0  0  0  0  3  0  0  0  0  0  0
  -27.4120  -23.7350   20.5170 O   0  0  0  0  0  0  0  0  0  0  0  0
  -27.2510  -22.8770   20.1260 H   0  0  0  0  0  0  0  0  0  0  0  0
  -29.0130  -25.6110   20.4910 C   0  0  0  0  0  2  0  0  0  0  0  0
  -28.8480  -26.8190   19.6970 O   0  0  0  0  0  0  0  0  0  0  0  0
  -24.7360  -31.6850   22.9910 C   0  0  0  0  0  0  0  0  0  0  0  0
  -27.6440  -27.4980   19.7600 C   0  0  0  0  0  0  0  0  0  0  0  0
  -23.6280  -30.2930   21.2750 C   0  0  0  0  0  3  0  0  0  0  0  0
  -25.1750  -28.8970   19.8020 C   0  0  0  0  0  0  0  0  0  0  0  0
  -26.1330  -30.7920   21.1210 C   0  0  0  0  0  2  0  0  0  0  0  0
  -26.3000  -29.4540   20.4230 C   0  0  0  0  0  0  0  0  0  0  0  0
  -27.5410  -28.7630   20.3910 C   0  0  0  0  0  3  0  0  0  0  0  0
  -26.5060  -26.9650   19.1280 C   0  0  0  0  0  3  0  0  0  0  0  0
  -25.2730  -27.6540   19.1500 C   0  0  0  0  0  3  0  0  0  0  0  0
  -23.8880  -29.6900   19.8710 C   0  0  0  0  0  2  0  0  0  0  0  0
  -24.8490  -30.9360   21.8560 N   0  0  0  0  0  0  0  0  0  0  0  0
  -23.6370  -31.8730   23.5310 O   0  0  0  0  0  0  0  0  0  0  0  0
  -23.0230  -29.1960   22.1820 C   0  0  0  0  0  0  0  0  0  0  0  0
  -21.7060  -28.9660   22.0480 N   0  0  0  0  0  0  0  0  0  0  0  0
  -23.7320  -28.5550   22.9600 O   0  0  0  0  0  0  0  0  0  0  0  0
  -21.1940  -29.5350   21.3910 H   0  0  0  0  0  0  0  0  0  0  0  0
  -18.3880  -27.6000   22.4920 C   0  0  0  0  0  0  0  0  0  0  0  0
  -20.9350  -27.9520   22.7660 C   0  0  0  0  0  3  0  0  0  0  0  0
  -21.0950  -26.5630   22.1080 C   0  0  0  0  0  2  0  0  0  0  0  0
  -19.9990  -26.2510   21.0850 C   0  0  0  0  0  2  0  0  0  0  0  0
  -18.6160  -26.2990   21.7410 C   0  0  0  0  0  2  0  0  0  0  0  0
  -19.4760  -28.3820   22.9600 C   0  0  0  0  0  0  0  0  0  0  0  0
  -19.2100  -29.5980   23.6250 C   0  0  0  0  0  3  0  0  0  0  0  0
  -17.8880  -30.0360   23.8230 C   0  0  0  0  0  3  0  0  0  0  0  0
  -16.8130  -29.2490   23.3720 C   0  0  0  0  0  3  0  0  0  0  0  0
  -17.0640  -28.0330   22.7120 C   0  0  0  0  0  3  0  0  0  0  0  0
  -25.9780  -32.3570   23.6540 C   0  0  0  0  0  3  0  0  0  0  0  0
  -25.5820  -33.7080   24.0710 N   0  0  0  0  0  0  0  0  0  0  0  0
  -25.8620  -34.8270   23.3910 C   0  0  0  0  0  0  0  0  0  0  0  0
  -26.5510  -34.8320   22.3660 O   0  0  0  0  0  0  0  0  0  0  0  0
  -24.9650  -33.7740   24.8670 H   0  0  0  0  0  0  0  0  0  0  0  0
  -24.0430  -36.5410   23.1060 C   0  0  0  0  0  1  0  0  0  0  0  0
  -25.2840  -36.1520   23.9260 C   0  0  0  0  0  3  0  0  0  0  0  0
  -27.3350  -37.0920   24.8820 C   0  0  0  0  0  1  0  0  0  0  0  0
  -26.2570  -37.2630   23.9140 N   0  0  0  0  0  0  0  0  0  0  0  0
  -25.7990  -38.1490   24.1070 H   0  0  0  0  0  0  0  0  0  0  0  0
  -26.5430  -31.5420   24.8810 C   0  0  1  0  0  0  0  0  0  0  0  0
  -25.4670  -31.1680   25.9300 C   0  0  0  0  0  1  0  0  0  0  0  0
  -27.2140  -30.2340   24.4010 C   0  0  0  0  0  1  0  0  0  0  0  0
  -27.6430  -32.3660   25.5920 C   0  0  0  0  0  1  0  0  0  0  0  0
  2  1  1  0
  2 50  1  0
  2  7  1  0
  3  8  1  0
  4  3  2  0
  5  8  1  0
  6  4  1  0
  6  5  2  0
  7  5  1  0
  7  9  1  0
 11 10  1  0
 11 20  1  0
 11  4  1  0
 12 20  1  0
 13 18  1  0
 14 15  1  0
 14 13  1  0
 16 15  1  0
 16 25  1  0
 16 17  1  0
 18 12  1  0
 18 17  1  0
 19 12  2  0
 20 21  1  0
 22 23  2  0
 23 42  1  0
 24 23  1  0
 24 27  1  0
 25 26  1  0
 25 22  1  0
 26 24  2  0
 27 28  1  0
 28 29  2  0
 30 33  1  0
 30 29  1  0
 31 30  2  0
 32 31  1  0
 32 27  2  0
 33 34  1  0
 34 39  2  0
 34 35  1  0
 35 36  2  0
 36 37  1  0
 37 41  1  0
 38 37  2  0
 39 38  1  0
 40 39  1  0
 42 43  1  0
 43 46  1  0
 43 45  1  0
 44 42  2  0
 47 48  1  0
 47 22  1  0
 49 47  1  0
 50 53  1  0
 50 51  1  0
 52 51  1  0
 54 56  1  0
 54 53  1  0
 55 66  2  0
 56 61  1  0
 57 65  1  0
 57 67  1  0
 58 64  1  0
 58 60  1  0
 59 65  1  0
 60 59  1  0
 61 60  2  0
 62 63  1  0
 62 56  2  0
 63 58  2  0
 64 57  1  0
 65 55  1  0
 67 69  2  0
 68 67  1  0
 70 68  1  0
 71 80  2  0
 71 76  1  0
 72 68  1  0
 72 76  1  0
 73 72  1  0
 74 75  1  0
 74 73  1  0
 75 71  1  0
 76 77  2  0
 77 78  1  0
 79 78  2  0
 80 79  1  0
 81 55  1  0
 81 82  1  0
 81 91  1  0
 82 85  1  0
 83 87  1  0
 83 82  1  0
 84 83  2  0
 87 86  1  0
 89 87  1  0
 89 90  1  0
 89 88  1  0
 91 94  1  1
 91 92  1  0
 93 91  1  0
M  ISO  4  12 100  20 100  53 101  54 101
M  END
>  <TORSDO>  (93) 
F 21

>  <SCORE>  (93) 
-9.475

>  <name>  (93) 
93

>  <ligand_id>  (93) 
93

>  <original_smiles>  (93) 
[H]OC([H])(C([H])([H])Oc1c([H])c([H])c2c(c1[H])C([H])([H])N(C(=O)C([H])(N([H])C(=O)C([H])(N([H])C([H])([H])[H])C([H])([H])[H])C(C([H])([H])[H])(C([H])([H])[H])C([H])([H])[H])C([H])(C(=O)N([H])C1([H])c3c([H])c([H])c([H])c([H])c3C([H])([H])C([H])([H])C1([H])[H])C2([H])[H])C([H])(N([H])c1nc(C([H])(N([H])C(=O)N2C([H])([H])C([H])([H])C([H])([H])C([H])(n3nc(-c4c([H])c([H])c(Oc5c([H])c([H])c(F)c([H])c5F)c([H])c4[H])c(C(=O)N([H])[H])c3N([H])[H])C2([H])[H])C([H])([H])[H])c([H])s1)C([H])([H])[H]

>  <smiles>  (93) 
[H]OC([H])(C([H])([H])Oc1c([H])c([H])c2c(c1[H])C([H])([H])N(C(=O)C([H])(N([H])C(=O)C([H])(N([H])C([H])([H])[H])C([H])([H])[H])C(C([H])([H])[H])(C([H])([H])[H])C([H])([H])[H])C([H])(C(=O)N([H])C1([H])c3c([H])c([H])c([H])c([H])c3C([H])([H])C([H])([H])C1([H])[H])C2([H])[H])C([H])(N([H])c1nc(C([H])(N([H])C(=O)N2C([H])([H])C([H])([H])C([H])([H])C([H])(n3nc(-c4c([H])c([H])c(Oc5c([H])c([H])c(F)c([H])c5F)c([H])c4[H])c(C(=O)N([H])[H])c3N([H])[H])C2([H])[H])C([H])([H])[H])c([H])s1)C([H])([H])[H]

$$$$
