0:0:0
     RDKit          3D

 92100  0  0  1  0  0  0  0  0999 V2000
  -28.9020  -19.1480   20.1380 C   0  0  0  0  0  0  0  0  0  0  0  0
  -30.2250  -18.7700   19.9440 C   0  0  0  0  0  0  0  0  0  0  0  0
  -29.7240  -21.3330   19.9120 C   0  0  0  0  0  0  0  0  0  0  0  0
  -28.9090  -23.8650   20.0240 C   0  0  0  0  0  0  0  0  0  0  0  0
  -27.7610  -18.2150   20.4010 C   0  0  0  0  0  1  0  0  0  0  0  0
  -28.6400  -20.5590   20.1130 N   0  0  0  0  0  0  0  0  0  0  0  0
  -29.7880  -22.8100   19.8380 N   0  0  0  0  0  0  0  0  0  0  0  0
  -27.7440  -23.7000   20.3920 O   0  0  0  0  0  0  0  0  0  0  0  0
  -31.1560  -20.2750   19.7040 S   0  0  0  0  0  0  0  0  0  0  0  0
  -30.7090  -23.1360   19.5840 H   0  0  0  0  0  0  0  0  0  0  0  0
  -29.5940  -25.6660   18.2430 C   0  0  0  0  0  1  0  0  0  0  0  0
  -29.4430  -25.3550   19.7450 C   0  0  0  0  0  3  0  0  0  0  0  0
  -28.9640  -26.5180   20.5680 O   0  0  0  0  0  0  0  0  0  0  0  0
  -24.8050  -31.7700   23.2630 C   0  0  0  0  0  0  0  0  0  0  0  0
  -27.8010  -27.2960   20.3950 C   0  0  0  0  0  0  0  0  0  0  0  0
  -23.7770  -30.3360   21.5350 C   0  0  0  0  0  3  0  0  0  0  0  0
  -25.3830  -28.8380   20.2140 C   0  0  0  0  0  0  0  0  0  0  0  0
  -26.3100  -30.7400   21.5390 C   0  0  0  0  0  2  0  0  0  0  0  0
  -26.4860  -29.3670   20.8940 C   0  0  0  0  0  0  0  0  0  0  0  0
  -27.6930  -28.6060   20.9730 C   0  0  0  0  0  3  0  0  0  0  0  0
  -26.6620  -26.8130   19.7160 C   0  0  0  0  0  3  0  0  0  0  0  0
  -25.4750  -27.5700   19.6170 C   0  0  0  0  0  3  0  0  0  0  0  0
  -24.1160  -29.6720   20.1730 C   0  0  0  0  0  2  0  0  0  0  0  0
  -24.9780  -30.9680   22.1700 N   0  0  0  0  0  0  0  0  0  0  0  0
  -23.6750  -32.0060   23.7160 O   0  0  0  0  0  0  0  0  0  0  0  0
  -23.0810  -29.2940   22.4430 C   0  0  0  0  0  0  0  0  0  0  0  0
  -21.7570  -29.1280   22.2710 N   0  0  0  0  0  0  0  0  0  0  0  0
  -23.7310  -28.6390   23.2610 O   0  0  0  0  0  0  0  0  0  0  0  0
  -21.2920  -29.7090   21.5880 H   0  0  0  0  0  0  0  0  0  0  0  0
  -18.3410  -28.0400   22.7510 C   0  0  0  0  0  0  0  0  0  0  0  0
  -20.9130  -28.1700   22.9860 C   0  0  0  0  0  3  0  0  0  0  0  0
  -20.9420  -26.7830   22.3020 C   0  0  0  0  0  2  0  0  0  0  0  0
  -19.8100  -26.5850   21.2890 C   0  0  0  0  0  2  0  0  0  0  0  0
  -18.4470  -26.7390   21.9710 C   0  0  0  0  0  2  0  0  0  0  0  0
  -19.4990  -28.7190   23.2140 C   0  0  0  0  0  0  0  0  0  0  0  0
  -19.3460  -29.9410   23.9030 C   0  0  0  0  0  3  0  0  0  0  0  0
  -18.0670  -30.4820   24.1350 C   0  0  0  0  0  3  0  0  0  0  0  0
  -16.9240  -29.7980   23.6860 C   0  0  0  0  0  3  0  0  0  0  0  0
  -17.0620  -28.5780   23.0000 C   0  0  0  0  0  3  0  0  0  0  0  0
  -26.0120  -32.4460   23.9810 C   0  0  0  0  0  3  0  0  0  0  0  0
  -25.6390  -33.8390   24.2660 N   0  0  0  0  0  0  0  0  0  0  0  0
  -25.9840  -34.8910   23.5130 C   0  0  0  0  0  0  0  0  0  0  0  0
  -26.7190  -34.7950   22.5260 O   0  0  0  0  0  0  0  0  0  0  0  0
  -24.9930  -33.9860   25.0280 H   0  0  0  0  0  0  0  0  0  0  0  0
  -24.2140  -36.6140   23.0390 C   0  0  0  0  0  1  0  0  0  0  0  0
  -25.4270  -36.2700   23.9180 C   0  0  0  0  0  3  0  0  0  0  0  0
  -27.4760  -37.2580   24.8440 C   0  0  0  0  0  1  0  0  0  0  0  0
  -26.4250  -37.3570   23.8340 N   0  0  0  0  0  0  0  0  0  0  0  0
  -25.9780  -38.2650   23.9300 H   0  0  0  0  0  0  0  0  0  0  0  0
  -26.4410  -31.7060   25.3080 C   0  0  1  0  0  0  0  0  0  0  0  0
  -25.2630  -31.4230   26.2700 C   0  0  0  0  0  1  0  0  0  0  0  0
  -27.1200  -30.3550   24.9840 C   0  0  0  0  0  1  0  0  0  0  0  0
  -27.4860  -32.5550   26.0690 C   0  0  0  0  0  1  0  0  0  0  0  0
  -31.0080  -17.3950   20.0220 C   0  0  0  0  0  2  0  0  0  0  0  0
  -31.1130  -14.8220   20.0410 C   0  0  0  0  0  0  0  0  0  0  0  0
  -30.8220  -12.5360   19.0890 C   0  0  0  0  0  2  0  0  0  0  0  0
  -29.8590  -12.6060   17.8860 C   0  0  0  0  0  2  0  0  0  0  0  0
  -28.3970  -12.4740   18.3560 C   0  0  0  0  0  2  0  0  0  0  0  0
  -28.0720  -13.3930   19.5640 C   0  0  0  0  0  3  0  0  0  0  0  0
  -29.1570  -13.3170   20.6590 C   0  0  0  0  0  2  0  0  0  0  0  0
  -30.4410  -13.6220   20.0200 N   0  0  0  0  0  0  0  0  0  0  0  0
  -32.2970  -14.8620   19.6950 O   0  0  0  0  0  0  0  0  0  0  0  0
  -30.4110  -16.0050   20.2240 N   0  0  0  0  0  0  0  0  0  0  0  0
  -29.4300  -15.9350   20.4470 H   0  0  0  0  0  0  0  0  0  0  0  0
  -25.7310  -14.0410   20.3850 C   0  0  0  0  0  0  0  0  0  0  0  0
  -24.6560  -13.2920   20.7790 C   0  0  0  0  0  0  0  0  0  0  0  0
  -25.0770  -11.9290   20.7080 C   0  0  0  0  0  0  0  0  0  0  0  0
  -26.7380  -13.1360   20.0970 N   0  0  0  0  0  0  0  0  0  0  0  0
  -26.3540  -11.8580   20.3550 N   0  0  0  0  0  0  0  0  0  0  0  0
  -24.3170  -10.6860   20.8980 C   0  0  0  0  0  0  0  0  0  0  0  0
  -24.6940   -9.7320   21.8700 C   0  0  0  0  0  3  0  0  0  0  0  0
  -23.9370   -8.5550   22.0480 C   0  0  0  0  0  3  0  0  0  0  0  0
  -22.7890   -8.3220   21.2530 C   0  0  0  0  0  0  0  0  0  0  0  0
  -22.4320   -9.2630   20.2710 C   0  0  0  0  0  3  0  0  0  0  0  0
  -23.1900  -10.4320   20.0920 C   0  0  0  0  0  3  0  0  0  0  0  0
  -22.0070   -7.1950   21.3370 O   0  0  0  0  0  0  0  0  0  0  0  0
  -21.8320   -6.5270   22.5230 C   0  0  0  0  0  0  0  0  0  0  0  0
  -21.2010   -7.1320   23.6320 C   0  0  0  0  0  3  0  0  0  0  0  0
  -20.9800   -6.3880   24.8090 C   0  0  0  0  0  3  0  0  0  0  0  0
  -21.3790   -5.0400   24.8750 C   0  0  0  0  0  0  0  0  0  0  0  0
  -22.0020   -4.4350   23.7700 C   0  0  0  0  0  3  0  0  0  0  0  0
  -22.2250   -5.1760   22.5960 C   0  0  0  0  0  0  0  0  0  0  0  0
  -22.8070   -4.5820   21.5260 F   0  0  0  0  0  0  0  0  0  0  0  0
  -21.1590   -4.3220   26.0010 F   0  0  0  0  0  0  0  0  0  0  0  0
  -23.2850  -13.8070   21.1040 C   0  0  0  0  0  0  0  0  0  0  0  0
  -22.5780  -13.1380   22.0080 N   0  0  0  0  0  0  0  0  0  0  0  0
  -22.8500  -14.8370   20.5900 O   0  0  0  0  0  0  0  0  0  0  0  0
  -22.9430  -12.3050   22.4450 H   0  0  0  0  0  0  0  0  0  0  0  0
  -21.6590  -13.4650   22.2700 H   0  0  0  0  0  0  0  0  0  0  0  0
  -25.9300  -15.4090   20.2210 N   0  0  0  0  0  0  0  0  0  0  0  0
  -25.1750  -16.0740   20.3430 H   0  0  0  0  0  0  0  0  0  0  0  0
  -26.7520  -15.8170   19.7960 H   0  0  0  0  0  0  0  0  0  0  0  0
  1  5  1  0
  2 54  1  0
  2  1  2  0
  3  6  2  0
  4  8  2  0
  6  1  1  0
  7  3  1  0
  7  4  1  0
  9  3  1  0
  9  2  1  0
 10  7  1  0
 12 11  1  0
 12  4  1  0
 12 13  1  0
 14 25  2  0
 15 13  1  0
 15 20  1  0
 16 24  1  0
 16 26  1  0
 17 19  1  0
 18 24  1  0
 19 20  2  0
 19 18  1  0
 21 15  2  0
 22 21  1  0
 22 17  2  0
 23 17  1  0
 23 16  1  0
 24 14  1  0
 26 28  2  0
 27 26  1  0
 29 27  1  0
 30 39  2  0
 30 35  1  0
 31 27  1  0
 31 35  1  0
 32 31  1  0
 33 34  1  0
 33 32  1  0
 34 30  1  0
 35 36  2  0
 36 37  1  0
 38 37  2  0
 39 38  1  0
 40 14  1  0
 40 41  1  0
 40 50  1  0
 41 44  1  0
 42 46  1  0
 42 41  1  0
 43 42  2  0
 46 45  1  0
 48 46  1  0
 48 49  1  0
 48 47  1  0
 50 53  1  1
 50 51  1  0
 52 50  1  0
 54 63  1  0
 55 63  1  0
 56 61  1  0
 57 58  1  0
 57 56  1  0
 59 58  1  0
 59 68  1  0
 59 60  1  0
 61 55  1  0
 61 60  1  0
 62 55  2  0
 63 64  1  0
 65 66  2  0
 66 85  1  0
 67 66  1  0
 67 70  1  0
 68 69  1  0
 68 65  1  0
 69 67  2  0
 70 71  1  0
 71 72  2  0
 73 76  1  0
 73 72  1  0
 74 73  2  0
 75 74  1  0
 75 70  2  0
 76 77  1  0
 77 82  2  0
 77 78  1  0
 78 79  2  0
 79 80  1  0
 80 84  1  0
 81 80  2  0
 82 81  1  0
 83 82  1  0
 85 86  1  0
 86 89  1  0
 86 88  1  0
 87 85  2  0
 90 91  1  0
 90 65  1  0
 92 90  1  0
M  ISO  4  12 101  13 101  55 100  63 100
M  END
>  <TORSDO>  (1) 
F 18

>  <SCORE>  (1) 
-14.221

>  <name>  (1) 
0

>  <ligand_id>  (1) 
0

>  <original_smiles>  (1) 
[H]c1c([H])c([H])c2c(c1[H])C([H])([H])C([H])([H])C([H])([H])C2([H])N([H])C(=O)C1([H])N(C(=O)C([H])(N([H])C(=O)C([H])(N([H])C([H])([H])[H])C([H])([H])[H])C(C([H])([H])[H])(C([H])([H])[H])C([H])([H])[H])C([H])([H])c2c([H])c(OC([H])(C(=O)N([H])c3nc(C([H])([H])[H])c(C([H])([H])N([H])C(=O)N4C([H])([H])C([H])([H])C([H])([H])C([H])(n5nc(-c6c([H])c([H])c(Oc7c([H])c([H])c(F)c([H])c7F)c([H])c6[H])c(C(=O)N([H])[H])c5N([H])[H])C4([H])[H])s3)C([H])([H])[H])c([H])c([H])c2C1([H])[H]

>  <smiles>  (1) 
[H]c1c([H])c([H])c2c(c1[H])C([H])([H])C([H])([H])C([H])([H])C2([H])N([H])C(=O)C1([H])N(C(=O)C([H])(N([H])C(=O)C([H])(N([H])C([H])([H])[H])C([H])([H])[H])C(C([H])([H])[H])(C([H])([H])[H])C([H])([H])[H])C([H])([H])c2c([H])c(OC([H])(C(=O)N([H])c3nc(C([H])([H])[H])c(C([H])([H])N([H])C(=O)N4C([H])([H])C([H])([H])C([H])([H])C([H])(n5nc(-c6c([H])c([H])c(Oc7c([H])c([H])c(F)c([H])c7F)c([H])c6[H])c(C(=O)N([H])[H])c5N([H])[H])C4([H])[H])s3)C([H])([H])[H])c([H])c([H])c2C1([H])[H]

$$$$
1:0:0
     RDKit          3D

 93101  0  0  1  0  0  0  0  0999 V2000
  -29.6430  -18.6160   20.4760 C   0  0  0  0  0  0  0  0  0  0  0  0
  -28.7510  -19.0800   19.5160 C   0  0  0  0  0  0  0  0  0  0  0  0
  -29.1140  -21.1820   20.4990 C   0  0  0  0  0  0  0  0  0  0  0  0
  -28.4600  -23.7410   20.1560 C   0  0  0  0  0  0  0  0  0  0  0  0
  -28.1350  -18.2550   18.4260 C   0  0  0  0  0  1  0  0  0  0  0  0
  -28.4630  -20.4870   19.5460 N   0  0  0  0  0  0  0  0  0  0  0  0
  -28.9760  -22.6290   20.8060 N   0  0  0  0  0  0  0  0  0  0  0  0
  -28.0880  -23.7020   18.9800 O   0  0  0  0  0  0  0  0  0  0  0  0
  -30.1320  -20.0410   21.4440 S   0  0  0  0  0  0  0  0  0  0  0  0
  -29.3320  -22.8630   21.7220 H   0  0  0  0  0  0  0  0  0  0  0  0
  -30.6310  -14.8110   20.3670 C   0  0  0  0  0  0  0  0  0  0  0  0
  -30.3880  -12.5470   19.3300 C   0  0  0  0  0  2  0  0  0  0  0  0
  -29.4540  -12.6020   18.1030 C   0  0  0  0  0  2  0  0  0  0  0  0
  -27.9870  -12.4210   18.5390 C   0  0  0  0  0  2  0  0  0  0  0  0
  -27.6050  -13.3210   19.7450 C   0  0  0  0  0  3  0  0  0  0  0  0
  -28.6650  -13.2710   20.8650 C   0  0  0  0  0  2  0  0  0  0  0  0
  -29.9540  -13.6160   20.2580 N   0  0  0  0  0  0  0  0  0  0  0  0
  -31.8390  -14.8190   20.1120 O   0  0  0  0  0  0  0  0  0  0  0  0
  -30.4090  -17.2810   20.7320 C   0  0  0  0  0  0  0  0  0  0  0  0
  -29.9110  -16.0010   20.4990 N   0  0  0  0  0  0  0  0  0  0  0  0
  -31.5450  -17.4200   21.1980 O   0  0  0  0  0  0  0  0  0  0  0  0
  -28.9160  -15.9320   20.3860 H   0  0  0  0  0  0  0  0  0  0  0  0
  -25.2190  -13.9050   20.4790 C   0  0  0  0  0  0  0  0  0  0  0  0
  -24.1550  -13.1290   20.8460 C   0  0  0  0  0  0  0  0  0  0  0  0
  -24.6190  -11.7790   20.8170 C   0  0  0  0  0  0  0  0  0  0  0  0
  -26.2650  -13.0280   20.2420 N   0  0  0  0  0  0  0  0  0  0  0  0
  -25.9120  -11.7440   20.5110 N   0  0  0  0  0  0  0  0  0  0  0  0
  -23.8950  -10.5150   21.0010 C   0  0  0  0  0  0  0  0  0  0  0  0
  -24.3230   -9.5480   21.9370 C   0  0  0  0  0  3  0  0  0  0  0  0
  -23.5970   -8.3500   22.1120 C   0  0  0  0  0  3  0  0  0  0  0  0
  -22.4290   -8.1110   21.3490 C   0  0  0  0  0  0  0  0  0  0  0  0
  -22.0200   -9.0670   20.4020 C   0  0  0  0  0  3  0  0  0  0  0  0
  -22.7480  -10.2560   20.2260 C   0  0  0  0  0  3  0  0  0  0  0  0
  -21.6740   -6.9660   21.4330 O   0  0  0  0  0  0  0  0  0  0  0  0
  -21.6120   -6.2270   22.5860 C   0  0  0  0  0  0  0  0  0  0  0  0
  -21.1600   -6.7830   23.8030 C   0  0  0  0  0  3  0  0  0  0  0  0
  -21.0440   -5.9720   24.9480 C   0  0  0  0  0  3  0  0  0  0  0  0
  -21.3710   -4.6030   24.8790 C   0  0  0  0  0  0  0  0  0  0  0  0
  -21.8140   -4.0450   23.6670 C   0  0  0  0  0  3  0  0  0  0  0  0
  -21.9310   -4.8560   22.5230 C   0  0  0  0  0  0  0  0  0  0  0  0
  -22.3400   -4.3090   21.3540 F   0  0  0  0  0  0  0  0  0  0  0  0
  -21.2520   -3.8210   25.9770 F   0  0  0  0  0  0  0  0  0  0  0  0
  -22.7560  -13.6040   21.1120 C   0  0  0  0  0  0  0  0  0  0  0  0
  -22.0230  -12.9040   21.9700 N   0  0  0  0  0  0  0  0  0  0  0  0
  -22.3230  -14.6310   20.5920 O   0  0  0  0  0  0  0  0  0  0  0  0
  -22.3880  -12.0760   22.4160 H   0  0  0  0  0  0  0  0  0  0  0  0
  -21.0830  -13.2030   22.1870 H   0  0  0  0  0  0  0  0  0  0  0  0
  -25.3790  -15.2770   20.3030 N   0  0  0  0  0  0  0  0  0  0  0  0
  -24.6040  -15.9230   20.4050 H   0  0  0  0  0  0  0  0  0  0  0  0
  -26.2160  -15.7190   19.9490 H   0  0  0  0  0  0  0  0  0  0  0  0
  -27.1520  -25.0290   21.9560 C   0  0  0  0  0  1  0  0  0  0  0  0
  -28.3310  -25.1280   20.9650 C   0  0  0  0  0  3  0  0  0  0  0  0
  -28.3830  -26.4450   20.2230 O   0  0  0  0  0  0  0  0  0  0  0  0
  -24.6260  -31.8990   23.2320 C   0  0  0  0  0  0  0  0  0  0  0  0
  -27.2820  -27.3260   20.2070 C   0  0  0  0  0  0  0  0  0  0  0  0
  -23.4460  -30.4930   21.5810 C   0  0  0  0  0  3  0  0  0  0  0  0
  -24.9190  -28.9480   20.1650 C   0  0  0  0  0  0  0  0  0  0  0  0
  -25.9860  -30.8200   21.4220 C   0  0  0  0  0  2  0  0  0  0  0  0
  -26.0810  -29.4380   20.7760 C   0  0  0  0  0  0  0  0  0  0  0  0
  -27.2690  -28.6390   20.7860 C   0  0  0  0  0  3  0  0  0  0  0  0
  -26.1050  -26.9010   19.5600 C   0  0  0  0  0  3  0  0  0  0  0  0
  -24.9360  -27.6870   19.5450 C   0  0  0  0  0  3  0  0  0  0  0  0
  -23.6770  -29.8190   20.2030 C   0  0  0  0  0  2  0  0  0  0  0  0
  -24.7050  -31.0890   22.1350 N   0  0  0  0  0  0  0  0  0  0  0  0
  -23.5360  -32.1720   23.7560 O   0  0  0  0  0  0  0  0  0  0  0  0
  -22.7810  -29.4720   22.5370 C   0  0  0  0  0  0  0  0  0  0  0  0
  -21.4530  -29.3000   22.4120 N   0  0  0  0  0  0  0  0  0  0  0  0
  -23.4590  -28.8380   23.3510 O   0  0  0  0  0  0  0  0  0  0  0  0
  -20.9640  -29.8680   21.7340 H   0  0  0  0  0  0  0  0  0  0  0  0
  -18.0710  -28.1230   22.9220 C   0  0  0  0  0  0  0  0  0  0  0  0
  -20.6330  -28.3590   23.1770 C   0  0  0  0  0  3  0  0  0  0  0  0
  -20.7190  -26.9340   22.5820 C   0  0  0  0  0  2  0  0  0  0  0  0
  -19.6090  -26.6330   21.5710 C   0  0  0  0  0  2  0  0  0  0  0  0
  -18.2320  -26.7810   22.2270 C   0  0  0  0  0  2  0  0  0  0  0  0
  -19.1980  -28.8700   23.3540 C   0  0  0  0  0  0  0  0  0  0  0  0
  -18.9940  -30.1270   23.9640 C   0  0  0  0  0  3  0  0  0  0  0  0
  -17.6940  -30.6370   24.1440 C   0  0  0  0  0  3  0  0  0  0  0  0
  -16.5810  -29.8860   23.7300 C   0  0  0  0  0  3  0  0  0  0  0  0
  -16.7710  -28.6300   23.1250 C   0  0  0  0  0  3  0  0  0  0  0  0
  -25.8980  -32.5420   23.8650 C   0  0  0  0  0  3  0  0  0  0  0  0
  -25.5790  -33.9410   24.1820 N   0  0  0  0  0  0  0  0  0  0  0  0
  -25.9220  -34.9920   23.4240 C   0  0  0  0  0  0  0  0  0  0  0  0
  -26.6060  -34.8850   22.4030 O   0  0  0  0  0  0  0  0  0  0  0  0
  -24.9670  -34.0980   24.9680 H   0  0  0  0  0  0  0  0  0  0  0  0
  -24.1990  -36.7840   23.0340 C   0  0  0  0  0  1  0  0  0  0  0  0
  -25.4260  -36.3820   23.8680 C   0  0  0  0  0  3  0  0  0  0  0  0
  -27.5450  -37.2730   24.7330 C   0  0  0  0  0  1  0  0  0  0  0  0
  -26.4610  -37.4360   23.7680 N   0  0  0  0  0  0  0  0  0  0  0  0
  -26.0520  -38.3570   23.9020 H   0  0  0  0  0  0  0  0  0  0  0  0
  -26.4020  -31.7830   25.1540 C   0  0  1  0  0  0  0  0  0  0  0  0
  -25.2950  -31.5540   26.2100 C   0  0  0  0  0  1  0  0  0  0  0  0
  -26.9880  -30.4010   24.7830 C   0  0  0  0  0  1  0  0  0  0  0  0
  -27.5390  -32.5860   25.8250 C   0  0  0  0  0  1  0  0  0  0  0  0
  1 19  1  0
  1  9  1  0
  2  6  1  0
  2  1  2  0
  3  7  1  0
  3  9  1  0
  4  7  1  0
  4 52  1  0
  5  2  1  0
  6  3  2  0
  7 10  1  0
  8  4  2  0
 11 20  1  0
 12 17  1  0
 13 14  1  0
 13 12  1  0
 15 14  1  0
 15 26  1  0
 15 16  1  0
 17 11  1  0
 17 16  1  0
 18 11  2  0
 19 21  2  0
 20 19  1  0
 22 20  1  0
 23 24  2  0
 24 43  1  0
 25 24  1  0
 25 28  1  0
 26 23  1  0
 26 27  1  0
 27 25  2  0
 28 29  1  0
 29 30  2  0
 31 34  1  0
 31 30  1  0
 32 31  2  0
 33 32  1  0
 33 28  2  0
 34 35  1  0
 35 36  1  0
 36 37  2  0
 38 37  1  0
 38 42  1  0
 39 38  2  0
 40 35  2  0
 40 39  1  0
 41 40  1  0
 43 44  1  0
 44 47  1  0
 44 46  1  0
 45 43  2  0
 48 49  1  0
 48 23  1  0
 50 48  1  0
 52 51  1  0
 53 52  1  0
 54 65  2  0
 55 53  1  0
 55 60  1  0
 56 64  1  0
 56 66  1  0
 57 63  1  0
 57 59  1  0
 58 64  1  0
 59 60  2  0
 59 58  1  0
 61 55  2  0
 62 61  1  0
 62 57  2  0
 63 56  1  0
 64 54  1  0
 66 68  2  0
 67 66  1  0
 69 67  1  0
 70 79  2  0
 70 75  1  0
 71 67  1  0
 71 75  1  0
 72 71  1  0
 73 74  1  0
 73 72  1  0
 74 70  1  0
 75 76  2  0
 76 77  1  0
 78 77  2  0
 79 78  1  0
 80 54  1  0
 80 81  1  0
 80 90  1  0
 81 84  1  0
 82 86  1  0
 82 81  1  0
 83 82  2  0
 86 85  1  0
 88 86  1  0
 88 89  1  0
 88 87  1  0
 90 93  1  1
 90 91  1  0
 92 90  1  0
M  ISO  4  11 100  20 100  52 101  53 101
M  END
>  <TORSDO>  (2) 
F 17

>  <SCORE>  (2) 
-15.370

>  <name>  (2) 
1

>  <ligand_id>  (2) 
1

>  <original_smiles>  (2) 
[H]c1c([H])c([H])c2c(c1[H])C([H])([H])C([H])([H])C([H])([H])C2([H])N([H])C(=O)C1([H])N(C(=O)C([H])(N([H])C(=O)C([H])(N([H])C([H])([H])[H])C([H])([H])[H])C(C([H])([H])[H])(C([H])([H])[H])C([H])([H])[H])C([H])([H])c2c([H])c(OC([H])(C(=O)N([H])c3nc(C([H])([H])[H])c(C(=O)N([H])C(=O)N4C([H])([H])C([H])([H])C([H])([H])C([H])(n5nc(-c6c([H])c([H])c(Oc7c([H])c([H])c(F)c([H])c7F)c([H])c6[H])c(C(=O)N([H])[H])c5N([H])[H])C4([H])[H])s3)C([H])([H])[H])c([H])c([H])c2C1([H])[H]

>  <smiles>  (2) 
[H]c1c([H])c([H])c2c(c1[H])C([H])([H])C([H])([H])C([H])([H])C2([H])N([H])C(=O)C1([H])N(C(=O)C([H])(N([H])C(=O)C([H])(N([H])C([H])([H])[H])C([H])([H])[H])C(C([H])([H])[H])(C([H])([H])[H])C([H])([H])[H])C([H])([H])c2c([H])c(OC([H])(C(=O)N([H])c3nc(C([H])([H])[H])c(C(=O)N([H])C(=O)N4C([H])([H])C([H])([H])C([H])([H])C([H])(n5nc(-c6c([H])c([H])c(Oc7c([H])c([H])c(F)c([H])c7F)c([H])c6[H])c(C(=O)N([H])[H])c5N([H])[H])C4([H])[H])s3)C([H])([H])[H])c([H])c([H])c2C1([H])[H]

$$$$
2:0:0
     RDKit          3D

 98106  0  0  1  0  0  0  0  0999 V2000
  -30.7120  -14.5930   20.5260 C   0  0  0  0  0  0  0  0  0  0  0  0
  -30.4020  -12.4470   19.3660 C   0  0  0  0  0  2  0  0  0  0  0  0
  -29.4930  -12.6990   18.1410 C   0  0  0  0  0  2  0  0  0  0  0  0
  -28.0050  -12.5930   18.5350 C   0  0  0  0  0  2  0  0  0  0  0  0
  -27.6590  -13.4050   19.8110 C   0  0  0  0  0  3  0  0  0  0  0  0
  -28.6850  -13.1420   20.9380 C   0  0  0  0  0  2  0  0  0  0  0  0
  -30.0280  -13.4210   20.4060 N   0  0  0  0  0  0  0  0  0  0  0  0
  -31.8770  -14.7150   20.1320 O   0  0  0  0  0  0  0  0  0  0  0  0
  -30.2690  -17.1670   19.0270 C   0  0  0  0  0  3  0  0  0  0  0  0
  -29.9750  -19.5550   19.2870 C   0  0  0  0  0  3  0  0  0  0  0  0
  -30.2310  -18.4540   18.4500 C   0  0  0  0  0  0  0  0  0  0  0  0
  -30.0370  -16.9980   20.4100 C   0  0  0  0  0  0  0  0  0  0  0  0
  -29.7660  -19.3400   20.6550 C   0  0  0  0  0  0  0  0  0  0  0  0
  -29.7670  -18.0900   21.1880 N   0  0  0  0  0  0  0  0  0  0  0  0
  -29.9930  -15.6650   20.9440 N   0  0  0  0  0  0  0  0  0  0  0  0
  -29.1660  -15.4540   21.4790 H   0  0  0  0  0  0  0  0  0  0  0  0
  -25.2490  -14.0450   20.4480 C   0  0  0  0  0  0  0  0  0  0  0  0
  -24.1640  -13.2900   20.8030 C   0  0  0  0  0  0  0  0  0  0  0  0
  -24.6110  -11.9340   20.8060 C   0  0  0  0  0  0  0  0  0  0  0  0
  -26.2900  -13.1490   20.2570 N   0  0  0  0  0  0  0  0  0  0  0  0
  -25.9080  -11.8760   20.5330 N   0  0  0  0  0  0  0  0  0  0  0  0
  -23.8670  -10.6820   20.9980 C   0  0  0  0  0  0  0  0  0  0  0  0
  -24.2790   -9.7140   21.9400 C   0  0  0  0  0  3  0  0  0  0  0  0
  -23.5370   -8.5270   22.1180 C   0  0  0  0  0  3  0  0  0  0  0  0
  -22.3670   -8.2990   21.3530 C   0  0  0  0  0  0  0  0  0  0  0  0
  -21.9740   -9.2550   20.4010 C   0  0  0  0  0  3  0  0  0  0  0  0
  -22.7180  -10.4340   20.2200 C   0  0  0  0  0  3  0  0  0  0  0  0
  -21.5960   -7.1650   21.4400 O   0  0  0  0  0  0  0  0  0  0  0  0
  -21.5420   -6.4190   22.5910 C   0  0  0  0  0  0  0  0  0  0  0  0
  -21.1500   -6.9800   23.8260 C   0  0  0  0  0  3  0  0  0  0  0  0
  -21.0410   -6.1610   24.9670 C   0  0  0  0  0  3  0  0  0  0  0  0
  -21.3110   -4.7830   24.8760 C   0  0  0  0  0  0  0  0  0  0  0  0
  -21.6960   -4.2220   23.6450 C   0  0  0  0  0  3  0  0  0  0  0  0
  -21.8070   -5.0370   22.5050 C   0  0  0  0  0  0  0  0  0  0  0  0
  -22.1580   -4.4880   21.3180 F   0  0  0  0  0  0  0  0  0  0  0  0
  -21.1980   -3.9950   25.9700 F   0  0  0  0  0  0  0  0  0  0  0  0
  -22.7640  -13.7860   21.0290 C   0  0  0  0  0  0  0  0  0  0  0  0
  -22.0090  -13.1200   21.8960 N   0  0  0  0  0  0  0  0  0  0  0  0
  -22.3470  -14.8010   20.4720 O   0  0  0  0  0  0  0  0  0  0  0  0
  -22.3570  -12.3040   22.3760 H   0  0  0  0  0  0  0  0  0  0  0  0
  -21.0680  -13.4360   22.0860 H   0  0  0  0  0  0  0  0  0  0  0  0
  -25.4360  -15.4110   20.2540 N   0  0  0  0  0  0  0  0  0  0  0  0
  -24.6760  -16.0780   20.3290 H   0  0  0  0  0  0  0  0  0  0  0  0
  -26.3000  -15.8320   19.9400 H   0  0  0  0  0  0  0  0  0  0  0  0
  -30.4870  -18.6680   16.9840 C   0  0  0  0  0  0  0  0  0  0  0  0
  -30.3860  -17.5960   16.2120 N   0  0  0  0  0  0  0  0  0  0  0  0
  -30.7310  -19.7820   16.5180 O   0  0  0  0  0  0  0  0  0  0  0  0
  -30.1660  -16.7080   16.6330 H   0  0  0  0  0  0  0  0  0  0  0  0
  -30.5310  -17.6650   15.2160 H   0  0  0  0  0  0  0  0  0  0  0  0
  -29.5270  -20.4090   21.5410 N   0  0  0  0  0  0  0  0  0  0  0  0
  -29.3770  -20.1160   22.5010 H   0  0  0  0  0  0  0  0  0  0  0  0
  -31.5810  -21.7920   21.0690 C   0  0  0  0  0  1  0  0  0  0  0  0
  -30.0730  -21.7820   21.4010 C   0  0  0  0  0  3  0  0  0  0  0  0
  -29.2210  -22.7630   20.5200 C   0  0  0  0  0  2  0  0  0  0  0  0
  -29.3580  -24.2900   20.8170 C   0  0  0  0  0  0  0  0  0  0  0  0
  -30.1820  -24.7230   21.6290 O   0  0  0  0  0  0  0  0  0  0  0  0
  -28.3910  -25.2450   20.0760 C   0  0  0  0  0  2  0  0  0  0  0  0
  -28.5190  -26.6490   20.4510 O   0  0  0  0  0  0  0  0  0  0  0  0
  -24.6400  -31.9510   23.3070 C   0  0  0  0  0  0  0  0  0  0  0  0
  -27.3700  -27.4290   20.3630 C   0  0  0  0  0  0  0  0  0  0  0  0
  -23.4850  -30.5170   21.6600 C   0  0  0  0  0  3  0  0  0  0  0  0
  -24.9800  -28.9720   20.2910 C   0  0  0  0  0  0  0  0  0  0  0  0
  -26.0210  -30.8700   21.5310 C   0  0  0  0  0  2  0  0  0  0  0  0
  -26.1270  -29.4890   20.9070 C   0  0  0  0  0  0  0  0  0  0  0  0
  -27.3220  -28.7250   20.9420 C   0  0  0  0  0  3  0  0  0  0  0  0
  -26.2030  -26.9560   19.7130 C   0  0  0  0  0  3  0  0  0  0  0  0
  -25.0170  -27.7060   19.6900 C   0  0  0  0  0  3  0  0  0  0  0  0
  -23.7350  -29.8280   20.2950 C   0  0  0  0  0  2  0  0  0  0  0  0
  -24.7320  -31.1300   22.2230 N   0  0  0  0  0  0  0  0  0  0  0  0
  -23.5430  -32.2260   23.8130 O   0  0  0  0  0  0  0  0  0  0  0  0
  -22.8150  -29.5030   22.6180 C   0  0  0  0  0  0  0  0  0  0  0  0
  -21.4930  -29.3240   22.4730 N   0  0  0  0  0  0  0  0  0  0  0  0
  -23.4840  -28.8830   23.4470 O   0  0  0  0  0  0  0  0  0  0  0  0
  -21.0130  -29.8760   21.7760 H   0  0  0  0  0  0  0  0  0  0  0  0
  -18.1040  -28.1560   22.9460 C   0  0  0  0  0  0  0  0  0  0  0  0
  -20.6610  -28.3940   23.2390 C   0  0  0  0  0  3  0  0  0  0  0  0
  -20.7580  -26.9600   22.6700 C   0  0  0  0  0  2  0  0  0  0  0  0
  -19.6620  -26.6420   21.6460 C   0  0  0  0  0  2  0  0  0  0  0  0
  -18.2760  -26.8020   22.2770 C   0  0  0  0  0  2  0  0  0  0  0  0
  -19.2250  -28.9100   23.3820 C   0  0  0  0  0  0  0  0  0  0  0  0
  -19.0120  -30.1770   23.9660 C   0  0  0  0  0  3  0  0  0  0  0  0
  -17.7100  -30.6920   24.1170 C   0  0  0  0  0  3  0  0  0  0  0  0
  -16.6030  -29.9340   23.6970 C   0  0  0  0  0  3  0  0  0  0  0  0
  -16.8000  -28.6670   23.1180 C   0  0  0  0  0  3  0  0  0  0  0  0
  -25.9050  -32.6020   23.9470 C   0  0  0  0  0  3  0  0  0  0  0  0
  -25.5810  -34.0030   24.2440 N   0  0  0  0  0  0  0  0  0  0  0  0
  -25.9180  -35.0420   23.4690 C   0  0  0  0  0  0  0  0  0  0  0  0
  -26.6070  -34.9230   22.4520 O   0  0  0  0  0  0  0  0  0  0  0  0
  -24.9720  -34.1700   25.0320 H   0  0  0  0  0  0  0  0  0  0  0  0
  -24.1750  -36.8060   23.0540 C   0  0  0  0  0  1  0  0  0  0  0  0
  -25.4110  -36.4340   23.8890 C   0  0  0  0  0  3  0  0  0  0  0  0
  -27.5250  -37.3590   24.7240 C   0  0  0  0  0  1  0  0  0  0  0  0
  -26.4330  -37.4960   23.7650 N   0  0  0  0  0  0  0  0  0  0  0  0
  -26.0160  -38.4150   23.8890 H   0  0  0  0  0  0  0  0  0  0  0  0
  -26.3970  -31.8560   25.2480 C   0  0  1  0  0  0  0  0  0  0  0  0
  -25.2790  -31.6290   26.2930 C   0  0  0  0  0  1  0  0  0  0  0  0
  -27.0000  -30.4770   24.8940 C   0  0  0  0  0  1  0  0  0  0  0  0
  -27.5250  -32.6700   25.9240 C   0  0  0  0  0  1  0  0  0  0  0  0
  1 15  1  0
  2  7  1  0
  3  4  1  0
  3  2  1  0
  5  4  1  0
  5 20  1  0
  5  6  1  0
  7  1  1  0
  7  6  1  0
  8  1  2  0
  9 12  1  0
 10 13  2  0
 11  9  2  0
 11 10  1  0
 12 15  1  0
 12 14  2  0
 13 14  1  0
 13 50  1  0
 15 16  1  0
 17 18  2  0
 18 19  1  0
 18 37  1  0
 19 22  1  0
 20 17  1  0
 20 21  1  0
 21 19  2  0
 22 23  1  0
 23 24  2  0
 25 28  1  0
 25 24  1  0
 26 25  2  0
 27 26  1  0
 27 22  2  0
 28 29  1  0
 29 30  1  0
 30 31  2  0
 32 31  1  0
 32 36  1  0
 33 32  2  0
 34 29  2  0
 34 33  1  0
 35 34  1  0
 37 38  1  0
 38 41  1  0
 38 40  1  0
 39 37  2  0
 42 43  1  0
 42 17  1  0
 44 42  1  0
 45 11  1  0
 46 48  1  0
 46 45  1  0
 47 45  2  0
 49 46  1  0
 50 51  1  0
 53 52  1  0
 53 50  1  0
 54 55  1  0
 54 53  1  0
 55 56  2  0
 57 58  1  0
 57 55  1  0
 59 70  2  0
 60 58  1  0
 60 65  1  0
 61 69  1  0
 61 71  1  0
 62 68  1  0
 62 64  1  0
 63 69  1  0
 64 65  2  0
 64 63  1  0
 66 60  2  0
 67 66  1  0
 67 62  2  0
 68 61  1  0
 69 59  1  0
 71 73  2  0
 72 71  1  0
 74 72  1  0
 75 84  2  0
 75 80  1  0
 76 72  1  0
 76 80  1  0
 77 76  1  0
 78 79  1  0
 78 77  1  0
 79 75  1  0
 80 81  2  0
 81 82  1  0
 83 82  2  0
 84 83  1  0
 85 59  1  0
 85 86  1  0
 85 95  1  0
 86 89  1  0
 87 91  1  0
 87 86  1  0
 88 87  2  0
 91 90  1  0
 93 91  1  0
 93 94  1  0
 93 92  1  0
 95 98  1  1
 95 96  1  0
 97 95  1  0
M  ISO  4   1 100  15 100  57 101  58 101
M  END
>  <TORSDO>  (3) 
F 21

>  <SCORE>  (3) 
-13.763

>  <name>  (3) 
2

>  <ligand_id>  (3) 
2

>  <original_smiles>  (3) 
[H]c1c([H])c([H])c2c(c1[H])C([H])([H])C([H])([H])C([H])([H])C2([H])N([H])C(=O)C1([H])N(C(=O)C([H])(N([H])C(=O)C([H])(N([H])C([H])([H])[H])C([H])([H])[H])C(C([H])([H])[H])(C([H])([H])[H])C([H])([H])[H])C([H])([H])c2c([H])c(OC([H])([H])C(=O)C([H])([H])C([H])(N([H])c3nc(N([H])C(=O)N4C([H])([H])C([H])([H])C([H])([H])C([H])(n5nc(-c6c([H])c([H])c(Oc7c([H])c([H])c(F)c([H])c7F)c([H])c6[H])c(C(=O)N([H])[H])c5N([H])[H])C4([H])[H])c([H])c(C(=O)N([H])[H])c3[H])C([H])([H])[H])c([H])c([H])c2C1([H])[H]

>  <smiles>  (3) 
[H]c1c([H])c([H])c2c(c1[H])C([H])([H])C([H])([H])C([H])([H])C2([H])N([H])C(=O)C1([H])N(C(=O)C([H])(N([H])C(=O)C([H])(N([H])C([H])([H])[H])C([H])([H])[H])C(C([H])([H])[H])(C([H])([H])[H])C([H])([H])[H])C([H])([H])c2c([H])c(OC([H])([H])C(=O)C([H])([H])C([H])(N([H])c3nc(N([H])C(=O)N4C([H])([H])C([H])([H])C([H])([H])C([H])(n5nc(-c6c([H])c([H])c(Oc7c([H])c([H])c(F)c([H])c7F)c([H])c6[H])c(C(=O)N([H])[H])c5N([H])[H])C4([H])[H])c([H])c(C(=O)N([H])[H])c3[H])C([H])([H])[H])c([H])c([H])c2C1([H])[H]

$$$$
3:0:0
     RDKit          3D

 93101  0  0  1  0  0  0  0  0999 V2000
  -30.9190  -18.8790   18.4150 C   0  0  0  0  0  3  0  0  0  0  0  0
  -30.3390  -19.9860   19.0560 C   0  0  0  0  0  3  0  0  0  0  0  0
  -30.7320  -17.5740   18.9110 C   0  0  0  0  0  0  0  0  0  0  0  0
  -29.5520  -19.7900   20.1960 C   0  0  0  0  0  0  0  0  0  0  0  0
  -29.9930  -17.3540   20.1050 C   0  0  0  0  0  0  0  0  0  0  0  0
  -29.3910  -18.4880   20.6910 N   0  0  0  0  0  0  0  0  0  0  0  0
  -28.8430  -20.9260   20.7500 N   0  0  0  0  0  4  0  0  0  0  0  0
  -31.2270  -16.5480   18.1770 F   0  0  0  0  0  0  0  0  0  0  0  0
  -28.1130  -20.6520   21.3980 H   0  0  0  0  0  0  0  0  0  0  0  0
  -30.5880  -14.7860   20.3760 C   0  0  0  0  0  0  0  0  0  0  0  0
  -30.4000  -12.4960   19.3900 C   0  0  0  0  0  2  0  0  0  0  0  0
  -29.4780  -12.5640   18.1520 C   0  0  0  0  0  2  0  0  0  0  0  0
  -28.0020  -12.3920   18.5660 C   0  0  0  0  0  2  0  0  0  0  0  0
  -27.6150  -13.2790   19.7800 C   0  0  0  0  0  3  0  0  0  0  0  0
  -28.6620  -13.2000   20.9110 C   0  0  0  0  0  2  0  0  0  0  0  0
  -29.9610  -13.5570   20.3290 N   0  0  0  0  0  0  0  0  0  0  0  0
  -31.7960  -14.8360   20.1230 O   0  0  0  0  0  0  0  0  0  0  0  0
  -29.8160  -15.9380   20.5670 N   0  0  0  0  0  0  0  0  0  0  0  0
  -28.9140  -15.7550   20.9740 H   0  0  0  0  0  0  0  0  0  0  0  0
  -25.2190  -13.8650   20.4810 C   0  0  0  0  0  0  0  0  0  0  0  0
  -24.1520  -13.0900   20.8460 C   0  0  0  0  0  0  0  0  0  0  0  0
  -24.6220  -11.7410   20.8310 C   0  0  0  0  0  0  0  0  0  0  0  0
  -26.2680  -12.9880   20.2600 N   0  0  0  0  0  0  0  0  0  0  0  0
  -25.9150  -11.7050   20.5360 N   0  0  0  0  0  0  0  0  0  0  0  0
  -23.8970  -10.4770   21.0220 C   0  0  0  0  0  0  0  0  0  0  0  0
  -24.3180   -9.5180   21.9700 C   0  0  0  0  0  3  0  0  0  0  0  0
  -23.5930   -8.3210   22.1480 C   0  0  0  0  0  3  0  0  0  0  0  0
  -22.4310   -8.0720   21.3780 C   0  0  0  0  0  0  0  0  0  0  0  0
  -22.0290   -9.0190   20.4200 C   0  0  0  0  0  3  0  0  0  0  0  0
  -22.7540  -10.2080   20.2400 C   0  0  0  0  0  3  0  0  0  0  0  0
  -21.6790   -6.9260   21.4650 O   0  0  0  0  0  0  0  0  0  0  0  0
  -21.6110   -6.1950   22.6240 C   0  0  0  0  0  0  0  0  0  0  0  0
  -21.1480   -6.7590   23.8340 C   0  0  0  0  0  3  0  0  0  0  0  0
  -21.0280   -5.9540   24.9840 C   0  0  0  0  0  3  0  0  0  0  0  0
  -21.3620   -4.5880   24.9270 C   0  0  0  0  0  0  0  0  0  0  0  0
  -21.8170   -4.0230   23.7220 C   0  0  0  0  0  3  0  0  0  0  0  0
  -21.9380   -4.8260   22.5730 C   0  0  0  0  0  0  0  0  0  0  0  0
  -22.3560   -4.2720   21.4090 F   0  0  0  0  0  0  0  0  0  0  0  0
  -21.2390   -3.8120   26.0290 F   0  0  0  0  0  0  0  0  0  0  0  0
  -22.7510  -13.5640   21.0970 C   0  0  0  0  0  0  0  0  0  0  0  0
  -22.0120  -12.8710   21.9560 N   0  0  0  0  0  0  0  0  0  0  0  0
  -22.3180  -14.5860   20.5630 O   0  0  0  0  0  0  0  0  0  0  0  0
  -22.3760  -12.0470   22.4110 H   0  0  0  0  0  0  0  0  0  0  0  0
  -21.0700  -13.1710   22.1640 H   0  0  0  0  0  0  0  0  0  0  0  0
  -25.3800  -15.2340   20.2940 N   0  0  0  0  0  0  0  0  0  0  0  0
  -24.6050  -15.8810   20.3890 H   0  0  0  0  0  0  0  0  0  0  0  0
  -26.2190  -15.6750   19.9410 H   0  0  0  0  0  0  0  0  0  0  0  0
  -30.8480  -22.4830   21.1080 C   0  0  0  0  0  1  0  0  0  0  0  0
  -29.3130  -22.3640   21.0110 C   0  0  0  0  0  0  0  0  0  0  0  0
  -28.7170  -23.6660   20.2130 C   0  0  0  0  0  0  0  0  0  0  0  0
  -28.5960  -23.6380   18.9850 O   0  0  0  0  0  0  0  0  0  0  0  0
  -28.2820  -25.0120   20.9920 C   0  0  0  0  0  2  0  0  0  0  0  0
  -28.4650  -26.3730   20.3590 O   0  0  0  0  0  0  0  0  0  0  0  0
  -24.6710  -31.8810   23.2670 C   0  0  0  0  0  0  0  0  0  0  0  0
  -27.3640  -27.2600   20.3310 C   0  0  0  0  0  0  0  0  0  0  0  0
  -23.5100  -30.4520   21.6250 C   0  0  0  0  0  3  0  0  0  0  0  0
  -24.9980  -28.8870   20.2460 C   0  0  0  0  0  0  0  0  0  0  0  0
  -26.0530  -30.7770   21.4860 C   0  0  0  0  0  2  0  0  0  0  0  0
  -26.1570  -29.3870   20.8580 C   0  0  0  0  0  0  0  0  0  0  0  0
  -27.3470  -28.5870   20.8810 C   0  0  0  0  0  3  0  0  0  0  0  0
  -26.1850  -26.8230   19.6970 C   0  0  0  0  0  3  0  0  0  0  0  0
  -25.0180  -27.6140   19.6530 C   0  0  0  0  0  3  0  0  0  0  0  0
  -23.7560  -29.7590   20.2590 C   0  0  0  0  0  2  0  0  0  0  0  0
  -24.7630  -31.0570   22.1820 N   0  0  0  0  0  0  0  0  0  0  0  0
  -23.5750  -32.1560   23.7800 O   0  0  0  0  0  0  0  0  0  0  0  0
  -22.8360  -29.4440   22.5880 C   0  0  0  0  0  0  0  0  0  0  0  0
  -21.5110  -29.2630   22.4500 N   0  0  0  0  0  0  0  0  0  0  0  0
  -23.5060  -28.8260   23.4200 O   0  0  0  0  0  0  0  0  0  0  0  0
  -21.0290  -29.8140   21.7530 H   0  0  0  0  0  0  0  0  0  0  0  0
  -18.1290  -28.0740   22.9420 C   0  0  0  0  0  0  0  0  0  0  0  0
  -20.6860  -28.3300   23.2200 C   0  0  0  0  0  3  0  0  0  0  0  0
  -20.7870  -26.8970   22.6500 C   0  0  0  0  0  2  0  0  0  0  0  0
  -19.6880  -26.5730   21.6320 C   0  0  0  0  0  2  0  0  0  0  0  0
  -18.3050  -26.7230   22.2710 C   0  0  0  0  0  2  0  0  0  0  0  0
  -19.2470  -28.8350   23.3750 C   0  0  0  0  0  0  0  0  0  0  0  0
  -19.0270  -30.0990   23.9640 C   0  0  0  0  0  3  0  0  0  0  0  0
  -17.7230  -30.6030   24.1240 C   0  0  0  0  0  3  0  0  0  0  0  0
  -16.6190  -29.8390   23.7080 C   0  0  0  0  0  3  0  0  0  0  0  0
  -16.8220  -28.5760   23.1240 C   0  0  0  0  0  3  0  0  0  0  0  0
  -25.9350  -32.5350   23.9060 C   0  0  0  0  0  3  0  0  0  0  0  0
  -26.4270  -31.7920   25.2100 C   0  0  1  0  0  0  0  0  0  0  0  0
  -25.3110  -31.5710   26.2580 C   0  0  0  0  0  1  0  0  0  0  0  0
  -27.0260  -30.4100   24.8610 C   0  0  0  0  0  1  0  0  0  0  0  0
  -27.5570  -32.6080   25.8800 C   0  0  0  0  0  1  0  0  0  0  0  0
  -25.6080  -33.9370   24.2040 N   0  0  0  0  0  0  0  0  0  0  0  0
  -25.9480  -34.9800   23.4370 C   0  0  0  0  0  0  0  0  0  0  0  0
  -26.6390  -34.8650   22.4200 O   0  0  0  0  0  0  0  0  0  0  0  0
  -24.9940  -34.1010   24.9890 H   0  0  0  0  0  0  0  0  0  0  0  0
  -24.2210  -36.7610   23.0190 C   0  0  0  0  0  1  0  0  0  0  0  0
  -25.4450  -36.3730   23.8620 C   0  0  0  0  0  3  0  0  0  0  0  0
  -27.5570  -37.2830   24.7280 C   0  0  0  0  0  1  0  0  0  0  0  0
  -26.4760  -37.4300   23.7560 N   0  0  0  0  0  0  0  0  0  0  0  0
  -26.0620  -38.3500   23.8780 H   0  0  0  0  0  0  0  0  0  0  0  0
  1  3  2  0
  1  2  1  0
  2  4  2  0
  3  5  1  0
  4  6  1  0
  4  7  1  0
  5 18  1  0
  5  6  2  0
  7 49  2  3
  7  9  1  0
  8  3  1  0
 10 18  1  0
 11 16  1  0
 12 13  1  0
 12 11  1  0
 14 13  1  0
 14 23  1  0
 14 15  1  0
 16 10  1  0
 16 15  1  0
 17 10  2  0
 18 19  1  0
 20 21  2  0
 21 40  1  0
 22 21  1  0
 22 25  1  0
 23 20  1  0
 23 24  1  0
 24 22  2  0
 25 26  1  0
 26 27  2  0
 28 31  1  0
 28 27  1  0
 29 28  2  0
 30 29  1  0
 30 25  2  0
 31 32  1  0
 32 33  1  0
 33 34  2  0
 35 34  1  0
 35 39  1  0
 36 35  2  0
 37 32  2  0
 37 36  1  0
 38 37  1  0
 40 41  1  0
 41 44  1  0
 41 43  1  0
 42 40  2  0
 45 46  1  0
 45 20  1  0
 47 45  1  0
 49 48  1  0
 50 52  1  0
 50 49  1  0
 51 50  2  0
 53 52  1  0
 54 65  2  0
 55 53  1  0
 55 60  1  0
 56 64  1  0
 56 66  1  0
 57 63  1  0
 57 59  1  0
 58 64  1  0
 59 60  2  0
 59 58  1  0
 61 55  2  0
 62 61  1  0
 62 57  2  0
 63 56  1  0
 64 54  1  0
 66 68  2  0
 67 66  1  0
 69 67  1  0
 70 79  2  0
 70 75  1  0
 71 67  1  0
 71 75  1  0
 72 71  1  0
 73 74  1  0
 73 72  1  0
 74 70  1  0
 75 76  2  0
 76 77  1  0
 78 77  2  0
 79 78  1  0
 80 54  1  0
 80 85  1  0
 80 81  1  0
 81 84  1  1
 81 82  1  0
 83 81  1  0
 85 88  1  0
 86 90  1  0
 86 85  1  0
 87 86  2  0
 90 89  1  0
 92 90  1  0
 92 93  1  0
 92 91  1  0
M  ISO  4  10 100  18 100  52 101  53 101
M  END
>  <TORSDO>  (4) 
F 19

>  <SCORE>  (4) 
-14.429

>  <name>  (4) 
3

>  <ligand_id>  (4) 
3

>  <original_smiles>  (4) 
[H]c1c(N([H])C([H])(C(=O)C([H])([H])Oc2c([H])c([H])c3c(c2[H])C([H])([H])N(C(=O)C([H])(N([H])C(=O)C([H])(N([H])C([H])([H])[H])C([H])([H])[H])C(C([H])([H])[H])(C([H])([H])[H])C([H])([H])[H])C([H])(C(=O)N([H])C2([H])c4c([H])c([H])c([H])c([H])c4C([H])([H])C([H])([H])C2([H])[H])C3([H])[H])C([H])([H])[H])nc(N([H])C(=O)N2C([H])([H])C([H])([H])C([H])([H])C([H])(n3nc(-c4c([H])c([H])c(Oc5c([H])c([H])c(F)c([H])c5F)c([H])c4[H])c(C(=O)N([H])[H])c3N([H])[H])C2([H])[H])c(F)c1[H]

>  <smiles>  (4) 
[H]c1c(N([H])C([H])(C(=O)C([H])([H])Oc2c([H])c([H])c3c(c2[H])C([H])([H])N(C(=O)C([H])(N([H])C(=O)C([H])(N([H])C([H])([H])[H])C([H])([H])[H])C(C([H])([H])[H])(C([H])([H])[H])C([H])([H])[H])C([H])(C(=O)N([H])C2([H])c4c([H])c([H])c([H])c([H])c4C([H])([H])C([H])([H])C2([H])[H])C3([H])[H])C([H])([H])[H])nc(N([H])C(=O)N2C([H])([H])C([H])([H])C([H])([H])C([H])(n3nc(-c4c([H])c([H])c(Oc5c([H])c([H])c(F)c([H])c5F)c([H])c4[H])c(C(=O)N([H])[H])c3N([H])[H])C2([H])[H])c(F)c1[H]

$$$$
4:0:0
     RDKit          3D

 93101  0  0  1  0  0  0  0  0999 V2000
  -30.6840  -19.1200   21.7580 C   0  0  0  0  0  3  0  0  0  0  0  0
  -29.9640  -18.7410   20.6490 C   0  0  0  0  0  0  0  0  0  0  0  0
  -29.5370  -21.1130   20.7310 C   0  0  0  0  0  0  0  0  0  0  0  0
  -29.1160  -23.7240   20.7270 C   0  0  0  0  0  0  0  0  0  0  0  0
  -29.2960  -19.9090   20.1080 N   0  0  0  0  0  0  0  0  0  0  0  0
  -28.8710  -22.3930   20.3930 N   0  0  0  0  0  0  0  0  0  0  0  0
  -30.2580  -24.0920   21.0180 O   0  0  0  0  0  0  0  0  0  0  0  0
  -30.6110  -20.8570   22.1040 S   0  0  0  0  0  0  0  0  0  0  0  0
  -27.9730  -22.2650   19.9510 H   0  0  0  0  0  0  0  0  0  0  0  0
  -29.9940  -17.3230   19.9340 C   0  0  0  0  0  2  0  0  0  0  0  0
  -30.5930  -14.8080   20.3590 C   0  0  0  0  0  0  0  0  0  0  0  0
  -30.3600  -12.5290   19.3560 C   0  0  0  0  0  2  0  0  0  0  0  0
  -29.4300  -12.6280   18.1260 C   0  0  0  0  0  2  0  0  0  0  0  0
  -27.9590  -12.4580   18.5530 C   0  0  0  0  0  2  0  0  0  0  0  0
  -27.5920  -13.3380   19.7780 C   0  0  0  0  0  3  0  0  0  0  0  0
  -28.6510  -13.2420   20.9020 C   0  0  0  0  0  2  0  0  0  0  0  0
  -29.9540  -13.5850   20.3170 N   0  0  0  0  0  0  0  0  0  0  0  0
  -31.7560  -14.8970   19.9580 O   0  0  0  0  0  0  0  0  0  0  0  0
  -29.8570  -15.9560   20.6190 N   0  0  0  0  0  0  0  0  0  0  0  0
  -28.9500  -15.7890   21.0250 H   0  0  0  0  0  0  0  0  0  0  0  0
  -25.2020  -13.9290   20.4980 C   0  0  0  0  0  0  0  0  0  0  0  0
  -24.1370  -13.1550   20.8760 C   0  0  0  0  0  0  0  0  0  0  0  0
  -24.6030  -11.8050   20.8570 C   0  0  0  0  0  0  0  0  0  0  0  0
  -26.2480  -13.0490   20.2710 N   0  0  0  0  0  0  0  0  0  0  0  0
  -25.8940  -11.7680   20.5480 N   0  0  0  0  0  0  0  0  0  0  0  0
  -23.8790  -10.5430   21.0600 C   0  0  0  0  0  0  0  0  0  0  0  0
  -24.3230   -9.5750   21.9870 C   0  0  0  0  0  3  0  0  0  0  0  0
  -23.5970   -8.3800   22.1760 C   0  0  0  0  0  3  0  0  0  0  0  0
  -22.4130   -8.1430   21.4390 C   0  0  0  0  0  0  0  0  0  0  0  0
  -21.9870   -9.1000   20.5020 C   0  0  0  0  0  3  0  0  0  0  0  0
  -22.7130  -10.2870   20.3100 C   0  0  0  0  0  3  0  0  0  0  0  0
  -21.6580   -6.9990   21.5370 O   0  0  0  0  0  0  0  0  0  0  0  0
  -21.6380   -6.2470   22.6840 C   0  0  0  0  0  0  0  0  0  0  0  0
  -21.2610   -6.7960   23.9290 C   0  0  0  0  0  3  0  0  0  0  0  0
  -21.1880   -5.9710   25.0700 C   0  0  0  0  0  3  0  0  0  0  0  0
  -21.4820   -4.5980   24.9660 C   0  0  0  0  0  0  0  0  0  0  0  0
  -21.8510   -4.0480   23.7260 C   0  0  0  0  0  3  0  0  0  0  0  0
  -21.9270   -4.8700   22.5880 C   0  0  0  0  0  0  0  0  0  0  0  0
  -22.2640   -4.3320   21.3910 F   0  0  0  0  0  0  0  0  0  0  0  0
  -21.4030   -3.8030   26.0580 F   0  0  0  0  0  0  0  0  0  0  0  0
  -22.7400  -13.6340   21.1430 C   0  0  0  0  0  0  0  0  0  0  0  0
  -22.0130  -12.9470   22.0160 N   0  0  0  0  0  0  0  0  0  0  0  0
  -22.3030  -14.6520   20.6090 O   0  0  0  0  0  0  0  0  0  0  0  0
  -22.3800  -12.1250   22.4700 H   0  0  0  0  0  0  0  0  0  0  0  0
  -21.0750  -13.2510   22.2340 H   0  0  0  0  0  0  0  0  0  0  0  0
  -25.3600  -15.2980   20.3080 N   0  0  0  0  0  0  0  0  0  0  0  0
  -24.5820  -15.9410   20.3970 H   0  0  0  0  0  0  0  0  0  0  0  0
  -26.2020  -15.7410   19.9610 H   0  0  0  0  0  0  0  0  0  0  0  0
  -27.9260  -24.8360   20.7520 C   0  0  0  0  0  3  0  0  0  0  0  0
  -26.4610  -23.6680   18.9170 C   0  0  0  0  0  1  0  0  0  0  0  0
  -26.0030  -23.1130   21.3640 C   0  0  0  0  0  1  0  0  0  0  0  0
  -26.5410  -24.1770   20.3760 C   0  0  0  0  0  3  0  0  0  0  0  0
  -28.2320  -26.2780   20.2790 O   0  0  0  0  0  0  0  0  0  0  0  0
  -24.6430  -31.9440   23.2500 C   0  0  0  0  0  0  0  0  0  0  0  0
  -27.2060  -27.2740   20.2240 C   0  0  0  0  0  0  0  0  0  0  0  0
  -23.4380  -30.5450   21.6190 C   0  0  0  0  0  3  0  0  0  0  0  0
  -24.8860  -28.9960   20.1890 C   0  0  0  0  0  0  0  0  0  0  0  0
  -25.9900  -30.8170   21.4600 C   0  0  0  0  0  2  0  0  0  0  0  0
  -26.0590  -29.4310   20.8200 C   0  0  0  0  0  0  0  0  0  0  0  0
  -27.2190  -28.5760   20.8470 C   0  0  0  0  0  3  0  0  0  0  0  0
  -26.0550  -27.0070   19.4530 C   0  0  0  0  0  3  0  0  0  0  0  0
  -24.8910  -27.7880   19.4900 C   0  0  0  0  0  3  0  0  0  0  0  0
  -23.6550  -29.8780   20.2390 C   0  0  0  0  0  2  0  0  0  0  0  0
  -24.7090  -31.1230   22.1630 N   0  0  0  0  0  0  0  0  0  0  0  0
  -23.5580  -32.2300   23.7790 O   0  0  0  0  0  0  0  0  0  0  0  0
  -22.7670  -29.5310   22.5770 C   0  0  0  0  0  0  0  0  0  0  0  0
  -21.4410  -29.3550   22.4490 N   0  0  0  0  0  0  0  0  0  0  0  0
  -23.4410  -28.9090   23.4030 O   0  0  0  0  0  0  0  0  0  0  0  0
  -20.9530  -29.9070   21.7570 H   0  0  0  0  0  0  0  0  0  0  0  0
  -18.0620  -28.1560   22.9480 C   0  0  0  0  0  0  0  0  0  0  0  0
  -20.6200  -28.4220   23.2240 C   0  0  0  0  0  3  0  0  0  0  0  0
  -20.7260  -26.9860   22.6620 C   0  0  0  0  0  2  0  0  0  0  0  0
  -19.6280  -26.6520   21.6470 C   0  0  0  0  0  2  0  0  0  0  0  0
  -18.2440  -26.8010   22.2840 C   0  0  0  0  0  2  0  0  0  0  0  0
  -19.1790  -28.9230   23.3750 C   0  0  0  0  0  0  0  0  0  0  0  0
  -18.9560  -30.1900   23.9560 C   0  0  0  0  0  3  0  0  0  0  0  0
  -17.6500  -30.6910   24.1130 C   0  0  0  0  0  3  0  0  0  0  0  0
  -16.5480  -29.9200   23.7020 C   0  0  0  0  0  3  0  0  0  0  0  0
  -16.7560  -28.6550   23.1250 C   0  0  0  0  0  3  0  0  0  0  0  0
  -25.9250  -32.5770   23.8690 C   0  0  0  0  0  3  0  0  0  0  0  0
  -26.4470  -31.8020   25.1410 C   0  0  1  0  0  0  0  0  0  0  0  0
  -25.3570  -31.5620   26.2110 C   0  0  0  0  0  1  0  0  0  0  0  0
  -27.0300  -30.4260   24.7480 C   0  0  0  0  0  1  0  0  0  0  0  0
  -27.5980  -32.5970   25.8010 C   0  0  0  0  0  1  0  0  0  0  0  0
  -25.6090  -33.9730   24.2060 N   0  0  0  0  0  0  0  0  0  0  0  0
  -25.9210  -35.0300   23.4450 C   0  0  0  0  0  0  0  0  0  0  0  0
  -26.5730  -34.9340   22.4020 O   0  0  0  0  0  0  0  0  0  0  0  0
  -25.0220  -34.1200   25.0140 H   0  0  0  0  0  0  0  0  0  0  0  0
  -24.1690  -36.8090   23.1400 C   0  0  0  0  0  1  0  0  0  0  0  0
  -25.4350  -36.4140   23.9170 C   0  0  0  0  0  3  0  0  0  0  0  0
  -27.5840  -37.3170   24.6860 C   0  0  0  0  0  1  0  0  0  0  0  0
  -26.4540  -37.4760   23.7760 N   0  0  0  0  0  0  0  0  0  0  0  0
  -26.0440  -38.3930   23.9340 H   0  0  0  0  0  0  0  0  0  0  0  0
  1  8  1  0
  2  1  2  0
  3  8  1  0
  4 49  1  0
  4  7  2  0
  5  2  1  0
  5  3  2  0
  6  4  1  0
  6  3  1  0
  9  6  1  0
 10 19  1  0
 10  2  1  0
 11 19  1  0
 12 17  1  0
 13 14  1  0
 13 12  1  0
 15 14  1  0
 15 24  1  0
 15 16  1  0
 17 11  1  0
 17 16  1  0
 18 11  2  0
 19 20  1  0
 21 22  2  0
 22 41  1  0
 23 22  1  0
 23 26  1  0
 24 21  1  0
 24 25  1  0
 25 23  2  0
 26 27  1  0
 27 28  2  0
 29 32  1  0
 29 28  1  0
 30 29  2  0
 31 30  1  0
 31 26  2  0
 32 33  1  0
 33 34  1  0
 34 35  2  0
 36 35  1  0
 36 40  1  0
 37 36  2  0
 38 33  2  0
 38 37  1  0
 39 38  1  0
 41 42  1  0
 42 45  1  0
 42 44  1  0
 43 41  2  0
 46 47  1  0
 46 21  1  0
 48 46  1  0
 49 53  1  0
 50 52  1  0
 52 49  1  0
 52 51  1  0
 54 65  2  0
 55 53  1  0
 55 60  1  0
 56 64  1  0
 56 66  1  0
 57 63  1  0
 57 59  1  0
 58 64  1  0
 59 60  2  0
 59 58  1  0
 61 62  1  0
 61 55  2  0
 62 57  2  0
 63 56  1  0
 64 54  1  0
 66 68  2  0
 67 66  1  0
 69 67  1  0
 70 79  2  0
 70 75  1  0
 71 67  1  0
 71 75  1  0
 72 71  1  0
 73 74  1  0
 73 72  1  0
 74 70  1  0
 75 76  2  0
 76 77  1  0
 78 77  2  0
 79 78  1  0
 80 54  1  0
 80 85  1  0
 80 81  1  0
 81 84  1  1
 81 82  1  0
 83 81  1  0
 85 88  1  0
 86 90  1  0
 86 85  1  0
 87 86  2  0
 90 89  1  0
 92 90  1  0
 92 93  1  0
 92 91  1  0
M  ISO  4  11 100  19 100  49 101  53 101
M  END
>  <TORSDO>  (5) 
F 19

>  <SCORE>  (5) 
-14.328

>  <name>  (5) 
4

>  <ligand_id>  (5) 
4

>  <original_smiles>  (5) 
[H]c1sc(N([H])C(=O)C([H])(Oc2c([H])c([H])c3c(c2[H])C([H])([H])N(C(=O)C([H])(N([H])C(=O)C([H])(N([H])C([H])([H])[H])C([H])([H])[H])C(C([H])([H])[H])(C([H])([H])[H])C([H])([H])[H])C([H])(C(=O)N([H])C2([H])c4c([H])c([H])c([H])c([H])c4C([H])([H])C([H])([H])C2([H])[H])C3([H])[H])C([H])(C([H])([H])[H])C([H])([H])[H])nc1C([H])([H])N([H])C(=O)N1C([H])([H])C([H])([H])C([H])([H])C([H])(n2nc(-c3c([H])c([H])c(Oc4c([H])c([H])c(F)c([H])c4F)c([H])c3[H])c(C(=O)N([H])[H])c2N([H])[H])C1([H])[H]

>  <smiles>  (5) 
[H]c1sc(N([H])C(=O)C([H])(Oc2c([H])c([H])c3c(c2[H])C([H])([H])N(C(=O)C([H])(N([H])C(=O)C([H])(N([H])C([H])([H])[H])C([H])([H])[H])C(C([H])([H])[H])(C([H])([H])[H])C([H])([H])[H])C([H])(C(=O)N([H])C2([H])c4c([H])c([H])c([H])c([H])c4C([H])([H])C([H])([H])C2([H])[H])C3([H])[H])C([H])(C([H])([H])[H])C([H])([H])[H])nc1C([H])([H])N([H])C(=O)N1C([H])([H])C([H])([H])C([H])([H])C([H])(n2nc(-c3c([H])c([H])c(Oc4c([H])c([H])c(F)c([H])c4F)c([H])c3[H])c(C(=O)N([H])[H])c2N([H])[H])C1([H])[H]

$$$$
5:0:0
     RDKit          3D

 95103  0  0  1  0  0  0  0  0999 V2000
  -28.8620  -20.9940   20.4100 N   0  0  0  0  0  4  0  0  0  0  0  0
  -28.1590  -20.9240   21.1430 H   0  0  0  0  0  0  0  0  0  0  0  0
  -30.5880  -14.8570   20.3570 C   0  0  0  0  0  0  0  0  0  0  0  0
  -30.4520  -12.5640   19.3660 C   0  0  0  0  0  2  0  0  0  0  0  0
  -29.5250  -12.6200   18.1300 C   0  0  0  0  0  2  0  0  0  0  0  0
  -28.0510  -12.4350   18.5410 C   0  0  0  0  0  2  0  0  0  0  0  0
  -27.6540  -13.3150   19.7570 C   0  0  0  0  0  3  0  0  0  0  0  0
  -28.7020  -13.2310   20.8900 C   0  0  0  0  0  2  0  0  0  0  0  0
  -29.9980  -13.6100   20.3160 N   0  0  0  0  0  0  0  0  0  0  0  0
  -31.7740  -14.9660   20.0320 O   0  0  0  0  0  0  0  0  0  0  0  0
  -30.0370  -19.2160   18.8880 C   0  0  0  0  0  0  0  0  0  0  0  0
  -29.4110  -19.6610   20.0520 C   0  0  0  0  0  0  0  0  0  0  0  0
  -29.8260  -17.4010   20.1750 C   0  0  0  0  0  0  0  0  0  0  0  0
  -30.8580  -16.9690   17.9220 C   0  0  0  0  0  1  0  0  0  0  0  0
  -29.2670  -18.4630   20.8350 N   0  0  0  0  0  0  0  0  0  0  0  0
  -30.2860  -17.8160   18.9700 N   0  0  0  0  0  0  0  0  0  0  0  0
  -29.7850  -15.9700   20.6160 N   0  0  0  0  0  0  0  0  0  0  0  0
  -28.9300  -15.7290   21.0890 H   0  0  0  0  0  0  0  0  0  0  0  0
  -25.2530  -13.8830   20.4560 C   0  0  0  0  0  0  0  0  0  0  0  0
  -24.1910  -13.1010   20.8190 C   0  0  0  0  0  0  0  0  0  0  0  0
  -24.6690  -11.7540   20.8010 C   0  0  0  0  0  0  0  0  0  0  0  0
  -26.3090  -13.0130   20.2330 N   0  0  0  0  0  0  0  0  0  0  0  0
  -25.9640  -11.7290   20.5060 N   0  0  0  0  0  0  0  0  0  0  0  0
  -23.9520  -10.4860   20.9900 C   0  0  0  0  0  0  0  0  0  0  0  0
  -24.3770   -9.5320   21.9400 C   0  0  0  0  0  3  0  0  0  0  0  0
  -23.6610   -8.3290   22.1180 C   0  0  0  0  0  3  0  0  0  0  0  0
  -22.5040   -8.0700   21.3440 C   0  0  0  0  0  0  0  0  0  0  0  0
  -22.0980   -9.0140   20.3830 C   0  0  0  0  0  3  0  0  0  0  0  0
  -22.8150  -10.2080   20.2040 C   0  0  0  0  0  3  0  0  0  0  0  0
  -21.7590   -6.9200   21.4300 O   0  0  0  0  0  0  0  0  0  0  0  0
  -21.6870   -6.1950   22.5930 C   0  0  0  0  0  0  0  0  0  0  0  0
  -21.2050   -6.7570   23.7940 C   0  0  0  0  0  3  0  0  0  0  0  0
  -21.0820   -5.9560   24.9470 C   0  0  0  0  0  3  0  0  0  0  0  0
  -21.4320   -4.5930   24.8990 C   0  0  0  0  0  0  0  0  0  0  0  0
  -21.9050   -4.0300   23.7010 C   0  0  0  0  0  3  0  0  0  0  0  0
  -22.0300   -4.8280   22.5520 C   0  0  0  0  0  0  0  0  0  0  0  0
  -22.4680   -4.2750   21.3940 F   0  0  0  0  0  0  0  0  0  0  0  0
  -21.3070   -3.8220   26.0040 F   0  0  0  0  0  0  0  0  0  0  0  0
  -22.7850  -13.5660   21.0710 C   0  0  0  0  0  0  0  0  0  0  0  0
  -22.0520  -12.8670   21.9300 N   0  0  0  0  0  0  0  0  0  0  0  0
  -22.3460  -14.5850   20.5400 O   0  0  0  0  0  0  0  0  0  0  0  0
  -22.4200  -12.0440   22.3850 H   0  0  0  0  0  0  0  0  0  0  0  0
  -21.1080  -13.1620   22.1380 H   0  0  0  0  0  0  0  0  0  0  0  0
  -25.4050  -15.2550   20.2730 N   0  0  0  0  0  0  0  0  0  0  0  0
  -24.6290  -15.9000   20.3720 H   0  0  0  0  0  0  0  0  0  0  0  0
  -26.2460  -15.7000   19.9290 H   0  0  0  0  0  0  0  0  0  0  0  0
  -30.3940  -19.9300   17.6600 C   0  0  0  0  0  0  0  0  0  0  0  0
  -29.2710  -20.4800   16.7920 C   0  0  0  0  0  1  0  0  0  0  0  0
  -31.5610  -20.0100   17.2650 O   0  0  0  0  0  0  0  0  0  0  0  0
  -30.5420  -22.6840   19.3860 C   0  0  0  0  0  1  0  0  0  0  0  0
  -29.4360  -22.4220   20.4170 C   0  0  0  0  0  0  0  0  0  0  0  0
  -28.4470  -23.7350   20.5980 C   0  0  0  0  0  0  0  0  0  0  0  0
  -27.5580  -23.6830   21.4530 O   0  0  0  0  0  0  0  0  0  0  0  0
  -28.5500  -25.1000   19.7350 C   0  0  0  0  0  2  0  0  0  0  0  0
  -28.3840  -26.4480   20.4000 O   0  0  0  0  0  0  0  0  0  0  0  0
  -24.5970  -31.9190   23.2570 C   0  0  0  0  0  0  0  0  0  0  0  0
  -27.2630  -27.3050   20.2700 C   0  0  0  0  0  0  0  0  0  0  0  0
  -23.4210  -30.5060   21.6100 C   0  0  0  0  0  3  0  0  0  0  0  0
  -24.8960  -28.9440   20.2070 C   0  0  0  0  0  0  0  0  0  0  0  0
  -25.9630  -30.8210   21.4590 C   0  0  0  0  0  2  0  0  0  0  0  0
  -26.0540  -29.4330   20.8210 C   0  0  0  0  0  0  0  0  0  0  0  0
  -27.2340  -28.6230   20.8440 C   0  0  0  0  0  3  0  0  0  0  0  0
  -26.0780  -26.8790   19.6260 C   0  0  0  0  0  3  0  0  0  0  0  0
  -24.9140  -27.6760   19.6000 C   0  0  0  0  0  3  0  0  0  0  0  0
  -23.6560  -29.8180   20.2370 C   0  0  0  0  0  2  0  0  0  0  0  0
  -24.6790  -31.1020   22.1660 N   0  0  0  0  0  0  0  0  0  0  0  0
  -23.5070  -32.1960   23.7760 O   0  0  0  0  0  0  0  0  0  0  0  0
  -22.7460  -29.4970   22.5710 C   0  0  0  0  0  0  0  0  0  0  0  0
  -21.4240  -29.3070   22.4240 N   0  0  0  0  0  0  0  0  0  0  0  0
  -23.4150  -28.8850   23.4080 O   0  0  0  0  0  0  0  0  0  0  0  0
  -20.9430  -29.8520   21.7240 H   0  0  0  0  0  0  0  0  0  0  0  0
  -18.0520  -28.0730   22.8700 C   0  0  0  0  0  0  0  0  0  0  0  0
  -20.6000  -28.3690   23.1900 C   0  0  0  0  0  3  0  0  0  0  0  0
  -20.7330  -26.9320   22.6340 C   0  0  0  0  0  2  0  0  0  0  0  0
  -19.6570  -26.5830   21.6010 C   0  0  0  0  0  2  0  0  0  0  0  0
  -18.2600  -26.7180   22.2140 C   0  0  0  0  0  2  0  0  0  0  0  0
  -19.1510  -28.8550   23.3140 C   0  0  0  0  0  0  0  0  0  0  0  0
  -18.9040  -30.1210   23.8870 C   0  0  0  0  0  3  0  0  0  0  0  0
  -17.5900  -30.6060   24.0210 C   0  0  0  0  0  3  0  0  0  0  0  0
  -16.5040  -29.8220   23.5930 C   0  0  0  0  0  3  0  0  0  0  0  0
  -16.7350  -28.5570   23.0230 C   0  0  0  0  0  3  0  0  0  0  0  0
  -25.8680  -32.5620   23.8940 C   0  0  0  0  0  3  0  0  0  0  0  0
  -26.3600  -31.8120   25.1930 C   0  0  1  0  0  0  0  0  0  0  0  0
  -25.2480  -31.5940   26.2450 C   0  0  0  0  0  1  0  0  0  0  0  0
  -26.9470  -30.4280   24.8350 C   0  0  0  0  0  1  0  0  0  0  0  0
  -27.5010  -32.6140   25.8630 C   0  0  0  0  0  1  0  0  0  0  0  0
  -25.5550  -33.9660   24.1990 N   0  0  0  0  0  0  0  0  0  0  0  0
  -25.9020  -35.0100   23.4330 C   0  0  0  0  0  0  0  0  0  0  0  0
  -26.5880  -34.8910   22.4140 O   0  0  0  0  0  0  0  0  0  0  0  0
  -24.9480  -34.1330   24.9890 H   0  0  0  0  0  0  0  0  0  0  0  0
  -24.1880  -36.8050   23.0240 C   0  0  0  0  0  1  0  0  0  0  0  0
  -25.4110  -36.4060   23.8650 C   0  0  0  0  0  3  0  0  0  0  0  0
  -27.5300  -37.2960   24.7290 C   0  0  0  0  0  1  0  0  0  0  0  0
  -26.4500  -37.4540   23.7600 N   0  0  0  0  0  0  0  0  0  0  0  0
  -26.0440  -38.3770   23.8830 H   0  0  0  0  0  0  0  0  0  0  0  0
  1 51  2  0
  1  2  1  0
  3 17  1  0
  4  9  1  0
  5  6  1  0
  5  4  1  0
  7  6  1  0
  7 22  1  0
  7  8  1  0
  9  3  1  0
  9  8  1  0
 10  3  2  0
 11 16  1  0
 11 12  2  0
 12  1  1  0
 12 15  1  0
 13 17  1  0
 13 15  2  0
 14 16  1  0
 16 13  1  0
 17 18  1  0
 19 20  2  0
 20 39  1  0
 21 20  1  0
 21 24  1  0
 22 19  1  0
 22 23  1  0
 23 21  2  0
 24 25  1  0
 25 26  2  0
 27 30  1  0
 27 26  1  0
 28 27  2  0
 29 28  1  0
 29 24  2  0
 30 31  1  0
 31 32  1  0
 32 33  2  0
 34 33  1  0
 34 38  1  0
 35 34  2  0
 36 31  2  0
 36 35  1  0
 37 36  1  0
 39 40  1  0
 40 43  1  0
 40 42  1  0
 41 39  2  0
 44 45  1  0
 44 19  1  0
 46 44  1  0
 47 11  1  0
 48 47  1  0
 49 47  2  0
 50 51  1  0
 51 52  1  0
 52 53  2  0
 54 55  1  0
 54 52  1  0
 56 67  2  0
 57 55  1  0
 57 62  1  0
 58 66  1  0
 58 68  1  0
 59 65  1  0
 59 61  1  0
 60 66  1  0
 61 62  2  0
 61 60  1  0
 63 57  2  0
 64 63  1  0
 64 59  2  0
 65 58  1  0
 66 56  1  0
 68 70  2  0
 69 68  1  0
 71 69  1  0
 72 81  2  0
 72 77  1  0
 73 69  1  0
 73 77  1  0
 74 73  1  0
 75 76  1  0
 75 74  1  0
 76 72  1  0
 77 78  2  0
 78 79  1  0
 80 79  2  0
 81 80  1  0
 82 56  1  0
 82 87  1  0
 82 83  1  0
 83 86  1  1
 83 84  1  0
 85 83  1  0
 87 90  1  0
 88 92  1  0
 88 87  1  0
 89 88  2  0
 92 91  1  0
 94 92  1  0
 94 95  1  0
 94 93  1  0
M  ISO  4   3 100  17 100  54 101  55 101
M  END
>  <TORSDO>  (6) 
F 20

>  <SCORE>  (6) 
-13.900

>  <name>  (6) 
5

>  <ligand_id>  (6) 
5

>  <original_smiles>  (6) 
[H]c1c([H])c([H])c2c(c1[H])C([H])([H])C([H])([H])C([H])([H])C2([H])N([H])C(=O)C1([H])N(C(=O)C([H])(N([H])C(=O)C([H])(N([H])C([H])([H])[H])C([H])([H])[H])C(C([H])([H])[H])(C([H])([H])[H])C([H])([H])[H])C([H])([H])c2c([H])c(OC([H])([H])C(=O)C([H])(N([H])c3nc(N([H])C(=O)N4C([H])([H])C([H])([H])C([H])([H])C([H])(n5nc(-c6c([H])c([H])c(Oc7c([H])c([H])c(F)c([H])c7F)c([H])c6[H])c(C(=O)N([H])[H])c5N([H])[H])C4([H])[H])n(C([H])([H])[H])c3C(=O)C([H])([H])[H])C([H])([H])[H])c([H])c([H])c2C1([H])[H]

>  <smiles>  (6) 
[H]c1c([H])c([H])c2c(c1[H])C([H])([H])C([H])([H])C([H])([H])C2([H])N([H])C(=O)C1([H])N(C(=O)C([H])(N([H])C(=O)C([H])(N([H])C([H])([H])[H])C([H])([H])[H])C(C([H])([H])[H])(C([H])([H])[H])C([H])([H])[H])C([H])([H])c2c([H])c(OC([H])([H])C(=O)C([H])(N([H])c3nc(N([H])C(=O)N4C([H])([H])C([H])([H])C([H])([H])C([H])(n5nc(-c6c([H])c([H])c(Oc7c([H])c([H])c(F)c([H])c7F)c([H])c6[H])c(C(=O)N([H])[H])c5N([H])[H])C4([H])[H])n(C([H])([H])[H])c3C(=O)C([H])([H])[H])C([H])([H])[H])c([H])c([H])c2C1([H])[H]

$$$$
6:0:0
     RDKit          3D

 94102  0  0  1  0  0  0  0  0999 V2000
  -29.4600  -20.9000   19.7620 C   0  0  0  0  0  0  0  0  0  0  0  0
  -30.0030  -21.6680   18.9610 O   0  0  0  0  0  0  0  0  0  0  0  0
  -30.6430  -14.5330   20.2180 C   0  0  0  0  0  0  0  0  0  0  0  0
  -30.3440  -12.3480   19.1180 C   0  0  0  0  0  2  0  0  0  0  0  0
  -29.3790  -12.5610   17.9310 C   0  0  0  0  0  2  0  0  0  0  0  0
  -27.9140  -12.4220   18.3900 C   0  0  0  0  0  2  0  0  0  0  0  0
  -27.6030  -13.2430   19.6700 C   0  0  0  0  0  3  0  0  0  0  0  0
  -28.6860  -13.0310   20.7530 C   0  0  0  0  0  2  0  0  0  0  0  0
  -29.9910  -13.3370   20.1510 N   0  0  0  0  0  0  0  0  0  0  0  0
  -31.8030  -14.6580   19.8120 O   0  0  0  0  0  0  0  0  0  0  0  0
  -29.8460  -19.4560   19.7990 C   0  0  0  0  0  0  0  0  0  0  0  0
  -30.8380  -18.8000   19.0890 C   0  0  0  0  0  0  0  0  0  0  0  0
  -30.0240  -16.9860   20.2370 C   0  0  0  0  0  0  0  0  0  0  0  0
  -30.9210  -17.4270   19.3470 N   0  0  0  0  0  0  0  0  0  0  0  0
  -29.8860  -15.5960   20.6010 N   0  0  0  0  0  0  0  0  0  0  0  0
  -28.9830  -18.3040   20.8260 S   0  0  0  0  0  0  0  0  0  0  0  0
  -29.0110  -15.3570   21.0380 H   0  0  0  0  0  0  0  0  0  0  0  0
  -25.2240  -13.8440   20.4340 C   0  0  0  0  0  0  0  0  0  0  0  0
  -24.1650  -13.0700   20.8260 C   0  0  0  0  0  0  0  0  0  0  0  0
  -24.6260  -11.7190   20.7820 C   0  0  0  0  0  0  0  0  0  0  0  0
  -26.2630  -12.9640   20.1780 N   0  0  0  0  0  0  0  0  0  0  0  0
  -25.9100  -11.6810   20.4480 N   0  0  0  0  0  0  0  0  0  0  0  0
  -23.9060  -10.4560   20.9870 C   0  0  0  0  0  0  0  0  0  0  0  0
  -24.3530   -9.4910   21.9160 C   0  0  0  0  0  3  0  0  0  0  0  0
  -23.6340   -8.2930   22.1050 C   0  0  0  0  0  3  0  0  0  0  0  0
  -22.4530   -8.0480   21.3670 C   0  0  0  0  0  0  0  0  0  0  0  0
  -22.0240   -9.0010   20.4250 C   0  0  0  0  0  3  0  0  0  0  0  0
  -22.7430  -10.1920   20.2340 C   0  0  0  0  0  3  0  0  0  0  0  0
  -21.7030   -6.9020   21.4650 O   0  0  0  0  0  0  0  0  0  0  0  0
  -21.6670   -6.1640   22.6210 C   0  0  0  0  0  0  0  0  0  0  0  0
  -21.2370   -6.7170   23.8460 C   0  0  0  0  0  3  0  0  0  0  0  0
  -21.1500   -5.9050   24.9940 C   0  0  0  0  0  3  0  0  0  0  0  0
  -21.4810   -4.5390   24.9180 C   0  0  0  0  0  0  0  0  0  0  0  0
  -21.9040   -3.9840   23.6970 C   0  0  0  0  0  3  0  0  0  0  0  0
  -21.9940   -4.7940   22.5510 C   0  0  0  0  0  0  0  0  0  0  0  0
  -22.3810   -4.2500   21.3720 F   0  0  0  0  0  0  0  0  0  0  0  0
  -21.3900   -3.7550   26.0190 F   0  0  0  0  0  0  0  0  0  0  0  0
  -22.7750  -13.5450   21.1280 C   0  0  0  0  0  0  0  0  0  0  0  0
  -22.0650  -12.8440   22.0050 N   0  0  0  0  0  0  0  0  0  0  0  0
  -22.3260  -14.5730   20.6220 O   0  0  0  0  0  0  0  0  0  0  0  0
  -22.4420  -12.0130   22.4340 H   0  0  0  0  0  0  0  0  0  0  0  0
  -21.1320  -13.1430   22.2510 H   0  0  0  0  0  0  0  0  0  0  0  0
  -25.3850  -15.2150   20.2540 N   0  0  0  0  0  0  0  0  0  0  0  0
  -24.6090  -15.8610   20.3530 H   0  0  0  0  0  0  0  0  0  0  0  0
  -26.2150  -15.6490   19.8680 H   0  0  0  0  0  0  0  0  0  0  0  0
  -31.7420  -19.3390   18.1680 N   0  0  0  0  0  0  0  0  0  0  0  0
  -31.7570  -20.3350   17.9640 H   0  0  0  0  0  0  0  0  0  0  0  0
  -32.4590  -18.7810   17.7190 H   0  0  0  0  0  0  0  0  0  0  0  0
  -28.4050  -21.5180   20.7070 C   0  0  0  0  0  2  0  0  0  0  0  0
  -27.7490  -22.8400   20.1620 C   0  0  0  0  0  2  0  0  0  0  0  0
  -28.3010  -24.1830   20.6960 C   0  0  0  0  0  0  0  0  0  0  0  0
  -28.5530  -24.3260   21.8980 O   0  0  0  0  0  0  0  0  0  0  0  0
  -28.5360  -25.3360   19.6800 C   0  0  0  0  0  2  0  0  0  0  0  0
  -28.4480  -26.6640   20.2600 O   0  0  0  0  0  0  0  0  0  0  0  0
  -24.6090  -31.8910   23.2390 C   0  0  0  0  0  0  0  0  0  0  0  0
  -27.2620  -27.3850   20.2190 C   0  0  0  0  0  0  0  0  0  0  0  0
  -23.4090  -30.4720   21.6080 C   0  0  0  0  0  3  0  0  0  0  0  0
  -24.8690  -28.9160   20.2070 C   0  0  0  0  0  0  0  0  0  0  0  0
  -25.9390  -30.8210   21.4160 C   0  0  0  0  0  2  0  0  0  0  0  0
  -26.0260  -29.4400   20.7930 C   0  0  0  0  0  0  0  0  0  0  0  0
  -27.2220  -28.6810   20.7960 C   0  0  0  0  0  3  0  0  0  0  0  0
  -26.0790  -26.8830   19.6300 C   0  0  0  0  0  3  0  0  0  0  0  0
  -24.8920  -27.6390   19.6240 C   0  0  0  0  0  3  0  0  0  0  0  0
  -23.6240  -29.7760   20.2380 C   0  0  0  0  0  2  0  0  0  0  0  0
  -24.6710  -31.0780   22.1460 N   0  0  0  0  0  0  0  0  0  0  0  0
  -23.5250  -32.1700   23.7720 O   0  0  0  0  0  0  0  0  0  0  0  0
  -22.7520  -29.4630   22.5790 C   0  0  0  0  0  0  0  0  0  0  0  0
  -21.4290  -29.2760   22.4460 N   0  0  0  0  0  0  0  0  0  0  0  0
  -23.4330  -28.8490   23.4060 O   0  0  0  0  0  0  0  0  0  0  0  0
  -20.9410  -29.8200   21.7480 H   0  0  0  0  0  0  0  0  0  0  0  0
  -18.0570  -28.0740   22.9410 C   0  0  0  0  0  0  0  0  0  0  0  0
  -20.6120  -28.3450   23.2240 C   0  0  0  0  0  3  0  0  0  0  0  0
  -20.7240  -26.9080   22.6650 C   0  0  0  0  0  2  0  0  0  0  0  0
  -19.6290  -26.5700   21.6480 C   0  0  0  0  0  2  0  0  0  0  0  0
  -18.2420  -26.7180   22.2810 C   0  0  0  0  0  2  0  0  0  0  0  0
  -19.1700  -28.8450   23.3680 C   0  0  0  0  0  0  0  0  0  0  0  0
  -18.9450  -30.1140   23.9440 C   0  0  0  0  0  3  0  0  0  0  0  0
  -17.6370  -30.6140   24.0930 C   0  0  0  0  0  3  0  0  0  0  0  0
  -16.5390  -29.8420   23.6810 C   0  0  0  0  0  3  0  0  0  0  0  0
  -16.7480  -28.5740   23.1120 C   0  0  0  0  0  3  0  0  0  0  0  0
  -25.8910  -32.5310   23.8580 C   0  0  0  0  0  3  0  0  0  0  0  0
  -25.5780  -33.9310   24.1740 N   0  0  0  0  0  0  0  0  0  0  0  0
  -25.9110  -34.9770   23.4070 C   0  0  0  0  0  0  0  0  0  0  0  0
  -26.5840  -34.8660   22.3780 O   0  0  0  0  0  0  0  0  0  0  0  0
  -24.9800  -34.0920   24.9710 H   0  0  0  0  0  0  0  0  0  0  0  0
  -24.1820  -36.7650   23.0230 C   0  0  0  0  0  1  0  0  0  0  0  0
  -25.4160  -36.3670   23.8490 C   0  0  0  0  0  3  0  0  0  0  0  0
  -27.5460  -37.2540   24.6880 C   0  0  0  0  0  1  0  0  0  0  0  0
  -26.4450  -37.4250   23.7440 N   0  0  0  0  0  0  0  0  0  0  0  0
  -26.0330  -38.3410   23.9040 H   0  0  0  0  0  0  0  0  0  0  0  0
  -26.4080  -31.7700   25.1410 C   0  0  1  0  0  0  0  0  0  0  0  0
  -25.3130  -31.5360   26.2090 C   0  0  0  0  0  1  0  0  0  0  0  0
  -26.9970  -30.3920   24.7600 C   0  0  0  0  0  1  0  0  0  0  0  0
  -27.5560  -32.5740   25.7990 C   0  0  0  0  0  1  0  0  0  0  0  0
  1 11  1  0
  1 49  1  0
  2  1  2  0
  3 15  1  0
  4  9  1  0
  5  6  1  0
  5  4  1  0
  7  6  1  0
  7 21  1  0
  7  8  1  0
  9  3  1  0
  9  8  1  0
 10  3  2  0
 11 16  1  0
 12 14  1  0
 12 11  2  0
 13 15  1  0
 13 16  1  0
 14 13  2  0
 15 17  1  0
 18 19  2  0
 19 38  1  0
 20 19  1  0
 20 23  1  0
 21 18  1  0
 21 22  1  0
 22 20  2  0
 23 24  1  0
 24 25  2  0
 26 29  1  0
 26 25  1  0
 27 26  2  0
 28 27  1  0
 28 23  2  0
 29 30  1  0
 30 31  1  0
 31 32  2  0
 33 32  1  0
 33 37  1  0
 34 33  2  0
 35 30  2  0
 35 34  1  0
 36 35  1  0
 38 39  1  0
 39 42  1  0
 39 41  1  0
 40 38  2  0
 43 44  1  0
 43 18  1  0
 45 43  1  0
 46 12  1  0
 47 46  1  0
 48 46  1  0
 50 51  1  0
 50 49  1  0
 51 52  2  0
 53 54  1  0
 53 51  1  0
 55 66  2  0
 56 54  1  0
 56 61  1  0
 57 65  1  0
 57 67  1  0
 58 64  1  0
 58 60  1  0
 59 65  1  0
 60 61  2  0
 60 59  1  0
 62 56  2  0
 63 62  1  0
 63 58  2  0
 64 57  1  0
 65 55  1  0
 67 69  2  0
 68 67  1  0
 70 68  1  0
 71 80  2  0
 71 76  1  0
 72 68  1  0
 72 76  1  0
 73 72  1  0
 74 75  1  0
 74 73  1  0
 75 71  1  0
 76 77  2  0
 77 78  1  0
 79 78  2  0
 80 79  1  0
 81 55  1  0
 81 82  1  0
 81 91  1  0
 82 85  1  0
 83 87  1  0
 83 82  1  0
 84 83  2  0
 87 86  1  0
 89 87  1  0
 89 90  1  0
 89 88  1  0
 91 94  1  1
 91 92  1  0
 93 91  1  0
M  ISO  4   3 100  15 100  53 101  54 101
M  END
>  <TORSDO>  (7) 
F 21

>  <SCORE>  (7) 
-13.607

>  <name>  (7) 
6

>  <ligand_id>  (7) 
6

>  <original_smiles>  (7) 
[H]c1c([H])c([H])c2c(c1[H])C([H])([H])C([H])([H])C([H])([H])C2([H])N([H])C(=O)C1([H])N(C(=O)C([H])(N([H])C(=O)C([H])(N([H])C([H])([H])[H])C([H])([H])[H])C(C([H])([H])[H])(C([H])([H])[H])C([H])([H])[H])C([H])([H])c2c([H])c(OC([H])([H])C(=O)C([H])([H])C([H])([H])C(=O)c3sc(N([H])C(=O)N4C([H])([H])C([H])([H])C([H])([H])C([H])(n5nc(-c6c([H])c([H])c(Oc7c([H])c([H])c(F)c([H])c7F)c([H])c6[H])c(C(=O)N([H])[H])c5N([H])[H])C4([H])[H])nc3N([H])[H])c([H])c([H])c2C1([H])[H]

>  <smiles>  (7) 
[H]c1c([H])c([H])c2c(c1[H])C([H])([H])C([H])([H])C([H])([H])C2([H])N([H])C(=O)C1([H])N(C(=O)C([H])(N([H])C(=O)C([H])(N([H])C([H])([H])[H])C([H])([H])[H])C(C([H])([H])[H])(C([H])([H])[H])C([H])([H])[H])C([H])([H])c2c([H])c(OC([H])([H])C(=O)C([H])([H])C([H])([H])C(=O)c3sc(N([H])C(=O)N4C([H])([H])C([H])([H])C([H])([H])C([H])(n5nc(-c6c([H])c([H])c(Oc7c([H])c([H])c(F)c([H])c7F)c([H])c6[H])c(C(=O)N([H])[H])c5N([H])[H])C4([H])[H])nc3N([H])[H])c([H])c([H])c2C1([H])[H]

$$$$
7:0:0
     RDKit          3D

 94102  0  0  1  0  0  0  0  0999 V2000
  -29.9430  -21.7210   20.7130 N   0  0  0  0  0  4  0  0  0  0  0  0
  -29.7610  -21.4020   19.7770 H   0  0  0  0  0  0  0  0  0  0  0  0
  -30.7700  -22.2970   20.6690 H   0  0  0  0  0  0  0  0  0  0  0  0
  -31.5550  -20.7040   22.3640 C   0  0  0  0  0  1  0  0  0  0  0  0
  -30.2290  -20.5420   21.5960 C   0  0  0  0  0  3  0  0  0  0  0  0
  -30.8680  -17.4370   19.1620 C   0  0  0  0  0  3  0  0  0  0  0  0
  -30.2490  -17.0050   20.3130 C   0  0  0  0  0  0  0  0  0  0  0  0
  -30.2890  -19.2840   20.7290 C   0  0  0  0  0  0  0  0  0  0  0  0
  -29.8850  -18.0680   21.1610 N   0  0  0  0  0  0  0  0  0  0  0  0
  -31.1170  -19.1700   19.1700 S   0  0  0  0  0  0  0  0  0  0  0  0
  -30.6650  -14.5460   20.2850 C   0  0  0  0  0  0  0  0  0  0  0  0
  -30.3540  -12.3640   19.2020 C   0  0  0  0  0  2  0  0  0  0  0  0
  -29.4200  -12.5730   17.9930 C   0  0  0  0  0  2  0  0  0  0  0  0
  -27.9390  -12.4600   18.4160 C   0  0  0  0  0  2  0  0  0  0  0  0
  -27.5940  -13.2900   19.6860 C   0  0  0  0  0  3  0  0  0  0  0  0
  -28.6560  -13.0960   20.7960 C   0  0  0  0  0  2  0  0  0  0  0  0
  -29.9850  -13.3680   20.2160 N   0  0  0  0  0  0  0  0  0  0  0  0
  -31.8330  -14.6540   19.9020 O   0  0  0  0  0  0  0  0  0  0  0  0
  -29.9340  -15.6370   20.6060 N   0  0  0  0  0  0  0  0  0  0  0  0
  -29.0240  -15.4590   20.9930 H   0  0  0  0  0  0  0  0  0  0  0  0
  -25.1990  -13.8860   20.4320 C   0  0  0  0  0  0  0  0  0  0  0  0
  -24.1370  -13.1100   20.8090 C   0  0  0  0  0  0  0  0  0  0  0  0
  -24.6010  -11.7620   20.7840 C   0  0  0  0  0  0  0  0  0  0  0  0
  -26.2430  -13.0080   20.1800 N   0  0  0  0  0  0  0  0  0  0  0  0
  -25.8850  -11.7270   20.4480 N   0  0  0  0  0  0  0  0  0  0  0  0
  -23.8790  -10.5010   20.9940 C   0  0  0  0  0  0  0  0  0  0  0  0
  -24.3200   -9.5400   21.9270 C   0  0  0  0  0  3  0  0  0  0  0  0
  -23.5980   -8.3420   22.1170 C   0  0  0  0  0  3  0  0  0  0  0  0
  -22.4210   -8.0960   21.3750 C   0  0  0  0  0  0  0  0  0  0  0  0
  -21.9980   -9.0480   20.4300 C   0  0  0  0  0  3  0  0  0  0  0  0
  -22.7220  -10.2360   20.2360 C   0  0  0  0  0  3  0  0  0  0  0  0
  -21.6660   -6.9530   21.4790 O   0  0  0  0  0  0  0  0  0  0  0  0
  -21.6360   -6.2110   22.6330 C   0  0  0  0  0  0  0  0  0  0  0  0
  -21.2360   -6.7650   23.8660 C   0  0  0  0  0  3  0  0  0  0  0  0
  -21.1520   -5.9510   25.0120 C   0  0  0  0  0  3  0  0  0  0  0  0
  -21.4590   -4.5810   24.9270 C   0  0  0  0  0  0  0  0  0  0  0  0
  -21.8560   -4.0200   23.6980 C   0  0  0  0  0  3  0  0  0  0  0  0
  -21.9400   -4.8340   22.5550 C   0  0  0  0  0  0  0  0  0  0  0  0
  -22.3010   -4.2850   21.3670 F   0  0  0  0  0  0  0  0  0  0  0  0
  -21.3730   -3.7960   26.0250 F   0  0  0  0  0  0  0  0  0  0  0  0
  -22.7360  -13.5900   21.0810 C   0  0  0  0  0  0  0  0  0  0  0  0
  -22.0020  -12.9050   21.9500 N   0  0  0  0  0  0  0  0  0  0  0  0
  -22.2980  -14.6060   20.5450 O   0  0  0  0  0  0  0  0  0  0  0  0
  -22.3650  -12.0830   22.4120 H   0  0  0  0  0  0  0  0  0  0  0  0
  -21.0610  -13.2090   22.1590 H   0  0  0  0  0  0  0  0  0  0  0  0
  -25.3510  -15.2600   20.2810 N   0  0  0  0  0  0  0  0  0  0  0  0
  -24.6100  -15.8940   20.5620 H   0  0  0  0  0  0  0  0  0  0  0  0
  -26.1660  -15.7410   19.9240 H   0  0  0  0  0  0  0  0  0  0  0  0
  -27.4590  -22.1250   20.7450 C   0  0  0  0  0  1  0  0  0  0  0  0
  -28.8530  -22.6640   21.1420 C   0  0  0  0  0  3  0  0  0  0  0  0
  -29.1530  -24.0920   20.5350 C   0  0  0  0  0  0  0  0  0  0  0  0
  -30.2910  -24.4040   20.1630 O   0  0  0  0  0  0  0  0  0  0  0  0
  -27.9740  -25.1070   20.3650 C   0  0  0  0  0  2  0  0  0  0  0  0
  -28.3170  -26.5340   20.2860 O   0  0  0  0  0  0  0  0  0  0  0  0
  -24.6110  -31.9040   23.2650 C   0  0  0  0  0  0  0  0  0  0  0  0
  -27.2080  -27.3820   20.2080 C   0  0  0  0  0  0  0  0  0  0  0  0
  -23.4010  -30.5090   21.6300 C   0  0  0  0  0  3  0  0  0  0  0  0
  -24.8470  -28.9790   20.1910 C   0  0  0  0  0  0  0  0  0  0  0  0
  -25.9430  -30.8360   21.4480 C   0  0  0  0  0  2  0  0  0  0  0  0
  -26.0180  -29.4710   20.7850 C   0  0  0  0  0  0  0  0  0  0  0  0
  -27.2030  -28.6850   20.7800 C   0  0  0  0  0  3  0  0  0  0  0  0
  -26.0160  -26.9420   19.5820 C   0  0  0  0  0  3  0  0  0  0  0  0
  -24.8480  -27.7200   19.5750 C   0  0  0  0  0  3  0  0  0  0  0  0
  -23.6120  -29.8500   20.2430 C   0  0  0  0  0  2  0  0  0  0  0  0
  -24.6690  -31.1010   22.1680 N   0  0  0  0  0  0  0  0  0  0  0  0
  -23.5300  -32.1820   23.8040 O   0  0  0  0  0  0  0  0  0  0  0  0
  -22.7470  -29.4830   22.5850 C   0  0  0  0  0  0  0  0  0  0  0  0
  -21.4230  -29.3000   22.4580 N   0  0  0  0  0  0  0  0  0  0  0  0
  -23.4300  -28.8580   23.4000 O   0  0  0  0  0  0  0  0  0  0  0  0
  -20.9340  -29.8490   21.7660 H   0  0  0  0  0  0  0  0  0  0  0  0
  -18.0460  -28.1050   22.9560 C   0  0  0  0  0  0  0  0  0  0  0  0
  -20.6040  -28.3680   23.2350 C   0  0  0  0  0  3  0  0  0  0  0  0
  -20.7100  -26.9350   22.6670 C   0  0  0  0  0  2  0  0  0  0  0  0
  -19.6110  -26.6050   21.6510 C   0  0  0  0  0  2  0  0  0  0  0  0
  -18.2240  -26.7550   22.2860 C   0  0  0  0  0  2  0  0  0  0  0  0
  -19.1630  -28.8700   23.3860 C   0  0  0  0  0  0  0  0  0  0  0  0
  -18.9390  -30.1380   23.9700 C   0  0  0  0  0  3  0  0  0  0  0  0
  -17.6350  -30.6370   24.1320 C   0  0  0  0  0  3  0  0  0  0  0  0
  -16.5320  -29.8700   23.7210 C   0  0  0  0  0  3  0  0  0  0  0  0
  -16.7390  -28.6050   23.1380 C   0  0  0  0  0  3  0  0  0  0  0  0
  -25.9000  -32.5330   23.8780 C   0  0  0  0  0  3  0  0  0  0  0  0
  -25.5960  -33.9310   24.2070 N   0  0  0  0  0  0  0  0  0  0  0  0
  -25.9180  -34.9810   23.4390 C   0  0  0  0  0  0  0  0  0  0  0  0
  -26.5760  -34.8750   22.4010 O   0  0  0  0  0  0  0  0  0  0  0  0
  -25.0110  -34.0880   25.0140 H   0  0  0  0  0  0  0  0  0  0  0  0
  -24.1830  -36.7670   23.0990 C   0  0  0  0  0  1  0  0  0  0  0  0
  -25.4330  -36.3690   23.8990 C   0  0  0  0  0  3  0  0  0  0  0  0
  -27.5750  -37.2590   24.7030 C   0  0  0  0  0  1  0  0  0  0  0  0
  -26.4620  -37.4250   23.7710 N   0  0  0  0  0  0  0  0  0  0  0  0
  -26.0550  -38.3450   23.9170 H   0  0  0  0  0  0  0  0  0  0  0  0
  -26.4190  -31.7620   25.1550 C   0  0  1  0  0  0  0  0  0  0  0  0
  -25.3250  -31.5370   26.2230 C   0  0  0  0  0  1  0  0  0  0  0  0
  -26.9980  -30.3780   24.7750 C   0  0  0  0  0  1  0  0  0  0  0  0
  -27.5790  -32.5540   25.8050 C   0  0  0  0  0  1  0  0  0  0  0  0
  1 50  1  0
  1  5  1  0
  2  1  1  0
  3  1  1  0
  5  4  1  0
  6 10  1  0
  6  7  2  0
  7 19  1  0
  7  9  1  0
  8  9  2  0
  8  5  1  0
 10  8  1  0
 11 19  1  0
 12 17  1  0
 13 14  1  0
 13 12  1  0
 15 14  1  0
 15 24  1  0
 15 16  1  0
 17 11  1  0
 17 16  1  0
 18 11  2  0
 19 20  1  0
 21 22  2  0
 22 41  1  0
 23 22  1  0
 23 26  1  0
 24 21  1  0
 24 25  1  0
 25 23  2  0
 26 27  1  0
 27 28  2  0
 29 32  1  0
 29 28  1  0
 30 29  2  0
 31 30  1  0
 31 26  2  0
 32 33  1  0
 33 34  1  0
 34 35  2  0
 36 35  1  0
 36 40  1  0
 37 36  2  0
 38 33  2  0
 38 37  1  0
 39 38  1  0
 41 42  1  0
 42 45  1  0
 42 44  1  0
 43 41  2  0
 46 21  1  0
 46 47  1  0
 48 46  1  0
 50 49  1  0
 51 50  1  0
 52 51  2  0
 53 51  1  0
 54 53  1  0
 55 66  2  0
 56 54  1  0
 56 61  1  0
 57 65  1  0
 57 67  1  0
 58 64  1  0
 58 60  1  0
 59 65  1  0
 60 59  1  0
 61 60  2  0
 62 56  2  0
 63 62  1  0
 63 58  2  0
 64 57  1  0
 65 55  1  0
 67 69  2  0
 68 67  1  0
 70 68  1  0
 71 80  2  0
 71 76  1  0
 72 68  1  0
 72 76  1  0
 73 72  1  0
 74 75  1  0
 74 73  1  0
 75 71  1  0
 76 77  2  0
 77 78  1  0
 79 78  2  0
 80 79  1  0
 81 55  1  0
 81 82  1  0
 81 91  1  0
 82 85  1  0
 83 87  1  0
 83 82  1  0
 84 83  2  0
 87 86  1  0
 89 87  1  0
 89 90  1  0
 89 88  1  0
 91 94  1  1
 91 92  1  0
 93 91  1  0
M  ISO  4  11 100  19 100  53 101  54 101
M  END
>  <TORSDO>  (8) 
F 21

>  <SCORE>  (8) 
-13.629

>  <name>  (8) 
7

>  <ligand_id>  (8) 
7

>  <original_smiles>  (8) 
[H]c1sc(C([H])(C([H])([H])[H])[N+]([H])([H])C([H])(C(=O)C([H])([H])Oc2c([H])c([H])c3c(c2[H])C([H])([H])N(C(=O)C([H])(N([H])C(=O)C([H])(N([H])C([H])([H])[H])C([H])([H])[H])C(C([H])([H])[H])(C([H])([H])[H])C([H])([H])[H])C([H])(C(=O)N([H])C2([H])c4c([H])c([H])c([H])c([H])c4C([H])([H])C([H])([H])C2([H])[H])C3([H])[H])C([H])([H])[H])nc1N([H])C(=O)N1C([H])([H])C([H])([H])C([H])([H])C([H])(n2nc(-c3c([H])c([H])c(Oc4c([H])c([H])c(F)c([H])c4F)c([H])c3[H])c(C(=O)N([H])[H])c2N([H])[H])C1([H])[H]

>  <smiles>  (8) 
[H]c1sc(C([H])(C([H])([H])[H])[N+]([H])([H])C([H])(C(=O)C([H])([H])Oc2c([H])c([H])c3c(c2[H])C([H])([H])N(C(=O)C([H])(N([H])C(=O)C([H])(N([H])C([H])([H])[H])C([H])([H])[H])C(C([H])([H])[H])(C([H])([H])[H])C([H])([H])[H])C([H])(C(=O)N([H])C2([H])c4c([H])c([H])c([H])c([H])c4C([H])([H])C([H])([H])C2([H])[H])C3([H])[H])C([H])([H])[H])nc1N([H])C(=O)N1C([H])([H])C([H])([H])C([H])([H])C([H])(n2nc(-c3c([H])c([H])c(Oc4c([H])c([H])c(F)c([H])c4F)c([H])c3[H])c(C(=O)N([H])[H])c2N([H])[H])C1([H])[H]

$$$$
8:0:0
     RDKit          3D

 92100  0  0  1  0  0  0  0  0999 V2000
  -27.5000  -22.6670   21.5310 C   0  0  0  0  0  1  0  0  0  0  0  0
  -27.8620  -22.8740   20.0460 C   0  0  0  0  0  3  0  0  0  0  0  0
  -29.9970  -18.2900   20.4750 C   0  0  0  0  0  0  0  0  0  0  0  0
  -30.2490  -19.2260   21.4580 C   0  0  0  0  0  3  0  0  0  0  0  0
  -29.1690  -20.5630   19.9580 C   0  0  0  0  0  0  0  0  0  0  0  0
  -30.9500  -18.9860   22.7590 C   0  0  0  0  0  1  0  0  0  0  0  0
  -29.7580  -20.5000   21.1550 N   0  0  0  0  0  0  0  0  0  0  0  0
  -28.5030  -21.6820   19.4600 N   0  0  0  0  0  0  0  0  0  0  0  0
  -29.2040  -19.0210   19.0940 S   0  0  0  0  0  0  0  0  0  0  0  0
  -28.3230  -21.6070   18.4630 H   0  0  0  0  0  0  0  0  0  0  0  0
  -30.3050  -16.8820   20.4770 C   0  0  0  0  0  0  0  0  0  0  0  0
  -30.5170  -15.6560   21.0240 C   0  0  0  0  0  3  0  0  0  0  0  0
  -31.1570  -14.6180   20.2300 C   0  0  0  0  0  0  0  0  0  0  0  0
  -30.7600  -12.5050   19.0190 C   0  0  0  0  0  2  0  0  0  0  0  0
  -29.7900  -12.7890   17.8540 C   0  0  0  0  0  2  0  0  0  0  0  0
  -28.3240  -12.6880   18.3210 C   0  0  0  0  0  2  0  0  0  0  0  0
  -28.0530  -13.4900   19.6200 C   0  0  0  0  0  3  0  0  0  0  0  0
  -29.1270  -13.1730   20.6830 C   0  0  0  0  0  2  0  0  0  0  0  0
  -30.4500  -13.4610   20.0960 N   0  0  0  0  0  0  0  0  0  0  0  0
  -32.2370  -14.8030   19.6590 O   0  0  0  0  0  0  0  0  0  0  0  0
  -25.6870  -14.1520   20.3980 C   0  0  0  0  0  0  0  0  0  0  0  0
  -24.6070  -13.4030   20.7780 C   0  0  0  0  0  0  0  0  0  0  0  0
  -25.0300  -12.0390   20.7130 C   0  0  0  0  0  0  0  0  0  0  0  0
  -26.7030  -13.2490   20.1260 N   0  0  0  0  0  0  0  0  0  0  0  0
  -26.3110  -11.9720   20.3710 N   0  0  0  0  0  0  0  0  0  0  0  0
  -24.2750  -10.7950   20.9000 C   0  0  0  0  0  0  0  0  0  0  0  0
  -24.6760   -9.8210   21.8410 C   0  0  0  0  0  3  0  0  0  0  0  0
  -23.9250   -8.6390   22.0150 C   0  0  0  0  0  3  0  0  0  0  0  0
  -22.7540   -8.4230   21.2490 C   0  0  0  0  0  0  0  0  0  0  0  0
  -22.3720   -9.3840   20.2970 C   0  0  0  0  0  3  0  0  0  0  0  0
  -23.1250  -10.5570   20.1210 C   0  0  0  0  0  3  0  0  0  0  0  0
  -21.9770   -7.2930   21.3320 O   0  0  0  0  0  0  0  0  0  0  0  0
  -21.8460   -6.5930   22.5040 C   0  0  0  0  0  0  0  0  0  0  0  0
  -21.3700   -7.2030   23.6850 C   0  0  0  0  0  3  0  0  0  0  0  0
  -21.1840   -6.4310   24.8510 C   0  0  0  0  0  3  0  0  0  0  0  0
  -21.4660   -5.0520   24.8330 C   0  0  0  0  0  0  0  0  0  0  0  0
  -21.9340   -4.4420   23.6570 C   0  0  0  0  0  3  0  0  0  0  0  0
  -22.1210   -5.2110   22.4940 C   0  0  0  0  0  0  0  0  0  0  0  0
  -22.5530   -4.6140   21.3570 F   0  0  0  0  0  0  0  0  0  0  0  0
  -21.2800   -4.3080   25.9490 F   0  0  0  0  0  0  0  0  0  0  0  0
  -23.2290  -13.9110   21.0960 C   0  0  0  0  0  0  0  0  0  0  0  0
  -22.5120  -13.2290   21.9810 N   0  0  0  0  0  0  0  0  0  0  0  0
  -22.8000  -14.9500   20.5940 O   0  0  0  0  0  0  0  0  0  0  0  0
  -22.8710  -12.3870   22.4070 H   0  0  0  0  0  0  0  0  0  0  0  0
  -21.5900  -13.5530   22.2370 H   0  0  0  0  0  0  0  0  0  0  0  0
  -25.8880  -15.5220   20.2410 N   0  0  0  0  0  0  0  0  0  0  0  0
  -25.1510  -16.2020   20.3910 H   0  0  0  0  0  0  0  0  0  0  0  0
  -26.7560  -15.9390   19.9280 H   0  0  0  0  0  0  0  0  0  0  0  0
  -28.6500  -24.2010   19.8140 C   0  0  0  0  0  0  0  0  0  0  0  0
  -29.5700  -24.2840   18.9930 O   0  0  0  0  0  0  0  0  0  0  0  0
  -28.2460  -25.4340   20.6570 C   0  0  0  0  0  2  0  0  0  0  0  0
  -28.3960  -26.6820   19.9560 O   0  0  0  0  0  0  0  0  0  0  0  0
  -24.6390  -31.8360   23.1430 C   0  0  0  0  0  0  0  0  0  0  0  0
  -27.2490  -27.4440   19.9640 C   0  0  0  0  0  0  0  0  0  0  0  0
  -23.4200  -30.4660   21.4840 C   0  0  0  0  0  3  0  0  0  0  0  0
  -24.8610  -28.9560   20.0180 C   0  0  0  0  0  0  0  0  0  0  0  0
  -25.9490  -30.8270   21.2750 C   0  0  0  0  0  2  0  0  0  0  0  0
  -26.0280  -29.4710   20.6020 C   0  0  0  0  0  0  0  0  0  0  0  0
  -27.2290  -28.7240   20.5640 C   0  0  0  0  0  3  0  0  0  0  0  0
  -26.0690  -26.9480   19.3710 C   0  0  0  0  0  3  0  0  0  0  0  0
  -24.8770  -27.6980   19.3930 C   0  0  0  0  0  3  0  0  0  0  0  0
  -23.6180  -29.8110   20.0900 C   0  0  0  0  0  2  0  0  0  0  0  0
  -24.6880  -31.0570   22.0240 N   0  0  0  0  0  0  0  0  0  0  0  0
  -23.5610  -32.1020   23.6900 O   0  0  0  0  0  0  0  0  0  0  0  0
  -22.7710  -29.4300   22.4300 C   0  0  0  0  0  0  0  0  0  0  0  0
  -21.4460  -29.2490   22.3000 N   0  0  0  0  0  0  0  0  0  0  0  0
  -23.4560  -28.7900   23.2320 O   0  0  0  0  0  0  0  0  0  0  0  0
  -20.9580  -29.8110   21.6160 H   0  0  0  0  0  0  0  0  0  0  0  0
  -18.0720  -28.0440   22.7720 C   0  0  0  0  0  0  0  0  0  0  0  0
  -20.6300  -28.2990   23.0540 C   0  0  0  0  0  3  0  0  0  0  0  0
  -20.7370  -26.8770   22.4560 C   0  0  0  0  0  2  0  0  0  0  0  0
  -19.6350  -26.5670   21.4390 C   0  0  0  0  0  2  0  0  0  0  0  0
  -18.2540  -26.7000   22.0850 C   0  0  0  0  0  2  0  0  0  0  0  0
  -19.1890  -28.8000   23.2160 C   0  0  0  0  0  0  0  0  0  0  0  0
  -18.9690  -30.0570   23.8190 C   0  0  0  0  0  3  0  0  0  0  0  0
  -17.6660  -30.5570   23.9880 C   0  0  0  0  0  3  0  0  0  0  0  0
  -16.5620  -29.7970   23.5640 C   0  0  0  0  0  3  0  0  0  0  0  0
  -16.7660  -28.5420   22.9610 C   0  0  0  0  0  3  0  0  0  0  0  0
  -25.9300  -32.4500   23.7680 C   0  0  0  0  0  3  0  0  0  0  0  0
  -26.4620  -31.6460   25.0170 C   0  0  1  0  0  0  0  0  0  0  0  0
  -25.3780  -31.3830   26.0880 C   0  0  0  0  0  1  0  0  0  0  0  0
  -27.0420  -30.2790   24.5810 C   0  0  0  0  0  1  0  0  0  0  0  0
  -27.6180  -32.4220   25.6860 C   0  0  0  0  0  1  0  0  0  0  0  0
  -25.6270  -33.8400   24.1340 N   0  0  0  0  0  0  0  0  0  0  0  0
  -25.9520  -34.9100   23.3960 C   0  0  0  0  0  0  0  0  0  0  0  0
  -26.6120  -34.8300   22.3560 O   0  0  0  0  0  0  0  0  0  0  0  0
  -25.0400  -33.9760   24.9440 H   0  0  0  0  0  0  0  0  0  0  0  0
  -24.2190  -36.7080   23.1000 C   0  0  0  0  0  1  0  0  0  0  0  0
  -25.4680  -36.2860   23.8910 C   0  0  0  0  0  3  0  0  0  0  0  0
  -27.6080  -37.1510   24.7250 C   0  0  0  0  0  1  0  0  0  0  0  0
  -26.4990  -37.3420   23.7940 N   0  0  0  0  0  0  0  0  0  0  0  0
  -26.0940  -38.2570   23.9670 H   0  0  0  0  0  0  0  0  0  0  0  0
  2  1  1  0
  3 11  2  0
  3  4  1  0
  4  6  1  0
  5  7  2  0
  7  4  1  0
  8  5  1  0
  8  2  1  0
  9  5  1  0
  9  3  1  0
 10  8  1  0
 11 12  2  0
 13 12  1  0
 14 19  1  0
 15 16  1  0
 15 14  1  0
 17 16  1  0
 17 24  1  0
 17 18  1  0
 19 13  1  0
 19 18  1  0
 20 13  2  0
 21 22  2  0
 22 41  1  0
 23 22  1  0
 23 26  1  0
 24 25  1  0
 24 21  1  0
 25 23  2  0
 26 27  1  0
 27 28  2  0
 29 32  1  0
 29 28  1  0
 30 29  2  0
 31 30  1  0
 31 26  2  0
 32 33  1  0
 33 34  1  0
 34 35  2  0
 36 35  1  0
 36 40  1  0
 37 36  2  0
 38 33  2  0
 38 37  1  0
 39 38  1  0
 41 42  1  0
 42 45  1  0
 42 44  1  0
 43 41  2  0
 46 47  1  0
 46 21  1  0
 48 46  1  0
 49  2  1  0
 49 51  1  0
 50 49  2  0
 52 54  1  0
 52 51  1  0
 53 64  2  0
 54 59  1  0
 55 63  1  0
 55 65  1  0
 56 62  1  0
 56 58  1  0
 57 63  1  0
 58 57  1  0
 59 58  2  0
 60 61  1  0
 60 54  2  0
 61 56  2  0
 62 55  1  0
 63 53  1  0
 65 67  2  0
 66 65  1  0
 68 66  1  0
 69 78  2  0
 69 74  1  0
 70 66  1  0
 70 74  1  0
 71 70  1  0
 72 73  1  0
 72 71  1  0
 73 69  1  0
 74 75  2  0
 75 76  1  0
 77 76  2  0
 78 77  1  0
 79 53  1  0
 79 84  1  0
 79 80  1  0
 80 83  1  1
 80 81  1  0
 82 80  1  0
 84 87  1  0
 85 89  1  0
 85 84  1  0
 86 85  2  0
 89 88  1  0
 91 89  1  0
 91 92  1  0
 91 90  1  0
M  ISO  4  12 100  13 100  51 101  52 101
M  END
>  <TORSDO>  (9) 
F 20

>  <SCORE>  (9) 
-13.362

>  <name>  (9) 
8

>  <ligand_id>  (9) 
8

>  <original_smiles>  (9) 
[H]C(C(=O)N1C([H])([H])C([H])([H])C([H])([H])C([H])(n2nc(-c3c([H])c([H])c(Oc4c([H])c([H])c(F)c([H])c4F)c([H])c3[H])c(C(=O)N([H])[H])c2N([H])[H])C1([H])[H])=C([H])c1sc(N([H])C([H])(C(=O)C([H])([H])Oc2c([H])c([H])c3c(c2[H])C([H])([H])N(C(=O)C([H])(N([H])C(=O)C([H])(N([H])C([H])([H])[H])C([H])([H])[H])C(C([H])([H])[H])(C([H])([H])[H])C([H])([H])[H])C([H])(C(=O)N([H])C2([H])c4c([H])c([H])c([H])c([H])c4C([H])([H])C([H])([H])C2([H])[H])C3([H])[H])C([H])([H])[H])nc1C([H])([H])[H]

>  <smiles>  (9) 
[H]C(C(=O)N1C([H])([H])C([H])([H])C([H])([H])C([H])(n2nc(-c3c([H])c([H])c(Oc4c([H])c([H])c(F)c([H])c4F)c([H])c3[H])c(C(=O)N([H])[H])c2N([H])[H])C1([H])[H])=C([H])c1sc(N([H])C([H])(C(=O)C([H])([H])Oc2c([H])c([H])c3c(c2[H])C([H])([H])N(C(=O)C([H])(N([H])C(=O)C([H])(N([H])C([H])([H])[H])C([H])([H])[H])C(C([H])([H])[H])(C([H])([H])[H])C([H])([H])[H])C([H])(C(=O)N([H])C2([H])c4c([H])c([H])c([H])c([H])c4C([H])([H])C([H])([H])C2([H])[H])C3([H])[H])C([H])([H])[H])nc1C([H])([H])[H]

$$$$
9:0:0
     RDKit          3D

 99107  0  0  1  0  0  0  0  0999 V2000
  -30.6200  -14.7980   20.3410 C   0  0  0  0  0  0  0  0  0  0  0  0
  -30.3840  -12.4900   19.4280 C   0  0  0  0  0  2  0  0  0  0  0  0
  -29.4760  -12.5600   18.1840 C   0  0  0  0  0  2  0  0  0  0  0  0
  -27.9980  -12.4160   18.5960 C   0  0  0  0  0  2  0  0  0  0  0  0
  -27.6110  -13.3220   19.7970 C   0  0  0  0  0  3  0  0  0  0  0  0
  -28.6620  -13.2750   20.9320 C   0  0  0  0  0  2  0  0  0  0  0  0
  -29.9600  -13.5870   20.3290 N   0  0  0  0  0  0  0  0  0  0  0  0
  -31.8380  -14.8040   20.1410 O   0  0  0  0  0  0  0  0  0  0  0  0
  -31.2220  -17.5200   18.9560 C   0  0  0  0  0  3  0  0  0  0  0  0
  -31.6600  -18.7860   18.5200 C   0  0  0  0  0  0  0  0  0  0  0  0
  -31.1260  -19.9710   19.0950 C   0  0  0  0  0  0  0  0  0  0  0  0
  -30.2260  -17.3770   19.9390 C   0  0  0  0  0  0  0  0  0  0  0  0
  -29.9990  -19.8410   19.9560 C   0  0  0  0  0  0  0  0  0  0  0  0
  -29.6010  -18.5580   20.3590 N   0  0  0  0  0  0  0  0  0  0  0  0
  -29.8770  -15.9860   20.3650 N   0  0  0  0  0  0  0  0  0  0  0  0
  -28.9100  -15.8650   20.6150 H   0  0  0  0  0  0  0  0  0  0  0  0
  -25.2150  -13.9170   20.4800 C   0  0  0  0  0  0  0  0  0  0  0  0
  -24.1390  -13.1520   20.8340 C   0  0  0  0  0  0  0  0  0  0  0  0
  -24.6010  -11.7980   20.8350 C   0  0  0  0  0  0  0  0  0  0  0  0
  -26.2620  -13.0360   20.2760 N   0  0  0  0  0  0  0  0  0  0  0  0
  -25.9000  -11.7570   20.5580 N   0  0  0  0  0  0  0  0  0  0  0  0
  -23.8660  -10.5410   21.0240 C   0  0  0  0  0  0  0  0  0  0  0  0
  -24.2840   -9.5760   21.9690 C   0  0  0  0  0  3  0  0  0  0  0  0
  -23.5480   -8.3850   22.1480 C   0  0  0  0  0  3  0  0  0  0  0  0
  -22.3820   -8.1480   21.3810 C   0  0  0  0  0  0  0  0  0  0  0  0
  -21.9840   -9.1000   20.4270 C   0  0  0  0  0  3  0  0  0  0  0  0
  -22.7210  -10.2830   20.2460 C   0  0  0  0  0  3  0  0  0  0  0  0
  -21.6220   -7.0070   21.4700 O   0  0  0  0  0  0  0  0  0  0  0  0
  -21.5650   -6.2660   22.6230 C   0  0  0  0  0  0  0  0  0  0  0  0
  -21.1530   -6.8270   23.8520 C   0  0  0  0  0  3  0  0  0  0  0  0
  -21.0410   -6.0140   24.9970 C   0  0  0  0  0  3  0  0  0  0  0  0
  -21.3370   -4.6400   24.9150 C   0  0  0  0  0  0  0  0  0  0  0  0
  -21.7420   -4.0770   23.6930 C   0  0  0  0  0  3  0  0  0  0  0  0
  -21.8550   -4.8880   22.5500 C   0  0  0  0  0  0  0  0  0  0  0  0
  -22.2260   -4.3360   21.3690 F   0  0  0  0  0  0  0  0  0  0  0  0
  -21.2230   -3.8570   26.0140 F   0  0  0  0  0  0  0  0  0  0  0  0
  -22.7370  -13.6340   21.0620 C   0  0  0  0  0  0  0  0  0  0  0  0
  -21.9860  -12.9530   21.9220 N   0  0  0  0  0  0  0  0  0  0  0  0
  -22.3140  -14.6510   20.5140 O   0  0  0  0  0  0  0  0  0  0  0  0
  -22.3390  -12.1280   22.3840 H   0  0  0  0  0  0  0  0  0  0  0  0
  -21.0470  -13.2610   22.1220 H   0  0  0  0  0  0  0  0  0  0  0  0
  -25.3830  -15.2880   20.2880 N   0  0  0  0  0  0  0  0  0  0  0  0
  -24.6120  -15.9400   20.3810 H   0  0  0  0  0  0  0  0  0  0  0  0
  -26.2320  -15.7190   19.9460 H   0  0  0  0  0  0  0  0  0  0  0  0
  -31.8470  -21.3070   18.8230 C   0  0  2  0  0  0  0  0  0  0  0  0
  -33.1710  -21.1430   18.8160 F   0  0  0  0  0  0  0  0  0  0  0  0
  -31.6300  -22.2310   19.7540 F   0  0  0  0  0  0  0  0  0  0  0  0
  -31.4840  -21.7980   17.6400 F   0  0  0  0  0  0  0  0  0  0  0  0
  -32.6860  -18.7930   17.4650 C   0  0  0  0  0  0  0  0  0  0  0  0
  -33.8680  -18.6620   17.7620 O   0  0  0  0  0  0  0  0  0  0  0  0
  -32.2990  -18.8820   16.1810 F   0  0  0  0  0  0  0  0  0  0  0  0
  -29.3190  -20.9910   20.5150 N   0  0  0  0  0  0  0  0  0  0  0  0
  -28.7990  -20.7910   21.3590 H   0  0  0  0  0  0  0  0  0  0  0  0
  -27.2630  -21.8210   19.4450 C   0  0  0  0  0  1  0  0  0  0  0  0
  -28.7300  -22.1730   19.7570 C   0  0  0  0  0  3  0  0  0  0  0  0
  -28.8160  -23.6760   20.4160 C   0  0  0  0  0  0  0  0  0  0  0  0
  -29.4700  -23.8680   21.4460 O   0  0  0  0  0  0  0  0  0  0  0  0
  -28.0380  -24.9230   19.7690 C   0  0  0  0  0  2  0  0  0  0  0  0
  -28.2750  -26.3390   20.2650 O   0  0  0  0  0  0  0  0  0  0  0  0
  -24.6130  -31.9140   23.2510 C   0  0  0  0  0  0  0  0  0  0  0  0
  -27.2060  -27.2720   20.2010 C   0  0  0  0  0  0  0  0  0  0  0  0
  -23.4180  -30.5120   21.6160 C   0  0  0  0  0  3  0  0  0  0  0  0
  -24.8670  -28.9560   20.1970 C   0  0  0  0  0  0  0  0  0  0  0  0
  -25.9680  -30.7970   21.4550 C   0  0  0  0  0  2  0  0  0  0  0  0
  -26.0430  -29.4120   20.8060 C   0  0  0  0  0  0  0  0  0  0  0  0
  -27.2120  -28.5770   20.8130 C   0  0  0  0  0  3  0  0  0  0  0  0
  -26.0100  -26.9100   19.5400 C   0  0  0  0  0  3  0  0  0  0  0  0
  -24.8590  -27.7130   19.5580 C   0  0  0  0  0  3  0  0  0  0  0  0
  -23.6380  -29.8400   20.2380 C   0  0  0  0  0  2  0  0  0  0  0  0
  -24.6870  -31.0920   22.1640 N   0  0  0  0  0  0  0  0  0  0  0  0
  -23.5260  -32.2020   23.7720 O   0  0  0  0  0  0  0  0  0  0  0  0
  -22.7460  -29.5020   22.5750 C   0  0  0  0  0  0  0  0  0  0  0  0
  -21.4170  -29.3310   22.4480 N   0  0  0  0  0  0  0  0  0  0  0  0
  -23.4180  -28.8680   23.3950 O   0  0  0  0  0  0  0  0  0  0  0  0
  -20.9280  -29.8850   21.7580 H   0  0  0  0  0  0  0  0  0  0  0  0
  -18.0310  -28.1670   22.9640 C   0  0  0  0  0  0  0  0  0  0  0  0
  -20.5930  -28.4020   23.2270 C   0  0  0  0  0  3  0  0  0  0  0  0
  -20.6820  -26.9690   22.6540 C   0  0  0  0  0  2  0  0  0  0  0  0
  -19.5740  -26.6540   21.6440 C   0  0  0  0  0  2  0  0  0  0  0  0
  -18.1960  -26.8140   22.2910 C   0  0  0  0  0  2  0  0  0  0  0  0
  -19.1580  -28.9180   23.3900 C   0  0  0  0  0  0  0  0  0  0  0  0
  -18.9510  -30.1860   23.9770 C   0  0  0  0  0  3  0  0  0  0  0  0
  -17.6510  -30.6980   24.1470 C   0  0  0  0  0  3  0  0  0  0  0  0
  -16.5390  -29.9400   23.7390 C   0  0  0  0  0  3  0  0  0  0  0  0
  -16.7300  -28.6780   23.1520 C   0  0  0  0  0  3  0  0  0  0  0  0
  -25.8920  -32.5540   23.8740 C   0  0  0  0  0  3  0  0  0  0  0  0
  -25.5790  -33.9550   24.1960 N   0  0  0  0  0  0  0  0  0  0  0  0
  -25.9110  -35.0060   23.4350 C   0  0  0  0  0  0  0  0  0  0  0  0
  -26.5830  -34.8970   22.4040 O   0  0  0  0  0  0  0  0  0  0  0  0
  -24.9780  -34.1120   24.9910 H   0  0  0  0  0  0  0  0  0  0  0  0
  -24.1840  -36.7980   23.0720 C   0  0  0  0  0  1  0  0  0  0  0  0
  -25.4240  -36.3950   23.8850 C   0  0  0  0  0  3  0  0  0  0  0  0
  -27.5600  -37.2850   24.7130 C   0  0  0  0  0  1  0  0  0  0  0  0
  -26.4580  -37.4480   23.7690 N   0  0  0  0  0  0  0  0  0  0  0  0
  -26.0510  -38.3680   23.9130 H   0  0  0  0  0  0  0  0  0  0  0  0
  -26.4020  -31.7890   25.1570 C   0  0  1  0  0  0  0  0  0  0  0  0
  -25.3050  -31.5590   26.2220 C   0  0  0  0  0  1  0  0  0  0  0  0
  -26.9870  -30.4090   24.7810 C   0  0  0  0  0  1  0  0  0  0  0  0
  -27.5520  -32.5870   25.8170 C   0  0  0  0  0  1  0  0  0  0  0  0
  1 15  1  0
  2  7  1  0
  3  4  1  0
  3  2  1  0
  5  4  1  0
  5 20  1  0
  5  6  1  0
  7  1  1  0
  7  6  1  0
  8  1  2  0
  9 12  1  0
 10  9  2  0
 10 11  1  0
 11 13  2  0
 12 14  2  0
 12 15  1  0
 13 14  1  0
 13 52  1  0
 15 16  1  0
 17 18  2  0
 18 19  1  0
 18 37  1  0
 19 22  1  0
 20 17  1  0
 20 21  1  0
 21 19  2  0
 22 23  1  0
 23 24  2  0
 25 28  1  0
 25 24  1  0
 26 25  2  0
 27 26  1  0
 27 22  2  0
 28 29  1  0
 29 30  1  0
 30 31  2  0
 32 31  1  0
 32 36  1  0
 33 32  2  0
 34 29  2  0
 34 33  1  0
 35 34  1  0
 37 38  1  0
 38 41  1  0
 38 40  1  0
 39 37  2  0
 42 43  1  0
 42 17  1  0
 44 42  1  0
 45 11  1  0
 45 47  1  1
 46 45  1  0
 48 45  1  0
 49 50  2  0
 49 10  1  0
 51 49  1  0
 52 53  1  0
 55 54  1  0
 55 56  1  0
 55 52  1  0
 56 57  2  0
 58 59  1  0
 58 56  1  0
 60 71  2  0
 61 59  1  0
 61 66  1  0
 62 70  1  0
 62 72  1  0
 63 69  1  0
 63 65  1  0
 64 70  1  0
 65 66  2  0
 65 64  1  0
 67 68  1  0
 67 61  2  0
 68 63  2  0
 69 62  1  0
 70 60  1  0
 72 74  2  0
 73 72  1  0
 75 73  1  0
 76 85  2  0
 76 81  1  0
 77 73  1  0
 77 81  1  0
 78 77  1  0
 79 80  1  0
 79 78  1  0
 80 76  1  0
 81 82  2  0
 82 83  1  0
 84 83  2  0
 85 84  1  0
 86 60  1  0
 86 87  1  0
 86 96  1  0
 87 90  1  0
 88 92  1  0
 88 87  1  0
 89 88  2  0
 92 91  1  0
 94 92  1  0
 94 95  1  0
 94 93  1  0
 96 99  1  1
 96 97  1  0
 98 96  1  0
M  ISO  4   1 100  15 100  58 101  59 101
M  END
>  <TORSDO>  (10) 
F 21

>  <SCORE>  (10) 
-13.668

>  <name>  (10) 
9

>  <ligand_id>  (10) 
9

>  <original_smiles>  (10) 
[H]c1c([H])c([H])c2c(c1[H])C([H])([H])C([H])([H])C([H])([H])C2([H])N([H])C(=O)C1([H])N(C(=O)C([H])(N([H])C(=O)C([H])(N([H])C([H])([H])[H])C([H])([H])[H])C(C([H])([H])[H])(C([H])([H])[H])C([H])([H])[H])C([H])([H])c2c([H])c(OC([H])([H])C(=O)C([H])(N([H])c3nc(N([H])C(=O)N4C([H])([H])C([H])([H])C([H])([H])C([H])(n5nc(-c6c([H])c([H])c(Oc7c([H])c([H])c(F)c([H])c7F)c([H])c6[H])c(C(=O)N([H])[H])c5N([H])[H])C4([H])[H])c([H])c(C(=O)F)c3C(F)(F)F)C([H])([H])[H])c([H])c([H])c2C1([H])[H]

>  <smiles>  (10) 
[H]c1c([H])c([H])c2c(c1[H])C([H])([H])C([H])([H])C([H])([H])C2([H])N([H])C(=O)C1([H])N(C(=O)C([H])(N([H])C(=O)C([H])(N([H])C([H])([H])[H])C([H])([H])[H])C(C([H])([H])[H])(C([H])([H])[H])C([H])([H])[H])C([H])([H])c2c([H])c(OC([H])([H])C(=O)C([H])(N([H])c3nc(N([H])C(=O)N4C([H])([H])C([H])([H])C([H])([H])C([H])(n5nc(-c6c([H])c([H])c(Oc7c([H])c([H])c(F)c([H])c7F)c([H])c6[H])c(C(=O)N([H])[H])c5N([H])[H])C4([H])[H])c([H])c(C(=O)F)c3C(F)(F)F)C([H])([H])[H])c([H])c([H])c2C1([H])[H]

$$$$
10:0:0
     RDKit          3D

 97105  0  0  1  0  0  0  0  0999 V2000
  -29.2580  -22.3980   19.8310 C   0  0  0  0  0  3  0  0  0  0  0  0
  -30.7310  -22.6960   19.4290 C   0  0  2  0  0  0  0  0  0  0  0  0
  -31.4610  -22.9230   20.5220 F   0  0  0  0  0  0  0  0  0  0  0  0
  -30.7930  -23.7800   18.6570 F   0  0  0  0  0  0  0  0  0  0  0  0
  -31.3110  -21.6980   18.7630 F   0  0  0  0  0  0  0  0  0  0  0  0
  -28.7120  -23.7350   20.5960 C   0  0  0  0  0  0  0  0  0  0  0  0
  -28.7030  -23.7930   21.8310 O   0  0  0  0  0  0  0  0  0  0  0  0
  -28.1300  -24.9840   19.7660 C   0  0  0  0  0  2  0  0  0  0  0  0
  -28.2550  -26.4030   20.2870 O   0  0  0  0  0  0  0  0  0  0  0  0
  -24.5600  -31.9400   23.2230 C   0  0  0  0  0  0  0  0  0  0  0  0
  -27.1710  -27.3180   20.1810 C   0  0  0  0  0  0  0  0  0  0  0  0
  -23.3680  -30.5440   21.5760 C   0  0  0  0  0  3  0  0  0  0  0  0
  -24.8260  -28.9950   20.1490 C   0  0  0  0  0  0  0  0  0  0  0  0
  -25.9160  -30.8380   21.4200 C   0  0  0  0  0  2  0  0  0  0  0  0
  -25.9940  -29.4570   20.7690 C   0  0  0  0  0  0  0  0  0  0  0  0
  -27.1650  -28.6280   20.7800 C   0  0  0  0  0  3  0  0  0  0  0  0
  -25.9850  -26.9510   19.5020 C   0  0  0  0  0  3  0  0  0  0  0  0
  -24.8290  -27.7520   19.5050 C   0  0  0  0  0  3  0  0  0  0  0  0
  -23.5930  -29.8760   20.1940 C   0  0  0  0  0  2  0  0  0  0  0  0
  -24.6330  -31.1270   22.1280 N   0  0  0  0  0  0  0  0  0  0  0  0
  -23.4720  -32.2200   23.7470 O   0  0  0  0  0  0  0  0  0  0  0  0
  -22.6960  -29.5260   22.5300 C   0  0  0  0  0  0  0  0  0  0  0  0
  -21.3690  -29.3540   22.3980 N   0  0  0  0  0  0  0  0  0  0  0  0
  -23.3690  -28.8990   23.3510 O   0  0  0  0  0  0  0  0  0  0  0  0
  -20.8860  -29.9140   21.7100 H   0  0  0  0  0  0  0  0  0  0  0  0
  -17.9820  -28.1780   22.8980 C   0  0  0  0  0  0  0  0  0  0  0  0
  -20.5440  -28.4180   23.1640 C   0  0  0  0  0  3  0  0  0  0  0  0
  -20.6330  -26.9890   22.5800 C   0  0  0  0  0  2  0  0  0  0  0  0
  -19.5270  -26.6810   21.5650 C   0  0  0  0  0  2  0  0  0  0  0  0
  -18.1480  -26.8320   22.2140 C   0  0  0  0  0  2  0  0  0  0  0  0
  -19.1080  -28.9290   23.3300 C   0  0  0  0  0  0  0  0  0  0  0  0
  -18.8980  -30.1890   23.9320 C   0  0  0  0  0  3  0  0  0  0  0  0
  -17.5960  -30.6980   24.1050 C   0  0  0  0  0  3  0  0  0  0  0  0
  -16.4870  -29.9440   23.6880 C   0  0  0  0  0  3  0  0  0  0  0  0
  -16.6800  -28.6850   23.0910 C   0  0  0  0  0  3  0  0  0  0  0  0
  -25.8380  -32.5730   23.8540 C   0  0  0  0  0  3  0  0  0  0  0  0
  -26.3420  -31.8040   25.1370 C   0  0  1  0  0  0  0  0  0  0  0  0
  -25.2380  -31.5690   26.1950 C   0  0  0  0  0  1  0  0  0  0  0  0
  -26.9300  -30.4260   24.7580 C   0  0  0  0  0  1  0  0  0  0  0  0
  -27.4860  -32.6020   25.8080 C   0  0  0  0  0  1  0  0  0  0  0  0
  -25.5260  -33.9720   24.1800 N   0  0  0  0  0  0  0  0  0  0  0  0
  -25.8720  -35.0260   23.4310 C   0  0  0  0  0  0  0  0  0  0  0  0
  -26.5580  -34.9230   22.4100 O   0  0  0  0  0  0  0  0  0  0  0  0
  -24.9180  -34.1270   24.9720 H   0  0  0  0  0  0  0  0  0  0  0  0
  -24.1660  -36.8350   23.0450 C   0  0  0  0  0  1  0  0  0  0  0  0
  -25.3830  -36.4150   23.8840 C   0  0  0  0  0  3  0  0  0  0  0  0
  -27.4980  -37.2850   24.7790 C   0  0  0  0  0  1  0  0  0  0  0  0
  -26.4250  -37.4630   23.8040 N   0  0  0  0  0  0  0  0  0  0  0  0
  -26.0210  -38.3850   23.9420 H   0  0  0  0  0  0  0  0  0  0  0  0
  -29.1460  -21.0190   20.4960 N   0  0  0  0  0  0  0  0  0  0  0  0
  -29.2130  -21.0350   21.5050 H   0  0  0  0  0  0  0  0  0  0  0  0
  -30.5600  -14.8440   20.2760 C   0  0  0  0  0  0  0  0  0  0  0  0
  -30.3500  -12.5670   19.2730 C   0  0  0  0  0  2  0  0  0  0  0  0
  -29.3990  -12.6570   18.0580 C   0  0  0  0  0  2  0  0  0  0  0  0
  -27.9350  -12.4770   18.5060 C   0  0  0  0  0  2  0  0  0  0  0  0
  -27.5790  -13.3460   19.7410 C   0  0  0  0  0  3  0  0  0  0  0  0
  -28.6540  -13.2490   20.8470 C   0  0  0  0  0  2  0  0  0  0  0  0
  -29.9440  -13.6100   20.2460 N   0  0  0  0  0  0  0  0  0  0  0  0
  -31.7220  -14.9450   19.8630 O   0  0  0  0  0  0  0  0  0  0  0  0
  -29.6370  -17.2290   18.5590 C   0  0  0  0  0  3  0  0  0  0  0  0
  -29.3520  -18.3750   17.8040 C   0  0  0  0  0  0  0  0  0  0  0  0
  -29.1570  -19.6190   18.4300 C   0  0  0  0  0  0  0  0  0  0  0  0
  -29.7140  -17.2930   19.9620 C   0  0  0  0  0  0  0  0  0  0  0  0
  -29.2930  -19.7240   19.8370 C   0  0  0  0  0  0  0  0  0  0  0  0
  -29.5350  -18.5510   20.5670 N   0  0  0  0  0  0  0  0  0  0  0  0
  -29.8260  -15.9720   20.6370 N   0  0  0  0  0  0  0  0  0  0  0  0
  -29.2410  -18.2710   16.4560 F   0  0  0  0  0  0  0  0  0  0  0  0
  -28.8360  -20.6810   17.6510 F   0  0  0  0  0  0  0  0  0  0  0  0
  -29.0530  -15.7680   21.2500 H   0  0  0  0  0  0  0  0  0  0  0  0
  -25.2030  -13.9140   20.5220 C   0  0  0  0  0  0  0  0  0  0  0  0
  -24.1470  -13.1310   20.9010 C   0  0  0  0  0  0  0  0  0  0  0  0
  -24.6120  -11.7820   20.8370 C   0  0  0  0  0  0  0  0  0  0  0  0
  -26.2450  -13.0430   20.2500 N   0  0  0  0  0  0  0  0  0  0  0  0
  -25.8980  -11.7530   20.5020 N   0  0  0  0  0  0  0  0  0  0  0  0
  -23.8920  -10.5140   21.0190 C   0  0  0  0  0  0  0  0  0  0  0  0
  -24.3320   -9.5390   21.9410 C   0  0  0  0  0  3  0  0  0  0  0  0
  -23.6100   -8.3390   22.1130 C   0  0  0  0  0  3  0  0  0  0  0  0
  -22.4350   -8.1030   21.3600 C   0  0  0  0  0  0  0  0  0  0  0  0
  -22.0140   -9.0660   20.4260 C   0  0  0  0  0  3  0  0  0  0  0  0
  -22.7360  -10.2590   20.2540 C   0  0  0  0  0  3  0  0  0  0  0  0
  -21.6840   -6.9560   21.4420 O   0  0  0  0  0  0  0  0  0  0  0  0
  -21.6300   -6.2100   22.5930 C   0  0  0  0  0  0  0  0  0  0  0  0
  -21.1640   -6.7530   23.8100 C   0  0  0  0  0  3  0  0  0  0  0  0
  -21.0580   -5.9330   24.9510 C   0  0  0  0  0  3  0  0  0  0  0  0
  -21.4090   -4.5720   24.8760 C   0  0  0  0  0  0  0  0  0  0  0  0
  -21.8670   -4.0290   23.6630 C   0  0  0  0  0  3  0  0  0  0  0  0
  -21.9730   -4.8450   22.5240 C   0  0  0  0  0  0  0  0  0  0  0  0
  -22.3960   -4.3110   21.3520 F   0  0  0  0  0  0  0  0  0  0  0  0
  -21.3000   -3.7830   25.9700 F   0  0  0  0  0  0  0  0  0  0  0  0
  -22.7540  -13.6000   21.2070 C   0  0  0  0  0  0  0  0  0  0  0  0
  -22.0410  -12.8830   22.0690 N   0  0  0  0  0  0  0  0  0  0  0  0
  -22.3070  -14.6370   20.7190 O   0  0  0  0  0  0  0  0  0  0  0  0
  -22.4160  -12.0440   22.4870 H   0  0  0  0  0  0  0  0  0  0  0  0
  -21.1070  -13.1790   22.3150 H   0  0  0  0  0  0  0  0  0  0  0  0
  -25.3590  -15.2880   20.3650 N   0  0  0  0  0  0  0  0  0  0  0  0
  -24.5900  -15.9350   20.5000 H   0  0  0  0  0  0  0  0  0  0  0  0
  -26.1930  -15.7340   20.0070 H   0  0  0  0  0  0  0  0  0  0  0  0
  1 50  1  0
  1  6  1  0
  2  1  1  0
  2  3  1  1
  4  2  1  0
  5  2  1  0
  6  7  2  0
  8  9  1  0
  8  6  1  0
 10 21  2  0
 11  9  1  0
 11 16  1  0
 12 20  1  0
 12 22  1  0
 13 19  1  0
 13 15  1  0
 14 20  1  0
 15 16  2  0
 15 14  1  0
 17 18  1  0
 17 11  2  0
 18 13  2  0
 19 12  1  0
 20 10  1  0
 22 24  2  0
 23 22  1  0
 25 23  1  0
 26 35  2  0
 26 31  1  0
 27 23  1  0
 27 31  1  0
 28 27  1  0
 29 30  1  0
 29 28  1  0
 30 26  1  0
 31 32  2  0
 32 33  1  0
 34 33  2  0
 35 34  1  0
 36 10  1  0
 36 41  1  0
 36 37  1  0
 37 40  1  1
 37 38  1  0
 39 37  1  0
 41 44  1  0
 42 46  1  0
 42 41  1  0
 43 42  2  0
 46 45  1  0
 48 46  1  0
 48 49  1  0
 48 47  1  0
 50 51  1  0
 52 66  1  0
 53 58  1  0
 54 55  1  0
 54 53  1  0
 56 55  1  0
 56 73  1  0
 56 57  1  0
 58 52  1  0
 58 57  1  0
 59 52  2  0
 60 63  1  0
 61 62  1  0
 61 60  2  0
 62 64  2  0
 63 65  2  0
 63 66  1  0
 64 50  1  0
 64 65  1  0
 66 69  1  0
 67 61  1  0
 68 62  1  0
 70 71  2  0
 71 90  1  0
 72 71  1  0
 72 75  1  0
 73 74  1  0
 73 70  1  0
 74 72  2  0
 75 76  1  0
 76 77  2  0
 78 81  1  0
 78 77  1  0
 79 78  2  0
 80 79  1  0
 80 75  2  0
 81 82  1  0
 82 83  1  0
 83 84  2  0
 85 84  1  0
 85 89  1  0
 86 85  2  0
 87 82  2  0
 87 86  1  0
 88 87  1  0
 90 91  1  0
 91 94  1  0
 91 93  1  0
 92 90  2  0
 95 96  1  0
 95 70  1  0
 97 95  1  0
M  ISO  4   8 101   9 101  52 100  66 100
M  END
>  <TORSDO>  (11) 
F 20

>  <SCORE>  (11) 
-14.110

>  <name>  (11) 
10

>  <ligand_id>  (11) 
10

>  <original_smiles>  (11) 
[H]c1c([H])c([H])c2c(c1[H])C([H])([H])C([H])([H])C([H])([H])C2([H])N([H])C(=O)C1([H])N(C(=O)C([H])(N([H])C(=O)C([H])(N([H])C([H])([H])[H])C([H])([H])[H])C(C([H])([H])[H])(C([H])([H])[H])C([H])([H])[H])C([H])([H])c2c([H])c(OC([H])([H])C(=O)C([H])(N([H])c3nc(N([H])C(=O)N4C([H])([H])C([H])([H])C([H])([H])C([H])(n5nc(-c6c([H])c([H])c(Oc7c([H])c([H])c(F)c([H])c7F)c([H])c6[H])c(C(=O)N([H])[H])c5N([H])[H])C4([H])[H])c([H])c(F)c3F)C(F)(F)F)c([H])c([H])c2C1([H])[H]

>  <smiles>  (11) 
[H]c1c([H])c([H])c2c(c1[H])C([H])([H])C([H])([H])C([H])([H])C2([H])N([H])C(=O)C1([H])N(C(=O)C([H])(N([H])C(=O)C([H])(N([H])C([H])([H])[H])C([H])([H])[H])C(C([H])([H])[H])(C([H])([H])[H])C([H])([H])[H])C([H])([H])c2c([H])c(OC([H])([H])C(=O)C([H])(N([H])c3nc(N([H])C(=O)N4C([H])([H])C([H])([H])C([H])([H])C([H])(n5nc(-c6c([H])c([H])c(Oc7c([H])c([H])c(F)c([H])c7F)c([H])c6[H])c(C(=O)N([H])[H])c5N([H])[H])C4([H])[H])c([H])c(F)c3F)C(F)(F)F)c([H])c([H])c2C1([H])[H]

$$$$
11:0:0
     RDKit          3D

 94102  0  0  1  0  0  0  0  0999 V2000
  -29.9920  -22.1780   20.6920 C   0  0  0  0  0  3  0  0  0  0  0  0
  -29.6000  -23.3140   21.1440 N   0  0  0  0  0  0  0  0  0  0  0  0
  -29.1130  -24.2810   20.2590 C   0  0  0  0  0  0  0  0  0  0  0  0
  -29.0050  -24.1810   19.0330 O   0  0  0  0  0  0  0  0  0  0  0  0
  -29.5830  -26.0200   22.1090 C   0  0  0  0  0  1  0  0  0  0  0  0
  -28.6580  -25.5990   20.9530 C   0  0  0  0  0  3  0  0  0  0  0  0
  -28.6250  -26.7020   20.0210 O   0  0  0  0  0  0  0  0  0  0  0  0
  -24.7270  -31.6750   23.3450 C   0  0  0  0  0  0  0  0  0  0  0  0
  -27.4680  -27.4490   20.0590 C   0  0  0  0  0  0  0  0  0  0  0  0
  -23.5590  -30.3530   21.6090 C   0  0  0  0  0  3  0  0  0  0  0  0
  -25.0540  -28.9180   20.1170 C   0  0  0  0  0  0  0  0  0  0  0  0
  -26.0810  -30.7580   21.4630 C   0  0  0  0  0  2  0  0  0  0  0  0
  -26.1970  -29.4260   20.7500 C   0  0  0  0  0  0  0  0  0  0  0  0
  -27.4100  -28.6990   20.7180 C   0  0  0  0  0  3  0  0  0  0  0  0
  -26.3140  -26.9540   19.4210 C   0  0  0  0  0  3  0  0  0  0  0  0
  -25.1070  -27.6800   19.4500 C   0  0  0  0  0  3  0  0  0  0  0  0
  -23.7960  -29.7550   20.1950 C   0  0  0  0  0  2  0  0  0  0  0  0
  -24.8060  -30.9400   22.1980 N   0  0  0  0  0  0  0  0  0  0  0  0
  -23.6350  -31.9010   23.8870 O   0  0  0  0  0  0  0  0  0  0  0  0
  -22.9110  -29.2700   22.5010 C   0  0  0  0  0  0  0  0  0  0  0  0
  -21.5980  -29.0550   22.3240 N   0  0  0  0  0  0  0  0  0  0  0  0
  -23.5880  -28.6290   23.3090 O   0  0  0  0  0  0  0  0  0  0  0  0
  -21.1110  -29.6280   21.6480 H   0  0  0  0  0  0  0  0  0  0  0  0
  -18.2590  -27.7090   22.6230 C   0  0  0  0  0  0  0  0  0  0  0  0
  -20.7880  -28.0590   23.0230 C   0  0  0  0  0  3  0  0  0  0  0  0
  -20.9770  -26.6540   22.4040 C   0  0  0  0  0  2  0  0  0  0  0  0
  -19.9370  -26.3240   21.3290 C   0  0  0  0  0  2  0  0  0  0  0  0
  -18.5220  -26.3910   21.9120 C   0  0  0  0  0  2  0  0  0  0  0  0
  -19.3240  -28.4990   23.1300 C   0  0  0  0  0  0  0  0  0  0  0  0
  -19.0270  -29.7310   23.7510 C   0  0  0  0  0  3  0  0  0  0  0  0
  -17.6960  -30.1750   23.8720 C   0  0  0  0  0  3  0  0  0  0  0  0
  -16.6440  -29.3810   23.3830 C   0  0  0  0  0  3  0  0  0  0  0  0
  -16.9260  -28.1490   22.7640 C   0  0  0  0  0  3  0  0  0  0  0  0
  -25.9970  -32.2850   24.0140 C   0  0  0  0  0  3  0  0  0  0  0  0
  -26.5110  -31.4490   25.2500 C   0  0  1  0  0  0  0  0  0  0  0  0
  -25.4080  -31.1280   26.2840 C   0  0  0  0  0  1  0  0  0  0  0  0
  -27.1290  -30.1090   24.7840 C   0  0  0  0  0  1  0  0  0  0  0  0
  -27.6360  -32.2240   25.9790 C   0  0  0  0  0  1  0  0  0  0  0  0
  -25.6710  -33.6590   24.4170 N   0  0  0  0  0  0  0  0  0  0  0  0
  -26.0070  -34.7540   23.7240 C   0  0  0  0  0  0  0  0  0  0  0  0
  -26.6990  -34.7150   22.7020 O   0  0  0  0  0  0  0  0  0  0  0  0
  -25.0600  -33.7640   25.2150 H   0  0  0  0  0  0  0  0  0  0  0  0
  -24.2740  -36.5530   23.4250 C   0  0  0  0  0  1  0  0  0  0  0  0
  -25.4960  -36.1110   24.2470 C   0  0  0  0  0  3  0  0  0  0  0  0
  -27.5980  -36.9620   25.1880 C   0  0  0  0  0  1  0  0  0  0  0  0
  -26.5230  -37.1750   24.2220 N   0  0  0  0  0  0  0  0  0  0  0  0
  -26.1050  -38.0830   24.4100 H   0  0  0  0  0  0  0  0  0  0  0  0
  -30.6250  -21.1260   21.6110 C   0  0  0  0  0  2  0  0  0  0  0  0
  -29.3560  -18.9230   21.3010 C   0  0  0  0  0  3  0  0  0  0  0  0
  -30.5620  -19.6440   21.2010 C   0  0  0  0  0  0  0  0  0  0  0  0
  -29.3630  -17.5320   21.0800 C   0  0  0  0  0  0  0  0  0  0  0  0
  -30.5690  -16.8740   20.7520 C   0  0  0  0  0  0  0  0  0  0  0  0
  -31.7190  -18.9190   20.8490 C   0  0  0  0  0  0  0  0  0  0  0  0
  -31.7230  -17.5800   20.6230 N   0  0  0  0  0  0  0  0  0  0  0  0
  -28.2170  -16.8170   21.1980 F   0  0  0  0  0  0  0  0  0  0  0  0
  -32.8980  -19.5760   20.7580 F   0  0  0  0  0  0  0  0  0  0  0  0
  -31.0130  -14.5600   19.7890 C   0  0  0  0  0  0  0  0  0  0  0  0
  -30.5620  -12.4700   18.5310 C   0  0  0  0  0  2  0  0  0  0  0  0
  -29.5130  -12.7560   17.4350 C   0  0  0  0  0  2  0  0  0  0  0  0
  -28.0830  -12.6240   17.9920 C   0  0  0  0  0  2  0  0  0  0  0  0
  -27.8890  -13.4020   19.3200 C   0  0  0  0  0  3  0  0  0  0  0  0
  -29.0310  -13.0820   20.3100 C   0  0  0  0  0  2  0  0  0  0  0  0
  -30.3120  -13.3960   19.6490 N   0  0  0  0  0  0  0  0  0  0  0  0
  -32.0650  -14.7730   19.1770 O   0  0  0  0  0  0  0  0  0  0  0  0
  -30.4170  -15.4630   20.5940 N   0  0  0  0  0  0  0  0  0  0  0  0
  -29.6050  -15.1070   21.0770 H   0  0  0  0  0  0  0  0  0  0  0  0
  -25.5790  -14.0410   20.2560 C   0  0  0  0  0  0  0  0  0  0  0  0
  -24.5300  -13.2800   20.6980 C   0  0  0  0  0  0  0  0  0  0  0  0
  -24.9550  -11.9200   20.5910 C   0  0  0  0  0  0  0  0  0  0  0  0
  -26.5780  -13.1440   19.9090 N   0  0  0  0  0  0  0  0  0  0  0  0
  -26.2110  -11.8620   20.1680 N   0  0  0  0  0  0  0  0  0  0  0  0
  -24.2190  -10.6700   20.8140 C   0  0  0  0  0  0  0  0  0  0  0  0
  -24.6480   -9.7210   21.7690 C   0  0  0  0  0  3  0  0  0  0  0  0
  -23.9150   -8.5320   21.9780 C   0  0  0  0  0  3  0  0  0  0  0  0
  -22.7390   -8.2830   21.2310 C   0  0  0  0  0  0  0  0  0  0  0  0
  -22.3280   -9.2220   20.2670 C   0  0  0  0  0  3  0  0  0  0  0  0
  -23.0600  -10.4020   20.0570 C   0  0  0  0  0  3  0  0  0  0  0  0
  -21.9790   -7.1450   21.3450 O   0  0  0  0  0  0  0  0  0  0  0  0
  -21.8280   -6.4990   22.5460 C   0  0  0  0  0  0  0  0  0  0  0  0
  -21.2940   -7.1520   23.6780 C   0  0  0  0  0  3  0  0  0  0  0  0
  -21.0890   -6.4320   24.8730 C   0  0  0  0  0  3  0  0  0  0  0  0
  -21.4100   -5.0630   24.9340 C   0  0  0  0  0  0  0  0  0  0  0  0
  -21.9360   -4.4100   23.8060 C   0  0  0  0  0  3  0  0  0  0  0  0
  -22.1410   -5.1250   22.6130 C   0  0  0  0  0  0  0  0  0  0  0  0
  -22.6290   -4.4880   21.5220 F   0  0  0  0  0  0  0  0  0  0  0  0
  -21.2040   -4.3690   26.0790 F   0  0  0  0  0  0  0  0  0  0  0  0
  -23.1740  -13.7790   21.1090 C   0  0  0  0  0  0  0  0  0  0  0  0
  -22.5320  -13.1030   22.0550 N   0  0  0  0  0  0  0  0  0  0  0  0
  -22.6960  -14.8040   20.6260 O   0  0  0  0  0  0  0  0  0  0  0  0
  -22.9300  -12.2720   22.4660 H   0  0  0  0  0  0  0  0  0  0  0  0
  -21.6290  -13.4230   22.3730 H   0  0  0  0  0  0  0  0  0  0  0  0
  -25.7610  -15.4120   20.1030 N   0  0  0  0  0  0  0  0  0  0  0  0
  -25.0330  -16.0840   20.3220 H   0  0  0  0  0  0  0  0  0  0  0  0
  -26.6050  -15.8470   19.7520 H   0  0  0  0  0  0  0  0  0  0  0  0
  1  2  2  0
  1 48  1  0
  3  6  1  0
  3  2  1  0
  4  3  2  0
  6  5  1  0
  7  9  1  0
  7  6  1  0
  8 19  2  0
  9 14  1  0
 10 18  1  0
 10 20  1  0
 11 17  1  0
 11 13  1  0
 12 18  1  0
 13 12  1  0
 14 13  2  0
 15 16  1  0
 15  9  2  0
 16 11  2  0
 17 10  1  0
 18  8  1  0
 20 22  2  0
 21 20  1  0
 23 21  1  0
 24 33  2  0
 24 29  1  0
 25 21  1  0
 25 29  1  0
 26 25  1  0
 27 28  1  0
 27 26  1  0
 28 24  1  0
 29 30  2  0
 30 31  1  0
 32 31  2  0
 33 32  1  0
 34  8  1  0
 34 39  1  0
 34 35  1  0
 35 38  1  1
 35 36  1  0
 37 35  1  0
 39 42  1  0
 40 44  1  0
 40 39  1  0
 41 40  2  0
 44 43  1  0
 46 44  1  0
 46 47  1  0
 46 45  1  0
 50 49  1  0
 50 48  1  0
 51 55  1  0
 51 49  2  0
 52 51  1  0
 53 50  2  0
 54 52  2  0
 54 53  1  0
 56 53  1  0
 57 65  1  0
 58 63  1  0
 59 60  1  0
 59 58  1  0
 61 60  1  0
 61 70  1  0
 61 62  1  0
 63 57  1  0
 63 62  1  0
 64 57  2  0
 65 52  1  0
 65 66  1  0
 67 68  2  0
 68 87  1  0
 69 68  1  0
 69 72  1  0
 70 71  1  0
 70 67  1  0
 71 69  2  0
 72 73  1  0
 73 74  2  0
 75 78  1  0
 75 74  1  0
 76 75  2  0
 77 76  1  0
 77 72  2  0
 78 79  1  0
 79 84  2  0
 79 80  1  0
 80 81  2  0
 81 82  1  0
 82 86  1  0
 83 82  2  0
 84 83  1  0
 85 84  1  0
 87 88  1  0
 88 91  1  0
 88 90  1  0
 89 87  2  0
 92 67  1  0
 92 93  1  0
 94 92  1  0
M  ISO  4   6 101   7 101  57 100  65 100
M  END
>  <TORSDO>  (12) 
F 20

>  <SCORE>  (12) 
-12.434

>  <name>  (12) 
11

>  <ligand_id>  (12) 
11

>  <original_smiles>  (12) 
[H]C(=NC(=O)C([H])(Oc1c([H])c([H])c2c(c1[H])C([H])([H])N(C(=O)C([H])(N([H])C(=O)C([H])(N([H])C([H])([H])[H])C([H])([H])[H])C(C([H])([H])[H])(C([H])([H])[H])C([H])([H])[H])C([H])(C(=O)N([H])C1([H])c3c([H])c([H])c([H])c([H])c3C([H])([H])C([H])([H])C1([H])[H])C2([H])[H])C([H])([H])[H])C([H])([H])c1c(F)nc(N([H])C(=O)N2C([H])([H])C([H])([H])C([H])([H])C([H])(n3nc(-c4c([H])c([H])c(Oc5c([H])c([H])c(F)c([H])c5F)c([H])c4[H])c(C(=O)N([H])[H])c3N([H])[H])C2([H])[H])c(F)c1[H]

>  <smiles>  (12) 
[H]C(=NC(=O)C([H])(Oc1c([H])c([H])c2c(c1[H])C([H])([H])N(C(=O)C([H])(N([H])C(=O)C([H])(N([H])C([H])([H])[H])C([H])([H])[H])C(C([H])([H])[H])(C([H])([H])[H])C([H])([H])[H])C([H])(C(=O)N([H])C1([H])c3c([H])c([H])c([H])c([H])c3C([H])([H])C([H])([H])C1([H])[H])C2([H])[H])C([H])([H])[H])C([H])([H])c1c(F)nc(N([H])C(=O)N2C([H])([H])C([H])([H])C([H])([H])C([H])(n3nc(-c4c([H])c([H])c(Oc5c([H])c([H])c(F)c([H])c5F)c([H])c4[H])c(C(=O)N([H])[H])c3N([H])[H])C2([H])[H])c(F)c1[H]

$$$$
12:0:0
     RDKit          3D

 96104  0  0  1  0  0  0  0  0999 V2000
  -29.1410  -19.0350   20.3240 C   0  0  0  0  0  3  0  0  0  0  0  0
  -28.7730  -20.4380   20.1630 C   0  0  0  0  0  0  0  0  0  0  0  0
  -30.4890  -18.7570   20.3490 C   0  0  0  0  0  0  0  0  0  0  0  0
  -29.8340  -21.3350   20.0670 C   0  0  0  0  0  0  0  0  0  0  0  0
  -31.3200  -20.3520   20.2430 S   0  0  0  0  0  0  0  0  0  0  0  0
  -31.4450  -14.9630   20.8540 C   0  0  0  0  0  0  0  0  0  0  0  0
  -31.2300  -12.5680   20.1730 C   0  0  0  0  0  2  0  0  0  0  0  0
  -30.5170  -12.4780   18.8070 C   0  0  0  0  0  2  0  0  0  0  0  0
  -28.9920  -12.4160   19.0060 C   0  0  0  0  0  2  0  0  0  0  0  0
  -28.4750  -13.4950   19.9960 C   0  0  0  0  0  3  0  0  0  0  0  0
  -29.3350  -13.5790   21.2770 C   0  0  0  0  0  2  0  0  0  0  0  0
  -30.7270  -13.7840   20.8580 N   0  0  0  0  0  0  0  0  0  0  0  0
  -32.6720  -14.8790   20.7540 O   0  0  0  0  0  0  0  0  0  0  0  0
  -31.3210  -17.4540   20.5160 C   0  0  0  0  0  0  0  0  0  0  0  0
  -30.7770  -16.1890   20.7570 N   0  0  0  0  0  0  0  0  0  0  0  0
  -32.5420  -17.6090   20.3950 O   0  0  0  0  0  0  0  0  0  0  0  0
  -29.7760  -16.1520   20.8190 H   0  0  0  0  0  0  0  0  0  0  0  0
  -26.0670  -14.2800   20.3890 C   0  0  0  0  0  0  0  0  0  0  0  0
  -24.9000  -13.5980   20.6030 C   0  0  0  0  0  0  0  0  0  0  0  0
  -25.2520  -12.2130   20.6350 C   0  0  0  0  0  0  0  0  0  0  0  0
  -27.0580  -13.3170   20.2980 N   0  0  0  0  0  0  0  0  0  0  0  0
  -26.5660  -12.0690   20.5110 N   0  0  0  0  0  0  0  0  0  0  0  0
  -24.4040  -11.0150   20.7150 C   0  0  0  0  0  0  0  0  0  0  0  0
  -24.6870   -9.9680   21.6210 C   0  0  0  0  0  3  0  0  0  0  0  0
  -23.8460   -8.8380   21.6940 C   0  0  0  0  0  3  0  0  0  0  0  0
  -22.7060   -8.7460   20.8610 C   0  0  0  0  0  0  0  0  0  0  0  0
  -22.4410   -9.7800   19.9450 C   0  0  0  0  0  3  0  0  0  0  0  0
  -23.2840  -10.9020   19.8690 C   0  0  0  0  0  3  0  0  0  0  0  0
  -21.8470   -7.6750   20.8440 O   0  0  0  0  0  0  0  0  0  0  0  0
  -21.7360   -6.8230   21.9150 C   0  0  0  0  0  0  0  0  0  0  0  0
  -21.3980   -7.2890   23.2040 C   0  0  0  0  0  3  0  0  0  0  0  0
  -21.2280   -6.3720   24.2610 C   0  0  0  0  0  3  0  0  0  0  0  0
  -21.3870   -4.9930   24.0300 C   0  0  0  0  0  0  0  0  0  0  0  0
  -21.7180   -4.5270   22.7450 C   0  0  0  0  0  3  0  0  0  0  0  0
  -21.8890   -5.4410   21.6910 C   0  0  0  0  0  0  0  0  0  0  0  0
  -22.1880   -4.9850   20.4500 F   0  0  0  0  0  0  0  0  0  0  0  0
  -21.2150   -4.1120   25.0430 F   0  0  0  0  0  0  0  0  0  0  0  0
  -23.5230  -14.1900   20.6730 C   0  0  0  0  0  0  0  0  0  0  0  0
  -22.6310  -13.5730   21.4400 N   0  0  0  0  0  0  0  0  0  0  0  0
  -23.2450  -15.2330   20.0840 O   0  0  0  0  0  0  0  0  0  0  0  0
  -22.8670  -12.7280   21.9390 H   0  0  0  0  0  0  0  0  0  0  0  0
  -21.6990  -13.9520   21.5320 H   0  0  0  0  0  0  0  0  0  0  0  0
  -26.3660  -15.6310   20.2350 N   0  0  0  0  0  0  0  0  0  0  0  0
  -25.6410  -16.3420   20.2220 H   0  0  0  0  0  0  0  0  0  0  0  0
  -27.2720  -15.9890   19.9630 H   0  0  0  0  0  0  0  0  0  0  0  0
  -27.3250  -20.8670   20.0950 C   0  0  1  0  0  0  0  0  0  0  0  0
  -27.0050  -21.6420   21.1320 F   0  0  0  0  0  0  0  0  0  0  0  0
  -27.0760  -21.5610   18.9830 F   0  0  0  0  0  0  0  0  0  0  0  0
  -26.4920  -19.8240   20.1040 F   0  0  0  0  0  0  0  0  0  0  0  0
  -30.2270  -23.9090   20.1340 C   0  0  0  0  0  0  0  0  0  0  0  0
  -29.7250  -22.6910   19.7020 N   0  0  0  0  0  0  0  0  0  0  0  0
  -30.9820  -24.0040   21.1040 O   0  0  0  0  0  0  0  0  0  0  0  0
  -29.0600  -22.8390   18.9540 H   0  0  0  0  0  0  0  0  0  0  0  0
  -30.7310  -25.3390   18.0770 C   0  0  0  0  0  1  0  0  0  0  0  0
  -29.8010  -25.2220   19.3010 C   0  0  0  0  0  3  0  0  0  0  0  0
  -29.7610  -26.5950   19.9450 O   0  0  0  0  0  0  0  0  0  0  0  0
  -25.1630  -31.1350   23.3040 C   0  0  0  0  0  0  0  0  0  0  0  0
  -28.5620  -27.3620   19.8960 C   0  0  0  0  0  0  0  0  0  0  0  0
  -24.2660  -29.8140   21.4280 C   0  0  0  0  0  3  0  0  0  0  0  0
  -25.9980  -28.6850   19.9230 C   0  0  0  0  0  0  0  0  0  0  0  0
  -26.7480  -30.4810   21.4710 C   0  0  0  0  0  2  0  0  0  0  0  0
  -27.0590  -29.2200   20.6630 C   0  0  0  0  0  0  0  0  0  0  0  0
  -28.3390  -28.5700   20.6470 C   0  0  0  0  0  3  0  0  0  0  0  0
  -27.4630  -26.9210   19.1160 C   0  0  0  0  0  3  0  0  0  0  0  0
  -26.2060  -27.5450   19.1410 C   0  0  0  0  0  3  0  0  0  0  0  0
  -24.6470  -29.3720   19.9930 C   0  0  0  0  0  2  0  0  0  0  0  0
  -25.4060  -30.4900   22.1260 N   0  0  0  0  0  0  0  0  0  0  0  0
  -24.0230  -31.1890   23.7890 O   0  0  0  0  0  0  0  0  0  0  0  0
  -23.7090  -28.5950   22.2040 C   0  0  0  0  0  0  0  0  0  0  0  0
  -22.4350  -28.2460   21.9520 N   0  0  0  0  0  0  0  0  0  0  0  0
  -24.4220  -27.9750   22.9960 O   0  0  0  0  0  0  0  0  0  0  0  0
  -21.9090  -28.8080   21.2980 H   0  0  0  0  0  0  0  0  0  0  0  0
  -19.2640  -26.5060   22.0320 C   0  0  0  0  0  0  0  0  0  0  0  0
  -21.7250  -27.1070   22.5430 C   0  0  0  0  0  3  0  0  0  0  0  0
  -22.0890  -25.7900   21.8200 C   0  0  0  0  0  2  0  0  0  0  0  0
  -21.1210  -25.4350   20.6880 C   0  0  0  0  0  2  0  0  0  0  0  0
  -19.6940  -25.2930   21.2250 C   0  0  0  0  0  2  0  0  0  0  0  0
  -20.2170  -27.3670   22.6380 C   0  0  0  0  0  0  0  0  0  0  0  0
  -19.7640  -28.4990   23.3490 C   0  0  0  0  0  3  0  0  0  0  0  0
  -18.3890  -28.7760   23.4610 C   0  0  0  0  0  3  0  0  0  0  0  0
  -17.4480  -27.9130   22.8740 C   0  0  0  0  0  3  0  0  0  0  0  0
  -17.8860  -26.7790   22.1660 C   0  0  0  0  0  3  0  0  0  0  0  0
  -26.3030  -31.8550   24.0890 C   0  0  0  0  0  3  0  0  0  0  0  0
  -26.7630  -31.0650   25.3750 C   0  0  1  0  0  0  0  0  0  0  0  0
  -25.5990  -30.6720   26.3150 C   0  0  0  0  0  1  0  0  0  0  0  0
  -27.5130  -29.7690   24.9870 C   0  0  0  0  0  1  0  0  0  0  0  0
  -27.7610  -31.9250   26.1860 C   0  0  0  0  0  1  0  0  0  0  0  0
  -25.8150  -33.1930   24.4510 N   0  0  0  0  0  0  0  0  0  0  0  0
  -26.1420  -34.3240   23.8100 C   0  0  0  0  0  0  0  0  0  0  0  0
  -26.9530  -34.3540   22.8810 O   0  0  0  0  0  0  0  0  0  0  0  0
  -25.1030  -33.2360   25.1650 H   0  0  0  0  0  0  0  0  0  0  0  0
  -24.2980  -35.9690   23.3340 C   0  0  0  0  0  1  0  0  0  0  0  0
  -25.4640  -35.6270   24.2760 C   0  0  0  0  0  3  0  0  0  0  0  0
  -27.3840  -36.6470   25.4190 C   0  0  0  0  0  1  0  0  0  0  0  0
  -26.3920  -36.7770   24.3540 N   0  0  0  0  0  0  0  0  0  0  0  0
  -25.8810  -37.6430   24.5020 H   0  0  0  0  0  0  0  0  0  0  0  0
  1  3  2  0
  2  1  1  0
  3 14  1  0
  4  2  2  0
  4  5  1  0
  5  3  1  0
  6 12  1  0
  7 12  1  0
  8  9  1  0
  8  7  1  0
 10  9  1  0
 10 21  1  0
 10 11  1  0
 12 11  1  0
 13  6  2  0
 14 15  1  0
 15 17  1  0
 15  6  1  0
 16 14  2  0
 18 19  2  0
 19 20  1  0
 19 38  1  0
 20 23  1  0
 21 18  1  0
 21 22  1  0
 22 20  2  0
 23 24  1  0
 24 25  2  0
 26 25  1  0
 27 26  2  0
 28 27  1  0
 28 23  2  0
 29 26  1  0
 29 30  1  0
 30 31  1  0
 31 32  2  0
 33 32  1  0
 33 37  1  0
 34 33  2  0
 35 30  2  0
 35 34  1  0
 36 35  1  0
 38 39  1  0
 39 42  1  0
 39 41  1  0
 40 38  2  0
 43 18  1  0
 44 43  1  0
 45 43  1  0
 46 49  1  6
 46  2  1  0
 46 47  1  0
 48 46  1  0
 50 52  2  0
 51  4  1  0
 51 50  1  0
 53 51  1  0
 55 54  1  0
 55 56  1  0
 55 50  1  0
 57 68  2  0
 58 56  1  0
 58 63  1  0
 59 67  1  0
 59 69  1  0
 60 66  1  0
 60 62  1  0
 61 67  1  0
 62 61  1  0
 63 62  2  0
 64 65  1  0
 64 58  2  0
 65 60  2  0
 66 59  1  0
 67 57  1  0
 69 71  2  0
 70 69  1  0
 72 70  1  0
 73 82  2  0
 73 78  1  0
 74 70  1  0
 74 78  1  0
 75 74  1  0
 76 77  1  0
 76 75  1  0
 77 73  1  0
 78 79  2  0
 79 80  1  0
 81 80  2  0
 82 81  1  0
 83 57  1  0
 83 88  1  0
 83 84  1  0
 84 87  1  1
 84 85  1  0
 86 84  1  0
 88 91  1  0
 89 93  1  0
 89 88  1  0
 90 89  2  0
 93 92  1  0
 93 95  1  0
 95 96  1  0
 95 94  1  0
M  ISO  4   6 100  15 100  55 101  56 101
M  END
>  <TORSDO>  (13) 
F 19

>  <SCORE>  (13) 
-9.545

>  <name>  (13) 
12

>  <ligand_id>  (13) 
12

>  <original_smiles>  (13) 
[H]c1c([H])c([H])c2c(c1[H])C([H])([H])C([H])([H])C([H])([H])C2([H])N([H])C(=O)C1([H])N(C(=O)C([H])(N([H])C(=O)C([H])(N([H])C([H])([H])[H])C([H])([H])[H])C(C([H])([H])[H])(C([H])([H])[H])C([H])([H])[H])C([H])([H])c2c([H])c(OC([H])(C(=O)N([H])c3sc(C(=O)N([H])C(=O)N4C([H])([H])C([H])([H])C([H])([H])C([H])(n5nc(-c6c([H])c([H])c(Oc7c([H])c([H])c(F)c([H])c7F)c([H])c6[H])c(C(=O)N([H])[H])c5N([H])[H])C4([H])[H])c([H])c3C(F)(F)F)C([H])([H])[H])c([H])c([H])c2C1([H])[H]

>  <smiles>  (13) 
[H]c1c([H])c([H])c2c(c1[H])C([H])([H])C([H])([H])C([H])([H])C2([H])N([H])C(=O)C1([H])N(C(=O)C([H])(N([H])C(=O)C([H])(N([H])C([H])([H])[H])C([H])([H])[H])C(C([H])([H])[H])(C([H])([H])[H])C([H])([H])[H])C([H])([H])c2c([H])c(OC([H])(C(=O)N([H])c3sc(C(=O)N([H])C(=O)N4C([H])([H])C([H])([H])C([H])([H])C([H])(n5nc(-c6c([H])c([H])c(Oc7c([H])c([H])c(F)c([H])c7F)c([H])c6[H])c(C(=O)N([H])[H])c5N([H])[H])C4([H])[H])c([H])c3C(F)(F)F)C([H])([H])[H])c([H])c([H])c2C1([H])[H]

$$$$
13:0:0
     RDKit          3D

 97105  0  0  1  0  0  0  0  0999 V2000
  -28.9790  -22.7840   19.3380 C   0  0  0  0  0  3  0  0  0  0  0  0
  -28.9960  -20.4460   19.8970 C   0  0  0  0  0  0  0  0  0  0  0  0
  -29.4590  -21.6370   20.1600 N   0  0  0  0  0  2  0  0  0  0  0  0
  -27.9910  -20.1100   19.0120 N   0  0  0  0  0  4  0  0  0  0  0  0
  -27.7590  -19.1370   18.8470 H   0  0  0  0  0  0  0  0  0  0  0  0
  -27.4370  -20.7260   18.4390 H   0  0  0  0  0  0  0  0  0  0  0  0
  -31.2140  -17.5240   21.4410 C   0  0  0  0  0  3  0  0  0  0  0  0
  -30.0980  -16.9850   20.8540 C   0  0  0  0  0  0  0  0  0  0  0  0
  -29.6570  -19.2340   20.5020 C   0  0  0  0  0  0  0  0  0  0  0  0
  -29.2080  -17.9630   20.3640 N   0  0  0  0  0  0  0  0  0  0  0  0
  -31.1900  -19.2780   21.3820 S   0  0  0  0  0  0  0  0  0  0  0  0
  -30.5990  -14.5480   20.4400 C   0  0  0  0  0  0  0  0  0  0  0  0
  -30.3530  -12.3650   19.3020 C   0  0  0  0  0  2  0  0  0  0  0  0
  -29.4040  -12.5550   18.1000 C   0  0  0  0  0  2  0  0  0  0  0  0
  -27.9270  -12.4120   18.5260 C   0  0  0  0  0  2  0  0  0  0  0  0
  -27.5840  -13.2340   19.7990 C   0  0  0  0  0  3  0  0  0  0  0  0
  -28.6470  -13.0170   20.9000 C   0  0  0  0  0  2  0  0  0  0  0  0
  -29.9600  -13.3480   20.3250 N   0  0  0  0  0  0  0  0  0  0  0  0
  -31.7570  -14.7150   20.0460 O   0  0  0  0  0  0  0  0  0  0  0  0
  -29.8040  -15.5810   20.8150 N   0  0  0  0  0  0  0  0  0  0  0  0
  -28.8370  -15.3340   20.9400 H   0  0  0  0  0  0  0  0  0  0  0  0
  -25.1900  -13.8350   20.5210 C   0  0  0  0  0  0  0  0  0  0  0  0
  -24.1270  -13.0580   20.8960 C   0  0  0  0  0  0  0  0  0  0  0  0
  -24.5920  -11.7080   20.8640 C   0  0  0  0  0  0  0  0  0  0  0  0
  -26.2350  -12.9550   20.2830 N   0  0  0  0  0  0  0  0  0  0  0  0
  -25.8790  -11.6730   20.5470 N   0  0  0  0  0  0  0  0  0  0  0  0
  -23.8680  -10.4450   21.0570 C   0  0  0  0  0  0  0  0  0  0  0  0
  -24.3160   -9.4720   21.9780 C   0  0  0  0  0  3  0  0  0  0  0  0
  -23.5960   -8.2710   22.1570 C   0  0  0  0  0  3  0  0  0  0  0  0
  -22.4130   -8.0380   21.4160 C   0  0  0  0  0  0  0  0  0  0  0  0
  -21.9850   -8.9980   20.4840 C   0  0  0  0  0  3  0  0  0  0  0  0
  -22.7050  -10.1900   20.3020 C   0  0  0  0  0  3  0  0  0  0  0  0
  -21.6610   -6.8910   21.5070 O   0  0  0  0  0  0  0  0  0  0  0  0
  -21.6380   -6.1330   22.6510 C   0  0  0  0  0  0  0  0  0  0  0  0
  -21.2460   -6.6730   23.8950 C   0  0  0  0  0  3  0  0  0  0  0  0
  -21.1740   -5.8410   25.0310 C   0  0  0  0  0  3  0  0  0  0  0  0
  -21.4820   -4.4700   24.9220 C   0  0  0  0  0  0  0  0  0  0  0  0
  -21.8670   -3.9310   23.6830 C   0  0  0  0  0  3  0  0  0  0  0  0
  -21.9430   -4.7600   22.5490 C   0  0  0  0  0  0  0  0  0  0  0  0
  -22.2950   -4.2310   21.3530 F   0  0  0  0  0  0  0  0  0  0  0  0
  -21.4040   -3.6700   26.0110 F   0  0  0  0  0  0  0  0  0  0  0  0
  -22.7300  -13.5340   21.1740 C   0  0  0  0  0  0  0  0  0  0  0  0
  -22.0020  -12.8390   22.0430 N   0  0  0  0  0  0  0  0  0  0  0  0
  -22.2910  -14.5590   20.6550 O   0  0  0  0  0  0  0  0  0  0  0  0
  -22.3650  -12.0060   22.4840 H   0  0  0  0  0  0  0  0  0  0  0  0
  -21.0640  -13.1410   22.2640 H   0  0  0  0  0  0  0  0  0  0  0  0
  -25.3480  -15.2060   20.3460 N   0  0  0  0  0  0  0  0  0  0  0  0
  -24.5730  -15.8510   20.4590 H   0  0  0  0  0  0  0  0  0  0  0  0
  -26.1920  -15.6590   20.0170 H   0  0  0  0  0  0  0  0  0  0  0  0
  -29.8410  -22.8920   18.0410 C   0  0  1  0  0  0  0  0  0  0  0  0
  -29.3360  -23.7940   17.2010 F   0  0  0  0  0  0  0  0  0  0  0  0
  -31.0910  -23.2560   18.3400 F   0  0  0  0  0  0  0  0  0  0  0  0
  -29.8970  -21.7390   17.3720 F   0  0  0  0  0  0  0  0  0  0  0  0
  -28.9630  -24.1580   20.1200 C   0  0  0  0  0  0  0  0  0  0  0  0
  -29.2650  -24.2530   21.3170 O   0  0  0  0  0  0  0  0  0  0  0  0
  -28.5320  -25.4400   19.3380 C   0  0  0  0  0  2  0  0  0  0  0  0
  -28.3710  -26.6310   20.1640 O   0  0  0  0  0  0  0  0  0  0  0  0
  -24.5870  -31.8720   23.2440 C   0  0  0  0  0  0  0  0  0  0  0  0
  -27.1950  -27.3770   20.1370 C   0  0  0  0  0  0  0  0  0  0  0  0
  -23.3710  -30.4760   21.6090 C   0  0  0  0  0  3  0  0  0  0  0  0
  -24.8100  -28.9350   20.1740 C   0  0  0  0  0  0  0  0  0  0  0  0
  -25.9030  -30.8120   21.4040 C   0  0  0  0  0  2  0  0  0  0  0  0
  -25.9790  -29.4390   20.7560 C   0  0  0  0  0  0  0  0  0  0  0  0
  -27.1690  -28.6670   20.7360 C   0  0  0  0  0  3  0  0  0  0  0  0
  -25.9920  -26.8960   19.5650 C   0  0  0  0  0  3  0  0  0  0  0  0
  -24.8150  -27.6660   19.5770 C   0  0  0  0  0  3  0  0  0  0  0  0
  -23.5720  -29.8020   20.2270 C   0  0  0  0  0  2  0  0  0  0  0  0
  -24.6390  -31.0690   22.1430 N   0  0  0  0  0  0  0  0  0  0  0  0
  -23.5060  -32.1480   23.7860 O   0  0  0  0  0  0  0  0  0  0  0  0
  -22.7190  -29.4550   22.5710 C   0  0  0  0  0  0  0  0  0  0  0  0
  -21.3930  -29.2760   22.4480 N   0  0  0  0  0  0  0  0  0  0  0  0
  -23.4030  -28.8280   23.3840 O   0  0  0  0  0  0  0  0  0  0  0  0
  -20.9010  -29.8330   21.7640 H   0  0  0  0  0  0  0  0  0  0  0  0
  -18.0180  -28.0820   22.9530 C   0  0  0  0  0  0  0  0  0  0  0  0
  -20.5770  -28.3390   23.2220 C   0  0  0  0  0  3  0  0  0  0  0  0
  -20.6780  -26.9070   22.6460 C   0  0  0  0  0  2  0  0  0  0  0  0
  -19.5740  -26.5840   21.6340 C   0  0  0  0  0  2  0  0  0  0  0  0
  -18.1930  -26.7310   22.2800 C   0  0  0  0  0  2  0  0  0  0  0  0
  -19.1370  -28.8440   23.3820 C   0  0  0  0  0  0  0  0  0  0  0  0
  -18.9200  -30.1080   23.9700 C   0  0  0  0  0  3  0  0  0  0  0  0
  -17.6160  -30.6110   24.1360 C   0  0  0  0  0  3  0  0  0  0  0  0
  -16.5110  -29.8460   23.7240 C   0  0  0  0  0  3  0  0  0  0  0  0
  -16.7130  -28.5830   23.1390 C   0  0  0  0  0  3  0  0  0  0  0  0
  -25.8750  -32.5010   23.8580 C   0  0  0  0  0  3  0  0  0  0  0  0
  -25.5710  -33.9000   24.1880 N   0  0  0  0  0  0  0  0  0  0  0  0
  -25.9030  -34.9510   23.4270 C   0  0  0  0  0  0  0  0  0  0  0  0
  -26.5700  -34.8450   22.3940 O   0  0  0  0  0  0  0  0  0  0  0  0
  -24.9790  -34.0580   24.9910 H   0  0  0  0  0  0  0  0  0  0  0  0
  -24.1780  -36.7480   23.0750 C   0  0  0  0  0  1  0  0  0  0  0  0
  -25.4190  -36.3410   23.8850 C   0  0  0  0  0  3  0  0  0  0  0  0
  -27.5570  -37.2190   24.7120 C   0  0  0  0  0  1  0  0  0  0  0  0
  -26.4540  -37.3920   23.7710 N   0  0  0  0  0  0  0  0  0  0  0  0
  -26.0500  -38.3110   23.9220 H   0  0  0  0  0  0  0  0  0  0  0  0
  -26.3960  -31.7300   25.1320 C   0  0  1  0  0  0  0  0  0  0  0  0
  -25.3100  -31.4970   26.2070 C   0  0  0  0  0  1  0  0  0  0  0  0
  -26.9720  -30.3500   24.7370 C   0  0  0  0  0  1  0  0  0  0  0  0
  -27.5530  -32.5210   25.7880 C   0  0  0  0  0  1  0  0  0  0  0  0
  1 54  1  0
  1  3  1  0
  2  3  1  0
  2  9  1  0
  4  2  2  0
  5  4  1  0
  6  4  1  0
  8  7  2  0
  9 11  1  0
 10  9  2  0
 10  8  1  0
 11  7  1  0
 12 20  1  0
 13 18  1  0
 14 15  1  0
 14 13  1  0
 16 15  1  0
 16 25  1  0
 16 17  1  0
 18 12  1  0
 18 17  1  0
 19 12  2  0
 20  8  1  0
 20 21  1  0
 22 23  2  0
 23 42  1  0
 24 23  1  0
 24 27  1  0
 25 22  1  0
 25 26  1  0
 26 24  2  0
 27 28  1  0
 28 29  2  0
 30 33  1  0
 30 29  1  0
 31 30  2  0
 32 31  1  0
 32 27  2  0
 33 34  1  0
 34 35  1  0
 35 36  2  0
 37 36  1  0
 37 41  1  0
 38 37  2  0
 39 34  2  0
 39 38  1  0
 40 39  1  0
 42 43  1  0
 43 46  1  0
 43 45  1  0
 44 42  2  0
 47 48  1  0
 47 22  1  0
 49 47  1  0
 50 52  1  1
 50  1  1  0
 51 50  1  0
 53 50  1  0
 54 55  2  0
 56 54  1  0
 56 57  1  0
 58 69  2  0
 59 57  1  0
 59 64  1  0
 60 68  1  0
 60 70  1  0
 61 67  1  0
 61 63  1  0
 62 68  1  0
 63 62  1  0
 64 63  2  0
 65 66  1  0
 65 59  2  0
 66 61  2  0
 67 60  1  0
 68 58  1  0
 70 72  2  0
 71 70  1  0
 73 71  1  0
 74 83  2  0
 74 79  1  0
 75 71  1  0
 75 79  1  0
 76 75  1  0
 77 78  1  0
 77 76  1  0
 78 74  1  0
 79 80  2  0
 80 81  1  0
 82 81  2  0
 83 82  1  0
 84 58  1  0
 84 85  1  0
 84 94  1  0
 85 88  1  0
 86 90  1  0
 86 85  1  0
 87 86  2  0
 90 89  1  0
 92 90  1  0
 92 93  1  0
 92 91  1  0
 94 97  1  1
 94 95  1  0
 96 94  1  0
M  ISO  4  12 100  20 100  56 101  57 101
M  END
>  <TORSDO>  (14) 
F 21

>  <SCORE>  (14) 
-13.774

>  <name>  (14) 
13

>  <ligand_id>  (14) 
13

>  <original_smiles>  (14) 
[H]c1sc(C(=NC([H])(C(=O)C([H])([H])Oc2c([H])c([H])c3c(c2[H])C([H])([H])N(C(=O)C([H])(N([H])C(=O)C([H])(N([H])C([H])([H])[H])C([H])([H])[H])C(C([H])([H])[H])(C([H])([H])[H])C([H])([H])[H])C([H])(C(=O)N([H])C2([H])c4c([H])c([H])c([H])c([H])c4C([H])([H])C([H])([H])C2([H])[H])C3([H])[H])C(F)(F)F)N([H])[H])nc1N([H])C(=O)N1C([H])([H])C([H])([H])C([H])([H])C([H])(n2nc(-c3c([H])c([H])c(Oc4c([H])c([H])c(F)c([H])c4F)c([H])c3[H])c(C(=O)N([H])[H])c2N([H])[H])C1([H])[H]

>  <smiles>  (14) 
[H]c1sc(C(=NC([H])(C(=O)C([H])([H])Oc2c([H])c([H])c3c(c2[H])C([H])([H])N(C(=O)C([H])(N([H])C(=O)C([H])(N([H])C([H])([H])[H])C([H])([H])[H])C(C([H])([H])[H])(C([H])([H])[H])C([H])([H])[H])C([H])(C(=O)N([H])C2([H])c4c([H])c([H])c([H])c([H])c4C([H])([H])C([H])([H])C2([H])[H])C3([H])[H])C(F)(F)F)N([H])[H])nc1N([H])C(=O)N1C([H])([H])C([H])([H])C([H])([H])C([H])(n2nc(-c3c([H])c([H])c(Oc4c([H])c([H])c(F)c([H])c4F)c([H])c3[H])c(C(=O)N([H])[H])c2N([H])[H])C1([H])[H]

$$$$
14:0:0
     RDKit          3D

 94102  0  0  1  0  0  0  0  0999 V2000
  -28.7680  -22.6570   20.2690 C   0  0  0  0  0  0  0  0  0  0  0  0
  -29.7180  -21.7330   19.9000 N   0  0  0  0  0  0  0  0  0  0  0  0
  -27.7000  -22.3120   20.7790 O   0  0  0  0  0  0  0  0  0  0  0  0
  -30.5300  -22.1750   19.4890 H   0  0  0  0  0  0  0  0  0  0  0  0
  -31.1470  -18.1560   20.0490 C   0  0  0  0  0  3  0  0  0  0  0  0
  -31.0170  -19.5730   19.8800 C   0  0  0  0  0  3  0  0  0  0  0  0
  -28.6690  -19.4270   20.3150 C   0  0  0  0  0  3  0  0  0  0  0  0
  -30.0390  -17.3270   20.3730 C   0  0  0  0  0  0  0  0  0  0  0  0
  -29.7780  -20.2630   20.0250 C   0  0  0  0  0  0  0  0  0  0  0  0
  -28.7900  -18.0180   20.4910 C   0  0  0  0  0  0  0  0  0  0  0  0
  -27.3420  -17.1790   20.9310 Cl  0  0  0  0  0  0  0  0  0  0  0  0
  -30.9120  -15.6790   22.1060 C   0  0  0  0  0  1  0  0  0  0  0  0
  -30.1450  -15.7910   20.7750 C   0  0  0  0  0  3  0  0  0  0  0  0
  -30.6800  -14.6460   19.8050 C   0  0  0  0  0  0  0  0  0  0  0  0
  -30.3360  -12.4740   18.6000 C   0  0  0  0  0  2  0  0  0  0  0  0
  -29.2750  -12.6510   17.4910 C   0  0  0  0  0  2  0  0  0  0  0  0
  -27.8440  -12.4960   18.0500 C   0  0  0  0  0  2  0  0  0  0  0  0
  -27.6270  -13.3030   19.3570 C   0  0  0  0  0  3  0  0  0  0  0  0
  -28.7800  -13.0390   20.3480 C   0  0  0  0  0  2  0  0  0  0  0  0
  -30.0290  -13.4380   19.6790 N   0  0  0  0  0  0  0  0  0  0  0  0
  -31.7270  -14.8430   19.1780 O   0  0  0  0  0  0  0  0  0  0  0  0
  -25.3280  -13.9260   20.3270 C   0  0  0  0  0  0  0  0  0  0  0  0
  -24.2750  -13.1620   20.7500 C   0  0  0  0  0  0  0  0  0  0  0  0
  -24.6840  -11.8040   20.5930 C   0  0  0  0  0  0  0  0  0  0  0  0
  -26.3170  -13.0330   19.9470 N   0  0  0  0  0  0  0  0  0  0  0  0
  -25.9380  -11.7460   20.1590 N   0  0  0  0  0  0  0  0  0  0  0  0
  -23.9360  -10.5530   20.7750 C   0  0  0  0  0  0  0  0  0  0  0  0
  -24.3610   -9.5640   21.6880 C   0  0  0  0  0  3  0  0  0  0  0  0
  -23.6130   -8.3790   21.8580 C   0  0  0  0  0  3  0  0  0  0  0  0
  -22.4260   -8.1750   21.1150 C   0  0  0  0  0  0  0  0  0  0  0  0
  -22.0200   -9.1540   20.1910 C   0  0  0  0  0  3  0  0  0  0  0  0
  -22.7680  -10.3300   20.0180 C   0  0  0  0  0  3  0  0  0  0  0  0
  -21.6500   -7.0440   21.1980 O   0  0  0  0  0  0  0  0  0  0  0  0
  -21.5320   -6.3360   22.3650 C   0  0  0  0  0  0  0  0  0  0  0  0
  -21.0470   -6.9290   23.5520 C   0  0  0  0  0  3  0  0  0  0  0  0
  -20.8760   -6.1460   24.7110 C   0  0  0  0  0  3  0  0  0  0  0  0
  -21.1790   -4.7720   24.6850 C   0  0  0  0  0  0  0  0  0  0  0  0
  -21.6570   -4.1780   23.5040 C   0  0  0  0  0  3  0  0  0  0  0  0
  -21.8300   -4.9580   22.3470 C   0  0  0  0  0  0  0  0  0  0  0  0
  -22.2700   -4.3770   21.2040 F   0  0  0  0  0  0  0  0  0  0  0  0
  -21.0070   -4.0180   25.7960 F   0  0  0  0  0  0  0  0  0  0  0  0
  -22.9280  -13.6620   21.1890 C   0  0  0  0  0  0  0  0  0  0  0  0
  -22.2690  -12.9400   22.0890 N   0  0  0  0  0  0  0  0  0  0  0  0
  -22.4730  -14.7260   20.7710 O   0  0  0  0  0  0  0  0  0  0  0  0
  -22.6510  -12.0770   22.4480 H   0  0  0  0  0  0  0  0  0  0  0  0
  -21.3690  -13.2530   22.4230 H   0  0  0  0  0  0  0  0  0  0  0  0
  -25.5190  -15.2990   20.2140 N   0  0  0  0  0  0  0  0  0  0  0  0
  -24.8030  -15.9690   20.4710 H   0  0  0  0  0  0  0  0  0  0  0  0
  -26.3740  -15.7380   19.8990 H   0  0  0  0  0  0  0  0  0  0  0  0
  -28.2360  -25.1140   20.3090 C   0  0  0  0  0  3  0  0  0  0  0  0
  -29.1100  -24.0930   20.0100 C   0  0  0  0  0  0  0  0  0  0  0  0
  -30.3030  -24.3880   19.4740 O   0  0  0  0  0  0  0  0  0  0  0  0
  -30.3430  -25.3330   19.3970 H   0  0  0  0  0  0  0  0  0  0  0  0
  -28.4330  -26.5010   20.1190 O   0  0  0  0  0  0  0  0  0  0  0  0
  -24.6270  -31.9170   23.0320 C   0  0  0  0  0  0  0  0  0  0  0  0
  -27.3070  -27.3350   20.0840 C   0  0  0  0  0  0  0  0  0  0  0  0
  -23.4410  -30.4600   21.4270 C   0  0  0  0  0  3  0  0  0  0  0  0
  -24.9150  -28.8980   20.0380 C   0  0  0  0  0  0  0  0  0  0  0  0
  -25.9730  -30.8160   21.2320 C   0  0  0  0  0  2  0  0  0  0  0  0
  -26.0750  -29.4230   20.6230 C   0  0  0  0  0  0  0  0  0  0  0  0
  -27.2750  -28.6520   20.6390 C   0  0  0  0  0  3  0  0  0  0  0  0
  -26.1280  -26.8630   19.4700 C   0  0  0  0  0  3  0  0  0  0  0  0
  -24.9420  -27.6220   19.4530 C   0  0  0  0  0  3  0  0  0  0  0  0
  -23.6630  -29.7520   20.0650 C   0  0  0  0  0  2  0  0  0  0  0  0
  -24.6990  -31.0830   21.9530 N   0  0  0  0  0  0  0  0  0  0  0  0
  -23.5400  -32.1910   23.5620 O   0  0  0  0  0  0  0  0  0  0  0  0
  -22.7950  -29.4580   22.4150 C   0  0  0  0  0  0  0  0  0  0  0  0
  -21.4690  -29.2720   22.3050 N   0  0  0  0  0  0  0  0  0  0  0  0
  -23.4850  -28.8530   23.2390 O   0  0  0  0  0  0  0  0  0  0  0  0
  -20.9710  -29.8100   21.6090 H   0  0  0  0  0  0  0  0  0  0  0  0
  -18.1020  -28.0760   22.8670 C   0  0  0  0  0  0  0  0  0  0  0  0
  -20.6630  -28.3450   23.1010 C   0  0  0  0  0  3  0  0  0  0  0  0
  -20.7610  -26.9050   22.5480 C   0  0  0  0  0  2  0  0  0  0  0  0
  -19.6470  -26.5630   21.5530 C   0  0  0  0  0  2  0  0  0  0  0  0
  -18.2730  -26.7170   22.2110 C   0  0  0  0  0  2  0  0  0  0  0  0
  -19.2240  -28.8480   23.2700 C   0  0  0  0  0  0  0  0  0  0  0  0
  -19.0090  -30.1190   23.8440 C   0  0  0  0  0  3  0  0  0  0  0  0
  -17.7050  -30.6210   24.0170 C   0  0  0  0  0  3  0  0  0  0  0  0
  -16.5980  -29.8460   23.6300 C   0  0  0  0  0  3  0  0  0  0  0  0
  -16.7960  -28.5760   23.0610 C   0  0  0  0  0  3  0  0  0  0  0  0
  -25.9010  -32.5820   23.6370 C   0  0  0  0  0  3  0  0  0  0  0  0
  -26.4400  -31.8370   24.9190 C   0  0  1  0  0  0  0  0  0  0  0  0
  -25.3540  -31.5780   25.9890 C   0  0  0  0  0  1  0  0  0  0  0  0
  -27.0610  -30.4730   24.5390 C   0  0  0  0  0  1  0  0  0  0  0  0
  -27.5690  -32.6690   25.5720 C   0  0  0  0  0  1  0  0  0  0  0  0
  -25.5670  -33.9780   23.9510 N   0  0  0  0  0  0  0  0  0  0  0  0
  -25.8830  -35.0280   23.1810 C   0  0  0  0  0  0  0  0  0  0  0  0
  -26.5570  -34.9250   22.1520 O   0  0  0  0  0  0  0  0  0  0  0  0
  -24.9690  -34.1320   24.7490 H   0  0  0  0  0  0  0  0  0  0  0  0
  -24.1350  -36.7940   22.7960 C   0  0  0  0  0  1  0  0  0  0  0  0
  -25.3720  -36.4130   23.6240 C   0  0  0  0  0  3  0  0  0  0  0  0
  -27.4870  -37.3310   24.4680 C   0  0  0  0  0  1  0  0  0  0  0  0
  -26.3910  -37.4790   23.5150 N   0  0  0  0  0  0  0  0  0  0  0  0
  -25.9700  -38.3950   23.6540 H   0  0  0  0  0  0  0  0  0  0  0  0
  1  3  2  0
  2  9  1  0
  2  1  1  0
  4  2  1  0
  5  8  1  0
  6  9  1  0
  6  5  2  0
  7 10  1  0
  8 10  2  0
  8 13  1  0
  9  7  2  0
 10 11  1  0
 13 12  1  0
 14 13  1  0
 15 20  1  0
 16 17  1  0
 16 15  1  0
 18 17  1  0
 18 25  1  0
 18 19  1  0
 20 14  1  0
 20 19  1  0
 21 14  2  0
 22 23  2  0
 23 42  1  0
 24 23  1  0
 24 27  1  0
 25 26  1  0
 25 22  1  0
 26 24  2  0
 27 28  1  0
 28 29  2  0
 30 33  1  0
 30 29  1  0
 31 30  2  0
 32 31  1  0
 32 27  2  0
 33 34  1  0
 34 35  1  0
 35 36  2  0
 37 36  1  0
 37 41  1  0
 38 37  2  0
 39 34  2  0
 39 38  1  0
 40 39  1  0
 42 43  1  0
 43 46  1  0
 43 45  1  0
 44 42  2  0
 47 22  1  0
 47 48  1  0
 49 47  1  0
 51  1  1  0
 51 50  2  0
 52 51  1  0
 53 52  1  0
 54 50  1  0
 55 66  2  0
 56 54  1  0
 56 61  1  0
 57 65  1  0
 57 67  1  0
 58 64  1  0
 58 60  1  0
 59 65  1  0
 60 61  2  0
 60 59  1  0
 62 56  2  0
 63 62  1  0
 63 58  2  0
 64 57  1  0
 65 55  1  0
 67 69  2  0
 68 67  1  0
 70 68  1  0
 71 80  2  0
 71 76  1  0
 72 68  1  0
 72 76  1  0
 73 72  1  0
 74 75  1  0
 74 73  1  0
 75 71  1  0
 76 77  2  0
 77 78  1  0
 79 78  2  0
 80 79  1  0
 81 55  1  0
 81 86  1  0
 81 82  1  0
 82 85  1  1
 82 83  1  0
 84 82  1  0
 86 89  1  0
 87 91  1  0
 87 86  1  0
 88 87  2  0
 91 90  1  0
 93 91  1  0
 93 94  1  0
 93 92  1  0
M  ISO  4  13 100  14 100  50 101  54 101
M  END
>  <TORSDO>  (15) 
F 20

>  <SCORE>  (15) 
-12.689

>  <name>  (15) 
14

>  <ligand_id>  (15) 
14

>  <original_smiles>  (15) 
[H]OC(C(=O)N([H])c1c([H])c([H])c(C([H])(C(=O)N2C([H])([H])C([H])([H])C([H])([H])C([H])(n3nc(-c4c([H])c([H])c(Oc5c([H])c([H])c(F)c([H])c5F)c([H])c4[H])c(C(=O)N([H])[H])c3N([H])[H])C2([H])[H])C([H])([H])[H])c(Cl)c1[H])=C([H])Oc1c([H])c([H])c2c(c1[H])C([H])([H])N(C(=O)C([H])(N([H])C(=O)C([H])(N([H])C([H])([H])[H])C([H])([H])[H])C(C([H])([H])[H])(C([H])([H])[H])C([H])([H])[H])C([H])(C(=O)N([H])C1([H])c3c([H])c([H])c([H])c([H])c3C([H])([H])C([H])([H])C1([H])[H])C2([H])[H]

>  <smiles>  (15) 
[H]OC(C(=O)N([H])c1c([H])c([H])c(C([H])(C(=O)N2C([H])([H])C([H])([H])C([H])([H])C([H])(n3nc(-c4c([H])c([H])c(Oc5c([H])c([H])c(F)c([H])c5F)c([H])c4[H])c(C(=O)N([H])[H])c3N([H])[H])C2([H])[H])C([H])([H])[H])c(Cl)c1[H])=C([H])Oc1c([H])c([H])c2c(c1[H])C([H])([H])N(C(=O)C([H])(N([H])C(=O)C([H])(N([H])C([H])([H])[H])C([H])([H])[H])C(C([H])([H])[H])(C([H])([H])[H])C([H])([H])[H])C([H])(C(=O)N([H])C1([H])c3c([H])c([H])c([H])c([H])c3C([H])([H])C([H])([H])C1([H])[H])C2([H])[H]

$$$$
15:0:0
     RDKit          3D

 94102  0  0  1  0  0  0  0  0999 V2000
  -28.8650  -22.8670   19.5360 C   0  0  0  0  0  0  0  0  0  0  0  0
  -29.4220  -21.8780   20.2800 N   0  0  0  0  0  0  0  0  0  0  0  0
  -28.4930  -22.6530   18.3820 O   0  0  0  0  0  0  0  0  0  0  0  0
  -29.6170  -22.1610   21.2320 H   0  0  0  0  0  0  0  0  0  0  0  0
  -28.3520  -25.3110   19.5570 C   0  0  0  0  0  3  0  0  0  0  0  0
  -28.8400  -24.2020   20.1960 C   0  0  0  0  0  0  0  0  0  0  0  0
  -29.3370  -24.3210   21.4380 O   0  0  0  0  0  0  0  0  0  0  0  0
  -29.2340  -25.2290   21.6960 H   0  0  0  0  0  0  0  0  0  0  0  0
  -28.3970  -26.6230   20.0430 O   0  0  0  0  0  0  0  0  0  0  0  0
  -24.7830  -31.8710   23.3190 C   0  0  0  0  0  0  0  0  0  0  0  0
  -27.2720  -27.4490   20.0200 C   0  0  0  0  0  0  0  0  0  0  0  0
  -23.5250  -30.5610   21.6420 C   0  0  0  0  0  3  0  0  0  0  0  0
  -24.9270  -29.0640   20.1200 C   0  0  0  0  0  0  0  0  0  0  0  0
  -26.0580  -30.8760   21.4140 C   0  0  0  0  0  2  0  0  0  0  0  0
  -26.1100  -29.5260   20.7100 C   0  0  0  0  0  0  0  0  0  0  0  0
  -27.2850  -28.7250   20.6550 C   0  0  0  0  0  3  0  0  0  0  0  0
  -26.0600  -27.0240   19.4280 C   0  0  0  0  0  3  0  0  0  0  0  0
  -24.9010  -27.8190   19.4750 C   0  0  0  0  0  3  0  0  0  0  0  0
  -23.7020  -29.9450   20.2290 C   0  0  0  0  0  2  0  0  0  0  0  0
  -24.8080  -31.1160   22.1820 N   0  0  0  0  0  0  0  0  0  0  0  0
  -23.7160  -32.1320   23.8930 O   0  0  0  0  0  0  0  0  0  0  0  0
  -22.8750  -29.5070   22.5710 C   0  0  0  0  0  0  0  0  0  0  0  0
  -21.5510  -29.3240   22.4410 N   0  0  0  0  0  0  0  0  0  0  0  0
  -23.5640  -28.8590   23.3670 O   0  0  0  0  0  0  0  0  0  0  0  0
  -21.0570  -29.8970   21.7700 H   0  0  0  0  0  0  0  0  0  0  0  0
  -18.1820  -28.0880   22.8870 C   0  0  0  0  0  0  0  0  0  0  0  0
  -20.7360  -28.3610   23.1840 C   0  0  0  0  0  3  0  0  0  0  0  0
  -20.8560  -26.9450   22.5730 C   0  0  0  0  0  2  0  0  0  0  0  0
  -19.7650  -26.6380   21.5430 C   0  0  0  0  0  2  0  0  0  0  0  0
  -18.3770  -26.7570   22.1760 C   0  0  0  0  0  2  0  0  0  0  0  0
  -19.2920  -28.8470   23.3440 C   0  0  0  0  0  0  0  0  0  0  0  0
  -19.0590  -30.0930   23.9650 C   0  0  0  0  0  3  0  0  0  0  0  0
  -17.7500  -30.5820   24.1310 C   0  0  0  0  0  3  0  0  0  0  0  0
  -16.6550  -29.8190   23.6920 C   0  0  0  0  0  3  0  0  0  0  0  0
  -16.8720  -28.5730   23.0760 C   0  0  0  0  0  3  0  0  0  0  0  0
  -26.0900  -32.4580   23.9380 C   0  0  0  0  0  3  0  0  0  0  0  0
  -26.6080  -31.6350   25.1810 C   0  0  1  0  0  0  0  0  0  0  0  0
  -25.5240  -31.3970   26.2550 C   0  0  0  0  0  1  0  0  0  0  0  0
  -27.1470  -30.2550   24.7370 C   0  0  0  0  0  1  0  0  0  0  0  0
  -27.7820  -32.3830   25.8510 C   0  0  0  0  0  1  0  0  0  0  0  0
  -25.8140  -33.8490   24.3170 N   0  0  0  0  0  0  0  0  0  0  0  0
  -26.1090  -34.9160   23.5620 C   0  0  0  0  0  0  0  0  0  0  0  0
  -26.7130  -34.8320   22.4900 O   0  0  0  0  0  0  0  0  0  0  0  0
  -25.2710  -33.9890   25.1560 H   0  0  0  0  0  0  0  0  0  0  0  0
  -24.3590  -36.7120   23.3810 C   0  0  0  0  0  1  0  0  0  0  0  0
  -25.6600  -36.2940   24.0830 C   0  0  0  0  0  3  0  0  0  0  0  0
  -27.8500  -37.1720   24.7600 C   0  0  0  0  0  1  0  0  0  0  0  0
  -26.6780  -37.3530   23.9070 N   0  0  0  0  0  0  0  0  0  0  0  0
  -26.2800  -38.2680   24.1020 H   0  0  0  0  0  0  0  0  0  0  0  0
  -31.6030  -20.8910   20.3960 C   0  0  0  0  0  1  0  0  0  0  0  0
  -30.1990  -20.6910   19.8040 C   0  0  0  0  0  3  0  0  0  0  0  0
  -30.7600  -14.7290   20.0290 C   0  0  0  0  0  0  0  0  0  0  0  0
  -30.5560  -12.5110   18.9240 C   0  0  0  0  0  2  0  0  0  0  0  0
  -29.5290  -12.6600   17.7770 C   0  0  0  0  0  2  0  0  0  0  0  0
  -28.0870  -12.4780   18.2970 C   0  0  0  0  0  2  0  0  0  0  0  0
  -27.8050  -13.3060   19.5760 C   0  0  0  0  0  3  0  0  0  0  0  0
  -28.9280  -13.0970   20.6160 C   0  0  0  0  0  2  0  0  0  0  0  0
  -30.2000  -13.4810   19.9740 N   0  0  0  0  0  0  0  0  0  0  0  0
  -31.8550  -14.9750   19.5000 O   0  0  0  0  0  0  0  0  0  0  0  0
  -29.6590  -19.2640   20.1440 C   0  0  0  0  0  3  0  0  0  0  0  0
  -29.5770  -17.0160   20.4280 C   0  0  0  0  0  0  0  0  0  0  0  0
  -30.3260  -18.0810   20.0210 N   0  0  0  0  0  0  0  0  0  0  0  0
  -28.3110  -17.2760   20.7900 N   0  0  0  0  0  2  0  0  0  0  0  0
  -29.9790  -15.6450   20.6570 N   0  0  0  0  0  0  0  0  0  0  0  0
  -28.0360  -18.9460   20.7120 S   0  0  0  0  0  0  0  0  0  0  0  0
  -29.2480  -15.1500   21.1390 H   0  0  0  0  0  0  0  0  0  0  0  0
  -25.4610  -13.8930   20.4640 C   0  0  0  0  0  0  0  0  0  0  0  0
  -24.4130  -13.1140   20.8690 C   0  0  0  0  0  0  0  0  0  0  0  0
  -24.8630  -11.7620   20.7570 C   0  0  0  0  0  0  0  0  0  0  0  0
  -26.4850  -13.0170   20.1300 N   0  0  0  0  0  0  0  0  0  0  0  0
  -26.1280  -11.7270   20.3620 N   0  0  0  0  0  0  0  0  0  0  0  0
  -24.1420  -10.4980   20.9480 C   0  0  0  0  0  0  0  0  0  0  0  0
  -24.5850   -9.5250   21.8720 C   0  0  0  0  0  3  0  0  0  0  0  0
  -23.8650   -8.3230   22.0490 C   0  0  0  0  0  3  0  0  0  0  0  0
  -22.6860   -8.0890   21.3040 C   0  0  0  0  0  0  0  0  0  0  0  0
  -22.2580   -9.0540   20.3740 C   0  0  0  0  0  3  0  0  0  0  0  0
  -22.9800  -10.2460   20.1940 C   0  0  0  0  0  3  0  0  0  0  0  0
  -21.9350   -6.9430   21.3900 O   0  0  0  0  0  0  0  0  0  0  0  0
  -21.8310   -6.2410   22.5630 C   0  0  0  0  0  0  0  0  0  0  0  0
  -21.2760   -6.8160   23.7280 C   0  0  0  0  0  3  0  0  0  0  0  0
  -21.1200   -6.0360   24.8920 C   0  0  0  0  0  3  0  0  0  0  0  0
  -21.5070   -4.6830   24.8910 C   0  0  0  0  0  0  0  0  0  0  0  0
  -22.0550   -4.1090   23.7310 C   0  0  0  0  0  3  0  0  0  0  0  0
  -22.2130   -4.8850   22.5690 C   0  0  0  0  0  0  0  0  0  0  0  0
  -22.7210   -4.3190   21.4480 F   0  0  0  0  0  0  0  0  0  0  0  0
  -21.3550   -3.9310   26.0070 F   0  0  0  0  0  0  0  0  0  0  0  0
  -23.0420  -13.5920   21.2520 C   0  0  0  0  0  0  0  0  0  0  0  0
  -22.3750  -12.8890   22.1600 N   0  0  0  0  0  0  0  0  0  0  0  0
  -22.5700  -14.6260   20.7810 O   0  0  0  0  0  0  0  0  0  0  0  0
  -22.7670  -12.0520   22.5640 H   0  0  0  0  0  0  0  0  0  0  0  0
  -21.4640  -13.2040   22.4650 H   0  0  0  0  0  0  0  0  0  0  0  0
  -25.6150  -15.2690   20.3360 N   0  0  0  0  0  0  0  0  0  0  0  0
  -24.8460  -15.8880   20.5630 H   0  0  0  0  0  0  0  0  0  0  0  0
  -26.4620  -15.7660   20.0870 H   0  0  0  0  0  0  0  0  0  0  0  0
  1  6  1  0
  1  2  1  0
  2  4  1  0
  3  1  2  0
  5  9  1  0
  5  6  2  0
  6  7  1  0
  7  8  1  0
 10 21  2  0
 11  9  1  0
 11 16  1  0
 12 20  1  0
 12 22  1  0
 13 19  1  0
 13 15  1  0
 14 20  1  0
 15 14  1  0
 16 15  2  0
 17 18  1  0
 17 11  2  0
 18 13  2  0
 19 12  1  0
 20 10  1  0
 22 24  2  0
 23 22  1  0
 25 23  1  0
 26 35  2  0
 26 31  1  0
 27 23  1  0
 27 31  1  0
 28 27  1  0
 29 30  1  0
 29 28  1  0
 30 26  1  0
 31 32  2  0
 32 33  1  0
 34 33  2  0
 35 34  1  0
 36 10  1  0
 36 41  1  0
 36 37  1  0
 37 40  1  1
 37 38  1  0
 39 37  1  0
 41 44  1  0
 42 46  1  0
 42 41  1  0
 43 42  2  0
 46 45  1  0
 48 46  1  0
 48 49  1  0
 48 47  1  0
 51  2  1  0
 51 50  1  0
 52 64  1  0
 53 58  1  0
 54 55  1  0
 54 53  1  0
 56 55  1  0
 56 70  1  0
 56 57  1  0
 58 52  1  0
 58 57  1  0
 59 52  2  0
 60 51  1  0
 60 65  1  0
 61 64  1  0
 61 63  1  0
 62 60  1  0
 62 61  2  0
 64 66  1  0
 65 63  1  0
 67 68  2  0
 68 87  1  0
 69 68  1  0
 69 72  1  0
 70 71  1  0
 70 67  1  0
 71 69  2  0
 72 73  1  0
 73 74  2  0
 75 78  1  0
 75 74  1  0
 76 75  2  0
 77 76  1  0
 77 72  2  0
 78 79  1  0
 79 84  2  0
 79 80  1  0
 80 81  2  0
 82 81  1  0
 82 86  1  0
 83 82  2  0
 84 83  1  0
 85 84  1  0
 87 88  1  0
 88 91  1  0
 88 90  1  0
 89 87  2  0
 92 67  1  0
 92 93  1  0
 94 92  1  0
M  ISO  4   5 101   9 101  52 100  64 100
M  END
>  <TORSDO>  (16) 
F 19

>  <SCORE>  (16) 
-13.721

>  <name>  (16) 
15

>  <ligand_id>  (16) 
15

>  <original_smiles>  (16) 
[H]OC(C(=O)N([H])C([H])(c1nc(N([H])C(=O)N2C([H])([H])C([H])([H])C([H])([H])C([H])(n3nc(-c4c([H])c([H])c(Oc5c([H])c([H])c(F)c([H])c5F)c([H])c4[H])c(C(=O)N([H])[H])c3N([H])[H])C2([H])[H])ns1)C([H])([H])[H])=C([H])Oc1c([H])c([H])c2c(c1[H])C([H])([H])N(C(=O)C([H])(N([H])C(=O)C([H])(N([H])C([H])([H])[H])C([H])([H])[H])C(C([H])([H])[H])(C([H])([H])[H])C([H])([H])[H])C([H])(C(=O)N([H])C1([H])c3c([H])c([H])c([H])c([H])c3C([H])([H])C([H])([H])C1([H])[H])C2([H])[H]

>  <smiles>  (16) 
[H]OC(C(=O)N([H])C([H])(c1nc(N([H])C(=O)N2C([H])([H])C([H])([H])C([H])([H])C([H])(n3nc(-c4c([H])c([H])c(Oc5c([H])c([H])c(F)c([H])c5F)c([H])c4[H])c(C(=O)N([H])[H])c3N([H])[H])C2([H])[H])ns1)C([H])([H])[H])=C([H])Oc1c([H])c([H])c2c(c1[H])C([H])([H])N(C(=O)C([H])(N([H])C(=O)C([H])(N([H])C([H])([H])[H])C([H])([H])[H])C(C([H])([H])[H])(C([H])([H])[H])C([H])([H])[H])C([H])(C(=O)N([H])C1([H])c3c([H])c([H])c([H])c([H])c3C([H])([H])C([H])([H])C1([H])[H])C2([H])[H]

$$$$
16:0:0
     RDKit          3D

 96104  0  0  1  0  0  0  0  0999 V2000
  -29.0540  -22.5480   20.5550 C   0  0  0  0  0  3  0  0  0  0  0  0
  -31.1210  -15.3280   19.9510 C   0  0  0  0  0  0  0  0  0  0  0  0
  -30.9550  -13.0080   19.0170 C   0  0  0  0  0  2  0  0  0  0  0  0
  -29.9680  -13.0150   17.8260 C   0  0  0  0  0  2  0  0  0  0  0  0
  -28.5240  -12.8050   18.3160 C   0  0  0  0  0  2  0  0  0  0  0  0
  -28.1710  -13.7020   19.5320 C   0  0  0  0  0  3  0  0  0  0  0  0
  -29.2780  -13.6820   20.6120 C   0  0  0  0  0  2  0  0  0  0  0  0
  -30.5380  -14.0730   19.9680 N   0  0  0  0  0  0  0  0  0  0  0  0
  -32.2710  -15.4370   19.5080 O   0  0  0  0  0  0  0  0  0  0  0  0
  -29.3990  -18.6570   17.7010 C   0  0  0  0  0  3  0  0  0  0  0  0
  -29.4380  -19.9580   18.2250 C   0  0  0  0  0  0  0  0  0  0  0  0
  -29.8260  -20.1070   19.5630 C   0  0  0  0  0  0  0  0  0  0  0  0
  -30.1570  -17.7080   19.6610 C   0  0  0  0  0  0  0  0  0  0  0  0
  -29.7510  -17.5610   18.4040 N   0  0  0  0  0  0  0  0  0  0  0  0
  -30.1810  -18.9500   20.2760 N   0  0  0  0  0  0  0  0  0  0  0  0
  -30.0170  -21.4700   20.0320 N   0  0  0  0  0  0  0  0  0  0  0  0
  -30.3860  -16.4550   20.3320 N   0  0  0  0  0  0  0  0  0  0  0  0
  -29.1420  -21.0330   17.4530 F   0  0  0  0  0  0  0  0  0  0  0  0
  -30.4170  -21.9400   19.2240 H   0  0  0  0  0  0  0  0  0  0  0  0
  -29.6410  -16.2230   20.9660 H   0  0  0  0  0  0  0  0  0  0  0  0
  -25.8320  -14.2310   20.4380 C   0  0  0  0  0  0  0  0  0  0  0  0
  -24.7900  -13.4340   20.8250 C   0  0  0  0  0  0  0  0  0  0  0  0
  -25.2520  -12.0880   20.6830 C   0  0  0  0  0  0  0  0  0  0  0  0
  -26.8600  -13.3720   20.0850 N   0  0  0  0  0  0  0  0  0  0  0  0
  -26.5230  -12.0740   20.2970 N   0  0  0  0  0  0  0  0  0  0  0  0
  -24.5380  -10.8150   20.8380 C   0  0  0  0  0  0  0  0  0  0  0  0
  -24.9470   -9.8480   21.7820 C   0  0  0  0  0  3  0  0  0  0  0  0
  -24.2290   -8.6400   21.9250 C   0  0  0  0  0  3  0  0  0  0  0  0
  -23.0910   -8.3910   21.1230 C   0  0  0  0  0  0  0  0  0  0  0  0
  -22.7030   -9.3470   20.1680 C   0  0  0  0  0  3  0  0  0  0  0  0
  -23.4190  -10.5460   20.0240 C   0  0  0  0  0  3  0  0  0  0  0  0
  -22.3480   -7.2360   21.1760 O   0  0  0  0  0  0  0  0  0  0  0  0
  -22.1230   -6.5790   22.3580 C   0  0  0  0  0  0  0  0  0  0  0  0
  -21.4750   -7.2040   23.4470 C   0  0  0  0  0  3  0  0  0  0  0  0
  -21.1980   -6.4700   24.6180 C   0  0  0  0  0  3  0  0  0  0  0  0
  -21.5630   -5.1140   24.7010 C   0  0  0  0  0  0  0  0  0  0  0  0
  -22.2030   -4.4880   23.6170 C   0  0  0  0  0  3  0  0  0  0  0  0
  -22.4810   -5.2180   22.4490 C   0  0  0  0  0  0  0  0  0  0  0  0
  -23.0780   -4.6050   21.3990 F   0  0  0  0  0  0  0  0  0  0  0  0
  -21.2880   -4.4040   25.8210 F   0  0  0  0  0  0  0  0  0  0  0  0
  -23.4160  -13.8920   21.2100 C   0  0  0  0  0  0  0  0  0  0  0  0
  -22.7430  -13.1480   22.0830 N   0  0  0  0  0  0  0  0  0  0  0  0
  -22.9480  -14.9440   20.7750 O   0  0  0  0  0  0  0  0  0  0  0  0
  -23.1380  -12.2980   22.4550 H   0  0  0  0  0  0  0  0  0  0  0  0
  -21.8220  -13.4330   22.3840 H   0  0  0  0  0  0  0  0  0  0  0  0
  -25.9860  -15.6110   20.3350 N   0  0  0  0  0  0  0  0  0  0  0  0
  -26.8040  -16.0630   19.9480 H   0  0  0  0  0  0  0  0  0  0  0  0
  -25.2280  -16.2560   20.5290 H   0  0  0  0  0  0  0  0  0  0  0  0
  -26.7630  -22.9020   21.7200 C   0  0  0  0  0  1  0  0  0  0  0  0
  -26.7980  -22.2370   19.3080 C   0  0  0  0  0  1  0  0  0  0  0  0
  -27.4260  -20.6250   21.1440 C   0  0  0  0  0  1  0  0  0  0  0  0
  -27.5390  -22.0930   20.6530 C   0  0  1  0  0  0  0  0  0  0  0  0
  -29.3530  -24.1230   20.0840 C   0  0  0  0  0  0  0  0  0  0  0  0
  -30.3860  -24.3520   19.4490 O   0  0  0  0  0  0  0  0  0  0  0  0
  -28.3860  -25.3830   20.4240 C   0  0  0  0  0  2  0  0  0  0  0  0
  -28.6730  -26.8050   19.9510 O   0  0  0  0  0  0  0  0  0  0  0  0
  -24.8940  -32.0420   23.3860 C   0  0  0  0  0  0  0  0  0  0  0  0
  -27.5880  -27.7270   19.9820 C   0  0  0  0  0  0  0  0  0  0  0  0
  -23.7230  -30.7580   21.6350 C   0  0  0  0  0  3  0  0  0  0  0  0
  -25.2080  -29.3550   20.0890 C   0  0  0  0  0  0  0  0  0  0  0  0
  -26.2650  -31.1200   21.4920 C   0  0  0  0  0  2  0  0  0  0  0  0
  -26.3730  -29.7960   20.7300 C   0  0  0  0  0  0  0  0  0  0  0  0
  -27.5690  -29.0000   20.6620 C   0  0  0  0  0  3  0  0  0  0  0  0
  -26.4020  -27.3790   19.2990 C   0  0  0  0  0  3  0  0  0  0  0  0
  -25.2300  -28.1570   19.3590 C   0  0  0  0  0  3  0  0  0  0  0  0
  -23.9560  -30.2020   20.2060 C   0  0  0  0  0  2  0  0  0  0  0  0
  -24.9790  -31.3240   22.2260 N   0  0  0  0  0  0  0  0  0  0  0  0
  -23.8030  -32.2540   23.9360 O   0  0  0  0  0  0  0  0  0  0  0  0
  -23.0730  -29.6560   22.5090 C   0  0  0  0  0  0  0  0  0  0  0  0
  -21.7560  -29.4440   22.3440 N   0  0  0  0  0  0  0  0  0  0  0  0
  -23.7570  -29.0000   23.2990 O   0  0  0  0  0  0  0  0  0  0  0  0
  -21.2610  -30.0310   21.6870 H   0  0  0  0  0  0  0  0  0  0  0  0
  -18.4030  -28.1350   22.7410 C   0  0  0  0  0  0  0  0  0  0  0  0
  -20.9570  -28.4250   23.0290 C   0  0  0  0  0  3  0  0  0  0  0  0
  -21.0870  -27.0510   22.3340 C   0  0  0  0  0  2  0  0  0  0  0  0
  -19.9910  -26.7940   21.2950 C   0  0  0  0  0  2  0  0  0  0  0  0
  -18.6080  -26.8530   21.9510 C   0  0  0  0  0  2  0  0  0  0  0  0
  -19.5070  -28.8810   23.2330 C   0  0  0  0  0  0  0  0  0  0  0  0
  -19.2630  -30.0820   23.9350 C   0  0  0  0  0  3  0  0  0  0  0  0
  -17.9480  -30.5370   24.1470 C   0  0  0  0  0  3  0  0  0  0  0  0
  -16.8590  -29.7870   23.6690 C   0  0  0  0  0  3  0  0  0  0  0  0
  -17.0880  -28.5880   22.9710 C   0  0  0  0  0  3  0  0  0  0  0  0
  -26.1600  -32.6500   24.0620 C   0  0  0  0  0  3  0  0  0  0  0  0
  -26.6400  -31.8350   25.3250 C   0  0  1  0  0  0  0  0  0  0  0  0
  -25.5160  -31.5560   26.3500 C   0  0  0  0  0  1  0  0  0  0  0  0
  -27.2420  -30.4730   24.9060 C   0  0  0  0  0  1  0  0  0  0  0  0
  -27.7660  -32.6080   26.0510 C   0  0  0  0  0  1  0  0  0  0  0  0
  -25.8440  -34.0370   24.4340 N   0  0  0  0  0  0  0  0  0  0  0  0
  -26.1490  -35.1150   23.6970 C   0  0  0  0  0  0  0  0  0  0  0  0
  -26.7950  -35.0450   22.6480 O   0  0  0  0  0  0  0  0  0  0  0  0
  -25.2660  -34.1640   25.2510 H   0  0  0  0  0  0  0  0  0  0  0  0
  -24.3760  -36.8850   23.4630 C   0  0  0  0  0  1  0  0  0  0  0  0
  -25.6610  -36.4870   24.2040 C   0  0  0  0  0  3  0  0  0  0  0  0
  -27.8120  -37.4020   24.9610 C   0  0  0  0  0  1  0  0  0  0  0  0
  -26.6710  -37.5600   24.0630 N   0  0  0  0  0  0  0  0  0  0  0  0
  -26.2540  -38.4710   24.2340 H   0  0  0  0  0  0  0  0  0  0  0  0
  1 53  1  0
  1 52  1  0
  2  8  1  0
  2 17  1  0
  3  8  1  0
  4  5  1  0
  4  3  1  0
  6  5  1  0
  6 24  1  0
  6  7  1  0
  8  7  1  0
  9  2  2  0
 10 11  2  0
 10 14  1  0
 11 12  1  0
 12 16  1  0
 12 15  2  0
 13 15  1  0
 13 17  1  0
 14 13  2  0
 16  1  1  0
 17 20  1  0
 18 11  1  0
 19 16  1  0
 21 22  2  0
 22 41  1  0
 23 22  1  0
 23 26  1  0
 24 25  1  0
 24 21  1  0
 25 23  2  0
 26 27  1  0
 27 28  2  0
 29 32  1  0
 29 28  1  0
 30 29  2  0
 31 30  1  0
 31 26  2  0
 32 33  1  0
 33 38  2  0
 33 34  1  0
 34 35  2  0
 35 36  1  0
 36 40  1  0
 37 36  2  0
 38 37  1  0
 39 38  1  0
 41 42  1  0
 42 45  1  0
 42 44  1  0
 43 41  2  0
 46 21  1  0
 46 48  1  0
 47 46  1  0
 52 50  1  6
 52 51  1  0
 52 49  1  0
 53 55  1  0
 54 53  2  0
 56 58  1  0
 56 55  1  0
 57 68  2  0
 58 63  1  0
 59 67  1  0
 59 69  1  0
 60 66  1  0
 60 62  1  0
 61 67  1  0
 62 61  1  0
 63 62  2  0
 64 65  1  0
 64 58  2  0
 65 60  2  0
 66 59  1  0
 67 57  1  0
 69 71  2  0
 70 69  1  0
 72 70  1  0
 73 82  2  0
 73 78  1  0
 74 70  1  0
 74 78  1  0
 75 74  1  0
 76 77  1  0
 76 75  1  0
 77 73  1  0
 78 79  2  0
 79 80  1  0
 81 80  2  0
 82 81  1  0
 83 57  1  0
 83 88  1  0
 83 84  1  0
 84 87  1  1
 84 85  1  0
 86 84  1  0
 88 91  1  0
 89 93  1  0
 89 88  1  0
 90 89  2  0
 93 92  1  0
 95 93  1  0
 95 96  1  0
 95 94  1  0
M  ISO  4   2 100  17 100  55 101  56 101
M  END
>  <TORSDO>  (17) 
F 19

>  <SCORE>  (17) 
-11.698

>  <name>  (17) 
16

>  <ligand_id>  (17) 
16

>  <original_smiles>  (17) 
[H]c1nc(N([H])C(=O)N2C([H])([H])C([H])([H])C([H])([H])C([H])(n3nc(-c4c([H])c([H])c(Oc5c([H])c([H])c(F)c([H])c5F)c([H])c4[H])c(C(=O)N([H])[H])c3N([H])[H])C2([H])[H])nc(N([H])C([H])(C(=O)C([H])([H])Oc2c([H])c([H])c3c(c2[H])C([H])([H])N(C(=O)C([H])(N([H])C(=O)C([H])(N([H])C([H])([H])[H])C([H])([H])[H])C(C([H])([H])[H])(C([H])([H])[H])C([H])([H])[H])C([H])(C(=O)N([H])C2([H])c4c([H])c([H])c([H])c([H])c4C([H])([H])C([H])([H])C2([H])[H])C3([H])[H])C(C([H])([H])[H])(C([H])([H])[H])C([H])([H])[H])c1F

>  <smiles>  (17) 
[H]c1nc(N([H])C(=O)N2C([H])([H])C([H])([H])C([H])([H])C([H])(n3nc(-c4c([H])c([H])c(Oc5c([H])c([H])c(F)c([H])c5F)c([H])c4[H])c(C(=O)N([H])[H])c3N([H])[H])C2([H])[H])nc(N([H])C([H])(C(=O)C([H])([H])Oc2c([H])c([H])c3c(c2[H])C([H])([H])N(C(=O)C([H])(N([H])C(=O)C([H])(N([H])C([H])([H])[H])C([H])([H])[H])C(C([H])([H])[H])(C([H])([H])[H])C([H])([H])[H])C([H])(C(=O)N([H])C2([H])c4c([H])c([H])c([H])c([H])c4C([H])([H])C([H])([H])C2([H])[H])C3([H])[H])C(C([H])([H])[H])(C([H])([H])[H])C([H])([H])[H])c1F

$$$$
17:0:0
     RDKit          3D

 94102  0  0  1  0  0  0  0  0999 V2000
  -29.1020  -22.3910   20.4730 C   0  0  0  0  0  3  0  0  0  0  0  0
  -28.9260  -21.0640   20.0600 C   0  0  0  0  0  0  0  0  0  0  0  0
  -30.5430  -14.8010   20.3680 C   0  0  0  0  0  0  0  0  0  0  0  0
  -30.3710  -12.5080   19.3710 C   0  0  0  0  0  2  0  0  0  0  0  0
  -29.4300  -12.5550   18.1460 C   0  0  0  0  0  2  0  0  0  0  0  0
  -27.9620  -12.3710   18.5790 C   0  0  0  0  0  2  0  0  0  0  0  0
  -27.5800  -13.2710   19.7840 C   0  0  0  0  0  3  0  0  0  0  0  0
  -28.6380  -13.2060   20.9060 C   0  0  0  0  0  2  0  0  0  0  0  0
  -29.9280  -13.5680   20.3050 N   0  0  0  0  0  0  0  0  0  0  0  0
  -31.7440  -14.8940   20.0970 O   0  0  0  0  0  0  0  0  0  0  0  0
  -29.6710  -19.7550   20.4800 C   0  0  0  0  0  0  0  0  0  0  0  0
  -30.9250  -19.6960   21.0670 C   0  0  0  0  0  0  0  0  0  0  0  0
  -30.0280  -17.3790   20.5670 C   0  0  0  0  0  0  0  0  0  0  0  0
  -29.1820  -18.4120   20.2190 N   0  0  0  0  0  0  0  0  0  0  0  0
  -29.7250  -15.9260   20.4580 N   0  0  0  0  0  0  0  0  0  0  0  0
  -31.5100  -18.0360   21.2660 S   0  0  0  0  0  0  0  0  0  0  0  0
  -28.7430  -15.7090   20.4580 H   0  0  0  0  0  0  0  0  0  0  0  0
  -25.1920  -13.8630   20.5100 C   0  0  0  0  0  0  0  0  0  0  0  0
  -24.1270  -13.0900   20.8830 C   0  0  0  0  0  0  0  0  0  0  0  0
  -24.5930  -11.7400   20.8610 C   0  0  0  0  0  0  0  0  0  0  0  0
  -26.2370  -12.9840   20.2780 N   0  0  0  0  0  0  0  0  0  0  0  0
  -25.8840  -11.7010   20.5540 N   0  0  0  0  0  0  0  0  0  0  0  0
  -23.8680  -10.4780   21.0580 C   0  0  0  0  0  0  0  0  0  0  0  0
  -24.3090   -9.5080   21.9850 C   0  0  0  0  0  3  0  0  0  0  0  0
  -23.5850   -8.3110   22.1690 C   0  0  0  0  0  3  0  0  0  0  0  0
  -22.4040   -8.0760   21.4260 C   0  0  0  0  0  0  0  0  0  0  0  0
  -21.9810   -9.0340   20.4880 C   0  0  0  0  0  3  0  0  0  0  0  0
  -22.7060  -10.2220   20.3020 C   0  0  0  0  0  3  0  0  0  0  0  0
  -21.6490   -6.9310   21.5190 O   0  0  0  0  0  0  0  0  0  0  0  0
  -21.6260   -6.1750   22.6640 C   0  0  0  0  0  0  0  0  0  0  0  0
  -21.2420   -6.7210   23.9080 C   0  0  0  0  0  3  0  0  0  0  0  0
  -21.1650   -5.8920   25.0470 C   0  0  0  0  0  3  0  0  0  0  0  0
  -21.4620   -4.5200   24.9410 C   0  0  0  0  0  0  0  0  0  0  0  0
  -21.8410   -3.9750   23.7020 C   0  0  0  0  0  3  0  0  0  0  0  0
  -21.9190   -4.8010   22.5660 C   0  0  0  0  0  0  0  0  0  0  0  0
  -22.2640   -4.2660   21.3690 F   0  0  0  0  0  0  0  0  0  0  0  0
  -21.3820   -3.7220   26.0320 F   0  0  0  0  0  0  0  0  0  0  0  0
  -22.7290  -13.5670   21.1470 C   0  0  0  0  0  0  0  0  0  0  0  0
  -22.0000  -12.8770   22.0170 N   0  0  0  0  0  0  0  0  0  0  0  0
  -22.2920  -14.5880   20.6170 O   0  0  0  0  0  0  0  0  0  0  0  0
  -22.3670  -12.0510   22.4670 H   0  0  0  0  0  0  0  0  0  0  0  0
  -21.0620  -13.1800   22.2370 H   0  0  0  0  0  0  0  0  0  0  0  0
  -25.3510  -15.2340   20.3220 N   0  0  0  0  0  0  0  0  0  0  0  0
  -24.5740  -15.8770   20.4240 H   0  0  0  0  0  0  0  0  0  0  0  0
  -26.1790  -15.6760   19.9460 H   0  0  0  0  0  0  0  0  0  0  0  0
  -31.7730  -20.7320   21.4520 N   0  0  0  0  0  0  0  0  0  0  0  0
  -31.6570  -21.6840   21.1230 H   0  0  0  0  0  0  0  0  0  0  0  0
  -32.7210  -20.5540   21.7740 H   0  0  0  0  0  0  0  0  0  0  0  0
  -28.4620  -23.7070   19.9200 C   0  0  0  0  0  0  0  0  0  0  0  0
  -28.0990  -23.7750   18.7420 O   0  0  0  0  0  0  0  0  0  0  0  0
  -28.2420  -25.0370   20.8020 C   0  0  0  0  0  2  0  0  0  0  0  0
  -28.3400  -26.4030   20.1620 O   0  0  0  0  0  0  0  0  0  0  0  0
  -24.6530  -31.9120   23.2080 C   0  0  0  0  0  0  0  0  0  0  0  0
  -27.2320  -27.2790   20.1870 C   0  0  0  0  0  0  0  0  0  0  0  0
  -23.4370  -30.5010   21.5880 C   0  0  0  0  0  3  0  0  0  0  0  0
  -24.8760  -28.9240   20.1710 C   0  0  0  0  0  0  0  0  0  0  0  0
  -25.9790  -30.8040   21.3860 C   0  0  0  0  0  2  0  0  0  0  0  0
  -26.0540  -29.4130   20.7510 C   0  0  0  0  0  0  0  0  0  0  0  0
  -27.2370  -28.6060   20.7390 C   0  0  0  0  0  3  0  0  0  0  0  0
  -26.0310  -26.8480   19.5910 C   0  0  0  0  0  3  0  0  0  0  0  0
  -24.8690  -27.6490   19.5790 C   0  0  0  0  0  3  0  0  0  0  0  0
  -23.6430  -29.8090   20.2140 C   0  0  0  0  0  2  0  0  0  0  0  0
  -24.7090  -31.0920   22.1160 N   0  0  0  0  0  0  0  0  0  0  0  0
  -23.5730  -32.1970   23.7460 O   0  0  0  0  0  0  0  0  0  0  0  0
  -22.7760  -29.4980   22.5640 C   0  0  0  0  0  0  0  0  0  0  0  0
  -21.4480  -29.3230   22.4490 N   0  0  0  0  0  0  0  0  0  0  0  0
  -23.4580  -28.8770   23.3840 O   0  0  0  0  0  0  0  0  0  0  0  0
  -20.9560  -29.8740   21.7580 H   0  0  0  0  0  0  0  0  0  0  0  0
  -18.0720  -28.1330   22.9810 C   0  0  0  0  0  0  0  0  0  0  0  0
  -20.6330  -28.3930   23.2320 C   0  0  0  0  0  3  0  0  0  0  0  0
  -20.7300  -26.9570   22.6690 C   0  0  0  0  0  2  0  0  0  0  0  0
  -19.6220  -26.6260   21.6650 C   0  0  0  0  0  2  0  0  0  0  0  0
  -18.2450  -26.7770   22.3160 C   0  0  0  0  0  2  0  0  0  0  0  0
  -19.1940  -28.8980   23.3980 C   0  0  0  0  0  0  0  0  0  0  0  0
  -18.9780  -30.1660   23.9800 C   0  0  0  0  0  3  0  0  0  0  0  0
  -17.6730  -30.6680   24.1500 C   0  0  0  0  0  3  0  0  0  0  0  0
  -16.5680  -29.8990   23.7490 C   0  0  0  0  0  3  0  0  0  0  0  0
  -16.7670  -28.6330   23.1700 C   0  0  0  0  0  3  0  0  0  0  0  0
  -25.9390  -32.5490   23.8180 C   0  0  0  0  0  3  0  0  0  0  0  0
  -26.4760  -31.7730   25.0820 C   0  0  1  0  0  0  0  0  0  0  0  0
  -25.3990  -31.5260   26.1650 C   0  0  0  0  0  1  0  0  0  0  0  0
  -27.0590  -30.4000   24.6760 C   0  0  0  0  0  1  0  0  0  0  0  0
  -27.6340  -32.5670   25.7320 C   0  0  0  0  0  1  0  0  0  0  0  0
  -25.6230  -33.9440   24.1650 N   0  0  0  0  0  0  0  0  0  0  0  0
  -25.9390  -35.0060   23.4130 C   0  0  0  0  0  0  0  0  0  0  0  0
  -26.5940  -34.9180   22.3710 O   0  0  0  0  0  0  0  0  0  0  0  0
  -25.0370  -34.0860   24.9740 H   0  0  0  0  0  0  0  0  0  0  0  0
  -24.1950  -36.7940   23.1070 C   0  0  0  0  0  1  0  0  0  0  0  0
  -25.4520  -36.3880   23.8930 C   0  0  0  0  0  3  0  0  0  0  0  0
  -27.5960  -37.2750   24.6940 C   0  0  0  0  0  1  0  0  0  0  0  0
  -26.4760  -37.4480   23.7730 N   0  0  0  0  0  0  0  0  0  0  0  0
  -26.0680  -38.3650   23.9380 H   0  0  0  0  0  0  0  0  0  0  0  0
  -28.0230  -20.7750   19.1120 O   0  0  0  0  0  0  0  0  0  0  0  0
  -28.0470  -19.8290   19.0070 H   0  0  0  0  0  0  0  0  0  0  0  0
  2  1  2  0
  2 11  1  0
  3 15  1  0
  4  9  1  0
  5  6  1  0
  5  4  1  0
  7  6  1  0
  7 21  1  0
  7  8  1  0
  9  3  1  0
  9  8  1  0
 10  3  2  0
 11 12  2  0
 12 16  1  0
 12 46  1  0
 13 16  1  0
 14 11  1  0
 14 13  2  0
 15 13  1  0
 17 15  1  0
 18 19  2  0
 19 38  1  0
 20 19  1  0
 20 23  1  0
 21 18  1  0
 21 22  1  0
 22 20  2  0
 23 24  1  0
 24 25  2  0
 26 29  1  0
 26 25  1  0
 27 26  2  0
 28 27  1  0
 28 23  2  0
 29 30  1  0
 30 31  1  0
 31 32  2  0
 33 32  1  0
 33 37  1  0
 34 33  2  0
 35 30  2  0
 35 34  1  0
 36 35  1  0
 38 39  1  0
 39 42  1  0
 39 41  1  0
 40 38  2  0
 43 44  1  0
 43 18  1  0
 45 43  1  0
 46 48  1  0
 47 46  1  0
 49  1  1  0
 49 51  1  0
 50 49  2  0
 52 54  1  0
 52 51  1  0
 53 64  2  0
 54 59  1  0
 55 63  1  0
 55 65  1  0
 56 62  1  0
 56 58  1  0
 57 63  1  0
 58 57  1  0
 59 58  2  0
 60 54  2  0
 61 60  1  0
 61 56  2  0
 62 55  1  0
 63 53  1  0
 65 67  2  0
 66 65  1  0
 68 66  1  0
 69 78  2  0
 69 74  1  0
 70 66  1  0
 70 74  1  0
 71 70  1  0
 72 73  1  0
 72 71  1  0
 73 69  1  0
 74 75  2  0
 75 76  1  0
 77 76  2  0
 78 77  1  0
 79 53  1  0
 79 84  1  0
 79 80  1  0
 80 83  1  1
 80 81  1  0
 82 80  1  0
 84 87  1  0
 85 89  1  0
 85 84  1  0
 86 85  2  0
 89 88  1  0
 91 89  1  0
 91 92  1  0
 91 90  1  0
 93  2  1  0
 94 93  1  0
M  ISO  4   3 100  15 100  51 101  52 101
M  END
>  <TORSDO>  (18) 
F 20

>  <SCORE>  (18) 
-14.410

>  <name>  (18) 
17

>  <ligand_id>  (18) 
17

>  <original_smiles>  (18) 
[H]OC(=C([H])C(=O)C([H])([H])Oc1c([H])c([H])c2c(c1[H])C([H])([H])N(C(=O)C([H])(N([H])C(=O)C([H])(N([H])C([H])([H])[H])C([H])([H])[H])C(C([H])([H])[H])(C([H])([H])[H])C([H])([H])[H])C([H])(C(=O)N([H])C1([H])c3c([H])c([H])c([H])c([H])c3C([H])([H])C([H])([H])C1([H])[H])C2([H])[H])c1nc(N([H])C(=O)N2C([H])([H])C([H])([H])C([H])([H])C([H])(n3nc(-c4c([H])c([H])c(Oc5c([H])c([H])c(F)c([H])c5F)c([H])c4[H])c(C(=O)N([H])[H])c3N([H])[H])C2([H])[H])sc1N([H])[H]

>  <smiles>  (18) 
[H]OC(=C([H])C(=O)C([H])([H])Oc1c([H])c([H])c2c(c1[H])C([H])([H])N(C(=O)C([H])(N([H])C(=O)C([H])(N([H])C([H])([H])[H])C([H])([H])[H])C(C([H])([H])[H])(C([H])([H])[H])C([H])([H])[H])C([H])(C(=O)N([H])C1([H])c3c([H])c([H])c([H])c([H])c3C([H])([H])C([H])([H])C1([H])[H])C2([H])[H])c1nc(N([H])C(=O)N2C([H])([H])C([H])([H])C([H])([H])C([H])(n3nc(-c4c([H])c([H])c(Oc5c([H])c([H])c(F)c([H])c5F)c([H])c4[H])c(C(=O)N([H])[H])c3N([H])[H])C2([H])[H])sc1N([H])[H]

$$$$
18:0:0
     RDKit          3D

 94102  0  0  1  0  0  0  0  0999 V2000
  -29.0870  -22.3340   20.6620 C   0  0  0  0  0  0  0  0  0  0  0  0
  -29.6290  -21.1900   20.0820 N   0  0  0  0  0  0  0  0  0  0  0  0
  -28.3950  -22.2290   21.6770 O   0  0  0  0  0  0  0  0  0  0  0  0
  -29.9930  -21.3290   19.1490 H   0  0  0  0  0  0  0  0  0  0  0  0
  -29.7680  -18.5620   20.0060 C   0  0  0  0  0  3  0  0  0  0  0  0
  -30.8340  -18.5660   22.5750 C   0  0  0  0  0  3  0  0  0  0  0  0
  -29.9160  -19.8500   20.6800 C   0  0  0  0  0  0  0  0  0  0  0  0
  -30.1520  -17.2840   20.6030 C   0  0  0  0  0  0  0  0  0  0  0  0
  -30.4810  -19.7940   21.9810 C   0  0  0  0  0  0  0  0  0  0  0  0
  -30.6790  -17.3370   21.9100 C   0  0  0  0  0  0  0  0  0  0  0  0
  -30.7390  -20.9260   22.6770 F   0  0  0  0  0  0  0  0  0  0  0  0
  -30.9950  -16.1930   22.5630 F   0  0  0  0  0  0  0  0  0  0  0  0
  -30.6770  -14.8020   19.9910 C   0  0  0  0  0  0  0  0  0  0  0  0
  -30.3890  -12.5540   18.9300 C   0  0  0  0  0  2  0  0  0  0  0  0
  -29.3760  -12.6490   17.7710 C   0  0  0  0  0  2  0  0  0  0  0  0
  -27.9320  -12.4850   18.2910 C   0  0  0  0  0  2  0  0  0  0  0  0
  -27.6400  -13.3620   19.5390 C   0  0  0  0  0  3  0  0  0  0  0  0
  -28.7680  -13.2490   20.5890 C   0  0  0  0  0  2  0  0  0  0  0  0
  -30.0250  -13.5950   19.9130 N   0  0  0  0  0  0  0  0  0  0  0  0
  -31.8700  -14.8840   19.6920 O   0  0  0  0  0  0  0  0  0  0  0  0
  -29.8880  -15.9400   20.0430 N   0  0  0  0  0  0  0  0  0  0  0  0
  -28.9130  -15.7520   19.8770 H   0  0  0  0  0  0  0  0  0  0  0  0
  -25.3060  -13.9700   20.4160 C   0  0  0  0  0  0  0  0  0  0  0  0
  -24.2570  -13.2020   20.8350 C   0  0  0  0  0  0  0  0  0  0  0  0
  -24.7030  -11.8460   20.7580 C   0  0  0  0  0  0  0  0  0  0  0  0
  -26.3250  -13.0820   20.1070 N   0  0  0  0  0  0  0  0  0  0  0  0
  -25.9730  -11.7990   20.3770 N   0  0  0  0  0  0  0  0  0  0  0  0
  -23.9730  -10.5890   20.9670 C   0  0  0  0  0  0  0  0  0  0  0  0
  -24.4330   -9.6080   21.8730 C   0  0  0  0  0  3  0  0  0  0  0  0
  -23.7030   -8.4160   22.0710 C   0  0  0  0  0  3  0  0  0  0  0  0
  -22.4980   -8.1960   21.3620 C   0  0  0  0  0  0  0  0  0  0  0  0
  -22.0550   -9.1650   20.4440 C   0  0  0  0  0  3  0  0  0  0  0  0
  -22.7860  -10.3490   20.2460 C   0  0  0  0  0  3  0  0  0  0  0  0
  -21.7350   -7.0580   21.4720 O   0  0  0  0  0  0  0  0  0  0  0  0
  -21.7150   -6.3150   22.6240 C   0  0  0  0  0  0  0  0  0  0  0  0
  -21.3360   -6.8730   23.8660 C   0  0  0  0  0  3  0  0  0  0  0  0
  -21.2610   -6.0560   25.0110 C   0  0  0  0  0  3  0  0  0  0  0  0
  -21.5550   -4.6820   24.9170 C   0  0  0  0  0  0  0  0  0  0  0  0
  -21.9280   -4.1240   23.6820 C   0  0  0  0  0  3  0  0  0  0  0  0
  -22.0040   -4.9390   22.5380 C   0  0  0  0  0  0  0  0  0  0  0  0
  -22.3430   -4.3900   21.3460 F   0  0  0  0  0  0  0  0  0  0  0  0
  -21.4760   -3.8960   26.0170 F   0  0  0  0  0  0  0  0  0  0  0  0
  -22.8820  -13.6880   21.1910 C   0  0  0  0  0  0  0  0  0  0  0  0
  -22.1970  -12.9920   22.0910 N   0  0  0  0  0  0  0  0  0  0  0  0
  -22.4260  -14.7240   20.7060 O   0  0  0  0  0  0  0  0  0  0  0  0
  -22.5800  -12.1530   22.5030 H   0  0  0  0  0  0  0  0  0  0  0  0
  -21.2760  -13.2980   22.3700 H   0  0  0  0  0  0  0  0  0  0  0  0
  -25.4720  -15.3410   20.2440 N   0  0  0  0  0  0  0  0  0  0  0  0
  -24.7040  -15.9900   20.3790 H   0  0  0  0  0  0  0  0  0  0  0  0
  -26.2800  -15.7750   19.8150 H   0  0  0  0  0  0  0  0  0  0  0  0
  -29.7070  -23.7880   18.5890 C   0  0  0  0  0  1  0  0  0  0  0  0
  -29.2910  -23.8250   20.0750 C   0  0  0  0  0  3  0  0  0  0  0  0
  -28.1270  -24.9350   20.2990 C   0  0  0  0  0  2  0  0  0  0  0  0
  -28.3690  -26.4280   20.2840 O   0  0  0  0  0  0  0  0  0  0  0  0
  -24.6130  -31.9280   23.2330 C   0  0  0  0  0  0  0  0  0  0  0  0
  -27.2570  -27.3090   20.2380 C   0  0  0  0  0  0  0  0  0  0  0  0
  -23.4270  -30.5130   21.6000 C   0  0  0  0  0  3  0  0  0  0  0  0
  -24.8940  -28.9520   20.2040 C   0  0  0  0  0  0  0  0  0  0  0  0
  -25.9730  -30.8270   21.4320 C   0  0  0  0  0  2  0  0  0  0  0  0
  -26.0640  -29.4360   20.8040 C   0  0  0  0  0  0  0  0  0  0  0  0
  -27.2480  -28.6290   20.8080 C   0  0  0  0  0  3  0  0  0  0  0  0
  -26.0560  -26.8970   19.6150 C   0  0  0  0  0  3  0  0  0  0  0  0
  -24.8950  -27.6890   19.6020 C   0  0  0  0  0  3  0  0  0  0  0  0
  -23.6580  -29.8280   20.2290 C   0  0  0  0  0  2  0  0  0  0  0  0
  -24.6910  -31.1070   22.1460 N   0  0  0  0  0  0  0  0  0  0  0  0
  -23.5250  -32.2050   23.7570 O   0  0  0  0  0  0  0  0  0  0  0  0
  -22.7580  -29.5010   22.5620 C   0  0  0  0  0  0  0  0  0  0  0  0
  -21.4340  -29.3150   22.4290 N   0  0  0  0  0  0  0  0  0  0  0  0
  -23.4340  -28.8830   23.3900 O   0  0  0  0  0  0  0  0  0  0  0  0
  -20.9460  -29.8620   21.7330 H   0  0  0  0  0  0  0  0  0  0  0  0
  -18.0660  -28.0830   22.9010 C   0  0  0  0  0  0  0  0  0  0  0  0
  -20.6160  -28.3830   23.2060 C   0  0  0  0  0  3  0  0  0  0  0  0
  -20.7470  -26.9410   22.6620 C   0  0  0  0  0  2  0  0  0  0  0  0
  -19.6670  -26.5840   21.6360 C   0  0  0  0  0  2  0  0  0  0  0  0
  -18.2720  -26.7240   22.2530 C   0  0  0  0  0  2  0  0  0  0  0  0
  -19.1680  -28.8680   23.3350 C   0  0  0  0  0  0  0  0  0  0  0  0
  -18.9220  -30.1390   23.9000 C   0  0  0  0  0  3  0  0  0  0  0  0
  -17.6080  -30.6250   24.0340 C   0  0  0  0  0  3  0  0  0  0  0  0
  -16.5220  -29.8380   23.6170 C   0  0  0  0  0  3  0  0  0  0  0  0
  -16.7510  -28.5690   23.0560 C   0  0  0  0  0  3  0  0  0  0  0  0
  -25.8880  -32.5770   23.8560 C   0  0  0  0  0  3  0  0  0  0  0  0
  -26.4000  -31.8210   25.1440 C   0  0  1  0  0  0  0  0  0  0  0  0
  -25.3010  -31.5880   26.2070 C   0  0  0  0  0  1  0  0  0  0  0  0
  -26.9910  -30.4420   24.7680 C   0  0  0  0  0  1  0  0  0  0  0  0
  -27.5430  -32.6280   25.8060 C   0  0  0  0  0  1  0  0  0  0  0  0
  -25.5670  -33.9750   24.1700 N   0  0  0  0  0  0  0  0  0  0  0  0
  -25.9120  -35.0260   23.4160 C   0  0  0  0  0  0  0  0  0  0  0  0
  -26.6030  -34.9200   22.3990 O   0  0  0  0  0  0  0  0  0  0  0  0
  -24.9570  -34.1300   24.9600 H   0  0  0  0  0  0  0  0  0  0  0  0
  -24.1960  -36.8210   23.0150 C   0  0  0  0  0  1  0  0  0  0  0  0
  -25.4160  -36.4160   23.8600 C   0  0  0  0  0  3  0  0  0  0  0  0
  -27.5280  -37.3010   24.7430 C   0  0  0  0  0  1  0  0  0  0  0  0
  -26.4510  -37.4700   23.7720 N   0  0  0  0  0  0  0  0  0  0  0  0
  -26.0390  -38.3870   23.9160 H   0  0  0  0  0  0  0  0  0  0  0  0
  1  3  2  0
  2  1  1  0
  2  7  1  0
  4  2  1  0
  5  8  2  0
  5  7  1  0
  7  9  2  0
  8 10  1  0
  9  6  1  0
  9 11  1  0
 10 12  1  0
 10  6  2  0
 13 21  1  0
 14 19  1  0
 15 16  1  0
 15 14  1  0
 17 16  1  0
 17 26  1  0
 17 18  1  0
 19 13  1  0
 19 18  1  0
 20 13  2  0
 21  8  1  0
 22 21  1  0
 23 24  2  0
 24 43  1  0
 25 24  1  0
 25 28  1  0
 26 27  1  0
 26 23  1  0
 27 25  2  0
 28 29  1  0
 29 30  2  0
 31 34  1  0
 31 30  1  0
 32 31  2  0
 33 32  1  0
 33 28  2  0
 34 35  1  0
 35 36  1  0
 36 37  2  0
 38 37  1  0
 38 42  1  0
 39 38  2  0
 40 35  2  0
 40 39  1  0
 41 40  1  0
 43 44  1  0
 44 47  1  0
 44 46  1  0
 45 43  2  0
 48 49  1  0
 48 23  1  0
 50 48  1  0
 52 51  1  0
 52 53  1  0
 52  1  1  0
 54 53  1  0
 55 66  2  0
 56 54  1  0
 56 61  1  0
 57 65  1  0
 57 67  1  0
 58 64  1  0
 58 60  1  0
 59 65  1  0
 60 61  2  0
 60 59  1  0
 62 56  2  0
 63 62  1  0
 63 58  2  0
 64 57  1  0
 65 55  1  0
 67 69  2  0
 68 67  1  0
 70 68  1  0
 71 80  2  0
 71 76  1  0
 72 68  1  0
 72 76  1  0
 73 72  1  0
 74 75  1  0
 74 73  1  0
 75 71  1  0
 76 77  2  0
 77 78  1  0
 79 78  2  0
 80 79  1  0
 81 55  1  0
 81 86  1  0
 81 82  1  0
 82 85  1  1
 82 83  1  0
 84 82  1  0
 86 89  1  0
 87 91  1  0
 87 86  1  0
 88 87  2  0
 91 90  1  0
 93 91  1  0
 93 94  1  0
 93 92  1  0
M  ISO  4  13 100  21 100  53 101  54 101
M  END
>  <TORSDO>  (19) 
F 19

>  <SCORE>  (19) 
-14.289

>  <name>  (19) 
18

>  <ligand_id>  (19) 
18

>  <original_smiles>  (19) 
[H]c1c([H])c([H])c2c(c1[H])C([H])([H])C([H])([H])C([H])([H])C2([H])N([H])C(=O)C1([H])N(C(=O)C([H])(N([H])C(=O)C([H])(N([H])C([H])([H])[H])C([H])([H])[H])C(C([H])([H])[H])(C([H])([H])[H])C([H])([H])[H])C([H])([H])c2c([H])c(OC([H])([H])C([H])(C(=O)N([H])c3c([H])c(N([H])C(=O)N4C([H])([H])C([H])([H])C([H])([H])C([H])(n5nc(-c6c([H])c([H])c(Oc7c([H])c([H])c(F)c([H])c7F)c([H])c6[H])c(C(=O)N([H])[H])c5N([H])[H])C4([H])[H])c(F)c([H])c3F)C([H])([H])[H])c([H])c([H])c2C1([H])[H]

>  <smiles>  (19) 
[H]c1c([H])c([H])c2c(c1[H])C([H])([H])C([H])([H])C([H])([H])C2([H])N([H])C(=O)C1([H])N(C(=O)C([H])(N([H])C(=O)C([H])(N([H])C([H])([H])[H])C([H])([H])[H])C(C([H])([H])[H])(C([H])([H])[H])C([H])([H])[H])C([H])([H])c2c([H])c(OC([H])([H])C([H])(C(=O)N([H])c3c([H])c(N([H])C(=O)N4C([H])([H])C([H])([H])C([H])([H])C([H])(n5nc(-c6c([H])c([H])c(Oc7c([H])c([H])c(F)c([H])c7F)c([H])c6[H])c(C(=O)N([H])[H])c5N([H])[H])C4([H])[H])c(F)c([H])c3F)C([H])([H])[H])c([H])c([H])c2C1([H])[H]

$$$$
19:0:0
     RDKit          3D

 94102  0  0  1  0  0  0  0  0999 V2000
  -28.5180  -22.9190   20.6370 C   0  0  0  0  0  0  0  0  0  0  0  0
  -29.2580  -21.9230   20.0960 N   0  0  0  0  0  0  0  0  0  0  0  0
  -27.5530  -22.6950   21.3750 O   0  0  0  0  0  0  0  0  0  0  0  0
  -30.0650  -22.2430   19.5770 H   0  0  0  0  0  0  0  0  0  0  0  0
  -27.8870  -19.8380   20.3760 C   0  0  0  0  0  3  0  0  0  0  0  0
  -29.0800  -20.4960   20.1850 C   0  0  0  0  0  0  0  0  0  0  0  0
  -30.1740  -19.5820   20.0510 C   0  0  0  0  0  0  0  0  0  0  0  0
  -29.8420  -18.2440   20.1600 C   0  0  0  0  0  0  0  0  0  0  0  0
  -31.4020  -20.0070   19.8620 F   0  0  0  0  0  0  0  0  0  0  0  0
  -28.1160  -18.0960   20.4080 S   0  0  0  0  0  0  0  0  0  0  0  0
  -30.7990  -17.0640   20.1470 C   0  0  0  0  0  2  0  0  0  0  0  0
  -30.9470  -14.5850   19.9950 C   0  0  0  0  0  0  0  0  0  0  0  0
  -30.6560  -12.3190   19.0720 C   0  0  0  0  0  2  0  0  0  0  0  0
  -29.6890  -12.3890   17.8740 C   0  0  0  0  0  2  0  0  0  0  0  0
  -28.2310  -12.2510   18.3520 C   0  0  0  0  0  2  0  0  0  0  0  0
  -27.8970  -13.1890   19.5430 C   0  0  0  0  0  3  0  0  0  0  0  0
  -28.9850  -13.1250   20.6390 C   0  0  0  0  0  2  0  0  0  0  0  0
  -30.2810  -13.3980   20.0020 N   0  0  0  0  0  0  0  0  0  0  0  0
  -32.0860  -14.6920   19.5350 O   0  0  0  0  0  0  0  0  0  0  0  0
  -30.2510  -15.6960   20.3310 N   0  0  0  0  0  0  0  0  0  0  0  0
  -29.3060  -15.5910   20.6660 H   0  0  0  0  0  0  0  0  0  0  0  0
  -25.5360  -13.8010   20.3570 C   0  0  0  0  0  0  0  0  0  0  0  0
  -24.4810  -13.0320   20.7710 C   0  0  0  0  0  0  0  0  0  0  0  0
  -24.9360  -11.6780   20.7220 C   0  0  0  0  0  0  0  0  0  0  0  0
  -26.5670  -12.9160   20.0820 N   0  0  0  0  0  0  0  0  0  0  0  0
  -26.2120  -11.6340   20.3610 N   0  0  0  0  0  0  0  0  0  0  0  0
  -24.2130  -10.4190   20.9410 C   0  0  0  0  0  0  0  0  0  0  0  0
  -24.6170   -9.4990   21.9350 C   0  0  0  0  0  3  0  0  0  0  0  0
  -23.8930   -8.3040   22.1400 C   0  0  0  0  0  3  0  0  0  0  0  0
  -22.7530   -8.0190   21.3520 C   0  0  0  0  0  0  0  0  0  0  0  0
  -22.3700   -8.9280   20.3490 C   0  0  0  0  0  3  0  0  0  0  0  0
  -23.0940  -10.1140   20.1410 C   0  0  0  0  0  3  0  0  0  0  0  0
  -22.0050   -6.8730   21.4620 O   0  0  0  0  0  0  0  0  0  0  0  0
  -21.8310   -6.2410   22.6680 C   0  0  0  0  0  0  0  0  0  0  0  0
  -21.2530   -6.8970   23.7760 C   0  0  0  0  0  3  0  0  0  0  0  0
  -21.0270   -6.1900   24.9740 C   0  0  0  0  0  3  0  0  0  0  0  0
  -21.3700   -4.8270   25.0640 C   0  0  0  0  0  0  0  0  0  0  0  0
  -21.9410   -4.1710   23.9600 C   0  0  0  0  0  3  0  0  0  0  0  0
  -22.1680   -4.8750   22.7630 C   0  0  0  0  0  0  0  0  0  0  0  0
  -22.6990   -4.2330   21.6960 F   0  0  0  0  0  0  0  0  0  0  0  0
  -21.1470   -4.1460   26.2110 F   0  0  0  0  0  0  0  0  0  0  0  0
  -23.0990  -13.5150   21.0990 C   0  0  0  0  0  0  0  0  0  0  0  0
  -22.4080  -12.8270   22.0020 N   0  0  0  0  0  0  0  0  0  0  0  0
  -22.6400  -14.5380   20.5910 O   0  0  0  0  0  0  0  0  0  0  0  0
  -22.7910  -11.9990   22.4340 H   0  0  0  0  0  0  0  0  0  0  0  0
  -21.4810  -13.1330   22.2640 H   0  0  0  0  0  0  0  0  0  0  0  0
  -25.6980  -15.1700   20.1700 N   0  0  0  0  0  0  0  0  0  0  0  0
  -24.9370  -15.8260   20.3080 H   0  0  0  0  0  0  0  0  0  0  0  0
  -26.5310  -15.6050   19.7950 H   0  0  0  0  0  0  0  0  0  0  0  0
  -28.2730  -25.3580   20.7080 C   0  0  0  0  0  3  0  0  0  0  0  0
  -28.9680  -24.2780   20.2690 C   0  0  0  0  0  0  0  0  0  0  0  0
  -30.0500  -24.4440   19.4920 O   0  0  0  0  0  0  0  0  0  0  0  0
  -30.1590  -25.3800   19.3730 H   0  0  0  0  0  0  0  0  0  0  0  0
  -28.5490  -26.6850   20.4040 O   0  0  0  0  0  0  0  0  0  0  0  0
  -24.7460  -31.9340   23.4300 C   0  0  0  0  0  0  0  0  0  0  0  0
  -27.4410  -27.5120   20.3460 C   0  0  0  0  0  0  0  0  0  0  0  0
  -23.5840  -30.5810   21.7190 C   0  0  0  0  0  3  0  0  0  0  0  0
  -25.0720  -29.0660   20.3030 C   0  0  0  0  0  0  0  0  0  0  0  0
  -26.1210  -30.9140   21.6140 C   0  0  0  0  0  2  0  0  0  0  0  0
  -26.2180  -29.5580   20.9440 C   0  0  0  0  0  0  0  0  0  0  0  0
  -27.4090  -28.7880   20.9630 C   0  0  0  0  0  3  0  0  0  0  0  0
  -26.2820  -27.0520   19.6850 C   0  0  0  0  0  3  0  0  0  0  0  0
  -25.1010  -27.8140   19.6670 C   0  0  0  0  0  3  0  0  0  0  0  0
  -23.8340  -29.9350   20.3310 C   0  0  0  0  0  2  0  0  0  0  0  0
  -24.8340  -31.1570   22.3130 N   0  0  0  0  0  0  0  0  0  0  0  0
  -23.6490  -32.2040   23.9400 O   0  0  0  0  0  0  0  0  0  0  0  0
  -22.8920  -29.5440   22.6340 C   0  0  0  0  0  0  0  0  0  0  0  0
  -21.5710  -29.3770   22.4600 N   0  0  0  0  0  0  0  0  0  0  0  0
  -23.5430  -28.8930   23.4550 O   0  0  0  0  0  0  0  0  0  0  0  0
  -21.1070  -29.9540   21.7710 H   0  0  0  0  0  0  0  0  0  0  0  0
  -18.1660  -28.2290   22.8470 C   0  0  0  0  0  0  0  0  0  0  0  0
  -20.7200  -28.4310   23.1830 C   0  0  0  0  0  3  0  0  0  0  0  0
  -20.8110  -27.0170   22.5630 C   0  0  0  0  0  2  0  0  0  0  0  0
  -19.7270  -26.7480   21.5150 C   0  0  0  0  0  2  0  0  0  0  0  0
  -18.3330  -26.8980   22.1330 C   0  0  0  0  0  2  0  0  0  0  0  0
  -19.2870  -28.9560   23.3260 C   0  0  0  0  0  0  0  0  0  0  0  0
  -19.0770  -30.2040   23.9510 C   0  0  0  0  0  3  0  0  0  0  0  0
  -17.7780  -30.7240   24.1030 C   0  0  0  0  0  3  0  0  0  0  0  0
  -16.6710  -29.9930   23.6420 C   0  0  0  0  0  3  0  0  0  0  0  0
  -16.8650  -28.7470   23.0190 C   0  0  0  0  0  3  0  0  0  0  0  0
  -26.0160  -32.5400   24.1050 C   0  0  0  0  0  3  0  0  0  0  0  0
  -26.4570  -31.7660   25.4080 C   0  0  1  0  0  0  0  0  0  0  0  0
  -25.3090  -31.5480   26.4200 C   0  0  0  0  0  1  0  0  0  0  0  0
  -27.0380  -30.3790   25.0470 C   0  0  0  0  0  1  0  0  0  0  0  0
  -27.5840  -32.5470   26.1240 C   0  0  0  0  0  1  0  0  0  0  0  0
  -25.7250  -33.9470   24.4110 N   0  0  0  0  0  0  0  0  0  0  0  0
  -26.1030  -34.9840   23.6500 C   0  0  0  0  0  0  0  0  0  0  0  0
  -26.8030  -34.8560   22.6430 O   0  0  0  0  0  0  0  0  0  0  0  0
  -25.1090  -34.1230   25.1920 H   0  0  0  0  0  0  0  0  0  0  0  0
  -24.4150  -36.8010   23.2280 C   0  0  0  0  0  1  0  0  0  0  0  0
  -25.6280  -36.3860   24.0770 C   0  0  0  0  0  3  0  0  0  0  0  0
  -27.7540  -37.2460   24.9530 C   0  0  0  0  0  1  0  0  0  0  0  0
  -26.6810  -37.4200   23.9770 N   0  0  0  0  0  0  0  0  0  0  0  0
  -26.2880  -38.3480   24.1010 H   0  0  0  0  0  0  0  0  0  0  0  0
  1  3  2  0
  2  6  1  0
  2  1  1  0
  4  2  1  0
  5 10  1  0
  6  5  2  0
  7  8  2  0
  7  6  1  0
  8 10  1  0
  9  7  1  0
 11  8  1  0
 11 20  1  0
 12 18  1  0
 12 20  1  0
 13 18  1  0
 14 15  1  0
 14 13  1  0
 16 15  1  0
 16 25  1  0
 16 17  1  0
 18 17  1  0
 19 12  2  0
 20 21  1  0
 22 23  2  0
 23 42  1  0
 24 23  1  0
 24 27  1  0
 25 22  1  0
 25 26  1  0
 26 24  2  0
 27 28  1  0
 28 29  2  0
 30 33  1  0
 30 29  1  0
 31 30  2  0
 32 31  1  0
 32 27  2  0
 33 34  1  0
 34 39  2  0
 34 35  1  0
 35 36  2  0
 36 37  1  0
 37 41  1  0
 38 37  2  0
 39 38  1  0
 40 39  1  0
 42 43  1  0
 43 46  1  0
 43 45  1  0
 44 42  2  0
 47 48  1  0
 47 22  1  0
 49 47  1  0
 51  1  1  0
 51 50  2  0
 52 51  1  0
 53 52  1  0
 54 50  1  0
 55 66  2  0
 56 54  1  0
 56 61  1  0
 57 65  1  0
 57 67  1  0
 58 64  1  0
 58 60  1  0
 59 65  1  0
 60 61  2  0
 60 59  1  0
 62 56  2  0
 63 62  1  0
 63 58  2  0
 64 57  1  0
 65 55  1  0
 67 69  2  0
 68 67  1  0
 70 68  1  0
 71 80  2  0
 71 76  1  0
 72 68  1  0
 72 76  1  0
 73 72  1  0
 74 75  1  0
 74 73  1  0
 75 71  1  0
 76 77  2  0
 77 78  1  0
 79 78  2  0
 80 79  1  0
 81 55  1  0
 81 86  1  0
 81 82  1  0
 82 85  1  1
 82 83  1  0
 84 82  1  0
 86 89  1  0
 87 91  1  0
 87 86  1  0
 88 87  2  0
 91 90  1  0
 93 91  1  0
 93 94  1  0
 93 92  1  0
M  ISO  4  12 100  20 100  50 101  54 101
M  END
>  <TORSDO>  (20) 
F 20

>  <SCORE>  (20) 
-13.610

>  <name>  (20) 
19

>  <ligand_id>  (20) 
19

>  <original_smiles>  (20) 
[H]OC(C(=O)N([H])c1c([H])sc(C([H])([H])N([H])C(=O)N2C([H])([H])C([H])([H])C([H])([H])C([H])(n3nc(-c4c([H])c([H])c(Oc5c([H])c([H])c(F)c([H])c5F)c([H])c4[H])c(C(=O)N([H])[H])c3N([H])[H])C2([H])[H])c1F)=C([H])Oc1c([H])c([H])c2c(c1[H])C([H])([H])N(C(=O)C([H])(N([H])C(=O)C([H])(N([H])C([H])([H])[H])C([H])([H])[H])C(C([H])([H])[H])(C([H])([H])[H])C([H])([H])[H])C([H])(C(=O)N([H])C1([H])c3c([H])c([H])c([H])c([H])c3C([H])([H])C([H])([H])C1([H])[H])C2([H])[H]

>  <smiles>  (20) 
[H]OC(C(=O)N([H])c1c([H])sc(C([H])([H])N([H])C(=O)N2C([H])([H])C([H])([H])C([H])([H])C([H])(n3nc(-c4c([H])c([H])c(Oc5c([H])c([H])c(F)c([H])c5F)c([H])c4[H])c(C(=O)N([H])[H])c3N([H])[H])C2([H])[H])c1F)=C([H])Oc1c([H])c([H])c2c(c1[H])C([H])([H])N(C(=O)C([H])(N([H])C(=O)C([H])(N([H])C([H])([H])[H])C([H])([H])[H])C(C([H])([H])[H])(C([H])([H])[H])C([H])([H])[H])C([H])(C(=O)N([H])C1([H])c3c([H])c([H])c([H])c([H])c3C([H])([H])C([H])([H])C1([H])[H])C2([H])[H]

$$$$
20:0:0
     RDKit          3D

 92100  0  0  1  0  0  0  0  0999 V2000
  -29.3690  -22.4550   19.5010 C   0  0  0  0  0  0  0  0  0  0  0  0
  -30.2790  -22.7370   18.7120 O   0  0  0  0  0  0  0  0  0  0  0  0
  -29.5440  -18.5390   19.9040 C   0  0  0  0  0  0  0  0  0  0  0  0
  -28.2630  -18.6760   20.3980 C   0  0  0  0  0  0  0  0  0  0  0  0
  -29.1550  -20.9260   19.8010 C   0  0  0  0  0  0  0  0  0  0  0  0
  -30.0080  -19.8640   19.5680 N   0  0  0  0  0  0  0  0  0  0  0  0
  -27.4740  -17.6410   20.7730 F   0  0  0  0  0  0  0  0  0  0  0  0
  -27.6460  -20.3260   20.4900 S   0  0  0  0  0  0  0  0  0  0  0  0
  -30.4260  -17.2490   19.6120 C   0  0  0  0  0  2  0  0  0  0  0  0
  -30.9640  -14.7620   19.8570 C   0  0  0  0  0  0  0  0  0  0  0  0
  -30.5860  -12.5470   18.7580 C   0  0  0  0  0  2  0  0  0  0  0  0
  -29.5840  -12.7080   17.5910 C   0  0  0  0  0  2  0  0  0  0  0  0
  -28.1330  -12.5900   18.0930 C   0  0  0  0  0  2  0  0  0  0  0  0
  -27.8760  -13.4400   19.3670 C   0  0  0  0  0  3  0  0  0  0  0  0
  -28.9870  -13.2460   20.4220 C   0  0  0  0  0  2  0  0  0  0  0  0
  -30.2640  -13.5750   19.7800 N   0  0  0  0  0  0  0  0  0  0  0  0
  -32.0700  -14.8430   19.3110 O   0  0  0  0  0  0  0  0  0  0  0  0
  -30.4060  -16.0460   21.8190 C   0  0  0  0  0  1  0  0  0  0  0  0
  -30.3500  -15.9090   20.3570 N   0  0  0  0  0  0  0  0  0  0  0  0
  -25.5660  -14.1120   20.2590 C   0  0  0  0  0  0  0  0  0  0  0  0
  -24.4810  -13.3760   20.6500 C   0  0  0  0  0  0  0  0  0  0  0  0
  -24.8670  -12.0070   20.5230 C   0  0  0  0  0  0  0  0  0  0  0  0
  -26.5460  -13.1950   19.9180 N   0  0  0  0  0  0  0  0  0  0  0  0
  -26.1340  -11.9190   20.1350 N   0  0  0  0  0  0  0  0  0  0  0  0
  -24.0830  -10.7760   20.6940 C   0  0  0  0  0  0  0  0  0  0  0  0
  -24.4560   -9.7850   21.6280 C   0  0  0  0  0  3  0  0  0  0  0  0
  -23.6750   -8.6190   21.7870 C   0  0  0  0  0  3  0  0  0  0  0  0
  -22.5060   -8.4360   21.0100 C   0  0  0  0  0  0  0  0  0  0  0  0
  -22.1520   -9.4150   20.0660 C   0  0  0  0  0  3  0  0  0  0  0  0
  -22.9320  -10.5720   19.9060 C   0  0  0  0  0  3  0  0  0  0  0  0
  -21.7010   -7.3240   21.0770 O   0  0  0  0  0  0  0  0  0  0  0  0
  -21.5240   -6.6350   22.2490 C   0  0  0  0  0  0  0  0  0  0  0  0
  -21.0260   -7.2590   23.4130 C   0  0  0  0  0  3  0  0  0  0  0  0
  -20.7940   -6.4980   24.5770 C   0  0  0  0  0  3  0  0  0  0  0  0
  -21.0480   -5.1140   24.5750 C   0  0  0  0  0  0  0  0  0  0  0  0
  -21.5350   -4.4880   23.4140 C   0  0  0  0  0  3  0  0  0  0  0  0
  -21.7700   -5.2460   22.2540 C   0  0  0  0  0  0  0  0  0  0  0  0
  -22.2210   -4.6370   21.1320 F   0  0  0  0  0  0  0  0  0  0  0  0
  -20.8160   -4.3790   25.6880 F   0  0  0  0  0  0  0  0  0  0  0  0
  -23.1310  -13.9100   21.0310 C   0  0  0  0  0  0  0  0  0  0  0  0
  -22.4250  -13.2220   21.9220 N   0  0  0  0  0  0  0  0  0  0  0  0
  -22.7140  -14.9730   20.5740 O   0  0  0  0  0  0  0  0  0  0  0  0
  -22.7730  -12.3590   22.3150 H   0  0  0  0  0  0  0  0  0  0  0  0
  -21.5220  -13.5650   22.2170 H   0  0  0  0  0  0  0  0  0  0  0  0
  -25.7970  -15.4800   20.1430 N   0  0  0  0  0  0  0  0  0  0  0  0
  -25.0940  -16.1700   20.3840 H   0  0  0  0  0  0  0  0  0  0  0  0
  -26.6700  -15.8930   19.8430 H   0  0  0  0  0  0  0  0  0  0  0  0
  -28.5780  -23.6830   20.1820 C   0  0  0  0  0  3  0  0  0  0  0  0
  -29.1320  -23.9120   21.4760 O   0  0  0  0  0  0  0  0  0  0  0  0
  -30.0080  -24.2600   21.3480 H   0  0  0  0  0  0  0  0  0  0  0  0
  -28.6380  -25.1220   19.4280 C   0  0  0  0  0  2  0  0  0  0  0  0
  -28.4270  -26.4320   20.1310 O   0  0  0  0  0  0  0  0  0  0  0  0
  -24.6050  -31.7900   23.1130 C   0  0  0  0  0  0  0  0  0  0  0  0
  -27.2760  -27.2410   20.0480 C   0  0  0  0  0  0  0  0  0  0  0  0
  -23.4210  -30.3750   21.4710 C   0  0  0  0  0  3  0  0  0  0  0  0
  -24.8900  -28.8410   20.0410 C   0  0  0  0  0  0  0  0  0  0  0  0
  -25.9580  -30.7160   21.2960 C   0  0  0  0  0  2  0  0  0  0  0  0
  -26.0520  -29.3380   20.6440 C   0  0  0  0  0  0  0  0  0  0  0  0
  -27.2400  -28.5480   20.6400 C   0  0  0  0  0  3  0  0  0  0  0  0
  -26.0870  -26.7970   19.4280 C   0  0  0  0  0  3  0  0  0  0  0  0
  -24.9130  -27.5800   19.4230 C   0  0  0  0  0  3  0  0  0  0  0  0
  -23.6470  -29.7090   20.0870 C   0  0  0  0  0  2  0  0  0  0  0  0
  -24.6790  -30.9800   22.0150 N   0  0  0  0  0  0  0  0  0  0  0  0
  -23.5160  -32.0550   23.6460 O   0  0  0  0  0  0  0  0  0  0  0  0
  -22.7710  -29.3500   22.4310 C   0  0  0  0  0  0  0  0  0  0  0  0
  -21.4450  -29.1660   22.3150 N   0  0  0  0  0  0  0  0  0  0  0  0
  -23.4590  -28.7240   23.2420 O   0  0  0  0  0  0  0  0  0  0  0  0
  -20.9480  -29.7260   21.6360 H   0  0  0  0  0  0  0  0  0  0  0  0
  -18.0770  -27.9530   22.8480 C   0  0  0  0  0  0  0  0  0  0  0  0
  -20.6370  -28.2190   23.0880 C   0  0  0  0  0  3  0  0  0  0  0  0
  -20.7360  -26.7930   22.4990 C   0  0  0  0  0  2  0  0  0  0  0  0
  -19.6220  -26.4740   21.4970 C   0  0  0  0  0  2  0  0  0  0  0  0
  -18.2480  -26.6100   22.1580 C   0  0  0  0  0  2  0  0  0  0  0  0
  -19.1980  -28.7140   23.2710 C   0  0  0  0  0  0  0  0  0  0  0  0
  -18.9820  -29.9710   23.8790 C   0  0  0  0  0  3  0  0  0  0  0  0
  -17.6780  -30.4650   24.0660 C   0  0  0  0  0  3  0  0  0  0  0  0
  -16.5710  -29.7020   23.6570 C   0  0  0  0  0  3  0  0  0  0  0  0
  -16.7720  -28.4460   23.0550 C   0  0  0  0  0  3  0  0  0  0  0  0
  -25.8780  -32.4400   23.7370 C   0  0  0  0  0  3  0  0  0  0  0  0
  -25.5420  -33.8280   24.0910 N   0  0  0  0  0  0  0  0  0  0  0  0
  -25.8400  -34.8990   23.3440 C   0  0  0  0  0  0  0  0  0  0  0  0
  -26.4970  -34.8250   22.3030 O   0  0  0  0  0  0  0  0  0  0  0  0
  -24.9600  -33.9580   24.9060 H   0  0  0  0  0  0  0  0  0  0  0  0
  -24.0720  -36.6630   23.0350 C   0  0  0  0  0  1  0  0  0  0  0  0
  -25.3290  -36.2700   23.8280 C   0  0  0  0  0  3  0  0  0  0  0  0
  -27.4540  -37.1880   24.6500 C   0  0  0  0  0  1  0  0  0  0  0  0
  -26.3390  -37.3460   23.7210 N   0  0  0  0  0  0  0  0  0  0  0  0
  -25.9160  -38.2560   23.8830 H   0  0  0  0  0  0  0  0  0  0  0  0
  -26.4180  -31.6630   25.0000 C   0  0  1  0  0  0  0  0  0  0  0  0
  -25.3350  -31.3830   26.0680 C   0  0  0  0  0  1  0  0  0  0  0  0
  -27.0360  -30.3060   24.5890 C   0  0  0  0  0  1  0  0  0  0  0  0
  -27.5500  -32.4770   25.6700 C   0  0  0  0  0  1  0  0  0  0  0  0
  1  5  1  0
  1 48  1  0
  2  1  2  0
  3  4  2  0
  4  8  1  0
  4  7  1  0
  5  8  1  0
  6  5  2  0
  6  3  1  0
  9  3  1  0
  9 19  1  0
 10 19  1  0
 11 16  1  0
 12 13  1  0
 12 11  1  0
 14 13  1  0
 14 23  1  0
 14 15  1  0
 16 10  1  0
 16 15  1  0
 17 10  2  0
 19 18  1  0
 20 21  2  0
 21 40  1  0
 22 21  1  0
 22 25  1  0
 23 24  1  0
 23 20  1  0
 24 22  2  0
 25 26  1  0
 26 27  2  0
 28 31  1  0
 28 27  1  0
 29 28  2  0
 30 29  1  0
 30 25  2  0
 31 32  1  0
 32 37  2  0
 32 33  1  0
 33 34  2  0
 35 34  1  0
 35 39  1  0
 36 35  2  0
 37 36  1  0
 38 37  1  0
 40 41  1  0
 41 44  1  0
 41 43  1  0
 42 40  2  0
 45 20  1  0
 45 46  1  0
 47 45  1  0
 48 51  1  0
 48 49  1  0
 50 49  1  0
 51 52  1  0
 53 64  2  0
 54 52  1  0
 54 59  1  0
 55 63  1  0
 55 65  1  0
 56 62  1  0
 56 58  1  0
 57 63  1  0
 58 57  1  0
 59 58  2  0
 60 54  2  0
 61 60  1  0
 61 56  2  0
 62 55  1  0
 63 53  1  0
 65 67  2  0
 66 65  1  0
 68 66  1  0
 69 78  2  0
 69 74  1  0
 70 66  1  0
 70 74  1  0
 71 70  1  0
 72 73  1  0
 72 71  1  0
 73 69  1  0
 74 75  2  0
 75 76  1  0
 77 76  2  0
 78 77  1  0
 79 53  1  0
 79 80  1  0
 79 89  1  0
 80 83  1  0
 81 85  1  0
 81 80  1  0
 82 81  2  0
 85 84  1  0
 87 85  1  0
 87 88  1  0
 87 86  1  0
 89 92  1  1
 89 90  1  0
 91 89  1  0
M  ISO  4  10 100  19 100  51 101  52 101
M  END
>  <TORSDO>  (21) 
F 21

>  <SCORE>  (21) 
-12.682

>  <name>  (21) 
20

>  <ligand_id>  (21) 
20

>  <original_smiles>  (21) 
[H]OC([H])(C(=O)c1nc(C([H])([H])N(C(=O)N2C([H])([H])C([H])([H])C([H])([H])C([H])(n3nc(-c4c([H])c([H])c(Oc5c([H])c([H])c(F)c([H])c5F)c([H])c4[H])c(C(=O)N([H])[H])c3N([H])[H])C2([H])[H])C([H])([H])[H])c(F)s1)C([H])([H])Oc1c([H])c([H])c2c(c1[H])C([H])([H])N(C(=O)C([H])(N([H])C(=O)C([H])(N([H])C([H])([H])[H])C([H])([H])[H])C(C([H])([H])[H])(C([H])([H])[H])C([H])([H])[H])C([H])(C(=O)N([H])C1([H])c3c([H])c([H])c([H])c([H])c3C([H])([H])C([H])([H])C1([H])[H])C2([H])[H]

>  <smiles>  (21) 
[H]OC([H])(C(=O)c1nc(C([H])([H])N(C(=O)N2C([H])([H])C([H])([H])C([H])([H])C([H])(n3nc(-c4c([H])c([H])c(Oc5c([H])c([H])c(F)c([H])c5F)c([H])c4[H])c(C(=O)N([H])[H])c3N([H])[H])C2([H])[H])C([H])([H])[H])c(F)s1)C([H])([H])Oc1c([H])c([H])c2c(c1[H])C([H])([H])N(C(=O)C([H])(N([H])C(=O)C([H])(N([H])C([H])([H])[H])C([H])([H])[H])C(C([H])([H])[H])(C([H])([H])[H])C([H])([H])[H])C([H])(C(=O)N([H])C1([H])c3c([H])c([H])c([H])c([H])c3C([H])([H])C([H])([H])C1([H])[H])C2([H])[H]

$$$$
21:0:0
     RDKit          3D

 95103  0  0  1  0  0  0  0  0999 V2000
  -28.5940  -22.1220   20.1220 C   0  0  0  0  0  3  0  0  0  0  0  0
  -28.3250  -21.8640   18.6150 C   0  0  2  0  0  0  0  0  0  0  0  0
  -27.2940  -22.5970   18.1990 F   0  0  0  0  0  0  0  0  0  0  0  0
  -28.0170  -20.5870   18.3870 F   0  0  0  0  0  0  0  0  0  0  0  0
  -29.3890  -22.1920   17.8830 F   0  0  0  0  0  0  0  0  0  0  0  0
  -28.9480  -23.7050   20.3710 C   0  0  0  0  0  0  0  0  0  0  0  0
  -30.0140  -24.0150   20.9170 O   0  0  0  0  0  0  0  0  0  0  0  0
  -27.9400  -24.8830   19.9380 C   0  0  0  0  0  2  0  0  0  0  0  0
  -28.2460  -26.3340   20.2340 O   0  0  0  0  0  0  0  0  0  0  0  0
  -24.5980  -31.8700   23.2420 C   0  0  0  0  0  0  0  0  0  0  0  0
  -27.1690  -27.2590   20.1640 C   0  0  0  0  0  0  0  0  0  0  0  0
  -23.3840  -30.4790   21.6090 C   0  0  0  0  0  3  0  0  0  0  0  0
  -24.8220  -28.9290   20.1650 C   0  0  0  0  0  0  0  0  0  0  0  0
  -25.9290  -30.7760   21.4160 C   0  0  0  0  0  2  0  0  0  0  0  0
  -26.0010  -29.3950   20.7630 C   0  0  0  0  0  0  0  0  0  0  0  0
  -27.1750  -28.5710   20.7550 C   0  0  0  0  0  3  0  0  0  0  0  0
  -25.9670  -26.8770   19.5210 C   0  0  0  0  0  3  0  0  0  0  0  0
  -24.8120  -27.6810   19.5320 C   0  0  0  0  0  3  0  0  0  0  0  0
  -23.5900  -29.8110   20.2240 C   0  0  0  0  0  2  0  0  0  0  0  0
  -24.6570  -31.0600   22.1450 N   0  0  0  0  0  0  0  0  0  0  0  0
  -23.5170  -32.1500   23.7810 O   0  0  0  0  0  0  0  0  0  0  0  0
  -22.7210  -29.4620   22.5690 C   0  0  0  0  0  0  0  0  0  0  0  0
  -21.3940  -29.2850   22.4480 N   0  0  0  0  0  0  0  0  0  0  0  0
  -23.4000  -28.8350   23.3870 O   0  0  0  0  0  0  0  0  0  0  0  0
  -20.9040  -29.8400   21.7590 H   0  0  0  0  0  0  0  0  0  0  0  0
  -18.0190  -28.0750   22.9520 C   0  0  0  0  0  0  0  0  0  0  0  0
  -20.5770  -28.3460   23.2200 C   0  0  0  0  0  3  0  0  0  0  0  0
  -20.6850  -26.9130   22.6510 C   0  0  0  0  0  2  0  0  0  0  0  0
  -19.5840  -26.5820   21.6370 C   0  0  0  0  0  2  0  0  0  0  0  0
  -18.2020  -26.7240   22.2800 C   0  0  0  0  0  2  0  0  0  0  0  0
  -19.1360  -28.8430   23.3790 C   0  0  0  0  0  0  0  0  0  0  0  0
  -18.9110  -30.1060   23.9680 C   0  0  0  0  0  3  0  0  0  0  0  0
  -17.6050  -30.6030   24.1330 C   0  0  0  0  0  3  0  0  0  0  0  0
  -16.5030  -29.8320   23.7210 C   0  0  0  0  0  3  0  0  0  0  0  0
  -16.7120  -28.5700   23.1380 C   0  0  0  0  0  3  0  0  0  0  0  0
  -25.8840  -32.5020   23.8590 C   0  0  0  0  0  3  0  0  0  0  0  0
  -26.4020  -31.7310   25.1340 C   0  0  1  0  0  0  0  0  0  0  0  0
  -25.3130  -31.4960   26.2070 C   0  0  0  0  0  1  0  0  0  0  0  0
  -26.9790  -30.3500   24.7420 C   0  0  0  0  0  1  0  0  0  0  0  0
  -27.5590  -32.5210   25.7890 C   0  0  0  0  0  1  0  0  0  0  0  0
  -25.5760  -33.9010   24.1920 N   0  0  0  0  0  0  0  0  0  0  0  0
  -25.9020  -34.9550   23.4320 C   0  0  0  0  0  0  0  0  0  0  0  0
  -26.5620  -34.8520   22.3950 O   0  0  0  0  0  0  0  0  0  0  0  0
  -24.9900  -34.0540   24.9990 H   0  0  0  0  0  0  0  0  0  0  0  0
  -24.1720  -36.7500   23.0990 C   0  0  0  0  0  1  0  0  0  0  0  0
  -25.4210  -36.3440   23.8960 C   0  0  0  0  0  3  0  0  0  0  0  0
  -27.5660  -37.2260   24.7040 C   0  0  0  0  0  1  0  0  0  0  0  0
  -26.4540  -37.3960   23.7730 N   0  0  0  0  0  0  0  0  0  0  0  0
  -26.0500  -38.3170   23.9270 H   0  0  0  0  0  0  0  0  0  0  0  0
  -29.5350  -21.0930   20.7420 N   0  0  0  0  0  0  0  0  0  0  0  0
  -30.3640  -21.6270   20.9820 H   0  0  0  0  0  0  0  0  0  0  0  0
  -30.5760  -14.7840   20.3620 C   0  0  0  0  0  0  0  0  0  0  0  0
  -30.3710  -12.4930   19.3830 C   0  0  0  0  0  2  0  0  0  0  0  0
  -29.4490  -12.5570   18.1450 C   0  0  0  0  0  2  0  0  0  0  0  0
  -27.9760  -12.3860   18.5610 C   0  0  0  0  0  2  0  0  0  0  0  0
  -27.5890  -13.2860   19.7670 C   0  0  0  0  0  3  0  0  0  0  0  0
  -28.6360  -13.2160   20.9010 C   0  0  0  0  0  2  0  0  0  0  0  0
  -29.9400  -13.5600   20.3190 N   0  0  0  0  0  0  0  0  0  0  0  0
  -31.7630  -14.8470   20.0260 O   0  0  0  0  0  0  0  0  0  0  0  0
  -31.0370  -19.5600   19.4730 C   0  0  0  0  0  0  0  0  0  0  0  0
  -29.9460  -19.7590   20.2920 C   0  0  0  0  0  0  0  0  0  0  0  0
  -30.1310  -17.3590   20.3040 C   0  0  0  0  0  0  0  0  0  0  0  0
  -31.8970  -20.5970   18.8200 C   0  0  0  0  0  1  0  0  0  0  0  0
  -29.4320  -18.4730   20.7310 N   0  0  0  0  0  0  0  0  0  0  0  0
  -29.8340  -15.9350   20.6240 N   0  0  0  0  0  0  0  0  0  0  0  0
  -31.4400  -17.8610   19.2360 S   0  0  0  0  0  0  0  0  0  0  0  0
  -28.9130  -15.7660   20.9980 H   0  0  0  0  0  0  0  0  0  0  0  0
  -25.1940  -13.8800   20.4630 C   0  0  0  0  0  0  0  0  0  0  0  0
  -24.1260  -13.1100   20.8310 C   0  0  0  0  0  0  0  0  0  0  0  0
  -24.5900  -11.7590   20.8210 C   0  0  0  0  0  0  0  0  0  0  0  0
  -26.2420  -13.0000   20.2470 N   0  0  0  0  0  0  0  0  0  0  0  0
  -25.8840  -11.7180   20.5260 N   0  0  0  0  0  0  0  0  0  0  0  0
  -23.8620  -10.4980   21.0170 C   0  0  0  0  0  0  0  0  0  0  0  0
  -24.2910   -9.5350   21.9560 C   0  0  0  0  0  3  0  0  0  0  0  0
  -23.5610   -8.3410   22.1410 C   0  0  0  0  0  3  0  0  0  0  0  0
  -22.3880   -8.1000   21.3850 C   0  0  0  0  0  0  0  0  0  0  0  0
  -21.9790   -9.0530   20.4350 C   0  0  0  0  0  3  0  0  0  0  0  0
  -22.7090  -10.2380   20.2500 C   0  0  0  0  0  3  0  0  0  0  0  0
  -21.6320   -6.9580   21.4780 O   0  0  0  0  0  0  0  0  0  0  0  0
  -21.5880   -6.2150   22.6300 C   0  0  0  0  0  0  0  0  0  0  0  0
  -21.1770   -6.7720   23.8610 C   0  0  0  0  0  3  0  0  0  0  0  0
  -21.0790   -5.9560   25.0060 C   0  0  0  0  0  3  0  0  0  0  0  0
  -21.3840   -4.5850   24.9220 C   0  0  0  0  0  0  0  0  0  0  0  0
  -21.7870   -4.0270   23.6960 C   0  0  0  0  0  3  0  0  0  0  0  0
  -21.8850   -4.8400   22.5530 C   0  0  0  0  0  0  0  0  0  0  0  0
  -22.2550   -4.2930   21.3690 F   0  0  0  0  0  0  0  0  0  0  0  0
  -21.2830   -3.7990   26.0190 F   0  0  0  0  0  0  0  0  0  0  0  0
  -22.7250  -13.5890   21.0810 C   0  0  0  0  0  0  0  0  0  0  0  0
  -21.9880  -12.9050   21.9480 N   0  0  0  0  0  0  0  0  0  0  0  0
  -22.2930  -14.6080   20.5420 O   0  0  0  0  0  0  0  0  0  0  0  0
  -22.3500  -12.0820   22.4070 H   0  0  0  0  0  0  0  0  0  0  0  0
  -21.0490  -13.2100   22.1570 H   0  0  0  0  0  0  0  0  0  0  0  0
  -25.3590  -15.2490   20.2700 N   0  0  0  0  0  0  0  0  0  0  0  0
  -24.5860  -15.9010   20.3580 H   0  0  0  0  0  0  0  0  0  0  0  0
  -26.2030  -15.6860   19.9220 H   0  0  0  0  0  0  0  0  0  0  0  0
  1  6  1  0
  1 50  1  0
  2  1  1  0
  2  3  1  6
  4  2  1  0
  5  2  1  0
  6  7  2  0
  8  9  1  0
  8  6  1  0
 10 21  2  0
 11  9  1  0
 11 16  1  0
 12 20  1  0
 12 22  1  0
 13 19  1  0
 13 15  1  0
 14 20  1  0
 15 14  1  0
 16 15  2  0
 17 18  1  0
 17 11  2  0
 18 13  2  0
 19 12  1  0
 20 10  1  0
 22 24  2  0
 23 22  1  0
 25 23  1  0
 26 35  2  0
 26 31  1  0
 27 23  1  0
 27 31  1  0
 28 27  1  0
 29 30  1  0
 29 28  1  0
 30 26  1  0
 31 32  2  0
 32 33  1  0
 34 33  2  0
 35 34  1  0
 36 10  1  0
 36 41  1  0
 36 37  1  0
 37 40  1  1
 37 38  1  0
 39 37  1  0
 41 44  1  0
 42 46  1  0
 42 41  1  0
 43 42  2  0
 46 45  1  0
 48 46  1  0
 48 49  1  0
 48 47  1  0
 50 51  1  0
 52 65  1  0
 53 58  1  0
 54 55  1  0
 54 53  1  0
 56 55  1  0
 56 71  1  0
 56 57  1  0
 58 52  1  0
 58 57  1  0
 59 52  2  0
 60 61  2  0
 61 64  1  0
 61 50  1  0
 62 65  1  0
 62 64  2  0
 63 60  1  0
 65 67  1  0
 66 60  1  0
 66 62  1  0
 68 69  2  0
 69 88  1  0
 70 69  1  0
 70 73  1  0
 71 68  1  0
 71 72  1  0
 72 70  2  0
 73 74  1  0
 74 75  2  0
 76 79  1  0
 76 75  1  0
 77 76  2  0
 78 77  1  0
 78 73  2  0
 79 80  1  0
 80 81  1  0
 81 82  2  0
 83 82  1  0
 83 87  1  0
 84 83  2  0
 85 80  2  0
 85 84  1  0
 86 85  1  0
 88 89  1  0
 89 92  1  0
 89 91  1  0
 90 88  2  0
 93 94  1  0
 93 68  1  0
 95 93  1  0
M  ISO  4   8 101   9 101  52 100  65 100
M  END
>  <TORSDO>  (22) 
F 20

>  <SCORE>  (22) 
-14.011

>  <name>  (22) 
21

>  <ligand_id>  (22) 
21

>  <original_smiles>  (22) 
[H]c1c([H])c([H])c2c(c1[H])C([H])([H])C([H])([H])C([H])([H])C2([H])N([H])C(=O)C1([H])N(C(=O)C([H])(N([H])C(=O)C([H])(N([H])C([H])([H])[H])C([H])([H])[H])C(C([H])([H])[H])(C([H])([H])[H])C([H])([H])[H])C([H])([H])c2c([H])c(OC([H])([H])C(=O)C([H])(N([H])c3nc(N([H])C(=O)N4C([H])([H])C([H])([H])C([H])([H])C([H])(n5nc(-c6c([H])c([H])c(Oc7c([H])c([H])c(F)c([H])c7F)c([H])c6[H])c(C(=O)N([H])[H])c5N([H])[H])C4([H])[H])sc3C([H])([H])[H])C(F)(F)F)c([H])c([H])c2C1([H])[H]

>  <smiles>  (22) 
[H]c1c([H])c([H])c2c(c1[H])C([H])([H])C([H])([H])C([H])([H])C2([H])N([H])C(=O)C1([H])N(C(=O)C([H])(N([H])C(=O)C([H])(N([H])C([H])([H])[H])C([H])([H])[H])C(C([H])([H])[H])(C([H])([H])[H])C([H])([H])[H])C([H])([H])c2c([H])c(OC([H])([H])C(=O)C([H])(N([H])c3nc(N([H])C(=O)N4C([H])([H])C([H])([H])C([H])([H])C([H])(n5nc(-c6c([H])c([H])c(Oc7c([H])c([H])c(F)c([H])c7F)c([H])c6[H])c(C(=O)N([H])[H])c5N([H])[H])C4([H])[H])sc3C([H])([H])[H])C(F)(F)F)c([H])c([H])c2C1([H])[H]

$$$$
22:0:0
     RDKit          3D

 98104  0  0  1  0  0  0  0  0999 V2000
  -26.7330  -17.3980   20.7040 C   0  0  0  0  0  1  0  0  0  0  0  0
  -27.7470  -16.6030   19.8660 C   0  0  0  0  0  3  0  0  0  0  0  0
  -31.5820  -12.1810   21.3510 C   0  0  0  0  0  0  0  0  0  0  0  0
  -31.6830   -9.7560   20.5900 C   0  0  0  0  0  2  0  0  0  0  0  0
  -30.9440   -9.5060   19.2280 C   0  0  0  0  0  2  0  0  0  0  0  0
  -29.4170   -9.6940   19.2650 C   0  0  0  0  0  2  0  0  0  0  0  0
  -29.1770  -10.9570   20.0510 C   0  0  0  0  0  3  0  0  0  0  0  0
  -29.7490  -10.6140   21.4610 C   0  0  0  0  0  2  0  0  0  0  0  0
  -31.1120  -10.9150   21.2830 N   0  0  0  0  0  0  0  0  0  0  0  0
  -32.7340  -12.4140   20.9300 O   0  0  0  0  0  0  0  0  0  0  0  0
  -29.1230  -14.6200   20.9730 C   0  0  0  0  0  3  0  0  0  0  0  0
  -27.8440  -15.0610   20.6560 C   0  0  0  0  0  3  0  0  0  0  0  0
  -29.2810  -13.4510   21.7260 C   0  0  0  0  0  0  0  0  0  0  0  0
  -26.9150  -12.6760   21.4890 C   0  0  0  0  0  2  0  0  0  0  0  0
  -26.7940  -14.1100   21.0780 N   0  0  0  0  0  2  0  0  0  0  0  0
  -28.1300  -12.7820   22.1940 N   0  0  0  0  0  2  0  0  0  0  0  0
  -25.9940  -10.1810   19.7260 N   0  0  0  0  0  2  0  0  0  0  0  0
  -30.7230  -13.1260   21.9210 N   0  0  0  0  0  0  0  0  0  0  0  0
  -26.5730   -9.3570   19.8040 H   0  0  0  0  0  0  0  0  0  0  0  0
  -25.5620  -10.3440   18.8240 H   0  0  0  0  0  0  0  0  0  0  0  0
  -31.2610  -13.9580   22.0980 H   0  0  0  0  0  0  0  0  0  0  0  0
  -26.5120  -12.4370   19.5040 C   0  0  0  0  0  2  0  0  0  0  0  0
  -25.0400  -12.0820   20.4440 C   0  0  0  0  0  3  0  0  0  0  0  0
  -25.3370  -10.6890   21.5920 C   0  0  0  0  0  3  0  0  0  0  0  0
  -27.8550  -11.2090   20.1610 N   0  0  0  0  0  2  0  0  0  0  0  0
  -27.0080  -10.1920   21.4810 N   0  0  0  0  0  2  0  0  0  0  0  0
  -24.3960   -9.4550   21.6310 C   0  0  0  0  0  0  0  0  0  0  0  0
  -24.3370   -8.6250   22.7690 C   0  0  0  0  0  3  0  0  0  0  0  0
  -23.4260   -7.5450   22.8650 C   0  0  0  0  0  3  0  0  0  0  0  0
  -22.5590   -7.2130   21.8000 C   0  0  0  0  0  0  0  0  0  0  0  0
  -22.7300   -7.9010   20.5890 C   0  0  0  0  0  3  0  0  0  0  0  0
  -23.6380   -8.9870   20.5020 C   0  0  0  0  0  3  0  0  0  0  0  0
  -21.6000   -6.2200   21.8840 O   0  0  0  0  0  0  0  0  0  0  0  0
  -20.8430   -6.0560   23.0270 C   0  0  0  0  0  0  0  0  0  0  0  0
  -20.0540   -7.0980   23.5620 C   0  0  0  0  0  3  0  0  0  0  0  0
  -19.2800   -6.8810   24.7200 C   0  0  0  0  0  3  0  0  0  0  0  0
  -19.2730   -5.6190   25.3420 C   0  0  0  0  0  0  0  0  0  0  0  0
  -20.0400   -4.5730   24.8010 C   0  0  0  0  0  3  0  0  0  0  0  0
  -20.8240   -4.7910   23.6540 C   0  0  0  0  0  0  0  0  0  0  0  0
  -21.5500   -3.7710   23.1380 F   0  0  0  0  0  0  0  0  0  0  0  0
  -18.5290   -5.4090   26.4550 F   0  0  0  0  0  0  0  0  0  0  0  0
  -23.6950  -12.6020   20.2660 C   0  0  0  0  0  0  0  0  0  0  0  0
  -22.7830  -12.2220   21.1560 N   0  0  0  0  0  0  0  0  0  0  0  0
  -23.4690  -13.3700   19.3500 O   0  0  0  0  0  0  0  0  0  0  0  0
  -22.9940  -11.5970   21.9200 H   0  0  0  0  0  0  0  0  0  0  0  0
  -21.8360  -12.5650   21.0660 H   0  0  0  0  0  0  0  0  0  0  0  0
  -26.9140  -13.4900   18.7450 N   0  0  0  0  0  0  0  0  0  0  0  0
  -26.2420  -14.1140   18.3180 H   0  0  0  0  0  0  0  0  0  0  0  0
  -27.7900  -13.4310   18.2380 H   0  0  0  0  0  0  0  0  0  0  0  0
  -28.9540  -17.6740   19.4620 N   0  0  0  0  0  4  0  0  0  0  0  0
  -29.7140  -17.1060   19.1180 H   0  0  0  0  0  0  0  0  0  0  0  0
  -29.2770  -18.0220   20.3470 H   0  0  0  0  0  0  0  0  0  0  0  0
  -29.3140  -18.4500   17.0620 C   0  0  0  0  0  1  0  0  0  0  0  0
  -28.8950  -18.9840   18.4370 C   0  0  0  0  0  3  0  0  0  0  0  0
  -29.7290  -20.5840   18.5700 C   0  0  0  0  0  0  0  0  0  0  0  0
  -30.7950  -20.6160   19.1940 O   0  0  0  0  0  0  0  0  0  0  0  0
  -29.2360  -22.1150   17.8750 C   0  0  0  0  0  2  0  0  0  0  0  0
  -29.8250  -23.6540   18.0270 O   0  0  0  0  0  0  0  0  0  0  0  0
  -26.0600  -28.3610   22.3470 C   0  0  0  0  0  0  0  0  0  0  0  0
  -28.9170  -24.8110   18.1470 C   0  0  0  0  0  0  0  0  0  0  0  0
  -25.0050  -27.4280   20.3380 C   0  0  0  0  0  3  0  0  0  0  0  0
  -26.5750  -26.5110   18.5170 C   0  0  0  0  0  0  0  0  0  0  0  0
  -27.5360  -27.9130   20.3290 C   0  0  0  0  0  2  0  0  0  0  0  0
  -27.7150  -26.7780   19.2850 C   0  0  0  0  0  0  0  0  0  0  0  0
  -28.8990  -25.9480   19.0860 C   0  0  0  0  0  3  0  0  0  0  0  0
  -27.7910  -24.7660   17.3110 C   0  0  0  0  0  3  0  0  0  0  0  0
  -26.6430  -25.5540   17.5010 C   0  0  0  0  0  3  0  0  0  0  0  0
  -25.2830  -27.2500   18.8200 C   0  0  0  0  0  2  0  0  0  0  0  0
  -26.2220  -27.9160   21.0630 N   0  0  0  0  0  0  0  0  0  0  0  0
  -24.9500  -28.3630   22.9060 O   0  0  0  0  0  0  0  0  0  0  0  0
  -24.4360  -26.1100   20.9260 C   0  0  0  0  0  0  0  0  0  0  0  0
  -23.1580  -25.8040   20.6370 N   0  0  0  0  0  0  0  0  0  0  0  0
  -25.1490  -25.3760   21.6140 O   0  0  0  0  0  0  0  0  0  0  0  0
  -22.6310  -26.4580   20.0750 H   0  0  0  0  0  0  0  0  0  0  0  0
  -19.9930  -24.0360   20.4500 C   0  0  0  0  0  0  0  0  0  0  0  0
  -22.4500  -24.5880   21.0520 C   0  0  0  0  0  3  0  0  0  0  0  0
  -22.8280  -23.3920   20.1460 C   0  0  0  0  0  2  0  0  0  0  0  0
  -21.8670  -23.1950   18.9710 C   0  0  0  0  0  2  0  0  0  0  0  0
  -20.4410  -22.9590   19.4750 C   0  0  0  0  0  2  0  0  0  0  0  0
  -20.9370  -24.8110   21.1780 C   0  0  0  0  0  0  0  0  0  0  0  0
  -20.4650  -25.8200   22.0480 C   0  0  0  0  0  3  0  0  0  0  0  0
  -19.0850  -26.0550   22.1980 C   0  0  0  0  0  3  0  0  0  0  0  0
  -18.1580  -25.2760   21.4870 C   0  0  0  0  0  3  0  0  0  0  0  0
  -18.6110  -24.2680   20.6180 C   0  0  0  0  0  3  0  0  0  0  0  0
  -27.2620  -28.9080   23.1760 C   0  0  0  0  0  3  0  0  0  0  0  0
  -27.8840  -27.8280   24.1450 C   0  0  1  0  0  0  0  0  0  0  0  0
  -26.8410  -27.1230   25.0480 C   0  0  0  0  0  1  0  0  0  0  0  0
  -28.6230  -26.7330   23.3460 C   0  0  0  0  0  1  0  0  0  0  0  0
  -28.9410  -28.4900   25.0610 C   0  0  0  0  0  1  0  0  0  0  0  0
  -26.7860  -30.0640   23.9550 N   0  0  0  0  0  0  0  0  0  0  0  0
  -27.0430  -31.3470   23.6620 C   0  0  0  0  0  0  0  0  0  0  0  0
  -27.7690  -31.6790   22.7210 O   0  0  0  0  0  0  0  0  0  0  0  0
  -26.1400  -29.8660   24.7050 H   0  0  0  0  0  0  0  0  0  0  0  0
  -25.1950  -33.0490   23.8200 C   0  0  0  0  0  1  0  0  0  0  0  0
  -26.3970  -32.4310   24.5500 C   0  0  0  0  0  3  0  0  0  0  0  0
  -28.3570  -33.0490   25.8960 C   0  0  0  0  0  1  0  0  0  0  0  0
  -27.3370  -33.5010   24.9540 N   0  0  0  0  0  0  0  0  0  0  0  0
  -26.8380  -34.2790   25.3760 H   0  0  0  0  0  0  0  0  0  0  0  0
  2  1  1  0
  3 18  1  0
  4  9  1  0
  5  6  1  0
  5  4  1  0
  6  7  1  0
  7 25  1  0
  7  8  1  0
  9  3  1  0
  9  8  1  0
 10  3  2  0
 11 13  2  0
 12  2  1  0
 12 11  1  0
 12 15  1  0
 13 18  1  0
 13 16  1  0
 14 16  1  0
 15 14  1  0
 17 19  1  0
 18 21  1  0
 20 17  1  0
 23 22  1  0
 23 24  1  0
 24 26  1  0
 24 27  1  0
 25 26  1  0
 27 28  1  0
 28 29  2  0
 30 33  1  0
 30 29  1  0
 31 30  2  0
 32 31  1  0
 32 27  2  0
 33 34  1  0
 34 35  2  0
 34 39  1  0
 35 36  1  0
 36 37  2  0
 37 41  1  0
 38 37  1  0
 39 38  2  0
 40 39  1  0
 42 23  1  0
 42 43  1  0
 43 45  1  0
 44 42  2  0
 46 43  1  0
 47 22  1  0
 48 47  1  0
 49 47  1  0
 50  2  1  0
 50 52  1  0
 51 50  1  0
 54 53  1  0
 54 55  1  0
 54 50  1  0
 55 56  2  0
 57 58  1  0
 57 55  1  0
 58 60  1  0
 59 70  2  0
 60 65  1  0
 61 71  1  0
 61 69  1  0
 62 68  1  0
 62 64  1  0
 63 69  1  0
 64 63  1  0
 65 64  2  0
 66 67  1  0
 66 60  2  0
 67 62  2  0
 68 61  1  0
 69 59  1  0
 71 73  2  0
 72 71  1  0
 74 72  1  0
 75 84  2  0
 75 80  1  0
 76 72  1  0
 76 80  1  0
 77 76  1  0
 78 79  1  0
 78 77  1  0
 79 75  1  0
 80 81  2  0
 81 82  1  0
 83 82  2  0
 84 83  1  0
 85 59  1  0
 85 90  1  0
 85 86  1  0
 86 87  1  1
 86 89  1  0
 88 86  1  0
 90 93  1  0
 91 90  1  0
 91 95  1  0
 92 91  2  0
 95 94  1  0
 95 97  1  0
 97 98  1  0
 97 96  1  0
M  ISO  4   3 100  18 100  57 101  58 101
M  END
>  <TORSDO>  (23) 
F 20

>  <SCORE>  (23) 
-5.140

>  <name>  (23) 
22

>  <ligand_id>  (23) 
22

>  <original_smiles>  (23) 
[H]c1c(N([H])C(=O)N2C([H])([H])C([H])([H])C([H])([H])C([H])(n3nc(-c4c([H])c([H])c(Oc5c([H])c([H])c(F)c([H])c5F)c([H])c4[H])c(C(=O)N([H])[H])c3N([H])[H])C2([H])[H])nc(N([H])[H])nc1C([H])(C([H])([H])[H])[N+]([H])([H])C([H])(C(=O)C([H])([H])Oc1c([H])c([H])c2c(c1[H])C([H])([H])N(C(=O)C([H])(N([H])C(=O)C([H])(N([H])C([H])([H])[H])C([H])([H])[H])C(C([H])([H])[H])(C([H])([H])[H])C([H])([H])[H])C([H])(C(=O)N([H])C1([H])c3c([H])c([H])c([H])c([H])c3C([H])([H])C([H])([H])C1([H])[H])C2([H])[H])C([H])([H])[H]

>  <smiles>  (23) 
[H]c1c(N([H])C(=O)N2C([H])([H])C([H])([H])C([H])([H])C([H])(n3nc(-c4c([H])c([H])c(Oc5c([H])c([H])c(F)c([H])c5F)c([H])c4[H])c(C(=O)N([H])[H])c3N([H])[H])C2([H])[H])nc(N([H])[H])nc1C([H])(C([H])([H])[H])[N+]([H])([H])C([H])(C(=O)C([H])([H])Oc1c([H])c([H])c2c(c1[H])C([H])([H])N(C(=O)C([H])(N([H])C(=O)C([H])(N([H])C([H])([H])[H])C([H])([H])[H])C(C([H])([H])[H])(C([H])([H])[H])C([H])([H])[H])C([H])(C(=O)N([H])C1([H])c3c([H])c([H])c([H])c([H])c3C([H])([H])C([H])([H])C1([H])[H])C2([H])[H])C([H])([H])[H]

$$$$
23:0:0
     RDKit          3D

 97105  0  0  1  0  0  0  0  0999 V2000
  -30.7290  -19.2140   21.5850 C   0  0  0  0  0  0  0  0  0  0  0  0
  -30.5580  -18.6280   20.3420 C   0  0  0  0  0  0  0  0  0  0  0  0
  -29.5070  -20.9010   20.5970 C   0  0  0  0  0  0  0  0  0  0  0  0
  -28.3710  -23.0020   19.6770 C   0  0  0  0  0  0  0  0  0  0  0  0
  -30.1150  -20.4770   21.7060 N   0  0  0  0  0  0  0  0  0  0  0  0
  -28.8520  -22.1740   20.6380 N   0  0  0  0  0  0  0  0  0  0  0  0
  -28.5230  -22.7900   18.4730 O   0  0  0  0  0  0  0  0  0  0  0  0
  -29.6110  -19.7080   19.2970 S   0  0  0  0  0  0  0  0  0  0  0  0
  -28.7210  -22.5310   21.5730 H   0  0  0  0  0  0  0  0  0  0  0  0
  -33.0120  -19.2660   22.6200 C   0  0  0  0  0  1  0  0  0  0  0  0
  -31.5750  -18.7440   22.7460 C   0  0  2  0  0  0  0  0  0  0  0  0
  -31.6320  -17.4180   22.8380 F   0  0  0  0  0  0  0  0  0  0  0  0
  -31.0920  -19.1890   23.9070 F   0  0  0  0  0  0  0  0  0  0  0  0
  -27.6520  -24.3320   21.7320 C   0  0  0  0  0  1  0  0  0  0  0  0
  -26.0940  -23.9740   19.8310 C   0  0  0  0  0  1  0  0  0  0  0  0
  -27.5660  -24.2630   20.1820 C   0  0  2  0  0  0  0  0  0  0  0  0
  -28.0580  -25.6910   19.6440 C   0  0  0  0  0  2  0  0  0  0  0  0
  -27.3590  -26.4130   18.5880 O   0  0  0  0  0  0  0  0  0  0  0  0
  -24.9650  -31.3490   23.2550 C   0  0  0  0  0  0  0  0  0  0  0  0
  -26.4100  -27.3540   18.9630 C   0  0  0  0  0  0  0  0  0  0  0  0
  -23.3480  -30.5130   21.5840 C   0  0  0  0  0  3  0  0  0  0  0  0
  -24.3390  -29.1650   19.6560 C   0  0  0  0  0  0  0  0  0  0  0  0
  -25.8540  -30.5610   21.0600 C   0  0  0  0  0  2  0  0  0  0  0  0
  -25.6330  -29.3600   20.1590 C   0  0  0  0  0  0  0  0  0  0  0  0
  -26.6740  -28.4520   19.8250 C   0  0  0  0  0  3  0  0  0  0  0  0
  -25.1200  -27.2380   18.4080 C   0  0  0  0  0  3  0  0  0  0  0  0
  -24.0780  -28.1030   18.7780 C   0  0  0  0  0  3  0  0  0  0  0  0
  -23.2660  -30.1450   20.0790 C   0  0  0  0  0  2  0  0  0  0  0  0
  -24.7500  -30.8100   22.0210 N   0  0  0  0  0  0  0  0  0  0  0  0
  -24.0210  -31.6310   24.0060 O   0  0  0  0  0  0  0  0  0  0  0  0
  -22.6740  -29.3920   22.4090 C   0  0  0  0  0  0  0  0  0  0  0  0
  -21.3350  -29.3130   22.3370 N   0  0  0  0  0  0  0  0  0  0  0  0
  -23.3510  -28.6050   23.0760 O   0  0  0  0  0  0  0  0  0  0  0  0
  -20.8520  -30.0000   21.7750 H   0  0  0  0  0  0  0  0  0  0  0  0
  -17.9310  -28.1510   22.7080 C   0  0  0  0  0  0  0  0  0  0  0  0
  -20.4940  -28.3170   23.0000 C   0  0  0  0  0  3  0  0  0  0  0  0
  -20.5610  -26.9570   22.2680 C   0  0  0  0  0  2  0  0  0  0  0  0
  -19.4520  -26.7740   21.2280 C   0  0  0  0  0  2  0  0  0  0  0  0
  -18.0740  -26.8810   21.8860 C   0  0  0  0  0  2  0  0  0  0  0  0
  -19.0670  -28.8340   23.2170 C   0  0  0  0  0  0  0  0  0  0  0  0
  -18.8800  -30.0280   23.9450 C   0  0  0  0  0  3  0  0  0  0  0  0
  -17.5880  -30.5410   24.1690 C   0  0  0  0  0  3  0  0  0  0  0  0
  -16.4650  -29.8530   23.6750 C   0  0  0  0  0  3  0  0  0  0  0  0
  -16.6380  -28.6610   22.9510 C   0  0  0  0  0  3  0  0  0  0  0  0
  -26.4060  -31.6590   23.7700 C   0  0  0  0  0  3  0  0  0  0  0  0
  -26.9560  -30.5670   24.7670 C   0  0  1  0  0  0  0  0  0  0  0  0
  -25.9950  -30.2500   25.9350 C   0  0  0  0  0  1  0  0  0  0  0  0
  -27.2480  -29.2430   24.0230 C   0  0  0  0  0  1  0  0  0  0  0  0
  -28.3020  -31.0400   25.3670 C   0  0  0  0  0  1  0  0  0  0  0  0
  -26.3710  -32.9790   24.4120 N   0  0  0  0  0  0  0  0  0  0  0  0
  -26.8370  -34.1060   23.8580 C   0  0  0  0  0  0  0  0  0  0  0  0
  -27.4130  -34.1270   22.7670 O   0  0  0  0  0  0  0  0  0  0  0  0
  -25.8640  -33.0450   25.2830 H   0  0  0  0  0  0  0  0  0  0  0  0
  -25.4600  -36.2040   24.0270 C   0  0  0  0  0  1  0  0  0  0  0  0
  -26.6320  -35.4190   24.6380 C   0  0  0  0  0  3  0  0  0  0  0  0
  -28.9130  -35.7130   25.4940 C   0  0  0  0  0  1  0  0  0  0  0  0
  -27.8380  -36.2730   24.6790 N   0  0  0  0  0  0  0  0  0  0  0  0
  -27.6140  -37.1960   25.0420 H   0  0  0  0  0  0  0  0  0  0  0  0
  -31.1850  -17.3630   19.7500 C   0  0  0  0  0  2  0  0  0  0  0  0
  -31.2960  -14.8690   19.8470 C   0  0  0  0  0  0  0  0  0  0  0  0
  -31.0320  -12.4870   19.2410 C   0  0  0  0  0  2  0  0  0  0  0  0
  -30.1140  -12.3710   18.0050 C   0  0  0  0  0  2  0  0  0  0  0  0
  -28.6380  -12.3030   18.4360 C   0  0  0  0  0  2  0  0  0  0  0  0
  -28.2600  -13.4070   19.4610 C   0  0  0  0  0  3  0  0  0  0  0  0
  -29.2990  -13.5060   20.6000 C   0  0  0  0  0  2  0  0  0  0  0  0
  -30.6220  -13.6900   19.9880 N   0  0  0  0  0  0  0  0  0  0  0  0
  -32.4430  -14.9080   19.3980 O   0  0  0  0  0  0  0  0  0  0  0  0
  -30.6110  -16.0240   20.0490 N   0  0  0  0  0  0  0  0  0  0  0  0
  -29.6620  -15.9680   20.3900 H   0  0  0  0  0  0  0  0  0  0  0  0
  -25.9280  -14.1650   20.2290 C   0  0  0  0  0  0  0  0  0  0  0  0
  -24.8200  -13.4640   20.6220 C   0  0  0  0  0  0  0  0  0  0  0  0
  -25.1890  -12.0850   20.5800 C   0  0  0  0  0  0  0  0  0  0  0  0
  -26.9060  -13.2180   19.9740 N   0  0  0  0  0  0  0  0  0  0  0  0
  -26.4670  -11.9610   20.2430 N   0  0  0  0  0  0  0  0  0  0  0  0
  -24.3840  -10.8730   20.7860 C   0  0  0  0  0  0  0  0  0  0  0  0
  -24.7380   -9.9060   21.7520 C   0  0  0  0  0  3  0  0  0  0  0  0
  -23.9370   -8.7600   21.9450 C   0  0  0  0  0  3  0  0  0  0  0  0
  -22.7680   -8.5720   21.1680 C   0  0  0  0  0  0  0  0  0  0  0  0
  -22.4350   -9.5250   20.1910 C   0  0  0  0  0  3  0  0  0  0  0  0
  -23.2360  -10.6630   19.9970 C   0  0  0  0  0  3  0  0  0  0  0  0
  -21.9450   -7.4770   21.2670 O   0  0  0  0  0  0  0  0  0  0  0  0
  -21.7630   -6.8170   22.4560 C   0  0  0  0  0  0  0  0  0  0  0  0
  -21.2260   -7.4620   23.5910 C   0  0  0  0  0  3  0  0  0  0  0  0
  -20.9910   -6.7300   24.7710 C   0  0  0  0  0  3  0  0  0  0  0  0
  -21.2840   -5.3550   24.8180 C   0  0  0  0  0  0  0  0  0  0  0  0
  -21.8150   -4.7080   23.6870 C   0  0  0  0  0  3  0  0  0  0  0  0
  -22.0510   -5.4380   22.5090 C   0  0  0  0  0  0  0  0  0  0  0  0
  -22.5430   -4.8080   21.4150 F   0  0  0  0  0  0  0  0  0  0  0  0
  -21.0520   -4.6480   25.9490 F   0  0  0  0  0  0  0  0  0  0  0  0
  -23.4640  -14.0330   20.9270 C   0  0  0  0  0  0  0  0  0  0  0  0
  -22.7230  -13.3990   21.8310 N   0  0  0  0  0  0  0  0  0  0  0  0
  -23.0740  -15.0730   20.3990 O   0  0  0  0  0  0  0  0  0  0  0  0
  -23.0540  -12.5560   22.2760 H   0  0  0  0  0  0  0  0  0  0  0  0
  -21.8150  -13.7630   22.0800 H   0  0  0  0  0  0  0  0  0  0  0  0
  -26.1790  -15.5220   20.0490 N   0  0  0  0  0  0  0  0  0  0  0  0
  -25.4600  -16.2250   20.1810 H   0  0  0  0  0  0  0  0  0  0  0  0
  -27.0480  -15.9060   19.7020 H   0  0  0  0  0  0  0  0  0  0  0  0
  1  5  1  0
  1 11  1  0
  2  1  2  0
  3  6  1  0
  3  5  2  0
  4 16  1  0
  4  6  1  0
  6  9  1  0
  7  4  2  0
  8  2  1  0
  8  3  1  0
 11 10  1  6
 11 12  1  0
 11 13  1  0
 16 15  1  1
 16 14  1  0
 17 16  1  0
 18 20  1  0
 18 17  1  0
 19 30  2  0
 20 25  1  0
 21 29  1  0
 21 31  1  0
 22 28  1  0
 22 24  1  0
 23 29  1  0
 24 23  1  0
 25 24  2  0
 26 27  1  0
 26 20  2  0
 27 22  2  0
 28 21  1  0
 29 19  1  0
 31 33  2  0
 32 31  1  0
 34 32  1  0
 35 44  2  0
 35 40  1  0
 36 32  1  0
 36 40  1  0
 37 36  1  0
 38 39  1  0
 38 37  1  0
 39 35  1  0
 40 41  2  0
 41 42  1  0
 43 42  2  0
 44 43  1  0
 45 19  1  0
 45 50  1  0
 45 46  1  0
 46 49  1  1
 46 47  1  0
 48 46  1  0
 50 53  1  0
 51 50  1  0
 51 55  1  0
 52 51  2  0
 55 54  1  0
 55 57  1  0
 57 58  1  0
 57 56  1  0
 59 68  1  0
 59  2  1  0
 60 66  1  0
 60 68  1  0
 61 66  1  0
 62 63  1  0
 62 61  1  0
 64 63  1  0
 64 73  1  0
 64 65  1  0
 66 65  1  0
 67 60  2  0
 68 69  1  0
 70 71  2  0
 71 90  1  0
 72 71  1  0
 72 75  1  0
 73 70  1  0
 73 74  1  0
 74 72  2  0
 75 76  1  0
 76 77  2  0
 78 81  1  0
 78 77  1  0
 79 78  2  0
 80 79  1  0
 80 75  2  0
 81 82  1  0
 82 87  2  0
 82 83  1  0
 83 84  2  0
 84 85  1  0
 85 89  1  0
 86 85  2  0
 87 86  1  0
 88 87  1  0
 90 91  1  0
 91 94  1  0
 91 93  1  0
 92 90  2  0
 95 96  1  0
 95 70  1  0
 97 95  1  0
M  ISO  4  17 101  18 101  60 100  68 100
M  END
>  <TORSDO>  (24) 
F 20

>  <SCORE>  (24) 
-11.328

>  <name>  (24) 
23

>  <ligand_id>  (24) 
23

>  <original_smiles>  (24) 
[H]c1c([H])c([H])c2c(c1[H])C([H])([H])C([H])([H])C([H])([H])C2([H])N([H])C(=O)C1([H])N(C(=O)C([H])(N([H])C(=O)C([H])(N([H])C([H])([H])[H])C([H])([H])[H])C(C([H])([H])[H])(C([H])([H])[H])C([H])([H])[H])C([H])([H])c2c([H])c(OC([H])([H])C(C(=O)N([H])c3nc(C(F)(F)C([H])([H])[H])c(C([H])([H])N([H])C(=O)N4C([H])([H])C([H])([H])C([H])([H])C([H])(n5nc(-c6c([H])c([H])c(Oc7c([H])c([H])c(F)c([H])c7F)c([H])c6[H])c(C(=O)N([H])[H])c5N([H])[H])C4([H])[H])s3)(C([H])([H])[H])C([H])([H])[H])c([H])c([H])c2C1([H])[H]

>  <smiles>  (24) 
[H]c1c([H])c([H])c2c(c1[H])C([H])([H])C([H])([H])C([H])([H])C2([H])N([H])C(=O)C1([H])N(C(=O)C([H])(N([H])C(=O)C([H])(N([H])C([H])([H])[H])C([H])([H])[H])C(C([H])([H])[H])(C([H])([H])[H])C([H])([H])[H])C([H])([H])c2c([H])c(OC([H])([H])C(C(=O)N([H])c3nc(C(F)(F)C([H])([H])[H])c(C([H])([H])N([H])C(=O)N4C([H])([H])C([H])([H])C([H])([H])C([H])(n5nc(-c6c([H])c([H])c(Oc7c([H])c([H])c(F)c([H])c7F)c([H])c6[H])c(C(=O)N([H])[H])c5N([H])[H])C4([H])[H])s3)(C([H])([H])[H])C([H])([H])[H])c([H])c([H])c2C1([H])[H]

$$$$
24:0:0
     RDKit          3D

 95103  0  0  1  0  0  0  0  0999 V2000
  -28.8940  -22.7410   20.1860 C   0  0  0  0  0  0  0  0  0  0  0  0
  -29.0050  -21.4760   19.5770 N   0  0  0  0  0  0  0  0  0  0  0  0
  -28.9500  -22.8770   21.4080 O   0  0  0  0  0  0  0  0  0  0  0  0
  -28.9020  -21.6600   18.5840 H   0  0  0  0  0  0  0  0  0  0  0  0
  -30.6170  -19.6280   19.1580 C   0  0  0  0  0  0  0  0  0  0  0  0
  -30.8290  -18.1750   19.2730 C   0  0  0  0  0  0  0  0  0  0  0  0
  -29.5330  -20.1750   19.8310 C   0  0  0  0  0  0  0  0  0  0  0  0
  -29.9460  -17.4720   20.0920 C   0  0  0  0  0  0  0  0  0  0  0  0
  -31.4930  -20.4920   18.2840 C   0  0  0  0  0  1  0  0  0  0  0  0
  -31.9150  -17.5020   18.4770 C   0  0  0  0  0  1  0  0  0  0  0  0
  -28.8050  -18.7620   20.6910 S   0  0  0  0  0  0  0  0  0  0  0  0
  -30.5770  -14.9050   20.1610 C   0  0  0  0  0  0  0  0  0  0  0  0
  -30.3820  -12.5910   19.1940 C   0  0  0  0  0  2  0  0  0  0  0  0
  -29.4170  -12.6170   17.9870 C   0  0  0  0  0  2  0  0  0  0  0  0
  -27.9630  -12.4220   18.4560 C   0  0  0  0  0  2  0  0  0  0  0  0
  -27.6030  -13.3260   19.6640 C   0  0  0  0  0  3  0  0  0  0  0  0
  -28.6870  -13.2860   20.7610 C   0  0  0  0  0  2  0  0  0  0  0  0
  -29.9580  -13.6650   20.1310 N   0  0  0  0  0  0  0  0  0  0  0  0
  -31.7720  -14.9470   19.8580 O   0  0  0  0  0  0  0  0  0  0  0  0
  -29.8070  -16.0710   20.3730 N   0  0  0  0  0  0  0  0  0  0  0  0
  -28.9010  -15.8350   20.7500 H   0  0  0  0  0  0  0  0  0  0  0  0
  -25.2400  -13.9100   20.4620 C   0  0  0  0  0  0  0  0  0  0  0  0
  -24.1830  -13.1350   20.8490 C   0  0  0  0  0  0  0  0  0  0  0  0
  -24.6420  -11.7830   20.7950 C   0  0  0  0  0  0  0  0  0  0  0  0
  -26.2740  -13.0310   20.1890 N   0  0  0  0  0  0  0  0  0  0  0  0
  -25.9250  -11.7440   20.4550 N   0  0  0  0  0  0  0  0  0  0  0  0
  -23.9170  -10.5200   20.9890 C   0  0  0  0  0  0  0  0  0  0  0  0
  -24.3540   -9.5520   21.9200 C   0  0  0  0  0  3  0  0  0  0  0  0
  -23.6260   -8.3550   22.1030 C   0  0  0  0  0  3  0  0  0  0  0  0
  -22.4480   -8.1180   21.3550 C   0  0  0  0  0  0  0  0  0  0  0  0
  -22.0320   -9.0760   20.4130 C   0  0  0  0  0  3  0  0  0  0  0  0
  -22.7600  -10.2630   20.2290 C   0  0  0  0  0  3  0  0  0  0  0  0
  -21.6940   -6.9740   21.4470 O   0  0  0  0  0  0  0  0  0  0  0  0
  -21.6390   -6.2390   22.6040 C   0  0  0  0  0  0  0  0  0  0  0  0
  -21.1880   -6.7980   23.8190 C   0  0  0  0  0  3  0  0  0  0  0  0
  -21.0790   -5.9900   24.9680 C   0  0  0  0  0  3  0  0  0  0  0  0
  -21.4130   -4.6230   24.9020 C   0  0  0  0  0  0  0  0  0  0  0  0
  -21.8570   -4.0640   23.6910 C   0  0  0  0  0  3  0  0  0  0  0  0
  -21.9660   -4.8700   22.5450 C   0  0  0  0  0  0  0  0  0  0  0  0
  -22.3750   -4.3220   21.3750 F   0  0  0  0  0  0  0  0  0  0  0  0
  -21.3020   -3.8440   26.0040 F   0  0  0  0  0  0  0  0  0  0  0  0
  -22.7930  -13.6130   21.1570 C   0  0  0  0  0  0  0  0  0  0  0  0
  -22.0810  -12.9080   22.0270 N   0  0  0  0  0  0  0  0  0  0  0  0
  -22.3500  -14.6460   20.6580 O   0  0  0  0  0  0  0  0  0  0  0  0
  -22.4540  -12.0720   22.4510 H   0  0  0  0  0  0  0  0  0  0  0  0
  -21.1500  -13.2120   22.2750 H   0  0  0  0  0  0  0  0  0  0  0  0
  -25.4040  -15.2810   20.2940 N   0  0  0  0  0  0  0  0  0  0  0  0
  -24.6380  -15.9330   20.4270 H   0  0  0  0  0  0  0  0  0  0  0  0
  -26.2320  -15.7200   19.9130 H   0  0  0  0  0  0  0  0  0  0  0  0
  -28.6930  -23.8820   19.1790 C   0  0  0  0  0  0  0  0  0  0  0  0
  -28.4600  -25.2890   19.2230 C   0  0  0  0  0  0  0  0  0  0  0  0
  -28.4840  -26.0460   17.8850 C   0  0  0  0  0  1  0  0  0  0  0  0
  -28.7820  -23.4160   17.9190 O   0  0  0  0  0  0  0  0  0  0  0  0
  -28.6590  -24.1620   17.3460 H   0  0  0  0  0  0  0  0  0  0  0  0
  -28.2460  -26.2700   20.2530 O   0  0  0  0  0  0  0  0  0  0  0  0
  -24.5910  -31.8850   23.2420 C   0  0  0  0  0  0  0  0  0  0  0  0
  -27.1860  -27.2360   20.1860 C   0  0  0  0  0  0  0  0  0  0  0  0
  -23.3910  -30.4890   21.6030 C   0  0  0  0  0  3  0  0  0  0  0  0
  -24.8400  -28.9300   20.1750 C   0  0  0  0  0  0  0  0  0  0  0  0
  -25.9400  -30.7790   21.4270 C   0  0  0  0  0  2  0  0  0  0  0  0
  -26.0190  -29.3920   20.7740 C   0  0  0  0  0  0  0  0  0  0  0  0
  -27.1940  -28.5600   20.7670 C   0  0  0  0  0  3  0  0  0  0  0  0
  -25.9670  -26.8470   19.5870 C   0  0  0  0  0  3  0  0  0  0  0  0
  -24.8210  -27.6650   19.5710 C   0  0  0  0  0  3  0  0  0  0  0  0
  -23.6090  -29.8180   20.2230 C   0  0  0  0  0  2  0  0  0  0  0  0
  -24.6610  -31.0710   22.1460 N   0  0  0  0  0  0  0  0  0  0  0  0
  -23.5060  -32.1640   23.7730 O   0  0  0  0  0  0  0  0  0  0  0  0
  -22.7210  -29.4750   22.5630 C   0  0  0  0  0  0  0  0  0  0  0  0
  -21.3930  -29.3030   22.4400 N   0  0  0  0  0  0  0  0  0  0  0  0
  -23.3960  -28.8460   23.3820 O   0  0  0  0  0  0  0  0  0  0  0  0
  -20.9050  -29.8620   21.7530 H   0  0  0  0  0  0  0  0  0  0  0  0
  -18.0130  -28.1090   22.9510 C   0  0  0  0  0  0  0  0  0  0  0  0
  -20.5730  -28.3660   23.2120 C   0  0  0  0  0  3  0  0  0  0  0  0
  -20.6720  -26.9350   22.6360 C   0  0  0  0  0  2  0  0  0  0  0  0
  -19.5660  -26.6130   21.6250 C   0  0  0  0  0  2  0  0  0  0  0  0
  -18.1860  -26.7600   22.2730 C   0  0  0  0  0  2  0  0  0  0  0  0
  -19.1340  -28.8690   23.3770 C   0  0  0  0  0  0  0  0  0  0  0  0
  -18.9170  -30.1300   23.9740 C   0  0  0  0  0  3  0  0  0  0  0  0
  -17.6120  -30.6310   24.1460 C   0  0  0  0  0  3  0  0  0  0  0  0
  -16.5070  -29.8680   23.7330 C   0  0  0  0  0  3  0  0  0  0  0  0
  -16.7080  -28.6080   23.1410 C   0  0  0  0  0  3  0  0  0  0  0  0
  -25.8700  -32.5210   23.8670 C   0  0  0  0  0  3  0  0  0  0  0  0
  -26.3780  -31.7560   25.1510 C   0  0  1  0  0  0  0  0  0  0  0  0
  -25.2790  -31.5270   26.2140 C   0  0  0  0  0  1  0  0  0  0  0  0
  -26.9610  -30.3750   24.7720 C   0  0  0  0  0  1  0  0  0  0  0  0
  -27.5260  -32.5530   25.8130 C   0  0  0  0  0  1  0  0  0  0  0  0
  -25.5590  -33.9210   24.1920 N   0  0  0  0  0  0  0  0  0  0  0  0
  -25.8910  -34.9730   23.4300 C   0  0  0  0  0  0  0  0  0  0  0  0
  -26.5580  -34.8660   22.3980 O   0  0  0  0  0  0  0  0  0  0  0  0
  -24.9660  -34.0780   24.9930 H   0  0  0  0  0  0  0  0  0  0  0  0
  -24.1690  -36.7720   23.0720 C   0  0  0  0  0  1  0  0  0  0  0  0
  -25.4080  -36.3640   23.8860 C   0  0  0  0  0  3  0  0  0  0  0  0
  -27.5410  -37.2470   24.7220 C   0  0  0  0  0  1  0  0  0  0  0  0
  -26.4440  -37.4140   23.7720 N   0  0  0  0  0  0  0  0  0  0  0  0
  -26.0390  -38.3360   23.9140 H   0  0  0  0  0  0  0  0  0  0  0  0
  1  3  2  0
  2  7  1  0
  2  1  1  0
  4  2  1  0
  5  6  1  0
  5  7  2  0
  6  8  2  0
  7 11  1  0
  8 20  1  0
  8 11  1  0
  9  5  1  0
 10  6  1  0
 12 20  1  0
 13 18  1  0
 14 15  1  0
 14 13  1  0
 16 15  1  0
 16 25  1  0
 16 17  1  0
 18 12  1  0
 18 17  1  0
 19 12  2  0
 20 21  1  0
 22 23  2  0
 23 42  1  0
 24 23  1  0
 24 27  1  0
 25 26  1  0
 25 22  1  0
 26 24  2  0
 27 28  1  0
 28 29  2  0
 30 33  1  0
 30 29  1  0
 31 30  2  0
 32 31  1  0
 32 27  2  0
 33 34  1  0
 34 35  1  0
 35 36  2  0
 37 36  1  0
 37 41  1  0
 38 37  2  0
 39 34  2  0
 39 38  1  0
 40 39  1  0
 42 43  1  0
 43 46  1  0
 43 45  1  0
 44 42  2  0
 47 48  1  0
 47 22  1  0
 49 47  1  0
 50 51  2  0
 50  1  1  0
 51 55  1  0
 52 51  1  0
 53 50  1  0
 54 53  1  0
 56 67  2  0
 57 55  1  0
 57 62  1  0
 58 66  1  0
 58 68  1  0
 59 65  1  0
 59 61  1  0
 60 66  1  0
 61 60  1  0
 62 61  2  0
 63 57  2  0
 64 63  1  0
 64 59  2  0
 65 58  1  0
 66 56  1  0
 68 70  2  0
 69 68  1  0
 71 69  1  0
 72 81  2  0
 72 77  1  0
 73 69  1  0
 73 77  1  0
 74 73  1  0
 75 76  1  0
 75 74  1  0
 76 72  1  0
 77 78  2  0
 78 79  1  0
 80 79  2  0
 81 80  1  0
 82 56  1  0
 82 87  1  0
 82 83  1  0
 83 86  1  1
 83 84  1  0
 85 83  1  0
 87 90  1  0
 88 92  1  0
 88 87  1  0
 89 88  2  0
 92 91  1  0
 94 92  1  0
 94 95  1  0
 94 93  1  0
M  ISO  4  12 100  20 100  51 101  55 101
M  END
>  <TORSDO>  (25) 
F 19

>  <SCORE>  (25) 
-14.394

>  <name>  (25) 
24

>  <ligand_id>  (25) 
24

>  <original_smiles>  (25) 
[H]OC(C(=O)N([H])c1sc(N([H])C(=O)N2C([H])([H])C([H])([H])C([H])([H])C([H])(n3nc(-c4c([H])c([H])c(Oc5c([H])c([H])c(F)c([H])c5F)c([H])c4[H])c(C(=O)N([H])[H])c3N([H])[H])C2([H])[H])c(C([H])([H])[H])c1C([H])([H])[H])=C(Oc1c([H])c([H])c2c(c1[H])C([H])([H])N(C(=O)C([H])(N([H])C(=O)C([H])(N([H])C([H])([H])[H])C([H])([H])[H])C(C([H])([H])[H])(C([H])([H])[H])C([H])([H])[H])C([H])(C(=O)N([H])C1([H])c3c([H])c([H])c([H])c([H])c3C([H])([H])C([H])([H])C1([H])[H])C2([H])[H])C([H])([H])[H]

>  <smiles>  (25) 
[H]OC(C(=O)N([H])c1sc(N([H])C(=O)N2C([H])([H])C([H])([H])C([H])([H])C([H])(n3nc(-c4c([H])c([H])c(Oc5c([H])c([H])c(F)c([H])c5F)c([H])c4[H])c(C(=O)N([H])[H])c3N([H])[H])C2([H])[H])c(C([H])([H])[H])c1C([H])([H])[H])=C(Oc1c([H])c([H])c2c(c1[H])C([H])([H])N(C(=O)C([H])(N([H])C(=O)C([H])(N([H])C([H])([H])[H])C([H])([H])[H])C(C([H])([H])[H])(C([H])([H])[H])C([H])([H])[H])C([H])(C(=O)N([H])C1([H])c3c([H])c([H])c([H])c([H])c3C([H])([H])C([H])([H])C1([H])[H])C2([H])[H])C([H])([H])[H]

$$$$
25:0:0
     RDKit          3D

 98106  0  0  1  0  0  0  0  0999 V2000
  -29.4630  -21.3830   20.8250 C   0  0  0  0  0  0  0  0  0  0  0  0
  -29.1440  -22.4480   20.0100 N   0  0  0  0  0  0  0  0  0  0  0  0
  -29.6220  -21.5950   22.0300 O   0  0  0  0  0  0  0  0  0  0  0  0
  -28.9600  -22.2180   19.0430 H   0  0  0  0  0  0  0  0  0  0  0  0
  -30.5830  -14.7940   20.0890 C   0  0  0  0  0  0  0  0  0  0  0  0
  -30.3390  -12.5430   19.0320 C   0  0  0  0  0  2  0  0  0  0  0  0
  -29.3380  -12.6620   17.8600 C   0  0  0  0  0  2  0  0  0  0  0  0
  -27.8920  -12.4800   18.3570 C   0  0  0  0  0  2  0  0  0  0  0  0
  -27.5860  -13.3260   19.6220 C   0  0  0  0  0  3  0  0  0  0  0  0
  -28.6990  -13.1870   20.6840 C   0  0  0  0  0  2  0  0  0  0  0  0
  -29.9720  -13.5580   20.0460 N   0  0  0  0  0  0  0  0  0  0  0  0
  -31.7140  -14.9350   19.6160 O   0  0  0  0  0  0  0  0  0  0  0  0
  -29.6590  -19.9240   20.3190 C   0  0  0  0  0  0  0  0  0  0  0  0
  -30.1860  -19.3280   19.1760 C   0  0  0  0  0  0  0  0  0  0  0  0
  -29.9160  -17.3220   20.3490 C   0  0  0  0  0  0  0  0  0  0  0  0
  -30.3060  -17.9090   19.2030 N   0  0  0  0  0  0  0  0  0  0  0  0
  -29.8510  -15.8590   20.5810 N   0  0  0  0  0  0  0  0  0  0  0  0
  -29.3260  -18.5940   21.4760 S   0  0  0  0  0  0  0  0  0  0  0  0
  -29.0600  -15.5720   21.1350 H   0  0  0  0  0  0  0  0  0  0  0  0
  -25.2350  -13.8990   20.4800 C   0  0  0  0  0  0  0  0  0  0  0  0
  -24.1880  -13.1160   20.8830 C   0  0  0  0  0  0  0  0  0  0  0  0
  -24.6450  -11.7650   20.7880 C   0  0  0  0  0  0  0  0  0  0  0  0
  -26.2640  -13.0260   20.1680 N   0  0  0  0  0  0  0  0  0  0  0  0
  -25.9180  -11.7360   20.4110 N   0  0  0  0  0  0  0  0  0  0  0  0
  -23.9250  -10.4980   20.9770 C   0  0  0  0  0  0  0  0  0  0  0  0
  -24.3700   -9.5260   21.9000 C   0  0  0  0  0  3  0  0  0  0  0  0
  -23.6500   -8.3250   22.0790 C   0  0  0  0  0  3  0  0  0  0  0  0
  -22.4700   -8.0880   21.3350 C   0  0  0  0  0  0  0  0  0  0  0  0
  -22.0420   -9.0490   20.4010 C   0  0  0  0  0  3  0  0  0  0  0  0
  -22.7640  -10.2420   20.2200 C   0  0  0  0  0  3  0  0  0  0  0  0
  -21.7210   -6.9380   21.4220 O   0  0  0  0  0  0  0  0  0  0  0  0
  -21.6400   -6.2200   22.5880 C   0  0  0  0  0  0  0  0  0  0  0  0
  -21.1380   -6.7860   23.7790 C   0  0  0  0  0  3  0  0  0  0  0  0
  -21.0070   -5.9920   24.9360 C   0  0  0  0  0  3  0  0  0  0  0  0
  -21.3680   -4.6320   24.9020 C   0  0  0  0  0  0  0  0  0  0  0  0
  -21.8640   -4.0650   23.7130 C   0  0  0  0  0  3  0  0  0  0  0  0
  -21.9970   -4.8560   22.5600 C   0  0  0  0  0  0  0  0  0  0  0  0
  -22.4540   -4.2990   21.4120 F   0  0  0  0  0  0  0  0  0  0  0  0
  -21.2360   -3.8660   26.0100 F   0  0  0  0  0  0  0  0  0  0  0  0
  -22.8060  -13.5860   21.2410 C   0  0  0  0  0  0  0  0  0  0  0  0
  -22.1260  -12.8690   22.1270 N   0  0  0  0  0  0  0  0  0  0  0  0
  -22.3420  -14.6240   20.7700 O   0  0  0  0  0  0  0  0  0  0  0  0
  -22.5150  -12.0290   22.5270 H   0  0  0  0  0  0  0  0  0  0  0  0
  -21.2020  -13.1650   22.4100 H   0  0  0  0  0  0  0  0  0  0  0  0
  -25.3920  -15.2750   20.3330 N   0  0  0  0  0  0  0  0  0  0  0  0
  -24.6260  -15.9220   20.4900 H   0  0  0  0  0  0  0  0  0  0  0  0
  -26.2080  -15.7180   19.9320 H   0  0  0  0  0  0  0  0  0  0  0  0
  -30.6220  -19.9840   18.0220 N   0  0  0  0  0  0  0  0  0  0  0  0
  -30.8270  -20.9770   18.0350 H   0  0  0  0  0  0  0  0  0  0  0  0
  -31.1450  -19.4660   17.3240 H   0  0  0  0  0  0  0  0  0  0  0  0
  -29.3530  -23.9480   20.2640 C   0  0  0  0  0  3  0  0  0  0  0  0
  -30.4300  -24.4320   19.2660 C   0  0  1  0  0  0  0  0  0  0  0  0
  -31.4740  -23.5980   19.2740 F   0  0  0  0  0  0  0  0  0  0  0  0
  -29.9310  -24.4680   18.0310 F   0  0  0  0  0  0  0  0  0  0  0  0
  -30.8750  -25.6460   19.5900 F   0  0  0  0  0  0  0  0  0  0  0  0
  -27.1440  -24.4620   21.3980 C   0  0  0  0  0  1  0  0  0  0  0  0
  -28.0670  -24.9340   20.2520 C   0  0  0  0  0  3  0  0  0  0  0  0
  -28.2670  -26.4330   20.3400 O   0  0  0  0  0  0  0  0  0  0  0  0
  -24.6170  -31.9290   23.3370 C   0  0  0  0  0  0  0  0  0  0  0  0
  -27.1770  -27.3350   20.2500 C   0  0  0  0  0  0  0  0  0  0  0  0
  -23.3990  -30.5520   21.6890 C   0  0  0  0  0  3  0  0  0  0  0  0
  -24.8360  -29.0030   20.2410 C   0  0  0  0  0  0  0  0  0  0  0  0
  -25.9440  -30.8400   21.5090 C   0  0  0  0  0  2  0  0  0  0  0  0
  -26.0110  -29.4650   20.8470 C   0  0  0  0  0  0  0  0  0  0  0  0
  -27.1830  -28.6430   20.8410 C   0  0  0  0  0  3  0  0  0  0  0  0
  -25.9860  -26.9550   19.5870 C   0  0  0  0  0  3  0  0  0  0  0  0
  -24.8280  -27.7550   19.5990 C   0  0  0  0  0  3  0  0  0  0  0  0
  -23.6050  -29.8870   20.3040 C   0  0  0  0  0  2  0  0  0  0  0  0
  -24.6720  -31.1240   22.2350 N   0  0  0  0  0  0  0  0  0  0  0  0
  -23.5360  -32.2130   23.8740 O   0  0  0  0  0  0  0  0  0  0  0  0
  -22.7270  -29.5350   22.6450 C   0  0  0  0  0  0  0  0  0  0  0  0
  -21.4040  -29.3480   22.4980 N   0  0  0  0  0  0  0  0  0  0  0  0
  -23.3960  -28.9160   23.4760 O   0  0  0  0  0  0  0  0  0  0  0  0
  -20.9220  -29.8980   21.8010 H   0  0  0  0  0  0  0  0  0  0  0  0
  -18.0270  -28.1310   22.9550 C   0  0  0  0  0  0  0  0  0  0  0  0
  -20.5800  -28.4090   23.2620 C   0  0  0  0  0  3  0  0  0  0  0  0
  -20.7000  -26.9740   22.6950 C   0  0  0  0  0  2  0  0  0  0  0  0
  -19.6170  -26.6400   21.6670 C   0  0  0  0  0  2  0  0  0  0  0  0
  -18.2230  -26.7800   22.2890 C   0  0  0  0  0  2  0  0  0  0  0  0
  -19.1340  -28.9030   23.3970 C   0  0  0  0  0  0  0  0  0  0  0  0
  -18.8980  -30.1670   23.9800 C   0  0  0  0  0  3  0  0  0  0  0  0
  -17.5860  -30.6580   24.1270 C   0  0  0  0  0  3  0  0  0  0  0  0
  -16.4940  -29.8820   23.7020 C   0  0  0  0  0  3  0  0  0  0  0  0
  -16.7150  -28.6210   23.1200 C   0  0  0  0  0  3  0  0  0  0  0  0
  -25.9040  -32.5490   23.9590 C   0  0  0  0  0  3  0  0  0  0  0  0
  -26.4050  -31.7790   25.2440 C   0  0  1  0  0  0  0  0  0  0  0  0
  -25.3020  -31.5590   26.3050 C   0  0  0  0  0  1  0  0  0  0  0  0
  -26.9770  -30.3940   24.8650 C   0  0  0  0  0  1  0  0  0  0  0  0
  -27.5590  -32.5650   25.9090 C   0  0  0  0  0  1  0  0  0  0  0  0
  -25.6120  -33.9530   24.2820 N   0  0  0  0  0  0  0  0  0  0  0  0
  -25.9210  -34.9950   23.4980 C   0  0  0  0  0  0  0  0  0  0  0  0
  -26.5510  -34.8770   22.4450 O   0  0  0  0  0  0  0  0  0  0  0  0
  -25.0480  -34.1220   25.1010 H   0  0  0  0  0  0  0  0  0  0  0  0
  -24.1750  -36.7840   23.2080 C   0  0  0  0  0  1  0  0  0  0  0  0
  -25.4580  -36.3920   23.9580 C   0  0  0  0  0  3  0  0  0  0  0  0
  -27.6280  -37.2980   24.6650 C   0  0  0  0  0  1  0  0  0  0  0  0
  -26.4820  -37.4430   23.7710 N   0  0  0  0  0  0  0  0  0  0  0  0
  -26.0820  -38.3660   23.9190 H   0  0  0  0  0  0  0  0  0  0  0  0
  1  3  2  0
  2 51  1  0
  2  1  1  0
  4  2  1  0
  5 17  1  0
  6 11  1  0
  7  8  1  0
  7  6  1  0
  9  8  1  0
  9 23  1  0
  9 10  1  0
 11  5  1  0
 11 10  1  0
 12  5  2  0
 13  1  1  0
 13 18  1  0
 14 16  1  0
 14 13  2  0
 15 17  1  0
 15 18  1  0
 16 15  2  0
 17 19  1  0
 20 21  2  0
 21 40  1  0
 22 21  1  0
 22 25  1  0
 23 24  1  0
 23 20  1  0
 24 22  2  0
 25 26  1  0
 26 27  2  0
 28 31  1  0
 28 27  1  0
 29 28  2  0
 30 29  1  0
 30 25  2  0
 31 32  1  0
 32 33  1  0
 33 34  2  0
 35 34  1  0
 35 39  1  0
 36 35  2  0
 37 32  2  0
 37 36  1  0
 38 37  1  0
 40 41  1  0
 41 44  1  0
 41 43  1  0
 42 40  2  0
 45 20  1  0
 45 46  1  0
 47 45  1  0
 48 49  1  0
 48 14  1  0
 50 48  1  0
 51 52  1  0
 52 53  1  6
 52 55  1  0
 54 52  1  0
 57 51  1  0
 57 58  1  0
 57 56  1  0
 59 70  2  0
 60 58  1  0
 60 65  1  0
 61 69  1  0
 61 71  1  0
 62 68  1  0
 62 64  1  0
 63 69  1  0
 64 63  1  0
 65 64  2  0
 66 67  1  0
 66 60  2  0
 67 62  2  0
 68 61  1  0
 69 59  1  0
 71 73  2  0
 72 71  1  0
 74 72  1  0
 75 84  2  0
 75 80  1  0
 76 72  1  0
 76 80  1  0
 77 76  1  0
 78 79  1  0
 78 77  1  0
 79 75  1  0
 80 81  2  0
 81 82  1  0
 83 82  2  0
 84 83  1  0
 85 59  1  0
 85 90  1  0
 85 86  1  0
 86 89  1  1
 86 87  1  0
 88 86  1  0
 90 93  1  0
 91 95  1  0
 91 90  1  0
 92 91  2  0
 95 94  1  0
 97 98  1  0
 97 95  1  0
 97 96  1  0
M  ISO  4   5 100  17 100  57 101  58 101
M  END
>  <TORSDO>  (26) 
F 20

>  <SCORE>  (26) 
-13.555

>  <name>  (26) 
25

>  <ligand_id>  (26) 
25

>  <original_smiles>  (26) 
[H]c1c([H])c([H])c2c(c1[H])C([H])([H])C([H])([H])C([H])([H])C2([H])N([H])C(=O)C1([H])N(C(=O)C([H])(N([H])C(=O)C([H])(N([H])C([H])([H])[H])C([H])([H])[H])C(C([H])([H])[H])(C([H])([H])[H])C([H])([H])[H])C([H])([H])c2c([H])c(OC([H])(C([H])([H])[H])C([H])(N([H])C(=O)c3sc(N([H])C(=O)N4C([H])([H])C([H])([H])C([H])([H])C([H])(n5nc(-c6c([H])c([H])c(Oc7c([H])c([H])c(F)c([H])c7F)c([H])c6[H])c(C(=O)N([H])[H])c5N([H])[H])C4([H])[H])nc3N([H])[H])C(F)(F)F)c([H])c([H])c2C1([H])[H]

>  <smiles>  (26) 
[H]c1c([H])c([H])c2c(c1[H])C([H])([H])C([H])([H])C([H])([H])C2([H])N([H])C(=O)C1([H])N(C(=O)C([H])(N([H])C(=O)C([H])(N([H])C([H])([H])[H])C([H])([H])[H])C(C([H])([H])[H])(C([H])([H])[H])C([H])([H])[H])C([H])([H])c2c([H])c(OC([H])(C([H])([H])[H])C([H])(N([H])C(=O)c3sc(N([H])C(=O)N4C([H])([H])C([H])([H])C([H])([H])C([H])(n5nc(-c6c([H])c([H])c(Oc7c([H])c([H])c(F)c([H])c7F)c([H])c6[H])c(C(=O)N([H])[H])c5N([H])[H])C4([H])[H])nc3N([H])[H])C(F)(F)F)c([H])c([H])c2C1([H])[H]

$$$$
26:0:0
     RDKit          3D

 96104  0  0  1  0  0  0  0  0999 V2000
  -28.7990  -22.1160   20.0280 C   0  0  0  0  0  0  0  0  0  0  0  0
  -29.5610  -21.0330   20.4700 N   0  0  0  0  0  0  0  0  0  0  0  0
  -27.8940  -21.9180   19.2140 O   0  0  0  0  0  0  0  0  0  0  0  0
  -30.2580  -21.2830   21.1560 H   0  0  0  0  0  0  0  0  0  0  0  0
  -29.0570  -23.6460   20.5070 C   0  0  1  0  0  0  0  0  0  0  0  0
  -29.0340  -23.6490   21.8400 F   0  0  0  0  0  0  0  0  0  0  0  0
  -30.2920  -23.9700   20.1220 F   0  0  0  0  0  0  0  0  0  0  0  0
  -28.0680  -24.8470   19.9990 C   0  0  0  0  0  2  0  0  0  0  0  0
  -28.2800  -26.3250   20.2820 O   0  0  0  0  0  0  0  0  0  0  0  0
  -24.6210  -31.8790   23.2380 C   0  0  0  0  0  0  0  0  0  0  0  0
  -27.1910  -27.2340   20.2000 C   0  0  0  0  0  0  0  0  0  0  0  0
  -23.4090  -30.4790   21.6080 C   0  0  0  0  0  3  0  0  0  0  0  0
  -24.8470  -28.9090   20.1820 C   0  0  0  0  0  0  0  0  0  0  0  0
  -25.9550  -30.7630   21.4250 C   0  0  0  0  0  2  0  0  0  0  0  0
  -26.0240  -29.3770   20.7790 C   0  0  0  0  0  0  0  0  0  0  0  0
  -27.1970  -28.5510   20.7780 C   0  0  0  0  0  3  0  0  0  0  0  0
  -25.9910  -26.8440   19.5610 C   0  0  0  0  0  3  0  0  0  0  0  0
  -24.8370  -27.6530   19.5620 C   0  0  0  0  0  3  0  0  0  0  0  0
  -23.6180  -29.7980   20.2310 C   0  0  0  0  0  2  0  0  0  0  0  0
  -24.6810  -31.0580   22.1470 N   0  0  0  0  0  0  0  0  0  0  0  0
  -23.5400  -32.1670   23.7720 O   0  0  0  0  0  0  0  0  0  0  0  0
  -22.7360  -29.4740   22.5750 C   0  0  0  0  0  0  0  0  0  0  0  0
  -21.4060  -29.3080   22.4530 N   0  0  0  0  0  0  0  0  0  0  0  0
  -23.4100  -28.8450   23.3950 O   0  0  0  0  0  0  0  0  0  0  0  0
  -20.9200  -29.8670   21.7650 H   0  0  0  0  0  0  0  0  0  0  0  0
  -18.0230  -28.1340   22.9620 C   0  0  0  0  0  0  0  0  0  0  0  0
  -20.5830  -28.3820   23.2320 C   0  0  0  0  0  3  0  0  0  0  0  0
  -20.6790  -26.9450   22.6670 C   0  0  0  0  0  2  0  0  0  0  0  0
  -19.5770  -26.6200   21.6540 C   0  0  0  0  0  2  0  0  0  0  0  0
  -18.1960  -26.7780   22.2960 C   0  0  0  0  0  2  0  0  0  0  0  0
  -19.1450  -28.8920   23.3870 C   0  0  0  0  0  0  0  0  0  0  0  0
  -18.9320  -30.1600   23.9710 C   0  0  0  0  0  3  0  0  0  0  0  0
  -17.6300  -30.6690   24.1340 C   0  0  0  0  0  3  0  0  0  0  0  0
  -16.5220  -29.9060   23.7260 C   0  0  0  0  0  3  0  0  0  0  0  0
  -16.7190  -28.6410   23.1460 C   0  0  0  0  0  3  0  0  0  0  0  0
  -25.9090  -32.5080   23.8540 C   0  0  0  0  0  3  0  0  0  0  0  0
  -25.6040  -33.9060   24.1920 N   0  0  0  0  0  0  0  0  0  0  0  0
  -25.9300  -34.9630   23.4370 C   0  0  0  0  0  0  0  0  0  0  0  0
  -26.5860  -34.8640   22.3970 O   0  0  0  0  0  0  0  0  0  0  0  0
  -25.0180  -34.0580   25.0000 H   0  0  0  0  0  0  0  0  0  0  0  0
  -24.1930  -36.7570   23.1240 C   0  0  0  0  0  1  0  0  0  0  0  0
  -25.4510  -36.3490   23.9080 C   0  0  0  0  0  3  0  0  0  0  0  0
  -27.6030  -37.2300   24.6960 C   0  0  0  0  0  1  0  0  0  0  0  0
  -26.4780  -37.4050   23.7810 N   0  0  0  0  0  0  0  0  0  0  0  0
  -26.0750  -38.3220   23.9510 H   0  0  0  0  0  0  0  0  0  0  0  0
  -26.4320  -31.7330   25.1260 C   0  0  1  0  0  0  0  0  0  0  0  0
  -25.3450  -31.5010   26.2020 C   0  0  0  0  0  1  0  0  0  0  0  0
  -27.0050  -30.3540   24.7310 C   0  0  0  0  0  1  0  0  0  0  0  0
  -27.5890  -32.5220   25.7830 C   0  0  0  0  0  1  0  0  0  0  0  0
  -29.5910  -19.5360   20.0610 C   0  0  0  0  0  3  0  0  0  0  0  0
  -31.0990  -17.6540   23.2560 C   0  0  0  0  0  3  0  0  0  0  0  0
  -30.0660  -18.4720   21.1320 C   0  0  0  0  0  0  0  0  0  0  0  0
  -30.3150  -17.0520   21.1920 C   0  0  0  0  0  0  0  0  0  0  0  0
  -30.8900  -16.6530   22.4060 N   0  0  0  0  0  0  0  0  0  0  0  0
  -30.5940  -19.2050   22.6460 S   0  0  0  0  0  0  0  0  0  0  0  0
  -30.7320  -14.7600   20.0650 C   0  0  0  0  0  0  0  0  0  0  0  0
  -30.4300  -12.5180   18.9720 C   0  0  0  0  0  2  0  0  0  0  0  0
  -29.4270  -12.6020   17.8010 C   0  0  0  0  0  2  0  0  0  0  0  0
  -27.9780  -12.4450   18.3020 C   0  0  0  0  0  2  0  0  0  0  0  0
  -27.6790  -13.3240   19.5460 C   0  0  0  0  0  3  0  0  0  0  0  0
  -28.7920  -13.2110   20.6080 C   0  0  0  0  0  2  0  0  0  0  0  0
  -30.0540  -13.5650   19.9510 N   0  0  0  0  0  0  0  0  0  0  0  0
  -31.9120  -14.8230   19.7020 O   0  0  0  0  0  0  0  0  0  0  0  0
  -30.0010  -15.9260   20.2890 N   0  0  0  0  0  0  0  0  0  0  0  0
  -29.0120  -15.7800   20.1750 H   0  0  0  0  0  0  0  0  0  0  0  0
  -25.3430  -13.9440   20.4100 C   0  0  0  0  0  0  0  0  0  0  0  0
  -24.2850  -13.1810   20.8240 C   0  0  0  0  0  0  0  0  0  0  0  0
  -24.7250  -11.8240   20.7560 C   0  0  0  0  0  0  0  0  0  0  0  0
  -26.3600  -13.0520   20.1090 N   0  0  0  0  0  0  0  0  0  0  0  0
  -25.9980  -11.7720   20.3790 N   0  0  0  0  0  0  0  0  0  0  0  0
  -23.9880  -10.5720   20.9700 C   0  0  0  0  0  0  0  0  0  0  0  0
  -24.4470   -9.5890   21.8730 C   0  0  0  0  0  3  0  0  0  0  0  0
  -23.7100   -8.4000   22.0760 C   0  0  0  0  0  3  0  0  0  0  0  0
  -22.4990   -8.1880   21.3750 C   0  0  0  0  0  0  0  0  0  0  0  0
  -22.0580   -9.1590   20.4590 C   0  0  0  0  0  3  0  0  0  0  0  0
  -22.7960  -10.3370   20.2540 C   0  0  0  0  0  3  0  0  0  0  0  0
  -21.7290   -7.0550   21.4890 O   0  0  0  0  0  0  0  0  0  0  0  0
  -21.7150   -6.3070   22.6380 C   0  0  0  0  0  0  0  0  0  0  0  0
  -21.3720   -6.8660   23.8880 C   0  0  0  0  0  3  0  0  0  0  0  0
  -21.3030   -6.0460   25.0320 C   0  0  0  0  0  3  0  0  0  0  0  0
  -21.5690   -4.6690   24.9280 C   0  0  0  0  0  0  0  0  0  0  0  0
  -21.9050   -4.1070   23.6840 C   0  0  0  0  0  3  0  0  0  0  0  0
  -21.9770   -4.9240   22.5420 C   0  0  0  0  0  0  0  0  0  0  0  0
  -22.2810   -4.3740   21.3410 F   0  0  0  0  0  0  0  0  0  0  0  0
  -21.4950   -3.8790   26.0250 F   0  0  0  0  0  0  0  0  0  0  0  0
  -22.9080  -13.6770   21.1660 C   0  0  0  0  0  0  0  0  0  0  0  0
  -22.2150  -12.9930   22.0700 N   0  0  0  0  0  0  0  0  0  0  0  0
  -22.4600  -14.7090   20.6680 O   0  0  0  0  0  0  0  0  0  0  0  0
  -22.5890  -12.1580   22.4960 H   0  0  0  0  0  0  0  0  0  0  0  0
  -21.2940  -13.3100   22.3390 H   0  0  0  0  0  0  0  0  0  0  0  0
  -25.5190  -15.3140   20.2400 N   0  0  0  0  0  0  0  0  0  0  0  0
  -24.7700  -15.9780   20.4120 H   0  0  0  0  0  0  0  0  0  0  0  0
  -26.3460  -15.7540   19.8600 H   0  0  0  0  0  0  0  0  0  0  0  0
  -30.0210  -20.0790   17.5590 C   0  0  0  0  0  1  0  0  0  0  0  0
  -31.9820  -19.6530   19.1130 C   0  0  0  0  0  1  0  0  0  0  0  0
  -30.4990  -19.3420   18.8170 C   0  0  0  0  0  3  0  0  0  0  0  0
  1  2  1  0
  1  5  1  0
  2  4  1  0
  3  1  2  0
  5  6  1  1
  7  5  1  0
  8  9  1  0
  8  5  1  0
 10 21  2  0
 11  9  1  0
 11 16  1  0
 12 20  1  0
 12 22  1  0
 13 19  1  0
 13 15  1  0
 14 20  1  0
 15 14  1  0
 16 15  2  0
 17 18  1  0
 17 11  2  0
 18 13  2  0
 19 12  1  0
 20 10  1  0
 22 24  2  0
 23 22  1  0
 25 23  1  0
 26 35  2  0
 26 31  1  0
 27 23  1  0
 27 31  1  0
 28 27  1  0
 29 30  1  0
 29 28  1  0
 30 26  1  0
 31 32  2  0
 32 33  1  0
 34 33  2  0
 35 34  1  0
 36 10  1  0
 36 37  1  0
 36 46  1  0
 37 40  1  0
 38 42  1  0
 38 37  1  0
 39 38  2  0
 42 41  1  0
 44 42  1  0
 44 45  1  0
 44 43  1  0
 46 49  1  1
 46 47  1  0
 48 46  1  0
 50 96  1  0
 50  2  1  0
 50 52  1  0
 52 53  2  0
 52 55  1  0
 53 54  1  0
 54 51  2  0
 55 51  1  0
 56 64  1  0
 57 62  1  0
 58 59  1  0
 58 57  1  0
 60 59  1  0
 60 69  1  0
 60 61  1  0
 62 56  1  0
 62 61  1  0
 63 56  2  0
 64 53  1  0
 65 64  1  0
 66 67  2  0
 67 86  1  0
 68 67  1  0
 68 71  1  0
 69 70  1  0
 69 66  1  0
 70 68  2  0
 71 72  1  0
 72 73  2  0
 74 77  1  0
 74 73  1  0
 75 74  2  0
 76 75  1  0
 76 71  2  0
 77 78  1  0
 78 79  1  0
 79 80  2  0
 81 80  1  0
 81 85  1  0
 82 81  2  0
 83 78  2  0
 83 82  1  0
 84 83  1  0
 86 87  1  0
 87 90  1  0
 87 89  1  0
 88 86  2  0
 91 66  1  0
 91 92  1  0
 93 91  1  0
 94 96  1  0
 96 95  1  0
M  ISO  4   8 101   9 101  56 100  64 100
M  END
>  <TORSDO>  (27) 
F 21

>  <SCORE>  (27) 
-12.850

>  <name>  (27) 
26

>  <ligand_id>  (27) 
26

>  <original_smiles>  (27) 
[H]c1nc(N([H])C(=O)N2C([H])([H])C([H])([H])C([H])([H])C([H])(n3nc(-c4c([H])c([H])c(Oc5c([H])c([H])c(F)c([H])c5F)c([H])c4[H])c(C(=O)N([H])[H])c3N([H])[H])C2([H])[H])c(C([H])(N([H])C(=O)C(F)(F)C([H])([H])Oc2c([H])c([H])c3c(c2[H])C([H])([H])N(C(=O)C([H])(N([H])C(=O)C([H])(N([H])C([H])([H])[H])C([H])([H])[H])C(C([H])([H])[H])(C([H])([H])[H])C([H])([H])[H])C([H])(C(=O)N([H])C2([H])c4c([H])c([H])c([H])c([H])c4C([H])([H])C([H])([H])C2([H])[H])C3([H])[H])C([H])(C([H])([H])[H])C([H])([H])[H])s1

>  <smiles>  (27) 
[H]c1nc(N([H])C(=O)N2C([H])([H])C([H])([H])C([H])([H])C([H])(n3nc(-c4c([H])c([H])c(Oc5c([H])c([H])c(F)c([H])c5F)c([H])c4[H])c(C(=O)N([H])[H])c3N([H])[H])C2([H])[H])c(C([H])(N([H])C(=O)C(F)(F)C([H])([H])Oc2c([H])c([H])c3c(c2[H])C([H])([H])N(C(=O)C([H])(N([H])C(=O)C([H])(N([H])C([H])([H])[H])C([H])([H])[H])C(C([H])([H])[H])(C([H])([H])[H])C([H])([H])[H])C([H])(C(=O)N([H])C2([H])c4c([H])c([H])c([H])c([H])c4C([H])([H])C([H])([H])C2([H])[H])C3([H])[H])C([H])(C([H])([H])[H])C([H])([H])[H])s1

$$$$
27:0:0
     RDKit          3D

 96104  0  0  1  0  0  0  0  0999 V2000
  -30.3130  -19.8450   19.0210 N   0  0  0  0  0  0  0  0  0  0  0  0
  -31.1780  -19.5260   18.6010 H   0  0  0  0  0  0  0  0  0  0  0  0
  -30.8600  -14.9150   21.8630 C   0  0  0  0  0  0  0  0  0  0  0  0
  -31.0630  -12.4370   21.7340 C   0  0  0  0  0  2  0  0  0  0  0  0
  -30.6550  -11.9600   20.3220 C   0  0  0  0  0  2  0  0  0  0  0  0
  -29.1290  -11.7680   20.2180 C   0  0  0  0  0  2  0  0  0  0  0  0
  -28.3400  -12.9790   20.7800 C   0  0  0  0  0  3  0  0  0  0  0  0
  -28.8780  -13.3760   22.1740 C   0  0  0  0  0  2  0  0  0  0  0  0
  -30.3180  -13.6710   22.0460 N   0  0  0  0  0  0  0  0  0  0  0  0
  -32.0660  -15.0810   21.6380 O   0  0  0  0  0  0  0  0  0  0  0  0
  -28.0970  -17.0460   21.1790 C   0  0  0  0  0  3  0  0  0  0  0  0
  -28.1570  -18.9850   19.7430 C   0  0  0  0  0  3  0  0  0  0  0  0
  -27.4060  -18.0520   20.4820 C   0  0  0  0  0  0  0  0  0  0  0  0
  -29.5020  -16.9680   21.1470 C   0  0  0  0  0  0  0  0  0  0  0  0
  -29.5540  -18.8820   19.7250 C   0  0  0  0  0  0  0  0  0  0  0  0
  -30.2140  -17.8940   20.4180 N   0  0  0  0  0  0  0  0  0  0  0  0
  -29.9880  -15.9370   22.0340 N   0  0  0  0  0  0  0  0  0  0  0  0
  -29.2350  -15.5960   22.6070 H   0  0  0  0  0  0  0  0  0  0  0  0
  -25.8480  -13.5840   20.5350 C   0  0  0  0  0  0  0  0  0  0  0  0
  -24.7100  -12.8300   20.6280 C   0  0  0  0  0  0  0  0  0  0  0  0
  -25.1400  -11.5050   20.9440 C   0  0  0  0  0  0  0  0  0  0  0  0
  -26.9010  -12.7200   20.8020 N   0  0  0  0  0  0  0  0  0  0  0  0
  -26.4560  -11.4740   21.1030 N   0  0  0  0  0  0  0  0  0  0  0  0
  -24.3770  -10.2540   21.0520 C   0  0  0  0  0  0  0  0  0  0  0  0
  -24.6060   -9.3410   22.1040 C   0  0  0  0  0  3  0  0  0  0  0  0
  -23.8470   -8.1540   22.1990 C   0  0  0  0  0  3  0  0  0  0  0  0
  -22.8470   -7.8730   21.2400 C   0  0  0  0  0  0  0  0  0  0  0  0
  -22.6390   -8.7750   20.1820 C   0  0  0  0  0  3  0  0  0  0  0  0
  -23.3960   -9.9540   20.0850 C   0  0  0  0  0  3  0  0  0  0  0  0
  -22.0800   -6.7340   21.2350 O   0  0  0  0  0  0  0  0  0  0  0  0
  -21.5940   -6.1900   22.3960 C   0  0  0  0  0  0  0  0  0  0  0  0
  -20.9000   -6.9660   23.3500 C   0  0  0  0  0  3  0  0  0  0  0  0
  -20.3550   -6.3540   24.4960 C   0  0  0  0  0  3  0  0  0  0  0  0
  -20.4950   -4.9660   24.6880 C   0  0  0  0  0  0  0  0  0  0  0  0
  -21.1800   -4.1910   23.7370 C   0  0  0  0  0  3  0  0  0  0  0  0
  -21.7250   -4.8000   22.5940 C   0  0  0  0  0  0  0  0  0  0  0  0
  -22.3670   -4.0440   21.6710 F   0  0  0  0  0  0  0  0  0  0  0  0
  -19.9660   -4.3760   25.7850 F   0  0  0  0  0  0  0  0  0  0  0  0
  -23.3100  -13.2890   20.3410 C   0  0  0  0  0  0  0  0  0  0  0  0
  -22.3340  -12.7670   21.0740 N   0  0  0  0  0  0  0  0  0  0  0  0
  -23.0810  -14.1510   19.4940 O   0  0  0  0  0  0  0  0  0  0  0  0
  -22.5240  -12.0760   21.7850 H   0  0  0  0  0  0  0  0  0  0  0  0
  -21.3810  -13.0630   20.9210 H   0  0  0  0  0  0  0  0  0  0  0  0
  -26.0740  -14.9230   20.2320 N   0  0  0  0  0  0  0  0  0  0  0  0
  -25.3140  -15.5180   19.9220 H   0  0  0  0  0  0  0  0  0  0  0  0
  -26.9840  -15.3490   20.1170 H   0  0  0  0  0  0  0  0  0  0  0  0
  -25.9310  -18.1150   20.5600 C   0  0  0  0  0  3  0  0  0  0  0  0
  -25.1830  -18.7470   19.7560 N   0  0  0  0  0  0  0  0  0  0  0  0
  -25.7440  -19.2110   19.0520 H   0  0  0  0  0  0  0  0  0  0  0  0
  -29.7180  -21.0750   18.4100 C   0  0  0  0  0  2  0  0  0  0  0  0
  -29.5310  -22.3380   19.3160 C   0  0  0  0  0  0  0  0  0  0  0  0
  -29.6660  -22.2350   20.5410 O   0  0  0  0  0  0  0  0  0  0  0  0
  -29.1600  -23.7420   18.6650 C   0  0  0  0  0  0  0  0  0  0  0  0
  -29.2810  -23.9190   17.4450 O   0  0  0  0  0  0  0  0  0  0  0  0
  -28.6550  -24.9010   19.5840 C   0  0  0  0  0  2  0  0  0  0  0  0
  -28.7320  -26.2380   18.9940 O   0  0  0  0  0  0  0  0  0  0  0  0
  -25.1430  -30.8480   23.1480 C   0  0  0  0  0  0  0  0  0  0  0  0
  -27.6220  -27.0490   19.1680 C   0  0  0  0  0  0  0  0  0  0  0  0
  -23.9060  -29.9180   21.2230 C   0  0  0  0  0  3  0  0  0  0  0  0
  -25.3100  -28.6650   19.4950 C   0  0  0  0  0  0  0  0  0  0  0  0
  -26.4510  -30.1770   21.1280 C   0  0  0  0  0  2  0  0  0  0  0  0
  -26.4840  -28.9800   20.1930 C   0  0  0  0  0  0  0  0  0  0  0  0
  -27.6460  -28.1860   20.0190 C   0  0  0  0  0  3  0  0  0  0  0  0
  -26.4320  -26.7610   18.4680 C   0  0  0  0  0  3  0  0  0  0  0  0
  -25.2830  -27.5610   18.6260 C   0  0  0  0  0  3  0  0  0  0  0  0
  -24.1090  -29.5580   19.7260 C   0  0  0  0  0  2  0  0  0  0  0  0
  -25.1860  -30.3160   21.8930 N   0  0  0  0  0  0  0  0  0  0  0  0
  -24.0650  -31.0440   23.7260 O   0  0  0  0  0  0  0  0  0  0  0  0
  -23.1860  -28.7420   21.9210 C   0  0  0  0  0  0  0  0  0  0  0  0
  -21.8500  -28.6980   21.7950 N   0  0  0  0  0  0  0  0  0  0  0  0
  -23.8270  -27.8830   22.5340 O   0  0  0  0  0  0  0  0  0  0  0  0
  -21.3990  -29.4430   21.2820 H   0  0  0  0  0  0  0  0  0  0  0  0
  -18.3920  -27.6970   22.1290 C   0  0  0  0  0  0  0  0  0  0  0  0
  -20.9680  -27.6620   22.3330 C   0  0  0  0  0  3  0  0  0  0  0  0
  -20.9230  -26.4310   21.3980 C   0  0  0  0  0  2  0  0  0  0  0  0
  -19.7700  -26.4800   20.3910 C   0  0  0  0  0  2  0  0  0  0  0  0
  -18.4240  -26.5630   21.1190 C   0  0  0  0  0  2  0  0  0  0  0  0
  -19.5860  -28.2240   22.6880 C   0  0  0  0  0  0  0  0  0  0  0  0
  -19.5020  -29.2990   23.5980 C   0  0  0  0  0  3  0  0  0  0  0  0
  -18.2530  -29.8400   23.9590 C   0  0  0  0  0  3  0  0  0  0  0  0
  -17.0720  -29.3070   23.4140 C   0  0  0  0  0  3  0  0  0  0  0  0
  -17.1420  -28.2360   22.5040 C   0  0  0  0  0  3  0  0  0  0  0  0
  -26.4450  -31.2580   23.9080 C   0  0  0  0  0  3  0  0  0  0  0  0
  -26.1720  -32.5230   24.6030 N   0  0  0  0  0  0  0  0  0  0  0  0
  -26.5950  -33.7250   24.1890 C   0  0  0  0  0  0  0  0  0  0  0  0
  -27.3230  -33.8760   23.2050 O   0  0  0  0  0  0  0  0  0  0  0  0
  -25.5390  -32.4830   25.3880 H   0  0  0  0  0  0  0  0  0  0  0  0
  -24.9980  -35.6680   24.2500 C   0  0  0  0  0  1  0  0  0  0  0  0
  -26.1370  -34.9550   24.9970 C   0  0  0  0  0  3  0  0  0  0  0  0
  -28.2190  -35.4080   26.2200 C   0  0  0  0  0  1  0  0  0  0  0  0
  -27.2260  -35.9170   25.2760 N   0  0  0  0  0  0  0  0  0  0  0  0
  -26.8520  -36.7850   25.6480 H   0  0  0  0  0  0  0  0  0  0  0  0
  -26.9400  -30.1590   24.9270 C   0  0  1  0  0  0  0  0  0  0  0  0
  -25.8410  -29.6720   25.8990 C   0  0  0  0  0  1  0  0  0  0  0  0
  -27.4880  -28.9250   24.1720 C   0  0  0  0  0  1  0  0  0  0  0  0
  -28.1100  -30.7190   25.7710 C   0  0  0  0  0  1  0  0  0  0  0  0
  1 15  1  0
  2  1  1  0
  3 17  1  0
  3  9  1  0
  4  9  1  0
  5  4  1  0
  6  5  1  0
  7  6  1  0
  7 22  1  0
  7  8  1  0
  9  8  1  0
 10  3  2  0
 12 13  1  0
 13 47  1  0
 13 11  2  0
 14 11  1  0
 14 17  1  0
 15 12  2  0
 15 16  1  0
 16 14  2  0
 17 18  1  0
 19 20  2  0
 19 22  1  0
 20 21  1  0
 21 24  1  0
 21 23  2  0
 22 23  1  0
 24 25  1  0
 25 26  2  0
 27 26  1  0
 28 27  2  0
 29 28  1  0
 29 24  2  0
 30 27  1  0
 30 31  1  0
 31 36  2  0
 31 32  1  0
 32 33  2  0
 33 34  1  0
 34 38  1  0
 35 34  2  0
 36 35  1  0
 37 36  1  0
 39 20  1  0
 39 40  1  0
 40 42  1  0
 41 39  2  0
 43 40  1  0
 44 19  1  0
 45 44  1  0
 46 44  1  0
 48 47  2  0
 49 48  1  0
 50  1  1  0
 50 51  1  0
 51 52  2  0
 53 51  1  0
 53 55  1  0
 54 53  2  0
 56 58  1  0
 56 55  1  0
 57 68  2  0
 58 63  1  0
 59 67  1  0
 59 69  1  0
 60 66  1  0
 60 62  1  0
 61 67  1  0
 62 61  1  0
 63 62  2  0
 64 65  1  0
 64 58  2  0
 65 60  2  0
 66 59  1  0
 67 57  1  0
 69 71  2  0
 70 69  1  0
 72 70  1  0
 73 82  2  0
 73 78  1  0
 74 70  1  0
 74 78  1  0
 75 74  1  0
 76 77  1  0
 76 75  1  0
 77 73  1  0
 78 79  2  0
 79 80  1  0
 81 80  2  0
 82 81  1  0
 83 57  1  0
 83 84  1  0
 83 93  1  0
 84 87  1  0
 85 84  1  0
 85 89  1  0
 86 85  2  0
 89 88  1  0
 89 91  1  0
 91 92  1  0
 91 90  1  0
 93 96  1  1
 93 94  1  0
 95 93  1  0
M  ISO  4   3 100  17 100  55 101  56 101
M  END
>  <TORSDO>  (28) 
F 21

>  <SCORE>  (28) 
-5.305

>  <name>  (28) 
27

>  <ligand_id>  (28) 
27

>  <original_smiles>  (28) 
[H]N=C([H])c1c([H])c(N([H])C(=O)N2C([H])([H])C([H])([H])C([H])([H])C([H])(n3nc(-c4c([H])c([H])c(Oc5c([H])c([H])c(F)c([H])c5F)c([H])c4[H])c(C(=O)N([H])[H])c3N([H])[H])C2([H])[H])nc(N([H])C([H])([H])C(=O)C(=O)C([H])([H])Oc2c([H])c([H])c3c(c2[H])C([H])([H])N(C(=O)C([H])(N([H])C(=O)C([H])(N([H])C([H])([H])[H])C([H])([H])[H])C(C([H])([H])[H])(C([H])([H])[H])C([H])([H])[H])C([H])(C(=O)N([H])C2([H])c4c([H])c([H])c([H])c([H])c4C([H])([H])C([H])([H])C2([H])[H])C3([H])[H])c1[H]

>  <smiles>  (28) 
[H]N=C([H])c1c([H])c(N([H])C(=O)N2C([H])([H])C([H])([H])C([H])([H])C([H])(n3nc(-c4c([H])c([H])c(Oc5c([H])c([H])c(F)c([H])c5F)c([H])c4[H])c(C(=O)N([H])[H])c3N([H])[H])C2([H])[H])nc(N([H])C([H])([H])C(=O)C(=O)C([H])([H])Oc2c([H])c([H])c3c(c2[H])C([H])([H])N(C(=O)C([H])(N([H])C(=O)C([H])(N([H])C([H])([H])[H])C([H])([H])[H])C(C([H])([H])[H])(C([H])([H])[H])C([H])([H])[H])C([H])(C(=O)N([H])C2([H])c4c([H])c([H])c([H])c([H])c4C([H])([H])C([H])([H])C2([H])[H])C3([H])[H])c1[H]

$$$$
28:0:0
     RDKit          3D

 98106  0  0  1  0  0  0  0  0999 V2000
  -29.6630  -21.6870   20.6640 C   0  0  0  0  0  0  0  0  0  0  0  0
  -30.5250  -20.6430   20.4540 N   0  0  0  0  0  0  0  0  0  0  0  0
  -28.7440  -21.6080   21.4800 O   0  0  0  0  0  0  0  0  0  0  0  0
  -31.1610  -20.7360   19.6740 H   0  0  0  0  0  0  0  0  0  0  0  0
  -30.7430  -14.7140   20.1120 C   0  0  0  0  0  0  0  0  0  0  0  0
  -30.4480  -12.5480   18.9290 C   0  0  0  0  0  2  0  0  0  0  0  0
  -29.4300  -12.7190   17.7790 C   0  0  0  0  0  2  0  0  0  0  0  0
  -27.9870  -12.5420   18.2900 C   0  0  0  0  0  2  0  0  0  0  0  0
  -27.6990  -13.3540   19.5830 C   0  0  0  0  0  3  0  0  0  0  0  0
  -28.8240  -13.1480   20.6280 C   0  0  0  0  0  2  0  0  0  0  0  0
  -30.1010  -13.5110   19.9890 N   0  0  0  0  0  0  0  0  0  0  0  0
  -31.8560  -14.9140   19.6090 O   0  0  0  0  0  0  0  0  0  0  0  0
  -30.9200  -18.1520   23.2530 C   0  0  0  0  0  3  0  0  0  0  0  0
  -30.6420  -16.9620   22.5680 C   0  0  0  0  0  3  0  0  0  0  0  0
  -30.9750  -19.3760   22.5540 C   0  0  0  0  0  0  0  0  0  0  0  0
  -30.4160  -16.9840   21.1830 C   0  0  0  0  0  0  0  0  0  0  0  0
  -30.6130  -19.3860   21.1760 C   0  0  0  0  0  0  0  0  0  0  0  0
  -30.3880  -18.1880   20.5250 N   0  0  0  0  0  0  0  0  0  0  0  0
  -29.9990  -15.7260   20.6260 N   0  0  0  0  0  0  0  0  0  0  0  0
  -29.0770  -15.4400   20.9080 H   0  0  0  0  0  0  0  0  0  0  0  0
  -25.3500  -13.9310   20.4620 C   0  0  0  0  0  0  0  0  0  0  0  0
  -24.3030  -13.1510   20.8640 C   0  0  0  0  0  0  0  0  0  0  0  0
  -24.7550  -11.8000   20.7580 C   0  0  0  0  0  0  0  0  0  0  0  0
  -26.3760  -13.0600   20.1310 N   0  0  0  0  0  0  0  0  0  0  0  0
  -26.0240  -11.7690   20.3710 N   0  0  0  0  0  0  0  0  0  0  0  0
  -24.0370  -10.5340   20.9520 C   0  0  0  0  0  0  0  0  0  0  0  0
  -24.4740   -9.5720   21.8900 C   0  0  0  0  0  3  0  0  0  0  0  0
  -23.7560   -8.3690   22.0670 C   0  0  0  0  0  3  0  0  0  0  0  0
  -22.5870   -8.1210   21.3070 C   0  0  0  0  0  0  0  0  0  0  0  0
  -22.1690   -9.0740   20.3610 C   0  0  0  0  0  3  0  0  0  0  0  0
  -22.8870  -10.2660   20.1820 C   0  0  0  0  0  3  0  0  0  0  0  0
  -21.8370   -6.9710   21.3970 O   0  0  0  0  0  0  0  0  0  0  0  0
  -21.7290   -6.2720   22.5720 C   0  0  0  0  0  0  0  0  0  0  0  0
  -21.2000   -6.8600   23.7430 C   0  0  0  0  0  3  0  0  0  0  0  0
  -21.0400   -6.0840   24.9080 C   0  0  0  0  0  3  0  0  0  0  0  0
  -21.3940   -4.7210   24.9040 C   0  0  0  0  0  0  0  0  0  0  0  0
  -21.9150   -4.1350   23.7380 C   0  0  0  0  0  3  0  0  0  0  0  0
  -22.0770   -4.9060   22.5750 C   0  0  0  0  0  0  0  0  0  0  0  0
  -22.5610   -4.3280   21.4490 F   0  0  0  0  0  0  0  0  0  0  0  0
  -21.2320   -3.9780   26.0220 F   0  0  0  0  0  0  0  0  0  0  0  0
  -22.9230  -13.6200   21.2350 C   0  0  0  0  0  0  0  0  0  0  0  0
  -22.2400  -12.9010   22.1160 N   0  0  0  0  0  0  0  0  0  0  0  0
  -22.4630  -14.6650   20.7740 O   0  0  0  0  0  0  0  0  0  0  0  0
  -22.6260  -12.0540   22.5070 H   0  0  0  0  0  0  0  0  0  0  0  0
  -21.3180  -13.1980   22.3990 H   0  0  0  0  0  0  0  0  0  0  0  0
  -25.5010  -15.3100   20.3270 N   0  0  0  0  0  0  0  0  0  0  0  0
  -24.7320  -15.9320   20.5510 H   0  0  0  0  0  0  0  0  0  0  0  0
  -26.2760  -15.7820   19.8840 H   0  0  0  0  0  0  0  0  0  0  0  0
  -31.4320  -20.6070   23.3490 C   0  0  1  0  0  0  0  0  0  0  0  0
  -30.3890  -21.1850   23.9430 F   0  0  0  0  0  0  0  0  0  0  0  0
  -32.2830  -20.2240   24.3020 F   0  0  0  0  0  0  0  0  0  0  0  0
  -32.0720  -21.5130   22.6000 F   0  0  0  0  0  0  0  0  0  0  0  0
  -29.8090  -23.0130   19.8340 C   0  0  0  0  0  3  0  0  0  0  0  0
  -29.0170  -24.2840   20.3610 C   0  0  0  0  0  3  0  0  0  0  0  0
  -30.2340  -26.0010   18.9180 C   0  0  0  0  0  1  0  0  0  0  0  0
  -28.0080  -25.1220   18.1200 C   0  0  0  0  0  1  0  0  0  0  0  0
  -28.8330  -25.5190   19.3830 C   0  0  1  0  0  0  0  0  0  0  0  0
  -28.3990  -26.7260   20.1140 O   0  0  0  0  0  0  0  0  0  0  0  0
  -24.5990  -31.9590   23.1970 C   0  0  0  0  0  0  0  0  0  0  0  0
  -27.1720  -27.4030   20.1170 C   0  0  0  0  0  0  0  0  0  0  0  0
  -23.3610  -30.5460   21.5950 C   0  0  0  0  0  3  0  0  0  0  0  0
  -24.7730  -28.9570   20.1760 C   0  0  0  0  0  0  0  0  0  0  0  0
  -25.8880  -30.8670   21.3410 C   0  0  0  0  0  2  0  0  0  0  0  0
  -25.9510  -29.4790   20.7200 C   0  0  0  0  0  0  0  0  0  0  0  0
  -27.1460  -28.7160   20.6680 C   0  0  0  0  0  3  0  0  0  0  0  0
  -25.9440  -26.8750   19.6540 C   0  0  0  0  0  3  0  0  0  0  0  0
  -24.7680  -27.6560   19.6430 C   0  0  0  0  0  3  0  0  0  0  0  0
  -23.5330  -29.8250   20.2320 C   0  0  0  0  0  2  0  0  0  0  0  0
  -24.6390  -31.1410   22.1050 N   0  0  0  0  0  0  0  0  0  0  0  0
  -23.5260  -32.2440   23.7500 O   0  0  0  0  0  0  0  0  0  0  0  0
  -22.7120  -29.5520   22.5860 C   0  0  0  0  0  0  0  0  0  0  0  0
  -21.3880  -29.3540   22.4590 N   0  0  0  0  0  0  0  0  0  0  0  0
  -23.3960  -28.9540   23.4190 O   0  0  0  0  0  0  0  0  0  0  0  0
  -20.8960  -29.8750   21.7450 H   0  0  0  0  0  0  0  0  0  0  0  0
  -18.0330  -28.1220   22.9780 C   0  0  0  0  0  0  0  0  0  0  0  0
  -20.5860  -28.4240   23.2500 C   0  0  0  0  0  3  0  0  0  0  0  0
  -20.7100  -26.9820   22.7050 C   0  0  0  0  0  2  0  0  0  0  0  0
  -19.6180  -26.6220   21.6950 C   0  0  0  0  0  2  0  0  0  0  0  0
  -18.2330  -26.7630   22.3330 C   0  0  0  0  0  2  0  0  0  0  0  0
  -19.1390  -28.9090   23.3970 C   0  0  0  0  0  0  0  0  0  0  0  0
  -18.9010  -30.1820   23.9600 C   0  0  0  0  0  3  0  0  0  0  0  0
  -17.5890  -30.6640   24.1180 C   0  0  0  0  0  3  0  0  0  0  0  0
  -16.4980  -29.8750   23.7170 C   0  0  0  0  0  3  0  0  0  0  0  0
  -16.7200  -28.6080   23.1490 C   0  0  0  0  0  3  0  0  0  0  0  0
  -25.8910  -32.5910   23.7980 C   0  0  0  0  0  3  0  0  0  0  0  0
  -26.4350  -31.8110   25.0560 C   0  0  1  0  0  0  0  0  0  0  0  0
  -25.3620  -31.5380   26.1390 C   0  0  0  0  0  1  0  0  0  0  0  0
  -27.0230  -30.4470   24.6320 C   0  0  0  0  0  1  0  0  0  0  0  0
  -27.5970  -32.5980   25.7080 C   0  0  0  0  0  1  0  0  0  0  0  0
  -25.5840  -33.9840   24.1550 N   0  0  0  0  0  0  0  0  0  0  0  0
  -25.9010  -35.0490   23.4070 C   0  0  0  0  0  0  0  0  0  0  0  0
  -26.5530  -34.9610   22.3630 O   0  0  0  0  0  0  0  0  0  0  0  0
  -25.0090  -34.1230   24.9730 H   0  0  0  0  0  0  0  0  0  0  0  0
  -24.1600  -36.8320   23.0900 C   0  0  0  0  0  1  0  0  0  0  0  0
  -25.4120  -36.4300   23.8870 C   0  0  0  0  0  3  0  0  0  0  0  0
  -27.5520  -37.3070   24.7130 C   0  0  0  0  0  1  0  0  0  0  0  0
  -26.4430  -37.4870   23.7780 N   0  0  0  0  0  0  0  0  0  0  0  0
  -26.0400  -38.4050   23.9380 H   0  0  0  0  0  0  0  0  0  0  0  0
  1  3  2  0
  2  1  1  0
  2 17  1  0
  4  2  1  0
  5 19  1  0
  6 11  1  0
  7  8  1  0
  7  6  1  0
  9  8  1  0
  9 24  1  0
  9 10  1  0
 11  5  1  0
 11 10  1  0
 12  5  2  0
 14 13  1  0
 15 13  2  0
 15 49  1  0
 16 14  2  0
 17 15  1  0
 18 17  2  0
 18 16  1  0
 19 20  1  0
 19 16  1  0
 21 22  2  0
 22 41  1  0
 23 22  1  0
 23 26  1  0
 24 25  1  0
 24 21  1  0
 25 23  2  0
 26 27  1  0
 27 28  2  0
 29 32  1  0
 29 28  1  0
 30 29  2  0
 31 30  1  0
 31 26  2  0
 32 33  1  0
 33 38  2  0
 33 34  1  0
 34 35  2  0
 36 35  1  0
 36 40  1  0
 37 36  2  0
 38 37  1  0
 39 38  1  0
 41 42  1  0
 42 45  1  0
 42 44  1  0
 43 41  2  0
 46 21  1  0
 46 47  1  0
 48 46  1  0
 49 50  1  1
 49 51  1  0
 52 49  1  0
 53 54  2  0
 53  1  1  0
 57 55  1  6
 56 57  1  0
 57 58  1  0
 57 54  1  0
 58 60  1  0
 59 70  2  0
 60 65  1  0
 61 69  1  0
 61 71  1  0
 62 68  1  0
 62 64  1  0
 63 69  1  0
 64 63  1  0
 65 64  2  0
 66 60  2  0
 67 66  1  0
 67 62  2  0
 68 61  1  0
 69 59  1  0
 71 73  2  0
 72 71  1  0
 74 72  1  0
 75 84  2  0
 75 80  1  0
 76 72  1  0
 76 80  1  0
 77 76  1  0
 78 79  1  0
 78 77  1  0
 79 75  1  0
 80 81  2  0
 81 82  1  0
 83 82  2  0
 84 83  1  0
 85 59  1  0
 85 90  1  0
 85 86  1  0
 86 89  1  1
 86 87  1  0
 88 86  1  0
 90 93  1  0
 91 95  1  0
 91 90  1  0
 92 91  2  0
 95 94  1  0
 97 95  1  0
 97 98  1  0
 97 96  1  0
M  ISO  4   5 100  19 100  57 101  58 101
M  END
>  <TORSDO>  (29) 
F 20

>  <SCORE>  (29) 
-13.853

>  <name>  (29) 
28

>  <ligand_id>  (29) 
28

>  <original_smiles>  (29) 
[H]c1c(N([H])C(=O)N2C([H])([H])C([H])([H])C([H])([H])C([H])(n3nc(-c4c([H])c([H])c(Oc5c([H])c([H])c(F)c([H])c5F)c([H])c4[H])c(C(=O)N([H])[H])c3N([H])[H])C2([H])[H])nc(N([H])C(=O)C([H])([H])C([H])([H])C(Oc2c([H])c([H])c3c(c2[H])C([H])([H])N(C(=O)C([H])(N([H])C(=O)C([H])(N([H])C([H])([H])[H])C([H])([H])[H])C(C([H])([H])[H])(C([H])([H])[H])C([H])([H])[H])C([H])(C(=O)N([H])C2([H])c4c([H])c([H])c([H])c([H])c4C([H])([H])C([H])([H])C2([H])[H])C3([H])[H])(C([H])([H])[H])C([H])([H])[H])c(C(F)(F)F)c1[H]

>  <smiles>  (29) 
[H]c1c(N([H])C(=O)N2C([H])([H])C([H])([H])C([H])([H])C([H])(n3nc(-c4c([H])c([H])c(Oc5c([H])c([H])c(F)c([H])c5F)c([H])c4[H])c(C(=O)N([H])[H])c3N([H])[H])C2([H])[H])nc(N([H])C(=O)C([H])([H])C([H])([H])C(Oc2c([H])c([H])c3c(c2[H])C([H])([H])N(C(=O)C([H])(N([H])C(=O)C([H])(N([H])C([H])([H])[H])C([H])([H])[H])C(C([H])([H])[H])(C([H])([H])[H])C([H])([H])[H])C([H])(C(=O)N([H])C2([H])c4c([H])c([H])c([H])c([H])c4C([H])([H])C([H])([H])C2([H])[H])C3([H])[H])(C([H])([H])[H])C([H])([H])[H])c(C(F)(F)F)c1[H]

$$$$
29:0:0
     RDKit          3D

 98106  0  0  1  0  0  0  0  0999 V2000
  -29.4150  -22.6620   22.1560 C   0  0  0  0  0  0  0  0  0  0  0  0
  -30.2890  -21.7320   21.7110 N   0  0  0  0  0  0  0  0  0  0  0  0
  -28.8690  -22.5320   23.2530 O   0  0  0  0  0  0  0  0  0  0  0  0
  -30.7300  -21.8350   20.8080 H   0  0  0  0  0  0  0  0  0  0  0  0
  -29.0630  -23.8840   21.2600 C   0  0  0  0  0  2  0  0  0  0  0  0
  -27.4600  -25.4480   22.6370 C   0  0  0  0  0  1  0  0  0  0  0  0
  -28.8340  -25.2840   21.9480 C   0  0  1  0  0  0  0  0  0  0  0  0
  -29.7440  -25.3980   22.9210 F   0  0  0  0  0  0  0  0  0  0  0  0
  -29.1140  -26.5050   21.0100 C   0  0  0  0  0  2  0  0  0  0  0  0
  -28.2790  -26.6150   19.8380 O   0  0  0  0  0  0  0  0  0  0  0  0
  -24.5740  -31.7670   23.1090 C   0  0  0  0  0  0  0  0  0  0  0  0
  -27.1530  -27.4130   19.8960 C   0  0  0  0  0  0  0  0  0  0  0  0
  -23.3230  -30.4030   21.4640 C   0  0  0  0  0  3  0  0  0  0  0  0
  -24.7460  -28.9090   19.9610 C   0  0  0  0  0  0  0  0  0  0  0  0
  -25.8350  -30.7890   21.1980 C   0  0  0  0  0  2  0  0  0  0  0  0
  -25.9140  -29.4300   20.5330 C   0  0  0  0  0  0  0  0  0  0  0  0
  -27.1190  -28.6950   20.4960 C   0  0  0  0  0  3  0  0  0  0  0  0
  -25.9750  -26.9160   19.2990 C   0  0  0  0  0  3  0  0  0  0  0  0
  -24.7730  -27.6510   19.3350 C   0  0  0  0  0  3  0  0  0  0  0  0
  -23.4970  -29.7580   20.0620 C   0  0  0  0  0  2  0  0  0  0  0  0
  -24.5970  -30.9990   21.9830 N   0  0  0  0  0  0  0  0  0  0  0  0
  -23.5090  -32.0180   23.6900 O   0  0  0  0  0  0  0  0  0  0  0  0
  -22.7060  -29.3530   22.4170 C   0  0  0  0  0  0  0  0  0  0  0  0
  -21.3880  -29.1270   22.2900 N   0  0  0  0  0  0  0  0  0  0  0  0
  -23.4110  -28.7430   23.2270 O   0  0  0  0  0  0  0  0  0  0  0  0
  -20.8790  -29.6700   21.6060 H   0  0  0  0  0  0  0  0  0  0  0  0
  -18.0640  -27.7910   22.7460 C   0  0  0  0  0  0  0  0  0  0  0  0
  -20.6050  -28.1560   23.0530 C   0  0  0  0  0  3  0  0  0  0  0  0
  -20.7770  -26.7290   22.4850 C   0  0  0  0  0  2  0  0  0  0  0  0
  -19.7050  -26.3570   21.4560 C   0  0  0  0  0  2  0  0  0  0  0  0
  -18.3080  -26.4490   22.0760 C   0  0  0  0  0  2  0  0  0  0  0  0
  -19.1440  -28.6000   23.1900 C   0  0  0  0  0  0  0  0  0  0  0  0
  -18.8640  -29.8560   23.7720 C   0  0  0  0  0  3  0  0  0  0  0  0
  -17.5380  -30.3040   23.9150 C   0  0  0  0  0  3  0  0  0  0  0  0
  -16.4720  -29.4910   23.4900 C   0  0  0  0  0  3  0  0  0  0  0  0
  -16.7360  -28.2370   22.9110 C   0  0  0  0  0  3  0  0  0  0  0  0
  -25.8780  -32.3850   23.7050 C   0  0  0  0  0  3  0  0  0  0  0  0
  -25.5750  -33.7700   24.0870 N   0  0  0  0  0  0  0  0  0  0  0  0
  -25.8950  -34.8480   23.3560 C   0  0  0  0  0  0  0  0  0  0  0  0
  -26.5510  -34.7780   22.3140 O   0  0  0  0  0  0  0  0  0  0  0  0
  -25.0020  -33.9010   24.9070 H   0  0  0  0  0  0  0  0  0  0  0  0
  -24.1590  -36.6410   23.0750 C   0  0  0  0  0  1  0  0  0  0  0  0
  -25.4090  -36.2180   23.8650 C   0  0  0  0  0  3  0  0  0  0  0  0
  -27.5530  -37.0690   24.7040 C   0  0  0  0  0  1  0  0  0  0  0  0
  -26.4380  -37.2780   23.7830 N   0  0  0  0  0  0  0  0  0  0  0  0
  -26.0320  -38.1880   23.9830 H   0  0  0  0  0  0  0  0  0  0  0  0
  -26.4440  -31.5760   24.9350 C   0  0  1  0  0  0  0  0  0  0  0  0
  -25.3850  -31.2690   26.0180 C   0  0  0  0  0  1  0  0  0  0  0  0
  -27.0460  -30.2280   24.4690 C   0  0  0  0  0  1  0  0  0  0  0  0
  -27.5920  -32.3690   25.6020 C   0  0  0  0  0  1  0  0  0  0  0  0
  -30.7220  -20.5660   22.5160 C   0  0  0  0  0  3  0  0  0  0  0  0
  -31.5770  -17.7740   20.1460 C   0  0  0  0  0  3  0  0  0  0  0  0
  -30.9000  -16.8950   20.9690 C   0  0  0  0  0  0  0  0  0  0  0  0
  -30.8290  -19.2920   21.6950 C   0  0  0  0  0  0  0  0  0  0  0  0
  -31.5200  -19.1200   20.5560 N   0  0  0  0  0  0  0  0  0  0  0  0
  -30.1530  -17.7730   22.2830 S   0  0  0  0  0  0  0  0  0  0  0  0
  -31.2940  -14.6340   20.0830 C   0  0  0  0  0  0  0  0  0  0  0  0
  -30.9170  -12.4750   18.9310 C   0  0  0  0  0  2  0  0  0  0  0  0
  -29.9170  -12.6780   17.7730 C   0  0  0  0  0  2  0  0  0  0  0  0
  -28.4610  -12.5760   18.2690 C   0  0  0  0  0  2  0  0  0  0  0  0
  -28.2010  -13.4320   19.5380 C   0  0  0  0  0  3  0  0  0  0  0  0
  -29.2980  -13.1750   20.5940 C   0  0  0  0  0  2  0  0  0  0  0  0
  -30.6080  -13.4620   19.9780 N   0  0  0  0  0  0  0  0  0  0  0  0
  -32.3410  -14.8600   19.4640 O   0  0  0  0  0  0  0  0  0  0  0  0
  -30.7220  -15.5430   20.8960 N   0  0  0  0  0  0  0  0  0  0  0  0
  -29.9570  -15.1750   21.4420 H   0  0  0  0  0  0  0  0  0  0  0  0
  -25.8660  -14.1140   20.3870 C   0  0  0  0  0  0  0  0  0  0  0  0
  -24.7880  -13.3760   20.7910 C   0  0  0  0  0  0  0  0  0  0  0  0
  -25.1900  -12.0070   20.6960 C   0  0  0  0  0  0  0  0  0  0  0  0
  -26.8610  -13.2000   20.0770 N   0  0  0  0  0  0  0  0  0  0  0  0
  -26.4580  -11.9240   20.3170 N   0  0  0  0  0  0  0  0  0  0  0  0
  -24.4240  -10.7690   20.8910 C   0  0  0  0  0  0  0  0  0  0  0  0
  -24.8070   -9.8050   21.8500 C   0  0  0  0  0  3  0  0  0  0  0  0
  -24.0430   -8.6320   22.0310 C   0  0  0  0  0  3  0  0  0  0  0  0
  -22.8820   -8.4140   21.2520 C   0  0  0  0  0  0  0  0  0  0  0  0
  -22.5180   -9.3660   20.2840 C   0  0  0  0  0  3  0  0  0  0  0  0
  -23.2810  -10.5300   20.1010 C   0  0  0  0  0  3  0  0  0  0  0  0
  -22.0950   -7.2920   21.3390 O   0  0  0  0  0  0  0  0  0  0  0  0
  -21.9110   -6.6330   22.5280 C   0  0  0  0  0  0  0  0  0  0  0  0
  -21.3720   -7.2790   23.6630 C   0  0  0  0  0  3  0  0  0  0  0  0
  -21.1360   -6.5470   24.8430 C   0  0  0  0  0  3  0  0  0  0  0  0
  -21.4260   -5.1700   24.8900 C   0  0  0  0  0  0  0  0  0  0  0  0
  -21.9560   -4.5230   23.7580 C   0  0  0  0  0  3  0  0  0  0  0  0
  -22.1940   -5.2530   22.5800 C   0  0  0  0  0  0  0  0  0  0  0  0
  -22.6840   -4.6220   21.4870 F   0  0  0  0  0  0  0  0  0  0  0  0
  -21.1910   -4.4650   26.0200 F   0  0  0  0  0  0  0  0  0  0  0  0
  -23.4280  -13.8980   21.1580 C   0  0  0  0  0  0  0  0  0  0  0  0
  -22.7360  -13.2210   22.0670 N   0  0  0  0  0  0  0  0  0  0  0  0
  -22.9910  -14.9420   20.6720 O   0  0  0  0  0  0  0  0  0  0  0  0
  -23.0990  -12.3760   22.4810 H   0  0  0  0  0  0  0  0  0  0  0  0
  -21.8260  -13.5560   22.3550 H   0  0  0  0  0  0  0  0  0  0  0  0
  -26.0790  -15.4830   20.2420 N   0  0  0  0  0  0  0  0  0  0  0  0
  -25.3460  -16.1640   20.4040 H   0  0  0  0  0  0  0  0  0  0  0  0
  -26.9350  -15.8980   19.8980 H   0  0  0  0  0  0  0  0  0  0  0  0
  -32.0240  -20.8470   23.3080 C   0  0  1  0  0  0  0  0  0  0  0  0
  -32.2700  -19.8400   24.1470 F   0  0  0  0  0  0  0  0  0  0  0  0
  -33.0670  -20.9730   22.4840 F   0  0  0  0  0  0  0  0  0  0  0  0
  -31.9360  -21.9630   24.0340 F   0  0  0  0  0  0  0  0  0  0  0  0
  1  3  2  0
  2  1  1  0
  4  2  1  0
  5  7  1  0
  5  1  1  0
  7  6  1  1
  7  8  1  0
  9  7  1  0
 10 12  1  0
 10  9  1  0
 11 22  2  0
 12 17  1  0
 13 21  1  0
 13 23  1  0
 14 20  1  0
 14 16  1  0
 15 21  1  0
 16 15  1  0
 17 16  2  0
 18 19  1  0
 18 12  2  0
 19 14  2  0
 20 13  1  0
 21 11  1  0
 23 25  2  0
 24 23  1  0
 26 24  1  0
 27 36  2  0
 27 32  1  0
 28 24  1  0
 28 32  1  0
 29 28  1  0
 30 31  1  0
 30 29  1  0
 31 27  1  0
 32 33  2  0
 33 34  1  0
 35 34  2  0
 36 35  1  0
 37 11  1  0
 37 38  1  0
 37 47  1  0
 38 41  1  0
 39 43  1  0
 39 38  1  0
 40 39  2  0
 43 42  1  0
 45 43  1  0
 45 46  1  0
 45 44  1  0
 47 50  1  1
 47 48  1  0
 49 47  1  0
 51  2  1  0
 51 95  1  0
 52 55  1  0
 52 53  2  0
 53 56  1  0
 54 56  1  0
 54 51  1  0
 55 54  2  0
 57 65  1  0
 58 63  1  0
 59 60  1  0
 59 58  1  0
 61 60  1  0
 61 70  1  0
 61 62  1  0
 63 57  1  0
 63 62  1  0
 64 57  2  0
 65 53  1  0
 65 66  1  0
 67 68  2  0
 68 87  1  0
 69 68  1  0
 69 72  1  0
 70 71  1  0
 70 67  1  0
 71 69  2  0
 72 73  1  0
 73 74  2  0
 75 78  1  0
 75 74  1  0
 76 75  2  0
 77 76  1  0
 77 72  2  0
 78 79  1  0
 79 84  2  0
 79 80  1  0
 80 81  2  0
 81 82  1  0
 82 86  1  0
 83 82  2  0
 84 83  1  0
 85 84  1  0
 87 88  1  0
 88 91  1  0
 88 90  1  0
 89 87  2  0
 92 67  1  0
 92 93  1  0
 94 92  1  0
 95 98  1  1
 95 96  1  0
 97 95  1  0
M  ISO  4   9 101  10 101  57 100  65 100
M  END
>  <TORSDO>  (30) 
F 22

>  <SCORE>  (30) 
-12.109

>  <name>  (30) 
29

>  <ligand_id>  (30) 
29

>  <original_smiles>  (30) 
[H]c1nc(C([H])(N([H])C(=O)C([H])([H])C(F)(C([H])([H])[H])C([H])([H])Oc2c([H])c([H])c3c(c2[H])C([H])([H])N(C(=O)C([H])(N([H])C(=O)C([H])(N([H])C([H])([H])[H])C([H])([H])[H])C(C([H])([H])[H])(C([H])([H])[H])C([H])([H])[H])C([H])(C(=O)N([H])C2([H])c4c([H])c([H])c([H])c([H])c4C([H])([H])C([H])([H])C2([H])[H])C3([H])[H])C(F)(F)F)sc1N([H])C(=O)N1C([H])([H])C([H])([H])C([H])([H])C([H])(n2nc(-c3c([H])c([H])c(Oc4c([H])c([H])c(F)c([H])c4F)c([H])c3[H])c(C(=O)N([H])[H])c2N([H])[H])C1([H])[H]

>  <smiles>  (30) 
[H]c1nc(C([H])(N([H])C(=O)C([H])([H])C(F)(C([H])([H])[H])C([H])([H])Oc2c([H])c([H])c3c(c2[H])C([H])([H])N(C(=O)C([H])(N([H])C(=O)C([H])(N([H])C([H])([H])[H])C([H])([H])[H])C(C([H])([H])[H])(C([H])([H])[H])C([H])([H])[H])C([H])(C(=O)N([H])C2([H])c4c([H])c([H])c([H])c([H])c4C([H])([H])C([H])([H])C2([H])[H])C3([H])[H])C(F)(F)F)sc1N([H])C(=O)N1C([H])([H])C([H])([H])C([H])([H])C([H])(n2nc(-c3c([H])c([H])c(Oc4c([H])c([H])c(F)c([H])c4F)c([H])c3[H])c(C(=O)N([H])[H])c2N([H])[H])C1([H])[H]

$$$$
30:0:0
     RDKit          3D

 93101  0  0  1  0  0  0  0  0999 V2000
  -28.6350  -22.4310   20.4790 C   0  0  0  0  0  0  0  0  0  0  0  0
  -29.6430  -21.5210   20.2010 N   0  0  0  0  0  0  0  0  0  0  0  0
  -27.5430  -22.0390   20.8970 O   0  0  0  0  0  0  0  0  0  0  0  0
  -30.4620  -22.0280   19.8870 H   0  0  0  0  0  0  0  0  0  0  0  0
  -30.5630  -14.8650   20.1600 C   0  0  0  0  0  0  0  0  0  0  0  0
  -30.3690  -12.5800   19.1350 C   0  0  0  0  0  2  0  0  0  0  0  0
  -29.3900  -12.6380   17.9400 C   0  0  0  0  0  2  0  0  0  0  0  0
  -27.9380  -12.4370   18.4160 C   0  0  0  0  0  2  0  0  0  0  0  0
  -27.5920  -13.3170   19.6450 C   0  0  0  0  0  3  0  0  0  0  0  0
  -28.6840  -13.2380   20.7340 C   0  0  0  0  0  2  0  0  0  0  0  0
  -29.9570  -13.6230   20.1070 N   0  0  0  0  0  0  0  0  0  0  0  0
  -31.7330  -14.9680   19.7770 O   0  0  0  0  0  0  0  0  0  0  0  0
  -31.0230  -19.4900   19.9020 C   0  0  0  0  0  0  0  0  0  0  0  0
  -29.8270  -20.1130   20.2420 C   0  0  0  0  0  0  0  0  0  0  0  0
  -29.9480  -17.4580   20.3590 C   0  0  0  0  0  0  0  0  0  0  0  0
  -32.2600  -20.2140   19.4590 C   0  0  0  0  0  1  0  0  0  0  0  0
  -31.0800  -18.0640   19.9670 N   0  0  0  0  0  0  0  0  0  0  0  0
  -29.7740  -15.9740   20.4780 N   0  0  0  0  0  0  0  0  0  0  0  0
  -28.7120  -18.7650   20.6870 S   0  0  0  0  0  0  0  0  0  0  0  0
  -28.8530  -15.7090   20.7910 H   0  0  0  0  0  0  0  0  0  0  0  0
  -25.2290  -13.8890   20.4590 C   0  0  0  0  0  0  0  0  0  0  0  0
  -24.1780  -13.1060   20.8520 C   0  0  0  0  0  0  0  0  0  0  0  0
  -24.6430  -11.7570   20.7870 C   0  0  0  0  0  0  0  0  0  0  0  0
  -26.2660  -13.0160   20.1770 N   0  0  0  0  0  0  0  0  0  0  0  0
  -25.9240  -11.7270   20.4370 N   0  0  0  0  0  0  0  0  0  0  0  0
  -23.9270  -10.4890   20.9800 C   0  0  0  0  0  0  0  0  0  0  0  0
  -24.3700   -9.5250   21.9120 C   0  0  0  0  0  3  0  0  0  0  0  0
  -23.6510   -8.3230   22.0940 C   0  0  0  0  0  3  0  0  0  0  0  0
  -22.4760   -8.0770   21.3450 C   0  0  0  0  0  0  0  0  0  0  0  0
  -22.0530   -9.0310   20.4020 C   0  0  0  0  0  3  0  0  0  0  0  0
  -22.7720  -10.2230   20.2180 C   0  0  0  0  0  3  0  0  0  0  0  0
  -21.7300   -6.9260   21.4350 O   0  0  0  0  0  0  0  0  0  0  0  0
  -21.6610   -6.2040   22.5990 C   0  0  0  0  0  0  0  0  0  0  0  0
  -21.1850   -6.7700   23.8020 C   0  0  0  0  0  3  0  0  0  0  0  0
  -21.0650   -5.9720   24.9570 C   0  0  0  0  0  3  0  0  0  0  0  0
  -21.4130   -4.6090   24.9110 C   0  0  0  0  0  0  0  0  0  0  0  0
  -21.8850   -4.0430   23.7130 C   0  0  0  0  0  3  0  0  0  0  0  0
  -22.0040   -4.8370   22.5600 C   0  0  0  0  0  0  0  0  0  0  0  0
  -22.4380   -4.2820   21.4030 F   0  0  0  0  0  0  0  0  0  0  0  0
  -21.2910   -3.8400   26.0190 F   0  0  0  0  0  0  0  0  0  0  0  0
  -22.7880  -13.5750   21.1750 C   0  0  0  0  0  0  0  0  0  0  0  0
  -22.0910  -12.8650   22.0540 N   0  0  0  0  0  0  0  0  0  0  0  0
  -22.3320  -14.6050   20.6810 O   0  0  0  0  0  0  0  0  0  0  0  0
  -22.4740  -12.0290   22.4720 H   0  0  0  0  0  0  0  0  0  0  0  0
  -21.1620  -13.1600   22.3150 H   0  0  0  0  0  0  0  0  0  0  0  0
  -25.3830  -15.2630   20.2940 N   0  0  0  0  0  0  0  0  0  0  0  0
  -24.6100  -15.9070   20.4190 H   0  0  0  0  0  0  0  0  0  0  0  0
  -26.2000  -15.7030   19.8900 H   0  0  0  0  0  0  0  0  0  0  0  0
  -28.0750  -24.9660   20.4290 C   0  0  0  0  0  3  0  0  0  0  0  0
  -28.9620  -23.9050   20.2450 C   0  0  0  0  0  0  0  0  0  0  0  0
  -30.2040  -24.1970   19.8330 O   0  0  0  0  0  0  0  0  0  0  0  0
  -30.2460  -25.1410   19.7420 H   0  0  0  0  0  0  0  0  0  0  0  0
  -28.2980  -26.3770   20.2370 O   0  0  0  0  0  0  0  0  0  0  0  0
  -24.6210  -31.9260   23.2340 C   0  0  0  0  0  0  0  0  0  0  0  0
  -27.2110  -27.2930   20.2050 C   0  0  0  0  0  0  0  0  0  0  0  0
  -23.4150  -30.5270   21.5980 C   0  0  0  0  0  3  0  0  0  0  0  0
  -24.8620  -28.9640   20.1730 C   0  0  0  0  0  0  0  0  0  0  0  0
  -25.9600  -30.8220   21.4200 C   0  0  0  0  0  2  0  0  0  0  0  0
  -26.0350  -29.4360   20.7760 C   0  0  0  0  0  0  0  0  0  0  0  0
  -27.2120  -28.6120   20.7830 C   0  0  0  0  0  3  0  0  0  0  0  0
  -26.0180  -26.9010   19.5590 C   0  0  0  0  0  3  0  0  0  0  0  0
  -24.8600  -27.7050   19.5520 C   0  0  0  0  0  3  0  0  0  0  0  0
  -23.6290  -29.8490   20.2190 C   0  0  0  0  0  2  0  0  0  0  0  0
  -24.6840  -31.1120   22.1390 N   0  0  0  0  0  0  0  0  0  0  0  0
  -23.5370  -32.2060   23.7700 O   0  0  0  0  0  0  0  0  0  0  0  0
  -22.7480  -29.5170   22.5630 C   0  0  0  0  0  0  0  0  0  0  0  0
  -21.4220  -29.3380   22.4380 N   0  0  0  0  0  0  0  0  0  0  0  0
  -23.4250  -28.8960   23.3880 O   0  0  0  0  0  0  0  0  0  0  0  0
  -20.9330  -29.8890   21.7470 H   0  0  0  0  0  0  0  0  0  0  0  0
  -18.0440  -28.1390   22.9450 C   0  0  0  0  0  0  0  0  0  0  0  0
  -20.6030  -28.4040   23.2130 C   0  0  0  0  0  3  0  0  0  0  0  0
  -20.7080  -26.9690   22.6440 C   0  0  0  0  0  2  0  0  0  0  0  0
  -19.6060  -26.6410   21.6320 C   0  0  0  0  0  2  0  0  0  0  0  0
  -18.2230  -26.7890   22.2730 C   0  0  0  0  0  2  0  0  0  0  0  0
  -19.1620  -28.9040   23.3720 C   0  0  0  0  0  0  0  0  0  0  0  0
  -18.9410  -30.1690   23.9620 C   0  0  0  0  0  3  0  0  0  0  0  0
  -17.6360  -30.6680   24.1280 C   0  0  0  0  0  3  0  0  0  0  0  0
  -16.5330  -29.9000   23.7160 C   0  0  0  0  0  3  0  0  0  0  0  0
  -16.7380  -28.6380   23.1310 C   0  0  0  0  0  3  0  0  0  0  0  0
  -25.9040  -32.5600   23.8540 C   0  0  0  0  0  3  0  0  0  0  0  0
  -25.5910  -33.9540   24.1970 N   0  0  0  0  0  0  0  0  0  0  0  0
  -25.8970  -35.0160   23.4380 C   0  0  0  0  0  0  0  0  0  0  0  0
  -26.5420  -34.9240   22.3890 O   0  0  0  0  0  0  0  0  0  0  0  0
  -25.0190  -34.1010   25.0170 H   0  0  0  0  0  0  0  0  0  0  0  0
  -24.1430  -36.7950   23.1480 C   0  0  0  0  0  1  0  0  0  0  0  0
  -25.4140  -36.3980   23.9180 C   0  0  0  0  0  3  0  0  0  0  0  0
  -27.5620  -37.3030   24.6880 C   0  0  0  0  0  1  0  0  0  0  0  0
  -26.4330  -37.4610   23.7750 N   0  0  0  0  0  0  0  0  0  0  0  0
  -26.0210  -38.3760   23.9330 H   0  0  0  0  0  0  0  0  0  0  0  0
  -26.4310  -31.7840   25.1220 C   0  0  1  0  0  0  0  0  0  0  0  0
  -25.3440  -31.5360   26.1930 C   0  0  0  0  0  1  0  0  0  0  0  0
  -27.0180  -30.4110   24.7210 C   0  0  0  0  0  1  0  0  0  0  0  0
  -27.5810  -32.5790   25.7840 C   0  0  0  0  0  1  0  0  0  0  0  0
  1  3  2  0
  2 14  1  0
  2  1  1  0
  4  2  1  0
  5 18  1  0
  6 11  1  0
  7  8  1  0
  7  6  1  0
  9  8  1  0
  9 24  1  0
  9 10  1  0
 11  5  1  0
 11 10  1  0
 12  5  2  0
 13 17  1  0
 13 14  2  0
 14 19  1  0
 15 18  1  0
 15 19  1  0
 16 13  1  0
 17 15  2  0
 18 20  1  0
 21 22  2  0
 22 41  1  0
 23 22  1  0
 23 26  1  0
 24 25  1  0
 24 21  1  0
 25 23  2  0
 26 27  1  0
 27 28  2  0
 29 32  1  0
 29 28  1  0
 30 29  2  0
 31 30  1  0
 31 26  2  0
 32 33  1  0
 33 34  1  0
 34 35  2  0
 36 35  1  0
 36 40  1  0
 37 36  2  0
 38 33  2  0
 38 37  1  0
 39 38  1  0
 41 42  1  0
 42 45  1  0
 42 44  1  0
 43 41  2  0
 46 47  1  0
 46 21  1  0
 48 46  1  0
 50 49  2  0
 50  1  1  0
 51 50  1  0
 52 51  1  0
 53 49  1  0
 54 65  2  0
 55 53  1  0
 55 60  1  0
 56 64  1  0
 56 66  1  0
 57 63  1  0
 57 59  1  0
 58 64  1  0
 59 60  2  0
 59 58  1  0
 61 55  2  0
 62 61  1  0
 62 57  2  0
 63 56  1  0
 64 54  1  0
 66 68  2  0
 67 66  1  0
 69 67  1  0
 70 79  2  0
 70 75  1  0
 71 67  1  0
 71 75  1  0
 72 71  1  0
 73 74  1  0
 73 72  1  0
 74 70  1  0
 75 76  2  0
 76 77  1  0
 78 77  2  0
 79 78  1  0
 80 54  1  0
 80 81  1  0
 80 90  1  0
 81 84  1  0
 82 86  1  0
 82 81  1  0
 83 82  2  0
 86 85  1  0
 88 86  1  0
 88 89  1  0
 88 87  1  0
 90 93  1  1
 90 91  1  0
 92 90  1  0
M  ISO  4   5 100  18 100  49 101  53 101
M  END
>  <TORSDO>  (31) 
F 18

>  <SCORE>  (31) 
-14.753

>  <name>  (31) 
30

>  <ligand_id>  (31) 
30

>  <original_smiles>  (31) 
[H]OC(C(=O)N([H])c1sc(N([H])C(=O)N2C([H])([H])C([H])([H])C([H])([H])C([H])(n3nc(-c4c([H])c([H])c(Oc5c([H])c([H])c(F)c([H])c5F)c([H])c4[H])c(C(=O)N([H])[H])c3N([H])[H])C2([H])[H])nc1C([H])([H])[H])=C([H])Oc1c([H])c([H])c2c(c1[H])C([H])([H])N(C(=O)C([H])(N([H])C(=O)C([H])(N([H])C([H])([H])[H])C([H])([H])[H])C(C([H])([H])[H])(C([H])([H])[H])C([H])([H])[H])C([H])(C(=O)N([H])C1([H])c3c([H])c([H])c([H])c([H])c3C([H])([H])C([H])([H])C1([H])[H])C2([H])[H]

>  <smiles>  (31) 
[H]OC(C(=O)N([H])c1sc(N([H])C(=O)N2C([H])([H])C([H])([H])C([H])([H])C([H])(n3nc(-c4c([H])c([H])c(Oc5c([H])c([H])c(F)c([H])c5F)c([H])c4[H])c(C(=O)N([H])[H])c3N([H])[H])C2([H])[H])nc1C([H])([H])[H])=C([H])Oc1c([H])c([H])c2c(c1[H])C([H])([H])N(C(=O)C([H])(N([H])C(=O)C([H])(N([H])C([H])([H])[H])C([H])([H])[H])C(C([H])([H])[H])(C([H])([H])[H])C([H])([H])[H])C([H])(C(=O)N([H])C1([H])c3c([H])c([H])c([H])c([H])c3C([H])([H])C([H])([H])C1([H])[H])C2([H])[H]

$$$$
31:0:0
     RDKit          3D

 92100  0  0  1  0  0  0  0  0999 V2000
  -28.8540  -20.4240   20.9880 C   0  0  0  0  0  0  0  0  0  0  0  0
  -27.6440  -20.3370   21.2300 O   0  0  0  0  0  0  0  0  0  0  0  0
  -30.7450  -14.5870   20.1050 C   0  0  0  0  0  0  0  0  0  0  0  0
  -30.4000  -12.4140   18.9890 C   0  0  0  0  0  2  0  0  0  0  0  0
  -29.4010  -12.6200   17.8290 C   0  0  0  0  0  2  0  0  0  0  0  0
  -27.9490  -12.4850   18.3300 C   0  0  0  0  0  2  0  0  0  0  0  0
  -27.6740  -13.3190   19.6100 C   0  0  0  0  0  3  0  0  0  0  0  0
  -28.7840  -13.0950   20.6650 C   0  0  0  0  0  2  0  0  0  0  0  0
  -30.0790  -13.4010   20.0350 N   0  0  0  0  0  0  0  0  0  0  0  0
  -31.8580  -14.7410   19.5940 O   0  0  0  0  0  0  0  0  0  0  0  0
  -29.6440  -19.2610   20.5160 C   0  0  0  0  0  0  0  0  0  0  0  0
  -30.5690  -19.2750   19.4990 C   0  0  0  0  0  0  0  0  0  0  0  0
  -30.2010  -17.0120   20.3610 C   0  0  0  0  0  0  0  0  0  0  0  0
  -29.4310  -17.9310   20.9760 N   0  0  0  0  0  0  0  0  0  0  0  0
  -30.0640  -15.6160   20.6610 N   0  0  0  0  0  0  0  0  0  0  0  0
  -30.9120  -20.3710   18.7780 F   0  0  0  0  0  0  0  0  0  0  0  0
  -31.2570  -17.7200   19.1270 S   0  0  0  0  0  0  0  0  0  0  0  0
  -29.2380  -15.3590   21.1750 H   0  0  0  0  0  0  0  0  0  0  0  0
  -25.3180  -13.9270   20.4500 C   0  0  0  0  0  0  0  0  0  0  0  0
  -24.2630  -13.1550   20.8570 C   0  0  0  0  0  0  0  0  0  0  0  0
  -24.7090  -11.8000   20.7780 C   0  0  0  0  0  0  0  0  0  0  0  0
  -26.3440  -13.0430   20.1510 N   0  0  0  0  0  0  0  0  0  0  0  0
  -25.9830  -11.7580   20.4030 N   0  0  0  0  0  0  0  0  0  0  0  0
  -23.9820  -10.5400   20.9810 C   0  0  0  0  0  0  0  0  0  0  0  0
  -24.4360   -9.5660   21.8980 C   0  0  0  0  0  3  0  0  0  0  0  0
  -23.7110   -8.3710   22.0920 C   0  0  0  0  0  3  0  0  0  0  0  0
  -22.5180   -8.1380   21.3680 C   0  0  0  0  0  0  0  0  0  0  0  0
  -22.0820   -9.1020   20.4420 C   0  0  0  0  0  3  0  0  0  0  0  0
  -22.8060  -10.2890   20.2460 C   0  0  0  0  0  3  0  0  0  0  0  0
  -21.7630   -6.9960   21.4700 O   0  0  0  0  0  0  0  0  0  0  0  0
  -21.7280   -6.2590   22.6260 C   0  0  0  0  0  0  0  0  0  0  0  0
  -21.2890   -6.8140   23.8490 C   0  0  0  0  0  3  0  0  0  0  0  0
  -21.2010   -6.0030   24.9970 C   0  0  0  0  0  3  0  0  0  0  0  0
  -21.5390   -4.6390   24.9260 C   0  0  0  0  0  0  0  0  0  0  0  0
  -21.9700   -4.0840   23.7090 C   0  0  0  0  0  3  0  0  0  0  0  0
  -22.0620   -4.8910   22.5610 C   0  0  0  0  0  0  0  0  0  0  0  0
  -22.4570   -4.3460   21.3860 F   0  0  0  0  0  0  0  0  0  0  0  0
  -21.4470   -3.8580   26.0290 F   0  0  0  0  0  0  0  0  0  0  0  0
  -22.8860  -13.6390   21.2100 C   0  0  0  0  0  0  0  0  0  0  0  0
  -22.1980  -12.9300   22.0990 N   0  0  0  0  0  0  0  0  0  0  0  0
  -22.4300  -14.6770   20.7330 O   0  0  0  0  0  0  0  0  0  0  0  0
  -22.5810  -12.0910   22.5070 H   0  0  0  0  0  0  0  0  0  0  0  0
  -21.2770  -13.2350   22.3790 H   0  0  0  0  0  0  0  0  0  0  0  0
  -25.4880  -15.2980   20.2880 N   0  0  0  0  0  0  0  0  0  0  0  0
  -24.7380  -15.9580   20.4560 H   0  0  0  0  0  0  0  0  0  0  0  0
  -26.3250  -15.7350   19.9230 H   0  0  0  0  0  0  0  0  0  0  0  0
  -30.9850  -21.7380   21.7820 C   0  0  0  0  0  1  0  0  0  0  0  0
  -29.5210  -21.8060   21.2990 C   0  0  0  0  0  3  0  0  0  0  0  0
  -29.2750  -22.9250   20.2310 C   0  0  0  0  0  2  0  0  0  0  0  0
  -29.1590  -24.3810   20.7890 C   0  0  0  0  0  2  0  0  0  0  0  0
  -28.8950  -25.4680   19.7080 C   0  0  0  0  0  2  0  0  0  0  0  0
  -28.7130  -26.7990   20.2520 O   0  0  0  0  0  0  0  0  0  0  0  0
  -24.6840  -31.8600   23.2570 C   0  0  0  0  0  0  0  0  0  0  0  0
  -27.4990  -27.4750   20.2020 C   0  0  0  0  0  0  0  0  0  0  0  0
  -23.5500  -30.4510   21.5730 C   0  0  0  0  0  3  0  0  0  0  0  0
  -25.0690  -28.9570   20.1710 C   0  0  0  0  0  0  0  0  0  0  0  0
  -26.0750  -30.8560   21.4440 C   0  0  0  0  0  2  0  0  0  0  0  0
  -26.2030  -29.4910   20.7930 C   0  0  0  0  0  0  0  0  0  0  0  0
  -27.4150  -28.7590   20.8030 C   0  0  0  0  0  3  0  0  0  0  0  0
  -26.3330  -26.9630   19.5800 C   0  0  0  0  0  3  0  0  0  0  0  0
  -25.1310  -27.6940   19.5620 C   0  0  0  0  0  3  0  0  0  0  0  0
  -23.8080  -29.7920   20.1930 C   0  0  0  0  0  2  0  0  0  0  0  0
  -24.7870  -31.0710   22.1510 N   0  0  0  0  0  0  0  0  0  0  0  0
  -23.5830  -32.1040   23.7720 O   0  0  0  0  0  0  0  0  0  0  0  0
  -22.8970  -29.4060   22.5070 C   0  0  0  0  0  0  0  0  0  0  0  0
  -21.5770  -29.2050   22.3520 N   0  0  0  0  0  0  0  0  0  0  0  0
  -23.5740  -28.7790   23.3270 O   0  0  0  0  0  0  0  0  0  0  0  0
  -21.0940  -29.7640   21.6640 H   0  0  0  0  0  0  0  0  0  0  0  0
  -18.2100  -27.9740   22.7920 C   0  0  0  0  0  0  0  0  0  0  0  0
  -20.7610  -28.2450   23.0940 C   0  0  0  0  0  3  0  0  0  0  0  0
  -20.8800  -26.8270   22.4870 C   0  0  0  0  0  2  0  0  0  0  0  0
  -19.7910  -26.5190   21.4550 C   0  0  0  0  0  2  0  0  0  0  0  0
  -18.4020  -26.6400   22.0890 C   0  0  0  0  0  2  0  0  0  0  0  0
  -19.3170  -28.7340   23.2500 C   0  0  0  0  0  0  0  0  0  0  0  0
  -19.0840  -29.9820   23.8660 C   0  0  0  0  0  3  0  0  0  0  0  0
  -17.7740  -30.4710   24.0310 C   0  0  0  0  0  3  0  0  0  0  0  0
  -16.6790  -29.7070   23.5890 C   0  0  0  0  0  3  0  0  0  0  0  0
  -16.8970  -28.4610   22.9750 C   0  0  0  0  0  3  0  0  0  0  0  0
  -25.9410  -32.5130   23.9160 C   0  0  0  0  0  3  0  0  0  0  0  0
  -26.4220  -31.7610   25.2170 C   0  0  1  0  0  0  0  0  0  0  0  0
  -25.2960  -31.5190   26.2490 C   0  0  0  0  0  1  0  0  0  0  0  0
  -27.0370  -30.3880   24.8590 C   0  0  0  0  0  1  0  0  0  0  0  0
  -27.5380  -32.5780   25.9130 C   0  0  0  0  0  1  0  0  0  0  0  0
  -25.6030  -33.9090   24.2200 N   0  0  0  0  0  0  0  0  0  0  0  0
  -25.9370  -34.9570   23.4550 C   0  0  0  0  0  0  0  0  0  0  0  0
  -26.6340  -34.8500   22.4420 O   0  0  0  0  0  0  0  0  0  0  0  0
  -24.9860  -34.0640   25.0040 H   0  0  0  0  0  0  0  0  0  0  0  0
  -24.1900  -36.7170   23.0370 C   0  0  0  0  0  1  0  0  0  0  0  0
  -25.4180  -36.3430   23.8810 C   0  0  0  0  0  3  0  0  0  0  0  0
  -27.5160  -37.2770   24.7510 C   0  0  0  0  0  1  0  0  0  0  0  0
  -26.4360  -37.4110   23.7770 N   0  0  0  0  0  0  0  0  0  0  0  0
  -26.0110  -38.3270   23.8970 H   0  0  0  0  0  0  0  0  0  0  0  0
  1  2  2  0
  1 48  1  0
  3 15  1  0
  4  9  1  0
  5  6  1  0
  5  4  1  0
  7  6  1  0
  7 22  1  0
  7  8  1  0
  9  3  1  0
  9  8  1  0
 10  3  2  0
 11 14  1  0
 11  1  1  0
 12 11  2  0
 13 15  1  0
 13 14  2  0
 15 18  1  0
 16 12  1  0
 17 12  1  0
 17 13  1  0
 19 20  2  0
 20 39  1  0
 21 20  1  0
 21 24  1  0
 22 23  1  0
 22 19  1  0
 23 21  2  0
 24 25  1  0
 25 26  2  0
 27 30  1  0
 27 26  1  0
 28 27  2  0
 29 28  1  0
 29 24  2  0
 30 31  1  0
 31 32  1  0
 32 33  2  0
 34 33  1  0
 34 38  1  0
 35 34  2  0
 36 31  2  0
 36 35  1  0
 37 36  1  0
 39 40  1  0
 40 43  1  0
 40 42  1  0
 41 39  2  0
 44 19  1  0
 44 45  1  0
 46 44  1  0
 48 47  1  0
 49 50  1  0
 49 48  1  0
 51 52  1  0
 51 50  1  0
 53 64  2  0
 54 52  1  0
 54 59  1  0
 55 63  1  0
 55 65  1  0
 56 62  1  0
 56 58  1  0
 57 63  1  0
 58 59  2  0
 58 57  1  0
 60 54  2  0
 61 60  1  0
 61 56  2  0
 62 55  1  0
 63 53  1  0
 65 67  2  0
 66 65  1  0
 68 66  1  0
 69 78  2  0
 69 74  1  0
 70 66  1  0
 70 74  1  0
 71 70  1  0
 72 73  1  0
 72 71  1  0
 73 69  1  0
 74 75  2  0
 75 76  1  0
 77 76  2  0
 78 77  1  0
 79 53  1  0
 79 84  1  0
 79 80  1  0
 80 83  1  1
 80 81  1  0
 82 80  1  0
 84 87  1  0
 85 89  1  0
 85 84  1  0
 86 85  2  0
 89 88  1  0
 91 89  1  0
 91 92  1  0
 91 90  1  0
M  ISO  4   3 100  15 100  51 101  52 101
M  END
>  <TORSDO>  (32) 
F 20

>  <SCORE>  (32) 
-13.360

>  <name>  (32) 
31

>  <ligand_id>  (32) 
31

>  <original_smiles>  (32) 
[H]c1c([H])c([H])c2c(c1[H])C([H])([H])C([H])([H])C([H])([H])C2([H])N([H])C(=O)C1([H])N(C(=O)C([H])(N([H])C(=O)C([H])(N([H])C([H])([H])[H])C([H])([H])[H])C(C([H])([H])[H])(C([H])([H])[H])C([H])([H])[H])C([H])([H])c2c([H])c(OC([H])([H])C([H])([H])C([H])([H])C([H])(C(=O)c3nc(N([H])C(=O)N4C([H])([H])C([H])([H])C([H])([H])C([H])(n5nc(-c6c([H])c([H])c(Oc7c([H])c([H])c(F)c([H])c7F)c([H])c6[H])c(C(=O)N([H])[H])c5N([H])[H])C4([H])[H])sc3F)C([H])([H])[H])c([H])c([H])c2C1([H])[H]

>  <smiles>  (32) 
[H]c1c([H])c([H])c2c(c1[H])C([H])([H])C([H])([H])C([H])([H])C2([H])N([H])C(=O)C1([H])N(C(=O)C([H])(N([H])C(=O)C([H])(N([H])C([H])([H])[H])C([H])([H])[H])C(C([H])([H])[H])(C([H])([H])[H])C([H])([H])[H])C([H])([H])c2c([H])c(OC([H])([H])C([H])([H])C([H])([H])C([H])(C(=O)c3nc(N([H])C(=O)N4C([H])([H])C([H])([H])C([H])([H])C([H])(n5nc(-c6c([H])c([H])c(Oc7c([H])c([H])c(F)c([H])c7F)c([H])c6[H])c(C(=O)N([H])[H])c5N([H])[H])C4([H])[H])sc3F)C([H])([H])[H])c([H])c([H])c2C1([H])[H]

$$$$
32:0:0
     RDKit          3D

 98106  0  0  1  0  0  0  0  0999 V2000
  -30.6570  -14.5160   20.5510 C   0  0  0  0  0  0  0  0  0  0  0  0
  -30.3870  -12.3720   19.3570 C   0  0  0  0  0  2  0  0  0  0  0  0
  -29.4570  -12.6100   18.1470 C   0  0  0  0  0  2  0  0  0  0  0  0
  -27.9760  -12.4590   18.5540 C   0  0  0  0  0  2  0  0  0  0  0  0
  -27.6270  -13.2640   19.8310 C   0  0  0  0  0  3  0  0  0  0  0  0
  -28.6660  -13.0150   20.9470 C   0  0  0  0  0  2  0  0  0  0  0  0
  -30.0010  -13.3310   20.4040 N   0  0  0  0  0  0  0  0  0  0  0  0
  -31.8090  -14.6970   20.1420 O   0  0  0  0  0  0  0  0  0  0  0  0
  -29.0210  -17.5010   19.9920 C   0  0  0  0  0  0  0  0  0  0  0  0
  -29.9580  -19.6980   20.4750 C   0  0  0  0  0  0  0  0  0  0  0  0
  -29.0070  -18.9000   19.8280 C   0  0  0  0  0  0  0  0  0  0  0  0
  -30.0240  -16.9110   20.8000 C   0  0  0  0  0  0  0  0  0  0  0  0
  -30.9360  -19.0270   21.2450 C   0  0  0  0  0  0  0  0  0  0  0  0
  -30.9620  -17.6780   21.4050 N   0  0  0  0  0  0  0  0  0  0  0  0
  -29.8910  -15.5130   21.0320 N   0  0  0  0  0  0  0  0  0  0  0  0
  -28.0640  -19.4760   19.0370 F   0  0  0  0  0  0  0  0  0  0  0  0
  -31.9380  -19.7290   21.8270 F   0  0  0  0  0  0  0  0  0  0  0  0
  -28.9380  -15.2290   21.1970 H   0  0  0  0  0  0  0  0  0  0  0  0
  -25.2220  -13.9130   20.4770 C   0  0  0  0  0  0  0  0  0  0  0  0
  -24.1390  -13.1550   20.8340 C   0  0  0  0  0  0  0  0  0  0  0  0
  -24.5930  -11.7990   20.8360 C   0  0  0  0  0  0  0  0  0  0  0  0
  -26.2640  -13.0160   20.2840 N   0  0  0  0  0  0  0  0  0  0  0  0
  -25.8870  -11.7440   20.5570 N   0  0  0  0  0  0  0  0  0  0  0  0
  -23.8590  -10.5440   21.0300 C   0  0  0  0  0  0  0  0  0  0  0  0
  -24.2820   -9.5810   21.9730 C   0  0  0  0  0  3  0  0  0  0  0  0
  -23.5510   -8.3870   22.1520 C   0  0  0  0  0  3  0  0  0  0  0  0
  -22.3840   -8.1490   21.3900 C   0  0  0  0  0  0  0  0  0  0  0  0
  -21.9800   -9.1010   20.4360 C   0  0  0  0  0  3  0  0  0  0  0  0
  -22.7110  -10.2860   20.2550 C   0  0  0  0  0  3  0  0  0  0  0  0
  -21.6240   -7.0080   21.4790 O   0  0  0  0  0  0  0  0  0  0  0  0
  -21.5740   -6.2650   22.6320 C   0  0  0  0  0  0  0  0  0  0  0  0
  -21.1700   -6.8270   23.8630 C   0  0  0  0  0  3  0  0  0  0  0  0
  -21.0650   -6.0130   25.0080 C   0  0  0  0  0  3  0  0  0  0  0  0
  -21.3560   -4.6380   24.9230 C   0  0  0  0  0  0  0  0  0  0  0  0
  -21.7530   -4.0760   23.6980 C   0  0  0  0  0  3  0  0  0  0  0  0
  -21.8600   -4.8880   22.5550 C   0  0  0  0  0  0  0  0  0  0  0  0
  -22.2230   -4.3380   21.3720 F   0  0  0  0  0  0  0  0  0  0  0  0
  -21.2470   -3.8530   26.0210 F   0  0  0  0  0  0  0  0  0  0  0  0
  -22.7390  -13.6420   21.0690 C   0  0  0  0  0  0  0  0  0  0  0  0
  -21.9910  -12.9630   21.9320 N   0  0  0  0  0  0  0  0  0  0  0  0
  -22.3140  -14.6590   20.5210 O   0  0  0  0  0  0  0  0  0  0  0  0
  -22.3450  -12.1410   22.3970 H   0  0  0  0  0  0  0  0  0  0  0  0
  -21.0490  -13.2710   22.1300 H   0  0  0  0  0  0  0  0  0  0  0  0
  -25.4060  -15.2810   20.2840 N   0  0  0  0  0  0  0  0  0  0  0  0
  -24.6470  -15.9460   20.3680 H   0  0  0  0  0  0  0  0  0  0  0  0
  -26.2750  -15.7160   19.9720 H   0  0  0  0  0  0  0  0  0  0  0  0
  -29.9570  -22.1020   21.1650 C   0  0  0  0  0  0  0  0  0  0  0  0
  -29.8910  -21.1120   20.2590 N   0  0  0  0  0  0  0  0  0  0  0  0
  -30.2550  -21.9400   22.3510 O   0  0  0  0  0  0  0  0  0  0  0  0
  -29.5230  -21.4220   19.3660 H   0  0  0  0  0  0  0  0  0  0  0  0
  -29.5830  -23.4940   20.5440 C   0  0  0  0  0  0  0  0  0  0  0  0
  -29.2160  -23.5980   19.3670 O   0  0  0  0  0  0  0  0  0  0  0  0
  -29.6870  -24.7390   21.4450 C   0  0  0  0  0  2  0  0  0  0  0  0
  -28.4480  -25.6700   21.4190 C   0  0  0  0  0  2  0  0  0  0  0  0
  -28.5040  -26.7010   20.4220 O   0  0  0  0  0  0  0  0  0  0  0  0
  -24.6000  -31.9140   23.3050 C   0  0  0  0  0  0  0  0  0  0  0  0
  -27.3480  -27.4470   20.3700 C   0  0  0  0  0  0  0  0  0  0  0  0
  -23.4390  -30.4730   21.6620 C   0  0  0  0  0  3  0  0  0  0  0  0
  -24.9380  -28.9200   20.2970 C   0  0  0  0  0  0  0  0  0  0  0  0
  -25.9640  -30.8520   21.5100 C   0  0  0  0  0  2  0  0  0  0  0  0
  -26.0780  -29.4710   20.8990 C   0  0  0  0  0  0  0  0  0  0  0  0
  -27.2890  -28.7420   20.9300 C   0  0  0  0  0  3  0  0  0  0  0  0
  -26.1970  -26.9070   19.7610 C   0  0  0  0  0  3  0  0  0  0  0  0
  -24.9920  -27.6370   19.7230 C   0  0  0  0  0  3  0  0  0  0  0  0
  -23.6830  -29.7660   20.3010 C   0  0  0  0  0  2  0  0  0  0  0  0
  -24.6850  -31.0960   22.2170 N   0  0  0  0  0  0  0  0  0  0  0  0
  -23.5060  -32.1890   23.8170 O   0  0  0  0  0  0  0  0  0  0  0  0
  -22.7750  -29.4660   22.6280 C   0  0  0  0  0  0  0  0  0  0  0  0
  -21.4520  -29.2830   22.4850 N   0  0  0  0  0  0  0  0  0  0  0  0
  -23.4470  -28.8520   23.4620 O   0  0  0  0  0  0  0  0  0  0  0  0
  -20.9730  -29.8290   21.7840 H   0  0  0  0  0  0  0  0  0  0  0  0
  -18.0680  -28.1080   22.9600 C   0  0  0  0  0  0  0  0  0  0  0  0
  -20.6240  -28.3550   23.2550 C   0  0  0  0  0  3  0  0  0  0  0  0
  -20.7250  -26.9190   22.6920 C   0  0  0  0  0  2  0  0  0  0  0  0
  -19.6310  -26.5930   21.6690 C   0  0  0  0  0  2  0  0  0  0  0  0
  -18.2430  -26.7520   22.2990 C   0  0  0  0  0  2  0  0  0  0  0  0
  -19.1860  -28.8690   23.3950 C   0  0  0  0  0  0  0  0  0  0  0  0
  -18.9690  -30.1390   23.9700 C   0  0  0  0  0  3  0  0  0  0  0  0
  -17.6650  -30.6490   24.1170 C   0  0  0  0  0  3  0  0  0  0  0  0
  -16.5610  -29.8870   23.7000 C   0  0  0  0  0  3  0  0  0  0  0  0
  -16.7630  -28.6180   23.1260 C   0  0  0  0  0  3  0  0  0  0  0  0
  -25.8700  -32.5650   23.9400 C   0  0  0  0  0  3  0  0  0  0  0  0
  -26.3680  -31.8170   25.2370 C   0  0  1  0  0  0  0  0  0  0  0  0
  -25.2580  -31.5880   26.2890 C   0  0  0  0  0  1  0  0  0  0  0  0
  -26.9670  -30.4370   24.8740 C   0  0  0  0  0  1  0  0  0  0  0  0
  -27.5030  -32.6280   25.9080 C   0  0  0  0  0  1  0  0  0  0  0  0
  -25.5460  -33.9660   24.2390 N   0  0  0  0  0  0  0  0  0  0  0  0
  -25.8880  -35.0060   23.4670 C   0  0  0  0  0  0  0  0  0  0  0  0
  -26.5790  -34.8880   22.4510 O   0  0  0  0  0  0  0  0  0  0  0  0
  -24.9330  -34.1310   25.0240 H   0  0  0  0  0  0  0  0  0  0  0  0
  -24.1520  -36.7760   23.0470 C   0  0  0  0  0  1  0  0  0  0  0  0
  -25.3820  -36.3990   23.8880 C   0  0  0  0  0  3  0  0  0  0  0  0
  -27.4970  -37.3140   24.7350 C   0  0  0  0  0  1  0  0  0  0  0  0
  -26.4090  -37.4570   23.7720 N   0  0  0  0  0  0  0  0  0  0  0  0
  -25.9940  -38.3770   23.8960 H   0  0  0  0  0  0  0  0  0  0  0  0
  -28.0540  -16.7330   19.3340 N   0  0  0  0  0  0  0  0  0  0  0  0
  -27.4810  -17.2900   18.7040 H   0  0  0  0  0  0  0  0  0  0  0  0
  -28.4310  -15.9390   18.8290 H   0  0  0  0  0  0  0  0  0  0  0  0
  1 15  1  0
  2  7  1  0
  3  4  1  0
  3  2  1  0
  5  4  1  0
  5 22  1  0
  5  6  1  0
  7  1  1  0
  7  6  1  0
  8  1  2  0
  9 12  1  0
 10 13  2  0
 11  9  2  0
 11 10  1  0
 12 15  1  0
 12 14  2  0
 13 14  1  0
 13 17  1  0
 15 18  1  0
 16 11  1  0
 19 20  2  0
 20 21  1  0
 20 39  1  0
 21 24  1  0
 22 19  1  0
 22 23  1  0
 23 21  2  0
 24 25  1  0
 25 26  2  0
 27 30  1  0
 27 26  1  0
 28 27  2  0
 29 28  1  0
 29 24  2  0
 30 31  1  0
 31 32  1  0
 32 33  2  0
 34 33  1  0
 34 38  1  0
 35 34  2  0
 36 31  2  0
 36 35  1  0
 37 36  1  0
 39 40  1  0
 40 43  1  0
 40 42  1  0
 41 39  2  0
 44 45  1  0
 44 19  1  0
 46 44  1  0
 47 49  2  0
 48 10  1  0
 48 47  1  0
 50 48  1  0
 51 47  1  0
 51 53  1  0
 52 51  2  0
 54 53  1  0
 55 54  1  0
 56 67  2  0
 57 55  1  0
 57 62  1  0
 58 66  1  0
 58 68  1  0
 59 65  1  0
 59 61  1  0
 60 66  1  0
 61 62  2  0
 61 60  1  0
 63 57  2  0
 64 63  1  0
 64 59  2  0
 65 58  1  0
 66 56  1  0
 68 70  2  0
 69 68  1  0
 71 69  1  0
 72 81  2  0
 72 77  1  0
 73 69  1  0
 73 77  1  0
 74 73  1  0
 75 76  1  0
 75 74  1  0
 76 72  1  0
 77 78  2  0
 78 79  1  0
 80 79  2  0
 81 80  1  0
 82 56  1  0
 82 87  1  0
 82 83  1  0
 83 86  1  1
 83 84  1  0
 85 83  1  0
 87 90  1  0
 88 92  1  0
 88 87  1  0
 89 88  2  0
 92 91  1  0
 94 92  1  0
 94 95  1  0
 94 93  1  0
 96  9  1  0
 97 96  1  0
 98 96  1  0
M  ISO  4   1 100  15 100  54 101  55 101
M  END
>  <TORSDO>  (33) 
F 20

>  <SCORE>  (33) 
-14.739

>  <name>  (33) 
32

>  <ligand_id>  (33) 
32

>  <original_smiles>  (33) 
[H]c1c([H])c([H])c2c(c1[H])C([H])([H])C([H])([H])C([H])([H])C2([H])N([H])C(=O)C1([H])N(C(=O)C([H])(N([H])C(=O)C([H])(N([H])C([H])([H])[H])C([H])([H])[H])C(C([H])([H])[H])(C([H])([H])[H])C([H])([H])[H])C([H])([H])c2c([H])c(OC([H])([H])C([H])([H])C(=O)C(=O)N([H])c3c(F)nc(N([H])C(=O)N4C([H])([H])C([H])([H])C([H])([H])C([H])(n5nc(-c6c([H])c([H])c(Oc7c([H])c([H])c(F)c([H])c7F)c([H])c6[H])c(C(=O)N([H])[H])c5N([H])[H])C4([H])[H])c(N([H])[H])c3F)c([H])c([H])c2C1([H])[H]

>  <smiles>  (33) 
[H]c1c([H])c([H])c2c(c1[H])C([H])([H])C([H])([H])C([H])([H])C2([H])N([H])C(=O)C1([H])N(C(=O)C([H])(N([H])C(=O)C([H])(N([H])C([H])([H])[H])C([H])([H])[H])C(C([H])([H])[H])(C([H])([H])[H])C([H])([H])[H])C([H])([H])c2c([H])c(OC([H])([H])C([H])([H])C(=O)C(=O)N([H])c3c(F)nc(N([H])C(=O)N4C([H])([H])C([H])([H])C([H])([H])C([H])(n5nc(-c6c([H])c([H])c(Oc7c([H])c([H])c(F)c([H])c7F)c([H])c6[H])c(C(=O)N([H])[H])c5N([H])[H])C4([H])[H])c(N([H])[H])c3F)c([H])c([H])c2C1([H])[H]

$$$$
33:0:0
     RDKit          3D

 99107  0  0  1  0  0  0  0  0999 V2000
  -28.5770  -17.1860   19.1790 C   0  0  0  0  0  3  0  0  0  0  0  0
  -29.5030  -17.4300   20.2160 C   0  0  0  0  0  0  0  0  0  0  0  0
  -28.1170  -19.4380   18.8320 C   0  0  0  0  0  0  0  0  0  0  0  0
  -29.0830  -19.8310   19.8030 C   0  0  0  0  0  0  0  0  0  0  0  0
  -27.8830  -18.1440   18.5300 N   0  0  0  0  0  0  0  0  0  0  0  0
  -29.7540  -18.7980   20.4980 N   0  0  0  0  0  0  0  0  0  0  0  0
  -29.4720  -21.2390   19.9010 N   0  0  0  0  0  0  0  0  0  0  0  0
  -27.4460  -20.4050   18.0680 N   0  0  0  0  0  0  0  0  0  0  0  0
  -30.4190  -21.3010   20.2580 H   0  0  0  0  0  0  0  0  0  0  0  0
  -27.7560  -21.3410   18.3320 H   0  0  0  0  0  0  0  0  0  0  0  0
  -30.6200  -15.0610   20.6840 C   0  0  0  0  0  0  0  0  0  0  0  0
  -30.5710  -12.6730   19.9030 C   0  0  0  0  0  2  0  0  0  0  0  0
  -29.7420  -12.5980   18.6000 C   0  0  0  0  0  2  0  0  0  0  0  0
  -28.2440  -12.4110   18.9160 C   0  0  0  0  0  2  0  0  0  0  0  0
  -27.7520  -13.3810   20.0210 C   0  0  0  0  0  3  0  0  0  0  0  0
  -28.7150  -13.4410   21.2290 C   0  0  0  0  0  2  0  0  0  0  0  0
  -30.0460  -13.8000   20.7190 N   0  0  0  0  0  0  0  0  0  0  0  0
  -31.8010  -15.1640   20.3390 O   0  0  0  0  0  0  0  0  0  0  0  0
  -29.8520  -16.1910   20.9920 N   0  0  0  0  0  0  0  0  0  0  0  0
  -29.0580  -15.8880   21.5350 H   0  0  0  0  0  0  0  0  0  0  0  0
  -25.3250  -14.0180   20.5410 C   0  0  0  0  0  0  0  0  0  0  0  0
  -24.2280  -13.2640   20.8570 C   0  0  0  0  0  0  0  0  0  0  0  0
  -24.6810  -11.9100   20.9060 C   0  0  0  0  0  0  0  0  0  0  0  0
  -26.3760  -13.1230   20.4170 N   0  0  0  0  0  0  0  0  0  0  0  0
  -25.9920  -11.8540   20.7000 N   0  0  0  0  0  0  0  0  0  0  0  0
  -23.9340  -10.6590   21.0820 C   0  0  0  0  0  0  0  0  0  0  0  0
  -24.3270   -9.6940   22.0360 C   0  0  0  0  0  3  0  0  0  0  0  0
  -23.5840   -8.5060   22.1990 C   0  0  0  0  0  3  0  0  0  0  0  0
  -22.4330   -8.2760   21.4090 C   0  0  0  0  0  0  0  0  0  0  0  0
  -22.0580   -9.2300   20.4470 C   0  0  0  0  0  3  0  0  0  0  0  0
  -22.8020  -10.4100   20.2810 C   0  0  0  0  0  3  0  0  0  0  0  0
  -21.6590   -7.1430   21.4850 O   0  0  0  0  0  0  0  0  0  0  0  0
  -21.6220   -6.3700   22.6170 C   0  0  0  0  0  0  0  0  0  0  0  0
  -21.2620   -6.9070   23.8730 C   0  0  0  0  0  3  0  0  0  0  0  0
  -21.1720   -6.0630   24.9990 C   0  0  0  0  0  3  0  0  0  0  0  0
  -21.4260   -4.6840   24.8690 C   0  0  0  0  0  0  0  0  0  0  0  0
  -21.7770   -4.1480   23.6170 C   0  0  0  0  0  3  0  0  0  0  0  0
  -21.8720   -4.9890   22.4940 C   0  0  0  0  0  0  0  0  0  0  0  0
  -22.1910   -4.4630   21.2870 F   0  0  0  0  0  0  0  0  0  0  0  0
  -21.3300   -3.8720   25.9470 F   0  0  0  0  0  0  0  0  0  0  0  0
  -22.8180  -13.7590   21.0020 C   0  0  0  0  0  0  0  0  0  0  0  0
  -22.0220  -13.1100   21.8430 N   0  0  0  0  0  0  0  0  0  0  0  0
  -22.4270  -14.7590   20.4010 O   0  0  0  0  0  0  0  0  0  0  0  0
  -22.3460  -12.3040   22.3540 H   0  0  0  0  0  0  0  0  0  0  0  0
  -21.0730  -13.4310   21.9810 H   0  0  0  0  0  0  0  0  0  0  0  0
  -25.5090  -15.3810   20.3250 N   0  0  0  0  0  0  0  0  0  0  0  0
  -24.7220  -16.0230   20.3160 H   0  0  0  0  0  0  0  0  0  0  0  0
  -26.3500  -15.7950   19.9480 H   0  0  0  0  0  0  0  0  0  0  0  0
  -25.8830  -19.2090   16.5370 C   0  0  0  0  0  1  0  0  0  0  0  0
  -25.6100  -21.6210   16.9970 C   0  0  0  0  0  1  0  0  0  0  0  0
  -26.0410  -20.2840   17.6400 C   0  0  2  0  0  0  0  0  0  0  0  0
  -25.0890  -20.0050   18.8340 C   0  0  0  0  0  0  0  0  0  0  0  0
  -24.9710  -21.0680   19.9210 C   0  0  0  0  0  1  0  0  0  0  0  0
  -24.4400  -18.9600   18.9280 O   0  0  0  0  0  0  0  0  0  0  0  0
  -28.6850  -22.5080   20.2940 C   0  0  0  0  0  2  0  0  0  0  0  0
  -28.1960  -23.7030   19.2660 C   0  0  0  0  0  3  0  0  0  0  0  0
  -28.2910  -23.1660   18.0540 F   0  0  0  0  0  0  0  0  0  0  0  0
  -28.7620  -25.2400   19.0770 C   0  0  0  0  0  2  0  0  0  0  0  0
  -28.5050  -26.5240   19.8360 O   0  0  0  0  0  0  0  0  0  0  0  0
  -24.7260  -31.7370   23.1390 C   0  0  0  0  0  0  0  0  0  0  0  0
  -27.3780  -27.3830   19.7600 C   0  0  0  0  0  0  0  0  0  0  0  0
  -23.5290  -30.4380   21.4110 C   0  0  0  0  0  3  0  0  0  0  0  0
  -24.9920  -28.9970   19.8630 C   0  0  0  0  0  0  0  0  0  0  0  0
  -26.0650  -30.7840   21.2400 C   0  0  0  0  0  2  0  0  0  0  0  0
  -26.1560  -29.4500   20.4950 C   0  0  0  0  0  0  0  0  0  0  0  0
  -27.3430  -28.6520   20.4370 C   0  0  0  0  0  3  0  0  0  0  0  0
  -26.1950  -26.9980   19.0960 C   0  0  0  0  0  3  0  0  0  0  0  0
  -25.0180  -27.7810   19.1530 C   0  0  0  0  0  3  0  0  0  0  0  0
  -23.7440  -29.8550   19.9850 C   0  0  0  0  0  2  0  0  0  0  0  0
  -24.7920  -31.0030   21.9880 N   0  0  0  0  0  0  0  0  0  0  0  0
  -23.6430  -31.9660   23.6970 O   0  0  0  0  0  0  0  0  0  0  0  0
  -22.8780  -29.3570   22.3070 C   0  0  0  0  0  0  0  0  0  0  0  0
  -21.5480  -29.2010   22.2030 N   0  0  0  0  0  0  0  0  0  0  0  0
  -23.5720  -28.6650   23.0560 O   0  0  0  0  0  0  0  0  0  0  0  0
  -21.0470  -29.8140   21.5750 H   0  0  0  0  0  0  0  0  0  0  0  0
  -18.1730  -27.9950   22.7090 C   0  0  0  0  0  0  0  0  0  0  0  0
  -20.7410  -28.2080   22.9160 C   0  0  0  0  0  3  0  0  0  0  0  0
  -20.8090  -26.8300   22.2160 C   0  0  0  0  0  2  0  0  0  0  0  0
  -19.6730  -26.6070   21.2130 C   0  0  0  0  0  2  0  0  0  0  0  0
  -18.3130  -26.7070   21.9120 C   0  0  0  0  0  2  0  0  0  0  0  0
  -19.3130  -28.7070   23.1650 C   0  0  0  0  0  0  0  0  0  0  0  0
  -19.1280  -29.9140   23.8750 C   0  0  0  0  0  3  0  0  0  0  0  0
  -17.8340  -30.4090   24.1270 C   0  0  0  0  0  3  0  0  0  0  0  0
  -16.7100  -29.6920   23.6860 C   0  0  0  0  0  3  0  0  0  0  0  0
  -16.8800  -28.4860   22.9820 C   0  0  0  0  0  3  0  0  0  0  0  0
  -26.0020  -32.3420   23.7970 C   0  0  0  0  0  3  0  0  0  0  0  0
  -25.6700  -33.7010   24.2520 N   0  0  0  0  0  0  0  0  0  0  0  0
  -25.9850  -34.8260   23.5970 C   0  0  0  0  0  0  0  0  0  0  0  0
  -26.6560  -34.8300   22.5610 O   0  0  0  0  0  0  0  0  0  0  0  0
  -25.0690  -33.7700   25.0610 H   0  0  0  0  0  0  0  0  0  0  0  0
  -24.2230  -36.6170   23.4210 C   0  0  0  0  0  1  0  0  0  0  0  0
  -25.4770  -36.1590   24.1830 C   0  0  0  0  0  3  0  0  0  0  0  0
  -27.6040  -37.0030   25.0720 C   0  0  0  0  0  1  0  0  0  0  0  0
  -26.4900  -37.2360   24.1580 N   0  0  0  0  0  0  0  0  0  0  0  0
  -26.0670  -38.1310   24.3950 H   0  0  0  0  0  0  0  0  0  0  0  0
  -26.5520  -31.4780   24.9990 C   0  0  1  0  0  0  0  0  0  0  0  0
  -25.4830  -31.1400   26.0650 C   0  0  0  0  0  1  0  0  0  0  0  0
  -27.1460  -30.1450   24.4890 C   0  0  0  0  0  1  0  0  0  0  0  0
  -27.7030  -32.2320   25.7060 C   0  0  0  0  0  1  0  0  0  0  0  0
  1  2  1  0
  2  6  2  0
  2 19  1  0
  3  4  2  0
  4  7  1  0
  4  6  1  0
  5  3  1  0
  5  1  2  0
  7  9  1  0
  7 55  1  0
  8 10  1  0
  8  3  1  0
 11 17  1  0
 11 19  1  0
 12 17  1  0
 13 14  1  0
 13 12  1  0
 15 14  1  0
 15 24  1  0
 15 16  1  0
 17 16  1  0
 18 11  2  0
 19 20  1  0
 21 22  2  0
 22 23  1  0
 22 41  1  0
 23 26  1  0
 24 21  1  0
 24 25  1  0
 25 23  2  0
 26 27  1  0
 27 28  2  0
 29 32  1  0
 29 28  1  0
 30 29  2  0
 31 30  1  0
 31 26  2  0
 32 33  1  0
 33 34  1  0
 34 35  2  0
 36 35  1  0
 36 40  1  0
 37 36  2  0
 38 33  2  0
 38 37  1  0
 39 38  1  0
 41 42  1  0
 42 45  1  0
 42 44  1  0
 43 41  2  0
 46 21  1  0
 47 46  1  0
 48 46  1  0
 51 49  1  6
 50 51  1  0
 51  8  1  0
 51 52  1  0
 52 54  2  0
 52 53  1  0
 56 57  1  0
 56 55  1  0
 58 56  1  0
 58 59  1  0
 60 71  2  0
 61 59  1  0
 61 66  1  0
 62 70  1  0
 62 72  1  0
 63 69  1  0
 63 65  1  0
 64 70  1  0
 65 64  1  0
 66 65  2  0
 67 68  1  0
 67 61  2  0
 68 63  2  0
 69 62  1  0
 70 60  1  0
 72 74  2  0
 73 72  1  0
 75 73  1  0
 76 85  2  0
 76 81  1  0
 77 73  1  0
 77 81  1  0
 78 77  1  0
 79 80  1  0
 79 78  1  0
 80 76  1  0
 81 82  2  0
 82 83  1  0
 84 83  2  0
 85 84  1  0
 86 60  1  0
 86 87  1  0
 86 96  1  0
 87 90  1  0
 88 92  1  0
 88 87  1  0
 89 88  2  0
 92 91  1  0
 94 92  1  0
 94 95  1  0
 94 93  1  0
 96 99  1  1
 96 97  1  0
 98 96  1  0
M  ISO  4  11 100  19 100  58 101  59 101
M  END
>  <TORSDO>  (34) 
F 21

>  <SCORE>  (34) 
-9.183

>  <name>  (34) 
33

>  <ligand_id>  (34) 
33

>  <original_smiles>  (34) 
[H]c1nc(N([H])C(C(=O)C([H])([H])[H])(C([H])([H])[H])C([H])([H])[H])c(N([H])C([H])([H])C([H])(F)C([H])([H])Oc2c([H])c([H])c3c(c2[H])C([H])([H])N(C(=O)C([H])(N([H])C(=O)C([H])(N([H])C([H])([H])[H])C([H])([H])[H])C(C([H])([H])[H])(C([H])([H])[H])C([H])([H])[H])C([H])(C(=O)N([H])C2([H])c4c([H])c([H])c([H])c([H])c4C([H])([H])C([H])([H])C2([H])[H])C3([H])[H])nc1N([H])C(=O)N1C([H])([H])C([H])([H])C([H])([H])C([H])(n2nc(-c3c([H])c([H])c(Oc4c([H])c([H])c(F)c([H])c4F)c([H])c3[H])c(C(=O)N([H])[H])c2N([H])[H])C1([H])[H]

>  <smiles>  (34) 
[H]c1nc(N([H])C(C(=O)C([H])([H])[H])(C([H])([H])[H])C([H])([H])[H])c(N([H])C([H])([H])C([H])(F)C([H])([H])Oc2c([H])c([H])c3c(c2[H])C([H])([H])N(C(=O)C([H])(N([H])C(=O)C([H])(N([H])C([H])([H])[H])C([H])([H])[H])C(C([H])([H])[H])(C([H])([H])[H])C([H])([H])[H])C([H])(C(=O)N([H])C2([H])c4c([H])c([H])c([H])c([H])c4C([H])([H])C([H])([H])C2([H])[H])C3([H])[H])nc1N([H])C(=O)N1C([H])([H])C([H])([H])C([H])([H])C([H])(n2nc(-c3c([H])c([H])c(Oc4c([H])c([H])c(F)c([H])c4F)c([H])c3[H])c(C(=O)N([H])[H])c2N([H])[H])C1([H])[H]

$$$$
34:0:0
     RDKit          3D

 92 93  0  0  1  0  0  0  0  0999 V2000
  -24.9850  -25.4180   24.7080 C   0  0  0  0  0  1  0  0  0  0  0  0
  -24.6560  -25.6610   23.2300 C   0  0  0  0  0  1  0  0  0  0  0  0
  -23.2600  -27.6790   23.4130 C   0  0  0  0  0  2  0  0  0  0  0  0
  -22.9950  -28.1670   24.5170 O   0  0  0  0  0  0  0  0  0  0  0  0
  -22.3760  -28.7410   21.3920 C   0  0  0  0  0 15  0  0  0  0  0  0
  -23.5470  -28.1060   19.4460 O   0  0  0  0  0  1  0  0  0  0  0  0
  -24.6630  -31.1700   22.9560 C   0  0  0  0  0  0  0  0  0  0  0  0
  -25.0850  -28.0540   18.8360 C   0  0  0  0  0  3  0  0  0  0  0  0
  -24.2950  -29.3400   21.3480 C   0  0  0  0  0  3  0  0  0  0  0  0
  -24.3950  -30.3690   18.9320 C   0  0  0  0  0  3  0  0  0  0  0  0
  -25.9510  -30.9540   20.8130 C   0  0  0  0  0  2  0  0  0  0  0  0
  -25.6850  -30.2440   19.4840 C   0  0  0  0  0  3  0  0  0  0  0  0
  -26.1780  -28.9380   19.2880 C   0  0  0  0  0  2  0  0  0  0  0  0
  -24.9680  -28.3820   17.5280 C   0  0  0  0  0  2  0  0  0  0  0  0
  -24.1990  -29.5580   17.7190 C   0  0  0  0  0  2  0  0  0  0  0  0
  -23.4370  -30.2940   20.1770 C   0  0  0  0  0  2  0  0  0  0  0  0
  -25.0440  -30.4430   21.8570 N   0  0  0  0  0  0  0  0  0  0  0  0
  -23.5530  -31.0970   23.5310 O   0  0  0  0  0  0  0  0  0  0  0  0
  -24.6830  -27.4580   21.2970 C   0  0  0  0  0  0  0  0  0  0  0  0
  -23.6040  -26.2720   20.4210 N   0  0  0  0  0  2  0  0  0  0  0  0
  -25.2750  -27.2350   22.3060 O   0  0  0  0  0  0  0  0  0  0  0  0
  -24.1140  -25.4400   20.1590 H   0  0  0  0  0  0  0  0  0  0  0  0
  -18.7540  -26.0620   21.4120 C   0  0  0  0  0  0  0  0  0  0  0  0
  -21.5810  -25.8770   20.6620 C   0  0  0  0  0  2  0  0  0  0  0  0
  -21.0380  -26.0470   19.3700 C   0  0  0  0  0  3  0  0  0  0  0  0
  -19.5760  -25.6830   19.1710 C   0  0  0  0  0  3  0  0  0  0  0  0
  -18.7780  -25.0800   20.3130 C   0  0  0  0  0  2  0  0  0  0  0  0
  -20.0870  -26.5460   21.7230 C   0  0  0  0  0  0  0  0  0  0  0  0
  -19.7930  -27.5750   22.7870 C   0  0  0  0  0  3  0  0  0  0  0  0
  -18.4890  -27.9770   23.3440 C   0  0  0  0  0  3  0  0  0  0  0  0
  -17.2840  -27.3890   22.9210 C   0  0  0  0  0  3  0  0  0  0  0  0
  -17.4520  -26.4130   21.9330 C   0  0  0  0  0  3  0  0  0  0  0  0
  -25.8250  -31.8540   23.6530 C   0  0  0  0  0  3  0  0  0  0  0  0
  -26.3120  -30.9740   24.8670 C   0  0  1  0  0  0  0  0  0  0  0  0
  -25.1910  -30.5770   25.8590 C   0  0  0  0  0  1  0  0  0  0  0  0
  -27.0150  -29.6650   24.4220 C   0  0  0  0  0  1  0  0  0  0  0  0
  -27.3910  -31.7710   25.6210 C   0  0  0  0  0  1  0  0  0  0  0  0
  -25.4000  -33.1840   24.0810 N   0  0  0  0  0  0  0  0  0  0  0  0
  -25.6460  -34.2940   23.3800 C   0  0  0  0  0  0  0  0  0  0  0  0
  -26.2820  -34.2880   22.3210 O   0  0  0  0  0  0  0  0  0  0  0  0
  -24.8430  -33.2490   24.9190 H   0  0  0  0  0  0  0  0  0  0  0  0
  -23.8860  -36.0780   23.1770 C   0  0  0  0  0  1  0  0  0  0  0  0
  -25.1280  -35.6190   23.9590 C   0  0  0  0  0  3  0  0  0  0  0  0
  -27.2500  -36.4380   24.8900 C   0  0  0  0  0  1  0  0  0  0  0  0
  -26.1470  -36.6930   23.9640 N   0  0  0  0  0  0  0  0  0  0  0  0
  -25.7290  -37.5860   24.2100 H   0  0  0  0  0  0  0  0  0  0  0  0
  -25.9680  -24.4490   22.2600 N   0  0  0  0  0  1  0  0  0  0  0  0
  -26.1040  -24.9220   21.3720 H   0  0  0  0  0  0  0  0  0  0  0  0
  -30.6340  -17.1080   20.0410 C   0  0  0  0  0  0  0  0  0  0  0  0
  -31.4940  -14.5490   18.8820 C   0  0  0  0  0  2  0  0  0  0  0  0
  -30.7840  -13.6470   17.7690 C   0  0  0  0  0  2  0  0  0  0  0  0
  -29.4980  -12.9970   18.2890 C   0  0  0  0  0  2  0  0  0  0  0  0
  -28.8650  -14.0040   19.2530 C   0  0  0  0  0  3  0  0  0  0  0  0
  -29.7850  -14.5230   20.3730 C   0  0  0  0  0  2  0  0  0  0  0  0
  -30.5850  -15.5770   19.7390 N   0  0  0  0  0  0  0  0  0  0  0  0
  -31.8780  -17.1890   19.7180 O   0  0  0  0  0  0  0  0  0  0  0  0
  -27.1380  -22.9070   22.0110 C   0  0  0  0  0  3  0  0  0  0  0  0
  -28.4290  -22.7790   22.5730 C   0  0  0  0  0  0  0  0  0  0  0  0
  -28.7740  -20.1940   21.1170 C   0  0  0  0  0  3  0  0  0  0  0  0
  -27.5230  -21.3240   21.2050 N   0  0  0  0  0  0  0  0  0  0  0  0
  -29.4580  -18.3930   20.4660 N   0  0  0  0  0  2  0  0  0  0  0  0
  -28.8770  -23.7850   23.3690 F   0  0  0  0  0  0  0  0  0  0  0  0
  -29.6450  -21.3290   22.2750 S   0  0  0  0  0  0  0  0  0  0  0  0
  -28.6090  -17.8650   20.2970 H   0  0  0  0  0  0  0  0  0  0  0  0
  -26.6540  -14.4870   20.2550 C   0  0  0  0  0  0  0  0  0  0  0  0
  -25.6680  -13.6930   20.7460 C   0  0  0  0  0  0  0  0  0  0  0  0
  -26.1290  -12.3470   20.6000 C   0  0  0  0  0  0  0  0  0  0  0  0
  -27.6280  -13.6150   19.8330 N   0  0  0  0  0  0  0  0  0  0  0  0
  -27.3600  -12.3210   20.1080 N   0  0  0  0  0  0  0  0  0  0  0  0
  -25.4390  -11.0820   20.8410 C   0  0  0  0  0  0  0  0  0  0  0  0
  -25.7700  -10.2530   21.9350 C   0  0  0  0  0  3  0  0  0  0  0  0
  -25.0690   -9.0470   22.1500 C   0  0  0  0  0  3  0  0  0  0  0  0
  -24.0310   -8.6650   21.2660 C   0  0  0  0  0  0  0  0  0  0  0  0
  -23.7280   -9.4820   20.1640 C   0  0  0  0  0  3  0  0  0  0  0  0
  -24.4290  -10.6770   19.9480 C   0  0  0  0  0  3  0  0  0  0  0  0
  -23.3120   -7.5020   21.3830 O   0  0  0  0  0  0  0  0  0  0  0  0
  -22.6000   -7.2060   22.5180 C   0  0  0  0  0  0  0  0  0  0  0  0
  -21.7430   -8.1490   23.1260 C   0  0  0  0  0  3  0  0  0  0  0  0
  -20.9800   -7.7800   24.2510 C   0  0  0  0  0  3  0  0  0  0  0  0
  -21.0650   -6.4720   24.7620 C   0  0  0  0  0  0  0  0  0  0  0  0
  -21.9150   -5.5310   24.1550 C   0  0  0  0  0  3  0  0  0  0  0  0
  -22.6800   -5.8980   23.0340 C   0  0  0  0  0  0  0  0  0  0  0  0
  -23.4840   -4.9840   22.4370 F   0  0  0  0  0  0  0  0  0  0  0  0
  -20.3250   -6.1140   25.8370 F   0  0  0  0  0  0  0  0  0  0  0  0
  -24.3280  -14.1640   21.2130 C   0  0  0  0  0  0  0  0  0  0  0  0
  -23.7370  -13.4630   22.1720 N   0  0  0  0  0  0  0  0  0  0  0  0
  -23.8280  -15.1940   20.7620 O   0  0  0  0  0  0  0  0  0  0  0  0
  -24.1680  -12.6330   22.5540 H   0  0  0  0  0  0  0  0  0  0  0  0
  -22.8400  -13.7580   22.5310 H   0  0  0  0  0  0  0  0  0  0  0  0
  -26.8000  -15.8660   20.1000 N   0  0  0  0  0  0  0  0  0  0  0  0
  -25.9510  -16.4140   20.1910 H   0  0  0  0  0  0  0  0  0  0  0  0
  -27.3790  -16.1950   19.3400 H   0  0  0  0  0  0  0  0  0  0  0  0
  2  1  1  0
  3  4  2  0
  7 18  2  0
  8 13  1  0
  8  6  1  0
  9 19  1  0
  9 17  1  0
 10 15  1  0
 10 12  1  0
 10 16  1  0
 11 17  1  0
 12 13  1  0
 12 11  1  0
 14 15  1  0
 14  8  1  0
 16  9  1  0
 17  7  1  0
 19 21  2  0
 20 19  1  0
 22 20  1  0
 23 28  2  0
 23 32  1  0
 24 28  1  0
 25 24  1  0
 26 25  2  0
 26 27  1  0
 27 23  1  0
 28 29  1  0
 29 30  2  0
 31 30  1  0
 32 31  2  0
 33  7  1  0
 33 38  1  0
 33 34  1  0
 34 37  1  1
 34 35  1  0
 36 34  1  0
 38 41  1  0
 39 43  1  0
 39 38  1  0
 40 39  2  0
 43 42  1  0
 43 45  1  0
 45 46  1  0
 45 44  1  0
 48 47  1  0
 49 61  1  0
 50 55  1  0
 51 52  1  0
 51 50  1  0
 53 52  1  0
 53 68  1  0
 53 54  1  0
 55 49  1  0
 55 54  1  0
 56 49  2  0
 57 58  2  0
 58 62  1  0
 59 60  2  0
 59 63  1  0
 60 57  1  0
 63 58  1  0
 64 61  1  0
 65 66  2  0
 66 85  1  0
 67 66  1  0
 67 70  1  0
 68 69  1  0
 68 65  1  0
 69 67  2  0
 70 71  1  0
 71 72  2  0
 73 76  1  0
 73 72  1  0
 74 73  2  0
 75 74  1  0
 75 70  2  0
 76 77  1  0
 77 82  2  0
 77 78  1  0
 78 79  2  0
 79 80  1  0
 80 84  1  0
 81 80  2  0
 82 81  1  0
 83 82  1  0
 85 86  1  0
 86 89  1  0
 86 88  1  0
 87 85  2  0
 90 91  1  0
 90 65  1  0
 92 90  1  0
M  ISO  4   5 101   6 101  49 100  61 100
M  END
>  <TORSDO>  (35) 
F 19

>  <SCORE>  (35) 
-9.148

>  <name>  (35) 
34

>  <ligand_id>  (35) 
34

>  <original_smiles>  (35) 
[H]c1c([H])c([H])c2c(c1[H])C([H])([H])C([H])([H])C([H])([H])C2([H])N([H])C(=O)C1([H])N(C(=O)C([H])(N([H])C(=O)C([H])(N([H])C([H])([H])[H])C([H])([H])[H])C(C([H])([H])[H])(C([H])([H])[H])C([H])([H])[H])C([H])([H])c2c([H])c(OC([H])([H])C(=O)C([H])(N([H])c3nc(N([H])C(=O)N4C([H])([H])C([H])([H])C([H])([H])C([H])(n5nc(-c6c([H])c([H])c(Oc7c([H])c([H])c(F)c([H])c7F)c([H])c6[H])c(C(=O)N([H])[H])c5N([H])[H])C4([H])[H])sc3F)C([H])([H])[H])c([H])c([H])c2C1([H])[H]

>  <smiles>  (35) 
[H]c1c([H])c([H])c2c(c1[H])C([H])([H])C([H])([H])C([H])([H])C2([H])N([H])C(=O)C1([H])N(C(=O)C([H])(N([H])C(=O)C([H])(N([H])C([H])([H])[H])C([H])([H])[H])C(C([H])([H])[H])(C([H])([H])[H])C([H])([H])[H])C([H])([H])c2c([H])c(OC([H])([H])C(=O)C([H])(N([H])c3nc(N([H])C(=O)N4C([H])([H])C([H])([H])C([H])([H])C([H])(n5nc(-c6c([H])c([H])c(Oc7c([H])c([H])c(F)c([H])c7F)c([H])c6[H])c(C(=O)N([H])[H])c5N([H])[H])C4([H])[H])sc3F)C([H])([H])[H])c([H])c([H])c2C1([H])[H]

$$$$
35:0:0
     RDKit          3D

 93101  0  0  1  0  0  0  0  0999 V2000
  -28.7730  -22.2970   20.3910 C   0  0  0  0  0  0  0  0  0  0  0  0
  -29.6870  -21.3860   20.8860 N   0  0  0  0  0  0  0  0  0  0  0  0
  -27.9080  -21.9420   19.5920 O   0  0  0  0  0  0  0  0  0  0  0  0
  -30.3770  -21.8450   21.4650 H   0  0  0  0  0  0  0  0  0  0  0  0
  -30.5730  -14.8120   20.3120 C   0  0  0  0  0  0  0  0  0  0  0  0
  -30.3760  -12.5380   19.2790 C   0  0  0  0  0  2  0  0  0  0  0  0
  -29.4190  -12.6040   18.0690 C   0  0  0  0  0  2  0  0  0  0  0  0
  -27.9540  -12.4290   18.5150 C   0  0  0  0  0  2  0  0  0  0  0  0
  -27.5910  -13.3140   19.7370 C   0  0  0  0  0  3  0  0  0  0  0  0
  -28.6640  -13.2240   20.8460 C   0  0  0  0  0  2  0  0  0  0  0  0
  -29.9550  -13.5820   20.2400 N   0  0  0  0  0  0  0  0  0  0  0  0
  -31.7570  -14.9220   19.9730 O   0  0  0  0  0  0  0  0  0  0  0  0
  -31.1160  -19.3690   21.0340 C   0  0  0  0  0  0  0  0  0  0  0  0
  -29.9070  -19.9970   20.7560 C   0  0  0  0  0  0  0  0  0  0  0  0
  -29.9890  -17.3770   20.5960 C   0  0  0  0  0  0  0  0  0  0  0  0
  -32.3770  -20.0670   21.4510 C   0  0  0  0  0  1  0  0  0  0  0  0
  -31.1570  -17.9500   20.9280 N   0  0  0  0  0  0  0  0  0  0  0  0
  -29.7590  -15.9120   20.5450 N   0  0  0  0  0  0  0  0  0  0  0  0
  -28.7500  -18.6840   20.3600 S   0  0  0  0  0  0  0  0  0  0  0  0
  -28.7900  -15.6600   20.6530 H   0  0  0  0  0  0  0  0  0  0  0  0
  -25.2160  -13.9110   20.5000 C   0  0  0  0  0  0  0  0  0  0  0  0
  -24.1490  -13.1380   20.8710 C   0  0  0  0  0  0  0  0  0  0  0  0
  -24.6030  -11.7840   20.8180 C   0  0  0  0  0  0  0  0  0  0  0  0
  -26.2510  -13.0290   20.2370 N   0  0  0  0  0  0  0  0  0  0  0  0
  -25.8880  -11.7440   20.4910 N   0  0  0  0  0  0  0  0  0  0  0  0
  -23.8690  -10.5240   20.9960 C   0  0  0  0  0  0  0  0  0  0  0  0
  -24.2940   -9.5470   21.9210 C   0  0  0  0  0  3  0  0  0  0  0  0
  -23.5590   -8.3530   22.0890 C   0  0  0  0  0  3  0  0  0  0  0  0
  -22.3870   -8.1270   21.3290 C   0  0  0  0  0  0  0  0  0  0  0  0
  -21.9820   -9.0940   20.3910 C   0  0  0  0  0  3  0  0  0  0  0  0
  -22.7170  -10.2790   20.2210 C   0  0  0  0  0  3  0  0  0  0  0  0
  -21.6280   -6.9860   21.4050 O   0  0  0  0  0  0  0  0  0  0  0  0
  -21.5590   -6.2420   22.5560 C   0  0  0  0  0  0  0  0  0  0  0  0
  -21.0890   -6.7890   23.7700 C   0  0  0  0  0  3  0  0  0  0  0  0
  -20.9680   -5.9710   24.9120 C   0  0  0  0  0  3  0  0  0  0  0  0
  -21.3100   -4.6080   24.8400 C   0  0  0  0  0  0  0  0  0  0  0  0
  -21.7710   -4.0590   23.6310 C   0  0  0  0  0  3  0  0  0  0  0  0
  -21.8930   -4.8750   22.4930 C   0  0  0  0  0  0  0  0  0  0  0  0
  -22.3190   -4.3360   21.3240 F   0  0  0  0  0  0  0  0  0  0  0  0
  -21.1870   -3.8200   25.9340 F   0  0  0  0  0  0  0  0  0  0  0  0
  -22.7590  -13.6210   21.1660 C   0  0  0  0  0  0  0  0  0  0  0  0
  -22.0310  -12.9100   22.0210 N   0  0  0  0  0  0  0  0  0  0  0  0
  -22.3270  -14.6630   20.6750 O   0  0  0  0  0  0  0  0  0  0  0  0
  -22.3930  -12.0670   22.4400 H   0  0  0  0  0  0  0  0  0  0  0  0
  -21.0970  -13.2150   22.2600 H   0  0  0  0  0  0  0  0  0  0  0  0
  -25.3850  -15.2830   20.3410 N   0  0  0  0  0  0  0  0  0  0  0  0
  -24.6140  -15.9320   20.4680 H   0  0  0  0  0  0  0  0  0  0  0  0
  -26.2040  -15.7240   19.9450 H   0  0  0  0  0  0  0  0  0  0  0  0
  -30.1850  -24.2140   21.4160 C   0  0  0  0  0  1  0  0  0  0  0  0
  -27.7710  -23.9200   22.0440 C   0  0  0  0  0  1  0  0  0  0  0  0
  -28.7870  -23.8440   20.8860 C   0  0  2  0  0  0  0  0  0  0  0  0
  -28.3660  -25.0050   19.8340 C   0  0  0  0  0  2  0  0  0  0  0  0
  -28.3720  -26.4620   20.2390 O   0  0  0  0  0  0  0  0  0  0  0  0
  -24.6440  -31.8950   23.2390 C   0  0  0  0  0  0  0  0  0  0  0  0
  -27.2470  -27.3190   20.1550 C   0  0  0  0  0  0  0  0  0  0  0  0
  -23.4440  -30.5060   21.5860 C   0  0  0  0  0  3  0  0  0  0  0  0
  -24.8970  -28.9690   20.1470 C   0  0  0  0  0  0  0  0  0  0  0  0
  -25.9860  -30.8180   21.4130 C   0  0  0  0  0  2  0  0  0  0  0  0
  -26.0650  -29.4410   20.7560 C   0  0  0  0  0  0  0  0  0  0  0  0
  -27.2380  -28.6220   20.7560 C   0  0  0  0  0  3  0  0  0  0  0  0
  -26.0550  -26.9230   19.5050 C   0  0  0  0  0  3  0  0  0  0  0  0
  -24.8950  -27.7210   19.5120 C   0  0  0  0  0  3  0  0  0  0  0  0
  -23.6640  -29.8490   20.1970 C   0  0  0  0  0  2  0  0  0  0  0  0
  -24.7100  -31.0910   22.1360 N   0  0  0  0  0  0  0  0  0  0  0  0
  -23.5590  -32.1640   23.7740 O   0  0  0  0  0  0  0  0  0  0  0  0
  -22.7850  -29.4780   22.5390 C   0  0  0  0  0  0  0  0  0  0  0  0
  -21.4600  -29.2960   22.4150 N   0  0  0  0  0  0  0  0  0  0  0  0
  -23.4680  -28.8480   23.3520 O   0  0  0  0  0  0  0  0  0  0  0  0
  -20.9670  -29.8660   21.7410 H   0  0  0  0  0  0  0  0  0  0  0  0
  -18.0800  -28.0970   22.9170 C   0  0  0  0  0  0  0  0  0  0  0  0
  -20.6420  -28.3490   23.1790 C   0  0  0  0  0  3  0  0  0  0  0  0
  -20.7380  -26.9240   22.5860 C   0  0  0  0  0  2  0  0  0  0  0  0
  -19.6300  -26.6170   21.5730 C   0  0  0  0  0  2  0  0  0  0  0  0
  -18.2520  -26.7540   22.2260 C   0  0  0  0  0  2  0  0  0  0  0  0
  -19.2040  -28.8520   23.3500 C   0  0  0  0  0  0  0  0  0  0  0  0
  -18.9890  -30.1080   23.9580 C   0  0  0  0  0  3  0  0  0  0  0  0
  -17.6860  -30.6080   24.1400 C   0  0  0  0  0  3  0  0  0  0  0  0
  -16.5790  -29.8490   23.7240 C   0  0  0  0  0  3  0  0  0  0  0  0
  -16.7760  -28.5960   23.1170 C   0  0  0  0  0  3  0  0  0  0  0  0
  -25.9210  -32.5270   23.8650 C   0  0  0  0  0  3  0  0  0  0  0  0
  -25.6130  -33.9300   24.1900 N   0  0  0  0  0  0  0  0  0  0  0  0
  -25.9460  -34.9800   23.4290 C   0  0  0  0  0  0  0  0  0  0  0  0
  -26.6140  -34.8720   22.3960 O   0  0  0  0  0  0  0  0  0  0  0  0
  -25.0190  -34.0860   24.9910 H   0  0  0  0  0  0  0  0  0  0  0  0
  -24.2260  -36.7790   23.0650 C   0  0  0  0  0  1  0  0  0  0  0  0
  -25.4600  -36.3690   23.8840 C   0  0  0  0  0  3  0  0  0  0  0  0
  -27.5880  -37.2550   24.7310 C   0  0  0  0  0  1  0  0  0  0  0  0
  -26.4960  -37.4200   23.7770 N   0  0  0  0  0  0  0  0  0  0  0  0
  -26.0890  -38.3430   23.9140 H   0  0  0  0  0  0  0  0  0  0  0  0
  -26.4310  -31.7600   25.1480 C   0  0  1  0  0  0  0  0  0  0  0  0
  -25.3320  -31.5290   26.2100 C   0  0  0  0  0  1  0  0  0  0  0  0
  -27.0160  -30.3830   24.7630 C   0  0  0  0  0  1  0  0  0  0  0  0
  -27.5740  -32.5580   25.8150 C   0  0  0  0  0  1  0  0  0  0  0  0
  1 51  1  0
  1  2  1  0
  2  4  1  0
  3  1  2  0
  5 18  1  0
  6 11  1  0
  7  8  1  0
  7  6  1  0
  9  8  1  0
  9 24  1  0
  9 10  1  0
 11  5  1  0
 11 10  1  0
 12  5  2  0
 13 16  1  0
 14  2  1  0
 14 13  2  0
 15 17  2  0
 17 13  1  0
 18 15  1  0
 18 20  1  0
 19 15  1  0
 19 14  1  0
 21 22  2  0
 22 41  1  0
 23 22  1  0
 23 26  1  0
 24 25  1  0
 24 21  1  0
 25 23  2  0
 26 27  1  0
 27 28  2  0
 29 32  1  0
 29 28  1  0
 30 29  2  0
 31 30  1  0
 31 26  2  0
 32 33  1  0
 33 34  1  0
 34 35  2  0
 36 35  1  0
 36 40  1  0
 37 36  2  0
 38 33  2  0
 38 37  1  0
 39 38  1  0
 41 42  1  0
 42 45  1  0
 42 44  1  0
 43 41  2  0
 46 47  1  0
 46 21  1  0
 48 46  1  0
 51 49  1  1
 51 50  1  0
 52 53  1  0
 52 51  1  0
 54 65  2  0
 55 53  1  0
 55 60  1  0
 56 64  1  0
 56 66  1  0
 57 63  1  0
 57 59  1  0
 58 64  1  0
 59 60  2  0
 59 58  1  0
 61 62  1  0
 61 55  2  0
 62 57  2  0
 63 56  1  0
 64 54  1  0
 66 68  2  0
 67 66  1  0
 69 67  1  0
 70 79  2  0
 70 75  1  0
 71 67  1  0
 71 75  1  0
 72 71  1  0
 73 74  1  0
 73 72  1  0
 74 70  1  0
 75 76  2  0
 76 77  1  0
 78 77  2  0
 79 78  1  0
 80 54  1  0
 80 81  1  0
 80 90  1  0
 81 84  1  0
 82 86  1  0
 82 81  1  0
 83 82  2  0
 86 85  1  0
 88 86  1  0
 88 89  1  0
 88 87  1  0
 90 93  1  1
 90 91  1  0
 92 90  1  0
M  ISO  4   5 100  18 100  52 101  53 101
M  END
>  <TORSDO>  (36) 
F 18

>  <SCORE>  (36) 
-14.851

>  <name>  (36) 
35

>  <ligand_id>  (36) 
35

>  <original_smiles>  (36) 
[H]c1c([H])c([H])c2c(c1[H])C([H])([H])C([H])([H])C([H])([H])C2([H])N([H])C(=O)C1([H])N(C(=O)C([H])(N([H])C(=O)C([H])(N([H])C([H])([H])[H])C([H])([H])[H])C(C([H])([H])[H])(C([H])([H])[H])C([H])([H])[H])C([H])([H])c2c([H])c(OC([H])([H])C(C(=O)N([H])c3sc(N([H])C(=O)N4C([H])([H])C([H])([H])C([H])([H])C([H])(n5nc(-c6c([H])c([H])c(Oc7c([H])c([H])c(F)c([H])c7F)c([H])c6[H])c(C(=O)N([H])[H])c5N([H])[H])C4([H])[H])nc3C([H])([H])[H])(C([H])([H])[H])C([H])([H])[H])c([H])c([H])c2C1([H])[H]

>  <smiles>  (36) 
[H]c1c([H])c([H])c2c(c1[H])C([H])([H])C([H])([H])C([H])([H])C2([H])N([H])C(=O)C1([H])N(C(=O)C([H])(N([H])C(=O)C([H])(N([H])C([H])([H])[H])C([H])([H])[H])C(C([H])([H])[H])(C([H])([H])[H])C([H])([H])[H])C([H])([H])c2c([H])c(OC([H])([H])C(C(=O)N([H])c3sc(N([H])C(=O)N4C([H])([H])C([H])([H])C([H])([H])C([H])(n5nc(-c6c([H])c([H])c(Oc7c([H])c([H])c(F)c([H])c7F)c([H])c6[H])c(C(=O)N([H])[H])c5N([H])[H])C4([H])[H])nc3C([H])([H])[H])(C([H])([H])[H])C([H])([H])[H])c([H])c([H])c2C1([H])[H]

$$$$
36:0:0
     RDKit          3D

 94102  0  0  1  0  0  0  0  0999 V2000
  -29.7010  -21.6560   20.3430 C   0  0  0  0  0  0  0  0  0  0  0  0
  -29.4060  -20.4490   20.8890 N   0  0  0  0  0  0  0  0  0  0  0  0
  -30.5410  -21.8660   19.4650 O   0  0  0  0  0  0  0  0  0  0  0  0
  -28.5990  -20.4950   21.4940 H   0  0  0  0  0  0  0  0  0  0  0  0
  -30.7100  -14.5430   20.3830 C   0  0  0  0  0  0  0  0  0  0  0  0
  -30.4050  -12.3710   19.2540 C   0  0  0  0  0  2  0  0  0  0  0  0
  -29.4620  -12.5760   18.0490 C   0  0  0  0  0  2  0  0  0  0  0  0
  -27.9900  -12.4300   18.4800 C   0  0  0  0  0  2  0  0  0  0  0  0
  -27.6520  -13.2560   19.7490 C   0  0  0  0  0  3  0  0  0  0  0  0
  -28.7150  -13.0610   20.8550 C   0  0  0  0  0  2  0  0  0  0  0  0
  -30.0340  -13.3630   20.2780 N   0  0  0  0  0  0  0  0  0  0  0  0
  -31.8630  -14.6620   19.9550 O   0  0  0  0  0  0  0  0  0  0  0  0
  -29.2920  -18.0240   20.9530 C   0  0  0  0  0  3  0  0  0  0  0  0
  -30.2750  -17.0090   20.7090 C   0  0  0  0  0  0  0  0  0  0  0  0
  -29.9630  -19.2040   20.7240 C   0  0  0  0  0  0  0  0  0  0  0  0
  -32.4380  -19.7280   20.1610 C   0  0  0  0  0  1  0  0  0  0  0  0
  -31.4510  -17.5400   20.3840 N   0  0  0  0  0  0  0  0  0  0  0  0
  -31.2800  -18.8880   20.4060 N   0  0  0  0  0  0  0  0  0  0  0  0
  -29.9860  -15.6040   20.8200 N   0  0  0  0  0  0  0  0  0  0  0  0
  -29.0610  -15.3730   21.1480 H   0  0  0  0  0  0  0  0  0  0  0  0
  -25.2490  -13.8440   20.4530 C   0  0  0  0  0  0  0  0  0  0  0  0
  -24.1870  -13.0650   20.8250 C   0  0  0  0  0  0  0  0  0  0  0  0
  -24.6600  -11.7160   20.8040 C   0  0  0  0  0  0  0  0  0  0  0  0
  -26.3030  -12.9700   20.2310 N   0  0  0  0  0  0  0  0  0  0  0  0
  -25.9510  -11.6860   20.4990 N   0  0  0  0  0  0  0  0  0  0  0  0
  -23.9410  -10.4500   21.0000 C   0  0  0  0  0  0  0  0  0  0  0  0
  -24.3810   -9.4900   21.9380 C   0  0  0  0  0  3  0  0  0  0  0  0
  -23.6650   -8.2880   22.1230 C   0  0  0  0  0  3  0  0  0  0  0  0
  -22.4950   -8.0360   21.3670 C   0  0  0  0  0  0  0  0  0  0  0  0
  -22.0740   -8.9840   20.4170 C   0  0  0  0  0  3  0  0  0  0  0  0
  -22.7910  -10.1780   20.2320 C   0  0  0  0  0  3  0  0  0  0  0  0
  -21.7500   -6.8860   21.4590 O   0  0  0  0  0  0  0  0  0  0  0  0
  -21.7060   -6.1480   22.6150 C   0  0  0  0  0  0  0  0  0  0  0  0
  -21.2680   -6.7020   23.8380 C   0  0  0  0  0  3  0  0  0  0  0  0
  -21.1710   -5.8900   24.9840 C   0  0  0  0  0  3  0  0  0  0  0  0
  -21.5030   -4.5240   24.9110 C   0  0  0  0  0  0  0  0  0  0  0  0
  -21.9350   -3.9680   23.6950 C   0  0  0  0  0  3  0  0  0  0  0  0
  -22.0330   -4.7780   22.5490 C   0  0  0  0  0  0  0  0  0  0  0  0
  -22.4290   -4.2320   21.3740 F   0  0  0  0  0  0  0  0  0  0  0  0
  -21.4040   -3.7420   26.0120 F   0  0  0  0  0  0  0  0  0  0  0  0
  -22.7850  -13.5320   21.0920 C   0  0  0  0  0  0  0  0  0  0  0  0
  -22.0600  -12.8350   21.9600 N   0  0  0  0  0  0  0  0  0  0  0  0
  -22.3400  -14.5520   20.5670 O   0  0  0  0  0  0  0  0  0  0  0  0
  -22.4330  -12.0100   22.4080 H   0  0  0  0  0  0  0  0  0  0  0  0
  -21.1190  -13.1280   22.1800 H   0  0  0  0  0  0  0  0  0  0  0  0
  -25.4030  -15.2140   20.2640 N   0  0  0  0  0  0  0  0  0  0  0  0
  -24.6240  -15.8580   20.3510 H   0  0  0  0  0  0  0  0  0  0  0  0
  -26.2390  -15.6520   19.9000 H   0  0  0  0  0  0  0  0  0  0  0  0
  -28.7930  -22.8020   20.9100 C   0  0  0  0  0  0  0  0  0  0  0  0
  -27.7260  -22.5360   21.4790 O   0  0  0  0  0  0  0  0  0  0  0  0
  -29.2540  -24.2820   20.7750 C   0  0  0  0  0  2  0  0  0  0  0  0
  -28.5600  -25.0150   18.4350 C   0  0  0  0  0  1  0  0  0  0  0  0
  -28.2930  -25.1870   19.9400 C   0  0  0  0  0  3  0  0  0  0  0  0
  -28.3800  -26.6100   20.2510 O   0  0  0  0  0  0  0  0  0  0  0  0
  -24.6010  -31.8900   23.2480 C   0  0  0  0  0  0  0  0  0  0  0  0
  -27.2230  -27.3860   20.1900 C   0  0  0  0  0  0  0  0  0  0  0  0
  -23.3940  -30.4870   21.6140 C   0  0  0  0  0  3  0  0  0  0  0  0
  -24.8430  -28.9510   20.1840 C   0  0  0  0  0  0  0  0  0  0  0  0
  -25.9270  -30.8270   21.4170 C   0  0  0  0  0  2  0  0  0  0  0  0
  -26.0070  -29.4540   20.7770 C   0  0  0  0  0  0  0  0  0  0  0  0
  -27.1990  -28.6820   20.7720 C   0  0  0  0  0  3  0  0  0  0  0  0
  -26.0320  -26.9220   19.5780 C   0  0  0  0  0  3  0  0  0  0  0  0
  -24.8540  -27.6870   19.5770 C   0  0  0  0  0  3  0  0  0  0  0  0
  -23.6000  -29.8120   20.2340 C   0  0  0  0  0  2  0  0  0  0  0  0
  -24.6600  -31.0840   22.1500 N   0  0  0  0  0  0  0  0  0  0  0  0
  -23.5190  -32.1670   23.7860 O   0  0  0  0  0  0  0  0  0  0  0  0
  -22.7420  -29.4660   22.5740 C   0  0  0  0  0  0  0  0  0  0  0  0
  -21.4160  -29.2870   22.4470 N   0  0  0  0  0  0  0  0  0  0  0  0
  -23.4230  -28.8410   23.3900 O   0  0  0  0  0  0  0  0  0  0  0  0
  -20.9270  -29.8380   21.7570 H   0  0  0  0  0  0  0  0  0  0  0  0
  -18.0370  -28.1040   22.9520 C   0  0  0  0  0  0  0  0  0  0  0  0
  -20.5970  -28.3520   23.2190 C   0  0  0  0  0  3  0  0  0  0  0  0
  -20.6930  -26.9210   22.6440 C   0  0  0  0  0  2  0  0  0  0  0  0
  -19.5870  -26.6010   21.6310 C   0  0  0  0  0  2  0  0  0  0  0  0
  -18.2070  -26.7540   22.2760 C   0  0  0  0  0  2  0  0  0  0  0  0
  -19.1590  -28.8610   23.3800 C   0  0  0  0  0  0  0  0  0  0  0  0
  -18.9460  -30.1260   23.9710 C   0  0  0  0  0  3  0  0  0  0  0  0
  -17.6440  -30.6340   24.1360 C   0  0  0  0  0  3  0  0  0  0  0  0
  -16.5350  -29.8730   23.7260 C   0  0  0  0  0  3  0  0  0  0  0  0
  -16.7320  -28.6100   23.1400 C   0  0  0  0  0  3  0  0  0  0  0  0
  -25.8860  -32.5220   23.8660 C   0  0  0  0  0  3  0  0  0  0  0  0
  -26.4020  -31.7540   25.1440 C   0  0  1  0  0  0  0  0  0  0  0  0
  -25.3090  -31.5210   26.2110 C   0  0  0  0  0  1  0  0  0  0  0  0
  -26.9800  -30.3740   24.7540 C   0  0  0  0  0  1  0  0  0  0  0  0
  -27.5560  -32.5480   25.8020 C   0  0  0  0  0  1  0  0  0  0  0  0
  -25.5790  -33.9230   24.1900 N   0  0  0  0  0  0  0  0  0  0  0  0
  -25.9080  -34.9710   23.4240 C   0  0  0  0  0  0  0  0  0  0  0  0
  -26.5750  -34.8630   22.3910 O   0  0  0  0  0  0  0  0  0  0  0  0
  -24.9860  -34.0800   24.9910 H   0  0  0  0  0  0  0  0  0  0  0  0
  -24.1790  -36.7610   23.0570 C   0  0  0  0  0  1  0  0  0  0  0  0
  -25.4190  -36.3610   23.8750 C   0  0  0  0  0  3  0  0  0  0  0  0
  -27.5550  -37.2450   24.7020 C   0  0  0  0  0  1  0  0  0  0  0  0
  -26.4510  -37.4140   23.7610 N   0  0  0  0  0  0  0  0  0  0  0  0
  -26.0450  -38.3340   23.9140 H   0  0  0  0  0  0  0  0  0  0  0  0
  1  2  1  0
  1 49  1  0
  2  4  1  0
  3  1  2  0
  5 19  1  0
  6 11  1  0
  7  8  1  0
  7  6  1  0
  9  8  1  0
  9 24  1  0
  9 10  1  0
 11  5  1  0
 11 10  1  0
 12  5  2  0
 14 19  1  0
 14 13  1  0
 15  2  1  0
 15 13  2  0
 16 18  1  0
 17 18  1  0
 17 14  2  0
 18 15  1  0
 19 20  1  0
 21 22  2  0
 22 41  1  0
 23 22  1  0
 23 26  1  0
 24 21  1  0
 24 25  1  0
 25 23  2  0
 26 27  1  0
 27 28  2  0
 29 32  1  0
 29 28  1  0
 30 29  2  0
 31 30  1  0
 31 26  2  0
 32 33  1  0
 33 34  1  0
 34 35  2  0
 36 35  1  0
 36 40  1  0
 37 36  2  0
 38 33  2  0
 38 37  1  0
 39 38  1  0
 41 42  1  0
 42 45  1  0
 42 44  1  0
 43 41  2  0
 46 47  1  0
 46 21  1  0
 48 46  1  0
 49 50  2  0
 51 49  1  0
 53 52  1  0
 53 54  1  0
 53 51  1  0
 55 66  2  0
 56 54  1  0
 56 61  1  0
 57 65  1  0
 57 67  1  0
 58 64  1  0
 58 60  1  0
 59 65  1  0
 60 59  1  0
 61 60  2  0
 62 56  2  0
 63 62  1  0
 63 58  2  0
 64 57  1  0
 65 55  1  0
 67 69  2  0
 68 67  1  0
 70 68  1  0
 71 80  2  0
 71 76  1  0
 72 68  1  0
 72 76  1  0
 73 72  1  0
 74 75  1  0
 74 73  1  0
 75 71  1  0
 76 77  2  0
 77 78  1  0
 79 78  2  0
 80 79  1  0
 81 55  1  0
 81 86  1  0
 81 82  1  0
 82 85  1  1
 82 83  1  0
 84 82  1  0
 86 89  1  0
 87 91  1  0
 87 86  1  0
 88 87  2  0
 91 90  1  0
 93 91  1  0
 93 94  1  0
 93 92  1  0
M  ISO  4   5 100  19 100  53 101  54 101
M  END
>  <TORSDO>  (37) 
F 19

>  <SCORE>  (37) 
-14.480

>  <name>  (37) 
36

>  <ligand_id>  (37) 
36

>  <original_smiles>  (37) 
[H]c1c([H])c([H])c2c(c1[H])C([H])([H])C([H])([H])C([H])([H])C2([H])N([H])C(=O)C1([H])N(C(=O)C([H])(N([H])C(=O)C([H])(N([H])C([H])([H])[H])C([H])([H])[H])C(C([H])([H])[H])(C([H])([H])[H])C([H])([H])[H])C([H])([H])c2c([H])c(OC([H])(C([H])([H])[H])C([H])([H])C(=O)C(=O)N([H])c3c([H])c(N([H])C(=O)N4C([H])([H])C([H])([H])C([H])([H])C([H])(n5nc(-c6c([H])c([H])c(Oc7c([H])c([H])c(F)c([H])c7F)c([H])c6[H])c(C(=O)N([H])[H])c5N([H])[H])C4([H])[H])nn3C([H])([H])[H])c([H])c([H])c2C1([H])[H]

>  <smiles>  (37) 
[H]c1c([H])c([H])c2c(c1[H])C([H])([H])C([H])([H])C([H])([H])C2([H])N([H])C(=O)C1([H])N(C(=O)C([H])(N([H])C(=O)C([H])(N([H])C([H])([H])[H])C([H])([H])[H])C(C([H])([H])[H])(C([H])([H])[H])C([H])([H])[H])C([H])([H])c2c([H])c(OC([H])(C([H])([H])[H])C([H])([H])C(=O)C(=O)N([H])c3c([H])c(N([H])C(=O)N4C([H])([H])C([H])([H])C([H])([H])C([H])(n5nc(-c6c([H])c([H])c(Oc7c([H])c([H])c(F)c([H])c7F)c([H])c6[H])c(C(=O)N([H])[H])c5N([H])[H])C4([H])[H])nn3C([H])([H])[H])c([H])c([H])c2C1([H])[H]

$$$$
37:0:0
     RDKit          3D

 95103  0  0  1  0  0  0  0  0999 V2000
  -31.4400  -20.3020   21.1220 C   0  0  0  0  0  0  0  0  0  0  0  0
  -30.5980  -19.3740   20.5300 C   0  0  0  0  0  0  0  0  0  0  0  0
  -29.7750  -21.7470   20.4870 C   0  0  0  0  0  0  0  0  0  0  0  0
  -29.3450  -24.2620   20.5880 C   0  0  0  0  0  0  0  0  0  0  0  0
  -32.7740  -20.0550   21.7580 C   0  0  0  0  0  1  0  0  0  0  0  0
  -30.9630  -21.6300   21.0940 N   0  0  0  0  0  0  0  0  0  0  0  0
  -29.0350  -22.9650   20.3460 N   0  0  0  0  0  0  0  0  0  0  0  0
  -30.4910  -24.6900   20.7580 O   0  0  0  0  0  0  0  0  0  0  0  0
  -29.1460  -20.1840   19.9480 S   0  0  0  0  0  0  0  0  0  0  0  0
  -28.0700  -22.8240   20.0800 H   0  0  0  0  0  0  0  0  0  0  0  0
  -27.5580  -25.2420   22.0720 C   0  0  0  0  0  1  0  0  0  0  0  0
  -28.1210  -25.2230   20.6340 C   0  0  0  0  0  3  0  0  0  0  0  0
  -28.3920  -26.5920   20.1970 O   0  0  0  0  0  0  0  0  0  0  0  0
  -24.6160  -31.8590   23.2050 C   0  0  0  0  0  0  0  0  0  0  0  0
  -27.2640  -27.4070   20.1180 C   0  0  0  0  0  0  0  0  0  0  0  0
  -23.4140  -30.4740   21.5470 C   0  0  0  0  0  3  0  0  0  0  0  0
  -24.8770  -28.9470   20.1130 C   0  0  0  0  0  0  0  0  0  0  0  0
  -25.9480  -30.8240   21.3650 C   0  0  0  0  0  2  0  0  0  0  0  0
  -26.0350  -29.4570   20.7130 C   0  0  0  0  0  0  0  0  0  0  0  0
  -27.2330  -28.6930   20.7160 C   0  0  0  0  0  3  0  0  0  0  0  0
  -26.0910  -26.9410   19.4810 C   0  0  0  0  0  3  0  0  0  0  0  0
  -24.9020  -27.6920   19.4920 C   0  0  0  0  0  3  0  0  0  0  0  0
  -23.6310  -29.8070   20.1620 C   0  0  0  0  0  2  0  0  0  0  0  0
  -24.6770  -31.0670   22.0970 N   0  0  0  0  0  0  0  0  0  0  0  0
  -23.5310  -32.1260   23.7420 O   0  0  0  0  0  0  0  0  0  0  0  0
  -22.7570  -29.4450   22.4950 C   0  0  0  0  0  0  0  0  0  0  0  0
  -21.4300  -29.2770   22.3730 N   0  0  0  0  0  0  0  0  0  0  0  0
  -23.4380  -28.8030   23.2990 O   0  0  0  0  0  0  0  0  0  0  0  0
  -20.9410  -29.8480   21.6980 H   0  0  0  0  0  0  0  0  0  0  0  0
  -18.0410  -28.1320   22.8910 C   0  0  0  0  0  0  0  0  0  0  0  0
  -20.6070  -28.3370   23.1350 C   0  0  0  0  0  3  0  0  0  0  0  0
  -20.6750  -26.9170   22.5280 C   0  0  0  0  0  2  0  0  0  0  0  0
  -19.5550  -26.6360   21.5220 C   0  0  0  0  0  2  0  0  0  0  0  0
  -18.1840  -26.7950   22.1860 C   0  0  0  0  0  2  0  0  0  0  0  0
  -19.1790  -28.8640   23.3220 C   0  0  0  0  0  0  0  0  0  0  0  0
  -18.9930  -30.1190   23.9420 C   0  0  0  0  0  3  0  0  0  0  0  0
  -17.6990  -30.6400   24.1370 C   0  0  0  0  0  3  0  0  0  0  0  0
  -16.5750  -29.9030   23.7230 C   0  0  0  0  0  3  0  0  0  0  0  0
  -16.7470  -28.6520   23.1040 C   0  0  0  0  0  3  0  0  0  0  0  0
  -25.8980  -32.4860   23.8360 C   0  0  0  0  0  3  0  0  0  0  0  0
  -26.4090  -31.7050   25.1080 C   0  0  1  0  0  0  0  0  0  0  0  0
  -25.3110  -31.4530   26.1690 C   0  0  0  0  0  1  0  0  0  0  0  0
  -26.9960  -30.3340   24.7020 C   0  0  0  0  0  1  0  0  0  0  0  0
  -27.5560  -32.4950   25.7830 C   0  0  0  0  0  1  0  0  0  0  0  0
  -25.5870  -33.8820   24.1750 N   0  0  0  0  0  0  0  0  0  0  0  0
  -25.9200  -34.9390   23.4220 C   0  0  0  0  0  0  0  0  0  0  0  0
  -26.5940  -34.8420   22.3940 O   0  0  0  0  0  0  0  0  0  0  0  0
  -24.9920  -34.0320   24.9770 H   0  0  0  0  0  0  0  0  0  0  0  0
  -24.1950  -36.7350   23.0750 C   0  0  0  0  0  1  0  0  0  0  0  0
  -25.4330  -36.3250   23.8870 C   0  0  0  0  0  3  0  0  0  0  0  0
  -27.5640  -37.2060   24.7300 C   0  0  0  0  0  1  0  0  0  0  0  0
  -26.4660  -37.3790   23.7820 N   0  0  0  0  0  0  0  0  0  0  0  0
  -26.0590  -38.2970   23.9350 H   0  0  0  0  0  0  0  0  0  0  0  0
  -30.8180  -17.8720   20.3000 C   0  0  0  0  0  2  0  0  0  0  0  0
  -29.0000  -17.3620   22.0270 C   0  0  0  0  0  1  0  0  0  0  0  0
  -31.3670  -16.7110   22.5090 C   0  0  0  0  0  1  0  0  0  0  0  0
  -30.3120  -16.8560   21.3910 C   0  0  2  0  0  0  0  0  0  0  0  0
  -30.6890  -14.5590   20.1960 C   0  0  0  0  0  0  0  0  0  0  0  0
  -30.3500  -12.4560   18.9190 C   0  0  0  0  0  2  0  0  0  0  0  0
  -29.3450  -12.6920   17.7720 C   0  0  0  0  0  2  0  0  0  0  0  0
  -27.8890  -12.5380   18.2620 C   0  0  0  0  0  2  0  0  0  0  0  0
  -27.6130  -13.3160   19.5760 C   0  0  0  0  0  3  0  0  0  0  0  0
  -28.7190  -13.0370   20.6170 C   0  0  0  0  0  2  0  0  0  0  0  0
  -30.0150  -13.3870   20.0070 N   0  0  0  0  0  0  0  0  0  0  0  0
  -31.7980  -14.7820   19.7030 O   0  0  0  0  0  0  0  0  0  0  0  0
  -29.9890  -15.5030   20.8650 N   0  0  0  0  0  0  0  0  0  0  0  0
  -29.0590  -15.1880   21.0960 H   0  0  0  0  0  0  0  0  0  0  0  0
  -25.2450  -13.8960   20.3980 C   0  0  0  0  0  0  0  0  0  0  0  0
  -24.1990  -13.1110   20.8020 C   0  0  0  0  0  0  0  0  0  0  0  0
  -24.6700  -11.7630   20.7360 C   0  0  0  0  0  0  0  0  0  0  0  0
  -26.2850  -13.0250   20.1090 N   0  0  0  0  0  0  0  0  0  0  0  0
  -25.9460  -11.7370   20.3720 N   0  0  0  0  0  0  0  0  0  0  0  0
  -23.9620  -10.4930   20.9430 C   0  0  0  0  0  0  0  0  0  0  0  0
  -24.4180   -9.5330   21.8740 C   0  0  0  0  0  3  0  0  0  0  0  0
  -23.7090   -8.3280   22.0660 C   0  0  0  0  0  3  0  0  0  0  0  0
  -22.5300   -8.0730   21.3260 C   0  0  0  0  0  0  0  0  0  0  0  0
  -22.0910   -9.0220   20.3860 C   0  0  0  0  0  3  0  0  0  0  0  0
  -22.8020  -10.2170   20.1910 C   0  0  0  0  0  3  0  0  0  0  0  0
  -21.7890   -6.9200   21.4300 O   0  0  0  0  0  0  0  0  0  0  0  0
  -21.7370   -6.2000   22.5960 C   0  0  0  0  0  0  0  0  0  0  0  0
  -21.2960   -6.7740   23.8090 C   0  0  0  0  0  3  0  0  0  0  0  0
  -21.1920   -5.9790   24.9670 C   0  0  0  0  0  3  0  0  0  0  0  0
  -21.5150   -4.6100   24.9140 C   0  0  0  0  0  0  0  0  0  0  0  0
  -21.9500   -4.0350   23.7060 C   0  0  0  0  0  3  0  0  0  0  0  0
  -22.0560   -4.8270   22.5490 C   0  0  0  0  0  0  0  0  0  0  0  0
  -22.4530   -4.2630   21.3840 F   0  0  0  0  0  0  0  0  0  0  0  0
  -21.4080   -3.8430   26.0250 F   0  0  0  0  0  0  0  0  0  0  0  0
  -22.8100  -13.5740   21.1350 C   0  0  0  0  0  0  0  0  0  0  0  0
  -22.1220  -12.8620   22.0220 N   0  0  0  0  0  0  0  0  0  0  0  0
  -22.3440  -14.6020   20.6470 O   0  0  0  0  0  0  0  0  0  0  0  0
  -22.5110  -12.0280   22.4380 H   0  0  0  0  0  0  0  0  0  0  0  0
  -21.1910  -13.1520   22.2820 H   0  0  0  0  0  0  0  0  0  0  0  0
  -25.3980  -15.2690   20.2330 N   0  0  0  0  0  0  0  0  0  0  0  0
  -24.6410  -15.9240   20.3990 H   0  0  0  0  0  0  0  0  0  0  0  0
  -26.2360  -15.7170   19.8850 H   0  0  0  0  0  0  0  0  0  0  0  0
  1  5  1  0
  2  1  2  0
  3  6  2  0
  4 12  1  0
  4  8  2  0
  6  1  1  0
  7  3  1  0
  7  4  1  0
  9  3  1  0
  9  2  1  0
 10  7  1  0
 12 11  1  0
 13 12  1  0
 14 25  2  0
 15 13  1  0
 15 20  1  0
 16 24  1  0
 16 26  1  0
 17 23  1  0
 17 19  1  0
 18 24  1  0
 19 20  2  0
 19 18  1  0
 21 22  1  0
 21 15  2  0
 22 17  2  0
 23 16  1  0
 24 14  1  0
 26 28  2  0
 27 26  1  0
 29 27  1  0
 30 39  2  0
 30 35  1  0
 31 27  1  0
 31 35  1  0
 32 31  1  0
 33 34  1  0
 33 32  1  0
 34 30  1  0
 35 36  2  0
 36 37  1  0
 38 37  2  0
 39 38  1  0
 40 14  1  0
 40 45  1  0
 40 41  1  0
 41 44  1  1
 41 42  1  0
 43 41  1  0
 45 48  1  0
 46 50  1  0
 46 45  1  0
 47 46  2  0
 50 49  1  0
 52 50  1  0
 52 53  1  0
 52 51  1  0
 54  2  1  0
 54 57  1  0
 57 55  1  1
 57 56  1  0
 58 66  1  0
 59 64  1  0
 60 61  1  0
 60 59  1  0
 62 61  1  0
 62 71  1  0
 62 63  1  0
 64 58  1  0
 64 63  1  0
 65 58  2  0
 66 67  1  0
 66 57  1  0
 68 69  2  0
 69 88  1  0
 70 69  1  0
 70 73  1  0
 71 72  1  0
 71 68  1  0
 72 70  2  0
 73 74  1  0
 74 75  2  0
 76 79  1  0
 76 75  1  0
 77 76  2  0
 78 77  1  0
 78 73  2  0
 79 80  1  0
 80 81  1  0
 81 82  2  0
 83 82  1  0
 83 87  1  0
 84 83  2  0
 85 80  2  0
 85 84  1  0
 86 85  1  0
 88 89  1  0
 89 92  1  0
 89 91  1  0
 90 88  2  0
 93 68  1  0
 93 94  1  0
 95 93  1  0
M  ISO  4  12 101  13 101  58 100  66 100
M  END
>  <TORSDO>  (38) 
F 19

>  <SCORE>  (38) 
-12.567

>  <name>  (38) 
37

>  <ligand_id>  (38) 
37

>  <original_smiles>  (38) 
[H]c1c([H])c([H])c2c(c1[H])C([H])([H])C([H])([H])C([H])([H])C2([H])N([H])C(=O)C1([H])N(C(=O)C([H])(N([H])C(=O)C([H])(N([H])C([H])([H])[H])C([H])([H])[H])C(C([H])([H])[H])(C([H])([H])[H])C([H])([H])[H])C([H])([H])c2c([H])c(OC([H])(C(=O)N([H])c3nc(C([H])([H])[H])c(C([H])([H])C(N([H])C(=O)N4C([H])([H])C([H])([H])C([H])([H])C([H])(n5nc(-c6c([H])c([H])c(Oc7c([H])c([H])c(F)c([H])c7F)c([H])c6[H])c(C(=O)N([H])[H])c5N([H])[H])C4([H])[H])(C([H])([H])[H])C([H])([H])[H])s3)C([H])([H])[H])c([H])c([H])c2C1([H])[H]

>  <smiles>  (38) 
[H]c1c([H])c([H])c2c(c1[H])C([H])([H])C([H])([H])C([H])([H])C2([H])N([H])C(=O)C1([H])N(C(=O)C([H])(N([H])C(=O)C([H])(N([H])C([H])([H])[H])C([H])([H])[H])C(C([H])([H])[H])(C([H])([H])[H])C([H])([H])[H])C([H])([H])c2c([H])c(OC([H])(C(=O)N([H])c3nc(C([H])([H])[H])c(C([H])([H])C(N([H])C(=O)N4C([H])([H])C([H])([H])C([H])([H])C([H])(n5nc(-c6c([H])c([H])c(Oc7c([H])c([H])c(F)c([H])c7F)c([H])c6[H])c(C(=O)N([H])[H])c5N([H])[H])C4([H])[H])(C([H])([H])[H])C([H])([H])[H])s3)C([H])([H])[H])c([H])c([H])c2C1([H])[H]

$$$$
38:0:0
     RDKit          3D

 96104  0  0  1  0  0  0  0  0999 V2000
  -28.7950  -21.5080   20.1740 C   0  0  0  0  0  0  0  0  0  0  0  0
  -29.2200  -20.5540   19.3110 N   0  0  0  0  0  0  0  0  0  0  0  0
  -28.4620  -21.2820   21.3420 O   0  0  0  0  0  0  0  0  0  0  0  0
  -29.3940  -20.9720   18.4070 H   0  0  0  0  0  0  0  0  0  0  0  0
  -30.7260  -14.6930   20.6640 C   0  0  0  0  0  0  0  0  0  0  0  0
  -30.5660  -12.4410   19.6780 C   0  0  0  0  0  2  0  0  0  0  0  0
  -29.6930  -12.5590   18.4100 C   0  0  0  0  0  2  0  0  0  0  0  0
  -28.2030  -12.3990   18.7600 C   0  0  0  0  0  2  0  0  0  0  0  0
  -27.7700  -13.2760   19.9630 C   0  0  0  0  0  3  0  0  0  0  0  0
  -28.7680  -13.1620   21.1380 C   0  0  0  0  0  2  0  0  0  0  0  0
  -30.1070  -13.4760   20.6230 N   0  0  0  0  0  0  0  0  0  0  0  0
  -31.9090  -14.8260   20.3360 O   0  0  0  0  0  0  0  0  0  0  0  0
  -29.8750  -18.5610   18.1560 C   0  0  0  0  0  0  0  0  0  0  0  0
  -29.5140  -19.1390   19.3560 C   0  0  0  0  0  0  0  0  0  0  0  0
  -29.9100  -16.9600   20.0520 C   0  0  0  0  0  0  0  0  0  0  0  0
  -29.5010  -18.2030   20.4360 N   0  0  0  0  0  0  0  0  0  0  0  0
  -29.9430  -15.7870   20.8990 N   0  0  0  0  0  0  0  0  0  0  0  0
  -30.2770  -16.8720   18.3320 S   0  0  0  0  0  0  0  0  0  0  0  0
  -29.1020  -15.6210   21.4270 H   0  0  0  0  0  0  0  0  0  0  0  0
  -25.3370  -13.8490   20.5530 C   0  0  0  0  0  0  0  0  0  0  0  0
  -24.2620  -13.0650   20.8800 C   0  0  0  0  0  0  0  0  0  0  0  0
  -24.7440  -11.7210   20.8930 C   0  0  0  0  0  0  0  0  0  0  0  0
  -26.4020  -12.9810   20.3840 N   0  0  0  0  0  0  0  0  0  0  0  0
  -26.0480  -11.6970   20.6470 N   0  0  0  0  0  0  0  0  0  0  0  0
  -24.0250  -10.4510   21.0660 C   0  0  0  0  0  0  0  0  0  0  0  0
  -24.4210   -9.5050   22.0360 C   0  0  0  0  0  3  0  0  0  0  0  0
  -23.7030   -8.3000   22.1980 C   0  0  0  0  0  3  0  0  0  0  0  0
  -22.5750   -8.0330   21.3880 C   0  0  0  0  0  0  0  0  0  0  0  0
  -22.1960   -8.9680   20.4080 C   0  0  0  0  0  3  0  0  0  0  0  0
  -22.9160  -10.1650   20.2450 C   0  0  0  0  0  3  0  0  0  0  0  0
  -21.8340   -6.8770   21.4570 O   0  0  0  0  0  0  0  0  0  0  0  0
  -21.7310   -6.1550   22.6180 C   0  0  0  0  0  0  0  0  0  0  0  0
  -21.2090   -6.7210   23.8030 C   0  0  0  0  0  3  0  0  0  0  0  0
  -21.0520   -5.9250   24.9520 C   0  0  0  0  0  3  0  0  0  0  0  0
  -21.4090   -4.5640   24.9230 C   0  0  0  0  0  0  0  0  0  0  0  0
  -21.9240   -3.9970   23.7440 C   0  0  0  0  0  3  0  0  0  0  0  0
  -22.0820   -4.7920   22.5940 C   0  0  0  0  0  0  0  0  0  0  0  0
  -22.5560   -4.2350   21.4530 F   0  0  0  0  0  0  0  0  0  0  0  0
  -21.2530   -3.7970   26.0270 F   0  0  0  0  0  0  0  0  0  0  0  0
  -22.8460  -13.5290   21.0720 C   0  0  0  0  0  0  0  0  0  0  0  0
  -22.0830  -12.8350   21.9100 N   0  0  0  0  0  0  0  0  0  0  0  0
  -22.4210  -14.5400   20.5150 O   0  0  0  0  0  0  0  0  0  0  0  0
  -22.4360  -12.0160   22.3820 H   0  0  0  0  0  0  0  0  0  0  0  0
  -21.1340  -13.1320   22.0850 H   0  0  0  0  0  0  0  0  0  0  0  0
  -25.4910  -15.2180   20.3680 N   0  0  0  0  0  0  0  0  0  0  0  0
  -24.7170  -15.8670   20.4560 H   0  0  0  0  0  0  0  0  0  0  0  0
  -26.3490  -15.6700   20.0820 H   0  0  0  0  0  0  0  0  0  0  0  0
  -28.6030  -19.0720   16.0300 C   0  0  0  0  0  1  0  0  0  0  0  0
  -29.9290  -19.1860   16.7930 C   0  0  0  0  0  2  0  0  0  0  0  0
  -28.7860  -22.8440   19.5120 C   0  0  0  0  0  0  0  0  0  0  0  0
  -28.4560  -24.0490   20.0830 C   0  0  0  0  0  0  0  0  0  0  0  0
  -29.1520  -22.8850   18.2150 F   0  0  0  0  0  0  0  0  0  0  0  0
  -28.0600  -24.2060   21.3580 O   0  0  0  0  0  0  0  0  0  0  0  0
  -28.0390  -23.3440   21.7600 H   0  0  0  0  0  0  0  0  0  0  0  0
  -28.5200  -25.4220   19.3480 C   0  0  0  0  0  2  0  0  0  0  0  0
  -28.3840  -26.6460   20.1420 O   0  0  0  0  0  0  0  0  0  0  0  0
  -24.5880  -31.8980   23.2370 C   0  0  0  0  0  0  0  0  0  0  0  0
  -27.2200  -27.4130   20.1170 C   0  0  0  0  0  0  0  0  0  0  0  0
  -23.3840  -30.5020   21.5930 C   0  0  0  0  0  3  0  0  0  0  0  0
  -24.8350  -28.9740   20.1510 C   0  0  0  0  0  0  0  0  0  0  0  0
  -25.9170  -30.8460   21.3960 C   0  0  0  0  0  2  0  0  0  0  0  0
  -26.0000  -29.4760   20.7420 C   0  0  0  0  0  0  0  0  0  0  0  0
  -27.1930  -28.7030   20.7200 C   0  0  0  0  0  3  0  0  0  0  0  0
  -26.0210  -26.9370   19.5380 C   0  0  0  0  0  3  0  0  0  0  0  0
  -24.8430  -27.7070   19.5470 C   0  0  0  0  0  3  0  0  0  0  0  0
  -23.5920  -29.8370   20.2070 C   0  0  0  0  0  2  0  0  0  0  0  0
  -24.6490  -31.0990   22.1320 N   0  0  0  0  0  0  0  0  0  0  0  0
  -23.5060  -32.1660   23.7780 O   0  0  0  0  0  0  0  0  0  0  0  0
  -22.7360  -29.4730   22.5490 C   0  0  0  0  0  0  0  0  0  0  0  0
  -21.4110  -29.2890   22.4230 N   0  0  0  0  0  0  0  0  0  0  0  0
  -23.4220  -28.8450   23.3580 O   0  0  0  0  0  0  0  0  0  0  0  0
  -20.9180  -29.8450   21.7400 H   0  0  0  0  0  0  0  0  0  0  0  0
  -18.0390  -28.0860   22.9280 C   0  0  0  0  0  0  0  0  0  0  0  0
  -20.5980  -28.3440   23.1900 C   0  0  0  0  0  3  0  0  0  0  0  0
  -20.6990  -26.9180   22.6010 C   0  0  0  0  0  2  0  0  0  0  0  0
  -19.5930  -26.6020   21.5890 C   0  0  0  0  0  2  0  0  0  0  0  0
  -18.2130  -26.7420   22.2410 C   0  0  0  0  0  2  0  0  0  0  0  0
  -19.1600  -28.8460   23.3590 C   0  0  0  0  0  0  0  0  0  0  0  0
  -18.9420  -30.1040   23.9610 C   0  0  0  0  0  3  0  0  0  0  0  0
  -17.6380  -30.6020   24.1380 C   0  0  0  0  0  3  0  0  0  0  0  0
  -16.5320  -29.8390   23.7220 C   0  0  0  0  0  3  0  0  0  0  0  0
  -16.7350  -28.5830   23.1240 C   0  0  0  0  0  3  0  0  0  0  0  0
  -25.8710  -32.5320   23.8560 C   0  0  0  0  0  3  0  0  0  0  0  0
  -26.3880  -31.7640   25.1350 C   0  0  1  0  0  0  0  0  0  0  0  0
  -25.2960  -31.5310   26.2050 C   0  0  0  0  0  1  0  0  0  0  0  0
  -26.9700  -30.3850   24.7470 C   0  0  0  0  0  1  0  0  0  0  0  0
  -27.5390  -32.5620   25.7950 C   0  0  0  0  0  1  0  0  0  0  0  0
  -25.5610  -33.9300   24.1810 N   0  0  0  0  0  0  0  0  0  0  0  0
  -25.8990  -34.9830   23.4230 C   0  0  0  0  0  0  0  0  0  0  0  0
  -26.5750  -34.8770   22.3960 O   0  0  0  0  0  0  0  0  0  0  0  0
  -24.9640  -34.0850   24.9810 H   0  0  0  0  0  0  0  0  0  0  0  0
  -24.1830  -36.7820   23.0400 C   0  0  0  0  0  1  0  0  0  0  0  0
  -25.4070  -36.3710   23.8740 C   0  0  0  0  0  3  0  0  0  0  0  0
  -27.5280  -37.2470   24.7490 C   0  0  0  0  0  1  0  0  0  0  0  0
  -26.4460  -37.4210   23.7840 N   0  0  0  0  0  0  0  0  0  0  0  0
  -26.0390  -38.3410   23.9250 H   0  0  0  0  0  0  0  0  0  0  0  0
  1  3  2  0
  2 14  1  0
  2  1  1  0
  4  2  1  0
  5 17  1  0
  6 11  1  0
  7  8  1  0
  7  6  1  0
  9  8  1  0
  9 23  1  0
  9 10  1  0
 11  5  1  0
 11 10  1  0
 12  5  2  0
 13 18  1  0
 13 14  2  0
 14 16  1  0
 15 16  2  0
 15 17  1  0
 17 19  1  0
 18 15  1  0
 20 21  2  0
 21 22  1  0
 21 40  1  0
 22 25  1  0
 23 20  1  0
 23 24  1  0
 24 22  2  0
 25 26  1  0
 26 27  2  0
 28 31  1  0
 28 27  1  0
 29 28  2  0
 30 29  1  0
 30 25  2  0
 31 32  1  0
 32 33  1  0
 33 34  2  0
 35 34  1  0
 35 39  1  0
 36 35  2  0
 37 32  2  0
 37 36  1  0
 38 37  1  0
 40 41  1  0
 41 44  1  0
 41 43  1  0
 42 40  2  0
 45 46  1  0
 45 20  1  0
 47 45  1  0
 48 49  1  0
 49 13  1  0
 50 51  2  0
 50  1  1  0
 51 53  1  0
 52 50  1  0
 53 54  1  0
 55 51  1  0
 55 56  1  0
 57 68  2  0
 58 56  1  0
 58 63  1  0
 59 67  1  0
 59 69  1  0
 60 66  1  0
 60 62  1  0
 61 67  1  0
 62 61  1  0
 63 62  2  0
 64 65  1  0
 64 58  2  0
 65 60  2  0
 66 59  1  0
 67 57  1  0
 69 71  2  0
 70 69  1  0
 72 70  1  0
 73 82  2  0
 73 78  1  0
 74 70  1  0
 74 78  1  0
 75 74  1  0
 76 77  1  0
 76 75  1  0
 77 73  1  0
 78 79  2  0
 79 80  1  0
 81 80  2  0
 82 81  1  0
 83 57  1  0
 83 88  1  0
 83 84  1  0
 84 87  1  1
 84 85  1  0
 86 84  1  0
 88 91  1  0
 89 93  1  0
 89 88  1  0
 90 89  2  0
 93 92  1  0
 95 93  1  0
 95 96  1  0
 95 94  1  0
M  ISO  4   5 100  17 100  55 101  56 101
M  END
>  <TORSDO>  (39) 
F 20

>  <SCORE>  (39) 
-14.049

>  <name>  (39) 
38

>  <ligand_id>  (39) 
38

>  <original_smiles>  (39) 
[H]OC(=C(F)C(=O)N([H])c1nc(N([H])C(=O)N2C([H])([H])C([H])([H])C([H])([H])C([H])(n3nc(-c4c([H])c([H])c(Oc5c([H])c([H])c(F)c([H])c5F)c([H])c4[H])c(C(=O)N([H])[H])c3N([H])[H])C2([H])[H])sc1C([H])([H])C([H])([H])[H])C([H])([H])Oc1c([H])c([H])c2c(c1[H])C([H])([H])N(C(=O)C([H])(N([H])C(=O)C([H])(N([H])C([H])([H])[H])C([H])([H])[H])C(C([H])([H])[H])(C([H])([H])[H])C([H])([H])[H])C([H])(C(=O)N([H])C1([H])c3c([H])c([H])c([H])c([H])c3C([H])([H])C([H])([H])C1([H])[H])C2([H])[H]

>  <smiles>  (39) 
[H]OC(=C(F)C(=O)N([H])c1nc(N([H])C(=O)N2C([H])([H])C([H])([H])C([H])([H])C([H])(n3nc(-c4c([H])c([H])c(Oc5c([H])c([H])c(F)c([H])c5F)c([H])c4[H])c(C(=O)N([H])[H])c3N([H])[H])C2([H])[H])sc1C([H])([H])C([H])([H])[H])C([H])([H])Oc1c([H])c([H])c2c(c1[H])C([H])([H])N(C(=O)C([H])(N([H])C(=O)C([H])(N([H])C([H])([H])[H])C([H])([H])[H])C(C([H])([H])[H])(C([H])([H])[H])C([H])([H])[H])C([H])(C(=O)N([H])C1([H])c3c([H])c([H])c([H])c([H])c3C([H])([H])C([H])([H])C1([H])[H])C2([H])[H]

$$$$
39:0:0
     RDKit          3D

 95103  0  0  1  0  0  0  0  0999 V2000
  -28.7830  -21.0460   20.3550 N   0  0  0  0  0  0  0  0  0  0  0  0
  -27.8220  -20.7680   20.2050 H   0  0  0  0  0  0  0  0  0  0  0  0
  -30.5910  -14.9440   20.1510 C   0  0  0  0  0  0  0  0  0  0  0  0
  -30.4000  -12.6600   19.1460 C   0  0  0  0  0  2  0  0  0  0  0  0
  -29.4150  -12.7050   17.9600 C   0  0  0  0  0  2  0  0  0  0  0  0
  -27.9660  -12.5010   18.4510 C   0  0  0  0  0  2  0  0  0  0  0  0
  -27.6190  -13.3830   19.6810 C   0  0  0  0  0  3  0  0  0  0  0  0
  -28.7240  -13.3250   20.7560 C   0  0  0  0  0  2  0  0  0  0  0  0
  -29.9790  -13.7090   20.1050 N   0  0  0  0  0  0  0  0  0  0  0  0
  -31.7730  -15.0270   19.8070 O   0  0  0  0  0  0  0  0  0  0  0  0
  -31.4000  -17.7720   21.1190 C   0  0  0  0  0  3  0  0  0  0  0  0
  -31.7810  -19.0610   21.5360 C   0  0  0  0  0  0  0  0  0  0  0  0
  -30.8850  -20.1570   21.3450 C   0  0  0  0  0  0  0  0  0  0  0  0
  -30.1540  -17.5180   20.5280 C   0  0  0  0  0  0  0  0  0  0  0  0
  -29.6870  -19.9400   20.6190 C   0  0  0  0  0  0  0  0  0  0  0  0
  -31.1590  -21.5060   22.0190 C   0  0  0  0  0  1  0  0  0  0  0  0
  -29.3380  -18.6310   20.2770 N   0  0  0  0  0  0  0  0  0  0  0  0
  -29.8010  -16.0840   20.3170 N   0  0  0  0  0  0  0  0  0  0  0  0
  -28.8120  -15.8950   20.3340 H   0  0  0  0  0  0  0  0  0  0  0  0
  -25.2660  -13.9330   20.5250 C   0  0  0  0  0  0  0  0  0  0  0  0
  -24.2220  -13.1390   20.9160 C   0  0  0  0  0  0  0  0  0  0  0  0
  -24.6940  -11.7960   20.8330 C   0  0  0  0  0  0  0  0  0  0  0  0
  -26.3040  -13.0680   20.2240 N   0  0  0  0  0  0  0  0  0  0  0  0
  -25.9700  -11.7760   20.4700 N   0  0  0  0  0  0  0  0  0  0  0  0
  -23.9860  -10.5190   21.0180 C   0  0  0  0  0  0  0  0  0  0  0  0
  -24.4420   -9.5490   21.9370 C   0  0  0  0  0  3  0  0  0  0  0  0
  -23.7320   -8.3400   22.1120 C   0  0  0  0  0  3  0  0  0  0  0  0
  -22.5550   -8.0950   21.3650 C   0  0  0  0  0  0  0  0  0  0  0  0
  -22.1210   -9.0550   20.4340 C   0  0  0  0  0  3  0  0  0  0  0  0
  -22.8310  -10.2530   20.2590 C   0  0  0  0  0  3  0  0  0  0  0  0
  -21.8160   -6.9390   21.4490 O   0  0  0  0  0  0  0  0  0  0  0  0
  -21.7510   -6.2100   22.6100 C   0  0  0  0  0  0  0  0  0  0  0  0
  -21.2630   -6.7660   23.8140 C   0  0  0  0  0  3  0  0  0  0  0  0
  -21.1480   -5.9620   24.9640 C   0  0  0  0  0  3  0  0  0  0  0  0
  -21.5070   -4.6010   24.9130 C   0  0  0  0  0  0  0  0  0  0  0  0
  -21.9870   -4.0450   23.7140 C   0  0  0  0  0  3  0  0  0  0  0  0
  -22.1040   -4.8460   22.5660 C   0  0  0  0  0  0  0  0  0  0  0  0
  -22.5460   -4.2990   21.4070 F   0  0  0  0  0  0  0  0  0  0  0  0
  -21.3890   -3.8270   26.0160 F   0  0  0  0  0  0  0  0  0  0  0  0
  -22.8320  -13.5970   21.2550 C   0  0  0  0  0  0  0  0  0  0  0  0
  -22.1430  -12.8680   22.1260 N   0  0  0  0  0  0  0  0  0  0  0  0
  -22.3670  -14.6280   20.7760 O   0  0  0  0  0  0  0  0  0  0  0  0
  -22.5340  -12.0330   22.5360 H   0  0  0  0  0  0  0  0  0  0  0  0
  -21.2110  -13.1550   22.3930 H   0  0  0  0  0  0  0  0  0  0  0  0
  -25.4090  -15.3090   20.3790 N   0  0  0  0  0  0  0  0  0  0  0  0
  -24.6380  -15.9460   20.5520 H   0  0  0  0  0  0  0  0  0  0  0  0
  -26.2240  -15.7800   20.0070 H   0  0  0  0  0  0  0  0  0  0  0  0
  -33.1210  -19.1600   22.1910 C   0  0  0  0  0  3  0  0  0  0  0  0
  -33.7170  -20.2070   22.4580 O   0  0  0  0  0  0  0  0  0  0  0  0
  -29.0250  -22.2630   18.2040 C   0  0  0  0  0  1  0  0  0  0  0  0
  -29.1180  -22.4070   19.7350 C   0  0  0  0  0  3  0  0  0  0  0  0
  -28.3380  -23.7630   20.2680 C   0  0  0  0  0  0  0  0  0  0  0  0
  -27.7520  -23.7260   21.3510 O   0  0  0  0  0  0  0  0  0  0  0  0
  -28.2910  -25.1620   19.4500 C   0  0  0  0  0  2  0  0  0  0  0  0
  -28.1890  -26.4920   20.1770 O   0  0  0  0  0  0  0  0  0  0  0  0
  -24.5540  -31.9940   23.2600 C   0  0  0  0  0  0  0  0  0  0  0  0
  -27.0740  -27.3690   20.1260 C   0  0  0  0  0  0  0  0  0  0  0  0
  -23.3170  -30.6130   21.6320 C   0  0  0  0  0  3  0  0  0  0  0  0
  -24.7290  -29.0520   20.1700 C   0  0  0  0  0  0  0  0  0  0  0  0
  -25.8620  -30.8920   21.4140 C   0  0  0  0  0  2  0  0  0  0  0  0
  -25.9190  -29.5140   20.7460 C   0  0  0  0  0  0  0  0  0  0  0  0
  -27.0900  -28.6860   20.7090 C   0  0  0  0  0  3  0  0  0  0  0  0
  -25.8490  -26.9640   19.5550 C   0  0  0  0  0  3  0  0  0  0  0  0
  -24.7000  -27.7830   19.5670 C   0  0  0  0  0  3  0  0  0  0  0  0
  -23.5070  -29.9490   20.2430 C   0  0  0  0  0  2  0  0  0  0  0  0
  -24.5990  -31.1860   22.1580 N   0  0  0  0  0  0  0  0  0  0  0  0
  -23.4800  -32.2740   23.8140 O   0  0  0  0  0  0  0  0  0  0  0  0
  -22.6580  -29.5970   22.5970 C   0  0  0  0  0  0  0  0  0  0  0  0
  -21.3300  -29.4110   22.4760 N   0  0  0  0  0  0  0  0  0  0  0  0
  -23.3410  -28.9790   23.4180 O   0  0  0  0  0  0  0  0  0  0  0  0
  -20.8370  -29.9670   21.7910 H   0  0  0  0  0  0  0  0  0  0  0  0
  -17.9700  -28.1550   22.9710 C   0  0  0  0  0  0  0  0  0  0  0  0
  -20.5210  -28.4710   23.2550 C   0  0  0  0  0  3  0  0  0  0  0  0
  -20.6560  -27.0310   22.7040 C   0  0  0  0  0  2  0  0  0  0  0  0
  -19.5700  -26.6710   21.6870 C   0  0  0  0  0  2  0  0  0  0  0  0
  -18.1790  -26.7980   22.3170 C   0  0  0  0  0  2  0  0  0  0  0  0
  -19.0710  -28.9450   23.3980 C   0  0  0  0  0  0  0  0  0  0  0  0
  -18.8210  -30.2080   23.9740 C   0  0  0  0  0  3  0  0  0  0  0  0
  -17.5060  -30.6870   24.1220 C   0  0  0  0  0  3  0  0  0  0  0  0
  -16.4210  -29.8950   23.7100 C   0  0  0  0  0  3  0  0  0  0  0  0
  -16.6530  -28.6290   23.1420 C   0  0  0  0  0  3  0  0  0  0  0  0
  -25.8450  -32.6210   23.8690 C   0  0  0  0  0  3  0  0  0  0  0  0
  -26.3630  -31.8580   25.1520 C   0  0  1  0  0  0  0  0  0  0  0  0
  -25.2750  -31.6360   26.2290 C   0  0  0  0  0  1  0  0  0  0  0  0
  -26.9370  -30.4740   24.7730 C   0  0  0  0  0  1  0  0  0  0  0  0
  -27.5250  -32.6510   25.7960 C   0  0  0  0  0  1  0  0  0  0  0  0
  -25.5490  -34.0240   24.1930 N   0  0  0  0  0  0  0  0  0  0  0  0
  -25.8810  -35.0710   23.4270 C   0  0  0  0  0  0  0  0  0  0  0  0
  -26.5370  -34.9570   22.3890 O   0  0  0  0  0  0  0  0  0  0  0  0
  -24.9700  -34.1860   25.0020 H   0  0  0  0  0  0  0  0  0  0  0  0
  -24.1710  -36.8850   23.0810 C   0  0  0  0  0  1  0  0  0  0  0  0
  -25.4130  -36.4660   23.8850 C   0  0  0  0  0  3  0  0  0  0  0  0
  -27.5630  -37.3270   24.6990 C   0  0  0  0  0  1  0  0  0  0  0  0
  -26.4570  -37.5090   23.7630 N   0  0  0  0  0  0  0  0  0  0  0  0
  -26.0620  -38.4320   23.9210 H   0  0  0  0  0  0  0  0  0  0  0  0
  1 15  1  0
  2  1  1  0
  3 18  1  0
  4  9  1  0
  5  6  1  0
  5  4  1  0
  7  6  1  0
  7 23  1  0
  7  8  1  0
  9  3  1  0
  9  8  1  0
 10  3  2  0
 11 12  1  0
 12 48  1  0
 13 12  2  0
 13 16  1  0
 14 11  2  0
 15 13  1  0
 17 14  1  0
 17 15  2  0
 18 19  1  0
 18 14  1  0
 20 21  2  0
 21 40  1  0
 22 21  1  0
 22 25  1  0
 23 24  1  0
 23 20  1  0
 24 22  2  0
 25 26  1  0
 26 27  2  0
 28 31  1  0
 28 27  1  0
 29 28  2  0
 30 29  1  0
 30 25  2  0
 31 32  1  0
 32 33  1  0
 33 34  2  0
 35 34  1  0
 35 39  1  0
 36 35  2  0
 37 32  2  0
 37 36  1  0
 38 37  1  0
 40 41  1  0
 41 44  1  0
 41 43  1  0
 42 40  2  0
 45 20  1  0
 45 46  1  0
 47 45  1  0
 48 49  2  0
 51 50  1  0
 51 52  1  0
 51  1  1  0
 52 53  2  0
 54 55  1  0
 54 52  1  0
 56 67  2  0
 57 55  1  0
 57 62  1  0
 58 66  1  0
 58 68  1  0
 59 65  1  0
 59 61  1  0
 60 66  1  0
 61 60  1  0
 62 61  2  0
 63 64  1  0
 63 57  2  0
 64 59  2  0
 65 58  1  0
 66 56  1  0
 68 70  2  0
 69 68  1  0
 71 69  1  0
 72 81  2  0
 72 77  1  0
 73 69  1  0
 73 77  1  0
 74 73  1  0
 75 76  1  0
 75 74  1  0
 76 72  1  0
 77 78  2  0
 78 79  1  0
 80 79  2  0
 81 80  1  0
 82 56  1  0
 82 87  1  0
 82 83  1  0
 83 86  1  1
 83 84  1  0
 85 83  1  0
 87 90  1  0
 88 92  1  0
 88 87  1  0
 89 88  2  0
 92 91  1  0
 94 92  1  0
 94 95  1  0
 94 93  1  0
M  ISO  4   3 100  18 100  54 101  55 101
M  END
>  <TORSDO>  (40) 
F 20

>  <SCORE>  (40) 
-14.055

>  <name>  (40) 
39

>  <ligand_id>  (40) 
39

>  <original_smiles>  (40) 
[H]C(=O)c1c([H])c(N([H])C(=O)N2C([H])([H])C([H])([H])C([H])([H])C([H])(n3nc(-c4c([H])c([H])c(Oc5c([H])c([H])c(F)c([H])c5F)c([H])c4[H])c(C(=O)N([H])[H])c3N([H])[H])C2([H])[H])nc(N([H])C([H])(C(=O)C([H])([H])Oc2c([H])c([H])c3c(c2[H])C([H])([H])N(C(=O)C([H])(N([H])C(=O)C([H])(N([H])C([H])([H])[H])C([H])([H])[H])C(C([H])([H])[H])(C([H])([H])[H])C([H])([H])[H])C([H])(C(=O)N([H])C2([H])c4c([H])c([H])c([H])c([H])c4C([H])([H])C([H])([H])C2([H])[H])C3([H])[H])C([H])([H])[H])c1C([H])([H])[H]

>  <smiles>  (40) 
[H]C(=O)c1c([H])c(N([H])C(=O)N2C([H])([H])C([H])([H])C([H])([H])C([H])(n3nc(-c4c([H])c([H])c(Oc5c([H])c([H])c(F)c([H])c5F)c([H])c4[H])c(C(=O)N([H])[H])c3N([H])[H])C2([H])[H])nc(N([H])C([H])(C(=O)C([H])([H])Oc2c([H])c([H])c3c(c2[H])C([H])([H])N(C(=O)C([H])(N([H])C(=O)C([H])(N([H])C([H])([H])[H])C([H])([H])[H])C(C([H])([H])[H])(C([H])([H])[H])C([H])([H])[H])C([H])(C(=O)N([H])C2([H])c4c([H])c([H])c([H])c([H])c4C([H])([H])C([H])([H])C2([H])[H])C3([H])[H])C([H])([H])[H])c1C([H])([H])[H]

$$$$
40:0:0
     RDKit          3D

 96104  0  0  1  0  0  0  0  0999 V2000
  -28.9300  -21.7890   20.1530 C   0  0  0  0  0  0  0  0  0  0  0  0
  -29.9300  -21.0470   20.6810 N   0  0  0  0  0  0  0  0  0  0  0  0
  -27.8790  -21.3330   19.6900 O   0  0  0  0  0  0  0  0  0  0  0  0
  -30.6790  -21.6370   21.0230 H   0  0  0  0  0  0  0  0  0  0  0  0
  -30.7540  -14.8200   20.0420 C   0  0  0  0  0  0  0  0  0  0  0  0
  -30.4970  -12.6350   18.9010 C   0  0  0  0  0  2  0  0  0  0  0  0
  -29.4530  -12.7830   17.7710 C   0  0  0  0  0  2  0  0  0  0  0  0
  -28.0190  -12.5950   18.3090 C   0  0  0  0  0  2  0  0  0  0  0  0
  -27.7490  -13.4260   19.5910 C   0  0  0  0  0  3  0  0  0  0  0  0
  -28.8880  -13.2300   20.6150 C   0  0  0  0  0  2  0  0  0  0  0  0
  -30.1520  -13.5990   19.9570 N   0  0  0  0  0  0  0  0  0  0  0  0
  -31.8470  -15.0580   19.5130 O   0  0  0  0  0  0  0  0  0  0  0  0
  -30.9670  -19.0890   21.7170 C   0  0  0  0  0  0  0  0  0  0  0  0
  -30.1050  -19.6910   20.8140 C   0  0  0  0  0  0  0  0  0  0  0  0
  -30.2120  -17.1810   20.7080 C   0  0  0  0  0  0  0  0  0  0  0  0
  -31.0010  -17.6820   21.6570 N   0  0  0  0  0  0  0  0  0  0  0  0
  -29.9810  -15.7790   20.5980 N   0  0  0  0  0  0  0  0  0  0  0  0
  -29.3020  -18.4390   19.8540 S   0  0  0  0  0  0  0  0  0  0  0  0
  -29.0650  -15.4690   20.8820 H   0  0  0  0  0  0  0  0  0  0  0  0
  -25.4240  -13.9830   20.5460 C   0  0  0  0  0  0  0  0  0  0  0  0
  -24.3940  -13.1860   20.9640 C   0  0  0  0  0  0  0  0  0  0  0  0
  -24.8480  -11.8410   20.8070 C   0  0  0  0  0  0  0  0  0  0  0  0
  -26.4430  -13.1200   20.1690 N   0  0  0  0  0  0  0  0  0  0  0  0
  -26.1050  -11.8230   20.3820 N   0  0  0  0  0  0  0  0  0  0  0  0
  -24.1390  -10.5660   20.9810 C   0  0  0  0  0  0  0  0  0  0  0  0
  -24.5860   -9.5930   21.9010 C   0  0  0  0  0  3  0  0  0  0  0  0
  -23.8790   -8.3810   22.0630 C   0  0  0  0  0  3  0  0  0  0  0  0
  -22.7100   -8.1370   21.3030 C   0  0  0  0  0  0  0  0  0  0  0  0
  -22.2830   -9.0990   20.3710 C   0  0  0  0  0  3  0  0  0  0  0  0
  -22.9910  -10.3010   20.2080 C   0  0  0  0  0  3  0  0  0  0  0  0
  -21.9730   -6.9800   21.3760 O   0  0  0  0  0  0  0  0  0  0  0  0
  -21.8440   -6.2800   22.5480 C   0  0  0  0  0  0  0  0  0  0  0  0
  -21.2480   -6.8520   23.6940 C   0  0  0  0  0  3  0  0  0  0  0  0
  -21.0700   -6.0760   24.8570 C   0  0  0  0  0  3  0  0  0  0  0  0
  -21.4790   -4.7290   24.8750 C   0  0  0  0  0  0  0  0  0  0  0  0
  -22.0670   -4.1560   23.7330 C   0  0  0  0  0  3  0  0  0  0  0  0
  -22.2470   -4.9300   22.5730 C   0  0  0  0  0  0  0  0  0  0  0  0
  -22.7940   -4.3670   21.4690 F   0  0  0  0  0  0  0  0  0  0  0  0
  -21.3020   -3.9810   25.9890 F   0  0  0  0  0  0  0  0  0  0  0  0
  -23.0270  -13.6400   21.3920 C   0  0  0  0  0  0  0  0  0  0  0  0
  -22.3780  -12.8850   22.2710 N   0  0  0  0  0  0  0  0  0  0  0  0
  -22.5470  -14.6960   20.9820 O   0  0  0  0  0  0  0  0  0  0  0  0
  -22.7790  -12.0290   22.6240 H   0  0  0  0  0  0  0  0  0  0  0  0
  -21.4660  -13.1700   22.6000 H   0  0  0  0  0  0  0  0  0  0  0  0
  -25.5720  -15.3620   20.4300 N   0  0  0  0  0  0  0  0  0  0  0  0
  -24.7980  -15.9950   20.6010 H   0  0  0  0  0  0  0  0  0  0  0  0
  -26.3570  -15.8150   19.9780 H   0  0  0  0  0  0  0  0  0  0  0  0
  -31.0040  -19.9310   24.0890 C   0  0  0  0  0  1  0  0  0  0  0  0
  -31.7840  -19.7810   22.7790 C   0  0  0  0  0  3  0  0  0  0  0  0
  -32.9210  -19.1310   23.0420 F   0  0  0  0  0  0  0  0  0  0  0  0
  -29.2950  -23.3270   20.1720 C   0  0  0  0  0  0  0  0  0  0  0  0
  -30.4790  -23.6580   20.0260 O   0  0  0  0  0  0  0  0  0  0  0  0
  -26.8140  -23.9950   20.7750 C   0  0  0  0  0  1  0  0  0  0  0  0
  -28.2430  -24.4590   20.4270 C   0  0  0  0  0  3  0  0  0  0  0  0
  -28.2630  -25.5920   19.3440 C   0  0  0  0  0  2  0  0  0  0  0  0
  -28.1750  -26.9370   19.8710 O   0  0  0  0  0  0  0  0  0  0  0  0
  -24.4900  -32.0050   23.2630 C   0  0  0  0  0  0  0  0  0  0  0  0
  -26.9810  -27.6390   19.9190 C   0  0  0  0  0  0  0  0  0  0  0  0
  -23.2090  -30.6630   21.6270 C   0  0  0  0  0  3  0  0  0  0  0  0
  -24.5920  -29.1690   20.0880 C   0  0  0  0  0  0  0  0  0  0  0  0
  -25.7270  -31.0150   21.3340 C   0  0  0  0  0  2  0  0  0  0  0  0
  -25.7770  -29.6650   20.6410 C   0  0  0  0  0  0  0  0  0  0  0  0
  -26.9690  -28.9080   20.5550 C   0  0  0  0  0  3  0  0  0  0  0  0
  -25.7700  -27.1620   19.3650 C   0  0  0  0  0  3  0  0  0  0  0  0
  -24.5840  -27.9170   19.4480 C   0  0  0  0  0  3  0  0  0  0  0  0
  -23.3550  -30.0300   20.2170 C   0  0  0  0  0  2  0  0  0  0  0  0
  -24.4960  -31.2420   22.1320 N   0  0  0  0  0  0  0  0  0  0  0  0
  -23.4340  -32.2600   23.8580 O   0  0  0  0  0  0  0  0  0  0  0  0
  -22.5960  -29.6100   22.5800 C   0  0  0  0  0  0  0  0  0  0  0  0
  -21.2750  -29.3950   22.4650 N   0  0  0  0  0  0  0  0  0  0  0  0
  -23.3040  -28.9920   23.3780 O   0  0  0  0  0  0  0  0  0  0  0  0
  -20.7600  -29.9510   21.7960 H   0  0  0  0  0  0  0  0  0  0  0  0
  -17.9480  -28.0760   22.9510 C   0  0  0  0  0  0  0  0  0  0  0  0
  -20.4930  -28.4250   23.2320 C   0  0  0  0  0  3  0  0  0  0  0  0
  -20.6500  -27.0010   22.6490 C   0  0  0  0  0  2  0  0  0  0  0  0
  -19.5630  -26.6440   21.6310 C   0  0  0  0  0  2  0  0  0  0  0  0
  -18.1760  -26.7360   22.2720 C   0  0  0  0  0  2  0  0  0  0  0  0
  -19.0370  -28.8750   23.3890 C   0  0  0  0  0  0  0  0  0  0  0  0
  -18.7710  -30.1280   23.9820 C   0  0  0  0  0  3  0  0  0  0  0  0
  -17.4480  -30.5820   24.1450 C   0  0  0  0  0  3  0  0  0  0  0  0
  -16.3730  -29.7790   23.7270 C   0  0  0  0  0  3  0  0  0  0  0  0
  -16.6240  -28.5280   23.1340 C   0  0  0  0  0  3  0  0  0  0  0  0
  -25.8030  -32.6120   23.8470 C   0  0  0  0  0  3  0  0  0  0  0  0
  -26.3460  -31.8290   25.1040 C   0  0  1  0  0  0  0  0  0  0  0  0
  -25.2790  -31.5950   26.1990 C   0  0  0  0  0  1  0  0  0  0  0  0
  -26.9020  -30.4480   24.6830 C   0  0  0  0  0  1  0  0  0  0  0  0
  -27.5190  -32.6060   25.7410 C   0  0  0  0  0  1  0  0  0  0  0  0
  -25.5290  -34.0150   24.1900 N   0  0  0  0  0  0  0  0  0  0  0  0
  -25.8680  -35.0650   23.4300 C   0  0  0  0  0  0  0  0  0  0  0  0
  -26.5150  -34.9540   22.3860 O   0  0  0  0  0  0  0  0  0  0  0  0
  -24.9550  -34.1770   25.0040 H   0  0  0  0  0  0  0  0  0  0  0  0
  -24.1760  -36.8960   23.1070 C   0  0  0  0  0  1  0  0  0  0  0  0
  -25.4150  -36.4590   23.9050 C   0  0  0  0  0  3  0  0  0  0  0  0
  -27.5700  -37.2910   24.7330 C   0  0  0  0  0  1  0  0  0  0  0  0
  -26.4700  -37.4900   23.7940 N   0  0  0  0  0  0  0  0  0  0  0  0
  -26.0860  -38.4180   23.9490 H   0  0  0  0  0  0  0  0  0  0  0  0
  1 51  1  0
  1  2  1  0
  2 14  1  0
  2  4  1  0
  3  1  2  0
  5 17  1  0
  6 11  1  0
  7  8  1  0
  7  6  1  0
  9  8  1  0
  9 23  1  0
  9 10  1  0
 11  5  1  0
 11 10  1  0
 12  5  2  0
 13 49  1  0
 14 13  2  0
 15 16  2  0
 16 13  1  0
 17 15  1  0
 17 19  1  0
 18 15  1  0
 18 14  1  0
 20 21  2  0
 21 40  1  0
 22 21  1  0
 22 25  1  0
 23 24  1  0
 23 20  1  0
 24 22  2  0
 25 26  1  0
 26 27  2  0
 28 31  1  0
 28 27  1  0
 29 28  2  0
 30 29  1  0
 30 25  2  0
 31 32  1  0
 32 37  2  0
 32 33  1  0
 33 34  2  0
 34 35  1  0
 35 39  1  0
 36 35  2  0
 37 36  1  0
 38 37  1  0
 40 41  1  0
 41 44  1  0
 41 43  1  0
 42 40  2  0
 45 20  1  0
 45 46  1  0
 47 45  1  0
 49 50  1  0
 49 48  1  0
 51 54  1  0
 52 51  2  0
 54 53  1  0
 55 56  1  0
 55 54  1  0
 56 58  1  0
 57 68  2  0
 58 63  1  0
 59 67  1  0
 59 69  1  0
 60 66  1  0
 60 62  1  0
 61 67  1  0
 62 61  1  0
 63 62  2  0
 64 65  1  0
 64 58  2  0
 65 60  2  0
 66 59  1  0
 67 57  1  0
 69 71  2  0
 70 69  1  0
 72 70  1  0
 73 82  2  0
 73 78  1  0
 74 70  1  0
 74 78  1  0
 75 74  1  0
 76 77  1  0
 76 75  1  0
 77 73  1  0
 78 79  2  0
 79 80  1  0
 81 80  2  0
 82 81  1  0
 83 57  1  0
 83 88  1  0
 83 84  1  0
 84 87  1  1
 84 85  1  0
 86 84  1  0
 88 91  1  0
 89 93  1  0
 89 88  1  0
 90 89  2  0
 93 92  1  0
 95 93  1  0
 95 96  1  0
 95 94  1  0
M  ISO  4   5 100  17 100  55 101  56 101
M  END
>  <TORSDO>  (41) 
F 20

>  <SCORE>  (41) 
-13.404

>  <name>  (41) 
40

>  <ligand_id>  (41) 
40

>  <original_smiles>  (41) 
[H]c1c([H])c([H])c2c(c1[H])C([H])([H])C([H])([H])C([H])([H])C2([H])N([H])C(=O)C1([H])N(C(=O)C([H])(N([H])C(=O)C([H])(N([H])C([H])([H])[H])C([H])([H])[H])C(C([H])([H])[H])(C([H])([H])[H])C([H])([H])[H])C([H])([H])c2c([H])c(OC([H])([H])C([H])(C(=O)C(=O)N([H])c3sc(N([H])C(=O)N4C([H])([H])C([H])([H])C([H])([H])C([H])(n5nc(-c6c([H])c([H])c(Oc7c([H])c([H])c(F)c([H])c7F)c([H])c6[H])c(C(=O)N([H])[H])c5N([H])[H])C4([H])[H])nc3C([H])(F)C([H])([H])[H])C([H])([H])[H])c([H])c([H])c2C1([H])[H]

>  <smiles>  (41) 
[H]c1c([H])c([H])c2c(c1[H])C([H])([H])C([H])([H])C([H])([H])C2([H])N([H])C(=O)C1([H])N(C(=O)C([H])(N([H])C(=O)C([H])(N([H])C([H])([H])[H])C([H])([H])[H])C(C([H])([H])[H])(C([H])([H])[H])C([H])([H])[H])C([H])([H])c2c([H])c(OC([H])([H])C([H])(C(=O)C(=O)N([H])c3sc(N([H])C(=O)N4C([H])([H])C([H])([H])C([H])([H])C([H])(n5nc(-c6c([H])c([H])c(Oc7c([H])c([H])c(F)c([H])c7F)c([H])c6[H])c(C(=O)N([H])[H])c5N([H])[H])C4([H])[H])nc3C([H])(F)C([H])([H])[H])C([H])([H])[H])c([H])c([H])c2C1([H])[H]

$$$$
41:0:0
     RDKit          3D

 94102  0  0  1  0  0  0  0  0999 V2000
  -28.8240  -20.9780   20.3070 N   0  0  0  0  0  4  0  0  0  0  0  0
  -27.8600  -20.6790   20.3810 H   0  0  0  0  0  0  0  0  0  0  0  0
  -30.6210  -14.8130   20.2990 C   0  0  0  0  0  0  0  0  0  0  0  0
  -30.3770  -12.5320   19.3140 C   0  0  0  0  0  2  0  0  0  0  0  0
  -29.4260  -12.5900   18.0990 C   0  0  0  0  0  2  0  0  0  0  0  0
  -27.9610  -12.4310   18.5500 C   0  0  0  0  0  2  0  0  0  0  0  0
  -27.6030  -13.3090   19.7810 C   0  0  0  0  0  3  0  0  0  0  0  0
  -28.6860  -13.2390   20.8820 C   0  0  0  0  0  2  0  0  0  0  0  0
  -29.9630  -13.5990   20.2570 N   0  0  0  0  0  0  0  0  0  0  0  0
  -31.8230  -14.8200   20.0250 O   0  0  0  0  0  0  0  0  0  0  0  0
  -31.4350  -17.7180   19.4820 C   0  0  0  0  0  3  0  0  0  0  0  0
  -31.8110  -19.0280   19.1440 C   0  0  0  0  0  0  0  0  0  0  0  0
  -30.9750  -20.1150   19.4470 C   0  0  0  0  0  0  0  0  0  0  0  0
  -30.2200  -17.4380   20.1490 C   0  0  0  0  0  0  0  0  0  0  0  0
  -29.7470  -19.8720   20.0990 C   0  0  0  0  0  0  0  0  0  0  0  0
  -29.3960  -18.5490   20.4200 N   0  0  0  0  0  0  0  0  0  0  0  0
  -29.8910  -16.0020   20.4520 N   0  0  0  0  0  0  0  0  0  0  0  0
  -32.9770  -19.2330   18.4820 F   0  0  0  0  0  0  0  0  0  0  0  0
  -31.3320  -21.3590   19.0390 F   0  0  0  0  0  0  0  0  0  0  0  0
  -28.9350  -15.8520   20.7260 H   0  0  0  0  0  0  0  0  0  0  0  0
  -25.2330  -13.8780   20.5720 C   0  0  0  0  0  0  0  0  0  0  0  0
  -24.1760  -13.0960   20.9490 C   0  0  0  0  0  0  0  0  0  0  0  0
  -24.6380  -11.7460   20.8880 C   0  0  0  0  0  0  0  0  0  0  0  0
  -26.2730  -13.0040   20.2990 N   0  0  0  0  0  0  0  0  0  0  0  0
  -25.9240  -11.7160   20.5530 N   0  0  0  0  0  0  0  0  0  0  0  0
  -23.9150  -10.4800   21.0680 C   0  0  0  0  0  0  0  0  0  0  0  0
  -24.3530   -9.5030   21.9890 C   0  0  0  0  0  3  0  0  0  0  0  0
  -23.6310   -8.3040   22.1610 C   0  0  0  0  0  3  0  0  0  0  0  0
  -22.4530   -8.0700   21.4100 C   0  0  0  0  0  0  0  0  0  0  0  0
  -22.0330   -9.0360   20.4790 C   0  0  0  0  0  3  0  0  0  0  0  0
  -22.7590  -10.2270   20.3060 C   0  0  0  0  0  3  0  0  0  0  0  0
  -21.6980   -6.9260   21.4930 O   0  0  0  0  0  0  0  0  0  0  0  0
  -21.6420   -6.1810   22.6420 C   0  0  0  0  0  0  0  0  0  0  0  0
  -21.1790   -6.7240   23.8610 C   0  0  0  0  0  3  0  0  0  0  0  0
  -21.0740   -5.9040   25.0030 C   0  0  0  0  0  3  0  0  0  0  0  0
  -21.4210   -4.5410   24.9260 C   0  0  0  0  0  0  0  0  0  0  0  0
  -21.8790   -3.9980   23.7130 C   0  0  0  0  0  3  0  0  0  0  0  0
  -21.9850   -4.8160   22.5720 C   0  0  0  0  0  0  0  0  0  0  0  0
  -22.4050   -4.2810   21.4010 F   0  0  0  0  0  0  0  0  0  0  0  0
  -21.3120   -3.7520   26.0200 F   0  0  0  0  0  0  0  0  0  0  0  0
  -22.7840  -13.5650   21.2510 C   0  0  0  0  0  0  0  0  0  0  0  0
  -22.0650  -12.8560   22.1120 N   0  0  0  0  0  0  0  0  0  0  0  0
  -22.3420  -14.6010   20.7550 O   0  0  0  0  0  0  0  0  0  0  0  0
  -22.4370  -12.0200   22.5390 H   0  0  0  0  0  0  0  0  0  0  0  0
  -21.1270  -13.1520   22.3460 H   0  0  0  0  0  0  0  0  0  0  0  0
  -25.3910  -15.2520   20.4160 N   0  0  0  0  0  0  0  0  0  0  0  0
  -24.6290  -15.9020   20.5770 H   0  0  0  0  0  0  0  0  0  0  0  0
  -26.2260  -15.7000   20.0610 H   0  0  0  0  0  0  0  0  0  0  0  0
  -30.3430  -22.4620   21.7680 C   0  0  0  0  0  1  0  0  0  0  0  0
  -29.0360  -22.3510   20.9560 C   0  0  0  0  0  0  0  0  0  0  0  0
  -28.7640  -23.7430   20.1380 C   0  0  0  0  0  0  0  0  0  0  0  0
  -29.0100  -23.8180   18.9290 O   0  0  0  0  0  0  0  0  0  0  0  0
  -28.1550  -25.0370   20.8780 C   0  0  0  0  0  2  0  0  0  0  0  0
  -28.3820  -26.4220   20.3280 O   0  0  0  0  0  0  0  0  0  0  0  0
  -24.5950  -31.9100   23.2630 C   0  0  0  0  0  0  0  0  0  0  0  0
  -27.2820  -27.3050   20.3000 C   0  0  0  0  0  0  0  0  0  0  0  0
  -23.4320  -30.4900   21.6120 C   0  0  0  0  0  3  0  0  0  0  0  0
  -24.9160  -28.9300   20.2250 C   0  0  0  0  0  0  0  0  0  0  0  0
  -25.9750  -30.8090   21.4780 C   0  0  0  0  0  2  0  0  0  0  0  0
  -26.0740  -29.4230   20.8420 C   0  0  0  0  0  0  0  0  0  0  0  0
  -27.2650  -28.6260   20.8630 C   0  0  0  0  0  3  0  0  0  0  0  0
  -26.1030  -26.8730   19.6590 C   0  0  0  0  0  3  0  0  0  0  0  0
  -24.9370  -27.6630   19.6200 C   0  0  0  0  0  3  0  0  0  0  0  0
  -23.6780  -29.8070   20.2400 C   0  0  0  0  0  2  0  0  0  0  0  0
  -24.6860  -31.0900   22.1740 N   0  0  0  0  0  0  0  0  0  0  0  0
  -23.5010  -32.1880   23.7750 O   0  0  0  0  0  0  0  0  0  0  0  0
  -22.7560  -29.4790   22.5690 C   0  0  0  0  0  0  0  0  0  0  0  0
  -21.4300  -29.2980   22.4240 N   0  0  0  0  0  0  0  0  0  0  0  0
  -23.4230  -28.8630   23.4030 O   0  0  0  0  0  0  0  0  0  0  0  0
  -20.9520  -29.8480   21.7250 H   0  0  0  0  0  0  0  0  0  0  0  0
  -18.0450  -28.1130   22.9020 C   0  0  0  0  0  0  0  0  0  0  0  0
  -20.6020  -28.3630   23.1880 C   0  0  0  0  0  3  0  0  0  0  0  0
  -20.7020  -26.9320   22.6100 C   0  0  0  0  0  2  0  0  0  0  0  0
  -19.6040  -26.6160   21.5890 C   0  0  0  0  0  2  0  0  0  0  0  0
  -18.2200  -26.7660   22.2250 C   0  0  0  0  0  2  0  0  0  0  0  0
  -19.1640  -28.8710   23.3390 C   0  0  0  0  0  0  0  0  0  0  0  0
  -18.9450  -30.1330   23.9340 C   0  0  0  0  0  3  0  0  0  0  0  0
  -17.6400  -30.6390   24.0950 C   0  0  0  0  0  3  0  0  0  0  0  0
  -16.5350  -29.8770   23.6740 C   0  0  0  0  0  3  0  0  0  0  0  0
  -16.7390  -28.6170   23.0830 C   0  0  0  0  0  3  0  0  0  0  0  0
  -25.8620  -32.5560   23.9040 C   0  0  0  0  0  3  0  0  0  0  0  0
  -26.3450  -31.8100   25.2100 C   0  0  1  0  0  0  0  0  0  0  0  0
  -25.2250  -31.5930   26.2540 C   0  0  0  0  0  1  0  0  0  0  0  0
  -26.9410  -30.4260   24.8630 C   0  0  0  0  0  1  0  0  0  0  0  0
  -27.4770  -32.6200   25.8870 C   0  0  0  0  0  1  0  0  0  0  0  0
  -25.5450  -33.9600   24.2030 N   0  0  0  0  0  0  0  0  0  0  0  0
  -25.8950  -35.0020   23.4350 C   0  0  0  0  0  0  0  0  0  0  0  0
  -26.5880  -34.8800   22.4220 O   0  0  0  0  0  0  0  0  0  0  0  0
  -24.9340  -34.1270   24.9900 H   0  0  0  0  0  0  0  0  0  0  0  0
  -24.1900  -36.7980   22.9950 C   0  0  0  0  0  1  0  0  0  0  0  0
  -25.3980  -36.3990   23.8580 C   0  0  0  0  0  3  0  0  0  0  0  0
  -27.5020  -37.2880   24.7590 C   0  0  0  0  0  1  0  0  0  0  0  0
  -26.4400  -37.4440   23.7700 N   0  0  0  0  0  0  0  0  0  0  0  0
  -26.0320  -38.3690   23.8830 H   0  0  0  0  0  0  0  0  0  0  0  0
  1  2  1  0
  1 50  2  0
  3 17  1  0
  4  9  1  0
  5  6  1  0
  5  4  1  0
  7  6  1  0
  7 24  1  0
  7  8  1  0
  9  3  1  0
  9  8  1  0
 10  3  2  0
 11 14  1  0
 12 13  1  0
 12 11  2  0
 13 15  2  0
 14 16  2  0
 14 17  1  0
 15  1  1  0
 15 16  1  0
 17 20  1  0
 18 12  1  0
 19 13  1  0
 21 22  2  0
 22 41  1  0
 23 22  1  0
 23 26  1  0
 24 25  1  0
 24 21  1  0
 25 23  2  0
 26 27  1  0
 27 28  2  0
 29 32  1  0
 29 28  1  0
 30 29  2  0
 31 30  1  0
 31 26  2  0
 32 33  1  0
 33 34  1  0
 34 35  2  0
 36 35  1  0
 36 40  1  0
 37 36  2  0
 38 33  2  0
 38 37  1  0
 39 38  1  0
 41 42  1  0
 42 45  1  0
 42 44  1  0
 43 41  2  0
 46 21  1  0
 46 47  1  0
 48 46  1  0
 50 49  1  0
 51 53  1  0
 51 50  1  0
 52 51  2  0
 54 53  1  0
 55 66  2  0
 56 54  1  0
 56 61  1  0
 57 65  1  0
 57 67  1  0
 58 64  1  0
 58 60  1  0
 59 65  1  0
 60 61  2  0
 60 59  1  0
 62 56  2  0
 63 62  1  0
 63 58  2  0
 64 57  1  0
 65 55  1  0
 67 69  2  0
 68 67  1  0
 70 68  1  0
 71 80  2  0
 71 76  1  0
 72 68  1  0
 72 76  1  0
 73 72  1  0
 74 75  1  0
 74 73  1  0
 75 71  1  0
 76 77  2  0
 77 78  1  0
 79 78  2  0
 80 79  1  0
 81 55  1  0
 81 86  1  0
 81 82  1  0
 82 85  1  1
 82 83  1  0
 84 82  1  0
 86 89  1  0
 87 91  1  0
 87 86  1  0
 88 87  2  0
 91 90  1  0
 93 91  1  0
 93 94  1  0
 93 92  1  0
M  ISO  4   3 100  17 100  53 101  54 101
M  END
>  <TORSDO>  (42) 
F 19

>  <SCORE>  (42) 
-14.459

>  <name>  (42) 
41

>  <ligand_id>  (42) 
41

>  <original_smiles>  (42) 
[H]c1c([H])c([H])c2c(c1[H])C([H])([H])C([H])([H])C([H])([H])C2([H])N([H])C(=O)C1([H])N(C(=O)C([H])(N([H])C(=O)C([H])(N([H])C([H])([H])[H])C([H])([H])[H])C(C([H])([H])[H])(C([H])([H])[H])C([H])([H])[H])C([H])([H])c2c([H])c(OC([H])([H])C(=O)C([H])(N([H])c3nc(N([H])C(=O)N4C([H])([H])C([H])([H])C([H])([H])C([H])(n5nc(-c6c([H])c([H])c(Oc7c([H])c([H])c(F)c([H])c7F)c([H])c6[H])c(C(=O)N([H])[H])c5N([H])[H])C4([H])[H])c([H])c(F)c3F)C([H])([H])[H])c([H])c([H])c2C1([H])[H]

>  <smiles>  (42) 
[H]c1c([H])c([H])c2c(c1[H])C([H])([H])C([H])([H])C([H])([H])C2([H])N([H])C(=O)C1([H])N(C(=O)C([H])(N([H])C(=O)C([H])(N([H])C([H])([H])[H])C([H])([H])[H])C(C([H])([H])[H])(C([H])([H])[H])C([H])([H])[H])C([H])([H])c2c([H])c(OC([H])([H])C(=O)C([H])(N([H])c3nc(N([H])C(=O)N4C([H])([H])C([H])([H])C([H])([H])C([H])(n5nc(-c6c([H])c([H])c(Oc7c([H])c([H])c(F)c([H])c7F)c([H])c6[H])c(C(=O)N([H])[H])c5N([H])[H])C4([H])[H])c([H])c(F)c3F)C([H])([H])[H])c([H])c([H])c2C1([H])[H]

$$$$
42:0:0
     RDKit          3D

 99107  0  0  1  0  0  0  0  0999 V2000
  -29.2340  -22.4590   19.5700 C   0  0  0  0  0  3  0  0  0  0  0  0
  -30.2170  -22.9680   18.4460 C   0  0  2  0  0  0  0  0  0  0  0  0
  -31.3960  -22.3580   18.5740 F   0  0  0  0  0  0  0  0  0  0  0  0
  -30.5270  -24.2590   18.6040 F   0  0  0  0  0  0  0  0  0  0  0  0
  -28.6420  -24.1010   16.7080 C   0  0  0  0  0  1  0  0  0  0  0  0
  -29.6200  -22.9480   17.0010 C   0  0  2  0  0  0  0  0  0  0  0  0
  -28.9280  -21.8430   16.7360 F   0  0  0  0  0  0  0  0  0  0  0  0
  -30.6170  -23.0480   16.1200 F   0  0  0  0  0  0  0  0  0  0  0  0
  -28.9470  -23.7320   20.5510 C   0  0  0  0  0  0  0  0  0  0  0  0
  -29.4330  -23.7790   21.6860 O   0  0  0  0  0  0  0  0  0  0  0  0
  -28.0020  -24.9370   20.0620 C   0  0  0  0  0  2  0  0  0  0  0  0
  -28.2720  -26.3700   20.4580 O   0  0  0  0  0  0  0  0  0  0  0  0
  -24.5410  -31.9310   23.3090 C   0  0  0  0  0  0  0  0  0  0  0  0
  -27.1990  -27.2930   20.3500 C   0  0  0  0  0  0  0  0  0  0  0  0
  -23.3740  -30.5230   21.6540 C   0  0  0  0  0  3  0  0  0  0  0  0
  -24.8530  -28.9620   20.2670 C   0  0  0  0  0  0  0  0  0  0  0  0
  -25.9240  -30.8180   21.5350 C   0  0  0  0  0  2  0  0  0  0  0  0
  -26.0140  -29.4330   20.8960 C   0  0  0  0  0  0  0  0  0  0  0  0
  -27.1870  -28.6080   20.9330 C   0  0  0  0  0  3  0  0  0  0  0  0
  -26.0150  -26.9070   19.6730 C   0  0  0  0  0  3  0  0  0  0  0  0
  -24.8610  -27.7080   19.6480 C   0  0  0  0  0  3  0  0  0  0  0  0
  -23.6190  -29.8430   20.2830 C   0  0  0  0  0  2  0  0  0  0  0  0
  -24.6310  -31.1100   22.2220 N   0  0  0  0  0  0  0  0  0  0  0  0
  -23.4440  -32.2170   23.8140 O   0  0  0  0  0  0  0  0  0  0  0  0
  -22.6850  -29.5140   22.6050 C   0  0  0  0  0  0  0  0  0  0  0  0
  -21.3630  -29.3300   22.4420 N   0  0  0  0  0  0  0  0  0  0  0  0
  -23.3400  -28.8990   23.4500 O   0  0  0  0  0  0  0  0  0  0  0  0
  -20.8920  -29.8760   21.7350 H   0  0  0  0  0  0  0  0  0  0  0  0
  -17.9750  -28.1370   22.8780 C   0  0  0  0  0  0  0  0  0  0  0  0
  -20.5260  -28.3980   23.2020 C   0  0  0  0  0  3  0  0  0  0  0  0
  -20.6400  -26.9610   22.6390 C   0  0  0  0  0  2  0  0  0  0  0  0
  -19.5600  -26.6320   21.6030 C   0  0  0  0  0  2  0  0  0  0  0  0
  -18.1640  -26.7830   22.2160 C   0  0  0  0  0  2  0  0  0  0  0  0
  -19.0830  -28.9010   23.3270 C   0  0  0  0  0  0  0  0  0  0  0  0
  -18.8500  -30.1690   23.9050 C   0  0  0  0  0  3  0  0  0  0  0  0
  -17.5410  -30.6700   24.0390 C   0  0  0  0  0  3  0  0  0  0  0  0
  -16.4470  -29.9030   23.6040 C   0  0  0  0  0  3  0  0  0  0  0  0
  -16.6640  -28.6370   23.0300 C   0  0  0  0  0  3  0  0  0  0  0  0
  -25.8080  -32.5700   23.9540 C   0  0  0  0  0  3  0  0  0  0  0  0
  -25.4990  -33.9790   24.2420 N   0  0  0  0  0  0  0  0  0  0  0  0
  -25.8610  -35.0110   23.4690 C   0  0  0  0  0  0  0  0  0  0  0  0
  -26.5580  -34.8790   22.4600 O   0  0  0  0  0  0  0  0  0  0  0  0
  -24.8800  -34.1570   25.0190 H   0  0  0  0  0  0  0  0  0  0  0  0
  -24.1630  -36.8140   23.0190 C   0  0  0  0  0  1  0  0  0  0  0  0
  -25.3730  -36.4140   23.8810 C   0  0  0  0  0  3  0  0  0  0  0  0
  -27.4840  -37.3020   24.7700 C   0  0  0  0  0  1  0  0  0  0  0  0
  -26.4220  -37.4540   23.7780 N   0  0  0  0  0  0  0  0  0  0  0  0
  -26.0210  -38.3820   23.8830 H   0  0  0  0  0  0  0  0  0  0  0  0
  -26.2740  -31.8280   25.2660 C   0  0  1  0  0  0  0  0  0  0  0  0
  -25.1410  -31.6210   26.2990 C   0  0  0  0  0  1  0  0  0  0  0  0
  -26.8640  -30.4370   24.9320 C   0  0  0  0  0  1  0  0  0  0  0  0
  -27.4060  -32.6310   25.9480 C   0  0  0  0  0  1  0  0  0  0  0  0
  -29.5420  -21.0880   20.2280 N   0  0  0  0  0  0  0  0  0  0  0  0
  -29.1320  -21.0290   21.1520 H   0  0  0  0  0  0  0  0  0  0  0  0
  -30.6220  -14.7960   20.3160 C   0  0  0  0  0  0  0  0  0  0  0  0
  -30.3640  -12.5260   19.3200 C   0  0  0  0  0  2  0  0  0  0  0  0
  -29.4200  -12.6220   18.1020 C   0  0  0  0  0  2  0  0  0  0  0  0
  -27.9540  -12.4640   18.5440 C   0  0  0  0  0  2  0  0  0  0  0  0
  -27.5980  -13.3400   19.7750 C   0  0  0  0  0  3  0  0  0  0  0  0
  -28.6700  -13.2480   20.8840 C   0  0  0  0  0  2  0  0  0  0  0  0
  -29.9610  -13.5870   20.2750 N   0  0  0  0  0  0  0  0  0  0  0  0
  -31.8240  -14.8200   20.0330 O   0  0  0  0  0  0  0  0  0  0  0  0
  -30.8590  -17.3150   18.6550 C   0  0  0  0  0  3  0  0  0  0  0  0
  -30.7210  -19.7220   18.5020 C   0  0  0  0  0  3  0  0  0  0  0  0
  -31.1550  -18.5010   17.9860 C   0  0  0  0  0  0  0  0  0  0  0  0
  -30.1540  -17.3290   19.8750 C   0  0  0  0  0  0  0  0  0  0  0  0
  -29.9610  -19.7960   19.6830 C   0  0  0  0  0  0  0  0  0  0  0  0
  -29.7050  -18.5830   20.3460 N   0  0  0  0  0  0  0  0  0  0  0  0
  -29.9000  -15.9820   20.4710 N   0  0  0  0  0  0  0  0  0  0  0  0
  -31.8670  -18.4690   16.8340 F   0  0  0  0  0  0  0  0  0  0  0  0
  -28.9940  -15.8740   20.8990 H   0  0  0  0  0  0  0  0  0  0  0  0
  -25.2230  -13.9280   20.5370 C   0  0  0  0  0  0  0  0  0  0  0  0
  -24.1580  -13.1530   20.9060 C   0  0  0  0  0  0  0  0  0  0  0  0
  -24.6150  -11.8000   20.8550 C   0  0  0  0  0  0  0  0  0  0  0  0
  -26.2600  -13.0480   20.2790 N   0  0  0  0  0  0  0  0  0  0  0  0
  -25.9050  -11.7630   20.5370 N   0  0  0  0  0  0  0  0  0  0  0  0
  -23.8850  -10.5370   21.0350 C   0  0  0  0  0  0  0  0  0  0  0  0
  -24.3030   -9.5720   21.9770 C   0  0  0  0  0  3  0  0  0  0  0  0
  -23.5710   -8.3770   22.1470 C   0  0  0  0  0  3  0  0  0  0  0  0
  -22.4090   -8.1390   21.3760 C   0  0  0  0  0  0  0  0  0  0  0  0
  -22.0110   -9.0940   20.4220 C   0  0  0  0  0  3  0  0  0  0  0  0
  -22.7430  -10.2800   20.2500 C   0  0  0  0  0  3  0  0  0  0  0  0
  -21.6530   -6.9940   21.4530 O   0  0  0  0  0  0  0  0  0  0  0  0
  -21.5740   -6.2600   22.6090 C   0  0  0  0  0  0  0  0  0  0  0  0
  -21.0750   -6.8100   23.8100 C   0  0  0  0  0  3  0  0  0  0  0  0
  -20.9470   -6.0010   24.9570 C   0  0  0  0  0  3  0  0  0  0  0  0
  -21.3100   -4.6420   24.9030 C   0  0  0  0  0  0  0  0  0  0  0  0
  -21.8020   -4.0920   23.7070 C   0  0  0  0  0  3  0  0  0  0  0  0
  -21.9310   -4.8980   22.5640 C   0  0  0  0  0  0  0  0  0  0  0  0
  -22.3870   -4.3570   21.4070 F   0  0  0  0  0  0  0  0  0  0  0  0
  -21.1810   -3.8600   26.0020 F   0  0  0  0  0  0  0  0  0  0  0  0
  -22.7640  -13.6310   21.1900 C   0  0  0  0  0  0  0  0  0  0  0  0
  -22.0390  -12.9230   22.0490 N   0  0  0  0  0  0  0  0  0  0  0  0
  -22.3300  -14.6680   20.6910 O   0  0  0  0  0  0  0  0  0  0  0  0
  -22.4050  -12.0850   22.4750 H   0  0  0  0  0  0  0  0  0  0  0  0
  -21.1010  -13.2210   22.2790 H   0  0  0  0  0  0  0  0  0  0  0  0
  -25.3900  -15.2990   20.3760 N   0  0  0  0  0  0  0  0  0  0  0  0
  -24.6260  -15.9540   20.5050 H   0  0  0  0  0  0  0  0  0  0  0  0
  -26.2270  -15.7400   20.0160 H   0  0  0  0  0  0  0  0  0  0  0  0
  1 53  1  0
  1  9  1  0
  2  3  1  6
  2  4  1  0
  2  1  1  0
  6  5  1  1
  6  2  1  0
  7  6  1  0
  8  6  1  0
  9 10  2  0
 11 12  1  0
 11  9  1  0
 13 24  2  0
 14 12  1  0
 14 19  1  0
 15 23  1  0
 15 25  1  0
 16 22  1  0
 16 18  1  0
 17 23  1  0
 18 19  2  0
 18 17  1  0
 20 14  2  0
 21 20  1  0
 21 16  2  0
 22 15  1  0
 23 13  1  0
 25 27  2  0
 26 25  1  0
 28 26  1  0
 29 38  2  0
 29 34  1  0
 30 26  1  0
 30 34  1  0
 31 30  1  0
 32 33  1  0
 32 31  1  0
 33 29  1  0
 34 35  2  0
 35 36  1  0
 37 36  2  0
 38 37  1  0
 39 13  1  0
 39 40  1  0
 39 49  1  0
 40 43  1  0
 41 45  1  0
 41 40  1  0
 42 41  2  0
 45 44  1  0
 47 45  1  0
 47 48  1  0
 47 46  1  0
 49 52  1  1
 49 50  1  0
 51 49  1  0
 53 54  1  0
 55 69  1  0
 56 61  1  0
 57 58  1  0
 57 56  1  0
 59 58  1  0
 59 75  1  0
 59 60  1  0
 61 55  1  0
 61 60  1  0
 62 55  2  0
 63 66  1  0
 64 67  2  0
 65 64  1  0
 65 63  2  0
 66 68  2  0
 66 69  1  0
 67 53  1  0
 67 68  1  0
 69 71  1  0
 70 65  1  0
 72 73  2  0
 73 92  1  0
 74 73  1  0
 74 77  1  0
 75 72  1  0
 75 76  1  0
 76 74  2  0
 77 78  1  0
 78 79  2  0
 80 83  1  0
 80 79  1  0
 81 80  2  0
 82 81  1  0
 82 77  2  0
 83 84  1  0
 84 85  1  0
 85 86  2  0
 87 86  1  0
 87 91  1  0
 88 87  2  0
 89 84  2  0
 89 88  1  0
 90 89  1  0
 92 93  1  0
 93 96  1  0
 93 95  1  0
 94 92  2  0
 97 98  1  0
 97 72  1  0
 99 97  1  0
M  ISO  4  11 101  12 101  55 100  69 100
M  END
>  <TORSDO>  (43) 
F 21

>  <SCORE>  (43) 
-13.590

>  <name>  (43) 
42

>  <ligand_id>  (43) 
42

>  <original_smiles>  (43) 
[H]c1c([H])c([H])c2c(c1[H])C([H])([H])C([H])([H])C([H])([H])C2([H])N([H])C(=O)C1([H])N(C(=O)C([H])(N([H])C(=O)C([H])(N([H])C([H])([H])[H])C([H])([H])[H])C(C([H])([H])[H])(C([H])([H])[H])C([H])([H])[H])C([H])([H])c2c([H])c(OC([H])([H])C(=O)C([H])(N([H])c3nc(N([H])C(=O)N4C([H])([H])C([H])([H])C([H])([H])C([H])(n5nc(-c6c([H])c([H])c(Oc7c([H])c([H])c(F)c([H])c7F)c([H])c6[H])c(C(=O)N([H])[H])c5N([H])[H])C4([H])[H])c([H])c(F)c3[H])C(F)(F)C(F)(F)C([H])([H])[H])c([H])c([H])c2C1([H])[H]

>  <smiles>  (43) 
[H]c1c([H])c([H])c2c(c1[H])C([H])([H])C([H])([H])C([H])([H])C2([H])N([H])C(=O)C1([H])N(C(=O)C([H])(N([H])C(=O)C([H])(N([H])C([H])([H])[H])C([H])([H])[H])C(C([H])([H])[H])(C([H])([H])[H])C([H])([H])[H])C([H])([H])c2c([H])c(OC([H])([H])C(=O)C([H])(N([H])c3nc(N([H])C(=O)N4C([H])([H])C([H])([H])C([H])([H])C([H])(n5nc(-c6c([H])c([H])c(Oc7c([H])c([H])c(F)c([H])c7F)c([H])c6[H])c(C(=O)N([H])[H])c5N([H])[H])C4([H])[H])c([H])c(F)c3[H])C(F)(F)C(F)(F)C([H])([H])[H])c([H])c([H])c2C1([H])[H]

$$$$
43:0:0
     RDKit          3D

 93101  0  0  1  0  0  0  0  0999 V2000
  -30.2530  -18.3230   20.8690 C   0  0  0  0  0  0  0  0  0  0  0  0
  -30.7720  -18.3520   22.1460 C   0  0  0  0  0  0  0  0  0  0  0  0
  -30.0840  -20.5970   21.3290 C   0  0  0  0  0  0  0  0  0  0  0  0
  -29.2250  -22.7570   20.2430 C   0  0  0  0  0  0  0  0  0  0  0  0
  -31.3250  -17.2140   22.9460 C   0  0  0  0  0  1  0  0  0  0  0  0
  -29.8600  -19.6190   20.4240 N   0  0  0  0  0  0  0  0  0  0  0  0
  -29.8660  -22.0120   21.1750 N   0  0  0  0  0  0  0  0  0  0  0  0
  -28.6390  -22.3020   19.2540 O   0  0  0  0  0  0  0  0  0  0  0  0
  -30.7830  -19.9700   22.8140 S   0  0  0  0  0  0  0  0  0  0  0  0
  -30.2580  -22.5820   21.9130 H   0  0  0  0  0  0  0  0  0  0  0  0
  -29.3010  -24.3130   20.5510 C   0  0  0  0  0  0  0  0  0  0  0  0
  -30.1860  -24.7780   21.2830 O   0  0  0  0  0  0  0  0  0  0  0  0
  -28.2090  -25.2420   19.9380 C   0  0  0  0  0  2  0  0  0  0  0  0
  -28.3540  -26.6640   20.2610 O   0  0  0  0  0  0  0  0  0  0  0  0
  -24.5870  -31.9440   23.3070 C   0  0  0  0  0  0  0  0  0  0  0  0
  -27.2060  -27.4540   20.2110 C   0  0  0  0  0  0  0  0  0  0  0  0
  -23.3750  -30.5460   21.6700 C   0  0  0  0  0  3  0  0  0  0  0  0
  -24.8200  -29.0130   20.2280 C   0  0  0  0  0  0  0  0  0  0  0  0
  -25.9060  -30.8900   21.4650 C   0  0  0  0  0  2  0  0  0  0  0  0
  -25.9870  -29.5190   20.8160 C   0  0  0  0  0  0  0  0  0  0  0  0
  -27.1810  -28.7490   20.8020 C   0  0  0  0  0  3  0  0  0  0  0  0
  -26.0180  -26.9920   19.5950 C   0  0  0  0  0  3  0  0  0  0  0  0
  -24.8350  -27.7530   19.6120 C   0  0  0  0  0  3  0  0  0  0  0  0
  -23.5780  -29.8740   20.2870 C   0  0  0  0  0  2  0  0  0  0  0  0
  -24.6410  -31.1420   22.2040 N   0  0  0  0  0  0  0  0  0  0  0  0
  -23.5080  -32.2150   23.8510 O   0  0  0  0  0  0  0  0  0  0  0  0
  -22.7270  -29.5210   22.6310 C   0  0  0  0  0  0  0  0  0  0  0  0
  -21.4090  -29.3070   22.4820 N   0  0  0  0  0  0  0  0  0  0  0  0
  -23.4080  -28.9230   23.4680 O   0  0  0  0  0  0  0  0  0  0  0  0
  -20.9190  -29.8410   21.7790 H   0  0  0  0  0  0  0  0  0  0  0  0
  -18.0580  -28.0220   22.9230 C   0  0  0  0  0  0  0  0  0  0  0  0
  -20.6000  -28.3610   23.2500 C   0  0  0  0  0  3  0  0  0  0  0  0
  -20.7580  -26.9230   22.7040 C   0  0  0  0  0  2  0  0  0  0  0  0
  -19.6910  -26.5500   21.6700 C   0  0  0  0  0  2  0  0  0  0  0  0
  -18.2890  -26.6660   22.2760 C   0  0  0  0  0  2  0  0  0  0  0  0
  -19.1430  -28.8240   23.3650 C   0  0  0  0  0  0  0  0  0  0  0  0
  -18.8730  -30.0900   23.9280 C   0  0  0  0  0  3  0  0  0  0  0  0
  -17.5520  -30.5570   24.0500 C   0  0  0  0  0  3  0  0  0  0  0  0
  -16.4810  -29.7530   23.6230 C   0  0  0  0  0  3  0  0  0  0  0  0
  -16.7350  -28.4870   23.0680 C   0  0  0  0  0  3  0  0  0  0  0  0
  -25.8750  -32.5760   23.9200 C   0  0  0  0  0  3  0  0  0  0  0  0
  -26.3760  -31.8300   25.2170 C   0  0  1  0  0  0  0  0  0  0  0  0
  -25.2720  -31.6180   26.2780 C   0  0  0  0  0  1  0  0  0  0  0  0
  -26.9580  -30.4420   24.8590 C   0  0  0  0  0  1  0  0  0  0  0  0
  -27.5240  -32.6330   25.8740 C   0  0  0  0  0  1  0  0  0  0  0  0
  -25.5790  -33.9850   24.2150 N   0  0  0  0  0  0  0  0  0  0  0  0
  -25.9070  -35.0120   23.4200 C   0  0  0  0  0  0  0  0  0  0  0  0
  -26.5600  -34.8760   22.3820 O   0  0  0  0  0  0  0  0  0  0  0  0
  -24.9960  -34.1650   25.0190 H   0  0  0  0  0  0  0  0  0  0  0  0
  -24.1800  -36.8020   23.0430 C   0  0  0  0  0  1  0  0  0  0  0  0
  -25.4340  -36.4160   23.8440 C   0  0  0  0  0  3  0  0  0  0  0  0
  -27.5810  -37.3200   24.6200 C   0  0  0  0  0  1  0  0  0  0  0  0
  -26.4690  -37.4600   23.6830 N   0  0  0  0  0  0  0  0  0  0  0  0
  -26.0680  -38.3870   23.8060 H   0  0  0  0  0  0  0  0  0  0  0  0
  -30.1490  -17.1150   19.9320 C   0  0  0  0  0  2  0  0  0  0  0  0
  -30.7090  -14.6710   20.2690 C   0  0  0  0  0  0  0  0  0  0  0  0
  -30.4340  -12.4450   19.2450 C   0  0  0  0  0  2  0  0  0  0  0  0
  -29.4810  -12.5950   18.0400 C   0  0  0  0  0  2  0  0  0  0  0  0
  -28.0140  -12.4510   18.4870 C   0  0  0  0  0  2  0  0  0  0  0  0
  -27.6770  -13.3220   19.7280 C   0  0  0  0  0  3  0  0  0  0  0  0
  -28.7500  -13.1760   20.8330 C   0  0  0  0  0  2  0  0  0  0  0  0
  -30.0600  -13.4720   20.2340 N   0  0  0  0  0  0  0  0  0  0  0  0
  -31.8620  -14.8030   19.8540 O   0  0  0  0  0  0  0  0  0  0  0  0
  -29.9400  -15.7600   20.5200 N   0  0  0  0  0  0  0  0  0  0  0  0
  -29.0160  -15.5770   20.8800 H   0  0  0  0  0  0  0  0  0  0  0  0
  -25.2950  -13.9270   20.4860 C   0  0  0  0  0  0  0  0  0  0  0  0
  -24.2300  -13.1540   20.8630 C   0  0  0  0  0  0  0  0  0  0  0  0
  -24.6850  -11.8000   20.8110 C   0  0  0  0  0  0  0  0  0  0  0  0
  -26.3320  -13.0450   20.2280 N   0  0  0  0  0  0  0  0  0  0  0  0
  -25.9720  -11.7600   20.4830 N   0  0  0  0  0  0  0  0  0  0  0  0
  -23.9560  -10.5390   20.9960 C   0  0  0  0  0  0  0  0  0  0  0  0
  -24.3820   -9.5710   21.9330 C   0  0  0  0  0  3  0  0  0  0  0  0
  -23.6520   -8.3750   22.1080 C   0  0  0  0  0  3  0  0  0  0  0  0
  -22.4830   -8.1390   21.3460 C   0  0  0  0  0  0  0  0  0  0  0  0
  -22.0770   -9.0970   20.3990 C   0  0  0  0  0  3  0  0  0  0  0  0
  -22.8070  -10.2830   20.2230 C   0  0  0  0  0  3  0  0  0  0  0  0
  -21.7250   -6.9950   21.4290 O   0  0  0  0  0  0  0  0  0  0  0  0
  -21.6550   -6.2620   22.5860 C   0  0  0  0  0  0  0  0  0  0  0  0
  -21.1630   -6.8140   23.7890 C   0  0  0  0  0  3  0  0  0  0  0  0
  -21.0430   -6.0050   24.9370 C   0  0  0  0  0  3  0  0  0  0  0  0
  -21.4030   -4.6460   24.8830 C   0  0  0  0  0  0  0  0  0  0  0  0
  -21.8890   -4.0930   23.6840 C   0  0  0  0  0  3  0  0  0  0  0  0
  -22.0120   -4.9000   22.5390 C   0  0  0  0  0  0  0  0  0  0  0  0
  -22.4590   -4.3560   21.3810 F   0  0  0  0  0  0  0  0  0  0  0  0
  -21.2810   -3.8670   25.9840 F   0  0  0  0  0  0  0  0  0  0  0  0
  -22.8390  -13.6350   21.1600 C   0  0  0  0  0  0  0  0  0  0  0  0
  -22.1170  -12.9280   22.0240 N   0  0  0  0  0  0  0  0  0  0  0  0
  -22.4010  -14.6710   20.6640 O   0  0  0  0  0  0  0  0  0  0  0  0
  -22.4840  -12.0890   22.4480 H   0  0  0  0  0  0  0  0  0  0  0  0
  -21.1860  -13.2320   22.2660 H   0  0  0  0  0  0  0  0  0  0  0  0
  -25.4610  -15.2990   20.3190 N   0  0  0  0  0  0  0  0  0  0  0  0
  -24.6940  -15.9500   20.4490 H   0  0  0  0  0  0  0  0  0  0  0  0
  -26.2990  -15.7400   19.9630 H   0  0  0  0  0  0  0  0  0  0  0  0
  1  2  2  0
  2  9  1  0
  2  5  1  0
  3  9  1  0
  4 11  1  0
  4  7  1  0
  6  1  1  0
  6  3  2  0
  7  3  1  0
  7 10  1  0
  8  4  2  0
 11 12  2  0
 13 14  1  0
 13 11  1  0
 15 26  2  0
 16 14  1  0
 16 21  1  0
 17 25  1  0
 17 27  1  0
 18 24  1  0
 18 20  1  0
 19 25  1  0
 20 19  1  0
 21 20  2  0
 22 23  1  0
 22 16  2  0
 23 18  2  0
 24 17  1  0
 25 15  1  0
 27 29  2  0
 28 27  1  0
 30 28  1  0
 31 40  2  0
 31 36  1  0
 32 28  1  0
 32 36  1  0
 33 32  1  0
 34 35  1  0
 34 33  1  0
 35 31  1  0
 36 37  2  0
 37 38  1  0
 39 38  2  0
 40 39  1  0
 41 15  1  0
 41 46  1  0
 41 42  1  0
 42 45  1  1
 42 43  1  0
 44 42  1  0
 46 49  1  0
 47 51  1  0
 47 46  1  0
 48 47  2  0
 51 50  1  0
 53 54  1  0
 53 51  1  0
 53 52  1  0
 55 64  1  0
 55  1  1  0
 56 64  1  0
 57 62  1  0
 58 59  1  0
 58 57  1  0
 60 59  1  0
 60 69  1  0
 60 61  1  0
 62 56  1  0
 62 61  1  0
 63 56  2  0
 64 65  1  0
 66 67  2  0
 67 86  1  0
 68 67  1  0
 68 71  1  0
 69 70  1  0
 69 66  1  0
 70 68  2  0
 71 72  1  0
 72 73  2  0
 74 77  1  0
 74 73  1  0
 75 74  2  0
 76 75  1  0
 76 71  2  0
 77 78  1  0
 78 79  1  0
 79 80  2  0
 81 80  1  0
 81 85  1  0
 82 81  2  0
 83 78  2  0
 83 82  1  0
 84 83  1  0
 86 87  1  0
 87 90  1  0
 87 89  1  0
 88 86  2  0
 91 92  1  0
 91 66  1  0
 93 91  1  0
M  ISO  4  13 101  14 101  56 100  64 100
M  END
>  <TORSDO>  (44) 
F 19

>  <SCORE>  (44) 
-13.479

>  <name>  (44) 
43

>  <ligand_id>  (44) 
43

>  <original_smiles>  (44) 
[H]c1c([H])c([H])c2c(c1[H])C([H])([H])C([H])([H])C([H])([H])C2([H])N([H])C(=O)C1([H])N(C(=O)C([H])(N([H])C(=O)C([H])(N([H])C([H])([H])[H])C([H])([H])[H])C(C([H])([H])[H])(C([H])([H])[H])C([H])([H])[H])C([H])([H])c2c([H])c(OC([H])([H])C(=O)C(=O)N([H])c3nc(C([H])([H])N([H])C(=O)N4C([H])([H])C([H])([H])C([H])([H])C([H])(n5nc(-c6c([H])c([H])c(Oc7c([H])c([H])c(F)c([H])c7F)c([H])c6[H])c(C(=O)N([H])[H])c5N([H])[H])C4([H])[H])c(C([H])([H])[H])s3)c([H])c([H])c2C1([H])[H]

>  <smiles>  (44) 
[H]c1c([H])c([H])c2c(c1[H])C([H])([H])C([H])([H])C([H])([H])C2([H])N([H])C(=O)C1([H])N(C(=O)C([H])(N([H])C(=O)C([H])(N([H])C([H])([H])[H])C([H])([H])[H])C(C([H])([H])[H])(C([H])([H])[H])C([H])([H])[H])C([H])([H])c2c([H])c(OC([H])([H])C(=O)C(=O)N([H])c3nc(C([H])([H])N([H])C(=O)N4C([H])([H])C([H])([H])C([H])([H])C([H])(n5nc(-c6c([H])c([H])c(Oc7c([H])c([H])c(F)c([H])c7F)c([H])c6[H])c(C(=O)N([H])[H])c5N([H])[H])C4([H])[H])c(C([H])([H])[H])s3)c([H])c([H])c2C1([H])[H]

$$$$
44:0:0
     RDKit          3D

 93101  0  0  1  0  0  0  0  0999 V2000
  -28.7970  -23.9800   20.3170 C   0  0  0  0  0  0  0  0  0  0  0  0
  -28.2500  -22.7990   20.7360 N   0  0  0  0  0  0  0  0  0  0  0  0
  -29.6460  -24.0140   19.4220 O   0  0  0  0  0  0  0  0  0  0  0  0
  -27.4850  -22.9390   21.3840 H   0  0  0  0  0  0  0  0  0  0  0  0
  -27.6260  -20.5020   20.0770 C   0  0  0  0  0  3  0  0  0  0  0  0
  -28.1280  -19.1460   19.9930 C   0  0  0  0  0  3  0  0  0  0  0  0
  -28.5370  -21.4700   20.4480 C   0  0  0  0  0  0  0  0  0  0  0  0
  -29.4550  -19.0200   20.3360 C   0  0  0  0  0  0  0  0  0  0  0  0
  -30.0860  -20.6460   20.6970 S   0  0  0  0  0  0  0  0  0  0  0  0
  -31.3290  -17.6410   19.1490 O   0  0  0  0  0  0  0  0  0  0  0  0
  -31.3450  -17.7230   21.6820 O   0  0  0  0  0  0  0  0  0  0  0  0
  -30.5930  -17.5560   20.4260 S   0  0  1  0  0  0  0  0  0  0  0  0
  -30.5860  -14.7000   20.2080 C   0  0  0  0  0  0  0  0  0  0  0  0
  -30.3450  -12.4310   19.2400 C   0  0  0  0  0  2  0  0  0  0  0  0
  -29.4010  -12.5500   18.0230 C   0  0  0  0  0  2  0  0  0  0  0  0
  -27.9310  -12.3990   18.4610 C   0  0  0  0  0  2  0  0  0  0  0  0
  -27.5810  -13.2770   19.6930 C   0  0  0  0  0  3  0  0  0  0  0  0
  -28.6500  -13.1700   20.7970 C   0  0  0  0  0  2  0  0  0  0  0  0
  -29.9530  -13.4830   20.2010 N   0  0  0  0  0  0  0  0  0  0  0  0
  -31.7660  -14.7610   19.8460 O   0  0  0  0  0  0  0  0  0  0  0  0
  -29.8700  -15.9220   20.4780 N   0  0  0  0  0  0  0  0  0  0  0  0
  -28.9360  -15.9200   20.8770 H   0  0  0  0  0  0  0  0  0  0  0  0
  -25.2060  -13.8730   20.4610 C   0  0  0  0  0  0  0  0  0  0  0  0
  -24.1490  -13.0990   20.8540 C   0  0  0  0  0  0  0  0  0  0  0  0
  -24.6070  -11.7460   20.8110 C   0  0  0  0  0  0  0  0  0  0  0  0
  -26.2440  -12.9920   20.2040 N   0  0  0  0  0  0  0  0  0  0  0  0
  -25.8910  -11.7080   20.4760 N   0  0  0  0  0  0  0  0  0  0  0  0
  -23.8850  -10.4840   21.0120 C   0  0  0  0  0  0  0  0  0  0  0  0
  -24.3370   -9.5140   21.9330 C   0  0  0  0  0  3  0  0  0  0  0  0
  -23.6140   -8.3150   22.1210 C   0  0  0  0  0  3  0  0  0  0  0  0
  -22.4250   -8.0810   21.3890 C   0  0  0  0  0  0  0  0  0  0  0  0
  -21.9960   -9.0390   20.4550 C   0  0  0  0  0  3  0  0  0  0  0  0
  -22.7190  -10.2280   20.2650 C   0  0  0  0  0  3  0  0  0  0  0  0
  -21.6740   -6.9340   21.4860 O   0  0  0  0  0  0  0  0  0  0  0  0
  -21.6480   -6.1860   22.6350 C   0  0  0  0  0  0  0  0  0  0  0  0
  -21.2430   -6.7350   23.8720 C   0  0  0  0  0  3  0  0  0  0  0  0
  -21.1660   -5.9130   25.0150 C   0  0  0  0  0  3  0  0  0  0  0  0
  -21.4770   -4.5440   24.9210 C   0  0  0  0  0  0  0  0  0  0  0  0
  -21.8730   -3.9950   23.6890 C   0  0  0  0  0  3  0  0  0  0  0  0
  -21.9530   -4.8120   22.5490 C   0  0  0  0  0  0  0  0  0  0  0  0
  -22.3160   -4.2730   21.3590 F   0  0  0  0  0  0  0  0  0  0  0  0
  -21.3920   -3.7530   26.0170 F   0  0  0  0  0  0  0  0  0  0  0  0
  -22.7570  -13.5770   21.1510 C   0  0  0  0  0  0  0  0  0  0  0  0
  -22.0430  -12.8790   22.0290 N   0  0  0  0  0  0  0  0  0  0  0  0
  -22.3100  -14.6010   20.6350 O   0  0  0  0  0  0  0  0  0  0  0  0
  -22.4160  -12.0450   22.4600 H   0  0  0  0  0  0  0  0  0  0  0  0
  -21.1100  -13.1770   22.2700 H   0  0  0  0  0  0  0  0  0  0  0  0
  -25.3660  -15.2450   20.2740 N   0  0  0  0  0  0  0  0  0  0  0  0
  -24.5930  -15.8930   20.3950 H   0  0  0  0  0  0  0  0  0  0  0  0
  -26.1720  -15.6740   19.8420 H   0  0  0  0  0  0  0  0  0  0  0  0
  -27.1260  -25.1780   21.9510 C   0  0  0  0  0  1  0  0  0  0  0  0
  -28.3580  -25.3340   21.0250 C   0  0  0  0  0  3  0  0  0  0  0  0
  -28.3710  -26.5530   20.1800 O   0  0  0  0  0  0  0  0  0  0  0  0
  -24.6020  -31.8760   23.2330 C   0  0  0  0  0  0  0  0  0  0  0  0
  -27.2460  -27.3790   20.1620 C   0  0  0  0  0  0  0  0  0  0  0  0
  -23.4040  -30.4760   21.5860 C   0  0  0  0  0  3  0  0  0  0  0  0
  -24.8640  -28.9400   20.1530 C   0  0  0  0  0  0  0  0  0  0  0  0
  -25.9340  -30.8220   21.3970 C   0  0  0  0  0  2  0  0  0  0  0  0
  -26.0260  -29.4480   20.7480 C   0  0  0  0  0  0  0  0  0  0  0  0
  -27.2230  -28.6790   20.7430 C   0  0  0  0  0  3  0  0  0  0  0  0
  -26.0740  -26.9140   19.5350 C   0  0  0  0  0  3  0  0  0  0  0  0
  -24.8900  -27.6760   19.5380 C   0  0  0  0  0  3  0  0  0  0  0  0
  -23.6190  -29.8010   20.2040 C   0  0  0  0  0  2  0  0  0  0  0  0
  -24.6670  -31.0750   22.1300 N   0  0  0  0  0  0  0  0  0  0  0  0
  -23.5180  -32.1430   23.7700 O   0  0  0  0  0  0  0  0  0  0  0  0
  -22.7510  -29.4530   22.5440 C   0  0  0  0  0  0  0  0  0  0  0  0
  -21.4230  -29.2770   22.4220 N   0  0  0  0  0  0  0  0  0  0  0  0
  -23.4310  -28.8180   23.3520 O   0  0  0  0  0  0  0  0  0  0  0  0
  -20.9330  -29.8440   21.7420 H   0  0  0  0  0  0  0  0  0  0  0  0
  -18.0410  -28.0970   22.9320 C   0  0  0  0  0  0  0  0  0  0  0  0
  -20.6020  -28.3360   23.1910 C   0  0  0  0  0  3  0  0  0  0  0  0
  -20.6910  -26.9110   22.5960 C   0  0  0  0  0  2  0  0  0  0  0  0
  -19.5810  -26.6040   21.5870 C   0  0  0  0  0  2  0  0  0  0  0  0
  -18.2060  -26.7520   22.2420 C   0  0  0  0  0  2  0  0  0  0  0  0
  -19.1660  -28.8480   23.3610 C   0  0  0  0  0  0  0  0  0  0  0  0
  -18.9580  -30.1070   23.9670 C   0  0  0  0  0  3  0  0  0  0  0  0
  -17.6580  -30.6140   24.1460 C   0  0  0  0  0  3  0  0  0  0  0  0
  -16.5470  -29.8610   23.7330 C   0  0  0  0  0  3  0  0  0  0  0  0
  -16.7390  -28.6040   23.1330 C   0  0  0  0  0  3  0  0  0  0  0  0
  -25.8830  -32.5100   23.8600 C   0  0  0  0  0  3  0  0  0  0  0  0
  -26.3950  -31.7390   25.1370 C   0  0  1  0  0  0  0  0  0  0  0  0
  -25.3010  -31.5000   26.2030 C   0  0  0  0  0  1  0  0  0  0  0  0
  -26.9790  -30.3620   24.7440 C   0  0  0  0  0  1  0  0  0  0  0  0
  -27.5440  -32.5360   25.8020 C   0  0  0  0  0  1  0  0  0  0  0  0
  -25.5710  -33.9080   24.1890 N   0  0  0  0  0  0  0  0  0  0  0  0
  -25.9030  -34.9600   23.4280 C   0  0  0  0  0  0  0  0  0  0  0  0
  -26.5730  -34.8560   22.3970 O   0  0  0  0  0  0  0  0  0  0  0  0
  -24.9830  -34.0610   24.9940 H   0  0  0  0  0  0  0  0  0  0  0  0
  -24.1730  -36.7490   23.0650 C   0  0  0  0  0  1  0  0  0  0  0  0
  -25.4120  -36.3500   23.8810 C   0  0  0  0  0  3  0  0  0  0  0  0
  -27.5470  -37.2340   24.7120 C   0  0  0  0  0  1  0  0  0  0  0  0
  -26.4450  -37.4030   23.7690 N   0  0  0  0  0  0  0  0  0  0  0  0
  -26.0370  -38.3230   23.9190 H   0  0  0  0  0  0  0  0  0  0  0  0
  1  2  1  0
  1 52  1  0
  2  4  1  0
  3  1  2  0
  5  7  2  0
  6  5  1  0
  6  8  2  0
  7  9  1  0
  7  2  1  0
  8 12  1  0
  8  9  1  0
 10 12  2  0
 12 21  1  1
 12 11  2  0
 13 21  1  0
 14 19  1  0
 15 16  1  0
 15 14  1  0
 17 16  1  0
 17 26  1  0
 17 18  1  0
 19 13  1  0
 19 18  1  0
 20 13  2  0
 21 22  1  0
 23 24  2  0
 24 43  1  0
 25 24  1  0
 25 28  1  0
 26 23  1  0
 26 27  1  0
 27 25  2  0
 28 29  1  0
 29 30  2  0
 31 34  1  0
 31 30  1  0
 32 31  2  0
 33 32  1  0
 33 28  2  0
 34 35  1  0
 35 36  1  0
 36 37  2  0
 38 37  1  0
 38 42  1  0
 39 38  2  0
 40 35  2  0
 40 39  1  0
 41 40  1  0
 43 44  1  0
 44 47  1  0
 44 46  1  0
 45 43  2  0
 48 49  1  0
 48 23  1  0
 50 48  1  0
 52 51  1  0
 53 52  1  0
 54 65  2  0
 55 53  1  0
 55 60  1  0
 56 64  1  0
 56 66  1  0
 57 63  1  0
 57 59  1  0
 58 64  1  0
 59 58  1  0
 60 59  2  0
 61 62  1  0
 61 55  2  0
 62 57  2  0
 63 56  1  0
 64 54  1  0
 66 68  2  0
 67 66  1  0
 69 67  1  0
 70 79  2  0
 70 75  1  0
 71 67  1  0
 71 75  1  0
 72 71  1  0
 73 74  1  0
 73 72  1  0
 74 70  1  0
 75 76  2  0
 76 77  1  0
 78 77  2  0
 79 78  1  0
 80 54  1  0
 80 85  1  0
 80 81  1  0
 81 84  1  1
 81 82  1  0
 83 81  1  0
 85 88  1  0
 86 90  1  0
 86 85  1  0
 87 86  2  0
 90 89  1  0
 92 90  1  0
 92 93  1  0
 92 91  1  0
M  ISO  4  13 100  21 100  52 101  53 101
M  END
>  <TORSDO>  (45) 
F 19

>  <SCORE>  (45) 
-14.335

>  <name>  (45) 
44

>  <ligand_id>  (45) 
44

>  <original_smiles>  (45) 
[H]c1c(N([H])C(=O)C([H])(Oc2c([H])c([H])c3c(c2[H])C([H])([H])N(C(=O)C([H])(N([H])C(=O)C([H])(N([H])C([H])([H])[H])C([H])([H])[H])C(C([H])([H])[H])(C([H])([H])[H])C([H])([H])[H])C([H])(C(=O)N([H])C2([H])c4c([H])c([H])c([H])c([H])c4C([H])([H])C([H])([H])C2([H])[H])C3([H])[H])C([H])([H])[H])sc(S(=O)(=O)N([H])C(=O)N2C([H])([H])C([H])([H])C([H])([H])C([H])(n3nc(-c4c([H])c([H])c(Oc5c([H])c([H])c(F)c([H])c5F)c([H])c4[H])c(C(=O)N([H])[H])c3N([H])[H])C2([H])[H])c1[H]

>  <smiles>  (45) 
[H]c1c(N([H])C(=O)C([H])(Oc2c([H])c([H])c3c(c2[H])C([H])([H])N(C(=O)C([H])(N([H])C(=O)C([H])(N([H])C([H])([H])[H])C([H])([H])[H])C(C([H])([H])[H])(C([H])([H])[H])C([H])([H])[H])C([H])(C(=O)N([H])C2([H])c4c([H])c([H])c([H])c([H])c4C([H])([H])C([H])([H])C2([H])[H])C3([H])[H])C([H])([H])[H])sc(S(=O)(=O)N([H])C(=O)N2C([H])([H])C([H])([H])C([H])([H])C([H])(n3nc(-c4c([H])c([H])c(Oc5c([H])c([H])c(F)c([H])c5F)c([H])c4[H])c(C(=O)N([H])[H])c3N([H])[H])C2([H])[H])c1[H]

$$$$
45:0:0
     RDKit          3D

 95103  0  0  1  0  0  0  0  0999 V2000
  -29.4560  -22.3620   19.9810 C   0  0  0  0  0  3  0  0  0  0  0  0
  -31.8840  -21.9270   20.8350 C   0  0  0  0  0  1  0  0  0  0  0  0
  -31.3440  -21.6960   18.3830 C   0  0  0  0  0  1  0  0  0  0  0  0
  -31.5030  -23.9170   19.3890 C   0  0  0  0  0  1  0  0  0  0  0  0
  -31.0120  -22.4740   19.6720 C   0  0  1  0  0  0  0  0  0  0  0  0
  -28.8820  -23.7360   20.6690 C   0  0  0  0  0  0  0  0  0  0  0  0
  -28.9220  -23.8710   21.8980 O   0  0  0  0  0  0  0  0  0  0  0  0
  -28.2230  -24.9160   19.8060 C   0  0  0  0  0  2  0  0  0  0  0  0
  -28.3040  -26.3440   20.2900 O   0  0  0  0  0  0  0  0  0  0  0  0
  -24.5910  -31.8480   23.2160 C   0  0  0  0  0  0  0  0  0  0  0  0
  -27.1990  -27.2310   20.1800 C   0  0  0  0  0  0  0  0  0  0  0  0
  -23.3870  -30.4490   21.5740 C   0  0  0  0  0  3  0  0  0  0  0  0
  -24.8400  -28.8870   20.1550 C   0  0  0  0  0  0  0  0  0  0  0  0
  -25.9290  -30.7480   21.4020 C   0  0  0  0  0  2  0  0  0  0  0  0
  -26.0080  -29.3610   20.7580 C   0  0  0  0  0  0  0  0  0  0  0  0
  -27.1850  -28.5430   20.7690 C   0  0  0  0  0  3  0  0  0  0  0  0
  -26.0130  -26.8400   19.5170 C   0  0  0  0  0  3  0  0  0  0  0  0
  -24.8480  -27.6340   19.5250 C   0  0  0  0  0  3  0  0  0  0  0  0
  -23.6070  -29.7680   20.1950 C   0  0  0  0  0  2  0  0  0  0  0  0
  -24.6520  -31.0380   22.1200 N   0  0  0  0  0  0  0  0  0  0  0  0
  -23.5060  -32.1270   23.7490 O   0  0  0  0  0  0  0  0  0  0  0  0
  -22.7150  -29.4390   22.5370 C   0  0  0  0  0  0  0  0  0  0  0  0
  -21.3870  -29.2690   22.4100 N   0  0  0  0  0  0  0  0  0  0  0  0
  -23.3890  -28.8110   23.3570 O   0  0  0  0  0  0  0  0  0  0  0  0
  -20.9000  -29.8310   21.7280 H   0  0  0  0  0  0  0  0  0  0  0  0
  -18.0030  -28.0920   22.9200 C   0  0  0  0  0  0  0  0  0  0  0  0
  -20.5640  -28.3330   23.1790 C   0  0  0  0  0  3  0  0  0  0  0  0
  -20.6510  -26.9020   22.5990 C   0  0  0  0  0  2  0  0  0  0  0  0
  -19.5460  -26.5930   21.5850 C   0  0  0  0  0  2  0  0  0  0  0  0
  -18.1690  -26.7430   22.2370 C   0  0  0  0  0  2  0  0  0  0  0  0
  -19.1280  -28.8440   23.3500 C   0  0  0  0  0  0  0  0  0  0  0  0
  -18.9220  -30.1030   23.9550 C   0  0  0  0  0  3  0  0  0  0  0  0
  -17.6230  -30.6150   24.1250 C   0  0  0  0  0  3  0  0  0  0  0  0
  -16.5120  -29.8600   23.7160 C   0  0  0  0  0  3  0  0  0  0  0  0
  -16.7010  -28.5990   23.1230 C   0  0  0  0  0  3  0  0  0  0  0  0
  -25.8720  -32.4810   23.8390 C   0  0  0  0  0  3  0  0  0  0  0  0
  -25.5590  -33.8810   24.1690 N   0  0  0  0  0  0  0  0  0  0  0  0
  -25.8900  -34.9360   23.4140 C   0  0  0  0  0  0  0  0  0  0  0  0
  -26.5600  -34.8330   22.3830 O   0  0  0  0  0  0  0  0  0  0  0  0
  -24.9550  -34.0320   24.9650 H   0  0  0  0  0  0  0  0  0  0  0  0
  -24.1690  -36.7380   23.0630 C   0  0  0  0  0  1  0  0  0  0  0  0
  -25.4050  -36.3250   23.8770 C   0  0  0  0  0  3  0  0  0  0  0  0
  -27.5370  -37.2070   24.7210 C   0  0  0  0  0  1  0  0  0  0  0  0
  -26.4400  -37.3760   23.7680 N   0  0  0  0  0  0  0  0  0  0  0  0
  -26.0350  -38.2980   23.9060 H   0  0  0  0  0  0  0  0  0  0  0  0
  -26.3820  -31.7120   25.1180 C   0  0  1  0  0  0  0  0  0  0  0  0
  -25.2870  -31.4800   26.1850 C   0  0  0  0  0  1  0  0  0  0  0  0
  -26.9630  -30.3330   24.7320 C   0  0  0  0  0  1  0  0  0  0  0  0
  -27.5260  -32.5110   25.7840 C   0  0  0  0  0  1  0  0  0  0  0  0
  -29.1690  -21.0840   20.7530 N   0  0  0  0  0  0  0  0  0  0  0  0
  -29.2250  -21.2430   21.7530 H   0  0  0  0  0  0  0  0  0  0  0  0
  -29.0990  -17.6230   19.1410 C   0  0  0  0  0  3  0  0  0  0  0  0
  -28.8480  -19.0570   19.1670 C   0  0  0  0  0  0  0  0  0  0  0  0
  -29.6460  -17.0640   20.2800 C   0  0  0  0  0  0  0  0  0  0  0  0
  -29.2740  -19.6980   20.3190 C   0  0  0  0  0  0  0  0  0  0  0  0
  -28.1190  -19.7520   18.0520 C   0  0  0  0  0  1  0  0  0  0  0  0
  -29.9060  -18.4250   21.4070 S   0  0  0  0  0  0  0  0  0  0  0  0
  -30.5060  -14.6890   20.0720 C   0  0  0  0  0  0  0  0  0  0  0  0
  -30.2880  -12.4580   18.9830 C   0  0  0  0  0  2  0  0  0  0  0  0
  -29.2810  -12.5920   17.8190 C   0  0  0  0  0  2  0  0  0  0  0  0
  -27.8310  -12.4180   18.3190 C   0  0  0  0  0  2  0  0  0  0  0  0
  -27.5360  -13.2520   19.5970 C   0  0  0  0  0  3  0  0  0  0  0  0
  -28.6500  -13.0640   20.6490 C   0  0  0  0  0  2  0  0  0  0  0  0
  -29.9180  -13.4490   20.0160 N   0  0  0  0  0  0  0  0  0  0  0  0
  -31.6210  -14.8820   19.5760 O   0  0  0  0  0  0  0  0  0  0  0  0
  -29.7510  -15.7110   20.6110 N   0  0  0  0  0  0  0  0  0  0  0  0
  -28.9590  -15.3570   21.1310 H   0  0  0  0  0  0  0  0  0  0  0  0
  -25.1930  -13.8340   20.4740 C   0  0  0  0  0  0  0  0  0  0  0  0
  -24.1440  -13.0510   20.8740 C   0  0  0  0  0  0  0  0  0  0  0  0
  -24.5980  -11.7010   20.7740 C   0  0  0  0  0  0  0  0  0  0  0  0
  -26.2160  -12.9590   20.1450 N   0  0  0  0  0  0  0  0  0  0  0  0
  -25.8680  -11.6690   20.3850 N   0  0  0  0  0  0  0  0  0  0  0  0
  -23.8800  -10.4350   20.9690 C   0  0  0  0  0  0  0  0  0  0  0  0
  -24.3230   -9.4690   21.8980 C   0  0  0  0  0  3  0  0  0  0  0  0
  -23.6040   -8.2690   22.0820 C   0  0  0  0  0  3  0  0  0  0  0  0
  -22.4290   -8.0240   21.3330 C   0  0  0  0  0  0  0  0  0  0  0  0
  -22.0020   -8.9800   20.3940 C   0  0  0  0  0  3  0  0  0  0  0  0
  -22.7220  -10.1730   20.2100 C   0  0  0  0  0  3  0  0  0  0  0  0
  -21.6830   -6.8740   21.4220 O   0  0  0  0  0  0  0  0  0  0  0  0
  -21.5970   -6.1610   22.5890 C   0  0  0  0  0  0  0  0  0  0  0  0
  -21.1010   -6.7370   23.7790 C   0  0  0  0  0  3  0  0  0  0  0  0
  -20.9670   -5.9500   24.9400 C   0  0  0  0  0  3  0  0  0  0  0  0
  -21.3200   -4.5860   24.9110 C   0  0  0  0  0  0  0  0  0  0  0  0
  -21.8090   -4.0100   23.7240 C   0  0  0  0  0  3  0  0  0  0  0  0
  -21.9450   -4.7950   22.5670 C   0  0  0  0  0  0  0  0  0  0  0  0
  -22.3980   -4.2310   21.4210 F   0  0  0  0  0  0  0  0  0  0  0  0
  -21.1840   -3.8260   26.0220 F   0  0  0  0  0  0  0  0  0  0  0  0
  -22.7680  -13.5250   21.2400 C   0  0  0  0  0  0  0  0  0  0  0  0
  -22.0860  -12.8050   22.1240 N   0  0  0  0  0  0  0  0  0  0  0  0
  -22.3090  -14.5710   20.7820 O   0  0  0  0  0  0  0  0  0  0  0  0
  -22.4710  -11.9570   22.5140 H   0  0  0  0  0  0  0  0  0  0  0  0
  -21.1640  -13.1050   22.4100 H   0  0  0  0  0  0  0  0  0  0  0  0
  -25.3530  -15.2090   20.3390 N   0  0  0  0  0  0  0  0  0  0  0  0
  -24.6020  -15.8530   20.5600 H   0  0  0  0  0  0  0  0  0  0  0  0
  -26.1810  -15.6740   19.9900 H   0  0  0  0  0  0  0  0  0  0  0  0
  1  6  1  0
  1 50  1  0
  5  3  1  6
  4  5  1  0
  5  1  1  0
  5  2  1  0
  6  7  2  0
  8  9  1  0
  8  6  1  0
 10 21  2  0
 11  9  1  0
 11 16  1  0
 12 20  1  0
 12 22  1  0
 13 19  1  0
 13 15  1  0
 14 20  1  0
 15 16  2  0
 15 14  1  0
 17 18  1  0
 17 11  2  0
 18 13  2  0
 19 12  1  0
 20 10  1  0
 22 24  2  0
 23 22  1  0
 25 23  1  0
 26 35  2  0
 26 31  1  0
 27 23  1  0
 27 31  1  0
 28 27  1  0
 29 30  1  0
 29 28  1  0
 30 26  1  0
 31 32  2  0
 32 33  1  0
 34 33  2  0
 35 34  1  0
 36 10  1  0
 36 37  1  0
 36 46  1  0
 37 40  1  0
 38 42  1  0
 38 37  1  0
 39 38  2  0
 42 41  1  0
 44 42  1  0
 44 45  1  0
 44 43  1  0
 46 49  1  1
 46 47  1  0
 48 46  1  0
 50 51  1  0
 52 53  1  0
 52 54  2  0
 53 55  2  0
 54 66  1  0
 54 57  1  0
 55 50  1  0
 55 57  1  0
 56 53  1  0
 58 66  1  0
 59 64  1  0
 60 61  1  0
 60 59  1  0
 62 61  1  0
 62 71  1  0
 62 63  1  0
 64 58  1  0
 64 63  1  0
 65 58  2  0
 66 67  1  0
 68 69  2  0
 69 88  1  0
 70 69  1  0
 70 73  1  0
 71 72  1  0
 71 68  1  0
 72 70  2  0
 73 74  1  0
 74 75  2  0
 76 79  1  0
 76 75  1  0
 77 76  2  0
 78 77  1  0
 78 73  2  0
 79 80  1  0
 80 81  1  0
 81 82  2  0
 83 82  1  0
 83 87  1  0
 84 83  2  0
 85 80  2  0
 85 84  1  0
 86 85  1  0
 88 89  1  0
 89 92  1  0
 89 91  1  0
 90 88  2  0
 93 68  1  0
 93 94  1  0
 95 93  1  0
M  ISO  4   8 101   9 101  58 100  66 100
M  END
>  <TORSDO>  (46) 
F 21

>  <SCORE>  (46) 
-13.451

>  <name>  (46) 
45

>  <ligand_id>  (46) 
45

>  <original_smiles>  (46) 
[H]c1c([H])c([H])c2c(c1[H])C([H])([H])C([H])([H])C([H])([H])C2([H])N([H])C(=O)C1([H])N(C(=O)C([H])(N([H])C(=O)C([H])(N([H])C([H])([H])[H])C([H])([H])[H])C(C([H])([H])[H])(C([H])([H])[H])C([H])([H])[H])C([H])([H])c2c([H])c(OC([H])([H])C(=O)C([H])(N([H])c3sc(N([H])C(=O)N4C([H])([H])C([H])([H])C([H])([H])C([H])(n5nc(-c6c([H])c([H])c(Oc7c([H])c([H])c(F)c([H])c7F)c([H])c6[H])c(C(=O)N([H])[H])c5N([H])[H])C4([H])[H])c([H])c3C([H])([H])[H])C(C([H])([H])[H])(C([H])([H])[H])C([H])([H])[H])c([H])c([H])c2C1([H])[H]

>  <smiles>  (46) 
[H]c1c([H])c([H])c2c(c1[H])C([H])([H])C([H])([H])C([H])([H])C2([H])N([H])C(=O)C1([H])N(C(=O)C([H])(N([H])C(=O)C([H])(N([H])C([H])([H])[H])C([H])([H])[H])C(C([H])([H])[H])(C([H])([H])[H])C([H])([H])[H])C([H])([H])c2c([H])c(OC([H])([H])C(=O)C([H])(N([H])c3sc(N([H])C(=O)N4C([H])([H])C([H])([H])C([H])([H])C([H])(n5nc(-c6c([H])c([H])c(Oc7c([H])c([H])c(F)c([H])c7F)c([H])c6[H])c(C(=O)N([H])[H])c5N([H])[H])C4([H])[H])c([H])c3C([H])([H])[H])C(C([H])([H])[H])(C([H])([H])[H])C([H])([H])[H])c([H])c([H])c2C1([H])[H]

$$$$
46:0:0
     RDKit          3D

 88 96  0  0  1  0  0  0  0  0999 V2000
  -28.9000  -23.2540   20.3420 C   0  0  0  0  0  0  0  0  0  0  0  0
  -30.0390  -23.5080   20.7480 O   0  0  0  0  0  0  0  0  0  0  0  0
  -28.4840  -21.6300   20.1330 C   0  0  0  0  0  2  0  0  0  0  0  0
  -30.8530  -18.6440   20.0880 C   0  0  0  0  0  3  0  0  0  0  0  0
  -28.7400  -18.8340   20.4680 C   0  0  0  0  0  3  0  0  0  0  0  0
  -29.7220  -17.8040   20.3630 C   0  0  0  0  0  0  0  0  0  0  0  0
  -30.5680  -19.9830   20.0220 N   0  0  0  0  0  0  0  0  0  0  0  0
  -29.2350  -20.1970   20.2750 N   0  0  0  0  0  0  0  0  0  0  0  0
  -30.4450  -15.0910   20.2990 C   0  0  0  0  0  0  0  0  0  0  0  0
  -30.3800  -12.7110   19.3740 C   0  0  0  0  0  2  0  0  0  0  0  0
  -29.4390  -12.6300   18.1460 C   0  0  0  0  0  2  0  0  0  0  0  0
  -27.9810  -12.4000   18.5860 C   0  0  0  0  0  2  0  0  0  0  0  0
  -27.5680  -13.3260   19.7580 C   0  0  0  0  0  3  0  0  0  0  0  0
  -28.6280  -13.3590   20.8800 C   0  0  0  0  0  2  0  0  0  0  0  0
  -29.8870  -13.8060   20.2650 N   0  0  0  0  0  0  0  0  0  0  0  0
  -31.6430  -15.1770   20.0050 O   0  0  0  0  0  0  0  0  0  0  0  0
  -29.6120  -16.2500   20.4790 N   0  0  0  0  0  0  0  0  0  0  0  0
  -28.6740  -15.9520   20.7040 H   0  0  0  0  0  0  0  0  0  0  0  0
  -25.1920  -13.8930   20.5170 C   0  0  0  0  0  0  0  0  0  0  0  0
  -24.1310  -13.1140   20.8890 C   0  0  0  0  0  0  0  0  0  0  0  0
  -24.5980  -11.7640   20.8450 C   0  0  0  0  0  0  0  0  0  0  0  0
  -26.2340  -13.0180   20.2640 N   0  0  0  0  0  0  0  0  0  0  0  0
  -25.8870  -11.7320   20.5280 N   0  0  0  0  0  0  0  0  0  0  0  0
  -23.8730  -10.4990   21.0310 C   0  0  0  0  0  0  0  0  0  0  0  0
  -24.2960   -9.5360   21.9730 C   0  0  0  0  0  3  0  0  0  0  0  0
  -23.5690   -8.3370   22.1450 C   0  0  0  0  0  3  0  0  0  0  0  0
  -22.4060   -8.0950   21.3770 C   0  0  0  0  0  0  0  0  0  0  0  0
  -22.0030   -9.0480   20.4240 C   0  0  0  0  0  3  0  0  0  0  0  0
  -22.7300  -10.2360   20.2490 C   0  0  0  0  0  3  0  0  0  0  0  0
  -21.6520   -6.9490   21.4580 O   0  0  0  0  0  0  0  0  0  0  0  0
  -21.5760   -6.2200   22.6180 C   0  0  0  0  0  0  0  0  0  0  0  0
  -21.1010   -6.7820   23.8220 C   0  0  0  0  0  3  0  0  0  0  0  0
  -20.9730   -5.9780   24.9720 C   0  0  0  0  0  3  0  0  0  0  0  0
  -21.3090   -4.6130   24.9200 C   0  0  0  0  0  0  0  0  0  0  0  0
  -21.7780   -4.0490   23.7200 C   0  0  0  0  0  3  0  0  0  0  0  0
  -21.9070   -4.8510   22.5710 C   0  0  0  0  0  0  0  0  0  0  0  0
  -22.3380   -4.2970   21.4120 F   0  0  0  0  0  0  0  0  0  0  0  0
  -21.1800   -3.8380   26.0220 F   0  0  0  0  0  0  0  0  0  0  0  0
  -22.7350  -13.5880   21.1670 C   0  0  0  0  0  0  0  0  0  0  0  0
  -22.0120  -12.8890   22.0350 N   0  0  0  0  0  0  0  0  0  0  0  0
  -22.2930  -14.6130   20.6490 O   0  0  0  0  0  0  0  0  0  0  0  0
  -22.3820  -12.0610   22.4750 H   0  0  0  0  0  0  0  0  0  0  0  0
  -21.0750  -13.1900   22.2650 H   0  0  0  0  0  0  0  0  0  0  0  0
  -25.3500  -15.2660   20.3440 N   0  0  0  0  0  0  0  0  0  0  0  0
  -24.5720  -15.9080   20.4500 H   0  0  0  0  0  0  0  0  0  0  0  0
  -26.1710  -15.7030   19.9490 H   0  0  0  0  0  0  0  0  0  0  0  0
  -27.8760  -24.5640   20.0470 C   0  0  0  0  0  2  0  0  0  0  0  0
  -28.2090  -26.0990   20.2790 O   0  0  0  0  0  0  0  0  0  0  0  0
  -24.6290  -31.8960   23.2470 C   0  0  0  0  0  0  0  0  0  0  0  0
  -27.1800  -27.1320   20.2080 C   0  0  0  0  0  0  0  0  0  0  0  0
  -23.4240  -30.5090   21.6050 C   0  0  0  0  0  3  0  0  0  0  0  0
  -24.8670  -28.9260   20.1750 C   0  0  0  0  0  0  0  0  0  0  0  0
  -25.9840  -30.7490   21.4460 C   0  0  0  0  0  2  0  0  0  0  0  0
  -26.0520  -29.3540   20.7890 C   0  0  0  0  0  0  0  0  0  0  0  0
  -27.2080  -28.4740   20.7850 C   0  0  0  0  0  3  0  0  0  0  0  0
  -25.9680  -26.8230   19.5510 C   0  0  0  0  0  3  0  0  0  0  0  0
  -24.8420  -27.6760   19.5400 C   0  0  0  0  0  3  0  0  0  0  0  0
  -23.6450  -29.8340   20.2260 C   0  0  0  0  0  2  0  0  0  0  0  0
  -24.7000  -31.0740   22.1530 N   0  0  0  0  0  0  0  0  0  0  0  0
  -23.5430  -32.1850   23.7740 O   0  0  0  0  0  0  0  0  0  0  0  0
  -22.7370  -29.5050   22.5650 C   0  0  0  0  0  0  0  0  0  0  0  0
  -21.4080  -29.3410   22.4370 N   0  0  0  0  0  0  0  0  0  0  0  0
  -23.4030  -28.8770   23.3920 O   0  0  0  0  0  0  0  0  0  0  0  0
  -20.9260  -29.8980   21.7460 H   0  0  0  0  0  0  0  0  0  0  0  0
  -18.0220  -28.1460   22.9340 C   0  0  0  0  0  0  0  0  0  0  0  0
  -20.5820  -28.4050   23.2070 C   0  0  0  0  0  3  0  0  0  0  0  0
  -20.6820  -26.9730   22.6330 C   0  0  0  0  0  2  0  0  0  0  0  0
  -19.5830  -26.6510   21.6160 C   0  0  0  0  0  2  0  0  0  0  0  0
  -18.1990  -26.7970   22.2570 C   0  0  0  0  0  2  0  0  0  0  0  0
  -19.1410  -28.9080   23.3660 C   0  0  0  0  0  0  0  0  0  0  0  0
  -18.9190  -30.1690   23.9610 C   0  0  0  0  0  3  0  0  0  0  0  0
  -17.6140  -30.6680   24.1280 C   0  0  0  0  0  3  0  0  0  0  0  0
  -16.5110  -29.9040   23.7100 C   0  0  0  0  0  3  0  0  0  0  0  0
  -16.7150  -28.6440   23.1200 C   0  0  0  0  0  3  0  0  0  0  0  0
  -25.9070  -32.5270   23.8770 C   0  0  0  0  0  3  0  0  0  0  0  0
  -26.4120  -31.7550   25.1580 C   0  0  1  0  0  0  0  0  0  0  0  0
  -25.3120  -31.5250   26.2210 C   0  0  0  0  0  1  0  0  0  0  0  0
  -26.9900  -30.3730   24.7770 C   0  0  0  0  0  1  0  0  0  0  0  0
  -27.5630  -32.5440   25.8250 C   0  0  0  0  0  1  0  0  0  0  0  0
  -25.5980  -33.9260   24.2130 N   0  0  0  0  0  0  0  0  0  0  0  0
  -25.9120  -34.9840   23.4540 C   0  0  0  0  0  0  0  0  0  0  0  0
  -26.5570  -34.8840   22.4060 O   0  0  0  0  0  0  0  0  0  0  0  0
  -25.0230  -34.0770   25.0290 H   0  0  0  0  0  0  0  0  0  0  0  0
  -24.1620  -36.7720   23.1680 C   0  0  0  0  0  1  0  0  0  0  0  0
  -25.4380  -36.3720   23.9280 C   0  0  0  0  0  3  0  0  0  0  0  0
  -27.5970  -37.2750   24.6720 C   0  0  0  0  0  1  0  0  0  0  0  0
  -26.4600  -37.4300   23.7710 N   0  0  0  0  0  0  0  0  0  0  0  0
  -26.0540  -38.3500   23.9270 H   0  0  0  0  0  0  0  0  0  0  0  0
  1  2  2  0
  3  8  1  0
  3  1  1  0
  4  6  1  0
  6  5  2  0
  6 17  1  0
  7  4  2  0
  7  8  1  0
  8  5  1  0
  9 17  1  0
 10 15  1  0
 11 12  1  0
 11 10  1  0
 13 12  1  0
 13 22  1  0
 13 14  1  0
 15  9  1  0
 15 14  1  0
 16  9  2  0
 17 18  1  0
 19 20  2  0
 20 39  1  0
 21 20  1  0
 21 24  1  0
 22 19  1  0
 22 23  1  0
 23 21  2  0
 24 25  1  0
 25 26  2  0
 27 30  1  0
 27 26  1  0
 28 27  2  0
 29 28  1  0
 29 24  2  0
 30 31  1  0
 31 32  1  0
 32 33  2  0
 34 33  1  0
 34 38  1  0
 35 34  2  0
 36 31  2  0
 36 35  1  0
 37 36  1  0
 39 40  1  0
 40 43  1  0
 40 42  1  0
 41 39  2  0
 44 45  1  0
 44 19  1  0
 46 44  1  0
 47 48  1  0
 47  1  1  0
 49 60  2  0
 50 48  1  0
 50 55  1  0
 51 59  1  0
 51 61  1  0
 52 58  1  0
 52 54  1  0
 53 59  1  0
 54 53  1  0
 55 54  2  0
 56 50  2  0
 57 56  1  0
 57 52  2  0
 58 51  1  0
 59 49  1  0
 61 63  2  0
 62 61  1  0
 64 62  1  0
 65 74  2  0
 65 70  1  0
 66 62  1  0
 66 70  1  0
 67 66  1  0
 68 69  1  0
 68 67  1  0
 69 65  1  0
 70 71  2  0
 71 72  1  0
 73 72  2  0
 74 73  1  0
 75 49  1  0
 75 80  1  0
 75 76  1  0
 76 79  1  1
 76 77  1  0
 78 76  1  0
 80 83  1  0
 81 85  1  0
 81 80  1  0
 82 81  2  0
 85 84  1  0
 87 88  1  0
 87 85  1  0
 87 86  1  0
M  ISO  4   9 100  17 100  47 101  48 101
M  END
>  <TORSDO>  (47) 
F 19

>  <SCORE>  (47) 
-14.152

>  <name>  (47) 
46

>  <ligand_id>  (47) 
46

>  <original_smiles>  (47) 
[H]c1nn(C([H])([H])C(=O)C([H])([H])Oc2c([H])c([H])c3c(c2[H])C([H])([H])N(C(=O)C([H])(N([H])C(=O)C([H])(N([H])C([H])([H])[H])C([H])([H])[H])C(C([H])([H])[H])(C([H])([H])[H])C([H])([H])[H])C([H])(C(=O)N([H])C2([H])c4c([H])c([H])c([H])c([H])c4C([H])([H])C([H])([H])C2([H])[H])C3([H])[H])c([H])c1N([H])C(=O)N1C([H])([H])C([H])([H])C([H])([H])C([H])(n2nc(-c3c([H])c([H])c(Oc4c([H])c([H])c(F)c([H])c4F)c([H])c3[H])c(C(=O)N([H])[H])c2N([H])[H])C1([H])[H]

>  <smiles>  (47) 
[H]c1nn(C([H])([H])C(=O)C([H])([H])Oc2c([H])c([H])c3c(c2[H])C([H])([H])N(C(=O)C([H])(N([H])C(=O)C([H])(N([H])C([H])([H])[H])C([H])([H])[H])C(C([H])([H])[H])(C([H])([H])[H])C([H])([H])[H])C([H])(C(=O)N([H])C2([H])c4c([H])c([H])c([H])c([H])c4C([H])([H])C([H])([H])C2([H])[H])C3([H])[H])c([H])c1N([H])C(=O)N1C([H])([H])C([H])([H])C([H])([H])C([H])(n2nc(-c3c([H])c([H])c(Oc4c([H])c([H])c(F)c([H])c4F)c([H])c3[H])c(C(=O)N([H])[H])c2N([H])[H])C1([H])[H]

$$$$
47:0:0
     RDKit          3D

 95103  0  0  1  0  0  0  0  0999 V2000
  -29.6620  -18.6620   20.1280 C   0  0  0  0  0  0  0  0  0  0  0  0
  -29.4720  -18.8530   18.7630 C   0  0  0  0  0  0  0  0  0  0  0  0
  -29.1250  -21.0350   20.0160 C   0  0  0  0  0  0  0  0  0  0  0  0
  -29.0680  -23.6630   20.1640 C   0  0  0  0  0  0  0  0  0  0  0  0
  -29.4230  -19.9400   20.8070 N   0  0  0  0  0  0  0  0  0  0  0  0
  -28.6030  -22.3730   20.4220 N   0  0  0  0  0  0  0  0  0  0  0  0
  -30.2770  -23.9090   20.2280 O   0  0  0  0  0  0  0  0  0  0  0  0
  -29.0770  -20.5240   18.3330 S   0  0  0  0  0  0  0  0  0  0  0  0
  -27.6020  -22.3630   20.5490 H   0  0  0  0  0  0  0  0  0  0  0  0
  -30.5980  -14.8530   20.4390 C   0  0  0  0  0  0  0  0  0  0  0  0
  -30.4100  -12.5570   19.4290 C   0  0  0  0  0  2  0  0  0  0  0  0
  -29.4950  -12.5700   18.1880 C   0  0  0  0  0  2  0  0  0  0  0  0
  -28.0180  -12.3940   18.5940 C   0  0  0  0  0  2  0  0  0  0  0  0
  -27.6100  -13.3040   19.7840 C   0  0  0  0  0  3  0  0  0  0  0  0
  -28.6530  -13.2740   20.9190 C   0  0  0  0  0  2  0  0  0  0  0  0
  -29.9410  -13.6430   20.3210 N   0  0  0  0  0  0  0  0  0  0  0  0
  -31.8190  -14.8700   20.2660 O   0  0  0  0  0  0  0  0  0  0  0  0
  -30.2790  -17.3380   20.7680 C   0  0  0  0  0  0  0  0  0  0  0  0
  -29.8610  -16.0440   20.4390 N   0  0  0  0  0  0  0  0  0  0  0  0
  -31.1730  -17.4890   21.6100 O   0  0  0  0  0  0  0  0  0  0  0  0
  -28.9260  -15.9800   20.0780 H   0  0  0  0  0  0  0  0  0  0  0  0
  -25.2100  -13.8900   20.4620 C   0  0  0  0  0  0  0  0  0  0  0  0
  -24.1400  -13.1160   20.8210 C   0  0  0  0  0  0  0  0  0  0  0  0
  -24.6100  -11.7660   20.8200 C   0  0  0  0  0  0  0  0  0  0  0  0
  -26.2620  -13.0120   20.2600 N   0  0  0  0  0  0  0  0  0  0  0  0
  -25.9080  -11.7310   20.5410 N   0  0  0  0  0  0  0  0  0  0  0  0
  -23.8840  -10.5030   21.0090 C   0  0  0  0  0  0  0  0  0  0  0  0
  -24.3000   -9.5480   21.9640 C   0  0  0  0  0  3  0  0  0  0  0  0
  -23.5730   -8.3520   22.1420 C   0  0  0  0  0  3  0  0  0  0  0  0
  -22.4160   -8.1010   21.3650 C   0  0  0  0  0  0  0  0  0  0  0  0
  -22.0220   -9.0450   20.4000 C   0  0  0  0  0  3  0  0  0  0  0  0
  -22.7490  -10.2330   20.2200 C   0  0  0  0  0  3  0  0  0  0  0  0
  -21.6630   -6.9550   21.4520 O   0  0  0  0  0  0  0  0  0  0  0  0
  -21.5890   -6.2280   22.6130 C   0  0  0  0  0  0  0  0  0  0  0  0
  -21.1280   -6.7980   23.8200 C   0  0  0  0  0  3  0  0  0  0  0  0
  -21.0020   -5.9960   24.9730 C   0  0  0  0  0  3  0  0  0  0  0  0
  -21.3270   -4.6270   24.9190 C   0  0  0  0  0  0  0  0  0  0  0  0
  -21.7810   -4.0590   23.7160 C   0  0  0  0  0  3  0  0  0  0  0  0
  -21.9090   -4.8560   22.5660 C   0  0  0  0  0  0  0  0  0  0  0  0
  -22.3260   -4.2980   21.4040 F   0  0  0  0  0  0  0  0  0  0  0  0
  -21.1990   -3.8560   26.0230 F   0  0  0  0  0  0  0  0  0  0  0  0
  -22.7350  -13.5900   21.0520 C   0  0  0  0  0  0  0  0  0  0  0  0
  -21.9880  -12.9030   21.9080 N   0  0  0  0  0  0  0  0  0  0  0  0
  -22.3080  -14.6070   20.5060 O   0  0  0  0  0  0  0  0  0  0  0  0
  -22.3470  -12.0790   22.3700 H   0  0  0  0  0  0  0  0  0  0  0  0
  -21.0440  -13.2020   22.1020 H   0  0  0  0  0  0  0  0  0  0  0  0
  -25.3710  -15.2580   20.2650 N   0  0  0  0  0  0  0  0  0  0  0  0
  -24.6020  -15.9130   20.3520 H   0  0  0  0  0  0  0  0  0  0  0  0
  -26.2160  -15.6910   19.9160 H   0  0  0  0  0  0  0  0  0  0  0  0
  -29.6030  -17.9570   17.6990 N   0  0  0  0  0  0  0  0  0  0  0  0
  -29.9750  -17.0150   17.7690 H   0  0  0  0  0  0  0  0  0  0  0  0
  -29.5230  -18.2560   16.7300 H   0  0  0  0  0  0  0  0  0  0  0  0
  -28.1610  -24.9210   18.2000 C   0  0  0  0  0  1  0  0  0  0  0  0
  -28.0650  -24.8710   19.7440 C   0  0  0  0  0  3  0  0  0  0  0  0
  -28.2780  -26.3080   20.2250 O   0  0  0  0  0  0  0  0  0  0  0  0
  -24.6200  -31.9070   23.2370 C   0  0  0  0  0  0  0  0  0  0  0  0
  -27.1960  -27.2480   20.1820 C   0  0  0  0  0  0  0  0  0  0  0  0
  -23.4160  -30.5170   21.5990 C   0  0  0  0  0  3  0  0  0  0  0  0
  -24.8570  -28.9570   20.1750 C   0  0  0  0  0  0  0  0  0  0  0  0
  -25.9680  -30.7940   21.4280 C   0  0  0  0  0  2  0  0  0  0  0  0
  -26.0390  -29.4100   20.7740 C   0  0  0  0  0  0  0  0  0  0  0  0
  -27.2100  -28.5710   20.7630 C   0  0  0  0  0  3  0  0  0  0  0  0
  -25.9690  -26.8790   19.5760 C   0  0  0  0  0  3  0  0  0  0  0  0
  -24.8310  -27.6990   19.5650 C   0  0  0  0  0  3  0  0  0  0  0  0
  -23.6300  -29.8450   20.2200 C   0  0  0  0  0  2  0  0  0  0  0  0
  -24.6890  -31.0900   22.1440 N   0  0  0  0  0  0  0  0  0  0  0  0
  -23.5340  -32.1930   23.7640 O   0  0  0  0  0  0  0  0  0  0  0  0
  -22.7400  -29.5050   22.5570 C   0  0  0  0  0  0  0  0  0  0  0  0
  -21.4130  -29.3340   22.4260 N   0  0  0  0  0  0  0  0  0  0  0  0
  -23.4100  -28.8760   23.3810 O   0  0  0  0  0  0  0  0  0  0  0  0
  -20.9290  -29.8900   21.7350 H   0  0  0  0  0  0  0  0  0  0  0  0
  -18.0260  -28.1590   22.9340 C   0  0  0  0  0  0  0  0  0  0  0  0
  -20.5870  -28.4010   23.1960 C   0  0  0  0  0  3  0  0  0  0  0  0
  -20.6770  -26.9700   22.6160 C   0  0  0  0  0  2  0  0  0  0  0  0
  -19.5690  -26.6580   21.6050 C   0  0  0  0  0  2  0  0  0  0  0  0
  -18.1910  -26.8110   22.2540 C   0  0  0  0  0  2  0  0  0  0  0  0
  -19.1500  -28.9130   23.3630 C   0  0  0  0  0  0  0  0  0  0  0  0
  -18.9410  -30.1740   23.9600 C   0  0  0  0  0  3  0  0  0  0  0  0
  -17.6400  -30.6830   24.1340 C   0  0  0  0  0  3  0  0  0  0  0  0
  -16.5300  -29.9250   23.7220 C   0  0  0  0  0  3  0  0  0  0  0  0
  -16.7230  -28.6660   23.1270 C   0  0  0  0  0  3  0  0  0  0  0  0
  -25.8990  -32.5400   23.8630 C   0  0  0  0  0  3  0  0  0  0  0  0
  -25.5880  -33.9390   24.1960 N   0  0  0  0  0  0  0  0  0  0  0  0
  -25.9180  -34.9950   23.4410 C   0  0  0  0  0  0  0  0  0  0  0  0
  -26.5830  -34.8950   22.4060 O   0  0  0  0  0  0  0  0  0  0  0  0
  -24.9970  -34.0910   25.0000 H   0  0  0  0  0  0  0  0  0  0  0  0
  -24.1910  -36.7940   23.0980 C   0  0  0  0  0  1  0  0  0  0  0  0
  -25.4340  -36.3820   23.9050 C   0  0  0  0  0  3  0  0  0  0  0  0
  -27.5690  -37.2630   24.7380 C   0  0  0  0  0  1  0  0  0  0  0  0
  -26.4670  -37.4340   23.7950 N   0  0  0  0  0  0  0  0  0  0  0  0
  -26.0630  -38.3550   23.9440 H   0  0  0  0  0  0  0  0  0  0  0  0
  -26.4070  -31.7690   25.1430 C   0  0  1  0  0  0  0  0  0  0  0  0
  -25.3090  -31.5340   26.2070 C   0  0  0  0  0  1  0  0  0  0  0  0
  -26.9900  -30.3900   24.7590 C   0  0  0  0  0  1  0  0  0  0  0  0
  -27.5560  -32.5620   25.8100 C   0  0  0  0  0  1  0  0  0  0  0  0
  1 18  1  0
  1  5  1  0
  2  1  2  0
  3  6  1  0
  3  5  2  0
  4  7  2  0
  4  6  1  0
  6  9  1  0
  8  2  1  0
  8  3  1  0
 10 19  1  0
 11 16  1  0
 12 13  1  0
 12 11  1  0
 14 13  1  0
 14 25  1  0
 14 15  1  0
 16 10  1  0
 16 15  1  0
 17 10  2  0
 18 20  2  0
 19 18  1  0
 21 19  1  0
 22 23  2  0
 23 42  1  0
 24 23  1  0
 24 27  1  0
 25 22  1  0
 25 26  1  0
 26 24  2  0
 27 28  1  0
 28 29  2  0
 30 33  1  0
 30 29  1  0
 31 30  2  0
 32 31  1  0
 32 27  2  0
 33 34  1  0
 34 35  1  0
 35 36  2  0
 37 36  1  0
 37 41  1  0
 38 37  2  0
 39 34  2  0
 39 38  1  0
 40 39  1  0
 42 43  1  0
 43 46  1  0
 43 45  1  0
 44 42  2  0
 47 48  1  0
 47 22  1  0
 49 47  1  0
 50 51  1  0
 50  2  1  0
 52 50  1  0
 54 53  1  0
 54  4  1  0
 54 55  1  0
 56 67  2  0
 57 55  1  0
 57 62  1  0
 58 66  1  0
 58 68  1  0
 59 65  1  0
 59 61  1  0
 60 66  1  0
 61 60  1  0
 62 61  2  0
 63 57  2  0
 64 63  1  0
 64 59  2  0
 65 58  1  0
 66 56  1  0
 68 70  2  0
 69 68  1  0
 71 69  1  0
 72 81  2  0
 72 77  1  0
 73 69  1  0
 73 77  1  0
 74 73  1  0
 75 76  1  0
 75 74  1  0
 76 72  1  0
 77 78  2  0
 78 79  1  0
 80 79  2  0
 81 80  1  0
 82 56  1  0
 82 83  1  0
 82 92  1  0
 83 86  1  0
 84 88  1  0
 84 83  1  0
 85 84  2  0
 88 87  1  0
 90 88  1  0
 90 91  1  0
 90 89  1  0
 92 95  1  1
 92 93  1  0
 94 92  1  0
M  ISO  4  10 100  19 100  54 101  55 101
M  END
>  <TORSDO>  (48) 
F 18

>  <SCORE>  (48) 
-15.097

>  <name>  (48) 
47

>  <ligand_id>  (48) 
47

>  <original_smiles>  (48) 
[H]c1c([H])c([H])c2c(c1[H])C([H])([H])C([H])([H])C([H])([H])C2([H])N([H])C(=O)C1([H])N(C(=O)C([H])(N([H])C(=O)C([H])(N([H])C([H])([H])[H])C([H])([H])[H])C(C([H])([H])[H])(C([H])([H])[H])C([H])([H])[H])C([H])([H])c2c([H])c(OC([H])(C(=O)N([H])c3nc(C(=O)N([H])C(=O)N4C([H])([H])C([H])([H])C([H])([H])C([H])(n5nc(-c6c([H])c([H])c(Oc7c([H])c([H])c(F)c([H])c7F)c([H])c6[H])c(C(=O)N([H])[H])c5N([H])[H])C4([H])[H])c(N([H])[H])s3)C([H])([H])[H])c([H])c([H])c2C1([H])[H]

>  <smiles>  (48) 
[H]c1c([H])c([H])c2c(c1[H])C([H])([H])C([H])([H])C([H])([H])C2([H])N([H])C(=O)C1([H])N(C(=O)C([H])(N([H])C(=O)C([H])(N([H])C([H])([H])[H])C([H])([H])[H])C(C([H])([H])[H])(C([H])([H])[H])C([H])([H])[H])C([H])([H])c2c([H])c(OC([H])(C(=O)N([H])c3nc(C(=O)N([H])C(=O)N4C([H])([H])C([H])([H])C([H])([H])C([H])(n5nc(-c6c([H])c([H])c(Oc7c([H])c([H])c(F)c([H])c7F)c([H])c6[H])c(C(=O)N([H])[H])c5N([H])[H])C4([H])[H])c(N([H])[H])s3)C([H])([H])[H])c([H])c([H])c2C1([H])[H]

$$$$
48:0:0
     RDKit          3D

 92100  0  0  1  0  0  0  0  0999 V2000
  -29.2160  -21.7770   22.0170 C   0  0  0  0  0  1  0  0  0  0  0  0
  -28.9450  -21.7410   20.5030 C   0  0  0  0  0  3  0  0  0  0  0  0
  -29.1200  -23.3820   19.9750 C   0  0  0  0  0  0  0  0  0  0  0  0
  -30.0850  -23.6420   19.2500 O   0  0  0  0  0  0  0  0  0  0  0  0
  -28.1040  -24.6740   20.3500 C   0  0  0  0  0  2  0  0  0  0  0  0
  -28.4350  -26.2170   20.1890 O   0  0  0  0  0  0  0  0  0  0  0  0
  -24.6740  -31.9010   23.1770 C   0  0  0  0  0  0  0  0  0  0  0  0
  -27.3830  -27.2230   20.1480 C   0  0  0  0  0  0  0  0  0  0  0  0
  -23.5330  -30.5050   21.4990 C   0  0  0  0  0  3  0  0  0  0  0  0
  -25.0340  -28.9660   20.0870 C   0  0  0  0  0  0  0  0  0  0  0  0
  -26.0900  -30.8010   21.3920 C   0  0  0  0  0  2  0  0  0  0  0  0
  -26.2000  -29.4130   20.7250 C   0  0  0  0  0  0  0  0  0  0  0  0
  -27.3770  -28.5620   20.7330 C   0  0  0  0  0  3  0  0  0  0  0  0
  -26.1920  -26.8960   19.4640 C   0  0  0  0  0  3  0  0  0  0  0  0
  -25.0470  -27.7230   19.4380 C   0  0  0  0  0  3  0  0  0  0  0  0
  -23.7950  -29.8490   20.1180 C   0  0  0  0  0  2  0  0  0  0  0  0
  -24.7850  -31.0910   22.0780 N   0  0  0  0  0  0  0  0  0  0  0  0
  -23.5730  -32.1620   23.6850 O   0  0  0  0  0  0  0  0  0  0  0  0
  -22.8500  -29.4770   22.4360 C   0  0  0  0  0  0  0  0  0  0  0  0
  -21.5280  -29.2830   22.2820 N   0  0  0  0  0  0  0  0  0  0  0  0
  -23.5130  -28.8560   23.2700 O   0  0  0  0  0  0  0  0  0  0  0  0
  -21.0460  -29.8360   21.5880 H   0  0  0  0  0  0  0  0  0  0  0  0
  -18.1640  -27.9940   22.6920 C   0  0  0  0  0  0  0  0  0  0  0  0
  -20.7080  -28.3230   23.0280 C   0  0  0  0  0  3  0  0  0  0  0  0
  -20.8610  -26.8940   22.4540 C   0  0  0  0  0  2  0  0  0  0  0  0
  -19.7950  -26.5470   21.4090 C   0  0  0  0  0  2  0  0  0  0  0  0
  -18.3930  -26.6530   22.0150 C   0  0  0  0  0  2  0  0  0  0  0  0
  -19.2510  -28.7840   23.1540 C   0  0  0  0  0  0  0  0  0  0  0  0
  -18.9820  -30.0370   23.7480 C   0  0  0  0  0  3  0  0  0  0  0  0
  -17.6590  -30.5010   23.8820 C   0  0  0  0  0  3  0  0  0  0  0  0
  -16.5870  -29.7090   23.4350 C   0  0  0  0  0  3  0  0  0  0  0  0
  -16.8410  -28.4570   22.8470 C   0  0  0  0  0  3  0  0  0  0  0  0
  -25.9280  -32.5550   23.8350 C   0  0  0  0  0  3  0  0  0  0  0  0
  -25.5880  -33.9510   24.1590 N   0  0  0  0  0  0  0  0  0  0  0  0
  -25.9280  -35.0130   23.4170 C   0  0  0  0  0  0  0  0  0  0  0  0
  -26.6280  -34.9230   22.4040 O   0  0  0  0  0  0  0  0  0  0  0  0
  -24.9730  -34.0940   24.9470 H   0  0  0  0  0  0  0  0  0  0  0  0
  -24.1910  -36.7940   23.0310 C   0  0  0  0  0  1  0  0  0  0  0  0
  -25.4150  -36.3950   23.8710 C   0  0  0  0  0  3  0  0  0  0  0  0
  -27.5190  -37.2960   24.7580 C   0  0  0  0  0  1  0  0  0  0  0  0
  -26.4380  -37.4590   23.7910 N   0  0  0  0  0  0  0  0  0  0  0  0
  -26.0170  -38.3730   23.9380 H   0  0  0  0  0  0  0  0  0  0  0  0
  -26.4130  -31.7940   25.1310 C   0  0  1  0  0  0  0  0  0  0  0  0
  -25.2900  -31.5340   26.1600 C   0  0  0  0  0  1  0  0  0  0  0  0
  -27.0380  -30.4280   24.7650 C   0  0  0  0  0  1  0  0  0  0  0  0
  -27.5200  -32.6140   25.8330 C   0  0  0  0  0  1  0  0  0  0  0  0
  -29.6810  -20.4790   19.8730 N   0  0  0  0  0  0  0  0  0  0  0  0
  -30.0910  -20.6930   18.9710 H   0  0  0  0  0  0  0  0  0  0  0  0
  -29.7370  -18.5110   21.5750 C   0  0  0  0  0  3  0  0  0  0  0  0
  -29.8690  -19.0430   20.3070 C   0  0  0  0  0  0  0  0  0  0  0  0
  -30.3820  -16.7090   20.3060 C   0  0  0  0  0  3  0  0  0  0  0  0
  -30.1350  -17.1590   21.5680 N   0  0  0  0  0  0  0  0  0  0  0  0
  -30.2910  -17.8890   19.5550 N   0  0  0  0  0  0  0  0  0  0  0  0
  -30.5310  -17.9110   18.5730 H   0  0  0  0  0  0  0  0  0  0  0  0
  -30.9760  -15.2550   19.8620 C   0  0  0  0  0  0  0  0  0  0  0  0
  -30.7030  -12.9370   18.8200 C   0  0  0  0  0  2  0  0  0  0  0  0
  -29.6930  -12.9530   17.6440 C   0  0  0  0  0  2  0  0  0  0  0  0
  -28.2620  -12.7250   18.1620 C   0  0  0  0  0  2  0  0  0  0  0  0
  -27.9500  -13.6080   19.3950 C   0  0  0  0  0  3  0  0  0  0  0  0
  -29.0720  -13.5700   20.4470 C   0  0  0  0  0  2  0  0  0  0  0  0
  -30.3200  -14.0080   19.8020 N   0  0  0  0  0  0  0  0  0  0  0  0
  -32.1130  -15.2570   19.3680 O   0  0  0  0  0  0  0  0  0  0  0  0
  -25.6730  -14.1880   20.4000 C   0  0  0  0  0  0  0  0  0  0  0  0
  -24.6170  -13.4180   20.8000 C   0  0  0  0  0  0  0  0  0  0  0  0
  -25.0260  -12.0620   20.6180 C   0  0  0  0  0  0  0  0  0  0  0  0
  -26.6530  -13.3030   19.9860 N   0  0  0  0  0  0  0  0  0  0  0  0
  -26.2830  -12.0130   20.1900 N   0  0  0  0  0  0  0  0  0  0  0  0
  -24.2730  -10.8100   20.7690 C   0  0  0  0  0  0  0  0  0  0  0  0
  -24.7210   -9.7750   21.6190 C   0  0  0  0  0  3  0  0  0  0  0  0
  -23.9660   -8.5900   21.7620 C   0  0  0  0  0  3  0  0  0  0  0  0
  -22.7520   -8.4320   21.0530 C   0  0  0  0  0  0  0  0  0  0  0  0
  -22.3230   -9.4560   20.1890 C   0  0  0  0  0  3  0  0  0  0  0  0
  -23.0780  -10.6320   20.0460 C   0  0  0  0  0  3  0  0  0  0  0  0
  -21.9660   -7.3060   21.1110 O   0  0  0  0  0  0  0  0  0  0  0  0
  -21.9070   -6.5260   22.2380 C   0  0  0  0  0  0  0  0  0  0  0  0
  -21.5520   -7.0560   23.4980 C   0  0  0  0  0  3  0  0  0  0  0  0
  -21.4360   -6.2040   24.6130 C   0  0  0  0  0  3  0  0  0  0  0  0
  -21.6680   -4.8220   24.4720 C   0  0  0  0  0  0  0  0  0  0  0  0
  -22.0170   -4.2920   23.2180 C   0  0  0  0  0  3  0  0  0  0  0  0
  -22.1330   -5.1410   22.1040 C   0  0  0  0  0  0  0  0  0  0  0  0
  -22.4490   -4.6210   20.8930 F   0  0  0  0  0  0  0  0  0  0  0  0
  -21.5490   -4.0020   25.5410 F   0  0  0  0  0  0  0  0  0  0  0  0
  -23.2690  -13.9140   21.2300 C   0  0  0  0  0  0  0  0  0  0  0  0
  -22.6060  -13.1930   22.1280 N   0  0  0  0  0  0  0  0  0  0  0  0
  -22.8140  -14.9740   20.8030 O   0  0  0  0  0  0  0  0  0  0  0  0
  -22.9890  -12.3340   22.4950 H   0  0  0  0  0  0  0  0  0  0  0  0
  -21.7050  -13.5070   22.4600 H   0  0  0  0  0  0  0  0  0  0  0  0
  -25.8750  -15.5630   20.3250 N   0  0  0  0  0  0  0  0  0  0  0  0
  -25.1370  -16.2220   20.5460 H   0  0  0  0  0  0  0  0  0  0  0  0
  -26.6860  -16.0050   19.9140 H   0  0  0  0  0  0  0  0  0  0  0  0
  -31.3000  -17.0270   23.7760 C   0  0  0  0  0  1  0  0  0  0  0  0
  -30.3160  -16.3650   22.7980 C   0  0  0  0  0  2  0  0  0  0  0  0
  2  1  1  0
  3  5  1  0
  3  2  1  0
  4  3  2  0
  6  5  1  0
  7 18  2  0
  8  6  1  0
  8 13  1  0
  9 17  1  0
  9 19  1  0
 10 16  1  0
 10 12  1  0
 11 17  1  0
 12 13  2  0
 12 11  1  0
 14  8  2  0
 15 14  1  0
 15 10  2  0
 16  9  1  0
 17  7  1  0
 19 21  2  0
 20 19  1  0
 22 20  1  0
 23 32  2  0
 23 28  1  0
 24 20  1  0
 24 28  1  0
 25 24  1  0
 26 27  1  0
 26 25  1  0
 27 23  1  0
 28 29  2  0
 29 30  1  0
 31 30  2  0
 32 31  1  0
 33  7  1  0
 33 34  1  0
 33 43  1  0
 34 37  1  0
 35 39  1  0
 35 34  1  0
 36 35  2  0
 39 38  1  0
 41 39  1  0
 41 42  1  0
 41 40  1  0
 43 46  1  1
 43 44  1  0
 45 43  1  0
 47 50  1  0
 47  2  1  0
 48 47  1  0
 50 49  2  0
 51 55  1  0
 51 52  1  0
 52 49  1  0
 52 92  1  0
 53 51  1  0
 53 50  1  0
 54 53  1  0
 56 61  1  0
 57 58  1  0
 57 56  1  0
 59 58  1  0
 59 66  1  0
 59 60  1  0
 61 55  1  0
 61 60  1  0
 62 55  2  0
 63 64  2  0
 64 83  1  0
 65 68  1  0
 65 64  1  0
 66 67  1  0
 66 63  1  0
 67 65  2  0
 68 69  1  0
 69 70  2  0
 71 74  1  0
 71 70  1  0
 72 71  2  0
 73 72  1  0
 73 68  2  0
 74 75  1  0
 75 76  1  0
 76 77  2  0
 78 77  1  0
 78 82  1  0
 79 78  2  0
 80 75  2  0
 80 79  1  0
 81 80  1  0
 83 84  1  0
 84 87  1  0
 84 86  1  0
 85 83  2  0
 88 63  1  0
 88 89  1  0
 90 88  1  0
 92 91  1  0
M  ISO  4   5 101   6 101  51 100  55 100
M  END
>  <TORSDO>  (49) 
F 21

>  <SCORE>  (49) 
-10.705

>  <name>  (49) 
48

>  <ligand_id>  (49) 
48

>  <original_smiles>  (49) 
[H]c1c([H])c([H])c2c(c1[H])C([H])([H])C([H])([H])C([H])([H])C2([H])N([H])C(=O)C1([H])N(C(=O)C([H])(N([H])C(=O)C([H])(N([H])C([H])([H])[H])C([H])([H])[H])C(C([H])([H])[H])(C([H])([H])[H])C([H])([H])[H])C([H])([H])c2c([H])c(OC([H])([H])C(=O)C([H])(N([H])c3c([H])n(C([H])([H])C([H])([H])[H])c(C(=O)N4C([H])([H])C([H])([H])C([H])([H])C([H])(n5nc(-c6c([H])c([H])c(Oc7c([H])c([H])c(F)c([H])c7F)c([H])c6[H])c(C(=O)N([H])[H])c5N([H])[H])C4([H])[H])[n+]3[H])C([H])([H])[H])c([H])c([H])c2C1([H])[H]

>  <smiles>  (49) 
[H]c1c([H])c([H])c2c(c1[H])C([H])([H])C([H])([H])C([H])([H])C2([H])N([H])C(=O)C1([H])N(C(=O)C([H])(N([H])C(=O)C([H])(N([H])C([H])([H])[H])C([H])([H])[H])C(C([H])([H])[H])(C([H])([H])[H])C([H])([H])[H])C([H])([H])c2c([H])c(OC([H])([H])C(=O)C([H])(N([H])c3c([H])n(C([H])([H])C([H])([H])[H])c(C(=O)N4C([H])([H])C([H])([H])C([H])([H])C([H])(n5nc(-c6c([H])c([H])c(Oc7c([H])c([H])c(F)c([H])c7F)c([H])c6[H])c(C(=O)N([H])[H])c5N([H])[H])C4([H])[H])[n+]3[H])C([H])([H])[H])c([H])c([H])c2C1([H])[H]

$$$$
49:0:0
     RDKit          3D

 94102  0  0  1  0  0  0  0  0999 V2000
  -28.9290  -21.0840   20.4300 N   0  0  0  0  0  4  0  0  0  0  0  0
  -28.3530  -21.0160   21.2680 H   0  0  0  0  0  0  0  0  0  0  0  0
  -29.4790  -18.5480   20.6790 C   0  0  0  0  0  3  0  0  0  0  0  0
  -29.8940  -19.7140   18.6000 C   0  0  0  0  0  3  0  0  0  0  0  0
  -29.4530  -19.8110   19.9390 C   0  0  0  0  0  0  0  0  0  0  0  0
  -29.9710  -17.2800   20.1350 C   0  0  0  0  0  0  0  0  0  0  0  0
  -30.3870  -18.5180   18.0500 C   0  0  0  0  0  0  0  0  0  0  0  0
  -30.4310  -17.3260   18.7950 C   0  0  0  0  0  0  0  0  0  0  0  0
  -30.7960  -18.5070   16.7570 F   0  0  0  0  0  0  0  0  0  0  0  0
  -30.8550  -16.2050   18.1620 F   0  0  0  0  0  0  0  0  0  0  0  0
  -30.6880  -14.8210   20.6320 C   0  0  0  0  0  0  0  0  0  0  0  0
  -30.5580  -12.5190   19.6870 C   0  0  0  0  0  2  0  0  0  0  0  0
  -29.6920  -12.5710   18.4090 C   0  0  0  0  0  2  0  0  0  0  0  0
  -28.1990  -12.4050   18.7550 C   0  0  0  0  0  2  0  0  0  0  0  0
  -27.7560  -13.3070   19.9370 C   0  0  0  0  0  3  0  0  0  0  0  0
  -28.7500  -13.2430   21.1160 C   0  0  0  0  0  2  0  0  0  0  0  0
  -30.0790  -13.5870   20.5950 N   0  0  0  0  0  0  0  0  0  0  0  0
  -31.8890  -14.9170   20.3640 O   0  0  0  0  0  0  0  0  0  0  0  0
  -29.9030  -15.9540   20.8170 N   0  0  0  0  0  0  0  0  0  0  0  0
  -29.0260  -15.7700   21.2790 H   0  0  0  0  0  0  0  0  0  0  0  0
  -25.3260  -13.8870   20.5260 C   0  0  0  0  0  0  0  0  0  0  0  0
  -24.2490  -13.1100   20.8570 C   0  0  0  0  0  0  0  0  0  0  0  0
  -24.7260  -11.7640   20.8790 C   0  0  0  0  0  0  0  0  0  0  0  0
  -26.3890  -13.0150   20.3620 N   0  0  0  0  0  0  0  0  0  0  0  0
  -26.0310  -11.7340   20.6370 N   0  0  0  0  0  0  0  0  0  0  0  0
  -24.0020  -10.4970   21.0550 C   0  0  0  0  0  0  0  0  0  0  0  0
  -24.3970   -9.5490   22.0240 C   0  0  0  0  0  3  0  0  0  0  0  0
  -23.6730   -8.3480   22.1890 C   0  0  0  0  0  3  0  0  0  0  0  0
  -22.5370   -8.0880   21.3840 C   0  0  0  0  0  0  0  0  0  0  0  0
  -22.1620   -9.0250   20.4050 C   0  0  0  0  0  3  0  0  0  0  0  0
  -22.8880  -10.2170   20.2390 C   0  0  0  0  0  3  0  0  0  0  0  0
  -21.7890   -6.9380   21.4550 O   0  0  0  0  0  0  0  0  0  0  0  0
  -21.6940   -6.2120   22.6150 C   0  0  0  0  0  0  0  0  0  0  0  0
  -21.2010   -6.7780   23.8110 C   0  0  0  0  0  3  0  0  0  0  0  0
  -21.0540   -5.9790   24.9610 C   0  0  0  0  0  3  0  0  0  0  0  0
  -21.3890   -4.6130   24.9160 C   0  0  0  0  0  0  0  0  0  0  0  0
  -21.8730   -4.0450   23.7250 C   0  0  0  0  0  3  0  0  0  0  0  0
  -22.0220   -4.8420   22.5770 C   0  0  0  0  0  0  0  0  0  0  0  0
  -22.4690   -4.2850   21.4260 F   0  0  0  0  0  0  0  0  0  0  0  0
  -21.2410   -3.8410   26.0190 F   0  0  0  0  0  0  0  0  0  0  0  0
  -22.8340  -13.5780   21.0430 C   0  0  0  0  0  0  0  0  0  0  0  0
  -22.0660  -12.8950   21.8850 N   0  0  0  0  0  0  0  0  0  0  0  0
  -22.4160  -14.5880   20.4780 O   0  0  0  0  0  0  0  0  0  0  0  0
  -22.4170  -12.0790   22.3660 H   0  0  0  0  0  0  0  0  0  0  0  0
  -21.1160  -13.1920   22.0520 H   0  0  0  0  0  0  0  0  0  0  0  0
  -25.4890  -15.2550   20.3270 N   0  0  0  0  0  0  0  0  0  0  0  0
  -24.7130  -15.9060   20.3740 H   0  0  0  0  0  0  0  0  0  0  0  0
  -26.3470  -15.6890   20.0160 H   0  0  0  0  0  0  0  0  0  0  0  0
  -30.2990  -22.7490   18.9560 C   0  0  0  0  0  1  0  0  0  0  0  0
  -29.4460  -22.5160   20.2190 C   0  0  0  0  0  0  0  0  0  0  0  0
  -28.4570  -23.7960   20.5040 C   0  0  0  0  0  0  0  0  0  0  0  0
  -27.6570  -23.7330   21.4410 O   0  0  0  0  0  0  0  0  0  0  0  0
  -28.4700  -25.1470   19.6270 C   0  0  0  0  0  2  0  0  0  0  0  0
  -28.3330  -26.4800   20.3060 O   0  0  0  0  0  0  0  0  0  0  0  0
  -24.5800  -31.9130   23.2440 C   0  0  0  0  0  0  0  0  0  0  0  0
  -27.2070  -27.3250   20.2030 C   0  0  0  0  0  0  0  0  0  0  0  0
  -23.3850  -30.5120   21.6000 C   0  0  0  0  0  3  0  0  0  0  0  0
  -24.8420  -28.9570   20.1750 C   0  0  0  0  0  0  0  0  0  0  0  0
  -25.9250  -30.8250   21.4260 C   0  0  0  0  0  2  0  0  0  0  0  0
  -26.0070  -29.4430   20.7790 C   0  0  0  0  0  0  0  0  0  0  0  0
  -27.1880  -28.6370   20.7840 C   0  0  0  0  0  3  0  0  0  0  0  0
  -26.0150  -26.8960   19.5780 C   0  0  0  0  0  3  0  0  0  0  0  0
  -24.8510  -27.6930   19.5660 C   0  0  0  0  0  3  0  0  0  0  0  0
  -23.6040  -29.8330   20.2200 C   0  0  0  0  0  2  0  0  0  0  0  0
  -24.6490  -31.1020   22.1460 N   0  0  0  0  0  0  0  0  0  0  0  0
  -23.4940  -32.1900   23.7740 O   0  0  0  0  0  0  0  0  0  0  0  0
  -22.7180  -29.4970   22.5600 C   0  0  0  0  0  0  0  0  0  0  0  0
  -21.3920  -29.3230   22.4320 N   0  0  0  0  0  0  0  0  0  0  0  0
  -23.3940  -28.8700   23.3800 O   0  0  0  0  0  0  0  0  0  0  0  0
  -20.9070  -29.8800   21.7420 H   0  0  0  0  0  0  0  0  0  0  0  0
  -18.0090  -28.1380   22.9320 C   0  0  0  0  0  0  0  0  0  0  0  0
  -20.5700  -28.3870   23.2010 C   0  0  0  0  0  3  0  0  0  0  0  0
  -20.6650  -26.9570   22.6190 C   0  0  0  0  0  2  0  0  0  0  0  0
  -19.5610  -26.6430   21.6060 C   0  0  0  0  0  2  0  0  0  0  0  0
  -18.1800  -26.7910   22.2520 C   0  0  0  0  0  2  0  0  0  0  0  0
  -19.1310  -28.8940   23.3640 C   0  0  0  0  0  0  0  0  0  0  0  0
  -18.9180  -30.1550   23.9620 C   0  0  0  0  0  3  0  0  0  0  0  0
  -17.6160  -30.6600   24.1320 C   0  0  0  0  0  3  0  0  0  0  0  0
  -16.5080  -29.9010   23.7160 C   0  0  0  0  0  3  0  0  0  0  0  0
  -16.7060  -28.6420   23.1220 C   0  0  0  0  0  3  0  0  0  0  0  0
  -25.8580  -32.5480   23.8730 C   0  0  0  0  0  3  0  0  0  0  0  0
  -26.3590  -31.7870   25.1620 C   0  0  1  0  0  0  0  0  0  0  0  0
  -25.2550  -31.5650   26.2210 C   0  0  0  0  0  1  0  0  0  0  0  0
  -26.9400  -30.4030   24.7890 C   0  0  0  0  0  1  0  0  0  0  0  0
  -27.5070  -32.5840   25.8270 C   0  0  0  0  0  1  0  0  0  0  0  0
  -25.5490  -33.9500   24.1890 N   0  0  0  0  0  0  0  0  0  0  0  0
  -25.8920  -34.9970   23.4250 C   0  0  0  0  0  0  0  0  0  0  0  0
  -26.5700  -34.8830   22.4010 O   0  0  0  0  0  0  0  0  0  0  0  0
  -24.9490  -34.1120   24.9820 H   0  0  0  0  0  0  0  0  0  0  0  0
  -24.1800  -36.7990   23.0370 C   0  0  0  0  0  1  0  0  0  0  0  0
  -25.4060  -36.3910   23.8690 C   0  0  0  0  0  3  0  0  0  0  0  0
  -27.5310  -37.2690   24.7320 C   0  0  0  0  0  1  0  0  0  0  0  0
  -26.4470  -37.4370   23.7670 N   0  0  0  0  0  0  0  0  0  0  0  0
  -26.0440  -38.3610   23.9010 H   0  0  0  0  0  0  0  0  0  0  0  0
  1  2  1  0
  4  5  1  0
  5  1  1  0
  5  3  2  0
  6  3  1  0
  6 19  1  0
  7  4  2  0
  7  8  1  0
  8  6  2  0
  9  7  1  0
 10  8  1  0
 11 19  1  0
 12 17  1  0
 13 14  1  0
 13 12  1  0
 15 14  1  0
 15 24  1  0
 15 16  1  0
 17 11  1  0
 17 16  1  0
 18 11  2  0
 19 20  1  0
 21 22  2  0
 22 23  1  0
 22 41  1  0
 23 26  1  0
 24 21  1  0
 24 25  1  0
 25 23  2  0
 26 27  1  0
 27 28  2  0
 29 32  1  0
 29 28  1  0
 30 29  2  0
 31 30  1  0
 31 26  2  0
 32 33  1  0
 33 34  1  0
 34 35  2  0
 36 35  1  0
 36 40  1  0
 37 36  2  0
 38 33  2  0
 38 37  1  0
 39 38  1  0
 41 42  1  0
 42 45  1  0
 42 44  1  0
 43 41  2  0
 46 47  1  0
 46 21  1  0
 48 46  1  0
 49 50  1  0
 50  1  2  0
 50 51  1  0
 51 52  2  0
 53 54  1  0
 53 51  1  0
 55 66  2  0
 56 54  1  0
 56 61  1  0
 57 65  1  0
 57 67  1  0
 58 64  1  0
 58 60  1  0
 59 65  1  0
 60 61  2  0
 60 59  1  0
 62 56  2  0
 63 62  1  0
 63 58  2  0
 64 57  1  0
 65 55  1  0
 67 69  2  0
 68 67  1  0
 70 68  1  0
 71 80  2  0
 71 76  1  0
 72 68  1  0
 72 76  1  0
 73 72  1  0
 74 75  1  0
 74 73  1  0
 75 71  1  0
 76 77  2  0
 77 78  1  0
 79 78  2  0
 80 79  1  0
 81 55  1  0
 81 86  1  0
 81 82  1  0
 82 85  1  1
 82 83  1  0
 84 82  1  0
 86 89  1  0
 87 91  1  0
 87 86  1  0
 88 87  2  0
 91 90  1  0
 93 91  1  0
 93 94  1  0
 93 92  1  0
M  ISO  4  11 100  19 100  53 101  54 101
M  END
>  <TORSDO>  (50) 
F 20

>  <SCORE>  (50) 
-13.877

>  <name>  (50) 
49

>  <ligand_id>  (50) 
49

>  <original_smiles>  (50) 
[H]c1c([H])c([H])c2c(c1[H])C([H])([H])C([H])([H])C([H])([H])C2([H])N([H])C(=O)C1([H])N(C(=O)C([H])(N([H])C(=O)C([H])(N([H])C([H])([H])[H])C([H])([H])[H])C(C([H])([H])[H])(C([H])([H])[H])C([H])([H])[H])C([H])([H])c2c([H])c(OC([H])([H])C(=O)C([H])(N([H])c3c([H])c(F)c(F)c(N([H])C(=O)N4C([H])([H])C([H])([H])C([H])([H])C([H])(n5nc(-c6c([H])c([H])c(Oc7c([H])c([H])c(F)c([H])c7F)c([H])c6[H])c(C(=O)N([H])[H])c5N([H])[H])C4([H])[H])c3[H])C([H])([H])[H])c([H])c([H])c2C1([H])[H]

>  <smiles>  (50) 
[H]c1c([H])c([H])c2c(c1[H])C([H])([H])C([H])([H])C([H])([H])C2([H])N([H])C(=O)C1([H])N(C(=O)C([H])(N([H])C(=O)C([H])(N([H])C([H])([H])[H])C([H])([H])[H])C(C([H])([H])[H])(C([H])([H])[H])C([H])([H])[H])C([H])([H])c2c([H])c(OC([H])([H])C(=O)C([H])(N([H])c3c([H])c(F)c(F)c(N([H])C(=O)N4C([H])([H])C([H])([H])C([H])([H])C([H])(n5nc(-c6c([H])c([H])c(Oc7c([H])c([H])c(F)c([H])c7F)c([H])c6[H])c(C(=O)N([H])[H])c5N([H])[H])C4([H])[H])c3[H])C([H])([H])[H])c([H])c([H])c2C1([H])[H]

$$$$
50:0:0
     RDKit          3D

 85 89  0  0  1  0  0  0  0  0999 V2000
  -26.9190  -23.4510   21.1460 C   0  0  0  0  0  1  0  0  0  0  0  0
  -28.2290  -23.6220   20.3670 C   0  0  0  0  0  2  0  0  0  0  0  0
  -28.2060  -25.4280   20.0820 O   0  0  0  0  0  0  0  0  0  0  0  0
  -24.6730  -31.8060   23.1500 C   0  0  0  0  0  0  0  0  0  0  0  0
  -27.2130  -26.6670   20.1410 C   0  0  0  0  0  0  0  0  0  0  0  0
  -23.4880  -30.4070   21.5150 C   0  0  0  0  0  3  0  0  0  0  0  0
  -24.9380  -28.7530   20.0980 C   0  0  0  0  0  0  0  0  0  0  0  0
  -26.0700  -30.5390   21.3880 C   0  0  0  0  0  2  0  0  0  0  0  0
  -26.1390  -29.0960   20.7300 C   0  0  0  0  0  0  0  0  0  0  0  0
  -27.2580  -28.0880   20.7090 C   0  0  0  0  0  3  0  0  0  0  0  0
  -25.9700  -26.5630   19.4560 C   0  0  0  0  0  3  0  0  0  0  0  0
  -24.8970  -27.5130   19.4390 C   0  0  0  0  0  3  0  0  0  0  0  0
  -23.7300  -29.7100   20.1430 C   0  0  0  0  0  2  0  0  0  0  0  0
  -24.7690  -30.9530   22.0690 N   0  0  0  0  0  0  0  0  0  0  0  0
  -23.5780  -32.0980   23.6650 O   0  0  0  0  0  0  0  0  0  0  0  0
  -22.7760  -29.4270   22.4870 C   0  0  0  0  0  0  0  0  0  0  0  0
  -21.4450  -29.2590   22.3630 N   0  0  0  0  0  0  0  0  0  0  0  0
  -23.4360  -28.8140   23.3290 O   0  0  0  0  0  0  0  0  0  0  0  0
  -20.9580  -29.8080   21.6670 H   0  0  0  0  0  0  0  0  0  0  0  0
  -18.0830  -27.9590   22.8450 C   0  0  0  0  0  0  0  0  0  0  0  0
  -20.6310  -28.3110   23.1350 C   0  0  0  0  0  3  0  0  0  0  0  0
  -20.7800  -26.8720   22.5860 C   0  0  0  0  0  2  0  0  0  0  0  0
  -19.7030  -26.5040   21.5600 C   0  0  0  0  0  2  0  0  0  0  0  0
  -18.3090  -26.6110   22.1810 C   0  0  0  0  0  2  0  0  0  0  0  0
  -19.1710  -28.7640   23.2770 C   0  0  0  0  0  0  0  0  0  0  0  0
  -18.9000  -30.0200   23.8610 C   0  0  0  0  0  3  0  0  0  0  0  0
  -17.5750  -30.4750   24.0110 C   0  0  0  0  0  3  0  0  0  0  0  0
  -16.5040  -29.6710   23.5900 C   0  0  0  0  0  3  0  0  0  0  0  0
  -16.7570  -28.4130   23.0130 C   0  0  0  0  0  3  0  0  0  0  0  0
  -25.9290  -32.4690   23.7910 C   0  0  0  0  0  3  0  0  0  0  0  0
  -25.5970  -33.8680   24.1260 N   0  0  0  0  0  0  0  0  0  0  0  0
  -25.9270  -34.9420   23.3940 C   0  0  0  0  0  0  0  0  0  0  0  0
  -26.5990  -34.8570   22.3640 O   0  0  0  0  0  0  0  0  0  0  0  0
  -24.9980  -34.0060   24.9270 H   0  0  0  0  0  0  0  0  0  0  0  0
  -24.1920  -36.7440   23.0800 C   0  0  0  0  0  1  0  0  0  0  0  0
  -25.4410  -36.3260   23.8760 C   0  0  0  0  0  3  0  0  0  0  0  0
  -27.5760  -37.2150   24.7060 C   0  0  0  0  0  1  0  0  0  0  0  0
  -26.4680  -37.3860   23.7700 N   0  0  0  0  0  0  0  0  0  0  0  0
  -26.0570  -38.3030   23.9280 H   0  0  0  0  0  0  0  0  0  0  0  0
  -26.4250  -31.7190   25.0900 C   0  0  1  0  0  0  0  0  0  0  0  0
  -25.3180  -31.4980   26.1480 C   0  0  0  0  0  1  0  0  0  0  0  0
  -27.0170  -30.3350   24.7400 C   0  0  0  0  0  1  0  0  0  0  0  0
  -27.5640  -32.5250   25.7560 C   0  0  0  0  0  1  0  0  0  0  0  0
  -28.6310  -21.7830   19.6370 C   0  0  0  0  0 15  0  0  0  0  0  0
  -29.3910  -19.5920   21.6980 O   0  0  0  0  0  0  0  0  0  0  0  0
  -31.0420  -19.8660   19.8680 O   0  0  0  0  0  0  0  0  0  0  0  0
  -29.6400  -19.6170   20.2450 S   0  0  0  0  0  0  0  0  0  0  0  0
  -30.2550  -15.9200   19.6930 C   0  0  0  0  0  0  0  0  0  0  0  0
  -30.3750  -13.3160   18.9250 C   0  0  0  0  0  2  0  0  0  0  0  0
  -29.4220  -12.8390   17.7820 C   0  0  0  0  0  2  0  0  0  0  0  0
  -28.0410  -12.4510   18.3300 C   0  0  0  0  0  2  0  0  0  0  0  0
  -27.5700  -13.4670   19.3910 C   0  0  0  0  0  3  0  0  0  0  0  0
  -28.6560  -13.8560   20.4210 C   0  0  0  0  0  2  0  0  0  0  0  0
  -29.7780  -14.5120   19.6980 N   0  0  0  0  0  0  0  0  0  0  0  0
  -31.4850  -15.8290   19.4780 O   0  0  0  0  0  0  0  0  0  0  0  0
  -29.4680  -17.4370   19.7580 N   0  0  0  0  0  2  0  0  0  0  0  0
  -28.4600  -17.3070   19.6980 H   0  0  0  0  0  0  0  0  0  0  0  0
  -25.2970  -13.9760   20.3890 C   0  0  0  0  0  0  0  0  0  0  0  0
  -24.2650  -13.1930   20.8200 C   0  0  0  0  0  0  0  0  0  0  0  0
  -24.7150  -11.8420   20.6980 C   0  0  0  0  0  0  0  0  0  0  0  0
  -26.3040  -13.1080   20.0160 N   0  0  0  0  0  0  0  0  0  0  0  0
  -25.9760  -11.8120   20.2700 N   0  0  0  0  0  0  0  0  0  0  0  0
  -23.9890  -10.5810   20.9020 C   0  0  0  0  0  0  0  0  0  0  0  0
  -24.4580   -9.5900   21.7950 C   0  0  0  0  0  3  0  0  0  0  0  0
  -23.7260   -8.3990   21.9920 C   0  0  0  0  0  3  0  0  0  0  0  0
  -22.5110   -8.1880   21.2980 C   0  0  0  0  0  0  0  0  0  0  0  0
  -22.0590   -9.1670   20.3950 C   0  0  0  0  0  3  0  0  0  0  0  0
  -22.7910  -10.3500   20.1950 C   0  0  0  0  0  3  0  0  0  0  0  0
  -21.7470   -7.0510   21.4070 O   0  0  0  0  0  0  0  0  0  0  0  0
  -21.7280   -6.3030   22.5570 C   0  0  0  0  0  0  0  0  0  0  0  0
  -21.3420   -6.8540   23.7980 C   0  0  0  0  0  3  0  0  0  0  0  0
  -21.2700   -6.0340   24.9420 C   0  0  0  0  0  3  0  0  0  0  0  0
  -21.5760   -4.6630   24.8450 C   0  0  0  0  0  0  0  0  0  0  0  0
  -21.9550   -4.1110   23.6090 C   0  0  0  0  0  3  0  0  0  0  0  0
  -22.0290   -4.9290   22.4670 C   0  0  0  0  0  0  0  0  0  0  0  0
  -22.3740   -4.3880   21.2740 F   0  0  0  0  0  0  0  0  0  0  0  0
  -21.5000   -3.8720   25.9410 F   0  0  0  0  0  0  0  0  0  0  0  0
  -22.9010  -13.6730   21.2170 C   0  0  0  0  0  0  0  0  0  0  0  0
  -22.2370  -12.9570   22.1160 N   0  0  0  0  0  0  0  0  0  0  0  0
  -22.4380  -14.7210   20.7660 O   0  0  0  0  0  0  0  0  0  0  0  0
  -22.6280  -12.1100   22.5010 H   0  0  0  0  0  0  0  0  0  0  0  0
  -21.3230  -13.2580   22.4250 H   0  0  0  0  0  0  0  0  0  0  0  0
  -25.4560  -15.3520   20.2460 N   0  0  0  0  0  0  0  0  0  0  0  0
  -24.7040  -16.0060   20.4390 H   0  0  0  0  0  0  0  0  0  0  0  0
  -26.2560  -15.7870   19.8080 H   0  0  0  0  0  0  0  0  0  0  0  0
  2  1  1  0
  3  5  1  0
  3  2  1  0
  4 15  2  0
  5 10  1  0
  6 14  1  0
  6 16  1  0
  7 13  1  0
  7  9  1  0
  8 14  1  0
  9  8  1  0
 10  9  2  0
 11  5  2  0
 12 11  1  0
 12  7  2  0
 13  6  1  0
 14  4  1  0
 16 18  2  0
 17 16  1  0
 19 17  1  0
 20 29  2  0
 20 25  1  0
 21 17  1  0
 21 25  1  0
 22 21  1  0
 23 24  1  0
 23 22  1  0
 24 20  1  0
 25 26  2  0
 26 27  1  0
 28 27  2  0
 29 28  1  0
 30  4  1  0
 30 31  1  0
 30 40  1  0
 31 34  1  0
 32 36  1  0
 32 31  1  0
 33 32  2  0
 36 35  1  0
 38 36  1  0
 38 39  1  0
 38 37  1  0
 40 43  1  1
 40 41  1  0
 42 40  1  0
 46 47  2  0
 47 45  2  0
 48 54  1  0
 48 56  1  0
 49 54  1  0
 50 51  1  0
 50 49  1  0
 52 51  1  0
 52 61  1  0
 52 53  1  0
 54 53  1  0
 55 48  2  0
 57 56  1  0
 58 59  2  0
 59 78  1  0
 60 59  1  0
 60 63  1  0
 61 62  1  0
 61 58  1  0
 62 60  2  0
 63 64  1  0
 64 65  2  0
 66 69  1  0
 66 65  1  0
 67 66  2  0
 68 67  1  0
 68 63  2  0
 69 70  1  0
 70 71  1  0
 71 72  2  0
 73 72  1  0
 73 77  1  0
 74 73  2  0
 75 70  2  0
 75 74  1  0
 76 75  1  0
 78 79  1  0
 79 82  1  0
 79 81  1  0
 80 78  2  0
 83 58  1  0
 83 84  1  0
 85 83  1  0
M  ISO  4   2 101   3 101  48 100  56 100
M  END
>  <TORSDO>  (51) 
F 18

>  <SCORE>  (51) 
-15.750

>  <name>  (51) 
50

>  <ligand_id>  (51) 
50

>  <original_smiles>  (51) 
[H]c1c([H])c([H])c2c(c1[H])C([H])([H])C([H])([H])C([H])([H])C2([H])N([H])C(=O)C1([H])N(C(=O)C([H])(N([H])C(=O)C([H])(N([H])C([H])([H])[H])C([H])([H])[H])C(C([H])([H])[H])(C([H])([H])[H])C([H])([H])[H])C([H])([H])c2c([H])c(OC([H])(C([H])([H])[H])C([H])([H])S(=O)(=O)N([H])C(=O)N3C([H])([H])C([H])([H])C([H])([H])C([H])(n4nc(-c5c([H])c([H])c(Oc6c([H])c([H])c(F)c([H])c6F)c([H])c5[H])c(C(=O)N([H])[H])c4N([H])[H])C3([H])[H])c([H])c([H])c2C1([H])[H]

>  <smiles>  (51) 
[H]c1c([H])c([H])c2c(c1[H])C([H])([H])C([H])([H])C([H])([H])C2([H])N([H])C(=O)C1([H])N(C(=O)C([H])(N([H])C(=O)C([H])(N([H])C([H])([H])[H])C([H])([H])[H])C(C([H])([H])[H])(C([H])([H])[H])C([H])([H])[H])C([H])([H])c2c([H])c(OC([H])(C([H])([H])[H])C([H])([H])S(=O)(=O)N([H])C(=O)N3C([H])([H])C([H])([H])C([H])([H])C([H])(n4nc(-c5c([H])c([H])c(Oc6c([H])c([H])c(F)c([H])c6F)c([H])c5[H])c(C(=O)N([H])[H])c4N([H])[H])C3([H])[H])c([H])c([H])c2C1([H])[H]

$$$$
51:0:0
     RDKit          3D

 97105  0  0  1  0  0  0  0  0999 V2000
  -29.4920  -20.9370   21.0080 C   0  0  0  0  0  0  0  0  0  0  0  0
  -29.2430  -21.9990   20.1920 N   0  0  0  0  0  0  0  0  0  0  0  0
  -29.4790  -21.0570   22.2350 O   0  0  0  0  0  0  0  0  0  0  0  0
  -29.1670  -21.7890   19.2040 H   0  0  0  0  0  0  0  0  0  0  0  0
  -30.8320  -14.6600   19.9980 C   0  0  0  0  0  0  0  0  0  0  0  0
  -30.5200  -12.4730   18.8880 C   0  0  0  0  0  2  0  0  0  0  0  0
  -29.4910  -12.6650   17.7530 C   0  0  0  0  0  2  0  0  0  0  0  0
  -28.0490  -12.5150   18.2770 C   0  0  0  0  0  2  0  0  0  0  0  0
  -27.7920  -13.3350   19.5690 C   0  0  0  0  0  3  0  0  0  0  0  0
  -28.9240  -13.1120   20.5970 C   0  0  0  0  0  2  0  0  0  0  0  0
  -30.2020  -13.4490   19.9460 N   0  0  0  0  0  0  0  0  0  0  0  0
  -31.9320  -14.8490   19.4670 O   0  0  0  0  0  0  0  0  0  0  0  0
  -29.8220  -19.5790   20.4370 C   0  0  0  0  0  0  0  0  0  0  0  0
  -30.5920  -19.1110   19.3850 C   0  0  0  0  0  0  0  0  0  0  0  0
  -30.1480  -17.0810   20.3770 C   0  0  0  0  0  0  0  0  0  0  0  0
  -30.7500  -17.7110   19.3530 N   0  0  0  0  0  0  0  0  0  0  0  0
  -30.1250  -15.6550   20.5850 N   0  0  0  0  0  0  0  0  0  0  0  0
  -29.2850  -18.2120   21.4220 S   0  0  0  0  0  0  0  0  0  0  0  0
  -29.3590  -15.3310   21.1520 H   0  0  0  0  0  0  0  0  0  0  0  0
  -25.4620  -13.9230   20.4890 C   0  0  0  0  0  0  0  0  0  0  0  0
  -24.4180  -13.1400   20.9050 C   0  0  0  0  0  0  0  0  0  0  0  0
  -24.8600  -11.7880   20.7710 C   0  0  0  0  0  0  0  0  0  0  0  0
  -26.4760  -13.0460   20.1360 N   0  0  0  0  0  0  0  0  0  0  0  0
  -26.1220  -11.7550   20.3620 N   0  0  0  0  0  0  0  0  0  0  0  0
  -24.1360  -10.5230   20.9550 C   0  0  0  0  0  0  0  0  0  0  0  0
  -24.5820   -9.5440   21.8700 C   0  0  0  0  0  3  0  0  0  0  0  0
  -23.8580   -8.3430   22.0410 C   0  0  0  0  0  3  0  0  0  0  0  0
  -22.6750   -8.1160   21.2990 C   0  0  0  0  0  0  0  0  0  0  0  0
  -22.2500   -9.0840   20.3730 C   0  0  0  0  0  3  0  0  0  0  0  0
  -22.9740  -10.2760   20.1990 C   0  0  0  0  0  3  0  0  0  0  0  0
  -21.9220   -6.9690   21.3810 O   0  0  0  0  0  0  0  0  0  0  0  0
  -21.8260   -6.2530   22.5480 C   0  0  0  0  0  0  0  0  0  0  0  0
  -21.2930   -6.8170   23.7270 C   0  0  0  0  0  3  0  0  0  0  0  0
  -21.1500   -6.0250   24.8840 C   0  0  0  0  0  3  0  0  0  0  0  0
  -21.5270   -4.6690   24.8600 C   0  0  0  0  0  0  0  0  0  0  0  0
  -22.0520   -4.1050   23.6850 C   0  0  0  0  0  3  0  0  0  0  0  0
  -22.1980   -4.8930   22.5310 C   0  0  0  0  0  0  0  0  0  0  0  0
  -22.6850   -4.3380   21.3950 F   0  0  0  0  0  0  0  0  0  0  0  0
  -21.3810   -3.9060   25.9690 F   0  0  0  0  0  0  0  0  0  0  0  0
  -23.0500  -13.6130   21.3080 C   0  0  0  0  0  0  0  0  0  0  0  0
  -22.3790  -12.8770   22.1870 N   0  0  0  0  0  0  0  0  0  0  0  0
  -22.5890  -14.6700   20.8790 O   0  0  0  0  0  0  0  0  0  0  0  0
  -22.7650  -12.0190   22.5550 H   0  0  0  0  0  0  0  0  0  0  0  0
  -21.4660  -13.1770   22.4960 H   0  0  0  0  0  0  0  0  0  0  0  0
  -25.6280  -15.2990   20.3630 N   0  0  0  0  0  0  0  0  0  0  0  0
  -24.8740  -15.9510   20.5530 H   0  0  0  0  0  0  0  0  0  0  0  0
  -26.4390  -15.7420   19.9510 H   0  0  0  0  0  0  0  0  0  0  0  0
  -31.2440  -19.8730   18.4100 N   0  0  0  0  0  0  0  0  0  0  0  0
  -31.3830  -20.8680   18.5470 H   0  0  0  0  0  0  0  0  0  0  0  0
  -31.9670  -19.4320   17.8510 H   0  0  0  0  0  0  0  0  0  0  0  0
  -28.3010  -23.7350   21.7990 C   0  0  0  0  0  1  0  0  0  0  0  0
  -30.5910  -23.9760   20.7320 C   0  0  0  0  0  1  0  0  0  0  0  0
  -29.1490  -23.4650   20.5290 C   0  0  1  0  0  0  0  0  0  0  0  0
  -28.4430  -24.2560   19.3810 C   0  0  0  0  0  0  0  0  0  0  0  0
  -27.5670  -23.6840   18.7230 O   0  0  0  0  0  0  0  0  0  0  0  0
  -28.8130  -25.7370   19.0300 C   0  0  0  0  0  2  0  0  0  0  0  0
  -28.5310  -26.7460   20.0370 O   0  0  0  0  0  0  0  0  0  0  0  0
  -24.6180  -31.8690   23.1450 C   0  0  0  0  0  0  0  0  0  0  0  0
  -27.3520  -27.4810   19.9940 C   0  0  0  0  0  0  0  0  0  0  0  0
  -23.4450  -30.4670   21.4800 C   0  0  0  0  0  3  0  0  0  0  0  0
  -24.9320  -28.9730   20.0330 C   0  0  0  0  0  0  0  0  0  0  0  0
  -25.9690  -30.8610   21.3050 C   0  0  0  0  0  2  0  0  0  0  0  0
  -26.0800  -29.4980   20.6390 C   0  0  0  0  0  0  0  0  0  0  0  0
  -27.2880  -28.7540   20.6250 C   0  0  0  0  0  3  0  0  0  0  0  0
  -26.1810  -26.9830   19.3810 C   0  0  0  0  0  3  0  0  0  0  0  0
  -24.9780  -27.7160   19.4020 C   0  0  0  0  0  3  0  0  0  0  0  0
  -23.6740  -29.8110   20.0920 C   0  0  0  0  0  2  0  0  0  0  0  0
  -24.6960  -31.0830   22.0340 N   0  0  0  0  0  0  0  0  0  0  0  0
  -23.5280  -32.1130   23.6840 O   0  0  0  0  0  0  0  0  0  0  0  0
  -22.8080  -29.4190   22.4250 C   0  0  0  0  0  0  0  0  0  0  0  0
  -21.4830  -29.2240   22.3040 N   0  0  0  0  0  0  0  0  0  0  0  0
  -23.5000  -28.7870   23.2270 O   0  0  0  0  0  0  0  0  0  0  0  0
  -20.9820  -29.7910   21.6340 H   0  0  0  0  0  0  0  0  0  0  0  0
  -18.1220  -27.9950   22.8160 C   0  0  0  0  0  0  0  0  0  0  0  0
  -20.6820  -28.2600   23.0580 C   0  0  0  0  0  3  0  0  0  0  0  0
  -20.7830  -26.8470   22.4390 C   0  0  0  0  0  2  0  0  0  0  0  0
  -19.6680  -26.5470   21.4300 C   0  0  0  0  0  2  0  0  0  0  0  0
  -18.2950  -26.6670   22.0990 C   0  0  0  0  0  2  0  0  0  0  0  0
  -19.2420  -28.7500   23.2520 C   0  0  0  0  0  0  0  0  0  0  0  0
  -19.0270  -29.9960   23.8810 C   0  0  0  0  0  3  0  0  0  0  0  0
  -17.7220  -30.4880   24.0760 C   0  0  0  0  0  3  0  0  0  0  0  0
  -16.6160  -29.7290   23.6560 C   0  0  0  0  0  3  0  0  0  0  0  0
  -16.8160  -28.4830   23.0350 C   0  0  0  0  0  3  0  0  0  0  0  0
  -25.8870  -32.5170   23.7800 C   0  0  0  0  0  3  0  0  0  0  0  0
  -26.4080  -31.7420   25.0530 C   0  0  1  0  0  0  0  0  0  0  0  0
  -25.3120  -31.4690   26.1100 C   0  0  0  0  0  1  0  0  0  0  0  0
  -27.0210  -30.3800   24.6510 C   0  0  0  0  0  1  0  0  0  0  0  0
  -27.5400  -32.5510   25.7310 C   0  0  0  0  0  1  0  0  0  0  0  0
  -25.5510  -33.9050   24.1200 N   0  0  0  0  0  0  0  0  0  0  0  0
  -25.8840  -34.9680   23.3750 C   0  0  0  0  0  0  0  0  0  0  0  0
  -26.5720  -34.8850   22.3540 O   0  0  0  0  0  0  0  0  0  0  0  0
  -24.9340  -34.0420   24.9060 H   0  0  0  0  0  0  0  0  0  0  0  0
  -24.1490  -36.7510   22.9950 C   0  0  0  0  0  1  0  0  0  0  0  0
  -25.3710  -36.3480   23.8350 C   0  0  0  0  0  3  0  0  0  0  0  0
  -27.4730  -37.2470   24.7360 C   0  0  0  0  0  1  0  0  0  0  0  0
  -26.3970  -37.4130   23.7610 N   0  0  0  0  0  0  0  0  0  0  0  0
  -25.9770  -38.3260   23.9080 H   0  0  0  0  0  0  0  0  0  0  0  0
  1  3  2  0
  2 53  1  0
  2  1  1  0
  4  2  1  0
  5 17  1  0
  6 11  1  0
  7  8  1  0
  7  6  1  0
  9  8  1  0
  9 23  1  0
  9 10  1  0
 11  5  1  0
 11 10  1  0
 12  5  2  0
 13  1  1  0
 13 18  1  0
 14 13  2  0
 15 17  1  0
 15 18  1  0
 16 14  1  0
 16 15  2  0
 17 19  1  0
 20 21  2  0
 21 40  1  0
 22 21  1  0
 22 25  1  0
 23 24  1  0
 23 20  1  0
 24 22  2  0
 25 26  1  0
 26 27  2  0
 28 31  1  0
 28 27  1  0
 29 28  2  0
 30 29  1  0
 30 25  2  0
 31 32  1  0
 32 33  1  0
 33 34  2  0
 35 34  1  0
 35 39  1  0
 36 35  2  0
 37 32  2  0
 37 36  1  0
 38 37  1  0
 40 41  1  0
 41 44  1  0
 41 43  1  0
 42 40  2  0
 45 20  1  0
 45 46  1  0
 47 45  1  0
 48 49  1  0
 48 14  1  0
 50 48  1  0
 53 52  1  1
 53 51  1  0
 54 53  1  0
 55 54  2  0
 56 54  1  0
 56 57  1  0
 58 69  2  0
 59 57  1  0
 59 64  1  0
 60 68  1  0
 60 70  1  0
 61 67  1  0
 61 63  1  0
 62 68  1  0
 63 62  1  0
 64 63  2  0
 65 66  1  0
 65 59  2  0
 66 61  2  0
 67 60  1  0
 68 58  1  0
 70 72  2  0
 71 70  1  0
 73 71  1  0
 74 83  2  0
 74 79  1  0
 75 71  1  0
 75 79  1  0
 76 75  1  0
 77 78  1  0
 77 76  1  0
 78 74  1  0
 79 80  2  0
 80 81  1  0
 82 81  2  0
 83 82  1  0
 84 58  1  0
 84 89  1  0
 84 85  1  0
 85 88  1  1
 85 86  1  0
 87 85  1  0
 89 92  1  0
 90 94  1  0
 90 89  1  0
 91 90  2  0
 94 93  1  0
 96 94  1  0
 96 97  1  0
 96 95  1  0
M  ISO  4   5 100  17 100  56 101  57 101
M  END
>  <TORSDO>  (52) 
F 20

>  <SCORE>  (52) 
-13.323

>  <name>  (52) 
51

>  <ligand_id>  (52) 
51

>  <original_smiles>  (52) 
[H]c1c([H])c([H])c2c(c1[H])C([H])([H])C([H])([H])C([H])([H])C2([H])N([H])C(=O)C1([H])N(C(=O)C([H])(N([H])C(=O)C([H])(N([H])C([H])([H])[H])C([H])([H])[H])C(C([H])([H])[H])(C([H])([H])[H])C([H])([H])[H])C([H])([H])c2c([H])c(OC([H])([H])C(=O)C(N([H])C(=O)c3sc(N([H])C(=O)N4C([H])([H])C([H])([H])C([H])([H])C([H])(n5nc(-c6c([H])c([H])c(Oc7c([H])c([H])c(F)c([H])c7F)c([H])c6[H])c(C(=O)N([H])[H])c5N([H])[H])C4([H])[H])nc3N([H])[H])(C([H])([H])[H])C([H])([H])[H])c([H])c([H])c2C1([H])[H]

>  <smiles>  (52) 
[H]c1c([H])c([H])c2c(c1[H])C([H])([H])C([H])([H])C([H])([H])C2([H])N([H])C(=O)C1([H])N(C(=O)C([H])(N([H])C(=O)C([H])(N([H])C([H])([H])[H])C([H])([H])[H])C(C([H])([H])[H])(C([H])([H])[H])C([H])([H])[H])C([H])([H])c2c([H])c(OC([H])([H])C(=O)C(N([H])C(=O)c3sc(N([H])C(=O)N4C([H])([H])C([H])([H])C([H])([H])C([H])(n5nc(-c6c([H])c([H])c(Oc7c([H])c([H])c(F)c([H])c7F)c([H])c6[H])c(C(=O)N([H])[H])c5N([H])[H])C4([H])[H])nc3N([H])[H])(C([H])([H])[H])C([H])([H])[H])c([H])c([H])c2C1([H])[H]

$$$$
52:0:0
     RDKit          3D

 94102  0  0  1  0  0  0  0  0999 V2000
  -30.5670  -14.8170   20.4230 C   0  0  0  0  0  0  0  0  0  0  0  0
  -30.3830  -12.5140   19.4620 C   0  0  0  0  0  2  0  0  0  0  0  0
  -29.4730  -12.5650   18.2150 C   0  0  0  0  0  2  0  0  0  0  0  0
  -27.9950  -12.4000   18.6170 C   0  0  0  0  0  2  0  0  0  0  0  0
  -27.5970  -13.3040   19.8160 C   0  0  0  0  0  3  0  0  0  0  0  0
  -28.6330  -13.2420   20.9560 C   0  0  0  0  0  2  0  0  0  0  0  0
  -29.9360  -13.5890   20.3800 N   0  0  0  0  0  0  0  0  0  0  0  0
  -31.7830  -14.8460   20.2090 O   0  0  0  0  0  0  0  0  0  0  0  0
  -31.0820  -18.8870   18.5160 C   0  0  0  0  0  3  0  0  0  0  0  0
  -30.8560  -17.5820   18.9690 C   0  0  0  0  0  0  0  0  0  0  0  0
  -30.0070  -17.3900   20.0840 C   0  0  0  0  0  0  0  0  0  0  0  0
  -29.6300  -19.8090   20.0400 C   0  0  0  0  0  0  0  0  0  0  0  0
  -29.3520  -22.3580   20.3830 C   0  0  0  0  0  0  0  0  0  0  0  0
  -30.4860  -19.9700   19.0400 N   0  0  0  0  0  0  0  0  0  0  0  0
  -29.3620  -18.5530   20.5620 N   0  0  0  0  0  0  0  0  0  0  0  0
  -29.7950  -15.9790   20.5570 N   0  0  0  0  0  0  0  0  0  0  0  0
  -28.9220  -21.0220   20.3850 N   0  0  0  0  0  0  0  0  0  0  0  0
  -30.5510  -22.5910   20.5630 O   0  0  0  0  0  0  0  0  0  0  0  0
  -31.4160  -16.5550   18.2860 F   0  0  0  0  0  0  0  0  0  0  0  0
  -28.8720  -15.8110   20.9210 H   0  0  0  0  0  0  0  0  0  0  0  0
  -27.9280  -20.8930   20.4950 H   0  0  0  0  0  0  0  0  0  0  0  0
  -25.2040  -13.9020   20.5100 C   0  0  0  0  0  0  0  0  0  0  0  0
  -24.1340  -13.1320   20.8720 C   0  0  0  0  0  0  0  0  0  0  0  0
  -24.5960  -11.7800   20.8580 C   0  0  0  0  0  0  0  0  0  0  0  0
  -26.2490  -13.0200   20.2920 N   0  0  0  0  0  0  0  0  0  0  0  0
  -25.8890  -11.7390   20.5680 N   0  0  0  0  0  0  0  0  0  0  0  0
  -23.8640  -10.5210   21.0460 C   0  0  0  0  0  0  0  0  0  0  0  0
  -24.2890   -9.5540   21.9850 C   0  0  0  0  0  3  0  0  0  0  0  0
  -23.5570   -8.3590   22.1620 C   0  0  0  0  0  3  0  0  0  0  0  0
  -22.3880   -8.1230   21.4000 C   0  0  0  0  0  0  0  0  0  0  0  0
  -21.9850   -9.0790   20.4510 C   0  0  0  0  0  3  0  0  0  0  0  0
  -22.7150  -10.2640   20.2720 C   0  0  0  0  0  3  0  0  0  0  0  0
  -21.6290   -6.9800   21.4850 O   0  0  0  0  0  0  0  0  0  0  0  0
  -21.5740   -6.2370   22.6360 C   0  0  0  0  0  0  0  0  0  0  0  0
  -21.1590   -6.7950   23.8650 C   0  0  0  0  0  3  0  0  0  0  0  0
  -21.0510   -5.9800   25.0090 C   0  0  0  0  0  3  0  0  0  0  0  0
  -21.3470   -4.6060   24.9250 C   0  0  0  0  0  0  0  0  0  0  0  0
  -21.7570   -4.0470   23.7010 C   0  0  0  0  0  3  0  0  0  0  0  0
  -21.8680   -4.8610   22.5590 C   0  0  0  0  0  0  0  0  0  0  0  0
  -22.2420   -4.3130   21.3780 F   0  0  0  0  0  0  0  0  0  0  0  0
  -21.2380   -3.8190   26.0210 F   0  0  0  0  0  0  0  0  0  0  0  0
  -22.7320  -13.6130   21.1150 C   0  0  0  0  0  0  0  0  0  0  0  0
  -21.9880  -12.9260   21.9730 N   0  0  0  0  0  0  0  0  0  0  0  0
  -22.3050  -14.6340   20.5750 O   0  0  0  0  0  0  0  0  0  0  0  0
  -22.3460  -12.1020   22.4320 H   0  0  0  0  0  0  0  0  0  0  0  0
  -21.0450  -13.2290   22.1720 H   0  0  0  0  0  0  0  0  0  0  0  0
  -25.3700  -15.2710   20.3230 N   0  0  0  0  0  0  0  0  0  0  0  0
  -24.5960  -15.9190   20.4140 H   0  0  0  0  0  0  0  0  0  0  0  0
  -26.2030  -15.7060   19.9480 H   0  0  0  0  0  0  0  0  0  0  0  0
  -28.4030  -23.6580   20.1340 C   0  0  0  0  0  2  0  0  0  0  0  0
  -29.8870  -25.2810   21.5800 C   0  0  0  0  0  1  0  0  0  0  0  0
  -27.4840  -25.0550   22.1150 C   0  0  0  0  0  1  0  0  0  0  0  0
  -28.4940  -25.0970   20.9480 C   0  0  2  0  0  0  0  0  0  0  0  0
  -28.4050  -26.4370   20.2410 O   0  0  0  0  0  0  0  0  0  0  0  0
  -24.6270  -31.8970   23.2460 C   0  0  0  0  0  0  0  0  0  0  0  0
  -27.2780  -27.2900   20.2600 C   0  0  0  0  0  0  0  0  0  0  0  0
  -23.4450  -30.4790   21.6070 C   0  0  0  0  0  3  0  0  0  0  0  0
  -24.9130  -28.9160   20.2050 C   0  0  0  0  0  0  0  0  0  0  0  0
  -25.9830  -30.8050   21.4370 C   0  0  0  0  0  2  0  0  0  0  0  0
  -26.0770  -29.4150   20.8070 C   0  0  0  0  0  0  0  0  0  0  0  0
  -27.2660  -28.6160   20.8150 C   0  0  0  0  0  3  0  0  0  0  0  0
  -26.0960  -26.8530   19.6330 C   0  0  0  0  0  3  0  0  0  0  0  0
  -24.9280  -27.6440   19.6060 C   0  0  0  0  0  3  0  0  0  0  0  0
  -23.6730  -29.7890   20.2350 C   0  0  0  0  0  2  0  0  0  0  0  0
  -24.7040  -31.0800   22.1530 N   0  0  0  0  0  0  0  0  0  0  0  0
  -23.5390  -32.1700   23.7730 O   0  0  0  0  0  0  0  0  0  0  0  0
  -22.7800  -29.4690   22.5730 C   0  0  0  0  0  0  0  0  0  0  0  0
  -21.4530  -29.2890   22.4450 N   0  0  0  0  0  0  0  0  0  0  0  0
  -23.4570  -28.8470   23.3970 O   0  0  0  0  0  0  0  0  0  0  0  0
  -20.9660  -29.8400   21.7520 H   0  0  0  0  0  0  0  0  0  0  0  0
  -18.0790  -28.0840   22.9460 C   0  0  0  0  0  0  0  0  0  0  0  0
  -20.6360  -28.3520   23.2170 C   0  0  0  0  0  3  0  0  0  0  0  0
  -20.7430  -26.9200   22.6460 C   0  0  0  0  0  2  0  0  0  0  0  0
  -19.6430  -26.5910   21.6310 C   0  0  0  0  0  2  0  0  0  0  0  0
  -18.2600  -26.7330   22.2730 C   0  0  0  0  0  2  0  0  0  0  0  0
  -19.1950  -28.8500   23.3760 C   0  0  0  0  0  0  0  0  0  0  0  0
  -18.9710  -30.1130   23.9650 C   0  0  0  0  0  3  0  0  0  0  0  0
  -17.6650  -30.6100   24.1310 C   0  0  0  0  0  3  0  0  0  0  0  0
  -16.5630  -29.8410   23.7170 C   0  0  0  0  0  3  0  0  0  0  0  0
  -16.7710  -28.5800   23.1310 C   0  0  0  0  0  3  0  0  0  0  0  0
  -25.9020  -32.5420   23.8740 C   0  0  0  0  0  3  0  0  0  0  0  0
  -25.5780  -33.9390   24.2010 N   0  0  0  0  0  0  0  0  0  0  0  0
  -25.9000  -34.9940   23.4390 C   0  0  0  0  0  0  0  0  0  0  0  0
  -26.5670  -34.8940   22.4070 O   0  0  0  0  0  0  0  0  0  0  0  0
  -24.9840  -34.0900   25.0030 H   0  0  0  0  0  0  0  0  0  0  0  0
  -24.1490  -36.7690   23.0930 C   0  0  0  0  0  1  0  0  0  0  0  0
  -25.4020  -36.3810   23.8950 C   0  0  0  0  0  3  0  0  0  0  0  0
  -27.5350  -37.2930   24.7010 C   0  0  0  0  0  1  0  0  0  0  0  0
  -26.4220  -37.4440   23.7660 N   0  0  0  0  0  0  0  0  0  0  0  0
  -26.0080  -38.3610   23.9100 H   0  0  0  0  0  0  0  0  0  0  0  0
  -26.4150  -31.7790   25.1570 C   0  0  1  0  0  0  0  0  0  0  0  0
  -25.3160  -31.5400   26.2190 C   0  0  0  0  0  1  0  0  0  0  0  0
  -27.0060  -30.4020   24.7760 C   0  0  0  0  0  1  0  0  0  0  0  0
  -27.5570  -32.5820   25.8220 C   0  0  0  0  0  1  0  0  0  0  0  0
  1 16  1  0
  2  7  1  0
  3  4  1  0
  3  2  1  0
  5  4  1  0
  5 25  1  0
  5  6  1  0
  7  1  1  0
  7  6  1  0
  8  1  2  0
  9 10  2  0
  9 14  1  0
 10 11  1  0
 11 16  1  0
 11 15  2  0
 12 17  1  0
 12 15  1  0
 13 17  1  0
 13 18  2  0
 14 12  2  0
 16 20  1  0
 17 21  1  0
 19 10  1  0
 22 23  2  0
 23 42  1  0
 24 23  1  0
 24 27  1  0
 25 22  1  0
 25 26  1  0
 26 24  2  0
 27 28  1  0
 28 29  2  0
 30 33  1  0
 30 29  1  0
 31 30  2  0
 32 31  1  0
 32 27  2  0
 33 34  1  0
 34 35  1  0
 35 36  2  0
 37 36  1  0
 37 41  1  0
 38 37  2  0
 39 34  2  0
 39 38  1  0
 40 39  1  0
 42 43  1  0
 43 46  1  0
 43 45  1  0
 44 42  2  0
 47 48  1  0
 47 22  1  0
 49 47  1  0
 50 13  1  0
 50 53  1  0
 53 51  1  1
 53 52  1  0
 54 56  1  0
 54 53  1  0
 55 66  2  0
 56 61  1  0
 57 65  1  0
 57 67  1  0
 58 64  1  0
 58 60  1  0
 59 65  1  0
 60 61  2  0
 60 59  1  0
 62 56  2  0
 63 62  1  0
 63 58  2  0
 64 57  1  0
 65 55  1  0
 67 69  2  0
 68 67  1  0
 70 68  1  0
 71 80  2  0
 71 76  1  0
 72 68  1  0
 72 76  1  0
 73 72  1  0
 74 75  1  0
 74 73  1  0
 75 71  1  0
 76 77  2  0
 77 78  1  0
 79 78  2  0
 80 79  1  0
 81 55  1  0
 81 82  1  0
 81 91  1  0
 82 85  1  0
 83 87  1  0
 83 82  1  0
 84 83  2  0
 87 86  1  0
 89 87  1  0
 89 90  1  0
 89 88  1  0
 91 94  1  1
 91 92  1  0
 93 91  1  0
M  ISO  4   1 100  16 100  53 101  54 101
M  END
>  <TORSDO>  (53) 
F 17

>  <SCORE>  (53) 
-15.324

>  <name>  (53) 
52

>  <ligand_id>  (53) 
52

>  <original_smiles>  (53) 
[H]c1nc(N([H])C(=O)C([H])([H])C(Oc2c([H])c([H])c3c(c2[H])C([H])([H])N(C(=O)C([H])(N([H])C(=O)C([H])(N([H])C([H])([H])[H])C([H])([H])[H])C(C([H])([H])[H])(C([H])([H])[H])C([H])([H])[H])C([H])(C(=O)N([H])C2([H])c4c([H])c([H])c([H])c([H])c4C([H])([H])C([H])([H])C2([H])[H])C3([H])[H])(C([H])([H])[H])C([H])([H])[H])nc(N([H])C(=O)N2C([H])([H])C([H])([H])C([H])([H])C([H])(n3nc(-c4c([H])c([H])c(Oc5c([H])c([H])c(F)c([H])c5F)c([H])c4[H])c(C(=O)N([H])[H])c3N([H])[H])C2([H])[H])c1F

>  <smiles>  (53) 
[H]c1nc(N([H])C(=O)C([H])([H])C(Oc2c([H])c([H])c3c(c2[H])C([H])([H])N(C(=O)C([H])(N([H])C(=O)C([H])(N([H])C([H])([H])[H])C([H])([H])[H])C(C([H])([H])[H])(C([H])([H])[H])C([H])([H])[H])C([H])(C(=O)N([H])C2([H])c4c([H])c([H])c([H])c([H])c4C([H])([H])C([H])([H])C2([H])[H])C3([H])[H])(C([H])([H])[H])C([H])([H])[H])nc(N([H])C(=O)N2C([H])([H])C([H])([H])C([H])([H])C([H])(n3nc(-c4c([H])c([H])c(Oc5c([H])c([H])c(F)c([H])c5F)c([H])c4[H])c(C(=O)N([H])[H])c3N([H])[H])C2([H])[H])c1F

$$$$
53:0:0
     RDKit          3D

 97105  0  0  1  0  0  0  0  0999 V2000
  -28.7720  -20.8390   20.5750 C   0  0  0  0  0  2  0  0  0  0  0  0
  -30.6150  -14.7150   20.0610 C   0  0  0  0  0  0  0  0  0  0  0  0
  -30.2960  -12.5310   18.9260 C   0  0  0  0  0  2  0  0  0  0  0  0
  -29.2830  -12.7080   17.7760 C   0  0  0  0  0  2  0  0  0  0  0  0
  -27.8420  -12.5260   18.2920 C   0  0  0  0  0  2  0  0  0  0  0  0
  -27.5590  -13.3490   19.5780 C   0  0  0  0  0  3  0  0  0  0  0  0
  -28.6850  -13.1750   20.6210 C   0  0  0  0  0  2  0  0  0  0  0  0
  -29.9540  -13.5210   19.9660 N   0  0  0  0  0  0  0  0  0  0  0  0
  -31.7510  -14.8390   19.5930 O   0  0  0  0  0  0  0  0  0  0  0  0
  -29.3460  -18.2430   20.5290 C   0  0  0  0  0  3  0  0  0  0  0  0
  -29.7290  -19.6130   20.7390 C   0  0  0  0  0  0  0  0  0  0  0  0
  -31.0610  -19.8420   21.1290 C   0  0  0  0  0  0  0  0  0  0  0  0
  -30.2930  -17.1720   20.6750 C   0  0  0  0  0  0  0  0  0  0  0  0
  -31.9270  -18.7430   21.2590 C   0  0  0  0  0  0  0  0  0  0  0  0
  -31.5640  -17.4650   21.0480 N   0  0  0  0  0  0  0  0  0  0  0  0
  -29.8780  -15.7940   20.4740 N   0  0  0  0  0  0  0  0  0  0  0  0
  -31.5080  -21.0970   21.3870 F   0  0  0  0  0  0  0  0  0  0  0  0
  -28.9080  -15.5990   20.6530 H   0  0  0  0  0  0  0  0  0  0  0  0
  -25.2140  -13.9090   20.4660 C   0  0  0  0  0  0  0  0  0  0  0  0
  -24.1780  -13.1160   20.8790 C   0  0  0  0  0  0  0  0  0  0  0  0
  -24.6440  -11.7700   20.7790 C   0  0  0  0  0  0  0  0  0  0  0  0
  -26.2460  -13.0440   20.1380 N   0  0  0  0  0  0  0  0  0  0  0  0
  -25.9120  -11.7510   20.3860 N   0  0  0  0  0  0  0  0  0  0  0  0
  -23.9370  -10.4980   20.9770 C   0  0  0  0  0  0  0  0  0  0  0  0
  -24.4040   -9.5290   21.8910 C   0  0  0  0  0  3  0  0  0  0  0  0
  -23.6980   -8.3200   22.0790 C   0  0  0  0  0  3  0  0  0  0  0  0
  -22.5100   -8.0740   21.3500 C   0  0  0  0  0  0  0  0  0  0  0  0
  -22.0620   -9.0320   20.4250 C   0  0  0  0  0  3  0  0  0  0  0  0
  -22.7690  -10.2310   20.2360 C   0  0  0  0  0  3  0  0  0  0  0  0
  -21.7740   -6.9190   21.4470 O   0  0  0  0  0  0  0  0  0  0  0  0
  -21.7230   -6.1910   22.6100 C   0  0  0  0  0  0  0  0  0  0  0  0
  -21.2540   -6.7510   23.8180 C   0  0  0  0  0  3  0  0  0  0  0  0
  -21.1530   -5.9480   24.9720 C   0  0  0  0  0  3  0  0  0  0  0  0
  -21.5120   -4.5880   24.9200 C   0  0  0  0  0  0  0  0  0  0  0  0
  -21.9750   -4.0280   23.7150 C   0  0  0  0  0  3  0  0  0  0  0  0
  -22.0760   -4.8280   22.5630 C   0  0  0  0  0  0  0  0  0  0  0  0
  -22.5020   -4.2780   21.4000 F   0  0  0  0  0  0  0  0  0  0  0  0
  -21.4080   -3.8160   26.0260 F   0  0  0  0  0  0  0  0  0  0  0  0
  -22.7970  -13.5760   21.2530 C   0  0  0  0  0  0  0  0  0  0  0  0
  -22.1270  -12.8490   22.1380 N   0  0  0  0  0  0  0  0  0  0  0  0
  -22.3230  -14.6150   20.7930 O   0  0  0  0  0  0  0  0  0  0  0  0
  -22.5240  -12.0100   22.5350 H   0  0  0  0  0  0  0  0  0  0  0  0
  -21.2030  -13.1360   22.4280 H   0  0  0  0  0  0  0  0  0  0  0  0
  -25.3560  -15.2850   20.3180 N   0  0  0  0  0  0  0  0  0  0  0  0
  -24.5830  -15.9200   20.4870 H   0  0  0  0  0  0  0  0  0  0  0  0
  -26.1570  -15.7400   19.9000 H   0  0  0  0  0  0  0  0  0  0  0  0
  -33.2460  -18.9420   21.6360 N   0  0  0  0  0  0  0  0  0  0  0  0
  -33.4460  -19.8550   22.0280 H   0  0  0  0  0  0  0  0  0  0  0  0
  -33.7180  -18.1770   22.1000 H   0  0  0  0  0  0  0  0  0  0  0  0
  -29.1740  -23.3110   19.8370 C   0  0  0  0  0  0  0  0  0  0  0  0
  -29.8720  -21.4310   18.4480 C   0  0  0  0  0  1  0  0  0  0  0  0
  -29.2460  -21.9410   19.6770 N   0  0  0  0  0  0  0  0  0  0  0  0
  -29.8670  -24.0510   19.1320 O   0  0  0  0  0  0  0  0  0  0  0  0
  -26.7220  -23.7450   20.3770 C   0  0  0  0  0  1  0  0  0  0  0  0
  -28.1730  -24.0170   20.8060 C   0  0  0  0  0  3  0  0  0  0  0  0
  -28.4370  -25.5610   21.1320 C   0  0  0  0  0  2  0  0  0  0  0  0
  -28.3110  -26.6340   20.1450 O   0  0  0  0  0  0  0  0  0  0  0  0
  -24.5740  -31.9560   23.2690 C   0  0  0  0  0  0  0  0  0  0  0  0
  -27.1840  -27.4450   20.1990 C   0  0  0  0  0  0  0  0  0  0  0  0
  -23.3640  -30.5610   21.6260 C   0  0  0  0  0  3  0  0  0  0  0  0
  -24.8120  -29.0140   20.2010 C   0  0  0  0  0  0  0  0  0  0  0  0
  -25.8980  -30.8940   21.4350 C   0  0  0  0  0  2  0  0  0  0  0  0
  -25.9790  -29.5150   20.7960 C   0  0  0  0  0  0  0  0  0  0  0  0
  -27.1700  -28.7390   20.7920 C   0  0  0  0  0  3  0  0  0  0  0  0
  -26.0050  -26.9870   19.5790 C   0  0  0  0  0  3  0  0  0  0  0  0
  -24.8230  -27.7510   19.5860 C   0  0  0  0  0  3  0  0  0  0  0  0
  -23.5740  -29.8850   20.2460 C   0  0  0  0  0  2  0  0  0  0  0  0
  -24.6310  -31.1530   22.1670 N   0  0  0  0  0  0  0  0  0  0  0  0
  -23.4940  -32.2310   23.8100 O   0  0  0  0  0  0  0  0  0  0  0  0
  -22.7080  -29.5400   22.5870 C   0  0  0  0  0  0  0  0  0  0  0  0
  -21.3840  -29.3520   22.4530 N   0  0  0  0  0  0  0  0  0  0  0  0
  -23.3880  -28.9220   23.4110 O   0  0  0  0  0  0  0  0  0  0  0  0
  -20.8950  -29.9020   21.7620 H   0  0  0  0  0  0  0  0  0  0  0  0
  -18.0170  -28.1220   22.9250 C   0  0  0  0  0  0  0  0  0  0  0  0
  -20.5690  -28.4100   23.2220 C   0  0  0  0  0  3  0  0  0  0  0  0
  -20.6930  -26.9760   22.6590 C   0  0  0  0  0  2  0  0  0  0  0  0
  -19.6070  -26.6330   21.6360 C   0  0  0  0  0  2  0  0  0  0  0  0
  -18.2160  -26.7680   22.2620 C   0  0  0  0  0  2  0  0  0  0  0  0
  -19.1230  -28.8990   23.3620 C   0  0  0  0  0  0  0  0  0  0  0  0
  -18.8830  -30.1640   23.9410 C   0  0  0  0  0  3  0  0  0  0  0  0
  -17.5710  -30.6530   24.0860 C   0  0  0  0  0  3  0  0  0  0  0  0
  -16.4800  -29.8730   23.6660 C   0  0  0  0  0  3  0  0  0  0  0  0
  -16.7040  -28.6080   23.0920 C   0  0  0  0  0  3  0  0  0  0  0  0
  -25.8610  -32.5850   23.8890 C   0  0  0  0  0  3  0  0  0  0  0  0
  -26.3750  -31.8170   25.1690 C   0  0  1  0  0  0  0  0  0  0  0  0
  -25.2790  -31.5900   26.2360 C   0  0  0  0  0  1  0  0  0  0  0  0
  -26.9510  -30.4350   24.7830 C   0  0  0  0  0  1  0  0  0  0  0  0
  -27.5280  -32.6090   25.8280 C   0  0  0  0  0  1  0  0  0  0  0  0
  -25.5590  -33.9850   24.2130 N   0  0  0  0  0  0  0  0  0  0  0  0
  -25.8950  -35.0320   23.4460 C   0  0  0  0  0  0  0  0  0  0  0  0
  -26.5640  -34.9210   22.4150 O   0  0  0  0  0  0  0  0  0  0  0  0
  -24.9710  -34.1480   25.0160 H   0  0  0  0  0  0  0  0  0  0  0  0
  -24.1820  -36.8340   23.0730 C   0  0  0  0  0  1  0  0  0  0  0  0
  -25.4140  -36.4250   23.8960 C   0  0  0  0  0  3  0  0  0  0  0  0
  -27.5470  -37.3000   24.7410 C   0  0  0  0  0  1  0  0  0  0  0  0
  -26.4540  -37.4710   23.7860 N   0  0  0  0  0  0  0  0  0  0  0  0
  -26.0520  -38.3950   23.9260 H   0  0  0  0  0  0  0  0  0  0  0  0
  1 11  1  0
  2 16  1  0
  3  8  1  0
  4  5  1  0
  4  3  1  0
  6  5  1  0
  6 22  1  0
  6  7  1  0
  8  2  1  0
  8  7  1  0
  9  2  2  0
 10 13  2  0
 10 11  1  0
 11 12  2  0
 12 14  1  0
 12 17  1  0
 13 15  1  0
 14 47  1  0
 15 14  2  0
 16 18  1  0
 16 13  1  0
 19 20  2  0
 20 39  1  0
 21 20  1  0
 21 24  1  0
 22 23  1  0
 22 19  1  0
 23 21  2  0
 24 25  1  0
 25 26  2  0
 27 30  1  0
 27 26  1  0
 28 27  2  0
 29 28  1  0
 29 24  2  0
 30 31  1  0
 31 32  1  0
 32 33  2  0
 34 33  1  0
 34 38  1  0
 35 34  2  0
 36 31  2  0
 36 35  1  0
 37 36  1  0
 39 40  1  0
 40 43  1  0
 40 42  1  0
 41 39  2  0
 44 19  1  0
 44 45  1  0
 46 44  1  0
 47 48  1  0
 47 49  1  0
 50 55  1  0
 51 52  1  0
 52 50  1  0
 52  1  1  0
 53 50  2  0
 55 54  1  0
 55 56  1  0
 57 59  1  0
 57 56  1  0
 58 69  2  0
 59 64  1  0
 60 68  1  0
 60 70  1  0
 61 67  1  0
 61 63  1  0
 62 68  1  0
 63 62  1  0
 64 63  2  0
 65 66  1  0
 65 59  2  0
 66 61  2  0
 67 60  1  0
 68 58  1  0
 70 72  2  0
 71 70  1  0
 73 71  1  0
 74 83  2  0
 74 79  1  0
 75 71  1  0
 75 79  1  0
 76 75  1  0
 77 78  1  0
 77 76  1  0
 78 74  1  0
 79 80  2  0
 80 81  1  0
 82 81  2  0
 83 82  1  0
 84 58  1  0
 84 89  1  0
 84 85  1  0
 85 88  1  1
 85 86  1  0
 87 85  1  0
 89 92  1  0
 90 94  1  0
 90 89  1  0
 91 90  2  0
 94 93  1  0
 96 94  1  0
 96 97  1  0
 96 95  1  0
M  ISO  4   2 100  16 100  56 101  57 101
M  END
>  <TORSDO>  (54) 
F 20

>  <SCORE>  (54) 
-14.277

>  <name>  (54) 
53

>  <ligand_id>  (54) 
53

>  <original_smiles>  (54) 
[H]c1c([H])c([H])c2c(c1[H])C([H])([H])C([H])([H])C([H])([H])C2([H])N([H])C(=O)C1([H])N(C(=O)C([H])(N([H])C(=O)C([H])(N([H])C([H])([H])[H])C([H])([H])[H])C(C([H])([H])[H])(C([H])([H])[H])C([H])([H])[H])C([H])([H])c2c([H])c(OC([H])([H])C([H])(C(=O)N(C([H])([H])[H])C([H])([H])c3c([H])c(N([H])C(=O)N4C([H])([H])C([H])([H])C([H])([H])C([H])(n5nc(-c6c([H])c([H])c(Oc7c([H])c([H])c(F)c([H])c7F)c([H])c6[H])c(C(=O)N([H])[H])c5N([H])[H])C4([H])[H])nc(N([H])[H])c3F)C([H])([H])[H])c([H])c([H])c2C1([H])[H]

>  <smiles>  (54) 
[H]c1c([H])c([H])c2c(c1[H])C([H])([H])C([H])([H])C([H])([H])C2([H])N([H])C(=O)C1([H])N(C(=O)C([H])(N([H])C(=O)C([H])(N([H])C([H])([H])[H])C([H])([H])[H])C(C([H])([H])[H])(C([H])([H])[H])C([H])([H])[H])C([H])([H])c2c([H])c(OC([H])([H])C([H])(C(=O)N(C([H])([H])[H])C([H])([H])c3c([H])c(N([H])C(=O)N4C([H])([H])C([H])([H])C([H])([H])C([H])(n5nc(-c6c([H])c([H])c(Oc7c([H])c([H])c(F)c([H])c7F)c([H])c6[H])c(C(=O)N([H])[H])c5N([H])[H])C4([H])[H])nc(N([H])[H])c3F)C([H])([H])[H])c([H])c([H])c2C1([H])[H]

$$$$
54:0:0
     RDKit          3D

 93101  0  0  1  0  0  0  0  0999 V2000
  -28.7280  -19.2900   21.1940 C   0  0  0  0  0  3  0  0  0  0  0  0
  -30.7550  -17.8670   20.0040 C   0  0  0  0  0  3  0  0  0  0  0  0
  -29.8300  -17.1130   20.7700 C   0  0  0  0  0  0  0  0  0  0  0  0
  -28.8020  -17.8830   21.3660 C   0  0  0  0  0  0  0  0  0  0  0  0
  -29.6980  -19.9590   20.4190 C   0  0  0  0  0  0  0  0  0  0  0  0
  -30.6870  -19.2280   19.8380 N   0  0  0  0  0  0  0  0  0  0  0  0
  -29.7180  -21.3730   20.1820 N   0  0  0  0  0  0  0  0  0  0  0  0
  -27.8590  -17.2520   22.1070 F   0  0  0  0  0  0  0  0  0  0  0  0
  -30.4310  -21.7310   19.5530 H   0  0  0  0  0  0  0  0  0  0  0  0
  -30.6100  -14.6450   20.5090 C   0  0  0  0  0  0  0  0  0  0  0  0
  -30.4450  -12.3970   19.4540 C   0  0  0  0  0  2  0  0  0  0  0  0
  -29.5120  -12.5150   18.2270 C   0  0  0  0  0  2  0  0  0  0  0  0
  -28.0350  -12.3510   18.6380 C   0  0  0  0  0  2  0  0  0  0  0  0
  -27.6580  -13.2160   19.8700 C   0  0  0  0  0  3  0  0  0  0  0  0
  -28.7020  -13.0570   20.9990 C   0  0  0  0  0  2  0  0  0  0  0  0
  -30.0200  -13.4090   20.4420 N   0  0  0  0  0  0  0  0  0  0  0  0
  -31.7520  -14.8420   20.0850 O   0  0  0  0  0  0  0  0  0  0  0  0
  -29.8090  -15.6600   20.9540 N   0  0  0  0  0  0  0  0  0  0  0  0
  -28.9620  -15.3260   21.3900 H   0  0  0  0  0  0  0  0  0  0  0  0
  -25.2570  -13.8160   20.5680 C   0  0  0  0  0  0  0  0  0  0  0  0
  -24.1830  -13.0430   20.9180 C   0  0  0  0  0  0  0  0  0  0  0  0
  -24.6400  -11.6900   20.8730 C   0  0  0  0  0  0  0  0  0  0  0  0
  -26.3010  -12.9340   20.3350 N   0  0  0  0  0  0  0  0  0  0  0  0
  -25.9330  -11.6490   20.5760 N   0  0  0  0  0  0  0  0  0  0  0  0
  -23.9060  -10.4280   21.0400 C   0  0  0  0  0  0  0  0  0  0  0  0
  -24.3610   -9.4200   21.9180 C   0  0  0  0  0  3  0  0  0  0  0  0
  -23.6290   -8.2240   22.0750 C   0  0  0  0  0  3  0  0  0  0  0  0
  -22.4270   -8.0270   21.3540 C   0  0  0  0  0  0  0  0  0  0  0  0
  -21.9910   -9.0250   20.4650 C   0  0  0  0  0  3  0  0  0  0  0  0
  -22.7240  -10.2130   20.3050 C   0  0  0  0  0  3  0  0  0  0  0  0
  -21.6640   -6.8870   21.4240 O   0  0  0  0  0  0  0  0  0  0  0  0
  -21.6860   -6.0730   22.5270 C   0  0  0  0  0  0  0  0  0  0  0  0
  -21.4020   -6.5630   23.8210 C   0  0  0  0  0  3  0  0  0  0  0  0
  -21.3660   -5.6790   24.9170 C   0  0  0  0  0  3  0  0  0  0  0  0
  -21.6050   -4.3050   24.7230 C   0  0  0  0  0  0  0  0  0  0  0  0
  -21.8820   -3.8140   23.4350 C   0  0  0  0  0  3  0  0  0  0  0  0
  -21.9190   -4.6960   22.3400 C   0  0  0  0  0  0  0  0  0  0  0  0
  -22.1660   -4.2140   21.0980 F   0  0  0  0  0  0  0  0  0  0  0  0
  -21.5630   -3.4540   25.7740 F   0  0  0  0  0  0  0  0  0  0  0  0
  -22.7850  -13.5220   21.1840 C   0  0  0  0  0  0  0  0  0  0  0  0
  -22.0490  -12.8220   22.0400 N   0  0  0  0  0  0  0  0  0  0  0  0
  -22.3540  -14.5530   20.6700 O   0  0  0  0  0  0  0  0  0  0  0  0
  -22.4100  -11.9880   22.4800 H   0  0  0  0  0  0  0  0  0  0  0  0
  -21.1110  -13.1250   22.2590 H   0  0  0  0  0  0  0  0  0  0  0  0
  -25.4280  -15.1880   20.4080 N   0  0  0  0  0  0  0  0  0  0  0  0
  -24.6650  -15.8450   20.5290 H   0  0  0  0  0  0  0  0  0  0  0  0
  -26.2850  -15.6310   20.1040 H   0  0  0  0  0  0  0  0  0  0  0  0
  -29.1680  -22.4910   22.3410 C   0  0  0  0  0  1  0  0  0  0  0  0
  -28.8770  -22.4350   20.8270 C   0  0  0  0  0  3  0  0  0  0  0  0
  -29.0480  -23.9140   20.2190 C   0  0  0  0  0  0  0  0  0  0  0  0
  -29.9720  -24.1700   19.4410 O   0  0  0  0  0  0  0  0  0  0  0  0
  -28.0350  -25.0640   20.6230 C   0  0  0  0  0  2  0  0  0  0  0  0
  -28.3240  -26.4480   20.1580 O   0  0  0  0  0  0  0  0  0  0  0  0
  -24.6270  -31.8610   23.2020 C   0  0  0  0  0  0  0  0  0  0  0  0
  -27.2240  -27.3190   20.1250 C   0  0  0  0  0  0  0  0  0  0  0  0
  -23.4210  -30.4850   21.5440 C   0  0  0  0  0  3  0  0  0  0  0  0
  -24.8690  -28.9390   20.1130 C   0  0  0  0  0  0  0  0  0  0  0  0
  -25.9610  -30.7930   21.3730 C   0  0  0  0  0  2  0  0  0  0  0  0
  -26.0380  -29.4190   20.7190 C   0  0  0  0  0  0  0  0  0  0  0  0
  -27.2220  -28.6210   20.7130 C   0  0  0  0  0  3  0  0  0  0  0  0
  -26.0380  -26.8980   19.4840 C   0  0  0  0  0  3  0  0  0  0  0  0
  -24.8710  -27.6850   19.4850 C   0  0  0  0  0  3  0  0  0  0  0  0
  -23.6370  -29.8190   20.1600 C   0  0  0  0  0  2  0  0  0  0  0  0
  -24.6880  -31.0630   22.0970 N   0  0  0  0  0  0  0  0  0  0  0  0
  -23.5430  -32.1420   23.7340 O   0  0  0  0  0  0  0  0  0  0  0  0
  -22.7480  -29.4650   22.4920 C   0  0  0  0  0  0  0  0  0  0  0  0
  -21.4190  -29.3060   22.3670 N   0  0  0  0  0  0  0  0  0  0  0  0
  -23.4200  -28.8190   23.3010 O   0  0  0  0  0  0  0  0  0  0  0  0
  -20.9370  -29.8780   21.6880 H   0  0  0  0  0  0  0  0  0  0  0  0
  -18.0300  -28.1400   22.8500 C   0  0  0  0  0  0  0  0  0  0  0  0
  -20.5900  -28.3710   23.1290 C   0  0  0  0  0  3  0  0  0  0  0  0
  -20.6790  -26.9430   22.5410 C   0  0  0  0  0  2  0  0  0  0  0  0
  -19.5760  -26.6410   21.5220 C   0  0  0  0  0  2  0  0  0  0  0  0
  -18.1940  -26.7950   22.1640 C   0  0  0  0  0  2  0  0  0  0  0  0
  -19.1550  -28.8870   23.2900 C   0  0  0  0  0  0  0  0  0  0  0  0
  -18.9470  -30.1470   23.8920 C   0  0  0  0  0  3  0  0  0  0  0  0
  -17.6460  -30.6600   24.0580 C   0  0  0  0  0  3  0  0  0  0  0  0
  -16.5360  -29.9100   23.6330 C   0  0  0  0  0  3  0  0  0  0  0  0
  -16.7290  -28.6520   23.0360 C   0  0  0  0  0  3  0  0  0  0  0  0
  -25.9110  -32.4800   23.8360 C   0  0  0  0  0  3  0  0  0  0  0  0
  -26.4490  -31.6600   25.0720 C   0  0  1  0  0  0  0  0  0  0  0  0
  -25.3720  -31.3730   26.1440 C   0  0  0  0  0  1  0  0  0  0  0  0
  -27.0330  -30.3020   24.6160 C   0  0  0  0  0  1  0  0  0  0  0  0
  -27.6060  -32.4320   25.7490 C   0  0  0  0  0  1  0  0  0  0  0  0
  -25.5920  -33.8590   24.2290 N   0  0  0  0  0  0  0  0  0  0  0  0
  -25.9050  -34.9460   23.5110 C   0  0  0  0  0  0  0  0  0  0  0  0
  -26.5620  -34.8930   22.4670 O   0  0  0  0  0  0  0  0  0  0  0  0
  -25.0060  -33.9750   25.0430 H   0  0  0  0  0  0  0  0  0  0  0  0
  -24.1490  -36.7290   23.2640 C   0  0  0  0  0  1  0  0  0  0  0  0
  -25.4120  -36.3090   24.0330 C   0  0  0  0  0  3  0  0  0  0  0  0
  -27.5580  -37.1810   24.8470 C   0  0  0  0  0  1  0  0  0  0  0  0
  -26.4300  -37.3790   23.9410 N   0  0  0  0  0  0  0  0  0  0  0  0
  -26.0180  -38.2860   24.1400 H   0  0  0  0  0  0  0  0  0  0  0  0
  1  4  1  0
  2  3  1  0
  3 18  1  0
  3  4  2  0
  4  8  1  0
  5  1  2  0
  6  2  2  0
  6  5  1  0
  7  5  1  0
  7 49  1  0
  9  7  1  0
 10 18  1  0
 11 16  1  0
 12 13  1  0
 12 11  1  0
 14 13  1  0
 14 23  1  0
 14 15  1  0
 16 10  1  0
 16 15  1  0
 17 10  2  0
 18 19  1  0
 20 21  2  0
 21 40  1  0
 22 21  1  0
 22 25  1  0
 23 20  1  0
 23 24  1  0
 24 22  2  0
 25 26  1  0
 26 27  2  0
 28 31  1  0
 28 27  1  0
 29 28  2  0
 30 29  1  0
 30 25  2  0
 31 32  1  0
 32 33  1  0
 33 34  2  0
 35 34  1  0
 35 39  1  0
 36 35  2  0
 37 32  2  0
 37 36  1  0
 38 37  1  0
 40 41  1  0
 41 44  1  0
 41 43  1  0
 42 40  2  0
 45 46  1  0
 45 20  1  0
 47 45  1  0
 49 48  1  0
 50 52  1  0
 50 49  1  0
 51 50  2  0
 53 52  1  0
 54 65  2  0
 55 53  1  0
 55 60  1  0
 56 64  1  0
 56 66  1  0
 57 63  1  0
 57 59  1  0
 58 64  1  0
 59 58  1  0
 60 59  2  0
 61 62  1  0
 61 55  2  0
 62 57  2  0
 63 56  1  0
 64 54  1  0
 66 68  2  0
 67 66  1  0
 69 67  1  0
 70 79  2  0
 70 75  1  0
 71 67  1  0
 71 75  1  0
 72 71  1  0
 73 74  1  0
 73 72  1  0
 74 70  1  0
 75 76  2  0
 76 77  1  0
 78 77  2  0
 79 78  1  0
 80 54  1  0
 80 85  1  0
 80 81  1  0
 81 84  1  1
 81 82  1  0
 83 81  1  0
 85 88  1  0
 86 90  1  0
 86 85  1  0
 87 86  2  0
 90 89  1  0
 92 90  1  0
 92 93  1  0
 92 91  1  0
M  ISO  4  10 100  18 100  52 101  53 101
M  END
>  <TORSDO>  (55) 
F 19

>  <SCORE>  (55) 
-11.031

>  <name>  (55) 
54

>  <ligand_id>  (55) 
54

>  <original_smiles>  (55) 
[H]c1nc(N([H])C([H])(C(=O)C([H])([H])Oc2c([H])c([H])c3c(c2[H])C([H])([H])N(C(=O)C([H])(N([H])C(=O)C([H])(N([H])C([H])([H])[H])C([H])([H])[H])C(C([H])([H])[H])(C([H])([H])[H])C([H])([H])[H])C([H])(C(=O)N([H])C2([H])c4c([H])c([H])c([H])c([H])c4C([H])([H])C([H])([H])C2([H])[H])C3([H])[H])C([H])([H])[H])c([H])c(F)c1N([H])C(=O)N1C([H])([H])C([H])([H])C([H])([H])C([H])(n2nc(-c3c([H])c([H])c(Oc4c([H])c([H])c(F)c([H])c4F)c([H])c3[H])c(C(=O)N([H])[H])c2N([H])[H])C1([H])[H]

>  <smiles>  (55) 
[H]c1nc(N([H])C([H])(C(=O)C([H])([H])Oc2c([H])c([H])c3c(c2[H])C([H])([H])N(C(=O)C([H])(N([H])C(=O)C([H])(N([H])C([H])([H])[H])C([H])([H])[H])C(C([H])([H])[H])(C([H])([H])[H])C([H])([H])[H])C([H])(C(=O)N([H])C2([H])c4c([H])c([H])c([H])c([H])c4C([H])([H])C([H])([H])C2([H])[H])C3([H])[H])C([H])([H])[H])c([H])c(F)c1N([H])C(=O)N1C([H])([H])C([H])([H])C([H])([H])C([H])(n2nc(-c3c([H])c([H])c(Oc4c([H])c([H])c(F)c([H])c4F)c([H])c3[H])c(C(=O)N([H])[H])c2N([H])[H])C1([H])[H]

$$$$
55:0:0
     RDKit          3D

 94102  0  0  1  0  0  0  0  0999 V2000
  -28.6980  -20.9330   20.5560 N   0  0  0  0  0  4  0  0  0  0  0  0
  -27.8990  -20.6220   21.0920 H   0  0  0  0  0  0  0  0  0  0  0  0
  -30.5580  -14.8240   20.2490 C   0  0  0  0  0  0  0  0  0  0  0  0
  -30.3500  -12.5360   19.2660 C   0  0  0  0  0  2  0  0  0  0  0  0
  -29.3920  -12.6010   18.0550 C   0  0  0  0  0  2  0  0  0  0  0  0
  -27.9320  -12.4170   18.5110 C   0  0  0  0  0  2  0  0  0  0  0  0
  -27.5730  -13.3020   19.7350 C   0  0  0  0  0  3  0  0  0  0  0  0
  -28.6510  -13.2330   20.8360 C   0  0  0  0  0  2  0  0  0  0  0  0
  -29.9310  -13.5940   20.2160 N   0  0  0  0  0  0  0  0  0  0  0  0
  -31.7630  -14.8710   19.9850 O   0  0  0  0  0  0  0  0  0  0  0  0
  -30.9420  -18.9290   18.3240 C   0  0  0  0  0  3  0  0  0  0  0  0
  -30.7550  -17.6220   18.8150 C   0  0  0  0  0  0  0  0  0  0  0  0
  -30.3070  -20.0310   18.9190 C   0  0  0  0  0  0  0  0  0  0  0  0
  -29.9620  -17.3920   19.9710 C   0  0  0  0  0  0  0  0  0  0  0  0
  -29.4720  -19.8200   20.0340 C   0  0  0  0  0  0  0  0  0  0  0  0
  -29.3130  -18.5160   20.5260 N   0  0  0  0  0  0  0  0  0  0  0  0
  -29.7850  -15.9770   20.4310 N   0  0  0  0  0  0  0  0  0  0  0  0
  -31.3000  -16.6050   18.1060 F   0  0  0  0  0  0  0  0  0  0  0  0
  -30.4430  -21.2560   18.3560 F   0  0  0  0  0  0  0  0  0  0  0  0
  -28.8820  -15.7940   20.8340 H   0  0  0  0  0  0  0  0  0  0  0  0
  -25.2020  -13.8760   20.5230 C   0  0  0  0  0  0  0  0  0  0  0  0
  -24.1460  -13.0950   20.9050 C   0  0  0  0  0  0  0  0  0  0  0  0
  -24.6120  -11.7450   20.8480 C   0  0  0  0  0  0  0  0  0  0  0  0
  -26.2420  -13.0020   20.2530 N   0  0  0  0  0  0  0  0  0  0  0  0
  -25.8950  -11.7140   20.5140 N   0  0  0  0  0  0  0  0  0  0  0  0
  -23.8910  -10.4790   21.0360 C   0  0  0  0  0  0  0  0  0  0  0  0
  -24.3300   -9.5090   21.9640 C   0  0  0  0  0  3  0  0  0  0  0  0
  -23.6080   -8.3080   22.1410 C   0  0  0  0  0  3  0  0  0  0  0  0
  -22.4330   -8.0700   21.3900 C   0  0  0  0  0  0  0  0  0  0  0  0
  -22.0130   -9.0280   20.4520 C   0  0  0  0  0  3  0  0  0  0  0  0
  -22.7350  -10.2200   20.2720 C   0  0  0  0  0  3  0  0  0  0  0  0
  -21.6830   -6.9220   21.4760 O   0  0  0  0  0  0  0  0  0  0  0  0
  -21.6270   -6.1840   22.6310 C   0  0  0  0  0  0  0  0  0  0  0  0
  -21.1580   -6.7320   23.8440 C   0  0  0  0  0  3  0  0  0  0  0  0
  -21.0520   -5.9180   24.9900 C   0  0  0  0  0  3  0  0  0  0  0  0
  -21.4050   -4.5580   24.9230 C   0  0  0  0  0  0  0  0  0  0  0  0
  -21.8680   -4.0090   23.7150 C   0  0  0  0  0  3  0  0  0  0  0  0
  -21.9760   -4.8190   22.5710 C   0  0  0  0  0  0  0  0  0  0  0  0
  -22.4020   -4.2800   21.4040 F   0  0  0  0  0  0  0  0  0  0  0  0
  -21.2970   -3.7740   26.0220 F   0  0  0  0  0  0  0  0  0  0  0  0
  -22.7530  -13.5660   21.2070 C   0  0  0  0  0  0  0  0  0  0  0  0
  -22.0390  -12.8550   22.0730 N   0  0  0  0  0  0  0  0  0  0  0  0
  -22.3080  -14.6000   20.7120 O   0  0  0  0  0  0  0  0  0  0  0  0
  -22.4140  -12.0190   22.4970 H   0  0  0  0  0  0  0  0  0  0  0  0
  -21.1050  -13.1510   22.3160 H   0  0  0  0  0  0  0  0  0  0  0  0
  -25.3570  -15.2490   20.3580 N   0  0  0  0  0  0  0  0  0  0  0  0
  -24.5850  -15.8930   20.4860 H   0  0  0  0  0  0  0  0  0  0  0  0
  -26.1840  -15.6960   19.9840 H   0  0  0  0  0  0  0  0  0  0  0  0
  -30.6180  -22.4650   21.2970 C   0  0  0  0  0  1  0  0  0  0  0  0
  -29.1210  -22.3550   20.9490 C   0  0  0  0  0  0  0  0  0  0  0  0
  -28.6310  -23.7000   20.1450 C   0  0  0  0  0  0  0  0  0  0  0  0
  -28.5840  -23.7080   18.9120 O   0  0  0  0  0  0  0  0  0  0  0  0
  -28.1910  -25.0390   20.9330 C   0  0  0  0  0  2  0  0  0  0  0  0
  -28.3850  -26.4040   20.3170 O   0  0  0  0  0  0  0  0  0  0  0  0
  -24.5820  -31.8940   23.2480 C   0  0  0  0  0  0  0  0  0  0  0  0
  -27.2870  -27.2930   20.2900 C   0  0  0  0  0  0  0  0  0  0  0  0
  -23.4290  -30.4800   21.5860 C   0  0  0  0  0  3  0  0  0  0  0  0
  -24.9240  -28.9250   20.2040 C   0  0  0  0  0  0  0  0  0  0  0  0
  -25.9740  -30.8040   21.4650 C   0  0  0  0  0  2  0  0  0  0  0  0
  -26.0790  -29.4170   20.8260 C   0  0  0  0  0  0  0  0  0  0  0  0
  -27.2680  -28.6160   20.8520 C   0  0  0  0  0  3  0  0  0  0  0  0
  -26.1100  -26.8630   19.6440 C   0  0  0  0  0  3  0  0  0  0  0  0
  -24.9450  -27.6570   19.6000 C   0  0  0  0  0  3  0  0  0  0  0  0
  -23.6830  -29.7980   20.2150 C   0  0  0  0  0  2  0  0  0  0  0  0
  -24.6790  -31.0790   22.1560 N   0  0  0  0  0  0  0  0  0  0  0  0
  -23.4830  -32.1660   23.7540 O   0  0  0  0  0  0  0  0  0  0  0  0
  -22.7470  -29.4660   22.5360 C   0  0  0  0  0  0  0  0  0  0  0  0
  -21.4230  -29.2900   22.3870 N   0  0  0  0  0  0  0  0  0  0  0  0
  -23.4100  -28.8400   23.3660 O   0  0  0  0  0  0  0  0  0  0  0  0
  -20.9460  -29.8460   21.6920 H   0  0  0  0  0  0  0  0  0  0  0  0
  -18.0310  -28.1160   22.8580 C   0  0  0  0  0  0  0  0  0  0  0  0
  -20.5910  -28.3520   23.1440 C   0  0  0  0  0  3  0  0  0  0  0  0
  -20.6840  -26.9250   22.5540 C   0  0  0  0  0  2  0  0  0  0  0  0
  -19.5850  -26.6220   21.5300 C   0  0  0  0  0  2  0  0  0  0  0  0
  -18.2010  -26.7720   22.1680 C   0  0  0  0  0  2  0  0  0  0  0  0
  -19.1540  -28.8640   23.3010 C   0  0  0  0  0  0  0  0  0  0  0  0
  -18.9420  -30.1220   23.9060 C   0  0  0  0  0  3  0  0  0  0  0  0
  -17.6390  -30.6320   24.0700 C   0  0  0  0  0  3  0  0  0  0  0  0
  -16.5320  -29.8800   23.6420 C   0  0  0  0  0  3  0  0  0  0  0  0
  -16.7280  -28.6240   23.0420 C   0  0  0  0  0  3  0  0  0  0  0  0
  -25.8430  -32.5400   23.9000 C   0  0  0  0  0  3  0  0  0  0  0  0
  -26.3190  -31.7920   25.2060 C   0  0  1  0  0  0  0  0  0  0  0  0
  -25.1910  -31.5700   26.2410 C   0  0  0  0  0  1  0  0  0  0  0  0
  -26.9170  -30.4100   24.8590 C   0  0  0  0  0  1  0  0  0  0  0  0
  -27.4440  -32.6010   25.8920 C   0  0  0  0  0  1  0  0  0  0  0  0
  -25.5220  -33.9430   24.1980 N   0  0  0  0  0  0  0  0  0  0  0  0
  -25.8800  -34.9870   23.4370 C   0  0  0  0  0  0  0  0  0  0  0  0
  -26.5840  -34.8690   22.4310 O   0  0  0  0  0  0  0  0  0  0  0  0
  -24.9000  -34.1080   24.9760 H   0  0  0  0  0  0  0  0  0  0  0  0
  -24.1750  -36.7820   22.9940 C   0  0  0  0  0  1  0  0  0  0  0  0
  -25.3800  -36.3810   23.8600 C   0  0  0  0  0  3  0  0  0  0  0  0
  -27.4780  -37.2730   24.7740 C   0  0  0  0  0  1  0  0  0  0  0  0
  -26.4200  -37.4300   23.7800 N   0  0  0  0  0  0  0  0  0  0  0  0
  -26.0110  -38.3530   23.8950 H   0  0  0  0  0  0  0  0  0  0  0  0
  1 50  2  3
  1  2  1  0
  3 17  1  0
  4  9  1  0
  5  6  1  0
  5  4  1  0
  7  6  1  0
  7 24  1  0
  7  8  1  0
  9  3  1  0
  9  8  1  0
 10  3  2  0
 11 12  2  0
 11 13  1  0
 12 14  1  0
 13 15  2  0
 14 17  1  0
 14 16  2  0
 15 16  1  0
 15  1  1  0
 17 20  1  0
 18 12  1  0
 19 13  1  0
 21 22  2  0
 22 41  1  0
 23 22  1  0
 23 26  1  0
 24 25  1  0
 24 21  1  0
 25 23  2  0
 26 27  1  0
 27 28  2  0
 29 32  1  0
 29 28  1  0
 30 29  2  0
 31 30  1  0
 31 26  2  0
 32 33  1  0
 33 34  1  0
 34 35  2  0
 36 35  1  0
 36 40  1  0
 37 36  2  0
 38 33  2  0
 38 37  1  0
 39 38  1  0
 41 42  1  0
 42 45  1  0
 42 44  1  0
 43 41  2  0
 46 47  1  0
 46 21  1  0
 48 46  1  0
 50 49  1  0
 51 53  1  0
 51 50  1  0
 52 51  2  0
 54 53  1  0
 55 66  2  0
 56 54  1  0
 56 61  1  0
 57 65  1  0
 57 67  1  0
 58 64  1  0
 58 60  1  0
 59 65  1  0
 60 61  2  0
 60 59  1  0
 62 56  2  0
 63 62  1  0
 63 58  2  0
 64 57  1  0
 65 55  1  0
 67 69  2  0
 68 67  1  0
 70 68  1  0
 71 80  2  0
 71 76  1  0
 72 68  1  0
 72 76  1  0
 73 72  1  0
 74 75  1  0
 74 73  1  0
 75 71  1  0
 76 77  2  0
 77 78  1  0
 79 78  2  0
 80 79  1  0
 81 55  1  0
 81 86  1  0
 81 82  1  0
 82 85  1  1
 82 83  1  0
 84 82  1  0
 86 89  1  0
 87 91  1  0
 87 86  1  0
 88 87  2  0
 91 90  1  0
 93 91  1  0
 93 94  1  0
 93 92  1  0
M  ISO  4   3 100  17 100  53 101  54 101
M  END
>  <TORSDO>  (56) 
F 19

>  <SCORE>  (56) 
-14.565

>  <name>  (56) 
55

>  <ligand_id>  (56) 
55

>  <original_smiles>  (56) 
[H]c1c([H])c([H])c2c(c1[H])C([H])([H])C([H])([H])C([H])([H])C2([H])N([H])C(=O)C1([H])N(C(=O)C([H])(N([H])C(=O)C([H])(N([H])C([H])([H])[H])C([H])([H])[H])C(C([H])([H])[H])(C([H])([H])[H])C([H])([H])[H])C([H])([H])c2c([H])c(OC([H])([H])C(=O)C([H])(N([H])c3nc(N([H])C(=O)N4C([H])([H])C([H])([H])C([H])([H])C([H])(n5nc(-c6c([H])c([H])c(Oc7c([H])c([H])c(F)c([H])c7F)c([H])c6[H])c(C(=O)N([H])[H])c5N([H])[H])C4([H])[H])c(F)c([H])c3F)C([H])([H])[H])c([H])c([H])c2C1([H])[H]

>  <smiles>  (56) 
[H]c1c([H])c([H])c2c(c1[H])C([H])([H])C([H])([H])C([H])([H])C2([H])N([H])C(=O)C1([H])N(C(=O)C([H])(N([H])C(=O)C([H])(N([H])C([H])([H])[H])C([H])([H])[H])C(C([H])([H])[H])(C([H])([H])[H])C([H])([H])[H])C([H])([H])c2c([H])c(OC([H])([H])C(=O)C([H])(N([H])c3nc(N([H])C(=O)N4C([H])([H])C([H])([H])C([H])([H])C([H])(n5nc(-c6c([H])c([H])c(Oc7c([H])c([H])c(F)c([H])c7F)c([H])c6[H])c(C(=O)N([H])[H])c5N([H])[H])C4([H])[H])c(F)c([H])c3F)C([H])([H])[H])c([H])c([H])c2C1([H])[H]

$$$$
56:0:0
     RDKit          3D

 94102  0  0  1  0  0  0  0  0999 V2000
  -29.9050  -19.2490   18.5420 C   0  0  0  0  0  3  0  0  0  0  0  0
  -30.2110  -16.8600   18.6200 C   0  0  0  0  0  3  0  0  0  0  0  0
  -30.1860  -18.0490   17.8860 C   0  0  0  0  0  0  0  0  0  0  0  0
  -29.6540  -19.2480   19.9300 C   0  0  0  0  0  0  0  0  0  0  0  0
  -29.9530  -16.8820   20.0080 C   0  0  0  0  0  0  0  0  0  0  0  0
  -29.7320  -21.7470   20.2510 C   0  0  0  0  0  0  0  0  0  0  0  0
  -29.6510  -18.0670   20.6230 N   0  0  0  0  0  0  0  0  0  0  0  0
  -29.3260  -20.4900   20.5650 N   0  0  0  0  0  0  0  0  0  0  0  0
  -30.6320  -22.0250   19.4470 O   0  0  0  0  0  0  0  0  0  0  0  0
  -30.4230  -18.0350   16.5520 F   0  0  0  0  0  0  0  0  0  0  0  0
  -28.6840  -20.4480   21.3440 H   0  0  0  0  0  0  0  0  0  0  0  0
  -30.6820  -14.5420   20.4190 C   0  0  0  0  0  0  0  0  0  0  0  0
  -30.3940  -12.3650   19.3180 C   0  0  0  0  0  2  0  0  0  0  0  0
  -29.4760  -12.5890   18.0980 C   0  0  0  0  0  2  0  0  0  0  0  0
  -27.9940  -12.4640   18.5050 C   0  0  0  0  0  2  0  0  0  0  0  0
  -27.6450  -13.2870   19.7740 C   0  0  0  0  0  3  0  0  0  0  0  0
  -28.6880  -13.0690   20.8950 C   0  0  0  0  0  2  0  0  0  0  0  0
  -30.0180  -13.3560   20.3390 N   0  0  0  0  0  0  0  0  0  0  0  0
  -31.8560  -14.6660   20.0540 O   0  0  0  0  0  0  0  0  0  0  0  0
  -29.9260  -15.6280   20.7110 N   0  0  0  0  0  0  0  0  0  0  0  0
  -29.0850  -15.4460   21.2330 H   0  0  0  0  0  0  0  0  0  0  0  0
  -25.2350  -13.8870   20.4470 C   0  0  0  0  0  0  0  0  0  0  0  0
  -24.1670  -13.1120   20.8110 C   0  0  0  0  0  0  0  0  0  0  0  0
  -24.6350  -11.7630   20.7990 C   0  0  0  0  0  0  0  0  0  0  0  0
  -26.2880  -13.0090   20.2390 N   0  0  0  0  0  0  0  0  0  0  0  0
  -25.9300  -11.7280   20.5100 N   0  0  0  0  0  0  0  0  0  0  0  0
  -23.9130  -10.5000   20.9920 C   0  0  0  0  0  0  0  0  0  0  0  0
  -24.3290   -9.5510   21.9520 C   0  0  0  0  0  3  0  0  0  0  0  0
  -23.6070   -8.3510   22.1320 C   0  0  0  0  0  3  0  0  0  0  0  0
  -22.4560   -8.0920   21.3510 C   0  0  0  0  0  0  0  0  0  0  0  0
  -22.0600   -9.0300   20.3810 C   0  0  0  0  0  3  0  0  0  0  0  0
  -22.7820  -10.2210   20.2000 C   0  0  0  0  0  3  0  0  0  0  0  0
  -21.7090   -6.9420   21.4380 O   0  0  0  0  0  0  0  0  0  0  0  0
  -21.6260   -6.2230   22.6040 C   0  0  0  0  0  0  0  0  0  0  0  0
  -21.1300   -6.7940   23.7980 C   0  0  0  0  0  3  0  0  0  0  0  0
  -20.9980   -6.0000   24.9540 C   0  0  0  0  0  3  0  0  0  0  0  0
  -21.3490   -4.6380   24.9180 C   0  0  0  0  0  0  0  0  0  0  0  0
  -21.8360   -4.0670   23.7290 C   0  0  0  0  0  3  0  0  0  0  0  0
  -21.9710   -4.8570   22.5740 C   0  0  0  0  0  0  0  0  0  0  0  0
  -22.4200   -4.2970   21.4260 F   0  0  0  0  0  0  0  0  0  0  0  0
  -21.2150   -3.8730   26.0270 F   0  0  0  0  0  0  0  0  0  0  0  0
  -22.7630  -13.5850   21.0580 C   0  0  0  0  0  0  0  0  0  0  0  0
  -22.0230  -12.8900   21.9150 N   0  0  0  0  0  0  0  0  0  0  0  0
  -22.3300  -14.6080   20.5280 O   0  0  0  0  0  0  0  0  0  0  0  0
  -22.3870  -12.0620   22.3650 H   0  0  0  0  0  0  0  0  0  0  0  0
  -21.0820  -13.1900   22.1240 H   0  0  0  0  0  0  0  0  0  0  0  0
  -25.3950  -15.2560   20.2570 N   0  0  0  0  0  0  0  0  0  0  0  0
  -24.6220  -15.9080   20.3460 H   0  0  0  0  0  0  0  0  0  0  0  0
  -26.2390  -15.6960   19.9110 H   0  0  0  0  0  0  0  0  0  0  0  0
  -28.9670  -22.8590   21.0420 C   0  0  0  0  0  0  0  0  0  0  0  0
  -28.0800  -22.5680   21.8540 O   0  0  0  0  0  0  0  0  0  0  0  0
  -29.3450  -24.3450   20.7970 C   0  0  0  0  0  2  0  0  0  0  0  0
  -28.1620  -25.2090   20.2880 C   0  0  0  0  0  2  0  0  0  0  0  0
  -28.3590  -26.6450   20.3590 O   0  0  0  0  0  0  0  0  0  0  0  0
  -24.5400  -31.9260   23.2850 C   0  0  0  0  0  0  0  0  0  0  0  0
  -27.2110  -27.4240   20.2850 C   0  0  0  0  0  0  0  0  0  0  0  0
  -23.3580  -30.5190   21.6330 C   0  0  0  0  0  3  0  0  0  0  0  0
  -24.8280  -28.9700   20.2390 C   0  0  0  0  0  0  0  0  0  0  0  0
  -25.8920  -30.8590   21.4800 C   0  0  0  0  0  2  0  0  0  0  0  0
  -25.9830  -29.4840   20.8440 C   0  0  0  0  0  0  0  0  0  0  0  0
  -27.1770  -28.7210   20.8600 C   0  0  0  0  0  3  0  0  0  0  0  0
  -26.0340  -26.9440   19.6590 C   0  0  0  0  0  3  0  0  0  0  0  0
  -24.8520  -27.7020   19.6420 C   0  0  0  0  0  3  0  0  0  0  0  0
  -23.5870  -29.8340   20.2610 C   0  0  0  0  0  2  0  0  0  0  0  0
  -24.6140  -31.1160   22.1900 N   0  0  0  0  0  0  0  0  0  0  0  0
  -23.4500  -32.2060   23.8040 O   0  0  0  0  0  0  0  0  0  0  0  0
  -22.6850  -29.5050   22.5880 C   0  0  0  0  0  0  0  0  0  0  0  0
  -21.3610  -29.3310   22.4430 N   0  0  0  0  0  0  0  0  0  0  0  0
  -23.3530  -28.8790   23.4160 O   0  0  0  0  0  0  0  0  0  0  0  0
  -20.8840  -29.8880   21.7480 H   0  0  0  0  0  0  0  0  0  0  0  0
  -17.9670  -28.1860   22.9250 C   0  0  0  0  0  0  0  0  0  0  0  0
  -20.5280  -28.4010   23.2050 C   0  0  0  0  0  3  0  0  0  0  0  0
  -20.6090  -26.9720   22.6210 C   0  0  0  0  0  2  0  0  0  0  0  0
  -19.5050  -26.6720   21.6020 C   0  0  0  0  0  2  0  0  0  0  0  0
  -18.1230  -26.8370   22.2430 C   0  0  0  0  0  2  0  0  0  0  0  0
  -19.0960  -28.9270   23.3620 C   0  0  0  0  0  0  0  0  0  0  0  0
  -18.8970  -30.1910   23.9590 C   0  0  0  0  0  3  0  0  0  0  0  0
  -17.6010  -30.7130   24.1240 C   0  0  0  0  0  3  0  0  0  0  0  0
  -16.4850  -29.9680   23.7040 C   0  0  0  0  0  3  0  0  0  0  0  0
  -16.6690  -28.7060   23.1110 C   0  0  0  0  0  3  0  0  0  0  0  0
  -25.8160  -32.5560   23.9230 C   0  0  0  0  0  3  0  0  0  0  0  0
  -26.2970  -31.8060   25.2260 C   0  0  1  0  0  0  0  0  0  0  0  0
  -25.1760  -31.5970   26.2710 C   0  0  0  0  0  1  0  0  0  0  0  0
  -26.8790  -30.4180   24.8740 C   0  0  0  0  0  1  0  0  0  0  0  0
  -27.4360  -32.6050   25.9000 C   0  0  0  0  0  1  0  0  0  0  0  0
  -25.5150  -33.9640   24.2160 N   0  0  0  0  0  0  0  0  0  0  0  0
  -25.8780  -34.9960   23.4430 C   0  0  0  0  0  0  0  0  0  0  0  0
  -26.5740  -34.8640   22.4320 O   0  0  0  0  0  0  0  0  0  0  0  0
  -24.9000  -34.1420   24.9970 H   0  0  0  0  0  0  0  0  0  0  0  0
  -24.1890  -36.8040   22.9950 C   0  0  0  0  0  1  0  0  0  0  0  0
  -25.3930  -36.3990   23.8580 C   0  0  0  0  0  3  0  0  0  0  0  0
  -27.5060  -37.2720   24.7560 C   0  0  0  0  0  1  0  0  0  0  0  0
  -26.4440  -37.4370   23.7660 N   0  0  0  0  0  0  0  0  0  0  0  0
  -26.0440  -38.3640   23.8790 H   0  0  0  0  0  0  0  0  0  0  0  0
  1  4  1  0
  2  5  2  0
  3  1  2  0
  3  2  1  0
  4  8  1  0
  4  7  2  0
  5  7  1  0
  5 20  1  0
  6  8  1  0
  6 50  1  0
  8 11  1  0
  9  6  2  0
 10  3  1  0
 12 20  1  0
 13 18  1  0
 14 15  1  0
 14 13  1  0
 16 15  1  0
 16 25  1  0
 16 17  1  0
 18 12  1  0
 18 17  1  0
 19 12  2  0
 20 21  1  0
 22 23  2  0
 23 42  1  0
 24 23  1  0
 24 27  1  0
 25 22  1  0
 25 26  1  0
 26 24  2  0
 27 28  1  0
 28 29  2  0
 30 33  1  0
 30 29  1  0
 31 30  2  0
 32 31  1  0
 32 27  2  0
 33 34  1  0
 34 35  1  0
 35 36  2  0
 37 36  1  0
 37 41  1  0
 38 37  2  0
 39 34  2  0
 39 38  1  0
 40 39  1  0
 42 43  1  0
 43 46  1  0
 43 45  1  0
 44 42  2  0
 47 48  1  0
 47 22  1  0
 49 47  1  0
 50 51  2  0
 52 50  1  0
 53 54  1  0
 53 52  1  0
 55 66  2  0
 56 54  1  0
 56 61  1  0
 57 65  1  0
 57 67  1  0
 58 64  1  0
 58 60  1  0
 59 65  1  0
 60 61  2  0
 60 59  1  0
 62 56  2  0
 63 62  1  0
 63 58  2  0
 64 57  1  0
 65 55  1  0
 67 69  2  0
 68 67  1  0
 70 68  1  0
 71 80  2  0
 71 76  1  0
 72 68  1  0
 72 76  1  0
 73 72  1  0
 74 75  1  0
 74 73  1  0
 75 71  1  0
 76 77  2  0
 77 78  1  0
 79 78  2  0
 80 79  1  0
 81 55  1  0
 81 86  1  0
 81 82  1  0
 82 85  1  1
 82 83  1  0
 84 82  1  0
 86 89  1  0
 87 91  1  0
 87 86  1  0
 88 87  2  0
 91 90  1  0
 93 91  1  0
 93 94  1  0
 93 92  1  0
M  ISO  4  12 100  20 100  53 101  54 101
M  END
>  <TORSDO>  (57) 
F 19

>  <SCORE>  (57) 
-14.309

>  <name>  (57) 
56

>  <ligand_id>  (57) 
56

>  <original_smiles>  (57) 
[H]c1c([H])c([H])c2c(c1[H])C([H])([H])C([H])([H])C([H])([H])C2([H])N([H])C(=O)C1([H])N(C(=O)C([H])(N([H])C(=O)C([H])(N([H])C([H])([H])[H])C([H])([H])[H])C(C([H])([H])[H])(C([H])([H])[H])C([H])([H])[H])C([H])([H])c2c([H])c(OC([H])([H])C([H])([H])C(=O)C(=O)N([H])c3nc(N([H])C(=O)N4C([H])([H])C([H])([H])C([H])([H])C([H])(n5nc(-c6c([H])c([H])c(Oc7c([H])c([H])c(F)c([H])c7F)c([H])c6[H])c(C(=O)N([H])[H])c5N([H])[H])C4([H])[H])c([H])c(F)c3[H])c([H])c([H])c2C1([H])[H]

>  <smiles>  (57) 
[H]c1c([H])c([H])c2c(c1[H])C([H])([H])C([H])([H])C([H])([H])C2([H])N([H])C(=O)C1([H])N(C(=O)C([H])(N([H])C(=O)C([H])(N([H])C([H])([H])[H])C([H])([H])[H])C(C([H])([H])[H])(C([H])([H])[H])C([H])([H])[H])C([H])([H])c2c([H])c(OC([H])([H])C([H])([H])C(=O)C(=O)N([H])c3nc(N([H])C(=O)N4C([H])([H])C([H])([H])C([H])([H])C([H])(n5nc(-c6c([H])c([H])c(Oc7c([H])c([H])c(F)c([H])c7F)c([H])c6[H])c(C(=O)N([H])[H])c5N([H])[H])C4([H])[H])c([H])c(F)c3[H])c([H])c([H])c2C1([H])[H]

$$$$
57:0:0
     RDKit          3D

 93101  0  0  1  0  0  0  0  0999 V2000
  -29.5600  -21.5670   20.3840 C   0  0  0  0  0  0  0  0  0  0  0  0
  -29.0360  -20.3430   20.6470 N   0  0  0  0  0  0  0  0  0  0  0  0
  -30.6190  -21.7430   19.7780 O   0  0  0  0  0  0  0  0  0  0  0  0
  -28.2160  -20.3360   21.2350 H   0  0  0  0  0  0  0  0  0  0  0  0
  -30.6850  -14.4980   20.5130 C   0  0  0  0  0  0  0  0  0  0  0  0
  -30.3850  -12.3370   19.3710 C   0  0  0  0  0  2  0  0  0  0  0  0
  -29.4630  -12.5600   18.1560 C   0  0  0  0  0  2  0  0  0  0  0  0
  -27.9800  -12.4260   18.5620 C   0  0  0  0  0  2  0  0  0  0  0  0
  -27.6360  -13.2430   19.8380 C   0  0  0  0  0  3  0  0  0  0  0  0
  -28.6820  -13.0260   20.9540 C   0  0  0  0  0  2  0  0  0  0  0  0
  -30.0110  -13.3190   20.4030 N   0  0  0  0  0  0  0  0  0  0  0  0
  -31.8150  -14.6600   20.0440 O   0  0  0  0  0  0  0  0  0  0  0  0
  -29.7320  -18.7500   18.8890 C   0  0  0  0  0  0  0  0  0  0  0  0
  -29.4830  -19.0570   20.2110 C   0  0  0  0  0  0  0  0  0  0  0  0
  -29.9340  -16.8190   20.4230 C   0  0  0  0  0  0  0  0  0  0  0  0
  -29.6110  -19.6000   17.6670 C   0  0  0  0  0  1  0  0  0  0  0  0
  -29.5370  -17.9350   21.0700 N   0  0  0  0  0  0  0  0  0  0  0  0
  -30.0030  -15.5350   21.0430 N   0  0  0  0  0  0  0  0  0  0  0  0
  -30.2090  -17.0830   18.7040 S   0  0  0  0  0  0  0  0  0  0  0  0
  -29.2400  -15.3050   21.6580 H   0  0  0  0  0  0  0  0  0  0  0  0
  -25.2340  -13.8430   20.5290 C   0  0  0  0  0  0  0  0  0  0  0  0
  -24.1670  -13.0660   20.8970 C   0  0  0  0  0  0  0  0  0  0  0  0
  -24.6300  -11.7170   20.8670 C   0  0  0  0  0  0  0  0  0  0  0  0
  -26.2820  -12.9630   20.3070 N   0  0  0  0  0  0  0  0  0  0  0  0
  -25.9220  -11.6800   20.5690 N   0  0  0  0  0  0  0  0  0  0  0  0
  -23.9050  -10.4530   21.0570 C   0  0  0  0  0  0  0  0  0  0  0  0
  -24.3390   -9.4880   21.9930 C   0  0  0  0  0  3  0  0  0  0  0  0
  -23.6140   -8.2890   22.1710 C   0  0  0  0  0  3  0  0  0  0  0  0
  -22.4440   -8.0470   21.4140 C   0  0  0  0  0  0  0  0  0  0  0  0
  -22.0300   -9.0010   20.4670 C   0  0  0  0  0  3  0  0  0  0  0  0
  -22.7540  -10.1920   20.2860 C   0  0  0  0  0  3  0  0  0  0  0  0
  -21.6920   -6.9000   21.4990 O   0  0  0  0  0  0  0  0  0  0  0  0
  -21.6410   -6.1560   22.6500 C   0  0  0  0  0  0  0  0  0  0  0  0
  -21.2060   -6.7090   23.8750 C   0  0  0  0  0  3  0  0  0  0  0  0
  -21.1020   -5.8900   25.0190 C   0  0  0  0  0  3  0  0  0  0  0  0
  -21.4230   -4.5220   24.9360 C   0  0  0  0  0  0  0  0  0  0  0  0
  -21.8540   -3.9700   23.7170 C   0  0  0  0  0  3  0  0  0  0  0  0
  -21.9580   -4.7850   22.5770 C   0  0  0  0  0  0  0  0  0  0  0  0
  -22.3510   -4.2430   21.3980 F   0  0  0  0  0  0  0  0  0  0  0  0
  -21.3180   -3.7340   26.0330 F   0  0  0  0  0  0  0  0  0  0  0  0
  -22.7670  -13.5410   21.1590 C   0  0  0  0  0  0  0  0  0  0  0  0
  -22.0340  -12.8480   22.0210 N   0  0  0  0  0  0  0  0  0  0  0  0
  -22.3300  -14.5640   20.6320 O   0  0  0  0  0  0  0  0  0  0  0  0
  -22.3950  -12.0190   22.4720 H   0  0  0  0  0  0  0  0  0  0  0  0
  -21.0940  -13.1510   22.2340 H   0  0  0  0  0  0  0  0  0  0  0  0
  -25.3990  -15.2130   20.3510 N   0  0  0  0  0  0  0  0  0  0  0  0
  -24.6310  -15.8690   20.4560 H   0  0  0  0  0  0  0  0  0  0  0  0
  -26.2540  -15.6510   20.0380 H   0  0  0  0  0  0  0  0  0  0  0  0
  -28.7630  -22.7810   20.9130 C   0  0  0  0  0  2  0  0  0  0  0  0
  -29.1950  -24.2180   20.4540 C   0  0  0  0  0  2  0  0  0  0  0  0
  -27.7990  -25.3660   22.2760 C   0  0  0  0  0  1  0  0  0  0  0  0
  -28.0970  -25.2800   20.7650 C   0  0  0  0  0  3  0  0  0  0  0  0
  -28.3520  -26.6200   20.2530 O   0  0  0  0  0  0  0  0  0  0  0  0
  -24.5750  -31.8850   23.2430 C   0  0  0  0  0  0  0  0  0  0  0  0
  -27.2260  -27.4290   20.1690 C   0  0  0  0  0  0  0  0  0  0  0  0
  -23.3790  -30.4880   21.5970 C   0  0  0  0  0  3  0  0  0  0  0  0
  -24.8390  -28.9640   20.1670 C   0  0  0  0  0  0  0  0  0  0  0  0
  -25.9140  -30.8380   21.4210 C   0  0  0  0  0  2  0  0  0  0  0  0
  -26.0010  -29.4770   20.7560 C   0  0  0  0  0  0  0  0  0  0  0  0
  -27.2040  -28.7250   20.7420 C   0  0  0  0  0  3  0  0  0  0  0  0
  -26.0510  -26.9550   19.5420 C   0  0  0  0  0  3  0  0  0  0  0  0
  -24.8630  -27.7040   19.5500 C   0  0  0  0  0  3  0  0  0  0  0  0
  -23.5940  -29.8170   20.2180 C   0  0  0  0  0  2  0  0  0  0  0  0
  -24.6400  -31.0830   22.1420 N   0  0  0  0  0  0  0  0  0  0  0  0
  -23.4900  -32.1560   23.7770 O   0  0  0  0  0  0  0  0  0  0  0  0
  -22.7220  -29.4630   22.5510 C   0  0  0  0  0  0  0  0  0  0  0  0
  -21.3970  -29.2840   22.4200 N   0  0  0  0  0  0  0  0  0  0  0  0
  -23.4020  -28.8320   23.3650 O   0  0  0  0  0  0  0  0  0  0  0  0
  -20.9070  -29.8400   21.7330 H   0  0  0  0  0  0  0  0  0  0  0  0
  -18.0170  -28.1020   22.9190 C   0  0  0  0  0  0  0  0  0  0  0  0
  -20.5770  -28.3470   23.1900 C   0  0  0  0  0  3  0  0  0  0  0  0
  -20.6730  -26.9180   22.6090 C   0  0  0  0  0  2  0  0  0  0  0  0
  -19.5690  -26.6030   21.5940 C   0  0  0  0  0  2  0  0  0  0  0  0
  -18.1880  -26.7540   22.2410 C   0  0  0  0  0  2  0  0  0  0  0  0
  -19.1400  -28.8580   23.3520 C   0  0  0  0  0  0  0  0  0  0  0  0
  -18.9280  -30.1200   23.9460 C   0  0  0  0  0  3  0  0  0  0  0  0
  -17.6260  -30.6270   24.1150 C   0  0  0  0  0  3  0  0  0  0  0  0
  -16.5170  -29.8690   23.7000 C   0  0  0  0  0  3  0  0  0  0  0  0
  -16.7140  -28.6080   23.1070 C   0  0  0  0  0  3  0  0  0  0  0  0
  -25.8580  -32.5160   23.8650 C   0  0  0  0  0  3  0  0  0  0  0  0
  -26.3690  -31.7500   25.1470 C   0  0  1  0  0  0  0  0  0  0  0  0
  -25.2700  -31.5240   26.2120 C   0  0  0  0  0  1  0  0  0  0  0  0
  -26.9530  -30.3690   24.7680 C   0  0  0  0  0  1  0  0  0  0  0  0
  -27.5170  -32.5480   25.8070 C   0  0  0  0  0  1  0  0  0  0  0  0
  -25.5480  -33.9130   24.1890 N   0  0  0  0  0  0  0  0  0  0  0  0
  -25.8860  -34.9640   23.4290 C   0  0  0  0  0  0  0  0  0  0  0  0
  -26.5610  -34.8570   22.4010 O   0  0  0  0  0  0  0  0  0  0  0  0
  -24.9450  -34.0680   24.9850 H   0  0  0  0  0  0  0  0  0  0  0  0
  -24.1640  -36.7590   23.0580 C   0  0  0  0  0  1  0  0  0  0  0  0
  -25.3970  -36.3550   23.8810 C   0  0  0  0  0  3  0  0  0  0  0  0
  -27.5270  -37.2360   24.7270 C   0  0  0  0  0  1  0  0  0  0  0  0
  -26.4320  -37.4060   23.7750 N   0  0  0  0  0  0  0  0  0  0  0  0
  -26.0240  -38.3260   23.9210 H   0  0  0  0  0  0  0  0  0  0  0  0
  1  2  1  0
  1 49  1  0
  2  4  1  0
  3  1  2  0
  5 18  1  0
  6 11  1  0
  7  8  1  0
  7  6  1  0
  9  8  1  0
  9 24  1  0
  9 10  1  0
 11  5  1  0
 11 10  1  0
 12  5  2  0
 13 14  2  0
 14  2  1  0
 14 17  1  0
 15 18  1  0
 15 17  2  0
 16 13  1  0
 18 20  1  0
 19 13  1  0
 19 15  1  0
 21 22  2  0
 22 41  1  0
 23 22  1  0
 23 26  1  0
 24 21  1  0
 24 25  1  0
 25 23  2  0
 26 27  1  0
 27 28  2  0
 29 32  1  0
 29 28  1  0
 30 29  2  0
 31 30  1  0
 31 26  2  0
 32 33  1  0
 33 34  1  0
 34 35  2  0
 36 35  1  0
 36 40  1  0
 37 36  2  0
 38 33  2  0
 38 37  1  0
 39 38  1  0
 41 42  1  0
 42 45  1  0
 42 44  1  0
 43 41  2  0
 46 47  1  0
 46 21  1  0
 48 46  1  0
 50 52  1  0
 50 49  1  0
 52 51  1  0
 53 52  1  0
 54 65  2  0
 55 53  1  0
 55 60  1  0
 56 64  1  0
 56 66  1  0
 57 63  1  0
 57 59  1  0
 58 64  1  0
 59 58  1  0
 60 59  2  0
 61 62  1  0
 61 55  2  0
 62 57  2  0
 63 56  1  0
 64 54  1  0
 66 68  2  0
 67 66  1  0
 69 67  1  0
 70 79  2  0
 70 75  1  0
 71 67  1  0
 71 75  1  0
 72 71  1  0
 73 74  1  0
 73 72  1  0
 74 70  1  0
 75 76  2  0
 76 77  1  0
 78 77  2  0
 79 78  1  0
 80 54  1  0
 80 85  1  0
 80 81  1  0
 81 84  1  1
 81 82  1  0
 83 81  1  0
 85 88  1  0
 86 90  1  0
 86 85  1  0
 87 86  2  0
 90 89  1  0
 92 90  1  0
 92 93  1  0
 92 91  1  0
M  ISO  4   5 100  18 100  52 101  53 101
M  END
>  <TORSDO>  (58) 
F 19

>  <SCORE>  (58) 
-14.366

>  <name>  (58) 
57

>  <ligand_id>  (58) 
57

>  <original_smiles>  (58) 
[H]c1c([H])c([H])c2c(c1[H])C([H])([H])C([H])([H])C([H])([H])C2([H])N([H])C(=O)C1([H])N(C(=O)C([H])(N([H])C(=O)C([H])(N([H])C([H])([H])[H])C([H])([H])[H])C(C([H])([H])[H])(C([H])([H])[H])C([H])([H])[H])C([H])([H])c2c([H])c(OC([H])(C([H])([H])[H])C([H])([H])C([H])([H])C(=O)N([H])c3nc(N([H])C(=O)N4C([H])([H])C([H])([H])C([H])([H])C([H])(n5nc(-c6c([H])c([H])c(Oc7c([H])c([H])c(F)c([H])c7F)c([H])c6[H])c(C(=O)N([H])[H])c5N([H])[H])C4([H])[H])sc3C([H])([H])[H])c([H])c([H])c2C1([H])[H]

>  <smiles>  (58) 
[H]c1c([H])c([H])c2c(c1[H])C([H])([H])C([H])([H])C([H])([H])C2([H])N([H])C(=O)C1([H])N(C(=O)C([H])(N([H])C(=O)C([H])(N([H])C([H])([H])[H])C([H])([H])[H])C(C([H])([H])[H])(C([H])([H])[H])C([H])([H])[H])C([H])([H])c2c([H])c(OC([H])(C([H])([H])[H])C([H])([H])C([H])([H])C(=O)N([H])c3nc(N([H])C(=O)N4C([H])([H])C([H])([H])C([H])([H])C([H])(n5nc(-c6c([H])c([H])c(Oc7c([H])c([H])c(F)c([H])c7F)c([H])c6[H])c(C(=O)N([H])[H])c5N([H])[H])C4([H])[H])sc3C([H])([H])[H])c([H])c([H])c2C1([H])[H]

$$$$
58:0:0
     RDKit          3D

 96104  0  0  1  0  0  0  0  0999 V2000
  -29.6160  -21.5820   20.4960 C   0  0  0  0  0  0  0  0  0  0  0  0
  -30.2720  -20.6350   19.7600 N   0  0  0  0  0  0  0  0  0  0  0  0
  -28.9560  -21.3250   21.5070 O   0  0  0  0  0  0  0  0  0  0  0  0
  -30.9400  -21.0030   19.0980 H   0  0  0  0  0  0  0  0  0  0  0  0
  -30.9100  -18.2590   20.5180 C   0  0  0  0  0  3  0  0  0  0  0  0
  -30.0750  -19.1930   19.7580 C   0  0  0  0  0  0  0  0  0  0  0  0
  -29.1600  -18.5500   18.9350 C   0  0  0  0  0  0  0  0  0  0  0  0
  -30.5650  -16.9170   20.3610 C   0  0  0  0  0  0  0  0  0  0  0  0
  -29.1820  -16.8340   19.3070 S   0  0  0  0  0  0  0  0  0  0  0  0
  -31.6120  -14.6260   20.3340 C   0  0  0  0  0  0  0  0  0  0  0  0
  -31.3540  -12.2270   19.7100 C   0  0  0  0  0  2  0  0  0  0  0  0
  -30.4900  -12.1380   18.4320 C   0  0  0  0  0  2  0  0  0  0  0  0
  -28.9880  -12.1370   18.7750 C   0  0  0  0  0  2  0  0  0  0  0  0
  -28.6070  -13.2570   19.7770 C   0  0  0  0  0  3  0  0  0  0  0  0
  -29.5770  -13.2680   20.9800 C   0  0  0  0  0  2  0  0  0  0  0  0
  -30.9490  -13.4330   20.4590 N   0  0  0  0  0  0  0  0  0  0  0  0
  -32.7230  -14.7100   19.8030 O   0  0  0  0  0  0  0  0  0  0  0  0
  -30.9740  -15.7000   20.8760 N   0  0  0  0  0  0  0  0  0  0  0  0
  -30.3000  -15.3540   21.5420 H   0  0  0  0  0  0  0  0  0  0  0  0
  -26.2760  -14.1510   20.3880 C   0  0  0  0  0  0  0  0  0  0  0  0
  -25.1080  -13.5230   20.7210 C   0  0  0  0  0  0  0  0  0  0  0  0
  -25.3980  -12.1250   20.7040 C   0  0  0  0  0  0  0  0  0  0  0  0
  -27.2130  -13.1480   20.2000 N   0  0  0  0  0  0  0  0  0  0  0  0
  -26.6860  -11.9220   20.4440 N   0  0  0  0  0  0  0  0  0  0  0  0
  -24.5120  -10.9660   20.8640 C   0  0  0  0  0  0  0  0  0  0  0  0
  -24.8240   -9.9160   21.7550 C   0  0  0  0  0  3  0  0  0  0  0  0
  -23.9470   -8.8200   21.9050 C   0  0  0  0  0  3  0  0  0  0  0  0
  -22.7430   -8.7690   21.1620 C   0  0  0  0  0  0  0  0  0  0  0  0
  -22.4490   -9.8050   20.2590 C   0  0  0  0  0  3  0  0  0  0  0  0
  -23.3250  -10.8930   20.1080 C   0  0  0  0  0  3  0  0  0  0  0  0
  -21.8440   -7.7310   21.2230 O   0  0  0  0  0  0  0  0  0  0  0  0
  -21.7250   -6.9480   22.3430 C   0  0  0  0  0  0  0  0  0  0  0  0
  -21.4410   -7.5010   23.6110 C   0  0  0  0  0  3  0  0  0  0  0  0
  -21.2580   -6.6530   24.7220 C   0  0  0  0  0  3  0  0  0  0  0  0
  -21.3470   -5.2580   24.5670 C   0  0  0  0  0  0  0  0  0  0  0  0
  -21.6250   -4.7050   23.3050 C   0  0  0  0  0  3  0  0  0  0  0  0
  -21.8100   -5.5500   22.1950 C   0  0  0  0  0  0  0  0  0  0  0  0
  -22.0560   -5.0120   20.9760 F   0  0  0  0  0  0  0  0  0  0  0  0
  -21.1640   -4.4430   25.6320 F   0  0  0  0  0  0  0  0  0  0  0  0
  -23.7740  -14.1750   20.9470 C   0  0  0  0  0  0  0  0  0  0  0  0
  -22.9470  -13.5940   21.8080 N   0  0  0  0  0  0  0  0  0  0  0  0
  -23.4790  -15.2340   20.3950 O   0  0  0  0  0  0  0  0  0  0  0  0
  -23.1990  -12.7350   22.2750 H   0  0  0  0  0  0  0  0  0  0  0  0
  -22.0500  -14.0140   22.0040 H   0  0  0  0  0  0  0  0  0  0  0  0
  -26.6100  -15.4850   20.2080 N   0  0  0  0  0  0  0  0  0  0  0  0
  -25.9280  -16.2270   20.3090 H   0  0  0  0  0  0  0  0  0  0  0  0
  -27.5260  -15.8190   19.9400 H   0  0  0  0  0  0  0  0  0  0  0  0
  -28.8000  -20.1270   16.9320 C   0  0  0  0  0  1  0  0  0  0  0  0
  -26.8640  -19.5180   18.4490 C   0  0  0  0  0  1  0  0  0  0  0  0
  -27.8320  -17.9000   16.8570 C   0  0  0  0  0  1  0  0  0  0  0  0
  -28.1950  -19.0360   17.8430 C   0  0  2  0  0  0  0  0  0  0  0  0
  -29.8180  -23.0870   20.0220 C   0  0  0  0  0  0  0  0  0  0  0  0
  -30.9320  -23.4890   19.6700 O   0  0  0  0  0  0  0  0  0  0  0  0
  -28.5880  -24.0580   19.9460 C   0  0  0  0  0  2  0  0  0  0  0  0
  -28.5720  -25.3490   20.8540 C   0  0  0  0  0  2  0  0  0  0  0  0
  -28.5860  -26.6780   20.2440 O   0  0  0  0  0  0  0  0  0  0  0  0
  -24.6380  -31.8850   23.2630 C   0  0  0  0  0  0  0  0  0  0  0  0
  -27.4160  -27.4290   20.2610 C   0  0  0  0  0  0  0  0  0  0  0  0
  -23.4990  -30.4740   21.5840 C   0  0  0  0  0  3  0  0  0  0  0  0
  -25.0110  -28.9480   20.1980 C   0  0  0  0  0  0  0  0  0  0  0  0
  -26.0280  -30.8510   21.4590 C   0  0  0  0  0  2  0  0  0  0  0  0
  -26.1510  -29.4750   20.8190 C   0  0  0  0  0  0  0  0  0  0  0  0
  -27.3580  -28.7280   20.8380 C   0  0  0  0  0  3  0  0  0  0  0  0
  -26.2570  -26.9260   19.6360 C   0  0  0  0  0  3  0  0  0  0  0  0
  -25.0630  -27.6750   19.6000 C   0  0  0  0  0  3  0  0  0  0  0  0
  -23.7580  -29.7990   20.2100 C   0  0  0  0  0  2  0  0  0  0  0  0
  -24.7390  -31.0860   22.1610 N   0  0  0  0  0  0  0  0  0  0  0  0
  -23.5380  -32.1430   23.7720 O   0  0  0  0  0  0  0  0  0  0  0  0
  -22.8280  -29.4450   22.5230 C   0  0  0  0  0  0  0  0  0  0  0  0
  -21.5030  -29.2760   22.3850 N   0  0  0  0  0  0  0  0  0  0  0  0
  -23.5000  -28.8000   23.3340 O   0  0  0  0  0  0  0  0  0  0  0  0
  -21.0220  -29.8480   21.7050 H   0  0  0  0  0  0  0  0  0  0  0  0
  -18.1090  -28.1320   22.8770 C   0  0  0  0  0  0  0  0  0  0  0  0
  -20.6740  -28.3300   23.1320 C   0  0  0  0  0  3  0  0  0  0  0  0
  -20.7420  -26.9170   22.5080 C   0  0  0  0  0  2  0  0  0  0  0  0
  -19.6250  -26.6510   21.4940 C   0  0  0  0  0  2  0  0  0  0  0  0
  -18.2520  -26.8020   22.1570 C   0  0  0  0  0  2  0  0  0  0  0  0
  -19.2460  -28.8570   23.3220 C   0  0  0  0  0  0  0  0  0  0  0  0
  -19.0590  -30.1040   23.9560 C   0  0  0  0  0  3  0  0  0  0  0  0
  -17.7660  -30.6260   24.1500 C   0  0  0  0  0  3  0  0  0  0  0  0
  -16.6430  -29.8970   23.7220 C   0  0  0  0  0  3  0  0  0  0  0  0
  -16.8150  -28.6520   23.0920 C   0  0  0  0  0  3  0  0  0  0  0  0
  -25.8970  -32.5310   23.9210 C   0  0  0  0  0  3  0  0  0  0  0  0
  -25.5720  -33.9330   24.2210 N   0  0  0  0  0  0  0  0  0  0  0  0
  -25.9260  -34.9760   23.4580 C   0  0  0  0  0  0  0  0  0  0  0  0
  -26.6300  -34.8590   22.4510 O   0  0  0  0  0  0  0  0  0  0  0  0
  -24.9490  -34.0960   24.9980 H   0  0  0  0  0  0  0  0  0  0  0  0
  -24.1950  -36.7500   23.0300 C   0  0  0  0  0  1  0  0  0  0  0  0
  -25.4180  -36.3680   23.8780 C   0  0  0  0  0  3  0  0  0  0  0  0
  -27.5290  -37.2790   24.7420 C   0  0  0  0  0  1  0  0  0  0  0  0
  -26.4470  -37.4260   23.7720 N   0  0  0  0  0  0  0  0  0  0  0  0
  -26.0310  -38.3460   23.8970 H   0  0  0  0  0  0  0  0  0  0  0  0
  -26.3710  -31.7800   25.2260 C   0  0  1  0  0  0  0  0  0  0  0  0
  -25.2410  -31.5480   26.2560 C   0  0  0  0  0  1  0  0  0  0  0  0
  -26.9750  -30.4010   24.8710 C   0  0  0  0  0  1  0  0  0  0  0  0
  -27.4920  -32.5890   25.9200 C   0  0  0  0  0  1  0  0  0  0  0  0
  1  3  2  0
  2  1  1  0
  4  2  1  0
  6  2  1  0
  6  5  1  0
  7  9  1  0
  7  6  2  0
  8  5  2  0
  8 18  1  0
  9  8  1  0
 10 16  1  0
 10 18  1  0
 11 16  1  0
 12 13  1  0
 12 11  1  0
 14 13  1  0
 14 23  1  0
 14 15  1  0
 16 15  1  0
 17 10  2  0
 18 19  1  0
 20 21  2  0
 21 40  1  0
 22 21  1  0
 22 25  1  0
 23 20  1  0
 23 24  1  0
 24 22  2  0
 25 26  1  0
 26 27  2  0
 28 31  1  0
 28 27  1  0
 29 28  2  0
 30 29  1  0
 30 25  2  0
 31 32  1  0
 32 33  1  0
 33 34  2  0
 35 34  1  0
 35 39  1  0
 36 35  2  0
 37 32  2  0
 37 36  1  0
 38 37  1  0
 40 41  1  0
 41 44  1  0
 41 43  1  0
 42 40  2  0
 45 46  1  0
 45 20  1  0
 47 45  1  0
 51 48  1  6
 50 51  1  0
 51 49  1  0
 51  7  1  0
 52  1  1  0
 53 52  2  0
 54 52  1  0
 54 55  1  0
 56 58  1  0
 56 55  1  0
 57 68  2  0
 58 63  1  0
 59 67  1  0
 59 69  1  0
 60 66  1  0
 60 62  1  0
 61 67  1  0
 62 63  2  0
 62 61  1  0
 64 58  2  0
 65 64  1  0
 65 60  2  0
 66 59  1  0
 67 57  1  0
 69 71  2  0
 70 69  1  0
 72 70  1  0
 73 82  2  0
 73 78  1  0
 74 70  1  0
 74 78  1  0
 75 74  1  0
 76 77  1  0
 76 75  1  0
 77 73  1  0
 78 79  2  0
 79 80  1  0
 81 80  2  0
 82 81  1  0
 83 57  1  0
 83 84  1  0
 83 93  1  0
 84 87  1  0
 85 89  1  0
 85 84  1  0
 86 85  2  0
 89 88  1  0
 91 89  1  0
 91 92  1  0
 91 90  1  0
 93 96  1  1
 93 94  1  0
 95 93  1  0
M  ISO  4  10 100  18 100  55 101  56 101
M  END
>  <TORSDO>  (59) 
F 21

>  <SCORE>  (59) 
-12.244

>  <name>  (59) 
58

>  <ligand_id>  (59) 
58

>  <original_smiles>  (59) 
[H]c1c([H])c([H])c2c(c1[H])C([H])([H])C([H])([H])C([H])([H])C2([H])N([H])C(=O)C1([H])N(C(=O)C([H])(N([H])C(=O)C([H])(N([H])C([H])([H])[H])C([H])([H])[H])C(C([H])([H])[H])(C([H])([H])[H])C([H])([H])[H])C([H])([H])c2c([H])c(OC([H])([H])C([H])([H])C(=O)C(=O)N([H])c3c(C(C([H])([H])[H])(C([H])([H])[H])C([H])([H])[H])sc(N([H])C(=O)N4C([H])([H])C([H])([H])C([H])([H])C([H])(n5nc(-c6c([H])c([H])c(Oc7c([H])c([H])c(F)c([H])c7F)c([H])c6[H])c(C(=O)N([H])[H])c5N([H])[H])C4([H])[H])c3[H])c([H])c([H])c2C1([H])[H]

>  <smiles>  (59) 
[H]c1c([H])c([H])c2c(c1[H])C([H])([H])C([H])([H])C([H])([H])C2([H])N([H])C(=O)C1([H])N(C(=O)C([H])(N([H])C(=O)C([H])(N([H])C([H])([H])[H])C([H])([H])[H])C(C([H])([H])[H])(C([H])([H])[H])C([H])([H])[H])C([H])([H])c2c([H])c(OC([H])([H])C([H])([H])C(=O)C(=O)N([H])c3c(C(C([H])([H])[H])(C([H])([H])[H])C([H])([H])[H])sc(N([H])C(=O)N4C([H])([H])C([H])([H])C([H])([H])C([H])(n5nc(-c6c([H])c([H])c(Oc7c([H])c([H])c(F)c([H])c7F)c([H])c6[H])c(C(=O)N([H])[H])c5N([H])[H])C4([H])[H])c3[H])c([H])c([H])c2C1([H])[H]

$$$$
59:0:0
     RDKit          3D

 96104  0  0  1  0  0  0  0  0999 V2000
  -29.0550  -22.3060   20.7810 C   0  0  0  0  0  0  0  0  0  0  0  0
  -31.6830  -22.2600   20.6340 C   0  0  0  0  0  1  0  0  0  0  0  0
  -30.5130  -21.4510   22.7350 C   0  0  0  0  0  1  0  0  0  0  0  0
  -30.4290  -22.3900   21.5190 C   0  0  0  0  0  3  0  0  0  0  0  0
  -28.6880  -23.6920   19.9710 C   0  0  0  0  0  0  0  0  0  0  0  0
  -28.8220  -23.7670   18.7490 O   0  0  0  0  0  0  0  0  0  0  0  0
  -28.1350  -24.9930   20.7600 C   0  0  0  0  0  2  0  0  0  0  0  0
  -28.3470  -26.3960   20.2240 O   0  0  0  0  0  0  0  0  0  0  0  0
  -24.6140  -31.9010   23.2490 C   0  0  0  0  0  0  0  0  0  0  0  0
  -27.2510  -27.2930   20.2250 C   0  0  0  0  0  0  0  0  0  0  0  0
  -23.4310  -30.5010   21.5980 C   0  0  0  0  0  3  0  0  0  0  0  0
  -24.8970  -28.9440   20.1860 C   0  0  0  0  0  0  0  0  0  0  0  0
  -25.9760  -30.8070   21.4410 C   0  0  0  0  0  2  0  0  0  0  0  0
  -26.0640  -29.4230   20.7960 C   0  0  0  0  0  0  0  0  0  0  0  0
  -27.2480  -28.6130   20.7960 C   0  0  0  0  0  3  0  0  0  0  0  0
  -26.0590  -26.8790   19.5970 C   0  0  0  0  0  3  0  0  0  0  0  0
  -24.9000  -27.6820   19.5740 C   0  0  0  0  0  3  0  0  0  0  0  0
  -23.6630  -29.8300   20.2180 C   0  0  0  0  0  2  0  0  0  0  0  0
  -24.6930  -31.0880   22.1530 N   0  0  0  0  0  0  0  0  0  0  0  0
  -23.5250  -32.1760   23.7730 O   0  0  0  0  0  0  0  0  0  0  0  0
  -22.7560  -29.4830   22.5500 C   0  0  0  0  0  0  0  0  0  0  0  0
  -21.4300  -29.3100   22.4180 N   0  0  0  0  0  0  0  0  0  0  0  0
  -23.4260  -28.8550   23.3740 O   0  0  0  0  0  0  0  0  0  0  0  0
  -20.9460  -29.8620   21.7220 H   0  0  0  0  0  0  0  0  0  0  0  0
  -18.0460  -28.1330   22.9180 C   0  0  0  0  0  0  0  0  0  0  0  0
  -20.6060  -28.3750   23.1860 C   0  0  0  0  0  3  0  0  0  0  0  0
  -20.7000  -26.9470   22.6010 C   0  0  0  0  0  2  0  0  0  0  0  0
  -19.5940  -26.6380   21.5880 C   0  0  0  0  0  2  0  0  0  0  0  0
  -18.2130  -26.7880   22.2310 C   0  0  0  0  0  2  0  0  0  0  0  0
  -19.1690  -28.8850   23.3520 C   0  0  0  0  0  0  0  0  0  0  0  0
  -18.9580  -30.1450   23.9550 C   0  0  0  0  0  3  0  0  0  0  0  0
  -17.6550  -30.6510   24.1270 C   0  0  0  0  0  3  0  0  0  0  0  0
  -16.5470  -29.8960   23.7080 C   0  0  0  0  0  3  0  0  0  0  0  0
  -16.7410  -28.6390   23.1100 C   0  0  0  0  0  3  0  0  0  0  0  0
  -25.8880  -32.5380   23.8810 C   0  0  0  0  0  3  0  0  0  0  0  0
  -26.3840  -31.7820   25.1750 C   0  0  1  0  0  0  0  0  0  0  0  0
  -25.2740  -31.5570   26.2280 C   0  0  0  0  0  1  0  0  0  0  0  0
  -26.9690  -30.3990   24.8100 C   0  0  0  0  0  1  0  0  0  0  0  0
  -27.5260  -32.5810   25.8450 C   0  0  0  0  0  1  0  0  0  0  0  0
  -25.5770  -33.9410   24.1940 N   0  0  0  0  0  0  0  0  0  0  0  0
  -25.9180  -34.9880   23.4290 C   0  0  0  0  0  0  0  0  0  0  0  0
  -26.5990  -34.8740   22.4050 O   0  0  0  0  0  0  0  0  0  0  0  0
  -24.9730  -34.1020   24.9870 H   0  0  0  0  0  0  0  0  0  0  0  0
  -24.2040  -36.7880   23.0330 C   0  0  0  0  0  1  0  0  0  0  0  0
  -25.4290  -36.3830   23.8690 C   0  0  0  0  0  3  0  0  0  0  0  0
  -27.5510  -37.2690   24.7300 C   0  0  0  0  0  1  0  0  0  0  0  0
  -26.4680  -37.4320   23.7640 N   0  0  0  0  0  0  0  0  0  0  0  0
  -26.0610  -38.3540   23.8990 H   0  0  0  0  0  0  0  0  0  0  0  0
  -28.6740  -20.8930   20.3150 N   0  0  0  0  0  4  0  0  0  0  0  0
  -27.8740  -20.5600   20.8390 H   0  0  0  0  0  0  0  0  0  0  0  0
  -30.5880  -14.8120   20.2070 C   0  0  0  0  0  0  0  0  0  0  0  0
  -30.3610  -12.5330   19.2150 C   0  0  0  0  0  2  0  0  0  0  0  0
  -29.3990  -12.6060   18.0090 C   0  0  0  0  0  2  0  0  0  0  0  0
  -27.9280  -12.4570   18.4490 C   0  0  0  0  0  2  0  0  0  0  0  0
  -27.5860  -13.3100   19.7030 C   0  0  0  0  0  3  0  0  0  0  0  0
  -28.6750  -13.2180   20.7930 C   0  0  0  0  0  2  0  0  0  0  0  0
  -29.9530  -13.5860   20.1760 N   0  0  0  0  0  0  0  0  0  0  0  0
  -31.7780  -14.8670   19.8850 O   0  0  0  0  0  0  0  0  0  0  0  0
  -30.8360  -17.5570   18.7930 C   0  0  0  0  0  3  0  0  0  0  0  0
  -30.9500  -18.8150   18.1720 C   0  0  0  0  0  0  0  0  0  0  0  0
  -30.2490  -19.9290   18.6700 C   0  0  0  0  0  0  0  0  0  0  0  0
  -30.0050  -17.3660   19.9170 C   0  0  0  0  0  0  0  0  0  0  0  0
  -29.4590  -19.7760   19.8260 C   0  0  0  0  0  0  0  0  0  0  0  0
  -29.3260  -18.5010   20.3940 N   0  0  0  0  0  0  0  0  0  0  0  0
  -29.8370  -15.9710   20.4240 N   0  0  0  0  0  0  0  0  0  0  0  0
  -31.7190  -18.9410   17.0610 F   0  0  0  0  0  0  0  0  0  0  0  0
  -30.3120  -21.1090   18.0060 F   0  0  0  0  0  0  0  0  0  0  0  0
  -28.9510  -15.8030   20.8710 H   0  0  0  0  0  0  0  0  0  0  0  0
  -25.2200  -13.8740   20.5080 C   0  0  0  0  0  0  0  0  0  0  0  0
  -24.1680  -13.0900   20.8960 C   0  0  0  0  0  0  0  0  0  0  0  0
  -24.6370  -11.7430   20.8370 C   0  0  0  0  0  0  0  0  0  0  0  0
  -26.2590  -13.0030   20.2280 N   0  0  0  0  0  0  0  0  0  0  0  0
  -25.9190  -11.7140   20.4910 N   0  0  0  0  0  0  0  0  0  0  0  0
  -23.9190  -10.4740   21.0290 C   0  0  0  0  0  0  0  0  0  0  0  0
  -24.3700   -9.5030   21.9510 C   0  0  0  0  0  3  0  0  0  0  0  0
  -23.6520   -8.3010   22.1320 C   0  0  0  0  0  3  0  0  0  0  0  0
  -22.4700   -8.0600   21.3920 C   0  0  0  0  0  0  0  0  0  0  0  0
  -22.0390   -9.0180   20.4580 C   0  0  0  0  0  3  0  0  0  0  0  0
  -22.7580  -10.2120   20.2750 C   0  0  0  0  0  3  0  0  0  0  0  0
  -21.7230   -6.9100   21.4840 O   0  0  0  0  0  0  0  0  0  0  0  0
  -21.6790   -6.1670   22.6370 C   0  0  0  0  0  0  0  0  0  0  0  0
  -21.2320   -6.7120   23.8610 C   0  0  0  0  0  3  0  0  0  0  0  0
  -21.1430   -5.8940   25.0060 C   0  0  0  0  0  3  0  0  0  0  0  0
  -21.4860   -4.5310   24.9250 C   0  0  0  0  0  0  0  0  0  0  0  0
  -21.9250   -3.9850   23.7060 C   0  0  0  0  0  3  0  0  0  0  0  0
  -22.0180   -4.8010   22.5660 C   0  0  0  0  0  0  0  0  0  0  0  0
  -22.4180   -4.2650   21.3870 F   0  0  0  0  0  0  0  0  0  0  0  0
  -21.3930   -3.7420   26.0190 F   0  0  0  0  0  0  0  0  0  0  0  0
  -22.7750  -13.5550   21.2070 C   0  0  0  0  0  0  0  0  0  0  0  0
  -22.0720  -12.8430   22.0790 N   0  0  0  0  0  0  0  0  0  0  0  0
  -22.3190  -14.5830   20.7100 O   0  0  0  0  0  0  0  0  0  0  0  0
  -22.4500  -12.0100   22.5080 H   0  0  0  0  0  0  0  0  0  0  0  0
  -21.1330  -13.1310   22.3150 H   0  0  0  0  0  0  0  0  0  0  0  0
  -25.3790  -15.2480   20.3450 N   0  0  0  0  0  0  0  0  0  0  0  0
  -24.6220  -15.9050   20.4910 H   0  0  0  0  0  0  0  0  0  0  0  0
  -26.2100  -15.6880   19.9710 H   0  0  0  0  0  0  0  0  0  0  0  0
  1  4  1  0
  2  4  1  0
  4  3  1  0
  5  7  1  0
  5  1  1  0
  6  5  2  0
  8 10  1  0
  8  7  1  0
  9 20  2  0
 10 15  1  0
 11 19  1  0
 11 21  1  0
 12 18  1  0
 12 14  1  0
 13 19  1  0
 14 15  2  0
 14 13  1  0
 16 10  2  0
 17 16  1  0
 17 12  2  0
 18 11  1  0
 19  9  1  0
 21 23  2  0
 22 21  1  0
 24 22  1  0
 25 34  2  0
 25 30  1  0
 26 22  1  0
 26 30  1  0
 27 26  1  0
 28 29  1  0
 28 27  1  0
 29 25  1  0
 30 31  2  0
 31 32  1  0
 33 32  2  0
 34 33  1  0
 35  9  1  0
 35 40  1  0
 35 36  1  0
 36 39  1  1
 36 37  1  0
 38 36  1  0
 40 43  1  0
 41 45  1  0
 41 40  1  0
 42 41  2  0
 45 44  1  0
 47 45  1  0
 47 48  1  0
 47 46  1  0
 49  1  2  3
 49 50  1  0
 51 65  1  0
 52 57  1  0
 53 54  1  0
 53 52  1  0
 55 54  1  0
 55 72  1  0
 55 56  1  0
 57 51  1  0
 57 56  1  0
 58 51  2  0
 59 62  1  0
 60 61  1  0
 60 59  2  0
 61 63  2  0
 62 64  2  0
 62 65  1  0
 63 49  1  0
 63 64  1  0
 65 68  1  0
 66 60  1  0
 67 61  1  0
 69 70  2  0
 70 89  1  0
 71 70  1  0
 71 74  1  0
 72 73  1  0
 72 69  1  0
 73 71  2  0
 74 75  1  0
 75 76  2  0
 77 80  1  0
 77 76  1  0
 78 77  2  0
 79 78  1  0
 79 74  2  0
 80 81  1  0
 81 82  1  0
 82 83  2  0
 84 83  1  0
 84 88  1  0
 85 84  2  0
 86 81  2  0
 86 85  1  0
 87 86  1  0
 89 90  1  0
 90 93  1  0
 90 92  1  0
 91 89  2  0
 94 95  1  0
 94 69  1  0
 96 94  1  0
M  ISO  4   7 101   8 101  51 100  65 100
M  END
>  <TORSDO>  (60) 
F 20

>  <SCORE>  (60) 
-14.321

>  <name>  (60) 
59

>  <ligand_id>  (60) 
59

>  <original_smiles>  (60) 
[H]c1c([H])c([H])c2c(c1[H])C([H])([H])C([H])([H])C([H])([H])C2([H])N([H])C(=O)C1([H])N(C(=O)C([H])(N([H])C(=O)C([H])(N([H])C([H])([H])[H])C([H])([H])[H])C(C([H])([H])[H])(C([H])([H])[H])C([H])([H])[H])C([H])([H])c2c([H])c(OC([H])([H])C(=O)C([H])(N([H])c3nc(N([H])C(=O)N4C([H])([H])C([H])([H])C([H])([H])C([H])(n5nc(-c6c([H])c([H])c(Oc7c([H])c([H])c(F)c([H])c7F)c([H])c6[H])c(C(=O)N([H])[H])c5N([H])[H])C4([H])[H])c([H])c(F)c3F)C([H])(C([H])([H])[H])C([H])([H])[H])c([H])c([H])c2C1([H])[H]

>  <smiles>  (60) 
[H]c1c([H])c([H])c2c(c1[H])C([H])([H])C([H])([H])C([H])([H])C2([H])N([H])C(=O)C1([H])N(C(=O)C([H])(N([H])C(=O)C([H])(N([H])C([H])([H])[H])C([H])([H])[H])C(C([H])([H])[H])(C([H])([H])[H])C([H])([H])[H])C([H])([H])c2c([H])c(OC([H])([H])C(=O)C([H])(N([H])c3nc(N([H])C(=O)N4C([H])([H])C([H])([H])C([H])([H])C([H])(n5nc(-c6c([H])c([H])c(Oc7c([H])c([H])c(F)c([H])c7F)c([H])c6[H])c(C(=O)N([H])[H])c5N([H])[H])C4([H])[H])c([H])c(F)c3F)C([H])(C([H])([H])[H])C([H])([H])[H])c([H])c([H])c2C1([H])[H]

$$$$
60:0:0
     RDKit          3D

 95103  0  0  1  0  0  0  0  0999 V2000
  -29.1230  -22.2950   20.7990 C   0  0  0  0  0  0  0  0  0  0  0  0
  -29.5440  -21.1380   20.1400 N   0  0  0  0  0  0  0  0  0  0  0  0
  -28.6100  -22.1980   21.9160 O   0  0  0  0  0  0  0  0  0  0  0  0
  -29.7920  -21.2950   19.1740 H   0  0  0  0  0  0  0  0  0  0  0  0
  -30.6120  -14.8150   20.1050 C   0  0  0  0  0  0  0  0  0  0  0  0
  -30.3900  -12.5440   19.0610 C   0  0  0  0  0  2  0  0  0  0  0  0
  -29.3890  -12.5860   17.8850 C   0  0  0  0  0  2  0  0  0  0  0  0
  -27.9480  -12.3810   18.3900 C   0  0  0  0  0  2  0  0  0  0  0  0
  -27.6120  -13.2780   19.6100 C   0  0  0  0  0  3  0  0  0  0  0  0
  -28.7250  -13.2200   20.6800 C   0  0  0  0  0  2  0  0  0  0  0  0
  -29.9820  -13.5930   20.0200 N   0  0  0  0  0  0  0  0  0  0  0  0
  -31.8130  -14.9040   19.8370 O   0  0  0  0  0  0  0  0  0  0  0  0
  -30.7150  -19.4760   21.6810 C   0  0  0  0  0  0  0  0  0  0  0  0
  -29.8640  -19.7560   20.6260 C   0  0  0  0  0  0  0  0  0  0  0  0
  -30.1060  -17.3560   20.5180 C   0  0  0  0  0  0  0  0  0  0  0  0
  -29.5250  -18.4930   19.9810 N   0  0  0  0  0  0  0  0  0  0  0  0
  -29.8090  -15.9500   20.1500 N   0  0  0  0  0  0  0  0  0  0  0  0
  -31.1480  -17.7810   21.8720 S   0  0  0  0  0  0  0  0  0  0  0  0
  -28.8340  -15.7570   19.9930 H   0  0  0  0  0  0  0  0  0  0  0  0
  -25.2510  -13.8420   20.4430 C   0  0  0  0  0  0  0  0  0  0  0  0
  -24.2100  -13.0550   20.8500 C   0  0  0  0  0  0  0  0  0  0  0  0
  -24.6870  -11.7080   20.7950 C   0  0  0  0  0  0  0  0  0  0  0  0
  -26.2950  -12.9750   20.1610 N   0  0  0  0  0  0  0  0  0  0  0  0
  -25.9650  -11.6880   20.4390 N   0  0  0  0  0  0  0  0  0  0  0  0
  -23.9820  -10.4380   21.0020 C   0  0  0  0  0  0  0  0  0  0  0  0
  -24.4660   -9.4620   21.9010 C   0  0  0  0  0  3  0  0  0  0  0  0
  -23.7570   -8.2560   22.0960 C   0  0  0  0  0  3  0  0  0  0  0  0
  -22.5520   -8.0180   21.3930 C   0  0  0  0  0  0  0  0  0  0  0  0
  -22.0890   -8.9840   20.4820 C   0  0  0  0  0  3  0  0  0  0  0  0
  -22.7970  -10.1810   20.2850 C   0  0  0  0  0  3  0  0  0  0  0  0
  -21.8100   -6.8670   21.5020 O   0  0  0  0  0  0  0  0  0  0  0  0
  -21.8380   -6.0970   22.6380 C   0  0  0  0  0  0  0  0  0  0  0  0
  -21.4830   -6.6200   23.9010 C   0  0  0  0  0  3  0  0  0  0  0  0
  -21.4570   -5.7760   25.0290 C   0  0  0  0  0  3  0  0  0  0  0  0
  -21.7770   -4.4110   24.8970 C   0  0  0  0  0  0  0  0  0  0  0  0
  -22.1240   -3.8880   23.6390 C   0  0  0  0  0  3  0  0  0  0  0  0
  -22.1520   -4.7280   22.5120 C   0  0  0  0  0  0  0  0  0  0  0  0
  -22.4670   -4.2140   21.2990 F   0  0  0  0  0  0  0  0  0  0  0  0
  -21.7450   -3.5990   25.9800 F   0  0  0  0  0  0  0  0  0  0  0  0
  -22.8190  -13.5140   21.1760 C   0  0  0  0  0  0  0  0  0  0  0  0
  -22.1320  -12.8070   22.0660 N   0  0  0  0  0  0  0  0  0  0  0  0
  -22.3520  -14.5370   20.6760 O   0  0  0  0  0  0  0  0  0  0  0  0
  -22.5240  -11.9790   22.4890 H   0  0  0  0  0  0  0  0  0  0  0  0
  -21.2040  -13.1000   22.3290 H   0  0  0  0  0  0  0  0  0  0  0  0
  -25.3880  -15.2160   20.2620 N   0  0  0  0  0  0  0  0  0  0  0  0
  -24.6040  -15.8440   20.3970 H   0  0  0  0  0  0  0  0  0  0  0  0
  -26.1930  -15.6760   19.8590 H   0  0  0  0  0  0  0  0  0  0  0  0
  -31.3190  -20.3900   22.5650 C   0  0  0  0  0  0  0  0  0  0  0  0
  -31.8190  -21.1390   23.2960 N   0  0  0  0  0  0  0  0  0  0  0  0
  -29.5770  -23.6990   18.6700 C   0  0  0  0  0  1  0  0  0  0  0  0
  -29.2920  -23.8010   20.1860 C   0  0  2  0  0  0  0  0  0  0  0  0
  -31.8970  -23.8730   20.6950 C   0  0  0  0  0  1  0  0  0  0  0  0
  -30.4980  -24.4790   20.9020 C   0  0  0  0  0  2  0  0  0  0  0  0
  -28.0730  -24.8800   20.3900 C   0  0  0  0  0  2  0  0  0  0  0  0
  -28.2860  -26.3810   20.2700 O   0  0  0  0  0  0  0  0  0  0  0  0
  -24.6090  -31.9160   23.2650 C   0  0  0  0  0  0  0  0  0  0  0  0
  -27.1770  -27.2710   20.2330 C   0  0  0  0  0  0  0  0  0  0  0  0
  -23.3930  -30.5100   21.6430 C   0  0  0  0  0  3  0  0  0  0  0  0
  -24.8300  -28.9420   20.2150 C   0  0  0  0  0  0  0  0  0  0  0  0
  -25.9380  -30.8020   21.4480 C   0  0  0  0  0  2  0  0  0  0  0  0
  -26.0090  -29.4150   20.8050 C   0  0  0  0  0  0  0  0  0  0  0  0
  -27.1840  -28.5930   20.8000 C   0  0  0  0  0  3  0  0  0  0  0  0
  -25.9750  -26.8720   19.6100 C   0  0  0  0  0  3  0  0  0  0  0  0
  -24.8170  -27.6770   19.6080 C   0  0  0  0  0  3  0  0  0  0  0  0
  -23.5980  -29.8270   20.2650 C   0  0  0  0  0  2  0  0  0  0  0  0
  -24.6660  -31.0970   22.1730 N   0  0  0  0  0  0  0  0  0  0  0  0
  -23.5290  -32.2060   23.8010 O   0  0  0  0  0  0  0  0  0  0  0  0
  -22.7290  -29.5040   22.6110 C   0  0  0  0  0  0  0  0  0  0  0  0
  -21.4060  -29.3160   22.4790 N   0  0  0  0  0  0  0  0  0  0  0  0
  -23.4060  -28.8900   23.4390 O   0  0  0  0  0  0  0  0  0  0  0  0
  -20.9170  -29.8590   21.7810 H   0  0  0  0  0  0  0  0  0  0  0  0
  -18.0380  -28.0840   22.9670 C   0  0  0  0  0  0  0  0  0  0  0  0
  -20.5900  -28.3820   23.2590 C   0  0  0  0  0  3  0  0  0  0  0  0
  -20.7170  -26.9420   22.7080 C   0  0  0  0  0  2  0  0  0  0  0  0
  -19.6300  -26.5910   21.6870 C   0  0  0  0  0  2  0  0  0  0  0  0
  -18.2400  -26.7260   22.3140 C   0  0  0  0  0  2  0  0  0  0  0  0
  -19.1430  -28.8680   23.3970 C   0  0  0  0  0  0  0  0  0  0  0  0
  -18.9030  -30.1370   23.9650 C   0  0  0  0  0  3  0  0  0  0  0  0
  -17.5890  -30.6250   24.1080 C   0  0  0  0  0  3  0  0  0  0  0  0
  -16.5000  -29.8390   23.6970 C   0  0  0  0  0  3  0  0  0  0  0  0
  -16.7240  -28.5700   23.1330 C   0  0  0  0  0  3  0  0  0  0  0  0
  -25.8940  -32.5500   23.8800 C   0  0  0  0  0  3  0  0  0  0  0  0
  -26.4110  -31.7860   25.1610 C   0  0  1  0  0  0  0  0  0  0  0  0
  -25.3180  -31.5630   26.2330 C   0  0  0  0  0  1  0  0  0  0  0  0
  -26.9920  -30.4060   24.7780 C   0  0  0  0  0  1  0  0  0  0  0  0
  -27.5720  -32.5790   25.8080 C   0  0  0  0  0  1  0  0  0  0  0  0
  -25.5940  -33.9510   24.2050 N   0  0  0  0  0  0  0  0  0  0  0  0
  -25.9210  -34.9990   23.4380 C   0  0  0  0  0  0  0  0  0  0  0  0
  -26.5800  -34.8870   22.4000 O   0  0  0  0  0  0  0  0  0  0  0  0
  -25.0040  -34.1150   25.0090 H   0  0  0  0  0  0  0  0  0  0  0  0
  -24.1920  -36.7920   23.0940 C   0  0  0  0  0  1  0  0  0  0  0  0
  -25.4410  -36.3890   23.8940 C   0  0  0  0  0  3  0  0  0  0  0  0
  -27.5860  -37.2730   24.6930 C   0  0  0  0  0  1  0  0  0  0  0  0
  -26.4740  -37.4390   23.7620 N   0  0  0  0  0  0  0  0  0  0  0  0
  -26.0740  -38.3610   23.9050 H   0  0  0  0  0  0  0  0  0  0  0  0
  1  3  2  0
  2 14  1  0
  2  1  1  0
  4  2  1  0
  5 17  1  0
  6 11  1  0
  7  8  1  0
  7  6  1  0
  9  8  1  0
  9 23  1  0
  9 10  1  0
 11  5  1  0
 11 10  1  0
 12  5  2  0
 13 18  1  0
 13 48  1  0
 14 13  2  0
 15 18  1  0
 16 15  2  0
 16 14  1  0
 17 15  1  0
 19 17  1  0
 20 21  2  0
 21 40  1  0
 22 21  1  0
 22 25  1  0
 23 24  1  0
 23 20  1  0
 24 22  2  0
 25 26  1  0
 26 27  2  0
 28 31  1  0
 28 27  1  0
 29 28  2  0
 30 29  1  0
 30 25  2  0
 31 32  1  0
 32 33  1  0
 33 34  2  0
 35 34  1  0
 35 39  1  0
 36 35  2  0
 37 32  2  0
 37 36  1  0
 38 37  1  0
 40 41  1  0
 41 44  1  0
 41 43  1  0
 42 40  2  0
 45 46  1  0
 45 20  1  0
 47 45  1  0
 48 49  3  0
 51 50  1  6
 51 54  1  0
 51  1  1  0
 51 53  1  0
 52 53  1  0
 55 54  1  0
 56 67  2  0
 57 55  1  0
 57 62  1  0
 58 66  1  0
 58 68  1  0
 59 65  1  0
 59 61  1  0
 60 66  1  0
 61 60  1  0
 62 61  2  0
 63 57  2  0
 64 63  1  0
 64 59  2  0
 65 58  1  0
 66 56  1  0
 68 70  2  0
 69 68  1  0
 71 69  1  0
 72 81  2  0
 72 77  1  0
 73 69  1  0
 73 77  1  0
 74 73  1  0
 75 76  1  0
 75 74  1  0
 76 72  1  0
 77 78  2  0
 78 79  1  0
 80 79  2  0
 81 80  1  0
 82 56  1  0
 82 87  1  0
 82 83  1  0
 83 86  1  1
 83 84  1  0
 85 83  1  0
 87 90  1  0
 88 92  1  0
 88 87  1  0
 89 88  2  0
 92 91  1  0
 94 92  1  0
 94 95  1  0
 94 93  1  0
M  ISO  4   5 100  17 100  54 101  55 101
M  END
>  <TORSDO>  (61) 
F 20

>  <SCORE>  (61) 
-13.843

>  <name>  (61) 
60

>  <ligand_id>  (61) 
60

>  <original_smiles>  (61) 
[H]c1c([H])c([H])c2c(c1[H])C([H])([H])C([H])([H])C([H])([H])C2([H])N([H])C(=O)C1([H])N(C(=O)C([H])(N([H])C(=O)C([H])(N([H])C([H])([H])[H])C([H])([H])[H])C(C([H])([H])[H])(C([H])([H])[H])C([H])([H])[H])C([H])([H])c2c([H])c(OC([H])([H])C(C(=O)N([H])c3nc(N([H])C(=O)N4C([H])([H])C([H])([H])C([H])([H])C([H])(n5nc(-c6c([H])c([H])c(Oc7c([H])c([H])c(F)c([H])c7F)c([H])c6[H])c(C(=O)N([H])[H])c5N([H])[H])C4([H])[H])sc3C#N)(C([H])([H])[H])C([H])([H])C([H])([H])[H])c([H])c([H])c2C1([H])[H]

>  <smiles>  (61) 
[H]c1c([H])c([H])c2c(c1[H])C([H])([H])C([H])([H])C([H])([H])C2([H])N([H])C(=O)C1([H])N(C(=O)C([H])(N([H])C(=O)C([H])(N([H])C([H])([H])[H])C([H])([H])[H])C(C([H])([H])[H])(C([H])([H])[H])C([H])([H])[H])C([H])([H])c2c([H])c(OC([H])([H])C(C(=O)N([H])c3nc(N([H])C(=O)N4C([H])([H])C([H])([H])C([H])([H])C([H])(n5nc(-c6c([H])c([H])c(Oc7c([H])c([H])c(F)c([H])c7F)c([H])c6[H])c(C(=O)N([H])[H])c5N([H])[H])C4([H])[H])sc3C#N)(C([H])([H])[H])C([H])([H])C([H])([H])[H])c([H])c([H])c2C1([H])[H]

$$$$
61:0:0
     RDKit          3D

100108  0  0  1  0  0  0  0  0999 V2000
  -29.0370  -20.7450   20.5230 C   0  0  0  0  0  3  0  0  0  0  0  0
  -30.8220  -14.7960   20.0470 C   0  0  0  0  0  0  0  0  0  0  0  0
  -30.4950  -12.5990   18.9800 C   0  0  0  0  0  2  0  0  0  0  0  0
  -29.5020  -12.7920   17.8140 C   0  0  0  0  0  2  0  0  0  0  0  0
  -28.0490  -12.6450   18.3100 C   0  0  0  0  0  2  0  0  0  0  0  0
  -27.7610  -13.4800   19.5870 C   0  0  0  0  0  3  0  0  0  0  0  0
  -28.8740  -13.2990   20.6460 C   0  0  0  0  0  2  0  0  0  0  0  0
  -30.1640  -13.6020   20.0080 N   0  0  0  0  0  0  0  0  0  0  0  0
  -31.9590  -14.9270   19.5830 O   0  0  0  0  0  0  0  0  0  0  0  0
  -29.7690  -19.5060   19.9730 C   0  0  0  0  0  0  0  0  0  0  0  0
  -30.5360  -19.3880   18.8270 C   0  0  0  0  0  0  0  0  0  0  0  0
  -30.2420  -17.2230   20.0170 C   0  0  0  0  0  0  0  0  0  0  0  0
  -29.5910  -18.2440   20.6120 N   0  0  0  0  0  0  0  0  0  0  0  0
  -30.1100  -15.8660   20.4750 N   0  0  0  0  0  0  0  0  0  0  0  0
  -31.1300  -17.7570   18.5880 S   0  0  0  0  0  0  0  0  0  0  0  0
  -29.2710  -15.6570   20.9910 H   0  0  0  0  0  0  0  0  0  0  0  0
  -25.4100  -14.0630   20.4480 C   0  0  0  0  0  0  0  0  0  0  0  0
  -24.3620  -13.2820   20.8510 C   0  0  0  0  0  0  0  0  0  0  0  0
  -24.8140  -11.9310   20.7540 C   0  0  0  0  0  0  0  0  0  0  0  0
  -26.4380  -13.1890   20.1330 N   0  0  0  0  0  0  0  0  0  0  0  0
  -26.0860  -11.8980   20.3740 N   0  0  0  0  0  0  0  0  0  0  0  0
  -24.0930  -10.6660   20.9430 C   0  0  0  0  0  0  0  0  0  0  0  0
  -24.5340   -9.6980   21.8730 C   0  0  0  0  0  3  0  0  0  0  0  0
  -23.8140   -8.4970   22.0520 C   0  0  0  0  0  3  0  0  0  0  0  0
  -22.6380   -8.2560   21.3040 C   0  0  0  0  0  0  0  0  0  0  0  0
  -22.2150   -9.2130   20.3650 C   0  0  0  0  0  3  0  0  0  0  0  0
  -22.9360  -10.4060   20.1830 C   0  0  0  0  0  3  0  0  0  0  0  0
  -21.8870   -7.1100   21.3930 O   0  0  0  0  0  0  0  0  0  0  0  0
  -21.8120   -6.3880   22.5570 C   0  0  0  0  0  0  0  0  0  0  0  0
  -21.2700   -6.9350   23.7400 C   0  0  0  0  0  3  0  0  0  0  0  0
  -21.1480   -6.1350   24.8940 C   0  0  0  0  0  3  0  0  0  0  0  0
  -21.5580   -4.7890   24.8640 C   0  0  0  0  0  0  0  0  0  0  0  0
  -22.0910   -4.2410   23.6850 C   0  0  0  0  0  3  0  0  0  0  0  0
  -22.2160   -5.0380   22.5340 C   0  0  0  0  0  0  0  0  0  0  0  0
  -22.7120   -4.4980   21.3940 F   0  0  0  0  0  0  0  0  0  0  0  0
  -21.4340   -4.0180   25.9710 F   0  0  0  0  0  0  0  0  0  0  0  0
  -22.9820  -13.7560   21.2130 C   0  0  0  0  0  0  0  0  0  0  0  0
  -22.2940  -13.0270   22.0850 N   0  0  0  0  0  0  0  0  0  0  0  0
  -22.5280  -14.8050   20.7600 O   0  0  0  0  0  0  0  0  0  0  0  0
  -22.6740  -12.1770   22.4700 H   0  0  0  0  0  0  0  0  0  0  0  0
  -21.3720  -13.3250   22.3670 H   0  0  0  0  0  0  0  0  0  0  0  0
  -25.5730  -15.4380   20.3050 N   0  0  0  0  0  0  0  0  0  0  0  0
  -24.8190  -16.0910   20.4890 H   0  0  0  0  0  0  0  0  0  0  0  0
  -26.3980  -15.8830   19.9230 H   0  0  0  0  0  0  0  0  0  0  0  0
  -30.8530  -20.3480   17.8690 N   0  0  0  0  0  0  0  0  0  0  0  0
  -30.4600  -21.2820   17.7990 H   0  0  0  0  0  0  0  0  0  0  0  0
  -31.4170  -20.1270   17.0520 H   0  0  0  0  0  0  0  0  0  0  0  0
  -29.7830  -22.1130   20.4320 C   0  0  0  0  0  0  0  0  0  0  0  0
  -29.4150  -24.5190   19.9980 C   0  0  0  0  0  0  0  0  0  0  0  0
  -29.0780  -23.1980   20.0100 N   0  0  0  0  0  0  0  0  0  0  0  0
  -30.9520  -22.1690   20.8300 O   0  0  0  0  0  0  0  0  0  0  0  0
  -30.4830  -24.9740   20.4240 O   0  0  0  0  0  0  0  0  0  0  0  0
  -28.1490  -23.0080   19.6660 H   0  0  0  0  0  0  0  0  0  0  0  0
  -28.6050  -25.6850   17.8970 C   0  0  0  0  0  1  0  0  0  0  0  0
  -28.3590  -25.5000   19.4040 C   0  0  0  0  0  3  0  0  0  0  0  0
  -28.3700  -26.8210   20.0270 O   0  0  0  0  0  0  0  0  0  0  0  0
  -24.5890  -31.9830   23.2590 C   0  0  0  0  0  0  0  0  0  0  0  0
  -27.2030  -27.5870   20.0240 C   0  0  0  0  0  0  0  0  0  0  0  0
  -23.3680  -30.6130   21.6070 C   0  0  0  0  0  3  0  0  0  0  0  0
  -24.8060  -29.1260   20.1190 C   0  0  0  0  0  0  0  0  0  0  0  0
  -25.8950  -30.9790   21.3830 C   0  0  0  0  0  2  0  0  0  0  0  0
  -25.9760  -29.6220   20.7060 C   0  0  0  0  0  0  0  0  0  0  0  0
  -27.1730  -28.8580   20.6610 C   0  0  0  0  0  3  0  0  0  0  0  0
  -26.0050  -27.1370   19.4150 C   0  0  0  0  0  3  0  0  0  0  0  0
  -24.8180  -27.8830   19.4720 C   0  0  0  0  0  3  0  0  0  0  0  0
  -23.5610  -29.9790   20.2070 C   0  0  0  0  0  2  0  0  0  0  0  0
  -24.6370  -31.2060   22.1400 N   0  0  0  0  0  0  0  0  0  0  0  0
  -23.5140  -32.2340   23.8210 O   0  0  0  0  0  0  0  0  0  0  0  0
  -22.7410  -29.5590   22.5510 C   0  0  0  0  0  0  0  0  0  0  0  0
  -21.4190  -29.3510   22.4260 N   0  0  0  0  0  0  0  0  0  0  0  0
  -23.4400  -28.9340   23.3510 O   0  0  0  0  0  0  0  0  0  0  0  0
  -20.9130  -29.9130   21.7560 H   0  0  0  0  0  0  0  0  0  0  0  0
  -18.0750  -28.0660   22.9070 C   0  0  0  0  0  0  0  0  0  0  0  0
  -20.6250  -28.3850   23.1860 C   0  0  0  0  0  3  0  0  0  0  0  0
  -20.7640  -26.9630   22.5960 C   0  0  0  0  0  2  0  0  0  0  0  0
  -19.6720  -26.6220   21.5760 C   0  0  0  0  0  2  0  0  0  0  0  0
  -18.2870  -26.7270   22.2190 C   0  0  0  0  0  2  0  0  0  0  0  0
  -19.1730  -28.8500   23.3470 C   0  0  0  0  0  0  0  0  0  0  0  0
  -18.9220  -30.1030   23.9490 C   0  0  0  0  0  3  0  0  0  0  0  0
  -17.6050  -30.5700   24.1170 C   0  0  0  0  0  3  0  0  0  0  0  0
  -16.5210  -29.7830   23.6930 C   0  0  0  0  0  3  0  0  0  0  0  0
  -16.7560  -28.5320   23.0940 C   0  0  0  0  0  3  0  0  0  0  0  0
  -25.8790  -32.6120   23.8720 C   0  0  0  0  0  3  0  0  0  0  0  0
  -26.3990  -31.8420   25.1470 C   0  0  1  0  0  0  0  0  0  0  0  0
  -25.3100  -31.6030   26.2180 C   0  0  0  0  0  1  0  0  0  0  0  0
  -26.9830  -30.4650   24.7550 C   0  0  0  0  0  1  0  0  0  0  0  0
  -27.5500  -32.6390   25.8060 C   0  0  0  0  0  1  0  0  0  0  0  0
  -25.5760  -34.0120   24.1960 N   0  0  0  0  0  0  0  0  0  0  0  0
  -25.8990  -35.0590   23.4230 C   0  0  0  0  0  0  0  0  0  0  0  0
  -26.5530  -34.9450   22.3840 O   0  0  0  0  0  0  0  0  0  0  0  0
  -24.9950  -34.1750   25.0060 H   0  0  0  0  0  0  0  0  0  0  0  0
  -24.1840  -36.8620   23.0560 C   0  0  0  0  0  1  0  0  0  0  0  0
  -25.4180  -36.4500   23.8760 C   0  0  0  0  0  3  0  0  0  0  0  0
  -27.5420  -37.3350   24.7310 C   0  0  0  0  0  1  0  0  0  0  0  0
  -26.4580  -37.4970   23.7670 N   0  0  0  0  0  0  0  0  0  0  0  0
  -26.0530  -38.4210   23.8940 H   0  0  0  0  0  0  0  0  0  0  0  0
  -28.7700  -20.5330   21.9510 N   0  0  0  0  0  4  0  0  0  0  0  0
  -29.6310  -20.6520   22.4520 H   0  0  0  0  0  0  0  0  0  0  0  0
  -28.4560  -19.5880   22.0760 H   0  0  0  0  0  0  0  0  0  0  0  0
  -28.0920  -21.1780   22.3090 H   0  0  0  0  0  0  0  0  0  0  0  0
  1 48  1  0
  1 97  1  0
  2 14  1  0
  3  8  1  0
  4  5  1  0
  4  3  1  0
  6  5  1  0
  6 20  1  0
  6  7  1  0
  8  2  1  0
  8  7  1  0
  9  2  2  0
 10  1  1  0
 10 13  1  0
 11 10  2  0
 12 14  1  0
 12 13  2  0
 14 16  1  0
 15 11  1  0
 15 12  1  0
 17 18  2  0
 18 37  1  0
 19 18  1  0
 19 22  1  0
 20 21  1  0
 20 17  1  0
 21 19  2  0
 22 23  1  0
 23 24  2  0
 25 28  1  0
 25 24  1  0
 26 25  2  0
 27 26  1  0
 27 22  2  0
 28 29  1  0
 29 30  1  0
 30 31  2  0
 32 31  1  0
 32 36  1  0
 33 32  2  0
 34 29  2  0
 34 33  1  0
 35 34  1  0
 37 38  1  0
 38 41  1  0
 38 40  1  0
 39 37  2  0
 42 17  1  0
 42 43  1  0
 44 42  1  0
 45 11  1  0
 46 45  1  0
 47 45  1  0
 48 51  2  0
 49 50  1  0
 49 52  2  0
 50 48  1  0
 53 50  1  0
 55 54  1  0
 55 49  1  0
 55 56  1  0
 57 68  2  0
 58 56  1  0
 58 63  1  0
 59 67  1  0
 59 69  1  0
 60 66  1  0
 60 62  1  0
 61 67  1  0
 62 61  1  0
 63 62  2  0
 64 65  1  0
 64 58  2  0
 65 60  2  0
 66 59  1  0
 67 57  1  0
 69 71  2  0
 70 69  1  0
 72 70  1  0
 73 82  2  0
 73 78  1  0
 74 70  1  0
 74 78  1  0
 75 74  1  0
 76 77  1  0
 76 75  1  0
 77 73  1  0
 78 79  2  0
 79 80  1  0
 81 80  2  0
 82 81  1  0
 83 57  1  0
 83 88  1  0
 83 84  1  0
 84 87  1  1
 84 85  1  0
 86 84  1  0
 88 91  1  0
 89 93  1  0
 89 88  1  0
 90 89  2  0
 93 92  1  0
 95 93  1  0
 95 96  1  0
 95 94  1  0
 97 99  1  0
 97100  1  0
 97 98  1  0
M  ISO  4   2 100  14 100  55 101  56 101
M  END
>  <TORSDO>  (62) 
F 20

>  <SCORE>  (62) 
-13.852

>  <name>  (62) 
61

>  <ligand_id>  (62) 
61

>  <original_smiles>  (62) 
[H]c1c([H])c([H])c2c(c1[H])C([H])([H])C([H])([H])C([H])([H])C2([H])N([H])C(=O)C1([H])N(C(=O)C([H])(N([H])C(=O)C([H])(N([H])C([H])([H])[H])C([H])([H])[H])C(C([H])([H])[H])(C([H])([H])[H])C([H])([H])[H])C([H])([H])c2c([H])c(OC([H])(C(=O)N([H])C(=O)C([H])(c3nc(N([H])C(=O)N4C([H])([H])C([H])([H])C([H])([H])C([H])(n5nc(-c6c([H])c([H])c(Oc7c([H])c([H])c(F)c([H])c7F)c([H])c6[H])c(C(=O)N([H])[H])c5N([H])[H])C4([H])[H])sc3N([H])[H])[N+]([H])([H])[H])C([H])([H])[H])c([H])c([H])c2C1([H])[H]

>  <smiles>  (62) 
[H]c1c([H])c([H])c2c(c1[H])C([H])([H])C([H])([H])C([H])([H])C2([H])N([H])C(=O)C1([H])N(C(=O)C([H])(N([H])C(=O)C([H])(N([H])C([H])([H])[H])C([H])([H])[H])C(C([H])([H])[H])(C([H])([H])[H])C([H])([H])[H])C([H])([H])c2c([H])c(OC([H])(C(=O)N([H])C(=O)C([H])(c3nc(N([H])C(=O)N4C([H])([H])C([H])([H])C([H])([H])C([H])(n5nc(-c6c([H])c([H])c(Oc7c([H])c([H])c(F)c([H])c7F)c([H])c6[H])c(C(=O)N([H])[H])c5N([H])[H])C4([H])[H])sc3N([H])[H])[N+]([H])([H])[H])C([H])([H])[H])c([H])c([H])c2C1([H])[H]

$$$$
62:0:0
     RDKit          3D

 94102  0  0  1  0  0  0  0  0999 V2000
  -28.6330  -20.8420   20.5420 C   0  0  0  0  0  0  0  0  0  0  0  0
  -27.4280  -20.6240   20.7340 O   0  0  0  0  0  0  0  0  0  0  0  0
  -30.6490  -14.7600   20.2730 C   0  0  0  0  0  0  0  0  0  0  0  0
  -30.4300  -12.5070   19.2280 C   0  0  0  0  0  2  0  0  0  0  0  0
  -29.4810  -12.6300   18.0140 C   0  0  0  0  0  2  0  0  0  0  0  0
  -28.0120  -12.4610   18.4510 C   0  0  0  0  0  2  0  0  0  0  0  0
  -27.6580  -13.3230   19.6930 C   0  0  0  0  0  3  0  0  0  0  0  0
  -28.7260  -13.1920   20.8030 C   0  0  0  0  0  2  0  0  0  0  0  0
  -30.0240  -13.5370   20.2110 N   0  0  0  0  0  0  0  0  0  0  0  0
  -31.8240  -14.8700   19.9100 O   0  0  0  0  0  0  0  0  0  0  0  0
  -29.5760  -19.6480   20.3430 C   0  0  0  0  0  0  0  0  0  0  0  0
  -30.8690  -19.6510   19.8270 C   0  0  0  0  0  0  0  0  0  0  0  0
  -30.1070  -17.3020   20.3650 C   0  0  0  0  0  0  0  0  0  0  0  0
  -29.1860  -18.2770   20.6230 N   0  0  0  0  0  0  0  0  0  0  0  0
  -29.8670  -15.8610   20.5730 N   0  0  0  0  0  0  0  0  0  0  0  0
  -31.5750  -18.0310   19.7170 S   0  0  0  0  0  0  0  0  0  0  0  0
  -28.9370  -15.6350   20.8890 H   0  0  0  0  0  0  0  0  0  0  0  0
  -25.2730  -13.9100   20.4340 C   0  0  0  0  0  0  0  0  0  0  0  0
  -24.2110  -13.1340   20.8120 C   0  0  0  0  0  0  0  0  0  0  0  0
  -24.6770  -11.7840   20.7850 C   0  0  0  0  0  0  0  0  0  0  0  0
  -26.3170  -13.0340   20.1940 N   0  0  0  0  0  0  0  0  0  0  0  0
  -25.9680  -11.7490   20.4670 N   0  0  0  0  0  0  0  0  0  0  0  0
  -23.9550  -10.5200   20.9820 C   0  0  0  0  0  0  0  0  0  0  0  0
  -24.3910   -9.5590   21.9200 C   0  0  0  0  0  3  0  0  0  0  0  0
  -23.6670   -8.3610   22.1060 C   0  0  0  0  0  3  0  0  0  0  0  0
  -22.4950   -8.1170   21.3520 C   0  0  0  0  0  0  0  0  0  0  0  0
  -22.0780   -9.0670   20.4030 C   0  0  0  0  0  3  0  0  0  0  0  0
  -22.8020  -10.2550   20.2160 C   0  0  0  0  0  3  0  0  0  0  0  0
  -21.7410   -6.9730   21.4480 O   0  0  0  0  0  0  0  0  0  0  0  0
  -21.6880   -6.2400   22.6070 C   0  0  0  0  0  0  0  0  0  0  0  0
  -21.2360   -6.7990   23.8220 C   0  0  0  0  0  3  0  0  0  0  0  0
  -21.1310   -5.9910   24.9720 C   0  0  0  0  0  3  0  0  0  0  0  0
  -21.4690   -4.6270   24.9080 C   0  0  0  0  0  0  0  0  0  0  0  0
  -21.9110   -4.0660   23.6970 C   0  0  0  0  0  3  0  0  0  0  0  0
  -22.0190   -4.8700   22.5490 C   0  0  0  0  0  0  0  0  0  0  0  0
  -22.4270   -4.3200   21.3800 F   0  0  0  0  0  0  0  0  0  0  0  0
  -21.3600   -3.8490   26.0100 F   0  0  0  0  0  0  0  0  0  0  0  0
  -22.8140  -13.6090   21.0910 C   0  0  0  0  0  0  0  0  0  0  0  0
  -22.0910  -12.9140   21.9620 N   0  0  0  0  0  0  0  0  0  0  0  0
  -22.3720  -14.6330   20.5730 O   0  0  0  0  0  0  0  0  0  0  0  0
  -22.4620  -12.0850   22.4060 H   0  0  0  0  0  0  0  0  0  0  0  0
  -21.1560  -13.2150   22.1930 H   0  0  0  0  0  0  0  0  0  0  0  0
  -25.4240  -15.2810   20.2520 N   0  0  0  0  0  0  0  0  0  0  0  0
  -24.6410  -15.9180   20.3560 H   0  0  0  0  0  0  0  0  0  0  0  0
  -26.2590  -15.7330   19.9030 H   0  0  0  0  0  0  0  0  0  0  0  0
  -31.6670  -20.7060   19.3820 N   0  0  0  0  0  0  0  0  0  0  0  0
  -31.5650  -21.6440   19.7670 H   0  0  0  0  0  0  0  0  0  0  0  0
  -32.6250  -20.5320   19.0900 H   0  0  0  0  0  0  0  0  0  0  0  0
  -29.1020  -22.4240   20.6230 C   0  0  0  0  0  0  0  0  0  0  0  0
  -30.1800  -22.6770   21.1770 O   0  0  0  0  0  0  0  0  0  0  0  0
  -26.7600  -23.3100   19.8460 C   0  0  0  0  0  1  0  0  0  0  0  0
  -28.2460  -23.6840   20.0680 C   0  0  0  0  0  3  0  0  0  0  0  0
  -28.3310  -25.1100   20.8630 C   0  0  0  0  0  2  0  0  0  0  0  0
  -28.4260  -26.4750   20.2380 O   0  0  0  0  0  0  0  0  0  0  0  0
  -24.6240  -31.9040   23.2470 C   0  0  0  0  0  0  0  0  0  0  0  0
  -27.3160  -27.3420   20.2430 C   0  0  0  0  0  0  0  0  0  0  0  0
  -23.4600  -30.4920   21.5880 C   0  0  0  0  0  3  0  0  0  0  0  0
  -24.9470  -28.9530   20.1900 C   0  0  0  0  0  0  0  0  0  0  0  0
  -26.0000  -30.8290   21.4450 C   0  0  0  0  0  2  0  0  0  0  0  0
  -26.1030  -29.4450   20.8110 C   0  0  0  0  0  0  0  0  0  0  0  0
  -27.2920  -28.6500   20.8320 C   0  0  0  0  0  3  0  0  0  0  0  0
  -26.1500  -26.9250   19.5750 C   0  0  0  0  0  3  0  0  0  0  0  0
  -24.9730  -27.6980   19.5660 C   0  0  0  0  0  3  0  0  0  0  0  0
  -23.7030  -29.8180   20.2110 C   0  0  0  0  0  2  0  0  0  0  0  0
  -24.7130  -31.0940   22.1510 N   0  0  0  0  0  0  0  0  0  0  0  0
  -23.5300  -32.1690   23.7650 O   0  0  0  0  0  0  0  0  0  0  0  0
  -22.7930  -29.4690   22.5410 C   0  0  0  0  0  0  0  0  0  0  0  0
  -21.4680  -29.2860   22.4040 N   0  0  0  0  0  0  0  0  0  0  0  0
  -23.4670  -28.8440   23.3620 O   0  0  0  0  0  0  0  0  0  0  0  0
  -20.9810  -29.8410   21.7130 H   0  0  0  0  0  0  0  0  0  0  0  0
  -18.0900  -28.0900   22.8900 C   0  0  0  0  0  0  0  0  0  0  0  0
  -20.6490  -28.3420   23.1660 C   0  0  0  0  0  3  0  0  0  0  0  0
  -20.7500  -26.9150   22.5780 C   0  0  0  0  0  2  0  0  0  0  0  0
  -19.6470  -26.6060   21.5600 C   0  0  0  0  0  2  0  0  0  0  0  0
  -18.2660  -26.7470   22.2030 C   0  0  0  0  0  2  0  0  0  0  0  0
  -19.2090  -28.8460   23.3300 C   0  0  0  0  0  0  0  0  0  0  0  0
  -18.9900  -30.1040   23.9320 C   0  0  0  0  0  3  0  0  0  0  0  0
  -17.6860  -30.6030   24.1020 C   0  0  0  0  0  3  0  0  0  0  0  0
  -16.5810  -29.8440   23.6800 C   0  0  0  0  0  3  0  0  0  0  0  0
  -16.7840  -28.5890   23.0780 C   0  0  0  0  0  3  0  0  0  0  0  0
  -25.8900  -32.5520   23.8880 C   0  0  0  0  0  3  0  0  0  0  0  0
  -26.3840  -31.7990   25.1830 C   0  0  1  0  0  0  0  0  0  0  0  0
  -25.2700  -31.5680   26.2280 C   0  0  0  0  0  1  0  0  0  0  0  0
  -26.9810  -30.4190   24.8220 C   0  0  0  0  0  1  0  0  0  0  0  0
  -27.5150  -32.6060   25.8600 C   0  0  0  0  0  1  0  0  0  0  0  0
  -25.5670  -33.9520   24.1950 N   0  0  0  0  0  0  0  0  0  0  0  0
  -25.9030  -34.9980   23.4290 C   0  0  0  0  0  0  0  0  0  0  0  0
  -26.5870  -34.8890   22.4090 O   0  0  0  0  0  0  0  0  0  0  0  0
  -24.9590  -34.1140   24.9860 H   0  0  0  0  0  0  0  0  0  0  0  0
  -24.1700  -36.7770   23.0260 C   0  0  0  0  0  1  0  0  0  0  0  0
  -25.3990  -36.3890   23.8640 C   0  0  0  0  0  3  0  0  0  0  0  0
  -27.5110  -37.2990   24.7260 C   0  0  0  0  0  1  0  0  0  0  0  0
  -26.4270  -37.4460   23.7560 N   0  0  0  0  0  0  0  0  0  0  0  0
  -26.0120  -38.3650   23.8840 H   0  0  0  0  0  0  0  0  0  0  0  0
  1 49  1  0
  1  2  2  0
  3 15  1  0
  4  9  1  0
  5  6  1  0
  5  4  1  0
  7  6  1  0
  7 21  1  0
  7  8  1  0
  9  3  1  0
  9  8  1  0
 10  3  2  0
 11  1  1  0
 11 14  1  0
 12 11  2  0
 13 15  1  0
 13 14  2  0
 15 17  1  0
 16 12  1  0
 16 13  1  0
 18 19  2  0
 19 38  1  0
 20 19  1  0
 20 23  1  0
 21 18  1  0
 21 22  1  0
 22 20  2  0
 23 24  1  0
 24 25  2  0
 26 29  1  0
 26 25  1  0
 27 26  2  0
 28 27  1  0
 28 23  2  0
 29 30  1  0
 30 31  1  0
 31 32  2  0
 33 32  1  0
 33 37  1  0
 34 33  2  0
 35 30  2  0
 35 34  1  0
 36 35  1  0
 38 39  1  0
 39 42  1  0
 39 41  1  0
 40 38  2  0
 43 44  1  0
 43 18  1  0
 45 43  1  0
 46 47  1  0
 46 12  1  0
 48 46  1  0
 49 50  2  0
 52 51  1  0
 52 49  1  0
 52 53  1  0
 54 56  1  0
 54 53  1  0
 55 66  2  0
 56 61  1  0
 57 65  1  0
 57 67  1  0
 58 64  1  0
 58 60  1  0
 59 65  1  0
 60 61  2  0
 60 59  1  0
 62 56  2  0
 63 62  1  0
 63 58  2  0
 64 57  1  0
 65 55  1  0
 67 69  2  0
 68 67  1  0
 70 68  1  0
 71 80  2  0
 71 76  1  0
 72 68  1  0
 72 76  1  0
 73 72  1  0
 74 75  1  0
 74 73  1  0
 75 71  1  0
 76 77  2  0
 77 78  1  0
 79 78  2  0
 80 79  1  0
 81 55  1  0
 81 86  1  0
 81 82  1  0
 82 85  1  1
 82 83  1  0
 84 82  1  0
 86 89  1  0
 87 91  1  0
 87 86  1  0
 88 87  2  0
 91 90  1  0
 93 91  1  0
 93 94  1  0
 93 92  1  0
M  ISO  4   3 100  15 100  53 101  54 101
M  END
>  <TORSDO>  (63) 
F 20

>  <SCORE>  (63) 
-14.008

>  <name>  (63) 
62

>  <ligand_id>  (63) 
62

>  <original_smiles>  (63) 
[H]c1c([H])c([H])c2c(c1[H])C([H])([H])C([H])([H])C([H])([H])C2([H])N([H])C(=O)C1([H])N(C(=O)C([H])(N([H])C(=O)C([H])(N([H])C([H])([H])[H])C([H])([H])[H])C(C([H])([H])[H])(C([H])([H])[H])C([H])([H])[H])C([H])([H])c2c([H])c(OC([H])([H])C([H])(C(=O)C(=O)c3nc(N([H])C(=O)N4C([H])([H])C([H])([H])C([H])([H])C([H])(n5nc(-c6c([H])c([H])c(Oc7c([H])c([H])c(F)c([H])c7F)c([H])c6[H])c(C(=O)N([H])[H])c5N([H])[H])C4([H])[H])sc3N([H])[H])C([H])([H])[H])c([H])c([H])c2C1([H])[H]

>  <smiles>  (63) 
[H]c1c([H])c([H])c2c(c1[H])C([H])([H])C([H])([H])C([H])([H])C2([H])N([H])C(=O)C1([H])N(C(=O)C([H])(N([H])C(=O)C([H])(N([H])C([H])([H])[H])C([H])([H])[H])C(C([H])([H])[H])(C([H])([H])[H])C([H])([H])[H])C([H])([H])c2c([H])c(OC([H])([H])C([H])(C(=O)C(=O)c3nc(N([H])C(=O)N4C([H])([H])C([H])([H])C([H])([H])C([H])(n5nc(-c6c([H])c([H])c(Oc7c([H])c([H])c(F)c([H])c7F)c([H])c6[H])c(C(=O)N([H])[H])c5N([H])[H])C4([H])[H])sc3N([H])[H])C([H])([H])[H])c([H])c([H])c2C1([H])[H]

$$$$
64:0:0
     RDKit          3D

 96104  0  0  1  0  0  0  0  0999 V2000
  -28.5530  -22.1930   20.6810 C   0  0  0  0  0  0  0  0  0  0  0  0
  -27.4550  -21.8450   19.6290 C   0  0  2  0  0  0  0  0  0  0  0  0
  -27.8080  -22.2130   18.3980 F   0  0  0  0  0  0  0  0  0  0  0  0
  -26.3220  -22.4840   19.9160 F   0  0  0  0  0  0  0  0  0  0  0  0
  -27.0490  -20.1060   19.6350 Cl  0  0  0  0  0  0  0  0  0  0  0  0
  -29.0710  -23.7480   20.5460 C   0  0  0  0  0  0  0  0  0  0  0  0
  -30.2690  -24.0070   20.3860 O   0  0  0  0  0  0  0  0  0  0  0  0
  -28.0260  -24.9780   20.6530 C   0  0  0  0  0  2  0  0  0  0  0  0
  -28.4360  -26.4190   20.4280 O   0  0  0  0  0  0  0  0  0  0  0  0
  -24.6550  -31.9420   23.2730 C   0  0  0  0  0  0  0  0  0  0  0  0
  -27.3660  -27.3460   20.3150 C   0  0  0  0  0  0  0  0  0  0  0  0
  -23.4990  -30.5160   21.6250 C   0  0  0  0  0  3  0  0  0  0  0  0
  -24.9980  -28.9810   20.2260 C   0  0  0  0  0  0  0  0  0  0  0  0
  -26.0410  -30.8570   21.4850 C   0  0  0  0  0  2  0  0  0  0  0  0
  -26.1530  -29.4700   20.8540 C   0  0  0  0  0  0  0  0  0  0  0  0
  -27.3390  -28.6640   20.8910 C   0  0  0  0  0  3  0  0  0  0  0  0
  -26.1990  -26.9520   19.6190 C   0  0  0  0  0  3  0  0  0  0  0  0
  -25.0290  -27.7330   19.5930 C   0  0  0  0  0  3  0  0  0  0  0  0
  -23.7460  -29.8370   20.2530 C   0  0  0  0  0  2  0  0  0  0  0  0
  -24.7500  -31.1250   22.1840 N   0  0  0  0  0  0  0  0  0  0  0  0
  -23.5560  -32.2090   23.7860 O   0  0  0  0  0  0  0  0  0  0  0  0
  -22.8320  -29.4970   22.5800 C   0  0  0  0  0  0  0  0  0  0  0  0
  -21.5110  -29.2980   22.4320 N   0  0  0  0  0  0  0  0  0  0  0  0
  -23.5020  -28.8900   23.4190 O   0  0  0  0  0  0  0  0  0  0  0  0
  -21.0260  -29.8390   21.7300 H   0  0  0  0  0  0  0  0  0  0  0  0
  -18.1420  -28.0700   22.9030 C   0  0  0  0  0  0  0  0  0  0  0  0
  -20.6960  -28.3520   23.1950 C   0  0  0  0  0  3  0  0  0  0  0  0
  -20.8160  -26.9220   22.6150 C   0  0  0  0  0  2  0  0  0  0  0  0
  -19.7250  -26.5950   21.5900 C   0  0  0  0  0  2  0  0  0  0  0  0
  -18.3370  -26.7250   22.2230 C   0  0  0  0  0  2  0  0  0  0  0  0
  -19.2490  -28.8420   23.3430 C   0  0  0  0  0  0  0  0  0  0  0  0
  -19.0140  -30.1020   23.9370 C   0  0  0  0  0  3  0  0  0  0  0  0
  -17.7020  -30.5910   24.0900 C   0  0  0  0  0  3  0  0  0  0  0  0
  -16.6100  -29.8160   23.6630 C   0  0  0  0  0  3  0  0  0  0  0  0
  -16.8300  -28.5570   23.0770 C   0  0  0  0  0  3  0  0  0  0  0  0
  -25.9150  -32.5980   23.9150 C   0  0  0  0  0  3  0  0  0  0  0  0
  -26.4160  -31.8460   25.2100 C   0  0  1  0  0  0  0  0  0  0  0  0
  -25.3010  -31.5960   26.2500 C   0  0  0  0  0  1  0  0  0  0  0  0
  -27.0380  -30.4790   24.8430 C   0  0  0  0  0  1  0  0  0  0  0  0
  -27.5330  -32.6680   25.8930 C   0  0  0  0  0  1  0  0  0  0  0  0
  -25.5810  -33.9960   24.2250 N   0  0  0  0  0  0  0  0  0  0  0  0
  -25.9050  -35.0460   23.4600 C   0  0  0  0  0  0  0  0  0  0  0  0
  -26.5880  -34.9410   22.4370 O   0  0  0  0  0  0  0  0  0  0  0  0
  -24.9760  -34.1500   25.0190 H   0  0  0  0  0  0  0  0  0  0  0  0
  -24.1570  -36.8120   23.0710 C   0  0  0  0  0  1  0  0  0  0  0  0
  -25.3950  -36.4310   23.8980 C   0  0  0  0  0  3  0  0  0  0  0  0
  -27.5050  -37.3610   24.7450 C   0  0  0  0  0  1  0  0  0  0  0  0
  -26.4120  -37.4980   23.7840 N   0  0  0  0  0  0  0  0  0  0  0  0
  -25.9920  -38.4150   23.9110 H   0  0  0  0  0  0  0  0  0  0  0  0
  -29.5300  -21.0460   20.9730 N   0  0  0  0  0  4  0  0  0  0  0  0
  -29.6700  -20.9480   21.9710 H   0  0  0  0  0  0  0  0  0  0  0  0
  -30.8270  -14.8550   20.5380 C   0  0  0  0  0  0  0  0  0  0  0  0
  -30.6770  -12.5290   19.6290 C   0  0  0  0  0  2  0  0  0  0  0  0
  -29.8030  -12.5540   18.3550 C   0  0  0  0  0  2  0  0  0  0  0  0
  -28.3180  -12.3720   18.7200 C   0  0  0  0  0  2  0  0  0  0  0  0
  -27.8790  -13.3070   19.8790 C   0  0  0  0  0  3  0  0  0  0  0  0
  -28.8810  -13.2850   21.0570 C   0  0  0  0  0  2  0  0  0  0  0  0
  -30.2100  -13.6180   20.5230 N   0  0  0  0  0  0  0  0  0  0  0  0
  -32.0040  -14.9370   20.1680 O   0  0  0  0  0  0  0  0  0  0  0  0
  -30.2480  -17.4270   18.8580 C   0  0  0  0  0  3  0  0  0  0  0  0
  -29.8770  -19.8370   18.8720 C   0  0  0  0  0  3  0  0  0  0  0  0
  -30.1370  -18.6490   18.1730 C   0  0  0  0  0  0  0  0  0  0  0  0
  -30.0920  -17.3650   20.2600 C   0  0  0  0  0  0  0  0  0  0  0  0
  -29.7180  -19.8000   20.2620 C   0  0  0  0  0  0  0  0  0  0  0  0
  -29.8230  -18.5730   20.9240 N   0  0  0  0  0  0  0  0  0  0  0  0
  -30.0910  -15.9970   20.8590 N   0  0  0  0  0  0  0  0  0  0  0  0
  -30.2710  -18.6770   16.8260 F   0  0  0  0  0  0  0  0  0  0  0  0
  -29.2820  -15.8130   21.4320 H   0  0  0  0  0  0  0  0  0  0  0  0
  -25.4590  -13.9030   20.4870 C   0  0  0  0  0  0  0  0  0  0  0  0
  -24.3800  -13.1350   20.8320 C   0  0  0  0  0  0  0  0  0  0  0  0
  -24.8460  -11.7860   20.8460 C   0  0  0  0  0  0  0  0  0  0  0  0
  -26.5150  -13.0230   20.3170 N   0  0  0  0  0  0  0  0  0  0  0  0
  -26.1500  -11.7450   20.5970 N   0  0  0  0  0  0  0  0  0  0  0  0
  -24.1120  -10.5260   21.0300 C   0  0  0  0  0  0  0  0  0  0  0  0
  -24.5080   -9.5730   21.9950 C   0  0  0  0  0  3  0  0  0  0  0  0
  -23.7720   -8.3810   22.1680 C   0  0  0  0  0  3  0  0  0  0  0  0
  -22.6270   -8.1330   21.3750 C   0  0  0  0  0  0  0  0  0  0  0  0
  -22.2520   -9.0730   20.3990 C   0  0  0  0  0  3  0  0  0  0  0  0
  -22.9880  -10.2570   20.2250 C   0  0  0  0  0  3  0  0  0  0  0  0
  -21.8670   -6.9910   21.4530 O   0  0  0  0  0  0  0  0  0  0  0  0
  -21.7740   -6.2670   22.6150 C   0  0  0  0  0  0  0  0  0  0  0  0
  -21.2810   -6.8360   23.8090 C   0  0  0  0  0  3  0  0  0  0  0  0
  -21.1350   -6.0390   24.9620 C   0  0  0  0  0  3  0  0  0  0  0  0
  -21.4740   -4.6730   24.9220 C   0  0  0  0  0  0  0  0  0  0  0  0
  -21.9600   -4.1030   23.7320 C   0  0  0  0  0  3  0  0  0  0  0  0
  -22.1080   -4.8980   22.5820 C   0  0  0  0  0  0  0  0  0  0  0  0
  -22.5560   -4.3390   21.4320 F   0  0  0  0  0  0  0  0  0  0  0  0
  -21.3270   -3.9050   26.0260 F   0  0  0  0  0  0  0  0  0  0  0  0
  -22.9730  -13.6170   21.0370 C   0  0  0  0  0  0  0  0  0  0  0  0
  -22.2150  -12.9410   21.8900 N   0  0  0  0  0  0  0  0  0  0  0  0
  -22.5570  -14.6300   20.4760 O   0  0  0  0  0  0  0  0  0  0  0  0
  -22.5700  -12.1240   22.3670 H   0  0  0  0  0  0  0  0  0  0  0  0
  -21.2690  -13.2420   22.0710 H   0  0  0  0  0  0  0  0  0  0  0  0
  -25.6270  -15.2690   20.2800 N   0  0  0  0  0  0  0  0  0  0  0  0
  -24.8460  -15.9140   20.2870 H   0  0  0  0  0  0  0  0  0  0  0  0
  -26.4790  -15.6850   19.9290 H   0  0  0  0  0  0  0  0  0  0  0  0
  1 50  2  0
  2  5  1  0
  2  4  1  1
  2  1  1  0
  3  2  1  0
  6  8  1  0
  6  1  1  0
  7  6  2  0
  9  8  1  0
 10 21  2  0
 11  9  1  0
 11 16  1  0
 12 20  1  0
 12 22  1  0
 13 19  1  0
 13 15  1  0
 14 20  1  0
 15 16  2  0
 15 14  1  0
 17 11  2  0
 18 17  1  0
 18 13  2  0
 19 12  1  0
 20 10  1  0
 22 24  2  0
 23 22  1  0
 25 23  1  0
 26 35  2  0
 26 31  1  0
 27 23  1  0
 27 31  1  0
 28 27  1  0
 29 30  1  0
 29 28  1  0
 30 26  1  0
 31 32  2  0
 32 33  1  0
 34 33  2  0
 35 34  1  0
 36 10  1  0
 36 41  1  0
 36 37  1  0
 37 40  1  1
 37 38  1  0
 39 37  1  0
 41 44  1  0
 42 46  1  0
 42 41  1  0
 43 42  2  0
 46 45  1  0
 48 46  1  0
 48 49  1  0
 48 47  1  0
 50 51  1  0
 52 66  1  0
 53 58  1  0
 54 55  1  0
 54 53  1  0
 56 55  1  0
 56 72  1  0
 56 57  1  0
 58 52  1  0
 58 57  1  0
 59 52  2  0
 60 63  1  0
 61 64  2  0
 62 60  2  0
 62 61  1  0
 63 66  1  0
 63 65  2  0
 64 65  1  0
 64 50  1  0
 66 68  1  0
 67 62  1  0
 69 70  2  0
 70 71  1  0
 70 89  1  0
 71 74  1  0
 72 69  1  0
 72 73  1  0
 73 71  2  0
 74 75  1  0
 75 76  2  0
 77 80  1  0
 77 76  1  0
 78 77  2  0
 79 78  1  0
 79 74  2  0
 80 81  1  0
 81 82  1  0
 82 83  2  0
 84 83  1  0
 84 88  1  0
 85 84  2  0
 86 81  2  0
 86 85  1  0
 87 86  1  0
 89 90  1  0
 90 93  1  0
 90 92  1  0
 91 89  2  0
 94 95  1  0
 94 69  1  0
 96 94  1  0
M  ISO  4   8 101   9 101  52 100  66 100
M  END
>  <TORSDO>  (64) 
F 20

>  <SCORE>  (64) 
-13.810

>  <name>  (64) 
64

>  <ligand_id>  (64) 
64

>  <original_smiles>  (64) 
[H]c1c([H])c([H])c2c(c1[H])C([H])([H])C([H])([H])C([H])([H])C2([H])N([H])C(=O)C1([H])N(C(=O)C([H])(N([H])C(=O)C([H])(N([H])C([H])([H])[H])C([H])([H])[H])C(C([H])([H])[H])(C([H])([H])[H])C([H])([H])[H])C([H])([H])c2c([H])c(OC([H])([H])C(=O)C([H])(N([H])c3nc(N([H])C(=O)N4C([H])([H])C([H])([H])C([H])([H])C([H])(n5nc(-c6c([H])c([H])c(Oc7c([H])c([H])c(F)c([H])c7F)c([H])c6[H])c(C(=O)N([H])[H])c5N([H])[H])C4([H])[H])c([H])c(F)c3[H])C(F)(F)Cl)c([H])c([H])c2C1([H])[H]

>  <smiles>  (64) 
[H]c1c([H])c([H])c2c(c1[H])C([H])([H])C([H])([H])C([H])([H])C2([H])N([H])C(=O)C1([H])N(C(=O)C([H])(N([H])C(=O)C([H])(N([H])C([H])([H])[H])C([H])([H])[H])C(C([H])([H])[H])(C([H])([H])[H])C([H])([H])[H])C([H])([H])c2c([H])c(OC([H])([H])C(=O)C([H])(N([H])c3nc(N([H])C(=O)N4C([H])([H])C([H])([H])C([H])([H])C([H])(n5nc(-c6c([H])c([H])c(Oc7c([H])c([H])c(F)c([H])c7F)c([H])c6[H])c(C(=O)N([H])[H])c5N([H])[H])C4([H])[H])c([H])c(F)c3[H])C(F)(F)Cl)c([H])c([H])c2C1([H])[H]

$$$$
65:0:0
     RDKit          3D

 97105  0  0  1  0  0  0  0  0999 V2000
  -30.5850  -14.8500   20.4360 C   0  0  0  0  0  0  0  0  0  0  0  0
  -30.4130  -12.5900   19.3820 C   0  0  0  0  0  2  0  0  0  0  0  0
  -29.4880  -12.6980   18.1490 C   0  0  0  0  0  2  0  0  0  0  0  0
  -28.0170  -12.4980   18.5610 C   0  0  0  0  0  2  0  0  0  0  0  0
  -27.6270  -13.3360   19.8070 C   0  0  0  0  0  3  0  0  0  0  0  0
  -28.6780  -13.2260   20.9340 C   0  0  0  0  0  2  0  0  0  0  0  0
  -29.9750  -13.6130   20.3660 N   0  0  0  0  0  0  0  0  0  0  0  0
  -31.7710  -14.9420   20.0960 O   0  0  0  0  0  0  0  0  0  0  0  0
  -30.2480  -17.4360   18.8030 C   0  0  0  0  0  3  0  0  0  0  0  0
  -30.0710  -18.6050   18.0380 C   0  0  0  0  0  0  0  0  0  0  0  0
  -29.4770  -19.7650   18.6120 C   0  0  0  0  0  0  0  0  0  0  0  0
  -29.8380  -17.3600   20.1440 C   0  0  0  0  0  0  0  0  0  0  0  0
  -29.2430  -19.7710   20.0220 C   0  0  0  0  0  0  0  0  0  0  0  0
  -30.4860  -18.5360   16.5730 C   0  0  0  0  0  1  0  0  0  0  0  0
  -29.3700  -18.5560   20.7210 N   0  0  0  0  0  0  0  0  0  0  0  0
  -29.8270  -15.9870   20.7400 N   0  0  0  0  0  0  0  0  0  0  0  0
  -28.9980  -15.7880   21.2750 H   0  0  0  0  0  0  0  0  0  0  0  0
  -25.2180  -13.8730   20.5000 C   0  0  0  0  0  0  0  0  0  0  0  0
  -24.1650  -13.0760   20.8560 C   0  0  0  0  0  0  0  0  0  0  0  0
  -24.6580  -11.7350   20.8370 C   0  0  0  0  0  0  0  0  0  0  0  0
  -26.2840  -13.0160   20.2800 N   0  0  0  0  0  0  0  0  0  0  0  0
  -25.9550  -11.7250   20.5460 N   0  0  0  0  0  0  0  0  0  0  0  0
  -23.9560  -10.4570   21.0190 C   0  0  0  0  0  0  0  0  0  0  0  0
  -24.3800   -9.5120   21.9790 C   0  0  0  0  0  3  0  0  0  0  0  0
  -23.6750   -8.3000   22.1490 C   0  0  0  0  0  3  0  0  0  0  0  0
  -22.5330   -8.0260   21.3590 C   0  0  0  0  0  0  0  0  0  0  0  0
  -22.1300   -8.9610   20.3910 C   0  0  0  0  0  3  0  0  0  0  0  0
  -22.8340  -10.1640   20.2190 C   0  0  0  0  0  3  0  0  0  0  0  0
  -21.8030   -6.8640   21.4380 O   0  0  0  0  0  0  0  0  0  0  0  0
  -21.7100   -6.1500   22.6050 C   0  0  0  0  0  0  0  0  0  0  0  0
  -21.1750   -6.7140   23.7840 C   0  0  0  0  0  3  0  0  0  0  0  0
  -21.0340   -5.9220   24.9410 C   0  0  0  0  0  3  0  0  0  0  0  0
  -21.4170   -4.5690   24.9200 C   0  0  0  0  0  0  0  0  0  0  0  0
  -21.9440   -4.0030   23.7450 C   0  0  0  0  0  3  0  0  0  0  0  0
  -22.0860   -4.7920   22.5910 C   0  0  0  0  0  0  0  0  0  0  0  0
  -22.5750   -4.2370   21.4550 F   0  0  0  0  0  0  0  0  0  0  0  0
  -21.2730   -3.8060   26.0300 F   0  0  0  0  0  0  0  0  0  0  0  0
  -22.7540  -13.5240   21.1050 C   0  0  0  0  0  0  0  0  0  0  0  0
  -22.0260  -12.8120   21.9590 N   0  0  0  0  0  0  0  0  0  0  0  0
  -22.3040  -14.5400   20.5780 O   0  0  0  0  0  0  0  0  0  0  0  0
  -22.4040  -11.9900   22.4080 H   0  0  0  0  0  0  0  0  0  0  0  0
  -21.0800  -13.0940   22.1680 H   0  0  0  0  0  0  0  0  0  0  0  0
  -25.3540  -15.2450   20.3200 N   0  0  0  0  0  0  0  0  0  0  0  0
  -24.5700  -15.8800   20.4150 H   0  0  0  0  0  0  0  0  0  0  0  0
  -26.1910  -15.7020   19.9780 H   0  0  0  0  0  0  0  0  0  0  0  0
  -29.0240  -20.8860   17.6520 C   0  0  1  0  0  0  0  0  0  0  0  0
  -28.3610  -20.3440   16.6310 F   0  0  0  0  0  0  0  0  0  0  0  0
  -28.1830  -21.7800   18.1690 F   0  0  0  0  0  0  0  0  0  0  0  0
  -30.0800  -21.5290   17.1540 F   0  0  0  0  0  0  0  0  0  0  0  0
  -28.7560  -20.9560   20.7230 N   0  0  0  0  0  4  0  0  0  0  0  0
  -28.1960  -20.7220   21.5350 H   0  0  0  0  0  0  0  0  0  0  0  0
  -30.7700  -22.5650   20.2510 C   0  0  0  0  0  1  0  0  0  0  0  0
  -29.3870  -22.3510   20.8960 C   0  0  0  0  0  0  0  0  0  0  0  0
  -28.4670  -23.7220   20.8920 C   0  0  0  0  0  0  0  0  0  0  0  0
  -27.4320  -23.7330   21.5630 O   0  0  0  0  0  0  0  0  0  0  0  0
  -28.8190  -25.0710   20.0710 C   0  0  0  0  0  2  0  0  0  0  0  0
  -28.6150  -26.4380   20.6920 O   0  0  0  0  0  0  0  0  0  0  0  0
  -24.6690  -31.9600   23.2390 C   0  0  0  0  0  0  0  0  0  0  0  0
  -27.4930  -27.2810   20.4960 C   0  0  0  0  0  0  0  0  0  0  0  0
  -23.5710  -30.4820   21.5930 C   0  0  0  0  0  3  0  0  0  0  0  0
  -25.1140  -28.8950   20.2960 C   0  0  0  0  0  0  0  0  0  0  0  0
  -26.1150  -30.8200   21.5320 C   0  0  0  0  0  2  0  0  0  0  0  0
  -26.2440  -29.4140   20.9390 C   0  0  0  0  0  0  0  0  0  0  0  0
  -27.4310  -28.6170   21.0280 C   0  0  0  0  0  3  0  0  0  0  0  0
  -26.3370  -26.8260   19.8230 C   0  0  0  0  0  3  0  0  0  0  0  0
  -25.1680  -27.6110   19.7290 C   0  0  0  0  0  3  0  0  0  0  0  0
  -23.8660  -29.7580   20.2520 C   0  0  0  0  0  2  0  0  0  0  0  0
  -24.8000  -31.1100   22.1770 N   0  0  0  0  0  0  0  0  0  0  0  0
  -23.5540  -32.2410   23.7070 O   0  0  0  0  0  0  0  0  0  0  0  0
  -22.8710  -29.4960   22.5590 C   0  0  0  0  0  0  0  0  0  0  0  0
  -21.5460  -29.3260   22.4010 N   0  0  0  0  0  0  0  0  0  0  0  0
  -23.5200  -28.8850   23.4120 O   0  0  0  0  0  0  0  0  0  0  0  0
  -21.0810  -29.8700   21.6880 H   0  0  0  0  0  0  0  0  0  0  0  0
  -18.1330  -28.2370   22.9100 C   0  0  0  0  0  0  0  0  0  0  0  0
  -20.7000  -28.4100   23.1690 C   0  0  0  0  0  3  0  0  0  0  0  0
  -20.7520  -26.9810   22.5820 C   0  0  0  0  0  2  0  0  0  0  0  0
  -19.6350  -26.7030   21.5700 C   0  0  0  0  0  2  0  0  0  0  0  0
  -18.2610  -26.8890   22.2230 C   0  0  0  0  0  2  0  0  0  0  0  0
  -19.2780  -28.9590   23.3400 C   0  0  0  0  0  0  0  0  0  0  0  0
  -19.1030  -30.2230   23.9440 C   0  0  0  0  0  3  0  0  0  0  0  0
  -17.8160  -30.7650   24.1210 C   0  0  0  0  0  3  0  0  0  0  0  0
  -16.6860  -30.0390   23.7060 C   0  0  0  0  0  3  0  0  0  0  0  0
  -16.8450  -28.7780   23.1060 C   0  0  0  0  0  3  0  0  0  0  0  0
  -25.9070  -32.6380   23.9020 C   0  0  0  0  0  3  0  0  0  0  0  0
  -26.3950  -31.8980   25.2090 C   0  0  1  0  0  0  0  0  0  0  0  0
  -25.2630  -31.6150   26.2240 C   0  0  0  0  0  1  0  0  0  0  0  0
  -27.0590  -30.5470   24.8570 C   0  0  0  0  0  1  0  0  0  0  0  0
  -27.4720  -32.7490   25.9210 C   0  0  0  0  0  1  0  0  0  0  0  0
  -25.5450  -34.0310   24.2050 N   0  0  0  0  0  0  0  0  0  0  0  0
  -25.8670  -35.0870   23.4460 C   0  0  0  0  0  0  0  0  0  0  0  0
  -26.5690  -34.9920   22.4350 O   0  0  0  0  0  0  0  0  0  0  0  0
  -24.9230  -34.1760   24.9870 H   0  0  0  0  0  0  0  0  0  0  0  0
  -24.0960  -36.8230   23.0270 C   0  0  0  0  0  1  0  0  0  0  0  0
  -25.3270  -36.4650   23.8750 C   0  0  0  0  0  3  0  0  0  0  0  0
  -27.4080  -37.4280   24.7540 C   0  0  0  0  0  1  0  0  0  0  0  0
  -26.3300  -37.5480   23.7770 N   0  0  0  0  0  0  0  0  0  0  0  0
  -25.8920  -38.4570   23.8970 H   0  0  0  0  0  0  0  0  0  0  0  0
  1 16  1  0
  2  7  1  0
  3  4  1  0
  3  2  1  0
  5  4  1  0
  5 21  1  0
  5  6  1  0
  7  1  1  0
  7  6  1  0
  8  1  2  0
  9 12  1  0
 10 11  1  0
 10  9  2  0
 11 13  2  0
 12 15  2  0
 12 16  1  0
 13 15  1  0
 13 50  1  0
 14 10  1  0
 16 17  1  0
 18 19  2  0
 19 38  1  0
 20 19  1  0
 20 23  1  0
 21 18  1  0
 21 22  1  0
 22 20  2  0
 23 24  1  0
 24 25  2  0
 26 29  1  0
 26 25  1  0
 27 26  2  0
 28 27  1  0
 28 23  2  0
 29 30  1  0
 30 31  1  0
 31 32  2  0
 33 32  1  0
 33 37  1  0
 34 33  2  0
 35 30  2  0
 35 34  1  0
 36 35  1  0
 38 39  1  0
 39 42  1  0
 39 41  1  0
 40 38  2  0
 43 44  1  0
 43 18  1  0
 45 43  1  0
 46 48  1  1
 46 11  1  0
 47 46  1  0
 49 46  1  0
 50 53  2  0
 50 51  1  0
 52 53  1  0
 54 53  1  0
 54 55  2  0
 56 57  1  0
 56 54  1  0
 58 69  2  0
 59 57  1  0
 59 64  1  0
 60 68  1  0
 60 70  1  0
 61 63  1  0
 62 68  1  0
 63 64  2  0
 63 62  1  0
 65 59  2  0
 66 65  1  0
 66 61  2  0
 67 61  1  0
 67 60  1  0
 68 58  1  0
 70 72  2  0
 71 70  1  0
 73 71  1  0
 74 83  2  0
 74 79  1  0
 75 71  1  0
 75 79  1  0
 76 75  1  0
 77 78  1  0
 77 76  1  0
 78 74  1  0
 79 80  2  0
 80 81  1  0
 82 81  2  0
 83 82  1  0
 84 58  1  0
 84 89  1  0
 84 85  1  0
 85 88  1  1
 85 86  1  0
 87 85  1  0
 89 92  1  0
 90 94  1  0
 90 89  1  0
 91 90  2  0
 94 93  1  0
 96 94  1  0
 96 97  1  0
 96 95  1  0
M  ISO  4   1 100  16 100  56 101  57 101
M  END
>  <TORSDO>  (65) 
F 20

>  <SCORE>  (65) 
-14.317

>  <name>  (65) 
65

>  <ligand_id>  (65) 
65

>  <original_smiles>  (65) 
[H]c1c([H])c([H])c2c(c1[H])C([H])([H])C([H])([H])C([H])([H])C2([H])N([H])C(=O)C1([H])N(C(=O)C([H])(N([H])C(=O)C([H])(N([H])C([H])([H])[H])C([H])([H])[H])C(C([H])([H])[H])(C([H])([H])[H])C([H])([H])[H])C([H])([H])c2c([H])c(OC([H])([H])C(=O)C([H])(N([H])c3nc(N([H])C(=O)N4C([H])([H])C([H])([H])C([H])([H])C([H])(n5nc(-c6c([H])c([H])c(Oc7c([H])c([H])c(F)c([H])c7F)c([H])c6[H])c(C(=O)N([H])[H])c5N([H])[H])C4([H])[H])c([H])c(C([H])([H])[H])c3C(F)(F)F)C([H])([H])[H])c([H])c([H])c2C1([H])[H]

>  <smiles>  (65) 
[H]c1c([H])c([H])c2c(c1[H])C([H])([H])C([H])([H])C([H])([H])C2([H])N([H])C(=O)C1([H])N(C(=O)C([H])(N([H])C(=O)C([H])(N([H])C([H])([H])[H])C([H])([H])[H])C(C([H])([H])[H])(C([H])([H])[H])C([H])([H])[H])C([H])([H])c2c([H])c(OC([H])([H])C(=O)C([H])(N([H])c3nc(N([H])C(=O)N4C([H])([H])C([H])([H])C([H])([H])C([H])(n5nc(-c6c([H])c([H])c(Oc7c([H])c([H])c(F)c([H])c7F)c([H])c6[H])c(C(=O)N([H])[H])c5N([H])[H])C4([H])[H])c([H])c(C([H])([H])[H])c3C(F)(F)F)C([H])([H])[H])c([H])c([H])c2C1([H])[H]

$$$$
66:0:0
     RDKit          3D

 96104  0  0  1  0  0  0  0  0999 V2000
  -29.2090  -20.6750   21.0150 C   0  0  0  0  0  0  0  0  0  0  0  0
  -29.2880  -20.7230   22.2450 O   0  0  0  0  0  0  0  0  0  0  0  0
  -29.6970  -18.1690   20.9000 C   0  0  0  0  0  3  0  0  0  0  0  0
  -30.1650  -19.5480   18.9470 C   0  0  0  0  0  3  0  0  0  0  0  0
  -29.6920  -19.4500   20.2770 C   0  0  0  0  0  0  0  0  0  0  0  0
  -30.1480  -17.0100   20.2100 C   0  0  0  0  0  0  0  0  0  0  0  0
  -30.5740  -18.4070   18.2400 C   0  0  0  0  0  0  0  0  0  0  0  0
  -30.5520  -17.1430   18.8550 C   0  0  0  0  0  0  0  0  0  0  0  0
  -30.9810  -18.5260   16.9520 F   0  0  0  0  0  0  0  0  0  0  0  0
  -30.8930  -16.0650   18.1080 F   0  0  0  0  0  0  0  0  0  0  0  0
  -30.8940  -14.6710   20.5700 C   0  0  0  0  0  0  0  0  0  0  0  0
  -30.6610  -12.4790   19.4930 C   0  0  0  0  0  2  0  0  0  0  0  0
  -29.7660  -12.6710   18.2490 C   0  0  0  0  0  2  0  0  0  0  0  0
  -28.2750  -12.5490   18.6210 C   0  0  0  0  0  2  0  0  0  0  0  0
  -27.8920  -13.3960   19.8650 C   0  0  0  0  0  3  0  0  0  0  0  0
  -28.9050  -13.1900   21.0150 C   0  0  0  0  0  2  0  0  0  0  0  0
  -30.2500  -13.4770   20.4910 N   0  0  0  0  0  0  0  0  0  0  0  0
  -32.0700  -14.8230   20.2290 O   0  0  0  0  0  0  0  0  0  0  0  0
  -30.1090  -15.7320   20.8630 N   0  0  0  0  0  0  0  0  0  0  0  0
  -29.2610  -15.5220   21.3680 H   0  0  0  0  0  0  0  0  0  0  0  0
  -25.4690  -14.0060   20.4810 C   0  0  0  0  0  0  0  0  0  0  0  0
  -24.3910  -13.2350   20.8180 C   0  0  0  0  0  0  0  0  0  0  0  0
  -24.8550  -11.8840   20.8180 C   0  0  0  0  0  0  0  0  0  0  0  0
  -26.5240  -13.1250   20.2970 N   0  0  0  0  0  0  0  0  0  0  0  0
  -26.1550  -11.8440   20.5580 N   0  0  0  0  0  0  0  0  0  0  0  0
  -24.1250  -10.6220   20.9940 C   0  0  0  0  0  0  0  0  0  0  0  0
  -24.5130   -9.6740   21.9670 C   0  0  0  0  0  3  0  0  0  0  0  0
  -23.7850   -8.4760   22.1290 C   0  0  0  0  0  3  0  0  0  0  0  0
  -22.6540   -8.2180   21.3180 C   0  0  0  0  0  0  0  0  0  0  0  0
  -22.2860   -9.1540   20.3360 C   0  0  0  0  0  3  0  0  0  0  0  0
  -23.0150  -10.3430   20.1720 C   0  0  0  0  0  3  0  0  0  0  0  0
  -21.9020   -7.0710   21.3880 O   0  0  0  0  0  0  0  0  0  0  0  0
  -21.7770   -6.3610   22.5550 C   0  0  0  0  0  0  0  0  0  0  0  0
  -21.2200   -6.9330   23.7210 C   0  0  0  0  0  3  0  0  0  0  0  0
  -21.0480   -6.1470   24.8770 C   0  0  0  0  0  3  0  0  0  0  0  0
  -21.4210   -4.7900   24.8700 C   0  0  0  0  0  0  0  0  0  0  0  0
  -21.9710   -4.2170   23.7100 C   0  0  0  0  0  3  0  0  0  0  0  0
  -22.1460   -5.0000   22.5550 C   0  0  0  0  0  0  0  0  0  0  0  0
  -22.6570   -4.4380   21.4330 F   0  0  0  0  0  0  0  0  0  0  0  0
  -21.2490   -4.0330   25.9780 F   0  0  0  0  0  0  0  0  0  0  0  0
  -22.9840  -13.7120   21.0360 C   0  0  0  0  0  0  0  0  0  0  0  0
  -22.2260  -13.0200   21.8810 N   0  0  0  0  0  0  0  0  0  0  0  0
  -22.5620  -14.7310   20.4910 O   0  0  0  0  0  0  0  0  0  0  0  0
  -22.5780  -12.1950   22.3440 H   0  0  0  0  0  0  0  0  0  0  0  0
  -21.2790  -13.3220   22.0670 H   0  0  0  0  0  0  0  0  0  0  0  0
  -25.6360  -15.3760   20.2960 N   0  0  0  0  0  0  0  0  0  0  0  0
  -24.8600  -16.0250   20.3710 H   0  0  0  0  0  0  0  0  0  0  0  0
  -26.4910  -15.8180   19.9850 H   0  0  0  0  0  0  0  0  0  0  0  0
  -28.8070  -23.1050   20.6970 C   0  0  0  0  0  3  0  0  0  0  0  0
  -28.6360  -21.8320   20.2510 C   0  0  0  0  0  0  0  0  0  0  0  0
  -28.3040  -24.3210   20.0040 C   0  0  0  0  0  0  0  0  0  0  0  0
  -27.9410  -24.3060   18.8220 O   0  0  0  0  0  0  0  0  0  0  0  0
  -28.2350  -25.6380   20.8070 C   0  0  0  0  0  2  0  0  0  0  0  0
  -28.2220  -26.8060   19.9640 O   0  0  0  0  0  0  0  0  0  0  0  0
  -24.4900  -31.9160   23.2430 C   0  0  0  0  0  0  0  0  0  0  0  0
  -27.0600  -27.5400   20.0200 C   0  0  0  0  0  0  0  0  0  0  0  0
  -23.2480  -30.5480   21.5990 C   0  0  0  0  0  3  0  0  0  0  0  0
  -24.6690  -29.0400   20.1140 C   0  0  0  0  0  0  0  0  0  0  0  0
  -25.7680  -30.9130   21.3530 C   0  0  0  0  0  2  0  0  0  0  0  0
  -25.8400  -29.5560   20.6830 C   0  0  0  0  0  0  0  0  0  0  0  0
  -27.0420  -28.8140   20.6290 C   0  0  0  0  0  3  0  0  0  0  0  0
  -25.8720  -27.0310   19.4530 C   0  0  0  0  0  3  0  0  0  0  0  0
  -24.6790  -27.7760   19.4970 C   0  0  0  0  0  3  0  0  0  0  0  0
  -23.4260  -29.8960   20.2030 C   0  0  0  0  0  2  0  0  0  0  0  0
  -24.5220  -31.1400   22.1240 N   0  0  0  0  0  0  0  0  0  0  0  0
  -23.4210  -32.1770   23.8120 O   0  0  0  0  0  0  0  0  0  0  0  0
  -22.6160  -29.5090   22.5520 C   0  0  0  0  0  0  0  0  0  0  0  0
  -21.2930  -29.3130   22.4310 N   0  0  0  0  0  0  0  0  0  0  0  0
  -23.3120  -28.8800   23.3530 O   0  0  0  0  0  0  0  0  0  0  0  0
  -20.7920  -29.8730   21.7550 H   0  0  0  0  0  0  0  0  0  0  0  0
  -17.9360  -28.0750   22.9300 C   0  0  0  0  0  0  0  0  0  0  0  0
  -20.4920  -28.3580   23.1940 C   0  0  0  0  0  3  0  0  0  0  0  0
  -20.6080  -26.9360   22.5990 C   0  0  0  0  0  2  0  0  0  0  0  0
  -19.5050  -26.6130   21.5850 C   0  0  0  0  0  2  0  0  0  0  0  0
  -18.1240  -26.7350   22.2380 C   0  0  0  0  0  2  0  0  0  0  0  0
  -19.0480  -28.8430   23.3640 C   0  0  0  0  0  0  0  0  0  0  0  0
  -18.8180  -30.0990   23.9680 C   0  0  0  0  0  3  0  0  0  0  0  0
  -17.5090  -30.5840   24.1460 C   0  0  0  0  0  3  0  0  0  0  0  0
  -16.4110  -29.8110   23.7300 C   0  0  0  0  0  3  0  0  0  0  0  0
  -16.6260  -28.5580   23.1280 C   0  0  0  0  0  3  0  0  0  0  0  0
  -25.7900  -32.5320   23.8500 C   0  0  0  0  0  3  0  0  0  0  0  0
  -25.5070  -33.9380   24.1660 N   0  0  0  0  0  0  0  0  0  0  0  0
  -25.8730  -34.9760   23.4040 C   0  0  0  0  0  0  0  0  0  0  0  0
  -26.5570  -34.8520   22.3830 O   0  0  0  0  0  0  0  0  0  0  0  0
  -24.9020  -34.1110   24.9560 H   0  0  0  0  0  0  0  0  0  0  0  0
  -24.2140  -36.8190   22.9800 C   0  0  0  0  0  1  0  0  0  0  0  0
  -25.4090  -36.3780   23.8430 C   0  0  0  0  0  3  0  0  0  0  0  0
  -27.5260  -37.2050   24.7710 C   0  0  0  0  0  1  0  0  0  0  0  0
  -26.4760  -37.4000   23.7750 N   0  0  0  0  0  0  0  0  0  0  0  0
  -26.0900  -38.3330   23.9010 H   0  0  0  0  0  0  0  0  0  0  0  0
  -26.3060  -31.7640   25.1280 C   0  0  1  0  0  0  0  0  0  0  0  0
  -25.2170  -31.5480   26.2050 C   0  0  0  0  0  1  0  0  0  0  0  0
  -26.8670  -30.3760   24.7420 C   0  0  0  0  0  1  0  0  0  0  0  0
  -27.4710  -32.5460   25.7760 C   0  0  0  0  0  1  0  0  0  0  0  0
  -27.9460  -21.5510   19.1300 O   0  0  0  0  0  0  0  0  0  0  0  0
  -27.6910  -22.3850   18.7470 H   0  0  0  0  0  0  0  0  0  0  0  0
  1  2  2  0
  4  5  2  0
  5  3  1  0
  5  1  1  0
  6 19  1  0
  6  3  2  0
  7  8  2  0
  7  4  1  0
  8  6  1  0
  9  7  1  0
 10  8  1  0
 11 19  1  0
 12 17  1  0
 13 14  1  0
 13 12  1  0
 15 14  1  0
 15 24  1  0
 15 16  1  0
 17 11  1  0
 17 16  1  0
 18 11  2  0
 19 20  1  0
 21 22  2  0
 22 23  1  0
 22 41  1  0
 23 26  1  0
 24 21  1  0
 24 25  1  0
 25 23  2  0
 26 27  1  0
 27 28  2  0
 29 32  1  0
 29 28  1  0
 30 29  2  0
 31 30  1  0
 31 26  2  0
 32 33  1  0
 33 38  2  0
 33 34  1  0
 34 35  2  0
 36 35  1  0
 36 40  1  0
 37 36  2  0
 38 37  1  0
 39 38  1  0
 41 42  1  0
 42 45  1  0
 42 44  1  0
 43 41  2  0
 46 47  1  0
 46 21  1  0
 48 46  1  0
 50 49  2  0
 50  1  1  0
 51 49  1  0
 51 53  1  0
 52 51  2  0
 54 56  1  0
 54 53  1  0
 55 66  2  0
 56 61  1  0
 57 65  1  0
 57 67  1  0
 58 64  1  0
 58 60  1  0
 59 65  1  0
 60 59  1  0
 61 60  2  0
 62 63  1  0
 62 56  2  0
 63 58  2  0
 64 57  1  0
 65 55  1  0
 67 69  2  0
 68 67  1  0
 70 68  1  0
 71 80  2  0
 71 76  1  0
 72 68  1  0
 72 76  1  0
 73 72  1  0
 74 75  1  0
 74 73  1  0
 75 71  1  0
 76 77  2  0
 77 78  1  0
 79 78  2  0
 80 79  1  0
 81 55  1  0
 81 82  1  0
 81 91  1  0
 82 85  1  0
 83 87  1  0
 83 82  1  0
 84 83  2  0
 87 86  1  0
 89 87  1  0
 89 90  1  0
 89 88  1  0
 91 94  1  1
 91 92  1  0
 93 91  1  0
 95 50  1  0
 96 95  1  0
M  ISO  4  11 100  19 100  53 101  54 101
M  END
>  <TORSDO>  (66) 
F 21

>  <SCORE>  (66) 
-13.483

>  <name>  (66) 
66

>  <ligand_id>  (66) 
66

>  <original_smiles>  (66) 
[H]OC(C(=O)c1c([H])c(F)c(F)c(N([H])C(=O)N2C([H])([H])C([H])([H])C([H])([H])C([H])(n3nc(-c4c([H])c([H])c(Oc5c([H])c([H])c(F)c([H])c5F)c([H])c4[H])c(C(=O)N([H])[H])c3N([H])[H])C2([H])[H])c1[H])=C([H])C(=O)C([H])([H])Oc1c([H])c([H])c2c(c1[H])C([H])([H])N(C(=O)C([H])(N([H])C(=O)C([H])(N([H])C([H])([H])[H])C([H])([H])[H])C(C([H])([H])[H])(C([H])([H])[H])C([H])([H])[H])C([H])(C(=O)N([H])C1([H])c3c([H])c([H])c([H])c([H])c3C([H])([H])C([H])([H])C1([H])[H])C2([H])[H]

>  <smiles>  (66) 
[H]OC(C(=O)c1c([H])c(F)c(F)c(N([H])C(=O)N2C([H])([H])C([H])([H])C([H])([H])C([H])(n3nc(-c4c([H])c([H])c(Oc5c([H])c([H])c(F)c([H])c5F)c([H])c4[H])c(C(=O)N([H])[H])c3N([H])[H])C2([H])[H])c1[H])=C([H])C(=O)C([H])([H])Oc1c([H])c([H])c2c(c1[H])C([H])([H])N(C(=O)C([H])(N([H])C(=O)C([H])(N([H])C([H])([H])[H])C([H])([H])[H])C(C([H])([H])[H])(C([H])([H])[H])C([H])([H])[H])C([H])(C(=O)N([H])C1([H])c3c([H])c([H])c([H])c([H])c3C([H])([H])C([H])([H])C1([H])[H])C2([H])[H]

$$$$
67:0:0
     RDKit          3D

 97105  0  0  1  0  0  0  0  0999 V2000
  -29.7560  -21.4920   20.7590 C   0  0  0  0  0  0  0  0  0  0  0  0
  -30.3810  -20.2950   20.7430 N   0  0  0  0  0  0  0  0  0  0  0  0
  -28.5480  -21.6310   20.5530 O   0  0  0  0  0  0  0  0  0  0  0  0
  -31.3290  -20.3090   21.0940 H   0  0  0  0  0  0  0  0  0  0  0  0
  -30.6390  -14.4880   20.5160 C   0  0  0  0  0  0  0  0  0  0  0  0
  -30.3470  -12.3290   19.3640 C   0  0  0  0  0  2  0  0  0  0  0  0
  -29.4270  -12.5480   18.1450 C   0  0  0  0  0  2  0  0  0  0  0  0
  -27.9430  -12.4220   18.5480 C   0  0  0  0  0  2  0  0  0  0  0  0
  -27.5940  -13.2530   19.8100 C   0  0  0  0  0  3  0  0  0  0  0  0
  -28.6290  -13.0200   20.9350 C   0  0  0  0  0  2  0  0  0  0  0  0
  -29.9700  -13.3080   20.3950 N   0  0  0  0  0  0  0  0  0  0  0  0
  -31.7450  -14.6870   20.0040 O   0  0  0  0  0  0  0  0  0  0  0  0
  -29.1670  -18.7170   19.2220 C   0  0  0  0  0  0  0  0  0  0  0  0
  -29.8870  -19.0110   20.3690 C   0  0  0  0  0  0  0  0  0  0  0  0
  -29.7890  -16.7430   20.5750 C   0  0  0  0  0  0  0  0  0  0  0  0
  -30.2470  -17.8760   21.1240 N   0  0  0  0  0  0  0  0  0  0  0  0
  -29.9840  -15.4670   21.1600 N   0  0  0  0  0  0  0  0  0  0  0  0
  -28.8620  -16.9950   19.1090 S   0  0  0  0  0  0  0  0  0  0  0  0
  -29.1840  -15.1240   21.6660 H   0  0  0  0  0  0  0  0  0  0  0  0
  -25.1880  -13.8810   20.4810 C   0  0  0  0  0  0  0  0  0  0  0  0
  -24.1100  -13.1170   20.8400 C   0  0  0  0  0  0  0  0  0  0  0  0
  -24.5640  -11.7630   20.8200 C   0  0  0  0  0  0  0  0  0  0  0  0
  -26.2310  -12.9920   20.2680 N   0  0  0  0  0  0  0  0  0  0  0  0
  -25.8570  -11.7120   20.5270 N   0  0  0  0  0  0  0  0  0  0  0  0
  -23.8280  -10.5050   21.0080 C   0  0  0  0  0  0  0  0  0  0  0  0
  -24.2450   -9.5380   21.9480 C   0  0  0  0  0  3  0  0  0  0  0  0
  -23.5120   -8.3450   22.1210 C   0  0  0  0  0  3  0  0  0  0  0  0
  -22.3470   -8.1100   21.3520 C   0  0  0  0  0  0  0  0  0  0  0  0
  -21.9500   -9.0660   20.4000 C   0  0  0  0  0  3  0  0  0  0  0  0
  -22.6840  -10.2500   20.2260 C   0  0  0  0  0  3  0  0  0  0  0  0
  -21.5850   -6.9700   21.4350 O   0  0  0  0  0  0  0  0  0  0  0  0
  -21.5230   -6.2270   22.5870 C   0  0  0  0  0  0  0  0  0  0  0  0
  -21.0830   -6.7830   23.8090 C   0  0  0  0  0  3  0  0  0  0  0  0
  -20.9670   -5.9680   24.9520 C   0  0  0  0  0  3  0  0  0  0  0  0
  -21.2810   -4.5970   24.8750 C   0  0  0  0  0  0  0  0  0  0  0  0
  -21.7130   -4.0400   23.6580 C   0  0  0  0  0  3  0  0  0  0  0  0
  -21.8300   -4.8530   22.5170 C   0  0  0  0  0  0  0  0  0  0  0  0
  -22.2270   -4.3070   21.3410 F   0  0  0  0  0  0  0  0  0  0  0  0
  -21.1620   -3.8110   25.9700 F   0  0  0  0  0  0  0  0  0  0  0  0
  -22.7130  -13.6040   21.0940 C   0  0  0  0  0  0  0  0  0  0  0  0
  -21.9670  -12.9130   21.9480 N   0  0  0  0  0  0  0  0  0  0  0  0
  -22.2890  -14.6320   20.5680 O   0  0  0  0  0  0  0  0  0  0  0  0
  -22.3200  -12.0820   22.3990 H   0  0  0  0  0  0  0  0  0  0  0  0
  -21.0280  -13.2210   22.1580 H   0  0  0  0  0  0  0  0  0  0  0  0
  -25.3660  -15.2510   20.3000 N   0  0  0  0  0  0  0  0  0  0  0  0
  -24.6020  -15.9100   20.3990 H   0  0  0  0  0  0  0  0  0  0  0  0
  -26.2170  -15.6780   19.9640 H   0  0  0  0  0  0  0  0  0  0  0  0
  -28.6710  -19.5970   18.1090 C   0  0  1  0  0  0  0  0  0  0  0  0
  -29.5200  -20.5830   17.8260 F   0  0  0  0  0  0  0  0  0  0  0  0
  -28.5140  -18.9080   16.9780 F   0  0  0  0  0  0  0  0  0  0  0  0
  -27.4820  -20.1280   18.3950 F   0  0  0  0  0  0  0  0  0  0  0  0
  -30.6490  -22.7110   21.0800 C   0  0  0  0  0  3  0  0  0  0  0  0
  -30.9460  -22.7090   22.3830 F   0  0  0  0  0  0  0  0  0  0  0  0
  -30.1540  -24.1220   20.6410 C   0  0  0  0  0  2  0  0  0  0  0  0
  -29.0560  -24.7830   21.5100 C   0  0  0  0  0  2  0  0  0  0  0  0
  -28.9590  -26.3220   21.3700 C   0  0  0  0  0  2  0  0  0  0  0  0
  -28.3950  -26.6990   20.1140 O   0  0  0  0  0  0  0  0  0  0  0  0
  -24.5810  -31.8800   23.2540 C   0  0  0  0  0  0  0  0  0  0  0  0
  -27.2470  -27.4580   20.1720 C   0  0  0  0  0  0  0  0  0  0  0  0
  -23.3800  -30.4800   21.6040 C   0  0  0  0  0  3  0  0  0  0  0  0
  -24.8440  -28.9470   20.1830 C   0  0  0  0  0  0  0  0  0  0  0  0
  -25.9050  -30.8450   21.4160 C   0  0  0  0  0  2  0  0  0  0  0  0
  -25.9960  -29.4720   20.7830 C   0  0  0  0  0  0  0  0  0  0  0  0
  -27.2010  -28.7320   20.7870 C   0  0  0  0  0  3  0  0  0  0  0  0
  -26.0850  -26.9480   19.5610 C   0  0  0  0  0  3  0  0  0  0  0  0
  -24.8810  -27.6800   19.5730 C   0  0  0  0  0  3  0  0  0  0  0  0
  -23.5980  -29.8030   20.2230 C   0  0  0  0  0  2  0  0  0  0  0  0
  -24.6400  -31.0830   22.1500 N   0  0  0  0  0  0  0  0  0  0  0  0
  -23.4980  -32.1490   23.7920 O   0  0  0  0  0  0  0  0  0  0  0  0
  -22.7290  -29.4550   22.5580 C   0  0  0  0  0  0  0  0  0  0  0  0
  -21.4040  -29.2750   22.4320 N   0  0  0  0  0  0  0  0  0  0  0  0
  -23.4120  -28.8240   23.3690 O   0  0  0  0  0  0  0  0  0  0  0  0
  -20.9130  -29.8360   21.7510 H   0  0  0  0  0  0  0  0  0  0  0  0
  -18.0260  -28.1000   22.9330 C   0  0  0  0  0  0  0  0  0  0  0  0
  -20.5870  -28.3350   23.1980 C   0  0  0  0  0  3  0  0  0  0  0  0
  -20.6780  -26.9090   22.6080 C   0  0  0  0  0  2  0  0  0  0  0  0
  -19.5700  -26.6050   21.5950 C   0  0  0  0  0  2  0  0  0  0  0  0
  -18.1910  -26.7550   22.2450 C   0  0  0  0  0  2  0  0  0  0  0  0
  -19.1520  -28.8490   23.3670 C   0  0  0  0  0  0  0  0  0  0  0  0
  -18.9460  -30.1090   23.9680 C   0  0  0  0  0  3  0  0  0  0  0  0
  -17.6450  -30.6180   24.1440 C   0  0  0  0  0  3  0  0  0  0  0  0
  -16.5340  -29.8650   23.7270 C   0  0  0  0  0  3  0  0  0  0  0  0
  -16.7260  -28.6090   23.1270 C   0  0  0  0  0  3  0  0  0  0  0  0
  -25.8660  -32.5090   23.8770 C   0  0  0  0  0  3  0  0  0  0  0  0
  -25.5580  -33.9070   24.2030 N   0  0  0  0  0  0  0  0  0  0  0  0
  -25.9000  -34.9570   23.4450 C   0  0  0  0  0  0  0  0  0  0  0  0
  -26.5780  -34.8510   22.4200 O   0  0  0  0  0  0  0  0  0  0  0  0
  -24.9570  -34.0640   24.9980 H   0  0  0  0  0  0  0  0  0  0  0  0
  -24.1840  -36.7570   23.0630 C   0  0  0  0  0  1  0  0  0  0  0  0
  -25.4110  -36.3460   23.8950 C   0  0  0  0  0  3  0  0  0  0  0  0
  -27.5360  -37.2220   24.7610 C   0  0  0  0  0  1  0  0  0  0  0  0
  -26.4480  -37.3960   23.8010 N   0  0  0  0  0  0  0  0  0  0  0  0
  -26.0420  -38.3170   23.9470 H   0  0  0  0  0  0  0  0  0  0  0  0
  -26.3810  -31.7370   25.1540 C   0  0  1  0  0  0  0  0  0  0  0  0
  -25.2860  -31.5020   26.2200 C   0  0  0  0  0  1  0  0  0  0  0  0
  -26.9630  -30.3590   24.7600 C   0  0  0  0  0  1  0  0  0  0  0  0
  -27.5310  -32.5290   25.8180 C   0  0  0  0  0  1  0  0  0  0  0  0
  1 52  1  0
  2  1  1  0
  2  4  1  0
  3  1  2  0
  5 17  1  0
  6 11  1  0
  7  8  1  0
  7  6  1  0
  9  8  1  0
  9 23  1  0
  9 10  1  0
 11  5  1  0
 11 10  1  0
 12  5  2  0
 13 14  2  0
 14  2  1  0
 14 16  1  0
 15 16  2  0
 15 17  1  0
 17 19  1  0
 18 13  1  0
 18 15  1  0
 20 21  2  0
 21 40  1  0
 22 21  1  0
 22 25  1  0
 23 20  1  0
 23 24  1  0
 24 22  2  0
 25 26  1  0
 26 27  2  0
 28 31  1  0
 28 27  1  0
 29 28  2  0
 30 29  1  0
 30 25  2  0
 31 32  1  0
 32 33  1  0
 33 34  2  0
 35 34  1  0
 35 39  1  0
 36 35  2  0
 37 32  2  0
 37 36  1  0
 38 37  1  0
 40 41  1  0
 41 44  1  0
 41 43  1  0
 42 40  2  0
 45 46  1  0
 45 20  1  0
 47 45  1  0
 48 51  1  1
 48 13  1  0
 49 48  1  0
 50 48  1  0
 52 53  1  0
 54 52  1  0
 54 55  1  0
 56 55  1  0
 57 59  1  0
 57 56  1  0
 58 69  2  0
 59 64  1  0
 60 68  1  0
 60 70  1  0
 61 67  1  0
 61 63  1  0
 62 68  1  0
 63 64  2  0
 63 62  1  0
 65 66  1  0
 65 59  2  0
 66 61  2  0
 67 60  1  0
 68 58  1  0
 70 72  2  0
 71 70  1  0
 73 71  1  0
 74 83  2  0
 74 79  1  0
 75 71  1  0
 75 79  1  0
 76 75  1  0
 77 78  1  0
 77 76  1  0
 78 74  1  0
 79 80  2  0
 80 81  1  0
 82 81  2  0
 83 82  1  0
 84 58  1  0
 84 85  1  0
 84 94  1  0
 85 88  1  0
 86 90  1  0
 86 85  1  0
 87 86  2  0
 90 89  1  0
 92 90  1  0
 92 93  1  0
 92 91  1  0
 94 97  1  1
 94 95  1  0
 96 94  1  0
M  ISO  4   5 100  17 100  56 101  57 101
M  END
>  <TORSDO>  (67) 
F 21

>  <SCORE>  (67) 
-14.049

>  <name>  (67) 
67

>  <ligand_id>  (67) 
67

>  <original_smiles>  (67) 
[H]c1c([H])c([H])c2c(c1[H])C([H])([H])C([H])([H])C([H])([H])C2([H])N([H])C(=O)C1([H])N(C(=O)C([H])(N([H])C(=O)C([H])(N([H])C([H])([H])[H])C([H])([H])[H])C(C([H])([H])[H])(C([H])([H])[H])C([H])([H])[H])C([H])([H])c2c([H])c(OC([H])([H])C([H])([H])C([H])([H])C([H])(F)C(=O)N([H])c3nc(N([H])C(=O)N4C([H])([H])C([H])([H])C([H])([H])C([H])(n5nc(-c6c([H])c([H])c(Oc7c([H])c([H])c(F)c([H])c7F)c([H])c6[H])c(C(=O)N([H])[H])c5N([H])[H])C4([H])[H])sc3C(F)(F)F)c([H])c([H])c2C1([H])[H]

>  <smiles>  (67) 
[H]c1c([H])c([H])c2c(c1[H])C([H])([H])C([H])([H])C([H])([H])C2([H])N([H])C(=O)C1([H])N(C(=O)C([H])(N([H])C(=O)C([H])(N([H])C([H])([H])[H])C([H])([H])[H])C(C([H])([H])[H])(C([H])([H])[H])C([H])([H])[H])C([H])([H])c2c([H])c(OC([H])([H])C([H])([H])C([H])([H])C([H])(F)C(=O)N([H])c3nc(N([H])C(=O)N4C([H])([H])C([H])([H])C([H])([H])C([H])(n5nc(-c6c([H])c([H])c(Oc7c([H])c([H])c(F)c([H])c7F)c([H])c6[H])c(C(=O)N([H])[H])c5N([H])[H])C4([H])[H])sc3C(F)(F)F)c([H])c([H])c2C1([H])[H]

$$$$
68:0:0
     RDKit          3D

 92100  0  0  1  0  0  0  0  0999 V2000
  -28.5710  -20.8520   20.3200 C   0  0  0  0  0  0  0  0  0  0  0  0
  -29.3790  -19.7220   20.5480 N   0  0  0  0  0  0  0  0  0  0  0  0
  -27.3880  -20.7220   19.9850 O   0  0  0  0  0  0  0  0  0  0  0  0
  -30.2390  -19.9080   21.0480 H   0  0  0  0  0  0  0  0  0  0  0  0
  -28.8850  -18.5850   18.4470 C   0  0  0  0  0  3  0  0  0  0  0  0
  -28.8770  -17.4470   17.7060 C   0  0  0  0  0  3  0  0  0  0  0  0
  -29.3020  -18.4160   19.8160 C   0  0  0  0  0  0  0  0  0  0  0  0
  -29.6440  -17.0370   20.1070 C   0  0  0  0  0  0  0  0  0  0  0  0
  -29.4290  -16.1090   18.6200 S   0  0  0  0  0  0  0  0  0  0  0  0
  -30.7770  -15.0280   21.1530 C   0  0  0  0  0  0  0  0  0  0  0  0
  -30.7130  -12.6700   20.2880 C   0  0  0  0  0  2  0  0  0  0  0  0
  -29.9320  -12.5450   18.9650 C   0  0  0  0  0  2  0  0  0  0  0  0
  -28.4260  -12.3570   19.2370 C   0  0  0  0  0  2  0  0  0  0  0  0
  -27.8720  -13.3310   20.3120 C   0  0  0  0  0  3  0  0  0  0  0  0
  -28.8000  -13.4420   21.5400 C   0  0  0  0  0  2  0  0  0  0  0  0
  -30.1330  -13.8060   21.0430 N   0  0  0  0  0  0  0  0  0  0  0  0
  -32.0030  -15.0490   21.0440 O   0  0  0  0  0  0  0  0  0  0  0  0
  -30.0970  -16.2580   21.1910 N   0  0  0  0  0  0  0  0  0  0  0  0
  -30.5000  -16.8470   21.9070 H   0  0  0  0  0  0  0  0  0  0  0  0
  -25.4150  -13.8910   20.7570 C   0  0  0  0  0  0  0  0  0  0  0  0
  -24.3250  -13.1090   21.0170 C   0  0  0  0  0  0  0  0  0  0  0  0
  -24.8090  -11.7660   21.0820 C   0  0  0  0  0  0  0  0  0  0  0  0
  -26.4920  -13.0240   20.6700 N   0  0  0  0  0  0  0  0  0  0  0  0
  -26.1270  -11.7430   20.9310 N   0  0  0  0  0  0  0  0  0  0  0  0
  -24.0860  -10.4960   21.2200 C   0  0  0  0  0  0  0  0  0  0  0  0
  -24.4440   -9.5440   22.2010 C   0  0  0  0  0  3  0  0  0  0  0  0
  -23.7200   -8.3380   22.3260 C   0  0  0  0  0  3  0  0  0  0  0  0
  -22.6240   -8.0770   21.4700 C   0  0  0  0  0  0  0  0  0  0  0  0
  -22.2870   -9.0160   20.4800 C   0  0  0  0  0  3  0  0  0  0  0  0
  -23.0110  -10.2130   20.3530 C   0  0  0  0  0  3  0  0  0  0  0  0
  -21.8780   -6.9220   21.5060 O   0  0  0  0  0  0  0  0  0  0  0  0
  -21.7580   -6.1780   22.6520 C   0  0  0  0  0  0  0  0  0  0  0  0
  -21.2470   -6.7280   23.8480 C   0  0  0  0  0  3  0  0  0  0  0  0
  -21.0770   -5.9100   24.9840 C   0  0  0  0  0  3  0  0  0  0  0  0
  -21.4060   -4.5420   24.9230 C   0  0  0  0  0  0  0  0  0  0  0  0
  -21.9080   -3.9920   23.7310 C   0  0  0  0  0  3  0  0  0  0  0  0
  -22.0810   -4.8070   22.5990 C   0  0  0  0  0  0  0  0  0  0  0  0
  -22.5460   -4.2660   21.4470 F   0  0  0  0  0  0  0  0  0  0  0  0
  -21.2350   -3.7540   26.0100 F   0  0  0  0  0  0  0  0  0  0  0  0
  -22.8980  -13.5690   21.1030 C   0  0  0  0  0  0  0  0  0  0  0  0
  -22.0820  -12.8890   21.9020 N   0  0  0  0  0  0  0  0  0  0  0  0
  -22.5110  -14.5680   20.4960 O   0  0  0  0  0  0  0  0  0  0  0  0
  -22.4090  -12.0870   22.4190 H   0  0  0  0  0  0  0  0  0  0  0  0
  -21.1180  -13.1760   22.0000 H   0  0  0  0  0  0  0  0  0  0  0  0
  -25.5750  -15.2590   20.5610 N   0  0  0  0  0  0  0  0  0  0  0  0
  -24.7900  -15.9010   20.5600 H   0  0  0  0  0  0  0  0  0  0  0  0
  -26.4580  -15.7080   20.3470 H   0  0  0  0  0  0  0  0  0  0  0  0
  -29.1570  -22.3880   20.4870 C   0  0  0  0  0  0  0  0  0  0  0  0
  -30.3810  -22.5520   20.5030 O   0  0  0  0  0  0  0  0  0  0  0  0
  -28.2180  -23.7000   20.6550 C   0  0  0  0  0  2  0  0  0  0  0  0
  -28.4080  -25.0520   19.7500 C   0  0  0  0  0  2  0  0  0  0  0  0
  -28.3070  -26.4850   20.2440 O   0  0  0  0  0  0  0  0  0  0  0  0
  -24.5930  -31.9610   23.2220 C   0  0  0  0  0  0  0  0  0  0  0  0
  -27.1780  -27.3410   20.1560 C   0  0  0  0  0  0  0  0  0  0  0  0
  -23.3790  -30.5620   21.5890 C   0  0  0  0  0  3  0  0  0  0  0  0
  -24.8180  -28.9980   20.1520 C   0  0  0  0  0  0  0  0  0  0  0  0
  -25.9200  -30.8640   21.3870 C   0  0  0  0  0  2  0  0  0  0  0  0
  -25.9940  -29.4790   20.7380 C   0  0  0  0  0  0  0  0  0  0  0  0
  -27.1700  -28.6620   20.7290 C   0  0  0  0  0  3  0  0  0  0  0  0
  -25.9750  -26.9240   19.5460 C   0  0  0  0  0  3  0  0  0  0  0  0
  -24.8140  -27.7300   19.5470 C   0  0  0  0  0  3  0  0  0  0  0  0
  -23.5850  -29.8820   20.2080 C   0  0  0  0  0  2  0  0  0  0  0  0
  -24.6500  -31.1490   22.1230 N   0  0  0  0  0  0  0  0  0  0  0  0
  -23.5120  -32.2390   23.7630 O   0  0  0  0  0  0  0  0  0  0  0  0
  -22.7210  -29.5500   22.5580 C   0  0  0  0  0  0  0  0  0  0  0  0
  -21.3920  -29.3730   22.4440 N   0  0  0  0  0  0  0  0  0  0  0  0
  -23.4040  -28.9260   23.3740 O   0  0  0  0  0  0  0  0  0  0  0  0
  -20.8980  -29.9310   21.7610 H   0  0  0  0  0  0  0  0  0  0  0  0
  -18.0210  -28.1630   22.9630 C   0  0  0  0  0  0  0  0  0  0  0  0
  -20.5800  -28.4350   23.2210 C   0  0  0  0  0  3  0  0  0  0  0  0
  -20.6850  -27.0010   22.6510 C   0  0  0  0  0  2  0  0  0  0  0  0
  -19.5790  -26.6710   21.6420 C   0  0  0  0  0  2  0  0  0  0  0  0
  -18.2000  -26.8140   22.2890 C   0  0  0  0  0  2  0  0  0  0  0  0
  -19.1380  -28.9310   23.3860 C   0  0  0  0  0  0  0  0  0  0  0  0
  -18.9150  -30.1960   23.9760 C   0  0  0  0  0  3  0  0  0  0  0  0
  -17.6090  -30.6900   24.1470 C   0  0  0  0  0  3  0  0  0  0  0  0
  -16.5060  -29.9180   23.7400 C   0  0  0  0  0  3  0  0  0  0  0  0
  -16.7130  -28.6560   23.1540 C   0  0  0  0  0  3  0  0  0  0  0  0
  -25.8780  -32.5970   23.8370 C   0  0  0  0  0  3  0  0  0  0  0  0
  -26.4070  -31.8250   25.1070 C   0  0  1  0  0  0  0  0  0  0  0  0
  -25.3260  -31.5840   26.1880 C   0  0  0  0  0  1  0  0  0  0  0  0
  -26.9870  -30.4470   24.7090 C   0  0  0  0  0  1  0  0  0  0  0  0
  -27.5620  -32.6190   25.7620 C   0  0  0  0  0  1  0  0  0  0  0  0
  -25.5680  -33.9940   24.1770 N   0  0  0  0  0  0  0  0  0  0  0  0
  -25.9010  -35.0540   23.4280 C   0  0  0  0  0  0  0  0  0  0  0  0
  -26.5710  -34.9580   22.3960 O   0  0  0  0  0  0  0  0  0  0  0  0
  -24.9750  -34.1420   24.9800 H   0  0  0  0  0  0  0  0  0  0  0  0
  -24.1810  -36.8580   23.0840 C   0  0  0  0  0  1  0  0  0  0  0  0
  -25.4160  -36.4380   23.8970 C   0  0  0  0  0  3  0  0  0  0  0  0
  -27.5500  -37.3090   24.7470 C   0  0  0  0  0  1  0  0  0  0  0  0
  -26.4530  -37.4900   23.8010 N   0  0  0  0  0  0  0  0  0  0  0  0
  -26.0470  -38.4090   23.9580 H   0  0  0  0  0  0  0  0  0  0  0  0
  1 48  1  0
  1  2  1  0
  2  4  1  0
  3  1  2  0
  5  7  1  0
  6  5  2  0
  6  9  1  0
  7  8  2  0
  7  2  1  0
  8 18  1  0
  9  8  1  0
 10 18  1  0
 11 16  1  0
 12 13  1  0
 12 11  1  0
 14 13  1  0
 14 23  1  0
 14 15  1  0
 16 10  1  0
 16 15  1  0
 17 10  2  0
 18 19  1  0
 20 21  2  0
 21 22  1  0
 21 40  1  0
 22 25  1  0
 23 20  1  0
 23 24  1  0
 24 22  2  0
 25 26  1  0
 26 27  2  0
 28 31  1  0
 28 27  1  0
 29 28  2  0
 30 29  1  0
 30 25  2  0
 31 32  1  0
 32 33  1  0
 33 34  2  0
 35 34  1  0
 35 39  1  0
 36 35  2  0
 37 32  2  0
 37 36  1  0
 38 37  1  0
 40 41  1  0
 41 44  1  0
 41 43  1  0
 42 40  2  0
 45 20  1  0
 46 45  1  0
 47 45  1  0
 48 49  2  0
 48 50  1  0
 51 52  1  0
 51 50  1  0
 53 64  2  0
 54 52  1  0
 54 59  1  0
 55 63  1  0
 55 65  1  0
 56 62  1  0
 56 58  1  0
 57 63  1  0
 58 57  1  0
 59 58  2  0
 60 61  1  0
 60 54  2  0
 61 56  2  0
 62 55  1  0
 63 53  1  0
 65 67  2  0
 66 65  1  0
 68 66  1  0
 69 78  2  0
 69 74  1  0
 70 66  1  0
 70 74  1  0
 71 70  1  0
 72 73  1  0
 72 71  1  0
 73 69  1  0
 74 75  2  0
 75 76  1  0
 77 76  2  0
 78 77  1  0
 79 53  1  0
 79 84  1  0
 79 80  1  0
 80 83  1  1
 80 81  1  0
 82 80  1  0
 84 87  1  0
 85 89  1  0
 85 84  1  0
 86 85  2  0
 89 88  1  0
 91 89  1  0
 91 92  1  0
 91 90  1  0
M  ISO  4  10 100  18 100  51 101  52 101
M  END
>  <TORSDO>  (68) 
F 20

>  <SCORE>  (68) 
-12.606

>  <name>  (68) 
68

>  <ligand_id>  (68) 
68

>  <original_smiles>  (68) 
[H]c1sc(N([H])C(=O)N2C([H])([H])C([H])([H])C([H])([H])C([H])(n3nc(-c4c([H])c([H])c(Oc5c([H])c([H])c(F)c([H])c5F)c([H])c4[H])c(C(=O)N([H])[H])c3N([H])[H])C2([H])[H])c(N([H])C(=O)C(=O)C([H])([H])C([H])([H])Oc2c([H])c([H])c3c(c2[H])C([H])([H])N(C(=O)C([H])(N([H])C(=O)C([H])(N([H])C([H])([H])[H])C([H])([H])[H])C(C([H])([H])[H])(C([H])([H])[H])C([H])([H])[H])C([H])(C(=O)N([H])C2([H])c4c([H])c([H])c([H])c([H])c4C([H])([H])C([H])([H])C2([H])[H])C3([H])[H])c1[H]

>  <smiles>  (68) 
[H]c1sc(N([H])C(=O)N2C([H])([H])C([H])([H])C([H])([H])C([H])(n3nc(-c4c([H])c([H])c(Oc5c([H])c([H])c(F)c([H])c5F)c([H])c4[H])c(C(=O)N([H])[H])c3N([H])[H])C2([H])[H])c(N([H])C(=O)C(=O)C([H])([H])C([H])([H])Oc2c([H])c([H])c3c(c2[H])C([H])([H])N(C(=O)C([H])(N([H])C(=O)C([H])(N([H])C([H])([H])[H])C([H])([H])[H])C(C([H])([H])[H])(C([H])([H])[H])C([H])([H])[H])C([H])(C(=O)N([H])C2([H])c4c([H])c([H])c([H])c([H])c4C([H])([H])C([H])([H])C2([H])[H])C3([H])[H])c1[H]

$$$$
69:0:0
     RDKit          3D

 95103  0  0  1  0  0  0  0  0999 V2000
  -31.5610  -17.7090   20.8360 C   0  0  0  0  0  3  0  0  0  0  0  0
  -31.1980  -20.0220   20.8690 C   0  0  0  0  0  0  0  0  0  0  0  0
  -30.1940  -17.4010   20.6360 C   0  0  0  0  0  0  0  0  0  0  0  0
  -29.7890  -19.8370   20.6290 C   0  0  0  0  0  0  0  0  0  0  0  0
  -32.0450  -18.9630   20.9380 N   0  0  0  0  0  0  0  0  0  0  0  0
  -29.3270  -18.5080   20.5350 N   0  0  0  0  0  0  0  0  0  0  0  0
  -28.8360  -20.9390   20.5420 N   0  0  0  0  0  0  0  0  0  0  0  0
  -27.8650  -20.6530   20.6080 H   0  0  0  0  0  0  0  0  0  0  0  0
  -30.5710  -14.7930   20.3890 C   0  0  0  0  0  0  0  0  0  0  0  0
  -30.3700  -12.5180   19.3630 C   0  0  0  0  0  2  0  0  0  0  0  0
  -29.4320  -12.5760   18.1380 C   0  0  0  0  0  2  0  0  0  0  0  0
  -27.9660  -12.3900   18.5720 C   0  0  0  0  0  2  0  0  0  0  0  0
  -27.5860  -13.2800   19.7850 C   0  0  0  0  0  3  0  0  0  0  0  0
  -28.6420  -13.2050   20.9070 C   0  0  0  0  0  2  0  0  0  0  0  0
  -29.9320  -13.5720   20.3110 N   0  0  0  0  0  0  0  0  0  0  0  0
  -31.7610  -14.8450   20.0660 O   0  0  0  0  0  0  0  0  0  0  0  0
  -29.8130  -15.9510   20.5980 N   0  0  0  0  0  0  0  0  0  0  0  0
  -28.8300  -15.7740   20.7210 H   0  0  0  0  0  0  0  0  0  0  0  0
  -25.1980  -13.8600   20.5120 C   0  0  0  0  0  0  0  0  0  0  0  0
  -24.1360  -13.0810   20.8850 C   0  0  0  0  0  0  0  0  0  0  0  0
  -24.6060  -11.7330   20.8600 C   0  0  0  0  0  0  0  0  0  0  0  0
  -26.2450  -12.9850   20.2770 N   0  0  0  0  0  0  0  0  0  0  0  0
  -25.8980  -11.7010   20.5520 N   0  0  0  0  0  0  0  0  0  0  0  0
  -23.8860  -10.4680   21.0520 C   0  0  0  0  0  0  0  0  0  0  0  0
  -24.3300   -9.4990   21.9790 C   0  0  0  0  0  3  0  0  0  0  0  0
  -23.6090   -8.2980   22.1610 C   0  0  0  0  0  3  0  0  0  0  0  0
  -22.4300   -8.0590   21.4160 C   0  0  0  0  0  0  0  0  0  0  0  0
  -22.0050   -9.0170   20.4790 C   0  0  0  0  0  3  0  0  0  0  0  0
  -22.7260  -10.2080   20.2950 C   0  0  0  0  0  3  0  0  0  0  0  0
  -21.6790   -6.9110   21.5080 O   0  0  0  0  0  0  0  0  0  0  0  0
  -21.6550   -6.1590   22.6540 C   0  0  0  0  0  0  0  0  0  0  0  0
  -21.2630   -6.7030   23.8970 C   0  0  0  0  0  3  0  0  0  0  0  0
  -21.1850   -5.8760   25.0350 C   0  0  0  0  0  3  0  0  0  0  0  0
  -21.4870   -4.5050   24.9320 C   0  0  0  0  0  0  0  0  0  0  0  0
  -21.8730   -3.9600   23.6950 C   0  0  0  0  0  3  0  0  0  0  0  0
  -21.9540   -4.7850   22.5590 C   0  0  0  0  0  0  0  0  0  0  0  0
  -22.3030   -4.2500   21.3650 F   0  0  0  0  0  0  0  0  0  0  0  0
  -21.4050   -3.7080   26.0230 F   0  0  0  0  0  0  0  0  0  0  0  0
  -22.7350  -13.5520   21.1480 C   0  0  0  0  0  0  0  0  0  0  0  0
  -22.0070  -12.8580   22.0150 N   0  0  0  0  0  0  0  0  0  0  0  0
  -22.2950  -14.5740   20.6210 O   0  0  0  0  0  0  0  0  0  0  0  0
  -22.3750  -12.0350   22.4680 H   0  0  0  0  0  0  0  0  0  0  0  0
  -21.0670  -13.1560   22.2300 H   0  0  0  0  0  0  0  0  0  0  0  0
  -25.3520  -15.2310   20.3280 N   0  0  0  0  0  0  0  0  0  0  0  0
  -24.5770  -15.8750   20.4340 H   0  0  0  0  0  0  0  0  0  0  0  0
  -26.1830  -15.6760   19.9620 H   0  0  0  0  0  0  0  0  0  0  0  0
  -31.8830  -21.3430   21.1690 C   0  0  0  0  0  0  0  0  0  0  0  0
  -31.4040  -22.1650   21.9800 O   0  0  0  0  0  1  0  0  0  0  0  0
  -33.0040  -21.5860   20.6620 O   0  0  0  0  0  0  0  0  0  0  0  0
  -28.4970  -22.1000   18.3790 C   0  0  0  0  0  1  0  0  0  0  0  0
  -29.0240  -22.2760   19.8150 C   0  0  0  0  0  3  0  0  0  0  0  0
  -28.4300  -23.6780   20.4420 C   0  0  0  0  0  0  0  0  0  0  0  0
  -27.9580  -23.6980   21.5830 O   0  0  0  0  0  0  0  0  0  0  0  0
  -28.4220  -25.0500   19.5910 C   0  0  0  0  0  2  0  0  0  0  0  0
  -28.3220  -26.3920   20.2810 O   0  0  0  0  0  0  0  0  0  0  0  0
  -24.6110  -31.8830   23.2380 C   0  0  0  0  0  0  0  0  0  0  0  0
  -27.2080  -27.2640   20.1890 C   0  0  0  0  0  0  0  0  0  0  0  0
  -23.4080  -30.4840   21.6010 C   0  0  0  0  0  3  0  0  0  0  0  0
  -24.8530  -28.9230   20.1720 C   0  0  0  0  0  0  0  0  0  0  0  0
  -25.9520  -30.7820   21.4210 C   0  0  0  0  0  2  0  0  0  0  0  0
  -26.0250  -29.3980   20.7720 C   0  0  0  0  0  0  0  0  0  0  0  0
  -27.2010  -28.5800   20.7700 C   0  0  0  0  0  3  0  0  0  0  0  0
  -26.0040  -26.8510   19.5740 C   0  0  0  0  0  3  0  0  0  0  0  0
  -24.8480  -27.6580   19.5660 C   0  0  0  0  0  3  0  0  0  0  0  0
  -23.6190  -29.8060   20.2210 C   0  0  0  0  0  2  0  0  0  0  0  0
  -24.6770  -31.0690   22.1430 N   0  0  0  0  0  0  0  0  0  0  0  0
  -23.5260  -32.1610   23.7720 O   0  0  0  0  0  0  0  0  0  0  0  0
  -22.7430  -29.4720   22.5650 C   0  0  0  0  0  0  0  0  0  0  0  0
  -21.4170  -29.2940   22.4360 N   0  0  0  0  0  0  0  0  0  0  0  0
  -23.4190  -28.8530   23.3900 O   0  0  0  0  0  0  0  0  0  0  0  0
  -20.9320  -29.8410   21.7390 H   0  0  0  0  0  0  0  0  0  0  0  0
  -18.0420  -28.0810   22.9350 C   0  0  0  0  0  0  0  0  0  0  0  0
  -20.5980  -28.3580   23.2110 C   0  0  0  0  0  3  0  0  0  0  0  0
  -20.7120  -26.9240   22.6450 C   0  0  0  0  0  2  0  0  0  0  0  0
  -19.6130  -26.5880   21.6310 C   0  0  0  0  0  2  0  0  0  0  0  0
  -18.2280  -26.7300   22.2670 C   0  0  0  0  0  2  0  0  0  0  0  0
  -19.1550  -28.8530   23.3630 C   0  0  0  0  0  0  0  0  0  0  0  0
  -18.9260  -30.1150   23.9500 C   0  0  0  0  0  3  0  0  0  0  0  0
  -17.6170  -30.6100   24.1090 C   0  0  0  0  0  3  0  0  0  0  0  0
  -16.5200  -29.8380   23.6920 C   0  0  0  0  0  3  0  0  0  0  0  0
  -16.7320  -28.5750   23.1130 C   0  0  0  0  0  3  0  0  0  0  0  0
  -25.8910  -32.5210   23.8610 C   0  0  0  0  0  3  0  0  0  0  0  0
  -26.4050  -31.7540   25.1420 C   0  0  1  0  0  0  0  0  0  0  0  0
  -25.3100  -31.5240   26.2100 C   0  0  0  0  0  1  0  0  0  0  0  0
  -26.9850  -30.3740   24.7590 C   0  0  0  0  0  1  0  0  0  0  0  0
  -27.5580  -32.5480   25.8000 C   0  0  0  0  0  1  0  0  0  0  0  0
  -25.5790  -33.9190   24.1900 N   0  0  0  0  0  0  0  0  0  0  0  0
  -25.9110  -34.9730   23.4320 C   0  0  0  0  0  0  0  0  0  0  0  0
  -26.5800  -34.8700   22.4010 O   0  0  0  0  0  0  0  0  0  0  0  0
  -24.9890  -34.0720   24.9950 H   0  0  0  0  0  0  0  0  0  0  0  0
  -24.1810  -36.7640   23.0800 C   0  0  0  0  0  1  0  0  0  0  0  0
  -25.4240  -36.3630   23.8890 C   0  0  0  0  0  3  0  0  0  0  0  0
  -27.5620  -37.2440   24.7150 C   0  0  0  0  0  1  0  0  0  0  0  0
  -26.4580  -37.4160   23.7730 N   0  0  0  0  0  0  0  0  0  0  0  0
  -26.0540  -38.3370   23.9210 H   0  0  0  0  0  0  0  0  0  0  0  0
  1  5  1  0
  2  5  2  0
  2 47  1  0
  3  1  2  0
  4  2  1  0
  6  4  2  0
  6  3  1  0
  7  8  1  0
  7  4  1  0
  9 17  1  0
 10 15  1  0
 11 12  1  0
 11 10  1  0
 13 12  1  0
 13 22  1  0
 13 14  1  0
 15  9  1  0
 15 14  1  0
 16  9  2  0
 17  3  1  0
 17 18  1  0
 19 20  2  0
 20 39  1  0
 21 20  1  0
 21 24  1  0
 22 19  1  0
 22 23  1  0
 23 21  2  0
 24 25  1  0
 25 26  2  0
 27 30  1  0
 27 26  1  0
 28 27  2  0
 29 28  1  0
 29 24  2  0
 30 31  1  0
 31 32  1  0
 32 33  2  0
 34 33  1  0
 34 38  1  0
 35 34  2  0
 36 31  2  0
 36 35  1  0
 37 36  1  0
 39 40  1  0
 40 43  1  0
 40 42  1  0
 41 39  2  0
 44 45  1  0
 44 19  1  0
 46 44  1  0
 47 48  1  0
 49 47  2  0
 51 50  1  0
 51 52  1  0
 51  7  1  0
 52 53  2  0
 54 55  1  0
 54 52  1  0
 56 67  2  0
 57 55  1  0
 57 62  1  0
 58 66  1  0
 58 68  1  0
 59 65  1  0
 59 61  1  0
 60 66  1  0
 61 60  1  0
 62 61  2  0
 63 57  2  0
 64 63  1  0
 64 59  2  0
 65 58  1  0
 66 56  1  0
 68 70  2  0
 69 68  1  0
 71 69  1  0
 72 81  2  0
 72 77  1  0
 73 69  1  0
 73 77  1  0
 74 73  1  0
 75 76  1  0
 75 74  1  0
 76 72  1  0
 77 78  2  0
 78 79  1  0
 80 79  2  0
 81 80  1  0
 82 56  1  0
 82 87  1  0
 82 83  1  0
 83 86  1  1
 83 84  1  0
 85 83  1  0
 87 90  1  0
 88 92  1  0
 88 87  1  0
 89 88  2  0
 92 91  1  0
 94 92  1  0
 94 95  1  0
 94 93  1  0
M  ISO  4   9 100  17 100  54 101  55 101
M  END
>  <TORSDO>  (69) 
F 20

>  <SCORE>  (69) 
-14.283

>  <name>  (69) 
69

>  <ligand_id>  (69) 
69

>  <original_smiles>  (69) 
[H]c1nc(C(=O)[O-])c(N([H])C([H])(C(=O)C([H])([H])Oc2c([H])c([H])c3c(c2[H])C([H])([H])N(C(=O)C([H])(N([H])C(=O)C([H])(N([H])C([H])([H])[H])C([H])([H])[H])C(C([H])([H])[H])(C([H])([H])[H])C([H])([H])[H])C([H])(C(=O)N([H])C2([H])c4c([H])c([H])c([H])c([H])c4C([H])([H])C([H])([H])C2([H])[H])C3([H])[H])C([H])([H])[H])nc1N([H])C(=O)N1C([H])([H])C([H])([H])C([H])([H])C([H])(n2nc(-c3c([H])c([H])c(Oc4c([H])c([H])c(F)c([H])c4F)c([H])c3[H])c(C(=O)N([H])[H])c2N([H])[H])C1([H])[H]

>  <smiles>  (69) 
[H]c1nc(C(=O)[O-])c(N([H])C([H])(C(=O)C([H])([H])Oc2c([H])c([H])c3c(c2[H])C([H])([H])N(C(=O)C([H])(N([H])C(=O)C([H])(N([H])C([H])([H])[H])C([H])([H])[H])C(C([H])([H])[H])(C([H])([H])[H])C([H])([H])[H])C([H])(C(=O)N([H])C2([H])c4c([H])c([H])c([H])c([H])c4C([H])([H])C([H])([H])C2([H])[H])C3([H])[H])C([H])([H])[H])nc1N([H])C(=O)N1C([H])([H])C([H])([H])C([H])([H])C([H])(n2nc(-c3c([H])c([H])c(Oc4c([H])c([H])c(F)c([H])c4F)c([H])c3[H])c(C(=O)N([H])[H])c2N([H])[H])C1([H])[H]

$$$$
70:0:0
     RDKit          3D

 96104  0  0  1  0  0  0  0  0999 V2000
  -28.6440  -22.5410   19.6750 C   0  0  0  0  0  0  0  0  0  0  0  0
  -29.2380  -21.4210   20.2790 N   0  0  0  0  0  0  0  0  0  0  0  0
  -28.0240  -22.4050   18.6190 O   0  0  0  0  0  0  0  0  0  0  0  0
  -29.5960  -21.6300   21.2000 H   0  0  0  0  0  0  0  0  0  0  0  0
  -29.5820  -19.7800   18.3880 C   0  0  0  0  0  3  0  0  0  0  0  0
  -29.6570  -18.8100   20.6160 C   0  0  0  0  0  3  0  0  0  0  0  0
  -29.7960  -18.4920   17.8410 C   0  0  0  0  0  0  0  0  0  0  0  0
  -29.4740  -20.0100   19.7850 C   0  0  0  0  0  0  0  0  0  0  0  0
  -29.9190  -17.4620   20.0870 C   0  0  0  0  0  0  0  0  0  0  0  0
  -29.9620  -17.3640   18.6770 C   0  0  0  0  0  0  0  0  0  0  0  0
  -30.1010  -16.1470   18.1000 F   0  0  0  0  0  0  0  0  0  0  0  0
  -30.7650  -15.0340   20.6350 C   0  0  0  0  0  0  0  0  0  0  0  0
  -30.6780  -12.7050   19.7280 C   0  0  0  0  0  2  0  0  0  0  0  0
  -29.8160  -12.7250   18.4460 C   0  0  0  0  0  2  0  0  0  0  0  0
  -28.3210  -12.5590   18.7830 C   0  0  0  0  0  2  0  0  0  0  0  0
  -27.8660  -13.4540   19.9710 C   0  0  0  0  0  3  0  0  0  0  0  0
  -28.8610  -13.4070   21.1490 C   0  0  0  0  0  2  0  0  0  0  0  0
  -30.1800  -13.7790   20.6210 N   0  0  0  0  0  0  0  0  0  0  0  0
  -31.9610  -15.1350   20.3410 O   0  0  0  0  0  0  0  0  0  0  0  0
  -29.9840  -16.1720   20.8560 N   0  0  0  0  0  0  0  0  0  0  0  0
  -29.1420  -15.9750   21.3730 H   0  0  0  0  0  0  0  0  0  0  0  0
  -25.4350  -14.0150   20.5630 C   0  0  0  0  0  0  0  0  0  0  0  0
  -24.3590  -13.2330   20.8830 C   0  0  0  0  0  0  0  0  0  0  0  0
  -24.8400  -11.8870   20.8920 C   0  0  0  0  0  0  0  0  0  0  0  0
  -26.5000  -13.1480   20.3900 N   0  0  0  0  0  0  0  0  0  0  0  0
  -26.1470  -11.8620   20.6510 N   0  0  0  0  0  0  0  0  0  0  0  0
  -24.1170  -10.6170   21.0620 C   0  0  0  0  0  0  0  0  0  0  0  0
  -24.5120   -9.6630   22.0230 C   0  0  0  0  0  3  0  0  0  0  0  0
  -23.7880   -8.4610   22.1830 C   0  0  0  0  0  3  0  0  0  0  0  0
  -22.6520   -8.2060   21.3780 C   0  0  0  0  0  0  0  0  0  0  0  0
  -22.2750   -9.1490   20.4040 C   0  0  0  0  0  3  0  0  0  0  0  0
  -23.0020  -10.3420   20.2450 C   0  0  0  0  0  3  0  0  0  0  0  0
  -21.9100   -7.0520   21.4380 O   0  0  0  0  0  0  0  0  0  0  0  0
  -21.8140   -6.3180   22.5920 C   0  0  0  0  0  0  0  0  0  0  0  0
  -21.3180   -6.8740   23.7910 C   0  0  0  0  0  3  0  0  0  0  0  0
  -21.1690   -6.0640   24.9360 C   0  0  0  0  0  3  0  0  0  0  0  0
  -21.5100   -4.7000   24.8820 C   0  0  0  0  0  0  0  0  0  0  0  0
  -21.9980   -4.1430   23.6860 C   0  0  0  0  0  3  0  0  0  0  0  0
  -22.1460   -4.9500   22.5450 C   0  0  0  0  0  0  0  0  0  0  0  0
  -22.5980   -4.4010   21.3920 F   0  0  0  0  0  0  0  0  0  0  0  0
  -21.3590   -3.9200   25.9780 F   0  0  0  0  0  0  0  0  0  0  0  0
  -22.9440  -13.6970   21.0730 C   0  0  0  0  0  0  0  0  0  0  0  0
  -22.1800  -13.0060   21.9120 N   0  0  0  0  0  0  0  0  0  0  0  0
  -22.5200  -14.7090   20.5160 O   0  0  0  0  0  0  0  0  0  0  0  0
  -22.5330  -12.1850   22.3840 H   0  0  0  0  0  0  0  0  0  0  0  0
  -21.2310  -13.3020   22.0880 H   0  0  0  0  0  0  0  0  0  0  0  0
  -25.5960  -15.3850   20.3820 N   0  0  0  0  0  0  0  0  0  0  0  0
  -24.8220  -16.0360   20.4560 H   0  0  0  0  0  0  0  0  0  0  0  0
  -26.4620  -15.8270   20.1010 H   0  0  0  0  0  0  0  0  0  0  0  0
  -30.9290  -18.9640   15.5760 C   0  0  0  0  0  1  0  0  0  0  0  0
  -29.7690  -18.2960   16.3250 C   0  0  0  0  0  2  0  0  0  0  0  0
  -28.2610  -25.0990   19.7820 C   0  0  0  0  0  3  0  0  0  0  0  0
  -28.7350  -23.9070   20.3530 C   0  0  0  0  0  0  0  0  0  0  0  0
  -29.3150  -23.9560   21.5580 O   0  0  0  0  0  0  0  0  0  0  0  0
  -29.2950  -24.8630   21.8360 H   0  0  0  0  0  0  0  0  0  0  0  0
  -28.3170  -26.4600   20.2660 O   0  0  0  0  0  0  0  0  0  0  0  0
  -24.5380  -31.9860   23.2330 C   0  0  0  0  0  0  0  0  0  0  0  0
  -27.2160  -27.3680   20.1940 C   0  0  0  0  0  0  0  0  0  0  0  0
  -23.3640  -30.5540   21.6080 C   0  0  0  0  0  3  0  0  0  0  0  0
  -24.8400  -29.0160   20.1860 C   0  0  0  0  0  0  0  0  0  0  0  0
  -25.9050  -30.8940   21.4260 C   0  0  0  0  0  2  0  0  0  0  0  0
  -26.0090  -29.5040   20.7800 C   0  0  0  0  0  0  0  0  0  0  0  0
  -27.1970  -28.6930   20.7760 C   0  0  0  0  0  3  0  0  0  0  0  0
  -26.0110  -26.9600   19.5800 C   0  0  0  0  0  3  0  0  0  0  0  0
  -24.8500  -27.7540   19.5750 C   0  0  0  0  0  3  0  0  0  0  0  0
  -23.5910  -29.8760   20.2320 C   0  0  0  0  0  2  0  0  0  0  0  0
  -24.6220  -31.1620   22.1460 N   0  0  0  0  0  0  0  0  0  0  0  0
  -23.4480  -32.2470   23.7630 O   0  0  0  0  0  0  0  0  0  0  0  0
  -22.7120  -29.5330   22.5750 C   0  0  0  0  0  0  0  0  0  0  0  0
  -21.3880  -29.3330   22.4530 N   0  0  0  0  0  0  0  0  0  0  0  0
  -23.4000  -28.9240   23.3990 O   0  0  0  0  0  0  0  0  0  0  0  0
  -20.8870  -29.8790   21.7670 H   0  0  0  0  0  0  0  0  0  0  0  0
  -18.0320  -28.0740   22.9730 C   0  0  0  0  0  0  0  0  0  0  0  0
  -20.5870  -28.3850   23.2320 C   0  0  0  0  0  3  0  0  0  0  0  0
  -20.7130  -26.9510   22.6660 C   0  0  0  0  0  2  0  0  0  0  0  0
  -19.6150  -26.6000   21.6570 C   0  0  0  0  0  2  0  0  0  0  0  0
  -18.2310  -26.7240   22.3030 C   0  0  0  0  0  2  0  0  0  0  0  0
  -19.1380  -28.8610   23.3940 C   0  0  0  0  0  0  0  0  0  0  0  0
  -18.8960  -30.1230   23.9780 C   0  0  0  0  0  3  0  0  0  0  0  0
  -17.5810  -30.6010   24.1430 C   0  0  0  0  0  3  0  0  0  0  0  0
  -16.4920  -29.8090   23.7410 C   0  0  0  0  0  3  0  0  0  0  0  0
  -16.7170  -28.5480   23.1610 C   0  0  0  0  0  3  0  0  0  0  0  0
  -25.8060  -32.6540   23.8500 C   0  0  0  0  0  3  0  0  0  0  0  0
  -26.3280  -31.9100   25.1400 C   0  0  1  0  0  0  0  0  0  0  0  0
  -25.2340  -31.6670   26.2070 C   0  0  0  0  0  1  0  0  0  0  0  0
  -26.9430  -30.5400   24.7750 C   0  0  0  0  0  1  0  0  0  0  0  0
  -27.4610  -32.7350   25.7980 C   0  0  0  0  0  1  0  0  0  0  0  0
  -25.4680  -34.0500   24.1660 N   0  0  0  0  0  0  0  0  0  0  0  0
  -25.8160  -35.1070   23.4160 C   0  0  0  0  0  0  0  0  0  0  0  0
  -26.5210  -35.0070   22.4090 O   0  0  0  0  0  0  0  0  0  0  0  0
  -24.8520  -34.2000   24.9500 H   0  0  0  0  0  0  0  0  0  0  0  0
  -24.1010  -36.8940   22.9760 C   0  0  0  0  0  1  0  0  0  0  0  0
  -25.2980  -36.4910   23.8530 C   0  0  0  0  0  3  0  0  0  0  0  0
  -27.3840  -37.3760   24.7980 C   0  0  0  0  0  1  0  0  0  0  0  0
  -26.3310  -37.5490   23.8020 N   0  0  0  0  0  0  0  0  0  0  0  0
  -25.9150  -38.4680   23.9350 H   0  0  0  0  0  0  0  0  0  0  0  0
  1  2  1  0
  1 53  1  0
  2  4  1  0
  3  1  2  0
  5  8  1  0
  7  5  2  0
  7 10  1  0
  8  2  1  0
  8  6  2  0
  9  6  1  0
  9 20  1  0
 10  9  2  0
 11 10  1  0
 12 20  1  0
 13 18  1  0
 14 15  1  0
 14 13  1  0
 16 15  1  0
 16 25  1  0
 16 17  1  0
 18 12  1  0
 18 17  1  0
 19 12  2  0
 20 21  1  0
 22 23  2  0
 23 24  1  0
 23 42  1  0
 24 27  1  0
 25 22  1  0
 25 26  1  0
 26 24  2  0
 27 28  1  0
 28 29  2  0
 30 33  1  0
 30 29  1  0
 31 30  2  0
 32 31  1  0
 32 27  2  0
 33 34  1  0
 34 35  1  0
 35 36  2  0
 37 36  1  0
 37 41  1  0
 38 37  2  0
 39 34  2  0
 39 38  1  0
 40 39  1  0
 42 43  1  0
 43 46  1  0
 43 45  1  0
 44 42  2  0
 47 48  1  0
 47 22  1  0
 49 47  1  0
 50 51  1  0
 51  7  1  0
 52 56  1  0
 52 53  2  0
 53 54  1  0
 54 55  1  0
 57 68  2  0
 58 56  1  0
 58 63  1  0
 59 67  1  0
 59 69  1  0
 60 66  1  0
 60 62  1  0
 61 67  1  0
 62 61  1  0
 63 62  2  0
 64 58  2  0
 65 64  1  0
 65 60  2  0
 66 59  1  0
 67 57  1  0
 69 71  2  0
 70 69  1  0
 72 70  1  0
 73 82  2  0
 73 78  1  0
 74 70  1  0
 74 78  1  0
 75 74  1  0
 76 77  1  0
 76 75  1  0
 77 73  1  0
 78 79  2  0
 79 80  1  0
 81 80  2  0
 82 81  1  0
 83 57  1  0
 83 88  1  0
 83 84  1  0
 84 87  1  1
 84 85  1  0
 86 84  1  0
 88 91  1  0
 89 93  1  0
 89 88  1  0
 90 89  2  0
 93 92  1  0
 95 93  1  0
 95 96  1  0
 95 94  1  0
M  ISO  4  12 100  20 100  52 101  56 101
M  END
>  <TORSDO>  (70) 
F 20

>  <SCORE>  (70) 
-13.604

>  <name>  (70) 
70

>  <ligand_id>  (70) 
70

>  <original_smiles>  (70) 
[H]OC(C(=O)N([H])c1c([H])c(N([H])C(=O)N2C([H])([H])C([H])([H])C([H])([H])C([H])(n3nc(-c4c([H])c([H])c(Oc5c([H])c([H])c(F)c([H])c5F)c([H])c4[H])c(C(=O)N([H])[H])c3N([H])[H])C2([H])[H])c(F)c(C([H])([H])C([H])([H])[H])c1[H])=C([H])Oc1c([H])c([H])c2c(c1[H])C([H])([H])N(C(=O)C([H])(N([H])C(=O)C([H])(N([H])C([H])([H])[H])C([H])([H])[H])C(C([H])([H])[H])(C([H])([H])[H])C([H])([H])[H])C([H])(C(=O)N([H])C1([H])c3c([H])c([H])c([H])c([H])c3C([H])([H])C([H])([H])C1([H])[H])C2([H])[H]

>  <smiles>  (70) 
[H]OC(C(=O)N([H])c1c([H])c(N([H])C(=O)N2C([H])([H])C([H])([H])C([H])([H])C([H])(n3nc(-c4c([H])c([H])c(Oc5c([H])c([H])c(F)c([H])c5F)c([H])c4[H])c(C(=O)N([H])[H])c3N([H])[H])C2([H])[H])c(F)c(C([H])([H])C([H])([H])[H])c1[H])=C([H])Oc1c([H])c([H])c2c(c1[H])C([H])([H])N(C(=O)C([H])(N([H])C(=O)C([H])(N([H])C([H])([H])[H])C([H])([H])[H])C(C([H])([H])[H])(C([H])([H])[H])C([H])([H])[H])C([H])(C(=O)N([H])C1([H])c3c([H])c([H])c([H])c([H])c3C([H])([H])C([H])([H])C1([H])[H])C2([H])[H]

$$$$
71:0:0
     RDKit          3D

 97105  0  0  1  0  0  0  0  0999 V2000
  -30.1990  -20.3330   22.5620 C   0  0  0  0  0  0  0  0  0  0  0  0
  -30.7430  -19.0210   22.2410 C   0  0  0  0  0  0  0  0  0  0  0  0
  -29.4540  -20.8930   21.5300 C   0  0  0  0  0  0  0  0  0  0  0  0
  -30.3170  -18.5610   21.0120 C   0  0  0  0  0  0  0  0  0  0  0  0
  -31.7120  -18.2450   23.0980 C   0  0  0  0  0  1  0  0  0  0  0  0
  -29.3220  -19.7490   20.2130 S   0  0  0  0  0  0  0  0  0  0  0  0
  -28.7520  -22.9910   20.4720 C   0  0  0  0  0  0  0  0  0  0  0  0
  -28.8160  -22.1050   21.4930 N   0  0  0  0  0  0  0  0  0  0  0  0
  -29.4330  -22.8730   19.4490 O   0  0  0  0  0  0  0  0  0  0  0  0
  -28.3360  -22.3890   22.3370 H   0  0  0  0  0  0  0  0  0  0  0  0
  -26.5970  -23.9260   21.5340 C   0  0  0  0  0  1  0  0  0  0  0  0
  -27.7900  -24.2030   20.5930 C   0  0  0  0  0  3  0  0  0  0  0  0
  -28.4950  -25.5660   20.9010 C   0  0  0  0  0  2  0  0  0  0  0  0
  -28.3480  -26.6070   19.9120 O   0  0  0  0  0  0  0  0  0  0  0  0
  -24.6450  -31.7670   23.1820 C   0  0  0  0  0  0  0  0  0  0  0  0
  -27.1980  -27.3610   19.9810 C   0  0  0  0  0  0  0  0  0  0  0  0
  -23.4010  -30.4020   21.5360 C   0  0  0  0  0  3  0  0  0  0  0  0
  -24.8200  -28.8870   20.0540 C   0  0  0  0  0  0  0  0  0  0  0  0
  -25.9240  -30.7510   21.2980 C   0  0  0  0  0  2  0  0  0  0  0  0
  -25.9910  -29.3900   20.6360 C   0  0  0  0  0  0  0  0  0  0  0  0
  -27.1870  -28.6330   20.5980 C   0  0  0  0  0  3  0  0  0  0  0  0
  -26.0190  -26.8870   19.3710 C   0  0  0  0  0  3  0  0  0  0  0  0
  -24.8280  -27.6350   19.4180 C   0  0  0  0  0  3  0  0  0  0  0  0
  -23.5820  -29.7510   20.1390 C   0  0  0  0  0  2  0  0  0  0  0  0
  -24.6760  -30.9880   22.0630 N   0  0  0  0  0  0  0  0  0  0  0  0
  -23.5750  -32.0300   23.7490 O   0  0  0  0  0  0  0  0  0  0  0  0
  -22.7670  -29.3620   22.4890 C   0  0  0  0  0  0  0  0  0  0  0  0
  -21.4480  -29.1510   22.3520 N   0  0  0  0  0  0  0  0  0  0  0  0
  -23.4580  -28.7490   23.3050 O   0  0  0  0  0  0  0  0  0  0  0  0
  -20.9500  -29.7020   21.6660 H   0  0  0  0  0  0  0  0  0  0  0  0
  -18.1020  -27.8590   22.7960 C   0  0  0  0  0  0  0  0  0  0  0  0
  -20.6450  -28.1940   23.1120 C   0  0  0  0  0  3  0  0  0  0  0  0
  -20.7990  -26.7620   22.5470 C   0  0  0  0  0  2  0  0  0  0  0  0
  -19.7270  -26.4030   21.5150 C   0  0  0  0  0  2  0  0  0  0  0  0
  -18.3290  -26.5110   22.1330 C   0  0  0  0  0  2  0  0  0  0  0  0
  -19.1890  -28.6570   23.2420 C   0  0  0  0  0  0  0  0  0  0  0  0
  -18.9220  -29.9180   23.8180 C   0  0  0  0  0  3  0  0  0  0  0  0
  -17.6000  -30.3820   23.9550 C   0  0  0  0  0  3  0  0  0  0  0  0
  -16.5260  -29.5810   23.5260 C   0  0  0  0  0  3  0  0  0  0  0  0
  -16.7790  -28.3220   22.9510 C   0  0  0  0  0  3  0  0  0  0  0  0
  -25.9450  -32.3810   23.7870 C   0  0  0  0  0  3  0  0  0  0  0  0
  -25.6510  -33.7760   24.1410 N   0  0  0  0  0  0  0  0  0  0  0  0
  -25.9880  -34.8370   23.3950 C   0  0  0  0  0  0  0  0  0  0  0  0
  -26.6520  -34.7430   22.3580 O   0  0  0  0  0  0  0  0  0  0  0  0
  -25.0640  -33.9240   24.9490 H   0  0  0  0  0  0  0  0  0  0  0  0
  -24.2740  -36.6490   23.0770 C   0  0  0  0  0  1  0  0  0  0  0  0
  -25.5160  -36.2230   23.8760 C   0  0  0  0  0  3  0  0  0  0  0  0
  -27.6610  -37.0780   24.7110 C   0  0  0  0  0  1  0  0  0  0  0  0
  -26.5570  -37.2680   23.7740 N   0  0  0  0  0  0  0  0  0  0  0  0
  -26.1600  -38.1890   23.9330 H   0  0  0  0  0  0  0  0  0  0  0  0
  -26.4820  -31.5880   25.0420 C   0  0  1  0  0  0  0  0  0  0  0  0
  -25.4060  -31.3240   26.1190 C   0  0  0  0  0  1  0  0  0  0  0  0
  -27.0630  -30.2200   24.6130 C   0  0  0  0  0  1  0  0  0  0  0  0
  -27.6380  -32.3730   25.7030 C   0  0  0  0  0  1  0  0  0  0  0  0
  -29.4220  -16.8980   18.8790 C   0  0  0  0  0  1  0  0  0  0  0  0
  -30.7760  -15.7010   20.8590 N   0  0  0  0  0  2  0  0  0  0  0  0
  -31.9850  -17.5250   19.3300 O   0  0  0  0  0  1  0  0  0  0  0  0
  -30.7920  -17.0840   20.0760 S   0  0  2  0  0  0  0  0  0  0  0  0
  -31.3960  -14.6150   20.2120 C   0  0  0  0  0  0  0  0  0  0  0  0
  -30.9460  -12.5090   19.0080 C   0  0  0  0  0  2  0  0  0  0  0  0
  -29.9970  -12.8110   17.8310 C   0  0  0  0  0  2  0  0  0  0  0  0
  -28.5260  -12.7300   18.2860 C   0  0  0  0  0  2  0  0  0  0  0  0
  -28.2590  -13.5280   19.5900 C   0  0  0  0  0  3  0  0  0  0  0  0
  -29.3290  -13.2320   20.6660 C   0  0  0  0  0  2  0  0  0  0  0  0
  -30.6550  -13.4780   20.0810 N   0  0  0  0  0  0  0  0  0  0  0  0
  -32.5040  -14.7060   19.6870 O   0  0  0  0  0  0  0  0  0  0  0  0
  -25.9010  -14.2060   20.3660 C   0  0  0  0  0  0  0  0  0  0  0  0
  -24.8130  -13.4680   20.7460 C   0  0  0  0  0  0  0  0  0  0  0  0
  -25.2210  -12.1010   20.6780 C   0  0  0  0  0  0  0  0  0  0  0  0
  -26.9060  -13.2920   20.0930 N   0  0  0  0  0  0  0  0  0  0  0  0
  -26.5010  -12.0180   20.3380 N   0  0  0  0  0  0  0  0  0  0  0  0
  -24.4500  -10.8640   20.8630 C   0  0  0  0  0  0  0  0  0  0  0  0
  -24.8120   -9.9060   21.8370 C   0  0  0  0  0  3  0  0  0  0  0  0
  -24.0450   -8.7340   22.0080 C   0  0  0  0  0  3  0  0  0  0  0  0
  -22.9010   -8.5110   21.2050 C   0  0  0  0  0  0  0  0  0  0  0  0
  -22.5590   -9.4560   20.2220 C   0  0  0  0  0  3  0  0  0  0  0  0
  -23.3270  -10.6190   20.0490 C   0  0  0  0  0  3  0  0  0  0  0  0
  -22.1110   -7.3890   21.2830 O   0  0  0  0  0  0  0  0  0  0  0  0
  -21.9260   -6.7190   22.4670 C   0  0  0  0  0  0  0  0  0  0  0  0
  -21.3690   -7.3520   23.6000 C   0  0  0  0  0  3  0  0  0  0  0  0
  -21.1310   -6.6100   24.7740 C   0  0  0  0  0  3  0  0  0  0  0  0
  -21.4380   -5.2370   24.8140 C   0  0  0  0  0  0  0  0  0  0  0  0
  -21.9860   -4.6040   23.6850 C   0  0  0  0  0  3  0  0  0  0  0  0
  -22.2260   -5.3430   22.5130 C   0  0  0  0  0  0  0  0  0  0  0  0
  -22.7340   -4.7250   21.4200 F   0  0  0  0  0  0  0  0  0  0  0  0
  -21.2030   -4.5210   25.9390 F   0  0  0  0  0  0  0  0  0  0  0  0
  -23.4420  -13.9930   21.0610 C   0  0  0  0  0  0  0  0  0  0  0  0
  -22.7090  -13.3120   21.9360 N   0  0  0  0  0  0  0  0  0  0  0  0
  -23.0310  -15.0440   20.5690 O   0  0  0  0  0  0  0  0  0  0  0  0
  -23.0520  -12.4620   22.3570 H   0  0  0  0  0  0  0  0  0  0  0  0
  -21.7900  -13.6480   22.1880 H   0  0  0  0  0  0  0  0  0  0  0  0
  -26.1130  -15.5730   20.2120 N   0  0  0  0  0  0  0  0  0  0  0  0
  -25.3830  -16.2590   20.3630 H   0  0  0  0  0  0  0  0  0  0  0  0
  -26.9890  -15.9780   19.9110 H   0  0  0  0  0  0  0  0  0  0  0  0
  -30.4650  -21.0810   23.8060 C   0  0  0  0  0  0  0  0  0  0  0  0
  -30.6130  -20.2790   25.0920 C   0  0  0  0  0  1  0  0  0  0  0  0
  -30.5100  -22.3130   23.8960 O   0  0  0  0  0  0  0  0  0  0  0  0
  1 95  1  0
  2  1  1  0
  2  5  1  0
  3  1  2  0
  4  2  2  0
  6  4  1  0
  6  3  1  0
  7 12  1  0
  7  8  1  0
  8  3  1  0
  8 10  1  0
  9  7  2  0
 12 13  1  0
 12 11  1  0
 14 16  1  0
 14 13  1  0
 15 26  2  0
 16 21  1  0
 17 25  1  0
 17 27  1  0
 18 24  1  0
 18 20  1  0
 19 25  1  0
 20 19  1  0
 21 20  2  0
 22 23  1  0
 22 16  2  0
 23 18  2  0
 24 17  1  0
 25 15  1  0
 27 29  2  0
 28 27  1  0
 30 28  1  0
 31 40  2  0
 31 36  1  0
 32 28  1  0
 32 36  1  0
 33 32  1  0
 34 35  1  0
 34 33  1  0
 35 31  1  0
 36 37  2  0
 37 38  1  0
 39 38  2  0
 40 39  1  0
 41 15  1  0
 41 42  1  0
 41 51  1  0
 42 45  1  0
 43 47  1  0
 43 42  1  0
 44 43  2  0
 47 46  1  0
 49 47  1  0
 49 50  1  0
 49 48  1  0
 51 54  1  1
 51 52  1  0
 53 51  1  0
 57 58  1  0
 58 55  1  6
 58 56  1  0
 58  4  1  0
 59 56  1  0
 60 65  1  0
 61 62  1  0
 61 60  1  0
 63 62  1  0
 63 70  1  0
 63 64  1  0
 65 59  1  0
 65 64  1  0
 66 59  2  0
 67 68  2  0
 68 87  1  0
 69 68  1  0
 69 72  1  0
 70 71  1  0
 70 67  1  0
 71 69  2  0
 72 73  1  0
 73 74  2  0
 75 78  1  0
 75 74  1  0
 76 75  2  0
 77 76  1  0
 77 72  2  0
 78 79  1  0
 79 84  2  0
 79 80  1  0
 80 81  2  0
 81 82  1  0
 82 86  1  0
 83 82  2  0
 84 83  1  0
 85 84  1  0
 87 88  1  0
 88 91  1  0
 88 90  1  0
 89 87  2  0
 92 93  1  0
 92 67  1  0
 94 92  1  0
 95 97  2  0
 95 96  1  0
M  ISO  4  13 101  14 101  56 100  59 100
M  END
>  <TORSDO>  (71) 
F 21

>  <SCORE>  (71) 
-11.448

>  <name>  (71) 
71

>  <ligand_id>  (71) 
71

>  <original_smiles>  (71) 
[H]c1c([H])c([H])c2c(c1[H])C([H])([H])C([H])([H])C([H])([H])C2([H])N([H])C(=O)C1([H])N(C(=O)C([H])(N([H])C(=O)C([H])(N([H])C([H])([H])[H])C([H])([H])[H])C(C([H])([H])[H])(C([H])([H])[H])C([H])([H])[H])C([H])([H])c2c([H])c(OC([H])([H])C([H])(C(=O)N([H])c3sc(S(=O)(=NC(=O)N4C([H])([H])C([H])([H])C([H])([H])C([H])(n5nc(-c6c([H])c([H])c(Oc7c([H])c([H])c(F)c([H])c7F)c([H])c6[H])c(C(=O)N([H])[H])c5N([H])[H])C4([H])[H])C([H])([H])[H])c(C([H])([H])[H])c3C(=O)C([H])([H])[H])C([H])([H])[H])c([H])c([H])c2C1([H])[H]

>  <smiles>  (71) 
[H]c1c([H])c([H])c2c(c1[H])C([H])([H])C([H])([H])C([H])([H])C2([H])N([H])C(=O)C1([H])N(C(=O)C([H])(N([H])C(=O)C([H])(N([H])C([H])([H])[H])C([H])([H])[H])C(C([H])([H])[H])(C([H])([H])[H])C([H])([H])[H])C([H])([H])c2c([H])c(OC([H])([H])C([H])(C(=O)N([H])c3sc(S(=O)(=NC(=O)N4C([H])([H])C([H])([H])C([H])([H])C([H])(n5nc(-c6c([H])c([H])c(Oc7c([H])c([H])c(F)c([H])c7F)c([H])c6[H])c(C(=O)N([H])[H])c5N([H])[H])C4([H])[H])C([H])([H])[H])c(C([H])([H])[H])c3C(=O)C([H])([H])[H])C([H])([H])[H])c([H])c([H])c2C1([H])[H]

$$$$
72:0:0
     RDKit          3D

 94102  0  0  1  0  0  0  0  0999 V2000
  -30.3830  -22.3540   19.6850 C   0  0  0  0  0  0  0  0  0  0  0  0
  -30.8590  -21.3560   20.4510 N   0  0  0  0  0  0  0  0  0  0  0  0
  -30.2870  -22.2530   18.4600 O   0  0  0  0  0  0  0  0  0  0  0  0
  -30.8650  -21.5120   21.4490 H   0  0  0  0  0  0  0  0  0  0  0  0
  -33.0110  -20.3070   19.9490 C   0  0  0  0  0  1  0  0  0  0  0  0
  -31.4860  -20.1140   19.9690 C   0  0  0  0  0  3  0  0  0  0  0  0
  -30.6880  -17.2120   22.6110 C   0  0  0  0  0  3  0  0  0  0  0  0
  -30.6250  -16.6670   21.3550 C   0  0  0  0  0  0  0  0  0  0  0  0
  -30.8460  -17.6260   20.3160 C   0  0  0  0  0  0  0  0  0  0  0  0
  -31.1150  -18.8960   20.7750 C   0  0  0  0  0  0  0  0  0  0  0  0
  -30.7760  -17.3220   19.0400 F   0  0  0  0  0  0  0  0  0  0  0  0
  -31.0860  -18.9140   22.5310 S   0  0  0  0  0  0  0  0  0  0  0  0
  -30.8530  -14.4240   20.3150 C   0  0  0  0  0  0  0  0  0  0  0  0
  -30.4820  -12.3330   19.0520 C   0  0  0  0  0  2  0  0  0  0  0  0
  -29.5050  -12.5980   17.8880 C   0  0  0  0  0  2  0  0  0  0  0  0
  -28.0390  -12.4780   18.3520 C   0  0  0  0  0  2  0  0  0  0  0  0
  -27.7560  -13.2700   19.6560 C   0  0  0  0  0  3  0  0  0  0  0  0
  -28.8340  -12.9610   20.7220 C   0  0  0  0  0  2  0  0  0  0  0  0
  -30.1540  -13.2690   20.1400 N   0  0  0  0  0  0  0  0  0  0  0  0
  -31.9210  -14.6530   19.7410 O   0  0  0  0  0  0  0  0  0  0  0  0
  -30.2840  -15.3010   21.1590 N   0  0  0  0  0  0  0  0  0  0  0  0
  -29.4830  -14.9610   21.6680 H   0  0  0  0  0  0  0  0  0  0  0  0
  -25.3740  -13.9050   20.4060 C   0  0  0  0  0  0  0  0  0  0  0  0
  -24.3060  -13.1450   20.7990 C   0  0  0  0  0  0  0  0  0  0  0  0
  -24.7520  -11.7890   20.7620 C   0  0  0  0  0  0  0  0  0  0  0  0
  -26.4070  -13.0130   20.1580 N   0  0  0  0  0  0  0  0  0  0  0  0
  -26.0340  -11.7350   20.4250 N   0  0  0  0  0  0  0  0  0  0  0  0
  -24.0170  -10.5340   20.9690 C   0  0  0  0  0  0  0  0  0  0  0  0
  -24.4580   -9.5640   21.8970 C   0  0  0  0  0  3  0  0  0  0  0  0
  -23.7260   -8.3720   22.0880 C   0  0  0  0  0  3  0  0  0  0  0  0
  -22.5380   -8.1420   21.3550 C   0  0  0  0  0  0  0  0  0  0  0  0
  -22.1160   -9.1000   20.4180 C   0  0  0  0  0  3  0  0  0  0  0  0
  -22.8480  -10.2840   20.2220 C   0  0  0  0  0  3  0  0  0  0  0  0
  -21.7750   -7.0050   21.4610 O   0  0  0  0  0  0  0  0  0  0  0  0
  -21.7360   -6.2680   22.6180 C   0  0  0  0  0  0  0  0  0  0  0  0
  -21.3380   -6.8330   23.8490 C   0  0  0  0  0  3  0  0  0  0  0  0
  -21.2460   -6.0230   24.9980 C   0  0  0  0  0  3  0  0  0  0  0  0
  -21.5400   -4.6490   24.9180 C   0  0  0  0  0  0  0  0  0  0  0  0
  -21.9330   -4.0840   23.6920 C   0  0  0  0  0  3  0  0  0  0  0  0
  -22.0270   -4.8910   22.5450 C   0  0  0  0  0  0  0  0  0  0  0  0
  -22.3850   -4.3360   21.3610 F   0  0  0  0  0  0  0  0  0  0  0  0
  -21.4440   -3.8690   26.0210 F   0  0  0  0  0  0  0  0  0  0  0  0
  -22.9190  -13.6370   21.0970 C   0  0  0  0  0  0  0  0  0  0  0  0
  -22.1980  -12.9530   21.9800 N   0  0  0  0  0  0  0  0  0  0  0  0
  -22.4820  -14.6650   20.5830 O   0  0  0  0  0  0  0  0  0  0  0  0
  -22.5620  -12.1220   22.4270 H   0  0  0  0  0  0  0  0  0  0  0  0
  -21.2680  -13.2660   22.2150 H   0  0  0  0  0  0  0  0  0  0  0  0
  -25.5490  -15.2730   20.2210 N   0  0  0  0  0  0  0  0  0  0  0  0
  -24.7920  -15.9380   20.3340 H   0  0  0  0  0  0  0  0  0  0  0  0
  -26.3890  -15.6950   19.8470 H   0  0  0  0  0  0  0  0  0  0  0  0
  -29.9810  -23.6620   20.4000 C   0  0  0  0  0  2  0  0  0  0  0  0
  -29.9910  -24.9450   19.5140 C   0  0  0  0  0  2  0  0  0  0  0  0
  -28.6090  -25.6050   19.2980 C   0  0  0  0  0  2  0  0  0  0  0  0
  -28.4310  -26.7180   20.1840 O   0  0  0  0  0  0  0  0  0  0  0  0
  -24.5860  -31.8820   23.2310 C   0  0  0  0  0  0  0  0  0  0  0  0
  -27.2350  -27.4160   20.1640 C   0  0  0  0  0  0  0  0  0  0  0  0
  -23.3810  -30.4740   21.5940 C   0  0  0  0  0  3  0  0  0  0  0  0
  -24.8330  -28.9230   20.1840 C   0  0  0  0  0  0  0  0  0  0  0  0
  -25.9090  -30.8220   21.4010 C   0  0  0  0  0  2  0  0  0  0  0  0
  -25.9900  -29.4450   20.7710 C   0  0  0  0  0  0  0  0  0  0  0  0
  -27.1890  -28.6940   20.7670 C   0  0  0  0  0  3  0  0  0  0  0  0
  -26.0500  -26.9040   19.5800 C   0  0  0  0  0  3  0  0  0  0  0  0
  -24.8550  -27.6470   19.5940 C   0  0  0  0  0  3  0  0  0  0  0  0
  -23.5940  -29.7880   20.2190 C   0  0  0  0  0  2  0  0  0  0  0  0
  -24.6440  -31.0740   22.1340 N   0  0  0  0  0  0  0  0  0  0  0  0
  -23.5050  -32.1590   23.7670 O   0  0  0  0  0  0  0  0  0  0  0  0
  -22.7240  -29.4590   22.5590 C   0  0  0  0  0  0  0  0  0  0  0  0
  -21.4020  -29.2680   22.4180 N   0  0  0  0  0  0  0  0  0  0  0  0
  -23.4020  -28.8490   23.3900 O   0  0  0  0  0  0  0  0  0  0  0  0
  -20.9180  -29.8130   21.7180 H   0  0  0  0  0  0  0  0  0  0  0  0
  -18.0330  -28.0440   22.8730 C   0  0  0  0  0  0  0  0  0  0  0  0
  -20.5820  -28.3360   23.1910 C   0  0  0  0  0  3  0  0  0  0  0  0
  -20.7120  -26.8960   22.6420 C   0  0  0  0  0  2  0  0  0  0  0  0
  -19.6330  -26.5410   21.6150 C   0  0  0  0  0  2  0  0  0  0  0  0
  -18.2370  -26.6830   22.2290 C   0  0  0  0  0  2  0  0  0  0  0  0
  -19.1350  -28.8260   23.3110 C   0  0  0  0  0  0  0  0  0  0  0  0
  -18.8910  -30.0980   23.8730 C   0  0  0  0  0  3  0  0  0  0  0  0
  -17.5780  -30.5880   24.0040 C   0  0  0  0  0  3  0  0  0  0  0  0
  -16.4900  -29.8040   23.5830 C   0  0  0  0  0  3  0  0  0  0  0  0
  -16.7190  -28.5340   23.0240 C   0  0  0  0  0  3  0  0  0  0  0  0
  -25.8740  -32.5140   23.8470 C   0  0  0  0  0  3  0  0  0  0  0  0
  -25.5660  -33.9120   24.1770 N   0  0  0  0  0  0  0  0  0  0  0  0
  -25.9040  -34.9630   23.4190 C   0  0  0  0  0  0  0  0  0  0  0  0
  -26.5790  -34.8590   22.3900 O   0  0  0  0  0  0  0  0  0  0  0  0
  -24.9700  -34.0690   24.9760 H   0  0  0  0  0  0  0  0  0  0  0  0
  -24.1840  -36.7590   23.0450 C   0  0  0  0  0  1  0  0  0  0  0  0
  -25.4150  -36.3520   23.8720 C   0  0  0  0  0  3  0  0  0  0  0  0
  -27.5430  -37.2270   24.7270 C   0  0  0  0  0  1  0  0  0  0  0  0
  -26.4520  -37.4030   23.7720 N   0  0  0  0  0  0  0  0  0  0  0  0
  -26.0470  -38.3240   23.9190 H   0  0  0  0  0  0  0  0  0  0  0  0
  -26.3940  -31.7430   25.1220 C   0  0  1  0  0  0  0  0  0  0  0  0
  -25.3060  -31.5060   26.1950 C   0  0  0  0  0  1  0  0  0  0  0  0
  -26.9770  -30.3660   24.7260 C   0  0  0  0  0  1  0  0  0  0  0  0
  -27.5460  -32.5380   25.7800 C   0  0  0  0  0  1  0  0  0  0  0  0
  1 51  1  0
  1  2  1  0
  2  4  1  0
  3  1  2  0
  6  5  1  0
  6  2  1  0
  6 10  1  0
  8  7  2  0
  9 10  2  0
  9  8  1  0
 10 12  1  0
 11  9  1  0
 12  7  1  0
 13 21  1  0
 14 19  1  0
 15 16  1  0
 15 14  1  0
 17 16  1  0
 17 26  1  0
 17 18  1  0
 19 13  1  0
 19 18  1  0
 20 13  2  0
 21  8  1  0
 21 22  1  0
 23 24  2  0
 24 43  1  0
 25 24  1  0
 25 28  1  0
 26 23  1  0
 26 27  1  0
 27 25  2  0
 28 29  1  0
 29 30  2  0
 31 34  1  0
 31 30  1  0
 32 31  2  0
 33 32  1  0
 33 28  2  0
 34 35  1  0
 35 36  1  0
 36 37  2  0
 38 37  1  0
 38 42  1  0
 39 38  2  0
 40 35  2  0
 40 39  1  0
 41 40  1  0
 43 44  1  0
 44 47  1  0
 44 46  1  0
 45 43  2  0
 48 49  1  0
 48 23  1  0
 50 48  1  0
 52 51  1  0
 53 52  1  0
 53 54  1  0
 55 66  2  0
 56 54  1  0
 56 61  1  0
 57 65  1  0
 57 67  1  0
 58 64  1  0
 58 60  1  0
 59 65  1  0
 60 59  1  0
 61 60  2  0
 62 63  1  0
 62 56  2  0
 63 58  2  0
 64 57  1  0
 65 55  1  0
 67 69  2  0
 68 67  1  0
 70 68  1  0
 71 80  2  0
 71 76  1  0
 72 68  1  0
 72 76  1  0
 73 72  1  0
 74 75  1  0
 74 73  1  0
 75 71  1  0
 76 77  2  0
 77 78  1  0
 79 78  2  0
 80 79  1  0
 81 55  1  0
 81 82  1  0
 81 91  1  0
 82 85  1  0
 83 87  1  0
 83 82  1  0
 84 83  2  0
 87 86  1  0
 89 87  1  0
 89 90  1  0
 89 88  1  0
 91 94  1  1
 91 92  1  0
 93 91  1  0
M  ISO  4  13 100  21 100  53 101  54 101
M  END
>  <TORSDO>  (72) 
F 21

>  <SCORE>  (72) 
-13.321

>  <name>  (72) 
72

>  <ligand_id>  (72) 
72

>  <original_smiles>  (72) 
[H]c1sc(C([H])(N([H])C(=O)C([H])([H])C([H])([H])C([H])([H])Oc2c([H])c([H])c3c(c2[H])C([H])([H])N(C(=O)C([H])(N([H])C(=O)C([H])(N([H])C([H])([H])[H])C([H])([H])[H])C(C([H])([H])[H])(C([H])([H])[H])C([H])([H])[H])C([H])(C(=O)N([H])C2([H])c4c([H])c([H])c([H])c([H])c4C([H])([H])C([H])([H])C2([H])[H])C3([H])[H])C([H])([H])[H])c(F)c1N([H])C(=O)N1C([H])([H])C([H])([H])C([H])([H])C([H])(n2nc(-c3c([H])c([H])c(Oc4c([H])c([H])c(F)c([H])c4F)c([H])c3[H])c(C(=O)N([H])[H])c2N([H])[H])C1([H])[H]

>  <smiles>  (72) 
[H]c1sc(C([H])(N([H])C(=O)C([H])([H])C([H])([H])C([H])([H])Oc2c([H])c([H])c3c(c2[H])C([H])([H])N(C(=O)C([H])(N([H])C(=O)C([H])(N([H])C([H])([H])[H])C([H])([H])[H])C(C([H])([H])[H])(C([H])([H])[H])C([H])([H])[H])C([H])(C(=O)N([H])C2([H])c4c([H])c([H])c([H])c([H])c4C([H])([H])C([H])([H])C2([H])[H])C3([H])[H])C([H])([H])[H])c(F)c1N([H])C(=O)N1C([H])([H])C([H])([H])C([H])([H])C([H])(n2nc(-c3c([H])c([H])c(Oc4c([H])c([H])c(F)c([H])c4F)c([H])c3[H])c(C(=O)N([H])[H])c2N([H])[H])C1([H])[H]

$$$$
73:0:0
     RDKit          3D

 98106  0  0  1  0  0  0  0  0999 V2000
  -29.9700  -19.5790   20.4050 C   0  0  0  0  0  3  0  0  0  0  0  0
  -30.1560  -20.4100   18.1180 C   0  0  0  0  0  3  0  0  0  0  0  0
  -30.0810  -18.2220   19.9520 C   0  0  0  0  0  0  0  0  0  0  0  0
  -29.9980  -20.6780   19.5000 C   0  0  0  0  0  0  0  0  0  0  0  0
  -30.2520  -19.0840   17.6450 C   0  0  0  0  0  0  0  0  0  0  0  0
  -30.2210  -18.0000   18.5580 C   0  0  0  0  0  0  0  0  0  0  0  0
  -30.3540  -16.7460   18.0620 F   0  0  0  0  0  0  0  0  0  0  0  0
  -28.9390  -22.8300   20.2410 C   0  0  0  0  0  0  0  0  0  0  0  0
  -30.0020  -22.0560   19.9270 N   0  0  0  0  0  0  0  0  0  0  0  0
  -27.8330  -22.3360   20.4910 O   0  0  0  0  0  0  0  0  0  0  0  0
  -30.8390  -22.5940   19.7390 H   0  0  0  0  0  0  0  0  0  0  0  0
  -28.2180  -25.1930   20.3040 C   0  0  0  0  0  3  0  0  0  0  0  0
  -29.2290  -24.2820   20.2580 C   0  0  0  0  0  0  0  0  0  0  0  0
  -30.5060  -24.6980   20.2170 O   0  0  0  0  0  0  0  0  0  0  0  0
  -30.4920  -25.6390   20.3380 H   0  0  0  0  0  0  0  0  0  0  0  0
  -28.3600  -26.5820   20.2370 O   0  0  0  0  0  0  0  0  0  0  0  0
  -24.5910  -31.8920   23.2430 C   0  0  0  0  0  0  0  0  0  0  0  0
  -27.2190  -27.3780   20.1980 C   0  0  0  0  0  0  0  0  0  0  0  0
  -23.3870  -30.4810   21.6060 C   0  0  0  0  0  3  0  0  0  0  0  0
  -24.8410  -28.9450   20.1840 C   0  0  0  0  0  0  0  0  0  0  0  0
  -25.9160  -30.8300   21.4120 C   0  0  0  0  0  2  0  0  0  0  0  0
  -26.0020  -29.4500   20.7790 C   0  0  0  0  0  0  0  0  0  0  0  0
  -27.1920  -28.6730   20.7880 C   0  0  0  0  0  3  0  0  0  0  0  0
  -26.0380  -26.9210   19.5610 C   0  0  0  0  0  3  0  0  0  0  0  0
  -24.8580  -27.6850   19.5680 C   0  0  0  0  0  3  0  0  0  0  0  0
  -23.5950  -29.7990   20.2290 C   0  0  0  0  0  2  0  0  0  0  0  0
  -24.6500  -31.0820   22.1470 N   0  0  0  0  0  0  0  0  0  0  0  0
  -23.5080  -32.1670   23.7800 O   0  0  0  0  0  0  0  0  0  0  0  0
  -22.7270  -29.4680   22.5680 C   0  0  0  0  0  0  0  0  0  0  0  0
  -21.4040  -29.2910   22.4390 N   0  0  0  0  0  0  0  0  0  0  0  0
  -23.4050  -28.8430   23.3870 O   0  0  0  0  0  0  0  0  0  0  0  0
  -20.9210  -29.8450   21.7470 H   0  0  0  0  0  0  0  0  0  0  0  0
  -18.0180  -28.1140   22.9230 C   0  0  0  0  0  0  0  0  0  0  0  0
  -20.5740  -28.3620   23.2090 C   0  0  0  0  0  3  0  0  0  0  0  0
  -20.6730  -26.9290   22.6340 C   0  0  0  0  0  2  0  0  0  0  0  0
  -19.5760  -26.6120   21.6140 C   0  0  0  0  0  2  0  0  0  0  0  0
  -18.1910  -26.7620   22.2540 C   0  0  0  0  0  2  0  0  0  0  0  0
  -19.1370  -28.8740   23.3540 C   0  0  0  0  0  0  0  0  0  0  0  0
  -18.9190  -30.1410   23.9370 C   0  0  0  0  0  3  0  0  0  0  0  0
  -17.6140  -30.6460   24.0960 C   0  0  0  0  0  3  0  0  0  0  0  0
  -16.5080  -29.8820   23.6850 C   0  0  0  0  0  3  0  0  0  0  0  0
  -16.7120  -28.6170   23.1050 C   0  0  0  0  0  3  0  0  0  0  0  0
  -25.8740  -32.5270   23.8630 C   0  0  0  0  0  3  0  0  0  0  0  0
  -25.5680  -33.9270   24.1900 N   0  0  0  0  0  0  0  0  0  0  0  0
  -25.9090  -34.9740   23.4270 C   0  0  0  0  0  0  0  0  0  0  0  0
  -26.5760  -34.8620   22.3970 O   0  0  0  0  0  0  0  0  0  0  0  0
  -24.9750  -34.0860   24.9940 H   0  0  0  0  0  0  0  0  0  0  0  0
  -24.1870  -36.7710   23.0550 C   0  0  0  0  0  1  0  0  0  0  0  0
  -25.4230  -36.3660   23.8750 C   0  0  0  0  0  3  0  0  0  0  0  0
  -27.5590  -37.2390   24.7160 C   0  0  0  0  0  1  0  0  0  0  0  0
  -26.4610  -37.4140   23.7700 N   0  0  0  0  0  0  0  0  0  0  0  0
  -26.0590  -38.3370   23.9190 H   0  0  0  0  0  0  0  0  0  0  0  0
  -26.3910  -31.7560   25.1380 C   0  0  1  0  0  0  0  0  0  0  0  0
  -25.2960  -31.5200   26.2030 C   0  0  0  0  0  1  0  0  0  0  0  0
  -26.9710  -30.3770   24.7450 C   0  0  0  0  0  1  0  0  0  0  0  0
  -27.5450  -32.5480   25.7980 C   0  0  0  0  0  1  0  0  0  0  0  0
  -30.4000  -18.8380   16.2720 N   0  0  0  0  0  0  0  0  0  0  0  0
  -30.7580  -19.5610   15.6520 H   0  0  0  0  0  0  0  0  0  0  0  0
  -30.6670  -17.9000   15.9920 H   0  0  0  0  0  0  0  0  0  0  0  0
  -30.1430  -17.0760   21.0070 C   0  0  0  0  0  2  0  0  0  0  0  0
  -30.6120  -14.6000   20.4700 C   0  0  0  0  0  0  0  0  0  0  0  0
  -30.3980  -12.3880   19.3950 C   0  0  0  0  0  2  0  0  0  0  0  0
  -29.4690  -12.5290   18.1690 C   0  0  0  0  0  2  0  0  0  0  0  0
  -27.9900  -12.3810   18.5830 C   0  0  0  0  0  2  0  0  0  0  0  0
  -27.6170  -13.2530   19.8120 C   0  0  0  0  0  3  0  0  0  0  0  0
  -28.6540  -13.0920   20.9450 C   0  0  0  0  0  2  0  0  0  0  0  0
  -29.9770  -13.3980   20.3780 N   0  0  0  0  0  0  0  0  0  0  0  0
  -31.8100  -14.7390   20.2140 O   0  0  0  0  0  0  0  0  0  0  0  0
  -29.7980  -15.6670   20.6670 N   0  0  0  0  0  0  0  0  0  0  0  0
  -28.8180  -15.4440   20.7190 H   0  0  0  0  0  0  0  0  0  0  0  0
  -25.2090  -13.8740   20.4680 C   0  0  0  0  0  0  0  0  0  0  0  0
  -24.1340  -13.1100   20.8250 C   0  0  0  0  0  0  0  0  0  0  0  0
  -24.5940  -11.7570   20.8280 C   0  0  0  0  0  0  0  0  0  0  0  0
  -26.2580  -12.9870   20.2740 N   0  0  0  0  0  0  0  0  0  0  0  0
  -25.8910  -11.7110   20.5520 N   0  0  0  0  0  0  0  0  0  0  0  0
  -23.8620  -10.5000   21.0200 C   0  0  0  0  0  0  0  0  0  0  0  0
  -24.2770   -9.5430   21.9720 C   0  0  0  0  0  3  0  0  0  0  0  0
  -23.5450   -8.3490   22.1510 C   0  0  0  0  0  3  0  0  0  0  0  0
  -22.3870   -8.1030   21.3770 C   0  0  0  0  0  0  0  0  0  0  0  0
  -21.9890   -9.0510   20.4180 C   0  0  0  0  0  3  0  0  0  0  0  0
  -22.7200  -10.2360   20.2370 C   0  0  0  0  0  3  0  0  0  0  0  0
  -21.6270   -6.9600   21.4650 O   0  0  0  0  0  0  0  0  0  0  0  0
  -21.5630   -6.2290   22.6230 C   0  0  0  0  0  0  0  0  0  0  0  0
  -21.1260   -6.7960   23.8400 C   0  0  0  0  0  3  0  0  0  0  0  0
  -21.0060   -5.9890   24.9890 C   0  0  0  0  0  3  0  0  0  0  0  0
  -21.3160   -4.6170   24.9220 C   0  0  0  0  0  0  0  0  0  0  0  0
  -21.7460   -4.0500   23.7090 C   0  0  0  0  0  3  0  0  0  0  0  0
  -21.8660   -4.8540   22.5620 C   0  0  0  0  0  0  0  0  0  0  0  0
  -22.2600   -4.2990   21.3910 F   0  0  0  0  0  0  0  0  0  0  0  0
  -21.1950   -3.8390   26.0220 F   0  0  0  0  0  0  0  0  0  0  0  0
  -22.7320  -13.5940   21.0570 C   0  0  0  0  0  0  0  0  0  0  0  0
  -21.9800  -12.9110   21.9140 N   0  0  0  0  0  0  0  0  0  0  0  0
  -22.3080  -14.6110   20.5090 O   0  0  0  0  0  0  0  0  0  0  0  0
  -22.3360  -12.0860   22.3730 H   0  0  0  0  0  0  0  0  0  0  0  0
  -21.0380  -13.2190   22.1130 H   0  0  0  0  0  0  0  0  0  0  0  0
  -25.3830  -15.2400   20.2690 N   0  0  0  0  0  0  0  0  0  0  0  0
  -24.6010  -15.8840   20.3310 H   0  0  0  0  0  0  0  0  0  0  0  0
  -26.2220  -15.6700   19.9040 H   0  0  0  0  0  0  0  0  0  0  0  0
  2  4  1  0
  3  1  1  0
  3 60  1  0
  4  9  1  0
  4  1  2  0
  5  2  2  0
  5  6  1  0
  6  3  2  0
  7  6  1  0
  8 13  1  0
  8 10  2  0
  9  8  1  0
 11  9  1  0
 13 12  2  0
 14 13  1  0
 14 15  1  0
 16 12  1  0
 17 28  2  0
 18 16  1  0
 18 23  1  0
 19 27  1  0
 19 29  1  0
 20 26  1  0
 20 22  1  0
 21 27  1  0
 22 23  2  0
 22 21  1  0
 24 25  1  0
 24 18  2  0
 25 20  2  0
 26 19  1  0
 27 17  1  0
 29 31  2  0
 30 29  1  0
 32 30  1  0
 33 42  2  0
 33 38  1  0
 34 30  1  0
 34 38  1  0
 35 34  1  0
 36 37  1  0
 36 35  1  0
 37 33  1  0
 38 39  2  0
 39 40  1  0
 41 40  2  0
 42 41  1  0
 43 17  1  0
 43 44  1  0
 43 53  1  0
 44 47  1  0
 45 49  1  0
 45 44  1  0
 46 45  2  0
 49 48  1  0
 51 49  1  0
 51 52  1  0
 51 50  1  0
 53 56  1  1
 53 54  1  0
 55 53  1  0
 57  5  1  0
 58 57  1  0
 59 57  1  0
 61 69  1  0
 62 67  1  0
 63 64  1  0
 63 62  1  0
 65 64  1  0
 65 74  1  0
 65 66  1  0
 67 61  1  0
 67 66  1  0
 68 61  2  0
 69 70  1  0
 69 60  1  0
 71 72  2  0
 72 73  1  0
 72 91  1  0
 73 76  1  0
 74 71  1  0
 74 75  1  0
 75 73  2  0
 76 77  1  0
 77 78  2  0
 79 82  1  0
 79 78  1  0
 80 79  2  0
 81 80  1  0
 81 76  2  0
 82 83  1  0
 83 84  1  0
 84 85  2  0
 86 85  1  0
 86 90  1  0
 87 86  2  0
 88 83  2  0
 88 87  1  0
 89 88  1  0
 91 92  1  0
 92 95  1  0
 92 94  1  0
 93 91  2  0
 96 97  1  0
 96 71  1  0
 98 96  1  0
M  ISO  4  12 101  16 101  61 100  69 100
M  END
>  <TORSDO>  (73) 
F 21

>  <SCORE>  (73) 
-13.901

>  <name>  (73) 
73

>  <ligand_id>  (73) 
73

>  <original_smiles>  (73) 
[H]OC(C(=O)N([H])c1c([H])c(N([H])[H])c(F)c(C([H])([H])N([H])C(=O)N2C([H])([H])C([H])([H])C([H])([H])C([H])(n3nc(-c4c([H])c([H])c(Oc5c([H])c([H])c(F)c([H])c5F)c([H])c4[H])c(C(=O)N([H])[H])c3N([H])[H])C2([H])[H])c1[H])=C([H])Oc1c([H])c([H])c2c(c1[H])C([H])([H])N(C(=O)C([H])(N([H])C(=O)C([H])(N([H])C([H])([H])[H])C([H])([H])[H])C(C([H])([H])[H])(C([H])([H])[H])C([H])([H])[H])C([H])(C(=O)N([H])C1([H])c3c([H])c([H])c([H])c([H])c3C([H])([H])C([H])([H])C1([H])[H])C2([H])[H]

>  <smiles>  (73) 
[H]OC(C(=O)N([H])c1c([H])c(N([H])[H])c(F)c(C([H])([H])N([H])C(=O)N2C([H])([H])C([H])([H])C([H])([H])C([H])(n3nc(-c4c([H])c([H])c(Oc5c([H])c([H])c(F)c([H])c5F)c([H])c4[H])c(C(=O)N([H])[H])c3N([H])[H])C2([H])[H])c1[H])=C([H])Oc1c([H])c([H])c2c(c1[H])C([H])([H])N(C(=O)C([H])(N([H])C(=O)C([H])(N([H])C([H])([H])[H])C([H])([H])[H])C(C([H])([H])[H])(C([H])([H])[H])C([H])([H])[H])C([H])(C(=O)N([H])C1([H])c3c([H])c([H])c([H])c([H])c3C([H])([H])C([H])([H])C1([H])[H])C2([H])[H]

$$$$
74:0:0
     RDKit          3D

 94102  0  0  1  0  0  0  0  0999 V2000
  -28.2110  -20.1770   19.7350 C   0  0  0  0  0  3  0  0  0  0  0  0
  -28.5370  -18.7460   19.7050 C   0  0  0  0  0  0  0  0  0  0  0  0
  -29.8180  -18.4290   20.1370 C   0  0  0  0  0  0  0  0  0  0  0  0
  -29.1200  -21.0240   20.3540 C   0  0  0  0  0  0  0  0  0  0  0  0
  -30.5060  -19.9670   20.7670 S   0  0  0  0  0  0  0  0  0  0  0  0
  -30.8350  -14.6170   20.0570 C   0  0  0  0  0  0  0  0  0  0  0  0
  -30.5140  -12.2980   19.1740 C   0  0  0  0  0  2  0  0  0  0  0  0
  -29.5170  -12.2700   17.9970 C   0  0  0  0  0  2  0  0  0  0  0  0
  -28.0820  -12.1010   18.5180 C   0  0  0  0  0  2  0  0  0  0  0  0
  -27.7610  -13.0960   19.6640 C   0  0  0  0  0  3  0  0  0  0  0  0
  -28.8610  -13.1400   20.7440 C   0  0  0  0  0  2  0  0  0  0  0  0
  -30.1350  -13.4260   20.0620 N   0  0  0  0  0  0  0  0  0  0  0  0
  -32.0180  -14.5950   19.6960 O   0  0  0  0  0  0  0  0  0  0  0  0
  -30.6600  -17.1190   20.3000 C   0  0  0  0  0  0  0  0  0  0  0  0
  -30.1510  -15.8210   20.2290 N   0  0  0  0  0  0  0  0  0  0  0  0
  -31.8690  -17.2930   20.5030 O   0  0  0  0  0  0  0  0  0  0  0  0
  -29.1530  -15.7500   20.2660 H   0  0  0  0  0  0  0  0  0  0  0  0
  -25.4650  -13.7650   20.5760 C   0  0  0  0  0  0  0  0  0  0  0  0
  -24.3960  -13.0340   21.0090 C   0  0  0  0  0  0  0  0  0  0  0  0
  -24.7930  -11.6640   20.9040 C   0  0  0  0  0  0  0  0  0  0  0  0
  -26.4480  -12.8490   20.2440 N   0  0  0  0  0  0  0  0  0  0  0  0
  -26.0560  -11.5760   20.5010 N   0  0  0  0  0  0  0  0  0  0  0  0
  -24.0280  -10.4320   21.0980 C   0  0  0  0  0  0  0  0  0  0  0  0
  -24.4640   -9.4120   21.9720 C   0  0  0  0  0  3  0  0  0  0  0  0
  -23.6910   -8.2470   22.1540 C   0  0  0  0  0  3  0  0  0  0  0  0
  -22.4670   -8.0900   21.4600 C   0  0  0  0  0  0  0  0  0  0  0  0
  -22.0530   -9.0930   20.5650 C   0  0  0  0  0  3  0  0  0  0  0  0
  -22.8290  -10.2520   20.3810 C   0  0  0  0  0  3  0  0  0  0  0  0
  -21.6650   -6.9800   21.5570 O   0  0  0  0  0  0  0  0  0  0  0  0
  -21.6460   -6.2030   22.6880 C   0  0  0  0  0  0  0  0  0  0  0  0
  -21.2750   -6.7290   23.9460 C   0  0  0  0  0  3  0  0  0  0  0  0
  -21.2080   -5.8790   25.0680 C   0  0  0  0  0  3  0  0  0  0  0  0
  -21.4970   -4.5080   24.9330 C   0  0  0  0  0  0  0  0  0  0  0  0
  -21.8590   -3.9840   23.6800 C   0  0  0  0  0  3  0  0  0  0  0  0
  -21.9320   -4.8300   22.5590 C   0  0  0  0  0  0  0  0  0  0  0  0
  -22.2640   -4.3170   21.3500 F   0  0  0  0  0  0  0  0  0  0  0  0
  -21.4220   -3.6900   26.0090 F   0  0  0  0  0  0  0  0  0  0  0  0
  -23.0470  -13.5640   21.3920 C   0  0  0  0  0  0  0  0  0  0  0  0
  -22.3520  -12.8740   22.2890 N   0  0  0  0  0  0  0  0  0  0  0  0
  -22.6170  -14.6180   20.9280 O   0  0  0  0  0  0  0  0  0  0  0  0
  -22.7160  -12.0170   22.6800 H   0  0  0  0  0  0  0  0  0  0  0  0
  -21.4490  -13.2010   22.5930 H   0  0  0  0  0  0  0  0  0  0  0  0
  -25.6720  -15.1260   20.4020 N   0  0  0  0  0  0  0  0  0  0  0  0
  -24.9110  -15.7880   20.5060 H   0  0  0  0  0  0  0  0  0  0  0  0
  -26.4530  -15.4970   19.8830 H   0  0  0  0  0  0  0  0  0  0  0  0
  -28.4790  -23.5280   20.2320 C   0  0  0  0  0  0  0  0  0  0  0  0
  -28.9720  -22.3560   20.7990 N   0  0  0  0  0  0  0  0  0  0  0  0
  -28.4200  -23.6640   19.0050 O   0  0  0  0  0  0  0  0  0  0  0  0
  -29.2160  -22.4950   21.7720 H   0  0  0  0  0  0  0  0  0  0  0  0
  -26.5310  -24.5190   21.6280 C   0  0  0  0  0  1  0  0  0  0  0  0
  -27.9980  -24.7490   21.1800 C   0  0  0  0  0  3  0  0  0  0  0  0
  -28.2630  -26.1850   20.7790 O   0  0  0  0  0  0  0  0  0  0  0  0
  -24.5620  -31.8690   23.3790 C   0  0  0  0  0  0  0  0  0  0  0  0
  -27.2030  -27.1090   20.6640 C   0  0  0  0  0  0  0  0  0  0  0  0
  -23.4070  -30.4300   21.7400 C   0  0  0  0  0  3  0  0  0  0  0  0
  -24.8910  -28.7920   20.4450 C   0  0  0  0  0  0  0  0  0  0  0  0
  -25.9590  -30.6850   21.6670 C   0  0  0  0  0  2  0  0  0  0  0  0
  -26.0430  -29.2770   21.0820 C   0  0  0  0  0  0  0  0  0  0  0  0
  -27.2050  -28.4490   21.1770 C   0  0  0  0  0  3  0  0  0  0  0  0
  -26.0360  -26.6840   20.0010 C   0  0  0  0  0  3  0  0  0  0  0  0
  -24.8940  -27.4990   19.8930 C   0  0  0  0  0  3  0  0  0  0  0  0
  -23.6730  -29.6940   20.3990 C   0  0  0  0  0  2  0  0  0  0  0  0
  -24.6590  -31.0150   22.3180 N   0  0  0  0  0  0  0  0  0  0  0  0
  -23.4600  -32.1920   23.8520 O   0  0  0  0  0  0  0  0  0  0  0  0
  -22.6750  -29.4650   22.7060 C   0  0  0  0  0  0  0  0  0  0  0  0
  -21.3530  -29.3130   22.5240 N   0  0  0  0  0  0  0  0  0  0  0  0
  -23.2990  -28.8560   23.5790 O   0  0  0  0  0  0  0  0  0  0  0  0
  -20.9060  -29.8620   21.8010 H   0  0  0  0  0  0  0  0  0  0  0  0
  -17.9160  -28.2680   22.9540 C   0  0  0  0  0  0  0  0  0  0  0  0
  -20.4750  -28.4270   23.2900 C   0  0  0  0  0  3  0  0  0  0  0  0
  -20.5290  -26.9820   22.7430 C   0  0  0  0  0  2  0  0  0  0  0  0
  -19.4390  -26.6860   21.7070 C   0  0  0  0  0  2  0  0  0  0  0  0
  -18.0500  -26.9030   22.3100 C   0  0  0  0  0  2  0  0  0  0  0  0
  -19.0530  -28.9910   23.4010 C   0  0  0  0  0  0  0  0  0  0  0  0
  -18.8670  -30.2770   23.9580 C   0  0  0  0  0  3  0  0  0  0  0  0
  -17.5790  -30.8340   24.0720 C   0  0  0  0  0  3  0  0  0  0  0  0
  -16.4580  -30.1040   23.6430 C   0  0  0  0  0  3  0  0  0  0  0  0
  -16.6270  -28.8230   23.0910 C   0  0  0  0  0  3  0  0  0  0  0  0
  -25.8270  -32.4970   24.0420 C   0  0  0  0  0  3  0  0  0  0  0  0
  -26.2620  -31.7650   25.3710 C   0  0  1  0  0  0  0  0  0  0  0  0
  -25.0950  -31.5500   26.3600 C   0  0  0  0  0  1  0  0  0  0  0  0
  -26.8870  -30.3840   25.0650 C   0  0  0  0  0  1  0  0  0  0  0  0
  -27.3530  -32.5870   26.0990 C   0  0  0  0  0  1  0  0  0  0  0  0
  -25.5320  -33.9120   24.3070 N   0  0  0  0  0  0  0  0  0  0  0  0
  -25.8830  -34.9290   23.5100 C   0  0  0  0  0  0  0  0  0  0  0  0
  -26.5680  -34.7770   22.4950 O   0  0  0  0  0  0  0  0  0  0  0  0
  -24.9130  -34.1030   25.0820 H   0  0  0  0  0  0  0  0  0  0  0  0
  -24.1710  -36.7220   23.0760 C   0  0  0  0  0  1  0  0  0  0  0  0
  -25.4050  -36.3400   23.9040 C   0  0  0  0  0  3  0  0  0  0  0  0
  -27.5370  -37.2540   24.7110 C   0  0  0  0  0  1  0  0  0  0  0  0
  -26.4470  -37.3770   23.7480 N   0  0  0  0  0  0  0  0  0  0  0  0
  -26.0440  -38.3070   23.8420 H   0  0  0  0  0  0  0  0  0  0  0  0
  -26.1570  -18.0530   19.9970 C   0  0  0  0  0  1  0  0  0  0  0  0
  -27.5090  -17.6960   19.3680 C   0  0  0  0  0  2  0  0  0  0  0  0
  1  4  2  0
  2  1  1  0
  2  3  2  0
  3 14  1  0
  3  5  1  0
  4  5  1  0
  4 47  1  0
  6 12  1  0
  6 15  1  0
  7 12  1  0
  8  9  1  0
  8  7  1  0
 10  9  1  0
 10 21  1  0
 10 11  1  0
 12 11  1  0
 13  6  2  0
 14 16  2  0
 15 17  1  0
 15 14  1  0
 18 19  2  0
 19 38  1  0
 20 19  1  0
 20 23  1  0
 21 22  1  0
 21 18  1  0
 22 20  2  0
 23 24  1  0
 24 25  2  0
 26 29  1  0
 26 25  1  0
 27 26  2  0
 28 27  1  0
 28 23  2  0
 29 30  1  0
 30 31  1  0
 31 32  2  0
 33 32  1  0
 33 37  1  0
 34 33  2  0
 35 30  2  0
 35 34  1  0
 36 35  1  0
 38 39  1  0
 39 42  1  0
 39 41  1  0
 40 38  2  0
 43 44  1  0
 43 18  1  0
 45 43  1  0
 46 47  1  0
 46 51  1  0
 47 49  1  0
 48 46  2  0
 51 50  1  0
 52 51  1  0
 53 64  2  0
 54 52  1  0
 54 59  1  0
 55 63  1  0
 55 65  1  0
 56 58  1  0
 57 63  1  0
 58 59  2  0
 58 57  1  0
 60 54  2  0
 61 60  1  0
 61 56  2  0
 62 56  1  0
 62 55  1  0
 63 53  1  0
 65 67  2  0
 66 65  1  0
 68 66  1  0
 69 78  2  0
 69 74  1  0
 70 66  1  0
 70 74  1  0
 71 70  1  0
 72 73  1  0
 72 71  1  0
 73 69  1  0
 74 75  2  0
 75 76  1  0
 77 76  2  0
 78 77  1  0
 79 53  1  0
 79 84  1  0
 79 80  1  0
 80 83  1  1
 80 81  1  0
 82 80  1  0
 84 87  1  0
 85 89  1  0
 85 84  1  0
 86 85  2  0
 89 88  1  0
 91 92  1  0
 91 89  1  0
 91 90  1  0
 94  2  1  0
 94 93  1  0
M  ISO  4   6 100  15 100  51 101  52 101
M  END
>  <TORSDO>  (74) 
F 19

>  <SCORE>  (74) 
-14.047

>  <name>  (74) 
74

>  <ligand_id>  (74) 
74

>  <original_smiles>  (74) 
[H]c1c([H])c([H])c2c(c1[H])C([H])([H])C([H])([H])C([H])([H])C2([H])N([H])C(=O)C1([H])N(C(=O)C([H])(N([H])C(=O)C([H])(N([H])C([H])([H])[H])C([H])([H])[H])C(C([H])([H])[H])(C([H])([H])[H])C([H])([H])[H])C([H])([H])c2c([H])c(OC([H])(C(=O)N([H])c3sc(C(=O)N([H])C(=O)N4C([H])([H])C([H])([H])C([H])([H])C([H])(n5nc(-c6c([H])c([H])c(Oc7c([H])c([H])c(F)c([H])c7F)c([H])c6[H])c(C(=O)N([H])[H])c5N([H])[H])C4([H])[H])c(C([H])([H])C([H])([H])[H])c3[H])C([H])([H])[H])c([H])c([H])c2C1([H])[H]

>  <smiles>  (74) 
[H]c1c([H])c([H])c2c(c1[H])C([H])([H])C([H])([H])C([H])([H])C2([H])N([H])C(=O)C1([H])N(C(=O)C([H])(N([H])C(=O)C([H])(N([H])C([H])([H])[H])C([H])([H])[H])C(C([H])([H])[H])(C([H])([H])[H])C([H])([H])[H])C([H])([H])c2c([H])c(OC([H])(C(=O)N([H])c3sc(C(=O)N([H])C(=O)N4C([H])([H])C([H])([H])C([H])([H])C([H])(n5nc(-c6c([H])c([H])c(Oc7c([H])c([H])c(F)c([H])c7F)c([H])c6[H])c(C(=O)N([H])[H])c5N([H])[H])C4([H])[H])c(C([H])([H])C([H])([H])[H])c3[H])C([H])([H])[H])c([H])c([H])c2C1([H])[H]

$$$$
75:0:0
     RDKit          3D

 97105  0  0  1  0  0  0  0  0999 V2000
  -28.5560  -24.1590   19.8040 C   0  0  0  0  0  0  0  0  0  0  0  0
  -29.0890  -21.7580   19.8280 C   0  0  0  0  0  0  0  0  0  0  0  0
  -29.5310  -20.8340   20.7090 N   0  0  0  0  0  0  0  0  0  0  0  0
  -28.9050  -22.9810   20.3860 N   0  0  0  0  0  0  0  0  0  0  0  0
  -28.4110  -24.3220   18.5860 O   0  0  0  0  0  0  0  0  0  0  0  0
  -28.8910  -21.4840   18.6420 O   0  0  0  0  0  0  0  0  0  0  0  0
  -29.6230  -21.1210   21.6730 H   0  0  0  0  0  0  0  0  0  0  0  0
  -29.0460  -23.0370   21.3800 H   0  0  0  0  0  0  0  0  0  0  0  0
  -30.6780  -14.5730   20.2100 C   0  0  0  0  0  0  0  0  0  0  0  0
  -30.4010  -12.3890   19.0890 C   0  0  0  0  0  2  0  0  0  0  0  0
  -29.4370  -12.5960   17.9020 C   0  0  0  0  0  2  0  0  0  0  0  0
  -27.9690  -12.4540   18.3540 C   0  0  0  0  0  2  0  0  0  0  0  0
  -27.6530  -13.2710   19.6360 C   0  0  0  0  0  3  0  0  0  0  0  0
  -28.7300  -13.0470   20.7200 C   0  0  0  0  0  2  0  0  0  0  0  0
  -30.0370  -13.3710   20.1250 N   0  0  0  0  0  0  0  0  0  0  0  0
  -31.8270  -14.7260   19.7800 O   0  0  0  0  0  0  0  0  0  0  0  0
  -31.1570  -19.0350   20.1150 C   0  0  0  0  0  0  0  0  0  0  0  0
  -29.9020  -19.5380   20.4520 C   0  0  0  0  0  0  0  0  0  0  0  0
  -30.0690  -17.0260   20.4920 C   0  0  0  0  0  0  0  0  0  0  0  0
  -31.2200  -17.6260   20.1830 N   0  0  0  0  0  0  0  0  0  0  0  0
  -29.9000  -15.6020   20.6300 N   0  0  0  0  0  0  0  0  0  0  0  0
  -28.7840  -18.2060   20.7600 S   0  0  0  0  0  0  0  0  0  0  0  0
  -28.9900  -15.3200   20.9560 H   0  0  0  0  0  0  0  0  0  0  0  0
  -25.2650  -13.8700   20.3800 C   0  0  0  0  0  0  0  0  0  0  0  0
  -24.2080  -13.0940   20.7720 C   0  0  0  0  0  0  0  0  0  0  0  0
  -24.6740  -11.7440   20.7420 C   0  0  0  0  0  0  0  0  0  0  0  0
  -26.3100  -12.9910   20.1370 N   0  0  0  0  0  0  0  0  0  0  0  0
  -25.9590  -11.7090   20.4110 N   0  0  0  0  0  0  0  0  0  0  0  0
  -23.9560  -10.4800   20.9470 C   0  0  0  0  0  0  0  0  0  0  0  0
  -24.3960   -9.5270   21.8920 C   0  0  0  0  0  3  0  0  0  0  0  0
  -23.6770   -8.3270   22.0870 C   0  0  0  0  0  3  0  0  0  0  0  0
  -22.5060   -8.0730   21.3340 C   0  0  0  0  0  0  0  0  0  0  0  0
  -22.0870   -9.0140   20.3780 C   0  0  0  0  0  3  0  0  0  0  0  0
  -22.8060  -10.2040   20.1820 C   0  0  0  0  0  3  0  0  0  0  0  0
  -21.7600   -6.9240   21.4350 O   0  0  0  0  0  0  0  0  0  0  0  0
  -21.7010   -6.2050   22.6020 C   0  0  0  0  0  0  0  0  0  0  0  0
  -21.2280   -6.7730   23.8060 C   0  0  0  0  0  3  0  0  0  0  0  0
  -21.1190   -5.9780   24.9640 C   0  0  0  0  0  3  0  0  0  0  0  0
  -21.4730   -4.6160   24.9210 C   0  0  0  0  0  0  0  0  0  0  0  0
  -21.9380   -4.0470   23.7220 C   0  0  0  0  0  3  0  0  0  0  0  0
  -22.0480   -4.8380   22.5650 C   0  0  0  0  0  0  0  0  0  0  0  0
  -22.4760   -4.2800   21.4060 F   0  0  0  0  0  0  0  0  0  0  0  0
  -21.3610   -3.8500   26.0300 F   0  0  0  0  0  0  0  0  0  0  0  0
  -22.8130  -13.5670   21.0650 C   0  0  0  0  0  0  0  0  0  0  0  0
  -22.0990  -12.8680   21.9410 N   0  0  0  0  0  0  0  0  0  0  0  0
  -22.3640  -14.5920   20.5520 O   0  0  0  0  0  0  0  0  0  0  0  0
  -22.4720  -12.0390   22.3780 H   0  0  0  0  0  0  0  0  0  0  0  0
  -21.1640  -13.1670   22.1790 H   0  0  0  0  0  0  0  0  0  0  0  0
  -25.4200  -15.2390   20.1890 N   0  0  0  0  0  0  0  0  0  0  0  0
  -24.6410  -15.8830   20.2850 H   0  0  0  0  0  0  0  0  0  0  0  0
  -26.2410  -15.6700   19.7820 H   0  0  0  0  0  0  0  0  0  0  0  0
  -33.1170  -20.0660   21.2580 C   0  0  0  0  0  1  0  0  0  0  0  0
  -32.3250  -21.0890   19.1070 C   0  0  0  0  0  1  0  0  0  0  0  0
  -33.4560  -18.8980   19.0600 C   0  0  0  0  0  1  0  0  0  0  0  0
  -32.4810  -19.7670   19.8890 C   0  0  2  0  0  0  0  0  0  0  0  0
  -28.3110  -25.3610   20.7600 C   0  0  0  0  0  2  0  0  0  0  0  0
  -28.4350  -26.6650   20.1240 O   0  0  0  0  0  0  0  0  0  0  0  0
  -24.6090  -31.8820   23.1780 C   0  0  0  0  0  0  0  0  0  0  0  0
  -27.2850  -27.4330   20.1130 C   0  0  0  0  0  0  0  0  0  0  0  0
  -23.4200  -30.4780   21.5250 C   0  0  0  0  0  3  0  0  0  0  0  0
  -24.8910  -28.9460   20.1050 C   0  0  0  0  0  0  0  0  0  0  0  0
  -25.9480  -30.8430   21.3420 C   0  0  0  0  0  2  0  0  0  0  0  0
  -26.0450  -29.4710   20.7000 C   0  0  0  0  0  0  0  0  0  0  0  0
  -27.2500  -28.7240   20.6960 C   0  0  0  0  0  3  0  0  0  0  0  0
  -26.1160  -26.9300   19.5060 C   0  0  0  0  0  3  0  0  0  0  0  0
  -24.9230  -27.6760   19.5010 C   0  0  0  0  0  3  0  0  0  0  0  0
  -23.6410  -29.7980   20.1470 C   0  0  0  0  0  2  0  0  0  0  0  0
  -24.6760  -31.0840   22.0730 N   0  0  0  0  0  0  0  0  0  0  0  0
  -23.5220  -32.1470   23.7100 O   0  0  0  0  0  0  0  0  0  0  0  0
  -22.7660  -29.4530   22.4800 C   0  0  0  0  0  0  0  0  0  0  0  0
  -21.4400  -29.2740   22.3540 N   0  0  0  0  0  0  0  0  0  0  0  0
  -23.4490  -28.8210   23.2900 O   0  0  0  0  0  0  0  0  0  0  0  0
  -20.9490  -29.8350   21.6710 H   0  0  0  0  0  0  0  0  0  0  0  0
  -18.0590  -28.1130   22.8700 C   0  0  0  0  0  0  0  0  0  0  0  0
  -20.6220  -28.3340   23.1180 C   0  0  0  0  0  3  0  0  0  0  0  0
  -20.7010  -26.9120   22.5150 C   0  0  0  0  0  2  0  0  0  0  0  0
  -19.5830  -26.6210   21.5080 C   0  0  0  0  0  2  0  0  0  0  0  0
  -18.2100  -26.7740   22.1680 C   0  0  0  0  0  2  0  0  0  0  0  0
  -19.1910  -28.8520   23.3010 C   0  0  0  0  0  0  0  0  0  0  0  0
  -18.9970  -30.1080   23.9130 C   0  0  0  0  0  3  0  0  0  0  0  0
  -17.7000  -30.6230   24.1040 C   0  0  0  0  0  3  0  0  0  0  0  0
  -16.5810  -29.8790   23.6910 C   0  0  0  0  0  3  0  0  0  0  0  0
  -16.7620  -28.6260   23.0780 C   0  0  0  0  0  3  0  0  0  0  0  0
  -25.8880  -32.5160   23.8060 C   0  0  0  0  0  3  0  0  0  0  0  0
  -25.5700  -33.9100   24.1440 N   0  0  0  0  0  0  0  0  0  0  0  0
  -25.8930  -34.9680   23.3900 C   0  0  0  0  0  0  0  0  0  0  0  0
  -26.5590  -34.8760   22.3550 O   0  0  0  0  0  0  0  0  0  0  0  0
  -24.9810  -34.0560   24.9510 H   0  0  0  0  0  0  0  0  0  0  0  0
  -24.1520  -36.7460   23.0410 C   0  0  0  0  0  1  0  0  0  0  0  0
  -25.3930  -36.3480   23.8560 C   0  0  0  0  0  3  0  0  0  0  0  0
  -27.5150  -37.2450   24.7050 C   0  0  0  0  0  1  0  0  0  0  0  0
  -26.4170  -37.4110   23.7560 N   0  0  0  0  0  0  0  0  0  0  0  0
  -26.0010  -38.3250   23.9070 H   0  0  0  0  0  0  0  0  0  0  0  0
  -26.4080  -31.7380   25.0780 C   0  0  1  0  0  0  0  0  0  0  0  0
  -25.3130  -31.4840   26.1400 C   0  0  0  0  0  1  0  0  0  0  0  0
  -27.0000  -30.3680   24.6710 C   0  0  0  0  0  1  0  0  0  0  0  0
  -27.5490  -32.5360   25.7510 C   0  0  0  0  0  1  0  0  0  0  0  0
  1  4  1  0
  1 56  1  0
  2  4  1  0
  2  3  1  0
  3  7  1  0
  4  8  1  0
  5  1  2  0
  6  2  2  0
  9 21  1  0
 10 15  1  0
 11 12  1  0
 11 10  1  0
 13 12  1  0
 13 27  1  0
 13 14  1  0
 15  9  1  0
 15 14  1  0
 16  9  2  0
 17 20  1  0
 17 18  2  0
 18  3  1  0
 18 22  1  0
 19 21  1  0
 19 22  1  0
 20 19  2  0
 21 23  1  0
 24 25  2  0
 25 44  1  0
 26 25  1  0
 26 29  1  0
 27 24  1  0
 27 28  1  0
 28 26  2  0
 29 30  1  0
 30 31  2  0
 32 35  1  0
 32 31  1  0
 33 32  2  0
 34 33  1  0
 34 29  2  0
 35 36  1  0
 36 37  1  0
 37 38  2  0
 39 38  1  0
 39 43  1  0
 40 39  2  0
 41 36  2  0
 41 40  1  0
 42 41  1  0
 44 45  1  0
 45 48  1  0
 45 47  1  0
 46 44  2  0
 49 50  1  0
 49 24  1  0
 51 49  1  0
 55 53  1  6
 54 55  1  0
 55 17  1  0
 55 52  1  0
 57 56  1  0
 58 69  2  0
 59 57  1  0
 59 64  1  0
 60 68  1  0
 60 70  1  0
 61 67  1  0
 61 63  1  0
 62 68  1  0
 63 62  1  0
 64 63  2  0
 65 59  2  0
 66 65  1  0
 66 61  2  0
 67 60  1  0
 68 58  1  0
 70 72  2  0
 71 70  1  0
 73 71  1  0
 74 83  2  0
 74 79  1  0
 75 71  1  0
 75 79  1  0
 76 75  1  0
 77 78  1  0
 77 76  1  0
 78 74  1  0
 79 80  2  0
 80 81  1  0
 82 81  2  0
 83 82  1  0
 84 58  1  0
 84 85  1  0
 84 94  1  0
 85 88  1  0
 86 90  1  0
 86 85  1  0
 87 86  2  0
 90 89  1  0
 92 90  1  0
 92 93  1  0
 92 91  1  0
 94 97  1  1
 94 95  1  0
 96 94  1  0
M  ISO  4   9 100  21 100  56 101  57 101
M  END
>  <TORSDO>  (75) 
F 18

>  <SCORE>  (75) 
-14.751

>  <name>  (75) 
75

>  <ligand_id>  (75) 
75

>  <original_smiles>  (75) 
[H]c1c([H])c([H])c2c(c1[H])C([H])([H])C([H])([H])C([H])([H])C2([H])N([H])C(=O)C1([H])N(C(=O)C([H])(N([H])C(=O)C([H])(N([H])C([H])([H])[H])C([H])([H])[H])C(C([H])([H])[H])(C([H])([H])[H])C([H])([H])[H])C([H])([H])c2c([H])c(OC([H])([H])C(=O)N([H])C(=O)N([H])c3sc(N([H])C(=O)N4C([H])([H])C([H])([H])C([H])([H])C([H])(n5nc(-c6c([H])c([H])c(Oc7c([H])c([H])c(F)c([H])c7F)c([H])c6[H])c(C(=O)N([H])[H])c5N([H])[H])C4([H])[H])nc3C(C([H])([H])[H])(C([H])([H])[H])C([H])([H])[H])c([H])c([H])c2C1([H])[H]

>  <smiles>  (75) 
[H]c1c([H])c([H])c2c(c1[H])C([H])([H])C([H])([H])C([H])([H])C2([H])N([H])C(=O)C1([H])N(C(=O)C([H])(N([H])C(=O)C([H])(N([H])C([H])([H])[H])C([H])([H])[H])C(C([H])([H])[H])(C([H])([H])[H])C([H])([H])[H])C([H])([H])c2c([H])c(OC([H])([H])C(=O)N([H])C(=O)N([H])c3sc(N([H])C(=O)N4C([H])([H])C([H])([H])C([H])([H])C([H])(n5nc(-c6c([H])c([H])c(Oc7c([H])c([H])c(F)c([H])c7F)c([H])c6[H])c(C(=O)N([H])[H])c5N([H])[H])C4([H])[H])nc3C(C([H])([H])[H])(C([H])([H])[H])C([H])([H])[H])c([H])c([H])c2C1([H])[H]

$$$$
76:0:0
     RDKit          3D

 92100  0  0  1  0  0  0  0  0999 V2000
  -29.0340  -23.4040   20.0150 C   0  0  0  0  0  0  0  0  0  0  0  0
  -27.4510  -22.0070   18.7940 C   0  0  0  0  0  1  0  0  0  0  0  0
  -28.6890  -22.0810   19.5840 N   0  0  0  0  0  0  0  0  0  0  0  0
  -29.9600  -23.5430   20.8180 O   0  0  0  0  0  0  0  0  0  0  0  0
  -30.7100  -15.0330   19.7630 C   0  0  0  0  0  0  0  0  0  0  0  0
  -30.5290  -12.6810   18.8240 C   0  0  0  0  0  2  0  0  0  0  0  0
  -29.4990  -12.6650   17.6690 C   0  0  0  0  0  2  0  0  0  0  0  0
  -28.0700  -12.4650   18.2090 C   0  0  0  0  0  2  0  0  0  0  0  0
  -27.7670  -13.3790   19.4250 C   0  0  0  0  0  3  0  0  0  0  0  0
  -28.9070  -13.3500   20.4680 C   0  0  0  0  0  2  0  0  0  0  0  0
  -30.1400  -13.7590   19.7760 N   0  0  0  0  0  0  0  0  0  0  0  0
  -31.8620  -15.1340   19.3230 O   0  0  0  0  0  0  0  0  0  0  0  0
  -28.8540  -18.3450   20.8090 C   0  0  0  0  0  3  0  0  0  0  0  0
  -30.2640  -19.9430   19.1560 C   0  0  0  0  0  3  0  0  0  0  0  0
  -29.2470  -20.6700   19.8750 C   0  0  0  0  0  0  0  0  0  0  0  0
  -28.5690  -19.7590   20.7420 C   0  0  0  0  0  0  0  0  0  0  0  0
  -29.8460  -17.6770   20.0240 C   0  0  0  0  0  0  0  0  0  0  0  0
  -30.5450  -18.5630   19.2240 N   0  0  0  0  0  0  0  0  0  0  0  0
  -29.9060  -16.1440   20.1320 N   0  0  0  0  0  0  0  0  0  0  0  0
  -27.5530  -20.2320   21.5070 F   0  0  0  0  0  0  0  0  0  0  0  0
  -29.0720  -15.7860   20.5670 H   0  0  0  0  0  0  0  0  0  0  0  0
  -25.4700  -13.9810   20.3830 C   0  0  0  0  0  0  0  0  0  0  0  0
  -24.4210  -13.2160   20.8120 C   0  0  0  0  0  0  0  0  0  0  0  0
  -24.8470  -11.8580   20.6910 C   0  0  0  0  0  0  0  0  0  0  0  0
  -26.4670  -13.0910   20.0210 N   0  0  0  0  0  0  0  0  0  0  0  0
  -26.1060  -11.8060   20.2690 N   0  0  0  0  0  0  0  0  0  0  0  0
  -24.1080  -10.6050   20.8940 C   0  0  0  0  0  0  0  0  0  0  0  0
  -24.5420   -9.6320   21.8190 C   0  0  0  0  0  3  0  0  0  0  0  0
  -23.8030   -8.4450   22.0110 C   0  0  0  0  0  3  0  0  0  0  0  0
  -22.6140   -8.2220   21.2770 C   0  0  0  0  0  0  0  0  0  0  0  0
  -22.1970   -9.1840   20.3390 C   0  0  0  0  0  3  0  0  0  0  0  0
  -22.9380  -10.3630   20.1460 C   0  0  0  0  0  3  0  0  0  0  0  0
  -21.8450   -7.0880   21.3770 O   0  0  0  0  0  0  0  0  0  0  0  0
  -21.7310   -6.3990   22.5580 C   0  0  0  0  0  0  0  0  0  0  0  0
  -21.2440   -7.0110   23.7340 C   0  0  0  0  0  3  0  0  0  0  0  0
  -21.0770   -6.2490   24.9070 C   0  0  0  0  0  3  0  0  0  0  0  0
  -21.3860   -4.8750   24.9050 C   0  0  0  0  0  0  0  0  0  0  0  0
  -21.8660   -4.2630   23.7340 C   0  0  0  0  0  3  0  0  0  0  0  0
  -22.0350   -5.0230   22.5630 C   0  0  0  0  0  0  0  0  0  0  0  0
  -22.4770   -4.4230   21.4320 F   0  0  0  0  0  0  0  0  0  0  0  0
  -21.2180   -4.1410   26.0300 F   0  0  0  0  0  0  0  0  0  0  0  0
  -23.0640  -13.7130   21.2180 C   0  0  0  0  0  0  0  0  0  0  0  0
  -22.3970  -13.0060   22.1240 N   0  0  0  0  0  0  0  0  0  0  0  0
  -22.6070  -14.7620   20.7660 O   0  0  0  0  0  0  0  0  0  0  0  0
  -22.7820  -12.1570   22.5110 H   0  0  0  0  0  0  0  0  0  0  0  0
  -21.4900  -13.3200   22.4360 H   0  0  0  0  0  0  0  0  0  0  0  0
  -25.6510  -15.3550   20.2450 N   0  0  0  0  0  0  0  0  0  0  0  0
  -24.9050  -16.0130   20.4410 H   0  0  0  0  0  0  0  0  0  0  0  0
  -26.4500  -15.7880   19.8010 H   0  0  0  0  0  0  0  0  0  0  0  0
  -28.8260  -25.0920   18.0450 C   0  0  0  0  0  1  0  0  0  0  0  0
  -28.2830  -24.7990   19.4590 C   0  0  0  0  0  3  0  0  0  0  0  0
  -28.3390  -26.2040   20.1410 O   0  0  0  0  0  0  0  0  0  0  0  0
  -24.5020  -31.7550   23.1340 C   0  0  0  0  0  0  0  0  0  0  0  0
  -27.2620  -27.1710   20.0440 C   0  0  0  0  0  0  0  0  0  0  0  0
  -23.3650  -30.3500   21.4600 C   0  0  0  0  0  3  0  0  0  0  0  0
  -24.8780  -28.8530   20.0220 C   0  0  0  0  0  0  0  0  0  0  0  0
  -25.9120  -30.6940   21.3320 C   0  0  0  0  0  2  0  0  0  0  0  0
  -26.0360  -29.3170   20.6570 C   0  0  0  0  0  0  0  0  0  0  0  0
  -27.2240  -28.4890   20.6590 C   0  0  0  0  0  3  0  0  0  0  0  0
  -26.0730  -26.8250   19.3570 C   0  0  0  0  0  3  0  0  0  0  0  0
  -24.9100  -27.6210   19.3590 C   0  0  0  0  0  3  0  0  0  0  0  0
  -23.6220  -29.7090   20.0720 C   0  0  0  0  0  2  0  0  0  0  0  0
  -24.6120  -30.9540   22.0300 N   0  0  0  0  0  0  0  0  0  0  0  0
  -23.4010  -31.9970   23.6540 O   0  0  0  0  0  0  0  0  0  0  0  0
  -22.7090  -29.3030   22.3960 C   0  0  0  0  0  0  0  0  0  0  0  0
  -21.3890  -29.0920   22.2510 N   0  0  0  0  0  0  0  0  0  0  0  0
  -23.3900  -28.6860   23.2190 O   0  0  0  0  0  0  0  0  0  0  0  0
  -20.8930  -29.6430   21.5650 H   0  0  0  0  0  0  0  0  0  0  0  0
  -18.0410  -27.7830   22.7050 C   0  0  0  0  0  0  0  0  0  0  0  0
  -20.5880  -28.1170   22.9990 C   0  0  0  0  0  3  0  0  0  0  0  0
  -20.7370  -26.6990   22.4020 C   0  0  0  0  0  2  0  0  0  0  0  0
  -19.6540  -26.3600   21.3730 C   0  0  0  0  0  2  0  0  0  0  0  0
  -18.2640  -26.4520   22.0070 C   0  0  0  0  0  2  0  0  0  0  0  0
  -19.1310  -28.5720   23.1570 C   0  0  0  0  0  0  0  0  0  0  0  0
  -18.8680  -29.8160   23.7710 C   0  0  0  0  0  3  0  0  0  0  0  0
  -17.5470  -30.2720   23.9360 C   0  0  0  0  0  3  0  0  0  0  0  0
  -16.4700  -29.4800   23.4990 C   0  0  0  0  0  3  0  0  0  0  0  0
  -16.7180  -28.2390   22.8890 C   0  0  0  0  0  3  0  0  0  0  0  0
  -25.7520  -32.4210   23.7840 C   0  0  0  0  0  3  0  0  0  0  0  0
  -25.4020  -33.8150   24.1020 N   0  0  0  0  0  0  0  0  0  0  0  0
  -25.7100  -34.8740   23.3400 C   0  0  0  0  0  0  0  0  0  0  0  0
  -26.3860  -34.7820   22.3120 O   0  0  0  0  0  0  0  0  0  0  0  0
  -24.8010  -33.9580   24.9000 H   0  0  0  0  0  0  0  0  0  0  0  0
  -23.9300  -36.6180   22.9870 C   0  0  0  0  0  1  0  0  0  0  0  0
  -25.1890  -36.2530   23.7910 C   0  0  0  0  0  3  0  0  0  0  0  0
  -27.3010  -37.2090   24.6010 C   0  0  0  0  0  1  0  0  0  0  0  0
  -26.1910  -37.3330   23.6610 N   0  0  0  0  0  0  0  0  0  0  0  0
  -25.7590  -38.2430   23.7970 H   0  0  0  0  0  0  0  0  0  0  0  0
  -26.2500  -31.6710   25.0790 C   0  0  1  0  0  0  0  0  0  0  0  0
  -25.1340  -31.4180   26.1200 C   0  0  0  0  0  1  0  0  0  0  0  0
  -26.8740  -30.3030   24.7200 C   0  0  0  0  0  1  0  0  0  0  0  0
  -27.3650  -32.4950   25.7660 C   0  0  0  0  0  1  0  0  0  0  0  0
  1  4  2  0
  2  3  1  0
  3 15  1  0
  3  1  1  0
  5 11  1  0
  5 19  1  0
  6 11  1  0
  7  8  1  0
  7  6  1  0
  9  8  1  0
  9 25  1  0
  9 10  1  0
 11 10  1  0
 12  5  2  0
 14 18  2  0
 14 15  1  0
 15 16  2  0
 16 13  1  0
 16 20  1  0
 17 19  1  0
 17 13  2  0
 18 17  1  0
 19 21  1  0
 22 23  2  0
 23 42  1  0
 24 23  1  0
 24 27  1  0
 25 26  1  0
 25 22  1  0
 26 24  2  0
 27 28  1  0
 28 29  2  0
 30 33  1  0
 30 29  1  0
 31 30  2  0
 32 31  1  0
 32 27  2  0
 33 34  1  0
 34 39  2  0
 34 35  1  0
 35 36  2  0
 37 36  1  0
 37 41  1  0
 38 37  2  0
 39 38  1  0
 40 39  1  0
 42 43  1  0
 43 46  1  0
 43 45  1  0
 44 42  2  0
 47 22  1  0
 47 48  1  0
 49 47  1  0
 51 50  1  0
 51  1  1  0
 51 52  1  0
 53 64  2  0
 54 52  1  0
 54 59  1  0
 55 63  1  0
 55 65  1  0
 56 62  1  0
 56 58  1  0
 57 63  1  0
 58 59  2  0
 58 57  1  0
 60 61  1  0
 60 54  2  0
 61 56  2  0
 62 55  1  0
 63 53  1  0
 65 67  2  0
 66 65  1  0
 68 66  1  0
 69 78  2  0
 69 74  1  0
 70 66  1  0
 70 74  1  0
 71 70  1  0
 72 73  1  0
 72 71  1  0
 73 69  1  0
 74 75  2  0
 75 76  1  0
 77 76  2  0
 78 77  1  0
 79 53  1  0
 79 80  1  0
 79 89  1  0
 80 83  1  0
 81 85  1  0
 81 80  1  0
 82 81  2  0
 85 84  1  0
 87 85  1  0
 87 88  1  0
 87 86  1  0
 89 92  1  1
 89 90  1  0
 91 89  1  0
M  ISO  4   5 100  19 100  51 101  52 101
M  END
>  <TORSDO>  (76) 
F 17

>  <SCORE>  (76) 
-13.853

>  <name>  (76) 
76

>  <ligand_id>  (76) 
76

>  <original_smiles>  (76) 
[H]c1nc(N([H])C(=O)N2C([H])([H])C([H])([H])C([H])([H])C([H])(n3nc(-c4c([H])c([H])c(Oc5c([H])c([H])c(F)c([H])c5F)c([H])c4[H])c(C(=O)N([H])[H])c3N([H])[H])C2([H])[H])c([H])c(F)c1N(C(=O)C([H])(Oc1c([H])c([H])c2c(c1[H])C([H])([H])N(C(=O)C([H])(N([H])C(=O)C([H])(N([H])C([H])([H])[H])C([H])([H])[H])C(C([H])([H])[H])(C([H])([H])[H])C([H])([H])[H])C([H])(C(=O)N([H])C1([H])c3c([H])c([H])c([H])c([H])c3C([H])([H])C([H])([H])C1([H])[H])C2([H])[H])C([H])([H])[H])C([H])([H])[H]

>  <smiles>  (76) 
[H]c1nc(N([H])C(=O)N2C([H])([H])C([H])([H])C([H])([H])C([H])(n3nc(-c4c([H])c([H])c(Oc5c([H])c([H])c(F)c([H])c5F)c([H])c4[H])c(C(=O)N([H])[H])c3N([H])[H])C2([H])[H])c([H])c(F)c1N(C(=O)C([H])(Oc1c([H])c([H])c2c(c1[H])C([H])([H])N(C(=O)C([H])(N([H])C(=O)C([H])(N([H])C([H])([H])[H])C([H])([H])[H])C(C([H])([H])[H])(C([H])([H])[H])C([H])([H])[H])C([H])(C(=O)N([H])C1([H])c3c([H])c([H])c([H])c([H])c3C([H])([H])C([H])([H])C1([H])[H])C2([H])[H])C([H])([H])[H])C([H])([H])[H]

$$$$
77:0:0
     RDKit          3D

 95103  0  0  1  0  0  0  0  0999 V2000
  -30.6880  -21.3040   19.0820 C   0  0  0  0  0  0  0  0  0  0  0  0
  -30.1230  -22.0860   20.0140 N   0  0  0  0  0  0  0  0  0  0  0  0
  -31.4970  -21.7250   18.2470 O   0  0  0  0  0  0  0  0  0  0  0  0
  -29.4910  -21.6500   20.6710 H   0  0  0  0  0  0  0  0  0  0  0  0
  -30.0240  -19.9100   18.9500 C   0  0  0  0  0  0  0  0  0  0  0  0
  -29.3120  -19.7100   17.9610 O   0  0  0  0  0  0  0  0  0  0  0  0
  -30.4640  -18.8280   21.2870 C   0  0  0  0  0  3  0  0  0  0  0  0
  -30.5140  -17.5060   21.8320 C   0  0  0  0  0  3  0  0  0  0  0  0
  -30.2470  -18.8410   19.9280 C   0  0  0  0  0  0  0  0  0  0  0  0
  -30.3740  -16.5230   20.8830 C   0  0  0  0  0  0  0  0  0  0  0  0
  -30.1980  -17.2260   19.2880 S   0  0  0  0  0  0  0  0  0  0  0  0
  -30.8380  -14.2710   20.2830 C   0  0  0  0  0  0  0  0  0  0  0  0
  -30.3800  -12.2050   19.0220 C   0  0  0  0  0  2  0  0  0  0  0  0
  -29.4360  -12.5620   17.8520 C   0  0  0  0  0  2  0  0  0  0  0  0
  -27.9660  -12.4530   18.3050 C   0  0  0  0  0  2  0  0  0  0  0  0
  -27.6990  -13.2120   19.6310 C   0  0  0  0  0  3  0  0  0  0  0  0
  -28.7660  -12.8870   20.7010 C   0  0  0  0  0  2  0  0  0  0  0  0
  -30.1000  -13.1440   20.1200 N   0  0  0  0  0  0  0  0  0  0  0  0
  -31.9090  -14.4780   19.7020 O   0  0  0  0  0  0  0  0  0  0  0  0
  -30.2900  -15.1930   21.0910 N   0  0  0  0  0  0  0  0  0  0  0  0
  -29.4980  -14.8830   21.6330 H   0  0  0  0  0  0  0  0  0  0  0  0
  -25.3360  -13.8320   20.4160 C   0  0  0  0  0  0  0  0  0  0  0  0
  -24.2760  -13.0590   20.8170 C   0  0  0  0  0  0  0  0  0  0  0  0
  -24.7300  -11.7080   20.7690 C   0  0  0  0  0  0  0  0  0  0  0  0
  -26.3600  -12.9440   20.1380 N   0  0  0  0  0  0  0  0  0  0  0  0
  -26.0040  -11.6620   20.4040 N   0  0  0  0  0  0  0  0  0  0  0  0
  -24.0040  -10.4480   20.9830 C   0  0  0  0  0  0  0  0  0  0  0  0
  -24.4470   -9.4940   21.9240 C   0  0  0  0  0  3  0  0  0  0  0  0
  -23.7180   -8.3020   22.1260 C   0  0  0  0  0  3  0  0  0  0  0  0
  -22.5420   -8.0540   21.3840 C   0  0  0  0  0  0  0  0  0  0  0  0
  -22.1190   -8.9970   20.4290 C   0  0  0  0  0  3  0  0  0  0  0  0
  -22.8470  -10.1820   20.2250 C   0  0  0  0  0  3  0  0  0  0  0  0
  -21.7890   -6.9100   21.4920 O   0  0  0  0  0  0  0  0  0  0  0  0
  -21.7320   -6.1900   22.6590 C   0  0  0  0  0  0  0  0  0  0  0  0
  -21.2800   -6.7640   23.8660 C   0  0  0  0  0  3  0  0  0  0  0  0
  -21.1630   -5.9730   25.0230 C   0  0  0  0  0  3  0  0  0  0  0  0
  -21.4960   -4.6040   24.9790 C   0  0  0  0  0  0  0  0  0  0  0  0
  -21.9450   -4.0300   23.7760 C   0  0  0  0  0  3  0  0  0  0  0  0
  -22.0590   -4.8180   22.6190 C   0  0  0  0  0  0  0  0  0  0  0  0
  -22.4700   -4.2540   21.4580 F   0  0  0  0  0  0  0  0  0  0  0  0
  -21.3820   -3.8390   26.0890 F   0  0  0  0  0  0  0  0  0  0  0  0
  -22.8930  -13.5460   21.1390 C   0  0  0  0  0  0  0  0  0  0  0  0
  -22.1920  -12.8500   22.0260 N   0  0  0  0  0  0  0  0  0  0  0  0
  -22.4410  -14.5730   20.6370 O   0  0  0  0  0  0  0  0  0  0  0  0
  -22.5720  -12.0160   22.4510 H   0  0  0  0  0  0  0  0  0  0  0  0
  -21.2630  -13.1560   22.2800 H   0  0  0  0  0  0  0  0  0  0  0  0
  -25.5110  -15.2010   20.2470 N   0  0  0  0  0  0  0  0  0  0  0  0
  -24.7660  -15.8800   20.3740 H   0  0  0  0  0  0  0  0  0  0  0  0
  -26.3780  -15.6270   19.9400 H   0  0  0  0  0  0  0  0  0  0  0  0
  -29.9950  -23.5240   19.8020 C   0  0  0  0  0  2  0  0  0  0  0  0
  -30.1800  -24.9910   21.8290 C   0  0  0  0  0  1  0  0  0  0  0  0
  -28.3400  -23.3060   21.7810 C   0  0  0  0  0  1  0  0  0  0  0  0
  -29.1730  -24.2760   20.8960 C   0  0  2  0  0  0  0  0  0  0  0  0
  -28.1700  -25.2560   20.1900 C   0  0  0  0  0  2  0  0  0  0  0  0
  -28.3780  -26.6700   20.2730 O   0  0  0  0  0  0  0  0  0  0  0  0
  -24.5700  -31.8470   23.2290 C   0  0  0  0  0  0  0  0  0  0  0  0
  -27.2200  -27.4210   20.1660 C   0  0  0  0  0  0  0  0  0  0  0  0
  -23.3650  -30.4390   21.5940 C   0  0  0  0  0  3  0  0  0  0  0  0
  -24.8150  -28.9150   20.1650 C   0  0  0  0  0  0  0  0  0  0  0  0
  -25.8860  -30.8090   21.3920 C   0  0  0  0  0  2  0  0  0  0  0  0
  -25.9750  -29.4460   20.7420 C   0  0  0  0  0  0  0  0  0  0  0  0
  -27.1800  -28.7110   20.7270 C   0  0  0  0  0  3  0  0  0  0  0  0
  -26.0400  -26.9230   19.5540 C   0  0  0  0  0  3  0  0  0  0  0  0
  -24.8400  -27.6480   19.5680 C   0  0  0  0  0  3  0  0  0  0  0  0
  -23.5680  -29.7630   20.2150 C   0  0  0  0  0  2  0  0  0  0  0  0
  -24.6250  -31.0440   22.1280 N   0  0  0  0  0  0  0  0  0  0  0  0
  -23.4910  -32.1240   23.7660 O   0  0  0  0  0  0  0  0  0  0  0  0
  -22.7140  -29.4220   22.5530 C   0  0  0  0  0  0  0  0  0  0  0  0
  -21.3930  -29.2340   22.4130 N   0  0  0  0  0  0  0  0  0  0  0  0
  -23.3920  -28.8090   23.3840 O   0  0  0  0  0  0  0  0  0  0  0  0
  -20.9190  -29.7410   21.6800 H   0  0  0  0  0  0  0  0  0  0  0  0
  -18.0070  -28.1020   22.9370 C   0  0  0  0  0  0  0  0  0  0  0  0
  -20.5700  -28.3080   23.1860 C   0  0  0  0  0  3  0  0  0  0  0  0
  -20.6510  -26.8960   22.5710 C   0  0  0  0  0  2  0  0  0  0  0  0
  -19.5320  -26.6350   21.5620 C   0  0  0  0  0  2  0  0  0  0  0  0
  -18.1700  -26.7590   22.2480 C   0  0  0  0  0  2  0  0  0  0  0  0
  -19.1420  -28.8380   23.3640 C   0  0  0  0  0  0  0  0  0  0  0  0
  -18.9510  -30.0980   23.9720 C   0  0  0  0  0  3  0  0  0  0  0  0
  -17.6580  -30.6200   24.1550 C   0  0  0  0  0  3  0  0  0  0  0  0
  -16.5350  -29.8840   23.7380 C   0  0  0  0  0  3  0  0  0  0  0  0
  -16.7110  -28.6280   23.1310 C   0  0  0  0  0  3  0  0  0  0  0  0
  -25.8590  -32.4730   23.8470 C   0  0  0  0  0  3  0  0  0  0  0  0
  -25.5550  -33.8690   24.1780 N   0  0  0  0  0  0  0  0  0  0  0  0
  -25.8980  -34.9200   23.4170 C   0  0  0  0  0  0  0  0  0  0  0  0
  -26.5770  -34.8120   22.3930 O   0  0  0  0  0  0  0  0  0  0  0  0
  -24.9490  -34.0290   24.9670 H   0  0  0  0  0  0  0  0  0  0  0  0
  -24.1890  -36.7170   23.0280 C   0  0  0  0  0  1  0  0  0  0  0  0
  -25.4120  -36.3100   23.8650 C   0  0  0  0  0  3  0  0  0  0  0  0
  -27.5370  -37.1680   24.7400 C   0  0  0  0  0  1  0  0  0  0  0  0
  -26.4580  -37.3540   23.7710 N   0  0  0  0  0  0  0  0  0  0  0  0
  -26.0630  -38.2810   23.9050 H   0  0  0  0  0  0  0  0  0  0  0  0
  -26.3770  -31.7020   25.1230 C   0  0  1  0  0  0  0  0  0  0  0  0
  -25.2800  -31.4530   26.1860 C   0  0  0  0  0  1  0  0  0  0  0  0
  -26.9620  -30.3300   24.7230 C   0  0  0  0  0  1  0  0  0  0  0  0
  -27.5320  -32.4920   25.7830 C   0  0  0  0  0  1  0  0  0  0  0  0
  1  2  1  0
  2  4  1  0
  3  1  2  0
  5  1  1  0
  5  9  1  0
  6  5  2  0
  7  8  1  0
  9  7  2  0
 10 20  1  0
 10  8  2  0
 11  9  1  0
 11 10  1  0
 12 20  1  0
 13 18  1  0
 14 15  1  0
 14 13  1  0
 16 15  1  0
 16 25  1  0
 16 17  1  0
 18 12  1  0
 18 17  1  0
 19 12  2  0
 20 21  1  0
 22 23  2  0
 23 42  1  0
 24 23  1  0
 24 27  1  0
 25 26  1  0
 25 22  1  0
 26 24  2  0
 27 28  1  0
 28 29  2  0
 30 33  1  0
 30 29  1  0
 31 30  2  0
 32 31  1  0
 32 27  2  0
 33 34  1  0
 34 35  1  0
 35 36  2  0
 37 36  1  0
 37 41  1  0
 38 37  2  0
 39 34  2  0
 39 38  1  0
 40 39  1  0
 42 43  1  0
 43 46  1  0
 43 45  1  0
 44 42  2  0
 47 48  1  0
 47 22  1  0
 49 47  1  0
 50  2  1  0
 50 53  1  0
 53 52  1  1
 53 51  1  0
 54 55  1  0
 54 53  1  0
 56 67  2  0
 57 55  1  0
 57 62  1  0
 58 66  1  0
 58 68  1  0
 59 65  1  0
 59 61  1  0
 60 66  1  0
 61 60  1  0
 62 61  2  0
 63 64  1  0
 63 57  2  0
 64 59  2  0
 65 58  1  0
 66 56  1  0
 68 70  2  0
 69 68  1  0
 71 69  1  0
 72 81  2  0
 72 77  1  0
 73 69  1  0
 73 77  1  0
 74 73  1  0
 75 76  1  0
 75 74  1  0
 76 72  1  0
 77 78  2  0
 78 79  1  0
 80 79  2  0
 81 80  1  0
 82 56  1  0
 82 83  1  0
 82 92  1  0
 83 86  1  0
 84 88  1  0
 84 83  1  0
 85 84  2  0
 88 87  1  0
 90 88  1  0
 90 91  1  0
 90 89  1  0
 92 95  1  1
 92 93  1  0
 94 92  1  0
M  ISO  4  12 100  20 100  54 101  55 101
M  END
>  <TORSDO>  (77) 
F 21

>  <SCORE>  (77) 
-13.606

>  <name>  (77) 
77

>  <ligand_id>  (77) 
77

>  <original_smiles>  (77) 
[H]c1c(C(=O)C(=O)N([H])C([H])([H])C(C([H])([H])[H])(C([H])([H])[H])C([H])([H])Oc2c([H])c([H])c3c(c2[H])C([H])([H])N(C(=O)C([H])(N([H])C(=O)C([H])(N([H])C([H])([H])[H])C([H])([H])[H])C(C([H])([H])[H])(C([H])([H])[H])C([H])([H])[H])C([H])(C(=O)N([H])C2([H])c4c([H])c([H])c([H])c([H])c4C([H])([H])C([H])([H])C2([H])[H])C3([H])[H])sc(N([H])C(=O)N2C([H])([H])C([H])([H])C([H])([H])C([H])(n3nc(-c4c([H])c([H])c(Oc5c([H])c([H])c(F)c([H])c5F)c([H])c4[H])c(C(=O)N([H])[H])c3N([H])[H])C2([H])[H])c1[H]

>  <smiles>  (77) 
[H]c1c(C(=O)C(=O)N([H])C([H])([H])C(C([H])([H])[H])(C([H])([H])[H])C([H])([H])Oc2c([H])c([H])c3c(c2[H])C([H])([H])N(C(=O)C([H])(N([H])C(=O)C([H])(N([H])C([H])([H])[H])C([H])([H])[H])C(C([H])([H])[H])(C([H])([H])[H])C([H])([H])[H])C([H])(C(=O)N([H])C2([H])c4c([H])c([H])c([H])c([H])c4C([H])([H])C([H])([H])C2([H])[H])C3([H])[H])sc(N([H])C(=O)N2C([H])([H])C([H])([H])C([H])([H])C([H])(n3nc(-c4c([H])c([H])c(Oc5c([H])c([H])c(F)c([H])c5F)c([H])c4[H])c(C(=O)N([H])[H])c3N([H])[H])C2([H])[H])c1[H]

$$$$
78:0:0
     RDKit          3D

 94102  0  0  1  0  0  0  0  0999 V2000
  -28.8560  -19.3020   19.4770 C   0  0  0  0  0  3  0  0  0  0  0  0
  -28.5430  -20.6770   19.6880 C   0  0  0  0  0  3  0  0  0  0  0  0
  -29.7900  -18.6160   20.3040 C   0  0  0  0  0  0  0  0  0  0  0  0
  -29.1360  -21.4050   20.7480 C   0  0  0  0  0  0  0  0  0  0  0  0
  -30.2960  -19.4100   21.3650 C   0  0  0  0  0  0  0  0  0  0  0  0
  -28.5740  -23.9080   20.2590 C   0  0  0  0  0  0  0  0  0  0  0  0
  -29.9640  -20.7200   21.5820 N   0  0  0  0  0  0  0  0  0  0  0  0
  -28.8030  -22.7980   21.0360 N   0  0  0  0  0  0  0  0  0  0  0  0
  -28.6490  -23.8840   19.0270 O   0  0  0  0  0  0  0  0  0  0  0  0
  -31.2110  -18.8680   22.2010 F   0  0  0  0  0  0  0  0  0  0  0  0
  -28.8150  -23.0160   22.0210 H   0  0  0  0  0  0  0  0  0  0  0  0
  -30.5570  -17.1220   18.3680 C   0  0  0  0  0  1  0  0  0  0  0  0
  -30.4410  -17.2190   19.9070 C   0  0  0  0  0  3  0  0  0  0  0  0
  -30.7060  -14.7120   20.3570 C   0  0  0  0  0  0  0  0  0  0  0  0
  -30.4390  -12.4770   19.3240 C   0  0  0  0  0  2  0  0  0  0  0  0
  -29.5070  -12.6120   18.1010 C   0  0  0  0  0  2  0  0  0  0  0  0
  -28.0360  -12.4520   18.5290 C   0  0  0  0  0  2  0  0  0  0  0  0
  -27.6730  -13.3190   19.7660 C   0  0  0  0  0  3  0  0  0  0  0  0
  -28.7320  -13.2040   20.8840 C   0  0  0  0  0  2  0  0  0  0  0  0
  -30.0360  -13.5190   20.2920 N   0  0  0  0  0  0  0  0  0  0  0  0
  -31.9030  -14.7670   20.0680 O   0  0  0  0  0  0  0  0  0  0  0  0
  -29.9700  -15.8780   20.4390 N   0  0  0  0  0  0  0  0  0  0  0  0
  -28.9900  -15.7790   20.6540 H   0  0  0  0  0  0  0  0  0  0  0  0
  -25.2790  -13.9010   20.4820 C   0  0  0  0  0  0  0  0  0  0  0  0
  -24.2160  -13.1230   20.8520 C   0  0  0  0  0  0  0  0  0  0  0  0
  -24.6870  -11.7730   20.8290 C   0  0  0  0  0  0  0  0  0  0  0  0
  -26.3290  -13.0270   20.2540 N   0  0  0  0  0  0  0  0  0  0  0  0
  -25.9790  -11.7430   20.5250 N   0  0  0  0  0  0  0  0  0  0  0  0
  -23.9670  -10.5080   21.0200 C   0  0  0  0  0  0  0  0  0  0  0  0
  -24.3960   -9.5490   21.9640 C   0  0  0  0  0  3  0  0  0  0  0  0
  -23.6750   -8.3480   22.1440 C   0  0  0  0  0  3  0  0  0  0  0  0
  -22.5110   -8.0980   21.3790 C   0  0  0  0  0  0  0  0  0  0  0  0
  -22.1020   -9.0460   20.4240 C   0  0  0  0  0  3  0  0  0  0  0  0
  -22.8230  -10.2380   20.2420 C   0  0  0  0  0  3  0  0  0  0  0  0
  -21.7630   -6.9490   21.4680 O   0  0  0  0  0  0  0  0  0  0  0  0
  -21.7000   -6.2190   22.6270 C   0  0  0  0  0  0  0  0  0  0  0  0
  -21.2410   -6.7810   23.8380 C   0  0  0  0  0  3  0  0  0  0  0  0
  -21.1260   -5.9760   24.9890 C   0  0  0  0  0  3  0  0  0  0  0  0
  -21.4610   -4.6100   24.9290 C   0  0  0  0  0  0  0  0  0  0  0  0
  -21.9130   -4.0470   23.7240 C   0  0  0  0  0  3  0  0  0  0  0  0
  -22.0290   -4.8490   22.5750 C   0  0  0  0  0  0  0  0  0  0  0  0
  -22.4460   -4.2970   21.4100 F   0  0  0  0  0  0  0  0  0  0  0  0
  -21.3440   -3.8340   26.0320 F   0  0  0  0  0  0  0  0  0  0  0  0
  -22.8150  -13.5930   21.1150 C   0  0  0  0  0  0  0  0  0  0  0  0
  -22.0870  -12.8950   21.9800 N   0  0  0  0  0  0  0  0  0  0  0  0
  -22.3750  -14.6140   20.5910 O   0  0  0  0  0  0  0  0  0  0  0  0
  -22.4560  -12.0690   22.4280 H   0  0  0  0  0  0  0  0  0  0  0  0
  -21.1460  -13.1920   22.1990 H   0  0  0  0  0  0  0  0  0  0  0  0
  -25.4330  -15.2720   20.2990 N   0  0  0  0  0  0  0  0  0  0  0  0
  -24.6580  -15.9170   20.4000 H   0  0  0  0  0  0  0  0  0  0  0  0
  -26.2720  -15.7160   19.9470 H   0  0  0  0  0  0  0  0  0  0  0  0
  -28.9630  -25.4760   22.2880 C   0  0  0  0  0  1  0  0  0  0  0  0
  -28.1690  -25.2620   20.9880 C   0  0  0  0  0  3  0  0  0  0  0  0
  -28.3220  -26.5160   20.2140 O   0  0  0  0  0  0  0  0  0  0  0  0
  -24.5930  -31.9030   23.2560 C   0  0  0  0  0  0  0  0  0  0  0  0
  -27.2170  -27.3710   20.2030 C   0  0  0  0  0  0  0  0  0  0  0  0
  -23.3920  -30.4990   21.6170 C   0  0  0  0  0  3  0  0  0  0  0  0
  -24.8470  -28.9540   20.1900 C   0  0  0  0  0  0  0  0  0  0  0  0
  -25.9280  -30.8350   21.4260 C   0  0  0  0  0  2  0  0  0  0  0  0
  -26.0140  -29.4570   20.7830 C   0  0  0  0  0  0  0  0  0  0  0  0
  -27.2070  -28.6770   20.7780 C   0  0  0  0  0  3  0  0  0  0  0  0
  -26.0340  -26.9130   19.5890 C   0  0  0  0  0  3  0  0  0  0  0  0
  -24.8580  -27.6870   19.5840 C   0  0  0  0  0  3  0  0  0  0  0  0
  -23.6070  -29.8220   20.2370 C   0  0  0  0  0  2  0  0  0  0  0  0
  -24.6560  -31.0950   22.1570 N   0  0  0  0  0  0  0  0  0  0  0  0
  -23.5110  -32.1750   23.7930 O   0  0  0  0  0  0  0  0  0  0  0  0
  -22.7350  -29.4800   22.5780 C   0  0  0  0  0  0  0  0  0  0  0  0
  -21.4100  -29.3000   22.4530 N   0  0  0  0  0  0  0  0  0  0  0  0
  -23.4170  -28.8550   23.3960 O   0  0  0  0  0  0  0  0  0  0  0  0
  -20.9190  -29.8550   21.7670 H   0  0  0  0  0  0  0  0  0  0  0  0
  -18.0360  -28.0980   22.9580 C   0  0  0  0  0  0  0  0  0  0  0  0
  -20.5930  -28.3610   23.2250 C   0  0  0  0  0  3  0  0  0  0  0  0
  -20.6970  -26.9300   22.6490 C   0  0  0  0  0  2  0  0  0  0  0  0
  -19.5950  -26.6060   21.6360 C   0  0  0  0  0  2  0  0  0  0  0  0
  -18.2140  -26.7490   22.2820 C   0  0  0  0  0  2  0  0  0  0  0  0
  -19.1540  -28.8620   23.3860 C   0  0  0  0  0  0  0  0  0  0  0  0
  -18.9330  -30.1250   23.9780 C   0  0  0  0  0  3  0  0  0  0  0  0
  -17.6280  -30.6240   24.1460 C   0  0  0  0  0  3  0  0  0  0  0  0
  -16.5240  -29.8570   23.7330 C   0  0  0  0  0  3  0  0  0  0  0  0
  -16.7290  -28.5960   23.1450 C   0  0  0  0  0  3  0  0  0  0  0  0
  -25.8760  -32.5380   23.8760 C   0  0  0  0  0  3  0  0  0  0  0  0
  -25.5640  -33.9370   24.2040 N   0  0  0  0  0  0  0  0  0  0  0  0
  -25.8950  -34.9890   23.4440 C   0  0  0  0  0  0  0  0  0  0  0  0
  -26.5650  -34.8850   22.4130 O   0  0  0  0  0  0  0  0  0  0  0  0
  -24.9690  -34.0910   25.0050 H   0  0  0  0  0  0  0  0  0  0  0  0
  -24.1690  -36.7830   23.0820 C   0  0  0  0  0  1  0  0  0  0  0  0
  -25.4060  -36.3770   23.9000 C   0  0  0  0  0  3  0  0  0  0  0  0
  -27.5350  -37.2630   24.7440 C   0  0  0  0  0  1  0  0  0  0  0  0
  -26.4390  -37.4300   23.7930 N   0  0  0  0  0  0  0  0  0  0  0  0
  -26.0320  -38.3510   23.9370 H   0  0  0  0  0  0  0  0  0  0  0  0
  -26.3950  -31.7700   25.1540 C   0  0  1  0  0  0  0  0  0  0  0  0
  -25.3000  -31.5290   26.2210 C   0  0  0  0  0  1  0  0  0  0  0  0
  -26.9830  -30.3940   24.7640 C   0  0  0  0  0  1  0  0  0  0  0  0
  -27.5410  -32.5680   25.8160 C   0  0  0  0  0  1  0  0  0  0  0  0
  1  2  2  0
  1  3  1  0
  2  4  1  0
  3  5  2  0
  4  8  1  0
  4  7  2  0
  5  7  1  0
  5 10  1  0
  6 53  1  0
  6  8  1  0
  8 11  1  0
  9  6  2  0
 13 12  1  0
 13  3  1  0
 13 22  1  0
 14 22  1  0
 15 20  1  0
 16 17  1  0
 16 15  1  0
 18 17  1  0
 18 27  1  0
 18 19  1  0
 20 14  1  0
 20 19  1  0
 21 14  2  0
 22 23  1  0
 24 25  2  0
 25 44  1  0
 26 25  1  0
 26 29  1  0
 27 24  1  0
 27 28  1  0
 28 26  2  0
 29 30  1  0
 30 31  2  0
 32 35  1  0
 32 31  1  0
 33 32  2  0
 34 33  1  0
 34 29  2  0
 35 36  1  0
 36 37  1  0
 37 38  2  0
 39 38  1  0
 39 43  1  0
 40 39  2  0
 41 36  2  0
 41 40  1  0
 42 41  1  0
 44 45  1  0
 45 48  1  0
 45 47  1  0
 46 44  2  0
 49 50  1  0
 49 24  1  0
 51 49  1  0
 53 52  1  0
 54 53  1  0
 55 66  2  0
 56 54  1  0
 56 61  1  0
 57 65  1  0
 57 67  1  0
 58 64  1  0
 58 60  1  0
 59 65  1  0
 60 59  1  0
 61 60  2  0
 62 56  2  0
 63 62  1  0
 63 58  2  0
 64 57  1  0
 65 55  1  0
 67 69  2  0
 68 67  1  0
 70 68  1  0
 71 80  2  0
 71 76  1  0
 72 68  1  0
 72 76  1  0
 73 72  1  0
 74 75  1  0
 74 73  1  0
 75 71  1  0
 76 77  2  0
 77 78  1  0
 79 78  2  0
 80 79  1  0
 81 55  1  0
 81 82  1  0
 81 91  1  0
 82 85  1  0
 83 87  1  0
 83 82  1  0
 84 83  2  0
 87 86  1  0
 89 87  1  0
 89 90  1  0
 89 88  1  0
 91 94  1  1
 91 92  1  0
 93 91  1  0
M  ISO  4  14 100  22 100  53 101  54 101
M  END
>  <TORSDO>  (78) 
F 18

>  <SCORE>  (78) 
-14.895

>  <name>  (78) 
78

>  <ligand_id>  (78) 
78

>  <original_smiles>  (78) 
[H]c1c(N([H])C(=O)C([H])(Oc2c([H])c([H])c3c(c2[H])C([H])([H])N(C(=O)C([H])(N([H])C(=O)C([H])(N([H])C([H])([H])[H])C([H])([H])[H])C(C([H])([H])[H])(C([H])([H])[H])C([H])([H])[H])C([H])(C(=O)N([H])C2([H])c4c([H])c([H])c([H])c([H])c4C([H])([H])C([H])([H])C2([H])[H])C3([H])[H])C([H])([H])[H])nc(F)c(C([H])(N([H])C(=O)N2C([H])([H])C([H])([H])C([H])([H])C([H])(n3nc(-c4c([H])c([H])c(Oc5c([H])c([H])c(F)c([H])c5F)c([H])c4[H])c(C(=O)N([H])[H])c3N([H])[H])C2([H])[H])C([H])([H])[H])c1[H]

>  <smiles>  (78) 
[H]c1c(N([H])C(=O)C([H])(Oc2c([H])c([H])c3c(c2[H])C([H])([H])N(C(=O)C([H])(N([H])C(=O)C([H])(N([H])C([H])([H])[H])C([H])([H])[H])C(C([H])([H])[H])(C([H])([H])[H])C([H])([H])[H])C([H])(C(=O)N([H])C2([H])c4c([H])c([H])c([H])c([H])c4C([H])([H])C([H])([H])C2([H])[H])C3([H])[H])C([H])([H])[H])nc(F)c(C([H])(N([H])C(=O)N2C([H])([H])C([H])([H])C([H])([H])C([H])(n3nc(-c4c([H])c([H])c(Oc5c([H])c([H])c(F)c([H])c5F)c([H])c4[H])c(C(=O)N([H])[H])c3N([H])[H])C2([H])[H])C([H])([H])[H])c1[H]

$$$$
79:0:0
     RDKit          3D

 94102  0  0  1  0  0  0  0  0999 V2000
  -29.9330  -17.9480   18.7910 C   0  0  0  0  0  3  0  0  0  0  0  0
  -29.7220  -17.4660   20.0710 C   0  0  0  0  0  0  0  0  0  0  0  0
  -29.2580  -19.7630   19.9970 C   0  0  0  0  0  3  0  0  0  0  0  0
  -28.8260  -22.4970   20.0060 C   0  0  0  0  0  0  0  0  0  0  0  0
  -29.5540  -20.1070   17.4980 C   0  0  0  0  0  1  0  0  0  0  0  0
  -29.5940  -19.3110   18.7490 N   0  0  0  0  0  0  0  0  0  0  0  0
  -29.3020  -18.6230   20.7810 N   0  0  0  0  0  0  0  0  0  0  0  0
  -28.8280  -21.1540   20.4640 N   0  0  0  0  0  0  0  0  0  0  0  0
  -29.2850  -22.8160   18.9090 O   0  0  0  0  0  0  0  0  0  0  0  0
  -29.0390  -18.6030   21.7590 H   0  0  0  0  0  0  0  0  0  0  0  0
  -28.4270  -21.1370   21.3960 H   0  0  0  0  0  0  0  0  0  0  0  0
  -30.5030  -14.8760   20.3130 C   0  0  0  0  0  0  0  0  0  0  0  0
  -30.3720  -12.5520   19.3680 C   0  0  0  0  0  2  0  0  0  0  0  0
  -29.4240  -12.5770   18.1470 C   0  0  0  0  0  2  0  0  0  0  0  0
  -27.9520  -12.3980   18.5750 C   0  0  0  0  0  2  0  0  0  0  0  0
  -27.5730  -13.2870   19.7920 C   0  0  0  0  0  3  0  0  0  0  0  0
  -28.6400  -13.2210   20.9110 C   0  0  0  0  0  2  0  0  0  0  0  0
  -29.9270  -13.6140   20.3120 N   0  0  0  0  0  0  0  0  0  0  0  0
  -31.6990  -14.9710   20.0160 O   0  0  0  0  0  0  0  0  0  0  0  0
  -29.6890  -16.0080   20.5080 N   0  0  0  0  0  0  0  0  0  0  0  0
  -28.8000  -15.7390   20.9000 H   0  0  0  0  0  0  0  0  0  0  0  0
  -25.1880  -13.8810   20.5110 C   0  0  0  0  0  0  0  0  0  0  0  0
  -24.1200  -13.1110   20.8830 C   0  0  0  0  0  0  0  0  0  0  0  0
  -24.5840  -11.7590   20.8600 C   0  0  0  0  0  0  0  0  0  0  0  0
  -26.2310  -13.0000   20.2840 N   0  0  0  0  0  0  0  0  0  0  0  0
  -25.8760  -11.7170   20.5560 N   0  0  0  0  0  0  0  0  0  0  0  0
  -23.8540  -10.4990   21.0510 C   0  0  0  0  0  0  0  0  0  0  0  0
  -24.2780   -9.5300   21.9880 C   0  0  0  0  0  3  0  0  0  0  0  0
  -23.5450   -8.3350   22.1630 C   0  0  0  0  0  3  0  0  0  0  0  0
  -22.3780   -8.1020   21.3990 C   0  0  0  0  0  0  0  0  0  0  0  0
  -21.9770   -9.0570   20.4480 C   0  0  0  0  0  3  0  0  0  0  0  0
  -22.7070  -10.2420   20.2700 C   0  0  0  0  0  3  0  0  0  0  0  0
  -21.6210   -6.9590   21.4830 O   0  0  0  0  0  0  0  0  0  0  0  0
  -21.5620   -6.2120   22.6340 C   0  0  0  0  0  0  0  0  0  0  0  0
  -21.1340   -6.7700   23.8600 C   0  0  0  0  0  3  0  0  0  0  0  0
  -21.0190   -5.9550   25.0040 C   0  0  0  0  0  3  0  0  0  0  0  0
  -21.3270   -4.5820   24.9250 C   0  0  0  0  0  0  0  0  0  0  0  0
  -21.7450   -4.0210   23.7050 C   0  0  0  0  0  3  0  0  0  0  0  0
  -21.8600   -4.8350   22.5620 C   0  0  0  0  0  0  0  0  0  0  0  0
  -22.2470   -4.2890   21.3850 F   0  0  0  0  0  0  0  0  0  0  0  0
  -21.2110   -3.7980   26.0220 F   0  0  0  0  0  0  0  0  0  0  0  0
  -22.7220  -13.5890   21.1420 C   0  0  0  0  0  0  0  0  0  0  0  0
  -21.9850  -12.8960   22.0030 N   0  0  0  0  0  0  0  0  0  0  0  0
  -22.2890  -14.6120   20.6170 O   0  0  0  0  0  0  0  0  0  0  0  0
  -22.3580  -12.0750   22.4540 H   0  0  0  0  0  0  0  0  0  0  0  0
  -21.0410  -13.1890   22.2150 H   0  0  0  0  0  0  0  0  0  0  0  0
  -25.3550  -15.2530   20.3160 N   0  0  0  0  0  0  0  0  0  0  0  0
  -24.5700  -15.8930   20.3880 H   0  0  0  0  0  0  0  0  0  0  0  0
  -26.1520  -15.6610   19.8500 H   0  0  0  0  0  0  0  0  0  0  0  0
  -27.9720  -24.9260   20.9920 C   0  0  0  0  0  3  0  0  0  0  0  0
  -28.1900  -23.5180   20.9650 C   0  0  0  0  0  0  0  0  0  0  0  0
  -27.7300  -22.9090   22.0770 O   0  0  0  0  0  0  0  0  0  0  0  0
  -27.5030  -23.5750   22.7120 H   0  0  0  0  0  0  0  0  0  0  0  0
  -28.2350  -26.1480   20.2520 O   0  0  0  0  0  0  0  0  0  0  0  0
  -24.6230  -31.8690   23.2260 C   0  0  0  0  0  0  0  0  0  0  0  0
  -27.2210  -27.1660   20.2240 C   0  0  0  0  0  0  0  0  0  0  0  0
  -23.4350  -30.4610   21.5900 C   0  0  0  0  0  3  0  0  0  0  0  0
  -24.8940  -28.8890   20.1760 C   0  0  0  0  0  0  0  0  0  0  0  0
  -25.9840  -30.7370   21.4310 C   0  0  0  0  0  2  0  0  0  0  0  0
  -26.0700  -29.3410   20.7940 C   0  0  0  0  0  0  0  0  0  0  0  0
  -27.2380  -28.4970   20.8060 C   0  0  0  0  0  3  0  0  0  0  0  0
  -26.0290  -26.8070   19.5720 C   0  0  0  0  0  3  0  0  0  0  0  0
  -24.8850  -27.6350   19.5450 C   0  0  0  0  0  3  0  0  0  0  0  0
  -23.6610  -29.7770   20.2160 C   0  0  0  0  0  2  0  0  0  0  0  0
  -24.7000  -31.0430   22.1370 N   0  0  0  0  0  0  0  0  0  0  0  0
  -23.5390  -32.1520   23.7520 O   0  0  0  0  0  0  0  0  0  0  0  0
  -22.7610  -29.4510   22.5530 C   0  0  0  0  0  0  0  0  0  0  0  0
  -21.4370  -29.2750   22.4230 N   0  0  0  0  0  0  0  0  0  0  0  0
  -23.4330  -28.8300   23.3820 O   0  0  0  0  0  0  0  0  0  0  0  0
  -20.9570  -29.8270   21.7250 H   0  0  0  0  0  0  0  0  0  0  0  0
  -18.0570  -28.0700   22.9090 C   0  0  0  0  0  0  0  0  0  0  0  0
  -20.6120  -28.3380   23.1900 C   0  0  0  0  0  3  0  0  0  0  0  0
  -20.7210  -26.9040   22.6220 C   0  0  0  0  0  2  0  0  0  0  0  0
  -19.6250  -26.5750   21.6020 C   0  0  0  0  0  2  0  0  0  0  0  0
  -18.2400  -26.7170   22.2390 C   0  0  0  0  0  2  0  0  0  0  0  0
  -19.1710  -28.8390   23.3390 C   0  0  0  0  0  0  0  0  0  0  0  0
  -18.9450  -30.1010   23.9290 C   0  0  0  0  0  3  0  0  0  0  0  0
  -17.6370  -30.5950   24.0930 C   0  0  0  0  0  3  0  0  0  0  0  0
  -16.5380  -29.8270   23.6770 C   0  0  0  0  0  3  0  0  0  0  0  0
  -16.7490  -28.5660   23.0910 C   0  0  0  0  0  3  0  0  0  0  0  0
  -25.8980  -32.5100   23.8510 C   0  0  0  0  0  3  0  0  0  0  0  0
  -25.5790  -33.9060   24.1850 N   0  0  0  0  0  0  0  0  0  0  0  0
  -25.9030  -34.9670   23.4310 C   0  0  0  0  0  0  0  0  0  0  0  0
  -26.5740  -34.8720   22.3990 O   0  0  0  0  0  0  0  0  0  0  0  0
  -24.9800  -34.0480   24.9860 H   0  0  0  0  0  0  0  0  0  0  0  0
  -24.1620  -36.7510   23.0840 C   0  0  0  0  0  1  0  0  0  0  0  0
  -25.4060  -36.3480   23.8940 C   0  0  0  0  0  3  0  0  0  0  0  0
  -27.5340  -37.2480   24.7260 C   0  0  0  0  0  1  0  0  0  0  0  0
  -26.4320  -37.4090   23.7820 N   0  0  0  0  0  0  0  0  0  0  0  0
  -26.0210  -38.3290   23.9240 H   0  0  0  0  0  0  0  0  0  0  0  0
  -26.4080  -31.7430   25.1350 C   0  0  1  0  0  0  0  0  0  0  0  0
  -25.3060  -31.5130   26.1950 C   0  0  0  0  0  1  0  0  0  0  0  0
  -26.9970  -30.3630   24.7560 C   0  0  0  0  0  1  0  0  0  0  0  0
  -27.5530  -32.5420   25.8030 C   0  0  0  0  0  1  0  0  0  0  0  0
  1  2  2  0
  2 20  1  0
  2  7  1  0
  3  8  1  0
  3  7  1  0
  4  8  1  0
  4 51  1  0
  5  6  1  0
  6  1  1  0
  6  3  1  0
  7 10  1  0
  8 11  1  0
  9  4  2  0
 12 20  1  0
 13 18  1  0
 14 15  1  0
 14 13  1  0
 16 15  1  0
 16 25  1  0
 16 17  1  0
 18 12  1  0
 18 17  1  0
 19 12  2  0
 20 21  1  0
 22 23  2  0
 23 42  1  0
 24 23  1  0
 24 27  1  0
 25 22  1  0
 25 26  1  0
 26 24  2  0
 27 28  1  0
 28 29  2  0
 30 33  1  0
 30 29  1  0
 31 30  2  0
 32 31  1  0
 32 27  2  0
 33 34  1  0
 34 35  1  0
 35 36  2  0
 37 36  1  0
 37 41  1  0
 38 37  2  0
 39 34  2  0
 39 38  1  0
 40 39  1  0
 42 43  1  0
 43 46  1  0
 43 45  1  0
 44 42  2  0
 47 48  1  0
 47 22  1  0
 49 47  1  0
 51 50  2  0
 51 52  1  0
 52 53  1  0
 54 50  1  0
 55 66  2  0
 56 54  1  0
 56 61  1  0
 57 65  1  0
 57 67  1  0
 58 64  1  0
 58 60  1  0
 59 65  1  0
 60 61  2  0
 60 59  1  0
 62 56  2  0
 63 62  1  0
 63 58  2  0
 64 57  1  0
 65 55  1  0
 67 69  2  0
 68 67  1  0
 70 68  1  0
 71 80  2  0
 71 76  1  0
 72 68  1  0
 72 76  1  0
 73 72  1  0
 74 75  1  0
 74 73  1  0
 75 71  1  0
 76 77  2  0
 77 78  1  0
 79 78  2  0
 80 79  1  0
 81 55  1  0
 81 82  1  0
 81 91  1  0
 82 85  1  0
 83 87  1  0
 83 82  1  0
 84 83  2  0
 87 86  1  0
 89 87  1  0
 89 90  1  0
 89 88  1  0
 91 94  1  1
 91 92  1  0
 93 91  1  0
M  ISO  4  12 100  20 100  50 101  54 101
M  END
>  <TORSDO>  (79) 
F 18

>  <SCORE>  (79) 
-15.213

>  <name>  (79) 
79

>  <ligand_id>  (79) 
79

>  <original_smiles>  (79) 
[H]OC(C(=O)N([H])c1n(C([H])([H])[H])c([H])c(N([H])C(=O)N2C([H])([H])C([H])([H])C([H])([H])C([H])(n3nc(-c4c([H])c([H])c(Oc5c([H])c([H])c(F)c([H])c5F)c([H])c4[H])c(C(=O)N([H])[H])c3N([H])[H])C2([H])[H])[n+]1[H])=C([H])Oc1c([H])c([H])c2c(c1[H])C([H])([H])N(C(=O)C([H])(N([H])C(=O)C([H])(N([H])C([H])([H])[H])C([H])([H])[H])C(C([H])([H])[H])(C([H])([H])[H])C([H])([H])[H])C([H])(C(=O)N([H])C1([H])c3c([H])c([H])c([H])c([H])c3C([H])([H])C([H])([H])C1([H])[H])C2([H])[H]

>  <smiles>  (79) 
[H]OC(C(=O)N([H])c1n(C([H])([H])[H])c([H])c(N([H])C(=O)N2C([H])([H])C([H])([H])C([H])([H])C([H])(n3nc(-c4c([H])c([H])c(Oc5c([H])c([H])c(F)c([H])c5F)c([H])c4[H])c(C(=O)N([H])[H])c3N([H])[H])C2([H])[H])[n+]1[H])=C([H])Oc1c([H])c([H])c2c(c1[H])C([H])([H])N(C(=O)C([H])(N([H])C(=O)C([H])(N([H])C([H])([H])[H])C([H])([H])[H])C(C([H])([H])[H])(C([H])([H])[H])C([H])([H])[H])C([H])(C(=O)N([H])C1([H])c3c([H])c([H])c([H])c([H])c3C([H])([H])C([H])([H])C1([H])[H])C2([H])[H]

$$$$
80:0:0
     RDKit          3D

 96104  0  0  1  0  0  0  0  0999 V2000
  -28.6780  -20.3800   21.1760 N   0  0  0  0  0  0  0  0  0  0  0  0
  -28.1690  -20.0490   21.9920 H   0  0  0  0  0  0  0  0  0  0  0  0
  -29.3630  -18.0310   20.9370 C   0  0  0  0  0  3  0  0  0  0  0  0
  -29.9160  -16.9440   20.2000 C   0  0  0  0  0  0  0  0  0  0  0  0
  -29.2950  -19.3570   20.4080 C   0  0  0  0  0  0  0  0  0  0  0  0
  -30.3780  -17.2080   18.8820 C   0  0  0  0  0  0  0  0  0  0  0  0
  -29.8000  -19.5780   19.1050 C   0  0  0  0  0  0  0  0  0  0  0  0
  -30.3370  -18.5130   18.3570 C   0  0  0  0  0  0  0  0  0  0  0  0
  -30.8160  -16.2110   18.0760 F   0  0  0  0  0  0  0  0  0  0  0  0
  -29.7340  -20.8000   18.5250 F   0  0  0  0  0  0  0  0  0  0  0  0
  -30.7850  -18.7410   17.0970 F   0  0  0  0  0  0  0  0  0  0  0  0
  -30.6770  -14.5560   20.4040 C   0  0  0  0  0  0  0  0  0  0  0  0
  -30.4280  -12.3680   19.3040 C   0  0  0  0  0  2  0  0  0  0  0  0
  -29.4850  -12.5610   18.0960 C   0  0  0  0  0  2  0  0  0  0  0  0
  -28.0070  -12.4320   18.5190 C   0  0  0  0  0  2  0  0  0  0  0  0
  -27.6660  -13.2630   19.7840 C   0  0  0  0  0  3  0  0  0  0  0  0
  -28.7200  -13.0430   20.8920 C   0  0  0  0  0  2  0  0  0  0  0  0
  -30.0430  -13.3550   20.3280 N   0  0  0  0  0  0  0  0  0  0  0  0
  -31.8450  -14.7110   20.0350 O   0  0  0  0  0  0  0  0  0  0  0  0
  -29.8960  -15.6070   20.7520 N   0  0  0  0  0  0  0  0  0  0  0  0
  -29.0590  -15.3620   21.2590 H   0  0  0  0  0  0  0  0  0  0  0  0
  -25.2640  -13.8710   20.4760 C   0  0  0  0  0  0  0  0  0  0  0  0
  -24.1950  -13.0990   20.8470 C   0  0  0  0  0  0  0  0  0  0  0  0
  -24.6590  -11.7480   20.8310 C   0  0  0  0  0  0  0  0  0  0  0  0
  -26.3120  -12.9890   20.2590 N   0  0  0  0  0  0  0  0  0  0  0  0
  -25.9520  -11.7080   20.5300 N   0  0  0  0  0  0  0  0  0  0  0  0
  -23.9360  -10.4860   21.0290 C   0  0  0  0  0  0  0  0  0  0  0  0
  -24.3750   -9.5210   21.9630 C   0  0  0  0  0  3  0  0  0  0  0  0
  -23.6520   -8.3230   22.1470 C   0  0  0  0  0  3  0  0  0  0  0  0
  -22.4760   -8.0810   21.3980 C   0  0  0  0  0  0  0  0  0  0  0  0
  -22.0560   -9.0350   20.4530 C   0  0  0  0  0  3  0  0  0  0  0  0
  -22.7800  -10.2240   20.2670 C   0  0  0  0  0  3  0  0  0  0  0  0
  -21.7230   -6.9350   21.4930 O   0  0  0  0  0  0  0  0  0  0  0  0
  -21.6880   -6.1890   22.6430 C   0  0  0  0  0  0  0  0  0  0  0  0
  -21.2730   -6.7410   23.8760 C   0  0  0  0  0  3  0  0  0  0  0  0
  -21.1850   -5.9210   25.0190 C   0  0  0  0  0  3  0  0  0  0  0  0
  -21.5020   -4.5530   24.9320 C   0  0  0  0  0  0  0  0  0  0  0  0
  -21.9110   -4.0010   23.7050 C   0  0  0  0  0  3  0  0  0  0  0  0
  -22.0010   -4.8170   22.5630 C   0  0  0  0  0  0  0  0  0  0  0  0
  -22.3740   -4.2770   21.3790 F   0  0  0  0  0  0  0  0  0  0  0  0
  -21.4100   -3.7640   26.0280 F   0  0  0  0  0  0  0  0  0  0  0  0
  -22.7960  -13.5750   21.1080 C   0  0  0  0  0  0  0  0  0  0  0  0
  -22.0650  -12.8860   21.9780 N   0  0  0  0  0  0  0  0  0  0  0  0
  -22.3560  -14.5930   20.5760 O   0  0  0  0  0  0  0  0  0  0  0  0
  -22.4320  -12.0620   22.4320 H   0  0  0  0  0  0  0  0  0  0  0  0
  -21.1260  -13.1870   22.1960 H   0  0  0  0  0  0  0  0  0  0  0  0
  -25.4310  -15.2390   20.2860 N   0  0  0  0  0  0  0  0  0  0  0  0
  -24.6650  -15.8990   20.3710 H   0  0  0  0  0  0  0  0  0  0  0  0
  -26.2840  -15.6690   19.9510 H   0  0  0  0  0  0  0  0  0  0  0  0
  -30.6480  -21.9400   21.3630 C   0  0  0  0  0  1  0  0  0  0  0  0
  -29.1180  -21.7910   21.2850 C   0  0  0  0  0  3  0  0  0  0  0  0
  -28.4380  -22.8000   20.2960 C   0  0  0  0  0  2  0  0  0  0  0  0
  -28.3900  -24.2840   20.7580 C   0  0  0  0  0  0  0  0  0  0  0  0
  -28.1880  -24.5750   21.9420 O   0  0  0  0  0  0  0  0  0  0  0  0
  -28.5960  -25.3890   19.6900 C   0  0  0  0  0  2  0  0  0  0  0  0
  -28.4910  -26.7330   20.2250 O   0  0  0  0  0  0  0  0  0  0  0  0
  -24.6080  -31.9010   23.2440 C   0  0  0  0  0  0  0  0  0  0  0  0
  -27.2950  -27.4360   20.1910 C   0  0  0  0  0  0  0  0  0  0  0  0
  -23.4230  -30.4910   21.5950 C   0  0  0  0  0  3  0  0  0  0  0  0
  -24.8930  -28.9540   20.1850 C   0  0  0  0  0  0  0  0  0  0  0  0
  -25.9510  -30.8530   21.4170 C   0  0  0  0  0  2  0  0  0  0  0  0
  -26.0460  -29.4780   20.7800 C   0  0  0  0  0  0  0  0  0  0  0  0
  -27.2470  -28.7280   20.7750 C   0  0  0  0  0  3  0  0  0  0  0  0
  -26.1140  -26.9280   19.6010 C   0  0  0  0  0  3  0  0  0  0  0  0
  -24.9230  -27.6800   19.5950 C   0  0  0  0  0  3  0  0  0  0  0  0
  -23.6480  -29.8110   20.2180 C   0  0  0  0  0  2  0  0  0  0  0  0
  -24.6790  -31.0970   22.1440 N   0  0  0  0  0  0  0  0  0  0  0  0
  -23.5220  -32.1700   23.7740 O   0  0  0  0  0  0  0  0  0  0  0  0
  -22.7670  -29.4680   22.5530 C   0  0  0  0  0  0  0  0  0  0  0  0
  -21.4440  -29.2820   22.4150 N   0  0  0  0  0  0  0  0  0  0  0  0
  -23.4460  -28.8470   23.3750 O   0  0  0  0  0  0  0  0  0  0  0  0
  -20.9580  -29.8380   21.7270 H   0  0  0  0  0  0  0  0  0  0  0  0
  -18.0700  -28.0730   22.8870 C   0  0  0  0  0  0  0  0  0  0  0  0
  -20.6240  -28.3410   23.1790 C   0  0  0  0  0  3  0  0  0  0  0  0
  -20.7360  -26.9100   22.6050 C   0  0  0  0  0  2  0  0  0  0  0  0
  -19.6440  -26.5820   21.5820 C   0  0  0  0  0  2  0  0  0  0  0  0
  -18.2560  -26.7240   22.2150 C   0  0  0  0  0  2  0  0  0  0  0  0
  -19.1820  -28.8390   23.3260 C   0  0  0  0  0  0  0  0  0  0  0  0
  -18.9550  -30.1030   23.9140 C   0  0  0  0  0  3  0  0  0  0  0  0
  -17.6470  -30.6000   24.0690 C   0  0  0  0  0  3  0  0  0  0  0  0
  -16.5480  -29.8310   23.6460 C   0  0  0  0  0  3  0  0  0  0  0  0
  -16.7610  -28.5700   23.0600 C   0  0  0  0  0  3  0  0  0  0  0  0
  -25.8870  -32.5390   23.8740 C   0  0  0  0  0  3  0  0  0  0  0  0
  -25.5740  -33.9400   24.1860 N   0  0  0  0  0  0  0  0  0  0  0  0
  -25.9110  -34.9840   23.4180 C   0  0  0  0  0  0  0  0  0  0  0  0
  -26.5920  -34.8690   22.3940 O   0  0  0  0  0  0  0  0  0  0  0  0
  -24.9740  -34.1020   24.9810 H   0  0  0  0  0  0  0  0  0  0  0  0
  -24.1850  -36.7710   23.0250 C   0  0  0  0  0  1  0  0  0  0  0  0
  -25.4180  -36.3770   23.8540 C   0  0  0  0  0  3  0  0  0  0  0  0
  -27.5420  -37.2740   24.6990 C   0  0  0  0  0  1  0  0  0  0  0  0
  -26.4500  -37.4300   23.7410 N   0  0  0  0  0  0  0  0  0  0  0  0
  -26.0410  -38.3510   23.8730 H   0  0  0  0  0  0  0  0  0  0  0  0
  -26.3900  -31.7800   25.1630 C   0  0  1  0  0  0  0  0  0  0  0  0
  -25.2860  -31.5540   26.2220 C   0  0  0  0  0  1  0  0  0  0  0  0
  -26.9760  -30.3990   24.7890 C   0  0  0  0  0  1  0  0  0  0  0  0
  -27.5320  -32.5800   25.8310 C   0  0  0  0  0  1  0  0  0  0  0  0
  1 51  1  0
  1  2  1  0
  4 20  1  0
  4  3  2  0
  5  3  1  0
  5  1  1  0
  6  4  1  0
  7  5  2  0
  8  6  2  0
  8  7  1  0
  9  6  1  0
 10  7  1  0
 11  8  1  0
 12 20  1  0
 13 18  1  0
 14 15  1  0
 14 13  1  0
 16 15  1  0
 16 25  1  0
 16 17  1  0
 18 12  1  0
 18 17  1  0
 19 12  2  0
 20 21  1  0
 22 23  2  0
 23 42  1  0
 24 23  1  0
 24 27  1  0
 25 22  1  0
 25 26  1  0
 26 24  2  0
 27 28  1  0
 28 29  2  0
 30 33  1  0
 30 29  1  0
 31 30  2  0
 32 31  1  0
 32 27  2  0
 33 34  1  0
 34 35  1  0
 35 36  2  0
 37 36  1  0
 37 41  1  0
 38 37  2  0
 39 34  2  0
 39 38  1  0
 40 39  1  0
 42 43  1  0
 43 46  1  0
 43 45  1  0
 44 42  2  0
 47 48  1  0
 47 22  1  0
 49 47  1  0
 51 50  1  0
 52 53  1  0
 52 51  1  0
 53 54  2  0
 55 56  1  0
 55 53  1  0
 57 68  2  0
 58 56  1  0
 58 63  1  0
 59 67  1  0
 59 69  1  0
 60 66  1  0
 60 62  1  0
 61 67  1  0
 62 61  1  0
 63 62  2  0
 64 58  2  0
 65 64  1  0
 65 60  2  0
 66 59  1  0
 67 57  1  0
 69 71  2  0
 70 69  1  0
 72 70  1  0
 73 82  2  0
 73 78  1  0
 74 70  1  0
 74 78  1  0
 75 74  1  0
 76 77  1  0
 76 75  1  0
 77 73  1  0
 78 79  2  0
 79 80  1  0
 81 80  2  0
 82 81  1  0
 83 57  1  0
 83 84  1  0
 83 93  1  0
 84 87  1  0
 85 89  1  0
 85 84  1  0
 86 85  2  0
 89 88  1  0
 91 89  1  0
 91 92  1  0
 91 90  1  0
 93 96  1  1
 93 94  1  0
 95 93  1  0
M  ISO  4  12 100  20 100  55 101  56 101
M  END
>  <TORSDO>  (80) 
F 21

>  <SCORE>  (80) 
-13.889

>  <name>  (80) 
80

>  <ligand_id>  (80) 
80

>  <original_smiles>  (80) 
[H]c1c([H])c([H])c2c(c1[H])C([H])([H])C([H])([H])C([H])([H])C2([H])N([H])C(=O)C1([H])N(C(=O)C([H])(N([H])C(=O)C([H])(N([H])C([H])([H])[H])C([H])([H])[H])C(C([H])([H])[H])(C([H])([H])[H])C([H])([H])[H])C([H])([H])c2c([H])c(OC([H])([H])C(=O)C([H])([H])C([H])(N([H])c3c([H])c(N([H])C(=O)N4C([H])([H])C([H])([H])C([H])([H])C([H])(n5nc(-c6c([H])c([H])c(Oc7c([H])c([H])c(F)c([H])c7F)c([H])c6[H])c(C(=O)N([H])[H])c5N([H])[H])C4([H])[H])c(F)c(F)c3F)C([H])([H])[H])c([H])c([H])c2C1([H])[H]

>  <smiles>  (80) 
[H]c1c([H])c([H])c2c(c1[H])C([H])([H])C([H])([H])C([H])([H])C2([H])N([H])C(=O)C1([H])N(C(=O)C([H])(N([H])C(=O)C([H])(N([H])C([H])([H])[H])C([H])([H])[H])C(C([H])([H])[H])(C([H])([H])[H])C([H])([H])[H])C([H])([H])c2c([H])c(OC([H])([H])C(=O)C([H])([H])C([H])(N([H])c3c([H])c(N([H])C(=O)N4C([H])([H])C([H])([H])C([H])([H])C([H])(n5nc(-c6c([H])c([H])c(Oc7c([H])c([H])c(F)c([H])c7F)c([H])c6[H])c(C(=O)N([H])[H])c5N([H])[H])C4([H])[H])c(F)c(F)c3F)C([H])([H])[H])c([H])c([H])c2C1([H])[H]

$$$$
81:0:0
     RDKit          3D

 97105  0  0  1  0  0  0  0  0999 V2000
  -29.0090  -16.7840   19.0230 C   0  0  0  0  0  3  0  0  0  0  0  0
  -29.7120  -16.9670   20.2220 C   0  0  0  0  0  0  0  0  0  0  0  0
  -28.4900  -17.9010   18.3740 C   0  0  0  0  0  0  0  0  0  0  0  0
  -29.4440  -19.2880   19.9240 C   0  0  0  0  0  0  0  0  0  0  0  0
  -29.4570  -21.5560   20.8870 C   0  0  0  0  0  0  0  0  0  0  0  0
  -29.9370  -18.2510   20.6450 N   0  0  0  0  0  0  0  0  0  0  0  0
  -28.7000  -19.1410   18.8300 N   0  0  0  0  0  0  0  0  0  0  0  0
  -29.9950  -20.5730   20.0600 N   0  0  0  0  0  0  0  0  0  0  0  0
  -28.5670  -21.2750   21.7000 O   0  0  0  0  0  0  0  0  0  0  0  0
  -27.7640  -17.7220   17.2460 F   0  0  0  0  0  0  0  0  0  0  0  0
  -30.7580  -14.7200   20.4930 C   0  0  0  0  0  0  0  0  0  0  0  0
  -30.4530  -12.5440   19.3450 C   0  0  0  0  0  2  0  0  0  0  0  0
  -29.5450  -12.8190   18.1290 C   0  0  0  0  0  2  0  0  0  0  0  0
  -28.0520  -12.7380   18.5160 C   0  0  0  0  0  2  0  0  0  0  0  0
  -27.7180  -13.4400   19.8630 C   0  0  0  0  0  3  0  0  0  0  0  0
  -28.7840  -13.1880   20.9560 C   0  0  0  0  0  2  0  0  0  0  0  0
  -30.1000  -13.5220   20.3900 N   0  0  0  0  0  0  0  0  0  0  0  0
  -31.8960  -14.8820   20.0390 O   0  0  0  0  0  0  0  0  0  0  0  0
  -30.0420  -15.7750   20.9710 N   0  0  0  0  0  0  0  0  0  0  0  0
  -29.3020  -15.4830   21.5910 H   0  0  0  0  0  0  0  0  0  0  0  0
  -25.3170  -13.9970   20.5480 C   0  0  0  0  0  0  0  0  0  0  0  0
  -24.2540  -13.2100   20.8970 C   0  0  0  0  0  0  0  0  0  0  0  0
  -24.7330  -11.8650   20.8530 C   0  0  0  0  0  0  0  0  0  0  0  0
  -26.3710  -13.1310   20.3200 N   0  0  0  0  0  0  0  0  0  0  0  0
  -26.0250  -11.8410   20.5520 N   0  0  0  0  0  0  0  0  0  0  0  0
  -24.0150  -10.5950   21.0260 C   0  0  0  0  0  0  0  0  0  0  0  0
  -24.4440   -9.6370   21.9680 C   0  0  0  0  0  3  0  0  0  0  0  0
  -23.7340   -8.4270   22.1330 C   0  0  0  0  0  3  0  0  0  0  0  0
  -22.5830   -8.1690   21.3510 C   0  0  0  0  0  0  0  0  0  0  0  0
  -22.1690   -9.1180   20.3980 C   0  0  0  0  0  3  0  0  0  0  0  0
  -22.8820  -10.3200   20.2350 C   0  0  0  0  0  3  0  0  0  0  0  0
  -21.8480   -7.0100   21.4190 O   0  0  0  0  0  0  0  0  0  0  0  0
  -21.7750   -6.2740   22.5730 C   0  0  0  0  0  0  0  0  0  0  0  0
  -21.2710   -6.8150   23.7760 C   0  0  0  0  0  3  0  0  0  0  0  0
  -21.1470   -6.0000   24.9170 C   0  0  0  0  0  3  0  0  0  0  0  0
  -21.5190   -4.6440   24.8580 C   0  0  0  0  0  0  0  0  0  0  0  0
  -22.0190   -4.1030   23.6610 C   0  0  0  0  0  3  0  0  0  0  0  0
  -22.1430   -4.9160   22.5220 C   0  0  0  0  0  0  0  0  0  0  0  0
  -22.6040   -4.3830   21.3650 F   0  0  0  0  0  0  0  0  0  0  0  0
  -21.3920   -3.8560   25.9540 F   0  0  0  0  0  0  0  0  0  0  0  0
  -22.8530  -13.6680   21.1700 C   0  0  0  0  0  0  0  0  0  0  0  0
  -22.1330  -12.9560   22.0270 N   0  0  0  0  0  0  0  0  0  0  0  0
  -22.4070  -14.6970   20.6610 O   0  0  0  0  0  0  0  0  0  0  0  0
  -22.5200  -12.1330   22.4660 H   0  0  0  0  0  0  0  0  0  0  0  0
  -21.1860  -13.2330   22.2420 H   0  0  0  0  0  0  0  0  0  0  0  0
  -25.4650  -15.3700   20.3840 N   0  0  0  0  0  0  0  0  0  0  0  0
  -24.6800  -16.0030   20.4780 H   0  0  0  0  0  0  0  0  0  0  0  0
  -26.3000  -15.8260   20.0400 H   0  0  0  0  0  0  0  0  0  0  0  0
  -30.0690  -23.0740   20.8660 C   0  0  0  0  0  0  0  0  0  0  0  0
  -31.2540  -23.2520   20.5550 O   0  0  0  0  0  0  0  0  0  0  0  0
  -30.2980  -25.2200   22.1950 C   0  0  0  0  0  1  0  0  0  0  0  0
  -28.0690  -24.1300   22.2330 C   0  0  0  0  0  1  0  0  0  0  0  0
  -29.2900  -24.4020   21.3300 C   0  0  2  0  0  0  0  0  0  0  0  0
  -28.8300  -25.3450   20.1390 C   0  0  0  0  0  2  0  0  0  0  0  0
  -28.6620  -26.7700   20.4770 O   0  0  0  0  0  0  0  0  0  0  0  0
  -24.6220  -31.9950   23.2690 C   0  0  0  0  0  0  0  0  0  0  0  0
  -27.4590  -27.4760   20.3750 C   0  0  0  0  0  0  0  0  0  0  0  0
  -23.5020  -30.5380   21.6120 C   0  0  0  0  0  3  0  0  0  0  0  0
  -25.0330  -28.9890   20.2690 C   0  0  0  0  0  0  0  0  0  0  0  0
  -26.0330  -30.9190   21.4990 C   0  0  0  0  0  2  0  0  0  0  0  0
  -26.1640  -29.5290   20.8900 C   0  0  0  0  0  0  0  0  0  0  0  0
  -27.3720  -28.7830   20.9350 C   0  0  0  0  0  3  0  0  0  0  0  0
  -26.2960  -26.9660   19.7470 C   0  0  0  0  0  3  0  0  0  0  0  0
  -25.0980  -27.7080   19.6960 C   0  0  0  0  0  3  0  0  0  0  0  0
  -23.7760  -29.8340   20.2540 C   0  0  0  0  0  2  0  0  0  0  0  0
  -24.7360  -31.1690   22.1830 N   0  0  0  0  0  0  0  0  0  0  0  0
  -23.5170  -32.2630   23.7590 O   0  0  0  0  0  0  0  0  0  0  0  0
  -22.8270  -29.5340   22.5740 C   0  0  0  0  0  0  0  0  0  0  0  0
  -21.5070  -29.3450   22.4250 N   0  0  0  0  0  0  0  0  0  0  0  0
  -23.4970  -28.9230   23.4120 O   0  0  0  0  0  0  0  0  0  0  0  0
  -21.0270  -29.8950   21.7250 H   0  0  0  0  0  0  0  0  0  0  0  0
  -18.1200  -28.1790   22.9290 C   0  0  0  0  0  0  0  0  0  0  0  0
  -20.6820  -28.4110   23.1920 C   0  0  0  0  0  3  0  0  0  0  0  0
  -20.7670  -26.9830   22.6040 C   0  0  0  0  0  2  0  0  0  0  0  0
  -19.6580  -26.6780   21.5930 C   0  0  0  0  0  2  0  0  0  0  0  0
  -18.2780  -26.8350   22.2430 C   0  0  0  0  0  2  0  0  0  0  0  0
  -19.2480  -28.9260   23.3630 C   0  0  0  0  0  0  0  0  0  0  0  0
  -19.0430  -30.1850   23.9720 C   0  0  0  0  0  3  0  0  0  0  0  0
  -17.7440  -30.6960   24.1450 C   0  0  0  0  0  3  0  0  0  0  0  0
  -16.6320  -29.9480   23.7240 C   0  0  0  0  0  3  0  0  0  0  0  0
  -16.8210  -28.6900   23.1240 C   0  0  0  0  0  3  0  0  0  0  0  0
  -25.8710  -32.6620   23.9250 C   0  0  0  0  0  3  0  0  0  0  0  0
  -26.3520  -31.9360   25.2400 C   0  0  1  0  0  0  0  0  0  0  0  0
  -25.2190  -31.6910   26.2640 C   0  0  0  0  0  1  0  0  0  0  0  0
  -26.9900  -30.5670   24.9070 C   0  0  0  0  0  1  0  0  0  0  0  0
  -27.4560  -32.7720   25.9320 C   0  0  0  0  0  1  0  0  0  0  0  0
  -25.5300  -34.0640   24.2040 N   0  0  0  0  0  0  0  0  0  0  0  0
  -25.8760  -35.1020   23.4310 C   0  0  0  0  0  0  0  0  0  0  0  0
  -26.5860  -34.9830   22.4290 O   0  0  0  0  0  0  0  0  0  0  0  0
  -24.9010  -34.2280   24.9780 H   0  0  0  0  0  0  0  0  0  0  0  0
  -24.1360  -36.8610   22.9590 C   0  0  0  0  0  1  0  0  0  0  0  0
  -25.3480  -36.4930   23.8310 C   0  0  0  0  0  3  0  0  0  0  0  0
  -27.4280  -37.4290   24.7380 C   0  0  0  0  0  1  0  0  0  0  0  0
  -26.3690  -37.5590   23.7400 N   0  0  0  0  0  0  0  0  0  0  0  0
  -25.9420  -38.4740   23.8520 H   0  0  0  0  0  0  0  0  0  0  0  0
  -32.4850  -20.4650   19.6270 C   0  0  0  0  0  1  0  0  0  0  0  0
  -31.0830  -20.8010   19.0720 C   0  0  0  0  0  2  0  0  0  0  0  0
  1  2  2  0
  2  6  1  0
  2 19  1  0
  3  7  2  0
  3  1  1  0
  4  8  1  0
  4  6  2  0
  5  9  2  0
  7  4  1  0
  8  5  1  0
 10  3  1  0
 11 19  1  0
 12 17  1  0
 13 14  1  0
 13 12  1  0
 15 14  1  0
 15 24  1  0
 15 16  1  0
 17 11  1  0
 17 16  1  0
 18 11  2  0
 19 20  1  0
 21 22  2  0
 22 41  1  0
 23 22  1  0
 23 26  1  0
 24 21  1  0
 24 25  1  0
 25 23  2  0
 26 27  1  0
 27 28  2  0
 29 32  1  0
 29 28  1  0
 30 29  2  0
 31 30  1  0
 31 26  2  0
 32 33  1  0
 33 34  1  0
 34 35  2  0
 36 35  1  0
 36 40  1  0
 37 36  2  0
 38 33  2  0
 38 37  1  0
 39 38  1  0
 41 42  1  0
 42 45  1  0
 42 44  1  0
 43 41  2  0
 46 47  1  0
 46 21  1  0
 48 46  1  0
 49  5  1  0
 49 53  1  0
 50 49  2  0
 53 51  1  1
 53 52  1  0
 54 55  1  0
 54 53  1  0
 56 67  2  0
 57 55  1  0
 57 62  1  0
 58 66  1  0
 58 68  1  0
 59 61  1  0
 60 66  1  0
 61 62  2  0
 61 60  1  0
 63 57  2  0
 64 63  1  0
 64 59  2  0
 65 59  1  0
 65 58  1  0
 66 56  1  0
 68 70  2  0
 69 68  1  0
 71 69  1  0
 72 81  2  0
 72 77  1  0
 73 69  1  0
 73 77  1  0
 74 73  1  0
 75 76  1  0
 75 74  1  0
 76 72  1  0
 77 78  2  0
 78 79  1  0
 80 79  2  0
 81 80  1  0
 82 56  1  0
 82 87  1  0
 82 83  1  0
 83 86  1  1
 83 84  1  0
 85 83  1  0
 87 90  1  0
 88 92  1  0
 88 87  1  0
 89 88  2  0
 92 91  1  0
 94 92  1  0
 94 95  1  0
 94 93  1  0
 97 96  1  0
 97  8  1  0
M  ISO  4  11 100  19 100  54 101  55 101
M  END
>  <TORSDO>  (81) 
F 20

>  <SCORE>  (81) 
-14.086

>  <name>  (81) 
81

>  <ligand_id>  (81) 
81

>  <original_smiles>  (81) 
[H]c1c(F)nc(N(C(=O)C(=O)C(C([H])([H])[H])(C([H])([H])[H])C([H])([H])Oc2c([H])c([H])c3c(c2[H])C([H])([H])N(C(=O)C([H])(N([H])C(=O)C([H])(N([H])C([H])([H])[H])C([H])([H])[H])C(C([H])([H])[H])(C([H])([H])[H])C([H])([H])[H])C([H])(C(=O)N([H])C2([H])c4c([H])c([H])c([H])c([H])c4C([H])([H])C([H])([H])C2([H])[H])C3([H])[H])C([H])([H])C([H])([H])[H])nc1N([H])C(=O)N1C([H])([H])C([H])([H])C([H])([H])C([H])(n2nc(-c3c([H])c([H])c(Oc4c([H])c([H])c(F)c([H])c4F)c([H])c3[H])c(C(=O)N([H])[H])c2N([H])[H])C1([H])[H]

>  <smiles>  (81) 
[H]c1c(F)nc(N(C(=O)C(=O)C(C([H])([H])[H])(C([H])([H])[H])C([H])([H])Oc2c([H])c([H])c3c(c2[H])C([H])([H])N(C(=O)C([H])(N([H])C(=O)C([H])(N([H])C([H])([H])[H])C([H])([H])[H])C(C([H])([H])[H])(C([H])([H])[H])C([H])([H])[H])C([H])(C(=O)N([H])C2([H])c4c([H])c([H])c([H])c([H])c4C([H])([H])C([H])([H])C2([H])[H])C3([H])[H])C([H])([H])C([H])([H])[H])nc1N([H])C(=O)N1C([H])([H])C([H])([H])C([H])([H])C([H])(n2nc(-c3c([H])c([H])c(Oc4c([H])c([H])c(F)c([H])c4F)c([H])c3[H])c(C(=O)N([H])[H])c2N([H])[H])C1([H])[H]

$$$$
82:0:0
     RDKit          3D

 96104  0  0  1  0  0  0  0  0999 V2000
  -29.4980  -20.6390   20.6810 C   0  0  0  0  0  0  0  0  0  0  0  0
  -29.5900  -21.7410   19.8980 N   0  0  0  0  0  0  0  0  0  0  0  0
  -29.2310  -20.7390   21.8830 O   0  0  0  0  0  0  0  0  0  0  0  0
  -29.7450  -21.5600   18.9110 H   0  0  0  0  0  0  0  0  0  0  0  0
  -30.6590  -14.5830   20.3920 C   0  0  0  0  0  0  0  0  0  0  0  0
  -30.3670  -12.3820   19.3360 C   0  0  0  0  0  2  0  0  0  0  0  0
  -29.4410  -12.5770   18.1170 C   0  0  0  0  0  2  0  0  0  0  0  0
  -27.9630  -12.4500   18.5370 C   0  0  0  0  0  2  0  0  0  0  0  0
  -27.6140  -13.3040   19.7880 C   0  0  0  0  0  3  0  0  0  0  0  0
  -28.6640  -13.1130   20.9060 C   0  0  0  0  0  2  0  0  0  0  0  0
  -29.9940  -13.3950   20.3390 N   0  0  0  0  0  0  0  0  0  0  0  0
  -31.8140  -14.7090   19.9720 O   0  0  0  0  0  0  0  0  0  0  0  0
  -29.7830  -19.2710   20.0620 C   0  0  0  0  0  0  0  0  0  0  0  0
  -30.2220  -18.9980   18.7720 C   0  0  0  0  0  0  0  0  0  0  0  0
  -30.0360  -16.9640   20.1860 C   0  0  0  0  0  0  0  0  0  0  0  0
  -29.6480  -18.0800   20.8280 N   0  0  0  0  0  0  0  0  0  0  0  0
  -29.9460  -15.6630   20.7800 N   0  0  0  0  0  0  0  0  0  0  0  0
  -30.5410  -17.2900   18.5290 S   0  0  0  0  0  0  0  0  0  0  0  0
  -29.1160  -15.4850   21.3220 H   0  0  0  0  0  0  0  0  0  0  0  0
  -25.2130  -13.9070   20.4840 C   0  0  0  0  0  0  0  0  0  0  0  0
  -24.1420  -13.1370   20.8510 C   0  0  0  0  0  0  0  0  0  0  0  0
  -24.6050  -11.7850   20.8300 C   0  0  0  0  0  0  0  0  0  0  0  0
  -26.2590  -13.0270   20.2620 N   0  0  0  0  0  0  0  0  0  0  0  0
  -25.8970  -11.7440   20.5280 N   0  0  0  0  0  0  0  0  0  0  0  0
  -23.8750  -10.5250   21.0230 C   0  0  0  0  0  0  0  0  0  0  0  0
  -24.3000   -9.5630   21.9670 C   0  0  0  0  0  3  0  0  0  0  0  0
  -23.5710   -8.3690   22.1500 C   0  0  0  0  0  3  0  0  0  0  0  0
  -22.4030   -8.1270   21.3870 C   0  0  0  0  0  0  0  0  0  0  0  0
  -21.9940   -9.0790   20.4370 C   0  0  0  0  0  3  0  0  0  0  0  0
  -22.7240  -10.2660   20.2530 C   0  0  0  0  0  3  0  0  0  0  0  0
  -21.6490   -6.9820   21.4750 O   0  0  0  0  0  0  0  0  0  0  0  0
  -21.5940   -6.2440   22.6310 C   0  0  0  0  0  0  0  0  0  0  0  0
  -21.1580   -6.8050   23.8520 C   0  0  0  0  0  3  0  0  0  0  0  0
  -21.0500   -5.9950   24.9980 C   0  0  0  0  0  3  0  0  0  0  0  0
  -21.3660   -4.6250   24.9250 C   0  0  0  0  0  0  0  0  0  0  0  0
  -21.7950   -4.0650   23.7090 C   0  0  0  0  0  3  0  0  0  0  0  0
  -21.9050   -4.8720   22.5640 C   0  0  0  0  0  0  0  0  0  0  0  0
  -22.2980   -4.3230   21.3880 F   0  0  0  0  0  0  0  0  0  0  0  0
  -21.2560   -3.8430   26.0250 F   0  0  0  0  0  0  0  0  0  0  0  0
  -22.7430  -13.6180   21.1140 C   0  0  0  0  0  0  0  0  0  0  0  0
  -22.0070  -12.9300   21.9790 N   0  0  0  0  0  0  0  0  0  0  0  0
  -22.3090  -14.6430   20.5890 O   0  0  0  0  0  0  0  0  0  0  0  0
  -22.3680  -12.1020   22.4280 H   0  0  0  0  0  0  0  0  0  0  0  0
  -21.0720  -13.2430   22.1990 H   0  0  0  0  0  0  0  0  0  0  0  0
  -25.3750  -15.2770   20.3000 N   0  0  0  0  0  0  0  0  0  0  0  0
  -24.6020  -15.9240   20.4070 H   0  0  0  0  0  0  0  0  0  0  0  0
  -26.2260  -15.7250   19.9840 H   0  0  0  0  0  0  0  0  0  0  0  0
  -30.4710  -19.8430   17.6900 N   0  0  0  0  0  0  0  0  0  0  0  0
  -31.2160  -20.5220   17.8160 H   0  0  0  0  0  0  0  0  0  0  0  0
  -30.6590  -19.3390   16.8260 H   0  0  0  0  0  0  0  0  0  0  0  0
  -31.3050  -23.4360   20.4260 C   0  0  0  0  0  1  0  0  0  0  0  0
  -29.7950  -23.1290   20.4070 C   0  0  0  0  0  3  0  0  0  0  0  0
  -28.9910  -24.2740   19.7090 C   0  0  0  0  0  0  0  0  0  0  0  0
  -28.8950  -24.3570   18.4800 O   0  0  0  0  0  0  0  0  0  0  0  0
  -28.3330  -25.3510   20.6240 C   0  0  0  0  0  2  0  0  0  0  0  0
  -28.4300  -26.7140   20.1290 O   0  0  0  0  0  0  0  0  0  0  0  0
  -24.5910  -31.9100   23.2580 C   0  0  0  0  0  0  0  0  0  0  0  0
  -27.2630  -27.4590   20.1660 C   0  0  0  0  0  0  0  0  0  0  0  0
  -23.3950  -30.5040   21.6120 C   0  0  0  0  0  3  0  0  0  0  0  0
  -24.8590  -28.9670   20.1910 C   0  0  0  0  0  0  0  0  0  0  0  0
  -25.9200  -30.8670   21.4220 C   0  0  0  0  0  2  0  0  0  0  0  0
  -26.0160  -29.4930   20.7800 C   0  0  0  0  0  0  0  0  0  0  0  0
  -27.2220  -28.7470   20.7640 C   0  0  0  0  0  3  0  0  0  0  0  0
  -26.0850  -26.9550   19.5720 C   0  0  0  0  0  3  0  0  0  0  0  0
  -24.8890  -27.6990   19.5860 C   0  0  0  0  0  3  0  0  0  0  0  0
  -23.6100  -29.8190   20.2330 C   0  0  0  0  0  2  0  0  0  0  0  0
  -24.6540  -31.1080   22.1560 N   0  0  0  0  0  0  0  0  0  0  0  0
  -23.5070  -32.1790   23.7930 O   0  0  0  0  0  0  0  0  0  0  0  0
  -22.7370  -29.4850   22.5730 C   0  0  0  0  0  0  0  0  0  0  0  0
  -21.4150  -29.2940   22.4360 N   0  0  0  0  0  0  0  0  0  0  0  0
  -23.4180  -28.8640   23.3930 O   0  0  0  0  0  0  0  0  0  0  0  0
  -20.9280  -29.8520   21.7510 H   0  0  0  0  0  0  0  0  0  0  0  0
  -18.0430  -28.0780   22.9070 C   0  0  0  0  0  0  0  0  0  0  0  0
  -20.5980  -28.3510   23.1990 C   0  0  0  0  0  3  0  0  0  0  0  0
  -20.7180  -26.9210   22.6230 C   0  0  0  0  0  2  0  0  0  0  0  0
  -19.6250  -26.5910   21.6020 C   0  0  0  0  0  2  0  0  0  0  0  0
  -18.2360  -26.7270   22.2340 C   0  0  0  0  0  2  0  0  0  0  0  0
  -19.1550  -28.8460   23.3450 C   0  0  0  0  0  0  0  0  0  0  0  0
  -18.9280  -30.1080   23.9340 C   0  0  0  0  0  3  0  0  0  0  0  0
  -17.6210  -30.6040   24.0940 C   0  0  0  0  0  3  0  0  0  0  0  0
  -16.5230  -29.8340   23.6740 C   0  0  0  0  0  3  0  0  0  0  0  0
  -16.7330  -28.5720   23.0860 C   0  0  0  0  0  3  0  0  0  0  0  0
  -25.8700  -32.5450   23.8830 C   0  0  0  0  0  3  0  0  0  0  0  0
  -26.3800  -31.7820   25.1660 C   0  0  1  0  0  0  0  0  0  0  0  0
  -25.2790  -31.5530   26.2280 C   0  0  0  0  0  1  0  0  0  0  0  0
  -26.9660  -30.4020   24.7850 C   0  0  0  0  0  1  0  0  0  0  0  0
  -27.5270  -32.5780   25.8290 C   0  0  0  0  0  1  0  0  0  0  0  0
  -25.5600  -33.9460   24.2020 N   0  0  0  0  0  0  0  0  0  0  0  0
  -25.9010  -34.9940   23.4400 C   0  0  0  0  0  0  0  0  0  0  0  0
  -26.5810  -34.8850   22.4170 O   0  0  0  0  0  0  0  0  0  0  0  0
  -24.9610  -34.1040   25.0010 H   0  0  0  0  0  0  0  0  0  0  0  0
  -24.1840  -36.7900   23.0530 C   0  0  0  0  0  1  0  0  0  0  0  0
  -25.4140  -36.3880   23.8840 C   0  0  0  0  0  3  0  0  0  0  0  0
  -27.5350  -37.2720   24.7390 C   0  0  0  0  0  1  0  0  0  0  0  0
  -26.4500  -37.4370   23.7750 N   0  0  0  0  0  0  0  0  0  0  0  0
  -26.0450  -38.3580   23.9180 H   0  0  0  0  0  0  0  0  0  0  0  0
  1  3  2  0
  2 52  1  0
  2  1  1  0
  4  2  1  0
  5 17  1  0
  6 11  1  0
  7  8  1  0
  7  6  1  0
  9  8  1  0
  9 23  1  0
  9 10  1  0
 11  5  1  0
 11 10  1  0
 12  5  2  0
 13  1  1  0
 13 16  1  0
 14 13  2  0
 15 17  1  0
 15 16  2  0
 17 19  1  0
 18 14  1  0
 18 15  1  0
 20 21  2  0
 21 40  1  0
 22 21  1  0
 22 25  1  0
 23 20  1  0
 23 24  1  0
 24 22  2  0
 25 26  1  0
 26 27  2  0
 28 31  1  0
 28 27  1  0
 29 28  2  0
 30 29  1  0
 30 25  2  0
 31 32  1  0
 32 33  1  0
 33 34  2  0
 35 34  1  0
 35 39  1  0
 36 35  2  0
 37 32  2  0
 37 36  1  0
 38 37  1  0
 40 41  1  0
 41 44  1  0
 41 43  1  0
 42 40  2  0
 45 46  1  0
 45 20  1  0
 47 45  1  0
 48 49  1  0
 48 14  1  0
 50 48  1  0
 52 51  1  0
 53 52  1  0
 53 55  1  0
 54 53  2  0
 56 58  1  0
 56 55  1  0
 57 68  2  0
 58 63  1  0
 59 67  1  0
 59 69  1  0
 60 66  1  0
 60 62  1  0
 61 67  1  0
 62 61  1  0
 63 62  2  0
 64 65  1  0
 64 58  2  0
 65 60  2  0
 66 59  1  0
 67 57  1  0
 69 71  2  0
 70 69  1  0
 72 70  1  0
 73 82  2  0
 73 78  1  0
 74 70  1  0
 74 78  1  0
 75 74  1  0
 76 77  1  0
 76 75  1  0
 77 73  1  0
 78 79  2  0
 79 80  1  0
 81 80  2  0
 82 81  1  0
 83 57  1  0
 83 88  1  0
 83 84  1  0
 84 87  1  1
 84 85  1  0
 86 84  1  0
 88 91  1  0
 89 93  1  0
 89 88  1  0
 90 89  2  0
 93 92  1  0
 95 93  1  0
 95 96  1  0
 95 94  1  0
M  ISO  4   5 100  17 100  55 101  56 101
M  END
>  <TORSDO>  (82) 
F 20

>  <SCORE>  (82) 
-14.073

>  <name>  (82) 
82

>  <ligand_id>  (82) 
82

>  <original_smiles>  (82) 
[H]c1c([H])c([H])c2c(c1[H])C([H])([H])C([H])([H])C([H])([H])C2([H])N([H])C(=O)C1([H])N(C(=O)C([H])(N([H])C(=O)C([H])(N([H])C([H])([H])[H])C([H])([H])[H])C(C([H])([H])[H])(C([H])([H])[H])C([H])([H])[H])C([H])([H])c2c([H])c(OC([H])([H])C(=O)C([H])(N([H])C(=O)c3nc(N([H])C(=O)N4C([H])([H])C([H])([H])C([H])([H])C([H])(n5nc(-c6c([H])c([H])c(Oc7c([H])c([H])c(F)c([H])c7F)c([H])c6[H])c(C(=O)N([H])[H])c5N([H])[H])C4([H])[H])sc3N([H])[H])C([H])([H])[H])c([H])c([H])c2C1([H])[H]

>  <smiles>  (82) 
[H]c1c([H])c([H])c2c(c1[H])C([H])([H])C([H])([H])C([H])([H])C2([H])N([H])C(=O)C1([H])N(C(=O)C([H])(N([H])C(=O)C([H])(N([H])C([H])([H])[H])C([H])([H])[H])C(C([H])([H])[H])(C([H])([H])[H])C([H])([H])[H])C([H])([H])c2c([H])c(OC([H])([H])C(=O)C([H])(N([H])C(=O)c3nc(N([H])C(=O)N4C([H])([H])C([H])([H])C([H])([H])C([H])(n5nc(-c6c([H])c([H])c(Oc7c([H])c([H])c(F)c([H])c7F)c([H])c6[H])c(C(=O)N([H])[H])c5N([H])[H])C4([H])[H])sc3N([H])[H])C([H])([H])[H])c([H])c([H])c2C1([H])[H]

$$$$
83:0:0
     RDKit          3D

 97105  0  0  1  0  0  0  0  0999 V2000
  -30.6320  -18.6140   19.6700 C   0  0  0  0  0  0  0  0  0  0  0  0
  -29.5280  -18.5030   20.4980 C   0  0  0  0  0  0  0  0  0  0  0  0
  -29.8300  -20.8340   19.6230 C   0  0  0  0  0  0  0  0  0  0  0  0
  -29.1200  -23.3080   19.7110 C   0  0  0  0  0  0  0  0  0  0  0  0
  -30.7540  -19.9470   19.1590 N   0  0  0  0  0  0  0  0  0  0  0  0
  -29.7720  -22.2250   19.1830 N   0  0  0  0  0  0  0  0  0  0  0  0
  -28.6020  -23.2750   20.8310 O   0  0  0  0  0  0  0  0  0  0  0  0
  -28.7010  -20.0430   20.7270 S   0  0  0  0  0  0  0  0  0  0  0  0
  -30.2530  -22.4150   18.3190 H   0  0  0  0  0  0  0  0  0  0  0  0
  -29.0730  -17.3690   21.1810 N   0  0  0  0  0  0  0  0  0  0  0  0
  -29.7240  -16.6420   21.4720 H   0  0  0  0  0  0  0  0  0  0  0  0
  -28.2670  -17.4140   21.7970 H   0  0  0  0  0  0  0  0  0  0  0  0
  -29.0960  -24.6690   18.9040 C   0  0  0  0  0  3  0  0  0  0  0  0
  -27.8980  -25.6860   19.1590 C   0  0  0  0  0  3  0  0  0  0  0  0
  -28.0200  -27.0690   18.6410 O   0  0  0  0  0  0  0  0  0  0  0  0
  -24.4610  -31.4990   23.0140 C   0  0  0  0  0  0  0  0  0  0  0  0
  -26.8970  -27.8770   18.8400 C   0  0  0  0  0  0  0  0  0  0  0  0
  -23.1430  -30.4010   21.2360 C   0  0  0  0  0  3  0  0  0  0  0  0
  -24.4910  -29.3020   19.3640 C   0  0  0  0  0  0  0  0  0  0  0  0
  -25.6300  -30.9250   20.8810 C   0  0  0  0  0  2  0  0  0  0  0  0
  -25.6920  -29.7270   19.9470 C   0  0  0  0  0  0  0  0  0  0  0  0
  -26.9030  -29.0270   19.6780 C   0  0  0  0  0  3  0  0  0  0  0  0
  -25.6790  -27.5150   18.2260 C   0  0  0  0  0  3  0  0  0  0  0  0
  -24.4840  -28.2040   18.4890 C   0  0  0  0  0  3  0  0  0  0  0  0
  -23.2310  -30.0520   19.7240 C   0  0  0  0  0  2  0  0  0  0  0  0
  -24.4360  -30.9440   21.7680 N   0  0  0  0  0  0  0  0  0  0  0  0
  -23.4320  -31.5900   23.6990 O   0  0  0  0  0  0  0  0  0  0  0  0
  -22.6360  -29.1620   22.0140 C   0  0  0  0  0  0  0  0  0  0  0  0
  -21.3210  -28.9050   21.9440 N   0  0  0  0  0  0  0  0  0  0  0  0
  -23.4240  -28.4420   22.6340 O   0  0  0  0  0  0  0  0  0  0  0  0
  -20.7430  -29.5400   21.4140 H   0  0  0  0  0  0  0  0  0  0  0  0
  -18.0770  -27.3780   22.4450 C   0  0  0  0  0  0  0  0  0  0  0  0
  -20.6310  -27.7720   22.5640 C   0  0  0  0  0  3  0  0  0  0  0  0
  -20.7660  -26.5000   21.6980 C   0  0  0  0  0  2  0  0  0  0  0  0
  -19.5960  -26.3020   20.7290 C   0  0  0  0  0  2  0  0  0  0  0  0
  -18.2730  -26.2080   21.4940 C   0  0  0  0  0  2  0  0  0  0  0  0
  -19.1840  -28.1210   22.9360 C   0  0  0  0  0  0  0  0  0  0  0  0
  -18.9470  -29.2160   23.7940 C   0  0  0  0  0  3  0  0  0  0  0  0
  -17.6370  -29.5740   24.1640 C   0  0  0  0  0  3  0  0  0  0  0  0
  -16.5460  -28.8240   23.6890 C   0  0  0  0  0  3  0  0  0  0  0  0
  -16.7680  -27.7280   22.8370 C   0  0  0  0  0  3  0  0  0  0  0  0
  -25.7780  -32.0670   23.6220 C   0  0  0  0  0  3  0  0  0  0  0  0
  -25.5040  -33.4440   24.0560 N   0  0  0  0  0  0  0  0  0  0  0  0
  -25.8150  -34.5430   23.3560 C   0  0  0  0  0  0  0  0  0  0  0  0
  -26.4390  -34.5020   22.2920 O   0  0  0  0  0  0  0  0  0  0  0  0
  -24.9480  -33.5530   24.8920 H   0  0  0  0  0  0  0  0  0  0  0  0
  -24.0900  -36.3670   23.2190 C   0  0  0  0  0  1  0  0  0  0  0  0
  -25.3700  -35.9010   23.9290 C   0  0  0  0  0  3  0  0  0  0  0  0
  -27.5500  -36.7270   24.7060 C   0  0  0  0  0  1  0  0  0  0  0  0
  -26.4060  -36.9510   23.8260 N   0  0  0  0  0  0  0  0  0  0  0  0
  -26.0150  -37.8650   24.0410 H   0  0  0  0  0  0  0  0  0  0  0  0
  -26.3320  -31.2040   24.8220 C   0  0  1  0  0  0  0  0  0  0  0  0
  -25.2780  -30.9230   25.9180 C   0  0  0  0  0  1  0  0  0  0  0  0
  -26.8650  -29.8400   24.3240 C   0  0  0  0  0  1  0  0  0  0  0  0
  -27.5290  -31.9290   25.4810 C   0  0  0  0  0  1  0  0  0  0  0  0
  -31.6710  -17.4950   19.3740 C   0  0  0  0  0  3  0  0  0  0  0  0
  -31.6700  -14.9560   19.0430 C   0  0  0  0  0  0  0  0  0  0  0  0
  -31.5230  -12.4820   18.8230 C   0  0  0  0  0  2  0  0  0  0  0  0
  -30.5380  -12.0740   17.7090 C   0  0  0  0  0  2  0  0  0  0  0  0
  -29.0990  -11.9760   18.2570 C   0  0  0  0  0  2  0  0  0  0  0  0
  -28.7040  -13.2290   19.0850 C   0  0  0  0  0  3  0  0  0  0  0  0
  -29.8070  -13.5940   20.1090 C   0  0  0  0  0  2  0  0  0  0  0  0
  -31.0840  -13.7690   19.3930 N   0  0  0  0  0  0  0  0  0  0  0  0
  -32.6710  -14.9930   18.3190 O   0  0  0  0  0  0  0  0  0  0  0  0
  -31.1390  -16.1020   19.5390 N   0  0  0  0  0  0  0  0  0  0  0  0
  -30.3680  -16.0150   20.1850 H   0  0  0  0  0  0  0  0  0  0  0  0
  -26.5160  -14.0190   20.1860 C   0  0  0  0  0  0  0  0  0  0  0  0
  -25.4280  -13.3450   20.6630 C   0  0  0  0  0  0  0  0  0  0  0  0
  -25.7160  -11.9570   20.4800 C   0  0  0  0  0  0  0  0  0  0  0  0
  -27.4050  -13.0570   19.7360 N   0  0  0  0  0  0  0  0  0  0  0  0
  -26.9360  -11.8050   19.9800 N   0  0  0  0  0  0  0  0  0  0  0  0
  -24.8780  -10.7730   20.7010 C   0  0  0  0  0  0  0  0  0  0  0  0
  -25.1850   -9.8280   21.7050 C   0  0  0  0  0  3  0  0  0  0  0  0
  -24.3510   -8.7060   21.9130 C   0  0  0  0  0  3  0  0  0  0  0  0
  -23.2010   -8.5220   21.1080 C   0  0  0  0  0  0  0  0  0  0  0  0
  -22.9140   -9.4540   20.0960 C   0  0  0  0  0  3  0  0  0  0  0  0
  -23.7480  -10.5650   19.8860 C   0  0  0  0  0  3  0  0  0  0  0  0
  -22.3470   -7.4560   21.2180 O   0  0  0  0  0  0  0  0  0  0  0  0
  -21.9360   -6.9900   22.4420 C   0  0  0  0  0  0  0  0  0  0  0  0
  -21.2170   -7.8000   23.3450 C   0  0  0  0  0  3  0  0  0  0  0  0
  -20.7550   -7.2570   24.5620 C   0  0  0  0  0  3  0  0  0  0  0  0
  -21.0110   -5.9070   24.8690 C   0  0  0  0  0  0  0  0  0  0  0  0
  -21.7290   -5.1020   23.9690 C   0  0  0  0  0  3  0  0  0  0  0  0
  -22.1870   -5.6420   22.7580 C   0  0  0  0  0  0  0  0  0  0  0  0
  -22.8560   -4.8540   21.8820 F   0  0  0  0  0  0  0  0  0  0  0  0
  -20.5630   -5.3840   26.0340 F   0  0  0  0  0  0  0  0  0  0  0  0
  -24.1520  -13.9550   21.1720 C   0  0  0  0  0  0  0  0  0  0  0  0
  -23.4710  -13.2860   22.0950 N   0  0  0  0  0  0  0  0  0  0  0  0
  -23.7650  -15.0570   20.7790 O   0  0  0  0  0  0  0  0  0  0  0  0
  -23.7660  -12.3700   22.4050 H   0  0  0  0  0  0  0  0  0  0  0  0
  -22.6180  -13.6770   22.4680 H   0  0  0  0  0  0  0  0  0  0  0  0
  -26.8170  -15.3780   20.0880 N   0  0  0  0  0  0  0  0  0  0  0  0
  -26.1820  -16.0820   20.4460 H   0  0  0  0  0  0  0  0  0  0  0  0
  -27.7310  -15.7450   19.8520 H   0  0  0  0  0  0  0  0  0  0  0  0
  -32.7830  -17.6820   20.4310 C   0  0  0  0  0  0  0  0  0  0  0  0
  -33.5540  -18.9990   20.4720 C   0  0  0  0  0  1  0  0  0  0  0  0
  -33.0900  -16.8000   21.2400 O   0  0  0  0  0  0  0  0  0  0  0  0
  1  2  2  0
  2  8  1  0
  2 10  1  0
  3  8  1  0
  4  7  2  0
  5  3  2  0
  5  1  1  0
  6  3  1  0
  6  4  1  0
  9  6  1  0
 10 11  1  0
 10 12  1  0
 13 14  2  0
 13  4  1  0
 15 17  1  0
 15 14  1  0
 16 27  2  0
 17 22  1  0
 18 26  1  0
 18 28  1  0
 19 25  1  0
 19 21  1  0
 20 26  1  0
 21 20  1  0
 22 21  2  0
 23 24  1  0
 23 17  2  0
 24 19  2  0
 25 18  1  0
 26 16  1  0
 28 30  2  0
 29 28  1  0
 31 29  1  0
 32 41  2  0
 32 37  1  0
 33 29  1  0
 33 37  1  0
 34 33  1  0
 35 36  1  0
 35 34  1  0
 36 32  1  0
 37 38  2  0
 38 39  1  0
 40 39  2  0
 41 40  1  0
 42 16  1  0
 42 43  1  0
 42 52  1  0
 43 46  1  0
 44 48  1  0
 44 43  1  0
 45 44  2  0
 48 47  1  0
 50 48  1  0
 50 51  1  0
 50 49  1  0
 52 55  1  1
 52 53  1  0
 54 52  1  0
 56 65  1  0
 56  1  1  0
 56 95  1  0
 57 63  1  0
 57 65  1  0
 58 63  1  0
 59 60  1  0
 59 58  1  0
 61 60  1  0
 61 70  1  0
 61 62  1  0
 63 62  1  0
 64 57  2  0
 65 66  1  0
 67 68  2  0
 68 87  1  0
 69 68  1  0
 69 72  1  0
 70 71  1  0
 70 67  1  0
 71 69  2  0
 72 73  1  0
 73 74  2  0
 75 78  1  0
 75 74  1  0
 76 75  2  0
 77 76  1  0
 77 72  2  0
 78 79  1  0
 79 84  2  0
 79 80  1  0
 80 81  2  0
 81 82  1  0
 82 86  1  0
 83 82  2  0
 84 83  1  0
 85 84  1  0
 87 88  1  0
 88 90  1  0
 88 91  1  0
 89 87  2  0
 92 67  1  0
 92 93  1  0
 94 92  1  0
 95 96  1  0
 95 97  2  0
M  ISO  4  14 101  15 101  57 100  65 100
M  END
>  <TORSDO>  (83) 
F 21

>  <SCORE>  (83) 
-9.174

>  <name>  (83) 
83

>  <ligand_id>  (83) 
83

>  <original_smiles>  (83) 
[H]c1c([H])c([H])c2c(c1[H])C([H])([H])C([H])([H])C([H])([H])C2([H])N([H])C(=O)C1([H])N(C(=O)C([H])(N([H])C(=O)C([H])(N([H])C([H])([H])[H])C([H])([H])[H])C(C([H])([H])[H])(C([H])([H])[H])C([H])([H])[H])C([H])([H])c2c([H])c(OC([H])([H])C([H])([H])C(=O)N([H])c3nc(C([H])(C(=O)C([H])([H])[H])N([H])C(=O)N4C([H])([H])C([H])([H])C([H])([H])C([H])(n5nc(-c6c([H])c([H])c(Oc7c([H])c([H])c(F)c([H])c7F)c([H])c6[H])c(C(=O)N([H])[H])c5N([H])[H])C4([H])[H])c(N([H])[H])s3)c([H])c([H])c2C1([H])[H]

>  <smiles>  (83) 
[H]c1c([H])c([H])c2c(c1[H])C([H])([H])C([H])([H])C([H])([H])C2([H])N([H])C(=O)C1([H])N(C(=O)C([H])(N([H])C(=O)C([H])(N([H])C([H])([H])[H])C([H])([H])[H])C(C([H])([H])[H])(C([H])([H])[H])C([H])([H])[H])C([H])([H])c2c([H])c(OC([H])([H])C([H])([H])C(=O)N([H])c3nc(C([H])(C(=O)C([H])([H])[H])N([H])C(=O)N4C([H])([H])C([H])([H])C([H])([H])C([H])(n5nc(-c6c([H])c([H])c(Oc7c([H])c([H])c(F)c([H])c7F)c([H])c6[H])c(C(=O)N([H])[H])c5N([H])[H])C4([H])[H])c(N([H])[H])s3)c([H])c([H])c2C1([H])[H]

$$$$
84:0:0
     RDKit          3D

 94102  0  0  1  0  0  0  0  0999 V2000
  -28.4980  -21.1580   18.7370 C   0  0  0  0  0  1  0  0  0  0  0  0
  -28.6620  -21.4600   20.2340 C   0  0  0  0  0  3  0  0  0  0  0  0
  -30.9050  -17.0780   21.9600 C   0  0  0  0  0  0  0  0  0  0  0  0
  -29.9090  -16.8860   21.0180 C   0  0  0  0  0  0  0  0  0  0  0  0
  -29.9520  -19.1960   21.0480 C   0  0  0  0  0  0  0  0  0  0  0  0
  -29.3270  -18.1020   20.5600 N   0  0  0  0  0  0  0  0  0  0  0  0
  -29.6670  -20.5600   20.8300 N   0  0  0  0  0  0  0  0  0  0  0  0
  -31.2770  -18.7810   22.1290 S   0  0  0  0  0  0  0  0  0  0  0  0
  -30.3630  -21.1520   21.2780 H   0  0  0  0  0  0  0  0  0  0  0  0
  -30.0980  -14.6170   19.9470 C   0  0  0  0  0  0  0  0  0  0  0  0
  -29.6990  -12.5830   18.5930 C   0  0  0  0  0  2  0  0  0  0  0  0
  -28.6010  -12.8920   17.5530 C   0  0  0  0  0  2  0  0  0  0  0  0
  -27.2010  -12.6500   18.1500 C   0  0  0  0  0  2  0  0  0  0  0  0
  -27.0220  -13.3120   19.5430 C   0  0  0  0  0  3  0  0  0  0  0  0
  -28.2200  -13.0050   20.4670 C   0  0  0  0  0  2  0  0  0  0  0  0
  -29.4420  -13.4340   19.7680 N   0  0  0  0  0  0  0  0  0  0  0  0
  -31.1660  -14.8570   19.3750 O   0  0  0  0  0  0  0  0  0  0  0  0
  -29.4370  -15.5750   20.6530 N   0  0  0  0  0  0  0  0  0  0  0  0
  -28.4930  -15.3450   20.9200 H   0  0  0  0  0  0  0  0  0  0  0  0
  -24.7210  -13.7420   20.6010 C   0  0  0  0  0  0  0  0  0  0  0  0
  -23.7350  -12.8910   21.0260 C   0  0  0  0  0  0  0  0  0  0  0  0
  -24.2330  -11.5710   20.8080 C   0  0  0  0  0  0  0  0  0  0  0  0
  -25.7540  -12.9320   20.1570 N   0  0  0  0  0  0  0  0  0  0  0  0
  -25.4730  -11.6160   20.3380 N   0  0  0  0  0  0  0  0  0  0  0  0
  -23.5770  -10.2650   20.9640 C   0  0  0  0  0  0  0  0  0  0  0  0
  -24.1480   -9.2410   21.7530 C   0  0  0  0  0  3  0  0  0  0  0  0
  -23.4930   -8.0000   21.9000 C   0  0  0  0  0  3  0  0  0  0  0  0
  -22.2520   -7.7730   21.2570 C   0  0  0  0  0  0  0  0  0  0  0  0
  -21.7010   -8.7850   20.4510 C   0  0  0  0  0  3  0  0  0  0  0  0
  -22.3570  -10.0190   20.3040 C   0  0  0  0  0  3  0  0  0  0  0  0
  -21.5530   -6.5920   21.3260 O   0  0  0  0  0  0  0  0  0  0  0  0
  -21.6700   -5.7480   22.3990 C   0  0  0  0  0  0  0  0  0  0  0  0
  -21.3800   -6.1690   23.7140 C   0  0  0  0  0  3  0  0  0  0  0  0
  -21.4490   -5.2490   24.7800 C   0  0  0  0  0  3  0  0  0  0  0  0
  -21.7930   -3.9070   24.5300 C   0  0  0  0  0  0  0  0  0  0  0  0
  -22.0800   -3.4840   23.2200 C   0  0  0  0  0  3  0  0  0  0  0  0
  -22.0150   -4.4010   22.1570 C   0  0  0  0  0  0  0  0  0  0  0  0
  -22.2690   -3.9850   20.8940 F   0  0  0  0  0  0  0  0  0  0  0  0
  -21.8510   -3.0210   25.5500 F   0  0  0  0  0  0  0  0  0  0  0  0
  -22.3690  -13.2790   21.5110 C   0  0  0  0  0  0  0  0  0  0  0  0
  -21.7890  -12.4800   22.4020 N   0  0  0  0  0  0  0  0  0  0  0  0
  -21.8260  -14.3180   21.1380 O   0  0  0  0  0  0  0  0  0  0  0  0
  -22.2430  -11.6380   22.7220 H   0  0  0  0  0  0  0  0  0  0  0  0
  -20.8770  -12.7120   22.7690 H   0  0  0  0  0  0  0  0  0  0  0  0
  -24.8200  -15.1280   20.5360 N   0  0  0  0  0  0  0  0  0  0  0  0
  -24.0440  -15.7390   20.7660 H   0  0  0  0  0  0  0  0  0  0  0  0
  -25.5950  -15.6240   20.1160 H   0  0  0  0  0  0  0  0  0  0  0  0
  -31.5670  -16.3080   24.3000 C   0  0  0  0  0  1  0  0  0  0  0  0
  -31.6530  -16.0680   22.7850 C   0  0  0  0  0  2  0  0  0  0  0  0
  -29.0650  -22.9720   20.4470 C   0  0  0  0  0  0  0  0  0  0  0  0
  -30.2190  -23.2640   20.7750 O   0  0  0  0  0  0  0  0  0  0  0  0
  -28.0090  -24.1120   20.2980 C   0  0  0  0  0  2  0  0  0  0  0  0
  -28.4380  -25.3660   19.4460 C   0  0  0  0  0  2  0  0  0  0  0  0
  -28.3420  -26.6840   20.0720 O   0  0  0  0  0  0  0  0  0  0  0  0
  -24.5590  -31.9110   23.2100 C   0  0  0  0  0  0  0  0  0  0  0  0
  -27.1620  -27.4250   20.0690 C   0  0  0  0  0  0  0  0  0  0  0  0
  -23.3370  -30.5090   21.5860 C   0  0  0  0  0  3  0  0  0  0  0  0
  -24.7710  -28.9730   20.1290 C   0  0  0  0  0  0  0  0  0  0  0  0
  -25.8650  -30.8500   21.3630 C   0  0  0  0  0  2  0  0  0  0  0  0
  -25.9410  -29.4820   20.7060 C   0  0  0  0  0  0  0  0  0  0  0  0
  -27.1350  -28.7140   20.6710 C   0  0  0  0  0  3  0  0  0  0  0  0
  -25.9630  -26.9430   19.4930 C   0  0  0  0  0  3  0  0  0  0  0  0
  -24.7800  -27.7080   19.5200 C   0  0  0  0  0  3  0  0  0  0  0  0
  -23.5230  -29.8270   20.2050 C   0  0  0  0  0  2  0  0  0  0  0  0
  -24.6060  -31.1070   22.1090 N   0  0  0  0  0  0  0  0  0  0  0  0
  -23.4830  -32.1820   23.7640 O   0  0  0  0  0  0  0  0  0  0  0  0
  -22.6990  -29.4850   22.5530 C   0  0  0  0  0  0  0  0  0  0  0  0
  -21.3750  -29.2920   22.4340 N   0  0  0  0  0  0  0  0  0  0  0  0
  -23.3920  -28.8660   23.3640 O   0  0  0  0  0  0  0  0  0  0  0  0
  -20.8810  -29.8370   21.7420 H   0  0  0  0  0  0  0  0  0  0  0  0
  -18.0150  -28.0640   22.9460 C   0  0  0  0  0  0  0  0  0  0  0  0
  -20.5700  -28.3480   23.2080 C   0  0  0  0  0  3  0  0  0  0  0  0
  -20.6870  -26.9190   22.6300 C   0  0  0  0  0  2  0  0  0  0  0  0
  -19.5830  -26.5830   21.6220 C   0  0  0  0  0  2  0  0  0  0  0  0
  -18.2030  -26.7150   22.2720 C   0  0  0  0  0  2  0  0  0  0  0  0
  -19.1270  -28.8390   23.3680 C   0  0  0  0  0  0  0  0  0  0  0  0
  -18.8970  -30.1020   23.9530 C   0  0  0  0  0  3  0  0  0  0  0  0
  -17.5870  -30.5900   24.1250 C   0  0  0  0  0  3  0  0  0  0  0  0
  -16.4900  -29.8100   23.7220 C   0  0  0  0  0  3  0  0  0  0  0  0
  -16.7050  -28.5490   23.1370 C   0  0  0  0  0  3  0  0  0  0  0  0
  -25.8480  -32.5470   23.8140 C   0  0  0  0  0  3  0  0  0  0  0  0
  -25.5370  -33.9420   24.1570 N   0  0  0  0  0  0  0  0  0  0  0  0
  -25.8510  -35.0020   23.4010 C   0  0  0  0  0  0  0  0  0  0  0  0
  -26.5040  -34.9090   22.3590 O   0  0  0  0  0  0  0  0  0  0  0  0
  -24.9530  -34.0860   24.9670 H   0  0  0  0  0  0  0  0  0  0  0  0
  -24.1050  -36.7850   23.0870 C   0  0  0  0  0  1  0  0  0  0  0  0
  -25.3620  -36.3850   23.8750 C   0  0  0  0  0  3  0  0  0  0  0  0
  -27.5040  -37.2790   24.6750 C   0  0  0  0  0  1  0  0  0  0  0  0
  -26.3850  -37.4460   23.7520 N   0  0  0  0  0  0  0  0  0  0  0  0
  -25.9770  -38.3630   23.9100 H   0  0  0  0  0  0  0  0  0  0  0  0
  -26.3850  -31.7730   25.0780 C   0  0  1  0  0  0  0  0  0  0  0  0
  -25.3050  -31.5210   26.1560 C   0  0  0  0  0  1  0  0  0  0  0  0
  -26.9750  -30.4020   24.6730 C   0  0  0  0  0  1  0  0  0  0  0  0
  -27.5380  -32.5710   25.7310 C   0  0  0  0  0  1  0  0  0  0  0  0
  2  1  1  0
  2 50  1  0
  2  7  1  0
  3  8  1  0
  3 49  1  0
  4  3  2  0
  5  8  1  0
  6  4  1  0
  6  5  2  0
  7  5  1  0
  7  9  1  0
 10 18  1  0
 11 16  1  0
 12 13  1  0
 12 11  1  0
 14 13  1  0
 14 23  1  0
 14 15  1  0
 16 10  1  0
 16 15  1  0
 17 10  2  0
 18 19  1  0
 18  4  1  0
 20 21  2  0
 21 40  1  0
 22 25  1  0
 22 21  1  0
 23 24  1  0
 23 20  1  0
 24 22  2  0
 25 26  1  0
 26 27  2  0
 28 31  1  0
 28 27  1  0
 29 28  2  0
 30 29  1  0
 30 25  2  0
 31 32  1  0
 32 33  1  0
 33 34  2  0
 35 34  1  0
 35 39  1  0
 36 35  2  0
 37 32  2  0
 37 36  1  0
 38 37  1  0
 40 41  1  0
 41 43  1  0
 41 44  1  0
 42 40  2  0
 45 20  1  0
 45 46  1  0
 47 45  1  0
 49 48  1  0
 50 51  2  0
 52 50  1  0
 53 54  1  0
 53 52  1  0
 55 66  2  0
 56 54  1  0
 56 61  1  0
 57 65  1  0
 57 67  1  0
 58 64  1  0
 58 60  1  0
 59 65  1  0
 60 59  1  0
 61 60  2  0
 62 63  1  0
 62 56  2  0
 63 58  2  0
 64 57  1  0
 65 55  1  0
 67 69  2  0
 68 67  1  0
 70 68  1  0
 71 80  2  0
 71 76  1  0
 72 68  1  0
 72 76  1  0
 73 72  1  0
 74 75  1  0
 74 73  1  0
 75 71  1  0
 76 77  2  0
 77 78  1  0
 79 78  2  0
 80 79  1  0
 81 55  1  0
 81 82  1  0
 81 91  1  0
 82 85  1  0
 83 87  1  0
 83 82  1  0
 84 83  2  0
 87 86  1  0
 89 87  1  0
 89 90  1  0
 89 88  1  0
 91 94  1  1
 91 92  1  0
 93 91  1  0
M  ISO  4  10 100  18 100  53 101  54 101
M  END
>  <TORSDO>  (84) 
F 21

>  <SCORE>  (84) 
-7.509

>  <name>  (84) 
84

>  <ligand_id>  (84) 
84

>  <original_smiles>  (84) 
[H]c1c([H])c([H])c2c(c1[H])C([H])([H])C([H])([H])C([H])([H])C2([H])N([H])C(=O)C1([H])N(C(=O)C([H])(N([H])C(=O)C([H])(N([H])C([H])([H])[H])C([H])([H])[H])C(C([H])([H])[H])(C([H])([H])[H])C([H])([H])[H])C([H])([H])c2c([H])c(OC([H])([H])C([H])([H])C(=O)C([H])(N([H])c3nc(N([H])C(=O)N4C([H])([H])C([H])([H])C([H])([H])C([H])(n5nc(-c6c([H])c([H])c(Oc7c([H])c([H])c(F)c([H])c7F)c([H])c6[H])c(C(=O)N([H])[H])c5N([H])[H])C4([H])[H])c(C([H])([H])C([H])([H])[H])s3)C([H])([H])[H])c([H])c([H])c2C1([H])[H]

>  <smiles>  (84) 
[H]c1c([H])c([H])c2c(c1[H])C([H])([H])C([H])([H])C([H])([H])C2([H])N([H])C(=O)C1([H])N(C(=O)C([H])(N([H])C(=O)C([H])(N([H])C([H])([H])[H])C([H])([H])[H])C(C([H])([H])[H])(C([H])([H])[H])C([H])([H])[H])C([H])([H])c2c([H])c(OC([H])([H])C([H])([H])C(=O)C([H])(N([H])c3nc(N([H])C(=O)N4C([H])([H])C([H])([H])C([H])([H])C([H])(n5nc(-c6c([H])c([H])c(Oc7c([H])c([H])c(F)c([H])c7F)c([H])c6[H])c(C(=O)N([H])[H])c5N([H])[H])C4([H])[H])c(C([H])([H])C([H])([H])[H])s3)C([H])([H])[H])c([H])c([H])c2C1([H])[H]

$$$$
85:0:0
     RDKit          3D

 94102  0  0  1  0  0  0  0  0999 V2000
  -28.9970  -21.4020   20.0160 C   0  0  0  0  0  3  0  0  0  0  0  0
  -31.6840  -18.3370   20.7820 C   0  0  0  0  0  3  0  0  0  0  0  0
  -30.4780  -17.7370   20.5010 C   0  0  0  0  0  0  0  0  0  0  0  0
  -29.9010  -20.1050   20.3120 C   0  0  0  0  0  0  0  0  0  0  0  0
  -29.4930  -18.7780   20.2490 N   0  0  0  0  0  0  0  0  0  0  0  0
  -31.6220  -20.1150   20.7230 S   0  0  0  0  0  0  0  0  0  0  0  0
  -31.0400  -15.1230   20.3260 C   0  0  0  0  0  0  0  0  0  0  0  0
  -30.8680  -12.8020   19.3670 C   0  0  0  0  0  2  0  0  0  0  0  0
  -29.9380  -12.8160   18.1300 C   0  0  0  0  0  2  0  0  0  0  0  0
  -28.4590  -12.6660   18.5330 C   0  0  0  0  0  2  0  0  0  0  0  0
  -28.0790  -13.5930   19.7130 C   0  0  0  0  0  3  0  0  0  0  0  0
  -29.1190  -13.5370   20.8530 C   0  0  0  0  0  2  0  0  0  0  0  0
  -30.4190  -13.8890   20.2700 N   0  0  0  0  0  0  0  0  0  0  0  0
  -32.2380  -15.2000   20.0310 O   0  0  0  0  0  0  0  0  0  0  0  0
  -30.2320  -16.2570   20.5040 N   0  0  0  0  0  0  0  0  0  0  0  0
  -29.2660  -16.0070   20.6340 H   0  0  0  0  0  0  0  0  0  0  0  0
  -25.7190  -14.2470   20.4700 C   0  0  0  0  0  0  0  0  0  0  0  0
  -24.6220  -13.5040   20.8100 C   0  0  0  0  0  0  0  0  0  0  0  0
  -25.0290  -12.1370   20.7270 C   0  0  0  0  0  0  0  0  0  0  0  0
  -26.7240  -13.3360   20.1940 N   0  0  0  0  0  0  0  0  0  0  0  0
  -26.3180  -12.0610   20.4160 N   0  0  0  0  0  0  0  0  0  0  0  0
  -24.2510  -10.8990   20.8650 C   0  0  0  0  0  0  0  0  0  0  0  0
  -24.6240   -9.9000   21.7870 C   0  0  0  0  0  3  0  0  0  0  0  0
  -23.8530   -8.7250   21.9190 C   0  0  0  0  0  3  0  0  0  0  0  0
  -22.6920   -8.5420   21.1300 C   0  0  0  0  0  0  0  0  0  0  0  0
  -22.3370   -9.5340   20.1970 C   0  0  0  0  0  3  0  0  0  0  0  0
  -23.1100  -10.7010   20.0630 C   0  0  0  0  0  3  0  0  0  0  0  0
  -21.8910   -7.4260   21.1780 O   0  0  0  0  0  0  0  0  0  0  0  0
  -21.7540   -6.6860   22.3240 C   0  0  0  0  0  0  0  0  0  0  0  0
  -21.2330   -7.2430   23.5120 C   0  0  0  0  0  3  0  0  0  0  0  0
  -21.0440   -6.4290   24.6480 C   0  0  0  0  0  3  0  0  0  0  0  0
  -21.3620   -5.0590   24.5930 C   0  0  0  0  0  0  0  0  0  0  0  0
  -21.8750   -4.5020   23.4090 C   0  0  0  0  0  3  0  0  0  0  0  0
  -22.0660   -5.3110   22.2780 C   0  0  0  0  0  0  0  0  0  0  0  0
  -22.5420   -4.7670   21.1320 F   0  0  0  0  0  0  0  0  0  0  0  0
  -21.1690   -4.2750   25.6800 F   0  0  0  0  0  0  0  0  0  0  0  0
  -23.2430  -14.0260   21.0850 C   0  0  0  0  0  0  0  0  0  0  0  0
  -22.4880  -13.3450   21.9390 N   0  0  0  0  0  0  0  0  0  0  0  0
  -22.8460  -15.0770   20.5800 O   0  0  0  0  0  0  0  0  0  0  0  0
  -22.8180  -12.4940   22.3710 H   0  0  0  0  0  0  0  0  0  0  0  0
  -21.5580  -13.6780   22.1630 H   0  0  0  0  0  0  0  0  0  0  0  0
  -25.9480  -15.6140   20.3430 N   0  0  0  0  0  0  0  0  0  0  0  0
  -25.2570  -16.3210   20.5730 H   0  0  0  0  0  0  0  0  0  0  0  0
  -26.7620  -16.0030   19.8840 H   0  0  0  0  0  0  0  0  0  0  0  0
  -28.8800  -24.0330   19.8470 C   0  0  0  0  0  0  0  0  0  0  0  0
  -29.4480  -22.8480   20.3290 N   0  0  0  0  0  0  0  0  0  0  0  0
  -28.1420  -23.9830   18.8640 O   0  0  0  0  0  0  0  0  0  0  0  0
  -30.0320  -22.9510   21.1470 H   0  0  0  0  0  0  0  0  0  0  0  0
  -30.4660  -25.6670   21.1120 C   0  0  0  0  0  1  0  0  0  0  0  0
  -29.0460  -25.4810   20.5590 C   0  0  0  0  0  3  0  0  0  0  0  0
  -28.8280  -26.7400   19.7610 O   0  0  0  0  0  0  0  0  0  0  0  0
  -24.5670  -31.6540   23.0780 C   0  0  0  0  0  0  0  0  0  0  0  0
  -27.6400  -27.5000   19.8540 C   0  0  0  0  0  0  0  0  0  0  0  0
  -23.5330  -30.2620   21.3240 C   0  0  0  0  0  3  0  0  0  0  0  0
  -25.1470  -28.9280   19.8560 C   0  0  0  0  0  0  0  0  0  0  0  0
  -26.0390  -30.8100   21.2250 C   0  0  0  0  0  2  0  0  0  0  0  0
  -26.2570  -29.4760   20.5100 C   0  0  0  0  0  0  0  0  0  0  0  0
  -27.5100  -28.7790   20.4940 C   0  0  0  0  0  3  0  0  0  0  0  0
  -26.5060  -27.0130   19.1750 C   0  0  0  0  0  3  0  0  0  0  0  0
  -25.2770  -27.7060   19.1740 C   0  0  0  0  0  3  0  0  0  0  0  0
  -23.8380  -29.6920   19.9150 C   0  0  0  0  0  2  0  0  0  0  0  0
  -24.7300  -30.9260   21.9360 N   0  0  0  0  0  0  0  0  0  0  0  0
  -23.4500  -31.8010   23.5970 O   0  0  0  0  0  0  0  0  0  0  0  0
  -22.9440  -29.1340   22.2050 C   0  0  0  0  0  0  0  0  0  0  0  0
  -21.6390  -28.8540   22.0360 N   0  0  0  0  0  0  0  0  0  0  0  0
  -23.6580  -28.5150   22.9980 O   0  0  0  0  0  0  0  0  0  0  0  0
  -21.1170  -29.4060   21.3720 H   0  0  0  0  0  0  0  0  0  0  0  0
  -18.3600  -27.3760   22.4040 C   0  0  0  0  0  0  0  0  0  0  0  0
  -20.8910  -27.8040   22.7270 C   0  0  0  0  0  3  0  0  0  0  0  0
  -21.1040  -26.4320   22.0440 C   0  0  0  0  0  2  0  0  0  0  0  0
  -20.0370  -26.1060   20.9960 C   0  0  0  0  0  2  0  0  0  0  0  0
  -18.6430  -26.0990   21.6320 C   0  0  0  0  0  2  0  0  0  0  0  0
  -19.4140  -28.1850   22.9030 C   0  0  0  0  0  0  0  0  0  0  0  0
  -19.0960  -29.3810   23.5830 C   0  0  0  0  0  3  0  0  0  0  0  0
  -17.7540  -29.7640   23.7730 C   0  0  0  0  0  3  0  0  0  0  0  0
  -16.7160  -28.9530   23.2880 C   0  0  0  0  0  3  0  0  0  0  0  0
  -17.0180  -27.7620   22.6050 C   0  0  0  0  0  3  0  0  0  0  0  0
  -25.7720  -32.3550   23.7780 C   0  0  0  0  0  3  0  0  0  0  0  0
  -26.2500  -31.6020   25.0790 C   0  0  1  0  0  0  0  0  0  0  0  0
  -25.1060  -31.3000   26.0760 C   0  0  0  0  0  1  0  0  0  0  0  0
  -26.9230  -30.2580   24.7170 C   0  0  0  0  0  1  0  0  0  0  0  0
  -27.3170  -32.4490   25.8090 C   0  0  0  0  0  1  0  0  0  0  0  0
  -25.3650  -33.7290   24.0900 N   0  0  0  0  0  0  0  0  0  0  0  0
  -25.6830  -34.8030   23.3570 C   0  0  0  0  0  0  0  0  0  0  0  0
  -26.4140  -34.7430   22.3640 O   0  0  0  0  0  0  0  0  0  0  0  0
  -24.6970  -33.8410   24.8420 H   0  0  0  0  0  0  0  0  0  0  0  0
  -23.8640  -36.4910   22.9340 C   0  0  0  0  0  1  0  0  0  0  0  0
  -25.0960  -36.1600   23.7930 C   0  0  0  0  0  3  0  0  0  0  0  0
  -27.1340  -37.1820   24.7080 C   0  0  0  0  0  1  0  0  0  0  0  0
  -26.0680  -37.2730   23.7150 N   0  0  0  0  0  0  0  0  0  0  0  0
  -25.6000  -38.1690   23.8320 H   0  0  0  0  0  0  0  0  0  0  0  0
  -27.6200  -21.2300   20.6420 C   0  0  0  0  0  0  0  0  0  0  0  0
  -26.8120  -20.4370   20.1680 O   0  0  0  0  0  0  0  0  0  0  0  0
  -27.2640  -22.0210   21.6710 F   0  0  0  0  0  0  0  0  0  0  0  0
  1  4  1  0
  1 46  1  0
  1 92  1  0
  3 15  1  0
  3  2  2  0
  4  6  1  0
  5  4  2  0
  5  3  1  0
  6  2  1  0
  7 15  1  0
  8 13  1  0
  9 10  1  0
  9  8  1  0
 11 10  1  0
 11 20  1  0
 11 12  1  0
 13  7  1  0
 13 12  1  0
 14  7  2  0
 15 16  1  0
 17 18  2  0
 18 37  1  0
 19 18  1  0
 19 22  1  0
 20 21  1  0
 20 17  1  0
 21 19  2  0
 22 23  1  0
 23 24  2  0
 25 28  1  0
 25 24  1  0
 26 25  2  0
 27 26  1  0
 27 22  2  0
 28 29  1  0
 29 30  1  0
 30 31  2  0
 32 31  1  0
 32 36  1  0
 33 32  2  0
 34 29  2  0
 34 33  1  0
 35 34  1  0
 37 38  1  0
 38 41  1  0
 38 40  1  0
 39 37  2  0
 42 17  1  0
 42 43  1  0
 44 42  1  0
 45 46  1  0
 45 50  1  0
 46 48  1  0
 47 45  2  0
 50 49  1  0
 51 53  1  0
 51 50  1  0
 52 63  2  0
 53 58  1  0
 54 62  1  0
 54 64  1  0
 55 61  1  0
 55 57  1  0
 56 62  1  0
 57 56  1  0
 58 57  2  0
 59 53  2  0
 60 59  1  0
 60 55  2  0
 61 54  1  0
 62 52  1  0
 64 66  2  0
 65 64  1  0
 67 65  1  0
 68 77  2  0
 68 73  1  0
 69 65  1  0
 69 73  1  0
 70 69  1  0
 71 72  1  0
 71 70  1  0
 72 68  1  0
 73 74  2  0
 74 75  1  0
 76 75  2  0
 77 76  1  0
 78 52  1  0
 78 83  1  0
 78 79  1  0
 79 82  1  1
 79 80  1  0
 81 79  1  0
 83 86  1  0
 84 88  1  0
 84 83  1  0
 85 84  2  0
 88 87  1  0
 90 88  1  0
 90 91  1  0
 90 89  1  0
 92 94  1  0
 93 92  2  0
M  ISO  4   7 100  15 100  50 101  51 101
M  END
>  <TORSDO>  (85) 
F 20

>  <SCORE>  (85) 
-12.047

>  <name>  (85) 
85

>  <ligand_id>  (85) 
85

>  <original_smiles>  (85) 
[H]c1sc(C([H])(C(=O)F)N([H])C(=O)C([H])(Oc2c([H])c([H])c3c(c2[H])C([H])([H])N(C(=O)C([H])(N([H])C(=O)C([H])(N([H])C([H])([H])[H])C([H])([H])[H])C(C([H])([H])[H])(C([H])([H])[H])C([H])([H])[H])C([H])(C(=O)N([H])C2([H])c4c([H])c([H])c([H])c([H])c4C([H])([H])C([H])([H])C2([H])[H])C3([H])[H])C([H])([H])[H])nc1N([H])C(=O)N1C([H])([H])C([H])([H])C([H])([H])C([H])(n2nc(-c3c([H])c([H])c(Oc4c([H])c([H])c(F)c([H])c4F)c([H])c3[H])c(C(=O)N([H])[H])c2N([H])[H])C1([H])[H]

>  <smiles>  (85) 
[H]c1sc(C([H])(C(=O)F)N([H])C(=O)C([H])(Oc2c([H])c([H])c3c(c2[H])C([H])([H])N(C(=O)C([H])(N([H])C(=O)C([H])(N([H])C([H])([H])[H])C([H])([H])[H])C(C([H])([H])[H])(C([H])([H])[H])C([H])([H])[H])C([H])(C(=O)N([H])C2([H])c4c([H])c([H])c([H])c([H])c4C([H])([H])C([H])([H])C2([H])[H])C3([H])[H])C([H])([H])[H])nc1N([H])C(=O)N1C([H])([H])C([H])([H])C([H])([H])C([H])(n2nc(-c3c([H])c([H])c(Oc4c([H])c([H])c(F)c([H])c4F)c([H])c3[H])c(C(=O)N([H])[H])c2N([H])[H])C1([H])[H]

$$$$
86:0:0
     RDKit          3D

 95103  0  0  1  0  0  0  0  0999 V2000
  -29.1600  -21.8540   20.3950 C   0  0  0  0  0  0  0  0  0  0  0  0
  -28.7600  -20.5580   20.4470 N   0  0  0  0  0  0  0  0  0  0  0  0
  -30.3390  -22.2160   20.3080 O   0  0  0  0  0  0  0  0  0  0  0  0
  -27.7880  -20.4340   20.6970 H   0  0  0  0  0  0  0  0  0  0  0  0
  -29.4100  -18.1470   20.6690 C   0  0  0  0  0  3  0  0  0  0  0  0
  -30.6870  -18.2710   18.1760 C   0  0  0  0  0  3  0  0  0  0  0  0
  -29.4620  -19.3940   19.9710 C   0  0  0  0  0  0  0  0  0  0  0  0
  -30.0110  -16.9610   20.1410 C   0  0  0  0  0  0  0  0  0  0  0  0
  -30.1130  -19.4320   18.7150 C   0  0  0  0  0  0  0  0  0  0  0  0
  -30.6200  -17.0450   18.8590 C   0  0  0  0  0  0  0  0  0  0  0  0
  -30.1300  -20.5640   17.9690 F   0  0  0  0  0  0  0  0  0  0  0  0
  -31.0930  -15.9470   18.2220 F   0  0  0  0  0  0  0  0  0  0  0  0
  -30.7210  -14.6200   20.7090 C   0  0  0  0  0  0  0  0  0  0  0  0
  -30.5460  -12.3830   19.7090 C   0  0  0  0  0  2  0  0  0  0  0  0
  -29.6730  -12.5120   18.4430 C   0  0  0  0  0  2  0  0  0  0  0  0
  -28.1790  -12.3630   18.7950 C   0  0  0  0  0  2  0  0  0  0  0  0
  -27.7540  -13.2490   19.9970 C   0  0  0  0  0  3  0  0  0  0  0  0
  -28.7490  -13.1160   21.1710 C   0  0  0  0  0  2  0  0  0  0  0  0
  -30.0950  -13.4120   20.6590 N   0  0  0  0  0  0  0  0  0  0  0  0
  -31.9230  -14.7500   20.4650 O   0  0  0  0  0  0  0  0  0  0  0  0
  -29.9060  -15.6990   20.8430 N   0  0  0  0  0  0  0  0  0  0  0  0
  -29.0110  -15.5080   21.2640 H   0  0  0  0  0  0  0  0  0  0  0  0
  -25.3210  -13.8450   20.5800 C   0  0  0  0  0  0  0  0  0  0  0  0
  -24.2420  -13.0690   20.9060 C   0  0  0  0  0  0  0  0  0  0  0  0
  -24.7140  -11.7210   20.9220 C   0  0  0  0  0  0  0  0  0  0  0  0
  -26.3830  -12.9690   20.4140 N   0  0  0  0  0  0  0  0  0  0  0  0
  -26.0200  -11.6880   20.6800 N   0  0  0  0  0  0  0  0  0  0  0  0
  -23.9900  -10.4550   21.0940 C   0  0  0  0  0  0  0  0  0  0  0  0
  -24.3860   -9.5030   22.0590 C   0  0  0  0  0  3  0  0  0  0  0  0
  -23.6630   -8.3010   22.2160 C   0  0  0  0  0  3  0  0  0  0  0  0
  -22.5290   -8.0440   21.4090 C   0  0  0  0  0  0  0  0  0  0  0  0
  -22.1520   -8.9850   20.4360 C   0  0  0  0  0  3  0  0  0  0  0  0
  -22.8760  -10.1780   20.2750 C   0  0  0  0  0  3  0  0  0  0  0  0
  -21.7810   -6.8940   21.4760 O   0  0  0  0  0  0  0  0  0  0  0  0
  -21.6840   -6.1630   22.6330 C   0  0  0  0  0  0  0  0  0  0  0  0
  -21.1810   -6.7230   23.8280 C   0  0  0  0  0  3  0  0  0  0  0  0
  -21.0340   -5.9170   24.9740 C   0  0  0  0  0  3  0  0  0  0  0  0
  -21.3800   -4.5530   24.9270 C   0  0  0  0  0  0  0  0  0  0  0  0
  -21.8770   -3.9930   23.7370 C   0  0  0  0  0  3  0  0  0  0  0  0
  -22.0250   -4.7960   22.5930 C   0  0  0  0  0  0  0  0  0  0  0  0
  -22.4840   -4.2470   21.4420 F   0  0  0  0  0  0  0  0  0  0  0  0
  -21.2320   -3.7780   26.0260 F   0  0  0  0  0  0  0  0  0  0  0  0
  -22.8290  -13.5380   21.0980 C   0  0  0  0  0  0  0  0  0  0  0  0
  -22.0610  -12.8480   21.9350 N   0  0  0  0  0  0  0  0  0  0  0  0
  -22.4110  -14.5520   20.5410 O   0  0  0  0  0  0  0  0  0  0  0  0
  -22.4110  -12.0280   22.4090 H   0  0  0  0  0  0  0  0  0  0  0  0
  -21.1120  -13.1460   22.1050 H   0  0  0  0  0  0  0  0  0  0  0  0
  -25.4840  -15.2140   20.3880 N   0  0  0  0  0  0  0  0  0  0  0  0
  -24.7070  -15.8610   20.4420 H   0  0  0  0  0  0  0  0  0  0  0  0
  -26.3410  -15.6510   20.0730 H   0  0  0  0  0  0  0  0  0  0  0  0
  -27.9770  -22.8800   20.5160 C   0  0  0  0  0  0  0  0  0  0  0  0
  -26.8110  -22.5360   20.2840 O   0  0  0  0  0  0  0  0  0  0  0  0
  -28.2660  -24.3380   20.9580 C   0  0  0  0  0  2  0  0  0  0  0  0
  -28.5240  -25.3570   19.8100 C   0  0  0  0  0  2  0  0  0  0  0  0
  -28.4490  -26.7450   20.2290 O   0  0  0  0  0  0  0  0  0  0  0  0
  -24.5620  -31.9140   23.2660 C   0  0  0  0  0  0  0  0  0  0  0  0
  -27.2510  -27.4500   20.2100 C   0  0  0  0  0  0  0  0  0  0  0  0
  -23.3770  -30.5030   21.6180 C   0  0  0  0  0  3  0  0  0  0  0  0
  -24.8470  -28.9710   20.2060 C   0  0  0  0  0  0  0  0  0  0  0  0
  -25.9060  -30.8690   21.4390 C   0  0  0  0  0  2  0  0  0  0  0  0
  -26.0020  -29.4950   20.7990 C   0  0  0  0  0  0  0  0  0  0  0  0
  -27.2030  -28.7450   20.7920 C   0  0  0  0  0  3  0  0  0  0  0  0
  -26.0660  -26.9440   19.6240 C   0  0  0  0  0  3  0  0  0  0  0  0
  -24.8780  -27.6960   19.6170 C   0  0  0  0  0  3  0  0  0  0  0  0
  -23.6000  -29.8250   20.2410 C   0  0  0  0  0  2  0  0  0  0  0  0
  -24.6340  -31.1110   22.1660 N   0  0  0  0  0  0  0  0  0  0  0  0
  -23.4750  -32.1790   23.7990 O   0  0  0  0  0  0  0  0  0  0  0  0
  -22.7250  -29.4770   22.5760 C   0  0  0  0  0  0  0  0  0  0  0  0
  -21.4020  -29.2910   22.4440 N   0  0  0  0  0  0  0  0  0  0  0  0
  -23.4090  -28.8540   23.3920 O   0  0  0  0  0  0  0  0  0  0  0  0
  -20.9120  -29.8470   21.7560 H   0  0  0  0  0  0  0  0  0  0  0  0
  -18.0300  -28.0890   22.9330 C   0  0  0  0  0  0  0  0  0  0  0  0
  -20.5860  -28.3480   23.2090 C   0  0  0  0  0  3  0  0  0  0  0  0
  -20.6920  -26.9200   22.6270 C   0  0  0  0  0  2  0  0  0  0  0  0
  -19.5910  -26.6000   21.6090 C   0  0  0  0  0  2  0  0  0  0  0  0
  -18.2080  -26.7410   22.2520 C   0  0  0  0  0  2  0  0  0  0  0  0
  -19.1470  -28.8500   23.3680 C   0  0  0  0  0  0  0  0  0  0  0  0
  -18.9250  -30.1110   23.9630 C   0  0  0  0  0  3  0  0  0  0  0  0
  -17.6210  -30.6100   24.1280 C   0  0  0  0  0  3  0  0  0  0  0  0
  -16.5180  -29.8460   23.7110 C   0  0  0  0  0  3  0  0  0  0  0  0
  -16.7230  -28.5870   23.1190 C   0  0  0  0  0  3  0  0  0  0  0  0
  -25.8390  -32.5550   23.8950 C   0  0  0  0  0  3  0  0  0  0  0  0
  -26.3380  -31.8050   25.1900 C   0  0  1  0  0  0  0  0  0  0  0  0
  -25.2310  -31.5830   26.2460 C   0  0  0  0  0  1  0  0  0  0  0  0
  -26.9270  -30.4210   24.8270 C   0  0  0  0  0  1  0  0  0  0  0  0
  -27.4790  -32.6090   25.8550 C   0  0  0  0  0  1  0  0  0  0  0  0
  -25.5270  -33.9580   24.1960 N   0  0  0  0  0  0  0  0  0  0  0  0
  -25.8730  -34.9970   23.4230 C   0  0  0  0  0  0  0  0  0  0  0  0
  -26.5590  -34.8740   22.4050 O   0  0  0  0  0  0  0  0  0  0  0  0
  -24.9190  -34.1270   24.9840 H   0  0  0  0  0  0  0  0  0  0  0  0
  -24.1600  -36.7890   23.0000 C   0  0  0  0  0  1  0  0  0  0  0  0
  -25.3790  -36.3930   23.8480 C   0  0  0  0  0  3  0  0  0  0  0  0
  -27.4930  -37.2860   24.7210 C   0  0  0  0  0  1  0  0  0  0  0  0
  -26.4190  -37.4410   23.7440 N   0  0  0  0  0  0  0  0  0  0  0  0
  -26.0120  -38.3650   23.8630 H   0  0  0  0  0  0  0  0  0  0  0  0
  1  2  1  0
  1 51  1  0
  2  4  1  0
  3  1  2  0
  6  9  2  0
  6 10  1  0
  7  2  1  0
  7  5  2  0
  8  5  1  0
  8 21  1  0
  9  7  1  0
 10  8  2  0
 11  9  1  0
 12 10  1  0
 13 21  1  0
 14 19  1  0
 15 16  1  0
 15 14  1  0
 17 16  1  0
 17 26  1  0
 17 18  1  0
 19 13  1  0
 19 18  1  0
 20 13  2  0
 21 22  1  0
 23 24  2  0
 24 25  1  0
 24 43  1  0
 25 28  1  0
 26 23  1  0
 26 27  1  0
 27 25  2  0
 28 29  1  0
 29 30  2  0
 31 34  1  0
 31 30  1  0
 32 31  2  0
 33 32  1  0
 33 28  2  0
 34 35  1  0
 35 36  1  0
 36 37  2  0
 38 37  1  0
 38 42  1  0
 39 38  2  0
 40 35  2  0
 40 39  1  0
 41 40  1  0
 43 44  1  0
 44 47  1  0
 44 46  1  0
 45 43  2  0
 48 49  1  0
 48 23  1  0
 50 48  1  0
 51 53  1  0
 52 51  2  0
 54 55  1  0
 54 53  1  0
 56 67  2  0
 57 55  1  0
 57 62  1  0
 58 66  1  0
 58 68  1  0
 59 65  1  0
 59 61  1  0
 60 66  1  0
 61 60  1  0
 62 61  2  0
 63 57  2  0
 64 63  1  0
 64 59  2  0
 65 58  1  0
 66 56  1  0
 68 70  2  0
 69 68  1  0
 71 69  1  0
 72 81  2  0
 72 77  1  0
 73 69  1  0
 73 77  1  0
 74 73  1  0
 75 76  1  0
 75 74  1  0
 76 72  1  0
 77 78  2  0
 78 79  1  0
 80 79  2  0
 81 80  1  0
 82 56  1  0
 82 87  1  0
 82 83  1  0
 83 86  1  1
 83 84  1  0
 85 83  1  0
 87 90  1  0
 88 92  1  0
 88 87  1  0
 89 88  2  0
 92 91  1  0
 94 92  1  0
 94 95  1  0
 94 93  1  0
M  ISO  4  13 100  21 100  54 101  55 101
M  END
>  <TORSDO>  (86) 
F 20

>  <SCORE>  (86) 
-13.990

>  <name>  (86) 
86

>  <ligand_id>  (86) 
86

>  <original_smiles>  (86) 
[H]c1c([H])c([H])c2c(c1[H])C([H])([H])C([H])([H])C([H])([H])C2([H])N([H])C(=O)C1([H])N(C(=O)C([H])(N([H])C(=O)C([H])(N([H])C([H])([H])[H])C([H])([H])[H])C(C([H])([H])[H])(C([H])([H])[H])C([H])([H])[H])C([H])([H])c2c([H])c(OC([H])([H])C([H])([H])C(=O)C(=O)N([H])c3c([H])c(N([H])C(=O)N4C([H])([H])C([H])([H])C([H])([H])C([H])(n5nc(-c6c([H])c([H])c(Oc7c([H])c([H])c(F)c([H])c7F)c([H])c6[H])c(C(=O)N([H])[H])c5N([H])[H])C4([H])[H])c(F)c([H])c3F)c([H])c([H])c2C1([H])[H]

>  <smiles>  (86) 
[H]c1c([H])c([H])c2c(c1[H])C([H])([H])C([H])([H])C([H])([H])C2([H])N([H])C(=O)C1([H])N(C(=O)C([H])(N([H])C(=O)C([H])(N([H])C([H])([H])[H])C([H])([H])[H])C(C([H])([H])[H])(C([H])([H])[H])C([H])([H])[H])C([H])([H])c2c([H])c(OC([H])([H])C([H])([H])C(=O)C(=O)N([H])c3c([H])c(N([H])C(=O)N4C([H])([H])C([H])([H])C([H])([H])C([H])(n5nc(-c6c([H])c([H])c(Oc7c([H])c([H])c(F)c([H])c7F)c([H])c6[H])c(C(=O)N([H])[H])c5N([H])[H])C4([H])[H])c(F)c([H])c3F)c([H])c([H])c2C1([H])[H]

$$$$
87:0:0
     RDKit          3D

 95103  0  0  1  0  0  0  0  0999 V2000
  -30.4580  -20.9880   21.2340 C   0  0  0  0  0  0  0  0  0  0  0  0
  -29.3880  -21.5960   20.6830 N   0  0  0  0  0  0  0  0  0  0  0  0
  -31.2350  -21.5710   21.9890 O   0  0  0  0  0  0  0  0  0  0  0  0
  -28.9080  -21.0290   20.0000 H   0  0  0  0  0  0  0  0  0  0  0  0
  -30.7500  -14.5990   20.1520 C   0  0  0  0  0  0  0  0  0  0  0  0
  -30.3560  -12.4430   19.0020 C   0  0  0  0  0  2  0  0  0  0  0  0
  -29.3820  -12.6700   17.8290 C   0  0  0  0  0  2  0  0  0  0  0  0
  -27.9230  -12.5390   18.3100 C   0  0  0  0  0  2  0  0  0  0  0  0
  -27.6390  -13.3680   19.5930 C   0  0  0  0  0  3  0  0  0  0  0  0
  -28.7340  -13.1460   20.6610 C   0  0  0  0  0  2  0  0  0  0  0  0
  -30.0380  -13.4390   20.0440 N   0  0  0  0  0  0  0  0  0  0  0  0
  -31.8720  -14.7050   19.6500 O   0  0  0  0  0  0  0  0  0  0  0  0
  -30.6990  -19.5460   20.8990 C   0  0  0  0  0  0  0  0  0  0  0  0
  -31.8570  -18.8900   20.5370 C   0  0  0  0  0  0  0  0  0  0  0  0
  -30.4840  -17.0510   20.7180 C   0  0  0  0  0  0  0  0  0  0  0  0
  -33.2000  -19.5030   20.2700 C   0  0  0  0  0  1  0  0  0  0  0  0
  -31.7170  -17.4940   20.4290 N   0  0  0  0  0  0  0  0  0  0  0  0
  -30.1010  -15.6610   20.6940 N   0  0  0  0  0  0  0  0  0  0  0  0
  -29.3930  -18.3850   21.1500 S   0  0  0  0  0  0  0  0  0  0  0  0
  -29.1740  -15.4630   21.0360 H   0  0  0  0  0  0  0  0  0  0  0  0
  -25.2750  -13.9830   20.3990 C   0  0  0  0  0  0  0  0  0  0  0  0
  -24.2140  -13.2150   20.7980 C   0  0  0  0  0  0  0  0  0  0  0  0
  -24.6610  -11.8600   20.7380 C   0  0  0  0  0  0  0  0  0  0  0  0
  -26.3030  -13.0950   20.1210 N   0  0  0  0  0  0  0  0  0  0  0  0
  -25.9400  -11.8130   20.3820 N   0  0  0  0  0  0  0  0  0  0  0  0
  -23.9300  -10.6020   20.9410 C   0  0  0  0  0  0  0  0  0  0  0  0
  -24.3740   -9.6290   21.8630 C   0  0  0  0  0  3  0  0  0  0  0  0
  -23.6430   -8.4360   22.0540 C   0  0  0  0  0  3  0  0  0  0  0  0
  -22.4520   -8.2100   21.3230 C   0  0  0  0  0  0  0  0  0  0  0  0
  -22.0260   -9.1730   20.3890 C   0  0  0  0  0  3  0  0  0  0  0  0
  -22.7600  -10.3550   20.1970 C   0  0  0  0  0  3  0  0  0  0  0  0
  -21.6900   -7.0710   21.4240 O   0  0  0  0  0  0  0  0  0  0  0  0
  -21.6520   -6.3310   22.5780 C   0  0  0  0  0  0  0  0  0  0  0  0
  -21.1920   -6.8760   23.7970 C   0  0  0  0  0  3  0  0  0  0  0  0
  -21.1020   -6.0620   24.9440 C   0  0  0  0  0  3  0  0  0  0  0  0
  -21.4630   -4.7030   24.8720 C   0  0  0  0  0  0  0  0  0  0  0  0
  -21.9150   -4.1570   23.6580 C   0  0  0  0  0  3  0  0  0  0  0  0
  -22.0060   -4.9680   22.5140 C   0  0  0  0  0  0  0  0  0  0  0  0
  -22.4230   -4.4320   21.3420 F   0  0  0  0  0  0  0  0  0  0  0  0
  -21.3700   -3.9180   25.9710 F   0  0  0  0  0  0  0  0  0  0  0  0
  -22.8310  -13.7030   21.1230 C   0  0  0  0  0  0  0  0  0  0  0  0
  -22.1210  -12.9950   21.9960 N   0  0  0  0  0  0  0  0  0  0  0  0
  -22.3880  -14.7440   20.6400 O   0  0  0  0  0  0  0  0  0  0  0  0
  -22.4910  -12.1510   22.4080 H   0  0  0  0  0  0  0  0  0  0  0  0
  -21.1950  -13.3020   22.2570 H   0  0  0  0  0  0  0  0  0  0  0  0
  -25.4460  -15.3540   20.2310 N   0  0  0  0  0  0  0  0  0  0  0  0
  -24.6890  -16.0140   20.3750 H   0  0  0  0  0  0  0  0  0  0  0  0
  -26.2820  -15.7880   19.8600 H   0  0  0  0  0  0  0  0  0  0  0  0
  -27.1930  -22.5480   20.6500 C   0  0  0  0  0  1  0  0  0  0  0  0
  -28.6750  -23.0230   22.6100 C   0  0  0  0  0  1  0  0  0  0  0  0
  -28.6560  -22.8360   21.0730 C   0  0  1  0  0  0  0  0  0  0  0  0
  -29.1900  -24.1560   20.3980 C   0  0  0  0  0  0  0  0  0  0  0  0
  -30.3950  -24.3420   20.1980 O   0  0  0  0  0  0  0  0  0  0  0  0
  -28.1300  -25.2140   19.9770 C   0  0  0  0  0  2  0  0  0  0  0  0
  -28.4700  -26.6320   20.0570 O   0  0  0  0  0  0  0  0  0  0  0  0
  -24.5690  -31.7610   23.2060 C   0  0  0  0  0  0  0  0  0  0  0  0
  -27.3390  -27.4490   19.9970 C   0  0  0  0  0  0  0  0  0  0  0  0
  -23.4190  -30.3960   21.5010 C   0  0  0  0  0  3  0  0  0  0  0  0
  -24.9250  -28.9610   20.0270 C   0  0  0  0  0  0  0  0  0  0  0  0
  -25.9470  -30.8060   21.3540 C   0  0  0  0  0  2  0  0  0  0  0  0
  -26.0730  -29.4620   20.6570 C   0  0  0  0  0  0  0  0  0  0  0  0
  -27.2820  -28.7160   20.6410 C   0  0  0  0  0  3  0  0  0  0  0  0
  -26.1690  -27.0050   19.3280 C   0  0  0  0  0  3  0  0  0  0  0  0
  -24.9740  -27.7350   19.3550 C   0  0  0  0  0  3  0  0  0  0  0  0
  -23.6620  -29.7890   20.0960 C   0  0  0  0  0  2  0  0  0  0  0  0
  -24.6630  -30.9990   22.0780 N   0  0  0  0  0  0  0  0  0  0  0  0
  -23.4740  -31.9860   23.7390 O   0  0  0  0  0  0  0  0  0  0  0  0
  -22.7810  -29.3180   22.4090 C   0  0  0  0  0  0  0  0  0  0  0  0
  -21.4620  -29.1050   22.2560 N   0  0  0  0  0  0  0  0  0  0  0  0
  -23.4690  -28.6820   23.2100 O   0  0  0  0  0  0  0  0  0  0  0  0
  -20.9650  -29.6760   21.5870 H   0  0  0  0  0  0  0  0  0  0  0  0
  -18.1130  -27.8130   22.6740 C   0  0  0  0  0  0  0  0  0  0  0  0
  -20.6620  -28.1180   22.9820 C   0  0  0  0  0  3  0  0  0  0  0  0
  -20.8040  -26.7140   22.3510 C   0  0  0  0  0  2  0  0  0  0  0  0
  -19.7170  -26.4050   21.3160 C   0  0  0  0  0  2  0  0  0  0  0  0
  -18.3260  -26.4940   21.9500 C   0  0  0  0  0  2  0  0  0  0  0  0
  -19.2090  -28.5810   23.1460 C   0  0  0  0  0  0  0  0  0  0  0  0
  -18.9560  -29.8150   23.7850 C   0  0  0  0  0  3  0  0  0  0  0  0
  -17.6390  -30.2810   23.9550 C   0  0  0  0  0  3  0  0  0  0  0  0
  -16.5560  -29.5080   23.5010 C   0  0  0  0  0  3  0  0  0  0  0  0
  -16.7940  -28.2750   22.8670 C   0  0  0  0  0  3  0  0  0  0  0  0
  -25.8300  -32.4020   23.8630 C   0  0  0  0  0  3  0  0  0  0  0  0
  -26.3170  -31.6320   25.1500 C   0  0  1  0  0  0  0  0  0  0  0  0
  -25.1940  -31.3770   26.1830 C   0  0  0  0  0  1  0  0  0  0  0  0
  -26.9290  -30.2640   24.7690 C   0  0  0  0  0  1  0  0  0  0  0  0
  -27.4400  -32.4340   25.8490 C   0  0  0  0  0  1  0  0  0  0  0  0
  -25.4990  -33.7960   24.1850 N   0  0  0  0  0  0  0  0  0  0  0  0
  -25.8310  -34.8520   23.4300 C   0  0  0  0  0  0  0  0  0  0  0  0
  -26.5200  -34.7550   22.4100 O   0  0  0  0  0  0  0  0  0  0  0  0
  -24.8890  -33.9460   24.9770 H   0  0  0  0  0  0  0  0  0  0  0  0
  -24.0950  -36.6270   23.0340 C   0  0  0  0  0  1  0  0  0  0  0  0
  -25.3190  -36.2340   23.8760 C   0  0  0  0  0  3  0  0  0  0  0  0
  -27.4150  -37.1470   24.7710 C   0  0  0  0  0  1  0  0  0  0  0  0
  -26.3430  -37.2970   23.7890 N   0  0  0  0  0  0  0  0  0  0  0  0
  -25.9240  -38.2140   23.9180 H   0  0  0  0  0  0  0  0  0  0  0  0
  1  3  2  0
  2 51  1  0
  2  1  1  0
  4  2  1  0
  5 18  1  0
  6 11  1  0
  7  8  1  0
  7  6  1  0
  9  8  1  0
  9 24  1  0
  9 10  1  0
 11  5  1  0
 11 10  1  0
 12  5  2  0
 13 19  1  0
 13  1  1  0
 14 13  2  0
 15 19  1  0
 16 14  1  0
 17 14  1  0
 17 15  2  0
 18 15  1  0
 18 20  1  0
 21 22  2  0
 22 41  1  0
 23 22  1  0
 23 26  1  0
 24 25  1  0
 24 21  1  0
 25 23  2  0
 26 27  1  0
 27 28  2  0
 29 32  1  0
 29 28  1  0
 30 29  2  0
 31 30  1  0
 31 26  2  0
 32 33  1  0
 33 34  1  0
 34 35  2  0
 36 35  1  0
 36 40  1  0
 37 36  2  0
 38 33  2  0
 38 37  1  0
 39 38  1  0
 41 42  1  0
 42 45  1  0
 42 44  1  0
 43 41  2  0
 46 47  1  0
 46 21  1  0
 48 46  1  0
 51 49  1  6
 51 50  1  0
 52 51  1  0
 53 52  2  0
 54 55  1  0
 54 52  1  0
 56 67  2  0
 57 55  1  0
 57 62  1  0
 58 66  1  0
 58 68  1  0
 59 65  1  0
 59 61  1  0
 60 66  1  0
 61 60  1  0
 62 61  2  0
 63 64  1  0
 63 57  2  0
 64 59  2  0
 65 58  1  0
 66 56  1  0
 68 70  2  0
 69 68  1  0
 71 69  1  0
 72 81  2  0
 72 77  1  0
 73 69  1  0
 73 77  1  0
 74 73  1  0
 75 76  1  0
 75 74  1  0
 76 72  1  0
 77 78  2  0
 78 79  1  0
 80 79  2  0
 81 80  1  0
 82 56  1  0
 82 87  1  0
 82 83  1  0
 83 86  1  1
 83 84  1  0
 85 83  1  0
 87 90  1  0
 88 92  1  0
 88 87  1  0
 89 88  2  0
 92 91  1  0
 94 92  1  0
 94 95  1  0
 94 93  1  0
M  ISO  4   5 100  18 100  54 101  55 101
M  END
>  <TORSDO>  (87) 
F 19

>  <SCORE>  (87) 
-13.891

>  <name>  (87) 
87

>  <ligand_id>  (87) 
87

>  <original_smiles>  (87) 
[H]c1c([H])c([H])c2c(c1[H])C([H])([H])C([H])([H])C([H])([H])C2([H])N([H])C(=O)C1([H])N(C(=O)C([H])(N([H])C(=O)C([H])(N([H])C([H])([H])[H])C([H])([H])[H])C(C([H])([H])[H])(C([H])([H])[H])C([H])([H])[H])C([H])([H])c2c([H])c(OC([H])([H])C(=O)C(N([H])C(=O)c3sc(N([H])C(=O)N4C([H])([H])C([H])([H])C([H])([H])C([H])(n5nc(-c6c([H])c([H])c(Oc7c([H])c([H])c(F)c([H])c7F)c([H])c6[H])c(C(=O)N([H])[H])c5N([H])[H])C4([H])[H])nc3C([H])([H])[H])(C([H])([H])[H])C([H])([H])[H])c([H])c([H])c2C1([H])[H]

>  <smiles>  (87) 
[H]c1c([H])c([H])c2c(c1[H])C([H])([H])C([H])([H])C([H])([H])C2([H])N([H])C(=O)C1([H])N(C(=O)C([H])(N([H])C(=O)C([H])(N([H])C([H])([H])[H])C([H])([H])[H])C(C([H])([H])[H])(C([H])([H])[H])C([H])([H])[H])C([H])([H])c2c([H])c(OC([H])([H])C(=O)C(N([H])C(=O)c3sc(N([H])C(=O)N4C([H])([H])C([H])([H])C([H])([H])C([H])(n5nc(-c6c([H])c([H])c(Oc7c([H])c([H])c(F)c([H])c7F)c([H])c6[H])c(C(=O)N([H])[H])c5N([H])[H])C4([H])[H])nc3C([H])([H])[H])(C([H])([H])[H])C([H])([H])[H])c([H])c([H])c2C1([H])[H]

$$$$
88:0:0
     RDKit          3D

 97105  0  0  1  0  0  0  0  0999 V2000
  -30.3910  -22.0080   20.5710 C   0  0  0  0  0  0  0  0  0  0  0  0
  -29.6740  -24.2880   20.0090 C   0  0  0  0  0  0  0  0  0  0  0  0
  -29.4790  -22.9930   20.3700 N   0  0  0  0  0  0  0  0  0  0  0  0
  -31.5520  -22.0490   20.1460 O   0  0  0  0  0  0  0  0  0  0  0  0
  -30.7830  -24.8360   19.9820 O   0  0  0  0  0  0  0  0  0  0  0  0
  -28.5200  -22.7410   20.5540 H   0  0  0  0  0  0  0  0  0  0  0  0
  -28.3680  -25.1070   18.0390 C   0  0  0  0  0  1  0  0  0  0  0  0
  -28.4230  -25.1100   19.5820 C   0  0  0  0  0  3  0  0  0  0  0  0
  -28.4610  -26.4910   20.0570 O   0  0  0  0  0  0  0  0  0  0  0  0
  -24.6530  -31.7450   23.1210 C   0  0  0  0  0  0  0  0  0  0  0  0
  -27.2850  -27.2460   20.0460 C   0  0  0  0  0  0  0  0  0  0  0  0
  -23.4440  -30.3410   21.4890 C   0  0  0  0  0  3  0  0  0  0  0  0
  -24.8940  -28.8000   20.0650 C   0  0  0  0  0  0  0  0  0  0  0  0
  -25.9790  -30.6810   21.2900 C   0  0  0  0  0  2  0  0  0  0  0  0
  -26.0600  -29.3060   20.6520 C   0  0  0  0  0  0  0  0  0  0  0  0
  -27.2560  -28.5400   20.6370 C   0  0  0  0  0  3  0  0  0  0  0  0
  -26.0830  -26.7670   19.4710 C   0  0  0  0  0  3  0  0  0  0  0  0
  -24.9040  -27.5310   19.4720 C   0  0  0  0  0  3  0  0  0  0  0  0
  -23.6530  -29.6630   20.1100 C   0  0  0  0  0  2  0  0  0  0  0  0
  -24.7120  -30.9370   22.0240 N   0  0  0  0  0  0  0  0  0  0  0  0
  -23.5710  -32.0200   23.6580 O   0  0  0  0  0  0  0  0  0  0  0  0
  -22.7910  -29.3210   22.4490 C   0  0  0  0  0  0  0  0  0  0  0  0
  -21.4660  -29.1380   22.3220 N   0  0  0  0  0  0  0  0  0  0  0  0
  -23.4720  -28.6980   23.2680 O   0  0  0  0  0  0  0  0  0  0  0  0
  -20.9740  -29.6910   21.6330 H   0  0  0  0  0  0  0  0  0  0  0  0
  -18.0960  -27.9210   22.8020 C   0  0  0  0  0  0  0  0  0  0  0  0
  -20.6490  -28.2010   23.0930 C   0  0  0  0  0  3  0  0  0  0  0  0
  -20.7710  -26.7650   22.5330 C   0  0  0  0  0  2  0  0  0  0  0  0
  -19.6790  -26.4220   21.5150 C   0  0  0  0  0  2  0  0  0  0  0  0
  -18.2890  -26.5660   22.1420 C   0  0  0  0  0  2  0  0  0  0  0  0
  -19.2060  -28.6950   23.2340 C   0  0  0  0  0  0  0  0  0  0  0  0
  -18.9720  -29.9650   23.8070 C   0  0  0  0  0  3  0  0  0  0  0  0
  -17.6630  -30.4600   23.9550 C   0  0  0  0  0  3  0  0  0  0  0  0
  -16.5680  -29.6810   23.5400 C   0  0  0  0  0  3  0  0  0  0  0  0
  -16.7850  -28.4140   22.9700 C   0  0  0  0  0  3  0  0  0  0  0  0
  -25.9380  -32.3790   23.7390 C   0  0  0  0  0  3  0  0  0  0  0  0
  -26.4810  -31.5880   24.9920 C   0  0  1  0  0  0  0  0  0  0  0  0
  -25.4040  -31.3180   26.0680 C   0  0  0  0  0  1  0  0  0  0  0  0
  -27.0750  -30.2260   24.5620 C   0  0  0  0  0  1  0  0  0  0  0  0
  -27.6290  -32.3840   25.6570 C   0  0  0  0  0  1  0  0  0  0  0  0
  -25.6200  -33.7660   24.1030 N   0  0  0  0  0  0  0  0  0  0  0  0
  -25.9230  -34.8370   23.3580 C   0  0  0  0  0  0  0  0  0  0  0  0
  -26.5760  -34.7630   22.3130 O   0  0  0  0  0  0  0  0  0  0  0  0
  -25.0470  -33.9010   24.9230 H   0  0  0  0  0  0  0  0  0  0  0  0
  -24.1620  -36.6080   23.0730 C   0  0  0  0  0  1  0  0  0  0  0  0
  -25.4240  -36.2070   23.8520 C   0  0  0  0  0  3  0  0  0  0  0  0
  -27.5630  -37.1040   24.6590 C   0  0  0  0  0  1  0  0  0  0  0  0
  -26.4370  -37.2790   23.7450 N   0  0  0  0  0  0  0  0  0  0  0  0
  -26.0200  -38.1870   23.9300 H   0  0  0  0  0  0  0  0  0  0  0  0
  -29.9540  -20.7990   21.4610 C   0  0  0  0  0  3  0  0  0  0  0  0
  -30.8160  -14.4590   20.0810 C   0  0  0  0  0  0  0  0  0  0  0  0
  -30.4350  -12.3110   18.9140 C   0  0  0  0  0  2  0  0  0  0  0  0
  -29.4250  -12.5490   17.7700 C   0  0  0  0  0  2  0  0  0  0  0  0
  -27.9780  -12.4130   18.2850 C   0  0  0  0  0  2  0  0  0  0  0  0
  -27.7250  -13.2250   19.5850 C   0  0  0  0  0  3  0  0  0  0  0  0
  -28.8430  -12.9720   20.6240 C   0  0  0  0  0  2  0  0  0  0  0  0
  -30.1350  -13.2800   19.9840 N   0  0  0  0  0  0  0  0  0  0  0  0
  -31.9280  -14.6120   19.5650 O   0  0  0  0  0  0  0  0  0  0  0  0
  -31.2410  -18.9330   20.0810 C   0  0  0  0  0  3  0  0  0  0  0  0
  -30.2550  -19.3910   20.9310 C   0  0  0  0  0  0  0  0  0  0  0  0
  -30.3410  -16.8940   20.6380 C   0  0  0  0  0  0  0  0  0  0  0  0
  -31.2770  -17.5310   19.9210 N   0  0  0  0  0  0  0  0  0  0  0  0
  -30.1350  -15.4720   20.6690 N   0  0  0  0  0  0  0  0  0  0  0  0
  -29.3150  -18.0240   21.5270 S   0  0  0  0  0  0  0  0  0  0  0  0
  -29.2770  -15.1840   21.1110 H   0  0  0  0  0  0  0  0  0  0  0  0
  -25.3850  -13.8470   20.4540 C   0  0  0  0  0  0  0  0  0  0  0  0
  -24.3260  -13.0810   20.8610 C   0  0  0  0  0  0  0  0  0  0  0  0
  -24.7580  -11.7240   20.7590 C   0  0  0  0  0  0  0  0  0  0  0  0
  -26.3980  -12.9560   20.1350 N   0  0  0  0  0  0  0  0  0  0  0  0
  -26.0270  -11.6720   20.3740 N   0  0  0  0  0  0  0  0  0  0  0  0
  -24.0200  -10.4680   20.9490 C   0  0  0  0  0  0  0  0  0  0  0  0
  -24.4440   -9.4970   21.8830 C   0  0  0  0  0  3  0  0  0  0  0  0
  -23.7080   -8.3070   22.0620 C   0  0  0  0  0  3  0  0  0  0  0  0
  -22.5340   -8.0780   21.3070 C   0  0  0  0  0  0  0  0  0  0  0  0
  -22.1280   -9.0370   20.3620 C   0  0  0  0  0  3  0  0  0  0  0  0
  -22.8650  -10.2190   20.1810 C   0  0  0  0  0  3  0  0  0  0  0  0
  -21.7710   -6.9390   21.3950 O   0  0  0  0  0  0  0  0  0  0  0  0
  -21.6540   -6.2380   22.5690 C   0  0  0  0  0  0  0  0  0  0  0  0
  -21.1630   -6.8380   23.7490 C   0  0  0  0  0  3  0  0  0  0  0  0
  -20.9970   -6.0630   24.9140 C   0  0  0  0  0  3  0  0  0  0  0  0
  -21.3090   -4.6910   24.9000 C   0  0  0  0  0  0  0  0  0  0  0  0
  -21.7930   -4.0910   23.7230 C   0  0  0  0  0  3  0  0  0  0  0  0
  -21.9620   -4.8630   22.5600 C   0  0  0  0  0  0  0  0  0  0  0  0
  -22.4080   -4.2750   21.4240 F   0  0  0  0  0  0  0  0  0  0  0  0
  -21.1420   -3.9450   26.0170 F   0  0  0  0  0  0  0  0  0  0  0  0
  -22.9570  -13.5740   21.2320 C   0  0  0  0  0  0  0  0  0  0  0  0
  -22.2720  -12.8670   22.1260 N   0  0  0  0  0  0  0  0  0  0  0  0
  -22.5040  -14.6180   20.7640 O   0  0  0  0  0  0  0  0  0  0  0  0
  -22.6510  -12.0210   22.5240 H   0  0  0  0  0  0  0  0  0  0  0  0
  -21.3560  -13.1780   22.4150 H   0  0  0  0  0  0  0  0  0  0  0  0
  -25.5660  -15.2200   20.3090 N   0  0  0  0  0  0  0  0  0  0  0  0
  -24.8120  -15.8780   20.4690 H   0  0  0  0  0  0  0  0  0  0  0  0
  -26.3900  -15.6510   19.9110 H   0  0  0  0  0  0  0  0  0  0  0  0
  -30.5750  -20.9650   22.8760 C   0  0  0  0  0  2  0  0  0  0  0  0
  -31.2390  -22.3820   24.8740 C   0  0  0  0  0  1  0  0  0  0  0  0
  -29.1370  -22.9640   23.6150 C   0  0  0  0  0  1  0  0  0  0  0  0
  -30.5570  -22.3870   23.4990 C   0  0  0  0  0  3  0  0  0  0  0  0
  1 50  1  0
  2  3  1  0
  3  6  1  0
  3  1  1  0
  4  1  2  0
  5  2  2  0
  8  7  1  0
  8  2  1  0
  8  9  1  0
 10 21  2  0
 11  9  1  0
 11 16  1  0
 12 20  1  0
 12 22  1  0
 13 19  1  0
 13 15  1  0
 14 20  1  0
 15 14  1  0
 16 15  2  0
 17 18  1  0
 17 11  2  0
 18 13  2  0
 19 12  1  0
 20 10  1  0
 22 24  2  0
 23 22  1  0
 25 23  1  0
 26 35  2  0
 26 31  1  0
 27 23  1  0
 27 31  1  0
 28 27  1  0
 29 30  1  0
 29 28  1  0
 30 26  1  0
 31 32  2  0
 32 33  1  0
 34 33  2  0
 35 34  1  0
 36 10  1  0
 36 41  1  0
 36 37  1  0
 37 40  1  1
 37 38  1  0
 39 37  1  0
 41 44  1  0
 42 46  1  0
 42 41  1  0
 43 42  2  0
 46 45  1  0
 48 46  1  0
 48 49  1  0
 48 47  1  0
 50 94  1  0
 51 63  1  0
 52 57  1  0
 53 54  1  0
 53 52  1  0
 55 54  1  0
 55 69  1  0
 55 56  1  0
 57 51  1  0
 57 56  1  0
 58 51  2  0
 59 60  2  0
 60 50  1  0
 60 64  1  0
 61 63  1  0
 61 64  1  0
 62 59  1  0
 62 61  2  0
 63 65  1  0
 66 67  2  0
 67 86  1  0
 68 67  1  0
 68 71  1  0
 69 70  1  0
 69 66  1  0
 70 68  2  0
 71 72  1  0
 72 73  2  0
 74 77  1  0
 74 73  1  0
 75 74  2  0
 76 75  1  0
 76 71  2  0
 77 78  1  0
 78 79  1  0
 79 80  2  0
 81 80  1  0
 81 85  1  0
 82 81  2  0
 83 78  2  0
 83 82  1  0
 84 83  1  0
 86 87  1  0
 87 90  1  0
 87 89  1  0
 88 86  2  0
 91 66  1  0
 91 92  1  0
 93 91  1  0
 94 97  1  0
 97 96  1  0
 97 95  1  0
M  ISO  4   8 101   9 101  51 100  63 100
M  END
>  <TORSDO>  (88) 
F 20

>  <SCORE>  (88) 
-12.394

>  <name>  (88) 
88

>  <ligand_id>  (88) 
88

>  <original_smiles>  (88) 
[H]c1nc(N([H])C(=O)N2C([H])([H])C([H])([H])C([H])([H])C([H])(n3nc(-c4c([H])c([H])c(Oc5c([H])c([H])c(F)c([H])c5F)c([H])c4[H])c(C(=O)N([H])[H])c3N([H])[H])C2([H])[H])sc1C([H])(C(=O)N([H])C(=O)C([H])(Oc1c([H])c([H])c2c(c1[H])C([H])([H])N(C(=O)C([H])(N([H])C(=O)C([H])(N([H])C([H])([H])[H])C([H])([H])[H])C(C([H])([H])[H])(C([H])([H])[H])C([H])([H])[H])C([H])(C(=O)N([H])C1([H])c3c([H])c([H])c([H])c([H])c3C([H])([H])C([H])([H])C1([H])[H])C2([H])[H])C([H])([H])[H])C([H])([H])C([H])(C([H])([H])[H])C([H])([H])[H]

>  <smiles>  (88) 
[H]c1nc(N([H])C(=O)N2C([H])([H])C([H])([H])C([H])([H])C([H])(n3nc(-c4c([H])c([H])c(Oc5c([H])c([H])c(F)c([H])c5F)c([H])c4[H])c(C(=O)N([H])[H])c3N([H])[H])C2([H])[H])sc1C([H])(C(=O)N([H])C(=O)C([H])(Oc1c([H])c([H])c2c(c1[H])C([H])([H])N(C(=O)C([H])(N([H])C(=O)C([H])(N([H])C([H])([H])[H])C([H])([H])[H])C(C([H])([H])[H])(C([H])([H])[H])C([H])([H])[H])C([H])(C(=O)N([H])C1([H])c3c([H])c([H])c([H])c([H])c3C([H])([H])C([H])([H])C1([H])[H])C2([H])[H])C([H])([H])[H])C([H])([H])C([H])(C([H])([H])[H])C([H])([H])[H]

$$$$
89:0:0
     RDKit          3D

 96104  0  0  1  0  0  0  0  0999 V2000
  -30.6700  -20.5310   20.9150 C   0  0  0  0  0  0  0  0  0  0  0  0
  -29.9660  -19.3640   20.6440 C   0  0  0  0  0  0  0  0  0  0  0  0
  -28.8800  -21.5000   19.8350 C   0  0  0  0  0  0  0  0  0  0  0  0
  -27.9670  -23.8130   19.0700 C   0  0  0  0  0  0  0  0  0  0  0  0
  -31.9840  -20.6670   21.6350 C   0  0  0  0  0  1  0  0  0  0  0  0
  -30.0370  -21.7210   20.4700 N   0  0  0  0  0  0  0  0  0  0  0  0
  -28.1530  -22.4650   19.0590 N   0  0  0  0  0  0  0  0  0  0  0  0
  -27.7030  -24.3550   17.9930 O   0  0  0  0  0  0  0  0  0  0  0  0
  -28.5010  -19.7730   19.7540 S   0  0  0  0  0  0  0  0  0  0  0  0
  -27.7820  -22.0600   18.2130 H   0  0  0  0  0  0  0  0  0  0  0  0
  -28.0210  -24.7140   20.3390 C   0  0  0  0  0  2  0  0  0  0  0  0
  -28.1250  -26.1520   20.0380 O   0  0  0  0  0  0  0  0  0  0  0  0
  -24.5400  -31.5780   23.0610 C   0  0  0  0  0  0  0  0  0  0  0  0
  -26.9840  -26.9540   20.0340 C   0  0  0  0  0  0  0  0  0  0  0  0
  -23.2730  -30.2070   21.4380 C   0  0  0  0  0  3  0  0  0  0  0  0
  -24.6590  -28.5950   20.0210 C   0  0  0  0  0  0  0  0  0  0  0  0
  -25.8140  -30.4510   21.2310 C   0  0  0  0  0  2  0  0  0  0  0  0
  -25.8410  -29.0690   20.6010 C   0  0  0  0  0  0  0  0  0  0  0  0
  -27.0080  -28.2600   20.5940 C   0  0  0  0  0  3  0  0  0  0  0  0
  -25.7780  -26.5090   19.4470 C   0  0  0  0  0  3  0  0  0  0  0  0
  -24.6260  -27.3180   19.4370 C   0  0  0  0  0  3  0  0  0  0  0  0
  -23.4530  -29.5100   20.0630 C   0  0  0  0  0  2  0  0  0  0  0  0
  -24.5610  -30.7620   21.9670 N   0  0  0  0  0  0  0  0  0  0  0  0
  -23.4730  -31.8970   23.6050 O   0  0  0  0  0  0  0  0  0  0  0  0
  -22.5880  -29.2230   22.4150 C   0  0  0  0  0  0  0  0  0  0  0  0
  -21.2590  -29.0780   22.2880 N   0  0  0  0  0  0  0  0  0  0  0  0
  -23.2500  -28.5910   23.2430 O   0  0  0  0  0  0  0  0  0  0  0  0
  -20.7860  -29.6400   21.5940 H   0  0  0  0  0  0  0  0  0  0  0  0
  -17.8560  -27.9630   22.7840 C   0  0  0  0  0  0  0  0  0  0  0  0
  -20.4160  -28.1740   23.0710 C   0  0  0  0  0  3  0  0  0  0  0  0
  -20.4900  -26.7280   22.5290 C   0  0  0  0  0  2  0  0  0  0  0  0
  -19.3910  -26.4060   21.5110 C   0  0  0  0  0  2  0  0  0  0  0  0
  -18.0080  -26.5940   22.1410 C   0  0  0  0  0  2  0  0  0  0  0  0
  -18.9860  -28.7100   23.2080 C   0  0  0  0  0  0  0  0  0  0  0  0
  -18.7920  -29.9880   23.7710 C   0  0  0  0  0  3  0  0  0  0  0  0
  -17.4980  -30.5210   23.9170 C   0  0  0  0  0  3  0  0  0  0  0  0
  -16.3810  -29.7720   23.5080 C   0  0  0  0  0  3  0  0  0  0  0  0
  -16.5590  -28.4960   22.9470 C   0  0  0  0  0  3  0  0  0  0  0  0
  -25.8520  -32.1670   23.6660 C   0  0  0  0  0  3  0  0  0  0  0  0
  -26.4020  -31.3340   24.8900 C   0  0  1  0  0  0  0  0  0  0  0  0
  -25.3400  -31.0510   25.9760 C   0  0  0  0  0  1  0  0  0  0  0  0
  -26.9750  -29.9760   24.4210 C   0  0  0  0  0  1  0  0  0  0  0  0
  -27.5710  -32.0970   25.5580 C   0  0  0  0  0  1  0  0  0  0  0  0
  -25.5700  -33.5520   24.0630 N   0  0  0  0  0  0  0  0  0  0  0  0
  -25.9000  -34.6350   23.3460 C   0  0  0  0  0  0  0  0  0  0  0  0
  -26.5480  -34.5700   22.2990 O   0  0  0  0  0  0  0  0  0  0  0  0
  -24.9870  -33.6780   24.8790 H   0  0  0  0  0  0  0  0  0  0  0  0
  -24.1890  -36.4650   23.1120 C   0  0  0  0  0  1  0  0  0  0  0  0
  -25.4400  -36.0060   23.8770 C   0  0  0  0  0  3  0  0  0  0  0  0
  -27.6030  -36.8280   24.7010 C   0  0  0  0  0  1  0  0  0  0  0  0
  -26.4830  -37.0510   23.7900 N   0  0  0  0  0  0  0  0  0  0  0  0
  -26.0900  -37.9670   23.9860 H   0  0  0  0  0  0  0  0  0  0  0  0
  -30.2000  -17.8960   21.0800 C   0  0  0  0  0  3  0  0  0  0  0  0
  -30.9270  -17.8160   22.4490 C   0  0  1  0  0  0  0  0  0  0  0  0
  -30.3880  -18.6820   23.3080 F   0  0  0  0  0  0  0  0  0  0  0  0
  -30.8030  -16.5940   22.9710 F   0  0  0  0  0  0  0  0  0  0  0  0
  -32.2260  -18.0940   22.3320 F   0  0  0  0  0  0  0  0  0  0  0  0
  -30.7790  -16.8770   20.0190 C   0  0  0  0  0  2  0  0  0  0  0  0
  -31.0780  -14.3630   19.7130 C   0  0  0  0  0  0  0  0  0  0  0  0
  -30.6540  -12.1770   18.6380 C   0  0  0  0  0  2  0  0  0  0  0  0
  -29.6330  -12.3900   17.5010 C   0  0  0  0  0  2  0  0  0  0  0  0
  -28.1900  -12.2970   18.0360 C   0  0  0  0  0  2  0  0  0  0  0  0
  -27.9680  -13.1450   19.3160 C   0  0  0  0  0  3  0  0  0  0  0  0
  -29.1010  -12.9170   20.3430 C   0  0  0  0  0  2  0  0  0  0  0  0
  -30.3810  -13.1890   19.6720 N   0  0  0  0  0  0  0  0  0  0  0  0
  -32.1710  -14.5000   19.1610 O   0  0  0  0  0  0  0  0  0  0  0  0
  -30.4210  -15.4360   20.2210 N   0  0  0  0  0  0  0  0  0  0  0  0
  -29.5430  -15.2360   20.6760 H   0  0  0  0  0  0  0  0  0  0  0  0
  -25.6660  -13.8330   20.2340 C   0  0  0  0  0  0  0  0  0  0  0  0
  -24.5980  -13.0970   20.6780 C   0  0  0  0  0  0  0  0  0  0  0  0
  -24.9940  -11.7270   20.5810 C   0  0  0  0  0  0  0  0  0  0  0  0
  -26.6480  -12.9110   19.9000 N   0  0  0  0  0  0  0  0  0  0  0  0
  -26.2510  -11.6400   20.1640 N   0  0  0  0  0  0  0  0  0  0  0  0
  -24.2290  -10.4920   20.8030 C   0  0  0  0  0  0  0  0  0  0  0  0
  -24.6410   -9.5300   21.7500 C   0  0  0  0  0  3  0  0  0  0  0  0
  -23.8790   -8.3600   21.9580 C   0  0  0  0  0  3  0  0  0  0  0  0
  -22.6910   -8.1450   21.2210 C   0  0  0  0  0  0  0  0  0  0  0  0
  -22.2980   -9.0940   20.2620 C   0  0  0  0  0  3  0  0  0  0  0  0
  -23.0600  -10.2550   20.0510 C   0  0  0  0  0  3  0  0  0  0  0  0
  -21.9010   -7.0280   21.3410 O   0  0  0  0  0  0  0  0  0  0  0  0
  -21.7730   -6.3590   22.5320 C   0  0  0  0  0  0  0  0  0  0  0  0
  -21.3080   -7.0010   23.7010 C   0  0  0  0  0  3  0  0  0  0  0  0
  -21.1260   -6.2600   24.8860 C   0  0  0  0  0  3  0  0  0  0  0  0
  -21.3970   -4.8780   24.9020 C   0  0  0  0  0  0  0  0  0  0  0  0
  -21.8520   -4.2360   23.7360 C   0  0  0  0  0  3  0  0  0  0  0  0
  -22.0370   -4.9750   22.5550 C   0  0  0  0  0  0  0  0  0  0  0  0
  -22.4570   -4.3480   21.4300 F   0  0  0  0  0  0  0  0  0  0  0  0
  -21.2150   -4.1650   26.0360 F   0  0  0  0  0  0  0  0  0  0  0  0
  -23.2510  -13.6280   21.0740 C   0  0  0  0  0  0  0  0  0  0  0  0
  -22.5760  -12.9600   22.0050 N   0  0  0  0  0  0  0  0  0  0  0  0
  -22.8040  -14.6670   20.5900 O   0  0  0  0  0  0  0  0  0  0  0  0
  -22.9480  -12.1200   22.4210 H   0  0  0  0  0  0  0  0  0  0  0  0
  -21.6730  -13.2960   22.3100 H   0  0  0  0  0  0  0  0  0  0  0  0
  -25.8750  -15.1980   20.0650 N   0  0  0  0  0  0  0  0  0  0  0  0
  -25.1380  -15.8790   20.2130 H   0  0  0  0  0  0  0  0  0  0  0  0
  -26.6920  -15.5910   19.6120 H   0  0  0  0  0  0  0  0  0  0  0  0
  1  5  1  0
  2  1  2  0
  2 53  1  0
  3  6  2  0
  4 11  1  0
  6  1  1  0
  7  4  1  0
  7  3  1  0
  8  4  2  0
  9  3  1  0
  9  2  1  0
 10  7  1  0
 12 11  1  0
 13 24  2  0
 14 12  1  0
 14 19  1  0
 15 23  1  0
 15 25  1  0
 16 22  1  0
 16 18  1  0
 17 23  1  0
 18 17  1  0
 19 18  2  0
 20 14  2  0
 21 20  1  0
 21 16  2  0
 22 15  1  0
 23 13  1  0
 25 27  2  0
 26 25  1  0
 28 26  1  0
 29 38  2  0
 29 34  1  0
 30 26  1  0
 30 34  1  0
 31 30  1  0
 32 33  1  0
 32 31  1  0
 33 29  1  0
 34 35  2  0
 35 36  1  0
 37 36  2  0
 38 37  1  0
 39 13  1  0
 39 44  1  0
 39 40  1  0
 40 43  1  1
 40 41  1  0
 42 40  1  0
 44 47  1  0
 45 49  1  0
 45 44  1  0
 46 45  2  0
 49 48  1  0
 51 49  1  0
 51 52  1  0
 51 50  1  0
 53 58  1  0
 53 54  1  0
 54 56  1  1
 54 55  1  0
 57 54  1  0
 58 67  1  0
 59 67  1  0
 60 65  1  0
 61 62  1  0
 61 60  1  0
 63 62  1  0
 63 72  1  0
 63 64  1  0
 65 59  1  0
 65 64  1  0
 66 59  2  0
 67 68  1  0
 69 70  2  0
 70 89  1  0
 71 70  1  0
 71 74  1  0
 72 73  1  0
 72 69  1  0
 73 71  2  0
 74 75  1  0
 75 76  2  0
 77 80  1  0
 77 76  1  0
 78 77  2  0
 79 78  1  0
 79 74  2  0
 80 81  1  0
 81 86  2  0
 81 82  1  0
 82 83  2  0
 83 84  1  0
 84 88  1  0
 85 84  2  0
 86 85  1  0
 87 86  1  0
 89 90  1  0
 90 93  1  0
 90 92  1  0
 91 89  2  0
 94 95  1  0
 94 69  1  0
 96 94  1  0
M  ISO  4  11 101  12 101  59 100  67 100
M  END
>  <TORSDO>  (89) 
F 20

>  <SCORE>  (89) 
-12.617

>  <name>  (89) 
89

>  <ligand_id>  (89) 
89

>  <original_smiles>  (89) 
[H]c1c([H])c([H])c2c(c1[H])C([H])([H])C([H])([H])C([H])([H])C2([H])N([H])C(=O)C1([H])N(C(=O)C([H])(N([H])C(=O)C([H])(N([H])C([H])([H])[H])C([H])([H])[H])C(C([H])([H])[H])(C([H])([H])[H])C([H])([H])[H])C([H])([H])c2c([H])c(OC([H])([H])C(=O)N([H])c3nc(C([H])([H])[H])c(C([H])(C(F)(F)F)C([H])([H])N([H])C(=O)N4C([H])([H])C([H])([H])C([H])([H])C([H])(n5nc(-c6c([H])c([H])c(Oc7c([H])c([H])c(F)c([H])c7F)c([H])c6[H])c(C(=O)N([H])[H])c5N([H])[H])C4([H])[H])s3)c([H])c([H])c2C1([H])[H]

>  <smiles>  (89) 
[H]c1c([H])c([H])c2c(c1[H])C([H])([H])C([H])([H])C([H])([H])C2([H])N([H])C(=O)C1([H])N(C(=O)C([H])(N([H])C(=O)C([H])(N([H])C([H])([H])[H])C([H])([H])[H])C(C([H])([H])[H])(C([H])([H])[H])C([H])([H])[H])C([H])([H])c2c([H])c(OC([H])([H])C(=O)N([H])c3nc(C([H])([H])[H])c(C([H])(C(F)(F)F)C([H])([H])N([H])C(=O)N4C([H])([H])C([H])([H])C([H])([H])C([H])(n5nc(-c6c([H])c([H])c(Oc7c([H])c([H])c(F)c([H])c7F)c([H])c6[H])c(C(=O)N([H])[H])c5N([H])[H])C4([H])[H])s3)c([H])c([H])c2C1([H])[H]

$$$$
90:0:0
     RDKit          3D

 95103  0  0  1  0  0  0  0  0999 V2000
  -28.7500  -22.2540   19.8040 C   0  0  0  0  0  0  0  0  0  0  0  0
  -29.5010  -21.1120   20.0740 N   0  0  0  0  0  0  0  0  0  0  0  0
  -27.7370  -22.1460   19.1100 O   0  0  0  0  0  0  0  0  0  0  0  0
  -30.1590  -21.1630   20.8400 H   0  0  0  0  0  0  0  0  0  0  0  0
  -29.4170  -20.1720   17.8100 C   0  0  0  0  0  3  0  0  0  0  0  0
  -29.6660  -19.9640   19.1480 C   0  0  0  0  0  0  0  0  0  0  0  0
  -30.3790  -18.1820   17.9920 C   0  0  0  0  0  3  0  0  0  0  0  0
  -31.0830  -16.9510   17.5160 C   0  0  0  0  0  1  0  0  0  0  0  0
  -30.1790  -18.6200   19.2600 N   0  0  0  0  0  0  0  0  0  0  0  0
  -29.8830  -19.0850   17.1470 N   0  0  0  0  0  0  0  0  0  0  0  0
  -29.9080  -19.0060   16.1360 H   0  0  0  0  0  0  0  0  0  0  0  0
  -30.6380  -17.6760   20.3890 C   0  0  0  0  0  2  0  0  0  0  0  0
  -29.9500  -16.2060   20.5610 C   0  0  2  0  0  0  0  0  0  0  0  0
  -28.8330  -16.2370   19.8380 F   0  0  0  0  0  0  0  0  0  0  0  0
  -29.5720  -16.1550   21.8380 F   0  0  0  0  0  0  0  0  0  0  0  0
  -30.7330  -14.8200   20.2630 C   0  0  0  0  0  0  0  0  0  0  0  0
  -30.5120  -12.5410   19.2520 C   0  0  0  0  0  2  0  0  0  0  0  0
  -29.5700  -12.6080   18.0270 C   0  0  0  0  0  2  0  0  0  0  0  0
  -28.1000  -12.4320   18.4590 C   0  0  0  0  0  2  0  0  0  0  0  0
  -27.7250  -13.3400   19.6550 C   0  0  0  0  0  3  0  0  0  0  0  0
  -28.7830  -13.2680   20.7770 C   0  0  0  0  0  2  0  0  0  0  0  0
  -30.0940  -13.5980   20.2010 N   0  0  0  0  0  0  0  0  0  0  0  0
  -31.9190  -14.8850   19.9340 O   0  0  0  0  0  0  0  0  0  0  0  0
  -25.3480  -13.9720   20.3830 C   0  0  0  0  0  0  0  0  0  0  0  0
  -24.2730  -13.2150   20.7590 C   0  0  0  0  0  0  0  0  0  0  0  0
  -24.7250  -11.8590   20.7520 C   0  0  0  0  0  0  0  0  0  0  0  0
  -26.3810  -13.0760   20.1550 N   0  0  0  0  0  0  0  0  0  0  0  0
  -26.0130  -11.8030   20.4460 N   0  0  0  0  0  0  0  0  0  0  0  0
  -23.9890  -10.6060   20.9620 C   0  0  0  0  0  0  0  0  0  0  0  0
  -24.4170   -9.6460   21.9050 C   0  0  0  0  0  3  0  0  0  0  0  0
  -23.6840   -8.4560   22.0970 C   0  0  0  0  0  3  0  0  0  0  0  0
  -22.5100   -8.2180   21.3430 C   0  0  0  0  0  0  0  0  0  0  0  0
  -22.1000   -9.1660   20.3880 C   0  0  0  0  0  3  0  0  0  0  0  0
  -22.8330  -10.3480   20.1960 C   0  0  0  0  0  3  0  0  0  0  0  0
  -21.7470   -7.0800   21.4450 O   0  0  0  0  0  0  0  0  0  0  0  0
  -21.6940   -6.3510   22.6060 C   0  0  0  0  0  0  0  0  0  0  0  0
  -21.2830   -6.9270   23.8280 C   0  0  0  0  0  3  0  0  0  0  0  0
  -21.1750   -6.1250   24.9830 C   0  0  0  0  0  3  0  0  0  0  0  0
  -21.4710   -4.7500   24.9140 C   0  0  0  0  0  0  0  0  0  0  0  0
  -21.8800   -4.1740   23.6990 C   0  0  0  0  0  3  0  0  0  0  0  0
  -21.9880   -4.9740   22.5460 C   0  0  0  0  0  0  0  0  0  0  0  0
  -22.3600   -4.4100   21.3710 F   0  0  0  0  0  0  0  0  0  0  0  0
  -21.3600   -3.9780   26.0210 F   0  0  0  0  0  0  0  0  0  0  0  0
  -22.8780  -13.7060   21.0220 C   0  0  0  0  0  0  0  0  0  0  0  0
  -22.1460  -13.0300   21.8990 N   0  0  0  0  0  0  0  0  0  0  0  0
  -22.4480  -14.7240   20.4810 O   0  0  0  0  0  0  0  0  0  0  0  0
  -22.5110  -12.2090   22.3570 H   0  0  0  0  0  0  0  0  0  0  0  0
  -21.2090  -13.3400   22.1170 H   0  0  0  0  0  0  0  0  0  0  0  0
  -25.5290  -15.3370   20.1900 N   0  0  0  0  0  0  0  0  0  0  0  0
  -24.7770  -16.0080   20.2980 H   0  0  0  0  0  0  0  0  0  0  0  0
  -26.4030  -15.7550   19.8890 H   0  0  0  0  0  0  0  0  0  0  0  0
  -29.0810  -23.7280   20.3420 C   0  0  0  0  0  2  0  0  0  0  0  0
  -26.8720  -24.5260   21.3420 C   0  0  0  0  0  1  0  0  0  0  0  0
  -27.9230  -24.8630   20.2530 C   0  0  0  0  0  3  0  0  0  0  0  0
  -28.2310  -26.3480   20.2950 O   0  0  0  0  0  0  0  0  0  0  0  0
  -24.5590  -31.8790   23.2320 C   0  0  0  0  0  0  0  0  0  0  0  0
  -27.1610  -27.2770   20.1880 C   0  0  0  0  0  0  0  0  0  0  0  0
  -23.3610  -30.4700   21.6040 C   0  0  0  0  0  3  0  0  0  0  0  0
  -24.8120  -28.9300   20.1660 C   0  0  0  0  0  0  0  0  0  0  0  0
  -25.9060  -30.7780   21.4280 C   0  0  0  0  0  2  0  0  0  0  0  0
  -25.9820  -29.4000   20.7770 C   0  0  0  0  0  0  0  0  0  0  0  0
  -27.1590  -28.5810   20.7860 C   0  0  0  0  0  3  0  0  0  0  0  0
  -25.9800  -26.9040   19.5070 C   0  0  0  0  0  3  0  0  0  0  0  0
  -24.8160  -27.6900   19.5220 C   0  0  0  0  0  3  0  0  0  0  0  0
  -23.5740  -29.8010   20.2230 C   0  0  0  0  0  2  0  0  0  0  0  0
  -24.6270  -31.0610   22.1440 N   0  0  0  0  0  0  0  0  0  0  0  0
  -23.4760  -32.1590   23.7620 O   0  0  0  0  0  0  0  0  0  0  0  0
  -22.7020  -29.4510   22.5660 C   0  0  0  0  0  0  0  0  0  0  0  0
  -21.3750  -29.2740   22.4440 N   0  0  0  0  0  0  0  0  0  0  0  0
  -23.3810  -28.8210   23.3800 O   0  0  0  0  0  0  0  0  0  0  0  0
  -20.8880  -29.8330   21.7570 H   0  0  0  0  0  0  0  0  0  0  0  0
  -17.9950  -28.0840   22.9550 C   0  0  0  0  0  0  0  0  0  0  0  0
  -20.5560  -28.3410   23.2190 C   0  0  0  0  0  3  0  0  0  0  0  0
  -20.6560  -26.9080   22.6480 C   0  0  0  0  0  2  0  0  0  0  0  0
  -19.5510  -26.5810   21.6390 C   0  0  0  0  0  2  0  0  0  0  0  0
  -18.1700  -26.7300   22.2850 C   0  0  0  0  0  2  0  0  0  0  0  0
  -19.1160  -28.8460   23.3780 C   0  0  0  0  0  0  0  0  0  0  0  0
  -18.9000  -30.1120   23.9660 C   0  0  0  0  0  3  0  0  0  0  0  0
  -17.5960  -30.6120   24.1390 C   0  0  0  0  0  3  0  0  0  0  0  0
  -16.4900  -29.8450   23.7330 C   0  0  0  0  0  3  0  0  0  0  0  0
  -16.6900  -28.5850   23.1420 C   0  0  0  0  0  3  0  0  0  0  0  0
  -25.8400  -32.5190   23.8500 C   0  0  0  0  0  3  0  0  0  0  0  0
  -25.5260  -33.9180   24.1680 N   0  0  0  0  0  0  0  0  0  0  0  0
  -25.8610  -34.9700   23.4100 C   0  0  0  0  0  0  0  0  0  0  0  0
  -26.5420  -34.8680   22.3870 O   0  0  0  0  0  0  0  0  0  0  0  0
  -24.9180  -34.0720   24.9610 H   0  0  0  0  0  0  0  0  0  0  0  0
  -24.1400  -36.7670   23.0310 C   0  0  0  0  0  1  0  0  0  0  0  0
  -25.3650  -36.3590   23.8620 C   0  0  0  0  0  3  0  0  0  0  0  0
  -27.4860  -37.2400   24.7280 C   0  0  0  0  0  1  0  0  0  0  0  0
  -26.4000  -37.4120   23.7670 N   0  0  0  0  0  0  0  0  0  0  0  0
  -25.9940  -38.3330   23.9080 H   0  0  0  0  0  0  0  0  0  0  0  0
  -26.3540  -31.7590   25.1340 C   0  0  1  0  0  0  0  0  0  0  0  0
  -25.2590  -31.5290   26.2010 C   0  0  0  0  0  1  0  0  0  0  0  0
  -26.9410  -30.3800   24.7580 C   0  0  0  0  0  1  0  0  0  0  0  0
  -27.5010  -32.5630   25.7920 C   0  0  0  0  0  1  0  0  0  0  0  0
  1  2  1  0
  1 52  1  0
  2  4  1  0
  3  1  2  0
  5  6  2  0
  6  9  1  0
  6  2  1  0
  7  8  1  0
  7  9  1  0
  9 12  1  0
 10  5  1  0
 10  7  1  0
 11 10  1  0
 12 13  1  0
 13 15  1  1
 14 13  1  0
 16 13  1  0
 17 22  1  0
 18 19  1  0
 18 17  1  0
 20 19  1  0
 20 27  1  0
 20 21  1  0
 22 16  1  0
 22 21  1  0
 23 16  2  0
 24 25  2  0
 25 44  1  0
 26 25  1  0
 26 29  1  0
 27 24  1  0
 27 28  1  0
 28 26  2  0
 29 30  1  0
 30 31  2  0
 32 35  1  0
 32 31  1  0
 33 32  2  0
 34 33  1  0
 34 29  2  0
 35 36  1  0
 36 37  1  0
 37 38  2  0
 39 38  1  0
 39 43  1  0
 40 39  2  0
 41 36  2  0
 41 40  1  0
 42 41  1  0
 44 45  1  0
 45 48  1  0
 45 47  1  0
 46 44  2  0
 49 50  1  0
 49 24  1  0
 51 49  1  0
 54 55  1  0
 54 52  1  0
 54 53  1  0
 56 67  2  0
 57 55  1  0
 57 62  1  0
 58 66  1  0
 58 68  1  0
 59 65  1  0
 59 61  1  0
 60 66  1  0
 61 62  2  0
 61 60  1  0
 63 64  1  0
 63 57  2  0
 64 59  2  0
 65 58  1  0
 66 56  1  0
 68 70  2  0
 69 68  1  0
 71 69  1  0
 72 81  2  0
 72 77  1  0
 73 69  1  0
 73 77  1  0
 74 73  1  0
 75 76  1  0
 75 74  1  0
 76 72  1  0
 77 78  2  0
 78 79  1  0
 80 79  2  0
 81 80  1  0
 82 56  1  0
 82 83  1  0
 82 92  1  0
 83 86  1  0
 84 88  1  0
 84 83  1  0
 85 84  2  0
 88 87  1  0
 90 88  1  0
 90 91  1  0
 90 89  1  0
 92 95  1  1
 92 93  1  0
 94 92  1  0
M  ISO  4  13 100  16 100  54 101  55 101
M  END
>  <TORSDO>  (90) 
F 21

>  <SCORE>  (90) 
-13.459

>  <name>  (90) 
90

>  <ligand_id>  (90) 
90

>  <original_smiles>  (90) 
[H]c1c([H])c([H])c2c(c1[H])C([H])([H])C([H])([H])C([H])([H])C2([H])N([H])C(=O)C1([H])N(C(=O)C([H])(N([H])C(=O)C([H])(N([H])C([H])([H])[H])C([H])([H])[H])C(C([H])([H])[H])(C([H])([H])[H])C([H])([H])[H])C([H])([H])c2c([H])c(OC([H])(C([H])([H])[H])C([H])([H])C(=O)N([H])c3c([H])[n+]([H])c(C([H])([H])[H])n3C([H])([H])C(F)(F)C(=O)N3C([H])([H])C([H])([H])C([H])([H])C([H])(n4nc(-c5c([H])c([H])c(Oc6c([H])c([H])c(F)c([H])c6F)c([H])c5[H])c(C(=O)N([H])[H])c4N([H])[H])C3([H])[H])c([H])c([H])c2C1([H])[H]

>  <smiles>  (90) 
[H]c1c([H])c([H])c2c(c1[H])C([H])([H])C([H])([H])C([H])([H])C2([H])N([H])C(=O)C1([H])N(C(=O)C([H])(N([H])C(=O)C([H])(N([H])C([H])([H])[H])C([H])([H])[H])C(C([H])([H])[H])(C([H])([H])[H])C([H])([H])[H])C([H])([H])c2c([H])c(OC([H])(C([H])([H])[H])C([H])([H])C(=O)N([H])c3c([H])[n+]([H])c(C([H])([H])[H])n3C([H])([H])C(F)(F)C(=O)N3C([H])([H])C([H])([H])C([H])([H])C([H])(n4nc(-c5c([H])c([H])c(Oc6c([H])c([H])c(F)c([H])c6F)c([H])c5[H])c(C(=O)N([H])[H])c4N([H])[H])C3([H])[H])c([H])c([H])c2C1([H])[H]

$$$$
91:0:0
     RDKit          3D

 96104  0  0  1  0  0  0  0  0999 V2000
  -29.7980  -24.2650   19.9910 C   0  0  0  0  0  3  0  0  0  0  0  0
  -31.1120  -24.8260   19.3660 C   0  0  1  0  0  0  0  0  0  0  0  0
  -32.1680  -24.0230   19.4720 F   0  0  0  0  0  0  0  0  0  0  0  0
  -30.9400  -25.0770   18.0690 F   0  0  0  0  0  0  0  0  0  0  0  0
  -31.4410  -25.9630   19.9800 F   0  0  0  0  0  0  0  0  0  0  0  0
  -30.6180  -21.7700   20.0920 C   0  0  0  0  0  0  0  0  0  0  0  0
  -29.6700  -22.7310   19.7760 N   0  0  0  0  0  0  0  0  0  0  0  0
  -31.7020  -22.1420   20.5400 O   0  0  0  0  0  0  0  0  0  0  0  0
  -28.7980  -22.3970   19.3870 H   0  0  0  0  0  0  0  0  0  0  0  0
  -31.5760  -15.1100   19.6880 C   0  0  0  0  0  0  0  0  0  0  0  0
  -31.3830  -12.7300   18.8970 C   0  0  0  0  0  2  0  0  0  0  0  0
  -30.3450  -12.6550   17.7560 C   0  0  0  0  0  2  0  0  0  0  0  0
  -28.9200  -12.4930   18.3110 C   0  0  0  0  0  2  0  0  0  0  0  0
  -28.6150  -13.4910   19.4600 C   0  0  0  0  0  3  0  0  0  0  0  0
  -29.7600  -13.5300   20.4970 C   0  0  0  0  0  2  0  0  0  0  0  0
  -31.0050  -13.8550   19.7770 N   0  0  0  0  0  0  0  0  0  0  0  0
  -32.7170  -15.2510   19.2310 O   0  0  0  0  0  0  0  0  0  0  0  0
  -30.4110  -20.2280   20.0940 C   0  0  0  0  0  0  0  0  0  0  0  0
  -29.6470  -19.5010   20.9960 C   0  0  0  0  0  0  0  0  0  0  0  0
  -30.6840  -17.6260   20.0650 C   0  0  0  0  0  0  0  0  0  0  0  0
  -28.7180  -20.0460   22.0440 C   0  0  0  0  0  1  0  0  0  0  0  0
  -29.7790  -18.0950   20.9290 N   0  0  0  0  0  0  0  0  0  0  0  0
  -30.7070  -16.1510   19.9420 N   0  0  0  0  0  0  0  0  0  0  0  0
  -31.4430  -19.0360   19.1990 S   0  0  0  0  0  0  0  0  0  0  0  0
  -29.8210  -15.7650   20.2180 H   0  0  0  0  0  0  0  0  0  0  0  0
  -26.3830  -14.1570   20.5400 C   0  0  0  0  0  0  0  0  0  0  0  0
  -25.3010  -13.4180   20.9420 C   0  0  0  0  0  0  0  0  0  0  0  0
  -25.6380  -12.0540   20.6860 C   0  0  0  0  0  0  0  0  0  0  0  0
  -27.3140  -13.2430   20.0720 N   0  0  0  0  0  0  0  0  0  0  0  0
  -26.8790  -11.9640   20.2190 N   0  0  0  0  0  0  0  0  0  0  0  0
  -24.8260  -10.8350   20.8010 C   0  0  0  0  0  0  0  0  0  0  0  0
  -25.1050   -9.8500   21.7750 C   0  0  0  0  0  3  0  0  0  0  0  0
  -24.2940   -8.7010   21.8840 C   0  0  0  0  0  3  0  0  0  0  0  0
  -23.1930   -8.5220   21.0140 C   0  0  0  0  0  0  0  0  0  0  0  0
  -22.9320   -9.4950   20.0330 C   0  0  0  0  0  3  0  0  0  0  0  0
  -23.7430  -10.6370   19.9210 C   0  0  0  0  0  3  0  0  0  0  0  0
  -22.3680   -7.4230   21.0280 O   0  0  0  0  0  0  0  0  0  0  0  0
  -21.9020   -6.8880   22.2040 C   0  0  0  0  0  0  0  0  0  0  0  0
  -21.1440   -7.6510   23.1180 C   0  0  0  0  0  3  0  0  0  0  0  0
  -20.6230   -7.0440   24.2800 C   0  0  0  0  0  3  0  0  0  0  0  0
  -20.8500   -5.6750   24.5220 C   0  0  0  0  0  0  0  0  0  0  0  0
  -21.5990   -4.9130   23.6080 C   0  0  0  0  0  3  0  0  0  0  0  0
  -22.1200   -5.5190   22.4510 C   0  0  0  0  0  0  0  0  0  0  0  0
  -22.8210   -4.7730   21.5630 F   0  0  0  0  0  0  0  0  0  0  0  0
  -20.3460   -5.0910   25.6340 F   0  0  0  0  0  0  0  0  0  0  0  0
  -23.9920  -13.9590   21.4440 C   0  0  0  0  0  0  0  0  0  0  0  0
  -23.3290  -13.2250   22.3300 N   0  0  0  0  0  0  0  0  0  0  0  0
  -23.5740  -15.0590   21.0840 O   0  0  0  0  0  0  0  0  0  0  0  0
  -23.6860  -12.3350   22.6420 H   0  0  0  0  0  0  0  0  0  0  0  0
  -22.4520  -13.5580   22.7060 H   0  0  0  0  0  0  0  0  0  0  0  0
  -26.6380  -15.5250   20.5040 N   0  0  0  0  0  0  0  0  0  0  0  0
  -25.9310  -16.2100   20.7460 H   0  0  0  0  0  0  0  0  0  0  0  0
  -27.4650  -15.9470   20.1010 H   0  0  0  0  0  0  0  0  0  0  0  0
  -28.1630  -25.1740   18.1480 C   0  0  0  0  0  1  0  0  0  0  0  0
  -28.5280  -25.2510   19.6400 C   0  0  0  0  0  3  0  0  0  0  0  0
  -28.5490  -26.7220   19.9930 O   0  0  0  0  0  0  0  0  0  0  0  0
  -24.6940  -31.7460   23.4150 C   0  0  0  0  0  0  0  0  0  0  0  0
  -27.3880  -27.5380   19.9650 C   0  0  0  0  0  0  0  0  0  0  0  0
  -23.4900  -30.4320   21.7040 C   0  0  0  0  0  3  0  0  0  0  0  0
  -24.9580  -29.0800   20.1030 C   0  0  0  0  0  0  0  0  0  0  0  0
  -26.0020  -30.8870   21.4600 C   0  0  0  0  0  2  0  0  0  0  0  0
  -26.1230  -29.5650   20.7080 C   0  0  0  0  0  0  0  0  0  0  0  0
  -27.3370  -28.8130   20.6240 C   0  0  0  0  0  3  0  0  0  0  0  0
  -26.1910  -27.1210   19.3370 C   0  0  0  0  0  3  0  0  0  0  0  0
  -24.9980  -27.8690   19.3970 C   0  0  0  0  0  3  0  0  0  0  0  0
  -23.6850  -29.8900   20.2610 C   0  0  0  0  0  2  0  0  0  0  0  0
  -24.7470  -31.0370   22.2500 N   0  0  0  0  0  0  0  0  0  0  0  0
  -23.6210  -31.9250   24.0110 O   0  0  0  0  0  0  0  0  0  0  0  0
  -22.9120  -29.3080   22.5960 C   0  0  0  0  0  0  0  0  0  0  0  0
  -21.6380  -28.9460   22.3710 N   0  0  0  0  0  0  0  0  0  0  0  0
  -23.6120  -28.7630   23.4540 O   0  0  0  0  0  0  0  0  0  0  0  0
  -21.1230  -29.4440   21.6590 H   0  0  0  0  0  0  0  0  0  0  0  0
  -18.4950  -27.1600   22.4950 C   0  0  0  0  0  0  0  0  0  0  0  0
  -20.9100  -27.8870   23.0690 C   0  0  0  0  0  3  0  0  0  0  0  0
  -21.3400  -26.4880   22.5670 C   0  0  0  0  0  2  0  0  0  0  0  0
  -20.4530  -25.9560   21.4380 C   0  0  0  0  0  2  0  0  0  0  0  0
  -18.9960  -25.8570   21.8980 C   0  0  0  0  0  2  0  0  0  0  0  0
  -19.3950  -28.1190   23.0340 C   0  0  0  0  0  0  0  0  0  0  0  0
  -18.8790  -29.3320   23.5430 C   0  0  0  0  0  3  0  0  0  0  0  0
  -17.4950  -29.5870   23.5280 C   0  0  0  0  0  3  0  0  0  0  0  0
  -16.6090  -28.6300   23.0050 C   0  0  0  0  0  3  0  0  0  0  0  0
  -17.1090  -27.4190   22.4940 C   0  0  0  0  0  3  0  0  0  0  0  0
  -25.9740  -32.3860   24.0360 C   0  0  0  0  0  3  0  0  0  0  0  0
  -26.4440  -31.6730   25.3620 C   0  0  1  0  0  0  0  0  0  0  0  0
  -25.3170  -31.4980   26.4060 C   0  0  0  0  0  1  0  0  0  0  0  0
  -27.0280  -30.2740   25.0590 C   0  0  0  0  0  1  0  0  0  0  0  0
  -27.5820  -32.4890   26.0200 C   0  0  0  0  0  1  0  0  0  0  0  0
  -25.6850  -33.8060   24.2840 N   0  0  0  0  0  0  0  0  0  0  0  0
  -25.9960  -34.8050   23.4480 C   0  0  0  0  0  0  0  0  0  0  0  0
  -26.6330  -34.6300   22.4040 O   0  0  0  0  0  0  0  0  0  0  0  0
  -25.1290  -34.0210   25.0990 H   0  0  0  0  0  0  0  0  0  0  0  0
  -24.2480  -36.5700   23.0580 C   0  0  0  0  0  1  0  0  0  0  0  0
  -25.5300  -36.2250   23.8300 C   0  0  0  0  0  3  0  0  0  0  0  0
  -27.6930  -37.1750   24.5020 C   0  0  0  0  0  1  0  0  0  0  0  0
  -26.5540  -37.2650   23.5920 N   0  0  0  0  0  0  0  0  0  0  0  0
  -26.1510  -38.1920   23.6810 H   0  0  0  0  0  0  0  0  0  0  0  0
  1  2  1  0
  2  3  1  6
  2  5  1  0
  4  2  1  0
  6 18  1  0
  6  8  2  0
  7  1  1  0
  7  6  1  0
  9  7  1  0
 10 16  1  0
 10 23  1  0
 11 16  1  0
 12 13  1  0
 12 11  1  0
 14 13  1  0
 14 29  1  0
 14 15  1  0
 16 15  1  0
 17 10  2  0
 18 19  2  0
 19 21  1  0
 20 22  2  0
 22 19  1  0
 23 20  1  0
 23 25  1  0
 24 20  1  0
 24 18  1  0
 26 27  2  0
 27 46  1  0
 28 31  1  0
 28 27  1  0
 29 30  1  0
 29 26  1  0
 30 28  2  0
 31 32  1  0
 32 33  2  0
 34 37  1  0
 34 33  1  0
 35 34  2  0
 36 35  1  0
 36 31  2  0
 37 38  1  0
 38 43  2  0
 38 39  1  0
 39 40  2  0
 40 41  1  0
 41 45  1  0
 42 41  2  0
 43 42  1  0
 44 43  1  0
 46 47  1  0
 47 49  1  0
 47 50  1  0
 48 46  2  0
 51 26  1  0
 51 52  1  0
 53 51  1  0
 55 54  1  0
 55  1  1  0
 55 56  1  0
 57 68  2  0
 58 56  1  0
 58 63  1  0
 59 67  1  0
 59 69  1  0
 60 66  1  0
 60 62  1  0
 61 67  1  0
 62 61  1  0
 63 62  2  0
 64 65  1  0
 64 58  2  0
 65 60  2  0
 66 59  1  0
 67 57  1  0
 69 71  2  0
 70 69  1  0
 72 70  1  0
 73 78  1  0
 74 70  1  0
 75 74  1  0
 76 77  1  0
 76 75  1  0
 77 73  1  0
 78 74  1  0
 78 79  2  0
 80 79  1  0
 81 80  2  0
 82 73  2  0
 82 81  1  0
 83 57  1  0
 83 88  1  0
 83 84  1  0
 84 87  1  1
 84 85  1  0
 86 84  1  0
 88 91  1  0
 89 93  1  0
 89 88  1  0
 90 89  2  0
 93 92  1  0
 95 96  1  0
 95 93  1  0
 95 94  1  0
M  ISO  4  10 100  23 100  55 101  56 101
M  END
>  <TORSDO>  (91) 
F 19

>  <SCORE>  (91) 
-9.989

>  <name>  (91) 
91

>  <ligand_id>  (91) 
91

>  <original_smiles>  (91) 
[H]c1c([H])c([H])c2c(c1[H])C([H])([H])C([H])([H])C([H])([H])C2([H])N([H])C(=O)C1([H])N(C(=O)C([H])(N([H])C(=O)C([H])(N([H])C([H])([H])[H])C([H])([H])[H])C(C([H])([H])[H])(C([H])([H])[H])C([H])([H])[H])C([H])([H])c2c([H])c(OC([H])(C([H])([H])[H])C([H])(N([H])C(=O)c3sc(N([H])C(=O)N4C([H])([H])C([H])([H])C([H])([H])C([H])(n5nc(-c6c([H])c([H])c(Oc7c([H])c([H])c(F)c([H])c7F)c([H])c6[H])c(C(=O)N([H])[H])c5N([H])[H])C4([H])[H])nc3C([H])([H])[H])C(F)(F)F)c([H])c([H])c2C1([H])[H]

>  <smiles>  (91) 
[H]c1c([H])c([H])c2c(c1[H])C([H])([H])C([H])([H])C([H])([H])C2([H])N([H])C(=O)C1([H])N(C(=O)C([H])(N([H])C(=O)C([H])(N([H])C([H])([H])[H])C([H])([H])[H])C(C([H])([H])[H])(C([H])([H])[H])C([H])([H])[H])C([H])([H])c2c([H])c(OC([H])(C([H])([H])[H])C([H])(N([H])C(=O)c3sc(N([H])C(=O)N4C([H])([H])C([H])([H])C([H])([H])C([H])(n5nc(-c6c([H])c([H])c(Oc7c([H])c([H])c(F)c([H])c7F)c([H])c6[H])c(C(=O)N([H])[H])c5N([H])[H])C4([H])[H])nc3C([H])([H])[H])C(F)(F)F)c([H])c([H])c2C1([H])[H]

$$$$
92:0:0
     RDKit          3D

 95103  0  0  1  0  0  0  0  0999 V2000
  -30.3010  -21.5880   19.7630 C   0  0  0  0  0  0  0  0  0  0  0  0
  -31.8490  -21.8420   19.1370 S   0  0  0  0  0  0  0  0  0  0  0  0
  -30.8430  -14.9730   19.9640 C   0  0  0  0  0  0  0  0  0  0  0  0
  -30.6690  -12.6930   18.9300 C   0  0  0  0  0  2  0  0  0  0  0  0
  -29.6430  -12.7600   17.7740 C   0  0  0  0  0  2  0  0  0  0  0  0
  -28.2050  -12.5580   18.2940 C   0  0  0  0  0  2  0  0  0  0  0  0
  -27.9000  -13.4240   19.5440 C   0  0  0  0  0  3  0  0  0  0  0  0
  -29.0290  -13.3100   20.5930 C   0  0  0  0  0  2  0  0  0  0  0  0
  -30.2840  -13.7110   19.9350 N   0  0  0  0  0  0  0  0  0  0  0  0
  -31.9790  -15.1570   19.5160 O   0  0  0  0  0  0  0  0  0  0  0  0
  -29.9630  -20.1290   20.0570 C   0  0  0  0  0  0  0  0  0  0  0  0
  -28.8840  -19.5410   20.7080 C   0  0  0  0  0  0  0  0  0  0  0  0
  -29.9500  -17.4790   20.2860 C   0  0  0  0  0  0  0  0  0  0  0  0
  -28.8800  -18.1200   20.7910 N   0  0  0  0  0  0  0  0  0  0  0  0
  -30.0020  -15.9960   20.3720 N   0  0  0  0  0  0  0  0  0  0  0  0
  -31.0420  -18.7190   19.5970 S   0  0  0  0  0  0  0  0  0  0  0  0
  -29.1560  -15.6130   20.7610 H   0  0  0  0  0  0  0  0  0  0  0  0
  -25.5710  -13.9940   20.4620 C   0  0  0  0  0  0  0  0  0  0  0  0
  -24.5280  -13.2090   20.8690 C   0  0  0  0  0  0  0  0  0  0  0  0
  -24.9770  -11.8580   20.7440 C   0  0  0  0  0  0  0  0  0  0  0  0
  -26.5880  -13.1220   20.1120 N   0  0  0  0  0  0  0  0  0  0  0  0
  -26.2420  -11.8290   20.3420 N   0  0  0  0  0  0  0  0  0  0  0  0
  -24.2560  -10.5910   20.9250 C   0  0  0  0  0  0  0  0  0  0  0  0
  -24.6790   -9.6300   21.8700 C   0  0  0  0  0  3  0  0  0  0  0  0
  -23.9580   -8.4290   22.0400 C   0  0  0  0  0  3  0  0  0  0  0  0
  -22.8010   -8.1800   21.2640 C   0  0  0  0  0  0  0  0  0  0  0  0
  -22.3970   -9.1300   20.3100 C   0  0  0  0  0  3  0  0  0  0  0  0
  -23.1190  -10.3230   20.1380 C   0  0  0  0  0  3  0  0  0  0  0  0
  -22.0530   -7.0290   21.3430 O   0  0  0  0  0  0  0  0  0  0  0  0
  -21.8840   -6.3600   22.5290 C   0  0  0  0  0  0  0  0  0  0  0  0
  -21.2510   -6.9590   23.6390 C   0  0  0  0  0  3  0  0  0  0  0  0
  -21.0360   -6.2120   24.8150 C   0  0  0  0  0  3  0  0  0  0  0  0
  -21.4440   -4.8660   24.8790 C   0  0  0  0  0  0  0  0  0  0  0  0
  -22.0710   -4.2660   23.7720 C   0  0  0  0  0  3  0  0  0  0  0  0
  -22.2870   -5.0110   22.6000 C   0  0  0  0  0  0  0  0  0  0  0  0
  -22.8710   -4.4230   21.5280 F   0  0  0  0  0  0  0  0  0  0  0  0
  -21.2320   -4.1460   26.0050 F   0  0  0  0  0  0  0  0  0  0  0  0
  -23.1560  -13.6780   21.2610 C   0  0  0  0  0  0  0  0  0  0  0  0
  -22.4940  -12.9580   22.1590 N   0  0  0  0  0  0  0  0  0  0  0  0
  -22.6820  -14.7190   20.8060 O   0  0  0  0  0  0  0  0  0  0  0  0
  -22.8920  -12.1150   22.5470 H   0  0  0  0  0  0  0  0  0  0  0  0
  -21.5780  -13.2530   22.4630 H   0  0  0  0  0  0  0  0  0  0  0  0
  -25.7310  -15.3720   20.3390 N   0  0  0  0  0  0  0  0  0  0  0  0
  -24.9790  -16.0190   20.5440 H   0  0  0  0  0  0  0  0  0  0  0  0
  -26.5530  -15.8300   19.9660 H   0  0  0  0  0  0  0  0  0  0  0  0
  -27.8010  -20.2130   21.2810 N   0  0  0  0  0  0  0  0  0  0  0  0
  -28.0320  -21.0000   21.8750 H   0  0  0  0  0  0  0  0  0  0  0  0
  -27.1470  -19.6070   21.7640 H   0  0  0  0  0  0  0  0  0  0  0  0
  -29.4940  -24.0470   19.9080 C   0  0  0  0  0  0  0  0  0  0  0  0
  -29.3830  -22.6390   19.9840 N   0  0  0  0  0  0  0  0  0  0  0  0
  -30.5580  -24.6330   19.6760 O   0  0  0  0  0  0  0  0  0  0  0  0
  -28.4610  -22.3210   20.2410 H   0  0  0  0  0  0  0  0  0  0  0  0
  -27.6940  -24.8310   21.5570 C   0  0  0  0  0  1  0  0  0  0  0  0
  -28.2420  -25.0300   20.1310 C   0  0  0  0  0  3  0  0  0  0  0  0
  -28.4830  -26.5230   19.9470 O   0  0  0  0  0  0  0  0  0  0  0  0
  -24.6530  -31.8040   23.1890 C   0  0  0  0  0  0  0  0  0  0  0  0
  -27.3810  -27.4180   19.9240 C   0  0  0  0  0  0  0  0  0  0  0  0
  -23.5070  -30.4990   21.4380 C   0  0  0  0  0  3  0  0  0  0  0  0
  -25.0080  -29.0520   19.9530 C   0  0  0  0  0  0  0  0  0  0  0  0
  -26.0520  -30.8370   21.3410 C   0  0  0  0  0  2  0  0  0  0  0  0
  -26.1620  -29.4990   20.6090 C   0  0  0  0  0  0  0  0  0  0  0  0
  -27.3510  -28.6970   20.5820 C   0  0  0  0  0  3  0  0  0  0  0  0
  -26.2020  -27.0490   19.2350 C   0  0  0  0  0  3  0  0  0  0  0  0
  -25.0350  -27.8370   19.2540 C   0  0  0  0  0  3  0  0  0  0  0  0
  -23.7640  -29.9150   20.0250 C   0  0  0  0  0  2  0  0  0  0  0  0
  -24.7550  -31.0620   22.0470 N   0  0  0  0  0  0  0  0  0  0  0  0
  -23.5540  -32.0390   23.7110 O   0  0  0  0  0  0  0  0  0  0  0  0
  -22.8300  -29.4190   22.3170 C   0  0  0  0  0  0  0  0  0  0  0  0
  -21.5050  -29.2490   22.1590 N   0  0  0  0  0  0  0  0  0  0  0  0
  -23.4960  -28.7410   23.1040 O   0  0  0  0  0  0  0  0  0  0  0  0
  -21.0260  -29.8490   21.5030 H   0  0  0  0  0  0  0  0  0  0  0  0
  -18.1110  -28.0730   22.5980 C   0  0  0  0  0  0  0  0  0  0  0  0
  -20.6770  -28.2610   22.8530 C   0  0  0  0  0  3  0  0  0  0  0  0
  -20.7440  -26.8870   22.1480 C   0  0  0  0  0  2  0  0  0  0  0  0
  -19.6230  -26.6780   21.1240 C   0  0  0  0  0  2  0  0  0  0  0  0
  -18.2520  -26.7890   21.7980 C   0  0  0  0  0  2  0  0  0  0  0  0
  -19.2490  -28.7720   23.0790 C   0  0  0  0  0  0  0  0  0  0  0  0
  -19.0610  -29.9790   23.7880 C   0  0  0  0  0  3  0  0  0  0  0  0
  -17.7680  -30.4860   24.0180 C   0  0  0  0  0  3  0  0  0  0  0  0
  -16.6450  -29.7810   23.5530 C   0  0  0  0  0  3  0  0  0  0  0  0
  -16.8160  -28.5770   22.8480 C   0  0  0  0  0  3  0  0  0  0  0  0
  -25.9120  -32.4120   23.8820 C   0  0  0  0  0  3  0  0  0  0  0  0
  -26.3560  -31.6150   25.1700 C   0  0  1  0  0  0  0  0  0  0  0  0
  -25.2080  -31.3670   26.1760 C   0  0  0  0  0  1  0  0  0  0  0  0
  -26.9490  -30.2400   24.7850 C   0  0  0  0  0  1  0  0  0  0  0  0
  -27.4760  -32.3890   25.9030 C   0  0  0  0  0  1  0  0  0  0  0  0
  -25.6030  -33.8080   24.2210 N   0  0  0  0  0  0  0  0  0  0  0  0
  -25.9320  -34.8670   23.4690 C   0  0  0  0  0  0  0  0  0  0  0  0
  -26.5960  -34.7710   22.4340 O   0  0  0  0  0  0  0  0  0  0  0  0
  -25.0140  -33.9580   25.0260 H   0  0  0  0  0  0  0  0  0  0  0  0
  -24.1820  -36.6480   23.1640 C   0  0  0  0  0  1  0  0  0  0  0  0
  -25.4490  -36.2530   23.9380 C   0  0  0  0  0  3  0  0  0  0  0  0
  -27.5900  -37.1680   24.7200 C   0  0  0  0  0  1  0  0  0  0  0  0
  -26.4710  -37.3140   23.7940 N   0  0  0  0  0  0  0  0  0  0  0  0
  -26.0600  -38.2320   23.9360 H   0  0  0  0  0  0  0  0  0  0  0  0
  1 50  1  0
  1 11  1  0
  2  1  2  0
  3 15  1  0
  4  9  1  0
  5  6  1  0
  5  4  1  0
  7  6  1  0
  7 21  1  0
  7  8  1  0
  9  3  1  0
  9  8  1  0
 10  3  2  0
 11 12  2  0
 12 14  1  0
 12 46  1  0
 13 15  1  0
 13 14  2  0
 15 17  1  0
 16 11  1  0
 16 13  1  0
 18 19  2  0
 19 38  1  0
 20 19  1  0
 20 23  1  0
 21 22  1  0
 21 18  1  0
 22 20  2  0
 23 24  1  0
 24 25  2  0
 26 29  1  0
 26 25  1  0
 27 26  2  0
 28 27  1  0
 28 23  2  0
 29 30  1  0
 30 35  2  0
 30 31  1  0
 31 32  2  0
 32 33  1  0
 33 37  1  0
 34 33  2  0
 35 34  1  0
 36 35  1  0
 38 39  1  0
 39 42  1  0
 39 41  1  0
 40 38  2  0
 43 18  1  0
 43 44  1  0
 45 43  1  0
 46 48  1  0
 46 47  1  0
 49 50  1  0
 49 54  1  0
 50 52  1  0
 51 49  2  0
 54 53  1  0
 55 54  1  0
 56 67  2  0
 57 55  1  0
 57 62  1  0
 58 66  1  0
 58 68  1  0
 59 65  1  0
 59 61  1  0
 60 66  1  0
 61 60  1  0
 62 61  2  0
 63 64  1  0
 63 57  2  0
 64 59  2  0
 65 58  1  0
 66 56  1  0
 68 70  2  0
 69 68  1  0
 71 69  1  0
 72 81  2  0
 72 77  1  0
 73 69  1  0
 73 77  1  0
 74 73  1  0
 75 76  1  0
 75 74  1  0
 76 72  1  0
 77 78  2  0
 78 79  1  0
 80 79  2  0
 81 80  1  0
 82 56  1  0
 82 87  1  0
 82 83  1  0
 83 86  1  1
 83 84  1  0
 85 83  1  0
 87 90  1  0
 88 92  1  0
 88 87  1  0
 89 88  2  0
 92 91  1  0
 94 95  1  0
 94 92  1  0
 94 93  1  0
M  ISO  4   3 100  15 100  54 101  55 101
M  END
>  <TORSDO>  (92) 
F 19

>  <SCORE>  (92) 
-13.635

>  <name>  (92) 
92

>  <ligand_id>  (92) 
92

>  <original_smiles>  (92) 
[H]c1c([H])c([H])c2c(c1[H])C([H])([H])C([H])([H])C([H])([H])C2([H])N([H])C(=O)C1([H])N(C(=O)C([H])(N([H])C(=O)C([H])(N([H])C([H])([H])[H])C([H])([H])[H])C(C([H])([H])[H])(C([H])([H])[H])C([H])([H])[H])C([H])([H])c2c([H])c(OC([H])(C(=O)N([H])C(=S)c3sc(N([H])C(=O)N4C([H])([H])C([H])([H])C([H])([H])C([H])(n5nc(-c6c([H])c([H])c(Oc7c([H])c([H])c(F)c([H])c7F)c([H])c6[H])c(C(=O)N([H])[H])c5N([H])[H])C4([H])[H])nc3N([H])[H])C([H])([H])[H])c([H])c([H])c2C1([H])[H]

>  <smiles>  (92) 
[H]c1c([H])c([H])c2c(c1[H])C([H])([H])C([H])([H])C([H])([H])C2([H])N([H])C(=O)C1([H])N(C(=O)C([H])(N([H])C(=O)C([H])(N([H])C([H])([H])[H])C([H])([H])[H])C(C([H])([H])[H])(C([H])([H])[H])C([H])([H])[H])C([H])([H])c2c([H])c(OC([H])(C(=O)N([H])C(=S)c3sc(N([H])C(=O)N4C([H])([H])C([H])([H])C([H])([H])C([H])(n5nc(-c6c([H])c([H])c(Oc7c([H])c([H])c(F)c([H])c7F)c([H])c6[H])c(C(=O)N([H])[H])c5N([H])[H])C4([H])[H])nc3N([H])[H])C([H])([H])[H])c([H])c([H])c2C1([H])[H]

$$$$
93:0:0
     RDKit          3D

 89 96  0  0  1  0  0  0  0  0999 V2000
  -28.5130  -21.8070   20.3300 C   0  0  0  0  0  0  0  0  0  0  0  0
  -29.0210  -19.2480   20.4230 C   0  0  0  0  0  0  0  0  0  0  0  0
  -29.3370  -20.6400   20.3430 N   0  0  0  0  0  0  0  0  0  0  0  0
  -27.2860  -21.6840   20.2920 O   0  0  0  0  0  0  0  0  0  0  0  0
  -27.8430  -18.8990   20.5580 O   0  0  0  0  0  0  0  0  0  0  0  0
  -30.3280  -20.8220   20.2920 H   0  0  0  0  0  0  0  0  0  0  0  0
  -29.7150  -23.6120   21.7280 C   0  0  0  0  0  1  0  0  0  0  0  0
  -29.0200  -23.3880   20.3760 C   0  0  0  0  0  3  0  0  0  0  0  0
  -27.9780  -24.6920   20.1140 C   0  0  0  0  0  2  0  0  0  0  0  0
  -28.2630  -26.2200   20.2550 O   0  0  0  0  0  0  0  0  0  0  0  0
  -24.6370  -31.9020   23.2410 C   0  0  0  0  0  0  0  0  0  0  0  0
  -27.2040  -27.1980   20.1950 C   0  0  0  0  0  0  0  0  0  0  0  0
  -23.4320  -30.5120   21.6010 C   0  0  0  0  0  3  0  0  0  0  0  0
  -24.8750  -28.9410   20.1700 C   0  0  0  0  0  0  0  0  0  0  0  0
  -25.9860  -30.7770   21.4320 C   0  0  0  0  0  2  0  0  0  0  0  0
  -26.0570  -29.3870   20.7760 C   0  0  0  0  0  0  0  0  0  0  0  0
  -27.2220  -28.5320   20.7700 C   0  0  0  0  0  3  0  0  0  0  0  0
  -25.9930  -26.8520   19.5530 C   0  0  0  0  0  3  0  0  0  0  0  0
  -24.8560  -27.6870   19.5430 C   0  0  0  0  0  3  0  0  0  0  0  0
  -23.6490  -29.8380   20.2200 C   0  0  0  0  0  2  0  0  0  0  0  0
  -24.7050  -31.0850   22.1460 N   0  0  0  0  0  0  0  0  0  0  0  0
  -23.5520  -32.1870   23.7720 O   0  0  0  0  0  0  0  0  0  0  0  0
  -22.7530  -29.5030   22.5620 C   0  0  0  0  0  0  0  0  0  0  0  0
  -21.4250  -29.3350   22.4350 N   0  0  0  0  0  0  0  0  0  0  0  0
  -23.4250  -28.8750   23.3840 O   0  0  0  0  0  0  0  0  0  0  0  0
  -20.9400  -29.8940   21.7480 H   0  0  0  0  0  0  0  0  0  0  0  0
  -18.0410  -28.1460   22.9460 C   0  0  0  0  0  0  0  0  0  0  0  0
  -20.6020  -28.3990   23.2060 C   0  0  0  0  0  3  0  0  0  0  0  0
  -20.6960  -26.9670   22.6280 C   0  0  0  0  0  2  0  0  0  0  0  0
  -19.5900  -26.6510   21.6160 C   0  0  0  0  0  2  0  0  0  0  0  0
  -18.2110  -26.7990   22.2640 C   0  0  0  0  0  2  0  0  0  0  0  0
  -19.1630  -28.9040   23.3740 C   0  0  0  0  0  0  0  0  0  0  0  0
  -18.9490  -30.1640   23.9730 C   0  0  0  0  0  3  0  0  0  0  0  0
  -17.6470  -30.6680   24.1470 C   0  0  0  0  0  3  0  0  0  0  0  0
  -16.5390  -29.9070   23.7330 C   0  0  0  0  0  3  0  0  0  0  0  0
  -16.7370  -28.6480   23.1380 C   0  0  0  0  0  3  0  0  0  0  0  0
  -25.9170  -32.5340   23.8670 C   0  0  0  0  0  3  0  0  0  0  0  0
  -26.4270  -31.7610   25.1470 C   0  0  1  0  0  0  0  0  0  0  0  0
  -25.3300  -31.5260   26.2110 C   0  0  0  0  0  1  0  0  0  0  0  0
  -27.0090  -30.3820   24.7600 C   0  0  0  0  0  1  0  0  0  0  0  0
  -27.5780  -32.5530   25.8110 C   0  0  0  0  0  1  0  0  0  0  0  0
  -25.6080  -33.9320   24.2040 N   0  0  0  0  0  0  0  0  0  0  0  0
  -25.9180  -34.9890   23.4410 C   0  0  0  0  0  0  0  0  0  0  0  0
  -26.5620  -34.8880   22.3940 O   0  0  0  0  0  0  0  0  0  0  0  0
  -25.0320  -34.0830   25.0200 H   0  0  0  0  0  0  0  0  0  0  0  0
  -24.1660  -36.7720   23.1520 C   0  0  0  0  0  1  0  0  0  0  0  0
  -25.4400  -36.3760   23.9150 C   0  0  0  0  0  3  0  0  0  0  0  0
  -27.5980  -37.2820   24.6620 C   0  0  0  0  0  1  0  0  0  0  0  0
  -26.4610  -37.4360   23.7580 N   0  0  0  0  0  0  0  0  0  0  0  0
  -26.0530  -38.3540   23.9140 H   0  0  0  0  0  0  0  0  0  0  0  0
  -30.0930  -17.9860   20.3500 C   0  0  0  0  0  3  0  0  0  0  0  0
  -30.6900  -18.0540   19.1550 F   0  0  0  0  0  0  0  0  0  0  0  0
  -29.6500  -16.3820   20.6280 C   0  0  0  0  0  2  0  0  0  0  0  0
  -30.5140  -14.9960   20.3320 C   0  0  0  0  0  0  0  0  0  0  0  0
  -30.4100  -12.6510   19.3630 C   0  0  0  0  0  2  0  0  0  0  0  0
  -29.4630  -12.6460   18.1390 C   0  0  0  0  0  2  0  0  0  0  0  0
  -27.9990  -12.4350   18.5760 C   0  0  0  0  0  2  0  0  0  0  0  0
  -27.6080  -13.3390   19.7740 C   0  0  0  0  0  3  0  0  0  0  0  0
  -28.6720  -13.3160   20.8900 C   0  0  0  0  0  2  0  0  0  0  0  0
  -29.9520  -13.7210   20.2940 N   0  0  0  0  0  0  0  0  0  0  0  0
  -31.7040  -15.0770   20.0060 O   0  0  0  0  0  0  0  0  0  0  0  0
  -25.2350  -13.9150   20.5440 C   0  0  0  0  0  0  0  0  0  0  0  0
  -24.1720  -13.1380   20.9130 C   0  0  0  0  0  0  0  0  0  0  0  0
  -24.6330  -11.7870   20.8610 C   0  0  0  0  0  0  0  0  0  0  0  0
  -26.2730  -13.0380   20.2810 N   0  0  0  0  0  0  0  0  0  0  0  0
  -25.9210  -11.7510   20.5380 N   0  0  0  0  0  0  0  0  0  0  0  0
  -23.9050  -10.5250   21.0430 C   0  0  0  0  0  0  0  0  0  0  0  0
  -24.3310   -9.5530   21.9760 C   0  0  0  0  0  3  0  0  0  0  0  0
  -23.6020   -8.3560   22.1460 C   0  0  0  0  0  3  0  0  0  0  0  0
  -22.4330   -8.1220   21.3830 C   0  0  0  0  0  0  0  0  0  0  0  0
  -22.0270   -9.0820   20.4390 C   0  0  0  0  0  3  0  0  0  0  0  0
  -22.7560  -10.2700   20.2680 C   0  0  0  0  0  3  0  0  0  0  0  0
  -21.6760   -6.9780   21.4620 O   0  0  0  0  0  0  0  0  0  0  0  0
  -21.5990   -6.2450   22.6190 C   0  0  0  0  0  0  0  0  0  0  0  0
  -21.1280   -6.8040   23.8260 C   0  0  0  0  0  3  0  0  0  0  0  0
  -21.0000   -5.9960   24.9740 C   0  0  0  0  0  3  0  0  0  0  0  0
  -21.3340   -4.6300   24.9140 C   0  0  0  0  0  0  0  0  0  0  0  0
  -21.7980   -4.0700   23.7110 C   0  0  0  0  0  3  0  0  0  0  0  0
  -21.9270   -4.8740   22.5660 C   0  0  0  0  0  0  0  0  0  0  0  0
  -22.3550   -4.3250   21.4040 F   0  0  0  0  0  0  0  0  0  0  0  0
  -21.2030   -3.8520   26.0150 F   0  0  0  0  0  0  0  0  0  0  0  0
  -22.7790  -13.6150   21.2010 C   0  0  0  0  0  0  0  0  0  0  0  0
  -22.0570  -12.9140   22.0690 N   0  0  0  0  0  0  0  0  0  0  0  0
  -22.3370  -14.6460   20.6930 O   0  0  0  0  0  0  0  0  0  0  0  0
  -22.4280  -12.0800   22.5010 H   0  0  0  0  0  0  0  0  0  0  0  0
  -21.1230  -13.2130   22.3050 H   0  0  0  0  0  0  0  0  0  0  0  0
  -25.3990  -15.2880   20.3840 N   0  0  0  0  0  0  0  0  0  0  0  0
  -24.6350  -15.9410   20.5230 H   0  0  0  0  0  0  0  0  0  0  0  0
  -26.2480  -15.7380   20.0680 H   0  0  0  0  0  0  0  0  0  0  0  0
  1  3  1  0
  1  8  1  0
  2  5  2  0
  3  2  1  0
  4  1  2  0
  6  3  1  0
  8  7  1  0
  9 10  1  0
  9  8  1  0
 11 22  2  0
 12 10  1  0
 12 17  1  0
 13 21  1  0
 13 23  1  0
 14 20  1  0
 14 16  1  0
 15 21  1  0
 16 15  1  0
 17 16  2  0
 18 12  2  0
 19 18  1  0
 19 14  2  0
 20 13  1  0
 21 11  1  0
 23 25  2  0
 24 23  1  0
 26 24  1  0
 27 36  2  0
 27 32  1  0
 28 24  1  0
 28 32  1  0
 29 28  1  0
 30 31  1  0
 30 29  1  0
 31 27  1  0
 32 33  2  0
 33 34  1  0
 35 34  2  0
 36 35  1  0
 37 11  1  0
 37 42  1  0
 37 38  1  0
 38 41  1  1
 38 39  1  0
 40 38  1  0
 42 45  1  0
 43 47  1  0
 43 42  1  0
 44 43  2  0
 47 46  1  0
 49 50  1  0
 49 47  1  0
 49 48  1  0
 51 52  1  0
 51  2  1  0
 51 53  1  0
 54 53  1  0
 55 60  1  0
 56 57  1  0
 56 55  1  0
 58 57  1  0
 58 65  1  0
 58 59  1  0
 60 54  1  0
 60 59  1  0
 61 54  2  0
 62 63  2  0
 63 82  1  0
 64 63  1  0
 64 67  1  0
 65 66  1  0
 65 62  1  0
 66 64  2  0
 67 68  1  0
 68 69  2  0
 70 73  1  0
 70 69  1  0
 71 70  2  0
 72 71  1  0
 72 67  2  0
 73 74  1  0
 74 75  1  0
 75 76  2  0
 77 76  1  0
 77 81  1  0
 78 77  2  0
 79 74  2  0
 79 78  1  0
 80 79  1  0
 82 83  1  0
 83 86  1  0
 83 85  1  0
 84 82  2  0
 87 88  1  0
 87 62  1  0
 89 87  1  0
M  ISO  4   9 101  10 101  53 100  54 100
M  END
>  <TORSDO>  (93) 
F 20

>  <SCORE>  (93) 
-13.797

>  <name>  (93) 
93

>  <ligand_id>  (93) 
93

>  <original_smiles>  (93) 
[H]c1c([H])c([H])c2c(c1[H])C([H])([H])C([H])([H])C([H])([H])C2([H])N([H])C(=O)C1([H])N(C(=O)C([H])(N([H])C(=O)C([H])(N([H])C([H])([H])[H])C([H])([H])[H])C(C([H])([H])[H])(C([H])([H])[H])C([H])([H])[H])C([H])([H])c2c([H])c(OC([H])([H])C([H])(C(=O)N([H])C(=O)C([H])(F)C([H])([H])C(=O)N3C([H])([H])C([H])([H])C([H])([H])C([H])(n4nc(-c5c([H])c([H])c(Oc6c([H])c([H])c(F)c([H])c6F)c([H])c5[H])c(C(=O)N([H])[H])c4N([H])[H])C3([H])[H])C([H])([H])[H])c([H])c([H])c2C1([H])[H]

>  <smiles>  (93) 
[H]c1c([H])c([H])c2c(c1[H])C([H])([H])C([H])([H])C([H])([H])C2([H])N([H])C(=O)C1([H])N(C(=O)C([H])(N([H])C(=O)C([H])(N([H])C([H])([H])[H])C([H])([H])[H])C(C([H])([H])[H])(C([H])([H])[H])C([H])([H])[H])C([H])([H])c2c([H])c(OC([H])([H])C([H])(C(=O)N([H])C(=O)C([H])(F)C([H])([H])C(=O)N3C([H])([H])C([H])([H])C([H])([H])C([H])(n4nc(-c5c([H])c([H])c(Oc6c([H])c([H])c(F)c([H])c6F)c([H])c5[H])c(C(=O)N([H])[H])c4N([H])[H])C3([H])[H])C([H])([H])[H])c([H])c([H])c2C1([H])[H]

$$$$
94:0:0
     RDKit          3D

 91 99  0  0  1  0  0  0  0  0999 V2000
  -28.8790  -22.1970   20.3100 C   0  0  0  0  0  0  0  0  0  0  0  0
  -27.7070  -21.8840   20.5380 O   0  0  0  0  0  0  0  0  0  0  0  0
  -29.2800  -23.7590   20.3980 C   0  0  0  0  0  2  0  0  0  0  0  0
  -28.5150  -24.8630   18.2250 C   0  0  0  0  0  1  0  0  0  0  0  0
  -28.3300  -24.9180   19.7540 C   0  0  0  0  0  3  0  0  0  0  0  0
  -28.4470  -26.3800   20.1450 O   0  0  0  0  0  0  0  0  0  0  0  0
  -24.5970  -31.7680   23.1900 C   0  0  0  0  0  0  0  0  0  0  0  0
  -27.3270  -27.2580   20.0840 C   0  0  0  0  0  0  0  0  0  0  0  0
  -23.4440  -30.3790   21.5100 C   0  0  0  0  0  3  0  0  0  0  0  0
  -24.9410  -28.8800   20.0750 C   0  0  0  0  0  0  0  0  0  0  0  0
  -25.9860  -30.7290   21.3730 C   0  0  0  0  0  2  0  0  0  0  0  0
  -26.0980  -29.3610   20.6990 C   0  0  0  0  0  0  0  0  0  0  0  0
  -27.2920  -28.5630   20.6920 C   0  0  0  0  0  3  0  0  0  0  0  0
  -26.1340  -26.8540   19.4380 C   0  0  0  0  0  3  0  0  0  0  0  0
  -24.9650  -27.6350   19.4350 C   0  0  0  0  0  3  0  0  0  0  0  0
  -23.6930  -29.7390   20.1200 C   0  0  0  0  0  2  0  0  0  0  0  0
  -24.6930  -30.9760   22.0820 N   0  0  0  0  0  0  0  0  0  0  0  0
  -23.5000  -32.0170   23.7130 O   0  0  0  0  0  0  0  0  0  0  0  0
  -22.7840  -29.3320   22.4410 C   0  0  0  0  0  0  0  0  0  0  0  0
  -21.4660  -29.1190   22.2810 N   0  0  0  0  0  0  0  0  0  0  0  0
  -23.4590  -28.7160   23.2710 O   0  0  0  0  0  0  0  0  0  0  0  0
  -20.9770  -29.6740   21.5920 H   0  0  0  0  0  0  0  0  0  0  0  0
  -18.1140  -27.8150   22.6900 C   0  0  0  0  0  0  0  0  0  0  0  0
  -20.6570  -28.1480   23.0210 C   0  0  0  0  0  3  0  0  0  0  0  0
  -20.8150  -26.7260   22.4360 C   0  0  0  0  0  2  0  0  0  0  0  0
  -19.7480  -26.3820   21.3920 C   0  0  0  0  0  2  0  0  0  0  0  0
  -18.3470  -26.4790   22.0040 C   0  0  0  0  0  2  0  0  0  0  0  0
  -19.2000  -28.6050   23.1540 C   0  0  0  0  0  0  0  0  0  0  0  0
  -18.9290  -29.8540   23.7550 C   0  0  0  0  0  3  0  0  0  0  0  0
  -17.6060  -30.3130   23.8980 C   0  0  0  0  0  3  0  0  0  0  0  0
  -16.5350  -29.5220   23.4480 C   0  0  0  0  0  3  0  0  0  0  0  0
  -16.7900  -28.2740   22.8500 C   0  0  0  0  0  3  0  0  0  0  0  0
  -25.8560  -32.4160   23.8410 C   0  0  0  0  0  3  0  0  0  0  0  0
  -26.3600  -31.6420   25.1220 C   0  0  1  0  0  0  0  0  0  0  0  0
  -25.2500  -31.3770   26.1660 C   0  0  0  0  0  1  0  0  0  0  0  0
  -26.9740  -30.2770   24.7310 C   0  0  0  0  0  1  0  0  0  0  0  0
  -27.4840  -32.4480   25.8130 C   0  0  0  0  0  1  0  0  0  0  0  0
  -25.5180  -33.8060   24.1810 N   0  0  0  0  0  0  0  0  0  0  0  0
  -25.8520  -34.8730   23.4440 C   0  0  0  0  0  0  0  0  0  0  0  0
  -26.5470  -34.7930   22.4280 O   0  0  0  0  0  0  0  0  0  0  0  0
  -24.9050  -33.9410   24.9710 H   0  0  0  0  0  0  0  0  0  0  0  0
  -24.1180  -36.6560   23.0620 C   0  0  0  0  0  1  0  0  0  0  0  0
  -25.3350  -36.2490   23.9090 C   0  0  0  0  0  3  0  0  0  0  0  0
  -27.4280  -37.1430   24.8310 C   0  0  0  0  0  1  0  0  0  0  0  0
  -26.3580  -37.3140   23.8510 N   0  0  0  0  0  0  0  0  0  0  0  0
  -25.9370  -38.2280   23.9990 H   0  0  0  0  0  0  0  0  0  0  0  0
  -29.9220  -21.0270   19.9510 C   0  0  0  0  0  2  0  0  0  0  0  0
  -30.8070  -14.8370   20.0130 C   0  0  0  0  0  0  0  0  0  0  0  0
  -30.5840  -12.5780   18.9450 C   0  0  0  0  0  2  0  0  0  0  0  0
  -29.5500  -12.6690   17.7990 C   0  0  0  0  0  2  0  0  0  0  0  0
  -28.1160  -12.4730   18.3330 C   0  0  0  0  0  2  0  0  0  0  0  0
  -27.8280  -13.3290   19.5940 C   0  0  0  0  0  3  0  0  0  0  0  0
  -28.9670  -13.2050   20.6300 C   0  0  0  0  0  2  0  0  0  0  0  0
  -30.2130  -13.5950   19.9540 N   0  0  0  0  0  0  0  0  0  0  0  0
  -31.9730  -14.9820   19.6270 O   0  0  0  0  0  0  0  0  0  0  0  0
  -30.1920  -17.8170   21.8940 C   0  0  0  0  0  3  0  0  0  0  0  0
  -30.0890  -19.1920   21.8360 C   0  0  0  0  0  0  0  0  0  0  0  0
  -30.1330  -17.3490   20.5510 C   0  0  0  0  0  0  0  0  0  0  0  0
  -30.1320  -20.1740   22.9610 C   0  0  0  0  0  1  0  0  0  0  0  0
  -29.9580  -18.4290   19.7290 N   0  0  0  0  0  0  0  0  0  0  0  0
  -29.9280  -19.5930   20.5130 N   0  0  0  0  0  0  0  0  0  0  0  0
  -29.9580  -15.9080   20.2570 N   0  0  0  0  0  0  0  0  0  0  0  0
  -29.0180  -15.5890   20.4280 H   0  0  0  0  0  0  0  0  0  0  0  0
  -25.5160  -13.9100   20.5440 C   0  0  0  0  0  0  0  0  0  0  0  0
  -24.4700  -13.1300   20.9550 C   0  0  0  0  0  0  0  0  0  0  0  0
  -24.9070  -11.7770   20.8100 C   0  0  0  0  0  0  0  0  0  0  0  0
  -26.5220  -13.0320   20.1730 N   0  0  0  0  0  0  0  0  0  0  0  0
  -26.1670  -11.7410   20.3950 N   0  0  0  0  0  0  0  0  0  0  0  0
  -24.1770  -10.5160   20.9840 C   0  0  0  0  0  0  0  0  0  0  0  0
  -24.5870   -9.5490   21.9290 C   0  0  0  0  0  3  0  0  0  0  0  0
  -23.8580   -8.3520   22.0920 C   0  0  0  0  0  3  0  0  0  0  0  0
  -22.7040   -8.1120   21.3080 C   0  0  0  0  0  0  0  0  0  0  0  0
  -22.3140   -9.0660   20.3520 C   0  0  0  0  0  3  0  0  0  0  0  0
  -23.0440  -10.2550   20.1880 C   0  0  0  0  0  3  0  0  0  0  0  0
  -21.9480   -6.9660   21.3780 O   0  0  0  0  0  0  0  0  0  0  0  0
  -21.7650   -6.2970   22.5620 C   0  0  0  0  0  0  0  0  0  0  0  0
  -21.1820   -6.9210   23.6880 C   0  0  0  0  0  3  0  0  0  0  0  0
  -20.9480   -6.1770   24.8620 C   0  0  0  0  0  3  0  0  0  0  0  0
  -21.2860   -4.8110   24.9100 C   0  0  0  0  0  0  0  0  0  0  0  0
  -21.8610   -4.1880   23.7880 C   0  0  0  0  0  3  0  0  0  0  0  0
  -22.0970   -4.9290   22.6160 C   0  0  0  0  0  0  0  0  0  0  0  0
  -22.6310   -4.3190   21.5310 F   0  0  0  0  0  0  0  0  0  0  0  0
  -21.0550   -4.0940   26.0340 F   0  0  0  0  0  0  0  0  0  0  0  0
  -23.1070  -13.6070   21.3640 C   0  0  0  0  0  0  0  0  0  0  0  0
  -22.4500  -12.8890   22.2670 N   0  0  0  0  0  0  0  0  0  0  0  0
  -22.6350  -14.6520   20.9160 O   0  0  0  0  0  0  0  0  0  0  0  0
  -22.8450  -12.0430   22.6500 H   0  0  0  0  0  0  0  0  0  0  0  0
  -21.5390  -13.1910   22.5820 H   0  0  0  0  0  0  0  0  0  0  0  0
  -25.6850  -15.2880   20.4320 N   0  0  0  0  0  0  0  0  0  0  0  0
  -24.9290  -15.9340   20.6330 H   0  0  0  0  0  0  0  0  0  0  0  0
  -26.4860  -15.7410   20.0130 H   0  0  0  0  0  0  0  0  0  0  0  0
  1  3  1  0
  1  2  2  0
  5  4  1  0
  5  6  1  0
  5  3  1  0
  7 18  2  0
  8  6  1  0
  8 13  1  0
  9 17  1  0
  9 19  1  0
 10 16  1  0
 10 12  1  0
 11 17  1  0
 12 11  1  0
 13 12  2  0
 14  8  2  0
 15 14  1  0
 15 10  2  0
 16  9  1  0
 17  7  1  0
 19 21  2  0
 20 19  1  0
 22 20  1  0
 23 32  2  0
 23 28  1  0
 24 20  1  0
 24 28  1  0
 25 24  1  0
 26 27  1  0
 26 25  1  0
 27 23  1  0
 28 29  2  0
 29 30  1  0
 31 30  2  0
 32 31  1  0
 33  7  1  0
 33 38  1  0
 33 34  1  0
 34 37  1  1
 34 35  1  0
 36 34  1  0
 38 41  1  0
 39 43  1  0
 39 38  1  0
 40 39  2  0
 43 42  1  0
 45 43  1  0
 45 46  1  0
 45 44  1  0
 47  1  1  0
 47 61  1  0
 48 62  1  0
 49 54  1  0
 50 51  1  0
 50 49  1  0
 52 51  1  0
 52 67  1  0
 52 53  1  0
 54 48  1  0
 54 53  1  0
 55 48  2  0
 57 56  2  0
 57 59  1  0
 58 56  1  0
 60 61  1  0
 60 58  2  0
 61 57  1  0
 62 63  1  0
 62 58  1  0
 64 65  2  0
 65 84  1  0
 66 65  1  0
 66 69  1  0
 67 68  1  0
 67 64  1  0
 68 66  2  0
 69 70  1  0
 70 71  2  0
 72 75  1  0
 72 71  1  0
 73 72  2  0
 74 73  1  0
 74 69  2  0
 75 76  1  0
 76 81  2  0
 76 77  1  0
 77 78  2  0
 78 79  1  0
 79 83  1  0
 80 79  2  0
 81 80  1  0
 82 81  1  0
 84 85  1  0
 85 88  1  0
 85 87  1  0
 86 84  2  0
 89 64  1  0
 89 90  1  0
 91 89  1  0
M  ISO  4   5 101   6 101  48 100  62 100
M  END
>  <TORSDO>  (94) 
F 19

>  <SCORE>  (94) 
-12.748

>  <name>  (94) 
94

>  <ligand_id>  (94) 
94

>  <original_smiles>  (94) 
[H]c1c([H])c([H])c2c(c1[H])C([H])([H])C([H])([H])C([H])([H])C2([H])N([H])C(=O)C1([H])N(C(=O)C([H])(N([H])C(=O)C([H])(N([H])C([H])([H])[H])C([H])([H])[H])C(C([H])([H])[H])(C([H])([H])[H])C([H])([H])[H])C([H])([H])c2c([H])c(OC([H])(C([H])([H])[H])C([H])([H])C(=O)C([H])([H])n3nc(N([H])C(=O)N4C([H])([H])C([H])([H])C([H])([H])C([H])(n5nc(-c6c([H])c([H])c(Oc7c([H])c([H])c(F)c([H])c7F)c([H])c6[H])c(C(=O)N([H])[H])c5N([H])[H])C4([H])[H])c([H])c3C([H])([H])[H])c([H])c([H])c2C1([H])[H]

>  <smiles>  (94) 
[H]c1c([H])c([H])c2c(c1[H])C([H])([H])C([H])([H])C([H])([H])C2([H])N([H])C(=O)C1([H])N(C(=O)C([H])(N([H])C(=O)C([H])(N([H])C([H])([H])[H])C([H])([H])[H])C(C([H])([H])[H])(C([H])([H])[H])C([H])([H])[H])C([H])([H])c2c([H])c(OC([H])(C([H])([H])[H])C([H])([H])C(=O)C([H])([H])n3nc(N([H])C(=O)N4C([H])([H])C([H])([H])C([H])([H])C([H])(n5nc(-c6c([H])c([H])c(Oc7c([H])c([H])c(F)c([H])c7F)c([H])c6[H])c(C(=O)N([H])[H])c5N([H])[H])C4([H])[H])c([H])c3C([H])([H])[H])c([H])c([H])c2C1([H])[H]

$$$$
95:0:0
     RDKit          3D

 95103  0  0  1  0  0  0  0  0999 V2000
  -30.1330  -21.5790   20.3940 C   0  0  0  0  0  0  0  0  0  0  0  0
  -29.3510  -24.0460   20.4220 C   0  0  0  0  0  0  0  0  0  0  0  0
  -29.1540  -22.5660   20.3390 N   0  0  0  0  0  0  0  0  0  0  0  0
  -31.4160  -21.9450   20.5740 N   0  0  0  0  0  4  0  0  0  0  0  0
  -30.4940  -24.5210   20.4620 O   0  0  0  0  0  0  0  0  0  0  0  0
  -28.2280  -22.1750   20.2720 H   0  0  0  0  0  0  0  0  0  0  0  0
  -32.1490  -21.2640   20.7110 H   0  0  0  0  0  0  0  0  0  0  0  0
  -31.6480  -22.9320   20.6300 H   0  0  0  0  0  0  0  0  0  0  0  0
  -30.6270  -14.7310   20.0440 C   0  0  0  0  0  0  0  0  0  0  0  0
  -30.3590  -12.5110   18.9460 C   0  0  0  0  0  2  0  0  0  0  0  0
  -29.3430  -12.6610   17.7900 C   0  0  0  0  0  2  0  0  0  0  0  0
  -27.9000  -12.4800   18.3030 C   0  0  0  0  0  2  0  0  0  0  0  0
  -27.6150  -13.3090   19.5840 C   0  0  0  0  0  3  0  0  0  0  0  0
  -28.7400  -13.1380   20.6290 C   0  0  0  0  0  2  0  0  0  0  0  0
  -30.0100  -13.5040   19.9840 N   0  0  0  0  0  0  0  0  0  0  0  0
  -31.7560  -14.8870   19.5670 O   0  0  0  0  0  0  0  0  0  0  0  0
  -30.6640  -19.2550   19.3660 C   0  0  0  0  0  3  0  0  0  0  0  0
  -29.2230  -18.0640   21.2770 C   0  0  0  0  0  3  0  0  0  0  0  0
  -29.9200  -20.0690   20.2740 C   0  0  0  0  0  0  0  0  0  0  0  0
  -29.9790  -17.2340   20.3840 C   0  0  0  0  0  0  0  0  0  0  0  0
  -29.2010  -19.4420   21.2460 N   0  0  0  0  0  0  0  0  0  0  0  0
  -30.6930  -17.8810   19.4160 N   0  0  0  0  0  0  0  0  0  0  0  0
  -29.8850  -15.7760   20.5420 N   0  0  0  0  0  0  0  0  0  0  0  0
  -29.0630  -15.4710   21.0400 H   0  0  0  0  0  0  0  0  0  0  0  0
  -25.2710  -13.8780   20.4690 C   0  0  0  0  0  0  0  0  0  0  0  0
  -24.2290  -13.0920   20.8780 C   0  0  0  0  0  0  0  0  0  0  0  0
  -24.6870  -11.7420   20.7720 C   0  0  0  0  0  0  0  0  0  0  0  0
  -26.2980  -13.0080   20.1400 N   0  0  0  0  0  0  0  0  0  0  0  0
  -25.9560  -11.7160   20.3830 N   0  0  0  0  0  0  0  0  0  0  0  0
  -23.9730  -10.4730   20.9630 C   0  0  0  0  0  0  0  0  0  0  0  0
  -24.4200   -9.5060   21.8880 C   0  0  0  0  0  3  0  0  0  0  0  0
  -23.7050   -8.3010   22.0670 C   0  0  0  0  0  3  0  0  0  0  0  0
  -22.5270   -8.0570   21.3210 C   0  0  0  0  0  0  0  0  0  0  0  0
  -22.0990   -9.0140   20.3850 C   0  0  0  0  0  3  0  0  0  0  0  0
  -22.8150  -10.2090   20.2040 C   0  0  0  0  0  3  0  0  0  0  0  0
  -21.7830   -6.9060   21.4100 O   0  0  0  0  0  0  0  0  0  0  0  0
  -21.6880   -6.2000   22.5820 C   0  0  0  0  0  0  0  0  0  0  0  0
  -21.1690   -6.7770   23.7610 C   0  0  0  0  0  3  0  0  0  0  0  0
  -21.0240   -5.9950   24.9250 C   0  0  0  0  0  3  0  0  0  0  0  0
  -21.3880   -4.6360   24.9090 C   0  0  0  0  0  0  0  0  0  0  0  0
  -21.9000   -4.0570   23.7340 C   0  0  0  0  0  3  0  0  0  0  0  0
  -22.0470   -4.8360   22.5730 C   0  0  0  0  0  0  0  0  0  0  0  0
  -22.5200   -4.2680   21.4380 F   0  0  0  0  0  0  0  0  0  0  0  0
  -21.2420   -3.8810   26.0230 F   0  0  0  0  0  0  0  0  0  0  0  0
  -22.8520  -13.5580   21.2520 C   0  0  0  0  0  0  0  0  0  0  0  0
  -22.1810  -12.8360   22.1420 N   0  0  0  0  0  0  0  0  0  0  0  0
  -22.3810  -14.5970   20.7900 O   0  0  0  0  0  0  0  0  0  0  0  0
  -22.5760  -11.9950   22.5380 H   0  0  0  0  0  0  0  0  0  0  0  0
  -21.2590  -13.1280   22.4350 H   0  0  0  0  0  0  0  0  0  0  0  0
  -25.4250  -15.2540   20.3260 N   0  0  0  0  0  0  0  0  0  0  0  0
  -24.6580  -15.8970   20.4880 H   0  0  0  0  0  0  0  0  0  0  0  0
  -26.2310  -15.7000   19.9090 H   0  0  0  0  0  0  0  0  0  0  0  0
  -27.4160  -24.8190   21.8750 C   0  0  0  0  0  1  0  0  0  0  0  0
  -28.0870  -25.0040   20.4950 C   0  0  0  0  0  3  0  0  0  0  0  0
  -28.3590  -26.4700   20.3020 O   0  0  0  0  0  0  0  0  0  0  0  0
  -24.6290  -31.9100   23.2650 C   0  0  0  0  0  0  0  0  0  0  0  0
  -27.2600  -27.3490   20.2190 C   0  0  0  0  0  0  0  0  0  0  0  0
  -23.4370  -30.5150   21.6150 C   0  0  0  0  0  3  0  0  0  0  0  0
  -24.8980  -28.9730   20.1920 C   0  0  0  0  0  0  0  0  0  0  0  0
  -25.9790  -30.8320   21.4500 C   0  0  0  0  0  2  0  0  0  0  0  0
  -26.0650  -29.4560   20.8000 C   0  0  0  0  0  0  0  0  0  0  0  0
  -27.2490  -28.6570   20.8020 C   0  0  0  0  0  3  0  0  0  0  0  0
  -26.0740  -26.9330   19.5710 C   0  0  0  0  0  3  0  0  0  0  0  0
  -24.9070  -27.7180   19.5670 C   0  0  0  0  0  3  0  0  0  0  0  0
  -23.6610  -29.8450   20.2340 C   0  0  0  0  0  2  0  0  0  0  0  0
  -24.7010  -31.1030   22.1670 N   0  0  0  0  0  0  0  0  0  0  0  0
  -23.5420  -32.1870   23.7920 O   0  0  0  0  0  0  0  0  0  0  0  0
  -22.7690  -29.4960   22.5680 C   0  0  0  0  0  0  0  0  0  0  0  0
  -21.4440  -29.3170   22.4310 N   0  0  0  0  0  0  0  0  0  0  0  0
  -23.4410  -28.8690   23.3910 O   0  0  0  0  0  0  0  0  0  0  0  0
  -20.9590  -29.8740   21.7410 H   0  0  0  0  0  0  0  0  0  0  0  0
  -18.0580  -28.1440   22.9310 C   0  0  0  0  0  0  0  0  0  0  0  0
  -20.6190  -28.3780   23.1950 C   0  0  0  0  0  3  0  0  0  0  0  0
  -20.7070  -26.9510   22.6040 C   0  0  0  0  0  2  0  0  0  0  0  0
  -19.5980  -26.6500   21.5900 C   0  0  0  0  0  2  0  0  0  0  0  0
  -18.2200  -26.8000   22.2410 C   0  0  0  0  0  2  0  0  0  0  0  0
  -19.1840  -28.8920   23.3650 C   0  0  0  0  0  0  0  0  0  0  0  0
  -18.9790  -30.1500   23.9710 C   0  0  0  0  0  3  0  0  0  0  0  0
  -17.6780  -30.6610   24.1470 C   0  0  0  0  0  3  0  0  0  0  0  0
  -16.5660  -29.9100   23.7290 C   0  0  0  0  0  3  0  0  0  0  0  0
  -16.7570  -28.6530   23.1270 C   0  0  0  0  0  3  0  0  0  0  0  0
  -25.9070  -32.5430   23.8970 C   0  0  0  0  0  3  0  0  0  0  0  0
  -25.5940  -33.9390   24.2320 N   0  0  0  0  0  0  0  0  0  0  0  0
  -25.8960  -34.9930   23.4620 C   0  0  0  0  0  0  0  0  0  0  0  0
  -26.5390  -34.8940   22.4130 O   0  0  0  0  0  0  0  0  0  0  0  0
  -25.0180  -34.0910   25.0470 H   0  0  0  0  0  0  0  0  0  0  0  0
  -24.1310  -36.7610   23.1670 C   0  0  0  0  0  1  0  0  0  0  0  0
  -25.4100  -36.3790   23.9290 C   0  0  0  0  0  3  0  0  0  0  0  0
  -27.5590  -37.3030   24.6720 C   0  0  0  0  0  1  0  0  0  0  0  0
  -26.4220  -37.4440   23.7670 N   0  0  0  0  0  0  0  0  0  0  0  0
  -26.0080  -38.3610   23.9170 H   0  0  0  0  0  0  0  0  0  0  0  0
  -26.4170  -31.7680   25.1740 C   0  0  1  0  0  0  0  0  0  0  0  0
  -25.3160  -31.5200   26.2310 C   0  0  0  0  0  1  0  0  0  0  0  0
  -27.0100  -30.3940   24.7800 C   0  0  0  0  0  1  0  0  0  0  0  0
  -27.5580  -32.5640   25.8490 C   0  0  0  0  0  1  0  0  0  0  0  0
  1  4  2  0
  2  5  2  0
  2 54  1  0
  3  1  1  0
  3  2  1  0
  4  8  1  0
  4  7  1  0
  6  3  1  0
  9 23  1  0
 10 15  1  0
 11 12  1  0
 11 10  1  0
 13 12  1  0
 13 28  1  0
 13 14  1  0
 15  9  1  0
 15 14  1  0
 16  9  2  0
 17 22  2  0
 17 19  1  0
 19  1  1  0
 19 21  2  0
 20 23  1  0
 20 18  2  0
 21 18  1  0
 22 20  1  0
 23 24  1  0
 25 26  2  0
 26 45  1  0
 27 26  1  0
 27 30  1  0
 28 29  1  0
 28 25  1  0
 29 27  2  0
 30 31  1  0
 31 32  2  0
 33 36  1  0
 33 32  1  0
 34 33  2  0
 35 34  1  0
 35 30  2  0
 36 37  1  0
 37 38  1  0
 38 39  2  0
 40 39  1  0
 40 44  1  0
 41 40  2  0
 42 37  2  0
 42 41  1  0
 43 42  1  0
 45 46  1  0
 46 49  1  0
 46 48  1  0
 47 45  2  0
 50 25  1  0
 50 51  1  0
 52 50  1  0
 54 53  1  0
 55 54  1  0
 56 67  2  0
 57 55  1  0
 57 62  1  0
 58 66  1  0
 58 68  1  0
 59 65  1  0
 59 61  1  0
 60 66  1  0
 61 62  2  0
 61 60  1  0
 63 57  2  0
 64 63  1  0
 64 59  2  0
 65 58  1  0
 66 56  1  0
 68 70  2  0
 69 68  1  0
 71 69  1  0
 72 81  2  0
 72 77  1  0
 73 69  1  0
 73 77  1  0
 74 73  1  0
 75 76  1  0
 75 74  1  0
 76 72  1  0
 77 78  2  0
 78 79  1  0
 80 79  2  0
 81 80  1  0
 82 56  1  0
 82 83  1  0
 82 92  1  0
 83 86  1  0
 84 88  1  0
 84 83  1  0
 85 84  2  0
 88 87  1  0
 90 91  1  0
 90 88  1  0
 90 89  1  0
 92 95  1  1
 92 93  1  0
 94 92  1  0
M  ISO  4   9 100  23 100  54 101  55 101
M  END
>  <TORSDO>  (95) 
F 17

>  <SCORE>  (95) 
-14.546

>  <name>  (95) 
95

>  <ligand_id>  (95) 
95

>  <original_smiles>  (95) 
[H]c1nc(N([H])C(=O)N2C([H])([H])C([H])([H])C([H])([H])C([H])(n3nc(-c4c([H])c([H])c(Oc5c([H])c([H])c(F)c([H])c5F)c([H])c4[H])c(C(=O)N([H])[H])c3N([H])[H])C2([H])[H])c([H])nc1C(N([H])C(=O)C([H])(Oc1c([H])c([H])c2c(c1[H])C([H])([H])N(C(=O)C([H])(N([H])C(=O)C([H])(N([H])C([H])([H])[H])C([H])([H])[H])C(C([H])([H])[H])(C([H])([H])[H])C([H])([H])[H])C([H])(C(=O)N([H])C1([H])c3c([H])c([H])c([H])c([H])c3C([H])([H])C([H])([H])C1([H])[H])C2([H])[H])C([H])([H])[H])=[N+]([H])[H]

>  <smiles>  (95) 
[H]c1nc(N([H])C(=O)N2C([H])([H])C([H])([H])C([H])([H])C([H])(n3nc(-c4c([H])c([H])c(Oc5c([H])c([H])c(F)c([H])c5F)c([H])c4[H])c(C(=O)N([H])[H])c3N([H])[H])C2([H])[H])c([H])nc1C(N([H])C(=O)C([H])(Oc1c([H])c([H])c2c(c1[H])C([H])([H])N(C(=O)C([H])(N([H])C(=O)C([H])(N([H])C([H])([H])[H])C([H])([H])[H])C(C([H])([H])[H])(C([H])([H])[H])C([H])([H])[H])C([H])(C(=O)N([H])C1([H])c3c([H])c([H])c([H])c([H])c3C([H])([H])C([H])([H])C1([H])[H])C2([H])[H])C([H])([H])[H])=[N+]([H])[H]

$$$$
96:0:0
     RDKit          3D

 96104  0  0  1  0  0  0  0  0999 V2000
  -29.2240  -21.4430   20.8880 C   0  0  0  0  0  0  0  0  0  0  0  0
  -28.9990  -22.5890   20.1370 N   0  0  0  0  0  0  0  0  0  0  0  0
  -29.1720  -21.5440   22.1170 O   0  0  0  0  0  0  0  0  0  0  0  0
  -28.9980  -22.4910   19.1330 H   0  0  0  0  0  0  0  0  0  0  0  0
  -30.6760  -14.9240   19.9800 C   0  0  0  0  0  0  0  0  0  0  0  0
  -30.4550  -12.6610   18.9370 C   0  0  0  0  0  2  0  0  0  0  0  0
  -29.4410  -12.7530   17.7730 C   0  0  0  0  0  2  0  0  0  0  0  0
  -27.9990  -12.5660   18.2860 C   0  0  0  0  0  2  0  0  0  0  0  0
  -27.6970  -13.4280   19.5400 C   0  0  0  0  0  3  0  0  0  0  0  0
  -28.8190  -13.3020   20.5960 C   0  0  0  0  0  2  0  0  0  0  0  0
  -30.0840  -13.6800   19.9470 N   0  0  0  0  0  0  0  0  0  0  0  0
  -31.7980  -15.0830   19.4860 O   0  0  0  0  0  0  0  0  0  0  0  0
  -29.5460  -20.0270   20.3220 C   0  0  0  0  0  0  0  0  0  0  0  0
  -30.1300  -19.4930   19.1760 C   0  0  0  0  0  0  0  0  0  0  0  0
  -29.9440  -17.4400   20.2890 C   0  0  0  0  0  0  0  0  0  0  0  0
  -30.3280  -18.0800   19.1690 N   0  0  0  0  0  0  0  0  0  0  0  0
  -29.9340  -15.9730   20.4930 N   0  0  0  0  0  0  0  0  0  0  0  0
  -29.2670  -18.6450   21.4350 S   0  0  0  0  0  0  0  0  0  0  0  0
  -29.1630  -15.6560   21.0610 H   0  0  0  0  0  0  0  0  0  0  0  0
  -25.3620  -14.0010   20.4420 C   0  0  0  0  0  0  0  0  0  0  0  0
  -24.3170  -13.2190   20.8500 C   0  0  0  0  0  0  0  0  0  0  0  0
  -24.7660  -11.8680   20.7320 C   0  0  0  0  0  0  0  0  0  0  0  0
  -26.3820  -13.1280   20.1000 N   0  0  0  0  0  0  0  0  0  0  0  0
  -26.0330  -11.8370   20.3360 N   0  0  0  0  0  0  0  0  0  0  0  0
  -24.0440  -10.6030   20.9180 C   0  0  0  0  0  0  0  0  0  0  0  0
  -24.5050   -9.6140   21.8160 C   0  0  0  0  0  3  0  0  0  0  0  0
  -23.7830   -8.4150   21.9910 C   0  0  0  0  0  3  0  0  0  0  0  0
  -22.5860   -8.1940   21.2690 C   0  0  0  0  0  0  0  0  0  0  0  0
  -22.1440   -9.1710   20.3600 C   0  0  0  0  0  3  0  0  0  0  0  0
  -22.8660  -10.3630   20.1830 C   0  0  0  0  0  3  0  0  0  0  0  0
  -21.8330   -7.0480   21.3560 O   0  0  0  0  0  0  0  0  0  0  0  0
  -21.7840   -6.3050   22.5080 C   0  0  0  0  0  0  0  0  0  0  0  0
  -21.3140   -6.8470   23.7240 C   0  0  0  0  0  3  0  0  0  0  0  0
  -21.2140   -6.0290   24.8680 C   0  0  0  0  0  3  0  0  0  0  0  0
  -21.5720   -4.6690   24.7950 C   0  0  0  0  0  0  0  0  0  0  0  0
  -22.0340   -4.1270   23.5830 C   0  0  0  0  0  3  0  0  0  0  0  0
  -22.1360   -4.9430   22.4420 C   0  0  0  0  0  0  0  0  0  0  0  0
  -22.5620   -4.4090   21.2720 F   0  0  0  0  0  0  0  0  0  0  0  0
  -21.4690   -3.8810   25.8900 F   0  0  0  0  0  0  0  0  0  0  0  0
  -22.9450  -13.6910   21.2330 C   0  0  0  0  0  0  0  0  0  0  0  0
  -22.2700  -12.9640   22.1170 N   0  0  0  0  0  0  0  0  0  0  0  0
  -22.4820  -14.7410   20.7870 O   0  0  0  0  0  0  0  0  0  0  0  0
  -22.6610  -12.1160   22.5000 H   0  0  0  0  0  0  0  0  0  0  0  0
  -21.3520  -13.2620   22.4150 H   0  0  0  0  0  0  0  0  0  0  0  0
  -25.5240  -15.3780   20.3110 N   0  0  0  0  0  0  0  0  0  0  0  0
  -24.7640  -16.0250   20.4900 H   0  0  0  0  0  0  0  0  0  0  0  0
  -26.3380  -15.8270   19.9110 H   0  0  0  0  0  0  0  0  0  0  0  0
  -30.5450  -20.2020   18.0460 N   0  0  0  0  0  0  0  0  0  0  0  0
  -30.6250  -21.2120   18.0460 H   0  0  0  0  0  0  0  0  0  0  0  0
  -31.0780  -19.7350   17.3190 H   0  0  0  0  0  0  0  0  0  0  0  0
  -28.6540  -23.9880   20.6860 C   0  0  0  0  0  3  0  0  0  0  0  0
  -27.2860  -23.9670   21.3930 C   0  0  0  0  0  0  0  0  0  0  0  0
  -27.1050  -24.8850   22.5940 C   0  0  0  0  0  1  0  0  0  0  0  0
  -26.3470  -23.2540   21.0250 O   0  0  0  0  0  0  0  0  0  0  0  0
  -28.6540  -25.2370   19.6600 C   0  0  0  0  0  2  0  0  0  0  0  0
  -28.5570  -26.6580   20.1460 O   0  0  0  0  0  0  0  0  0  0  0  0
  -24.6780  -31.9400   23.2080 C   0  0  0  0  0  0  0  0  0  0  0  0
  -27.3980  -27.4660   20.0820 C   0  0  0  0  0  0  0  0  0  0  0  0
  -23.5140  -30.5570   21.5250 C   0  0  0  0  0  3  0  0  0  0  0  0
  -25.0040  -29.0580   20.0790 C   0  0  0  0  0  0  0  0  0  0  0  0
  -26.0500  -30.9140   21.3770 C   0  0  0  0  0  2  0  0  0  0  0  0
  -26.1580  -29.5500   20.6980 C   0  0  0  0  0  0  0  0  0  0  0  0
  -27.3530  -28.7650   20.6890 C   0  0  0  0  0  3  0  0  0  0  0  0
  -26.2140  -27.0300   19.4440 C   0  0  0  0  0  3  0  0  0  0  0  0
  -25.0360  -27.8070   19.4400 C   0  0  0  0  0  3  0  0  0  0  0  0
  -23.7520  -29.9140   20.1320 C   0  0  0  0  0  2  0  0  0  0  0  0
  -24.7660  -31.1540   22.0940 N   0  0  0  0  0  0  0  0  0  0  0  0
  -23.5850  -32.1880   23.7380 O   0  0  0  0  0  0  0  0  0  0  0  0
  -22.8570  -29.5110   22.4580 C   0  0  0  0  0  0  0  0  0  0  0  0
  -21.5300  -29.3390   22.3370 N   0  0  0  0  0  0  0  0  0  0  0  0
  -23.5410  -28.8580   23.2500 O   0  0  0  0  0  0  0  0  0  0  0  0
  -21.0370  -29.9190   21.6720 H   0  0  0  0  0  0  0  0  0  0  0  0
  -18.1510  -28.1500   22.8470 C   0  0  0  0  0  0  0  0  0  0  0  0
  -20.7160  -28.3770   23.0810 C   0  0  0  0  0  3  0  0  0  0  0  0
  -20.7960  -26.9690   22.4440 C   0  0  0  0  0  2  0  0  0  0  0  0
  -19.6740  -26.7000   21.4370 C   0  0  0  0  0  2  0  0  0  0  0  0
  -18.3050  -26.8290   22.1110 C   0  0  0  0  0  2  0  0  0  0  0  0
  -19.2840  -28.8830   23.2870 C   0  0  0  0  0  0  0  0  0  0  0  0
  -19.0870  -30.1210   23.9370 C   0  0  0  0  0  3  0  0  0  0  0  0
  -17.7900  -30.6240   24.1490 C   0  0  0  0  0  3  0  0  0  0  0  0
  -16.6720  -29.8860   23.7240 C   0  0  0  0  0  3  0  0  0  0  0  0
  -16.8530  -28.6510   23.0770 C   0  0  0  0  0  3  0  0  0  0  0  0
  -25.9440  -32.5800   23.8570 C   0  0  0  0  0  3  0  0  0  0  0  0
  -26.4400  -31.8080   25.1420 C   0  0  1  0  0  0  0  0  0  0  0  0
  -25.3270  -31.5550   26.1850 C   0  0  0  0  0  1  0  0  0  0  0  0
  -27.0450  -30.4380   24.7580 C   0  0  0  0  0  1  0  0  0  0  0  0
  -27.5680  -32.6110   25.8320 C   0  0  0  0  0  1  0  0  0  0  0  0
  -25.6170  -33.9740   24.1890 N   0  0  0  0  0  0  0  0  0  0  0  0
  -25.9360  -35.0330   23.4310 C   0  0  0  0  0  0  0  0  0  0  0  0
  -26.6030  -34.9400   22.3980 O   0  0  0  0  0  0  0  0  0  0  0  0
  -25.0210  -34.1200   24.9900 H   0  0  0  0  0  0  0  0  0  0  0  0
  -24.1840  -36.8050   23.0860 C   0  0  0  0  0  1  0  0  0  0  0  0
  -25.4320  -36.4150   23.8930 C   0  0  0  0  0  3  0  0  0  0  0  0
  -27.5530  -37.3290   24.7260 C   0  0  0  0  0  1  0  0  0  0  0  0
  -26.4510  -37.4810   23.7790 N   0  0  0  0  0  0  0  0  0  0  0  0
  -26.0340  -38.3960   23.9230 H   0  0  0  0  0  0  0  0  0  0  0  0
  1  3  2  0
  2 51  1  0
  2  1  1  0
  4  2  1  0
  5 17  1  0
  6 11  1  0
  7  8  1  0
  7  6  1  0
  9  8  1  0
  9 23  1  0
  9 10  1  0
 11  5  1  0
 11 10  1  0
 12  5  2  0
 13  1  1  0
 13 18  1  0
 14 13  2  0
 15 17  1  0
 15 18  1  0
 16 14  1  0
 16 15  2  0
 17 19  1  0
 20 21  2  0
 21 40  1  0
 22 21  1  0
 22 25  1  0
 23 24  1  0
 23 20  1  0
 24 22  2  0
 25 26  1  0
 26 27  2  0
 28 31  1  0
 28 27  1  0
 29 28  2  0
 30 29  1  0
 30 25  2  0
 31 32  1  0
 32 33  1  0
 33 34  2  0
 35 34  1  0
 35 39  1  0
 36 35  2  0
 37 32  2  0
 37 36  1  0
 38 37  1  0
 40 41  1  0
 41 44  1  0
 41 43  1  0
 42 40  2  0
 45 20  1  0
 45 46  1  0
 47 45  1  0
 48 49  1  0
 48 14  1  0
 50 48  1  0
 51 55  1  0
 51 52  1  0
 52 53  1  0
 54 52  2  0
 55 56  1  0
 57 68  2  0
 58 56  1  0
 58 63  1  0
 59 67  1  0
 59 69  1  0
 60 66  1  0
 60 62  1  0
 61 67  1  0
 62 61  1  0
 63 62  2  0
 64 58  2  0
 65 64  1  0
 65 60  2  0
 66 59  1  0
 67 57  1  0
 69 71  2  0
 70 69  1  0
 72 70  1  0
 73 82  2  0
 73 78  1  0
 74 70  1  0
 74 78  1  0
 75 74  1  0
 76 77  1  0
 76 75  1  0
 77 73  1  0
 78 79  2  0
 79 80  1  0
 81 80  2  0
 82 81  1  0
 83 57  1  0
 83 88  1  0
 83 84  1  0
 84 87  1  1
 84 85  1  0
 86 84  1  0
 88 91  1  0
 89 93  1  0
 89 88  1  0
 90 89  2  0
 93 92  1  0
 95 93  1  0
 95 96  1  0
 95 94  1  0
M  ISO  4   5 100  17 100  55 101  56 101
M  END
>  <TORSDO>  (96) 
F 20

>  <SCORE>  (96) 
-13.319

>  <name>  (96) 
96

>  <ligand_id>  (96) 
96

>  <original_smiles>  (96) 
[H]c1c([H])c([H])c2c(c1[H])C([H])([H])C([H])([H])C([H])([H])C2([H])N([H])C(=O)C1([H])N(C(=O)C([H])(N([H])C(=O)C([H])(N([H])C([H])([H])[H])C([H])([H])[H])C(C([H])([H])[H])(C([H])([H])[H])C([H])([H])[H])C([H])([H])c2c([H])c(OC([H])([H])C([H])(C(=O)C([H])([H])[H])N([H])C(=O)c3sc(N([H])C(=O)N4C([H])([H])C([H])([H])C([H])([H])C([H])(n5nc(-c6c([H])c([H])c(Oc7c([H])c([H])c(F)c([H])c7F)c([H])c6[H])c(C(=O)N([H])[H])c5N([H])[H])C4([H])[H])nc3N([H])[H])c([H])c([H])c2C1([H])[H]

>  <smiles>  (96) 
[H]c1c([H])c([H])c2c(c1[H])C([H])([H])C([H])([H])C([H])([H])C2([H])N([H])C(=O)C1([H])N(C(=O)C([H])(N([H])C(=O)C([H])(N([H])C([H])([H])[H])C([H])([H])[H])C(C([H])([H])[H])(C([H])([H])[H])C([H])([H])[H])C([H])([H])c2c([H])c(OC([H])([H])C([H])(C(=O)C([H])([H])[H])N([H])C(=O)c3sc(N([H])C(=O)N4C([H])([H])C([H])([H])C([H])([H])C([H])(n5nc(-c6c([H])c([H])c(Oc7c([H])c([H])c(F)c([H])c7F)c([H])c6[H])c(C(=O)N([H])[H])c5N([H])[H])C4([H])[H])nc3N([H])[H])c([H])c([H])c2C1([H])[H]

$$$$
97:0:0
     RDKit          3D

 94102  0  0  1  0  0  0  0  0999 V2000
  -28.8240  -20.9780   20.3070 N   0  0  0  0  0  4  0  0  0  0  0  0
  -27.8600  -20.6790   20.3810 H   0  0  0  0  0  0  0  0  0  0  0  0
  -30.6210  -14.8130   20.2990 C   0  0  0  0  0  0  0  0  0  0  0  0
  -30.3770  -12.5320   19.3140 C   0  0  0  0  0  2  0  0  0  0  0  0
  -29.4260  -12.5900   18.0990 C   0  0  0  0  0  2  0  0  0  0  0  0
  -27.9610  -12.4310   18.5500 C   0  0  0  0  0  2  0  0  0  0  0  0
  -27.6030  -13.3090   19.7810 C   0  0  0  0  0  3  0  0  0  0  0  0
  -28.6860  -13.2390   20.8820 C   0  0  0  0  0  2  0  0  0  0  0  0
  -29.9630  -13.5990   20.2570 N   0  0  0  0  0  0  0  0  0  0  0  0
  -31.8230  -14.8200   20.0250 O   0  0  0  0  0  0  0  0  0  0  0  0
  -31.4350  -17.7180   19.4820 C   0  0  0  0  0  3  0  0  0  0  0  0
  -31.8110  -19.0280   19.1440 C   0  0  0  0  0  0  0  0  0  0  0  0
  -30.9750  -20.1150   19.4470 C   0  0  0  0  0  0  0  0  0  0  0  0
  -30.2200  -17.4380   20.1490 C   0  0  0  0  0  0  0  0  0  0  0  0
  -29.7470  -19.8720   20.0990 C   0  0  0  0  0  0  0  0  0  0  0  0
  -29.3960  -18.5490   20.4200 N   0  0  0  0  0  0  0  0  0  0  0  0
  -29.8910  -16.0020   20.4520 N   0  0  0  0  0  0  0  0  0  0  0  0
  -32.9770  -19.2330   18.4820 F   0  0  0  0  0  0  0  0  0  0  0  0
  -31.3320  -21.3590   19.0390 F   0  0  0  0  0  0  0  0  0  0  0  0
  -28.9350  -15.8520   20.7260 H   0  0  0  0  0  0  0  0  0  0  0  0
  -25.2330  -13.8780   20.5720 C   0  0  0  0  0  0  0  0  0  0  0  0
  -24.1760  -13.0960   20.9490 C   0  0  0  0  0  0  0  0  0  0  0  0
  -24.6380  -11.7460   20.8880 C   0  0  0  0  0  0  0  0  0  0  0  0
  -26.2730  -13.0040   20.2990 N   0  0  0  0  0  0  0  0  0  0  0  0
  -25.9240  -11.7160   20.5530 N   0  0  0  0  0  0  0  0  0  0  0  0
  -23.9150  -10.4800   21.0680 C   0  0  0  0  0  0  0  0  0  0  0  0
  -24.3530   -9.5030   21.9890 C   0  0  0  0  0  3  0  0  0  0  0  0
  -23.6310   -8.3040   22.1610 C   0  0  0  0  0  3  0  0  0  0  0  0
  -22.4530   -8.0700   21.4100 C   0  0  0  0  0  0  0  0  0  0  0  0
  -22.0330   -9.0360   20.4790 C   0  0  0  0  0  3  0  0  0  0  0  0
  -22.7590  -10.2270   20.3060 C   0  0  0  0  0  3  0  0  0  0  0  0
  -21.6980   -6.9260   21.4930 O   0  0  0  0  0  0  0  0  0  0  0  0
  -21.6420   -6.1810   22.6420 C   0  0  0  0  0  0  0  0  0  0  0  0
  -21.1790   -6.7240   23.8610 C   0  0  0  0  0  3  0  0  0  0  0  0
  -21.0740   -5.9040   25.0030 C   0  0  0  0  0  3  0  0  0  0  0  0
  -21.4210   -4.5410   24.9260 C   0  0  0  0  0  0  0  0  0  0  0  0
  -21.8790   -3.9980   23.7130 C   0  0  0  0  0  3  0  0  0  0  0  0
  -21.9850   -4.8160   22.5720 C   0  0  0  0  0  0  0  0  0  0  0  0
  -22.4050   -4.2810   21.4010 F   0  0  0  0  0  0  0  0  0  0  0  0
  -21.3120   -3.7520   26.0200 F   0  0  0  0  0  0  0  0  0  0  0  0
  -22.7840  -13.5650   21.2510 C   0  0  0  0  0  0  0  0  0  0  0  0
  -22.0650  -12.8560   22.1120 N   0  0  0  0  0  0  0  0  0  0  0  0
  -22.3420  -14.6010   20.7550 O   0  0  0  0  0  0  0  0  0  0  0  0
  -22.4370  -12.0200   22.5390 H   0  0  0  0  0  0  0  0  0  0  0  0
  -21.1270  -13.1520   22.3460 H   0  0  0  0  0  0  0  0  0  0  0  0
  -25.3910  -15.2520   20.4160 N   0  0  0  0  0  0  0  0  0  0  0  0
  -24.6290  -15.9020   20.5770 H   0  0  0  0  0  0  0  0  0  0  0  0
  -26.2260  -15.7000   20.0610 H   0  0  0  0  0  0  0  0  0  0  0  0
  -30.3430  -22.4620   21.7680 C   0  0  0  0  0  1  0  0  0  0  0  0
  -29.0360  -22.3510   20.9560 C   0  0  0  0  0  0  0  0  0  0  0  0
  -28.7640  -23.7430   20.1380 C   0  0  0  0  0  0  0  0  0  0  0  0
  -29.0100  -23.8180   18.9290 O   0  0  0  0  0  0  0  0  0  0  0  0
  -28.1550  -25.0370   20.8780 C   0  0  0  0  0  2  0  0  0  0  0  0
  -28.3820  -26.4220   20.3280 O   0  0  0  0  0  0  0  0  0  0  0  0
  -24.5950  -31.9100   23.2630 C   0  0  0  0  0  0  0  0  0  0  0  0
  -27.2820  -27.3050   20.3000 C   0  0  0  0  0  0  0  0  0  0  0  0
  -23.4320  -30.4900   21.6120 C   0  0  0  0  0  3  0  0  0  0  0  0
  -24.9160  -28.9300   20.2250 C   0  0  0  0  0  0  0  0  0  0  0  0
  -25.9750  -30.8090   21.4780 C   0  0  0  0  0  2  0  0  0  0  0  0
  -26.0740  -29.4230   20.8420 C   0  0  0  0  0  0  0  0  0  0  0  0
  -27.2650  -28.6260   20.8630 C   0  0  0  0  0  3  0  0  0  0  0  0
  -26.1030  -26.8730   19.6590 C   0  0  0  0  0  3  0  0  0  0  0  0
  -24.9370  -27.6630   19.6200 C   0  0  0  0  0  3  0  0  0  0  0  0
  -23.6780  -29.8070   20.2400 C   0  0  0  0  0  2  0  0  0  0  0  0
  -24.6860  -31.0900   22.1740 N   0  0  0  0  0  0  0  0  0  0  0  0
  -23.5010  -32.1880   23.7750 O   0  0  0  0  0  0  0  0  0  0  0  0
  -22.7560  -29.4790   22.5690 C   0  0  0  0  0  0  0  0  0  0  0  0
  -21.4300  -29.2980   22.4240 N   0  0  0  0  0  0  0  0  0  0  0  0
  -23.4230  -28.8630   23.4030 O   0  0  0  0  0  0  0  0  0  0  0  0
  -20.9520  -29.8480   21.7250 H   0  0  0  0  0  0  0  0  0  0  0  0
  -18.0450  -28.1130   22.9020 C   0  0  0  0  0  0  0  0  0  0  0  0
  -20.6020  -28.3630   23.1880 C   0  0  0  0  0  3  0  0  0  0  0  0
  -20.7020  -26.9320   22.6100 C   0  0  0  0  0  2  0  0  0  0  0  0
  -19.6040  -26.6160   21.5890 C   0  0  0  0  0  2  0  0  0  0  0  0
  -18.2200  -26.7660   22.2250 C   0  0  0  0  0  2  0  0  0  0  0  0
  -19.1640  -28.8710   23.3390 C   0  0  0  0  0  0  0  0  0  0  0  0
  -18.9450  -30.1330   23.9340 C   0  0  0  0  0  3  0  0  0  0  0  0
  -17.6400  -30.6390   24.0950 C   0  0  0  0  0  3  0  0  0  0  0  0
  -16.5350  -29.8770   23.6740 C   0  0  0  0  0  3  0  0  0  0  0  0
  -16.7390  -28.6170   23.0830 C   0  0  0  0  0  3  0  0  0  0  0  0
  -25.8620  -32.5560   23.9040 C   0  0  0  0  0  3  0  0  0  0  0  0
  -26.3450  -31.8100   25.2100 C   0  0  1  0  0  0  0  0  0  0  0  0
  -25.2250  -31.5930   26.2540 C   0  0  0  0  0  1  0  0  0  0  0  0
  -26.9410  -30.4260   24.8630 C   0  0  0  0  0  1  0  0  0  0  0  0
  -27.4770  -32.6200   25.8870 C   0  0  0  0  0  1  0  0  0  0  0  0
  -25.5450  -33.9600   24.2030 N   0  0  0  0  0  0  0  0  0  0  0  0
  -25.8950  -35.0020   23.4350 C   0  0  0  0  0  0  0  0  0  0  0  0
  -26.5880  -34.8800   22.4220 O   0  0  0  0  0  0  0  0  0  0  0  0
  -24.9340  -34.1270   24.9900 H   0  0  0  0  0  0  0  0  0  0  0  0
  -24.1900  -36.7980   22.9950 C   0  0  0  0  0  1  0  0  0  0  0  0
  -25.3980  -36.3990   23.8580 C   0  0  0  0  0  3  0  0  0  0  0  0
  -27.5020  -37.2880   24.7590 C   0  0  0  0  0  1  0  0  0  0  0  0
  -26.4400  -37.4440   23.7700 N   0  0  0  0  0  0  0  0  0  0  0  0
  -26.0320  -38.3690   23.8830 H   0  0  0  0  0  0  0  0  0  0  0  0
  1  2  1  0
  1 50  2  0
  3 17  1  0
  4  9  1  0
  5  6  1  0
  5  4  1  0
  7  6  1  0
  7 24  1  0
  7  8  1  0
  9  3  1  0
  9  8  1  0
 10  3  2  0
 11 14  1  0
 12 13  1  0
 12 11  2  0
 13 15  2  0
 14 16  2  0
 14 17  1  0
 15  1  1  0
 15 16  1  0
 17 20  1  0
 18 12  1  0
 19 13  1  0
 21 22  2  0
 22 41  1  0
 23 22  1  0
 23 26  1  0
 24 25  1  0
 24 21  1  0
 25 23  2  0
 26 27  1  0
 27 28  2  0
 29 32  1  0
 29 28  1  0
 30 29  2  0
 31 30  1  0
 31 26  2  0
 32 33  1  0
 33 34  1  0
 34 35  2  0
 36 35  1  0
 36 40  1  0
 37 36  2  0
 38 33  2  0
 38 37  1  0
 39 38  1  0
 41 42  1  0
 42 45  1  0
 42 44  1  0
 43 41  2  0
 46 21  1  0
 46 47  1  0
 48 46  1  0
 50 49  1  0
 51 53  1  0
 51 50  1  0
 52 51  2  0
 54 53  1  0
 55 66  2  0
 56 54  1  0
 56 61  1  0
 57 65  1  0
 57 67  1  0
 58 64  1  0
 58 60  1  0
 59 65  1  0
 60 61  2  0
 60 59  1  0
 62 56  2  0
 63 62  1  0
 63 58  2  0
 64 57  1  0
 65 55  1  0
 67 69  2  0
 68 67  1  0
 70 68  1  0
 71 80  2  0
 71 76  1  0
 72 68  1  0
 72 76  1  0
 73 72  1  0
 74 75  1  0
 74 73  1  0
 75 71  1  0
 76 77  2  0
 77 78  1  0
 79 78  2  0
 80 79  1  0
 81 55  1  0
 81 86  1  0
 81 82  1  0
 82 85  1  1
 82 83  1  0
 84 82  1  0
 86 89  1  0
 87 91  1  0
 87 86  1  0
 88 87  2  0
 91 90  1  0
 93 91  1  0
 93 94  1  0
 93 92  1  0
M  ISO  4   3 100  17 100  53 101  54 101
M  END
>  <TORSDO>  (97) 
F 19

>  <SCORE>  (97) 
-14.459

>  <name>  (97) 
97

>  <ligand_id>  (97) 
97

>  <original_smiles>  (97) 
[H]c1c([H])c([H])c2c(c1[H])C([H])([H])C([H])([H])C([H])([H])C2([H])N([H])C(=O)C1([H])N(C(=O)C([H])(N([H])C(=O)C([H])(N([H])C([H])([H])[H])C([H])([H])[H])C(C([H])([H])[H])(C([H])([H])[H])C([H])([H])[H])C([H])([H])c2c([H])c(OC([H])([H])C(=O)C([H])(N([H])c3nc(N([H])C(=O)N4C([H])([H])C([H])([H])C([H])([H])C([H])(n5nc(-c6c([H])c([H])c(Oc7c([H])c([H])c(F)c([H])c7F)c([H])c6[H])c(C(=O)N([H])[H])c5N([H])[H])C4([H])[H])c([H])c(F)c3F)C([H])([H])[H])c([H])c([H])c2C1([H])[H]

>  <smiles>  (97) 
[H]c1c([H])c([H])c2c(c1[H])C([H])([H])C([H])([H])C([H])([H])C2([H])N([H])C(=O)C1([H])N(C(=O)C([H])(N([H])C(=O)C([H])(N([H])C([H])([H])[H])C([H])([H])[H])C(C([H])([H])[H])(C([H])([H])[H])C([H])([H])[H])C([H])([H])c2c([H])c(OC([H])([H])C(=O)C([H])(N([H])c3nc(N([H])C(=O)N4C([H])([H])C([H])([H])C([H])([H])C([H])(n5nc(-c6c([H])c([H])c(Oc7c([H])c([H])c(F)c([H])c7F)c([H])c6[H])c(C(=O)N([H])[H])c5N([H])[H])C4([H])[H])c([H])c(F)c3F)C([H])([H])[H])c([H])c([H])c2C1([H])[H]

$$$$
